
#######################################################################
#
#                 Cambridge Crystallographic Data Centre
#                                CCDC 
#
#######################################################################
#
# If this CIF has been generated from an entry in the Cambridge 
# Structural Database, then it will include bibliographic, chemical, 
# crystal, experimental, refinement or atomic coordinate data resulting 
# from the CCDC's data processing and validation procedures.
#
#######################################################################

data_DOKBAI
_chemical_formula_moiety         '2(C40 H50 N8 O2),C8 H20 N1 1+,Cl1 1-'
_chemical_name_systematic        
"tetraethylammonium bis(N,N'-(4,6-bis(1-(4-t-butylphenyl)-1H-1,2,3-triazol-4-yl)-1,3-phenylene)bis(2,2-dimethylpropanamide)) chloride"
_symmetry_cell_setting           triclinic
_symmetry_space_group_name_H-M   'P -1'
_symmetry_Int_Tables_number      2
_space_group_name_Hall           '-P 1'
loop_
_symmetry_equiv_pos_site_id
_symmetry_equiv_pos_as_xyz
1 x,y,z
2 -x,-y,-z
_cell_length_a                   20.868(4)
_cell_length_b                   22.184(4)
_cell_length_c                   22.207(5)
_cell_angle_alpha                79.546(3)
_cell_angle_beta                 81.047(4)
_cell_angle_gamma                77.042(3)
_cell_volume                     9781.21
_exptl_crystal_colour            colorless
_exptl_crystal_description       block
_cell_formula_units_Z            4
loop_
_atom_site_label
_atom_site_type_symbol
_atom_site_fract_x
_atom_site_fract_y
_atom_site_fract_z
Cl1 Cl 0.15632(6) 1.11940(5) 0.39395(6)
Cl2 Cl 0.33864(6) 1.14622(5) 0.09926(6)
O1 O 0.27490(18) 0.70769(17) 0.41119(19)
O2 O 0.11090(19) 0.77068(18) 0.33597(19)
N1 N 0.29356(19) 0.79754(16) 0.43243(18)
N2 N 0.05993(19) 0.84209(17) 0.39785(18)
N3 N -0.0177(2) 0.95789(19) 0.42506(19)
N4 N -0.0609(2) 1.01141(19) 0.42431(19)
N5 N -0.0261(2) 1.05579(18) 0.42541(18)
N6 N 0.3416(2) 0.89650(19) 0.4582(2)
N7 N 0.3788(2) 0.93648(18) 0.46155(19)
N8 N 0.33792(19) 0.99362(17) 0.45816(17)
C1 C 0.2300(2) 0.8382(2) 0.4303(2)
C2 C 0.1765(2) 0.8190(2) 0.4161(2)
C3 C 0.1149(2) 0.8605(2) 0.4133(2)
C4 C 0.1058(2) 0.9205(2) 0.4292(2)
C5 C 0.1604(2) 0.9379(2) 0.4446(2)
C6 C 0.2237(2) 0.8990(2) 0.4448(2)
C7 C 0.3130(2) 0.7377(2) 0.4228(2)
C8 C 0.3850(3) 0.7085(2) 0.4287(3)
C9 C 0.4309(3) 0.7499(3) 0.3928(4)
C10 C 0.3955(4) 0.7009(4) 0.4945(4)
C11 C 0.4022(3) 0.6460(3) 0.4058(4)
C12 C 0.0600(3) 0.7993(2) 0.3606(2)
C13 C -0.0079(3) 0.7893(2) 0.3540(2)
C14 C 0.0001(3) 0.7402(3) 0.3119(3)
C15 C -0.0501(3) 0.8514(3) 0.3244(3)
C16 C -0.0426(3) 0.7682(3) 0.4157(3)
C17 C 0.0442(2) 0.9680(2) 0.4262(2)
C18 C 0.0387(2) 1.0312(2) 0.4257(2)
C19 C -0.0567(2) 1.1202(2) 0.4256(2)
C20 C -0.0215(3) 1.1606(2) 0.4405(2)
C21 C -0.0483(3) 1.2229(2) 0.4381(2)
C22 C -0.1110(3) 1.2484(2) 0.4226(3)
C23 C -0.1469(3) 1.2067(3) 0.4099(3)
C24 C -0.1196(3) 1.1433(3) 0.4112(2)
C25 C -0.1388(3) 1.3182(3) 0.4210(3)
C26 C -0.2098(3) 1.3371(3) 0.4065(4)
C27 C -0.1369(4) 1.3371(3) 0.4837(3)
C28 C -0.0961(4) 1.3543(3) 0.3726(3)
C29 C 0.2781(2) 0.9276(2) 0.4526(2)
C30 C 0.2756(2) 0.9900(2) 0.4527(2)
C31 C 0.3624(2) 1.0498(2) 0.4558(2)
C32 C 0.3290(2) 1.1047(2) 0.4256(2)
C33 C 0.3498(2) 1.1604(2) 0.4236(2)
C34 C 0.4045(2) 1.1619(2) 0.4507(2)
C35 C 0.4380(2) 1.1048(2) 0.4810(2)
C36 C 0.4168(2) 1.0492(2) 0.4833(2)
C37 C 0.4275(3) 1.2232(2) 0.4496(2)
C38 C 0.4180(3) 1.2375(2) 0.5154(2)
C39 C 0.5008(3) 1.2161(2) 0.4241(3)
C40 C 0.3876(3) 1.2780(2) 0.4092(2)
H1 H 0.1814 0.7775 0.4079
H2 H 0.1547 0.9783 0.4559
H3 H 0.4756 0.7307 0.3980
H4 H 0.4200 0.7887 0.4081
H5 H 0.4255 0.7569 0.3502
H6 H 0.4406 0.6828 0.4989
H7 H 0.3853 0.7418 0.5052
H8 H 0.3680 0.6758 0.5210
H9 H 0.4472 0.6274 0.4099
H10 H 0.3957 0.6535 0.3635
H11 H 0.3746 0.6187 0.4281
H12 H -0.0420 0.7334 0.3071
H13 H 0.0216 0.7548 0.2727
H14 H 0.0263 0.7021 0.3293
H15 H -0.0925 0.8451 0.3200
H16 H -0.0550 0.8825 0.3500
H17 H -0.0282 0.8648 0.2850
H18 H -0.0851 0.7616 0.4117
H19 H -0.0473 0.7993 0.4412
H20 H -0.0167 0.7302 0.4336
H21 H 0.0732 1.0530 0.4249
H22 H 0.0219 1.1446 0.4517
H23 H -0.0226 1.2493 0.4479
H24 H -0.1906 1.2250 0.4005
H25 H -0.1462 1.1176 0.4016
H26 H -0.2239 1.3809 0.4063
H27 H -0.2385 1.3157 0.4358
H28 H -0.2110 1.3276 0.3666
H29 H -0.1558 1.3803 0.4837
H30 H -0.0918 1.3294 0.4905
H31 H -0.1604 1.3129 0.5155
H32 H -0.1140 1.3979 0.3699
H33 H -0.0523 1.3459 0.3834
H34 H -0.0953 1.3414 0.3339
H35 H 0.2381 1.0233 0.4489
H36 H 0.2920 1.1044 0.4055
H37 H 0.3256 1.1985 0.4040
H38 H 0.4755 1.1046 0.5005
H39 H 0.4399 1.0110 0.5037
H40 H 0.4318 1.2752 0.5164
H41 H 0.4434 1.2038 0.5400
H42 H 0.3724 1.2414 0.5309
H43 H 0.5148 1.2542 0.4234
H44 H 0.5265 1.1833 0.4493
H45 H 0.5065 1.2065 0.3833
H46 H 0.4028 1.3153 0.4091
H47 H 0.3422 1.2832 0.4257
H48 H 0.3925 1.2693 0.3682
H49 H 0.3244 0.8140 0.4413
H50 H 0.0213 0.8601 0.4140
O3 O 0.2239(2) 0.78889(18) 0.1112(2)
O4 O 0.38987(18) 0.75788(16) 0.17714(18)
N9 N 0.2088(2) 0.89218(17) 0.07285(18)
N10 N 0.44125(19) 0.82783(16) 0.11123(17)
N11 N 0.5182(2) 0.91928(17) 0.07608(18)
N12 N 0.5630(2) 0.95389(17) 0.07163(18)
N13 N 0.52983(19) 1.01422(17) 0.06937(17)
N14 N 0.1636(2) 1.01739(18) 0.0309(2)
N15 N 0.1256(2) 1.07349(18) 0.0226(2)
N16 N 0.16256(19) 1.11415(17) 0.03078(18)
C41 C 0.2711(2) 0.9059(2) 0.0759(2)
C42 C 0.3242(2) 0.8596(2) 0.0941(2)
C43 C 0.3857(2) 0.8744(2) 0.0961(2)
C44 C 0.3937(2) 0.9367(2) 0.0796(2)
C45 C 0.3392(2) 0.9815(2) 0.0620(2)
C46 C 0.2778(2) 0.9687(2) 0.0603(2)
C47 C 0.1875(3) 0.8371(2) 0.0911(2)
C48 C 0.1156(3) 0.8379(2) 0.0859(3)
C49 C 0.0783(3) 0.8484(4) 0.1491(3)
C50 C 0.0850(3) 0.8900(3) 0.0378(3)
C51 C 0.1116(4) 0.7755(3) 0.0718(5)
C52 C 0.4406(3) 0.7715(2) 0.1487(2)
C53 C 0.5074(3) 0.7253(2) 0.1502(3)
C54 C 0.5153(4) 0.6902(3) 0.0953(4)
C55 C 0.5658(3) 0.7561(3) 0.1459(3)
C56 C 0.5045(3) 0.6802(3) 0.2111(3)
C57 C 0.4557(2) 0.9578(2) 0.0777(2)
C58 C 0.4640(2) 1.0183(2) 0.0735(2)
C59 C 0.5638(2) 1.0639(2) 0.0671(2)
C60 C 0.6263(3) 1.0518(2) 0.0835(2)
C61 C 0.6563(2) 1.1010(2) 0.0847(2)
C62 C 0.6242(3) 1.1627(2) 0.0721(2)
C63 C 0.5609(3) 1.1738(2) 0.0557(2)
C64 C 0.5311(2) 1.1254(2) 0.0525(2)
C65 C 0.6558(3) 1.2182(2) 0.0755(2)
C66 C 0.7257(3) 1.1974(3) 0.0920(3)
C67 C 0.6573(3) 1.2608(3) 0.0138(3)
C68 C 0.6131(3) 1.2548(3) 0.1247(3)
C69 C 0.2237(2) 1.0215(2) 0.0454(2)
C70 C 0.2231(2) 1.0836(2) 0.0449(2)
C71 C 0.1346(2) 1.1797(2) 0.0269(2)
C72 C 0.1653(3) 1.2168(2) 0.0524(2)
C73 C 0.1395(3) 1.2801(2) 0.0485(2)
C74 C 0.0829(3) 1.3078(2) 0.0203(2)
C75 C 0.0538(3) 1.2688(2) -0.0045(2)
C76 C 0.0782(3) 1.2060(2) -0.0016(2)
C77 C 0.0554(3) 1.3782(2) 0.0142(3)
C78 C 0.0834(4) 1.4101(3) 0.0574(3)
C79 C 0.0776(4) 1.4095(3) -0.0502(3)
C80 C -0.0161(4) 1.3927(3) 0.0319(4)
H51 H 0.3188 0.8174 0.1052
H52 H 0.3443 1.0237 0.0503
H53 H 0.0327 0.8490 0.1484
H54 H 0.0830 0.8871 0.1586
H55 H 0.0954 0.8153 0.1795
H56 H 0.0401 0.8884 0.0367
H57 H 0.0872 0.9292 0.0482
H58 H 0.1093 0.8853 -0.0015
H59 H 0.0672 0.7739 0.0686
H60 H 0.1382 0.7691 0.0338
H61 H 0.1281 0.7437 0.1037
H62 H 0.5560 0.6606 0.0945
H63 H 0.5153 0.7194 0.0583
H64 H 0.4797 0.6691 0.0988
H65 H 0.6050 0.7246 0.1477
H66 H 0.5614 0.7798 0.1785
H67 H 0.5684 0.7830 0.1075
H68 H 0.5455 0.6512 0.2127
H69 H 0.4957 0.7015 0.2458
H70 H 0.4700 0.6584 0.2115
H71 H 0.4304 1.0551 0.0734
H72 H 0.6486 1.0096 0.0932
H73 H 0.7001 1.0924 0.0956
H74 H 0.5381 1.2158 0.0461
H75 H 0.4877 1.1335 0.0407
H76 H 0.7434 1.2329 0.0934
H77 H 0.7253 1.1718 0.1313
H78 H 0.7522 1.1741 0.0619
H79 H 0.6769 1.2952 0.0152
H80 H 0.6132 1.2757 0.0042
H81 H 0.6823 1.2374 -0.0169
H82 H 0.6309 1.2896 0.1283
H83 H 0.5693 1.2690 0.1141
H84 H 0.6125 1.2274 0.1629
H85 H 0.2580 1.1010 0.0530
H86 H 0.2036 1.1981 0.0724
H87 H 0.1607 1.3065 0.0644
H88 H 0.0155 1.2866 -0.0247
H89 H 0.0573 1.1801 -0.0184
H90 H 0.0654 1.4538 0.0515
H91 H 0.1303 1.4034 0.0484
H92 H 0.0720 1.3928 0.0991
H93 H 0.0619 1.4536 -0.0545
H94 H 0.1246 1.4007 -0.0576
H95 H 0.0601 1.3929 -0.0791
H96 H -0.0321 1.4367 0.0283
H97 H -0.0266 1.3739 0.0732
H98 H -0.0363 1.3760 0.0049
H99 H 0.4799 0.8356 0.0952
H100 H 0.1799 0.9233 0.0570
O5 O 0.2560(2) 0.4722(2) 0.39830(19)
O6 O 0.0831(2) 0.54248(16) 0.31505(18)
N17 N 0.2073(2) 0.40080(19) 0.4651(2)
N18 N 0.0824(2) 0.44789(18) 0.28836(19)
N19 N 0.0512(2) 0.35185(18) 0.24913(19)
N20 N 0.0277(2) 0.31654(18) 0.21915(19)
N21 N 0.0411(2) 0.25796(18) 0.25009(18)
N22 N 0.2113(2) 0.28503(19) 0.53511(19)
N23 N 0.2306(2) 0.23331(19) 0.57337(19)
N24 N 0.2209(2) 0.18533(18) 0.54701(18)
C81 C 0.1731(3) 0.3814(2) 0.4245(2)
C82 C 0.1450(3) 0.4237(2) 0.3767(2)
C83 C 0.1119(3) 0.4054(2) 0.3366(2)
C84 C 0.1080(2) 0.3412(2) 0.3426(2)
C85 C 0.1343(2) 0.3007(2) 0.3915(2)
C86 C 0.1655(2) 0.3188(2) 0.4342(2)
C87 C 0.2460(3) 0.4448(3) 0.4506(3)
C88 C 0.2781(3) 0.4557(2) 0.5037(3)
C89 C 0.3002(5) 0.5155(3) 0.4885(4)
C90 C 0.3241(4) 0.3998(3) 0.5270(3)
C91 C 0.2219(5) 0.4686(4) 0.5602(4)
C92 C 0.0677(3) 0.5121(2) 0.2812(3)
C93 C 0.0322(3) 0.5428(3) 0.2244(3)
C94 C 0.0185(4) 0.6126(2) 0.2196(3)
C95 C -0.0284(4) 0.5184(3) 0.2247(4)
C96 C 0.0785(5) 0.5260(4) 0.1654(3)
C97 C 0.0784(2) 0.3157(2) 0.2993(2)
C98 C 0.0725(2) 0.2562(2) 0.2996(2)
C99 C 0.0186(2) 0.2087(2) 0.2315(2)
C100 C 0.0018(3) 0.1607(2) 0.2757(2)
C101 C -0.0228(3) 0.1142(2) 0.2590(2)
C102 C -0.0297(3) 0.1138(2) 0.1978(2)
C103 C -0.0101(3) 0.1627(2) 0.1540(2)
C104 C 0.0136(3) 0.2085(2) 0.1705(2)
C105 C -0.0612(3) 0.0649(2) 0.1783(2)
C106 C -0.1266(3) 0.0976(3) 0.1547(3)
C107 C -0.0147(3) 0.0347(3) 0.1267(3)
C108 C -0.0741(3) 0.0130(3) 0.2320(3)
C109 C 0.1908(2) 0.2708(2) 0.4856(2)
C110 C 0.1964(2) 0.2069(2) 0.4928(2)
C111 C 0.2387(2) 0.1227(2) 0.5765(2)
C112 C 0.2931(3) 0.1058(2) 0.6086(2)
C113 C 0.3113(3) 0.0442(2) 0.6360(2)
C114 C 0.2761(2) -0.0011(2) 0.6334(2)
C115 C 0.2215(3) 0.0176(2) 0.6017(2)
C116 C 0.2024(3) 0.0785(2) 0.5735(2)
C117 C 0.2996(3) -0.0684(2) 0.6636(2)
C118 C 0.3057(4) -0.0697(3) 0.7319(3)
C119 C 0.2542(3) -0.1111(3) 0.6594(3)
C120 C 0.3680(3) -0.0936(3) 0.6326(3)
H101 H 0.1489 0.4662 0.3717
H102 H 0.1302 0.2582 0.3967
H103 H 0.3199 0.5216 0.5221
H104 H 0.2630 0.5485 0.4813
H105 H 0.3315 0.5154 0.4526
H106 H 0.3437 0.4072 0.5602
H107 H 0.3578 0.3888 0.4945
H108 H 0.3010 0.3666 0.5409
H109 H 0.2417 0.4755 0.5935
H110 H 0.1900 0.5049 0.5477
H111 H 0.2009 0.4339 0.5731
H112 H -0.0026 0.6310 0.1838
H113 H -0.0091 0.6258 0.2550
H114 H 0.0596 0.6252 0.2163
H115 H -0.0501 0.5375 0.1894
H116 H -0.0574 0.5269 0.2609
H117 H -0.0164 0.4744 0.2249
H118 H 0.0579 0.5454 0.1296
H119 H 0.1178 0.5410 0.1647
H120 H 0.0892 0.4819 0.1662
H121 H 0.0874 0.2206 0.3286
H122 H 0.0072 0.1598 0.3176
H123 H -0.0344 0.0807 0.2890
H124 H -0.0138 0.1634 0.1118
H125 H 0.0274 0.2405 0.1401
H126 H -0.1467 0.0677 0.1431
H127 H -0.1548 0.1170 0.1867
H128 H -0.1194 0.1285 0.1200
H129 H -0.0331 0.0041 0.1143
H130 H 0.0264 0.0154 0.1417
H131 H -0.0079 0.0661 0.0925
H132 H -0.0938 -0.0162 0.2186
H133 H -0.1035 0.0319 0.2636
H134 H -0.0337 -0.0081 0.2474
H135 H 0.1852 0.1831 0.4660
H136 H 0.3177 0.1362 0.6116
H137 H 0.3493 0.0324 0.6574
H138 H 0.1964 -0.0126 0.5994
H139 H 0.1645 0.0901 0.5519
H140 H 0.3207 -0.1117 0.7501
H141 H 0.3362 -0.0450 0.7355
H142 H 0.2635 -0.0536 0.7523
H143 H 0.2709 -0.1522 0.6789
H144 H 0.2121 -0.0953 0.6802
H145 H 0.2500 -0.1121 0.6176
H146 H 0.3838 -0.1353 0.6512
H147 H 0.3974 -0.0679 0.6368
H148 H 0.3658 -0.0929 0.5900
H149 H 0.2032 0.3830 0.5034
H150 H 0.0724 0.4312 0.2594
O7 O 0.2684(2) 1.54154(17) 0.08689(18)
O8 O 0.43523(19) 1.49978(17) 0.17484(18)
N25 N 0.3120(2) 1.47061(17) 0.02188(19)
N26 N 0.4368(2) 1.39554(18) 0.19835(19)
N27 N 0.4651(2) 1.26942(19) 0.2369(2)
N28 N 0.4834(2) 1.2127(2) 0.26722(19)
N29 N 0.4641(2) 1.17331(18) 0.23689(19)
N30 N 0.3033(2) 1.38473(18) -0.04802(19)
N31 N 0.2797(2) 1.35589(18) -0.08450(19)
N32 N 0.2841(2) 1.29573(17) -0.05651(18)
C121 C 0.3451(3) 1.4216(2) 0.0627(2)
C122 C 0.3733(2) 1.4336(2) 0.1099(2)
C123 C 0.4058(3) 1.3845(2) 0.1508(2)
C124 C 0.4072(2) 1.3219(2) 0.1450(2)
C125 C 0.3807(3) 1.3113(2) 0.0949(2)
C126 C 0.3506(2) 1.3588(2) 0.0528(2)
C127 C 0.2744(3) 1.5263(2) 0.0360(3)
C128 C 0.2377(3) 1.5667(2) -0.0162(3)
C129 C 0.2876(3) 1.5805(3) -0.0726(3)
C130 C 0.2007(3) 1.6280(2) 0.0049(3)
C131 C 0.1884(3) 1.5334(3) -0.0328(3)
C132 C 0.4527(3) 1.4501(3) 0.2055(3)
C133 C 0.4958(4) 1.4432(3) 0.2566(3)
C134 C 0.4992(4) 1.5065(4) 0.2690(4)
C135 C 0.4713(5) 1.4079(5) 0.3138(4)
C136 C 0.5632(6) 1.4074(5) 0.2385(5)
C137 C 0.4351(2) 1.2671(2) 0.1881(2)
C138 C 0.4341(2) 1.2060(2) 0.1879(2)
C139 C 0.4804(3) 1.1066(2) 0.2539(2)
C140 C 0.4801(3) 1.0782(2) 0.3129(2)
C141 C 0.4958(2) 1.0132(2) 0.3252(2)
C142 C 0.5130(3) 0.9768(2) 0.2789(2)
C143 C 0.5117(4) 1.0073(3) 0.2201(3)
C144 C 0.4956(4) 1.0718(3) 0.2067(3)
C145 C 0.5300(2) 0.9049(2) 0.2887(2)
C146 C 0.5330(3) 0.8775(2) 0.3562(2)
C147 C 0.4775(3) 0.8813(3) 0.2657(3)
C148 C 0.5976(3) 0.8830(2) 0.2527(3)
C149 C 0.3219(2) 1.3426(2) 0.0030(2)
C150 C 0.3095(2) 1.2860(2) -0.0025(2)
C151 C 0.2617(2) 1.2523(2) -0.0858(2)
C152 C 0.2898(2) 1.1901(2) -0.0752(2)
C153 C 0.2676(2) 1.1482(2) -0.1026(2)
C154 C 0.2172(2) 1.1682(2) -0.1398(2)
C155 C 0.1902(3) 1.2321(2) -0.1497(2)
C156 C 0.2119(3) 1.2744(2) -0.1226(2)
C157 C 0.1905(3) 1.1237(2) -0.1708(3)
C158 C 0.1168(3) 1.1294(3) -0.1508(3)
C159 C 0.2254(3) 1.0558(2) -0.1543(3)
C160 C 0.2018(3) 1.1427(3) -0.2418(3)
H151 H 0.3712 1.4758 0.1145
H152 H 0.3835 1.2692 0.0897
H153 H 0.2648 1.6057 -0.1051
H154 H 0.3182 1.6017 -0.0623
H155 H 0.3107 1.5420 -0.0854
H156 H 0.1775 1.6542 -0.0270
H157 H 0.2307 1.6492 0.0163
H158 H 0.1699 1.6183 0.0397
H159 H 0.1655 1.5583 -0.0654
H160 H 0.1575 1.5248 0.0022
H161 H 0.2123 1.4952 -0.0456
H162 H 0.5256 1.5023 0.3013
H163 H 0.5187 1.5283 0.2324
H164 H 0.4560 1.5293 0.2803
H165 H 0.4984 1.4048 0.3453
H166 H 0.4274 1.4284 0.3265
H167 H 0.4708 1.3672 0.3064
H168 H 0.5884 1.4044 0.2715
H169 H 0.5845 1.4270 0.2016
H170 H 0.5598 1.3667 0.2335
H171 H 0.4161 1.1897 0.1591
H172 H 0.4694 1.1028 0.3453
H173 H 0.4952 0.9934 0.3669
H174 H 0.5219 0.9836 0.1870
H175 H 0.4963 1.0921 0.1652
H176 H 0.5435 0.8331 0.3599
H177 H 0.5663 0.8915 0.3715
H178 H 0.4914 0.8902 0.3793
H179 H 0.4873 0.8369 0.2716
H180 H 0.4363 0.8956 0.2888
H181 H 0.4751 0.8969 0.2232
H182 H 0.6087 0.8385 0.2584
H183 H 0.6299 0.8986 0.2677
H184 H 0.5965 0.8986 0.2100
H185 H 0.3169 1.2481 0.0257
H186 H 0.3233 1.1756 -0.0486
H187 H 0.2877 1.1050 -0.0963
H188 H 0.1556 1.2468 -0.1752
H189 H 0.1924 1.3177 -0.1292
H190 H 0.1000 1.1019 -0.1696
H191 H 0.0947 1.1713 -0.1627
H192 H 0.1095 1.1189 -0.1072
H193 H 0.2080 1.0295 -0.1741
H194 H 0.2713 1.0526 -0.1680
H195 H 0.2193 1.0432 -0.1109
H196 H 0.1859 1.1153 -0.2615
H197 H 0.1794 1.1846 -0.2534
H198 H 0.2480 1.1395 -0.2540
H199 H 0.4472 1.3637 0.2268
H200 H 0.3160 1.4649 -0.0164
N33 N 0.23489(12) 0.99842(11) 0.25016(10)
C161 C 0.2712(2) 1.01932(19) 0.29416(15)
C162 C 0.3330(3) 1.0421(3) 0.2603(2)
C163 C 0.1719(2) 0.9813(2) 0.28841(16)
C164 C 0.1308(3) 0.9586(4) 0.2487(3)
C165 C 0.2786(2) 0.94174(17) 0.22237(14)
C166 C 0.2920(3) 0.8841(2) 0.2725(2)
C167 C 0.2194(2) 1.04982(18) 0.19549(15)
C168 C 0.1767(3) 1.1094(2) 0.2173(2)
H201 H 0.2425 1.0527 0.3122
H202 H 0.2834 0.9852 0.3256
H203 H 0.3547 1.0549 0.2889
H204 H 0.3210 1.0764 0.2289
H205 H 0.3620 1.0088 0.2423
H206 H 0.1457 1.0176 0.3036
H207 H 0.1833 0.9496 0.3221
H208 H 0.0916 0.9486 0.2727
H209 H 0.1192 0.9903 0.2150
H210 H 0.1568 0.9222 0.2335
H211 H 0.3189 0.9525 0.2018
H212 H 0.2553 0.9312 0.1936
H213 H 0.3184 0.8498 0.2542
H214 H 0.3155 0.8944 0.3013
H215 H 0.2519 0.8731 0.2931
H216 H 0.2596 1.0601 0.1744
H217 H 0.1975 1.0352 0.1682
H218 H 0.1677 1.1409 0.1828
H219 H 0.1985 1.1242 0.2445
H220 H 0.1363 1.0993 0.2383
N34 N 0.25561(12) 0.62473(12) 0.25031(12)
C169 C 0.1866(2) 0.6185(2) 0.35413(17)
C170 C 0.3247(2) 0.6398(3) 0.14657(18)
C171 C 0.2580(3) 0.51062(18) 0.2439(3)
C172 C 0.18736(18) 0.6337(3) 0.28096(18)
C173 C 0.25133(17) 0.6432(3) 0.1846(2)
C174 C 0.2949(2) 0.6647(2) 0.2737(3)
C175 C 0.2582(5) 0.7342(3) 0.2679(6)
C176 C 0.2927(2) 0.5559(2) 0.2658(3)
H221 H 0.2932 0.5462 0.3092
H222 H 0.3368 0.5518 0.2460
H223 H 0.2995 0.6505 0.3162
H224 H 0.3375 0.6614 0.2506
H225 H 0.2249 0.6840 0.1766
H226 H 0.2318 0.6140 0.1711
H227 H 0.2830 0.7587 0.2821
H228 H 0.2156 0.7378 0.2911
H229 H 0.2536 0.7486 0.2256
H230 H 0.2817 0.4690 0.2543
H231 H 0.2139 0.5145 0.2637
H232 H 0.2575 0.5201 0.2005
H233 H 0.1418 0.6242 0.3725
H234 H 0.2081 0.6464 0.3674
H235 H 0.2085 0.5766 0.3661
H236 H 0.3215 0.6508 0.1036
H237 H 0.3443 0.6690 0.1599
H238 H 0.3512 0.5991 0.1545
H239 H 0.1656 0.6758 0.2699
H240 H 0.1648 0.6064 0.2680
C177? C 0.25957(17) 0.6103(3) 0.31628(19)
C178? C 0.32383(19) 0.6207(3) 0.22010(19)
C179? C 0.2134(3) 0.6910(2) 0.2338(3)
C180? C 0.2484(5) 0.7421(3) 0.2460(8)
C181? C 0.2204(2) 0.5797(2) 0.2292(3)
H241? H 0.2842 0.6364 0.3281
H242? H 0.2814 0.5678 0.3252
H243? H 0.3444 0.6477 0.2359
H244? H 0.3475 0.5788 0.2286
H245? H 0.1730 0.6953 0.2606
H246? H 0.2043 0.6968 0.1923
H247? H 0.2219 0.7825 0.2358
H248? H 0.2575 0.7367 0.2875
H249? H 0.2888 0.7382 0.2193
H250? H 0.1761 0.5845 0.2487
H251? H 0.2204 0.5899 0.1858
H252? H 0.2359 0.4837 0.2299
H253? H 0.2581 0.5003 0.2873
H254? H 0.3024 0.5057 0.2245
H255? H 0.1904 0.6078 0.3970
H256? H 0.1647 0.6610 0.3455
H257? H 0.1618 0.5923 0.3425
H258? H 0.3692 0.6369 0.1278
H259? H 0.3011 0.6817 0.1380
H260? H 0.3042 0.6129 0.1306
loop_
_geom_bond_atom_site_label_1
_geom_bond_atom_site_label_2
_geom_bond_site_symmetry_1
_geom_bond_site_symmetry_2
O1 C7 1_555 1_555
O2 C12 1_555 1_555
N1 C1 1_555 1_555
N2 C3 1_555 1_555
N3 N4 1_555 1_555
N4 N5 1_555 1_555
N5 C18 1_555 1_555
N6 N7 1_555 1_555
N7 N8 1_555 1_555
N8 C30 1_555 1_555
C1 C2 1_555 1_555
C2 C3 1_555 1_555
C3 C4 1_555 1_555
C4 C5 1_555 1_555
C5 C6 1_555 1_555
C6 C1 1_555 1_555
C7 N1 1_555 1_555
C8 C7 1_555 1_555
C9 C8 1_555 1_555
C10 C8 1_555 1_555
C11 C8 1_555 1_555
C12 N2 1_555 1_555
C13 C12 1_555 1_555
C14 C13 1_555 1_555
C15 C13 1_555 1_555
C16 C13 1_555 1_555
C17 N3 1_555 1_555
C18 C17 1_555 1_555
C19 N5 1_555 1_555
C20 C19 1_555 1_555
C21 C20 1_555 1_555
C22 C21 1_555 1_555
C23 C22 1_555 1_555
C24 C19 1_555 1_555
C25 C22 1_555 1_555
C26 C25 1_555 1_555
C27 C25 1_555 1_555
C28 C25 1_555 1_555
C29 N6 1_555 1_555
C30 C29 1_555 1_555
C31 N8 1_555 1_555
C32 C31 1_555 1_555
C33 C32 1_555 1_555
C34 C33 1_555 1_555
C35 C34 1_555 1_555
C36 C31 1_555 1_555
C37 C34 1_555 1_555
C38 C37 1_555 1_555
C39 C37 1_555 1_555
C40 C37 1_555 1_555
H1 C2 1_555 1_555
H2 C5 1_555 1_555
H3 C9 1_555 1_555
H4 C9 1_555 1_555
H5 C9 1_555 1_555
H6 C10 1_555 1_555
H7 C10 1_555 1_555
H8 C10 1_555 1_555
H9 C11 1_555 1_555
H10 C11 1_555 1_555
H11 C11 1_555 1_555
H12 C14 1_555 1_555
H13 C14 1_555 1_555
H14 C14 1_555 1_555
H15 C15 1_555 1_555
H16 C15 1_555 1_555
H17 C15 1_555 1_555
H18 C16 1_555 1_555
H19 C16 1_555 1_555
H20 C16 1_555 1_555
H21 C18 1_555 1_555
H22 C20 1_555 1_555
H23 C21 1_555 1_555
H24 C23 1_555 1_555
H25 C24 1_555 1_555
H26 C26 1_555 1_555
H27 C26 1_555 1_555
H28 C26 1_555 1_555
H29 C27 1_555 1_555
H30 C27 1_555 1_555
H31 C27 1_555 1_555
H32 C28 1_555 1_555
H33 C28 1_555 1_555
H34 C28 1_555 1_555
H35 C30 1_555 1_555
H36 C32 1_555 1_555
H37 C33 1_555 1_555
H38 C35 1_555 1_555
H39 C36 1_555 1_555
H40 C38 1_555 1_555
H41 C38 1_555 1_555
H42 C38 1_555 1_555
H43 C39 1_555 1_555
H44 C39 1_555 1_555
H45 C39 1_555 1_555
H46 C40 1_555 1_555
H47 C40 1_555 1_555
H48 C40 1_555 1_555
H49 N1 1_555 1_555
H50 N2 1_555 1_555
O3 C47 1_555 1_555
O4 C52 1_555 1_555
N9 C41 1_555 1_555
N10 C43 1_555 1_555
N11 N12 1_555 1_555
N12 N13 1_555 1_555
N13 C58 1_555 1_555
N14 N15 1_555 1_555
N15 N16 1_555 1_555
N16 C70 1_555 1_555
C41 C42 1_555 1_555
C42 C43 1_555 1_555
C43 C44 1_555 1_555
C44 C45 1_555 1_555
C45 C46 1_555 1_555
C46 C41 1_555 1_555
C47 N9 1_555 1_555
C48 C47 1_555 1_555
C49 C48 1_555 1_555
C50 C48 1_555 1_555
C51 C48 1_555 1_555
C52 N10 1_555 1_555
C53 C52 1_555 1_555
C54 C53 1_555 1_555
C55 C53 1_555 1_555
C56 C53 1_555 1_555
C57 N11 1_555 1_555
C58 C57 1_555 1_555
C59 N13 1_555 1_555
C60 C59 1_555 1_555
C61 C60 1_555 1_555
C62 C61 1_555 1_555
C63 C62 1_555 1_555
C64 C59 1_555 1_555
C65 C62 1_555 1_555
C66 C65 1_555 1_555
C67 C65 1_555 1_555
C68 C65 1_555 1_555
C69 N14 1_555 1_555
C70 C69 1_555 1_555
C71 N16 1_555 1_555
C72 C71 1_555 1_555
C73 C72 1_555 1_555
C74 C73 1_555 1_555
C75 C74 1_555 1_555
C76 C71 1_555 1_555
C77 C74 1_555 1_555
C78 C77 1_555 1_555
C79 C77 1_555 1_555
C80 C77 1_555 1_555
H51 C42 1_555 1_555
H52 C45 1_555 1_555
H53 C49 1_555 1_555
H54 C49 1_555 1_555
H55 C49 1_555 1_555
H56 C50 1_555 1_555
H57 C50 1_555 1_555
H58 C50 1_555 1_555
H59 C51 1_555 1_555
H60 C51 1_555 1_555
H61 C51 1_555 1_555
H62 C54 1_555 1_555
H63 C54 1_555 1_555
H64 C54 1_555 1_555
H65 C55 1_555 1_555
H66 C55 1_555 1_555
H67 C55 1_555 1_555
H68 C56 1_555 1_555
H69 C56 1_555 1_555
H70 C56 1_555 1_555
H71 C58 1_555 1_555
H72 C60 1_555 1_555
H73 C61 1_555 1_555
H74 C63 1_555 1_555
H75 C64 1_555 1_555
H76 C66 1_555 1_555
H77 C66 1_555 1_555
H78 C66 1_555 1_555
H79 C67 1_555 1_555
H80 C67 1_555 1_555
H81 C67 1_555 1_555
H82 C68 1_555 1_555
H83 C68 1_555 1_555
H84 C68 1_555 1_555
H85 C70 1_555 1_555
H86 C72 1_555 1_555
H87 C73 1_555 1_555
H88 C75 1_555 1_555
H89 C76 1_555 1_555
H90 C78 1_555 1_555
H91 C78 1_555 1_555
H92 C78 1_555 1_555
H93 C79 1_555 1_555
H94 C79 1_555 1_555
H95 C79 1_555 1_555
H96 C80 1_555 1_555
H97 C80 1_555 1_555
H98 C80 1_555 1_555
H99 N10 1_555 1_555
H100 N9 1_555 1_555
O5 C87 1_555 1_555
O6 C92 1_555 1_555
N17 C81 1_555 1_555
N18 C83 1_555 1_555
N19 N20 1_555 1_555
N20 N21 1_555 1_555
N21 C98 1_555 1_555
N22 N23 1_555 1_555
N23 N24 1_555 1_555
N24 C110 1_555 1_555
C81 C82 1_555 1_555
C82 C83 1_555 1_555
C83 C84 1_555 1_555
C84 C85 1_555 1_555
C85 C86 1_555 1_555
C86 C81 1_555 1_555
C87 N17 1_555 1_555
C88 C87 1_555 1_555
C89 C88 1_555 1_555
C90 C88 1_555 1_555
C91 C88 1_555 1_555
C92 N18 1_555 1_555
C93 C92 1_555 1_555
C94 C93 1_555 1_555
C95 C93 1_555 1_555
C96 C93 1_555 1_555
C97 N19 1_555 1_555
C98 C97 1_555 1_555
C99 N21 1_555 1_555
C100 C99 1_555 1_555
C101 C100 1_555 1_555
C102 C101 1_555 1_555
C103 C102 1_555 1_555
C104 C99 1_555 1_555
C105 C102 1_555 1_555
C106 C105 1_555 1_555
C107 C105 1_555 1_555
C108 C105 1_555 1_555
C109 N22 1_555 1_555
C110 C109 1_555 1_555
C111 N24 1_555 1_555
C112 C111 1_555 1_555
C113 C112 1_555 1_555
C114 C113 1_555 1_555
C115 C114 1_555 1_555
C116 C111 1_555 1_555
C117 C114 1_555 1_555
C118 C117 1_555 1_555
C119 C117 1_555 1_555
C120 C117 1_555 1_555
H101 C82 1_555 1_555
H102 C85 1_555 1_555
H103 C89 1_555 1_555
H104 C89 1_555 1_555
H105 C89 1_555 1_555
H106 C90 1_555 1_555
H107 C90 1_555 1_555
H108 C90 1_555 1_555
H109 C91 1_555 1_555
H110 C91 1_555 1_555
H111 C91 1_555 1_555
H112 C94 1_555 1_555
H113 C94 1_555 1_555
H114 C94 1_555 1_555
H115 C95 1_555 1_555
H116 C95 1_555 1_555
H117 C95 1_555 1_555
H118 C96 1_555 1_555
H119 C96 1_555 1_555
H120 C96 1_555 1_555
H121 C98 1_555 1_555
H122 C100 1_555 1_555
H123 C101 1_555 1_555
H124 C103 1_555 1_555
H125 C104 1_555 1_555
H126 C106 1_555 1_555
H127 C106 1_555 1_555
H128 C106 1_555 1_555
H129 C107 1_555 1_555
H130 C107 1_555 1_555
H131 C107 1_555 1_555
H132 C108 1_555 1_555
H133 C108 1_555 1_555
H134 C108 1_555 1_555
H135 C110 1_555 1_555
H136 C112 1_555 1_555
H137 C113 1_555 1_555
H138 C115 1_555 1_555
H139 C116 1_555 1_555
H140 C118 1_555 1_555
H141 C118 1_555 1_555
H142 C118 1_555 1_555
H143 C119 1_555 1_555
H144 C119 1_555 1_555
H145 C119 1_555 1_555
H146 C120 1_555 1_555
H147 C120 1_555 1_555
H148 C120 1_555 1_555
H149 N17 1_555 1_555
H150 N18 1_555 1_555
O7 C127 1_555 1_555
O8 C132 1_555 1_555
N25 C121 1_555 1_555
N26 C123 1_555 1_555
N27 N28 1_555 1_555
N28 N29 1_555 1_555
N29 C138 1_555 1_555
N30 N31 1_555 1_555
N31 N32 1_555 1_555
N32 C150 1_555 1_555
C121 C122 1_555 1_555
C122 C123 1_555 1_555
C123 C124 1_555 1_555
C124 C125 1_555 1_555
C125 C126 1_555 1_555
C126 C121 1_555 1_555
C127 N25 1_555 1_555
C128 C127 1_555 1_555
C129 C128 1_555 1_555
C130 C128 1_555 1_555
C131 C128 1_555 1_555
C132 N26 1_555 1_555
C133 C132 1_555 1_555
C134 C133 1_555 1_555
C135 C133 1_555 1_555
C136 C133 1_555 1_555
C137 N27 1_555 1_555
C138 C137 1_555 1_555
C139 N29 1_555 1_555
C140 C139 1_555 1_555
C141 C140 1_555 1_555
C142 C141 1_555 1_555
C143 C142 1_555 1_555
C144 C139 1_555 1_555
C145 C142 1_555 1_555
C146 C145 1_555 1_555
C147 C145 1_555 1_555
C148 C145 1_555 1_555
C149 N30 1_555 1_555
C150 C149 1_555 1_555
C151 N32 1_555 1_555
C152 C151 1_555 1_555
C153 C152 1_555 1_555
C154 C153 1_555 1_555
C155 C154 1_555 1_555
C156 C151 1_555 1_555
C157 C154 1_555 1_555
C158 C157 1_555 1_555
C159 C157 1_555 1_555
C160 C157 1_555 1_555
H151 C122 1_555 1_555
H152 C125 1_555 1_555
H153 C129 1_555 1_555
H154 C129 1_555 1_555
H155 C129 1_555 1_555
H156 C130 1_555 1_555
H157 C130 1_555 1_555
H158 C130 1_555 1_555
H159 C131 1_555 1_555
H160 C131 1_555 1_555
H161 C131 1_555 1_555
H162 C134 1_555 1_555
H163 C134 1_555 1_555
H164 C134 1_555 1_555
H165 C135 1_555 1_555
H166 C135 1_555 1_555
H167 C135 1_555 1_555
H168 C136 1_555 1_555
H169 C136 1_555 1_555
H170 C136 1_555 1_555
H171 C138 1_555 1_555
H172 C140 1_555 1_555
H173 C141 1_555 1_555
H174 C143 1_555 1_555
H175 C144 1_555 1_555
H176 C146 1_555 1_555
H177 C146 1_555 1_555
H178 C146 1_555 1_555
H179 C147 1_555 1_555
H180 C147 1_555 1_555
H181 C147 1_555 1_555
H182 C148 1_555 1_555
H183 C148 1_555 1_555
H184 C148 1_555 1_555
H185 C150 1_555 1_555
H186 C152 1_555 1_555
H187 C153 1_555 1_555
H188 C155 1_555 1_555
H189 C156 1_555 1_555
H190 C158 1_555 1_555
H191 C158 1_555 1_555
H192 C158 1_555 1_555
H193 C159 1_555 1_555
H194 C159 1_555 1_555
H195 C159 1_555 1_555
H196 C160 1_555 1_555
H197 C160 1_555 1_555
H198 C160 1_555 1_555
H199 N26 1_555 1_555
H200 N25 1_555 1_555
N33 C161 1_555 1_555
C161 C162 1_555 1_555
C162 H203 1_555 1_555
C163 N33 1_555 1_555
C164 C163 1_555 1_555
C165 N33 1_555 1_555
C166 C165 1_555 1_555
C167 N33 1_555 1_555
C168 C167 1_555 1_555
H201 C161 1_555 1_555
H202 C161 1_555 1_555
H204 C162 1_555 1_555
H205 C162 1_555 1_555
H206 C163 1_555 1_555
H207 C163 1_555 1_555
H208 C164 1_555 1_555
H209 C164 1_555 1_555
H210 C164 1_555 1_555
H211 C165 1_555 1_555
H212 C165 1_555 1_555
H213 C166 1_555 1_555
H214 C166 1_555 1_555
H215 C166 1_555 1_555
H216 C167 1_555 1_555
H217 C167 1_555 1_555
H218 C168 1_555 1_555
H219 C168 1_555 1_555
H220 C168 1_555 1_555
N34 C172 1_555 1_555
C169 C172 1_555 1_555
C170 C173 1_555 1_555
C171 C176 1_555 1_555
C172 H239 1_555 1_555
C173 N34 1_555 1_555
C174 N34 1_555 1_555
C175 C174 1_555 1_555
C176 N34 1_555 1_555
H221 C176 1_555 1_555
H222 C176 1_555 1_555
H223 C174 1_555 1_555
H224 C174 1_555 1_555
H225 C173 1_555 1_555
H226 C173 1_555 1_555
H227 C175 1_555 1_555
H228 C175 1_555 1_555
H229 C175 1_555 1_555
H230 C171 1_555 1_555
H231 C171 1_555 1_555
H232 C171 1_555 1_555
H233 C169 1_555 1_555
H234 C169 1_555 1_555
H235 C169 1_555 1_555
H236 C170 1_555 1_555
H237 C170 1_555 1_555
H238 C170 1_555 1_555
H240 C172 1_555 1_555
C4 C17 1_555 1_555
C6 C29 1_555 1_555
C23 C24 1_555 1_555
C35 C36 1_555 1_555
C44 C57 1_555 1_555
C46 C69 1_555 1_555
C63 C64 1_555 1_555
C75 C76 1_555 1_555
C84 C97 1_555 1_555
C86 C109 1_555 1_555
C103 C104 1_555 1_555
C115 C116 1_555 1_555
C124 C137 1_555 1_555
C126 C149 1_555 1_555
C143 C144 1_555 1_555
C155 C156 1_555 1_555

#END
