
#######################################################################
#
#                 Cambridge Crystallographic Data Centre
#                                CCDC 
#
#######################################################################
#
# If this CIF has been generated from an entry in the Cambridge 
# Structural Database, then it will include bibliographic, chemical, 
# crystal, experimental, refinement or atomic coordinate data resulting 
# from the CCDC's data processing and validation procedures.
#
#######################################################################

data_DOKFEQ
_chemical_formula_moiety         'C19 H17 N3 O2'
_chemical_name_systematic        
'ethyl cyano(1-(4-methylphenyl)-1,3-dihydro-2H-benzimidazol-2-ylidene)acetate'
_symmetry_cell_setting           triclinic
_symmetry_space_group_name_H-M   'P -1'
_symmetry_Int_Tables_number      2
_space_group_name_Hall           '-P 1'
loop_
_symmetry_equiv_pos_site_id
_symmetry_equiv_pos_as_xyz
1 x,y,z
2 -x,-y,-z
_cell_length_a                   7.3401(13)
_cell_length_b                   11.2407(18)
_cell_length_c                   11.314(2)
_cell_angle_alpha                63.909(9)
_cell_angle_beta                 84.462(11)
_cell_angle_gamma                89.981(9)
_cell_volume                     833.528
_exptl_crystal_colour            colorless
_exptl_crystal_description       block
_cell_formula_units_Z            2
_exptl_crystal_recrystallization_method 'dichloromethane/ petrol'
loop_
_atom_site_label
_atom_site_type_symbol
_atom_site_fract_x
_atom_site_fract_y
_atom_site_fract_z
N1 N 0.2261(12) 0.6937(8) 0.7635(9)
N2 N 0.2293(12) 0.6527(8) 0.9707(8)
H1 H 0.2315 0.6113 1.0550
N3 N 0.2046(17) 0.3470(10) 0.7777(12)
O1 O 0.2657(12) 0.2414(6) 1.0902(8)
O2 O 0.2641(14) 0.4058(8) 1.1571(7)
C1 C 0.286(2) 0.0105(11) 1.2304(15)
H2 H 0.2985 -0.0552 1.3187
H3 H 0.3873 0.0084 1.1713
H4 H 0.1735 -0.0080 1.2029
C2 C 0.2815(16) 0.1468(9) 1.2275(10)
H5 H 0.1777 0.1511 1.2852
H6 H 0.3930 0.1662 1.2567
C3 C 0.2576(13) 0.3692(8) 1.0710(9)
C4 C 0.2398(12) 0.4572(8) 0.9281(10)
C5 C 0.2151(13) 0.3992(8) 0.8426(9)
C6 C 0.2338(13) 0.5953(8) 0.8898(9)
C7 C 0.2206(14) 0.7906(8) 0.8986(11)
C8 C 0.2124(17) 0.8932(10) 0.9351(13)
H7 H 0.2094 0.8758 1.0236
C9 C 0.2086(17) 1.0225(10) 0.8375(17)
H8 H 0.1989 1.0924 0.8603
C10 C 0.2194(18) 1.0469(11) 0.7058(15)
H9 H 0.2269 1.1343 0.6411
C11 C 0.2195(15) 0.9448(9) 0.6661(11)
H10 H 0.2193 0.9622 0.5777
C12 C 0.2200(12) 0.8168(8) 0.7657(9)
C13 C 0.2423(13) 0.6802(8) 0.6426(9)
C14 C 0.0846(12) 0.6719(9) 0.5843(9)
H11 H -0.0309 0.6761 0.6237
C15 C 0.1014(12) 0.6575(9) 0.4684(8)
H12 H -0.0030 0.6538 0.4295
C16 C 0.2730(15) 0.6485(9) 0.4097(9)
C17 C 0.4248(15) 0.6576(10) 0.4695(9)
H13 H 0.5411 0.6542 0.4307
C18 C 0.4079(12) 0.6717(9) 0.5861(9)
H14 H 0.5122 0.6753 0.6252
C19 C 0.2889(18) 0.6331(15) 0.2834(12)
H15 H 0.1687 0.6292 0.2581
H16 H 0.3488 0.5529 0.2971
H17 H 0.3591 0.7075 0.2145
loop_
_geom_bond_atom_site_label_1
_geom_bond_atom_site_label_2
_geom_bond_site_symmetry_1
_geom_bond_site_symmetry_2
N1 C6 1_555 1_555
N2 H1 1_555 1_555
N3 C5 1_555 1_555
O1 C2 1_555 1_555
O2 C3 1_555 1_555
C1 H2 1_555 1_555
H3 C1 1_555 1_555
H4 C1 1_555 1_555
C2 C1 1_555 1_555
H5 C2 1_555 1_555
H6 C2 1_555 1_555
C3 O1 1_555 1_555
C4 C3 1_555 1_555
C5 C4 1_555 1_555
C6 N2 1_555 1_555
C7 N2 1_555 1_555
C8 C7 1_555 1_555
H7 C8 1_555 1_555
C9 C8 1_555 1_555
H8 C9 1_555 1_555
C10 C9 1_555 1_555
H9 C10 1_555 1_555
C11 C10 1_555 1_555
H10 C11 1_555 1_555
C12 N1 1_555 1_555
C13 N1 1_555 1_555
C14 C13 1_555 1_555
H11 C14 1_555 1_555
C15 C14 1_555 1_555
H12 C15 1_555 1_555
C16 C15 1_555 1_555
C17 C16 1_555 1_555
H13 C17 1_555 1_555
C18 C13 1_555 1_555
H14 C18 1_555 1_555
C19 C16 1_555 1_555
H15 C19 1_555 1_555
H16 C19 1_555 1_555
H17 C19 1_555 1_555
C4 C6 1_555 1_555
C7 C12 1_555 1_555
C11 C12 1_555 1_555
C17 C18 1_555 1_555

#END
