
#######################################################################
#
#                 Cambridge Crystallographic Data Centre
#                                CCDC 
#
#######################################################################
#
# If this CIF has been generated from an entry in the Cambridge 
# Structural Database, then it will include bibliographic, chemical, 
# crystal, experimental, refinement or atomic coordinate data resulting 
# from the CCDC's data processing and validation procedures.
#
#######################################################################

data_DOKJEU
_chemical_formula_moiety         'C25 H19 N3 O4'
_chemical_name_systematic        
'Ethyl 9,9-dicyano-1,3-dioxo-2,8-diphenyl-2-azaspiro[4.4]non-7-ene-7-carboxylate'
_symmetry_cell_setting           monoclinic
_symmetry_space_group_name_H-M   'P c'
_symmetry_Int_Tables_number      7
_space_group_name_Hall           'P -2yc'
loop_
_symmetry_equiv_pos_site_id
_symmetry_equiv_pos_as_xyz
1 x,y,z
2 x,-y,1/2+z
_cell_length_a                   11.697(2)
_cell_length_b                   14.397(3)
_cell_length_c                   26.731(7)
_cell_angle_alpha                90
_cell_angle_beta                 104.09(3)
_cell_angle_gamma                90
_cell_volume                     4366.11
_cell_formula_units_Z            8
loop_
_atom_site_label
_atom_site_type_symbol
_atom_site_fract_x
_atom_site_fract_y
_atom_site_fract_z
O1 O 0.76799(18) 0.06160(14) 0.02036(8)
O2 O 0.9666(2) -0.04917(15) -0.09458(9)
O3 O 0.7738(2) -0.10046(15) 0.15602(9)
O4 O 0.8757(3) 0.01624(18) 0.20111(10)
N1 N 0.8571(2) 0.02569(15) -0.04531(9)
N2 N 1.0459(2) 0.19279(18) 0.01794(11)
N3 N 1.2428(2) -0.03519(18) 0.10271(12)
C1 C 0.7810(2) 0.07891(19) -0.08548(11)
C2 C 0.7188(3) 0.0352(2) -0.12977(12)
H1 H 0.7267 -0.0298 -0.1343
C3 C 0.6445(3) 0.0878(2) -0.16751(13)
H2 H 0.6018 0.0589 -0.1984
C4 C 0.6321(3) 0.1820(3) -0.16053(14)
H3 H 0.5793 0.2174 -0.1861
C5 C 0.6958(3) 0.2240(2) -0.11685(15)
H4 H 0.6884 0.2891 -0.1126
C6 C 0.7712(3) 0.1732(2) -0.07859(12)
H5 H 0.8153 0.2027 -0.0482
C7 C 0.8448(2) 0.02346(18) 0.00524(11)
C8 C 0.9492(2) -0.03151(18) 0.03789(11)
C9 C 0.9967(3) -0.0831(2) -0.00289(11)
H6 H 1.0838 -0.0792 0.0052
H7 H 0.9736 -0.1494 -0.0043
C10 C 0.9433(3) -0.0361(2) -0.05342(13)
C11 C 0.9148(3) -0.08983(19) 0.07959(11)
H8 H 0.8358 -0.1179 0.0667
H9 H 0.9730 -0.1398 0.0919
C12 C 0.9145(3) -0.02007(19) 0.12179(12)
C13 C 0.9787(2) 0.05568(19) 0.11748(11)
C14 C 1.0342(3) 0.04196(19) 0.07142(12)
C15 C 1.0432(2) 0.1283(2) 0.04261(11)
C16 C 1.1534(3) 0.00129(19) 0.08921(12)
C17 C 0.9951(2) 0.14464(19) 0.14627(11)
C18 C 0.8969(3) 0.1970(2) 0.14929(13)
H10 H 0.8199 0.1747 0.1341
C19 C 0.9120(3) 0.2819(2) 0.17458(14)
H11 H 0.8451 0.3174 0.1770
C20 C 1.0235(3) 0.3151(2) 0.19623(12)
H12 H 1.0334 0.3737 0.2131
C21 C 1.1200(3) 0.2636(2) 0.19341(13)
H13 H 1.1969 0.2862 0.2088
C22 C 1.1065(3) 0.1784(2) 0.16829(13)
H14 H 1.1740 0.1434 0.1662
C23 C 0.8465(3) -0.0398(2) 0.16073(12)
C24 C 0.8253(14) 0.0080(8) 0.2453(4)
H15 H 0.8603 -0.0455 0.2669
H16 H 0.7390 -0.0012 0.2340
C25 C 0.8527(17) 0.0965(8) 0.2751(5)
H17 H 0.8256 0.0920 0.3069
H18 H 0.8126 0.1482 0.2541
H19 H 0.9380 0.1072 0.2836
O5 O 0.17679(18) 0.56960(14) 0.01979(8)
O6 O -0.1439(2) 0.44713(15) -0.09311(9)
O7 O 0.32563(19) 0.39942(15) 0.15532(9)
O8 O 0.2883(2) 0.52201(18) 0.19925(10)
N4 N 0.0161(2) 0.52707(15) -0.04509(9)
N5 N -0.1009(2) 0.69464(18) 0.02051(11)
N6 N -0.2022(2) 0.46520(18) 0.10402(11)
C28 C 0.0437(3) 0.58142(19) -0.08585(11)
C29 C 0.0644(3) 0.5373(2) -0.12892(12)
H25 H 0.0614 0.4715 -0.1316
C30 C 0.0893(4) 0.5906(2) -0.16787(13)
H26 H 0.1029 0.5613 -0.1978
C31 C 0.0945(4) 0.6866(3) -0.16359(14)
H27 H 0.1114 0.7228 -0.1906
C32 C 0.0751(4) 0.7300(3) -0.12012(15)
H28 H 0.0804 0.7957 -0.1169
C33 C 0.0479(3) 0.6765(2) -0.08100(13)
H29 H 0.0325 0.7055 -0.0514
C34 C 0.0848(2) 0.52846(18) 0.00535(11)
C35 C 0.0196(3) 0.47145(18) 0.03851(11)
C36 C -0.0731(3) 0.41875(19) -0.00103(11)
H30 H -0.0518 0.3522 -0.0014
H31 H -0.1511 0.4239 0.0070
C37 C -0.0752(3) 0.4631(2) -0.05194(13)
C38 C 0.1048(3) 0.41494(19) 0.07962(11)
H32 H 0.0634 0.3632 0.0922
H33 H 0.1697 0.3893 0.0660
C39 C 0.1507(3) 0.4842(2) 0.12201(11)
C40 C 0.0799(2) 0.55769(18) 0.11937(10)
C41 C -0.0282(2) 0.54393(18) 0.07371(11)
C42 C -0.1275(3) 0.5021(2) 0.09109(12)
C43 C -0.0705(3) 0.63025(19) 0.04528(12)
C44 C 0.0910(3) 0.64527(19) 0.14986(11)
C45 C 0.1891(3) 0.7014(2) 0.15270(13)
H34 H 0.2485 0.6835 0.1360
C46 C 0.1992(3) 0.7847(2) 0.18054(14)
H35 H 0.2659 0.8235 0.1827
C47 C 0.1136(3) 0.8105(2) 0.20458(14)
H36 H 0.1220 0.8666 0.2239
C48 C 0.0157(3) 0.7560(2) 0.20110(14)
H37 H -0.0441 0.7747 0.2175
C49 C 0.0042(3) 0.6731(2) 0.17330(13)
H38 H -0.0639 0.6356 0.1705
C50 C 0.2634(3) 0.4636(2) 0.16008(12)
C51 C 0.4043(4) 0.5108(4) 0.23580(19)
H39 H 0.4040 0.4550 0.2574
H40 H 0.4663 0.5028 0.2167
C52 C 0.4284(5) 0.5934(4) 0.2682(2)
H41 H 0.5055 0.5872 0.2926
H42 H 0.3672 0.6004 0.2873
H43 H 0.4285 0.6483 0.2465
O9 O 0.72065(18) 0.68866(14) 0.09722(8)
O10 O 0.5087(2) 0.80316(15) 0.20660(8)
O11 O 0.71776(19) 0.85531(14) -0.03995(8)
O12 O 0.6319(2) 0.73142(15) -0.08367(9)
N7 N 0.6255(2) 0.72871(15) 0.16091(9)
N8 N 0.4396(2) 0.55980(18) 0.09513(11)
N9 N 0.2476(2) 0.78753(18) 0.00921(11)
C53 C 0.6915(2) 0.67102(19) 0.20159(11)
C54 C 0.6975(3) 0.5759(2) 0.19251(12)
H44 H 0.6616 0.5508 0.1596
C55 C 0.7563(3) 0.5184(2) 0.23200(14)
H45 H 0.7618 0.4536 0.2262
C56 C 0.8072(3) 0.5563(2) 0.28026(13)
H46 H 0.8453 0.5169 0.3078
C57 C 0.8023(3) 0.6512(2) 0.28821(12)
H47 H 0.8385 0.6768 0.3210
C58 C 0.7453(3) 0.7083(2) 0.24882(11)
H48 H 0.7430 0.7735 0.2542
C59 C 0.6414(3) 0.72800(18) 0.11087(11)
C60 C 0.5399(2) 0.78408(18) 0.07677(11)
C61 C 0.4891(3) 0.8367(2) 0.11566(11)
H49 H 0.5129 0.9028 0.1170
H50 H 0.4019 0.8333 0.1063
C62 C 0.5385(3) 0.7902(2) 0.16700(12)
C63 C 0.5799(3) 0.8404(2) 0.03558(11)
H51 H 0.5242 0.8916 0.0225
H52 H 0.6595 0.8668 0.0495
C64 C 0.5808(2) 0.77028(19) -0.00635(11)
C65 C 0.5146(2) 0.69503(19) -0.00306(11)
C66 C 0.4552(3) 0.71067(18) 0.04208(12)
C67 C 0.4437(3) 0.62444(19) 0.07104(12)
C68 C 0.3367(3) 0.7517(2) 0.02300(12)
C69 C 0.4983(3) 0.6069(2) -0.03187(11)
C70 C 0.5950(3) 0.5537(2) -0.03478(13)
H53 H 0.6720 0.5753 -0.0188
C71 C 0.5814(3) 0.4694(2) -0.06059(14)
H54 H 0.6486 0.4332 -0.0617
C72 C 0.4700(3) 0.4382(2) -0.08468(13)
H55 H 0.4604 0.3814 -0.1033
C73 C 0.3736(3) 0.4896(2) -0.08167(14)
H56 H 0.2970 0.4673 -0.0978
C74 C 0.3854(3) 0.5739(2) -0.05549(13)
H57 H 0.3175 0.6087 -0.0536
C75 C 0.6509(3) 0.79056(19) -0.04441(11)
C76 C 0.7023(4) 0.7435(3) -0.12165(16)
H58 H 0.7858 0.7550 -0.1039
H59 H 0.6730 0.7974 -0.1441
C77 C 0.6925(5) 0.6573(3) -0.15311(16)
H60 H 0.7392 0.6641 -0.1788
H61 H 0.6097 0.6467 -0.1707
H62 H 0.7222 0.6045 -0.1306
O13 O 0.31092(18) 0.19038(14) 0.09745(8)
O14 O 0.6422(2) 0.29897(16) 0.20917(9)
O15 O 0.16748(19) 0.35826(14) -0.03805(9)
O16 O 0.2032(2) 0.23411(17) -0.08189(10)
N10 N 0.47438(19) 0.22689(15) 0.16227(9)
N11 N 0.5884(2) 0.05891(18) 0.09791(11)
N12 N 0.6913(2) 0.28658(18) 0.01291(12)
C78 C 0.4449(3) 0.1737(2) 0.20283(12)
C79 C 0.4377(3) 0.2176(2) 0.24805(13)
H63 H 0.4532 0.2822 0.2527
C80 C 0.4073(4) 0.1655(3) 0.28627(14)
H64 H 0.4016 0.1948 0.3174
C81 C 0.3852(4) 0.0712(3) 0.27994(15)
H65 H 0.3629 0.0362 0.3062
C82 C 0.3958(3) 0.0290(2) 0.23513(15)
H66 H 0.3830 -0.0360 0.2309
C83 C 0.4246(3) 0.0792(2) 0.19651(12)
H67 H 0.4307 0.0494 0.1655
C84 C 0.4053(2) 0.22798(19) 0.11185(11)
C85 C 0.4721(3) 0.28298(18) 0.07860(11)
C86 C 0.5665(3) 0.3343(2) 0.11868(11)
H68 H 0.6439 0.3300 0.1100
H69 H 0.5454 0.4006 0.1203
C87 C 0.5705(3) 0.2870(2) 0.16908(13)
C88 C 0.3895(3) 0.34117(19) 0.03687(12)
H70 H 0.3258 0.3696 0.0502
H71 H 0.4334 0.3909 0.0240
C89 C 0.3409(3) 0.2716(2) -0.00471(11)
C90 C 0.4092(3) 0.19536(19) -0.00119(11)
C91 C 0.5181(3) 0.20942(19) 0.04434(11)
C92 C 0.5585(2) 0.12271(19) 0.07300(11)
C93 C 0.6162(3) 0.2499(2) 0.02586(12)
C94 C 0.3931(3) 0.10745(19) -0.03040(11)
C95 C 0.2899(3) 0.0560(2) -0.03453(13)
H72 H 0.2300 0.0788 -0.0193
C96 C 0.2744(3) -0.0279(2) -0.06059(13)
H73 H 0.2040 -0.0625 -0.0632
C97 C 0.3611(3) -0.0610(2) -0.08272(12)
H74 H 0.3497 -0.1181 -0.1011
C98 C 0.4641(3) -0.0120(2) -0.07837(12)
H75 H 0.5239 -0.0354 -0.0934
C99 C 0.4802(3) 0.0718(2) -0.05187(13)
H76 H 0.5518 0.1050 -0.0484
C100 C 0.2286(3) 0.2930(2) -0.04289(12)
C101 C 0.0900(4) 0.2463(3) -0.1185(2)
H77 H 0.0935 0.3003 -0.1410
H78 H 0.0282 0.2584 -0.0998
C102 C 0.0612(5) 0.1628(3) -0.1497(2)
H79 H -0.0159 0.1704 -0.1739
H80 H 0.0589 0.1095 -0.1272
H81 H 0.1214 0.1524 -0.1690
C26? C 0.7824(12) 0.0143(9) 0.2297(6)
H20? H 0.7048 0.0089 0.2047
H21? H 0.7933 -0.0415 0.2520
C27? C 0.7822(16) 0.0964(7) 0.2614(5)
H22? H 0.7214 0.0898 0.2808
H23? H 0.7655 0.1514 0.2393
H24? H 0.8595 0.1031 0.2856
loop_
_geom_bond_atom_site_label_1
_geom_bond_atom_site_label_2
_geom_bond_site_symmetry_1
_geom_bond_site_symmetry_2
O1 C7 1_555 1_555
O2 C10 1_555 1_555
O3 C23 1_555 1_555
O4 C23 1_555 1_555
N1 C1 1_555 1_555
N2 C15 1_555 1_555
N3 C16 1_555 1_555
C1 C2 1_555 1_555
C2 H1 1_555 1_555
C3 C2 1_555 1_555
H2 C3 1_555 1_555
C4 C3 1_555 1_555
H3 C4 1_555 1_555
C5 C4 1_555 1_555
H4 C5 1_555 1_555
C6 C1 1_555 1_555
H5 C6 1_555 1_555
C7 N1 1_555 1_555
C8 C7 1_555 1_555
C9 C8 1_555 1_555
H6 C9 1_555 1_555
H7 C9 1_555 1_555
C10 N1 1_555 1_555
C11 C8 1_555 1_555
H8 C11 1_555 1_555
H9 C11 1_555 1_555
C12 C11 1_555 1_555
C13 C12 1_555 1_555
C14 C8 1_555 1_555
C15 C14 1_555 1_555
C16 C14 1_555 1_555
C17 C13 1_555 1_555
C18 C17 1_555 1_555
H10 C18 1_555 1_555
C19 C18 1_555 1_555
H11 C19 1_555 1_555
C20 C19 1_555 1_555
H12 C20 1_555 1_555
C21 C20 1_555 1_555
H13 C21 1_555 1_555
C22 C17 1_555 1_555
H14 C22 1_555 1_555
C23 C12 1_555 1_555
C24 O4 1_555 1_555
H15 C24 1_555 1_555
H16 C24 1_555 1_555
C25 C24 1_555 1_555
H17 C25 1_555 1_555
H18 C25 1_555 1_555
H19 C25 1_555 1_555
O5 C34 1_555 1_555
O6 C37 1_555 1_555
O7 C50 1_555 1_555
O8 C50 1_555 1_555
N4 C28 1_555 1_555
N5 C43 1_555 1_555
N6 C42 1_555 1_555
C28 C29 1_555 1_555
C29 H25 1_555 1_555
C30 C29 1_555 1_555
H26 C30 1_555 1_555
C31 C30 1_555 1_555
H27 C31 1_555 1_555
C32 C31 1_555 1_555
H28 C32 1_555 1_555
C33 C28 1_555 1_555
H29 C33 1_555 1_555
C34 N4 1_555 1_555
C35 C34 1_555 1_555
C36 C35 1_555 1_555
H30 C36 1_555 1_555
H31 C36 1_555 1_555
C37 N4 1_555 1_555
C38 C35 1_555 1_555
H32 C38 1_555 1_555
H33 C38 1_555 1_555
C39 C38 1_555 1_555
C40 C39 1_555 1_555
C41 C35 1_555 1_555
C42 C41 1_555 1_555
C43 C41 1_555 1_555
C44 C40 1_555 1_555
C45 C44 1_555 1_555
H34 C45 1_555 1_555
C46 C45 1_555 1_555
H35 C46 1_555 1_555
C47 C46 1_555 1_555
H36 C47 1_555 1_555
C48 C47 1_555 1_555
H37 C48 1_555 1_555
C49 C44 1_555 1_555
H38 C49 1_555 1_555
C50 C39 1_555 1_555
C51 O8 1_555 1_555
H39 C51 1_555 1_555
H40 C51 1_555 1_555
C52 C51 1_555 1_555
H41 C52 1_555 1_555
H42 C52 1_555 1_555
H43 C52 1_555 1_555
O9 C59 1_555 1_555
O10 C62 1_555 1_555
O11 C75 1_555 1_555
O12 C75 1_555 1_555
N7 C53 1_555 1_555
N8 C67 1_555 1_555
N9 C68 1_555 1_555
C53 C54 1_555 1_555
C54 H44 1_555 1_555
C55 C54 1_555 1_555
H45 C55 1_555 1_555
C56 C55 1_555 1_555
H46 C56 1_555 1_555
C57 C56 1_555 1_555
H47 C57 1_555 1_555
C58 C53 1_555 1_555
H48 C58 1_555 1_555
C59 N7 1_555 1_555
C60 C59 1_555 1_555
C61 C60 1_555 1_555
H49 C61 1_555 1_555
H50 C61 1_555 1_555
C62 N7 1_555 1_555
C63 C60 1_555 1_555
H51 C63 1_555 1_555
H52 C63 1_555 1_555
C64 C63 1_555 1_555
C65 C64 1_555 1_555
C66 C60 1_555 1_555
C67 C66 1_555 1_555
C68 C66 1_555 1_555
C69 C65 1_555 1_555
C70 C69 1_555 1_555
H53 C70 1_555 1_555
C71 C70 1_555 1_555
H54 C71 1_555 1_555
C72 C71 1_555 1_555
H55 C72 1_555 1_555
C73 C72 1_555 1_555
H56 C73 1_555 1_555
C74 C69 1_555 1_555
H57 C74 1_555 1_555
C75 C64 1_555 1_555
C76 O12 1_555 1_555
H58 C76 1_555 1_555
H59 C76 1_555 1_555
C77 C76 1_555 1_555
H60 C77 1_555 1_555
H61 C77 1_555 1_555
H62 C77 1_555 1_555
O13 C84 1_555 1_555
O14 C87 1_555 1_555
O15 C100 1_555 1_555
O16 C100 1_555 1_555
N10 C78 1_555 1_555
N11 C92 1_555 1_555
N12 C93 1_555 1_555
C78 C79 1_555 1_555
C79 H63 1_555 1_555
C80 C79 1_555 1_555
H64 C80 1_555 1_555
C81 C80 1_555 1_555
H65 C81 1_555 1_555
C82 C81 1_555 1_555
H66 C82 1_555 1_555
C83 C78 1_555 1_555
H67 C83 1_555 1_555
C84 N10 1_555 1_555
C85 C84 1_555 1_555
C86 C85 1_555 1_555
H68 C86 1_555 1_555
H69 C86 1_555 1_555
C87 N10 1_555 1_555
C88 C85 1_555 1_555
H70 C88 1_555 1_555
H71 C88 1_555 1_555
C89 C88 1_555 1_555
C90 C89 1_555 1_555
C91 C85 1_555 1_555
C92 C91 1_555 1_555
C93 C91 1_555 1_555
C94 C90 1_555 1_555
C95 C94 1_555 1_555
H72 C95 1_555 1_555
C96 C95 1_555 1_555
H73 C96 1_555 1_555
C97 C96 1_555 1_555
H74 C97 1_555 1_555
C98 C97 1_555 1_555
H75 C98 1_555 1_555
C99 C94 1_555 1_555
H76 C99 1_555 1_555
C100 C89 1_555 1_555
C101 O16 1_555 1_555
H77 C101 1_555 1_555
H78 C101 1_555 1_555
C102 C101 1_555 1_555
H79 C102 1_555 1_555
H80 C102 1_555 1_555
H81 C102 1_555 1_555
C5 C6 1_555 1_555
C9 C10 1_555 1_555
C13 C14 1_555 1_555
C21 C22 1_555 1_555
C32 C33 1_555 1_555
C36 C37 1_555 1_555
C40 C41 1_555 1_555
C48 C49 1_555 1_555
C57 C58 1_555 1_555
C61 C62 1_555 1_555
C65 C66 1_555 1_555
C73 C74 1_555 1_555
C82 C83 1_555 1_555
C86 C87 1_555 1_555
C90 C91 1_555 1_555
C98 C99 1_555 1_555

#END
