
#######################################################################
#
#                 Cambridge Crystallographic Data Centre
#                                CCDC 
#
#######################################################################
#
# If this CIF has been generated from an entry in the Cambridge 
# Structural Database, then it will include bibliographic, chemical, 
# crystal, experimental, refinement or atomic coordinate data resulting 
# from the CCDC's data processing and validation procedures.
#
#######################################################################

data_DOKNIC
_chemical_formula_moiety         'C55 H56 N2 O3'
_chemical_name_systematic        
1-(7-((4-(Dibenzylamino)phenyl)ethynyl)-9,9-dihexyl-9H-fluoren-2-yl)-2-(4-nitrophenyl)ethanone
_symmetry_cell_setting           triclinic
_symmetry_space_group_name_H-M   'P -1'
_symmetry_Int_Tables_number      2
_space_group_name_Hall           '-P 1'
loop_
_symmetry_equiv_pos_site_id
_symmetry_equiv_pos_as_xyz
1 x,y,z
2 -x,-y,-z
_cell_length_a                   10.881(8)
_cell_length_b                   14.131(7)
_cell_length_c                   16.395(9)
_cell_angle_alpha                69.740(17)
_cell_angle_beta                 77.21(2)
_cell_angle_gamma                71.67(2)
_cell_volume                     2226.95
_cell_formula_units_Z            2
loop_
_atom_site_label
_atom_site_type_symbol
_atom_site_fract_x
_atom_site_fract_y
_atom_site_fract_z
C1 C 0.3880(10) 0.3755(7) 0.7985(5)
C2 C 0.2516(12) 0.3980(8) 0.8164(6)
H1 H 0.2007 0.4642 0.7906
C3 C 0.1930(10) 0.3207(11) 0.8728(8)
H2 H 0.1026 0.3346 0.8842
C4 C 0.2679(13) 0.2255(9) 0.9112(6)
H3 H 0.2289 0.1745 0.9506
C5 C 0.3989(11) 0.2038(8) 0.8926(6)
H4 H 0.4496 0.1376 0.9187
C6 C 0.4585(10) 0.2787(8) 0.8353(6)
H5 H 0.5488 0.2619 0.8220
C7 C 0.4482(11) 0.4637(7) 0.7389(6)
H6 H 0.4026 0.4987 0.6875
H7 H 0.4352 0.5143 0.7696
C8 C 0.6792(10) 0.4346(7) 0.7583(5)
H8 H 0.7508 0.3720 0.7635
H9 H 0.6371 0.4342 0.8171
C9 C 0.7342(14) 0.5268(9) 0.7197(6)
C10 C 0.8599(13) 0.5189(9) 0.7264(7)
H10 H 0.9098 0.4543 0.7564
C11 C 0.9182(15) 0.6012(12) 0.6914(9)
H11 H 1.0065 0.5918 0.6921
C12 C 0.840(2) 0.6944(13) 0.6567(10)
H12 H 0.8750 0.7519 0.6384
C13 C 0.7110(18) 0.7120(9) 0.6458(9)
H13 H 0.6613 0.7779 0.6180
C14 C 0.6593(13) 0.6229(10) 0.6799(8)
H14 H 0.5730 0.6304 0.6749
C15 C 0.6301(10) 0.3916(6) 0.6379(5)
C16 C 0.7608(9) 0.3625(6) 0.6067(5)
H15 H 0.8229 0.3681 0.6345
C17 C 0.8001(9) 0.3260(6) 0.5360(5)
H16 H 0.8889 0.3055 0.5174
C18 C 0.7117(10) 0.3182(6) 0.4908(5)
C19 C 0.5816(12) 0.3460(7) 0.5227(6)
H17 H 0.5198 0.3411 0.4943
C20 C 0.5407(10) 0.3806(7) 0.5949(6)
H18 H 0.4522 0.3969 0.6156
C21 C 0.7539(9) 0.2812(6) 0.4156(5)
C22 C 0.7801(9) 0.2551(6) 0.3512(5)
C23 C 0.8069(9) 0.2239(5) 0.2732(5)
C24 C 0.9187(9) 0.2333(6) 0.2148(5)
H19 H 0.9782 0.2605 0.2266
C25 C 0.9443(8) 0.2041(6) 0.1409(5)
H20 H 1.0217 0.2084 0.1036
C26 C 0.8523(8) 0.1677(5) 0.1218(5)
C27 C 0.7401(8) 0.1573(5) 0.1797(5)
C28 C 0.7153(8) 0.1863(5) 0.2546(4)
H21 H 0.6387 0.1809 0.2925
C29 C 0.8489(7) 0.1368(5) 0.0462(5)
C30 C 0.9303(8) 0.1403(6) -0.0317(5)
H22 H 1.0053 0.1629 -0.0411
C31 C 0.9023(8) 0.1111(6) -0.0949(5)
H23 H 0.9566 0.1158 -0.1478
C32 C 0.7924(8) 0.0742(5) -0.0803(4)
C33 C 0.7106(7) 0.0688(5) -0.0008(4)
H24 H 0.6386 0.0422 0.0102
C34 C 0.7362(7) 0.1027(5) 0.0610(4)
C35 C 0.7593(8) 0.0413(6) -0.1484(5)
C36 C 0.8325(9) 0.0711(7) -0.2388(5)
H25 H 0.8248 0.1455 -0.2565
H26 H 0.9241 0.0355 -0.2354
C37 C 0.7901(10) 0.0477(6) -0.3093(5)
C38 C 0.8828(11) -0.0068(7) -0.3625(7)
H27 H 0.9686 -0.0349 -0.3502
C39 C 0.8468(18) -0.0190(8) -0.4337(6)
H28 H 0.9068 -0.0546 -0.4701
C40 C 0.719(2) 0.0239(11) -0.4478(8)
C41 C 0.6298(14) 0.0760(11) -0.3975(7)
H29 H 0.5442 0.1043 -0.4101
C42 C 0.6653(10) 0.0871(7) -0.3283(5)
H30 H 0.6028 0.1226 -0.2928
C43 C 0.6577(7) 0.1113(5) 0.1478(4)
C44 C 0.6404(7) 0.0066(5) 0.2130(4)
H31 H 0.5920 0.0190 0.2673
H32 H 0.5883 -0.0199 0.1895
C45 C 0.7644(8) -0.0749(5) 0.2332(5)
H33 H 0.8193 -0.0470 0.2531
H34 H 0.8101 -0.0912 0.1798
C46 C 0.7446(9) -0.1745(6) 0.3022(5)
H35 H 0.6948 -0.1571 0.3543
H36 H 0.6926 -0.2034 0.2808
C47 C 0.8669(10) -0.2573(7) 0.3277(7)
H37 H 0.9189 -0.2309 0.3514
H38 H 0.9181 -0.2762 0.2766
C48 C 0.8299(15) -0.3569(9) 0.3992(10)
H39 H 0.7442 -0.3323 0.4290
H40 H 0.8199 -0.4001 0.3674
C49 C 0.901(3) -0.417(2) 0.4583(15)
H41 H 0.9882 -0.4411 0.4316
H42 H 0.8663 -0.4758 0.4912
H43 H 0.9029 -0.3796 0.4968
C50 C 0.5181(9) 0.1855(7) 0.1336(6)
H44 H 0.4725 0.1542 0.1097
H45 H 0.4707 0.1900 0.1902
C51 C 0.5145(12) 0.2919(9) 0.0754(8)
H46 H 0.5594 0.2892 0.0178
H47 H 0.5588 0.3249 0.0986
C52 C 0.3597(16) 0.3618(11) 0.0673(10)
H48 H 0.3131 0.3269 0.0477
H49 H 0.3161 0.3698 0.1238
C53 C 0.362(2) 0.4602(16) 0.0061(17)
H50 H 0.3967 0.4510 -0.0513
H51 H 0.4205 0.4886 0.0219
C54 C 0.211(3) 0.5498(14) -0.001(2)
H52 H 0.2016 0.6008 0.0288
H53 H 0.1948 0.5857 -0.0612
C55 C 0.138(2) 0.493(3) 0.037(2)
H54 H 0.1864 0.4274 0.0716
H55 H 0.1005 0.4814 -0.0054
H56 H 0.0694 0.5257 0.0744
N1 N 0.5865(9) 0.4292(6) 0.7105(4)
N2 N 0.692(3) 0.012(2) -0.5284(10)
O1 O 0.6759(7) -0.0047(4) -0.1301(3)
O2 O 0.5732(19) 0.0730(16) -0.5461(9)
O3 O 0.757(3) -0.0394(13) -0.5653(9)
loop_
_geom_bond_atom_site_label_1
_geom_bond_atom_site_label_2
_geom_bond_site_symmetry_1
_geom_bond_site_symmetry_2
C1 C2 1_555 1_555
C2 H1 1_555 1_555
C3 C2 1_555 1_555
H2 C3 1_555 1_555
C4 C3 1_555 1_555
H3 C4 1_555 1_555
C5 C4 1_555 1_555
H4 C5 1_555 1_555
C6 C1 1_555 1_555
H5 C6 1_555 1_555
C7 C1 1_555 1_555
H6 C7 1_555 1_555
H7 C7 1_555 1_555
C8 H8 1_555 1_555
H9 C8 1_555 1_555
C9 C8 1_555 1_555
C10 C9 1_555 1_555
H10 C10 1_555 1_555
C11 C10 1_555 1_555
H11 C11 1_555 1_555
C12 C11 1_555 1_555
H12 C12 1_555 1_555
C13 C12 1_555 1_555
H13 C13 1_555 1_555
C14 C9 1_555 1_555
H14 C14 1_555 1_555
C15 C16 1_555 1_555
C16 H15 1_555 1_555
C17 C16 1_555 1_555
H16 C17 1_555 1_555
C18 C17 1_555 1_555
C19 C18 1_555 1_555
H17 C19 1_555 1_555
C20 C15 1_555 1_555
H18 C20 1_555 1_555
C21 C18 1_555 1_555
C22 C21 1_555 1_555
C23 C22 1_555 1_555
C24 C23 1_555 1_555
H19 C24 1_555 1_555
C25 C24 1_555 1_555
H20 C25 1_555 1_555
C26 C25 1_555 1_555
C27 C26 1_555 1_555
C28 C23 1_555 1_555
H21 C28 1_555 1_555
C29 C26 1_555 1_555
C30 C29 1_555 1_555
H22 C30 1_555 1_555
C31 C30 1_555 1_555
H23 C31 1_555 1_555
C32 C31 1_555 1_555
C33 C32 1_555 1_555
H24 C33 1_555 1_555
C34 C29 1_555 1_555
C35 C32 1_555 1_555
C36 C35 1_555 1_555
H25 C36 1_555 1_555
H26 C36 1_555 1_555
C37 C36 1_555 1_555
C38 C37 1_555 1_555
H27 C38 1_555 1_555
C39 C38 1_555 1_555
H28 C39 1_555 1_555
C40 C39 1_555 1_555
C41 C40 1_555 1_555
H29 C41 1_555 1_555
C42 C37 1_555 1_555
H30 C42 1_555 1_555
C43 C27 1_555 1_555
C44 C43 1_555 1_555
H31 C44 1_555 1_555
H32 C44 1_555 1_555
C45 C44 1_555 1_555
H33 C45 1_555 1_555
H34 C45 1_555 1_555
C46 C45 1_555 1_555
H35 C46 1_555 1_555
H36 C46 1_555 1_555
C47 C46 1_555 1_555
H37 C47 1_555 1_555
H38 C47 1_555 1_555
C48 C47 1_555 1_555
H39 C48 1_555 1_555
H40 C48 1_555 1_555
C49 C48 1_555 1_555
H41 C49 1_555 1_555
H42 C49 1_555 1_555
H43 C49 1_555 1_555
C50 C43 1_555 1_555
H44 C50 1_555 1_555
H45 C50 1_555 1_555
C51 C50 1_555 1_555
H46 C51 1_555 1_555
H47 C51 1_555 1_555
C52 C51 1_555 1_555
H48 C52 1_555 1_555
H49 C52 1_555 1_555
C53 C52 1_555 1_555
H50 C53 1_555 1_555
H51 C53 1_555 1_555
C54 C53 1_555 1_555
H52 C54 1_555 1_555
H53 C54 1_555 1_555
C55 C54 1_555 1_555
H54 C55 1_555 1_555
H55 C55 1_555 1_555
H56 C55 1_555 1_555
N1 C7 1_555 1_555
N2 C40 1_555 1_555
O1 C35 1_555 1_555
O2 N2 1_555 1_555
O3 N2 1_555 1_555
C5 C6 1_555 1_555
C8 N1 1_555 1_555
C13 C14 1_555 1_555
C15 N1 1_555 1_555
C19 C20 1_555 1_555
C27 C28 1_555 1_555
C33 C34 1_555 1_555
C34 C43 1_555 1_555
C41 C42 1_555 1_555

#END
