
#######################################################################
#
#                 Cambridge Crystallographic Data Centre
#                                CCDC 
#
#######################################################################
#
# If this CIF has been generated from an entry in the Cambridge 
# Structural Database, then it will include bibliographic, chemical, 
# crystal, experimental, refinement or atomic coordinate data resulting 
# from the CCDC's data processing and validation procedures.
#
#######################################################################

data_DOKRUR
_chemical_formula_moiety         'C16 H18 N1 O2 1+,C7 H7 O3 S1 1-,H2 O1'
_chemical_name_systematic        
'4-(3-Ethoxy-4-hydroxystyryl)-1-methylpyridinium p-toluenesulfonate monohydrate'
_symmetry_cell_setting           monoclinic
_symmetry_space_group_name_H-M   'P 21/n'
_symmetry_Int_Tables_number      14
_space_group_name_Hall           '-P 2yn'
loop_
_symmetry_equiv_pos_site_id
_symmetry_equiv_pos_as_xyz
1 x,y,z
2 1/2-x,1/2+y,1/2-z
3 -x,-y,-z
4 1/2+x,1/2-y,1/2+z
_cell_length_a                   13.7700(4)
_cell_length_b                   9.7125(2)
_cell_length_c                   17.3394(5)
_cell_angle_alpha                90
_cell_angle_beta                 104.059(2)
_cell_angle_gamma                90
_cell_volume                     2249.53
_exptl_crystal_colour            orange
_exptl_crystal_description       block
_cell_formula_units_Z            4
_exptl_crystal_recrystallization_method methanol
loop_
_atom_site_label
_atom_site_type_symbol
_atom_site_fract_x
_atom_site_fract_y
_atom_site_fract_z
S1 S 0.72581(5) 0.48936(6) 0.59449(4)
O3 O 0.62950(16) 0.5133(2) 0.61455(17)
O4 O 0.78329(17) 0.3912(2) 0.64784(16)
O5 O 0.7116(2) 0.4619(2) 0.51204(15)
C17 C 0.78797(16) 0.6487(2) 0.61343(14)
C18 C 0.8387(2) 0.7012(3) 0.56113(17)
H21 H 0.8428 0.6513 0.5163
C19 C 0.8839(2) 0.8288(3) 0.5755(2)
H22 H 0.9184 0.8637 0.5398
C20 C 0.8792(2) 0.9043(3) 0.6399(2)
C21 C 0.8292(2) 0.8499(3) 0.69306(18)
H23 H 0.8265 0.8996 0.7383
C22 C 0.78351(19) 0.7234(3) 0.67996(14)
H24 H 0.7496 0.6884 0.7160
C23 C 0.9251(3) 1.0473(3) 0.6528(3)
H25 H 0.9759 1.0560 0.6237
H26 H 0.9543 1.0611 0.7084
H27 H 0.8740 1.1151 0.6343
O1 O 0.92457(12) 0.27591(17) 0.20090(10)
H1 H 0.9248 0.2213 0.1649
O2 O 0.91242(13) 0.42417(17) 0.32358(10)
N1 N 0.55785(13) -0.0896(2) 0.63677(11)
C1 C 0.56915(16) -0.1585(2) 0.57240(14)
H4 H 0.5445 -0.2477 0.5633
C2 C 0.61625(16) -0.0993(2) 0.52038(13)
H5 H 0.6230 -0.1481 0.4758
C3 C 0.65447(15) 0.0336(2) 0.53320(13)
C4 C 0.64007(18) 0.1008(2) 0.60023(15)
H6 H 0.6637 0.1902 0.6110
C5 C 0.59222(18) 0.0384(3) 0.65010(15)
H7 H 0.5832 0.0856 0.6945
C6 C 0.5107(2) -0.1567(4) 0.69445(17)
H8 H 0.5615 -0.1870 0.7395
H9 H 0.4723 -0.2345 0.6699
H10 H 0.4673 -0.0924 0.7116
C7 C 0.70733(17) 0.1044(2) 0.48149(14)
H11 H 0.7258 0.1957 0.4928
C8 C 0.73041(18) 0.0465(3) 0.41971(15)
H12 H 0.7107 -0.0447 0.4098
C9 C 0.78346(17) 0.1085(3) 0.36470(14)
C10 C 0.79432(19) 0.0317(3) 0.30061(16)
H13 H 0.7700 -0.0580 0.2944
C11 C 0.84097(18) 0.0864(3) 0.24558(15)
H14 H 0.8466 0.0335 0.2022
C12 C 0.87921(16) 0.2176(2) 0.25382(13)
C13 C 0.87119(17) 0.2968(2) 0.31965(13)
C14 C 0.82272(17) 0.2423(3) 0.37394(13)
H15 H 0.8161 0.2952 0.4171
C15 C 0.9068(2) 0.5061(3) 0.39048(17)
H16 H 0.9420 0.4613 0.4393
H17 H 0.8376 0.5191 0.3922
C16 C 0.9543(3) 0.6418(4) 0.3816(2)
H18 H 0.9518 0.6998 0.4259
H19 H 0.9189 0.6851 0.3332
H20 H 1.0228 0.6276 0.3801
O6 O 0.44858(19) 0.3921(3) 0.58789(15)
H2 H 0.399(2) 0.427(3) 0.5530(19)
H3 H 0.4608(18) 0.4682(16) 0.6128(13)
loop_
_geom_bond_atom_site_label_1
_geom_bond_atom_site_label_2
_geom_bond_site_symmetry_1
_geom_bond_site_symmetry_2
S1 O3 1_555 1_555
O1 H1 1_555 1_555
O2 C13 1_555 1_555
O4 S1 1_555 1_555
O5 S1 1_555 1_555
O6 H2 1_555 1_555
H3 O6 1_555 1_555
N1 C1 1_555 1_555
C1 H4 1_555 1_555
C2 C1 1_555 1_555
H5 C2 1_555 1_555
C3 C2 1_555 1_555
C4 C3 1_555 1_555
H6 C4 1_555 1_555
C5 N1 1_555 1_555
H7 C5 1_555 1_555
C6 N1 1_555 1_555
H8 C6 1_555 1_555
H9 C6 1_555 1_555
H10 C6 1_555 1_555
C7 C3 1_555 1_555
H11 C7 1_555 1_555
C8 C7 1_555 1_555
H12 C8 1_555 1_555
C9 C8 1_555 1_555
C10 C9 1_555 1_555
H13 C10 1_555 1_555
C11 C10 1_555 1_555
H14 C11 1_555 1_555
C12 O1 1_555 1_555
C13 C12 1_555 1_555
C14 C9 1_555 1_555
H15 C14 1_555 1_555
C15 O2 1_555 1_555
H16 C15 1_555 1_555
H17 C15 1_555 1_555
C16 C15 1_555 1_555
H18 C16 1_555 1_555
H19 C16 1_555 1_555
H20 C16 1_555 1_555
C17 S1 1_555 1_555
C18 C17 1_555 1_555
H21 C18 1_555 1_555
C19 C18 1_555 1_555
H22 C19 1_555 1_555
C20 C19 1_555 1_555
C21 C20 1_555 1_555
H23 C21 1_555 1_555
C22 C17 1_555 1_555
H24 C22 1_555 1_555
C23 C20 1_555 1_555
H25 C23 1_555 1_555
H26 C23 1_555 1_555
H27 C23 1_555 1_555
C4 C5 1_555 1_555
C11 C12 1_555 1_555
C13 C14 1_555 1_555
C21 C22 1_555 1_555

#END
