
#######################################################################
#
#                 Cambridge Crystallographic Data Centre
#                                CCDC 
#
#######################################################################
#
# If this CIF has been generated from an entry in the Cambridge 
# Structural Database, then it will include bibliographic, chemical, 
# crystal, experimental, refinement or atomic coordinate data resulting 
# from the CCDC's data processing and validation procedures.
#
#######################################################################

data_DOKVAB
_chemical_formula_moiety         'C19 H15 N3 S1,H2 O1'
_chemical_name_systematic        
'4-(1,3-Benzothiazol-2-yl)-N-(2-pyridylmethyl)aniline monohydrate'
_symmetry_cell_setting           triclinic
_symmetry_space_group_name_H-M   'P -1'
_symmetry_Int_Tables_number      2
_space_group_name_Hall           '-P 1'
loop_
_symmetry_equiv_pos_site_id
_symmetry_equiv_pos_as_xyz
1 x,y,z
2 -x,-y,-z
_cell_length_a                   6.5042(3)
_cell_length_b                   11.5721(5)
_cell_length_c                   11.9415(5)
_cell_angle_alpha                99.5970(10)
_cell_angle_beta                 103.5990(10)
_cell_angle_gamma                99.8130(10)
_cell_volume                     840.52
_exptl_crystal_colour            yellow
_exptl_crystal_description       plate
_cell_formula_units_Z            2
_exptl_crystal_recrystallization_method ethanol
loop_
_atom_site_label
_atom_site_type_symbol
_atom_site_fract_x
_atom_site_fract_y
_atom_site_fract_z
C1 C 0.4402(3) 0.43406(18) -0.20560(17)
C2 C 0.5812(4) 0.4597(2) -0.2737(2)
H1 H 0.6917 0.4186 -0.2762
C3 C 0.5534(5) 0.5473(2) -0.3374(2)
H2 H 0.6479 0.5659 -0.3826
C4 C 0.3900(5) 0.6079(2) -0.3361(2)
H3 H 0.3748 0.6659 -0.3810
C5 C 0.2492(5) 0.5842(2) -0.2699(2)
H4 H 0.1382 0.6252 -0.2692
C6 C 0.2765(4) 0.49671(19) -0.20326(18)
C7 C 0.2929(3) 0.34399(17) -0.08419(16)
C8 C 0.2525(3) 0.26241(17) -0.00708(16)
C9 C 0.3952(3) 0.18903(19) 0.02435(17)
H5 H 0.5194 0.1946 -0.0020
C10 C 0.3564(3) 0.10838(19) 0.09370(17)
H6 H 0.4541 0.0600 0.1128
C11 C 0.1720(3) 0.09818(18) 0.13580(17)
C12 C 0.0305(3) 0.17363(18) 0.10587(18)
H7 H -0.0918 0.1701 0.1339
C13 C 0.0701(3) 0.25266(19) 0.03563(18)
H8 H -0.0275 0.3010 0.0160
C14 C -0.0523(3) -0.00822(19) 0.24393(18)
H9 H -0.0695 -0.0890 0.2582
H10 H -0.1768 -0.0071 0.1811
C15 C -0.0534(3) 0.07696(18) 0.35445(16)
C16 C 0.1128(4) 0.1740(2) 0.41260(19)
H11 H 0.2336 0.1912 0.3844
C17 C 0.0975(5) 0.2455(2) 0.5135(2)
H12 H 0.2085 0.3115 0.5542
C18 C -0.0808(5) 0.2189(2) 0.5533(2)
H13 H -0.0941 0.2657 0.6214
C19 C -0.2392(4) 0.1217(2) 0.4904(2)
H14 H -0.3609 0.1032 0.5176
N1 N 0.4450(3) 0.34715(15) -0.13801(15)
N2 N 0.1390(3) 0.01759(17) 0.20410(16)
H15 H 0.228(3) -0.0288(16) 0.2148(19)
N3 N -0.2300(3) 0.05079(16) 0.39105(15)
S1 S 0.12798(10) 0.44713(5) -0.11189(5)
O1 O 0.4135(2) -0.14685(15) 0.26027(16)
H16 H 0.526(3) -0.0972(19) 0.299(2)
H17 H 0.450(4) -0.2003(18) 0.218(2)
loop_
_geom_bond_atom_site_label_1
_geom_bond_atom_site_label_2
_geom_bond_site_symmetry_1
_geom_bond_site_symmetry_2
C1 C2 1_555 1_555
C2 H1 1_555 1_555
C3 C2 1_555 1_555
H2 C3 1_555 1_555
C4 C3 1_555 1_555
H3 C4 1_555 1_555
C5 C4 1_555 1_555
H4 C5 1_555 1_555
C6 C1 1_555 1_555
C7 C8 1_555 1_555
C8 C9 1_555 1_555
C9 H5 1_555 1_555
C10 C9 1_555 1_555
H6 C10 1_555 1_555
C11 C10 1_555 1_555
C12 C11 1_555 1_555
H7 C12 1_555 1_555
C13 C8 1_555 1_555
H8 C13 1_555 1_555
C14 H9 1_555 1_555
H10 C14 1_555 1_555
C15 C14 1_555 1_555
C16 C15 1_555 1_555
H11 C16 1_555 1_555
C17 C16 1_555 1_555
H12 C17 1_555 1_555
C18 C17 1_555 1_555
H13 C18 1_555 1_555
C19 C18 1_555 1_555
H14 C19 1_555 1_555
N1 C1 1_555 1_555
N2 C11 1_555 1_555
H15 N2 1_555 1_555
N3 C15 1_555 1_555
O1 H16 1_555 1_555
H17 O1 1_555 1_555
S1 C6 1_555 1_555
C5 C6 1_555 1_555
C7 N1 1_555 1_555
C7 S1 1_555 1_555
C12 C13 1_555 1_555
C14 N2 1_555 1_555
C19 N3 1_555 1_555

#END
