
#######################################################################
#
#                 Cambridge Crystallographic Data Centre
#                                CCDC 
#
#######################################################################
#
# If this CIF has been generated from an entry in the Cambridge 
# Structural Database, then it will include bibliographic, chemical, 
# crystal, experimental, refinement or atomic coordinate data resulting 
# from the CCDC's data processing and validation procedures.
#
#######################################################################

data_DOKVOP
_chemical_formula_moiety         'C19 H14 Cl1 F1 N2 O3'
_chemical_name_systematic        
'(Z)-Ethyl 3-(4-chlorobenzamido)-2-cyano-3-(4-fluorophenyl)acrylate'
_symmetry_cell_setting           monoclinic
_symmetry_space_group_name_H-M   'P 21/c'
_symmetry_Int_Tables_number      14
_space_group_name_Hall           '-P 2ybc'
loop_
_symmetry_equiv_pos_site_id
_symmetry_equiv_pos_as_xyz
1 x,y,z
2 -x,1/2+y,1/2-z
3 -x,-y,-z
4 x,1/2-y,1/2+z
_cell_length_a                   6.1429(5)
_cell_length_b                   13.1555(6)
_cell_length_c                   22.9263(10)
_cell_angle_alpha                90
_cell_angle_beta                 92.280(4)
_cell_angle_gamma                90
_cell_volume                     1851.27
_exptl_crystal_colour            colorless
_exptl_crystal_description       block
_cell_formula_units_Z            4
_exptl_crystal_recrystallization_method 'ethyl acetate/petroleum ether'
loop_
_atom_site_label
_atom_site_type_symbol
_atom_site_fract_x
_atom_site_fract_y
_atom_site_fract_z
C1 C 0.4513(5) 0.4421(2) 0.11848(12)
C2 C 0.4752(5) 0.3939(2) 0.17187(14)
H1 H 0.3761 0.4064 0.2006
C3 C 0.6452(6) 0.3273(3) 0.18272(14)
H2 H 0.6599 0.2942 0.2185
C4 C 0.7924(5) 0.3099(2) 0.14056(15)
C5 C 0.7716(6) 0.3559(3) 0.08732(15)
H3 H 0.8718 0.3431 0.0589
C6 C 0.6006(6) 0.4213(2) 0.07632(14)
H4 H 0.5848 0.4523 0.0399
C7 C 0.2778(5) 0.5173(2) 0.10220(14)
C8 C -0.0191(5) 0.6171(2) 0.14507(13)
C9 C -0.0435(5) 0.6899(2) 0.09582(13)
C10 C -0.2251(6) 0.6897(3) 0.05965(16)
H5 H -0.3308 0.6400 0.0642
C11 C -0.2547(7) 0.7618(3) 0.01659(16)
H6 H -0.3779 0.7598 -0.0083
C12 C -0.1070(8) 0.8340(3) 0.01079(16)
C13 C 0.0819(9) 0.8367(3) 0.04453(19)
H7 H 0.1867 0.8863 0.0388
C14 C 0.1124(7) 0.7635(3) 0.08740(17)
H8 H 0.2395 0.7638 0.1108
C15 C -0.1571(5) 0.6200(2) 0.18996(13)
C16 C -0.3251(6) 0.6945(3) 0.18956(14)
C17 C -0.1424(5) 0.5506(2) 0.24042(13)
C18 C -0.3118(6) 0.4975(3) 0.32660(15)
H9 H -0.1840 0.5102 0.3518
H10 H -0.3126 0.4264 0.3155
C19 C -0.5130(7) 0.5229(4) 0.35748(17)
H11 H -0.5114 0.5937 0.3677
H12 H -0.5193 0.4826 0.3923
H13 H -0.6383 0.5088 0.3324
Cl1 Cl 1.00991(17) 0.22922(8) 0.15591(5)
F1 F -0.1365(6) 0.90693(18) -0.03083(11)
N1 N 0.1499(4) 0.54859(19) 0.14698(10)
H14 H 0.1799 0.5216 0.1805
N2 N -0.4597(6) 0.7536(3) 0.19023(14)
O1 O 0.2500(5) 0.5501(2) 0.05344(10)
O2 O 0.0048(4) 0.49015(17) 0.24988(10)
O3 O -0.3085(4) 0.56200(16) 0.27479(9)
loop_
_geom_bond_atom_site_label_1
_geom_bond_atom_site_label_2
_geom_bond_site_symmetry_1
_geom_bond_site_symmetry_2
C1 C2 1_555 1_555
C2 H1 1_555 1_555
C3 C2 1_555 1_555
H2 C3 1_555 1_555
C4 C3 1_555 1_555
C5 C4 1_555 1_555
H3 C5 1_555 1_555
C6 C1 1_555 1_555
H4 C6 1_555 1_555
C7 C1 1_555 1_555
C8 C9 1_555 1_555
C9 C10 1_555 1_555
C10 H5 1_555 1_555
C11 C10 1_555 1_555
H6 C11 1_555 1_555
C12 C11 1_555 1_555
C13 C12 1_555 1_555
H7 C13 1_555 1_555
C14 C9 1_555 1_555
H8 C14 1_555 1_555
C15 C8 1_555 1_555
C16 C15 1_555 1_555
C17 C15 1_555 1_555
C18 H9 1_555 1_555
H10 C18 1_555 1_555
C19 C18 1_555 1_555
H11 C19 1_555 1_555
H12 C19 1_555 1_555
H13 C19 1_555 1_555
Cl1 C4 1_555 1_555
F1 C12 1_555 1_555
N1 C7 1_555 1_555
H14 N1 1_555 1_555
N2 C16 1_555 1_555
O1 C7 1_555 1_555
O2 C17 1_555 1_555
O3 C17 1_555 1_555
C5 C6 1_555 1_555
C8 N1 1_555 1_555
C13 C14 1_555 1_555
C18 O3 1_555 1_555

#END
