
#######################################################################
#
#                 Cambridge Crystallographic Data Centre
#                                CCDC 
#
#######################################################################
#
# If this CIF has been generated from an entry in the Cambridge 
# Structural Database, then it will include bibliographic, chemical, 
# crystal, experimental, refinement or atomic coordinate data resulting 
# from the CCDC's data processing and validation procedures.
#
#######################################################################

data_DOKYIM
_chemical_name_common            '4-Cyanobenzaldehyde thiosemicarbazone'
_chemical_formula_moiety         'C9 H8 N4 S1'
_chemical_name_systematic        2-(4-cyanobenzylidene)hydrazinecarbothioamide
_symmetry_cell_setting           monoclinic
_symmetry_space_group_name_H-M   'P 21/c'
_symmetry_Int_Tables_number      14
_space_group_name_Hall           '-P 2ybc'
loop_
_symmetry_equiv_pos_site_id
_symmetry_equiv_pos_as_xyz
1 x,y,z
2 -x,1/2+y,1/2-z
3 -x,-y,-z
4 x,1/2-y,1/2+z
_cell_length_a                   12.284(6)
_cell_length_b                   8.209(4)
_cell_length_c                   10.058(3)
_cell_angle_alpha                90
_cell_angle_beta                 92.20(3)
_cell_angle_gamma                90
_cell_volume                     1013.49
_exptl_crystal_colour            colorless
_exptl_crystal_description       block
_cell_formula_units_Z            4
_exptl_crystal_recrystallization_method methanol
loop_
_atom_site_label
_atom_site_type_symbol
_atom_site_fract_x
_atom_site_fract_y
_atom_site_fract_z
C1 C 0.07786(19) 0.5792(3) 0.6753(2)
C2 C 0.18757(19) 0.2982(3) 0.4587(2)
H1 H 0.1575 0.2048 0.4946
C3 C 0.26310(18) 0.2841(3) 0.3506(2)
C4 C 0.30116(19) 0.1304(3) 0.3163(2)
H2 H 0.2748 0.0384 0.3583
C5 C 0.3781(2) 0.1135(3) 0.2198(2)
H3 H 0.4029 0.0108 0.1964
C6 C 0.4175(2) 0.2517(3) 0.1588(2)
C7 C 0.3777(2) 0.4058(3) 0.1891(2)
H4 H 0.4028 0.4973 0.1452
C8 C 0.3008(2) 0.4214(3) 0.2846(2)
H5 H 0.2740 0.5239 0.3052
C9 C 0.5021(2) 0.2377(4) 0.0632(3)
N1 N 0.1138(2) 0.7144(3) 0.6221(2)
H6 H 0.1485 0.7106 0.5496
H7 H 0.1026 0.8065 0.6600
N2 N 0.09749(15) 0.4384(2) 0.61235(17)
H8 H 0.0694 0.3490 0.6396
N3 N 0.16254(15) 0.4379(2) 0.50426(18)
N4 N 0.5709(2) 0.2293(3) -0.0102(3)
S1 S 0.01195(6) 0.57476(8) 0.81966(6)
loop_
_geom_bond_atom_site_label_1
_geom_bond_atom_site_label_2
_geom_bond_site_symmetry_1
_geom_bond_site_symmetry_2
C1 N1 1_555 1_555
C2 H1 1_555 1_555
C3 C2 1_555 1_555
C4 C3 1_555 1_555
H2 C4 1_555 1_555
C5 C4 1_555 1_555
H3 C5 1_555 1_555
C6 C5 1_555 1_555
C7 C6 1_555 1_555
H4 C7 1_555 1_555
C8 C3 1_555 1_555
H5 C8 1_555 1_555
C9 C6 1_555 1_555
N1 H6 1_555 1_555
H7 N1 1_555 1_555
N2 C1 1_555 1_555
H8 N2 1_555 1_555
N3 C2 1_555 1_555
N4 C9 1_555 1_555
S1 C1 1_555 1_555
C7 C8 1_555 1_555
N2 N3 1_555 1_555

#END
