
#######################################################################
#
#                 Cambridge Crystallographic Data Centre
#                                CCDC 
#
#######################################################################
#
# If this CIF has been generated from an entry in the Cambridge 
# Structural Database, then it will include bibliographic, chemical, 
# crystal, experimental, refinement or atomic coordinate data resulting 
# from the CCDC's data processing and validation procedures.
#
#######################################################################

data_DOLBIR08
_chemical_formula_moiety         'C2 H5 N1 O2'
_chemical_name_systematic        glycine
_symmetry_cell_setting           monoclinic
_symmetry_space_group_name_H-M   'P 21'
_symmetry_Int_Tables_number      4
_space_group_name_Hall           'P 2yb'
loop_
_symmetry_equiv_pos_site_id
_symmetry_equiv_pos_as_xyz
1 x,y,z
2 -x,1/2+y,-z
_cell_length_a                   5.0749(8)
_cell_length_b                   6.1692(10)
_cell_length_c                   5.3880(8)
_cell_angle_alpha                90
_cell_angle_beta                 113.393(2)
_cell_angle_gamma                90
_cell_volume                     154.822
_exptl_crystal_colour            colorless
_exptl_crystal_description       needle
_cell_formula_units_Z            2
loop_
_atom_site_label
_atom_site_type_symbol
_atom_site_fract_x
_atom_site_fract_y
_atom_site_fract_z
O1 O 0.61729(19) 0.26191(18) 0.25803(16)
O2 O 1.09057(18) 0.31904(17) 0.40311(16)
N1 N 0.6466(2) 0.1892(2) 0.76487(18)
H1 H 0.4769 0.2398 0.6411
H2 H 0.6548 0.2128 0.9345
H3 H 0.6604 0.0445 0.7394
C1 C 0.8633(3) 0.29086(19) 0.4396(2)
C2 C 0.8870(2) 0.3037(2) 0.7317(2)
H4 H 1.0711 0.2385 0.8539
H5 H 0.8868 0.4577 0.7835
loop_
_geom_bond_atom_site_label_1
_geom_bond_atom_site_label_2
_geom_bond_site_symmetry_1
_geom_bond_site_symmetry_2
O1 C1 1_555 1_555
O2 C1 1_555 1_555
N1 H1 1_555 1_555
H2 N1 1_555 1_555
H3 N1 1_555 1_555
C1 C2 1_555 1_555
C2 N1 1_555 1_555
H4 C2 1_555 1_555
H5 C2 1_555 1_555

#END
