
#######################################################################
#
#                 Cambridge Crystallographic Data Centre
#                                CCDC 
#
#######################################################################
#
# If this CIF has been generated from an entry in the Cambridge 
# Structural Database, then it will include bibliographic, chemical, 
# crystal, experimental, refinement or atomic coordinate data resulting 
# from the CCDC's data processing and validation procedures.
#
#######################################################################

data_DOLBUD
_chemical_name_common            
"cesium 25,27-(2,2'-[(5,10,10,15,20,20-hexamethyl-5,10,15,20,22,24-hexahydroporphyrin-5,15-diyl)bis(benzene-4,1-diyloxy)]diethanolate)-26,28-dihydroxycalix(4)arene fluoride chloroform methanol solvate"
_chemical_formula_moiety         
'C70 H68 N4 O6,2(C1 H4 O1),Cs1 1+,F1 1-,2(C1 H1 Cl3)'
_chemical_name_systematic        
'cesium 1,37,42,42,51,51-hexamethyl-6,9,29,32-tetraoxa-56,57,58,59-tetraazatridecacyclo[35.9.9.7^11,27^.2^2,5^.2^33,36^.1^17,21^.1^38,41^.1^43,46^.1^47,50^.1^52,55^.1^63,67^.0^10,15^.0^23,28^]doheptaconta-2,4,10,12,14,17(69),18,20,23,25,27,33,35,38,40,43,45,47,49,52,54,60,63(72),64,66,70-hexacosaene-69,72-diol fluoride chloroform methanol solvate'
_symmetry_cell_setting           triclinic
_symmetry_space_group_name_H-M   'P -1'
_symmetry_Int_Tables_number      2
_space_group_name_Hall           '-P 1'
loop_
_symmetry_equiv_pos_site_id
_symmetry_equiv_pos_as_xyz
1 x,y,z
2 -x,-y,-z
_cell_length_a                   12.5824(10)
_cell_length_b                   16.3849(12)
_cell_length_c                   18.0859(11)
_cell_angle_alpha                89.080(3)
_cell_angle_beta                 89.123(3)
_cell_angle_gamma                70.854(2)
_cell_volume                     3521.72
_exptl_crystal_description       prisms
_cell_formula_units_Z            2
loop_
_atom_site_label
_atom_site_type_symbol
_atom_site_fract_x
_atom_site_fract_y
_atom_site_fract_z
C1 C 0.3652(3) 0.9942(2) 0.41118(17)
C2 C 0.3686(3) 1.0740(2) 0.43005(19)
H1 H 0.3378 1.1045 0.4738
C3 C 0.4261(3) 1.1030(2) 0.37291(18)
H2 H 0.4411 1.1562 0.3715
C4 C 0.4564(2) 1.04009(19) 0.31970(17)
C5 C 0.5281(3) 1.03019(19) 0.24978(18)
C6 C 0.4544(2) 1.04572(19) 0.18227(17)
C7 C 0.4271(3) 1.1099(2) 0.12993(18)
H3 H 0.4480 1.1607 0.1301
C8 C 0.3621(3) 1.0877(2) 0.07518(19)
H4 H 0.3317 1.1209 0.0323
C9 C 0.3511(3) 1.0098(2) 0.09520(17)
C10 C 0.2981(3) 0.9509(2) 0.05762(17)
C11 C 0.1981(3) 0.9450(2) 0.10189(17)
C12 C 0.0845(3) 0.9819(2) 0.09153(19)
H5 H 0.0497 1.0213 0.0530
C13 C 0.0281(3) 0.9509(2) 0.14873(19)
H6 H -0.0510 0.9653 0.1550
C14 C 0.1089(2) 0.89622(18) 0.19317(17)
C15 C 0.0983(2) 0.84344(19) 0.26032(17)
C16 C 0.1172(3) 0.8850(2) 0.33099(18)
C17 C 0.0500(3) 0.9105(3) 0.3921(2)
H7 H -0.0265 0.9135 0.3968
C18 C 0.1157(3) 0.9316(3) 0.4474(2)
H8 H 0.0910 0.9505 0.4960
C19 C 0.2202(3) 0.9199(2) 0.41835(18)
C20 C 0.3236(3) 0.9293(2) 0.45309(18)
C21 C 0.5903(3) 1.0970(2) 0.2498(2)
H9 H 0.6368 1.0907 0.2049
H10 H 0.6383 1.0875 0.2934
H11 H 0.5352 1.1554 0.2511
C22 C 0.2593(3) 0.9876(2) -0.01953(19)
H12 H 0.2215 0.9515 -0.0433
H13 H 0.3248 0.9880 -0.0495
H14 H 0.2070 1.0467 -0.0152
C23 C 0.3874(3) 0.8603(2) 0.04914(19)
H15 H 0.4154 0.8372 0.0980
H16 H 0.4500 0.8648 0.0183
H17 H 0.3533 0.8215 0.0257
C24 C -0.0213(3) 0.8381(2) 0.26311(19)
H18 H -0.0284 0.8019 0.3053
H19 H -0.0360 0.8129 0.2172
H20 H -0.0758 0.8963 0.2686
C25 C 0.2964(3) 0.9601(2) 0.53309(18)
H21 H 0.2387 1.0174 0.5331
H22 H 0.3647 0.9635 0.5564
H23 H 0.2686 0.9192 0.5608
C26 C 0.4177(3) 0.8409(2) 0.4546(2)
H24 H 0.3925 0.7997 0.4839
H25 H 0.4852 0.8470 0.4768
H26 H 0.4351 0.8197 0.4039
C27 C 0.1813(2) 0.75039(19) 0.25552(17)
C28 C 0.2302(3) 0.7058(2) 0.31868(18)
H27 H 0.2135 0.7337 0.3651
C29 C 0.3027(3) 0.6216(2) 0.31588(18)
H28 H 0.3347 0.5923 0.3601
C30 C 0.3288(3) 0.57990(19) 0.24818(17)
C31 C 0.2795(3) 0.6223(2) 0.18443(18)
H29 H 0.2953 0.5941 0.1381
C32 C 0.2060(3) 0.7073(2) 0.18892(18)
H30 H 0.1721 0.7362 0.1450
C33 C 0.4358(3) 0.4516(2) 0.18443(18)
H31 H 0.4689 0.4838 0.1494
H32 H 0.3690 0.4439 0.1613
C34 C 0.5198(3) 0.3659(2) 0.20258(19)
H33 H 0.4945 0.3410 0.2470
H34 H 0.5265 0.3260 0.1610
C35 C 0.7061(3) 0.29876(19) 0.23927(18)
C36 C 0.7641(3) 0.2389(2) 0.18625(19)
C37 C 0.8399(3) 0.1608(2) 0.2114(2)
H35 H 0.8802 0.1188 0.1766
C38 C 0.8571(3) 0.1438(2) 0.2855(2)
H36 H 0.9050 0.0888 0.3018
C39 C 0.8049(3) 0.2065(2) 0.3365(2)
H37 H 0.8212 0.1954 0.3876
C40 C 0.7291(3) 0.2854(2) 0.31462(18)
C41 C 0.7518(3) 0.2604(2) 0.10447(19)
H38 H 0.7281 0.2161 0.0793
H39 H 0.6921 0.3169 0.0974
C42 C 0.8598(3) 0.2642(2) 0.06931(18)
C43 C 0.9070(3) 0.3257(2) 0.09178(17)
C44 C 1.0086(3) 0.3297(2) 0.06201(18)
C45 C 1.0616(3) 0.2718(2) 0.00683(18)
H40 H 1.1304 0.2736 -0.0143
C46 C 1.0143(3) 0.2114(2) -0.01757(19)
H41 H 1.0507 0.1725 -0.0556
C47 C 0.9146(3) 0.2079(2) 0.01322(19)
H42 H 0.8830 0.1665 -0.0040
C48 C 1.0569(3) 0.3964(2) 0.08938(18)
H43 H 0.9983 0.4541 0.0874
H44 H 1.1197 0.3980 0.0564
C49 C 1.0995(3) 0.3773(2) 0.16814(18)
C50 C 1.0476(3) 0.43044(19) 0.22661(18)
C51 C 1.0777(3) 0.4098(2) 0.30005(17)
C52 C 1.1671(3) 0.3347(2) 0.31436(19)
H45 H 1.1894 0.3189 0.3639
C53 C 1.2237(3) 0.2829(2) 0.2570(2)
H46 H 1.2868 0.2333 0.2672
C54 C 1.1888(3) 0.3031(2) 0.18503(19)
H47 H 1.2264 0.2657 0.1463
C55 C 1.0138(3) 0.4670(2) 0.36257(18)
H48 H 1.0686 0.4760 0.3976
H49 H 0.9697 0.5242 0.3418
C56 C 0.9350(3) 0.4294(2) 0.40448(18)
C57 C 0.8410(3) 0.4177(2) 0.37149(18)
C58 C 0.7735(3) 0.3772(2) 0.40954(18)
C59 C 0.7975(3) 0.3536(2) 0.48296(19)
H50 H 0.7517 0.3274 0.5099
C60 C 0.8874(3) 0.3677(3) 0.5177(2)
H51 H 0.9018 0.3527 0.5684
C61 C 0.9558(3) 0.4038(2) 0.47793(19)
H52 H 1.0188 0.4114 0.5015
C62 C 0.6804(3) 0.3571(2) 0.37028(18)
H53 H 0.6324 0.4097 0.3444
H54 H 0.6330 0.3390 0.4069
C63 C 1.0000(3) 0.5767(2) 0.19380(19)
H55 H 1.0503 0.5619 0.1499
H56 H 1.0433 0.5875 0.2356
C64 C 0.9020(3) 0.65542(19) 0.17793(18)
H57 H 0.9277 0.6991 0.1515
H58 H 0.8479 0.6405 0.1461
C65 C 0.7714(2) 0.77125(19) 0.24286(17)
C66 C 0.7295(3) 0.8148(2) 0.17792(17)
H59 H 0.7536 0.7883 0.1315
C67 C 0.6522(3) 0.8974(2) 0.18102(18)
H60 H 0.6236 0.9268 0.1361
C68 C 0.6153(2) 0.93865(19) 0.24758(18)
C69 C 0.6603(3) 0.8938(2) 0.31233(17)
H61 H 0.6377 0.9205 0.3588
C70 C 0.7371(3) 0.8114(2) 0.30993(18)
H62 H 0.7667 0.7820 0.3546
N1 N 0.4170(2) 0.97583(16) 0.34326(14)
H63 H 0.4238 0.9288 0.3182
N2 N 0.4058(2) 0.98530(16) 0.16129(14)
H64 H 0.4095 0.9381 0.1865
N3 N 0.2114(2) 0.89383(16) 0.16453(14)
H65 H 0.2767 0.8637 0.1836
N4 N 0.2200(2) 0.89165(16) 0.34711(14)
H66 H 0.2778 0.8796 0.3163
O1 O 0.40474(19) 0.49756(14) 0.25160(12)
O2 O 0.62735(18) 0.37561(13) 0.21609(12)
O3 O 0.85731(19) 0.38652(14) 0.14383(12)
H67 H 0.7963 0.3806 0.1580
O4 O 0.80986(19) 0.44379(15) 0.30076(12)
H68 H 0.8543 0.4674 0.2824
O5 O 0.95918(18) 0.50647(13) 0.21219(12)
O6 O 0.84891(18) 0.68959(13) 0.24594(12)
Cs1 Cs 0.16954(13) 1.08464(10) 0.24696(9)
O7 O 0.0680(7) 1.1131(6) 0.3897(4)
C71 C 0.0580(17) 1.1938(8) 0.4240(8)
H69 H 0.0223 1.1927 0.4711
H70 H 0.1311 1.1988 0.4314
H71 H 0.0131 1.2424 0.3954
C72 C 0.5918(3) 0.6334(2) 0.0457(2)
H72 H 0.5711 0.6678 0.0921
Cl1 Cl 0.63639(9) 0.69454(7) -0.02092(6)
Cl2 Cl 0.47181(9) 0.61227(7) 0.01395(6)
Cl3 Cl 0.69975(9) 0.53720(7) 0.06572(7)
C73 C 0.6665(3) 0.5827(2) 0.4970(2)
H73 H 0.7263 0.5266 0.4857
Cl4 Cl 0.54594(10) 0.58796(8) 0.44765(6)
Cl5 Cl 0.63795(9) 0.58618(7) 0.59233(5)
Cl6 Cl 0.71653(11) 0.66751(9) 0.47073(8)
C74 C 0.5884(3) 0.6408(3) 0.2549(2)
H74 H 0.6278 0.6659 0.2896
H75 H 0.6415 0.5879 0.2341
H76 H 0.5275 0.6270 0.2809
O8 O 0.5427(3) 0.70136(17) 0.19661(15)
H77 H 0.4976 0.7468 0.2144
F1 F 0.40128(14) 0.84789(11) 0.24946(10)
Cs2? Cs 0.1502(2) 1.10008(17) 0.22731(15)
O9? O 0.1006(17) 1.1245(14) 0.3798(6)
C75? C 0.061(2) 1.1790(9) 0.4431(8)
H78? H 0.0447 1.1493 0.4858
H79? H 0.1246 1.1969 0.4528
H80? H -0.0032 1.2288 0.4323
loop_
_geom_bond_atom_site_label_1
_geom_bond_atom_site_label_2
_geom_bond_site_symmetry_1
_geom_bond_site_symmetry_2
C1 C2 1_555 1_555
C2 H1 1_555 1_555
C3 C2 1_555 1_555
H2 C3 1_555 1_555
C4 C3 1_555 1_555
C5 C4 1_555 1_555
C6 C5 1_555 1_555
C7 C6 1_555 1_555
H3 C7 1_555 1_555
C8 C7 1_555 1_555
H4 C8 1_555 1_555
C9 C8 1_555 1_555
C10 C9 1_555 1_555
C11 C10 1_555 1_555
C12 C11 1_555 1_555
H5 C12 1_555 1_555
C13 C12 1_555 1_555
H6 C13 1_555 1_555
C14 C13 1_555 1_555
C15 C14 1_555 1_555
C16 C15 1_555 1_555
C17 C16 1_555 1_555
H7 C17 1_555 1_555
C18 C17 1_555 1_555
H8 C18 1_555 1_555
C19 C18 1_555 1_555
C20 C1 1_555 1_555
C21 C5 1_555 1_555
H9 C21 1_555 1_555
H10 C21 1_555 1_555
H11 C21 1_555 1_555
C22 C10 1_555 1_555
H12 C22 1_555 1_555
H13 C22 1_555 1_555
H14 C22 1_555 1_555
C23 C10 1_555 1_555
H15 C23 1_555 1_555
H16 C23 1_555 1_555
H17 C23 1_555 1_555
C24 C15 1_555 1_555
H18 C24 1_555 1_555
H19 C24 1_555 1_555
H20 C24 1_555 1_555
C25 C20 1_555 1_555
H21 C25 1_555 1_555
H22 C25 1_555 1_555
H23 C25 1_555 1_555
C26 C20 1_555 1_555
H24 C26 1_555 1_555
H25 C26 1_555 1_555
H26 C26 1_555 1_555
C27 C15 1_555 1_555
C28 C27 1_555 1_555
H27 C28 1_555 1_555
C29 C28 1_555 1_555
H28 C29 1_555 1_555
C30 C29 1_555 1_555
C31 C30 1_555 1_555
H29 C31 1_555 1_555
C32 C27 1_555 1_555
H30 C32 1_555 1_555
C33 H31 1_555 1_555
H32 C33 1_555 1_555
C34 C33 1_555 1_555
H33 C34 1_555 1_555
H34 C34 1_555 1_555
C35 C36 1_555 1_555
C36 C37 1_555 1_555
C37 H35 1_555 1_555
C38 C37 1_555 1_555
H36 C38 1_555 1_555
C39 C38 1_555 1_555
H37 C39 1_555 1_555
C40 C35 1_555 1_555
C41 C36 1_555 1_555
H38 C41 1_555 1_555
H39 C41 1_555 1_555
C42 C41 1_555 1_555
C43 C42 1_555 1_555
C44 C43 1_555 1_555
C45 C44 1_555 1_555
H40 C45 1_555 1_555
C46 C45 1_555 1_555
H41 C46 1_555 1_555
C47 C42 1_555 1_555
H42 C47 1_555 1_555
C48 C44 1_555 1_555
H43 C48 1_555 1_555
H44 C48 1_555 1_555
C49 C48 1_555 1_555
C50 C49 1_555 1_555
C51 C50 1_555 1_555
C52 C51 1_555 1_555
H45 C52 1_555 1_555
C53 C52 1_555 1_555
H46 C53 1_555 1_555
C54 C49 1_555 1_555
H47 C54 1_555 1_555
C55 C51 1_555 1_555
H48 C55 1_555 1_555
H49 C55 1_555 1_555
C56 C55 1_555 1_555
C57 C56 1_555 1_555
C58 C57 1_555 1_555
C59 C58 1_555 1_555
H50 C59 1_555 1_555
C60 C59 1_555 1_555
H51 C60 1_555 1_555
C61 C56 1_555 1_555
H52 C61 1_555 1_555
C62 C40 1_555 1_555
H53 C62 1_555 1_555
H54 C62 1_555 1_555
C63 H55 1_555 1_555
H56 C63 1_555 1_555
C64 C63 1_555 1_555
H57 C64 1_555 1_555
H58 C64 1_555 1_555
C65 C66 1_555 1_555
C66 H59 1_555 1_555
C67 C66 1_555 1_555
H60 C67 1_555 1_555
C68 C5 1_555 1_555
C69 C68 1_555 1_555
H61 C69 1_555 1_555
C70 C65 1_555 1_555
H62 C70 1_555 1_555
N1 C1 1_555 1_555
H63 N1 1_555 1_555
N2 C6 1_555 1_555
H64 N2 1_555 1_555
N3 C11 1_555 1_555
H65 N3 1_555 1_555
N4 C16 1_555 1_555
H66 N4 1_555 1_555
O1 C30 1_555 1_555
O2 C34 1_555 1_555
O3 C43 1_555 1_555
H67 O3 1_555 1_555
O4 C57 1_555 1_555
H68 O4 1_555 1_555
O5 C50 1_555 1_555
O6 C64 1_555 1_555
O7 C71 1_555 1_555
C71 H69 1_555 1_555
H70 C71 1_555 1_555
H71 C71 1_555 1_555
C72 H72 1_555 1_555
Cl1 C72 1_555 1_555
Cl2 C72 1_555 1_555
Cl3 C72 1_555 1_555
C73 H73 1_555 1_555
Cl4 C73 1_555 1_555
Cl5 C73 1_555 1_555
Cl6 C73 1_555 1_555
C74 H74 1_555 1_555
H75 C74 1_555 1_555
H76 C74 1_555 1_555
O8 C74 1_555 1_555
H77 O8 1_555 1_555
C4 N1 1_555 1_555
C9 N2 1_555 1_555
C14 N3 1_555 1_555
C19 C20 1_555 1_555
C19 N4 1_555 1_555
C31 C32 1_555 1_555
C33 O1 1_555 1_555
C35 O2 1_555 1_555
C39 C40 1_555 1_555
C46 C47 1_555 1_555
C53 C54 1_555 1_555
C58 C62 1_555 1_555
C60 C61 1_555 1_555
C63 O5 1_555 1_555
C65 O6 1_555 1_555
C67 C68 1_555 1_555
C69 C70 1_555 1_555

#END
