
#######################################################################
#
#                 Cambridge Crystallographic Data Centre
#                                CCDC 
#
#######################################################################
#
# If this CIF has been generated from an entry in the Cambridge 
# Structural Database, then it will include bibliographic, chemical, 
# crystal, experimental, refinement or atomic coordinate data resulting 
# from the CCDC's data processing and validation procedures.
#
#######################################################################

data_DOLBIR11
_chemical_formula_moiety         'C2 H5 N1 O2'
_chemical_name_systematic        glycine
_symmetry_cell_setting           trigonal
_symmetry_space_group_name_H-M   'P 31'
_symmetry_Int_Tables_number      144
_space_group_name_Hall           'P 31'
loop_
_symmetry_equiv_pos_site_id
_symmetry_equiv_pos_as_xyz
1 x,y,z
2 -y,x-y,1/3+z
3 -x+y,-x,2/3+z
_cell_length_a                   7.037(9)
_cell_length_b                   7.037(9)
_cell_length_c                   5.483(7)
_cell_angle_alpha                90
_cell_angle_beta                 90
_cell_angle_gamma                120
_cell_volume                     235.139
_exptl_crystal_colour            colorless
_exptl_crystal_description       plate
_cell_formula_units_Z            3
loop_
_atom_site_label
_atom_site_type_symbol
_atom_site_fract_x
_atom_site_fract_y
_atom_site_fract_z
O1 O -0.0994(3) 0.5549(3) 0.1332(2)
O2 O 0.2089(3) 0.8762(3) 0.1011(3)
N1 N -0.0864(3) 0.5508(3) 0.6217(3)
H1 H -0.0762 0.5734 0.7821
H2 H -0.0523 0.4480 0.5858
H3 H -0.2230 0.5066 0.5734
C1 C 0.0589(4) 0.7254(4) 0.2199(4)
C2 C 0.0661(4) 0.7561(4) 0.4960(4)
H4 H 0.2141 0.8069 0.5539
H5 H 0.0282 0.8676 0.5350
loop_
_geom_bond_atom_site_label_1
_geom_bond_atom_site_label_2
_geom_bond_site_symmetry_1
_geom_bond_site_symmetry_2
O1 C1 1_555 1_555
O2 C1 1_555 1_555
N1 H1 1_555 1_555
H2 N1 1_555 1_555
H3 N1 1_555 1_555
C1 C2 1_555 1_555
C2 N1 1_555 1_555
H4 C2 1_555 1_555
H5 C2 1_555 1_555

#END
