
#######################################################################
#
#                 Cambridge Crystallographic Data Centre
#                                CCDC 
#
#######################################################################
#
# If this CIF has been generated from an entry in the Cambridge 
# Structural Database, then it will include bibliographic, chemical, 
# crystal, experimental, refinement or atomic coordinate data resulting 
# from the CCDC's data processing and validation procedures.
#
#######################################################################

data_DOLBIR09
_chemical_formula_moiety         'C2 H5 N1 O2'
_chemical_name_systematic        glycine
_symmetry_cell_setting           trigonal
_symmetry_space_group_name_H-M   'P 31'
_symmetry_Int_Tables_number      144
_space_group_name_Hall           'P 31'
loop_
_symmetry_equiv_pos_site_id
_symmetry_equiv_pos_as_xyz
1 x,y,z
2 -y,x-y,1/3+z
3 -x+y,-x,2/3+z
_cell_length_a                   6.9824(7)
_cell_length_b                   6.9824(7)
_cell_length_c                   5.4749(6)
_cell_angle_alpha                90
_cell_angle_beta                 90
_cell_angle_gamma                120
_cell_volume                     231.162
_exptl_crystal_colour            colorless
_exptl_crystal_description       block
_cell_formula_units_Z            3
loop_
_atom_site_label
_atom_site_type_symbol
_atom_site_fract_x
_atom_site_fract_y
_atom_site_fract_z
O1 O -0.10060(18) 0.55355(18) 0.1323(2)
O2 O 0.2105(2) 0.88019(19) 0.10076(19)
N1 N -0.0892(2) 0.5488(2) 0.6221(2)
H1 H -0.0801 0.5713 0.7864
H2 H -0.0520 0.4445 0.5853
H3 H -0.2300 0.5018 0.5714
C1 C 0.0587(2) 0.7267(2) 0.2200(2)
C2 C 0.0643(2) 0.7584(3) 0.4970(2)
H4 H 0.2165 0.8126 0.5575
H5 H 0.0227 0.8713 0.5359
loop_
_geom_bond_atom_site_label_1
_geom_bond_atom_site_label_2
_geom_bond_site_symmetry_1
_geom_bond_site_symmetry_2
O1 C1 1_555 1_555
O2 C1 1_555 1_555
N1 H1 1_555 1_555
H2 N1 1_555 1_555
H3 N1 1_555 1_555
C1 C2 1_555 1_555
C2 N1 1_555 1_555
H4 C2 1_555 1_555
H5 C2 1_555 1_555

#END
