
#######################################################################
#
#                 Cambridge Crystallographic Data Centre
#                                CCDC 
#
#######################################################################
#
# If this CIF has been generated from an entry in the Cambridge 
# Structural Database, then it will include bibliographic, chemical, 
# crystal, experimental, refinement or atomic coordinate data resulting 
# from the CCDC's data processing and validation procedures.
#
#######################################################################

data_DOLCEN03
_chemical_formula_moiety         'C14 H9 N1 O2'
_chemical_name_systematic        2-phenyl-4H-3,1-benzoxazin-4-one
_symmetry_cell_setting           monoclinic
_symmetry_space_group_name_H-M   'P 21/n'
_symmetry_Int_Tables_number      14
_space_group_name_Hall           '-P 2yn'
loop_
_symmetry_equiv_pos_site_id
_symmetry_equiv_pos_as_xyz
1 x,y,z
2 1/2-x,1/2+y,1/2-z
3 -x,-y,-z
4 1/2+x,1/2-y,1/2+z
_cell_length_a                   13.3484(11)
_cell_length_b                   3.9068(3)
_cell_length_c                   20.5169(16)
_cell_angle_alpha                90
_cell_angle_beta                 94.9540(10)
_cell_angle_gamma                90
_cell_volume                     1065.95
_cell_formula_units_Z            4
loop_
_atom_site_label
_atom_site_type_symbol
_atom_site_fract_x
_atom_site_fract_y
_atom_site_fract_z
N1 N 0.9087(2) -0.0762(8) 0.77347(15)
O1 O 1.05777(19) 0.2021(7) 0.81301(13)
O2 O 1.0842(2) 0.4212(9) 0.91190(14)
C1 C 1.0276(3) 0.2603(12) 0.8747(2)
C2 C 0.9294(3) 0.1282(10) 0.88659(18)
C3 C 0.8721(3) -0.0354(9) 0.83522(19)
C4 C 0.7767(3) -0.1561(10) 0.84528(19)
H1 H 0.7373 -0.2609 0.8114
C5 C 0.7410(3) -0.1190(11) 0.9061(2)
H2 H 0.6771 -0.1992 0.9129
C6 C 0.7987(3) 0.0351(11) 0.9568(2)
H3 H 0.7739 0.0550 0.9976
C7 C 0.8924(3) 0.1595(11) 0.94741(19)
H4 H 0.9310 0.2643 0.9817
C8 C 0.9963(3) 0.0360(10) 0.76555(18)
C9 C 1.0436(3) 0.0047(10) 0.70394(18)
C10 C 1.1408(3) 0.1130(12) 0.6979(2)
H5 H 1.1783 0.2086 0.7337
C11 C 1.1827(4) 0.0792(13) 0.6382(2)
H6 H 1.2482 0.1517 0.6341
C12 C 1.1270(4) -0.0612(13) 0.5859(2)
H7 H 1.1550 -0.0830 0.5461
C13 C 1.0302(4) -0.1704(12) 0.5913(2)
H8 H 0.9929 -0.2646 0.5552
C14 C 0.9882(3) -0.1403(11) 0.65020(19)
H9 H 0.9230 -0.2168 0.6540
loop_
_geom_bond_atom_site_label_1
_geom_bond_atom_site_label_2
_geom_bond_site_symmetry_1
_geom_bond_site_symmetry_2
N1 C3 1_555 1_555
O1 C1 1_555 1_555
O2 C1 1_555 1_555
C1 C2 1_555 1_555
C2 C3 1_555 1_555
C3 C4 1_555 1_555
C4 H1 1_555 1_555
C5 C4 1_555 1_555
H2 C5 1_555 1_555
C6 C5 1_555 1_555
H3 C6 1_555 1_555
C7 C2 1_555 1_555
H4 C7 1_555 1_555
C8 N1 1_555 1_555
C9 C8 1_555 1_555
C10 C9 1_555 1_555
H5 C10 1_555 1_555
C11 C10 1_555 1_555
H6 C11 1_555 1_555
C12 C11 1_555 1_555
H7 C12 1_555 1_555
C13 C12 1_555 1_555
H8 C13 1_555 1_555
C14 C9 1_555 1_555
H9 C14 1_555 1_555
O1 C8 1_555 1_555
C6 C7 1_555 1_555
C13 C14 1_555 1_555

#END
