
#######################################################################
#
#                 Cambridge Crystallographic Data Centre
#                                CCDC 
#
#######################################################################
#
# If this CIF has been generated from an entry in the Cambridge 
# Structural Database, then it will include bibliographic, chemical, 
# crystal, experimental, refinement or atomic coordinate data resulting 
# from the CCDC's data processing and validation procedures.
#
#######################################################################

data_DOLCIS
_chemical_name_common            
"tetraethylammonium 25,27-(2,2'-[(5,10,10,15,20,20-hexamethyl-5,10,15,20,22,24-hexahydroporphyrin-5,15-diyl)bis(benzene-4,1-diyloxy)]diethanolate)-26,28-dihydroxycalix(4)arene  fluoride dichloromethane unknown solvate"
_chemical_formula_moiety         'C70 H68 N4 O6,F1 1-,C8 H20 N1 1+,3(C1 H2 Cl2)'
_chemical_name_systematic        
'tetraethylammonium 1,37,42,42,51,51-hexamethyl-6,9,29,32-tetraoxa-56,57,58,59-tetraazatridecacyclo[35.9.9.7^11,27^.2^2,5^.2^33,36^.1^17,21^.1^38,41^.1^43,46^.1^47,50^.1^52,55^.1^63,67^.0^10,15^.0^23,28^]doheptaconta-2,4,10,12,14,17(69),18,20,23,25,27,33,35,38,40,43,45,47,49,52,54,60,63(72),64,66,70-hexacosaene-69,72-diol fluoride dichloromethane unknown solvate'
_symmetry_cell_setting           monoclinic
_symmetry_space_group_name_H-M   'P 21/n'
_symmetry_Int_Tables_number      14
_space_group_name_Hall           '-P 2yn'
loop_
_symmetry_equiv_pos_site_id
_symmetry_equiv_pos_as_xyz
1 x,y,z
2 1/2-x,1/2+y,1/2-z
3 -x,-y,-z
4 1/2+x,1/2-y,1/2+z
_cell_length_a                   18.1082(15)
_cell_length_b                   20.262(2)
_cell_length_c                   21.408(3)
_cell_angle_alpha                90
_cell_angle_beta                 105.284(3)
_cell_angle_gamma                90
_cell_volume                     7576.96
_exptl_crystal_colour            colorless
_exptl_crystal_description       prisms
_cell_formula_units_Z            4
loop_
_atom_site_label
_atom_site_type_symbol
_atom_site_fract_x
_atom_site_fract_y
_atom_site_fract_z
C1 C 0.82240(13) 0.20396(13) 0.28394(12)
C2 C 0.87170(15) 0.15074(14) 0.29486(13)
H1 H 0.9065 0.1395 0.2702
C3 C 0.86119(15) 0.11581(14) 0.34944(13)
H2 H 0.8876 0.0770 0.3677
C4 C 0.80613(14) 0.14820(12) 0.37094(12)
C5 C 0.77137(14) 0.13394(13) 0.42728(13)
C6 C 0.79823(14) 0.18393(13) 0.48123(12)
C7 C 0.84284(16) 0.17775(14) 0.54353(13)
H3 H 0.8677 0.1386 0.5627
C8 C 0.84537(16) 0.23986(14) 0.57432(13)
H4 H 0.8723 0.2497 0.6177
C9 C 0.80208(14) 0.28339(13) 0.53046(12)
C10 C 0.77519(15) 0.35289(13) 0.53915(12)
C11 C 0.79515(13) 0.40337(12) 0.49355(11)
C12 C 0.83717(14) 0.46060(13) 0.50615(12)
H5 H 0.8668 0.4749 0.5474
C13 C 0.82863(14) 0.49444(13) 0.44687(12)
H6 H 0.8515 0.5355 0.4414
C14 C 0.78164(13) 0.45767(12) 0.39863(12)
C15 C 0.75101(13) 0.46972(12) 0.32633(12)
C16 C 0.78892(13) 0.42291(12) 0.28841(12)
C17 C 0.84144(14) 0.43395(14) 0.25344(13)
H7 H 0.8629 0.4754 0.2473
C18 C 0.85792(15) 0.37273(14) 0.22826(13)
H8 H 0.8924 0.3659 0.2023
C19 C 0.81522(13) 0.32487(13) 0.24799(11)
C20 C 0.80291(14) 0.25281(13) 0.22840(12)
C21 C 0.79770(17) 0.06448(14) 0.45437(15)
H9 H 0.8537 0.0634 0.4694
H10 H 0.7802 0.0315 0.4202
H11 H 0.7759 0.0546 0.4906
C22 C 0.81143(18) 0.37442(16) 0.60961(12)
H12 H 0.7961 0.3437 0.6392
H13 H 0.7939 0.4190 0.6163
H14 H 0.8673 0.3743 0.6181
C23 C 0.68647(16) 0.35230(15) 0.52680(14)
H15 H 0.6628 0.3394 0.4819
H16 H 0.6688 0.3965 0.5346
H17 H 0.6721 0.3207 0.5562
C24 C 0.76971(15) 0.54133(13) 0.31141(13)
H18 H 0.8254 0.5475 0.3231
H19 H 0.7469 0.5719 0.3365
H20 H 0.7488 0.5501 0.2651
C25 C 0.85216(18) 0.23693(16) 0.18140(14)
H21 H 0.9064 0.2427 0.2038
H22 H 0.8382 0.2668 0.1441
H23 H 0.8431 0.1912 0.1665
C26 C 0.71711(16) 0.24356(16) 0.19126(14)
H24 H 0.7088 0.1983 0.1747
H25 H 0.7036 0.2747 0.1550
H26 H 0.6849 0.2519 0.2207
C27 C 0.68304(14) 0.13330(12) 0.40417(12)
C28 C 0.64528(14) 0.11020(13) 0.34277(13)
H27 H 0.6746 0.0971 0.3141
C29 C 0.56549(14) 0.10574(13) 0.32216(13)
H28 H 0.5412 0.0899 0.2800
C30 C 0.52219(14) 0.12455(12) 0.36362(12)
C31 C 0.55892(15) 0.14831(14) 0.42521(13)
H29 H 0.5295 0.1617 0.4538
C32 C 0.63776(15) 0.15252(14) 0.44484(12)
H30 H 0.6618 0.1688 0.4869
C33 C 0.40348(14) 0.09946(13) 0.28659(13)
H31 H 0.4279 0.0591 0.2751
H32 H 0.4041 0.1339 0.2540
C34 C 0.32253(14) 0.08504(12) 0.28827(14)
H33 H 0.2967 0.0586 0.2498
H34 H 0.3229 0.0589 0.3274
C35 C 0.21650(14) 0.13655(12) 0.31263(12)
C36 C 0.22402(15) 0.14927(12) 0.37828(13)
C37 C 0.16140(17) 0.13400(14) 0.40217(15)
H35 H 0.1653 0.1399 0.4469
C38 C 0.09353(18) 0.11031(14) 0.36183(17)
H36 H 0.0520 0.0992 0.3792
C39 C 0.08658(16) 0.10299(13) 0.29642(16)
H37 H 0.0391 0.0890 0.2688
C40 C 0.14787(14) 0.11564(12) 0.27012(13)
C41 C 0.29543(16) 0.18084(13) 0.42126(13)
H38 H 0.3377 0.1771 0.4001
H39 H 0.3107 0.1567 0.4629
C42 C 0.28279(14) 0.25339(13) 0.43443(12)
C43 C 0.28321(13) 0.30162(13) 0.38770(11)
C44 C 0.27435(13) 0.36889(13) 0.40005(12)
C45 C 0.26362(14) 0.38645(13) 0.46021(12)
H40 H 0.2573 0.4317 0.4693
C46 C 0.26201(14) 0.33932(14) 0.50723(12)
H41 H 0.2542 0.3521 0.5477
C47 C 0.27195(14) 0.27331(14) 0.49394(12)
H42 H 0.2714 0.2410 0.5260
C48 C 0.27572(15) 0.42077(13) 0.34892(12)
H43 H 0.2810 0.4651 0.3690
H44 H 0.3206 0.4132 0.3316
C49 C 0.20290(14) 0.41824(12) 0.29369(12)
C50 C 0.20200(13) 0.39380(12) 0.23254(12)
C51 C 0.13395(14) 0.38300(12) 0.18500(12)
C52 C 0.06544(14) 0.40159(13) 0.19842(12)
H45 H 0.0184 0.3950 0.1666
C53 C 0.06512(14) 0.42955(13) 0.25749(13)
H46 H 0.0184 0.4437 0.2654
C54 C 0.13351(15) 0.43668(12) 0.30495(13)
H47 H 0.1330 0.4545 0.3459
C55 C 0.13110(16) 0.34635(14) 0.12174(13)
H48 H 0.1030 0.3733 0.0845
H49 H 0.1838 0.3396 0.1178
C56 C 0.09188(15) 0.28023(14) 0.12036(12)
C57 C 0.13033(14) 0.22807(13) 0.15802(12)
C58 C 0.09489(14) 0.16647(13) 0.15891(13)
C59 C 0.01971(15) 0.15897(15) 0.12120(14)
H50 H -0.0054 0.1179 0.1218
C60 C -0.01927(16) 0.20956(15) 0.08298(14)
H51 H -0.0701 0.2030 0.0571
C61 C 0.01655(15) 0.26992(15) 0.08279(13)
H52 H -0.0102 0.3049 0.0569
C62 C 0.13801(15) 0.10921(14) 0.19759(14)
H53 H 0.1892 0.1060 0.1893
H54 H 0.1102 0.0678 0.1822
C63 C 0.29813(14) 0.43142(13) 0.18515(13)
H55 H 0.2882 0.4745 0.2031
H56 H 0.2694 0.4301 0.1389
C64 C 0.38278(14) 0.42425(13) 0.19116(12)
H57 H 0.3954 0.3775 0.1851
H58 H 0.3974 0.4512 0.1578
C65 C 0.50154(13) 0.45117(12) 0.26725(12)
C66 C 0.54461(14) 0.43537(13) 0.22414(12)
H59 H 0.5199 0.4207 0.1816
C67 C 0.62407(14) 0.44121(13) 0.24361(12)
H60 H 0.6528 0.4305 0.2137
C68 C 0.66253(13) 0.46208(12) 0.30515(12)
C69 C 0.61855(14) 0.47907(12) 0.34733(13)
H61 H 0.6433 0.4947 0.3895
C70 C 0.53904(14) 0.47362(13) 0.32890(13)
H62 H 0.5103 0.4853 0.3585
N1 N 0.78334(11) 0.20177(10) 0.33148(10)
H63 H 0.7488 0.2307 0.3358
N2 N 0.77427(11) 0.24848(10) 0.47380(10)
H64 H 0.7451 0.2653 0.4378
N3 N 0.76213(11) 0.40212(10) 0.42762(9)
H65 H 0.7327 0.3702 0.4070
N4 N 0.77407(11) 0.35625(10) 0.28530(9)
H66 H 0.7427 0.3363 0.3044
O1 O 0.42316(9) 0.44624(9) 0.25443(8)
O2 O 0.44374(10) 0.12179(9) 0.34984(8)
O3 O 0.28092(9) 0.14587(8) 0.28890(8)
O4 O 0.27211(9) 0.37859(8) 0.21976(8)
O5 O 0.20476(9) 0.23812(9) 0.19203(9)
H67 H 0.2194 0.2066 0.2179
O6 O 0.29271(11) 0.28227(8) 0.32915(8)
H68 H 0.3057 0.3149 0.3103
C71 C 0.96266(16) 0.25244(15) 0.44985(14)
H69 H 0.9234 0.2654 0.4722
H70 H 0.9355 0.2381 0.4056
C72 C 1.00695(19) 0.19450(16) 0.48530(17)
H71 H 1.0506 0.1851 0.4677
H72 H 0.9735 0.1557 0.4798
H73 H 1.0256 0.2050 0.5315
C73 C 1.05953(15) 0.33345(15) 0.51149(13)
H74 H 1.0948 0.2967 0.5294
H75 H 1.0913 0.3718 0.5062
C74 C 1.01601(17) 0.35146(17) 0.56032(14)
H76 H 0.9839 0.3902 0.5450
H77 H 1.0523 0.3616 0.6020
H78 H 0.9836 0.3143 0.5657
C75 C 1.06729(14) 0.29866(14) 0.40457(13)
H79 H 1.0989 0.3385 0.4047
H80 H 1.1021 0.2630 0.4262
C76 C 1.03235(16) 0.27858(14) 0.33489(13)
H81 H 1.0024 0.2381 0.3338
H82 H 1.0732 0.2707 0.3135
H83 H 0.9989 0.3139 0.3123
C77 C 0.95492(15) 0.36728(14) 0.41409(14)
H84 H 0.9270 0.3531 0.3699
H85 H 0.9169 0.3724 0.4396
C78 C 0.99094(16) 0.43338(15) 0.40963(15)
H86 H 1.0093 0.4524 0.4531
H87 H 0.9529 0.4629 0.3824
H88 H 1.0341 0.4279 0.3905
N5 N 1.01104(12) 0.31312(11) 0.44481(11)
F1 F 0.69160(7) 0.29754(7) 0.35858(6)
Cl1 Cl 0.48070(9) 0.31251(8) 0.39411(8)
Cl2 Cl 0.45717(9) 0.26855(7) 0.26136(8)
C79 C 0.5255(3) 0.2926(2) 0.3328(2)
H89 H 0.5624 0.2562 0.3477
H90 H 0.5542 0.3314 0.3237
Cl3? Cl 0.45110(15) 0.28545(14) 0.31117(17)
Cl4? Cl 0.51979(15) 0.24836(17) 0.20855(14)
C80? C 0.5372(4) 0.2767(4) 0.2881(3)
H91? H 0.5637 0.3199 0.2920
H92? H 0.5712 0.2453 0.3176
Cl5? Cl 0.42468(7) 0.47320(8) 0.48512(7)
C81? C 0.4788(4) 0.5457(3) 0.5030(4)
H93? H 0.4661 0.5745 0.4642
H94? H 0.4668 0.5699 0.5393
loop_
_geom_bond_atom_site_label_1
_geom_bond_atom_site_label_2
_geom_bond_site_symmetry_1
_geom_bond_site_symmetry_2
C1 C2 1_555 1_555
C2 H1 1_555 1_555
C3 C2 1_555 1_555
H2 C3 1_555 1_555
C4 C3 1_555 1_555
C5 C4 1_555 1_555
C6 C5 1_555 1_555
C7 C6 1_555 1_555
H3 C7 1_555 1_555
C8 C7 1_555 1_555
H4 C8 1_555 1_555
C9 C8 1_555 1_555
C10 C9 1_555 1_555
C11 C10 1_555 1_555
C12 C11 1_555 1_555
H5 C12 1_555 1_555
C13 C12 1_555 1_555
H6 C13 1_555 1_555
C14 C13 1_555 1_555
C15 C14 1_555 1_555
C16 C15 1_555 1_555
C17 C16 1_555 1_555
H7 C17 1_555 1_555
C18 C17 1_555 1_555
H8 C18 1_555 1_555
C19 C18 1_555 1_555
C20 C1 1_555 1_555
C21 C5 1_555 1_555
H9 C21 1_555 1_555
H10 C21 1_555 1_555
H11 C21 1_555 1_555
C22 C10 1_555 1_555
H12 C22 1_555 1_555
H13 C22 1_555 1_555
H14 C22 1_555 1_555
C23 C10 1_555 1_555
H15 C23 1_555 1_555
H16 C23 1_555 1_555
H17 C23 1_555 1_555
C24 C15 1_555 1_555
H18 C24 1_555 1_555
H19 C24 1_555 1_555
H20 C24 1_555 1_555
C25 C20 1_555 1_555
H21 C25 1_555 1_555
H22 C25 1_555 1_555
H23 C25 1_555 1_555
C26 C20 1_555 1_555
H24 C26 1_555 1_555
H25 C26 1_555 1_555
H26 C26 1_555 1_555
C27 C5 1_555 1_555
C28 C27 1_555 1_555
H27 C28 1_555 1_555
C29 C28 1_555 1_555
H28 C29 1_555 1_555
C30 C29 1_555 1_555
C31 C30 1_555 1_555
H29 C31 1_555 1_555
C32 C27 1_555 1_555
H30 C32 1_555 1_555
C33 H31 1_555 1_555
H32 C33 1_555 1_555
C34 C33 1_555 1_555
H33 C34 1_555 1_555
H34 C34 1_555 1_555
C35 C36 1_555 1_555
C36 C37 1_555 1_555
C37 H35 1_555 1_555
C38 C37 1_555 1_555
H36 C38 1_555 1_555
C39 C38 1_555 1_555
H37 C39 1_555 1_555
C40 C35 1_555 1_555
C41 C36 1_555 1_555
H38 C41 1_555 1_555
H39 C41 1_555 1_555
C42 C41 1_555 1_555
C43 C42 1_555 1_555
C44 C43 1_555 1_555
C45 C44 1_555 1_555
H40 C45 1_555 1_555
C46 C45 1_555 1_555
H41 C46 1_555 1_555
C47 C42 1_555 1_555
H42 C47 1_555 1_555
C48 C44 1_555 1_555
H43 C48 1_555 1_555
H44 C48 1_555 1_555
C49 C48 1_555 1_555
C50 C49 1_555 1_555
C51 C50 1_555 1_555
C52 C51 1_555 1_555
H45 C52 1_555 1_555
C53 C52 1_555 1_555
H46 C53 1_555 1_555
C54 C49 1_555 1_555
H47 C54 1_555 1_555
C55 C51 1_555 1_555
H48 C55 1_555 1_555
H49 C55 1_555 1_555
C56 C55 1_555 1_555
C57 C56 1_555 1_555
C58 C57 1_555 1_555
C59 C58 1_555 1_555
H50 C59 1_555 1_555
C60 C59 1_555 1_555
H51 C60 1_555 1_555
C61 C56 1_555 1_555
H52 C61 1_555 1_555
C62 C40 1_555 1_555
H53 C62 1_555 1_555
H54 C62 1_555 1_555
C63 H55 1_555 1_555
H56 C63 1_555 1_555
C64 C63 1_555 1_555
H57 C64 1_555 1_555
H58 C64 1_555 1_555
C65 C66 1_555 1_555
C66 H59 1_555 1_555
C67 C66 1_555 1_555
H60 C67 1_555 1_555
C68 C15 1_555 1_555
C69 C68 1_555 1_555
H61 C69 1_555 1_555
C70 C65 1_555 1_555
H62 C70 1_555 1_555
N1 C1 1_555 1_555
H63 N1 1_555 1_555
N2 C6 1_555 1_555
H64 N2 1_555 1_555
N3 C11 1_555 1_555
H65 N3 1_555 1_555
N4 C16 1_555 1_555
H66 N4 1_555 1_555
O1 C64 1_555 1_555
O2 C30 1_555 1_555
O3 C34 1_555 1_555
O4 C50 1_555 1_555
O5 C57 1_555 1_555
H67 O5 1_555 1_555
O6 C43 1_555 1_555
H68 O6 1_555 1_555
C71 H69 1_555 1_555
H70 C71 1_555 1_555
C72 C71 1_555 1_555
H71 C72 1_555 1_555
H72 C72 1_555 1_555
H73 C72 1_555 1_555
C73 H74 1_555 1_555
H75 C73 1_555 1_555
C74 C73 1_555 1_555
H76 C74 1_555 1_555
H77 C74 1_555 1_555
H78 C74 1_555 1_555
C75 H79 1_555 1_555
H80 C75 1_555 1_555
C76 C75 1_555 1_555
H81 C76 1_555 1_555
H82 C76 1_555 1_555
H83 C76 1_555 1_555
C77 H84 1_555 1_555
H85 C77 1_555 1_555
C78 C77 1_555 1_555
H86 C78 1_555 1_555
H87 C78 1_555 1_555
H88 C78 1_555 1_555
N5 C71 1_555 1_555
Cl1 C79 1_555 1_555
Cl2 C79 1_555 1_555
C79 H89 1_555 1_555
H90 C79 1_555 1_555
C4 N1 1_555 1_555
C9 N2 1_555 1_555
C14 N3 1_555 1_555
C19 C20 1_555 1_555
C19 N4 1_555 1_555
C31 C32 1_555 1_555
C33 O2 1_555 1_555
C35 O3 1_555 1_555
C39 C40 1_555 1_555
C46 C47 1_555 1_555
C53 C54 1_555 1_555
C58 C62 1_555 1_555
C60 C61 1_555 1_555
C63 O4 1_555 1_555
C65 O1 1_555 1_555
C67 C68 1_555 1_555
C69 C70 1_555 1_555
C73 N5 1_555 1_555
C75 N5 1_555 1_555
C77 N5 1_555 1_555

#END
