
#######################################################################
#
#                 Cambridge Crystallographic Data Centre
#                                CCDC 
#
#######################################################################
#
# If this CIF has been generated from an entry in the Cambridge 
# Structural Database, then it will include bibliographic, chemical, 
# crystal, experimental, refinement or atomic coordinate data resulting 
# from the CCDC's data processing and validation procedures.
#
#######################################################################

data_DOLCAK
_chemical_name_common            
"25,27-(2,2'-[(5,10,10,15,20,20-hexamethyl-5,10,15,20,22,24-hexahydroporphyrin-5,15-diyl)bis(benzene-4,1-diyloxy)]diethanolate)-26,28-dihydroxycalix(4)arene acetate solvate"
_chemical_formula_moiety         'C70 H68 N4 O6,3(C4 H8 O2)'
_chemical_name_systematic        
'1,37,42,42,51,51-hexamethyl-6,9,29,32-tetraoxa-56,57,58,59-tetraazatridecacyclo[35.9.9.7^11,27^.2^2,5^.2^33,36^.1^17,21^.1^38,41^.1^43,46^.1^47,50^.1^52,55^.1^63,67^.0^10,15^.0^23,28^]doheptaconta-2,4,10,12,14,17(69),18,20,23,25,27,33,35,38,40,43,45,47,49,52,54,60,63(72),64,66,70-hexacosaene-69,72-diol ethyl acetate solvate'
_symmetry_cell_setting           triclinic
_symmetry_space_group_name_H-M   'P -1'
_symmetry_Int_Tables_number      2
_space_group_name_Hall           '-P 1'
loop_
_symmetry_equiv_pos_site_id
_symmetry_equiv_pos_as_xyz
1 x,y,z
2 -x,-y,-z
_cell_length_a                   16.284(3)
_cell_length_b                   21.681(4)
_cell_length_c                   24.254(5)
_cell_angle_alpha                65.823(4)
_cell_angle_beta                 87.933(5)
_cell_angle_gamma                77.172(5)
_cell_volume                     7602.38
_exptl_crystal_colour            colorless
_exptl_crystal_description       prism
_cell_formula_units_Z            4
loop_
_atom_site_label
_atom_site_type_symbol
_atom_site_fract_x
_atom_site_fract_y
_atom_site_fract_z
O1 O 0.76971(15) 0.16975(13) 0.31488(11)
O2 O 0.61305(15) 0.24597(12) 0.23599(10)
O3 O 0.55802(16) 0.50288(12) 0.16737(11)
O4 O 0.68922(15) 0.53978(13) 0.22422(11)
O5 O 0.48318(16) 0.37547(13) 0.19910(12)
H1 H 0.5148 0.3360 0.2077
O6 O 0.66254(17) 0.38530(13) 0.15973(12)
H2 H 0.6387 0.4239 0.1597
N1 N 1.03376(18) 0.19529(14) 0.53227(13)
H3 H 1.0476 0.2301 0.5018
N2 N 1.09490(18) 0.22799(15) 0.40007(14)
H4 H 1.0426 0.2528 0.3923
N3 N 1.04741(18) 0.39491(15) 0.36904(14)
H5 H 1.0086 0.3725 0.3690
N4 N 0.99121(18) 0.36152(14) 0.50079(13)
H6 H 1.0357 0.3452 0.4850
C1 C 1.0107(2) 0.19666(17) 0.58695(15)
C2 C 0.9948(2) 0.13245(18) 0.62261(17)
H7 H 0.9787 0.1174 0.6632
C3 C 1.0072(2) 0.09268(18) 0.58674(18)
H8 H 0.9992 0.0469 0.5993
C4 C 1.0325(2) 0.13209(17) 0.53135(16)
C5 C 1.0546(2) 0.11712(18) 0.47511(16)
C6 C 1.1187(2) 0.15836(18) 0.43967(16)
C7 C 1.2046(2) 0.1397(2) 0.43995(19)
H9 H 1.2389 0.0951 0.4632
C8 C 1.2340(2) 0.1984(2) 0.39958(19)
H10 H 1.2912 0.1999 0.3913
C9 C 1.1648(2) 0.25297(19) 0.37453(17)
C10 C 1.1585(2) 0.3269(2) 0.32628(18)
C11 C 1.1282(2) 0.38094(19) 0.35108(17)
C12 C 1.1685(3) 0.4271(3) 0.3584(2)
H11 H 1.2251 0.4303 0.3496
C13 C 1.1106(3) 0.4691(2) 0.3816(2)
H12 H 1.1219 0.5046 0.3915
C14 C 1.0354(2) 0.44890(17) 0.38723(15)
C15 C 0.9503(2) 0.47574(17) 0.40668(15)
C16 C 0.9367(2) 0.42506(16) 0.47139(15)
C17 C 0.8765(2) 0.43121(18) 0.51098(16)
H13 H 0.8304 0.4698 0.5034
C18 C 0.8952(2) 0.36929(18) 0.56572(16)
H14 H 0.8636 0.3595 0.6008
C19 C 0.9666(2) 0.32658(17) 0.55873(15)
C20 C 1.0173(2) 0.25666(17) 0.60346(16)
C21 C 1.0958(2) 0.03850(18) 0.49802(19)
H15 H 1.1083 0.0266 0.4633
H16 H 1.0568 0.0115 0.5231
H17 H 1.1482 0.0277 0.5221
C22 C 1.2467(3) 0.3335(2) 0.3020(2)
H18 H 1.2432 0.3805 0.2707
H19 H 1.2664 0.2996 0.2846
H20 H 1.2863 0.3246 0.3353
C23 C 1.0982(3) 0.3409(2) 0.2726(2)
H21 H 1.0413 0.3385 0.2864
H22 H 1.1181 0.3059 0.2564
H23 H 1.0971 0.3872 0.2407
C24 C 0.9499(2) 0.54691(17) 0.40850(17)
H24 H 0.9962 0.5410 0.4362
H25 H 0.8960 0.5639 0.4227
H26 H 0.9571 0.5805 0.3678
C25 C 1.1116(2) 0.2589(2) 0.60493(18)
H27 H 1.1325 0.2689 0.5645
H28 H 1.1442 0.2139 0.6337
H29 H 1.1177 0.2953 0.6175
C26 C 0.9855(3) 0.2420(2) 0.66771(17)
H30 H 0.9911 0.2794 0.6791
H31 H 1.0192 0.1977 0.6968
H32 H 0.9261 0.2396 0.6678
C27 C 0.9752(2) 0.13286(17) 0.43390(16)
C28 C 0.9851(2) 0.13748(19) 0.37433(17)
H33 H 1.0401 0.1328 0.3598
C29 C 0.9158(2) 0.14883(19) 0.33634(17)
H34 H 0.9240 0.1512 0.2966
C30 C 0.8344(2) 0.15672(17) 0.35659(15)
C31 C 0.8233(2) 0.15148(17) 0.41539(16)
H35 H 0.7683 0.1562 0.4299
C32 C 0.8941(2) 0.13914(17) 0.45318(16)
H36 H 0.8859 0.1350 0.4934
C33 C 0.6854(2) 0.17249(19) 0.33478(16)
H37 H 0.6657 0.2137 0.3439
H38 H 0.6840 0.1305 0.3720
C34 C 0.6288(2) 0.17652(18) 0.28485(16)
H39 H 0.6560 0.1419 0.2691
H40 H 0.5746 0.1656 0.3011
C35 C 0.5968(2) 0.24672(17) 0.17907(16)
C36 C 0.6607(2) 0.25510(18) 0.13757(16)
C37 C 0.6421(3) 0.25886(19) 0.08022(17)
H41 H 0.6836 0.2660 0.0511
C38 C 0.5637(3) 0.2523(2) 0.06525(18)
H42 H 0.5533 0.2519 0.0271
C39 C 0.5001(3) 0.24616(18) 0.10655(17)
H43 H 0.4461 0.2432 0.0957
C40 C 0.5156(2) 0.24436(17) 0.16366(17)
C41 C 0.7465(2) 0.26441(19) 0.15257(18)
H44 H 0.7485 0.2603 0.1947
H45 H 0.7915 0.2268 0.1500
C42 C 0.7633(2) 0.33457(19) 0.10982(17)
C43 C 0.7185(2) 0.39506(19) 0.11459(16)
C44 C 0.7297(2) 0.46173(19) 0.07448(17)
C45 C 0.7894(3) 0.4644(2) 0.03114(18)
H46 H 0.7988 0.5083 0.0044
C46 C 0.8353(3) 0.4054(2) 0.02592(19)
H47 H 0.8758 0.4086 -0.0037
C47 C 0.8207(2) 0.3402(2) 0.06556(18)
H48 H 0.8509 0.2995 0.0617
C48 C 0.6793(2) 0.52819(19) 0.07770(18)
H49 H 0.7023 0.5677 0.0497
H50 H 0.6871 0.5248 0.1192
C49 C 0.5852(2) 0.54330(18) 0.06159(16)
C50 C 0.5271(2) 0.52725(17) 0.10645(16)
C51 C 0.4418(2) 0.53331(18) 0.09440(17)
C52 C 0.4138(2) 0.5617(2) 0.03278(18)
H51 H 0.3560 0.5675 0.0224
C53 C 0.4692(3) 0.5815(2) -0.01328(19)
H52 H 0.4483 0.6022 -0.0544
C54 C 0.5542(3) 0.57110(19) 0.00064(17)
H53 H 0.5919 0.5827 -0.0309
C55 C 0.3821(2) 0.5086(2) 0.14508(17)
H54 H 0.3321 0.5470 0.1387
H55 H 0.4112 0.4971 0.1844
C56 C 0.3527(2) 0.44487(19) 0.14798(16)
C57 C 0.4061(2) 0.37855(19) 0.17463(15)
C58 C 0.3822(2) 0.31894(19) 0.17687(17)
C59 C 0.3024(2) 0.3272(2) 0.15217(19)
H56 H 0.2851 0.2876 0.1534
C60 C 0.2472(3) 0.3925(2) 0.1257(2)
H57 H 0.1932 0.3975 0.1086
C61 C 0.2732(2) 0.4508(2) 0.12467(19)
H58 H 0.2355 0.4951 0.1077
C62 C 0.4420(2) 0.24768(19) 0.20379(17)
H59 H 0.4112 0.2117 0.2077
H60 H 0.4638 0.2382 0.2447
C63 C 0.5483(2) 0.55856(19) 0.18689(17)
H61 H 0.4889 0.5719 0.1959
H62 H 0.5629 0.5996 0.1542
C64 C 0.6051(2) 0.5352(2) 0.24262(17)
H63 H 0.5854 0.5651 0.2644
H64 H 0.6043 0.4868 0.2701
C65 C 0.7496(2) 0.52255(17) 0.27035(15)
C66 C 0.7345(2) 0.49568(17) 0.33124(15)
H65 H 0.6800 0.4885 0.3434
C67 C 0.7988(2) 0.47899(17) 0.37510(15)
H66 H 0.7869 0.4608 0.4166
C68 C 0.8796(2) 0.48819(16) 0.35969(16)
C69 C 0.8936(2) 0.51576(18) 0.29747(16)
H67 H 0.9479 0.5232 0.2853
C70 C 0.8296(2) 0.53263(19) 0.25282(17)
H68 H 0.8409 0.5507 0.2112
O7 O 0.5537(2) 0.8162(2) 0.3575(2)
O8 O 0.6859(3) 0.7820(2) 0.4007(2)
C71 C 0.6660(4) 0.8552(4) 0.2958(3)
H69 H 0.6780 0.8269 0.2724
H70 H 0.7184 0.8655 0.3047
H71 H 0.6256 0.8988 0.2722
C72 C 0.6292(4) 0.8162(3) 0.3542(3)
C73 C 0.6541(4) 0.7441(3) 0.4592(3)
H72 H 0.6301 0.7067 0.4575
H73 H 0.6092 0.7759 0.4696
C74 C 0.7265(5) 0.7137(4) 0.5060(3)
H74 H 0.7688 0.6798 0.4969
H75 H 0.7060 0.6905 0.5461
H76 H 0.7520 0.7507 0.5056
O11 O 0.4249(4) 0.7160(4) 0.1782(3)
O12 O 0.3001(4) 0.6880(4) 0.1846(3)
C79 C 0.3445(7) 0.7396(6) 0.0878(4)
H85 H 0.3650 0.7820 0.0662
H86 H 0.2838 0.7491 0.0782
H87 H 0.3742 0.7034 0.0752
C80 C 0.3604(6) 0.7157(4) 0.1538(4)
C81 C 0.3131(7) 0.6567(6) 0.2518(4)
H88 H 0.3690 0.6241 0.2645
H89 H 0.3111 0.6935 0.2663
C82 C 0.2458(8) 0.6193(6) 0.2780(4)
H90 H 0.1907 0.6518 0.2649
H91 H 0.2531 0.5991 0.3223
H92 H 0.2491 0.5823 0.2642
O13 O 0.75865(16) 0.72437(13) 0.22248(11)
O14 O 0.88484(16) 0.81217(12) 0.16697(11)
O15 O 0.83918(15) 1.00462(12) 0.23923(11)
O16 O 0.69490(15) 1.00597(13) 0.31619(11)
O17 O 0.77192(19) 0.93379(14) 0.16144(13)
H93 H 0.7951 0.8954 0.1609
O18 O 0.96404(15) 0.90951(12) 0.20398(12)
H94 H 0.9341 0.9402 0.2134
N5 N 0.43125(18) 0.72582(15) 0.37179(13)
H95 H 0.4698 0.7504 0.3645
N6 N 0.38700(18) 0.86193(15) 0.40770(13)
H96 H 0.4376 0.8433 0.4004
N7 N 0.47196(19) 0.77162(14) 0.53635(13)
H97 H 0.4511 0.7658 0.5063
N8 N 0.51267(18) 0.63449(14) 0.50464(12)
H98 H 0.4643 0.6643 0.4895
C83 C 0.4484(2) 0.65353(17) 0.39380(15)
C84 C 0.3715(3) 0.6357(2) 0.4001(2)
H99 H 0.3625 0.5900 0.4146
C85 C 0.3083(3) 0.6980(2) 0.3810(2)
H100 H 0.2492 0.7011 0.3806
C86 C 0.3462(2) 0.75297(19) 0.36306(16)
C87 C 0.3089(2) 0.83150(19) 0.33609(17)
C88 C 0.3118(2) 0.86135(18) 0.38262(17)
C89 C 0.2482(2) 0.8934(2) 0.40714(18)
H101 H 0.1895 0.8999 0.3993
C90 C 0.2852(2) 0.91538(19) 0.44639(18)
H102 H 0.2553 0.9392 0.4689
C91 C 0.3710(2) 0.89619(17) 0.44602(17)
C92 C 0.4420(2) 0.90388(17) 0.48014(17)
C93 C 0.4750(2) 0.83564(17) 0.53542(16)
C94 C 0.5121(2) 0.82187(19) 0.59091(17)
H103 H 0.5227 0.8554 0.6038
C95 C 0.5319(2) 0.74813(19) 0.62545(17)
H104 H 0.5581 0.7242 0.6652
C96 C 0.5062(2) 0.71838(17) 0.59100(15)
C97 C 0.5025(2) 0.64268(17) 0.60702(15)
C98 C 0.5481(2) 0.61538(17) 0.56220(15)
C99 C 0.6227(2) 0.56810(17) 0.56856(15)
H105 H 0.6609 0.5456 0.6033
C100 C 0.6324(2) 0.55875(17) 0.51376(15)
H106 H 0.6787 0.5288 0.5057
C101 C 0.5640(2) 0.60009(16) 0.47432(15)
C102 C 0.5373(2) 0.60978(17) 0.41086(15)
C103 C 0.5391(2) 0.53700(18) 0.41285(16)
H107 H 0.4994 0.5156 0.4418
H108 H 0.5961 0.5077 0.4254
H109 H 0.5228 0.5418 0.3725
C104 C 0.4091(2) 0.63895(19) 0.60666(18)
H110 H 0.3803 0.6727 0.5677
H111 H 0.3820 0.6496 0.6395
H112 H 0.4055 0.5921 0.6126
C105 C 0.5453(3) 0.59614(19) 0.67074(16)
H113 H 0.5463 0.5475 0.6801
H114 H 0.5135 0.6096 0.7007
H115 H 0.6032 0.6018 0.6719
C106 C 0.4063(2) 0.96088(18) 0.50380(18)
H116 H 0.3869 1.0057 0.4693
H117 H 0.4507 0.9641 0.5281
H118 H 0.3589 0.9487 0.5288
C107 C 0.2158(2) 0.8442(2) 0.3150(2)
H119 H 0.1843 0.8213 0.3498
H120 H 0.2131 0.8251 0.2850
H121 H 0.1908 0.8942 0.2968
C108 C 0.3571(3) 0.8687(2) 0.28018(19)
H122 H 0.3290 0.9180 0.2607
H123 H 0.3573 0.8476 0.2513
H124 H 0.4153 0.8639 0.2932
C109 C 0.5981(2) 0.64356(16) 0.36182(14)
C110 C 0.6817(2) 0.63933(17) 0.37571(15)
H125 H 0.7021 0.6185 0.4170
C111 C 0.7372(2) 0.66504(17) 0.33030(16)
H126 H 0.7943 0.6609 0.3412
C112 C 0.7089(2) 0.69631(17) 0.26987(15)
C113 C 0.6251(2) 0.70174(19) 0.25437(16)
H127 H 0.6050 0.7235 0.2130
C114 C 0.5707(2) 0.67526(18) 0.29955(16)
H128 H 0.5141 0.6786 0.2883
C115 C 0.8475(2) 0.70836(19) 0.23847(17)
H129 H 0.8693 0.6574 0.2581
H130 H 0.8573 0.7281 0.2673
C116 C 0.8926(3) 0.73939(18) 0.18096(18)
H131 H 0.9528 0.7150 0.1870
H132 H 0.8668 0.7343 0.1471
C117 C 0.9093(2) 0.84975(18) 0.10783(16)
C118 C 0.9926(2) 0.85753(19) 0.10022(17)
C119 C 1.0124(3) 0.8991(2) 0.04147(18)
H133 H 1.0683 0.9055 0.0347
C120 C 0.9523(3) 0.9306(2) -0.00639(19)
H134 H 0.9673 0.9580 -0.0456
C121 C 0.8696(3) 0.9223(2) 0.00274(18)
H135 H 0.8286 0.9442 -0.0304
C122 C 0.8463(3) 0.88163(19) 0.06085(17)
C123 C 0.7540(3) 0.8779(2) 0.07153(19)
H136 H 0.7314 0.8665 0.0404
H137 H 0.7506 0.8404 0.1117
C124 C 0.7006(3) 0.9460(2) 0.06893(18)
C125 C 0.7149(2) 0.9708(2) 0.11281(18)
C126 C 0.6702(2) 1.0361(2) 0.10798(18)
C127 C 0.6078(3) 1.0751(2) 0.0612(2)
H138 H 0.5764 1.1190 0.0582
C128 C 0.5908(3) 1.0511(3) 0.0190(2)
H139 H 0.5473 1.0776 -0.0121
C129 C 0.6383(3) 0.9875(2) 0.0229(2)
H140 H 0.6279 0.9718 -0.0069
C130 C 0.6946(2) 1.0634(2) 0.15297(19)
H141 H 0.6505 1.1041 0.1507
H142 H 0.6987 1.0269 0.1947
C131 C 0.7790(2) 1.08397(18) 0.13836(17)
C132 C 0.8479(2) 1.05556(17) 0.18140(16)
C133 C 0.9278(2) 1.07181(18) 0.16738(17)
C134 C 0.9357(3) 1.1219(2) 0.10950(18)
H143 H 0.9877 1.1358 0.0997
C135 C 0.8687(3) 1.1512(2) 0.06650(19)
H144 H 0.8749 1.1850 0.0274
C136 C 0.7919(3) 1.1312(2) 0.08030(19)
H145 H 0.7475 1.1501 0.0497
C137 C 1.0056(2) 1.0322(2) 0.21031(17)
H146 H 0.9881 1.0051 0.2510
H147 H 1.0356 1.0656 0.2138
C138 C 1.0652(2) 0.98344(19) 0.18845(16)
C139 C 1.0399(2) 0.92694(18) 0.18496(16)
C140 C 1.0916(2) 0.88369(19) 0.16131(17)
C141 C 1.1711(3) 0.8973(2) 0.14293(19)
H148 H 1.2074 0.8684 0.1272
C142 C 1.1977(3) 0.9516(2) 0.14713(19)
H149 H 1.2520 0.9593 0.1352
C143 C 1.1445(2) 0.9947(2) 0.16890(18)
H150 H 1.1622 1.0328 0.1706
C144 C 1.0592(2) 0.8272(2) 0.15307(18)
H151 H 1.0344 0.8003 0.1908
H152 H 1.1071 0.7950 0.1456
C145 C 0.8293(2) 1.03040(19) 0.28627(16)
H153 H 0.7977 1.0795 0.2691
H154 H 0.8855 1.0281 0.3023
C146 C 0.7823(2) 0.9873(2) 0.33682(17)
H155 H 0.8057 0.9373 0.3476
H156 H 0.7881 0.9964 0.3732
C147 C 0.6384(2) 0.97887(17) 0.35845(16)
C148 C 0.5533(2) 1.00357(18) 0.33826(17)
H157 H 0.5374 1.0373 0.2980
C149 C 0.4916(2) 0.97868(19) 0.37724(18)
H158 H 0.4339 0.9963 0.3631
C150 C 0.5126(2) 0.92804(17) 0.43707(16)
C151 C 0.5980(2) 0.90460(17) 0.45643(16)
H159 H 0.6140 0.8712 0.4967
C152 C 0.6611(2) 0.92935(17) 0.41764(16)
H160 H 0.7188 0.9124 0.4318
O19 O 0.4136(6) 1.0873(5) 0.1903(4)
O20 O 0.4102(7) 1.0296(4) 0.1334(4)
C153 C 0.3190(10) 1.1403(7) 0.1049(7)
H161 H 0.2686 1.1250 0.0999
H162 H 0.3442 1.1587 0.0658
H163 H 0.3032 1.1767 0.1200
C154 C 0.3755(9) 1.0860(6) 0.1449(6)
C155 C 0.4789(9) 0.9755(6) 0.1763(6)
H164 H 0.4614 0.9572 0.2184
H165 H 0.5311 0.9923 0.1748
C156 C 0.4888(11) 0.9190(6) 0.1468(7)
H166 H 0.4348 0.9060 0.1470
H167 H 0.5321 0.8776 0.1707
H168 H 0.5054 0.9394 0.1051
O23 O 0.9215(3) 0.3222(3) 0.3462(3)
O24 O 0.7976(6) 0.3156(4) 0.3907(3)
C161 C 0.7978(8) 0.3421(6) 0.2868(5)
H177 H 0.8317 0.3609 0.2522
H178 H 0.7453 0.3766 0.2828
H179 H 0.7844 0.2998 0.2878
C162 C 0.8470(6) 0.3253(4) 0.3447(5)
C163 C 0.8431(6) 0.2994(5) 0.4484(5)
H180 H 0.8649 0.3396 0.4458
H181 H 0.8913 0.2590 0.4576
C164 C 0.7816(8) 0.2833(6) 0.4965(5)
H182 H 0.7355 0.3243 0.4878
H183 H 0.8102 0.2702 0.5359
H184 H 0.7587 0.2447 0.4975
O29 O 0.2492(9) 1.1584(8) 0.2151(8)
O30 O 0.1151(6) 1.1631(6) 0.2371(5)
C173 C 0.2236(12) 1.0825(9) 0.3104(6)
H201 H 0.2100 1.0396 0.3130
H202 H 0.1949 1.0957 0.3415
H203 H 0.2847 1.0750 0.3169
C174 C 0.1980(7) 1.1329(5) 0.2559(5)
C175 C 0.1051(10) 1.2234(11) 0.1752(8)
H204 H 0.1199 1.2085 0.1419
H205 H 0.1356 1.2590 0.1730
C176 C 0.0027(7) 1.2468(6) 0.1797(6)
H206 H -0.0252 1.2144 0.1733
H207 H -0.0189 1.2938 0.1487
H208 H -0.0087 1.2462 0.2199
O9? O 0.5556(4) 0.7784(4) 0.4159(4)
O10? O 0.6783(4) 0.7981(4) 0.3777(3)
C75? C 0.6830(8) 0.7315(7) 0.4831(4)
H77? H 0.6456 0.7261 0.5165
H78? H 0.7245 0.7570 0.4856
H79? H 0.7124 0.6856 0.4858
C76? C 0.6319(5) 0.7711(6) 0.4239(4)
C77? C 0.6324(6) 0.8370(6) 0.3181(4)
H80? H 0.5865 0.8750 0.3191
H81? H 0.6071 0.8059 0.3069
C78? C 0.6937(8) 0.8664(7) 0.2726(5)
H82? H 0.7086 0.9048 0.2784
H83? H 0.6679 0.8834 0.2316
H84? H 0.7447 0.8301 0.2780
O21? O 0.5020(9) 0.9750(7) 0.2150(6)
O22? O 0.4105(11) 1.0173(7) 0.1368(7)
C157? C 0.5078(16) 0.9091(8) 0.1591(10)
H169? H 0.5560 0.8798 0.1878
H170? H 0.5259 0.9222 0.1176
H171? H 0.4634 0.8835 0.1648
C158? C 0.4780(14) 0.9664(8) 0.1687(8)
C159? C 0.3919(13) 1.0806(9) 0.1505(11)
H172? H 0.4392 1.1043 0.1423
H173? H 0.3745 1.0705 0.1922
C160? C 0.3128(15) 1.1225(11) 0.0993(13)
H174? H 0.3341 1.1485 0.0603
H175? H 0.2729 1.1548 0.1118
H176? H 0.2840 1.0892 0.0952
O25? O 0.9292(3) 0.3038(3) 0.4141(2)
O26? O 0.8029(6) 0.3223(5) 0.3705(4)
C165? C 0.8113(7) 0.2898(6) 0.4758(5)
H185? H 0.8529 0.2614 0.5099
H186? H 0.7683 0.2643 0.4765
H187? H 0.7846 0.3333 0.4790
C166? C 0.8535(6) 0.3052(4) 0.4190(4)
C167? C 0.8416(6) 0.3377(4) 0.3131(5)
H188? H 0.8865 0.2974 0.3154
H189? H 0.8672 0.3781 0.3028
C168? C 0.7751(8) 0.3531(6) 0.2667(5)
H190? H 0.7479 0.3138 0.2786
H191? H 0.8001 0.3608 0.2278
H192? H 0.7329 0.3948 0.2630
O27? O 0.1366(7) 1.1731(6) 0.1628(5)
O28? O 0.1199(9) 1.1815(7) 0.2501(5)
C169? C 0.0252(12) 1.2603(10) 0.1662(10)
H193? H 0.0440 1.3041 0.1497
H194? H -0.0145 1.2605 0.1974
H195? H -0.0026 1.2553 0.1336
C170? C 0.0917(6) 1.2068(5) 0.1911(5)
C171? C 0.2131(11) 1.1519(9) 0.2655(12)
H196? H 0.2351 1.1647 0.2960
H197? H 0.2468 1.1640 0.2294
C172? C 0.2047(14) 1.0712(7) 0.2934(9)
H198? H 0.1779 1.0602 0.3321
H199? H 0.2610 1.0405 0.2999
H200? H 0.1703 1.0644 0.2650
loop_
_geom_bond_atom_site_label_1
_geom_bond_atom_site_label_2
_geom_bond_site_symmetry_1
_geom_bond_site_symmetry_2
O1 C30 1_555 1_555
O2 C34 1_555 1_555
O3 C50 1_555 1_555
O4 C64 1_555 1_555
O5 H1 1_555 1_555
O6 H2 1_555 1_555
N1 H3 1_555 1_555
N2 H4 1_555 1_555
N3 H5 1_555 1_555
N4 H6 1_555 1_555
C1 N1 1_555 1_555
C2 C1 1_555 1_555
H7 C2 1_555 1_555
C3 C2 1_555 1_555
H8 C3 1_555 1_555
C4 N1 1_555 1_555
C5 C4 1_555 1_555
C6 N2 1_555 1_555
C7 C6 1_555 1_555
H9 C7 1_555 1_555
C8 C7 1_555 1_555
H10 C8 1_555 1_555
C9 N2 1_555 1_555
C10 C9 1_555 1_555
C11 N3 1_555 1_555
C12 C11 1_555 1_555
H11 C12 1_555 1_555
C13 C12 1_555 1_555
H12 C13 1_555 1_555
C14 N3 1_555 1_555
C15 C14 1_555 1_555
C16 N4 1_555 1_555
C17 C16 1_555 1_555
H13 C17 1_555 1_555
C18 C17 1_555 1_555
H14 C18 1_555 1_555
C19 N4 1_555 1_555
C20 C1 1_555 1_555
C21 C5 1_555 1_555
H15 C21 1_555 1_555
H16 C21 1_555 1_555
H17 C21 1_555 1_555
C22 C10 1_555 1_555
H18 C22 1_555 1_555
H19 C22 1_555 1_555
H20 C22 1_555 1_555
C23 C10 1_555 1_555
H21 C23 1_555 1_555
H22 C23 1_555 1_555
H23 C23 1_555 1_555
C24 C15 1_555 1_555
H24 C24 1_555 1_555
H25 C24 1_555 1_555
H26 C24 1_555 1_555
C25 C20 1_555 1_555
H27 C25 1_555 1_555
H28 C25 1_555 1_555
H29 C25 1_555 1_555
C26 C20 1_555 1_555
H30 C26 1_555 1_555
H31 C26 1_555 1_555
H32 C26 1_555 1_555
C27 C5 1_555 1_555
C28 C27 1_555 1_555
H33 C28 1_555 1_555
C29 C28 1_555 1_555
H34 C29 1_555 1_555
C30 C29 1_555 1_555
C31 C30 1_555 1_555
H35 C31 1_555 1_555
C32 C27 1_555 1_555
H36 C32 1_555 1_555
C33 O1 1_555 1_555
H37 C33 1_555 1_555
H38 C33 1_555 1_555
C34 C33 1_555 1_555
H39 C34 1_555 1_555
H40 C34 1_555 1_555
C35 O2 1_555 1_555
C36 C35 1_555 1_555
C37 C36 1_555 1_555
H41 C37 1_555 1_555
C38 C37 1_555 1_555
H42 C38 1_555 1_555
C39 C38 1_555 1_555
H43 C39 1_555 1_555
C40 C35 1_555 1_555
C41 C36 1_555 1_555
H44 C41 1_555 1_555
H45 C41 1_555 1_555
C42 C41 1_555 1_555
C43 O6 1_555 1_555
C44 C43 1_555 1_555
C45 C44 1_555 1_555
H46 C45 1_555 1_555
C46 C45 1_555 1_555
H47 C46 1_555 1_555
C47 C42 1_555 1_555
H48 C47 1_555 1_555
C48 C44 1_555 1_555
H49 C48 1_555 1_555
H50 C48 1_555 1_555
C49 C48 1_555 1_555
C50 C49 1_555 1_555
C51 C50 1_555 1_555
C52 C51 1_555 1_555
H51 C52 1_555 1_555
C53 C52 1_555 1_555
H52 C53 1_555 1_555
C54 C49 1_555 1_555
H53 C54 1_555 1_555
C55 C51 1_555 1_555
H54 C55 1_555 1_555
H55 C55 1_555 1_555
C56 C55 1_555 1_555
C57 O5 1_555 1_555
C58 C57 1_555 1_555
C59 C58 1_555 1_555
H56 C59 1_555 1_555
C60 C59 1_555 1_555
H57 C60 1_555 1_555
C61 C56 1_555 1_555
H58 C61 1_555 1_555
C62 C40 1_555 1_555
H59 C62 1_555 1_555
H60 C62 1_555 1_555
C63 O3 1_555 1_555
H61 C63 1_555 1_555
H62 C63 1_555 1_555
C64 C63 1_555 1_555
H63 C64 1_555 1_555
H64 C64 1_555 1_555
C65 O4 1_555 1_555
C66 C65 1_555 1_555
H65 C66 1_555 1_555
C67 C66 1_555 1_555
H66 C67 1_555 1_555
C68 C15 1_555 1_555
C69 C68 1_555 1_555
H67 C69 1_555 1_555
C70 C65 1_555 1_555
H68 C70 1_555 1_555
O7 C72 1_555 1_555
O8 C72 1_555 1_555
C71 H69 1_555 1_555
H70 C71 1_555 1_555
H71 C71 1_555 1_555
C72 C71 1_555 1_555
C73 O8 1_555 1_555
H72 C73 1_555 1_555
H73 C73 1_555 1_555
C74 C73 1_555 1_555
H74 C74 1_555 1_555
H75 C74 1_555 1_555
H76 C74 1_555 1_555
O11 C80 1_555 1_555
O12 C80 1_555 1_555
C79 H85 1_555 1_555
H86 C79 1_555 1_555
H87 C79 1_555 1_555
C80 C79 1_555 1_555
C81 O12 1_555 1_555
H88 C81 1_555 1_555
H89 C81 1_555 1_555
C82 C81 1_555 1_555
H90 C82 1_555 1_555
H91 C82 1_555 1_555
H92 C82 1_555 1_555
O13 C112 1_555 1_555
O14 C116 1_555 1_555
O15 C132 1_555 1_555
O16 C146 1_555 1_555
O17 H93 1_555 1_555
O18 H94 1_555 1_555
N5 H95 1_555 1_555
N6 H96 1_555 1_555
N7 H97 1_555 1_555
N8 H98 1_555 1_555
C83 N5 1_555 1_555
C84 C83 1_555 1_555
H99 C84 1_555 1_555
C85 C84 1_555 1_555
H100 C85 1_555 1_555
C86 N5 1_555 1_555
C87 C86 1_555 1_555
C88 N6 1_555 1_555
C89 C88 1_555 1_555
H101 C89 1_555 1_555
C90 C89 1_555 1_555
H102 C90 1_555 1_555
C91 N6 1_555 1_555
C92 C91 1_555 1_555
C93 N7 1_555 1_555
C94 C93 1_555 1_555
H103 C94 1_555 1_555
C95 C94 1_555 1_555
H104 C95 1_555 1_555
C96 N7 1_555 1_555
C97 C96 1_555 1_555
C98 N8 1_555 1_555
C99 C98 1_555 1_555
H105 C99 1_555 1_555
C100 C99 1_555 1_555
H106 C100 1_555 1_555
C101 N8 1_555 1_555
C102 C83 1_555 1_555
C103 C102 1_555 1_555
H107 C103 1_555 1_555
H108 C103 1_555 1_555
H109 C103 1_555 1_555
C104 C97 1_555 1_555
H110 C104 1_555 1_555
H111 C104 1_555 1_555
H112 C104 1_555 1_555
C105 C97 1_555 1_555
H113 C105 1_555 1_555
H114 C105 1_555 1_555
H115 C105 1_555 1_555
C106 C92 1_555 1_555
H116 C106 1_555 1_555
H117 C106 1_555 1_555
H118 C106 1_555 1_555
C107 C87 1_555 1_555
H119 C107 1_555 1_555
H120 C107 1_555 1_555
H121 C107 1_555 1_555
C108 C87 1_555 1_555
H122 C108 1_555 1_555
H123 C108 1_555 1_555
H124 C108 1_555 1_555
C109 C102 1_555 1_555
C110 C109 1_555 1_555
H125 C110 1_555 1_555
C111 C110 1_555 1_555
H126 C111 1_555 1_555
C112 C111 1_555 1_555
C113 C112 1_555 1_555
H127 C113 1_555 1_555
C114 C109 1_555 1_555
H128 C114 1_555 1_555
C115 O13 1_555 1_555
H129 C115 1_555 1_555
H130 C115 1_555 1_555
C116 C115 1_555 1_555
H131 C116 1_555 1_555
H132 C116 1_555 1_555
C117 O14 1_555 1_555
C118 C117 1_555 1_555
C119 C118 1_555 1_555
H133 C119 1_555 1_555
C120 C119 1_555 1_555
H134 C120 1_555 1_555
C121 C120 1_555 1_555
H135 C121 1_555 1_555
C122 C117 1_555 1_555
C123 C122 1_555 1_555
H136 C123 1_555 1_555
H137 C123 1_555 1_555
C124 C123 1_555 1_555
C125 O17 1_555 1_555
C126 C125 1_555 1_555
C127 C126 1_555 1_555
H138 C127 1_555 1_555
C128 C127 1_555 1_555
H139 C128 1_555 1_555
C129 C124 1_555 1_555
H140 C129 1_555 1_555
C130 C126 1_555 1_555
H141 C130 1_555 1_555
H142 C130 1_555 1_555
C131 C130 1_555 1_555
C132 C131 1_555 1_555
C133 C132 1_555 1_555
C134 C133 1_555 1_555
H143 C134 1_555 1_555
C135 C134 1_555 1_555
H144 C135 1_555 1_555
C136 C131 1_555 1_555
H145 C136 1_555 1_555
C137 C133 1_555 1_555
H146 C137 1_555 1_555
H147 C137 1_555 1_555
C138 C137 1_555 1_555
C139 O18 1_555 1_555
C140 C139 1_555 1_555
C141 C140 1_555 1_555
H148 C141 1_555 1_555
C142 C141 1_555 1_555
H149 C142 1_555 1_555
C143 C138 1_555 1_555
H150 C143 1_555 1_555
C144 C118 1_555 1_555
H151 C144 1_555 1_555
H152 C144 1_555 1_555
C145 O15 1_555 1_555
H153 C145 1_555 1_555
H154 C145 1_555 1_555
C146 C145 1_555 1_555
H155 C146 1_555 1_555
H156 C146 1_555 1_555
C147 O16 1_555 1_555
C148 C147 1_555 1_555
H157 C148 1_555 1_555
C149 C148 1_555 1_555
H158 C149 1_555 1_555
C150 C92 1_555 1_555
C151 C150 1_555 1_555
H159 C151 1_555 1_555
C152 C147 1_555 1_555
H160 C152 1_555 1_555
O19 C154 1_555 1_555
O20 C154 1_555 1_555
C153 H161 1_555 1_555
H162 C153 1_555 1_555
H163 C153 1_555 1_555
C154 C153 1_555 1_555
C155 O20 1_555 1_555
H164 C155 1_555 1_555
H165 C155 1_555 1_555
C156 C155 1_555 1_555
H166 C156 1_555 1_555
H167 C156 1_555 1_555
H168 C156 1_555 1_555
O23 C162 1_555 1_555
O24 C162 1_555 1_555
C161 H177 1_555 1_555
H178 C161 1_555 1_555
H179 C161 1_555 1_555
C162 C161 1_555 1_555
C163 O24 1_555 1_555
H180 C163 1_555 1_555
H181 C163 1_555 1_555
C164 C163 1_555 1_555
H182 C164 1_555 1_555
H183 C164 1_555 1_555
H184 C164 1_555 1_555
O29 C174 1_555 1_555
O30 C174 1_555 1_555
C173 H201 1_555 1_555
H202 C173 1_555 1_555
H203 C173 1_555 1_555
C174 C173 1_555 1_555
C175 O30 1_555 1_555
H204 C175 1_555 1_555
H205 C175 1_555 1_555
C176 C175 1_555 1_555
H206 C176 1_555 1_555
H207 C176 1_555 1_555
H208 C176 1_555 1_555
C3 C4 1_555 1_555
C5 C6 1_555 1_555
C8 C9 1_555 1_555
C10 C11 1_555 1_555
C13 C14 1_555 1_555
C15 C16 1_555 1_555
C18 C19 1_555 1_555
C19 C20 1_555 1_555
C31 C32 1_555 1_555
C39 C40 1_555 1_555
C42 C43 1_555 1_555
C46 C47 1_555 1_555
C53 C54 1_555 1_555
C56 C57 1_555 1_555
C58 C62 1_555 1_555
C60 C61 1_555 1_555
C67 C68 1_555 1_555
C69 C70 1_555 1_555
C85 C86 1_555 1_555
C87 C88 1_555 1_555
C90 C91 1_555 1_555
C92 C93 1_555 1_555
C95 C96 1_555 1_555
C97 C98 1_555 1_555
C100 C101 1_555 1_555
C101 C102 1_555 1_555
C113 C114 1_555 1_555
C121 C122 1_555 1_555
C124 C125 1_555 1_555
C128 C129 1_555 1_555
C135 C136 1_555 1_555
C138 C139 1_555 1_555
C140 C144 1_555 1_555
C142 C143 1_555 1_555
C149 C150 1_555 1_555
C151 C152 1_555 1_555

#END
