
#######################################################################
#
#                 Cambridge Crystallographic Data Centre
#                                CCDC 
#
#######################################################################
#
# If this CIF has been generated from an entry in the Cambridge 
# Structural Database, then it will include bibliographic, chemical, 
# crystal, experimental, refinement or atomic coordinate data resulting 
# from the CCDC's data processing and validation procedures.
#
#######################################################################

data_DOLGIW
_chemical_formula_moiety         'C24 H30 B1 N1 P1 1-,2.5(C4 H8 O1),K1 1+'
_chemical_name_systematic        
'potassium (N-(2,6-diisopropylphenyl)-P,P-diphenylphosphorimidoyl)(trihydrido)borate tetrahydrofuran solvate'
_symmetry_cell_setting           triclinic
_symmetry_space_group_name_H-M   'P -1'
_symmetry_Int_Tables_number      2
_space_group_name_Hall           '-P 1'
loop_
_symmetry_equiv_pos_site_id
_symmetry_equiv_pos_as_xyz
1 x,y,z
2 -x,-y,-z
_cell_length_a                   10.6594(7)
_cell_length_b                   13.5838(10)
_cell_length_c                   23.9072(13)
_cell_angle_alpha                93.998(5)
_cell_angle_beta                 96.214(5)
_cell_angle_gamma                96.133(6)
_cell_volume                     3410.02
_exptl_crystal_colour            colorless
_exptl_crystal_description       plate
_cell_formula_units_Z            4
loop_
_atom_site_label
_atom_site_type_symbol
_atom_site_fract_x
_atom_site_fract_y
_atom_site_fract_z
K1 K 0.54295(6) 0.90231(5) 0.41364(3)
P1 P 0.55033(6) 1.21608(5) 0.41283(3)
B1 B 0.5944(4) 1.1320(3) 0.47207(15)
N1 N 0.5012(2) 1.16476(16) 0.35115(10)
C1 C 0.6772(3) 1.31913(19) 0.41204(12)
C2 C 0.6652(3) 1.3875(2) 0.37141(13)
H1 H 0.5919 1.3824 0.3460
C3 C 0.7626(3) 1.4634(2) 0.36889(15)
H2 H 0.7539 1.5094 0.3421
C4 C 0.8726(3) 1.4703(2) 0.40626(17)
H3 H 0.9389 1.5197 0.4039
C5 C 0.8834(3) 1.4041(3) 0.44669(17)
H4 H 0.9565 1.4099 0.4723
C6 C 0.7871(3) 1.3288(2) 0.44990(14)
H5 H 0.7959 1.2843 0.4775
C7 C 0.4250(3) 1.28842(19) 0.43345(12)
C8 C 0.3094(3) 1.2826(2) 0.40053(14)
H6 H 0.2943 1.2408 0.3674
C9 C 0.2147(3) 1.3390(3) 0.41651(17)
H7 H 0.1370 1.3348 0.3941
C10 C 0.2374(3) 1.4009(2) 0.46577(16)
H8 H 0.1749 1.4386 0.4765
C11 C 0.3519(3) 1.4068(2) 0.49890(15)
H9 H 0.3666 1.4484 0.5320
C12 C 0.4458(3) 1.3508(2) 0.48315(14)
H10 H 0.5231 1.3550 0.5059
C13 C 0.5259(3) 1.07290(19) 0.32809(11)
C14 C 0.4199(3) 1.0035(2) 0.30530(12)
C15 C 0.4398(3) 0.9122(2) 0.27901(12)
H11 H 0.3697 0.8677 0.2642
C16 C 0.5602(3) 0.8859(2) 0.27437(13)
H12 H 0.5714 0.8244 0.2571
C17 C 0.6642(3) 0.9532(2) 0.29610(12)
H13 H 0.7456 0.9363 0.2930
C18 C 0.6501(3) 1.0458(2) 0.32249(11)
C19 C 0.7662(3) 1.1203(2) 0.34112(13)
H14 H 0.7500 1.1570 0.3759
C20 C 0.7812(3) 1.1959(2) 0.29688(15)
H15 H 0.8098 1.1647 0.2640
H16 H 0.8424 1.2508 0.3123
H17 H 0.7009 1.2197 0.2866
C21 C 0.8900(3) 1.0745(3) 0.35467(18)
H18 H 0.8784 1.0266 0.3819
H19 H 0.9564 1.1258 0.3698
H20 H 0.9129 1.0424 0.3208
C22 C 0.2860(3) 1.0282(2) 0.31114(13)
H21 H 0.2860 1.0995 0.3071
C23 C 0.1843(3) 0.9742(3) 0.26644(15)
H22 H 0.2099 0.9826 0.2296
H23 H 0.1055 1.0013 0.2692
H24 H 0.1736 0.9048 0.2723
C24 C 0.2510(3) 1.0100(3) 0.37031(14)
H25 H 0.2489 0.9405 0.3757
H26 H 0.1690 1.0310 0.3743
H27 H 0.3133 1.0472 0.3980
H28 H 0.672(3) 1.084(3) 0.4562(14)
H29 H 0.501(4) 1.087(3) 0.4720(16)
H30 H 0.620(4) 1.180(3) 0.5103(17)
O1 O 0.7737(3) 0.8476(2) 0.43580(12)
C25 C 0.8324(5) 0.7785(4) 0.4034(2)
H31 H 0.8270 0.7945 0.3643
H32 H 0.7901 0.7119 0.4046
C26 C 0.9627(6) 0.7837(6) 0.4267(4)
H33 H 1.0173 0.8165 0.4021
H34 H 0.9864 0.7174 0.4309
C27 C 0.9759(6) 0.8393(6) 0.4810(4)
H35 H 1.0407 0.8956 0.4826
H36 H 0.9997 0.7976 0.5108
C28 C 0.8501(5) 0.8736(3) 0.4876(2)
H37 H 0.8123 0.8417 0.5178
H38 H 0.8591 0.9450 0.4964
O2 O 0.4296(3) 0.72178(18) 0.37381(12)
C29 C 0.2957(4) 0.7011(3) 0.36443(19)
H39 H 0.2643 0.7160 0.3267
H40 H 0.2564 0.7405 0.3916
C30 C 0.2674(4) 0.5947(3) 0.3712(3)
H41 H 0.1938 0.5660 0.3456
H42 H 0.2509 0.5842 0.4096
C31 C 0.3856(4) 0.5483(3) 0.3575(2)
H43 H 0.4164 0.5099 0.3877
H44 H 0.3682 0.5056 0.3227
C32 C 0.4807(4) 0.6368(3) 0.35138(17)
H45 H 0.5622 0.6301 0.3722
H46 H 0.4921 0.6424 0.3120
K2 K 0.59916(6) 0.42505(5) 0.08216(3)
P2 P 0.58350(6) 0.74878(5) 0.09426(3)
B2 B 0.5865(3) 0.6471(2) 0.03390(14)
N2 N 0.5682(2) 0.71443(17) 0.15558(10)
C33 C 0.7209(3) 0.8434(2) 0.09651(12)
C34 C 0.8005(3) 0.8470(2) 0.05402(14)
H47 H 0.7843 0.8004 0.0229
C35 C 0.9038(3) 0.9193(3) 0.05772(16)
H48 H 0.9564 0.9212 0.0291
C36 C 0.9290(3) 0.9889(3) 0.10379(18)
H49 H 0.9985 1.0372 0.1062
C37 C 0.8509(3) 0.9863(3) 0.14617(17)
H50 H 0.8676 1.0331 0.1772
C38 C 0.7475(3) 0.9140(2) 0.14251(14)
H51 H 0.6951 0.9127 0.1712
C39 C 0.4555(3) 0.8257(2) 0.07735(12)
C40 C 0.4448(3) 0.8716(2) 0.02706(13)
H52 H 0.5023 0.8621 0.0011
C41 C 0.3494(3) 0.9314(2) 0.01538(14)
H53 H 0.3441 0.9628 -0.0180
C42 C 0.2621(3) 0.9445(2) 0.05319(14)
H54 H 0.1977 0.9843 0.0451
C43 C 0.2704(3) 0.8986(2) 0.10292(14)
H55 H 0.2110 0.9068 0.1281
C44 C 0.3676(3) 0.8401(2) 0.11544(13)
H56 H 0.3740 0.8105 0.1494
C45 C 0.7042(3) 0.5962(2) 0.19543(13)
C46 C 0.7137(4) 0.5044(3) 0.21721(14)
H57 H 0.7934 0.4880 0.2305
C47 C 0.6078(4) 0.4372(2) 0.21961(14)
H58 H 0.6159 0.3766 0.2347
C48 C 0.4894(4) 0.4616(2) 0.19909(14)
H59 H 0.4179 0.4171 0.2011
C49 C 0.4748(3) 0.5517(2) 0.17535(12)
C50 C 0.5841(3) 0.6215(2) 0.17380(11)
C51 C 0.3444(3) 0.5778(2) 0.15399(14)
H60 H 0.3562 0.6246 0.1251
C52 C 0.2868(3) 0.6318(3) 0.20150(17)
H61 H 0.2595 0.5850 0.2272
H62 H 0.2153 0.6624 0.1858
H63 H 0.3495 0.6819 0.2213
C53 C 0.2530(4) 0.4890(3) 0.12627(19)
H64 H 0.2898 0.4578 0.0957
H65 H 0.1742 0.5115 0.1120
H66 H 0.2376 0.4421 0.1537
C54 C 0.8222(3) 0.6694(3) 0.19637(18)
H67 H 0.7933 0.7327 0.1864
C55 C 0.8976(6) 0.6889(5) 0.2541(2)
H68 H 0.9415 0.6325 0.2624
H69 H 0.8411 0.6999 0.2819
H70 H 0.9583 0.7466 0.2545
C56 C 0.9063(5) 0.6411(5) 0.1541(2)
H71 H 0.9409 0.5812 0.1636
H72 H 0.9742 0.6935 0.1539
H73 H 0.8584 0.6303 0.1174
H74 H 0.678(3) 0.610(3) 0.0432(14)
H75 H 0.501(4) 0.599(3) 0.0350(15)
H76 H 0.585(3) 0.683(3) -0.0062(15)
O3 O 0.8193(3) 0.3742(3) 0.05301(16)
C57 C 0.8725(12) 0.2964(11) 0.0620(8)
H77 H 0.8097 0.2391 0.0517
H78 H 0.8987 0.2974 0.1022
C58 C 0.9764(8) 0.2832(7) 0.0339(6)
H79 H 0.9789 0.2138 0.0220
H80 H 1.0551 0.3089 0.0570
C59 C 0.9526(12) 0.3405(12) -0.0135(4)
H81 H 1.0241 0.3894 -0.0169
H82 H 0.9314 0.2987 -0.0485
C60 C 0.8480(12) 0.3850(14) 0.0025(6)
H83 H 0.8635 0.4556 -0.0017
H84 H 0.7744 0.3587 -0.0238
O4 O 0.5349(3) 0.23984(17) 0.11316(10)
C61 C 0.4073(4) 0.2072(3) 0.12204(17)
H85 H 0.3641 0.1657 0.0895
H86 H 0.3605 0.2636 0.1286
C62 C 0.4180(4) 0.1486(3) 0.17363(18)
H87 H 0.3439 0.1006 0.1739
H88 H 0.4300 0.1919 0.2083
C63 C 0.5356(4) 0.0982(3) 0.16520(17)
H89 H 0.5762 0.0803 0.2008
H90 H 0.5152 0.0390 0.1393
C64 C 0.6179(4) 0.1765(3) 0.14085(16)
H91 H 0.6759 0.2147 0.1705
H92 H 0.6672 0.1463 0.1140
O5 O 1.0013(9) 0.2420(7) 0.1897(4)
C65 C 0.9809(7) 0.3451(5) 0.2098(3)
H93 H 0.9888 0.3892 0.1799
H94 H 0.8968 0.3458 0.2217
C66 C 1.0799(9) 0.3773(7) 0.2581(4)
H95 H 1.0433 0.3882 0.2932
H96 H 1.1332 0.4368 0.2514
C67 C 1.1545(9) 0.2831(7) 0.2578(4)
H97 H 1.2453 0.3029 0.2608
H98 H 1.1366 0.2443 0.2892
C68 C 1.1134(13) 0.2289(10) 0.2075(6)
H99 H 1.1694 0.2481 0.1797
H100 H 1.1174 0.1590 0.2123
loop_
_geom_bond_atom_site_label_1
_geom_bond_atom_site_label_2
_geom_bond_site_symmetry_1
_geom_bond_site_symmetry_2
P1 B1 1_555 1_555
B1 H28 1_555 1_555
N1 P1 1_555 1_555
C1 P1 1_555 1_555
C2 C1 1_555 1_555
H1 C2 1_555 1_555
C3 C2 1_555 1_555
H2 C3 1_555 1_555
C4 C3 1_555 1_555
H3 C4 1_555 1_555
C5 C4 1_555 1_555
H4 C5 1_555 1_555
C6 C1 1_555 1_555
H5 C6 1_555 1_555
C7 P1 1_555 1_555
C8 C7 1_555 1_555
H6 C8 1_555 1_555
C9 C8 1_555 1_555
H7 C9 1_555 1_555
C10 C9 1_555 1_555
H8 C10 1_555 1_555
C11 C10 1_555 1_555
H9 C11 1_555 1_555
C12 C7 1_555 1_555
H10 C12 1_555 1_555
C13 N1 1_555 1_555
C14 C13 1_555 1_555
C15 C14 1_555 1_555
H11 C15 1_555 1_555
C16 C15 1_555 1_555
H12 C16 1_555 1_555
C17 C16 1_555 1_555
H13 C17 1_555 1_555
C18 C13 1_555 1_555
C19 C18 1_555 1_555
H14 C19 1_555 1_555
C20 C19 1_555 1_555
H15 C20 1_555 1_555
H16 C20 1_555 1_555
H17 C20 1_555 1_555
C21 C19 1_555 1_555
H18 C21 1_555 1_555
H19 C21 1_555 1_555
H20 C21 1_555 1_555
C22 C14 1_555 1_555
H21 C22 1_555 1_555
C23 C22 1_555 1_555
H22 C23 1_555 1_555
H23 C23 1_555 1_555
H24 C23 1_555 1_555
C24 C22 1_555 1_555
H25 C24 1_555 1_555
H26 C24 1_555 1_555
H27 C24 1_555 1_555
H29 B1 1_555 1_555
H30 B1 1_555 1_555
O1 C25 1_555 1_555
C25 H31 1_555 1_555
H32 C25 1_555 1_555
C26 C25 1_555 1_555
H33 C26 1_555 1_555
H34 C26 1_555 1_555
C27 C26 1_555 1_555
H35 C27 1_555 1_555
H36 C27 1_555 1_555
C28 O1 1_555 1_555
H37 C28 1_555 1_555
H38 C28 1_555 1_555
O2 C29 1_555 1_555
C29 H39 1_555 1_555
H40 C29 1_555 1_555
C30 C29 1_555 1_555
H41 C30 1_555 1_555
H42 C30 1_555 1_555
C31 C30 1_555 1_555
H43 C31 1_555 1_555
H44 C31 1_555 1_555
C32 O2 1_555 1_555
H45 C32 1_555 1_555
H46 C32 1_555 1_555
P2 B2 1_555 1_555
B2 H74 1_555 1_555
N2 P2 1_555 1_555
C33 P2 1_555 1_555
C34 C33 1_555 1_555
H47 C34 1_555 1_555
C35 C34 1_555 1_555
H48 C35 1_555 1_555
C36 C35 1_555 1_555
H49 C36 1_555 1_555
C37 C36 1_555 1_555
H50 C37 1_555 1_555
C38 C33 1_555 1_555
H51 C38 1_555 1_555
C39 P2 1_555 1_555
C40 C39 1_555 1_555
H52 C40 1_555 1_555
C41 C40 1_555 1_555
H53 C41 1_555 1_555
C42 C41 1_555 1_555
H54 C42 1_555 1_555
C43 C42 1_555 1_555
H55 C43 1_555 1_555
C44 C39 1_555 1_555
H56 C44 1_555 1_555
C45 C46 1_555 1_555
C46 H57 1_555 1_555
C47 C46 1_555 1_555
H58 C47 1_555 1_555
C48 C47 1_555 1_555
H59 C48 1_555 1_555
C49 C48 1_555 1_555
C50 N2 1_555 1_555
C51 C49 1_555 1_555
H60 C51 1_555 1_555
C52 C51 1_555 1_555
H61 C52 1_555 1_555
H62 C52 1_555 1_555
H63 C52 1_555 1_555
C53 C51 1_555 1_555
H64 C53 1_555 1_555
H65 C53 1_555 1_555
H66 C53 1_555 1_555
C54 C45 1_555 1_555
H67 C54 1_555 1_555
C55 C54 1_555 1_555
H68 C55 1_555 1_555
H69 C55 1_555 1_555
H70 C55 1_555 1_555
C56 C54 1_555 1_555
H71 C56 1_555 1_555
H72 C56 1_555 1_555
H73 C56 1_555 1_555
H75 B2 1_555 1_555
H76 B2 1_555 1_555
O3 C57 1_555 1_555
C57 H77 1_555 1_555
H78 C57 1_555 1_555
C58 C57 1_555 1_555
H79 C58 1_555 1_555
H80 C58 1_555 1_555
C59 C58 1_555 1_555
H81 C59 1_555 1_555
H82 C59 1_555 1_555
C60 O3 1_555 1_555
H83 C60 1_555 1_555
H84 C60 1_555 1_555
O4 C61 1_555 1_555
C61 H85 1_555 1_555
H86 C61 1_555 1_555
C62 C61 1_555 1_555
H87 C62 1_555 1_555
H88 C62 1_555 1_555
C63 C62 1_555 1_555
H89 C63 1_555 1_555
H90 C63 1_555 1_555
C64 O4 1_555 1_555
H91 C64 1_555 1_555
H92 C64 1_555 1_555
O5 C65 1_555 1_555
C65 H93 1_555 1_555
H94 C65 1_555 1_555
C66 C65 1_555 1_555
H95 C66 1_555 1_555
H96 C66 1_555 1_555
C67 C66 1_555 1_555
H97 C67 1_555 1_555
H98 C67 1_555 1_555
C68 O5 1_555 1_555
H99 C68 1_555 1_555
H100 C68 1_555 1_555
C5 C6 1_555 1_555
C11 C12 1_555 1_555
C17 C18 1_555 1_555
C27 C28 1_555 1_555
C31 C32 1_555 1_555
C37 C38 1_555 1_555
C43 C44 1_555 1_555
C45 C50 1_555 1_555
C49 C50 1_555 1_555
C59 C60 1_555 1_555
C63 C64 1_555 1_555
C67 C68 1_555 1_555

#END
