
#######################################################################
#
#                 Cambridge Crystallographic Data Centre
#                                CCDC 
#
#######################################################################
#
# If this CIF has been generated from an entry in the Cambridge 
# Structural Database, then it will include bibliographic, chemical, 
# crystal, experimental, refinement or atomic coordinate data resulting 
# from the CCDC's data processing and validation procedures.
#
#######################################################################

data_DOLNUP
_chemical_formula_moiety         'C13 H27 N5 O2'
_chemical_name_systematic        
6,6-bis(dimethylamino)-1,3,5-triethyl-1,3,5-triazinane-2,4-dione
_symmetry_cell_setting           orthorhombic
_symmetry_space_group_name_H-M   'P b c a'
_symmetry_Int_Tables_number      61
_space_group_name_Hall           '-P 2ac 2ab'
loop_
_symmetry_equiv_pos_site_id
_symmetry_equiv_pos_as_xyz
1 x,y,z
2 1/2-x,-y,1/2+z
3 1/2+x,1/2-y,-z
4 -x,1/2+y,1/2-z
5 -x,-y,-z
6 1/2+x,y,1/2-z
7 1/2-x,1/2+y,z
8 x,1/2-y,1/2+z
_cell_length_a                   12.6187(2)
_cell_length_b                   15.3717(3)
_cell_length_c                   15.8322(3)
_cell_angle_alpha                90
_cell_angle_beta                 90
_cell_angle_gamma                90
_cell_volume                     3070.99
_exptl_crystal_colour            colorless
_exptl_crystal_description       block
_cell_formula_units_Z            8
loop_
_atom_site_label
_atom_site_type_symbol
_atom_site_fract_x
_atom_site_fract_y
_atom_site_fract_z
C1 C 0.82099(13) -0.15396(11) 0.04807(10)
C2 C 0.73594(13) -0.00581(10) 0.04487(10)
C3 C 0.89505(13) -0.03713(11) 0.13571(10)
C4 C 0.95361(14) -0.18774(12) 0.15629(11)
H1 H 1.0185 -0.1604 0.1756
H2 H 0.9727 -0.2348 0.1185
C5 C 0.89422(17) -0.22429(13) 0.23143(12)
H3 H 0.9381 -0.2659 0.2601
H4 H 0.8305 -0.2523 0.2124
H5 H 0.8764 -0.1779 0.2695
C6 C 0.85061(13) 0.11340(11) 0.11397(11)
H6 H 0.8443 0.1204 0.1747
H7 H 0.7955 0.1481 0.0877
C7 C 0.95838(14) 0.14745(12) 0.08573(12)
H8 H 0.9653 0.2074 0.1017
H9 H 0.9644 0.1423 0.0255
H10 H 1.0134 0.1141 0.1122
C8 C 0.80656(14) 0.06840(12) -0.08087(11)
H11 H 0.7875 0.1121 -0.1214
H12 H 0.8192 0.0143 -0.1094
H13 H 0.8697 0.0860 -0.0516
C9 C 0.61757(14) 0.07577(12) -0.05784(11)
H14 H 0.6249 0.1199 -0.1003
H15 H 0.5699 0.0957 -0.0147
H16 H 0.5899 0.0237 -0.0831
C10 C 0.61234(14) 0.07082(11) 0.14033(11)
H17 H 0.6126 0.1177 0.1003
H18 H 0.6630 0.0825 0.1841
H19 H 0.5430 0.0654 0.1647
C11 C 0.63999(14) -0.08106(12) 0.15875(10)
H20 H 0.5751 -0.0794 0.1904
H21 H 0.6990 -0.0744 0.1965
H22 H 0.6455 -0.1358 0.1299
C12 C 0.67393(13) -0.13122(12) -0.04479(10)
H23 H 0.6164 -0.0897 -0.0498
H24 H 0.6457 -0.1835 -0.0188
C13 C 0.71411(16) -0.15345(14) -0.13242(11)
H25 H 0.6572 -0.1773 -0.1654
H26 H 0.7702 -0.1954 -0.1281
H27 H 0.7403 -0.1017 -0.1593
N1 N 0.88985(11) -0.12384(9) 0.11038(8)
N2 N 0.75665(11) -0.09423(9) 0.01103(8)
N3 N 0.83377(10) 0.02053(9) 0.09208(8)
N4 N 0.64057(11) -0.01070(9) 0.09725(9)
N5 N 0.72081(11) 0.05751(9) -0.02055(8)
O1 O 0.82030(10) -0.23110(8) 0.02868(8)
O2 O 0.95562(10) -0.01504(8) 0.19265(8)
H28? H 0.8634 0.0295 -0.0669
H29? H 0.8317 0.1273 -0.0789
H30? H 0.7812 0.0556 -0.1367
H31? H 0.5649 0.0396 -0.0318
H32? H 0.6199 0.0639 -0.1173
H33? H 0.5999 0.1358 -0.0490
H34? H 0.5998 0.0594 0.1991
H35? H 0.5494 0.0946 0.1153
H36? H 0.6694 0.1117 0.1347
loop_
_geom_bond_atom_site_label_1
_geom_bond_atom_site_label_2
_geom_bond_site_symmetry_1
_geom_bond_site_symmetry_2
C1 N1 1_555 1_555
C2 N2 1_555 1_555
C3 N1 1_555 1_555
C4 H1 1_555 1_555
H2 C4 1_555 1_555
C5 C4 1_555 1_555
H3 C5 1_555 1_555
H4 C5 1_555 1_555
H5 C5 1_555 1_555
C6 H6 1_555 1_555
H7 C6 1_555 1_555
C7 C6 1_555 1_555
H8 C7 1_555 1_555
H9 C7 1_555 1_555
H10 C7 1_555 1_555
C8 H11 1_555 1_555
H12 C8 1_555 1_555
H13 C8 1_555 1_555
C9 H14 1_555 1_555
H15 C9 1_555 1_555
H16 C9 1_555 1_555
C10 H17 1_555 1_555
H18 C10 1_555 1_555
H19 C10 1_555 1_555
C11 H20 1_555 1_555
H21 C11 1_555 1_555
H22 C11 1_555 1_555
C12 H23 1_555 1_555
H24 C12 1_555 1_555
C13 C12 1_555 1_555
H25 C13 1_555 1_555
H26 C13 1_555 1_555
H27 C13 1_555 1_555
N1 C4 1_555 1_555
N2 C1 1_555 1_555
N3 C2 1_555 1_555
N4 C2 1_555 1_555
N5 C2 1_555 1_555
O1 C1 1_555 1_555
O2 C3 1_555 1_555
C3 N3 1_555 1_555
C6 N3 1_555 1_555
C8 N5 1_555 1_555
C9 N5 1_555 1_555
C10 N4 1_555 1_555
C11 N4 1_555 1_555
C12 N2 1_555 1_555

#END
