
#######################################################################
#
#                 Cambridge Crystallographic Data Centre
#                                CCDC 
#
#######################################################################
#
# If this CIF has been generated from an entry in the Cambridge 
# Structural Database, then it will include bibliographic, chemical, 
# crystal, experimental, refinement or atomic coordinate data resulting 
# from the CCDC's data processing and validation procedures.
#
#######################################################################

data_DOLPAX
_chemical_formula_moiety         'C15 H26 N4 O2'
_chemical_name_systematic        
1,3-diethylhexahydro-6H,10H-[1,3,5]triazino[2',1':2,3]pyrimido[1,2-a]azepine-2,4(1H,3H)-dione
_symmetry_cell_setting           triclinic
_symmetry_space_group_name_H-M   'P -1'
_symmetry_Int_Tables_number      2
_space_group_name_Hall           '-P 1'
loop_
_symmetry_equiv_pos_site_id
_symmetry_equiv_pos_as_xyz
1 x,y,z
2 -x,-y,-z
_cell_length_a                   8.1256(12)
_cell_length_b                   8.7350(11)
_cell_length_c                   11.1764(16)
_cell_angle_alpha                101.997(12)
_cell_angle_beta                 106.888(13)
_cell_angle_gamma                90.243(11)
_cell_volume                     740.708
_exptl_crystal_colour            colorless
_exptl_crystal_description       block
_cell_formula_units_Z            2
loop_
_atom_site_label
_atom_site_type_symbol
_atom_site_fract_x
_atom_site_fract_y
_atom_site_fract_z
C1 C -0.0402(3) 0.1921(3) 0.7214(2)
H1 H -0.0934 0.1803 0.7865
H2 H 0.0507 0.1200 0.7245
C2 C -0.1742(4) 0.1476(3) 0.5910(2)
H3 H -0.2192 0.0414 0.5769
H4 H -0.1221 0.1567 0.5257
H5 H -0.2663 0.2166 0.5879
C3 C -0.0424(3) 0.4701(3) 0.8116(2)
C4 C -0.0353(3) 0.7493(3) 0.9147(2)
H6 H 0.0562 0.8297 0.9626
H7 H -0.0761 0.7081 0.9759
C5 C -0.1819(3) 0.8231(3) 0.8325(2)
H8 H -0.2232 0.9045 0.8863
H9 H -0.2739 0.7445 0.7859
H10 H -0.1416 0.8669 0.7734
C6 C 0.1504(3) 0.6647(3) 0.7788(2)
C7 C 0.3325(3) 0.5686(3) 0.6430(2)
H11 H 0.4491 0.5479 0.6871
H12 H 0.3324 0.6772 0.6353
C8 C 0.2720(3) 0.4601(3) 0.5096(2)
H13 H 0.3705 0.4264 0.4810
H14 H 0.2004 0.5150 0.4486
C9 C 0.1678(3) 0.3166(3) 0.5185(2)
H15 H 0.0494 0.3423 0.5095
H16 H 0.1672 0.2298 0.4482
C10 C 0.2144(3) 0.3840(3) 0.7454(2)
C11 C 0.3489(3) 0.3903(3) 0.8757(2)
H17 H 0.4578 0.4315 0.8718
H18 H 0.3147 0.4657 0.9395
C12 C 0.3815(3) 0.2390(3) 0.9243(2)
H19 H 0.4249 0.2655 1.0171
H20 H 0.2728 0.1775 0.9008
C13 C 0.5090(3) 0.1386(3) 0.8724(2)
H21 H 0.5298 0.0498 0.9132
H22 H 0.6177 0.2002 0.8957
C14 C 0.4486(3) 0.0776(3) 0.7275(2)
H23 H 0.5366 0.0157 0.7023
H24 H 0.3451 0.0090 0.7049
C15 C 0.4109(3) 0.2068(3) 0.6525(2)
H25 H 0.4978 0.2930 0.6943
H26 H 0.4206 0.1666 0.5673
N1 N 0.0371(2) 0.3541(2) 0.75191(17)
N2 N 0.0358(2) 0.6216(2) 0.83958(17)
N3 N 0.2168(2) 0.5412(2) 0.71576(17)
N4 N 0.2392(2) 0.2674(2) 0.64061(17)
O1 O -0.1742(2) 0.44702(19) 0.83917(15)
O2 O 0.1824(2) 0.80206(18) 0.78119(16)
loop_
_geom_bond_atom_site_label_1
_geom_bond_atom_site_label_2
_geom_bond_site_symmetry_1
_geom_bond_site_symmetry_2
C1 H1 1_555 1_555
H2 C1 1_555 1_555
C2 C1 1_555 1_555
H3 C2 1_555 1_555
H4 C2 1_555 1_555
H5 C2 1_555 1_555
C3 N1 1_555 1_555
C4 H6 1_555 1_555
H7 C4 1_555 1_555
C5 C4 1_555 1_555
H8 C5 1_555 1_555
H9 C5 1_555 1_555
H10 C5 1_555 1_555
C6 N2 1_555 1_555
C7 H11 1_555 1_555
H12 C7 1_555 1_555
C8 C7 1_555 1_555
H13 C8 1_555 1_555
H14 C8 1_555 1_555
C9 C8 1_555 1_555
H15 C9 1_555 1_555
H16 C9 1_555 1_555
C10 C11 1_555 1_555
C11 H17 1_555 1_555
H18 C11 1_555 1_555
C12 C11 1_555 1_555
H19 C12 1_555 1_555
H20 C12 1_555 1_555
C13 C12 1_555 1_555
H21 C13 1_555 1_555
H22 C13 1_555 1_555
C14 C13 1_555 1_555
H23 C14 1_555 1_555
H24 C14 1_555 1_555
C15 C14 1_555 1_555
H25 C15 1_555 1_555
H26 C15 1_555 1_555
N1 C1 1_555 1_555
N2 C3 1_555 1_555
N3 C6 1_555 1_555
N4 C9 1_555 1_555
O1 C3 1_555 1_555
O2 C6 1_555 1_555
C4 N2 1_555 1_555
C7 N3 1_555 1_555
C10 N1 1_555 1_555
C10 N3 1_555 1_555
C10 N4 1_555 1_555
C15 N4 1_555 1_555

#END
