
#######################################################################
#
#                 Cambridge Crystallographic Data Centre
#                                CCDC 
#
#######################################################################
#
# If this CIF has been generated from an entry in the Cambridge 
# Structural Database, then it will include bibliographic, chemical, 
# crystal, experimental, refinement or atomic coordinate data resulting 
# from the CCDC's data processing and validation procedures.
#
#######################################################################

data_DOLTUV
_chemical_formula_moiety         'C18 H20 N2 O2 S1'
_chemical_name_systematic        
5-Methyl-3-(4-methylphenyl)-1-((4-methylphenyl)sulfonyl)-4,5-dihydro-1H-pyrazole
_symmetry_cell_setting           orthorhombic
_symmetry_space_group_name_H-M   'P b c a'
_symmetry_Int_Tables_number      61
_space_group_name_Hall           '-P 2ac 2ab'
loop_
_symmetry_equiv_pos_site_id
_symmetry_equiv_pos_as_xyz
1 x,y,z
2 1/2-x,-y,1/2+z
3 -x,1/2+y,1/2-z
4 1/2+x,1/2-y,-z
5 -x,-y,-z
6 1/2+x,y,1/2-z
7 x,1/2-y,1/2+z
8 1/2-x,1/2+y,z
_cell_length_a                   16.110(2)
_cell_length_b                   10.1071(15)
_cell_length_c                   21.073(3)
_cell_angle_alpha                90
_cell_angle_beta                 90
_cell_angle_gamma                90
_cell_volume                     3431.22
_exptl_crystal_colour            colorless
_exptl_crystal_description       block
_cell_formula_units_Z            8
loop_
_atom_site_label
_atom_site_type_symbol
_atom_site_fract_x
_atom_site_fract_y
_atom_site_fract_z
C1 C 0.78718(19) 0.2405(3) 0.52527(13)
H1 H 0.7679 0.2702 0.4846
H2 H 0.7625 0.1564 0.5350
H3 H 0.8465 0.2315 0.5244
C2 C 0.76311(14) 0.3396(2) 0.57528(9)
C3 C 0.82201(14) 0.4199(3) 0.60371(11)
H4 H 0.8770 0.4142 0.5906
C4 C 0.80085(13) 0.5086(2) 0.65114(10)
H5 H 0.8417 0.5606 0.6698
C5 C 0.71899(11) 0.52029(19) 0.67098(8)
C6 C 0.65901(12) 0.4407(2) 0.64218(9)
H6 H 0.6038 0.4473 0.6545
C7 C 0.68154(14) 0.3523(2) 0.59547(10)
H7 H 0.6409 0.2996 0.5769
C8 C 0.69658(11) 0.60892(19) 0.72336(8)
C9 C 0.75627(13) 0.6907(2) 0.76156(10)
H8 H 0.7737 0.7689 0.7385
H9 H 0.8048 0.6398 0.7736
C10 C 0.70383(12) 0.7269(2) 0.81938(9)
H10 H 0.7118 0.6607 0.8528
C11 C 0.72080(18) 0.8637(3) 0.84547(13)
H11 H 0.7777 0.8694 0.8588
H12 H 0.6851 0.8800 0.8811
H13 H 0.7104 0.9284 0.8131
C12 C 0.54618(11) 0.51942(19) 0.86587(8)
C13 C 0.56794(14) 0.4975(2) 0.92892(9)
H14 H 0.5812 0.5679 0.9554
C14 C 0.56953(16) 0.3692(2) 0.95139(10)
H15 H 0.5833 0.3542 0.9936
C15 C 0.55134(15) 0.2626(2) 0.91310(11)
C16 C 0.53227(14) 0.2861(2) 0.85001(10)
H16 H 0.5217 0.2151 0.8231
C17 C 0.52868(13) 0.4138(2) 0.82646(9)
H17 H 0.5145 0.4284 0.7842
C18 C 0.5513(2) 0.1229(3) 0.93870(16)
H18 H 0.6058 0.1011 0.9539
H19 H 0.5360 0.0626 0.9055
H20 H 0.5121 0.1163 0.9729
N1 N 0.62074(10) 0.62337(17) 0.74019(7)
N2 N 0.61859(10) 0.71367(17) 0.79178(7)
O1 O 0.46592(9) 0.69070(17) 0.79870(8)
O2 O 0.54640(11) 0.77138(16) 0.89094(8)
S1 S 0.53772(3) 0.68320(5) 0.83832(2)
loop_
_geom_bond_atom_site_label_1
_geom_bond_atom_site_label_2
_geom_bond_site_symmetry_1
_geom_bond_site_symmetry_2
C1 H1 1_555 1_555
H2 C1 1_555 1_555
H3 C1 1_555 1_555
C2 C1 1_555 1_555
C3 C2 1_555 1_555
H4 C3 1_555 1_555
C4 C3 1_555 1_555
H5 C4 1_555 1_555
C5 C4 1_555 1_555
C6 C5 1_555 1_555
H6 C6 1_555 1_555
C7 C2 1_555 1_555
H7 C7 1_555 1_555
C8 C5 1_555 1_555
C9 C8 1_555 1_555
H8 C9 1_555 1_555
H9 C9 1_555 1_555
C10 C9 1_555 1_555
H10 C10 1_555 1_555
C11 C10 1_555 1_555
H11 C11 1_555 1_555
H12 C11 1_555 1_555
H13 C11 1_555 1_555
C12 C13 1_555 1_555
C13 H14 1_555 1_555
C14 C13 1_555 1_555
H15 C14 1_555 1_555
C15 C14 1_555 1_555
C16 C15 1_555 1_555
H16 C16 1_555 1_555
C17 C12 1_555 1_555
H17 C17 1_555 1_555
C18 C15 1_555 1_555
H18 C18 1_555 1_555
H19 C18 1_555 1_555
H20 C18 1_555 1_555
N1 C8 1_555 1_555
N2 C10 1_555 1_555
O1 S1 1_555 1_555
O2 S1 1_555 1_555
S1 C12 1_555 1_555
C6 C7 1_555 1_555
C16 C17 1_555 1_555
N1 N2 1_555 1_555
N2 S1 1_555 1_555

#END
