
#######################################################################
#
#                 Cambridge Crystallographic Data Centre
#                                CCDC 
#
#######################################################################
#
# If this CIF has been generated from an entry in the Cambridge 
# Structural Database, then it will include bibliographic, chemical, 
# crystal, experimental, refinement or atomic coordinate data resulting 
# from the CCDC's data processing and validation procedures.
#
#######################################################################

data_DOMDOY
_chemical_compound_source        'Plectranthus Coesta'
_chemical_name_common            'Plecostonol methanol solvate'
_chemical_formula_moiety         'C20 H28 O5,C1 H4 O1'
_chemical_name_systematic        
'ent-3\b,20\b-Epoxy-3\a,7\b,14\a-trihydroxykaur-16-en-15-one methanol solvate'
_symmetry_cell_setting           orthorhombic
_symmetry_space_group_name_H-M   'P 21 21 21'
_symmetry_Int_Tables_number      19
_space_group_name_Hall           'P 2ac 2ab'
loop_
_symmetry_equiv_pos_site_id
_symmetry_equiv_pos_as_xyz
1 x,y,z
2 1/2+x,1/2-y,-z
3 -x,1/2+y,1/2-z
4 1/2-x,-y,1/2+z
_cell_length_a                   10.472(1)
_cell_length_b                   11.132(1)
_cell_length_c                   16.405(2)
_cell_angle_alpha                90
_cell_angle_beta                 90
_cell_angle_gamma                90
_cell_volume                     1912.4
_exptl_crystal_colour            white
_chemical_melting_point          246-248deg.C
_cell_formula_units_Z            4
loop_
_atom_site_label
_atom_site_type_symbol
_atom_site_fract_x
_atom_site_fract_y
_atom_site_fract_z
C1 C 0.3984(8) -0.3175(8) 0.6217(7)
C2 C 0.5342(8) -0.3220(9) 0.5890(8)
C3 C 0.6081(7) -0.2139(8) 0.6209(6)
C4 C 0.5567(7) -0.0948(8) 0.5856(6)
C5 C 0.4092(8) -0.1005(8) 0.5947(5)
C6 C 0.3467(8) 0.0243(8) 0.6086(6)
C7 C 0.2053(7) 0.0132(7) 0.6126(6)
C8 C 0.1662(8) -0.0595(8) 0.6866(5)
C9 C 0.2223(7) -0.1891(8) 0.6789(5)
C10 C 0.3698(7) -0.1950(8) 0.6585(5)
C11 C 0.1780(8) -0.2712(8) 0.7482(6)
C12 C 0.1706(10) -0.2132(10) 0.8318(6)
C13 C 0.1104(9) -0.0863(9) 0.8272(6)
C14 C 0.1973(9) -0.0069(9) 0.7718(6)
C15 C 0.0203(7) -0.0799(7) 0.6933(5)
C16 C -0.0111(7) -0.0896(7) 0.7810(5)
C17 C -0.1349(8) -0.1030(7) 0.8084(5)
C18 C 0.5885(10) -0.0810(10) 0.4953(6)
C19 C 0.6208(8) 0.0106(8) 0.6305(6)
C20 C 0.4593(7) -0.1826(7) 0.7333(5)
O1 O 0.7378(4) -0.2355(5) 0.6083(3)
O2 O 0.5897(4) -0.2127(5) 0.7087(3)
O3 O 0.1454(5) 0.1311(5) 0.6124(4)
O4 O 0.1517(5) 0.1151(5) 0.7732(4)
O5 O -0.0503(5) -0.0881(5) 0.6349(3)
C21 C -0.0819(10) 0.1448(10) 0.4549(6)
O6 O 0.0297(8) 0.2129(9) 0.4700(5)
loop_
_geom_bond_atom_site_label_1
_geom_bond_atom_site_label_2
_geom_bond_site_symmetry_1
_geom_bond_site_symmetry_2
C1 C2 1_555 1_555
C2 C3 1_555 1_555
C3 C4 1_555 1_555
C4 C5 1_555 1_555
C5 C6 1_555 1_555
C6 C7 1_555 1_555
C7 C8 1_555 1_555
C8 C9 1_555 1_555
C9 C10 1_555 1_555
C10 C1 1_555 1_555
C11 C9 1_555 1_555
C12 C11 1_555 1_555
C13 C12 1_555 1_555
C14 C8 1_555 1_555
C15 C8 1_555 1_555
C16 C13 1_555 1_555
C17 C16 1_555 1_555
C18 C4 1_555 1_555
C19 C4 1_555 1_555
C20 C10 1_555 1_555
C21 O6 1_555 1_555
O1 C3 1_555 1_555
O2 C3 1_555 1_555
O3 C7 1_555 1_555
O4 C14 1_555 1_555
O5 C15 1_555 1_555
C5 C10 1_555 1_555
C13 C14 1_555 1_555
C15 C16 1_555 1_555
C20 O2 1_555 1_555

#END
