
#######################################################################
#
#                 Cambridge Crystallographic Data Centre
#                                CCDC 
#
#######################################################################
#
# If this CIF has been generated from an entry in the Cambridge 
# Structural Database, then it will include bibliographic, chemical, 
# crystal, experimental, refinement or atomic coordinate data resulting 
# from the CCDC's data processing and validation procedures.
#
#######################################################################

data_DOMVAE
_chemical_formula_moiety         'C43 H37 B1 F15 Li1 P4'
_chemical_name_systematic        
(2-(2,4,6-tri-t-butylphenyl)-4-(tris(pentafluorophenyl)-\l^5^-boranyl)bicyclo[1.1.0]tetraphosphane)-(toluene)-lithium
_symmetry_cell_setting           monoclinic
_symmetry_space_group_name_H-M   'P 21/c'
_symmetry_Int_Tables_number      14
_space_group_name_Hall           '-P 2ybc'
loop_
_symmetry_equiv_pos_site_id
_symmetry_equiv_pos_as_xyz
1 x,y,z
2 -x,1/2+y,1/2-z
3 -x,-y,-z
4 x,1/2-y,1/2+z
_cell_length_a                   14.0824(7)
_cell_length_b                   17.3811(5)
_cell_length_c                   18.3782(9)
_cell_angle_alpha                90
_cell_angle_beta                 101.043(2)
_cell_angle_gamma                90
_cell_volume                     4415.09
_exptl_crystal_colour            colorless
_exptl_crystal_description       needle
_cell_formula_units_Z            4
loop_
_atom_site_label
_atom_site_type_symbol
_atom_site_fract_x
_atom_site_fract_y
_atom_site_fract_z
P1 P 0.40877(3) 0.68320(3) 0.44963(2)
P2 P 0.35182(3) 0.79699(3) 0.47493(2)
P3 P 0.41055(3) 0.78386(3) 0.37478(3)
P4 P 0.25308(3) 0.76907(3) 0.37012(3)
F1 F 0.33239(8) 0.95144(6) 0.25487(6)
F2 F 0.46430(9) 1.05059(7) 0.31870(7)
F3 F 0.47409(9) 1.09424(7) 0.46265(7)
F4 F 0.34742(9) 1.03290(8) 0.54168(6)
F5 F 0.21345(8) 0.93296(7) 0.47968(6)
F6 F 0.12723(9) 0.99959(7) 0.23111(6)
F7 F 0.07576(9) 1.00154(8) 0.08365(7)
F8 F 0.08023(11) 0.87007(9) 0.00376(7)
F9 F 0.13960(11) 0.73601(8) 0.07617(7)
F10 F 0.19140(9) 0.73218(7) 0.22137(6)
F11 F 0.04939(8) 0.74137(7) 0.32658(7)
F12 F -0.12065(10) 0.74502(9) 0.36786(9)
F13 F -0.19353(10) 0.88021(10) 0.40906(9)
F14 F -0.08305(10) 1.01099(9) 0.41676(8)
F15 F 0.08544(9) 1.00921(7) 0.37557(7)
C1 C 0.53248(12) 0.68224(10) 0.50800(9)
C2 C 0.54577(12) 0.70073(10) 0.58500(9)
C3 C 0.63610(13) 0.72808(11) 0.61999(10)
H1 H 0.6441 0.7434 0.6704
C4 C 0.71509(12) 0.73418(10) 0.58500(9)
C5 C 0.70337(12) 0.70430(10) 0.51391(10)
H2 H 0.7580 0.7031 0.4906
C6 C 0.61572(12) 0.67590(10) 0.47476(9)
C7 C 0.47111(13) 0.68797(11) 0.63674(9)
C8 C 0.52187(14) 0.63887(12) 0.70347(10)
H3 H 0.5821 0.6641 0.7272
H4 H 0.5365 0.5878 0.6860
H5 H 0.4791 0.6337 0.7394
C9 C 0.44067(14) 0.76511(11) 0.66653(10)
H6 H 0.4076 0.7966 0.6251
H7 H 0.4982 0.7924 0.6924
H8 H 0.3969 0.7555 0.7010
C10 C 0.38015(14) 0.64150(12) 0.60335(10)
H9 H 0.3478 0.6242 0.6432
H10 H 0.3988 0.5967 0.5769
H11 H 0.3359 0.6740 0.5687
C11 C 0.81359(13) 0.76443(11) 0.62607(10)
C12 C 0.8708(2) 0.8020(2) 0.57204(15)
H12 H 0.8322 0.8434 0.5448
H13 H 0.8853 0.7633 0.5370
H14 H 0.9314 0.8233 0.6000
C13 C 0.80331(17) 0.82567(15) 0.68284(15)
H15 H 0.7624 0.8675 0.6586
H16 H 0.8673 0.8460 0.7047
H17 H 0.7735 0.8031 0.7219
C14 C 0.87241(19) 0.69716(15) 0.66379(18)
H18 H 0.9367 0.7153 0.6879
H19 H 0.8791 0.6580 0.6267
H20 H 0.8393 0.6748 0.7011
C15 C 0.62056(13) 0.63707(11) 0.39930(10)
C16 C 0.53237(14) 0.58718(13) 0.36652(11)
H21 H 0.4781 0.6205 0.3450
H22 H 0.5141 0.5556 0.4058
H23 H 0.5488 0.5537 0.3279
C17 C 0.63601(15) 0.69798(14) 0.34222(11)
H24 H 0.6411 0.6727 0.2955
H25 H 0.6957 0.7265 0.3610
H26 H 0.5811 0.7336 0.3338
C18 C 0.70806(15) 0.58148(13) 0.41034(11)
H27 H 0.7117 0.5568 0.3630
H28 H 0.7001 0.5421 0.4468
H29 H 0.7677 0.6104 0.4281
C19 C 0.26278(12) 0.93725(10) 0.36272(9)
C20 C 0.33086(13) 0.97002(10) 0.32640(10)
C21 C 0.40079(13) 1.02189(11) 0.35823(11)
C22 C 0.40592(14) 1.04425(11) 0.43049(11)
C23 C 0.34129(14) 1.01349(11) 0.46998(10)
C24 C 0.27272(13) 0.96161(11) 0.43623(10)
C25 C 0.16261(12) 0.86617(11) 0.23562(10)
C26 C 0.13123(13) 0.93215(11) 0.19522(10)
C27 C 0.10404(14) 0.93485(13) 0.11874(11)
C28 C 0.10621(15) 0.86877(14) 0.07818(11)
C29 C 0.13599(15) 0.80133(13) 0.11434(11)
C30 C 0.16299(14) 0.80170(11) 0.19119(10)
C31 C 0.08104(13) 0.87402(11) 0.35287(10)
C32 C 0.02152(13) 0.80999(12) 0.35088(11)
C33 C -0.06828(15) 0.81033(14) 0.37068(12)
C34 C -0.10482(15) 0.87804(15) 0.39212(13)
C35 C -0.04998(15) 0.94378(14) 0.39472(12)
C36 C 0.03949(14) 0.94097(12) 0.37412(11)
B1 B 0.18696(14) 0.86957(12) 0.32718(11)
Li1 Li 0.2449(3) 0.6252(2) 0.3706(2)
C37 C 0.23228(16) 0.54519(13) 0.25756(13)
C38 C 0.28401(19) 0.50488(14) 0.31729(17)
H30 H 0.347(2) 0.4902(17) 0.3166(17)
C39 C 0.2456(2) 0.48749(14) 0.37892(17)
H31 H 0.282(2) 0.4604(18) 0.4170(17)
C40 C 0.1537(2) 0.51177(14) 0.38353(15)
H32 H 0.126(2) 0.5007(17) 0.4275(17)
C41 C 0.10021(17) 0.55233(14) 0.32480(14)
H33 H 0.036(2) 0.5689(15) 0.3236(14)
C42 C 0.13880(16) 0.56823(13) 0.26230(13)
H34 H 0.1022(18) 0.5977(14) 0.2224(14)
C43 C 0.2760(2) 0.56363(18) 0.19058(17)
H35 H 0.3397 0.5872 0.2068
H36 H 0.2336 0.5994 0.1582
H37 H 0.2829 0.5161 0.1633
loop_
_geom_bond_atom_site_label_1
_geom_bond_atom_site_label_2
_geom_bond_site_symmetry_1
_geom_bond_site_symmetry_2
P1 P2 1_555 1_555
P2 P3 1_555 1_555
P3 P1 1_555 1_555
P4 P2 1_555 1_555
F1 C20 1_555 1_555
F2 C21 1_555 1_555
F3 C22 1_555 1_555
F4 C23 1_555 1_555
F5 C24 1_555 1_555
F6 C26 1_555 1_555
F7 C27 1_555 1_555
F8 C28 1_555 1_555
F9 C29 1_555 1_555
F10 C30 1_555 1_555
F11 C32 1_555 1_555
F12 C33 1_555 1_555
F13 C34 1_555 1_555
F14 C35 1_555 1_555
F15 C36 1_555 1_555
C1 P1 1_555 1_555
C2 C1 1_555 1_555
C3 C2 1_555 1_555
H1 C3 1_555 1_555
C4 C3 1_555 1_555
C5 C4 1_555 1_555
H2 C5 1_555 1_555
C6 C1 1_555 1_555
C7 C2 1_555 1_555
C8 C7 1_555 1_555
H3 C8 1_555 1_555
H4 C8 1_555 1_555
H5 C8 1_555 1_555
C9 C7 1_555 1_555
H6 C9 1_555 1_555
H7 C9 1_555 1_555
H8 C9 1_555 1_555
C10 C7 1_555 1_555
H9 C10 1_555 1_555
H10 C10 1_555 1_555
H11 C10 1_555 1_555
C11 C4 1_555 1_555
C12 C11 1_555 1_555
H12 C12 1_555 1_555
H13 C12 1_555 1_555
H14 C12 1_555 1_555
C13 C11 1_555 1_555
H15 C13 1_555 1_555
H16 C13 1_555 1_555
H17 C13 1_555 1_555
C14 C11 1_555 1_555
H18 C14 1_555 1_555
H19 C14 1_555 1_555
H20 C14 1_555 1_555
C15 C6 1_555 1_555
C16 C15 1_555 1_555
H21 C16 1_555 1_555
H22 C16 1_555 1_555
H23 C16 1_555 1_555
C17 C15 1_555 1_555
H24 C17 1_555 1_555
H25 C17 1_555 1_555
H26 C17 1_555 1_555
C18 C15 1_555 1_555
H27 C18 1_555 1_555
H28 C18 1_555 1_555
H29 C18 1_555 1_555
C19 C20 1_555 1_555
C20 C21 1_555 1_555
C21 C22 1_555 1_555
C22 C23 1_555 1_555
C23 C24 1_555 1_555
C24 C19 1_555 1_555
C25 C26 1_555 1_555
C26 C27 1_555 1_555
C27 C28 1_555 1_555
C28 C29 1_555 1_555
C29 C30 1_555 1_555
C30 C25 1_555 1_555
C31 C32 1_555 1_555
C32 C33 1_555 1_555
C33 C34 1_555 1_555
C34 C35 1_555 1_555
C35 C36 1_555 1_555
C36 C31 1_555 1_555
B1 P4 1_555 1_555
Li1 P1 1_555 1_555
C37 Li1 1_555 1_555
C38 Li1 1_555 1_555
H30 C38 1_555 1_555
C39 Li1 1_555 1_555
H31 C39 1_555 1_555
C40 Li1 1_555 1_555
H32 C40 1_555 1_555
C41 Li1 1_555 1_555
H33 C41 1_555 1_555
C42 Li1 1_555 1_555
H34 C42 1_555 1_555
C43 C37 1_555 1_555
H35 C43 1_555 1_555
H36 C43 1_555 1_555
H37 C43 1_555 1_555
P3 P4 1_555 1_555
P4 Li1 1_555 1_555
C5 C6 1_555 1_555
C19 B1 1_555 1_555
C25 B1 1_555 1_555
C31 B1 1_555 1_555
C37 C38 1_555 1_555
C37 C42 1_555 1_555
C38 C39 1_555 1_555
C39 C40 1_555 1_555
C40 C41 1_555 1_555
C41 C42 1_555 1_555

#END
