
#######################################################################
#
#                 Cambridge Crystallographic Data Centre
#                                CCDC 
#
#######################################################################
#
# If this CIF has been generated from an entry in the Cambridge 
# Structural Database, then it will include bibliographic, chemical, 
# crystal, experimental, refinement or atomic coordinate data resulting 
# from the CCDC's data processing and validation procedures.
#
#######################################################################

data_DOMZAI
_chemical_formula_moiety         'C72 H74 N6 Si2,0.5(C7 H8)'
_chemical_name_systematic        
"4,4'-(5,12-bis((triisopropylsilyl)ethynyl)pyrazino[2,3-b]phenazine-2,3-diyl)bis(N,N-diphenylaniline) toluene solvate"
_symmetry_cell_setting           triclinic
_symmetry_space_group_name_H-M   'P -1'
_symmetry_Int_Tables_number      2
_space_group_name_Hall           '-P 1'
loop_
_symmetry_equiv_pos_site_id
_symmetry_equiv_pos_as_xyz
1 x,y,z
2 -x,-y,-z
_cell_length_a                   13.7210(18)
_cell_length_b                   14.4084(19)
_cell_length_c                   18.143(2)
_cell_angle_alpha                99.797(3)
_cell_angle_beta                 100.079(2)
_cell_angle_gamma                112.957(2)
_cell_volume                     3137.31
_exptl_crystal_colour            violet
_exptl_crystal_description       prism
_cell_formula_units_Z            2
loop_
_atom_site_label
_atom_site_type_symbol
_atom_site_fract_x
_atom_site_fract_y
_atom_site_fract_z
N1 N 0.74818(17) 0.17823(17) 0.42107(12)
C1 C 0.7843(2) 0.1280(2) 0.46419(14)
C2 C 0.8141(2) 0.1629(2) 0.54923(14)
N2 N 0.80775(17) 0.24685(17) 0.58369(12)
C3 C 0.7703(2) 0.3003(2) 0.53944(14)
C4 C 0.7569(2) 0.3857(2) 0.57769(14)
C5 C 0.7126(2) 0.4391(2) 0.53275(15)
N3 N 0.70173(18) 0.52172(17) 0.57076(12)
C6 C 0.6560(2) 0.5677(2) 0.52665(16)
C7 C 0.6442(2) 0.6568(2) 0.56353(17)
H1 H 0.6693 0.6833 0.6184
C8 C 0.5968(2) 0.7039(2) 0.51985(17)
H2 H 0.5907 0.7644 0.5444
C9 C 0.5564(2) 0.6635(2) 0.43811(18)
H3 H 0.5218 0.6964 0.4090
C10 C 0.5660(2) 0.5795(2) 0.40074(17)
H4 H 0.5378 0.5537 0.3460
C11 C 0.6184(2) 0.5289(2) 0.44330(16)
N4 N 0.63078(17) 0.44828(17) 0.40573(13)
C12 C 0.6795(2) 0.4030(2) 0.44937(15)
C13 C 0.6946(2) 0.3162(2) 0.41194(14)
C14 C 0.7385(2) 0.2652(2) 0.45704(14)
C15 C 0.7896(2) 0.0328(2) 0.42337(14)
C16 C 0.6946(2) -0.0463(2) 0.37070(15)
H5 H 0.6302 -0.0356 0.3585
C17 C 0.6934(2) -0.1398(2) 0.33630(15)
H6 H 0.6272 -0.1941 0.3024
C18 C 0.7880(2) -0.1556(2) 0.35065(14)
C19 C 0.8855(2) -0.0738(2) 0.39911(14)
H7 H 0.9518 -0.0817 0.4069
C20 C 0.8853(2) 0.0181(2) 0.43554(14)
H8 H 0.9515 0.0725 0.4695
N5 N 0.78456(18) -0.25288(17) 0.31573(12)
C21 C 0.8308(2) -0.3049(2) 0.35998(15)
C22 C 0.8523(2) -0.2797(2) 0.44054(15)
H9 H 0.8334 -0.2287 0.4664
C23 C 0.9011(2) -0.3288(2) 0.48327(17)
H10 H 0.9170 -0.3097 0.5383
C24 C 0.9269(2) -0.4047(2) 0.44704(19)
H11 H 0.9602 -0.4380 0.4767
C25 C 0.9040(2) -0.4319(2) 0.36708(19)
H12 H 0.9207 -0.4849 0.3417
C26 C 0.8567(2) -0.3826(2) 0.32361(17)
H13 H 0.8418 -0.4016 0.2687
C27 C 0.7241(2) -0.2997(2) 0.23606(15)
C28 C 0.6467(2) -0.4029(2) 0.21043(15)
H14 H 0.6355 -0.4461 0.2453
C29 C 0.5852(2) -0.4432(2) 0.13273(16)
H15 H 0.5323 -0.5141 0.1147
C30 C 0.6008(2) -0.3805(2) 0.08217(16)
H16 H 0.5575 -0.4079 0.0298
C31 C 0.6791(2) -0.2783(2) 0.10762(16)
H17 H 0.6907 -0.2357 0.0724
C32 C 0.7411(2) -0.2373(2) 0.18427(15)
H18 H 0.7950 -0.1668 0.2015
C33 C 0.8516(2) 0.1093(2) 0.60249(14)
C34 C 0.9224(2) 0.1736(2) 0.67548(14)
H19 H 0.9457 0.2469 0.6862
C35 C 0.9586(2) 0.1321(2) 0.73161(14)
H20 H 1.0079 0.1774 0.7798
C36 C 0.9239(2) 0.0248(2) 0.71858(15)
C37 C 0.8532(2) -0.0405(2) 0.64620(14)
H21 H 0.8294 -0.1139 0.6358
C38 C 0.8180(2) 0.0021(2) 0.58968(15)
H22 H 0.7698 -0.0432 0.5411
N6 N 0.95949(19) -0.01842(18) 0.77577(12)
C39 C 0.9965(2) 0.0366(2) 0.85546(15)
C40 C 0.9411(2) 0.0895(2) 0.88685(16)
H23 H 0.8776 0.0879 0.8547
C41 C 0.9773(3) 0.1441(2) 0.96390(16)
H24 H 0.9395 0.1809 0.9844
C42 C 1.0691(3) 0.1455(2) 1.01153(17)
H25 H 1.0945 0.1836 1.0646
C43 C 1.1230(3) 0.0916(2) 0.98185(17)
H26 H 1.1849 0.0913 1.0147
C44 C 1.0875(2) 0.0375(2) 0.90395(16)
H27 H 1.1256 0.0010 0.8837
C45 C 0.9732(2) -0.1117(2) 0.75199(15)
C46 C 1.0588(2) -0.1086(2) 0.72044(15)
H28 H 1.1098 -0.0440 0.7158
C47 C 1.0706(2) -0.1990(2) 0.69553(15)
H29 H 1.1295 -0.1966 0.6740
C48 C 0.9957(2) -0.2928(2) 0.70233(15)
H30 H 1.0028 -0.3552 0.6849
C49 C 0.9113(2) -0.2959(2) 0.73416(16)
H31 H 0.8607 -0.3606 0.7390
C50 C 0.8990(2) -0.2058(2) 0.75931(15)
H32 H 0.8403 -0.2084 0.7813
C51 C 0.7806(2) 0.4129(2) 0.66040(15)
C52 C 0.7958(2) 0.4296(2) 0.72988(15)
Si1 Si 0.80900(6) 0.44788(6) 0.83457(4)
C53 C 0.7705(3) 0.5564(2) 0.86798(17)
H33 H 0.8357 0.6228 0.8727
C54 C 0.6734(3) 0.5573(3) 0.8112(2)
H34 H 0.6064 0.4946 0.8057
H35 H 0.6886 0.5584 0.7605
H36 H 0.6633 0.6196 0.8314
C55 C 0.7525(3) 0.5615(3) 0.94944(18)
H37 H 0.7451 0.6257 0.9685
H38 H 0.8155 0.5615 0.9846
H39 H 0.6856 0.5008 0.9472
C56 C 0.9556(2) 0.4827(2) 0.88701(16)
H40 H 0.9527 0.4533 0.9331
C57 C 1.0275(3) 0.6007(2) 0.91778(17)
H41 H 1.1013 0.6134 0.9459
H42 H 0.9949 0.6314 0.9529
H43 H 1.0323 0.6327 0.8742
C58 C 1.0118(3) 0.4330(3) 0.83740(18)
H44 H 1.0189 0.4620 0.7924
H45 H 0.9674 0.3572 0.8196
H46 H 1.0848 0.4483 0.8686
C59 C 0.7137(2) 0.3200(2) 0.84802(16)
H47 H 0.7160 0.3320 0.9044
C60 C 0.5940(2) 0.2826(2) 0.80308(19)
H48 H 0.5888 0.2737 0.7476
H49 H 0.5678 0.3344 0.8211
H50 H 0.5487 0.2157 0.8119
C61 C 0.7514(3) 0.2342(3) 0.8285(2)
H51 H 0.6994 0.1692 0.8361
H52 H 0.8244 0.2553 0.8627
H53 H 0.7546 0.2230 0.7744
C62 C 0.6591(2) 0.2774(2) 0.32863(15)
C63 C 0.6279(2) 0.2424(2) 0.25978(16)
Si2 Si 0.56065(6) 0.17410(6) 0.15650(4)
C64 C 0.6258(2) 0.0870(2) 0.12416(15)
H54 H 0.5803 0.0423 0.0709
C65 C 0.7436(2) 0.1472(2) 0.11816(16)
H55 H 0.7897 0.1953 0.1687
H56 H 0.7423 0.1870 0.0795
H57 H 0.7735 0.0977 0.1024
C66 C 0.6230(3) 0.0131(2) 0.17660(18)
H58 H 0.6565 -0.0321 0.1581
H59 H 0.5467 -0.0301 0.1751
H60 H 0.6641 0.0543 0.2300
C67 C 0.5737(2) 0.2745(2) 0.09960(15)
H61 H 0.5183 0.3013 0.1084
C68 C 0.5464(3) 0.2288(3) 0.01153(16)
H62 H 0.5518 0.2839 -0.0149
H63 H 0.4716 0.1726 -0.0069
H64 H 0.5984 0.2009 0.0003
C69 C 0.6865(3) 0.3690(2) 0.12840(18)
H65 H 0.7435 0.3462 0.1206
H66 H 0.7005 0.4005 0.1837
H67 H 0.6877 0.4206 0.0992
C70 C 0.4138(2) 0.0922(2) 0.15423(16)
H68 H 0.4165 0.0520 0.1938
C71 C 0.3475(2) 0.0107(2) 0.07567(17)
H69 H 0.2723 -0.0300 0.0779
H70 H 0.3822 -0.0362 0.0648
H71 H 0.3459 0.0465 0.0344
C72 C 0.3546(3) 0.1585(3) 0.17853(19)
H72 H 0.3470 0.1969 0.1399
H73 H 0.3974 0.2081 0.2292
H74 H 0.2817 0.1128 0.1820
C73? C 0.4468(6) 0.9897(7) 0.4006(4)
H75? H 0.4197 0.9900 0.3488
C74? C 0.4965(6) 1.0825(5) 0.4592(6)
H76? H 0.5034 1.1461 0.4474
C75? C 0.5361(6) 1.0821(4) 0.5350(5)
H77? H 0.5701 1.1454 0.5751
C76? C 0.5260(5) 0.9889(6) 0.5523(2)
C77? C 0.4763(4) 0.8962(4) 0.4937(3)
H78? H 0.4693 0.8325 0.5056
C78? C 0.4367(4) 0.8966(5) 0.4179(2)
H79? H 0.4027 0.8332 0.3779
C79? C 0.5643(8) 0.9881(10) 0.6353(5)
H80? H 0.5922 1.0587 0.6692
H81? H 0.6228 0.9649 0.6400
H82? H 0.5026 0.9402 0.6505
loop_
_geom_bond_atom_site_label_1
_geom_bond_atom_site_label_2
_geom_bond_site_symmetry_1
_geom_bond_site_symmetry_2
N1 C1 1_555 1_555
C1 C2 1_555 1_555
C2 N2 1_555 1_555
N2 C3 1_555 1_555
C3 C4 1_555 1_555
C4 C5 1_555 1_555
C5 N3 1_555 1_555
N3 C6 1_555 1_555
C6 C7 1_555 1_555
C7 H1 1_555 1_555
C8 C7 1_555 1_555
H2 C8 1_555 1_555
C9 C8 1_555 1_555
H3 C9 1_555 1_555
C10 C9 1_555 1_555
H4 C10 1_555 1_555
C11 C6 1_555 1_555
N4 C11 1_555 1_555
C12 C5 1_555 1_555
C13 C12 1_555 1_555
C14 N1 1_555 1_555
C15 C1 1_555 1_555
C16 C15 1_555 1_555
H5 C16 1_555 1_555
C17 C16 1_555 1_555
H6 C17 1_555 1_555
C18 C17 1_555 1_555
C19 C18 1_555 1_555
H7 C19 1_555 1_555
C20 C15 1_555 1_555
H8 C20 1_555 1_555
N5 C18 1_555 1_555
C21 N5 1_555 1_555
C22 C21 1_555 1_555
H9 C22 1_555 1_555
C23 C22 1_555 1_555
H10 C23 1_555 1_555
C24 C23 1_555 1_555
H11 C24 1_555 1_555
C25 C24 1_555 1_555
H12 C25 1_555 1_555
C26 C21 1_555 1_555
H13 C26 1_555 1_555
C27 N5 1_555 1_555
C28 C27 1_555 1_555
H14 C28 1_555 1_555
C29 C28 1_555 1_555
H15 C29 1_555 1_555
C30 C29 1_555 1_555
H16 C30 1_555 1_555
C31 C30 1_555 1_555
H17 C31 1_555 1_555
C32 C27 1_555 1_555
H18 C32 1_555 1_555
C33 C2 1_555 1_555
C34 C33 1_555 1_555
H19 C34 1_555 1_555
C35 C34 1_555 1_555
H20 C35 1_555 1_555
C36 C35 1_555 1_555
C37 C36 1_555 1_555
H21 C37 1_555 1_555
C38 C33 1_555 1_555
H22 C38 1_555 1_555
N6 C36 1_555 1_555
C39 N6 1_555 1_555
C40 C39 1_555 1_555
H23 C40 1_555 1_555
C41 C40 1_555 1_555
H24 C41 1_555 1_555
C42 C41 1_555 1_555
H25 C42 1_555 1_555
C43 C42 1_555 1_555
H26 C43 1_555 1_555
C44 C39 1_555 1_555
H27 C44 1_555 1_555
C45 N6 1_555 1_555
C46 C45 1_555 1_555
H28 C46 1_555 1_555
C47 C46 1_555 1_555
H29 C47 1_555 1_555
C48 C47 1_555 1_555
H30 C48 1_555 1_555
C49 C48 1_555 1_555
H31 C49 1_555 1_555
C50 C45 1_555 1_555
H32 C50 1_555 1_555
C51 C4 1_555 1_555
C52 C51 1_555 1_555
Si1 C52 1_555 1_555
C53 Si1 1_555 1_555
H33 C53 1_555 1_555
C54 C53 1_555 1_555
H34 C54 1_555 1_555
H35 C54 1_555 1_555
H36 C54 1_555 1_555
C55 C53 1_555 1_555
H37 C55 1_555 1_555
H38 C55 1_555 1_555
H39 C55 1_555 1_555
C56 Si1 1_555 1_555
H40 C56 1_555 1_555
C57 C56 1_555 1_555
H41 C57 1_555 1_555
H42 C57 1_555 1_555
H43 C57 1_555 1_555
C58 C56 1_555 1_555
H44 C58 1_555 1_555
H45 C58 1_555 1_555
H46 C58 1_555 1_555
C59 Si1 1_555 1_555
H47 C59 1_555 1_555
C60 C59 1_555 1_555
H48 C60 1_555 1_555
H49 C60 1_555 1_555
H50 C60 1_555 1_555
C61 C59 1_555 1_555
H51 C61 1_555 1_555
H52 C61 1_555 1_555
H53 C61 1_555 1_555
C62 C13 1_555 1_555
C63 C62 1_555 1_555
Si2 C63 1_555 1_555
C64 Si2 1_555 1_555
H54 C64 1_555 1_555
C65 C64 1_555 1_555
H55 C65 1_555 1_555
H56 C65 1_555 1_555
H57 C65 1_555 1_555
C66 C64 1_555 1_555
H58 C66 1_555 1_555
H59 C66 1_555 1_555
H60 C66 1_555 1_555
C67 Si2 1_555 1_555
H61 C67 1_555 1_555
C68 C67 1_555 1_555
H62 C68 1_555 1_555
H63 C68 1_555 1_555
H64 C68 1_555 1_555
C69 C67 1_555 1_555
H65 C69 1_555 1_555
H66 C69 1_555 1_555
H67 C69 1_555 1_555
C70 Si2 1_555 1_555
H68 C70 1_555 1_555
C71 C70 1_555 1_555
H69 C71 1_555 1_555
H70 C71 1_555 1_555
H71 C71 1_555 1_555
C72 C70 1_555 1_555
H72 C72 1_555 1_555
H73 C72 1_555 1_555
H74 C72 1_555 1_555
C3 C14 1_555 1_555
C10 C11 1_555 1_555
N4 C12 1_555 1_555
C13 C14 1_555 1_555
C19 C20 1_555 1_555
C25 C26 1_555 1_555
C31 C32 1_555 1_555
C37 C38 1_555 1_555
C43 C44 1_555 1_555
C49 C50 1_555 1_555

#END
