
#######################################################################
#
#                 Cambridge Crystallographic Data Centre
#                                CCDC 
#
#######################################################################
#
# If this CIF has been generated from an entry in the Cambridge 
# Structural Database, then it will include bibliographic, chemical, 
# crystal, experimental, refinement or atomic coordinate data resulting 
# from the CCDC's data processing and validation procedures.
#
#######################################################################

data_DONBIT
_chemical_formula_moiety         'C20 H12 S3'
_chemical_name_systematic        2,6-diphenylbisthieno[3,2-b:2',3'-d]thiophene
_symmetry_cell_setting           monoclinic
_symmetry_space_group_name_H-M   'P 21/n'
_symmetry_Int_Tables_number      14
_space_group_name_Hall           '-P 2yn'
loop_
_symmetry_equiv_pos_site_id
_symmetry_equiv_pos_as_xyz
1 x,y,z
2 1/2-x,1/2+y,1/2-z
3 -x,-y,-z
4 1/2+x,1/2-y,1/2+z
_cell_length_a                   7.468(4)
_cell_length_b                   5.916(3)
_cell_length_c                   34.719(15)
_cell_angle_alpha                90
_cell_angle_beta                 94.01(4)
_cell_angle_gamma                90
_cell_volume                     1530.15
_exptl_crystal_colour            colorless
_exptl_crystal_description       prism
_cell_formula_units_Z            4
loop_
_atom_site_label
_atom_site_type_symbol
_atom_site_fract_x
_atom_site_fract_y
_atom_site_fract_z
C1 C 0.5200(18) 0.933(3) 0.3436(4)
C2 C 0.5289(18) 0.861(3) 0.3839(4)
C3 C 0.6136(19) 0.997(3) 0.4132(4)
H1 H 0.6680 1.1349 0.4063
C4 C 0.6198(19) 0.936(3) 0.4513(4)
H2 H 0.6775 1.0321 0.4703
C5 C 0.5419(19) 0.734(3) 0.4625(4)
H3 H 0.5459 0.6905 0.4889
C6 C 0.459(2) 0.598(3) 0.4341(4)
H4 H 0.4061 0.4595 0.4411
C7 C 0.4517(18) 0.661(3) 0.3960(4)
H5 H 0.3922 0.5653 0.3772
C8 C 0.5736(18) 1.133(3) 0.3275(4)
H6 H 0.6208 1.2591 0.3418
C9 C 0.5487(17) 1.123(2) 0.2874(4)
C10 C 0.4748(16) 0.930(2) 0.2715(3)
C11 C 0.4621(17) 0.931(2) 0.2313(4)
C12 C 0.5278(17) 1.125(2) 0.2159(4)
C13 C 0.5368(18) 1.128(3) 0.1758(4)
H7 H 0.5798 1.2521 0.1618
C14 C 0.4747(17) 0.926(2) 0.1590(4)
C15 C 0.4668(18) 0.857(3) 0.1193(4)
C16 C 0.545(2) 0.990(3) 0.0912(4)
H8 H 0.6071 1.1252 0.0988
C17 C 0.534(2) 0.928(3) 0.0531(4)
H9 H 0.5845 1.0236 0.0347
C18 C 0.4507(19) 0.730(3) 0.0409(4)
H10 H 0.4445 0.6864 0.0145
C19 C 0.375(2) 0.595(3) 0.0689(4)
H11 H 0.3181 0.4569 0.0612
C20 C 0.3820(19) 0.656(3) 0.1065(4)
H12 H 0.3287 0.5608 0.1246
S1 S 0.4350(5) 0.7403(7) 0.30799(11)
S2 S 0.5978(5) 1.3213(6) 0.25172(12)
S3 S 0.4066(5) 0.7375(7) 0.19432(11)
loop_
_geom_bond_atom_site_label_1
_geom_bond_atom_site_label_2
_geom_bond_site_symmetry_1
_geom_bond_site_symmetry_2
C1 C2 1_555 1_555
C2 C3 1_555 1_555
C3 H1 1_555 1_555
C4 C3 1_555 1_555
H2 C4 1_555 1_555
C5 C4 1_555 1_555
H3 C5 1_555 1_555
C6 C5 1_555 1_555
H4 C6 1_555 1_555
C7 C2 1_555 1_555
H5 C7 1_555 1_555
C8 C1 1_555 1_555
H6 C8 1_555 1_555
C9 C8 1_555 1_555
C10 C9 1_555 1_555
C11 C10 1_555 1_555
C12 C11 1_555 1_555
C13 C12 1_555 1_555
H7 C13 1_555 1_555
C14 C13 1_555 1_555
C15 C14 1_555 1_555
C16 C15 1_555 1_555
H8 C16 1_555 1_555
C17 C16 1_555 1_555
H9 C17 1_555 1_555
C18 C17 1_555 1_555
H10 C18 1_555 1_555
C19 C18 1_555 1_555
H11 C19 1_555 1_555
C20 C15 1_555 1_555
H12 C20 1_555 1_555
S1 C1 1_555 1_555
S2 C9 1_555 1_555
S3 C11 1_555 1_555
C6 C7 1_555 1_555
C10 S1 1_555 1_555
C12 S2 1_555 1_555
C14 S3 1_555 1_555
C19 C20 1_555 1_555

#END
