
#######################################################################
#
#                 Cambridge Crystallographic Data Centre
#                                CCDC 
#
#######################################################################
#
# If this CIF has been generated from an entry in the Cambridge 
# Structural Database, then it will include bibliographic, chemical, 
# crystal, experimental, refinement or atomic coordinate data resulting 
# from the CCDC's data processing and validation procedures.
#
#######################################################################

data_DONBEP
_chemical_formula_moiety         'C28 H14 S6'
_chemical_name_systematic        
6,6'-diphenyl-2,2'-bibisthieno[3,2-b:2',3'-d]thiophene
_symmetry_cell_setting           monoclinic
_symmetry_space_group_name_H-M   'P 21/n'
_symmetry_Int_Tables_number      14
_space_group_name_Hall           '-P 2yn'
loop_
_symmetry_equiv_pos_site_id
_symmetry_equiv_pos_as_xyz
1 x,y,z
2 1/2-x,1/2+y,1/2-z
3 -x,-y,-z
4 1/2+x,1/2-y,1/2+z
_cell_length_a                   5.9639(18)
_cell_length_b                   7.509(2)
_cell_length_c                   50.362(15)
_cell_angle_alpha                90
_cell_angle_beta                 92.826(7)
_cell_angle_gamma                90
_cell_volume                     2252.61
_exptl_crystal_colour            yellow
_exptl_crystal_description       prism
_cell_formula_units_Z            4
loop_
_atom_site_label
_atom_site_type_symbol
_atom_site_fract_x
_atom_site_fract_y
_atom_site_fract_z
C1 C 0.0285(15) 0.5650(14) 0.39158(17)
C2 C 0.1091(15) 0.5583(15) 0.41975(18)
C3 C -0.0193(16) 0.6377(15) 0.43889(19)
H1 H -0.1529 0.6950 0.4338
C4 C 0.0526(18) 0.6311(16) 0.4656(2)
H2 H -0.0369 0.6792 0.4784
C5 C 0.2579(18) 0.5528(16) 0.4733(2)
H3 H 0.3088 0.5537 0.4911
C6 C 0.384(2) 0.4744(16) 0.4544(2)
H4 H 0.5190 0.4180 0.4593
C7 C 0.3090(15) 0.4803(14) 0.42782(19)
H5 H 0.3971 0.4296 0.4151
C8 C -0.1763(16) 0.6211(14) 0.38097(16)
H6 H -0.2925 0.6620 0.3910
C9 C -0.1890(14) 0.6091(14) 0.35281(17)
C10 C 0.0058(15) 0.5383(14) 0.34215(17)
C11 C -0.0083(14) 0.5379(13) 0.31382(17)
C12 C -0.2083(13) 0.6071(14) 0.30332(17)
C13 C -0.2193(15) 0.6273(14) 0.27543(17)
H7 H -0.3418 0.6742 0.2656
C14 C -0.0276(15) 0.5690(13) 0.26472(18)
C15 C 0.0291(14) 0.5696(14) 0.23719(17)
C16 C 0.2215(16) 0.5129(13) 0.22648(18)
H8 H 0.3458 0.4688 0.2362
C17 C 0.2065(14) 0.5303(14) 0.19822(18)
C18 C 0.0076(14) 0.6017(15) 0.18820(17)
C19 C -0.0028(15) 0.5996(14) 0.15926(17)
C20 C 0.1889(15) 0.5298(14) 0.14901(19)
C21 C 0.1755(15) 0.5114(13) 0.12042(17)
H9 H 0.2898 0.4666 0.1104
C22 C -0.0284(14) 0.5690(14) 0.11001(16)
C23 C -0.1069(15) 0.5653(14) 0.08186(17)
C24 C 0.0125(17) 0.4820(15) 0.06293(19)
H10 H 0.1471 0.4259 0.0679
C25 C -0.0631(18) 0.4794(15) 0.0365(2)
H11 H 0.0211 0.4224 0.0239
C26 C -0.2616(16) 0.5606(16) 0.0287(2)
H12 H -0.3120 0.5592 0.0110
C27 C -0.3858(17) 0.6440(15) 0.04733(19)
H13 H -0.5208 0.6988 0.0421
C28 C -0.3105(17) 0.6467(15) 0.07384(19)
H14 H -0.3957 0.7028 0.0864
S1 S 0.2050(4) 0.4883(4) 0.36711(5)
S2 S -0.3891(4) 0.6663(4) 0.32825(5)
S3 S 0.1707(4) 0.4917(4) 0.28868(5)
S4 S -0.1701(4) 0.6470(4) 0.21281(4)
S5 S 0.3904(4) 0.4711(4) 0.17343(5)
S6 S -0.2036(4) 0.6464(4) 0.13434(5)
loop_
_geom_bond_atom_site_label_1
_geom_bond_atom_site_label_2
_geom_bond_site_symmetry_1
_geom_bond_site_symmetry_2
C1 C2 1_555 1_555
C2 C3 1_555 1_555
C3 H1 1_555 1_555
C4 C3 1_555 1_555
H2 C4 1_555 1_555
C5 C4 1_555 1_555
H3 C5 1_555 1_555
C6 C5 1_555 1_555
H4 C6 1_555 1_555
C7 C2 1_555 1_555
H5 C7 1_555 1_555
C8 C1 1_555 1_555
H6 C8 1_555 1_555
C9 C8 1_555 1_555
C10 C9 1_555 1_555
C11 C10 1_555 1_555
C12 C11 1_555 1_555
C13 C12 1_555 1_555
H7 C13 1_555 1_555
C14 C13 1_555 1_555
C15 C14 1_555 1_555
C16 C15 1_555 1_555
H8 C16 1_555 1_555
C17 C16 1_555 1_555
C18 C17 1_555 1_555
C19 C18 1_555 1_555
C20 C19 1_555 1_555
C21 C20 1_555 1_555
H9 C21 1_555 1_555
C22 C21 1_555 1_555
C23 C22 1_555 1_555
C24 C23 1_555 1_555
H10 C24 1_555 1_555
C25 C24 1_555 1_555
H11 C25 1_555 1_555
C26 C25 1_555 1_555
H12 C26 1_555 1_555
C27 C26 1_555 1_555
H13 C27 1_555 1_555
C28 C23 1_555 1_555
H14 C28 1_555 1_555
S1 C1 1_555 1_555
S2 C9 1_555 1_555
S3 C11 1_555 1_555
S4 C15 1_555 1_555
S5 C17 1_555 1_555
S6 C19 1_555 1_555
C6 C7 1_555 1_555
C10 S1 1_555 1_555
C12 S2 1_555 1_555
C14 S3 1_555 1_555
C18 S4 1_555 1_555
C20 S5 1_555 1_555
C22 S6 1_555 1_555
C27 C28 1_555 1_555

#END
