
#######################################################################
#
#                 Cambridge Crystallographic Data Centre
#                                CCDC 
#
#######################################################################
#
# If this CIF has been generated from an entry in the Cambridge 
# Structural Database, then it will include bibliographic, chemical, 
# crystal, experimental, refinement or atomic coordinate data resulting 
# from the CCDC's data processing and validation procedures.
#
#######################################################################

data_DONBOZ
_chemical_formula_moiety         'C28 H4 F10 S6'
_chemical_name_systematic        
6,6'-bis(pentafluorophenyl)-2,2'-bibisthieno[3,2-b:2',3'-d]thiophene
_symmetry_cell_setting           triclinic
_symmetry_space_group_name_H-M   'P -1'
_symmetry_Int_Tables_number      2
_space_group_name_Hall           '-P 1'
loop_
_symmetry_equiv_pos_site_id
_symmetry_equiv_pos_as_xyz
1 x,y,z
2 -x,-y,-z
_cell_length_a                   3.8338(5)
_cell_length_b                   5.8334(8)
_cell_length_c                   26.039(4)
_cell_angle_alpha                86.150(9)
_cell_angle_beta                 87.916(10)
_cell_angle_gamma                87.044(9)
_cell_volume                     579.935
_exptl_crystal_colour            red
_exptl_crystal_description       prism
_cell_formula_units_Z            1
loop_
_atom_site_label
_atom_site_type_symbol
_atom_site_fract_x
_atom_site_fract_y
_atom_site_fract_z
C1 C 0.9623(14) 0.0220(11) 0.0267(2)
C2 C 0.8047(15) 0.2137(11) 0.0468(2)
H1 H 0.7225 0.3428 0.0271
C3 C 0.7824(13) 0.1916(11) 0.1009(2)
C4 C 0.9159(14) -0.0170(11) 0.1220(2)
C5 C 0.8907(14) -0.0311(11) 0.1768(2)
C6 C 0.7364(15) 0.1690(11) 0.1957(2)
C7 C 0.7150(15) 0.1611(12) 0.2500(2)
H2 H 0.6159 0.2803 0.2685
C8 C 0.8544(15) -0.0390(12) 0.2727(2)
C9 C 0.8726(15) -0.1081(11) 0.3277(2)
C10 C 0.7454(18) 0.0389(12) 0.3646(2)
C11 C 0.762(2) -0.0212(15) 0.4162(3)
C12 C 0.910(2) -0.2293(15) 0.4340(3)
C13 C 1.040(2) -0.3788(13) 0.3982(3)
C14 C 1.0270(17) -0.3185(13) 0.3467(2)
S1 S 1.0788(4) -0.1890(3) 0.07478(6)
S2 S 0.6202(4) 0.3742(3) 0.14754(6)
S3 S 1.0115(4) -0.2270(3) 0.22617(6)
F1 F 0.580(2) 0.2440(14) 0.3501(3)
F2 F 0.622(2) 0.1263(16) 0.4486(3)
F3 F 0.930(3) -0.2844(18) 0.4826(3)
F4 F 1.199(2) -0.5758(15) 0.4130(3)
F5 F 1.1711(19) -0.4628(13) 0.3132(3)
C1A C 1.0377(14) -0.0220(11) -0.0267(2)
C2A C 1.1953(15) -0.2137(11) -0.0468(2)
H1A H 1.2775 -0.3428 -0.0271
C3A C 1.2176(13) -0.1916(11) -0.1009(2)
C4A C 1.0841(14) 0.0170(11) -0.1220(2)
C5A C 1.1093(14) 0.0311(11) -0.1768(2)
C6A C 1.2636(15) -0.1690(11) -0.1957(2)
C7A C 1.2850(15) -0.1611(12) -0.2500(2)
H2A H 1.3841 -0.2803 -0.2685
C8A C 1.1456(15) 0.0390(12) -0.2727(2)
C9A C 1.1274(15) 0.1081(11) -0.3277(2)
C10A C 1.2546(18) -0.0389(12) -0.3646(2)
C11A C 1.238(2) 0.0212(15) -0.4162(3)
C12A C 1.090(2) 0.2293(15) -0.4340(3)
C13A C 0.960(2) 0.3788(13) -0.3982(3)
C14A C 0.9730(17) 0.3185(13) -0.3467(2)
S1A S 0.9212(4) 0.1890(3) -0.07478(6)
S2A S 1.3798(4) -0.3742(3) -0.14754(6)
S3A S 0.9885(4) 0.2270(3) -0.22617(6)
F1A F 1.420(2) -0.2440(14) -0.3501(3)
F2A F 1.378(2) -0.1263(16) -0.4486(3)
F3A F 1.070(3) 0.2844(18) -0.4826(3)
F4A F 0.801(2) 0.5758(15) -0.4130(3)
F5A F 0.8289(19) 0.4628(13) -0.3132(3)
H3? H 0.6423 0.1838 0.3512
H4? H 0.6741 0.0907 0.4399
H5? H 0.9187 -0.2523 0.4703
H6? H 1.1422 -0.5283 0.4101
H7? H 1.1174 -0.4225 0.3213
loop_
_geom_bond_atom_site_label_1
_geom_bond_atom_site_label_2
_geom_bond_site_symmetry_1
_geom_bond_site_symmetry_2
C1 C2 1_555 1_555
C2 H1 1_555 1_555
C3 C2 1_555 1_555
C4 C3 1_555 1_555
C5 C4 1_555 1_555
C6 C5 1_555 1_555
C7 C6 1_555 1_555
H2 C7 1_555 1_555
C8 C7 1_555 1_555
C9 C8 1_555 1_555
C10 C9 1_555 1_555
C11 C10 1_555 1_555
C12 C11 1_555 1_555
C13 C12 1_555 1_555
C14 C9 1_555 1_555
S1 C1 1_555 1_555
S2 C3 1_555 1_555
S3 C5 1_555 1_555
F1 C10 1_555 1_555
F2 C11 1_555 1_555
F3 C12 1_555 1_555
F4 C13 1_555 1_555
F5 C14 1_555 1_555
C1A C1 1_555 1_555
C2A C1A 1_555 1_555
H1A C2A 1_555 1_555
C3A C2A 1_555 1_555
C4A C3A 1_555 1_555
C5A C4A 1_555 1_555
C6A C5A 1_555 1_555
C7A C6A 1_555 1_555
H2A C7A 1_555 1_555
C8A C7A 1_555 1_555
C9A C8A 1_555 1_555
C10A C9A 1_555 1_555
C11A C10A 1_555 1_555
C12A C11A 1_555 1_555
C13A C12A 1_555 1_555
C14A C9A 1_555 1_555
S1A C1A 1_555 1_555
S2A C3A 1_555 1_555
S3A C5A 1_555 1_555
F1A C10A 1_555 1_555
F2A C11A 1_555 1_555
F3A C12A 1_555 1_555
F4A C13A 1_555 1_555
F5A C14A 1_555 1_555
C4 S1 1_555 1_555
C6 S2 1_555 1_555
C8 S3 1_555 1_555
C13 C14 1_555 1_555
C4A S1A 1_555 1_555
C6A S2A 1_555 1_555
C8A S3A 1_555 1_555
C13A C14A 1_555 1_555

#END
