
#######################################################################
#
#                 Cambridge Crystallographic Data Centre
#                                CCDC 
#
#######################################################################
#
# If this CIF has been generated from an entry in the Cambridge 
# Structural Database, then it will include bibliographic, chemical, 
# crystal, experimental, refinement or atomic coordinate data resulting 
# from the CCDC's data processing and validation procedures.
#
#######################################################################

data_DONWIO
_chemical_formula_moiety         'C36 H2 B2 F30 N1 1-,C13 H22 N1 O1 Se1 1+'
_chemical_name_systematic        
'(2-((2-hydroxy-2-methylpropyl)selanyl)phenyl)-N,N-dimethylmethanaminium bis(tris(2,3,4,5,6-pentafluorophenyl)borate)aminium'
_symmetry_cell_setting           monoclinic
_symmetry_space_group_name_H-M   'P 21/c'
_symmetry_Int_Tables_number      14
_space_group_name_Hall           '-P 2ybc'
loop_
_symmetry_equiv_pos_site_id
_symmetry_equiv_pos_as_xyz
1 x,y,z
2 -x,1/2+y,1/2-z
3 -x,-y,-z
4 x,1/2-y,1/2+z
_cell_length_a                   16.5296(6)
_cell_length_b                   15.9662(6)
_cell_length_c                   20.9740(7)
_cell_angle_alpha                90
_cell_angle_beta                 105.7030(10)
_cell_angle_gamma                90
_cell_volume                     5328.76
_exptl_crystal_colour            colorless
_exptl_crystal_description       prism
_cell_formula_units_Z            4
loop_
_atom_site_label
_atom_site_type_symbol
_atom_site_fract_x
_atom_site_fract_y
_atom_site_fract_z
C1 C 0.4650(4) 0.2538(4) 0.6863(3)
H1 H 0.4339 0.2809 0.715
H2 H 0.4234 0.2272 0.6488
N1 N 0.5218(3) 0.1883(3) 0.7249(2)
H3 H 0.5677 0.2156 0.7527
C2 C 0.5546(4) 0.1278(4) 0.6848(3)
H4 H 0.5829 0.1581 0.6564
H5 H 0.5079 0.0951 0.6573
H6 H 0.5947 0.0902 0.7142
C3 C 0.4785(4) 0.1418(3) 0.7678(3)
H7 H 0.4665 0.1802 0.8006
H8 H 0.5148 0.0964 0.7907
H9 H 0.4257 0.1183 0.7405
Se1 Se 0.55399(4) 0.39351(3) 0.79144(3)
C4 C 0.6733(3) 0.3784(3) 0.8363(3)
H10 H 0.7065 0.3966 0.8059
H11 H 0.6882 0.4156 0.8754
C5 C 0.6991(3) 0.2897(3) 0.8587(3)
O1 O 0.6750(2) 0.2341(2) 0.80154(18)
H12 H 0.7162 0.2269 0.786
C6 C 0.6522(4) 0.2568(3) 0.9068(3)
H13 H 0.5918 0.2555 0.8848
H14 H 0.6628 0.2937 0.9455
H15 H 0.6718 0.2001 0.9209
C7 C 0.7938(4) 0.2867(4) 0.8891(3)
H16 H 0.8103 0.23 0.9056
H17 H 0.8097 0.3266 0.9259
H18 H 0.8225 0.3014 0.8554
C8 C 0.5571(4) 0.3839(4) 0.7012(3)
C9 C 0.5127(4) 0.3188(4) 0.6604(3)
C10 C 0.5942(13) 0.4492(11) 0.6759(7)
H19 H 0.625 0.4911 0.7045
C11 C 0.5859(10) 0.4530(9) 0.6082(5)
H20 H 0.6129 0.4966 0.591
C12 C 0.5401(10) 0.3955(9) 0.5668(5)
H21 H 0.5341 0.3992 0.5206
C13 C 0.5011(10) 0.3297(9) 0.5925(5)
H22 H 0.4659 0.2916 0.5626
N2 N 0.1340(2) 0.1983(2) 0.88887(17)
H27 H 0.0763 0.1939 0.8757
H28 H 0.1537 0.1445 0.8878
B1 B 0.1551(4) 0.2199(3) 0.9670(3)
C18 C 0.2166(3) 0.1484(3) 1.0127(2)
C19 C 0.2452(3) 0.1597(3) 1.0815(2)
C20 C 0.2926(3) 0.1030(3) 1.1256(2)
C21 C 0.3147(3) 0.0299(3) 1.1022(3)
C22 C 0.2892(3) 0.0135(3) 1.0354(3)
C23 C 0.2422(3) 0.0711(3) 0.9937(2)
F1 F 0.22513(18) 0.23206(16) 1.10854(12)
F2 F 0.31914(19) 0.11992(19) 1.19115(14)
F3 F 0.3621(2) -0.02715(19) 1.14488(16)
F4 F 0.3106(2) -0.05928(18) 1.01183(16)
F5 F 0.21805(18) 0.04800(16) 0.92909(13)
C24 C 0.1925(3) 0.3161(3) 0.9802(2)
C25 C 0.2750(4) 0.3371(3) 1.0101(2)
C26 C 0.3039(4) 0.4186(4) 1.0194(3)
C27 C 0.2529(5) 0.4835(3) 0.9978(3)
C28 C 0.1696(5) 0.4673(3) 0.9683(3)
C29 C 0.1418(4) 0.3849(3) 0.9594(2)
F6 F 0.33403(18) 0.27737(18) 1.03191(13)
F7 F 0.3860(2) 0.4335(2) 1.04872(15)
F8 F 0.2804(3) 0.56315(19) 1.00451(16)
F9 F 0.1146(3) 0.53121(18) 0.94650(16)
F10 F 0.0586(2) 0.37420(17) 0.92914(14)
C30 C 0.0659(3) 0.2069(3) 0.9898(2)
C31 C 0.0382(3) 0.2589(3) 1.0340(2)
C32 C -0.0346(3) 0.2421(3) 1.0534(3)
C33 C -0.0817(3) 0.1746(4) 1.0297(3)
C34 C -0.0563(3) 0.1202(3) 0.9874(2)
C35 C 0.0155(3) 0.1382(3) 0.9699(2)
F11 F 0.08091(18) 0.32783(16) 1.06072(13)
F12 F -0.0564(2) 0.2938(2) 1.09720(16)
F13 F -0.1531(2) 0.1591(2) 1.04727(16)
F14 F -0.10245(19) 0.05269(18) 0.96353(15)
F15 F 0.03746(18) 0.08156(16) 0.92938(13)
B2 B 0.1572(4) 0.2446(3) 0.8264(3)
C36 C 0.1606(3) 0.1702(3) 0.7712(2)
C37 C 0.2229(3) 0.1568(3) 0.7388(2)
C38 C 0.2154(4) 0.0980(3) 0.6890(2)
C39 C 0.1459(4) 0.0509(3) 0.6681(2)
C40 C 0.0812(4) 0.0619(3) 0.6968(3)
C41 C 0.0917(3) 0.1191(3) 0.7477(2)
F16 F 0.29350(18) 0.20348(17) 0.75333(13)
F17 F 0.2801(2) 0.08969(18) 0.66060(14)
F18 F 0.1377(2) -0.00422(18) 0.61804(14)
F19 F 0.0096(2) 0.01786(18) 0.67629(14)
F20 F 0.02521(17) 0.12571(16) 0.77434(13)
C42 C 0.2488(3) 0.2914(3) 0.8546(2)
C43 C 0.3192(4) 0.2467(3) 0.8825(2)
C44 C 0.3991(4) 0.2791(4) 0.9075(2)
C45 C 0.4113(4) 0.3627(4) 0.9038(3)
C46 C 0.3442(5) 0.4118(3) 0.8774(3)
C47 C 0.2645(4) 0.3768(3) 0.8539(2)
F21 F 0.31471(17) 0.16151(18) 0.88771(13)
F22 F 0.46557(19) 0.2281(2) 0.93455(15)
F23 F 0.4880(2) 0.3973(2) 0.92970(16)
F24 F 0.3519(2) 0.4965(2) 0.87601(16)
F25 F 0.2004(2) 0.43213(17) 0.83135(14)
C48 C 0.0823(3) 0.3050(3) 0.7846(2)
C49 C 0.0939(4) 0.3476(3) 0.7289(2)
C50 C 0.0344(4) 0.3953(3) 0.6874(3)
C51 C -0.0423(4) 0.4055(3) 0.6976(3)
C52 C -0.0613(4) 0.3626(3) 0.7487(3)
C53 C 0.0018(4) 0.3128(3) 0.7903(2)
F26 F 0.1686(2) 0.34157(17) 0.71608(13)
F27 F 0.0534(2) 0.43603(19) 0.63689(15)
F28 F -0.1019(2) 0.4546(2) 0.65815(17)
F29 F -0.1374(2) 0.3693(2) 0.75938(18)
F30 F -0.02501(17) 0.27037(17) 0.83805(14)
C14? C 0.6128(18) 0.4344(15) 0.6792(10)
H23? H 0.6407 0.4791 0.7063
C15? C 0.6283(14) 0.4200(12) 0.6174(8)
H24? H 0.6683 0.4533 0.6039
C16? C 0.5852(14) 0.3570(13) 0.5761(8)
H25? H 0.5904 0.3516 0.5322
C17? C 0.5338(13) 0.3012(12) 0.5995(7)
H26? H 0.513 0.2519 0.5751
loop_
_geom_bond_atom_site_label_1
_geom_bond_atom_site_label_2
_geom_bond_site_symmetry_1
_geom_bond_site_symmetry_2
C1 H1 1_555 1_555
H2 C1 1_555 1_555
N1 C1 1_555 1_555
H3 N1 1_555 1_555
C2 N1 1_555 1_555
H4 C2 1_555 1_555
H5 C2 1_555 1_555
H6 C2 1_555 1_555
C3 N1 1_555 1_555
H7 C3 1_555 1_555
H8 C3 1_555 1_555
H9 C3 1_555 1_555
Se1 C4 1_555 1_555
C4 H10 1_555 1_555
H11 C4 1_555 1_555
C5 C4 1_555 1_555
O1 C5 1_555 1_555
H12 O1 1_555 1_555
C6 C5 1_555 1_555
H13 C6 1_555 1_555
H14 C6 1_555 1_555
H15 C6 1_555 1_555
C7 C5 1_555 1_555
H16 C7 1_555 1_555
H17 C7 1_555 1_555
H18 C7 1_555 1_555
C8 Se1 1_555 1_555
C9 C1 1_555 1_555
C10 C8 1_555 1_555
H19 C10 1_555 1_555
C11 C10 1_555 1_555
H20 C11 1_555 1_555
C12 C11 1_555 1_555
H21 C12 1_555 1_555
C13 C9 1_555 1_555
H22 C13 1_555 1_555
N2 H27 1_555 1_555
H28 N2 1_555 1_555
B1 N2 1_555 1_555
C18 B1 1_555 1_555
C19 C18 1_555 1_555
C20 C19 1_555 1_555
C21 C20 1_555 1_555
C22 C21 1_555 1_555
C23 C18 1_555 1_555
F1 C19 1_555 1_555
F2 C20 1_555 1_555
F3 C21 1_555 1_555
F4 C22 1_555 1_555
F5 C23 1_555 1_555
C24 B1 1_555 1_555
C25 C24 1_555 1_555
C26 C25 1_555 1_555
C27 C26 1_555 1_555
C28 C27 1_555 1_555
C29 C24 1_555 1_555
F6 C25 1_555 1_555
F7 C26 1_555 1_555
F8 C27 1_555 1_555
F9 C28 1_555 1_555
F10 C29 1_555 1_555
C30 B1 1_555 1_555
C31 C30 1_555 1_555
C32 C31 1_555 1_555
C33 C32 1_555 1_555
C34 C33 1_555 1_555
C35 C30 1_555 1_555
F11 C31 1_555 1_555
F12 C32 1_555 1_555
F13 C33 1_555 1_555
F14 C34 1_555 1_555
F15 C35 1_555 1_555
B2 N2 1_555 1_555
C36 B2 1_555 1_555
C37 C36 1_555 1_555
C38 C37 1_555 1_555
C39 C38 1_555 1_555
C40 C39 1_555 1_555
C41 C36 1_555 1_555
F16 C37 1_555 1_555
F17 C38 1_555 1_555
F18 C39 1_555 1_555
F19 C40 1_555 1_555
F20 C41 1_555 1_555
C42 B2 1_555 1_555
C43 C42 1_555 1_555
C44 C43 1_555 1_555
C45 C44 1_555 1_555
C46 C45 1_555 1_555
C47 C42 1_555 1_555
F21 C43 1_555 1_555
F22 C44 1_555 1_555
F23 C45 1_555 1_555
F24 C46 1_555 1_555
F25 C47 1_555 1_555
C48 B2 1_555 1_555
C49 C48 1_555 1_555
C50 C49 1_555 1_555
C51 C50 1_555 1_555
C52 C51 1_555 1_555
C53 C48 1_555 1_555
F26 C49 1_555 1_555
F27 C50 1_555 1_555
F28 C51 1_555 1_555
F29 C52 1_555 1_555
F30 C53 1_555 1_555
C8 C9 1_555 1_555
C12 C13 1_555 1_555
C22 C23 1_555 1_555
C28 C29 1_555 1_555
C34 C35 1_555 1_555
C40 C41 1_555 1_555
C46 C47 1_555 1_555
C52 C53 1_555 1_555

#END
