
#######################################################################
#
#                 Cambridge Crystallographic Data Centre
#                                CCDC 
#
#######################################################################
#
# If this CIF has been generated from an entry in the Cambridge 
# Structural Database, then it will include bibliographic, chemical, 
# crystal, experimental, refinement or atomic coordinate data resulting 
# from the CCDC's data processing and validation procedures.
#
#######################################################################

data_DOPBOZ
_chemical_formula_moiety         'C26 H54 N7 P3 S2'
_chemical_name_systematic        
2-Diethylamino-1,3-bis(bis(diethylamino)-thiophosphoryl)-4,5-benzo-2,1,3-diazaphosphole
_symmetry_cell_setting           orthorhombic
_symmetry_space_group_name_H-M   'P b c a'
_symmetry_Int_Tables_number      61
_space_group_name_Hall           '-P 2ac 2ab'
loop_
_symmetry_equiv_pos_site_id
_symmetry_equiv_pos_as_xyz
1 x,y,z
2 1/2-x,1/2+y,z
3 x,1/2-y,1/2+z
4 1/2-x,-y,1/2+z
5 -x,-y,-z
6 1/2+x,1/2-y,-z
7 -x,1/2+y,1/2-z
8 1/2+x,y,1/2-z
_cell_length_a                   14.652(5)
_cell_length_b                   18.911(9)
_cell_length_c                   24.324(9)
_cell_angle_alpha                90
_cell_angle_beta                 90
_cell_angle_gamma                90
_cell_volume                     6739.79
_chemical_melting_point          115-118deg.C
_cell_formula_units_Z            8
loop_
_atom_site_label
_atom_site_type_symbol
_atom_site_fract_x
_atom_site_fract_y
_atom_site_fract_z
S1 S -0.1787(1) 0.1083(1) -0.0307(1)
S2 S 0.0047(1) 0.0894(1) 0.2836(1)
P1 P -0.2452(1) 0.1015(1) 0.0382(1)
P2 P -0.1547(1) 0.0439(1) 0.1388(1)
P3 P -0.1195(1) 0.0884(1) 0.2560(1)
N1 N -0.1815(3) 0.1138(2) 0.0947(2)
N2 N -0.1299(3) 0.1080(2) 0.1895(2)
N3 N -0.3254(3) 0.1621(3) 0.0447(2)
N4 N -0.2905(3) 0.0225(2) 0.0474(2)
N5 N -0.0576(4) 0.0141(3) 0.1150(3)
N6 N -0.1664(3) 0.0090(2) 0.2594(2)
N7 N -0.1838(3) 0.1490(3) 0.2850(2)
C1 C -0.1409(4) 0.1791(3) 0.1114(2)
C2 C -0.1120(4) 0.1755(3) 0.1655(3)
C3 C -0.0687(4) 0.2331(3) 0.1905(3)
C4 C -0.0581(5) 0.2937(3) 0.1592(3)
C5 C -0.0874(4) 0.2974(3) 0.1054(3)
C6 C -0.1299(4) 0.2398(3) 0.0805(3)
C7 C -0.3844(5) 0.1756(4) -0.0040(3)
C8 C -0.3567(6) 0.2400(4) -0.0371(4)
C9 C -0.3626(5) 0.1854(3) 0.0976(3)
C10 C -0.3758(5) 0.2650(3) 0.1020(3)
C11 C -0.3585(4) 0.0113(3) 0.0911(3)
C12 C -0.4577(4) 0.0126(4) 0.0710(3)
C13 C -0.2499(5) -0.0443(4) 0.0238(3)
C14 C -0.3076(6) -0.0790(4) -0.0156(3)
C15 C 0.0156(6) 0.0565(5) 0.0752(4)
C16 C 0.0711(8) 0.0787(4) 0.1138(4)
C17 C -0.0406(4) -0.0614(3) 0.1168(3)
C18 C 0.0307(5) -0.0837(3) 0.1580(3)
C19 C -0.2668(4) 0.0036(3) 0.2526(3)
C20 C -0.2991(5) -0.0673(3) 0.2300(3)
C21 C -0.1228(4) -0.0512(3) 0.2877(3)
C22 C -0.1598(5) -0.0652(4) 0.3454(3)
C23 C -0.2719(5) 0.1739(4) 0.2617(3)
C24 C -0.2941(6) 0.2472(4) 0.2694(4)
C25 C -0.1760(5) 0.1567(4) 0.3454(3)
C26 C -0.1249(5) 0.2216(4) 0.3625(4)
H1 H -0.0477 0.2308 0.2278
H2 H -0.0289 0.3341 0.1753
H3 H -0.0788 0.3403 0.0849
H4 H -0.1508 0.2420 0.0431
H5 H -0.3805 0.1352 -0.0279
H6 H -0.4463 0.1814 0.0081
H7 H -0.4000 0.2479 -0.0660
H8 H -0.2971 0.2330 -0.0527
H9 H -0.3556 0.2803 -0.0131
H10 H -0.4207 0.1631 0.1031
H11 H -0.3213 0.1710 0.1261
H12 H -0.4181 0.2802 0.0743
H13 H -0.3183 0.2882 0.0965
H14 H -0.3993 0.2769 0.1376
H15 H -0.3473 -0.0337 0.1080
H16 H -0.3511 0.0481 0.1180
H17 H -0.4661 -0.0230 0.0433
H18 H -0.4712 0.0582 0.0557
H19 H -0.4979 0.0034 0.1013
H20 H -0.2384 -0.0766 0.0535
H21 H -0.1933 -0.0324 0.0063
H22 H -0.2731 -0.1144 -0.0347
H23 H -0.3301 -0.0449 -0.0415
H24 H -0.3581 -0.1009 0.0029
H25 H -0.0125 0.0948 0.0555
H26 H 0.0448 0.0252 0.0495
H27 H 0.1223 0.1011 0.0966
H28 H 0.0919 0.0394 0.1355
H29 H 0.0405 0.1121 0.1372
H30 H -0.0969 -0.0846 0.1261
H31 H -0.0212 -0.0764 0.0810
H32 H 0.0268 -0.1338 0.1636
H33 H 0.0207 -0.0598 0.1923
H34 H 0.0902 -0.0719 0.1442
H35 H -0.2950 0.0111 0.2878
H36 H -0.2859 0.0399 0.2276
H37 H -0.2725 -0.0753 0.1945
H38 H -0.3644 -0.0670 0.2268
H39 H -0.2808 -0.1043 0.2546
H40 H -0.1320 -0.0929 0.2659
H41 H -0.0586 -0.0418 0.2908
H42 H -0.1571 -0.0225 0.3667
H43 H -0.1238 -0.1011 0.3628
H44 H -0.2220 -0.0808 0.3428
H45 H -0.3196 0.1465 0.2784
H46 H -0.2705 0.1650 0.2229
H47 H -0.3500 0.2577 0.2506
H48 H -0.2460 0.2760 0.2548
H49 H -0.3013 0.2568 0.3079
H50 H -0.2363 0.1589 0.3607
H51 H -0.1447 0.1161 0.3597
H52 H -0.0617 0.2165 0.3526
H53 H -0.1302 0.2280 0.4012
H54 H -0.1499 0.2619 0.3436
loop_
_geom_bond_atom_site_label_1
_geom_bond_atom_site_label_2
_geom_bond_site_symmetry_1
_geom_bond_site_symmetry_2
S1 P1 1_555 1_555
S2 P3 1_555 1_555
P1 N1 1_555 1_555
P2 N1 1_555 1_555
P3 N2 1_555 1_555
N1 C1 1_555 1_555
N2 P2 1_555 1_555
N3 P1 1_555 1_555
N4 P1 1_555 1_555
N5 P2 1_555 1_555
N6 P3 1_555 1_555
N7 P3 1_555 1_555
C1 C2 1_555 1_555
C2 N2 1_555 1_555
C3 C2 1_555 1_555
C4 C3 1_555 1_555
C5 C4 1_555 1_555
C6 C1 1_555 1_555
C7 N3 1_555 1_555
C8 C7 1_555 1_555
C9 N3 1_555 1_555
C10 C9 1_555 1_555
C11 N4 1_555 1_555
C12 C11 1_555 1_555
C13 N4 1_555 1_555
C14 C13 1_555 1_555
C15 N5 1_555 1_555
C16 C15 1_555 1_555
C17 N5 1_555 1_555
C18 C17 1_555 1_555
C19 N6 1_555 1_555
C20 C19 1_555 1_555
C21 N6 1_555 1_555
C22 C21 1_555 1_555
C23 N7 1_555 1_555
C24 C23 1_555 1_555
C25 N7 1_555 1_555
C26 C25 1_555 1_555
H1 C3 1_555 1_555
H2 C4 1_555 1_555
H3 C5 1_555 1_555
H4 C6 1_555 1_555
H5 C7 1_555 1_555
H6 C7 1_555 1_555
H7 C8 1_555 1_555
H8 C8 1_555 1_555
H9 C8 1_555 1_555
H10 C9 1_555 1_555
H11 C9 1_555 1_555
H12 C10 1_555 1_555
H13 C10 1_555 1_555
H14 C10 1_555 1_555
H15 C11 1_555 1_555
H16 C11 1_555 1_555
H17 C12 1_555 1_555
H18 C12 1_555 1_555
H19 C12 1_555 1_555
H20 C13 1_555 1_555
H21 C13 1_555 1_555
H22 C14 1_555 1_555
H23 C14 1_555 1_555
H24 C14 1_555 1_555
H25 C15 1_555 1_555
H26 C15 1_555 1_555
H27 C16 1_555 1_555
H28 C16 1_555 1_555
H29 C16 1_555 1_555
H30 C17 1_555 1_555
H31 C17 1_555 1_555
H32 C18 1_555 1_555
H33 C18 1_555 1_555
H34 C18 1_555 1_555
H35 C19 1_555 1_555
H36 C19 1_555 1_555
H37 C20 1_555 1_555
H38 C20 1_555 1_555
H39 C20 1_555 1_555
H40 C21 1_555 1_555
H41 C21 1_555 1_555
H42 C22 1_555 1_555
H43 C22 1_555 1_555
H44 C22 1_555 1_555
H45 C23 1_555 1_555
H46 C23 1_555 1_555
H47 C24 1_555 1_555
H48 C24 1_555 1_555
H49 C24 1_555 1_555
H50 C25 1_555 1_555
H51 C25 1_555 1_555
H52 C26 1_555 1_555
H53 C26 1_555 1_555
H54 C26 1_555 1_555
C5 C6 1_555 1_555

#END
