
#######################################################################
#
#                 Cambridge Crystallographic Data Centre
#                                CCDC 
#
#######################################################################
#
# If this CIF has been generated from an entry in the Cambridge 
# Structural Database, then it will include bibliographic, chemical, 
# crystal, experimental, refinement or atomic coordinate data resulting 
# from the CCDC's data processing and validation procedures.
#
#######################################################################

data_DOPNAZ
_chemical_name_common            'theophylline 2,3-dihydroxybenzoic acid'
_chemical_formula_moiety         'C7 H8 N4 O2,C7 H6 O4'
_chemical_name_systematic        
'1,3-dimethyl-3,7-dihydro-1H-purine-2,6-dione 2,3-dihydroxybenzoic acid'
_symmetry_cell_setting           monoclinic
_symmetry_space_group_name_H-M   'P 21/c'
_symmetry_Int_Tables_number      14
_space_group_name_Hall           '-P 2ybc'
loop_
_symmetry_equiv_pos_site_id
_symmetry_equiv_pos_as_xyz
1 x,y,z
2 -x,1/2+y,1/2-z
3 -x,-y,-z
4 x,1/2-y,1/2+z
_cell_length_a                   15.327(7)
_cell_length_b                   6.792(3)
_cell_length_c                   14.041(6)
_cell_angle_alpha                90
_cell_angle_beta                 106.297(4)
_cell_angle_gamma                90
_cell_volume                     1402.95
_exptl_crystal_colour            colorless
_exptl_crystal_description       rod
_cell_formula_units_Z            4
loop_
_atom_site_label
_atom_site_type_symbol
_atom_site_fract_x
_atom_site_fract_y
_atom_site_fract_z
O1 O 0.00758(13) 0.4511(3) 0.33074(16)
O2 O 0.29530(13) 0.6234(3) 0.50559(15)
N1 N 0.22743(16) 0.5764(4) 0.16554(18)
N2 N 0.10672(15) 0.5085(4) 0.24150(18)
N3 N 0.15031(16) 0.5442(4) 0.41625(18)
N4 N 0.33465(16) 0.6442(4) 0.30524(19)
H1 H 0.3866 0.6760 0.3447
C1 C 0.3135(2) 0.6292(5) 0.2075(2)
H2 H 0.3548 0.6532 0.1713
C2 C 0.19390(19) 0.5591(5) 0.2445(2)
C3 C 0.0391(2) 0.4654(5) 0.1480(2)
H3 H 0.0145 0.3364 0.1510
H4 H 0.0672 0.4705 0.0949
H5 H -0.0088 0.5611 0.1365
C4 C 0.08344(19) 0.4967(5) 0.3286(2)
C5 C 0.1217(2) 0.5378(5) 0.5064(2)
H6 H 0.1171 0.4032 0.5253
H7 H 0.0635 0.6006 0.4949
H8 H 0.1655 0.6053 0.5586
C6 C 0.23979(19) 0.5917(5) 0.4235(2)
C7 C 0.25720(18) 0.5990(5) 0.3311(2)
O3 O 0.46202(13) 0.7233(3) 0.58651(15)
H9 H 0.4126 0.6896 0.5498
O4 O 0.49734(13) 0.7341(4) 0.44297(16)
O5 O 0.65612(13) 0.8445(4) 0.43881(15)
H10 H 0.6036 0.8075 0.4149
O6 O 0.82328(13) 0.9662(3) 0.53981(16)
H11 H 0.7999 0.9530 0.4800
C8 C 0.5191(2) 0.7548(5) 0.5336(2)
C9 C 0.61085(19) 0.8177(5) 0.5898(2)
C10 C 0.6734(2) 0.8594(5) 0.5379(2)
C11 C 0.7617(2) 0.9208(5) 0.5895(2)
C12 C 0.7856(2) 0.9325(5) 0.6907(2)
H12 H 0.8441 0.9716 0.7250
C13 C 0.7234(2) 0.8864(5) 0.7431(2)
H13 H 0.7408 0.8917 0.8121
C14 C 0.6364(2) 0.8332(5) 0.6928(2)
H14 H 0.5943 0.8073 0.7276
loop_
_geom_bond_atom_site_label_1
_geom_bond_atom_site_label_2
_geom_bond_site_symmetry_1
_geom_bond_site_symmetry_2
O1 C4 1_555 1_555
O2 C6 1_555 1_555
N1 C1 1_555 1_555
N2 C2 1_555 1_555
N3 C4 1_555 1_555
N4 H1 1_555 1_555
C1 N4 1_555 1_555
H2 C1 1_555 1_555
C2 N1 1_555 1_555
C3 N2 1_555 1_555
H3 C3 1_555 1_555
H4 C3 1_555 1_555
H5 C3 1_555 1_555
C4 N2 1_555 1_555
C5 N3 1_555 1_555
H6 C5 1_555 1_555
H7 C5 1_555 1_555
H8 C5 1_555 1_555
C6 N3 1_555 1_555
C7 N4 1_555 1_555
O3 H9 1_555 1_555
O4 C8 1_555 1_555
O5 H10 1_555 1_555
O6 H11 1_555 1_555
C8 O3 1_555 1_555
C9 C8 1_555 1_555
C10 O5 1_555 1_555
C11 O6 1_555 1_555
C12 C11 1_555 1_555
H12 C12 1_555 1_555
C13 C12 1_555 1_555
H13 C13 1_555 1_555
C14 C9 1_555 1_555
H14 C14 1_555 1_555
C2 C7 1_555 1_555
C6 C7 1_555 1_555
C9 C10 1_555 1_555
C10 C11 1_555 1_555
C13 C14 1_555 1_555

#END
