
#######################################################################
#
#                 Cambridge Crystallographic Data Centre
#                                CCDC 
#
#######################################################################
#
# If this CIF has been generated from an entry in the Cambridge 
# Structural Database, then it will include bibliographic, chemical, 
# crystal, experimental, refinement or atomic coordinate data resulting 
# from the CCDC's data processing and validation procedures.
#
#######################################################################

data_DOQBAO
_chemical_formula_moiety         'C10 H13 Cl2 F1 N2 O2 S2'
_chemical_name_systematic        
N-(Dichloro(fluoro)methylthio)-N',N'-dimethyl-N-p-tolylsulfamide
_symmetry_cell_setting           monoclinic
_symmetry_space_group_name_H-M   'C 2/c'
_symmetry_Int_Tables_number      15
_space_group_name_Hall           '-C 2yn'
loop_
_symmetry_equiv_pos_site_id
_symmetry_equiv_pos_as_xyz
1 x,y,z
2 -x,y,1/2-z
3 1/2+x,1/2+y,z
4 1/2-x,1/2+y,1/2-z
5 -x,-y,-z
6 x,-y,1/2+z
7 1/2-x,1/2-y,-z
8 1/2+x,1/2-y,1/2+z
_cell_length_a                   23.7638(19)
_cell_length_b                   8.7046(7)
_cell_length_c                   14.6559(11)
_cell_angle_alpha                90
_cell_angle_beta                 102.133(3)
_cell_angle_gamma                90
_cell_volume                     2963.92
_exptl_crystal_colour            colorless
_exptl_crystal_description       block
_cell_formula_units_Z            8
loop_
_atom_site_label
_atom_site_type_symbol
_atom_site_fract_x
_atom_site_fract_y
_atom_site_fract_z
Cl1 Cl 0.42965(16) 0.2602(5) 0.1267(3)
Cl2 Cl 0.32595(6) 0.33538(16) -0.00564(8)
S1 S 0.33566(4) 0.30575(13) 0.35656(7)
S2 S 0.31078(4) 0.20191(13) 0.16220(7)
F1 F 0.3625(4) 0.4708(12) 0.1530(7)
O1 O 0.38994(13) 0.3659(4) 0.4004(2)
O2 O 0.29116(13) 0.4060(4) 0.31161(19)
N1 N 0.34588(14) 0.1819(4) 0.2728(2)
N2 N 0.31214(16) 0.2043(4) 0.4323(2)
C1 C 0.4891(2) -0.3490(7) 0.3831(4)
H1 H 0.5214 -0.3487 0.3510
H2 H 0.4661 -0.4421 0.3663
H3 H 0.5040 -0.3467 0.4507
C2 C 0.4519(2) -0.2090(6) 0.3541(3)
C3 C 0.39365(19) -0.2240(6) 0.3152(3)
H4 H 0.3771 -0.3236 0.3064
C4 C 0.35902(18) -0.0958(5) 0.2887(3)
H5 H 0.3192 -0.1084 0.2623
C5 C 0.38234(17) 0.0485(5) 0.3007(3)
C6 C 0.4402(2) 0.0684(6) 0.3386(4)
H6 H 0.4565 0.1684 0.3458
C7 C 0.4738(2) -0.0593(6) 0.3658(4)
H7 H 0.5133 -0.0452 0.3937
C8 C 0.2585(2) 0.1181(6) 0.3994(4)
H8 H 0.2674 0.0187 0.3743
H9 H 0.2331 0.1768 0.3503
H10 H 0.2393 0.1014 0.4515
C9 C 0.3532(3) 0.1351(7) 0.5110(3)
H11 H 0.3347 0.1233 0.5644
H12 H 0.3870 0.2018 0.5285
H13 H 0.3652 0.0341 0.4925
C10 C 0.3611(2) 0.3152(6) 0.1127(3)
Cl3? Cl 0.3886(3) 0.4591(10) 0.1620(5)
F2? F 0.4106(7) 0.1951(19) 0.1104(9)
loop_
_geom_bond_atom_site_label_1
_geom_bond_atom_site_label_2
_geom_bond_site_symmetry_1
_geom_bond_site_symmetry_2
Cl1 C10 1_555 1_555
Cl2 C10 1_555 1_555
S1 O1 1_555 1_555
S2 N1 1_555 1_555
F1 C10 1_555 1_555
O2 S1 1_555 1_555
N1 S1 1_555 1_555
N2 S1 1_555 1_555
C1 H1 1_555 1_555
H2 C1 1_555 1_555
H3 C1 1_555 1_555
C2 C1 1_555 1_555
C3 C2 1_555 1_555
H4 C3 1_555 1_555
C4 C3 1_555 1_555
H5 C4 1_555 1_555
C5 N1 1_555 1_555
C6 C5 1_555 1_555
H6 C6 1_555 1_555
C7 C2 1_555 1_555
H7 C7 1_555 1_555
C8 N2 1_555 1_555
H8 C8 1_555 1_555
H9 C8 1_555 1_555
H10 C8 1_555 1_555
C9 N2 1_555 1_555
H11 C9 1_555 1_555
H12 C9 1_555 1_555
H13 C9 1_555 1_555
C10 S2 1_555 1_555
C4 C5 1_555 1_555
C6 C7 1_555 1_555

#END
