
#######################################################################
#
#                 Cambridge Crystallographic Data Centre
#                                CCDC 
#
#######################################################################
#
# If this CIF has been generated from an entry in the Cambridge 
# Structural Database, then it will include bibliographic, chemical, 
# crystal, experimental, refinement or atomic coordinate data resulting 
# from the CCDC's data processing and validation procedures.
#
#######################################################################

data_DOQQEH
_chemical_formula_moiety         'C6 H3 Cl2 N1 O2'
_chemical_name_systematic        '3,5-dichloroisonicotinic acid'
_symmetry_cell_setting           monoclinic
_symmetry_space_group_name_H-M   'C 2/c'
_symmetry_Int_Tables_number      15
_space_group_name_Hall           '-C 2yn'
loop_
_symmetry_equiv_pos_site_id
_symmetry_equiv_pos_as_xyz
1 x,y,z
2 -x,y,1/2-z
3 1/2+x,1/2+y,z
4 1/2-x,1/2+y,1/2-z
5 -x,-y,-z
6 x,-y,1/2+z
7 1/2-x,1/2-y,-z
8 1/2+x,1/2-y,1/2+z
_cell_length_a                   10.8457(4)
_cell_length_b                   10.4334(3)
_cell_length_c                   14.6939(4)
_cell_angle_alpha                90
_cell_angle_beta                 112.159(4)
_cell_angle_gamma                90
_cell_volume                     1539.92
_exptl_crystal_colour            white
_exptl_crystal_description       prism
_cell_formula_units_Z            8
loop_
_atom_site_label
_atom_site_type_symbol
_atom_site_fract_x
_atom_site_fract_y
_atom_site_fract_z
Cl1 Cl 0.31996(7) 0.66323(6) 0.22757(4)
Cl2 Cl 0.47423(7) 0.72510(7) 0.62010(4)
O1 O 0.59853(15) 0.77962(15) 0.44580(13)
O2 O 0.41844(17) 0.90445(16) 0.38761(15)
N1 N 0.23951(19) 0.47778(18) 0.43154(16)
C1 C 0.38701(19) 0.64639(19) 0.51171(15)
C2 C 0.39383(18) 0.68731(17) 0.42427(14)
C3 C 0.4723(2) 0.80442(19) 0.41743(15)
C4 C 0.3194(2) 0.6192(2) 0.34055(15)
C5 C 0.2438(2) 0.5151(2) 0.34639(19)
C6 C 0.3090(2) 0.5418(2) 0.51261(19)
H1 H 0.302(2) 0.513(2) 0.5691(19)
H2 H 0.193(2) 0.469(2) 0.2887(19)
H3 H 0.642(3) 0.851(3) 0.443(3)
loop_
_geom_bond_atom_site_label_1
_geom_bond_atom_site_label_2
_geom_bond_site_symmetry_1
_geom_bond_site_symmetry_2
Cl1 C4 1_555 1_555
Cl2 C1 1_555 1_555
O1 C3 1_555 1_555
O2 C3 1_555 1_555
N1 C5 1_555 1_555
C1 C2 1_555 1_555
C2 C3 1_555 1_555
C4 C2 1_555 1_555
C5 C4 1_555 1_555
C6 N1 1_555 1_555
H1 C6 1_555 1_555
H2 C5 1_555 1_555
H3 O1 1_555 1_555
C1 C6 1_555 1_555

#END
