
#######################################################################
#
#                 Cambridge Crystallographic Data Centre
#                                CCDC 
#
#######################################################################
#
# If this CIF has been generated from an entry in the Cambridge 
# Structural Database, then it will include bibliographic, chemical, 
# crystal, experimental, refinement or atomic coordinate data resulting 
# from the CCDC's data processing and validation procedures.
#
#######################################################################

data_DOQROS
_chemical_formula_moiety         'C58 H40 N4 S4,C7 H8'
_chemical_name_systematic        
'1-(4-(2-(4,5-bis(4-(Phenylcarbonoimidoyl)phenyl)-1,3-dithiol-2-ylidene)-5-(4-(phenylcarbonoimidoyl)phenyl)-1,3-dithiol-4-yl)phenyl)-N-phenylmethanimine toluene solvate'
_symmetry_cell_setting           monoclinic
_symmetry_space_group_name_H-M   'P 21'
_symmetry_Int_Tables_number      4
_space_group_name_Hall           'P 2yb'
loop_
_symmetry_equiv_pos_site_id
_symmetry_equiv_pos_as_xyz
1 x,y,z
2 -x,1/2+y,-z
_cell_length_a                   15.9142(7)
_cell_length_b                   7.9235(4)
_cell_length_c                   20.8037(10)
_cell_angle_alpha                90
_cell_angle_beta                 106.326(3)
_cell_angle_gamma                90
_cell_volume                     2517.49
_exptl_crystal_colour            orange
_exptl_crystal_description       lath
_cell_formula_units_Z            2
loop_
_atom_site_label
_atom_site_type_symbol
_atom_site_fract_x
_atom_site_fract_y
_atom_site_fract_z
S1 S 0.76764(5) 0.00093(19) 0.59086(4)
C1 C 0.66620(19) 0.0303(6) 0.60651(16)
S2 S 0.67248(5) 0.0693(2) 0.69039(4)
C2 C 0.83068(18) 0.0133(5) 0.67533(16)
C3 C 0.78640(18) 0.0367(5) 0.72178(16)
S3 S 0.57887(5) 0.0129(2) 0.47276(4)
C4 C 0.58913(19) 0.0261(6) 0.55843(17)
S4 S 0.48847(5) 0.0323(2) 0.57769(4)
C5 C 0.46353(18) 0.0212(6) 0.44568(16)
C6 C 0.42213(19) 0.0288(5) 0.49439(16)
C7 C 0.92611(19) 0.0048(5) 0.68485(16)
C8 C 0.9590(2) -0.0939(5) 0.64149(19)
H1 H 0.9199 -0.1566 0.6068
C9 C 1.0486(2) -0.1002(6) 0.6492(2)
H2 H 1.0705 -0.1690 0.6202
C10 C 1.1067(2) -0.0059(6) 0.69932(18)
C11 C 1.0733(2) 0.0974(5) 0.74026(18)
H3 H 1.1120 0.1648 0.7734
C12 C 0.9840(2) 0.1030(5) 0.73320(17)
H4 H 0.9621 0.1743 0.7615
C13 C 1.2012(2) -0.0226(6) 0.7086(2)
H5 H 1.2217 -0.1019 0.6822
N1 N 1.25619(18) 0.0667(5) 0.75110(16)
C14 C 1.3475(2) 0.0442(6) 0.7621(2)
C15 C 1.3865(2) -0.0532(7) 0.7226(2)
H6 H 1.3512 -0.1055 0.6831
C16 C 1.4769(2) -0.0739(7) 0.7408(2)
H7 H 1.5031 -0.1423 0.7142
C17 C 1.5283(2) 0.0043(8) 0.7971(2)
H8 H 1.5899 -0.0130 0.8103
C18 C 1.4907(3) 0.1079(9) 0.8345(3)
H9 H 1.5266 0.1674 0.8718
C19 C 1.3996(3) 0.1257(7) 0.8176(2)
H10 H 1.3737 0.1939 0.8445
C20 C 0.32725(19) 0.0300(5) 0.48814(17)
C21 C 0.2677(2) -0.0652(5) 0.43911(18)
H11 H 0.2884 -0.1327 0.4090
C22 C 0.1794(2) -0.0621(5) 0.43406(18)
H12 H 0.1399 -0.1269 0.4004
C23 C 0.1477(2) 0.0360(5) 0.47825(17)
C24 C 0.2065(2) 0.1263(6) 0.52840(19)
H13 H 0.1858 0.1908 0.5593
C25 C 0.2954(2) 0.1230(6) 0.53360(19)
H14 H 0.3351 0.1844 0.5684
C26 C 0.0531(2) 0.0513(5) 0.47034(18)
H15 H 0.0334 0.1237 0.4995
N2 N -0.00254(18) -0.0302(5) 0.42548(16)
C27 C -0.09376(19) -0.0012(5) 0.41262(17)
C28 C -0.1456(2) -0.0760(5) 0.3545(2)
H16 H -0.1190 -0.1443 0.3282
C29 C -0.2361(2) -0.0519(6) 0.3345(2)
H17 H -0.2711 -0.1035 0.2947
C30 C -0.2747(2) 0.0479(6) 0.37293(18)
H18 H -0.3362 0.0656 0.3594
C31 C -0.2235(2) 0.1221(6) 0.43123(19)
H19 H -0.2503 0.1914 0.4571
C32 C -0.1332(2) 0.0963(5) 0.45231(18)
H20 H -0.0988 0.1442 0.4931
C33 C 0.81788(18) 0.0374(5) 0.79519(16)
C34 C 0.8883(2) -0.0636(5) 0.83148(18)
H21 H 0.9170 -0.1360 0.8080
C35 C 0.9160(2) -0.0590(5) 0.90053(18)
H22 H 0.9645 -0.1259 0.9239
C36 C 0.8733(2) 0.0439(6) 0.93657(17)
C37 C 0.8005(2) 0.1346(6) 0.9013(2)
H23 H 0.7688 0.1990 0.9251
C38 C 0.7731(2) 0.1330(6) 0.83173(18)
H24 H 0.7234 0.1975 0.8087
C39 C 0.9027(2) 0.0622(6) 1.00962(18)
H25 H 0.8728 0.1403 1.0300
N3 N 0.96565(19) -0.0201(5) 1.04692(15)
C40 C 0.9899(2) 0.0081(6) 1.11715(17)
C41 C 1.0744(2) -0.0395(6) 1.1531(2)
H26 H 1.1122 -0.0875 1.1299
C42 C 1.1041(3) -0.0182(6) 1.2214(2)
H27 H 1.1619 -0.0516 1.2448
C43 C 1.0506(3) 0.0508(6) 1.2560(2)
H28 H 1.0710 0.0660 1.3031
C44 C 0.9667(3) 0.0979(7) 1.2212(2)
H29 H 0.9294 0.1454 1.2449
C45 C 0.9354(3) 0.0774(7) 1.1522(2)
H30 H 0.8773 0.1105 1.1292
C46 C 0.4240(4) 0.0341(11) 0.3727(3)
C47 C 0.4628(3) -0.0487(8) 0.3283(2)
H31 H 0.5138 -0.1151 0.3458
C48 C 0.4276(3) -0.0346(7) 0.2594(2)
H32 H 0.4537 -0.0935 0.2302
C49 C 0.3541(3) 0.0657(7) 0.2331(2)
C50 C 0.3180(3) 0.1507(7) 0.2769(2)
H33 H 0.2682 0.2201 0.2592
C51 C 0.3518(3) 0.1381(7) 0.3456(2)
H34 H 0.3261 0.2000 0.3743
C52 C 0.3126(3) 0.0813(7) 0.1607(2)
H35 H 0.2715 0.1697 0.1453
N4 N 0.3287(2) -0.0170(6) 0.11808(19)
C53 C 0.2826(3) -0.0057(8) 0.0493(2)
C54 C 0.3205(4) -0.0835(8) 0.0045(3)
H36 H 0.3761 -0.1363 0.0205
C55 C 0.2780(4) -0.0846(9) -0.0632(3)
H37 H 0.3053 -0.1347 -0.0937
C56 C 0.1958(4) -0.0130(10) -0.0868(3)
H38 H 0.1664 -0.0157 -0.1333
C57 C 0.1562(4) 0.0625(9) -0.0431(3)
H39 H 0.0997 0.1117 -0.0595
C58 C 0.1989(4) 0.0665(9) 0.0250(3)
H40 H 0.1717 0.1180 0.0552
C72 C -0.3679(4) -0.0304(8) 0.0454(3)
C73 C -0.2921(4) -0.0489(9) 0.0967(3)
H51 H -0.2439 -0.1071 0.0886
C74 C -0.2848(4) 0.0157(11) 0.1598(3)
H52 H -0.2314 0.0041 0.1942
C75 C -0.3548(5) 0.0970(10) 0.1729(3)
H53 H -0.3508 0.1391 0.2164
C76 C -0.4293(4) 0.1155(10) 0.1226(4)
H54 H -0.4771 0.1742 0.1312
C77 C -0.4384(4) 0.0521(9) 0.0591(3)
H55 H -0.4921 0.0646 0.0251
C78 C -0.3731(6) -0.0964(11) -0.0212(4)
H56 H -0.3417 -0.0207 -0.0437
H57 H -0.4346 -0.1039 -0.0476
H58 H -0.3464 -0.2089 -0.0170
C59? C 0.4369(18) 0.013(4) 0.3696(12)
C60? C 0.4835(15) -0.085(3) 0.3354(10)
H41? H 0.5314 -0.1524 0.3595
C61? C 0.4592(14) -0.083(3) 0.2666(9)
H42? H 0.4937 -0.1420 0.2433
C62? C 0.3843(12) 0.004(3) 0.2301(7)
C63? C 0.3387(12) 0.095(3) 0.2656(8)
H43? H 0.2892 0.1585 0.2418
C64? C 0.3629(14) 0.096(3) 0.3360(9)
H44? H 0.3283 0.1531 0.3595
C65? C 0.3582(11) -0.006(3) 0.1561(8)
H45? H 0.3917 -0.0739 0.1347
N5? N 0.2928(11) 0.072(3) 0.1210(8)
C66? C 0.2680(14) 0.047(3) 0.0504(9)
C67? C 0.3203(15) -0.031(3) 0.0162(11)
H46? H 0.3756 -0.0731 0.0417
C68? C 0.2982(15) -0.053(3) -0.0523(12)
H47? H 0.3364 -0.1073 -0.0737
C69? C 0.2178(15) 0.009(4) -0.0881(14)
H48? H 0.1991 -0.0029 -0.1355
C70? C 0.1645(17) 0.087(4) -0.0554(12)
H49? H 0.1094 0.1285 -0.0814
C71? C 0.1867(15) 0.108(3) 0.0128(12)
H50? H 0.1482 0.1626 0.0337
loop_
_geom_bond_atom_site_label_1
_geom_bond_atom_site_label_2
_geom_bond_site_symmetry_1
_geom_bond_site_symmetry_2
S1 C1 1_555 1_555
C1 S2 1_555 1_555
S2 C3 1_555 1_555
C2 S1 1_555 1_555
C3 C2 1_555 1_555
S3 C4 1_555 1_555
C4 C1 1_555 1_555
S4 C4 1_555 1_555
C5 S3 1_555 1_555
C6 S4 1_555 1_555
C7 C2 1_555 1_555
C8 C7 1_555 1_555
H1 C8 1_555 1_555
C9 C8 1_555 1_555
H2 C9 1_555 1_555
C10 C9 1_555 1_555
C11 C10 1_555 1_555
H3 C11 1_555 1_555
C12 C7 1_555 1_555
H4 C12 1_555 1_555
C13 C10 1_555 1_555
H5 C13 1_555 1_555
N1 C13 1_555 1_555
C14 N1 1_555 1_555
C15 C14 1_555 1_555
H6 C15 1_555 1_555
C16 C15 1_555 1_555
H7 C16 1_555 1_555
C17 C16 1_555 1_555
H8 C17 1_555 1_555
C18 C17 1_555 1_555
H9 C18 1_555 1_555
C19 C14 1_555 1_555
H10 C19 1_555 1_555
C20 C6 1_555 1_555
C21 C20 1_555 1_555
H11 C21 1_555 1_555
C22 C21 1_555 1_555
H12 C22 1_555 1_555
C23 C22 1_555 1_555
C24 C23 1_555 1_555
H13 C24 1_555 1_555
C25 C20 1_555 1_555
H14 C25 1_555 1_555
C26 C23 1_555 1_555
H15 C26 1_555 1_555
N2 C26 1_555 1_555
C27 N2 1_555 1_555
C28 C27 1_555 1_555
H16 C28 1_555 1_555
C29 C28 1_555 1_555
H17 C29 1_555 1_555
C30 C29 1_555 1_555
H18 C30 1_555 1_555
C31 C30 1_555 1_555
H19 C31 1_555 1_555
C32 C27 1_555 1_555
H20 C32 1_555 1_555
C33 C3 1_555 1_555
C34 C33 1_555 1_555
H21 C34 1_555 1_555
C35 C34 1_555 1_555
H22 C35 1_555 1_555
C36 C35 1_555 1_555
C37 C36 1_555 1_555
H23 C37 1_555 1_555
C38 C33 1_555 1_555
H24 C38 1_555 1_555
C39 C36 1_555 1_555
H25 C39 1_555 1_555
N3 C39 1_555 1_555
C40 N3 1_555 1_555
C41 C40 1_555 1_555
H26 C41 1_555 1_555
C42 C41 1_555 1_555
H27 C42 1_555 1_555
C43 C42 1_555 1_555
H28 C43 1_555 1_555
C44 C43 1_555 1_555
H29 C44 1_555 1_555
C45 C40 1_555 1_555
H30 C45 1_555 1_555
C46 C5 1_555 1_555
C47 C46 1_555 1_555
H31 C47 1_555 1_555
C48 C47 1_555 1_555
H32 C48 1_555 1_555
C49 C48 1_555 1_555
C50 C49 1_555 1_555
H33 C50 1_555 1_555
C51 C46 1_555 1_555
H34 C51 1_555 1_555
C52 C49 1_555 1_555
H35 C52 1_555 1_555
N4 C52 1_555 1_555
C53 N4 1_555 1_555
C54 C53 1_555 1_555
H36 C54 1_555 1_555
C55 C54 1_555 1_555
H37 C55 1_555 1_555
C56 C55 1_555 1_555
H38 C56 1_555 1_555
C57 C56 1_555 1_555
H39 C57 1_555 1_555
C58 C53 1_555 1_555
H40 C58 1_555 1_555
C72 C73 1_555 1_555
C73 H51 1_555 1_555
C74 C73 1_555 1_555
H52 C74 1_555 1_555
C75 C74 1_555 1_555
H53 C75 1_555 1_555
C76 C75 1_555 1_555
H54 C76 1_555 1_555
C77 C72 1_555 1_555
H55 C77 1_555 1_555
C78 C72 1_555 1_555
H56 C78 1_555 1_555
H57 C78 1_555 1_555
H58 C78 1_555 1_555
C5 C6 1_555 1_555
C11 C12 1_555 1_555
C18 C19 1_555 1_555
C24 C25 1_555 1_555
C31 C32 1_555 1_555
C37 C38 1_555 1_555
C44 C45 1_555 1_555
C50 C51 1_555 1_555
C57 C58 1_555 1_555
C76 C77 1_555 1_555

#END
