
#######################################################################
#
#                 Cambridge Crystallographic Data Centre
#                                CCDC 
#
#######################################################################
#
# If this CIF has been generated from an entry in the Cambridge 
# Structural Database, then it will include bibliographic, chemical, 
# crystal, experimental, refinement or atomic coordinate data resulting 
# from the CCDC's data processing and validation procedures.
#
#######################################################################

data_DOQXIS
_chemical_formula_moiety         'C29 H24 Br1 Cl2 N3 O2'
_chemical_name_systematic        
1'-Benzyl-7'-bromo-7,8-dichloro-3,3-dimethyl-3,4,5,10-tetrahydrospiro[dibenzo[b,e][1,4]diazepine-11,3'-indole]-1,2'(1'H,2H)-dione
_symmetry_cell_setting           hexagonal
_symmetry_space_group_name_H-M   'P 65'
_symmetry_Int_Tables_number      170
_space_group_name_Hall           'P 65'
loop_
_symmetry_equiv_pos_site_id
_symmetry_equiv_pos_as_xyz
1 x,y,z
2 x-y,x,5/6+z
3 y,-x+y,1/6+z
4 -y,x-y,2/3+z
5 -x+y,-x,1/3+z
6 -x,-y,1/2+z
_cell_length_a                   11.2089(13)
_cell_length_b                   11.2089(13)
_cell_length_c                   37.616(4)
_cell_angle_alpha                90
_cell_angle_beta                 90
_cell_angle_gamma                120
_cell_volume                     4092.88
_exptl_crystal_colour            colorless
_cell_formula_units_Z            6
loop_
_atom_site_label
_atom_site_type_symbol
_atom_site_fract_x
_atom_site_fract_y
_atom_site_fract_z
Br1 Br 0.40268(15) 0.64205(13) 0.08265(2)
Cl1 Cl 0.7263(2) 0.9306(2) 0.31980(7)
Cl2 Cl 0.5723(3) 0.7112(3) 0.38079(6)
N1 N 0.3545(7) 0.6029(6) 0.17254(17)
N2 N 0.5233(6) 0.5289(6) 0.23173(15)
H1 H 0.5993 0.5418 0.2214
N3 N 0.3881(6) 0.3365(6) 0.28744(15)
H2 H 0.4003 0.2839 0.3027
O1 O 0.1316(5) 0.3067(6) 0.18507(14)
O2 O 0.2978(6) 0.6059(5) 0.23128(16)
C1 C 0.3383(8) 0.5621(7) 0.20730(19)
C2 C 0.3910(7) 0.4586(7) 0.21186(17)
C3 C 0.4258(8) 0.4428(7) 0.17422(19)
C4 C 0.4780(9) 0.3634(9) 0.1619(2)
H3 H 0.4909 0.3037 0.1773
C5 C 0.5114(10) 0.3730(11) 0.1263(3)
H4 H 0.5491 0.3199 0.1172
C6 C 0.4915(10) 0.4566(11) 0.1040(2)
H5 H 0.5152 0.4605 0.0796
C7 C 0.4363(9) 0.5379(9) 0.1164(2)
C8 C 0.4050(7) 0.5320(7) 0.15261(18)
C9 C 0.2849(6) 0.3246(6) 0.22866(16)
C10 C 0.1554(7) 0.2510(8) 0.2103(2)
C11 C 0.0475(8) 0.1087(8) 0.2221(2)
H6 H -0.0169 0.1167 0.2386
H7 H -0.0060 0.0561 0.2010
C12 C 0.1060(8) 0.0297(8) 0.2401(2)
C13 C 0.1990(8) 0.1227(7) 0.2705(2)
H8 H 0.1393 0.1219 0.2900
H9 H 0.2532 0.0818 0.2799
C14 C 0.2958(7) 0.2677(7) 0.26059(16)
C15 C 0.1857(10) -0.0059(10) 0.2140(3)
H10 H 0.2231 -0.0573 0.2262
H11 H 0.1242 -0.0625 0.1948
H12 H 0.2614 0.0790 0.2040
C16 C -0.0110(10) -0.1014(8) 0.2569(3)
H13 H 0.0274 -0.1528 0.2687
H14 H -0.0594 -0.0763 0.2744
H15 H -0.0757 -0.1588 0.2384
C17 C 0.5289(7) 0.5745(7) 0.26634(18)
C18 C 0.6088(7) 0.7127(7) 0.2756(2)
H16 H 0.6526 0.7789 0.2573
C19 C 0.6267(7) 0.7570(8) 0.3103(2)
C20 C 0.5601(7) 0.6605(8) 0.33688(19)
C21 C 0.4791(7) 0.5214(8) 0.3290(2)
H17 H 0.4333 0.4563 0.3474
C22 C 0.4657(6) 0.4785(7) 0.29407(17)
C23 C 0.3322(9) 0.7168(8) 0.1628(3)
H18 H 0.2761 0.6902 0.1408
H19 H 0.2764 0.7263 0.1818
C24 C 0.4498(19) 0.8485(18) 0.1571(6)
C25 C 0.431(2) 0.939(2) 0.1359(7)
H20 H 0.3419 0.9124 0.1267
C26 C 0.541(3) 1.0690(19) 0.1283(7)
H21 H 0.5281 1.1310 0.1139
C27 C 0.671(2) 1.1081(18) 0.1419(8)
H22 H 0.7466 1.1969 0.1367
C28 C 0.6903(19) 1.017(2) 0.1630(7)
H23 H 0.7790 1.0442 0.1723
C29 C 0.580(2) 0.888(2) 0.1706(6)
H24 H 0.5928 0.8256 0.1851
C30? C 0.4773(18) 0.8519(15) 0.1598(5)
C31? C 0.508(2) 0.9475(19) 0.1327(4)
H25? H 0.4427 0.9293 0.1144
C32? C 0.634(2) 1.0697(18) 0.1326(5)
H26? H 0.6544 1.1350 0.1141
C33? C 0.7288(18) 1.0962(17) 0.1595(7)
H27? H 0.8147 1.1797 0.1594
C34? C 0.6983(17) 1.0006(18) 0.1865(6)
H28? H 0.7634 1.0188 0.2048
C35? C 0.5725(19) 0.8784(16) 0.1866(4)
H29? H 0.5517 0.8131 0.2051
loop_
_geom_bond_atom_site_label_1
_geom_bond_atom_site_label_2
_geom_bond_site_symmetry_1
_geom_bond_site_symmetry_2
Br1 C7 1_555 1_555
Cl1 C19 1_555 1_555
Cl2 C20 1_555 1_555
N1 C1 1_555 1_555
N2 H1 1_555 1_555
N3 H2 1_555 1_555
O1 C10 1_555 1_555
O2 C1 1_555 1_555
C1 C2 1_555 1_555
C2 N2 1_555 1_555
C3 C2 1_555 1_555
C4 C3 1_555 1_555
H3 C4 1_555 1_555
C5 C4 1_555 1_555
H4 C5 1_555 1_555
C6 C5 1_555 1_555
H5 C6 1_555 1_555
C7 C6 1_555 1_555
C8 N1 1_555 1_555
C9 C2 1_555 1_555
C10 C9 1_555 1_555
C11 C10 1_555 1_555
H6 C11 1_555 1_555
H7 C11 1_555 1_555
C12 C11 1_555 1_555
C13 C12 1_555 1_555
H8 C13 1_555 1_555
H9 C13 1_555 1_555
C14 N3 1_555 1_555
C15 C12 1_555 1_555
H10 C15 1_555 1_555
H11 C15 1_555 1_555
H12 C15 1_555 1_555
C16 C12 1_555 1_555
H13 C16 1_555 1_555
H14 C16 1_555 1_555
H15 C16 1_555 1_555
C17 N2 1_555 1_555
C18 C17 1_555 1_555
H16 C18 1_555 1_555
C19 C18 1_555 1_555
C20 C19 1_555 1_555
C21 C20 1_555 1_555
H17 C21 1_555 1_555
C22 N3 1_555 1_555
C23 N1 1_555 1_555
H18 C23 1_555 1_555
H19 C23 1_555 1_555
C24 C23 1_555 1_555
C25 C24 1_555 1_555
H20 C25 1_555 1_555
C26 C25 1_555 1_555
H21 C26 1_555 1_555
C27 C26 1_555 1_555
H22 C27 1_555 1_555
C28 C27 1_555 1_555
H23 C28 1_555 1_555
C29 C24 1_555 1_555
H24 C29 1_555 1_555
C3 C8 1_555 1_555
C7 C8 1_555 1_555
C9 C14 1_555 1_555
C13 C14 1_555 1_555
C17 C22 1_555 1_555
C21 C22 1_555 1_555
C28 C29 1_555 1_555

#END
