
#######################################################################
#
#                 Cambridge Crystallographic Data Centre
#                                CCDC 
#
#######################################################################
#
# If this CIF has been generated from an entry in the Cambridge 
# Structural Database, then it will include bibliographic, chemical, 
# crystal, experimental, refinement or atomic coordinate data resulting 
# from the CCDC's data processing and validation procedures.
#
#######################################################################

data_DOQYOY
_chemical_formula_moiety         'C95 H36,C6 H4 Cl2'
_chemical_name_systematic        
'1,6,9,12,15,18-hexahydro-6,9,12,15,18-pentakis(3-methylphenyl)C60fullerene 1,2-dichlorobenzene solvate'
_symmetry_cell_setting           monoclinic
_symmetry_space_group_name_H-M   'P 21/c'
_symmetry_Int_Tables_number      14
_space_group_name_Hall           '-P 2ybc'
loop_
_symmetry_equiv_pos_site_id
_symmetry_equiv_pos_as_xyz
1 x,y,z
2 -x,1/2+y,1/2-z
3 -x,-y,-z
4 x,1/2-y,1/2+z
_cell_length_a                   16.5493(16)
_cell_length_b                   18.5294(18)
_cell_length_c                   38.904(4)
_cell_angle_alpha                90
_cell_angle_beta                 93.1690(10)
_cell_angle_gamma                90
_cell_volume                     11911.6
_exptl_crystal_colour            red
_exptl_crystal_description       block
_cell_formula_units_Z            8
loop_
_atom_site_label
_atom_site_type_symbol
_atom_site_fract_x
_atom_site_fract_y
_atom_site_fract_z
C1 C 0.32624(18) 0.80877(13) 0.53893(6)
C2 C 0.34557(16) 0.79551(13) 0.50315(6)
C3 C 0.34800(15) 0.72095(12) 0.49772(6)
C4 C 0.33383(18) 0.68492(13) 0.52971(6)
C5 C 0.32323(17) 0.73876(13) 0.55529(6)
C6 C 0.34013(14) 0.72679(13) 0.59358(6)
C7 C 0.39807(15) 0.66157(12) 0.59768(6)
C8 C 0.40715(15) 0.60950(12) 0.57290(6)
C9 C 0.36043(15) 0.60858(12) 0.53764(6)
C10 C 0.42926(15) 0.59070(12) 0.51393(6)
C11 C 0.44088(15) 0.62434(12) 0.48302(6)
C12 C 0.38740(15) 0.68553(12) 0.46787(5)
C13 C 0.45255(15) 0.73836(12) 0.45635(5)
C14 C 0.45054(14) 0.81173(12) 0.46163(5)
C15 C 0.38342(14) 0.85071(12) 0.48039(6)
C16 C 0.43517(14) 0.90088(12) 0.50416(6)
C17 C 0.42219(14) 0.91200(12) 0.53844(6)
C18 C 0.35454(14) 0.87675(12) 0.55816(6)
C19 C 0.40279(14) 0.85386(12) 0.59133(6)
C20 C 0.39638(14) 0.78776(12) 0.60677(6)
C21 C 0.46545(15) 0.75786(12) 0.62586(5)
C22 C 0.46638(15) 0.68058(12) 0.62011(5)
C23 C 0.54048(16) 0.64467(13) 0.61896(6)
C24 C 0.54932(16) 0.59007(12) 0.59318(6)
C25 C 0.48423(15) 0.57479(12) 0.57027(6)
C26 C 0.49751(16) 0.56322(12) 0.53410(6)
C27 C 0.57541(16) 0.56688(12) 0.52251(6)
C28 C 0.58784(16) 0.60225(12) 0.49034(6)
C29 C 0.52139(15) 0.63191(12) 0.47171(6)
C30 C 0.52843(15) 0.70150(12) 0.45521(5)
C31 C 0.60137(15) 0.73916(13) 0.45815(6)
C32 C 0.59980(15) 0.81582(13) 0.46387(6)
C33 C 0.52514(14) 0.85031(12) 0.46651(6)
C34 C 0.51575(14) 0.90502(12) 0.49253(6)
C35 C 0.58137(15) 0.92368(12) 0.51478(6)
C36 C 0.56827(15) 0.93579(12) 0.55057(6)
C37 C 0.49015(15) 0.92830(12) 0.56194(6)
C38 C 0.47811(15) 0.89234(12) 0.59422(6)
C39 C 0.54421(15) 0.86536(12) 0.61401(6)
C40 C 0.53746(15) 0.79623(13) 0.63030(6)
C41 C 0.61409(15) 0.75895(13) 0.62831(6)
C42 C 0.61540(15) 0.68465(13) 0.62278(6)
C43 C 0.67147(15) 0.65436(13) 0.59929(6)
C44 C 0.63043(16) 0.59563(13) 0.58098(6)
C45 C 0.64331(16) 0.58433(13) 0.54631(6)
C46 C 0.69730(15) 0.63126(14) 0.52848(6)
C47 C 0.66332(15) 0.64214(13) 0.49383(6)
C48 C 0.67004(15) 0.70906(13) 0.47806(6)
C49 C 0.71118(15) 0.76807(13) 0.49634(6)
C50 C 0.74397(15) 0.75776(14) 0.52970(7)
C51 C 0.73698(15) 0.68773(14) 0.54617(7)
C52 C 0.72390(15) 0.69953(14) 0.58224(7)
C53 C 0.72201(15) 0.77680(14) 0.58821(7)
C54 C 0.66794(15) 0.80567(14) 0.61060(6)
C55 C 0.62474(15) 0.87189(13) 0.60176(6)
C56 C 0.63672(15) 0.90662(13) 0.57082(6)
C57 C 0.69233(15) 0.87618(13) 0.54734(6)
C58 C 0.73463(15) 0.81259(14) 0.55566(7)
C59 C 0.65818(14) 0.88701(12) 0.51248(6)
C60 C 0.66731(15) 0.83398(13) 0.48761(6)
C61 C 0.29135(15) 0.55369(12) 0.53425(6)
C62 C 0.27107(17) 0.50991(14) 0.56156(7)
H1 H 0.3007 0.5132 0.5831
C63 C 0.20693(18) 0.46120(15) 0.55711(8)
H2 H 0.1932 0.4311 0.5757
C64 C 0.16331(18) 0.45658(16) 0.52586(8)
H3 H 0.1192 0.4239 0.5232
C65 C 0.18360(18) 0.49960(15) 0.49814(8)
C66 C 0.24798(17) 0.54680(14) 0.50273(7)
H4 H 0.2631 0.5753 0.4838
C67 C 0.1371(2) 0.4946(2) 0.46373(9)
H5 H 0.1662 0.5211 0.4464
H6 H 0.0832 0.5157 0.4655
H7 H 0.1318 0.4439 0.4569
C68 C 0.26415(15) 0.72006(13) 0.61418(6)
C69 C 0.19745(17) 0.68180(16) 0.60087(8)
H8 H 0.1992 0.6580 0.5793
C70 C 0.12821(18) 0.67859(18) 0.61932(9)
H9 H 0.0825 0.6523 0.6103
C71 C 0.12481(18) 0.71301(17) 0.65065(8)
H10 H 0.0764 0.7109 0.6627
C72 C 0.19106(19) 0.75067(18) 0.66486(8)
C73 C 0.26081(18) 0.75327(16) 0.64621(7)
H11 H 0.3070 0.7783 0.6556
C74 C 0.1890(3) 0.7880(3) 0.69937(10)
H12 H 0.2143 0.7570 0.7173
H13 H 0.1327 0.7975 0.7045
H14 H 0.2186 0.8337 0.6986
C75 C 0.28477(14) 0.92745(12) 0.56600(6)
C76 C 0.28767(15) 1.00090(13) 0.55846(7)
H15 H 0.3341 1.0209 0.5488
C77 C 0.22211(17) 1.04481(14) 0.56519(7)
H16 H 0.2237 1.0946 0.5595
C78 C 0.15511(17) 1.01726(15) 0.57989(7)
H17 H 0.1108 1.0479 0.5841
C79 C 0.15207(17) 0.94435(16) 0.58860(8)
C80 C 0.21716(16) 0.90016(14) 0.58117(7)
H18 H 0.2152 0.8502 0.5866
C81 C 0.0802(2) 0.9132(2) 0.60596(12)
H19 H 0.0843 0.9253 0.6305
H20 H 0.0796 0.8606 0.6032
H21 H 0.0301 0.9336 0.5954
C82 C 0.32028(14) 0.88981(12) 0.45696(6)
C83 C 0.31569(16) 0.87860(16) 0.42162(6)
H22 H 0.3536 0.8481 0.4113
C84 C 0.25463(18) 0.91273(18) 0.40133(7)
H23 H 0.2515 0.9056 0.3771
C85 C 0.19906(18) 0.95650(16) 0.41610(8)
H24 H 0.1579 0.9792 0.4019
C86 C 0.20226(16) 0.96803(14) 0.45143(8)
C87 C 0.26375(16) 0.93458(13) 0.47140(7)
H25 H 0.2672 0.9425 0.4956
C88 C 0.1414(2) 1.01597(18) 0.46759(11)
H26 H 0.1502 1.0146 0.4927
H27 H 0.0866 0.9989 0.4611
H28 H 0.1477 1.0656 0.4595
C89 C 0.33130(16) 0.66388(13) 0.43698(6)
C90 C 0.25482(18) 0.69384(16) 0.43191(7)
H29 H 0.2353 0.7265 0.4484
C91 C 0.2066(2) 0.67595(18) 0.40254(8)
H30 H 0.1537 0.6957 0.3993
C92 C 0.2354(2) 0.62957(17) 0.37807(7)
H31 H 0.2020 0.6179 0.3582
C93 C 0.31258(19) 0.59994(14) 0.38221(6)
C94 C 0.35941(17) 0.61720(14) 0.41211(6)
H32 H 0.4118 0.5966 0.4156
C95 C 0.3452(2) 0.55083(16) 0.35531(7)
H33 H 0.4006 0.5364 0.3624
H34 H 0.3453 0.5764 0.3333
H35 H 0.3110 0.5078 0.3528
C96 C 0.74048(18) 0.75747(14) 0.75857(6)
C97 C 0.73355(16) 0.78891(13) 0.79270(6)
C98 C 0.75977(15) 0.73595(13) 0.81714(6)
C99 C 0.78389(15) 0.67309(13) 0.79911(6)
C100 C 0.76954(16) 0.68539(13) 0.76333(6)
C101 C 0.75942(14) 0.62563(12) 0.73707(6)
C102 C 0.73213(14) 0.55769(12) 0.75641(6)
C103 C 0.74725(14) 0.54597(12) 0.79099(6)
C104 C 0.79286(14) 0.59931(12) 0.81535(6)
C105 C 0.73834(15) 0.59833(13) 0.84634(6)
C106 C 0.71532(15) 0.65901(13) 0.86350(6)
C107 C 0.74084(15) 0.73678(13) 0.85457(6)
C108 C 0.65890(15) 0.77649(13) 0.85651(6)
C109 C 0.63011(15) 0.82586(12) 0.83255(6)
C110 C 0.67443(14) 0.84857(12) 0.80052(6)
C111 C 0.60434(14) 0.84478(12) 0.77274(6)
C112 C 0.60956(14) 0.81530(12) 0.74067(6)
C113 C 0.68579(14) 0.77919(12) 0.72743(6)
C114 C 0.64888(14) 0.71003(12) 0.71136(5)
C115 C 0.68137(14) 0.64275(13) 0.71519(6)
C116 C 0.62882(15) 0.58075(12) 0.71421(6)
C117 C 0.65984(15) 0.52880(12) 0.73939(6)
C118 C 0.60652(15) 0.48630(12) 0.75704(6)
C119 C 0.62244(16) 0.47370(12) 0.79337(6)
C120 C 0.69066(15) 0.50504(12) 0.80980(6)
C121 C 0.68538(16) 0.53707(13) 0.84375(6)
C122 C 0.61178(17) 0.53653(13) 0.85963(6)
C123 C 0.58760(17) 0.60021(14) 0.87755(6)
C124 C 0.63795(16) 0.66022(13) 0.87852(6)
C125 C 0.60353(16) 0.73202(14) 0.87422(6)
C126 C 0.52010(16) 0.74041(14) 0.86896(6)
C127 C 0.48946(15) 0.79195(14) 0.84399(6)
C128 C 0.54412(15) 0.83210(12) 0.82556(6)
C129 C 0.52838(14) 0.84395(12) 0.78914(6)
C130 C 0.45880(14) 0.81631(12) 0.77249(6)
C131 C 0.46385(14) 0.78456(13) 0.73883(6)
C132 C 0.53869(14) 0.78290(12) 0.72393(6)
C133 C 0.56287(14) 0.71874(12) 0.70605(5)
C134 C 0.51208(15) 0.65896(13) 0.70329(6)
C135 C 0.54580(15) 0.58783(13) 0.70745(6)
C136 C 0.49043(16) 0.54443(13) 0.72628(7)
C137 C 0.52004(16) 0.49483(13) 0.75044(7)
C138 C 0.48229(17) 0.48774(13) 0.78318(7)
C139 C 0.54550(17) 0.47459(13) 0.80968(7)
C140 C 0.54065(17) 0.50541(13) 0.84217(7)
C141 C 0.47146(17) 0.55029(15) 0.84952(7)
C142 C 0.41038(16) 0.56277(15) 0.82388(7)
C143 C 0.41649(16) 0.53110(15) 0.78997(8)
C144 C 0.38512(15) 0.58286(15) 0.76470(7)
C145 C 0.42162(15) 0.58946(14) 0.73338(7)
C146 C 0.43477(15) 0.66039(14) 0.71912(6)
C147 C 0.41121(14) 0.72220(14) 0.73652(6)
C148 C 0.37343(14) 0.71507(14) 0.76929(7)
C149 C 0.36052(15) 0.64684(15) 0.78284(7)
C150 C 0.37604(15) 0.63444(15) 0.81964(7)
C151 C 0.40431(16) 0.69072(15) 0.84081(7)
C152 C 0.41736(15) 0.76164(14) 0.82642(7)
C153 C 0.40274(14) 0.77371(14) 0.79153(7)
C154 C 0.46808(16) 0.67756(15) 0.86715(7)
C155 C 0.50092(17) 0.60881(14) 0.87130(6)
C156 C 0.80743(15) 0.76874(13) 0.87901(6)
C157 C 0.81463(19) 0.74769(16) 0.91327(7)
H36 H 0.7765 0.7151 0.9220
C158 C 0.8774(2) 0.77407(17) 0.93495(8)
H37 H 0.8824 0.7591 0.9583
C159 C 0.93332(18) 0.82281(17) 0.92232(8)
H38 H 0.9771 0.8396 0.9370
C160 C 0.92516(19) 0.84651(19) 0.88879(9)
C161 C 0.86187(18) 0.81914(17) 0.86735(8)
H39 H 0.8559 0.8354 0.8442
C162 C 0.9823(3) 0.9010(3) 0.87511(13)
H40 H 0.9515 0.9424 0.8658
H41 H 1.0124 0.8790 0.8568
H42 H 1.0202 0.9171 0.8938
C163 C 0.88129(14) 0.58004(13) 0.82435(6)
C164 C 0.91925(17) 0.52185(15) 0.80974(7)
H43 H 0.8891 0.4895 0.7951
C165 C 1.00186(18) 0.51103(17) 0.81669(8)
H44 H 1.0278 0.4710 0.8067
C166 C 1.04674(17) 0.55787(17) 0.83796(8)
H45 H 1.1033 0.5506 0.8419
C167 C 1.00909(18) 0.61561(17) 0.85367(9)
C168 C 0.92640(17) 0.62542(15) 0.84666(8)
H46 H 0.8999 0.6642 0.8574
C169 C 1.0553(2) 0.6677(2) 0.87753(13)
H47 H 1.0656 0.6450 0.9001
H48 H 1.0232 0.7116 0.8801
H49 H 1.1069 0.6801 0.8678
C170 C 0.83306(14) 0.61189(12) 0.71565(6)
C171 C 0.91074(17) 0.61837(17) 0.73086(7)
H50 H 0.9184 0.6313 0.7544
C172 C 0.97703(17) 0.60583(19) 0.71133(8)
H51 H 1.0301 0.6108 0.7216
C173 C 0.96684(17) 0.58611(16) 0.67696(7)
H52 H 1.0129 0.5766 0.6641
C174 C 0.88978(16) 0.58018(14) 0.66120(7)
C175 C 0.82326(15) 0.59345(14) 0.68105(6)
H53 H 0.7702 0.5898 0.6706
C176 C 0.87684(19) 0.5614(2) 0.62372(8)
H54 H 0.9294 0.5544 0.6137
H55 H 0.8476 0.6007 0.6116
H56 H 0.8451 0.5169 0.6213
C177 C 0.73128(13) 0.82308(12) 0.70116(6)
C178 C 0.70122(14) 0.88727(12) 0.68726(6)
H57 H 0.6504 0.9051 0.6937
C179 C 0.74546(15) 0.92555(13) 0.66392(6)
H58 H 0.7252 0.9699 0.6548
C180 C 0.81884(16) 0.89921(14) 0.65399(7)
H59 H 0.8486 0.9257 0.6381
C181 C 0.8493(2) 0.83441(19) 0.66713(12)
C182 C 0.80473(16) 0.79716(15) 0.69088(8)
H60 H 0.8252 0.7530 0.7002
C183 C 0.9287(2) 0.80487(19) 0.65677(12)
H61 H 0.9385 0.8207 0.6333
H62 H 0.9273 0.7520 0.6575
H63 H 0.9723 0.8226 0.6727
C184 C 0.71329(15) 0.92365(12) 0.80264(7)
C185 C 0.7119(2) 0.96642(17) 0.83153(8)
H64 H 0.6871 0.9495 0.8514
C186 C 0.7473(3) 1.0352(2) 0.83142(10)
H65 H 0.7456 1.0650 0.8512
C187 C 0.7844(2) 1.05994(17) 0.80307(9)
H66 H 0.8091 1.1062 0.8036
C188 C 0.78618(16) 1.01829(14) 0.77360(7)
C189 C 0.75063(15) 0.95002(13) 0.77390(6)
H67 H 0.7519 0.9206 0.7539
C190 C 0.82405(18) 1.04556(16) 0.74185(8)
H68 H 0.8209 1.0984 0.7412
H69 H 0.7951 1.0255 0.7214
H70 H 0.8809 1.0306 0.7423
Cl1 Cl 0.05077(11) 0.61287(9) 0.53219(5)
Cl2 Cl -0.06337(9) 0.72282(15) 0.56756(5)
C191 C 0.0482(3) 0.70200(18) 0.52062(14)
C192 C -0.0011(3) 0.7516(2) 0.53622(13)
C193 C 0.0020(3) 0.8241(2) 0.52731(13)
H71 H -0.0317 0.8580 0.5380
C194 C 0.0543(3) 0.84711(18) 0.50280(13)
H72 H 0.0564 0.8967 0.4967
C195 C 0.1036(3) 0.7975(2) 0.48719(12)
H73 H 0.1394 0.8132 0.4704
C196 C 0.1005(3) 0.7250(2) 0.49610(13)
H74 H 0.1342 0.6911 0.4854
Cl3 Cl 0.20736(8) 0.89697(5) 0.77854(3)
Cl4 Cl 0.18355(7) 0.73671(5) 0.80108(3)
C197 C 0.1027(3) 0.7903(3) 0.78926(18)
C198 C 0.0293(3) 0.7538(2) 0.7880(2)
H75 H 0.0276 0.7043 0.7944
C199 C -0.0416(3) 0.7896(2) 0.7775(2)
H76 H -0.0918 0.7646 0.7767
C200 C -0.0391(2) 0.8619(3) 0.7682(2)
H77 H -0.0876 0.8864 0.7610
C201 C 0.0343(3) 0.8985(2) 0.7694(2)
H78 H 0.0361 0.9480 0.7631
C202 C 0.1053(2) 0.8627(3) 0.7800(2)
C203? C 0.1192(2) 0.8596(4) 0.7808(2)
C204? C 0.0587(3) 0.9104(3) 0.77359(17)
C205? C -0.0222(3) 0.8905(3) 0.7743(2)
C206? C -0.0426(3) 0.8199(3) 0.7822(3)
C207? C 0.0178(5) 0.7692(3) 0.7894(3)
C208? C 0.0987(4) 0.7890(4) 0.7887(3)
C209? C 0.0781(5) 0.7603(3) 0.49745(4)
C210? C 0.0092(5) 0.7754(3) 0.51503(5)
C211? C -0.0239(5) 0.7228(3) 0.53547(7)
C212? C 0.0118(5) 0.6550(3) 0.53833(6)
C213? C 0.0807(5) 0.6399(3) 0.52076(5)
C214? C 0.1138(5) 0.6925(3) 0.50032(4)
Cl5? Cl 0.1138(7) 0.8233(4) 0.4683(3)
Cl6? Cl -0.0419(6) 0.8575(4) 0.5077(3)
H79? H 0.0727 0.9586 0.7682
H80? H -0.0635 0.9252 0.7694
H81? H -0.0979 0.8063 0.7827
H82? H 0.0038 0.7209 0.7948
H83? H -0.0710 0.7332 0.5475
H84? H -0.0109 0.6191 0.5523
H85? H 0.1051 0.5935 0.5227
H86? H 0.1609 0.6821 0.4883
loop_
_geom_bond_atom_site_label_1
_geom_bond_atom_site_label_2
_geom_bond_site_symmetry_1
_geom_bond_site_symmetry_2
C1 C2 1_555 1_555
C2 C3 1_555 1_555
C3 C4 1_555 1_555
C4 C5 1_555 1_555
C5 C1 1_555 1_555
C6 C5 1_555 1_555
C7 C6 1_555 1_555
C8 C7 1_555 1_555
C9 C4 1_555 1_555
C10 C9 1_555 1_555
C11 C10 1_555 1_555
C12 C3 1_555 1_555
C13 C12 1_555 1_555
C14 C13 1_555 1_555
C15 C2 1_555 1_555
C16 C15 1_555 1_555
C17 C16 1_555 1_555
C18 C1 1_555 1_555
C19 C18 1_555 1_555
C20 C6 1_555 1_555
C21 C20 1_555 1_555
C22 C7 1_555 1_555
C23 C22 1_555 1_555
C24 C23 1_555 1_555
C25 C8 1_555 1_555
C26 C10 1_555 1_555
C27 C26 1_555 1_555
C28 C27 1_555 1_555
C29 C11 1_555 1_555
C30 C13 1_555 1_555
C31 C30 1_555 1_555
C32 C31 1_555 1_555
C33 C14 1_555 1_555
C34 C16 1_555 1_555
C35 C34 1_555 1_555
C36 C35 1_555 1_555
C37 C17 1_555 1_555
C38 C19 1_555 1_555
C39 C38 1_555 1_555
C40 C21 1_555 1_555
C41 C40 1_555 1_555
C42 C23 1_555 1_555
C43 C42 1_555 1_555
C44 C24 1_555 1_555
C45 C27 1_555 1_555
C46 C45 1_555 1_555
C47 C28 1_555 1_555
C48 C31 1_555 1_555
C49 C48 1_555 1_555
C50 C49 1_555 1_555
C51 C46 1_555 1_555
C52 C43 1_555 1_555
C53 C52 1_555 1_555
C54 C41 1_555 1_555
C55 C39 1_555 1_555
C56 C36 1_555 1_555
C57 C56 1_555 1_555
C58 C50 1_555 1_555
C59 C35 1_555 1_555
C60 C32 1_555 1_555
C61 C9 1_555 1_555
C62 C61 1_555 1_555
H1 C62 1_555 1_555
C63 C62 1_555 1_555
H2 C63 1_555 1_555
C64 C63 1_555 1_555
H3 C64 1_555 1_555
C65 C64 1_555 1_555
C66 C61 1_555 1_555
H4 C66 1_555 1_555
C67 C65 1_555 1_555
H5 C67 1_555 1_555
H6 C67 1_555 1_555
H7 C67 1_555 1_555
C68 C6 1_555 1_555
C69 C68 1_555 1_555
H8 C69 1_555 1_555
C70 C69 1_555 1_555
H9 C70 1_555 1_555
C71 C70 1_555 1_555
H10 C71 1_555 1_555
C72 C71 1_555 1_555
C73 C68 1_555 1_555
H11 C73 1_555 1_555
C74 C72 1_555 1_555
H12 C74 1_555 1_555
H13 C74 1_555 1_555
H14 C74 1_555 1_555
C75 C18 1_555 1_555
C76 C75 1_555 1_555
H15 C76 1_555 1_555
C77 C76 1_555 1_555
H16 C77 1_555 1_555
C78 C77 1_555 1_555
H17 C78 1_555 1_555
C79 C78 1_555 1_555
C80 C75 1_555 1_555
H18 C80 1_555 1_555
C81 C79 1_555 1_555
H19 C81 1_555 1_555
H20 C81 1_555 1_555
H21 C81 1_555 1_555
C82 C15 1_555 1_555
C83 C82 1_555 1_555
H22 C83 1_555 1_555
C84 C83 1_555 1_555
H23 C84 1_555 1_555
C85 C84 1_555 1_555
H24 C85 1_555 1_555
C86 C85 1_555 1_555
C87 C82 1_555 1_555
H25 C87 1_555 1_555
C88 C86 1_555 1_555
H26 C88 1_555 1_555
H27 C88 1_555 1_555
H28 C88 1_555 1_555
C89 C12 1_555 1_555
C90 C89 1_555 1_555
H29 C90 1_555 1_555
C91 C90 1_555 1_555
H30 C91 1_555 1_555
C92 C91 1_555 1_555
H31 C92 1_555 1_555
C93 C92 1_555 1_555
C94 C89 1_555 1_555
H32 C94 1_555 1_555
C95 C93 1_555 1_555
H33 C95 1_555 1_555
H34 C95 1_555 1_555
H35 C95 1_555 1_555
C96 C97 1_555 1_555
C97 C98 1_555 1_555
C98 C99 1_555 1_555
C99 C100 1_555 1_555
C100 C96 1_555 1_555
C101 C100 1_555 1_555
C102 C101 1_555 1_555
C103 C102 1_555 1_555
C104 C99 1_555 1_555
C105 C104 1_555 1_555
C106 C105 1_555 1_555
C107 C98 1_555 1_555
C108 C107 1_555 1_555
C109 C108 1_555 1_555
C110 C97 1_555 1_555
C111 C110 1_555 1_555
C112 C111 1_555 1_555
C113 C96 1_555 1_555
C114 C113 1_555 1_555
C115 C101 1_555 1_555
C116 C115 1_555 1_555
C117 C102 1_555 1_555
C118 C117 1_555 1_555
C119 C118 1_555 1_555
C120 C103 1_555 1_555
C121 C105 1_555 1_555
C122 C121 1_555 1_555
C123 C122 1_555 1_555
C124 C106 1_555 1_555
C125 C108 1_555 1_555
C126 C125 1_555 1_555
C127 C126 1_555 1_555
C128 C109 1_555 1_555
C129 C111 1_555 1_555
C130 C129 1_555 1_555
C131 C130 1_555 1_555
C132 C112 1_555 1_555
C133 C114 1_555 1_555
C134 C133 1_555 1_555
C135 C116 1_555 1_555
C136 C135 1_555 1_555
C137 C118 1_555 1_555
C138 C137 1_555 1_555
C139 C119 1_555 1_555
C140 C122 1_555 1_555
C141 C140 1_555 1_555
C142 C141 1_555 1_555
C143 C138 1_555 1_555
C144 C143 1_555 1_555
C145 C136 1_555 1_555
C146 C134 1_555 1_555
C147 C131 1_555 1_555
C148 C147 1_555 1_555
C149 C144 1_555 1_555
C150 C142 1_555 1_555
C151 C150 1_555 1_555
C152 C127 1_555 1_555
C153 C130 1_555 1_555
C154 C126 1_555 1_555
C155 C123 1_555 1_555
C156 C107 1_555 1_555
C157 C156 1_555 1_555
H36 C157 1_555 1_555
C158 C157 1_555 1_555
H37 C158 1_555 1_555
C159 C158 1_555 1_555
H38 C159 1_555 1_555
C160 C159 1_555 1_555
C161 C156 1_555 1_555
H39 C161 1_555 1_555
C162 C160 1_555 1_555
H40 C162 1_555 1_555
H41 C162 1_555 1_555
H42 C162 1_555 1_555
C163 C104 1_555 1_555
C164 C163 1_555 1_555
H43 C164 1_555 1_555
C165 C164 1_555 1_555
H44 C165 1_555 1_555
C166 C165 1_555 1_555
H45 C166 1_555 1_555
C167 C166 1_555 1_555
C168 C163 1_555 1_555
H46 C168 1_555 1_555
C169 C167 1_555 1_555
H47 C169 1_555 1_555
H48 C169 1_555 1_555
H49 C169 1_555 1_555
C170 C101 1_555 1_555
C171 C170 1_555 1_555
H50 C171 1_555 1_555
C172 C171 1_555 1_555
H51 C172 1_555 1_555
C173 C172 1_555 1_555
H52 C173 1_555 1_555
C174 C173 1_555 1_555
C175 C170 1_555 1_555
H53 C175 1_555 1_555
C176 C174 1_555 1_555
H54 C176 1_555 1_555
H55 C176 1_555 1_555
H56 C176 1_555 1_555
C177 C113 1_555 1_555
C178 C177 1_555 1_555
H57 C178 1_555 1_555
C179 C178 1_555 1_555
H58 C179 1_555 1_555
C180 C179 1_555 1_555
H59 C180 1_555 1_555
C181 C180 1_555 1_555
C182 C177 1_555 1_555
H60 C182 1_555 1_555
C183 C181 1_555 1_555
H61 C183 1_555 1_555
H62 C183 1_555 1_555
H63 C183 1_555 1_555
C184 C110 1_555 1_555
C185 C184 1_555 1_555
H64 C185 1_555 1_555
C186 C185 1_555 1_555
H65 C186 1_555 1_555
C187 C186 1_555 1_555
H66 C187 1_555 1_555
C188 C187 1_555 1_555
C189 C184 1_555 1_555
H67 C189 1_555 1_555
C190 C188 1_555 1_555
H68 C190 1_555 1_555
H69 C190 1_555 1_555
H70 C190 1_555 1_555
Cl1 C191 1_555 1_555
Cl2 C192 1_555 1_555
C191 C192 1_555 1_555
C192 C193 1_555 1_555
C193 H71 1_555 1_555
C194 C193 1_555 1_555
H72 C194 1_555 1_555
C195 C194 1_555 1_555
H73 C195 1_555 1_555
C196 C191 1_555 1_555
H74 C196 1_555 1_555
Cl3 C202 1_555 1_555
Cl4 C197 1_555 1_555
C197 C198 1_555 1_555
C198 H75 1_555 1_555
C199 C198 1_555 1_555
H76 C199 1_555 1_555
C200 C199 1_555 1_555
H77 C200 1_555 1_555
C201 C200 1_555 1_555
H78 C201 1_555 1_555
C202 C197 1_555 1_555
C8 C9 1_555 1_555
C11 C12 1_555 1_555
C14 C15 1_555 1_555
C17 C18 1_555 1_555
C19 C20 1_555 1_555
C21 C22 1_555 1_555
C24 C25 1_555 1_555
C25 C26 1_555 1_555
C28 C29 1_555 1_555
C29 C30 1_555 1_555
C32 C33 1_555 1_555
C33 C34 1_555 1_555
C36 C37 1_555 1_555
C37 C38 1_555 1_555
C39 C40 1_555 1_555
C41 C42 1_555 1_555
C43 C44 1_555 1_555
C44 C45 1_555 1_555
C46 C47 1_555 1_555
C47 C48 1_555 1_555
C49 C60 1_555 1_555
C50 C51 1_555 1_555
C51 C52 1_555 1_555
C53 C54 1_555 1_555
C53 C58 1_555 1_555
C54 C55 1_555 1_555
C55 C56 1_555 1_555
C57 C58 1_555 1_555
C57 C59 1_555 1_555
C59 C60 1_555 1_555
C65 C66 1_555 1_555
C72 C73 1_555 1_555
C79 C80 1_555 1_555
C86 C87 1_555 1_555
C93 C94 1_555 1_555
C103 C104 1_555 1_555
C106 C107 1_555 1_555
C109 C110 1_555 1_555
C112 C113 1_555 1_555
C114 C115 1_555 1_555
C116 C117 1_555 1_555
C119 C120 1_555 1_555
C120 C121 1_555 1_555
C123 C124 1_555 1_555
C124 C125 1_555 1_555
C127 C128 1_555 1_555
C128 C129 1_555 1_555
C131 C132 1_555 1_555
C132 C133 1_555 1_555
C134 C135 1_555 1_555
C136 C137 1_555 1_555
C138 C139 1_555 1_555
C139 C140 1_555 1_555
C141 C155 1_555 1_555
C142 C143 1_555 1_555
C144 C145 1_555 1_555
C145 C146 1_555 1_555
C146 C147 1_555 1_555
C148 C149 1_555 1_555
C148 C153 1_555 1_555
C149 C150 1_555 1_555
C151 C152 1_555 1_555
C151 C154 1_555 1_555
C152 C153 1_555 1_555
C154 C155 1_555 1_555
C160 C161 1_555 1_555
C167 C168 1_555 1_555
C174 C175 1_555 1_555
C181 C182 1_555 1_555
C188 C189 1_555 1_555
C195 C196 1_555 1_555
C201 C202 1_555 1_555

#END
