
#######################################################################
#
#                 Cambridge Crystallographic Data Centre
#                                CCDC 
#
#######################################################################
#
# If this CIF has been generated from an entry in the Cambridge 
# Structural Database, then it will include bibliographic, chemical, 
# crystal, experimental, refinement or atomic coordinate data resulting 
# from the CCDC's data processing and validation procedures.
#
#######################################################################

data_DOQYIS
_chemical_formula_moiety         'C95 H36,C7 H8'
_chemical_name_systematic        
'1,6,9,12,15,18-hexahydro-6,9,12,15,18-pentakis(3-methylphenyl)C60fullerene toluene solvate'
_symmetry_cell_setting           monoclinic
_symmetry_space_group_name_H-M   'P 21/c'
_symmetry_Int_Tables_number      14
_space_group_name_Hall           '-P 2ybc'
loop_
_symmetry_equiv_pos_site_id
_symmetry_equiv_pos_as_xyz
1 x,y,z
2 -x,1/2+y,1/2-z
3 -x,-y,-z
4 x,1/2-y,1/2+z
_cell_length_a                   16.469(3)
_cell_length_b                   18.464(3)
_cell_length_c                   38.870(7)
_cell_angle_alpha                90
_cell_angle_beta                 92.545(2)
_cell_angle_gamma                90
_cell_volume                     11808.1
_exptl_crystal_colour            'light red'
_exptl_crystal_description       platelet
_cell_formula_units_Z            8
_exptl_crystal_recrystallization_method toluene
loop_
_atom_site_label
_atom_site_type_symbol
_atom_site_fract_x
_atom_site_fract_y
_atom_site_fract_z
C1 C 0.3226(3) 0.2390(2) 0.05616(11)
C2 C 0.3271(3) 0.3085(2) 0.03995(11)
C3 C 0.3453(3) 0.2947(2) 0.00396(11)
C4 C 0.3485(3) 0.2202(2) -0.00132(11)
C5 C 0.3335(3) 0.1845(2) 0.03044(11)
C6 C 0.3602(3) 0.1075(2) 0.03863(11)
C7 C 0.2904(3) 0.0532(2) 0.03584(11)
C8 C 0.2675(3) 0.0122(3) 0.06374(12)
H1 H 0.2973 0.0159 0.0852
C9 C 0.2010(3) -0.0345(3) 0.06039(13)
H2 H 0.1861 -0.0630 0.0795
C10 C 0.1566(3) -0.0396(3) 0.02935(13)
H3 H 0.1109 -0.0709 0.0274
C11 C 0.1785(3) 0.0005(3) 0.00118(12)
C12 C 0.2459(3) 0.0455(2) 0.00485(11)
H4 H 0.2622 0.0721 -0.0146
C13 C 0.1310(3) -0.0048(3) -0.03278(13)
H5 H 0.1387 -0.0529 -0.0428
H6 H 0.1502 0.0322 -0.0486
H7 H 0.0732 0.0029 -0.0291
C14 C 0.4289(3) 0.0895(2) 0.01434(11)
C15 C 0.4409(3) 0.1223(2) -0.01656(11)
C16 C 0.3874(3) 0.1845(2) -0.03150(10)
C17 C 0.3291(3) 0.1636(2) -0.06200(11)
C18 C 0.2510(3) 0.1910(3) -0.06528(12)
H8 H 0.2314 0.2216 -0.0478
C19 C 0.2008(3) 0.1741(3) -0.09383(12)
H9 H 0.1475 0.1938 -0.0961
C20 C 0.2286(3) 0.1287(3) -0.11883(12)
H10 H 0.1933 0.1160 -0.1379
C21 C 0.3073(3) 0.1009(2) -0.11690(11)
C22 C 0.3384(3) 0.0533(3) -0.14509(12)
H11 H 0.3852 0.0767 -0.1552
H12 H 0.2952 0.0461 -0.1629
H13 H 0.3550 0.0063 -0.1354
C23 C 0.3559(3) 0.1177(2) -0.08778(11)
H14 H 0.4089 0.0973 -0.0854
C24 C 0.4528(3) 0.2369(2) -0.04352(10)
C25 C 0.4507(3) 0.3105(2) -0.03829(10)
C26 C 0.3837(3) 0.3495(2) -0.01931(11)
C27 C 0.3200(3) 0.3895(2) -0.04258(11)
C28 C 0.3161(3) 0.3787(3) -0.07790(11)
H15 H 0.3548 0.3485 -0.0883
C29 C 0.2558(3) 0.4119(3) -0.09799(13)
H16 H 0.2528 0.4044 -0.1222
C30 C 0.1996(3) 0.4563(3) -0.08289(13)
H17 H 0.1585 0.4791 -0.0970
C31 C 0.2021(3) 0.4679(3) -0.04797(12)
C32 C 0.1410(3) 0.5166(3) -0.03135(13)
H18 H 0.1536 0.5674 -0.0363
H19 H 0.1437 0.5089 -0.0064
H20 H 0.0862 0.5052 -0.0406
C33 C 0.2630(3) 0.4343(2) -0.02773(12)
H21 H 0.2658 0.4419 -0.0035
C34 C 0.4362(3) 0.4004(2) 0.00443(11)
C35 C 0.4235(3) 0.4118(2) 0.03846(11)
C36 C 0.3553(3) 0.3767(2) 0.05887(10)
C37 C 0.2842(3) 0.4272(2) 0.06627(10)
C38 C 0.2881(3) 0.5012(3) 0.06014(11)
H22 H 0.3362 0.5218 0.0517
C39 C 0.2218(3) 0.5453(3) 0.06630(11)
H23 H 0.2239 0.5955 0.0611
C40 C 0.1531(3) 0.5164(3) 0.07984(11)
H24 H 0.1084 0.5470 0.0842
C41 C 0.1484(3) 0.4431(3) 0.08713(12)
C42 C 0.0739(3) 0.4105(3) 0.10225(15)
H25 H 0.0487 0.4462 0.1171
H26 H 0.0895 0.3677 0.1159
H27 H 0.0350 0.3965 0.0836
C43 C 0.2147(3) 0.4000(3) 0.08016(12)
H28 H 0.2123 0.3497 0.0851
C44 C 0.4043(3) 0.3538(2) 0.09181(11)
C45 C 0.3979(3) 0.2875(2) 0.10724(11)
C46 C 0.3408(3) 0.2270(2) 0.09436(10)
C47 C 0.2654(3) 0.2212(2) 0.11575(11)
C48 C 0.1956(3) 0.1870(3) 0.10283(13)
H29 H 0.1953 0.1647 0.0808
C49 C 0.1260(3) 0.1850(3) 0.12176(14)
H30 H 0.0786 0.1612 0.1127
C50 C 0.1257(3) 0.2177(3) 0.15370(13)
H31 H 0.0777 0.2166 0.1664
C51 C 0.1942(3) 0.2520(3) 0.16753(12)
C52 C 0.1949(4) 0.2881(3) 0.20233(14)
H32 H 0.1395 0.2896 0.2105
H33 H 0.2158 0.3376 0.2004
H34 H 0.2299 0.2607 0.2187
C53 C 0.2630(3) 0.2526(3) 0.14810(12)
H35 H 0.3107 0.2756 0.1574
C54 C 0.3990(3) 0.1611(2) 0.09816(11)
C55 C 0.4076(3) 0.1086(2) 0.07315(11)
C56 C 0.4851(3) 0.0737(2) 0.07021(11)
C57 C 0.5509(3) 0.0889(2) 0.09285(11)
C58 C 0.5417(3) 0.1439(2) 0.11849(11)
C59 C 0.4680(3) 0.1802(3) 0.12033(11)
C60 C 0.4666(3) 0.2580(2) 0.12590(10)
C61 C 0.5395(3) 0.2958(2) 0.12999(10)
C62 C 0.5466(3) 0.3651(2) 0.11354(11)
C63 C 0.4798(3) 0.3919(2) 0.09397(11)
C64 C 0.4922(3) 0.4281(2) 0.06167(11)
C65 C 0.5701(3) 0.4353(2) 0.04995(11)
C66 C 0.5832(3) 0.4230(2) 0.01399(11)
C67 C 0.5173(3) 0.4046(2) -0.00777(11)
C68 C 0.5262(3) 0.3490(2) -0.03387(11)
C69 C 0.6008(3) 0.3142(2) -0.03674(10)
C70 C 0.6021(3) 0.2376(2) -0.04271(10)
C71 C 0.5286(3) 0.2001(2) -0.04514(10)
C72 C 0.5216(3) 0.1300(2) -0.02848(11)
C73 C 0.5888(3) 0.1008(2) -0.01030(11)
C74 C 0.5758(3) 0.0656(2) 0.02212(11)
C75 C 0.4978(3) 0.0620(2) 0.03400(11)
C76 C 0.6439(3) 0.0825(2) 0.04535(11)
C77 C 0.6318(3) 0.0946(2) 0.08034(11)
C78 C 0.6739(3) 0.1533(3) 0.09828(11)
C79 C 0.6173(3) 0.1839(3) 0.12200(10)
C80 C 0.6166(3) 0.2583(3) 0.12755(10)
C81 C 0.6702(3) 0.3045(2) 0.10936(11)
C82 C 0.7247(3) 0.2753(3) 0.08671(12)
C83 C 0.7261(3) 0.1982(3) 0.08058(12)
C84 C 0.7388(3) 0.1861(3) 0.04461(12)
C85 C 0.6992(3) 0.1291(2) 0.02736(11)
C86 C 0.6646(3) 0.1402(2) -0.00734(11)
C87 C 0.6709(3) 0.2069(3) -0.02319(11)
C88 C 0.7129(3) 0.2663(3) -0.00495(11)
C89 C 0.7462(3) 0.2559(3) 0.02829(12)
C90 C 0.7369(3) 0.3113(3) 0.05399(12)
C91 C 0.6952(3) 0.3747(3) 0.04584(12)
C92 C 0.6392(3) 0.4057(2) 0.06952(12)
C93 C 0.6276(3) 0.3714(2) 0.10083(11)
C94 C 0.6601(3) 0.3860(2) 0.01141(12)
C95 C 0.6690(3) 0.3326(2) -0.01376(11)
C96 C 0.2113(3) 0.6703(2) 0.20241(11)
C97 C 0.2364(3) 0.7337(2) 0.18451(11)
C98 C 0.2614(3) 0.7862(2) 0.20890(11)
C99 C 0.2519(3) 0.7557(3) 0.24322(11)
C100 C 0.2245(3) 0.6820(2) 0.23790(11)
C101 C 0.2345(3) 0.6216(2) 0.26411(11)
C102 C 0.1603(3) 0.6075(2) 0.28588(11)
C103 C 0.0827(3) 0.6130(3) 0.27090(13)
H36 H 0.0752 0.6249 0.2472
C104 C 0.0155(3) 0.6008(3) 0.29075(13)
H37 H -0.0378 0.6052 0.2806
C105 C 0.0265(3) 0.5823(3) 0.32540(12)
H38 H -0.0196 0.5723 0.3385
C106 C 0.1028(3) 0.5784(2) 0.34087(11)
C107 C 0.1155(3) 0.5629(3) 0.37862(12)
H39 H 0.1364 0.6064 0.3904
H40 H 0.1547 0.5234 0.3819
H41 H 0.0636 0.5489 0.3881
C108 C 0.1696(3) 0.5910(2) 0.32075(11)
H42 H 0.2228 0.5882 0.3312
C109 C 0.3129(3) 0.6380(2) 0.28553(11)
C110 C 0.3457(3) 0.7058(2) 0.28953(11)
C111 C 0.3094(3) 0.7754(2) 0.27384(11)
C112 C 0.2651(3) 0.8192(2) 0.30088(10)
C113 C 0.2936(3) 0.8858(2) 0.31308(11)
H43 H 0.3423 0.9056 0.3048
C114 C 0.2506(3) 0.9235(2) 0.33741(11)
H44 H 0.2698 0.9691 0.3456
C115 C 0.1802(3) 0.8949(3) 0.34968(12)
H45 H 0.1507 0.9218 0.3658
C116 C 0.1518(3) 0.8279(3) 0.33898(13)
C117 C 0.0766(4) 0.7955(3) 0.35309(18)
H46 H 0.0785 0.8008 0.3782
H47 H 0.0736 0.7440 0.3471
H48 H 0.0286 0.8205 0.3432
C118 C 0.1940(3) 0.7915(3) 0.31416(12)
H49 H 0.1739 0.7462 0.3059
C119 C 0.3854(3) 0.8108(2) 0.26056(11)
C120 C 0.3922(3) 0.8412(2) 0.22833(11)
C121 C 0.3216(3) 0.8456(2) 0.20070(11)
C122 C 0.2845(3) 0.9221(2) 0.19859(12)
C123 C 0.2863(3) 0.9631(3) 0.16942(13)
H50 H 0.3100 0.9444 0.1494
C124 C 0.2529(4) 1.0332(3) 0.16911(14)
H51 H 0.2546 1.0620 0.1489
C125 C 0.2180(3) 1.0604(3) 0.19770(14)
H52 H 0.1952 1.1076 0.1970
C126 C 0.2157(3) 1.0197(3) 0.22756(12)
C127 C 0.1784(3) 1.0486(3) 0.25959(12)
H53 H 0.1814 1.1017 0.2596
H54 H 0.2083 1.0296 0.2800
H55 H 0.1215 1.0335 0.2599
C128 C 0.2486(3) 0.9504(2) 0.22741(12)
H56 H 0.2466 0.9215 0.2476
C129 C 0.3672(3) 0.8228(2) 0.16873(11)
C130 C 0.3379(3) 0.7732(2) 0.14473(10)
C131 C 0.2551(3) 0.7347(2) 0.14674(11)
C132 C 0.1881(3) 0.7671(2) 0.12293(11)
C133 C 0.1835(3) 0.7492(3) 0.08821(11)
H57 H 0.2230 0.7180 0.0791
C134 C 0.1212(3) 0.7767(3) 0.06684(12)
H58 H 0.1183 0.7642 0.0431
C135 C 0.0636(3) 0.8218(3) 0.07985(13)
H59 H 0.0199 0.8389 0.0653
C136 C 0.0692(3) 0.8425(3) 0.11411(13)
C137 C 0.0081(3) 0.8938(3) 0.12850(15)
H60 H -0.0217 0.8691 0.1463
H61 H -0.0301 0.9097 0.1100
H62 H 0.0364 0.9360 0.1385
C138 C 0.1320(3) 0.8146(3) 0.13507(12)
H63 H 0.1363 0.8289 0.1586
C139 C 0.2807(3) 0.6568(2) 0.13765(11)
C140 C 0.2567(3) 0.5957(2) 0.15500(10)
C141 C 0.2016(3) 0.5964(2) 0.18592(10)
C142 C 0.1131(3) 0.5785(2) 0.17664(11)
C143 C 0.0749(3) 0.5174(3) 0.18962(11)
H64 H 0.1046 0.4836 0.2037
C144 C -0.0080(3) 0.5068(3) 0.18160(12)
H65 H -0.0342 0.4653 0.1903
C145 C -0.0525(3) 0.5550(3) 0.16136(12)
H66 H -0.1090 0.5474 0.1568
C146 C -0.0144(3) 0.6150(3) 0.14756(13)
C147 C 0.0671(3) 0.6247(3) 0.15557(12)
H67 H 0.0932 0.6655 0.1461
C148 C -0.0605(3) 0.6698(3) 0.12487(16)
H68 H -0.0365 0.7179 0.1285
H69 H -0.1176 0.6708 0.1309
H70 H -0.0569 0.6559 0.1006
C149 C 0.2465(3) 0.5421(2) 0.20996(11)
C150 C 0.2614(3) 0.5535(2) 0.24458(11)
C151 C 0.3338(3) 0.5241(2) 0.26155(11)
C152 C 0.3869(3) 0.4814(2) 0.24313(12)
C153 C 0.3721(3) 0.4692(2) 0.20704(11)
C154 C 0.3092(3) 0.5339(2) 0.15720(11)
C155 C 0.3833(3) 0.5330(2) 0.14105(11)
C156 C 0.4542(3) 0.5008(3) 0.15822(12)
C157 C 0.4491(3) 0.4704(2) 0.19090(12)
C158 C 0.5123(3) 0.4824(2) 0.21712(12)
C159 C 0.4734(3) 0.4896(2) 0.24957(12)
C160 C 0.5041(3) 0.5394(3) 0.27413(11)
C161 C 0.5738(3) 0.5836(3) 0.26652(12)
C162 C 0.6106(3) 0.5776(3) 0.23505(13)
C163 C 0.5790(3) 0.5254(3) 0.20982(12)
C164 C 0.5860(3) 0.5577(3) 0.17610(13)
C165 C 0.6205(3) 0.6295(3) 0.18084(12)
C166 C 0.6361(3) 0.6414(3) 0.21736(12)
C167 C 0.6231(3) 0.7100(3) 0.23110(12)
C168 C 0.5325(3) 0.7801(2) 0.26170(11)
C169 C 0.5849(3) 0.7166(3) 0.26383(11)
C170 C 0.5605(3) 0.6550(3) 0.28107(11)
C171 C 0.5381(3) 0.8119(2) 0.22836(11)
C172 C 0.5945(3) 0.7687(3) 0.20931(12)
C173 C 0.5798(3) 0.7573(3) 0.17393(12)
C174 C 0.5929(3) 0.6867(3) 0.15955(12)
C175 C 0.3033(3) 0.5010(2) 0.19084(11)
C176 C 0.5286(3) 0.6739(3) 0.13336(11)
C177 C 0.4772(3) 0.7372(2) 0.13157(11)
C178 C 0.5080(3) 0.7885(2) 0.15657(11)
C179 C 0.4531(3) 0.8285(2) 0.17529(11)
C180 C 0.4684(3) 0.8398(2) 0.21177(11)
C181 C 0.4574(3) 0.7784(2) 0.27692(11)
C182 C 0.4321(3) 0.7140(2) 0.29456(10)
C183 C 0.4829(3) 0.6538(3) 0.29734(11)
C184 C 0.4485(3) 0.5826(3) 0.29293(11)
C185 C 0.3652(3) 0.5754(2) 0.28639(11)
C186 C 0.5245(3) 0.5460(3) 0.15083(12)
C187 C 0.4956(3) 0.6045(3) 0.12909(11)
C188 C 0.4088(3) 0.5968(2) 0.12301(11)
C189 C 0.3583(3) 0.6577(3) 0.12243(10)
C190 C 0.3928(3) 0.7286(2) 0.12675(10)
C191 C 0.0919(4) 0.1882(4) 0.00685(19)
H71 H 0.1358 0.1607 -0.0014
C192 C 0.0427(5) 0.1571(4) 0.02933(18)
H72 H 0.0521 0.1090 0.0371
C193 C -0.0226(4) 0.1973(4) 0.04099(18)
H73 H -0.0590 0.1769 0.0566
C194 C -0.0328(4) 0.2693(4) 0.02885(18)
H74 H -0.0763 0.2982 0.0364
C195 C 0.0204(4) 0.2968(4) 0.00615(19)
C196 C 0.0814(5) 0.2570(4) -0.0045(2)
H75 H 0.1179 0.2769 -0.0202
C197 C 0.0082(6) 0.3728(4) -0.0081(3)
H76 H 0.0218 0.4082 0.0101
H77 H -0.0486 0.3790 -0.0161
H78 H 0.0436 0.3801 -0.0274
C198 C 0.8294(4) 0.7740(4) 0.2055(2)
H79 H 0.7822 0.7465 0.1993
C199 C 0.9050(6) 0.7404(3) 0.2079(2)
H80 H 0.9095 0.6901 0.2034
C200 C 0.9741(4) 0.7806(5) 0.2170(2)
H81 H 1.0257 0.7577 0.2186
C201 C 0.9675(4) 0.8543(4) 0.2235(2)
C202 C 0.8919(5) 0.8879(3) 0.2211(2)
H82 H 0.8875 0.9383 0.2256
C203 C 0.8229(4) 0.8477(4) 0.2121(2)
H83 H 0.7712 0.8706 0.2104
C204 C 1.0374(8) 0.8988(9) 0.2327(4)
H84 H 1.0864 0.8686 0.2338
H85 H 1.0302 0.9212 0.2553
H86 H 1.0430 0.9367 0.2154
C205? C 0.8854(5) 0.7935(5) 0.2103(2)
C206? C 0.9586(7) 0.7575(4) 0.2168(3)
C207? C 1.0269(5) 0.7958(6) 0.2287(3)
C208? C 1.0220(6) 0.8701(6) 0.2340(3)
C209? C 0.9487(7) 0.9061(4) 0.2275(3)
C210? C 0.8804(5) 0.8678(6) 0.2157(3)
C211? C 0.8212(11) 0.7464(11) 0.1959(6)
H87? H 0.9619 0.7068 0.2132
H88? H 1.0769 0.7713 0.2331
H89? H 1.0687 0.8963 0.2421
H90? H 0.9454 0.9568 0.2312
H91? H 0.8304 0.8923 0.2112
H92? H 0.7713 0.7746 0.1917
H93? H 0.8109 0.7073 0.2122
H94? H 0.8382 0.7256 0.1742
loop_
_geom_bond_atom_site_label_1
_geom_bond_atom_site_label_2
_geom_bond_site_symmetry_1
_geom_bond_site_symmetry_2
C1 C2 1_555 1_555
C2 C3 1_555 1_555
C3 C4 1_555 1_555
C4 C5 1_555 1_555
C5 C1 1_555 1_555
C6 C5 1_555 1_555
C7 C6 1_555 1_555
C8 C7 1_555 1_555
H1 C8 1_555 1_555
C9 C8 1_555 1_555
H2 C9 1_555 1_555
C10 C9 1_555 1_555
H3 C10 1_555 1_555
C11 C10 1_555 1_555
C12 C7 1_555 1_555
H4 C12 1_555 1_555
C13 C11 1_555 1_555
H5 C13 1_555 1_555
H6 C13 1_555 1_555
H7 C13 1_555 1_555
C14 C6 1_555 1_555
C15 C14 1_555 1_555
C16 C4 1_555 1_555
C17 C16 1_555 1_555
C18 C17 1_555 1_555
H8 C18 1_555 1_555
C19 C18 1_555 1_555
H9 C19 1_555 1_555
C20 C19 1_555 1_555
H10 C20 1_555 1_555
C21 C20 1_555 1_555
C22 C21 1_555 1_555
H11 C22 1_555 1_555
H12 C22 1_555 1_555
H13 C22 1_555 1_555
C23 C17 1_555 1_555
H14 C23 1_555 1_555
C24 C16 1_555 1_555
C25 C24 1_555 1_555
C26 C3 1_555 1_555
C27 C26 1_555 1_555
C28 C27 1_555 1_555
H15 C28 1_555 1_555
C29 C28 1_555 1_555
H16 C29 1_555 1_555
C30 C29 1_555 1_555
H17 C30 1_555 1_555
C31 C30 1_555 1_555
C32 C31 1_555 1_555
H18 C32 1_555 1_555
H19 C32 1_555 1_555
H20 C32 1_555 1_555
C33 C27 1_555 1_555
H21 C33 1_555 1_555
C34 C26 1_555 1_555
C35 C34 1_555 1_555
C36 C2 1_555 1_555
C37 C36 1_555 1_555
C38 C37 1_555 1_555
H22 C38 1_555 1_555
C39 C38 1_555 1_555
H23 C39 1_555 1_555
C40 C39 1_555 1_555
H24 C40 1_555 1_555
C41 C40 1_555 1_555
C42 C41 1_555 1_555
H25 C42 1_555 1_555
H26 C42 1_555 1_555
H27 C42 1_555 1_555
C43 C37 1_555 1_555
H28 C43 1_555 1_555
C44 C36 1_555 1_555
C45 C44 1_555 1_555
C46 C1 1_555 1_555
C47 C46 1_555 1_555
C48 C47 1_555 1_555
H29 C48 1_555 1_555
C49 C48 1_555 1_555
H30 C49 1_555 1_555
C50 C49 1_555 1_555
H31 C50 1_555 1_555
C51 C50 1_555 1_555
C52 C51 1_555 1_555
H32 C52 1_555 1_555
H33 C52 1_555 1_555
H34 C52 1_555 1_555
C53 C47 1_555 1_555
H35 C53 1_555 1_555
C54 C46 1_555 1_555
C55 C6 1_555 1_555
C56 C55 1_555 1_555
C57 C56 1_555 1_555
C58 C57 1_555 1_555
C59 C54 1_555 1_555
C60 C45 1_555 1_555
C61 C60 1_555 1_555
C62 C61 1_555 1_555
C63 C44 1_555 1_555
C64 C35 1_555 1_555
C65 C64 1_555 1_555
C66 C65 1_555 1_555
C67 C34 1_555 1_555
C68 C25 1_555 1_555
C69 C68 1_555 1_555
C70 C69 1_555 1_555
C71 C24 1_555 1_555
C72 C15 1_555 1_555
C73 C72 1_555 1_555
C74 C73 1_555 1_555
C75 C14 1_555 1_555
C76 C74 1_555 1_555
C77 C57 1_555 1_555
C78 C77 1_555 1_555
C79 C58 1_555 1_555
C80 C61 1_555 1_555
C81 C80 1_555 1_555
C82 C81 1_555 1_555
C83 C78 1_555 1_555
C84 C83 1_555 1_555
C85 C76 1_555 1_555
C86 C73 1_555 1_555
C87 C70 1_555 1_555
C88 C87 1_555 1_555
C89 C84 1_555 1_555
C90 C82 1_555 1_555
C91 C90 1_555 1_555
C92 C65 1_555 1_555
C93 C62 1_555 1_555
C94 C66 1_555 1_555
C95 C69 1_555 1_555
C96 C97 1_555 1_555
C97 C98 1_555 1_555
C98 C99 1_555 1_555
C99 C100 1_555 1_555
C100 C96 1_555 1_555
C101 C100 1_555 1_555
C102 C101 1_555 1_555
C103 C102 1_555 1_555
H36 C103 1_555 1_555
C104 C103 1_555 1_555
H37 C104 1_555 1_555
C105 C104 1_555 1_555
H38 C105 1_555 1_555
C106 C105 1_555 1_555
C107 C106 1_555 1_555
H39 C107 1_555 1_555
H40 C107 1_555 1_555
H41 C107 1_555 1_555
C108 C102 1_555 1_555
H42 C108 1_555 1_555
C109 C101 1_555 1_555
C110 C109 1_555 1_555
C111 C99 1_555 1_555
C112 C111 1_555 1_555
C113 C112 1_555 1_555
H43 C113 1_555 1_555
C114 C113 1_555 1_555
H44 C114 1_555 1_555
C115 C114 1_555 1_555
H45 C115 1_555 1_555
C116 C115 1_555 1_555
C117 C116 1_555 1_555
H46 C117 1_555 1_555
H47 C117 1_555 1_555
H48 C117 1_555 1_555
C118 C112 1_555 1_555
H49 C118 1_555 1_555
C119 C111 1_555 1_555
C120 C119 1_555 1_555
C121 C98 1_555 1_555
C122 C121 1_555 1_555
C123 C122 1_555 1_555
H50 C123 1_555 1_555
C124 C123 1_555 1_555
H51 C124 1_555 1_555
C125 C124 1_555 1_555
H52 C125 1_555 1_555
C126 C125 1_555 1_555
C127 C126 1_555 1_555
H53 C127 1_555 1_555
H54 C127 1_555 1_555
H55 C127 1_555 1_555
C128 C122 1_555 1_555
H56 C128 1_555 1_555
C129 C121 1_555 1_555
C130 C129 1_555 1_555
C131 C97 1_555 1_555
C132 C131 1_555 1_555
C133 C132 1_555 1_555
H57 C133 1_555 1_555
C134 C133 1_555 1_555
H58 C134 1_555 1_555
C135 C134 1_555 1_555
H59 C135 1_555 1_555
C136 C135 1_555 1_555
C137 C136 1_555 1_555
H60 C137 1_555 1_555
H61 C137 1_555 1_555
H62 C137 1_555 1_555
C138 C132 1_555 1_555
H63 C138 1_555 1_555
C139 C131 1_555 1_555
C140 C139 1_555 1_555
C141 C96 1_555 1_555
C142 C141 1_555 1_555
C143 C142 1_555 1_555
H64 C143 1_555 1_555
C144 C143 1_555 1_555
H65 C144 1_555 1_555
C145 C144 1_555 1_555
H66 C145 1_555 1_555
C146 C145 1_555 1_555
C147 C142 1_555 1_555
H67 C147 1_555 1_555
C148 C146 1_555 1_555
H68 C148 1_555 1_555
H69 C148 1_555 1_555
H70 C148 1_555 1_555
C149 C141 1_555 1_555
C150 C101 1_555 1_555
C151 C150 1_555 1_555
C152 C151 1_555 1_555
C153 C152 1_555 1_555
C154 C140 1_555 1_555
C155 C154 1_555 1_555
C156 C155 1_555 1_555
C157 C153 1_555 1_555
C158 C157 1_555 1_555
C159 C152 1_555 1_555
C160 C159 1_555 1_555
C161 C160 1_555 1_555
C162 C161 1_555 1_555
C163 C158 1_555 1_555
C164 C163 1_555 1_555
C165 C164 1_555 1_555
C166 C162 1_555 1_555
C167 C166 1_555 1_555
C168 C169 1_555 1_555
C169 C167 1_555 1_555
C170 C161 1_555 1_555
C171 C168 1_555 1_555
C172 C167 1_555 1_555
C173 C172 1_555 1_555
C174 C165 1_555 1_555
C175 C149 1_555 1_555
C176 C174 1_555 1_555
C177 C176 1_555 1_555
C178 C173 1_555 1_555
C179 C129 1_555 1_555
C180 C120 1_555 1_555
C181 C119 1_555 1_555
C182 C110 1_555 1_555
C183 C170 1_555 1_555
C184 C160 1_555 1_555
C185 C109 1_555 1_555
C186 C156 1_555 1_555
C187 C176 1_555 1_555
C188 C155 1_555 1_555
C189 C139 1_555 1_555
C190 C130 1_555 1_555
C191 H71 1_555 1_555
C192 C191 1_555 1_555
H72 C192 1_555 1_555
C193 C192 1_555 1_555
H73 C193 1_555 1_555
C194 C193 1_555 1_555
H74 C194 1_555 1_555
C195 C194 1_555 1_555
C196 C191 1_555 1_555
H75 C196 1_555 1_555
C197 C195 1_555 1_555
H76 C197 1_555 1_555
H77 C197 1_555 1_555
H78 C197 1_555 1_555
C198 H79 1_555 1_555
C199 C198 1_555 1_555
H80 C199 1_555 1_555
C200 C199 1_555 1_555
H81 C200 1_555 1_555
C201 C200 1_555 1_555
C202 C201 1_555 1_555
H82 C202 1_555 1_555
C203 C198 1_555 1_555
H83 C203 1_555 1_555
C204 C201 1_555 1_555
H84 C204 1_555 1_555
H85 C204 1_555 1_555
H86 C204 1_555 1_555
C11 C12 1_555 1_555
C15 C16 1_555 1_555
C21 C23 1_555 1_555
C25 C26 1_555 1_555
C31 C33 1_555 1_555
C35 C36 1_555 1_555
C41 C43 1_555 1_555
C45 C46 1_555 1_555
C51 C53 1_555 1_555
C54 C55 1_555 1_555
C56 C75 1_555 1_555
C58 C59 1_555 1_555
C59 C60 1_555 1_555
C62 C63 1_555 1_555
C63 C64 1_555 1_555
C66 C67 1_555 1_555
C67 C68 1_555 1_555
C70 C71 1_555 1_555
C71 C72 1_555 1_555
C74 C75 1_555 1_555
C76 C77 1_555 1_555
C78 C79 1_555 1_555
C79 C80 1_555 1_555
C81 C93 1_555 1_555
C82 C83 1_555 1_555
C84 C85 1_555 1_555
C85 C86 1_555 1_555
C86 C87 1_555 1_555
C88 C89 1_555 1_555
C88 C95 1_555 1_555
C89 C90 1_555 1_555
C91 C92 1_555 1_555
C91 C94 1_555 1_555
C92 C93 1_555 1_555
C94 C95 1_555 1_555
C106 C108 1_555 1_555
C110 C111 1_555 1_555
C116 C118 1_555 1_555
C120 C121 1_555 1_555
C126 C128 1_555 1_555
C130 C131 1_555 1_555
C136 C138 1_555 1_555
C140 C141 1_555 1_555
C146 C147 1_555 1_555
C149 C150 1_555 1_555
C151 C185 1_555 1_555
C153 C175 1_555 1_555
C154 C175 1_555 1_555
C156 C157 1_555 1_555
C158 C159 1_555 1_555
C162 C163 1_555 1_555
C164 C186 1_555 1_555
C165 C166 1_555 1_555
C168 C181 1_555 1_555
C169 C170 1_555 1_555
C171 C172 1_555 1_555
C171 C180 1_555 1_555
C173 C174 1_555 1_555
C177 C178 1_555 1_555
C177 C190 1_555 1_555
C178 C179 1_555 1_555
C179 C180 1_555 1_555
C181 C182 1_555 1_555
C182 C183 1_555 1_555
C183 C184 1_555 1_555
C184 C185 1_555 1_555
C186 C187 1_555 1_555
C187 C188 1_555 1_555
C188 C189 1_555 1_555
C189 C190 1_555 1_555
C195 C196 1_555 1_555
C202 C203 1_555 1_555

#END
