
#######################################################################
#
#                 Cambridge Crystallographic Data Centre
#                                CCDC 
#
#######################################################################
#
# If this CIF has been generated from an entry in the Cambridge 
# Structural Database, then it will include bibliographic, chemical, 
# crystal, experimental, refinement or atomic coordinate data resulting 
# from the CCDC's data processing and validation procedures.
#
#######################################################################

data_DOQYOZ
_chemical_formula_moiety         'C29 H33 Br1 N4 S1'
_chemical_name_systematic        
2-(5-Bromo-2-thienyl)-1-dodecyl-1H-imidazo[4,5-f][1,10]phenanthroline
_symmetry_cell_setting           triclinic
_symmetry_space_group_name_H-M   'P -1'
_symmetry_Int_Tables_number      2
_space_group_name_Hall           '-P 1'
loop_
_symmetry_equiv_pos_site_id
_symmetry_equiv_pos_as_xyz
1 x,y,z
2 -x,-y,-z
_cell_length_a                   8.8924(16)
_cell_length_b                   17.040(3)
_cell_length_c                   19.878(3)
_cell_angle_alpha                66.759(3)
_cell_angle_beta                 77.799(3)
_cell_angle_gamma                86.173(3)
_cell_volume                     2704.65
_exptl_crystal_colour            colorless
_exptl_crystal_description       block
_cell_formula_units_Z            4
loop_
_atom_site_label
_atom_site_type_symbol
_atom_site_fract_x
_atom_site_fract_y
_atom_site_fract_z
Br1 Br 0.90595(14) 0.83596(7) 0.45206(7)
C1 C 0.4131(11) 0.2781(6) 0.3340(6)
H1 H 0.3690 0.2349 0.3267
C2 C 0.4708(12) 0.2563(6) 0.3987(5)
H2 H 0.4623 0.2006 0.4343
C3 C 0.5396(10) 0.3184(6) 0.4083(5)
H3 H 0.5814 0.3053 0.4505
C4 C 0.5484(9) 0.4028(5) 0.3547(4)
C5 C 0.6148(8) 0.4760(5) 0.3578(4)
C6 C 0.6082(8) 0.5575(5) 0.3049(4)
C7 C 0.5452(9) 0.5741(5) 0.2397(4)
C8 C 0.5459(9) 0.6530(6) 0.1838(5)
H4 H 0.5881 0.6997 0.1868
C9 C 0.4843(10) 0.6635(6) 0.1231(5)
H5 H 0.4836 0.7165 0.0841
C10 C 0.4228(10) 0.5905(7) 0.1230(5)
H6 H 0.3775 0.5976 0.0829
C11 C 0.4837(9) 0.5036(5) 0.2336(4)
C12 C 0.4826(9) 0.4178(5) 0.2921(4)
C13 C 0.7148(9) 0.5715(5) 0.3855(4)
C14 C 0.7778(9) 0.6139(5) 0.4252(5)
C15 C 0.8515(9) 0.7300(6) 0.4562(5)
C16 C 0.8519(9) 0.6546(6) 0.5132(5)
H7 H 0.8787 0.6469 0.5581
C17 C 0.8058(10) 0.5876(6) 0.4958(5)
H8 H 0.7956 0.5309 0.5295
C18 C 0.7554(9) 0.4168(5) 0.4672(4)
H9 H 0.8457 0.4400 0.4735
H10 H 0.7898 0.3730 0.4481
C19 C 0.6523(10) 0.3754(5) 0.5428(4)
H11 H 0.5550 0.3589 0.5370
H12 H 0.6316 0.4158 0.5668
C20 C 0.7280(10) 0.2974(5) 0.5911(4)
H13 H 0.7455 0.2577 0.5663
H14 H 0.8280 0.3150 0.5929
C21 C 0.6438(9) 0.2498(6) 0.6703(5)
H15 H 0.5440 0.2308 0.6696
H16 H 0.6269 0.2883 0.6963
C22 C 0.7309(11) 0.1732(5) 0.7128(5)
H17 H 0.8359 0.1911 0.7068
H18 H 0.7345 0.1313 0.6909
C23 C 0.6624(11) 0.1311(6) 0.7956(5)
H19 H 0.5565 0.1145 0.8018
H20 H 0.6617 0.1724 0.8181
C24 C 0.7495(13) 0.0521(7) 0.8373(6)
H21 H 0.7409 0.0091 0.8177
H22 H 0.8575 0.0678 0.8260
C25 C 0.6983(13) 0.0130(8) 0.9197(6)
H23 H 0.6974 0.0574 0.9388
H24 H 0.5931 -0.0076 0.9310
C26 C 0.7895(16) -0.0571(8) 0.9601(7)
H25 H 0.8970 -0.0399 0.9409
H26 H 0.7740 -0.1052 0.9477
C27 C 0.7607(17) -0.0887(10) 1.0448(8)
H27 H 0.7612 -0.0390 1.0570
H28 H 0.6572 -0.1130 1.0640
C28 C 0.8582(19) -0.1485(9) 1.0849(8)
H29 H 0.9636 -0.1289 1.0617
H30 H 0.8455 -0.2020 1.0801
C29 C 0.8355(16) -0.1654(8) 1.1645(7)
H31 H 0.8365 -0.1123 1.1706
H32 H 0.9167 -0.2006 1.1849
H33 H 0.7382 -0.1943 1.1900
N1 N 0.4167(8) 0.3551(5) 0.2829(4)
N2 N 0.4224(8) 0.5133(5) 0.1736(4)
N3 N 0.6862(7) 0.4857(4) 0.4106(3)
N4 N 0.6730(7) 0.6169(4) 0.3215(4)
S1 S 0.8038(3) 0.72347(15) 0.37885(13)
Br2 Br 0.74847(14) 0.81981(7) -0.20927(6)
C30 C 0.9345(12) 0.2530(6) 0.3582(6)
H34 H 0.9513 0.2085 0.4016
C31 C 0.8591(12) 0.2335(7) 0.3112(6)
H35 H 0.8298 0.1777 0.3221
C32 C 0.8303(10) 0.3004(6) 0.2482(5)
H36 H 0.7783 0.2903 0.2163
C33 C 0.8792(9) 0.3831(6) 0.2321(5)
C34 C 0.8624(9) 0.4575(6) 0.1671(5)
C35 C 0.9233(9) 0.5355(6) 0.1532(5)
C36 C 0.9969(9) 0.5485(6) 0.2059(5)
C37 C 1.0502(9) 0.6288(6) 0.1948(5)
H37 H 1.0417 0.6764 0.1519
C38 C 1.1154(10) 0.6354(6) 0.2491(5)
H38 H 1.1527 0.6875 0.2441
C39 C 1.1239(10) 0.5625(7) 0.3111(5)
H39 H 1.1702 0.5678 0.3469
C40 C 1.0102(9) 0.4804(5) 0.2709(5)
C41 C 0.9558(9) 0.3949(5) 0.2840(5)
C42 C 0.8291(9) 0.5530(6) 0.0589(5)
C43 C 0.7899(9) 0.5972(5) -0.0147(5)
C44 C 0.7577(10) 0.7110(7) -0.1332(5)
C45 C 0.7407(10) 0.6352(7) -0.1346(5)
H40 H 0.7185 0.6266 -0.1749
C46 C 0.7606(9) 0.5696(6) -0.0673(5)
H41 H 0.7546 0.5121 -0.0588
C47 C 0.6948(12) 0.4121(6) 0.0981(6)
H42 H 0.6295 0.4465 0.0643
H43 H 0.6290 0.3817 0.1463
C48 C 0.7762(12) 0.3472(7) 0.0685(6)
H44 H 0.8244 0.3763 0.0163
H45 H 0.8564 0.3203 0.0960
C49 C 0.6663(13) 0.2799(7) 0.0759(7)
H46 H 0.5864 0.3082 0.0486
H47 H 0.6172 0.2528 0.1282
C50 C 0.7308(13) 0.2103(6) 0.0492(5)
H48 H 0.6474 0.1827 0.0418
H49 H 0.8013 0.2357 0.0015
C51 C 0.8100(13) 0.1476(8) 0.1013(6)
H50 H 0.8763 0.1760 0.1181
H51 H 0.8741 0.1143 0.0769
C52 C 0.6992(14) 0.0898(8) 0.1669(6)
H52 H 0.6162 0.1233 0.1817
H53 H 0.6550 0.0495 0.1527
C53 C 0.7702(13) 0.0441(9) 0.2287(6)
H54 H 0.8043 0.0845 0.2458
H55 H 0.8608 0.0166 0.2117
C54 C 0.6736(16) -0.0197(8) 0.2907(7)
H56 H 0.6313 -0.0567 0.2724
H57 H 0.7370 -0.0544 0.3253
C55 C 0.5517(17) 0.0116(9) 0.3300(8)
H58 H 0.4878 0.0457 0.2953
H59 H 0.5942 0.0494 0.3473
C56 C 0.4545(16) -0.0512(8) 0.3932(8)
H60 H 0.3926 -0.0803 0.3751
H61 H 0.5191 -0.0933 0.4225
C57 C 0.3563(16) -0.0174(11) 0.4399(8)
H62 H 0.3598 -0.0558 0.4907
H63 H 0.4037 0.0360 0.4320
C58 C 0.2052(16) -0.0010(11) 0.4380(10)
H64 H 0.1961 0.0412 0.3899
H65 H 0.1604 0.0200 0.4759
H66 H 0.1524 -0.0526 0.4470
N5 N 0.9824(8) 0.3290(5) 0.3452(4)
N6 N 1.0739(8) 0.4871(5) 0.3245(4)
N7 N 0.8003(9) 0.4693(5) 0.1064(5)
N8 N 0.9048(7) 0.5955(4) 0.0861(4)
S2 S 0.7958(3) 0.70713(15) -0.04983(13)
loop_
_geom_bond_atom_site_label_1
_geom_bond_atom_site_label_2
_geom_bond_site_symmetry_1
_geom_bond_site_symmetry_2
Br1 C15 1_555 1_555
C1 H1 1_555 1_555
C2 C1 1_555 1_555
H2 C2 1_555 1_555
C3 C2 1_555 1_555
H3 C3 1_555 1_555
C4 C3 1_555 1_555
C5 C4 1_555 1_555
C6 C5 1_555 1_555
C7 C6 1_555 1_555
C8 C7 1_555 1_555
H4 C8 1_555 1_555
C9 C8 1_555 1_555
H5 C9 1_555 1_555
C10 C9 1_555 1_555
H6 C10 1_555 1_555
C11 C7 1_555 1_555
C12 C4 1_555 1_555
C13 C14 1_555 1_555
C14 C17 1_555 1_555
C15 C16 1_555 1_555
C16 H7 1_555 1_555
C17 C16 1_555 1_555
H8 C17 1_555 1_555
C18 H9 1_555 1_555
H10 C18 1_555 1_555
C19 C18 1_555 1_555
H11 C19 1_555 1_555
H12 C19 1_555 1_555
C20 C19 1_555 1_555
H13 C20 1_555 1_555
H14 C20 1_555 1_555
C21 C20 1_555 1_555
H15 C21 1_555 1_555
H16 C21 1_555 1_555
C22 C21 1_555 1_555
H17 C22 1_555 1_555
H18 C22 1_555 1_555
C23 C22 1_555 1_555
H19 C23 1_555 1_555
H20 C23 1_555 1_555
C24 C23 1_555 1_555
H21 C24 1_555 1_555
H22 C24 1_555 1_555
C25 C24 1_555 1_555
H23 C25 1_555 1_555
H24 C25 1_555 1_555
C26 C25 1_555 1_555
H25 C26 1_555 1_555
H26 C26 1_555 1_555
C27 C26 1_555 1_555
H27 C27 1_555 1_555
H28 C27 1_555 1_555
C28 C27 1_555 1_555
H29 C28 1_555 1_555
H30 C28 1_555 1_555
C29 C28 1_555 1_555
H31 C29 1_555 1_555
H32 C29 1_555 1_555
H33 C29 1_555 1_555
N1 C1 1_555 1_555
N2 C10 1_555 1_555
N3 C5 1_555 1_555
N4 C6 1_555 1_555
S1 C14 1_555 1_555
Br2 C44 1_555 1_555
C30 H34 1_555 1_555
C31 C30 1_555 1_555
H35 C31 1_555 1_555
C32 C31 1_555 1_555
H36 C32 1_555 1_555
C33 C32 1_555 1_555
C34 C33 1_555 1_555
C35 C34 1_555 1_555
C36 C35 1_555 1_555
C37 C36 1_555 1_555
H37 C37 1_555 1_555
C38 C37 1_555 1_555
H38 C38 1_555 1_555
C39 C38 1_555 1_555
H39 C39 1_555 1_555
C40 C36 1_555 1_555
C41 C33 1_555 1_555
C42 C43 1_555 1_555
C43 C46 1_555 1_555
C44 C45 1_555 1_555
C45 H40 1_555 1_555
C46 C45 1_555 1_555
H41 C46 1_555 1_555
C47 H42 1_555 1_555
H43 C47 1_555 1_555
C48 C47 1_555 1_555
H44 C48 1_555 1_555
H45 C48 1_555 1_555
C49 C48 1_555 1_555
H46 C49 1_555 1_555
H47 C49 1_555 1_555
C50 C49 1_555 1_555
H48 C50 1_555 1_555
H49 C50 1_555 1_555
C51 C50 1_555 1_555
H50 C51 1_555 1_555
H51 C51 1_555 1_555
C52 C51 1_555 1_555
H52 C52 1_555 1_555
H53 C52 1_555 1_555
C53 C52 1_555 1_555
H54 C53 1_555 1_555
H55 C53 1_555 1_555
C54 C53 1_555 1_555
H56 C54 1_555 1_555
H57 C54 1_555 1_555
C55 C54 1_555 1_555
H58 C55 1_555 1_555
H59 C55 1_555 1_555
C56 C55 1_555 1_555
H60 C56 1_555 1_555
H61 C56 1_555 1_555
C57 C56 1_555 1_555
H62 C57 1_555 1_555
H63 C57 1_555 1_555
C58 C57 1_555 1_555
H64 C58 1_555 1_555
H65 C58 1_555 1_555
H66 C58 1_555 1_555
N5 C30 1_555 1_555
N6 C39 1_555 1_555
N7 C34 1_555 1_555
N8 C35 1_555 1_555
S2 C43 1_555 1_555
C11 C12 1_555 1_555
C11 N2 1_555 1_555
C12 N1 1_555 1_555
C13 N3 1_555 1_555
C13 N4 1_555 1_555
C15 S1 1_555 1_555
C18 N3 1_555 1_555
C40 C41 1_555 1_555
C40 N6 1_555 1_555
C41 N5 1_555 1_555
C42 N7 1_555 1_555
C42 N8 1_555 1_555
C44 S2 1_555 1_555
C47 N7 1_555 1_555

#END
