
#######################################################################
#
#                 Cambridge Crystallographic Data Centre
#                                CCDC 
#
#######################################################################
#
# If this CIF has been generated from an entry in the Cambridge 
# Structural Database, then it will include bibliographic, chemical, 
# crystal, experimental, refinement or atomic coordinate data resulting 
# from the CCDC's data processing and validation procedures.
#
#######################################################################

data_DOQZAL
_chemical_formula_moiety         'C95 H35,C1 S2'
_chemical_name_systematic        
'1,6,9,12,15,18-hexahydro-6,9,12,15,18-pentakis(3-methylphenyl)C60fullerene carbon disulfide solvate'
_symmetry_cell_setting           orthorhombic
_symmetry_space_group_name_H-M   'P n m a'
_symmetry_Int_Tables_number      62
_space_group_name_Hall           '-P 2ac 2n'
loop_
_symmetry_equiv_pos_site_id
_symmetry_equiv_pos_as_xyz
1 x,y,z
2 1/2-x,-y,1/2+z
3 -x,1/2+y,-z
4 1/2+x,1/2-y,1/2-z
5 -x,-y,-z
6 1/2+x,y,1/2-z
7 x,1/2-y,z
8 1/2-x,1/2+y,1/2+z
_cell_length_a                   18.311(5)
_cell_length_b                   17.969(4)
_cell_length_c                   17.344(5)
_cell_angle_alpha                90
_cell_angle_beta                 90
_cell_angle_gamma                90
_cell_volume                     5706.7
_exptl_crystal_colour            red
_exptl_crystal_description       prism
_cell_formula_units_Z            4
_exptl_crystal_recrystallization_method 'n-pentane/carbon disulfide'
loop_
_atom_site_label
_atom_site_type_symbol
_atom_site_fract_x
_atom_site_fract_y
_atom_site_fract_z
C2 C 0.18571(11) 0.38988(10) -0.00948(10)
C3 C 0.18200(11) 0.31414(10) 0.02771(10)
C4 C 0.12938(12) 0.29154(11) 0.08374(12)
C5 C 0.06075(10) 0.33749(10) 0.09972(10)
C6 C 0.05165(11) 0.39494(10) 0.03434(10)
C7 C 0.10654(11) 0.41871(10) -0.01319(10)
C8 C 0.08946(11) 0.44086(10) -0.09105(10)
C9 C 0.01770(12) 0.44271(10) -0.11772(11)
C10 C -0.02220(11) 0.39286(11) 0.00613(11)
C11 C -0.05785(11) 0.32768(12) 0.03711(11)
C12 C -0.00639(10) 0.28801(11) 0.08480(10)
C13 C -0.11007(11) 0.29002(12) -0.00652(11)
C14 C -0.12779(11) 0.31557(13) -0.08397(12)
C15 C -0.13871(15) 0.2500 -0.13182(17)
C16 C -0.11404(15) 0.2500 -0.20785(17)
C17 C -0.07796(11) 0.31539(13) -0.23912(11)
C18 C -0.06770(11) 0.37809(12) -0.19315(11)
C19 C -0.09326(11) 0.37792(13) -0.11362(11)
C20 C -0.03990(11) 0.41799(11) -0.06775(11)
C21 C 0.00078(11) 0.41803(11) -0.19559(11)
C22 C 0.05670(11) 0.39423(10) -0.24402(11)
C23 C 0.04601(11) 0.32897(11) -0.29201(10)
C24 C -0.01996(11) 0.29035(11) -0.28973(10)
C25 C 0.11453(10) 0.28879(10) -0.29454(10)
C26 C 0.16738(10) 0.32903(10) -0.24768(10)
C27 C 0.14753(11) 0.41582(10) -0.14133(10)
C28 C 0.20118(10) 0.37736(10) -0.09608(10)
C29 C 0.23553(10) 0.31592(10) -0.12556(10)
C30 C 0.13174(11) 0.39363(10) -0.21688(10)
C31 C 0.21680(10) 0.29039(10) -0.20179(10)
C32 C 0.26156(14) 0.2500 -0.07631(14)
C33 C 0.21570(14) 0.2500 -0.00381(15)
C34 C 0.06205(11) 0.37325(11) 0.18010(10)
C35 C 0.01127(14) 0.35440(15) 0.23634(12)
H1 H -0.0271 0.3205 0.2250
C36 C 0.01723(16) 0.38591(17) 0.31011(13)
H2 H -0.0173 0.3733 0.3488
C37 C 0.07293(16) 0.43519(15) 0.32693(13)
H3 H 0.0765 0.4556 0.3773
C38 C 0.12387(13) 0.45543(12) 0.27107(12)
C39 C 0.11693(12) 0.42441(11) 0.19756(11)
H4 H 0.1505 0.4385 0.1584
C40 C 0.18505(16) 0.50800(15) 0.28931(15)
H5 H 0.2226 0.4819 0.3192
H6 H 0.2064 0.5266 0.2412
H7 H 0.1662 0.5499 0.3195
C41 C 0.23976(11) 0.44468(10) 0.02717(10)
C42 C 0.28563(13) 0.42308(12) 0.08686(12)
H8 H 0.2830 0.3738 0.1066
C43 C 0.33547(14) 0.47340(14) 0.11784(13)
H9 H 0.3663 0.4588 0.1592
C44 C 0.33993(13) 0.54483(13) 0.08810(13)
H10 H 0.3745 0.5787 0.1090
C45 C 0.29468(12) 0.56792(11) 0.02824(12)
C46 C 0.24422(11) 0.51747(10) -0.00101(11)
H11 H 0.2121 0.5328 -0.0410
C47 C 0.30065(14) 0.64545(12) -0.00415(16)
H12 H 0.2576 0.6562 -0.0359
H13 H 0.3035 0.6814 0.0383
H14 H 0.3448 0.6492 -0.0359
C48 C 0.34337(14) 0.2500 -0.05732(14)
C49 C 0.38011(11) 0.31718(12) -0.04612(11)
H15 H 0.3554 0.3629 -0.0546
C50 C 0.45313(12) 0.31754(16) -0.02252(13)
C51 C 0.48862(17) 0.2500 -0.00985(18)
H16 H 0.5378 0.2500 0.0077
C52 C 0.4871(2) 0.3987(3) -0.0191(2)
H17 H 0.4931 0.4179 -0.0716
H18 H 0.4544 0.4316 0.0099
H19 H 0.5348 0.3968 0.0065
C2F C 0.18571(11) 0.11012(10) -0.00948(10)
C3F C 0.18200(11) 0.18586(10) 0.02771(10)
C4F C 0.12938(12) 0.20846(11) 0.08374(12)
C5F C 0.06075(10) 0.16251(10) 0.09972(10)
C6F C 0.05165(11) 0.10506(10) 0.03434(10)
C7F C 0.10654(11) 0.08129(10) -0.01319(10)
C8F C 0.08946(11) 0.05914(10) -0.09105(10)
C9F C 0.01770(12) 0.05729(10) -0.11772(11)
C10F C -0.02220(11) 0.10714(11) 0.00613(11)
C11F C -0.05785(11) 0.17232(12) 0.03711(11)
C12F C -0.00639(10) 0.21199(11) 0.08480(10)
C13F C -0.11007(11) 0.20998(12) -0.00652(11)
C14F C -0.12779(11) 0.18443(13) -0.08397(12)
C17F C -0.07796(11) 0.18461(13) -0.23912(11)
C18F C -0.06770(11) 0.12191(12) -0.19315(11)
C19F C -0.09326(11) 0.12208(13) -0.11362(11)
C20F C -0.03990(11) 0.08201(11) -0.06775(11)
C21F C 0.00078(11) 0.08197(11) -0.19559(11)
C22F C 0.05670(11) 0.10577(10) -0.24402(11)
C23F C 0.04601(11) 0.17103(11) -0.29201(10)
C24F C -0.01996(11) 0.20965(11) -0.28973(10)
C25F C 0.11453(10) 0.21121(10) -0.29454(10)
C26F C 0.16738(10) 0.17097(10) -0.24768(10)
C27F C 0.14753(11) 0.08418(10) -0.14133(10)
C28F C 0.20118(10) 0.12264(10) -0.09608(10)
C29F C 0.23553(10) 0.18408(10) -0.12556(10)
C30F C 0.13174(11) 0.10637(10) -0.21688(10)
C31F C 0.21680(10) 0.20961(10) -0.20179(10)
C34F C 0.06205(11) 0.12675(11) 0.18010(10)
C35F C 0.01127(14) 0.14560(15) 0.23634(12)
H1F H -0.0271 0.1795 0.2250
C36F C 0.01723(16) 0.11409(17) 0.31011(13)
H2F H -0.0173 0.1267 0.3488
C37F C 0.07293(16) 0.06481(15) 0.32693(13)
H3F H 0.0765 0.0444 0.3773
C38F C 0.12387(13) 0.04457(12) 0.27107(12)
C39F C 0.11693(12) 0.07559(11) 0.19756(11)
H4F H 0.1505 0.0615 0.1584
C40F C 0.18505(16) -0.00800(15) 0.28931(15)
H5F H 0.2226 0.0181 0.3192
H6F H 0.2064 -0.0266 0.2412
H7F H 0.1662 -0.0499 0.3195
C41F C 0.23976(11) 0.05532(10) 0.02717(10)
C42F C 0.28563(13) 0.07692(12) 0.08686(12)
H8F H 0.2830 0.1262 0.1066
C43F C 0.33547(14) 0.02660(14) 0.11784(13)
H9F H 0.3663 0.0412 0.1592
C44F C 0.33993(13) -0.04483(13) 0.08810(13)
H10F H 0.3745 -0.0787 0.1090
C45F C 0.29468(12) -0.06792(11) 0.02824(12)
C46F C 0.24422(11) -0.01747(10) -0.00101(11)
H11F H 0.2121 -0.0328 -0.0410
C47F C 0.30065(14) -0.14545(12) -0.00415(16)
H12F H 0.2576 -0.1562 -0.0359
H13F H 0.3035 -0.1814 0.0383
H14F H 0.3448 -0.1492 -0.0359
C49F C 0.38011(11) 0.18282(12) -0.04612(11)
H15F H 0.3554 0.1371 -0.0546
C50F C 0.45313(12) 0.18246(16) -0.02252(13)
C52F C 0.4871(2) 0.1013(3) -0.0191(2)
H17F H 0.4931 0.0821 -0.0716
H18F H 0.4544 0.0684 0.0099
H19F H 0.5348 0.1032 0.0065
C53 C 0.347(3) 0.195(3) 0.230(2)
S3 S 0.3665(3) 0.2500 0.1603(3)
S4 S 0.3333(7) 0.1331(6) 0.2946(6)
C53F C 0.347(3) 0.305(3) 0.230(2)
S4F S 0.3333(7) 0.3669(6) 0.2946(6)
S1? S 0.17303(11) 0.2500 0.30202(10)
S2? S 0.31205(14) 0.3450(2) 0.29953(18)
C1? C 0.2485(2) 0.2882(4) 0.2935(5)
loop_
_geom_bond_atom_site_label_1
_geom_bond_atom_site_label_2
_geom_bond_site_symmetry_1
_geom_bond_site_symmetry_2
C2 C3 1_555 1_555
C3 C4 1_555 1_555
C4 C5 1_555 1_555
C5 C6 1_555 1_555
C6 C7 1_555 1_555
C7 C2 1_555 1_555
C8 C7 1_555 1_555
C9 C8 1_555 1_555
C10 C6 1_555 1_555
C11 C10 1_555 1_555
C12 C5 1_555 1_555
C13 C11 1_555 1_555
C14 C13 1_555 1_555
C15 C14 1_555 1_555
C16 C15 1_555 1_555
C17 C16 1_555 1_555
C18 C17 1_555 1_555
C19 C14 1_555 1_555
C20 C9 1_555 1_555
C21 C9 1_555 1_555
C22 C21 1_555 1_555
C23 C22 1_555 1_555
C24 C17 1_555 1_555
C25 C23 1_555 1_555
C26 C25 1_555 1_555
C27 C8 1_555 1_555
C28 C2 1_555 1_555
C29 C28 1_555 1_555
C30 C22 1_555 1_555
C31 C26 1_555 1_555
C32 C29 1_555 1_555
C33 C3 1_555 1_555
C34 C5 1_555 1_555
C35 C34 1_555 1_555
H1 C35 1_555 1_555
C36 C35 1_555 1_555
H2 C36 1_555 1_555
C37 C36 1_555 1_555
H3 C37 1_555 1_555
C38 C37 1_555 1_555
C39 C34 1_555 1_555
H4 C39 1_555 1_555
C40 C38 1_555 1_555
H5 C40 1_555 1_555
H6 C40 1_555 1_555
H7 C40 1_555 1_555
C41 C2 1_555 1_555
C42 C41 1_555 1_555
H8 C42 1_555 1_555
C43 C42 1_555 1_555
H9 C43 1_555 1_555
C44 C43 1_555 1_555
H10 C44 1_555 1_555
C45 C44 1_555 1_555
C46 C41 1_555 1_555
H11 C46 1_555 1_555
C47 C45 1_555 1_555
H12 C47 1_555 1_555
H13 C47 1_555 1_555
H14 C47 1_555 1_555
C48 C32 1_555 1_555
C49 C48 1_555 1_555
H15 C49 1_555 1_555
C50 C49 1_555 1_555
C51 C50 1_555 1_555
H16 C51 1_555 1_555
C52 C50 1_555 1_555
H17 C52 1_555 1_555
H18 C52 1_555 1_555
H19 C52 1_555 1_555
C53 S3 1_555 1_555
S3 C53F 1_555 1_555
S4 C53 1_555 1_555
C2F C3F 1_555 1_555
C3F C33 1_555 1_555
C4F C4 1_555 1_555
C5F C4F 1_555 1_555
C6F C5F 1_555 1_555
C7F C2F 1_555 1_555
C8F C7F 1_555 1_555
C9F C8F 1_555 1_555
C10F C6F 1_555 1_555
C11F C10F 1_555 1_555
C12F C12 1_555 1_555
C13F C13 1_555 1_555
C14F C15 1_555 1_555
C17F C16 1_555 1_555
C18F C17F 1_555 1_555
C19F C14F 1_555 1_555
C20F C9F 1_555 1_555
C21F C9F 1_555 1_555
C22F C21F 1_555 1_555
C23F C22F 1_555 1_555
C24F C24 1_555 1_555
C25F C25 1_555 1_555
C26F C25F 1_555 1_555
C27F C8F 1_555 1_555
C28F C2F 1_555 1_555
C29F C32 1_555 1_555
C30F C22F 1_555 1_555
C31F C31 1_555 1_555
C34F C5F 1_555 1_555
C35F C34F 1_555 1_555
H1F C35F 1_555 1_555
C36F C35F 1_555 1_555
H2F C36F 1_555 1_555
C37F C36F 1_555 1_555
H3F C37F 1_555 1_555
C38F C37F 1_555 1_555
C39F C34F 1_555 1_555
H4F C39F 1_555 1_555
C40F C38F 1_555 1_555
H5F C40F 1_555 1_555
H6F C40F 1_555 1_555
H7F C40F 1_555 1_555
C41F C2F 1_555 1_555
C42F C41F 1_555 1_555
H8F C42F 1_555 1_555
C43F C42F 1_555 1_555
H9F C43F 1_555 1_555
C44F C43F 1_555 1_555
H10F C44F 1_555 1_555
C45F C44F 1_555 1_555
C46F C41F 1_555 1_555
H11F C46F 1_555 1_555
C47F C45F 1_555 1_555
H12F C47F 1_555 1_555
H13F C47F 1_555 1_555
H14F C47F 1_555 1_555
C49F C48 1_555 1_555
H15F C49F 1_555 1_555
C50F C51 1_555 1_555
C52F C50F 1_555 1_555
H17F C52F 1_555 1_555
H18F C52F 1_555 1_555
H19F C52F 1_555 1_555
C53F S4F 1_555 1_555
C10 C20 1_555 1_555
C11 C12 1_555 1_555
C18 C19 1_555 1_555
C18 C21 1_555 1_555
C19 C20 1_555 1_555
C23 C24 1_555 1_555
C26 C30 1_555 1_555
C27 C28 1_555 1_555
C27 C30 1_555 1_555
C29 C31 1_555 1_555
C32 C33 1_555 1_555
C38 C39 1_555 1_555
C45 C46 1_555 1_555
C3F C4F 1_555 1_555
C5F C12F 1_555 1_555
C6F C7F 1_555 1_555
C10F C20F 1_555 1_555
C11F C12F 1_555 1_555
C11F C13F 1_555 1_555
C13F C14F 1_555 1_555
C17F C24F 1_555 1_555
C18F C19F 1_555 1_555
C18F C21F 1_555 1_555
C19F C20F 1_555 1_555
C23F C24F 1_555 1_555
C23F C25F 1_555 1_555
C26F C30F 1_555 1_555
C26F C31F 1_555 1_555
C27F C28F 1_555 1_555
C27F C30F 1_555 1_555
C28F C29F 1_555 1_555
C29F C31F 1_555 1_555
C38F C39F 1_555 1_555
C45F C46F 1_555 1_555
C49F C50F 1_555 1_555

#END
