
#######################################################################
#
#                 Cambridge Crystallographic Data Centre
#                                CCDC 
#
#######################################################################
#
# If this CIF has been generated from an entry in the Cambridge 
# Structural Database, then it will include bibliographic, chemical, 
# crystal, experimental, refinement or atomic coordinate data resulting 
# from the CCDC's data processing and validation procedures.
#
#######################################################################

data_DOQZOA
_chemical_formula_moiety         'C25 H13 Br1 N4 S3,C1 H4 O1'
_chemical_name_systematic        
"2-(5''-Bromo-2,2':5',2''-terthiophen-5-yl)-1H-imidazo[4,5-f][1,10]phenanthroline methanol solvate"
_symmetry_cell_setting           monoclinic
_symmetry_space_group_name_H-M   'P 21/c'
_symmetry_Int_Tables_number      14
_space_group_name_Hall           '-P 2ybc'
loop_
_symmetry_equiv_pos_site_id
_symmetry_equiv_pos_as_xyz
1 x,y,z
2 -x,1/2+y,1/2-z
3 -x,-y,-z
4 x,1/2-y,1/2+z
_cell_length_a                   12.863(2)
_cell_length_b                   10.2703(19)
_cell_length_c                   18.622(3)
_cell_angle_alpha                90
_cell_angle_beta                 94.739(3)
_cell_angle_gamma                90
_cell_volume                     2451.68
_exptl_crystal_colour            brown
_exptl_crystal_description       block
_cell_formula_units_Z            4
loop_
_atom_site_label
_atom_site_type_symbol
_atom_site_fract_x
_atom_site_fract_y
_atom_site_fract_z
Br1 Br 0.43442(6) 0.23170(9) 1.05252(4)
C1 C 1.0861(4) 0.7507(5) 0.1790(3)
H1 H 1.1125 0.7659 0.1347
C2 C 1.0070(4) 0.6591(5) 0.1819(3)
H2 H 0.9814 0.6144 0.1407
C3 C 0.9677(4) 0.6361(5) 0.2467(3)
H3 H 0.9147 0.5754 0.2502
C4 C 1.0079(4) 0.7047(5) 0.3076(3)
C5 C 0.9732(4) 0.6891(5) 0.3780(3)
C6 C 1.0162(4) 0.7582(5) 0.4373(3)
C7 C 1.0938(4) 0.8555(5) 0.4304(3)
C8 C 1.1342(4) 0.9341(6) 0.4855(3)
H4 H 1.1115 0.9256 0.5314
C9 C 1.2073(5) 1.0242(6) 0.4723(4)
H5 H 1.2335 1.0802 0.5087
C10 C 1.2426(4) 1.0317(6) 0.4043(3)
H6 H 1.2941 1.0926 0.3968
C11 C 1.1307(4) 0.8701(5) 0.3613(3)
C12 C 1.0885(4) 0.7949(5) 0.3002(3)
C13 C 0.9036(4) 0.6282(5) 0.4758(3)
C14 C 0.8401(4) 0.5552(5) 0.5220(3)
C15 C 0.7755(4) 0.4532(5) 0.5062(3)
H7 H 0.7625 0.4191 0.4601
C16 C 0.7297(4) 0.4034(6) 0.5674(3)
H8 H 0.6853 0.3319 0.5660
C17 C 0.7581(4) 0.4720(5) 0.6280(3)
C18 C 0.7242(4) 0.4576(5) 0.7005(3)
C19 C 0.7523(5) 0.5279(7) 0.7606(3)
H9 H 0.8002 0.5958 0.7618
C20 C 0.7018(5) 0.4877(7) 0.8206(3)
H10 H 0.7126 0.5273 0.8655
C21 C 0.6350(4) 0.3845(6) 0.8073(3)
C22 C 0.5732(4) 0.3164(6) 0.8567(3)
C23 C 0.5177(6) 0.2049(7) 0.8464(4)
H11 H 0.5122 0.1590 0.8032
C24 C 0.4688(6) 0.1653(8) 0.9082(5)
H12 H 0.4300 0.0893 0.9106
C25 C 0.4843(4) 0.2469(6) 0.9611(4)
N1 N 1.1260(3) 0.8174(4) 0.2354(2)
N2 N 1.2077(3) 0.9577(4) 0.3492(3)
N3 N 0.9009(3) 0.6077(4) 0.4031(2)
H13 H 0.8613 0.5540 0.3782
N4 N 0.9711(3) 0.7184(4) 0.4980(2)
S1 S 0.84388(11) 0.59487(15) 0.61171(8)
S2 S 0.63579(11) 0.33803(15) 0.71878(8)
S3 S 0.56013(15) 0.3751(2) 0.94117(9)
C26 C 0.6706(6) 0.5857(8) 0.2804(5)
H14 H 0.6221 0.6167 0.3130
H15 H 0.6331 0.5451 0.2397
H16 H 0.7104 0.6575 0.2643
O1 O 0.7384(3) 0.4943(5) 0.3159(2)
H17 H 0.7616 0.4458 0.2862
loop_
_geom_bond_atom_site_label_1
_geom_bond_atom_site_label_2
_geom_bond_site_symmetry_1
_geom_bond_site_symmetry_2
Br1 C25 1_555 1_555
C1 H1 1_555 1_555
C2 C1 1_555 1_555
H2 C2 1_555 1_555
C3 C2 1_555 1_555
H3 C3 1_555 1_555
C4 C3 1_555 1_555
C5 C4 1_555 1_555
C6 C5 1_555 1_555
C7 C6 1_555 1_555
C8 C7 1_555 1_555
H4 C8 1_555 1_555
C9 C8 1_555 1_555
H5 C9 1_555 1_555
C10 C9 1_555 1_555
H6 C10 1_555 1_555
C11 C7 1_555 1_555
C12 C4 1_555 1_555
C13 C14 1_555 1_555
C14 C15 1_555 1_555
C15 H7 1_555 1_555
C16 C15 1_555 1_555
H8 C16 1_555 1_555
C17 C16 1_555 1_555
C18 C17 1_555 1_555
C19 C18 1_555 1_555
H9 C19 1_555 1_555
C20 C19 1_555 1_555
H10 C20 1_555 1_555
C21 C20 1_555 1_555
C22 C21 1_555 1_555
C23 C22 1_555 1_555
H11 C23 1_555 1_555
C24 C23 1_555 1_555
H12 C24 1_555 1_555
C25 C24 1_555 1_555
N1 C1 1_555 1_555
N2 C10 1_555 1_555
N3 C5 1_555 1_555
H13 N3 1_555 1_555
N4 C6 1_555 1_555
S1 C14 1_555 1_555
S2 C18 1_555 1_555
S3 C22 1_555 1_555
C26 H14 1_555 1_555
H15 C26 1_555 1_555
H16 C26 1_555 1_555
O1 C26 1_555 1_555
H17 O1 1_555 1_555
C11 C12 1_555 1_555
C11 N2 1_555 1_555
C12 N1 1_555 1_555
C13 N3 1_555 1_555
C13 N4 1_555 1_555
C17 S1 1_555 1_555
C21 S2 1_555 1_555
C25 S3 1_555 1_555

#END
