
#######################################################################
#
#                 Cambridge Crystallographic Data Centre
#                                CCDC 
#
#######################################################################
#
# If this CIF has been generated from an entry in the Cambridge 
# Structural Database, then it will include bibliographic, chemical, 
# crystal, experimental, refinement or atomic coordinate data resulting 
# from the CCDC's data processing and validation procedures.
#
#######################################################################

data_DORBUJ
_chemical_formula_moiety         'C19 H26 O4'
_chemical_name_systematic        
2-(but-2-en-2-yl)-2a,3a,5a,7b-tetramethyloctahydro-2H-furo[2',3',4':3,4]indeno[7,1-bc]furan-5,6-dione
_symmetry_cell_setting           monoclinic
_symmetry_space_group_name_H-M   'P 21'
_symmetry_Int_Tables_number      4
_space_group_name_Hall           'P 2yb'
loop_
_symmetry_equiv_pos_site_id
_symmetry_equiv_pos_as_xyz
1 x,y,z
2 -x,1/2+y,-z
_cell_length_a                   8.6059(3)
_cell_length_b                   10.3127(3)
_cell_length_c                   10.0150(3)
_cell_angle_alpha                90
_cell_angle_beta                 104.316(3)
_cell_angle_gamma                90
_cell_volume                     861.231
_exptl_crystal_colour            colorless
_exptl_crystal_description       block
_cell_formula_units_Z            2
_exptl_crystal_recrystallization_method 'ethyl acetate/ hexane'
loop_
_atom_site_label
_atom_site_type_symbol
_atom_site_fract_x
_atom_site_fract_y
_atom_site_fract_z
O1 O 0.5280(3) 0.5575(3) 0.7114(2)
O2 O 0.2880(3) 0.34595(17) 0.65803(19)
O3 O 0.09788(17) 0.39861(12) 0.47324(16)
O4 O 0.42713(15) 0.49512(14) 0.36349(13)
C1 C 0.4359(3) 0.5986(2) 0.6102(2)
C2 C 0.4884(3) 0.6800(2) 0.5070(2)
H1 H 0.6037 0.6737 0.5208
H2 H 0.4614 0.7700 0.5180
C3 C 0.4054(2) 0.6337(2) 0.3637(2)
H3 H 0.4530 0.6747 0.2949
C4 C 0.2252(2) 0.65284(17) 0.32602(19)
C5 C 0.1473(2) 0.62402(17) 0.44877(19)
H4 H 0.0914 0.7020 0.4679
C6 C 0.2546(3) 0.57263(19) 0.58551(19)
C7 C 0.2216(2) 0.42779(19) 0.5800(2)
C8 C 0.0228(2) 0.51484(19) 0.4001(2)
C9 C 0.0088(2) 0.4978(2) 0.2469(2)
H5 H -0.0799 0.5489 0.1939
H6 H -0.0103 0.4075 0.2212
C10 C 0.1664(2) 0.54330(18) 0.21795(19)
C11 C 0.3033(2) 0.43847(18) 0.2582(2)
H7 H 0.2597 0.3653 0.2997
C12 C 0.3669(3) 0.3850(2) 0.1412(2)
C13 C 0.5043(3) 0.4247(3) 0.1180(2)
H8 H 0.5602 0.4882 0.1764
C14 C 0.5777(5) 0.3773(5) 0.0073(3)
H9 H 0.5638 0.4412 -0.0643
H10 H 0.5265 0.2979 -0.0302
H11 H 0.6900 0.3620 0.0449
C15 C 0.2641(5) 0.2818(4) 0.0583(4)
H12 H 0.2243 0.2256 0.1187
H13 H 0.3266 0.2322 0.0093
H14 H 0.1756 0.3213 -0.0063
C16 C 0.2058(4) 0.6270(3) 0.7123(2)
H15 H 0.0920 0.6179 0.6997
H16 H 0.2343 0.7170 0.7234
H17 H 0.2605 0.5799 0.7930
C17 C 0.1795(3) 0.7910(2) 0.2738(3)
H18 H 0.2248 0.8092 0.1973
H19 H 0.2203 0.8518 0.3466
H20 H 0.0649 0.7983 0.2449
C18 C -0.1372(3) 0.5338(3) 0.4348(3)
H21 H -0.2057 0.4613 0.4012
H22 H -0.1864 0.6120 0.3923
H23 H -0.1210 0.5401 0.5329
C19 C 0.1405(3) 0.5878(3) 0.0683(2)
H24 H 0.0620 0.6558 0.0498
H25 H 0.1036 0.5161 0.0077
H26 H 0.2399 0.6195 0.0536
loop_
_geom_bond_atom_site_label_1
_geom_bond_atom_site_label_2
_geom_bond_site_symmetry_1
_geom_bond_site_symmetry_2
O1 C1 1_555 1_555
O2 C7 1_555 1_555
O3 C7 1_555 1_555
O4 C3 1_555 1_555
C1 C2 1_555 1_555
C2 H1 1_555 1_555
H2 C2 1_555 1_555
C3 C2 1_555 1_555
H3 C3 1_555 1_555
C4 C3 1_555 1_555
C5 C4 1_555 1_555
H4 C5 1_555 1_555
C6 C1 1_555 1_555
C7 C6 1_555 1_555
C8 O3 1_555 1_555
C9 C8 1_555 1_555
H5 C9 1_555 1_555
H6 C9 1_555 1_555
C10 C4 1_555 1_555
C11 O4 1_555 1_555
H7 C11 1_555 1_555
C12 C11 1_555 1_555
C13 C12 1_555 1_555
H8 C13 1_555 1_555
C14 C13 1_555 1_555
H9 C14 1_555 1_555
H10 C14 1_555 1_555
H11 C14 1_555 1_555
C15 C12 1_555 1_555
H12 C15 1_555 1_555
H13 C15 1_555 1_555
H14 C15 1_555 1_555
C16 C6 1_555 1_555
H15 C16 1_555 1_555
H16 C16 1_555 1_555
H17 C16 1_555 1_555
C17 C4 1_555 1_555
H18 C17 1_555 1_555
H19 C17 1_555 1_555
H20 C17 1_555 1_555
C18 C8 1_555 1_555
H21 C18 1_555 1_555
H22 C18 1_555 1_555
H23 C18 1_555 1_555
C19 C10 1_555 1_555
H24 C19 1_555 1_555
H25 C19 1_555 1_555
H26 C19 1_555 1_555
C5 C6 1_555 1_555
C5 C8 1_555 1_555
C9 C10 1_555 1_555
C10 C11 1_555 1_555

#END
