
#######################################################################
#
#                 Cambridge Crystallographic Data Centre
#                                CCDC 
#
#######################################################################
#
# If this CIF has been generated from an entry in the Cambridge 
# Structural Database, then it will include bibliographic, chemical, 
# crystal, experimental, refinement or atomic coordinate data resulting 
# from the CCDC's data processing and validation procedures.
#
#######################################################################

data_DORCUK
_chemical_formula_moiety         'C48 H36 O4 Si4'
_chemical_name_systematic        
4',4',8',8'-tetraphenyldispiro[dibenzo[b,d]silole-5,2'-[1,3,5,7,2,4,6,8]tetroxatetrasilocane-6',5''-dibenzo[b,d]silole]
_symmetry_cell_setting           triclinic
_symmetry_space_group_name_H-M   'P -1'
_symmetry_Int_Tables_number      2
_space_group_name_Hall           '-P 1'
loop_
_symmetry_equiv_pos_site_id
_symmetry_equiv_pos_as_xyz
1 x,y,z
2 -x,-y,-z
_cell_length_a                   11.347(4)
_cell_length_b                   12.809(5)
_cell_length_c                   14.818(4)
_cell_angle_alpha                79.060(19)
_cell_angle_beta                 69.774(15)
_cell_angle_gamma                82.268(11)
_cell_volume                     1978.61
_exptl_crystal_colour            colorless
_exptl_crystal_description       block
_cell_formula_units_Z            2
loop_
_atom_site_label
_atom_site_type_symbol
_atom_site_fract_x
_atom_site_fract_y
_atom_site_fract_z
Si1 Si 0.38952(3) 1.03052(2) 0.14733(2)
Si2 Si 0.64563(3) 0.89500(2) 0.05646(2)
O1 O 0.33264(8) 1.06630(7) 0.05837(6)
O2 O 0.50795(8) 0.94262(7) 0.11904(6)
C1 C 0.44117(11) 1.14837(9) 0.17565(8)
C2 C 0.53319(12) 1.13427(10) 0.22082(9)
H1 H 0.5753 1.0657 0.2297
C3 C 0.56423(13) 1.21873(10) 0.25301(10)
H2 H 0.6270 1.2078 0.2835
C4 C 0.50305(13) 1.31910(10) 0.24043(10)
H3 H 0.5233 1.3767 0.2630
C5 C 0.41239(13) 1.33533(10) 0.19488(10)
H4 H 0.3715 1.4043 0.1855
C6 C 0.38125(12) 1.25079(9) 0.16300(9)
H5 H 0.3187 1.2624 0.1323
C7 C 0.26519(11) 0.96953(9) 0.25533(8)
C8 C 0.29097(12) 0.87804(10) 0.31593(9)
H6 H 0.3735 0.8436 0.2995
C9 C 0.19773(14) 0.83651(11) 0.39994(10)
H7 H 0.2169 0.7744 0.4405
C10 C 0.07698(14) 0.88599(12) 0.42425(10)
H8 H 0.0129 0.8572 0.4809
C11 C 0.04968(13) 0.97749(13) 0.36593(11)
H9 H -0.0329 1.0117 0.3830
C12 C 0.14291(12) 1.01935(12) 0.28241(10)
H10 H 0.1235 1.0825 0.2432
C13 C 0.77771(11) 0.92131(9) 0.09327(8)
C14 C 0.83040(12) 1.01486(9) 0.09055(9)
H11 H 0.7946 1.0820 0.0685
C15 C 0.93516(12) 1.00991(10) 0.12008(10)
H12 H 0.9696 1.0738 0.1194
C16 C 0.98950(12) 0.91195(10) 0.15051(10)
H13 H 1.0620 0.9093 0.1692
C17 C 0.93889(12) 0.81787(10) 0.15387(9)
H14 H 0.9768 0.7511 0.1744
C18 C 0.83188(11) 0.82222(9) 0.12688(8)
C19 C 0.76687(11) 0.72729(9) 0.13015(8)
C20 C 0.79781(12) 0.62303(9) 0.16824(9)
H15 H 0.8635 0.6087 0.1959
C21 C 0.73176(12) 0.54010(9) 0.16548(9)
H16 H 0.7522 0.4692 0.1918
C22 C 0.63620(12) 0.56058(9) 0.12451(9)
H17 H 0.5932 0.5034 0.1213
C23 C 0.60321(11) 0.66472(9) 0.08821(9)
H18 H 0.5369 0.6785 0.0612
C24 C 0.66723(11) 0.74875(9) 0.09135(8)
Si1A Si 0.61048(3) 0.96948(2) -0.14733(2)
Si2A Si 0.35437(3) 1.10500(2) -0.05646(2)
O1A O 0.66736(8) 0.93370(7) -0.05837(6)
O2A O 0.49205(8) 1.05738(7) -0.11904(6)
C1A C 0.55883(11) 0.85163(9) -0.17565(8)
C2A C 0.46681(12) 0.86573(10) -0.22082(9)
H1A H 0.4247 0.9343 -0.2297
C3A C 0.43577(13) 0.78127(10) -0.25301(10)
H2A H 0.3730 0.7922 -0.2835
C4A C 0.49695(13) 0.68090(10) -0.24043(10)
H3A H 0.4767 0.6233 -0.2630
C5A C 0.58761(13) 0.66467(10) -0.19488(10)
H4A H 0.6285 0.5957 -0.1855
C6A C 0.61875(12) 0.74921(9) -0.16300(9)
H5A H 0.6813 0.7376 -0.1323
C7A C 0.73481(11) 1.03047(9) -0.25533(8)
C8A C 0.70903(12) 1.12196(10) -0.31593(9)
H6A H 0.6265 1.1564 -0.2995
C9A C 0.80227(14) 1.16349(11) -0.39994(10)
H7A H 0.7831 1.2256 -0.4405
C10A C 0.92302(14) 1.11401(12) -0.42425(10)
H8A H 0.9871 1.1428 -0.4809
C11A C 0.95032(13) 1.02251(13) -0.36593(11)
H9A H 1.0329 0.9883 -0.3830
C12A C 0.85709(12) 0.98065(12) -0.28241(10)
H10A H 0.8765 0.9175 -0.2432
C13A C 0.22229(11) 1.07869(9) -0.09327(8)
C14A C 0.16960(12) 0.98514(9) -0.09055(9)
H11A H 0.2054 0.9180 -0.0685
C15A C 0.06484(12) 0.99009(10) -0.12008(10)
H12A H 0.0304 0.9262 -0.1194
C16A C 0.01050(12) 1.08805(10) -0.15051(10)
H13A H -0.0620 1.0907 -0.1692
C17A C 0.06111(12) 1.18213(10) -0.15387(9)
H14A H 0.0232 1.2489 -0.1744
C18A C 0.16812(11) 1.17778(9) -0.12688(8)
C19A C 0.23313(11) 1.27271(9) -0.13015(8)
C20A C 0.20219(12) 1.37697(9) -0.16824(9)
H15A H 0.1365 1.3913 -0.1959
C21A C 0.26824(12) 1.45990(9) -0.16548(9)
H16A H 0.2478 1.5308 -0.1918
C22A C 0.36380(12) 1.43942(9) -0.12451(9)
H17A H 0.4068 1.4966 -0.1213
C23A C 0.39679(11) 1.33528(9) -0.08821(9)
H18A H 0.4631 1.3215 -0.0612
C24A C 0.33277(11) 1.25125(9) -0.09135(8)
Si3 Si 0.82256(3) 0.58994(2) 0.50053(2)
Si4 Si 0.94728(3) 0.50393(3) 0.66282(2)
O3 O 0.93581(8) 0.56645(7) 0.40144(6)
O4 O 0.87160(8) 0.57141(7) 0.59373(6)
C25 C 0.76853(11) 0.73288(9) 0.48084(8)
C26 C 0.74351(13) 0.79819(10) 0.55225(9)
H19 H 0.7538 0.7687 0.6132
C27 C 0.70392(15) 0.90540(11) 0.53522(10)
H20 H 0.6877 0.9486 0.5843
C28 C 0.68811(14) 0.94946(10) 0.44692(11)
H21 H 0.6597 1.0225 0.4359
C29 C 0.71373(14) 0.88686(11) 0.37462(10)
H22 H 0.7041 0.9171 0.3136
C30 C 0.75362(12) 0.77960(10) 0.39176(9)
H23 H 0.7711 0.7372 0.3419
C31 C 0.70508(11) 0.49197(9) 0.52413(9)
C32 C 0.63295(12) 0.44966(10) 0.61896(9)
H24 H 0.6416 0.4739 0.6729
C33 C 0.54891(12) 0.37272(10) 0.63527(10)
H25 H 0.5002 0.3454 0.6998
C34 C 0.53660(13) 0.33617(11) 0.55674(11)
H26 H 0.4805 0.2828 0.5677
C35 C 0.60592(13) 0.37740(11) 0.46256(11)
H27 H 0.5967 0.3527 0.4090
C36 C 0.68892(12) 0.45478(10) 0.44637(9)
H28 H 0.7355 0.4830 0.3815
C37 C 0.98619(11) 0.59099(9) 0.73400(8)
C38 C 1.05263(12) 0.68236(10) 0.70636(9)
H29 H 1.0901 0.7088 0.6393
C39 C 1.06429(13) 0.73511(10) 0.77665(10)
H30 H 1.1104 0.7968 0.7574
C40 C 1.00838(13) 0.69729(10) 0.87502(10)
H31 H 1.0165 0.7335 0.9227
C41 C 0.94064(13) 0.60681(10) 0.90421(9)
H32 H 0.9023 0.5815 0.9714
C42 C 0.92955(11) 0.55372(9) 0.83407(8)
C43 C 0.85917(11) 0.45647(9) 0.85629(8)
C44 C 0.80302(12) 0.40212(10) 0.94939(9)
H33 H 0.8084 0.4262 1.0045
C45 C 0.73873(13) 0.31211(10) 0.96145(9)
H34 H 0.6987 0.2760 1.0250
C46 C 0.73301(12) 0.27519(10) 0.88106(10)
H35 H 0.6895 0.2137 0.8898
C47 C 0.79080(11) 0.32792(10) 0.78759(9)
H36 H 0.7876 0.3016 0.7328
C48 C 0.85332(11) 0.41922(9) 0.77407(8)
Si3A Si 1.17744(3) 0.41006(2) 0.49947(2)
Si4A Si 1.05272(3) 0.49607(3) 0.33718(2)
O3A O 1.06419(8) 0.43355(7) 0.59856(6)
O4A O 1.12840(8) 0.42859(7) 0.40627(6)
C25A C 1.23147(11) 0.26712(9) 0.51916(8)
C26A C 1.25649(13) 0.20181(10) 0.44775(9)
H19A H 1.2462 0.2313 0.3868
C27A C 1.29608(15) 0.09460(11) 0.46478(10)
H20A H 1.3123 0.0514 0.4157
C28A C 1.31189(14) 0.05054(10) 0.55308(11)
H21A H 1.3403 -0.0225 0.5641
C29A C 1.28627(14) 0.11314(11) 0.62538(10)
H22A H 1.2959 0.0829 0.6864
C30A C 1.24638(12) 0.22040(10) 0.60824(9)
H23A H 1.2289 0.2628 0.6581
C31A C 1.29492(11) 0.50803(9) 0.47587(9)
C32A C 1.36705(12) 0.55034(10) 0.38104(9)
H24A H 1.3584 0.5261 0.3271
C33A C 1.45109(12) 0.62728(10) 0.36473(10)
H25A H 1.4998 0.6546 0.3002
C34A C 1.46340(13) 0.66383(11) 0.44326(11)
H26A H 1.5195 0.7172 0.4323
C35A C 1.39408(13) 0.62260(11) 0.53744(11)
H27A H 1.4033 0.6473 0.5910
C36A C 1.31108(12) 0.54522(10) 0.55363(9)
H28A H 1.2645 0.5170 0.6185
C37A C 1.01381(11) 0.40901(9) 0.26600(8)
C38A C 0.94737(12) 0.31764(10) 0.29364(9)
H29A H 0.9099 0.2912 0.3607
C39A C 0.93571(13) 0.26489(10) 0.22335(10)
H30A H 0.8896 0.2032 0.2426
C40A C 0.99162(13) 0.30271(10) 0.12498(10)
H31A H 0.9835 0.2665 0.0773
C41A C 1.05936(13) 0.39319(10) 0.09579(9)
H32A H 1.0977 0.4185 0.0286
C42A C 1.07045(11) 0.44628(9) 0.16593(8)
C43A C 1.14083(11) 0.54353(9) 0.14371(8)
C44A C 1.19698(12) 0.59788(10) 0.05061(9)
H33A H 1.1916 0.5738 -0.0045
C45A C 1.26127(13) 0.68789(10) 0.03855(9)
H34A H 1.3013 0.7240 -0.0250
C46A C 1.26699(12) 0.72481(10) 0.11894(10)
H35A H 1.3105 0.7863 0.1102
C47A C 1.20920(11) 0.67208(10) 0.21241(9)
H36A H 1.2124 0.6984 0.2672
C48A C 1.14668(11) 0.58078(9) 0.22593(8)
loop_
_geom_bond_atom_site_label_1
_geom_bond_atom_site_label_2
_geom_bond_site_symmetry_1
_geom_bond_site_symmetry_2
Si1 O1 1_555 1_555
Si2 O2 1_555 1_555
O1 Si2A 1_555 1_555
O2 Si1 1_555 1_555
C1 Si1 1_555 1_555
C2 C1 1_555 1_555
H1 C2 1_555 1_555
C3 C2 1_555 1_555
H2 C3 1_555 1_555
C4 C3 1_555 1_555
H3 C4 1_555 1_555
C5 C4 1_555 1_555
H4 C5 1_555 1_555
C6 C1 1_555 1_555
H5 C6 1_555 1_555
C7 Si1 1_555 1_555
C8 C7 1_555 1_555
H6 C8 1_555 1_555
C9 C8 1_555 1_555
H7 C9 1_555 1_555
C10 C9 1_555 1_555
H8 C10 1_555 1_555
C11 C10 1_555 1_555
H9 C11 1_555 1_555
C12 C7 1_555 1_555
H10 C12 1_555 1_555
C13 Si2 1_555 1_555
C14 C13 1_555 1_555
H11 C14 1_555 1_555
C15 C14 1_555 1_555
H12 C15 1_555 1_555
C16 C15 1_555 1_555
H13 C16 1_555 1_555
C17 C16 1_555 1_555
H14 C17 1_555 1_555
C18 C13 1_555 1_555
C19 C18 1_555 1_555
C20 C19 1_555 1_555
H15 C20 1_555 1_555
C21 C20 1_555 1_555
H16 C21 1_555 1_555
C22 C21 1_555 1_555
H17 C22 1_555 1_555
C23 C22 1_555 1_555
H18 C23 1_555 1_555
C24 Si2 1_555 1_555
Si3 O3 1_555 1_555
Si4 O4 1_555 1_555
O3 Si4A 1_555 1_555
O4 Si3 1_555 1_555
C25 Si3 1_555 1_555
C26 C25 1_555 1_555
H19 C26 1_555 1_555
C27 C26 1_555 1_555
H20 C27 1_555 1_555
C28 C27 1_555 1_555
H21 C28 1_555 1_555
C29 C28 1_555 1_555
H22 C29 1_555 1_555
C30 C25 1_555 1_555
H23 C30 1_555 1_555
C31 Si3 1_555 1_555
C32 C31 1_555 1_555
H24 C32 1_555 1_555
C33 C32 1_555 1_555
H25 C33 1_555 1_555
C34 C33 1_555 1_555
H26 C34 1_555 1_555
C35 C34 1_555 1_555
H27 C35 1_555 1_555
C36 C31 1_555 1_555
H28 C36 1_555 1_555
C37 Si4 1_555 1_555
C38 C37 1_555 1_555
H29 C38 1_555 1_555
C39 C38 1_555 1_555
H30 C39 1_555 1_555
C40 C39 1_555 1_555
H31 C40 1_555 1_555
C41 C40 1_555 1_555
H32 C41 1_555 1_555
C42 C37 1_555 1_555
C43 C42 1_555 1_555
C44 C43 1_555 1_555
H33 C44 1_555 1_555
C45 C44 1_555 1_555
H34 C45 1_555 1_555
C46 C45 1_555 1_555
H35 C46 1_555 1_555
C47 C46 1_555 1_555
H36 C47 1_555 1_555
C48 Si4 1_555 1_555
Si1A O1A 1_555 1_555
Si2A O2A 1_555 1_555
O1A Si2 1_555 1_555
O2A Si1A 1_555 1_555
C1A Si1A 1_555 1_555
C2A C1A 1_555 1_555
H1A C2A 1_555 1_555
C3A C2A 1_555 1_555
H2A C3A 1_555 1_555
C4A C3A 1_555 1_555
H3A C4A 1_555 1_555
C5A C4A 1_555 1_555
H4A C5A 1_555 1_555
C6A C1A 1_555 1_555
H5A C6A 1_555 1_555
C7A Si1A 1_555 1_555
C8A C7A 1_555 1_555
H6A C8A 1_555 1_555
C9A C8A 1_555 1_555
H7A C9A 1_555 1_555
C10A C9A 1_555 1_555
H8A C10A 1_555 1_555
C11A C10A 1_555 1_555
H9A C11A 1_555 1_555
C12A C7A 1_555 1_555
H10A C12A 1_555 1_555
C13A Si2A 1_555 1_555
C14A C13A 1_555 1_555
H11A C14A 1_555 1_555
C15A C14A 1_555 1_555
H12A C15A 1_555 1_555
C16A C15A 1_555 1_555
H13A C16A 1_555 1_555
C17A C16A 1_555 1_555
H14A C17A 1_555 1_555
C18A C13A 1_555 1_555
C19A C18A 1_555 1_555
C20A C19A 1_555 1_555
H15A C20A 1_555 1_555
C21A C20A 1_555 1_555
H16A C21A 1_555 1_555
C22A C21A 1_555 1_555
H17A C22A 1_555 1_555
C23A C22A 1_555 1_555
H18A C23A 1_555 1_555
C24A Si2A 1_555 1_555
Si3A O3A 1_555 1_555
Si4A O4A 1_555 1_555
O3A Si4 1_555 1_555
O4A Si3A 1_555 1_555
C25A Si3A 1_555 1_555
C26A C25A 1_555 1_555
H19A C26A 1_555 1_555
C27A C26A 1_555 1_555
H20A C27A 1_555 1_555
C28A C27A 1_555 1_555
H21A C28A 1_555 1_555
C29A C28A 1_555 1_555
H22A C29A 1_555 1_555
C30A C25A 1_555 1_555
H23A C30A 1_555 1_555
C31A Si3A 1_555 1_555
C32A C31A 1_555 1_555
H24A C32A 1_555 1_555
C33A C32A 1_555 1_555
H25A C33A 1_555 1_555
C34A C33A 1_555 1_555
H26A C34A 1_555 1_555
C35A C34A 1_555 1_555
H27A C35A 1_555 1_555
C36A C31A 1_555 1_555
H28A C36A 1_555 1_555
C37A Si4A 1_555 1_555
C38A C37A 1_555 1_555
H29A C38A 1_555 1_555
C39A C38A 1_555 1_555
H30A C39A 1_555 1_555
C40A C39A 1_555 1_555
H31A C40A 1_555 1_555
C41A C40A 1_555 1_555
H32A C41A 1_555 1_555
C42A C37A 1_555 1_555
C43A C42A 1_555 1_555
C44A C43A 1_555 1_555
H33A C44A 1_555 1_555
C45A C44A 1_555 1_555
H34A C45A 1_555 1_555
C46A C45A 1_555 1_555
H35A C46A 1_555 1_555
C47A C46A 1_555 1_555
H36A C47A 1_555 1_555
C48A Si4A 1_555 1_555
C5 C6 1_555 1_555
C11 C12 1_555 1_555
C17 C18 1_555 1_555
C19 C24 1_555 1_555
C23 C24 1_555 1_555
C29 C30 1_555 1_555
C35 C36 1_555 1_555
C41 C42 1_555 1_555
C43 C48 1_555 1_555
C47 C48 1_555 1_555
C5A C6A 1_555 1_555
C11A C12A 1_555 1_555
C17A C18A 1_555 1_555
C19A C24A 1_555 1_555
C23A C24A 1_555 1_555
C29A C30A 1_555 1_555
C35A C36A 1_555 1_555
C41A C42A 1_555 1_555
C43A C48A 1_555 1_555
C47A C48A 1_555 1_555

#END
