
#######################################################################
#
#                 Cambridge Crystallographic Data Centre
#                                CCDC 
#
#######################################################################
#
# If this CIF has been generated from an entry in the Cambridge 
# Structural Database, then it will include bibliographic, chemical, 
# crystal, experimental, refinement or atomic coordinate data resulting 
# from the CCDC's data processing and validation procedures.
#
#######################################################################

data_DORDAR
_chemical_formula_moiety         'C48 H32 O4 Si4'
_chemical_name_systematic        
tetraspiro[dibenzo[b,d]silole-5,2'-[1,3,5,7,2,4,6,8]tetroxatetrasilocane-4',5''-dibenzo[b,d]silole-6',5'''-dibenzo[b,d]silole-8',5''''-dibenzo[b,d]silole]
_symmetry_cell_setting           monoclinic
_symmetry_space_group_name_H-M   'C 2/c'
_symmetry_Int_Tables_number      15
_space_group_name_Hall           '-C 2yn'
loop_
_symmetry_equiv_pos_site_id
_symmetry_equiv_pos_as_xyz
1 x,y,z
2 -x,y,1/2-z
3 1/2+x,1/2+y,z
4 1/2-x,1/2+y,1/2-z
5 -x,-y,-z
6 x,-y,1/2+z
7 1/2-x,1/2-y,-z
8 1/2+x,1/2-y,1/2+z
_cell_length_a                   20.185(2)
_cell_length_b                   8.708(2)
_cell_length_c                   21.626(3)
_cell_angle_alpha                90
_cell_angle_beta                 91.243(7)
_cell_angle_gamma                90
_cell_volume                     3800.33
_exptl_crystal_colour            colorless
_exptl_crystal_description       plate
_cell_formula_units_Z            4
loop_
_atom_site_label
_atom_site_type_symbol
_atom_site_fract_x
_atom_site_fract_y
_atom_site_fract_z
Si1 Si 0.09266(2) 0.84039(6) 0.21137(2)
Si2 Si -0.04441(2) 0.73401(6) 0.16360(2)
O1 O 0.02003(7) 0.84342(17) 0.17654(6)
O2 O 0.08723(7) 0.73349(17) 0.27300(6)
C1 C 0.16014(9) 0.7860(2) 0.15900(8)
C2 C 0.17347(10) 0.6506(3) 0.12764(9)
H1 H 0.1455 0.5639 0.1323
C3 C 0.22784(11) 0.6422(3) 0.08943(10)
H2 H 0.2374 0.5493 0.0684
C4 C 0.26828(10) 0.7698(3) 0.08203(9)
H3 H 0.3051 0.7637 0.0556
C5 C 0.25556(10) 0.9052(3) 0.11259(9)
H4 H 0.2835 0.9918 0.1071
C6 C 0.20154(9) 0.9148(2) 0.15168(8)
C7 C 0.18375(10) 1.0519(2) 0.18904(9)
C8 C 0.21924(11) 1.1898(3) 0.19043(10)
H5 H 0.2575 1.2018 0.1661
C9 C 0.19793(12) 1.3091(3) 0.22781(10)
H6 H 0.2215 1.4035 0.2284
C10 C 0.14279(11) 1.2924(3) 0.26427(10)
H7 H 0.1292 1.3744 0.2900
C11 C 0.10737(11) 1.1555(3) 0.26315(10)
H8 H 0.0696 1.1442 0.2882
C12 C 0.12697(10) 1.0349(2) 0.22541(9)
C13 C -0.02636(9) 0.5375(2) 0.13518(9)
C14 C 0.01203(10) 0.4179(3) 0.15923(10)
H9 H 0.0342 0.4299 0.1981
C15 C 0.01815(11) 0.2812(3) 0.12670(10)
H10 H 0.0448 0.2004 0.1431
C16 C -0.01475(12) 0.2629(3) 0.07007(11)
H11 H -0.0109 0.1688 0.0482
C17 C -0.05309(10) 0.3805(3) 0.04511(10)
H12 H -0.0753 0.3672 0.0063
C18 C -0.05896(9) 0.5183(2) 0.07726(9)
C19 C -0.09534(9) 0.6560(2) 0.05388(9)
C20 C -0.12839(10) 0.6638(3) -0.00314(9)
H13 H -0.1318 0.5753 -0.0286
C21 C -0.15633(11) 0.8012(3) -0.02258(9)
H14 H -0.1789 0.8063 -0.0615
C22 C -0.15170(11) 0.9316(3) 0.01410(10)
H15 H -0.1697 1.0261 -0.0004
C23 C -0.12064(10) 0.9238(3) 0.07216(9)
H16 H -0.1187 1.0122 0.0979
C24 C -0.09236(9) 0.7864(2) 0.09251(8)
Si1A Si -0.09266(2) 0.84039(6) 0.28863(2)
Si2A Si 0.04441(2) 0.73401(6) 0.33640(2)
O1A O -0.02003(7) 0.84342(17) 0.32346(6)
O2A O -0.08723(7) 0.73349(17) 0.22700(6)
C1A C -0.16014(9) 0.7860(2) 0.34100(8)
C2A C -0.17347(10) 0.6506(3) 0.37236(9)
H1A H -0.1455 0.5639 0.3677
C3A C -0.22784(11) 0.6422(3) 0.41057(10)
H2A H -0.2374 0.5493 0.4316
C4A C -0.26828(10) 0.7698(3) 0.41797(9)
H3A H -0.3051 0.7637 0.4444
C5A C -0.25556(10) 0.9052(3) 0.38741(9)
H4A H -0.2835 0.9918 0.3929
C6A C -0.20154(9) 0.9148(2) 0.34832(8)
C7A C -0.18375(10) 1.0519(2) 0.31096(9)
C8A C -0.21924(11) 1.1898(3) 0.30957(10)
H5A H -0.2575 1.2018 0.3339
C9A C -0.19793(12) 1.3091(3) 0.27219(10)
H6A H -0.2215 1.4035 0.2716
C10A C -0.14279(11) 1.2924(3) 0.23573(10)
H7A H -0.1292 1.3744 0.2100
C11A C -0.10737(11) 1.1555(3) 0.23685(10)
H8A H -0.0696 1.1442 0.2118
C12A C -0.12697(10) 1.0349(2) 0.27459(9)
C13A C 0.02636(9) 0.5375(2) 0.36482(9)
C14A C -0.01203(10) 0.4179(3) 0.34077(10)
H9A H -0.0342 0.4299 0.3019
C15A C -0.01815(11) 0.2812(3) 0.37330(10)
H10A H -0.0448 0.2004 0.3569
C16A C 0.01475(12) 0.2629(3) 0.42993(11)
H11A H 0.0109 0.1688 0.4518
C17A C 0.05309(10) 0.3805(3) 0.45489(10)
H12A H 0.0753 0.3672 0.4937
C18A C 0.05896(9) 0.5183(2) 0.42274(9)
C19A C 0.09534(9) 0.6560(2) 0.44612(9)
C20A C 0.12839(10) 0.6638(3) 0.50314(9)
H13A H 0.1318 0.5753 0.5286
C21A C 0.15633(11) 0.8012(3) 0.52258(9)
H14A H 0.1789 0.8063 0.5615
C22A C 0.15170(11) 0.9316(3) 0.48590(10)
H15A H 0.1697 1.0261 0.5004
C23A C 0.12064(10) 0.9238(3) 0.42784(9)
H16A H 0.1187 1.0122 0.4021
C24A C 0.09236(9) 0.7864(2) 0.40749(8)
loop_
_geom_bond_atom_site_label_1
_geom_bond_atom_site_label_2
_geom_bond_site_symmetry_1
_geom_bond_site_symmetry_2
Si1 O1 1_555 1_555
Si2 O1 1_555 1_555
O2 Si1 1_555 1_555
C1 Si1 1_555 1_555
C2 C1 1_555 1_555
H1 C2 1_555 1_555
C3 C2 1_555 1_555
H2 C3 1_555 1_555
C4 C3 1_555 1_555
H3 C4 1_555 1_555
C5 C4 1_555 1_555
H4 C5 1_555 1_555
C6 C1 1_555 1_555
C7 C6 1_555 1_555
C8 C7 1_555 1_555
H5 C8 1_555 1_555
C9 C8 1_555 1_555
H6 C9 1_555 1_555
C10 C9 1_555 1_555
H7 C10 1_555 1_555
C11 C10 1_555 1_555
H8 C11 1_555 1_555
C12 Si1 1_555 1_555
C13 Si2 1_555 1_555
C14 C13 1_555 1_555
H9 C14 1_555 1_555
C15 C14 1_555 1_555
H10 C15 1_555 1_555
C16 C15 1_555 1_555
H11 C16 1_555 1_555
C17 C16 1_555 1_555
H12 C17 1_555 1_555
C18 C13 1_555 1_555
C19 C18 1_555 1_555
C20 C19 1_555 1_555
H13 C20 1_555 1_555
C21 C20 1_555 1_555
H14 C21 1_555 1_555
C22 C21 1_555 1_555
H15 C22 1_555 1_555
C23 C22 1_555 1_555
H16 C23 1_555 1_555
C24 Si2 1_555 1_555
Si1A O1A 1_555 1_555
Si2A O2 1_555 1_555
O1A Si2A 1_555 1_555
O2A Si2 1_555 1_555
C1A Si1A 1_555 1_555
C2A C1A 1_555 1_555
H1A C2A 1_555 1_555
C3A C2A 1_555 1_555
H2A C3A 1_555 1_555
C4A C3A 1_555 1_555
H3A C4A 1_555 1_555
C5A C4A 1_555 1_555
H4A C5A 1_555 1_555
C6A C1A 1_555 1_555
C7A C6A 1_555 1_555
C8A C7A 1_555 1_555
H5A C8A 1_555 1_555
C9A C8A 1_555 1_555
H6A C9A 1_555 1_555
C10A C9A 1_555 1_555
H7A C10A 1_555 1_555
C11A C10A 1_555 1_555
H8A C11A 1_555 1_555
C12A Si1A 1_555 1_555
C13A Si2A 1_555 1_555
C14A C13A 1_555 1_555
H9A C14A 1_555 1_555
C15A C14A 1_555 1_555
H10A C15A 1_555 1_555
C16A C15A 1_555 1_555
H11A C16A 1_555 1_555
C17A C16A 1_555 1_555
H12A C17A 1_555 1_555
C18A C13A 1_555 1_555
C19A C18A 1_555 1_555
C20A C19A 1_555 1_555
H13A C20A 1_555 1_555
C21A C20A 1_555 1_555
H14A C21A 1_555 1_555
C22A C21A 1_555 1_555
H15A C22A 1_555 1_555
C23A C22A 1_555 1_555
H16A C23A 1_555 1_555
C24A Si2A 1_555 1_555
C5 C6 1_555 1_555
C7 C12 1_555 1_555
C11 C12 1_555 1_555
C17 C18 1_555 1_555
C19 C24 1_555 1_555
C23 C24 1_555 1_555
Si1A O2A 1_555 1_555
C5A C6A 1_555 1_555
C7A C12A 1_555 1_555
C11A C12A 1_555 1_555
C17A C18A 1_555 1_555
C19A C24A 1_555 1_555
C23A C24A 1_555 1_555

#END
