
#######################################################################
#
#                 Cambridge Crystallographic Data Centre
#                                CCDC 
#
#######################################################################
#
# If this CIF has been generated from an entry in the Cambridge 
# Structural Database, then it will include bibliographic, chemical, 
# crystal, experimental, refinement or atomic coordinate data resulting 
# from the CCDC's data processing and validation procedures.
#
#######################################################################

data_DORDIZ
_chemical_formula_moiety         'C32 H40 O6 Si6,C24 H16 Si1'
_chemical_name_systematic        
"3',3',5',5',9',9',11',11'-octamethyldispiro[dibenzo[b,d]silole-5,1'-cyclohexasiloxane-7',5''-dibenzo[b,d]silole] 5,5'-spirobi[dibenzo[b,d]silole]"
_symmetry_cell_setting           monoclinic
_symmetry_space_group_name_H-M   'C 2/c'
_symmetry_Int_Tables_number      15
_space_group_name_Hall           '-C 2yn'
loop_
_symmetry_equiv_pos_site_id
_symmetry_equiv_pos_as_xyz
1 x,y,z
2 -x,y,1/2-z
3 1/2+x,1/2+y,z
4 1/2-x,1/2+y,1/2-z
5 -x,-y,-z
6 x,-y,1/2+z
7 1/2-x,1/2-y,-z
8 1/2+x,1/2-y,1/2+z
_cell_length_a                   11.9214(7)
_cell_length_b                   12.9491(7)
_cell_length_c                   33.9519(19)
_cell_angle_alpha                90
_cell_angle_beta                 94.7730(10)
_cell_angle_gamma                90
_cell_volume                     5223.03
_exptl_crystal_colour            colorless
_cell_formula_units_Z            4
loop_
_atom_site_label
_atom_site_type_symbol
_atom_site_fract_x
_atom_site_fract_y
_atom_site_fract_z
Si1 Si 0.56473(8) 0.66374(8) 0.51272(3)
Si2 Si 0.46419(8) 0.66070(8) 0.42538(3)
Si3 Si 0.27982(8) 0.48642(8) 0.43614(3)
O1 O 0.5486(2) 0.6497(2) 0.46483(6)
O2 O 0.3596(2) 0.5838(2) 0.42759(8)
O3 O 0.34056(19) 0.42011(18) 0.47259(7)
C1 C 0.4312(3) 0.6374(3) 0.53448(11)
H1 H 0.4061 0.5671 0.5276
H2 H 0.3740 0.6870 0.5241
H3 H 0.4423 0.6443 0.5633
C2 C 0.6142(3) 0.7947(3) 0.52543(13)
H4 H 0.6295 0.8005 0.5542
H5 H 0.5561 0.8449 0.5163
H6 H 0.6833 0.8089 0.5126
C3 C 0.4206(3) 0.7954(3) 0.41439(9)
C4 C 0.3585(3) 0.8656(3) 0.43437(11)
H7 H 0.3298 0.8455 0.4585
C5 C 0.3374(3) 0.9637(3) 0.42008(12)
H8 H 0.2926 1.0100 0.4337
C6 C 0.3822(3) 0.9942(3) 0.38565(12)
H9 H 0.3699 1.0625 0.3760
C7 C 0.4445(3) 0.9260(3) 0.36527(11)
H10 H 0.4753 0.9478 0.3417
C8 C 0.4628(3) 0.8265(3) 0.37875(9)
C9 C 0.5247(3) 0.7434(3) 0.35858(9)
C10 C 0.5698(3) 0.7548(3) 0.32224(10)
H11 H 0.5634 0.8190 0.3086
C11 C 0.6235(4) 0.6733(4) 0.30618(12)
H12 H 0.6532 0.6813 0.2812
C12 C 0.6350(4) 0.5804(4) 0.32550(13)
H13 H 0.6728 0.5247 0.3141
C13 C 0.5907(3) 0.5680(3) 0.36218(12)
H14 H 0.5986 0.5038 0.3757
C14 C 0.5355(3) 0.6492(3) 0.37876(10)
C15 C 0.2629(3) 0.4057(3) 0.39149(10)
H15 H 0.3366 0.3940 0.3815
H16 H 0.2134 0.4409 0.3712
H17 H 0.2295 0.3393 0.3979
C16 C 0.1458(3) 0.5369(3) 0.45080(11)
H18 H 0.0936 0.4795 0.4538
H19 H 0.1135 0.5845 0.4305
H20 H 0.1587 0.5737 0.4760
Si1D Si 0.43527(8) 0.33626(8) 0.48728(3)
Si2D Si 0.53581(8) 0.33930(8) 0.57462(3)
Si3D Si 0.72018(8) 0.51358(8) 0.56386(3)
O1D O 0.4514(2) 0.3503(2) 0.53517(6)
O2D O 0.6404(2) 0.4162(2) 0.57241(8)
O3D O 0.65944(19) 0.57989(18) 0.52741(7)
C1D C 0.5688(3) 0.3626(3) 0.46552(11)
H1D H 0.5939 0.4329 0.4724
H2D H 0.6260 0.3130 0.4759
H3D H 0.5577 0.3557 0.4367
C2D C 0.3858(3) 0.2053(3) 0.47457(13)
H4D H 0.3705 0.1995 0.4458
H5D H 0.4439 0.1551 0.4837
H6D H 0.3167 0.1911 0.4874
C3D C 0.5794(3) 0.2046(3) 0.58561(9)
C4D C 0.6415(3) 0.1344(3) 0.56563(11)
H7D H 0.6702 0.1545 0.5415
C5D C 0.6626(3) 0.0363(3) 0.57992(12)
H8D H 0.7074 -0.0100 0.5663
C6D C 0.6178(3) 0.0058(3) 0.61435(12)
H9D H 0.6301 -0.0625 0.6240
C7D C 0.5555(3) 0.0740(3) 0.63473(11)
H10D H 0.5247 0.0522 0.6583
C8D C 0.5372(3) 0.1735(3) 0.62125(9)
C9D C 0.4753(3) 0.2566(3) 0.64142(9)
C10D C 0.4302(3) 0.2452(3) 0.67776(10)
H11D H 0.4366 0.1810 0.6914
C11D C 0.3765(4) 0.3267(4) 0.69382(12)
H12D H 0.3468 0.3187 0.7188
C12D C 0.3650(4) 0.4196(4) 0.67450(13)
H13D H 0.3272 0.4753 0.6859
C13D C 0.4093(3) 0.4320(3) 0.63782(12)
H14D H 0.4014 0.4962 0.6243
C14D C 0.4645(3) 0.3508(3) 0.62124(10)
C15D C 0.7371(3) 0.5943(3) 0.60851(10)
H15D H 0.6634 0.6060 0.6185
H16D H 0.7866 0.5591 0.6288
H17D H 0.7705 0.6607 0.6021
C16D C 0.8542(3) 0.4631(3) 0.54920(11)
H18D H 0.9064 0.5205 0.5462
H19D H 0.8865 0.4155 0.5695
H20D H 0.8413 0.4263 0.5240
Si4 Si 0.0000 0.54638(10) 0.2500
C17 C 0.0378(3) 0.6262(3) 0.29470(9)
C18 C -0.0227(3) 0.6986(3) 0.31436(10)
H21 H -0.1002 0.7088 0.3065
C19 C 0.0278(3) 0.7563(3) 0.34515(11)
H22 H -0.0149 0.8052 0.3584
C20 C 0.1412(3) 0.7425(3) 0.35658(11)
H23 H 0.1761 0.7826 0.3776
C21 C 0.2038(3) 0.6707(3) 0.33773(10)
H24 H 0.2813 0.6614 0.3459
C22 C 0.1536(3) 0.6123(3) 0.30699(9)
C23 C 0.2105(3) 0.5315(3) 0.28501(10)
C24 C 0.3215(3) 0.5040(3) 0.29277(10)
H25 H 0.3682 0.5405 0.3121
C25 C 0.3649(3) 0.4225(3) 0.27220(11)
H26 H 0.4413 0.4026 0.2777
C26 C 0.2973(3) 0.3704(3) 0.24374(11)
H27 H 0.3269 0.3139 0.2301
C27 C 0.1867(3) 0.4003(3) 0.23508(11)
H28 H 0.1417 0.3649 0.2150
C28 C 0.1403(3) 0.4803(3) 0.25503(10)
C17A C -0.0378(3) 0.6262(3) 0.20530(9)
C18A C 0.0227(3) 0.6986(3) 0.18564(10)
H21A H 0.1002 0.7088 0.1935
C19A C -0.0278(3) 0.7563(3) 0.15485(11)
H22A H 0.0149 0.8052 0.1416
C20A C -0.1412(3) 0.7425(3) 0.14342(11)
H23A H -0.1761 0.7826 0.1224
C21A C -0.2038(3) 0.6707(3) 0.16227(10)
H24A H -0.2813 0.6614 0.1541
C22A C -0.1536(3) 0.6123(3) 0.19301(9)
C23A C -0.2105(3) 0.5315(3) 0.21499(10)
C24A C -0.3215(3) 0.5040(3) 0.20723(10)
H25A H -0.3682 0.5405 0.1879
C25A C -0.3649(3) 0.4225(3) 0.22780(11)
H26A H -0.4413 0.4026 0.2223
C26A C -0.2973(3) 0.3704(3) 0.25626(11)
H27A H -0.3269 0.3139 0.2699
C27A C -0.1867(3) 0.4003(3) 0.26492(11)
H28A H -0.1417 0.3649 0.2850
C28A C -0.1403(3) 0.4803(3) 0.24497(10)
loop_
_geom_bond_atom_site_label_1
_geom_bond_atom_site_label_2
_geom_bond_site_symmetry_1
_geom_bond_site_symmetry_2
Si1 O1 1_555 1_555
Si2 O1 1_555 1_555
Si3 O2 1_555 1_555
O2 Si2 1_555 1_555
O3 Si3 1_555 1_555
C1 Si1 1_555 1_555
H1 C1 1_555 1_555
H2 C1 1_555 1_555
H3 C1 1_555 1_555
C2 Si1 1_555 1_555
H4 C2 1_555 1_555
H5 C2 1_555 1_555
H6 C2 1_555 1_555
C3 Si2 1_555 1_555
C4 C3 1_555 1_555
H7 C4 1_555 1_555
C5 C4 1_555 1_555
H8 C5 1_555 1_555
C6 C5 1_555 1_555
H9 C6 1_555 1_555
C7 C6 1_555 1_555
H10 C7 1_555 1_555
C8 C3 1_555 1_555
C9 C8 1_555 1_555
C10 C9 1_555 1_555
H11 C10 1_555 1_555
C11 C10 1_555 1_555
H12 C11 1_555 1_555
C12 C11 1_555 1_555
H13 C12 1_555 1_555
C13 C12 1_555 1_555
H14 C13 1_555 1_555
C14 Si2 1_555 1_555
C15 Si3 1_555 1_555
H15 C15 1_555 1_555
H16 C15 1_555 1_555
H17 C15 1_555 1_555
C16 Si3 1_555 1_555
H18 C16 1_555 1_555
H19 C16 1_555 1_555
H20 C16 1_555 1_555
Si4 C17 1_555 1_555
C17 C18 1_555 1_555
C18 H21 1_555 1_555
C19 C18 1_555 1_555
H22 C19 1_555 1_555
C20 C19 1_555 1_555
H23 C20 1_555 1_555
C21 C20 1_555 1_555
H24 C21 1_555 1_555
C22 C17 1_555 1_555
C23 C22 1_555 1_555
C24 C23 1_555 1_555
H25 C24 1_555 1_555
C25 C24 1_555 1_555
H26 C25 1_555 1_555
C26 C25 1_555 1_555
H27 C26 1_555 1_555
C27 C26 1_555 1_555
H28 C27 1_555 1_555
C28 Si4 1_555 1_555
Si1D O3 1_555 1_555
Si2D O1D 1_555 1_555
Si3D O2D 1_555 1_555
O1D Si1D 1_555 1_555
O2D Si2D 1_555 1_555
O3D Si1 1_555 1_555
C1D Si1D 1_555 1_555
H1D C1D 1_555 1_555
H2D C1D 1_555 1_555
H3D C1D 1_555 1_555
C2D Si1D 1_555 1_555
H4D C2D 1_555 1_555
H5D C2D 1_555 1_555
H6D C2D 1_555 1_555
C3D Si2D 1_555 1_555
C4D C3D 1_555 1_555
H7D C4D 1_555 1_555
C5D C4D 1_555 1_555
H8D C5D 1_555 1_555
C6D C5D 1_555 1_555
H9D C6D 1_555 1_555
C7D C6D 1_555 1_555
H10D C7D 1_555 1_555
C8D C3D 1_555 1_555
C9D C8D 1_555 1_555
C10D C9D 1_555 1_555
H11D C10D 1_555 1_555
C11D C10D 1_555 1_555
H12D C11D 1_555 1_555
C12D C11D 1_555 1_555
H13D C12D 1_555 1_555
C13D C12D 1_555 1_555
H14D C13D 1_555 1_555
C14D Si2D 1_555 1_555
C15D Si3D 1_555 1_555
H15D C15D 1_555 1_555
H16D C15D 1_555 1_555
H17D C15D 1_555 1_555
C16D Si3D 1_555 1_555
H18D C16D 1_555 1_555
H19D C16D 1_555 1_555
H20D C16D 1_555 1_555
C17A Si4 1_555 1_555
C18A C17A 1_555 1_555
H21A C18A 1_555 1_555
C19A C18A 1_555 1_555
H22A C19A 1_555 1_555
C20A C19A 1_555 1_555
H23A C20A 1_555 1_555
C21A C20A 1_555 1_555
H24A C21A 1_555 1_555
C22A C17A 1_555 1_555
C23A C22A 1_555 1_555
C24A C23A 1_555 1_555
H25A C24A 1_555 1_555
C25A C24A 1_555 1_555
H26A C25A 1_555 1_555
C26A C25A 1_555 1_555
H27A C26A 1_555 1_555
C27A C26A 1_555 1_555
H28A C27A 1_555 1_555
C28A Si4 1_555 1_555
C7 C8 1_555 1_555
C9 C14 1_555 1_555
C13 C14 1_555 1_555
C21 C22 1_555 1_555
C23 C28 1_555 1_555
C27 C28 1_555 1_555
Si3D O3D 1_555 1_555
C7D C8D 1_555 1_555
C9D C14D 1_555 1_555
C13D C14D 1_555 1_555
C21A C22A 1_555 1_555
C23A C28A 1_555 1_555
C27A C28A 1_555 1_555

#END
