
#######################################################################
#
#                 Cambridge Crystallographic Data Centre
#                                CCDC 
#
#######################################################################
#
# If this CIF has been generated from an entry in the Cambridge 
# Structural Database, then it will include bibliographic, chemical, 
# crystal, experimental, refinement or atomic coordinate data resulting 
# from the CCDC's data processing and validation procedures.
#
#######################################################################

data_DORJOK
_chemical_formula_moiety         'C24 H22 N2 O4'
_chemical_name_systematic        
'(2R*,4R*)-2-Cyano-2-methyl-4-(naphthalen-1-yl)pentyl 4-nitrobenzoate'
_symmetry_cell_setting           monoclinic
_symmetry_space_group_name_H-M   'P 21/c'
_symmetry_Int_Tables_number      14
_space_group_name_Hall           '-P 2ybc'
loop_
_symmetry_equiv_pos_site_id
_symmetry_equiv_pos_as_xyz
1 x,y,z
2 -x,1/2+y,1/2-z
3 -x,-y,-z
4 x,1/2-y,1/2+z
_cell_length_a                   10.2400(5)
_cell_length_b                   19.0776(9)
_cell_length_c                   10.6227(5)
_cell_angle_alpha                90
_cell_angle_beta                 91.207(3)
_cell_angle_gamma                90
_cell_volume                     2074.73
_exptl_crystal_colour            colorless
_exptl_crystal_description       needle
_chemical_melting_point          '146-147 deg.C'
_cell_formula_units_Z            4
loop_
_atom_site_label
_atom_site_type_symbol
_atom_site_fract_x
_atom_site_fract_y
_atom_site_fract_z
O1 O 0.2161(2) 0.95837(14) 0.1674(3)
O2 O 0.1659(3) 1.05490(15) 0.0588(3)
C1 C -0.1016(3) 0.76331(17) 0.2330(3)
H1 H -0.0409 0.7360 0.1824
C2 C 0.3841(4) 1.0379(2) 0.1343(3)
C3 C 0.0744(3) 0.86199(17) 0.2130(3)
C4 C -0.0700(3) 0.84061(18) 0.2117(3)
H2 H -0.1133 0.8677 0.2759
H3 H -0.1082 0.8543 0.1310
C5 C 0.4751(4) 0.9905(2) 0.1818(3)
H4 H 0.4491 0.9451 0.2007
C6 C 0.6387(5) 1.0765(3) 0.1754(4)
C7 C -0.2649(4) 0.6789(2) 0.1288(3)
C8 C 0.4249(5) 1.1052(2) 0.1047(3)
H5 H 0.3658 1.1371 0.0698
C9 C 0.0815(4) 0.9358(2) 0.1609(4)
H6 H 0.0496 0.9366 0.0743
H7 H 0.0278 0.9671 0.2099
C10 C -0.2384(4) 0.7446(2) 0.1873(3)
C11 C 0.1583(4) 0.8136(2) 0.1325(4)
H8 H 0.2433 0.8340 0.1232
H9 H 0.1174 0.8079 0.0510
H10 H 0.1667 0.7688 0.1728
C12 C 0.2450(4) 1.0194(2) 0.1145(4)
C13 C 0.1322(4) 0.8628(2) 0.3411(5)
N1 N 0.7743(5) 1.0983(3) 0.2041(4)
O3 O 0.8020(4) 1.1590(3) 0.1897(4)
C14 C 0.5523(5) 1.1246(2) 0.1271(4)
H11 H 0.5797 1.1699 0.1095
C15 C -0.0820(4) 0.7400(2) 0.3689(3)
H12 H -0.1438 0.7635 0.4208
H13 H 0.0051 0.7514 0.3971
H14 H -0.0949 0.6902 0.3745
C16 C -0.3921(6) 0.6631(3) 0.0828(4)
C17 C 0.6026(4) 1.0097(3) 0.2014(4)
H15 H 0.6635 0.9775 0.2320
C18 C -0.4685(5) 0.7727(3) 0.1628(6)
H16 H -0.5360 0.8041 0.1773
C19 C -0.3413(4) 0.7887(2) 0.2051(4)
H17 H -0.3265 0.8309 0.2469
O4 O 0.8497(4) 1.0538(3) 0.2456(5)
N2 N 0.1806(4) 0.8644(2) 0.4385(4)
C20 C -0.1667(5) 0.6265(2) 0.1139(3)
H18 H -0.0821 0.6350 0.1437
C21 C -0.4937(5) 0.7123(4) 0.1014(5)
H19 H -0.5778 0.7028 0.0711
C22 C -0.4185(7) 0.5987(4) 0.0229(5)
H20 H -0.5019 0.5891 -0.0091
C23 C -0.3224(10) 0.5510(4) 0.0122(5)
H21 H -0.3408 0.5082 -0.0258
C24 C -0.1955(7) 0.5646(3) 0.0569(5)
H22 H -0.1306 0.5311 0.0476
loop_
_geom_bond_atom_site_label_1
_geom_bond_atom_site_label_2
_geom_bond_site_symmetry_1
_geom_bond_site_symmetry_2
O1 C9 1_555 1_555
O2 C12 1_555 1_555
C1 H1 1_555 1_555
C2 C5 1_555 1_555
C3 C4 1_555 1_555
C4 C1 1_555 1_555
H2 C4 1_555 1_555
H3 C4 1_555 1_555
C5 H4 1_555 1_555
C6 N1 1_555 1_555
C7 C10 1_555 1_555
C8 C2 1_555 1_555
H5 C8 1_555 1_555
C9 C3 1_555 1_555
H6 C9 1_555 1_555
H7 C9 1_555 1_555
C10 C1 1_555 1_555
C11 C3 1_555 1_555
H8 C11 1_555 1_555
H9 C11 1_555 1_555
H10 C11 1_555 1_555
C12 O1 1_555 1_555
C13 C3 1_555 1_555
N1 O3 1_555 1_555
C14 C6 1_555 1_555
H11 C14 1_555 1_555
C15 C1 1_555 1_555
H12 C15 1_555 1_555
H13 C15 1_555 1_555
H14 C15 1_555 1_555
C16 C7 1_555 1_555
C17 C5 1_555 1_555
H15 C17 1_555 1_555
C18 H16 1_555 1_555
C19 C10 1_555 1_555
H17 C19 1_555 1_555
O4 N1 1_555 1_555
N2 C13 1_555 1_555
C20 C7 1_555 1_555
H18 C20 1_555 1_555
C21 C16 1_555 1_555
H19 C21 1_555 1_555
C22 C16 1_555 1_555
H20 C22 1_555 1_555
C23 C22 1_555 1_555
H21 C23 1_555 1_555
C24 C20 1_555 1_555
H22 C24 1_555 1_555
C2 C12 1_555 1_555
C6 C17 1_555 1_555
C8 C14 1_555 1_555
C18 C19 1_555 1_555
C18 C21 1_555 1_555
C23 C24 1_555 1_555

#END
