
#######################################################################
#
#                 Cambridge Crystallographic Data Centre
#                                CCDC 
#
#######################################################################
#
# If this CIF has been generated from an entry in the Cambridge 
# Structural Database, then it will include bibliographic, chemical, 
# crystal, experimental, refinement or atomic coordinate data resulting 
# from the CCDC's data processing and validation procedures.
#
#######################################################################

data_DORMUT
_chemical_formula_moiety         'C34 H38 N12 O6'
_chemical_name_systematic        
'Diethyl 4,8-dioxo-2,6-bis(2-(4-phenyl-1H-1,2,3-triazol-1-yl)ethyl)tetrahydro-1H,5H-2,3a,4a,6,7a,8a-hexaazacyclopenta[def]fluorene-8b,8c-dicarboxylate'
_symmetry_cell_setting           triclinic
_symmetry_space_group_name_H-M   'P -1'
_symmetry_Int_Tables_number      2
_space_group_name_Hall           '-P 1'
loop_
_symmetry_equiv_pos_site_id
_symmetry_equiv_pos_as_xyz
1 x,y,z
2 -x,-y,-z
_cell_length_a                   10.0153(5)
_cell_length_b                   12.0495(6)
_cell_length_c                   16.3995(8)
_cell_angle_alpha                102.658(1)
_cell_angle_beta                 103.272(1)
_cell_angle_gamma                108.398(1)
_cell_volume                     1734.28
_exptl_crystal_colour            colorless
_exptl_crystal_description       block
_chemical_melting_point          '205 deg.C'
_cell_formula_units_Z            2
loop_
_atom_site_label
_atom_site_type_symbol
_atom_site_fract_x
_atom_site_fract_y
_atom_site_fract_z
C1 C -0.2307(3) 0.5079(3) -0.2743(2)
H1 H -0.2698 0.4415 -0.2549
C2 C -0.1606(4) 0.4948(3) -0.3374(2)
H2 H -0.1531 0.4200 -0.3602
C3 C -0.1021(4) 0.5927(4) -0.3661(2)
H3 H -0.0555 0.5840 -0.4086
C4 C -0.1122(3) 0.7025(3) -0.3324(2)
H4 H -0.0711 0.7688 -0.3514
C5 C -0.1830(3) 0.7159(3) -0.27022(19)
H5 H -0.1906 0.7909 -0.2484
C6 C -0.2433(2) 0.6183(2) -0.23975(17)
C7 C -0.3176(2) 0.6321(2) -0.17293(17)
C8 C -0.3113(2) 0.7354(2) -0.11500(17)
H6 H -0.2563 0.8169 -0.1084
C9 C -0.4370(3) 0.7658(2) 0.00058(18)
H7 H -0.5419 0.7511 -0.0196
H8 H -0.3807 0.8529 0.0133
C10 C -0.4022(2) 0.7315(2) 0.08400(17)
H9 H -0.4347 0.7761 0.1270
H10 H -0.4579 0.6442 0.0709
C11 C -0.2228(2) 0.6838(2) 0.17908(17)
H11 H -0.2784 0.5973 0.1455
H12 H -0.2600 0.7035 0.2277
C12 C -0.1614(2) 0.8898(2) 0.17378(17)
H13 H -0.1753 0.9401 0.1363
H14 H -0.1988 0.9110 0.2221
C13 C -0.0045(2) 0.64214(19) 0.16212(15)
C14 C 0.0899(2) 0.94996(19) 0.16087(16)
C15 C 0.0345(2) 0.8353(2) 0.25561(15)
C16 C 0.0393(3) 0.8799(3) 0.35117(18)
C17 C 0.0849(4) 0.8426(4) 0.4886(2)
H15 H 0.1334 0.9314 0.5151
H16 H -0.0142 0.8171 0.4935
C18 C 0.1676(5) 0.7846(5) 0.5343(3)
H17 H 0.1217 0.6969 0.5063
H18 H 0.1690 0.8036 0.5945
H19 H 0.2676 0.8142 0.5327
C19 C 0.1844(2) 0.8365(2) 0.23990(15)
C20 C 0.3167(3) 0.8843(3) 0.32533(17)
C21 C 0.5056(5) 0.8426(5) 0.4117(3)
H20 H 0.5590 0.9312 0.4304
H21 H 0.4704 0.8221 0.4590
C22 C 0.5998(5) 0.7860(5) 0.3972(3)
H22 H 0.5465 0.6982 0.3770
H23 H 0.6792 0.8092 0.4512
H24 H 0.6402 0.8105 0.3533
C23 C 0.2308(2) 0.6922(2) 0.12557(17)
H25 H 0.3302 0.7038 0.1592
H26 H 0.1825 0.6079 0.0861
C24 C 0.3019(2) 0.9016(2) 0.13220(16)
H27 H 0.3061 0.9571 0.0972
H28 H 0.4027 0.9210 0.1683
C25 C 0.0977(2) 0.7411(2) 0.00559(16)
H29 H 0.0247 0.7477 0.0343
H30 H 0.0646 0.6555 -0.0296
C26 C 0.1035(3) 0.8196(2) -0.05536(17)
H31 H 0.0041 0.7953 -0.0954
H32 H 0.1364 0.9051 -0.0203
C27 C 0.1947(3) 0.7101(2) -0.16621(16)
H33 H 0.1297 0.6290 -0.1796
C28 C 0.3010(2) 0.7517(2) -0.20319(17)
C29 C 0.3378(3) 0.6839(3) -0.27460(18)
C30 C 0.2665(4) 0.5574(3) -0.3108(2)
H34 H 0.1985 0.5143 -0.2874
C31 C 0.2949(5) 0.4942(4) -0.3813(3)
H35 H 0.2457 0.4090 -0.4052
C32 C 0.3944(6) 0.5554(7) -0.4162(3)
H36 H 0.4117 0.5125 -0.4645
C33 C 0.4688(5) 0.6799(6) -0.3802(3)
H37 H 0.5390 0.7211 -0.4031
C34 C 0.4414(3) 0.7459(4) -0.3100(2)
H38 H 0.4917 0.8310 -0.2866
N1 N -0.4124(3) 0.5320(2) -0.16020(17)
N2 N -0.4630(3) 0.5717(2) -0.09783(17)
N3 N -0.4010(2) 0.69457(18) -0.06954(14)
N4 N -0.24345(18) 0.75906(17) 0.12268(13)
N5 N -0.06500(18) 0.70681(16) 0.21348(12)
N6 N -0.00470(19) 0.91379(16) 0.20833(13)
N7 N 0.14671(18) 0.71165(16) 0.18687(12)
N8 N 0.21338(18) 0.92273(16) 0.19052(12)
N9 N 0.24106(19) 0.77591(17) 0.07362(13)
N10 N 0.2023(2) 0.80908(17) -0.10683(13)
N11 N 0.3096(3) 0.9106(2) -0.10502(18)
N12 N 0.3704(2) 0.8747(2) -0.16363(18)
O1 O -0.07042(17) 0.54066(14) 0.10881(12)
O2 O 0.07117(18) 1.00110(15) 0.10595(12)
O3 O 0.0091(3) 0.9648(2) 0.38055(14)
O4 O 0.0752(2) 0.80849(19) 0.39572(12)
O5 O 0.3551(2) 0.9838(2) 0.37669(14)
O6 O 0.3784(2) 0.8057(2) 0.33281(13)
loop_
_geom_bond_atom_site_label_1
_geom_bond_atom_site_label_2
_geom_bond_site_symmetry_1
_geom_bond_site_symmetry_2
C1 H1 1_555 1_555
C2 C1 1_555 1_555
H2 C2 1_555 1_555
C3 C2 1_555 1_555
H3 C3 1_555 1_555
C4 C3 1_555 1_555
H4 C4 1_555 1_555
C5 C4 1_555 1_555
H5 C5 1_555 1_555
C6 C1 1_555 1_555
C7 C6 1_555 1_555
C8 C7 1_555 1_555
H6 C8 1_555 1_555
C9 H7 1_555 1_555
H8 C9 1_555 1_555
C10 C9 1_555 1_555
H9 C10 1_555 1_555
H10 C10 1_555 1_555
C11 H11 1_555 1_555
H12 C11 1_555 1_555
C12 H13 1_555 1_555
H14 C12 1_555 1_555
C13 N5 1_555 1_555
C14 N6 1_555 1_555
C15 C16 1_555 1_555
C16 O3 1_555 1_555
C17 H15 1_555 1_555
H16 C17 1_555 1_555
C18 C17 1_555 1_555
H17 C18 1_555 1_555
H18 C18 1_555 1_555
H19 C18 1_555 1_555
C19 C15 1_555 1_555
C20 C19 1_555 1_555
C21 H20 1_555 1_555
H21 C21 1_555 1_555
C22 C21 1_555 1_555
H22 C22 1_555 1_555
H23 C22 1_555 1_555
H24 C22 1_555 1_555
C23 H25 1_555 1_555
H26 C23 1_555 1_555
C24 H27 1_555 1_555
H28 C24 1_555 1_555
C25 H29 1_555 1_555
H30 C25 1_555 1_555
C26 C25 1_555 1_555
H31 C26 1_555 1_555
H32 C26 1_555 1_555
C27 H33 1_555 1_555
C28 C27 1_555 1_555
C29 C28 1_555 1_555
C30 C29 1_555 1_555
H34 C30 1_555 1_555
C31 C30 1_555 1_555
H35 C31 1_555 1_555
C32 C31 1_555 1_555
H36 C32 1_555 1_555
C33 C32 1_555 1_555
H37 C33 1_555 1_555
C34 C29 1_555 1_555
H38 C34 1_555 1_555
N1 C7 1_555 1_555
N2 N1 1_555 1_555
N3 C8 1_555 1_555
N4 C10 1_555 1_555
N5 C11 1_555 1_555
N6 C12 1_555 1_555
N7 C13 1_555 1_555
N8 C14 1_555 1_555
N9 C23 1_555 1_555
N10 C26 1_555 1_555
N11 N10 1_555 1_555
N12 C28 1_555 1_555
O1 C13 1_555 1_555
O2 C14 1_555 1_555
O4 C16 1_555 1_555
O5 C20 1_555 1_555
O6 C20 1_555 1_555
C5 C6 1_555 1_555
C9 N3 1_555 1_555
C11 N4 1_555 1_555
C12 N4 1_555 1_555
C15 N5 1_555 1_555
C15 N6 1_555 1_555
C17 O4 1_555 1_555
C19 N7 1_555 1_555
C19 N8 1_555 1_555
C21 O6 1_555 1_555
C23 N7 1_555 1_555
C24 N8 1_555 1_555
C24 N9 1_555 1_555
C25 N9 1_555 1_555
C27 N10 1_555 1_555
C33 C34 1_555 1_555
N2 N3 1_555 1_555
N11 N12 1_555 1_555

#END
