
#######################################################################
#
#                 Cambridge Crystallographic Data Centre
#                                CCDC 
#
#######################################################################
#
# If this CIF has been generated from an entry in the Cambridge 
# Structural Database, then it will include bibliographic, chemical, 
# crystal, experimental, refinement or atomic coordinate data resulting 
# from the CCDC's data processing and validation procedures.
#
#######################################################################

data_DORNUU
_chemical_formula_moiety         'C52 H75 O10 P3 S7'
_chemical_name_systematic        
5,11,17,23-Tetra-t-butyl-25,26,27-tris(diethylthiophosphato)-28-hydroxy-2,8,14,20-tetrathiacalix(4)arene
_symmetry_cell_setting           monoclinic
_symmetry_space_group_name_H-M   'P 21/c'
_symmetry_Int_Tables_number      14
_space_group_name_Hall           '-P 2ybc'
loop_
_symmetry_equiv_pos_site_id
_symmetry_equiv_pos_as_xyz
1 x,y,z
2 -x,1/2+y,1/2-z
3 -x,-y,-z
4 x,1/2-y,1/2+z
_cell_length_a                   13.333(3)
_cell_length_b                   34.173(6)
_cell_length_c                   15.387(4)
_cell_angle_alpha                90
_cell_angle_beta                 113.829(16)
_cell_angle_gamma                90
_cell_volume                     6413.13
_exptl_crystal_colour            colorless
_exptl_crystal_description       block
_chemical_melting_point          'above 260 deg.C'
_cell_formula_units_Z            4
loop_
_atom_site_label
_atom_site_type_symbol
_atom_site_fract_x
_atom_site_fract_y
_atom_site_fract_z
S1 S 0.37922(18) 0.20306(6) 0.03936(15)
S2 S 0.28238(15) 0.04558(5) 0.00283(12)
S3 S 0.32555(15) 0.05089(6) 0.37558(13)
S4 S 0.4750(2) 0.20350(6) 0.42191(16)
S5 S 0.02809(19) 0.15878(9) -0.1714(2)
S6 S 0.05554(19) 0.02950(8) 0.20489(19)
S7 S 0.3594(2) 0.17413(8) 0.56849(17)
P1 P 0.17172(16) 0.13872(6) -0.13805(14)
P2 P 0.09844(16) 0.06924(7) 0.14051(16)
P3 P 0.25737(18) 0.15339(7) 0.45232(17)
O1 O 0.3502(4) 0.18237(16) 0.2142(4)
H1 H 0.3455 0.1770 0.2644
O2 O 0.2337(4) 0.13218(14) -0.0266(3)
O3 O 0.1810(4) 0.09863(16) -0.1835(4)
O4 O 0.2569(4) 0.16469(18) -0.1572(4)
O5 O 0.2280(3) 0.07342(13) 0.1666(3)
O6 O 0.0509(4) 0.0655(2) 0.0303(4)
O7 O 0.0706(5) 0.11126(18) 0.1636(4)
O8 O 0.3072(4) 0.13899(14) 0.3777(3)
O9 O 0.1968(5) 0.1173(2) 0.4700(5)
O10 O 0.1647(5) 0.18050(19) 0.3843(5)
C1 C 0.4397(6) 0.2049(2) 0.2321(6)
C2 C 0.5105(6) 0.2158(2) 0.3251(5)
C3 C 0.6002(6) 0.2388(2) 0.3389(6)
H2 H 0.6481 0.2450 0.4007
C4 C 0.6216(7) 0.2531(2) 0.2645(6)
C5 C 0.5529(6) 0.2419(2) 0.1732(6)
H3 H 0.5673 0.2507 0.1222
C6 C 0.4640(6) 0.2181(2) 0.1560(5)
C7 C 0.7198(9) 0.2789(3) 0.2812(8)
C8 C 0.7021(13) 0.3112(5) 0.2166(12)
H4 H 0.6379 0.3063 0.1597
H5 H 0.7645 0.3140 0.2010
H6 H 0.6921 0.3348 0.2460
C9 C 0.7968(16) 0.2814(6) 0.3767(14)
H7 H 0.7922 0.2583 0.4103
H8 H 0.7811 0.3040 0.4062
H9 H 0.8694 0.2836 0.3784
C10 C 0.7919(19) 0.2563(7) 0.2434(17)
H10 H 0.8176 0.2328 0.2799
H11 H 0.8534 0.2722 0.2485
H12 H 0.7502 0.2497 0.1780
C11 C 0.4221(6) 0.1534(2) 0.0480(5)
C12 C 0.3454(5) 0.1233(2) 0.0166(4)
C13 C 0.3796(6) 0.0847(2) 0.0317(5)
C14 C 0.4930(6) 0.0765(2) 0.0752(5)
H13 H 0.5160 0.0506 0.0844
C15 C 0.5697(6) 0.1055(2) 0.1041(5)
C16 C 0.5310(6) 0.1439(2) 0.0885(5)
H14 H 0.5819 0.1642 0.1065
C17 C 0.6929(7) 0.0967(3) 0.1495(6)
C18 C 0.7186(8) 0.0556(3) 0.1693(13)
H15 H 0.6847 0.0408 0.1117
H16 H 0.6914 0.0467 0.2150
H17 H 0.7966 0.0520 0.1944
C19 C 0.7429(10) 0.1224(4) 0.2385(10)
H18 H 0.7225 0.1492 0.2219
H19 H 0.8213 0.1201 0.2645
H20 H 0.7162 0.1140 0.2848
C20 C 0.7457(10) 0.1123(6) 0.0860(13)
H21 H 0.7284 0.1395 0.0735
H22 H 0.7185 0.0980 0.0272
H23 H 0.8238 0.1091 0.1171
C21 C 0.0937(9) 0.0724(4) -0.2239(9)
H24 H 0.0290 0.0870 -0.2637
H25 H 0.0786 0.0604 -0.1734
C22 C 0.1131(9) 0.0420(3) -0.2802(9)
H26 H 0.0492 0.0257 -0.3071
H27 H 0.1746 0.0264 -0.2407
H28 H 0.1285 0.0535 -0.3304
C23 C 0.2392(10) 0.1809(3) -0.2476(8)
H29 H 0.2620 0.1621 -0.2833
H30 H 0.1616 0.1859 -0.2827
C24 C 0.2957(18) 0.2147(4) -0.2391(10)
H31 H 0.2831 0.2245 -0.3012
H32 H 0.3726 0.2099 -0.2043
H33 H 0.2713 0.2337 -0.2059
C25 C 0.3272(5) 0.0247(2) 0.1184(5)
C26 C 0.2992(5) 0.04182(19) 0.1880(5)
C27 C 0.3481(5) 0.02793(19) 0.2814(4)
C28 C 0.4165(5) -0.00479(19) 0.3003(5)
H34 H 0.4467 -0.0146 0.3620
C29 C 0.4413(5) -0.0233(2) 0.2316(5)
C30 C 0.3954(5) -0.0073(2) 0.1407(5)
H35 H 0.4117 -0.0188 0.0930
C31 C 0.5157(6) -0.0596(2) 0.2557(5)
C32 C 0.5459(12) -0.0718(4) 0.1769(8)
H36 H 0.4805 -0.0765 0.1209
H37 H 0.5886 -0.0954 0.1944
H38 H 0.5881 -0.0515 0.1646
C33 C 0.6188(8) -0.0518(3) 0.3436(7)
H39 H 0.5994 -0.0442 0.3949
H40 H 0.6597 -0.0311 0.3308
H41 H 0.6627 -0.0751 0.3609
C34 C 0.4527(9) -0.0928(3) 0.2789(11)
H42 H 0.4335 -0.0849 0.3300
H43 H 0.4980 -0.1158 0.2973
H44 H 0.3872 -0.0986 0.2238
C35 C -0.0538(11) 0.0509(4) -0.0276(8)
H45 H -0.0435 0.0282 -0.0609
H46 H -0.0876 0.0419 0.0139
C36 C -0.1248(9) 0.0745(5) -0.0919(9)
H47 H -0.1923 0.0607 -0.1255
H48 H -0.0950 0.0829 -0.1361
H49 H -0.1386 0.0969 -0.0607
C37 C 0.0954(9) 0.1454(3) 0.1220(9)
H50 H 0.0878 0.1395 0.0580
H51 H 0.1707 0.1533 0.1589
C38 C 0.0211(11) 0.1776(4) 0.1194(10)
H52 H 0.0386 0.2003 0.0915
H53 H 0.0294 0.1836 0.1829
H54 H -0.0533 0.1699 0.0821
C39 C 0.4361(6) 0.0855(2) 0.4140(5)
C40 C 0.4158(6) 0.1254(2) 0.4094(5)
C41 C 0.5008(6) 0.1519(2) 0.4314(5)
C42 C 0.6071(6) 0.1378(2) 0.4667(5)
H55 H 0.6643 0.1558 0.4848
C43 C 0.6321(6) 0.0988(2) 0.4764(5)
C44 C 0.5444(6) 0.0728(2) 0.4487(5)
H56 H 0.5587 0.0461 0.4535
C45 C 0.7524(6) 0.0837(3) 0.5256(6)
C46 C 0.7670(8) 0.0476(3) 0.4723(9)
H57 H 0.7533 0.0547 0.4081
H58 H 0.7162 0.0276 0.4719
H59 H 0.8406 0.0379 0.5035
C47 C 0.7741(7) 0.0719(3) 0.6266(7)
H60 H 0.7221 0.0523 0.6257
H61 H 0.7670 0.0943 0.6611
H62 H 0.8470 0.0615 0.6569
C48 C 0.8343(7) 0.1141(3) 0.5277(7)
H63 H 0.8213 0.1216 0.4639
H64 H 0.9070 0.1037 0.5586
H65 H 0.8270 0.1367 0.5620
C49 C 0.1003(9) 0.1006(3) 0.4068(8)
H66 H 0.1080 0.0949 0.3480
H67 H 0.0417 0.1196 0.3925
C50 C 0.0686(9) 0.0646(4) 0.4408(9)
H68 H 0.0007 0.0551 0.3936
H69 H 0.0596 0.0700 0.4985
H70 H 0.1246 0.0452 0.4528
C51 C 0.1511(12) 0.2211(3) 0.4009(10)
H71 H 0.2230 0.2322 0.4369
H72 H 0.1207 0.2344 0.3400
C52 C 0.0859(17) 0.2288(7) 0.4480(17)
H73 H 0.0816 0.2566 0.4552
H74 H 0.1165 0.2167 0.5095
H75 H 0.0138 0.2185 0.4124
loop_
_geom_bond_atom_site_label_1
_geom_bond_atom_site_label_2
_geom_bond_site_symmetry_1
_geom_bond_site_symmetry_2
S1 C6 1_555 1_555
S2 C13 1_555 1_555
S3 C27 1_555 1_555
S4 C2 1_555 1_555
S5 P1 1_555 1_555
S6 P2 1_555 1_555
S7 P3 1_555 1_555
P1 O2 1_555 1_555
P2 O5 1_555 1_555
P3 O8 1_555 1_555
O1 H1 1_555 1_555
O2 C12 1_555 1_555
O3 P1 1_555 1_555
O4 P1 1_555 1_555
O5 C26 1_555 1_555
O6 P2 1_555 1_555
O7 P2 1_555 1_555
O8 C40 1_555 1_555
O9 P3 1_555 1_555
O10 P3 1_555 1_555
C1 O1 1_555 1_555
C2 C1 1_555 1_555
C3 C2 1_555 1_555
H2 C3 1_555 1_555
C4 C3 1_555 1_555
C5 C4 1_555 1_555
H3 C5 1_555 1_555
C6 C1 1_555 1_555
C7 C4 1_555 1_555
C8 C7 1_555 1_555
H4 C8 1_555 1_555
H5 C8 1_555 1_555
H6 C8 1_555 1_555
C9 C7 1_555 1_555
H7 C9 1_555 1_555
H8 C9 1_555 1_555
H9 C9 1_555 1_555
C10 C7 1_555 1_555
H10 C10 1_555 1_555
H11 C10 1_555 1_555
H12 C10 1_555 1_555
C11 S1 1_555 1_555
C12 C11 1_555 1_555
C13 C12 1_555 1_555
C14 C13 1_555 1_555
H13 C14 1_555 1_555
C15 C14 1_555 1_555
C16 C11 1_555 1_555
H14 C16 1_555 1_555
C17 C15 1_555 1_555
C18 C17 1_555 1_555
H15 C18 1_555 1_555
H16 C18 1_555 1_555
H17 C18 1_555 1_555
C19 C17 1_555 1_555
H18 C19 1_555 1_555
H19 C19 1_555 1_555
H20 C19 1_555 1_555
C20 C17 1_555 1_555
H21 C20 1_555 1_555
H22 C20 1_555 1_555
H23 C20 1_555 1_555
C21 O3 1_555 1_555
H24 C21 1_555 1_555
H25 C21 1_555 1_555
C22 C21 1_555 1_555
H26 C22 1_555 1_555
H27 C22 1_555 1_555
H28 C22 1_555 1_555
C23 O4 1_555 1_555
H29 C23 1_555 1_555
H30 C23 1_555 1_555
C24 C23 1_555 1_555
H31 C24 1_555 1_555
H32 C24 1_555 1_555
H33 C24 1_555 1_555
C25 S2 1_555 1_555
C26 C25 1_555 1_555
C27 C26 1_555 1_555
C28 C27 1_555 1_555
H34 C28 1_555 1_555
C29 C28 1_555 1_555
C30 C25 1_555 1_555
H35 C30 1_555 1_555
C31 C29 1_555 1_555
C32 C31 1_555 1_555
H36 C32 1_555 1_555
H37 C32 1_555 1_555
H38 C32 1_555 1_555
C33 C31 1_555 1_555
H39 C33 1_555 1_555
H40 C33 1_555 1_555
H41 C33 1_555 1_555
C34 C31 1_555 1_555
H42 C34 1_555 1_555
H43 C34 1_555 1_555
H44 C34 1_555 1_555
C35 O6 1_555 1_555
H45 C35 1_555 1_555
H46 C35 1_555 1_555
C36 C35 1_555 1_555
H47 C36 1_555 1_555
H48 C36 1_555 1_555
H49 C36 1_555 1_555
C37 O7 1_555 1_555
H50 C37 1_555 1_555
H51 C37 1_555 1_555
C38 C37 1_555 1_555
H52 C38 1_555 1_555
H53 C38 1_555 1_555
H54 C38 1_555 1_555
C39 S3 1_555 1_555
C40 C39 1_555 1_555
C41 S4 1_555 1_555
C42 C41 1_555 1_555
H55 C42 1_555 1_555
C43 C42 1_555 1_555
C44 C39 1_555 1_555
H56 C44 1_555 1_555
C45 C43 1_555 1_555
C46 C45 1_555 1_555
H57 C46 1_555 1_555
H58 C46 1_555 1_555
H59 C46 1_555 1_555
C47 C45 1_555 1_555
H60 C47 1_555 1_555
H61 C47 1_555 1_555
H62 C47 1_555 1_555
C48 C45 1_555 1_555
H63 C48 1_555 1_555
H64 C48 1_555 1_555
H65 C48 1_555 1_555
C49 O9 1_555 1_555
H66 C49 1_555 1_555
H67 C49 1_555 1_555
C50 C49 1_555 1_555
H68 C50 1_555 1_555
H69 C50 1_555 1_555
H70 C50 1_555 1_555
C51 O10 1_555 1_555
H71 C51 1_555 1_555
H72 C51 1_555 1_555
C52 C51 1_555 1_555
H73 C52 1_555 1_555
H74 C52 1_555 1_555
H75 C52 1_555 1_555
C5 C6 1_555 1_555
C15 C16 1_555 1_555
C29 C30 1_555 1_555
C40 C41 1_555 1_555
C43 C44 1_555 1_555

#END
