
#######################################################################
#
#                 Cambridge Crystallographic Data Centre
#                                CCDC 
#
#######################################################################
#
# If this CIF has been generated from an entry in the Cambridge 
# Structural Database, then it will include bibliographic, chemical, 
# crystal, experimental, refinement or atomic coordinate data resulting 
# from the CCDC's data processing and validation procedures.
#
#######################################################################

data_DORNOO
_chemical_name_common            
'7,9-bis(5-Bromo-2-thienyl)-8H-cyclopenta[a]acenaphthylen-8-one ethanol solvate'
_chemical_formula_moiety         'C23 H10 Br2 O1 S2,C2 H6 O1'
_chemical_name_systematic        
'2,5-bis(5-Bromo-2-thienyl)-3,4-(1,8-naphthylene)cyclopentadienone ethanol solvate'
_symmetry_cell_setting           monoclinic
_symmetry_space_group_name_H-M   'P 2/c'
_symmetry_Int_Tables_number      13
_space_group_name_Hall           '-P 2yc'
loop_
_symmetry_equiv_pos_site_id
_symmetry_equiv_pos_as_xyz
1 x,y,z
2 -x,y,1/2-z
3 -x,-y,-z
4 x,-y,1/2+z
_cell_length_a                   14.231(2)
_cell_length_b                   11.1133(18)
_cell_length_c                   7.2571(12)
_cell_angle_alpha                90
_cell_angle_beta                 99.596(3)
_cell_angle_gamma                90
_cell_volume                     1131.68
_exptl_crystal_colour            green
_exptl_crystal_description       needle
_cell_formula_units_Z            2
loop_
_atom_site_label
_atom_site_type_symbol
_atom_site_fract_x
_atom_site_fract_y
_atom_site_fract_z
Br1 Br 0.86272(15) -0.41279(17) 1.1868(3)
C1 C 0.7959(14) -0.2770(16) 1.091(3)
C2 C 0.8290(15) -0.1610(19) 1.103(3)
H1 H 0.8911 -0.1369 1.1490
C3 C 0.7477(14) -0.0802(17) 1.029(3)
H2 H 0.7516 0.0030 1.0412
C4 C 0.6690(12) -0.1357(15) 0.946(3)
C5 C 0.5799(12) -0.0868(16) 0.840(2)
C6 C 0.5000 -0.165(2) 0.7500
C7 C 0.5486(11) 0.0255(16) 0.814(2)
C8 C 0.5751(12) 0.1513(17) 0.847(2)
C9 C 0.6527(12) 0.2144(15) 0.948(2)
H3 H 0.7033 0.1722 1.0167
C10 C 0.6541(13) 0.3381(15) 0.946(2)
H4 H 0.7077 0.3782 1.0075
C11 C 0.5758(17) 0.4067(17) 0.853(3)
H5 H 0.5762 0.4902 0.8627
C12 C 0.5000 0.349(2) 0.7500
C13 C 0.5000 0.2210(19) 0.7500
O2 O 0.5000 -0.2776(14) 0.7500
S1 S 0.6829(3) -0.2922(4) 0.9670(7)
Br1A Br 0.13728(15) -0.41279(17) 0.3132(3)
C1A C 0.2041(14) -0.2770(16) 0.409(3)
C2A C 0.1710(15) -0.1610(19) 0.397(3)
H1A H 0.1089 -0.1369 0.3510
C3A C 0.2523(14) -0.0802(17) 0.471(3)
H2A H 0.2484 0.0030 0.4588
C4A C 0.3310(12) -0.1357(15) 0.554(3)
C5A C 0.4201(12) -0.0868(16) 0.660(2)
C7A C 0.4514(11) 0.0255(16) 0.686(2)
C8A C 0.4249(12) 0.1513(17) 0.653(2)
C9A C 0.3473(12) 0.2144(15) 0.552(2)
H3A H 0.2967 0.1722 0.4833
C10A C 0.3459(13) 0.3381(15) 0.554(2)
H4A H 0.2923 0.3782 0.4925
C11A C 0.4242(17) 0.4067(17) 0.647(3)
H5A H 0.4238 0.4902 0.6373
S1A S 0.3171(3) -0.2922(4) 0.5330(7)
C14 C 0.9200(16) 0.231(2) 0.208(5)
C15 C 0.9467(19) 0.136(2) 0.086(3)
O1 O 1.0000 0.306(2) 0.2500
O3? O 1.0000 0.089(3) 0.2500
loop_
_geom_bond_atom_site_label_1
_geom_bond_atom_site_label_2
_geom_bond_site_symmetry_1
_geom_bond_site_symmetry_2
Br1 C1 1_555 1_555
C1 C2 1_555 1_555
C2 H1 1_555 1_555
C3 C2 1_555 1_555
H2 C3 1_555 1_555
C4 C3 1_555 1_555
C5 C4 1_555 1_555
C6 C5 1_555 1_555
C7 C5 1_555 1_555
C8 C7 1_555 1_555
C9 C8 1_555 1_555
H3 C9 1_555 1_555
C10 C9 1_555 1_555
H4 C10 1_555 1_555
C11 C10 1_555 1_555
H5 C11 1_555 1_555
C12 C11 1_555 1_555
C13 C8 1_555 1_555
C14 C15 1_555 1_555
O1 C14 1_555 1_555
O2 C6 1_555 1_555
S1 C1 1_555 1_555
Br1A C1A 1_555 1_555
C1A C2A 1_555 1_555
C2A H1A 1_555 1_555
C3A C2A 1_555 1_555
H2A C3A 1_555 1_555
C4A C3A 1_555 1_555
C5A C6 1_555 1_555
C7A C7 1_555 1_555
C8A C13 1_555 1_555
C9A C8A 1_555 1_555
H3A C9A 1_555 1_555
C10A C9A 1_555 1_555
H4A C10A 1_555 1_555
C11A C12 1_555 1_555
H5A C11A 1_555 1_555
S1A C1A 1_555 1_555
C4 S1 1_555 1_555
C12 C13 1_555 1_555
C4A C5A 1_555 1_555
C4A S1A 1_555 1_555
C5A C7A 1_555 1_555
C7A C8A 1_555 1_555
C10A C11A 1_555 1_555

#END
