
#######################################################################
#
#                 Cambridge Crystallographic Data Centre
#                                CCDC 
#
#######################################################################
#
# If this CIF has been generated from an entry in the Cambridge 
# Structural Database, then it will include bibliographic, chemical, 
# crystal, experimental, refinement or atomic coordinate data resulting 
# from the CCDC's data processing and validation procedures.
#
#######################################################################

data_DORNEF
_chemical_formula_moiety         'C6 H2 N9 O8 1-,C1 H8 N5 1+'
_chemical_name_systematic        
'dihydrazinomethaniminium 4-(4-amino-3,5-dinitro-1H-pyrazol-1-yl)-3,5-dinitropyrazol-1-ide'
_symmetry_cell_setting           monoclinic
_symmetry_space_group_name_H-M   'C 2/c'
_symmetry_Int_Tables_number      15
_space_group_name_Hall           '-C 2yn'
loop_
_symmetry_equiv_pos_site_id
_symmetry_equiv_pos_as_xyz
1 x,y,z
2 -x,y,1/2-z
3 1/2+x,1/2+y,z
4 1/2-x,1/2+y,1/2-z
5 -x,-y,-z
6 x,-y,1/2+z
7 1/2-x,1/2-y,-z
8 1/2+x,1/2-y,1/2+z
_cell_length_a                   30.534(7)
_cell_length_b                   9.1162(19)
_cell_length_c                   12.213(3)
_cell_angle_alpha                90
_cell_angle_beta                 107.504(3)
_cell_angle_gamma                90
_cell_volume                     3242.13
_exptl_crystal_colour            yellow
_exptl_crystal_description       Chunk
_cell_formula_units_Z            8
loop_
_atom_site_label
_atom_site_type_symbol
_atom_site_fract_x
_atom_site_fract_y
_atom_site_fract_z
O1 O 0.28775(4) 0.55099(13) 0.49556(10)
O2 O 0.22343(4) 0.65415(13) 0.39841(11)
O3 O 0.23987(4) 0.11013(13) 0.73568(10)
O4 O 0.16515(4) 0.12101(13) 0.69355(11)
O5 O 0.12450(4) 0.12167(13) 0.40617(11)
O6 O 0.05064(4) 0.09391(15) 0.35914(12)
O7 O 0.15368(5) 0.58676(17) 0.71762(12)
O8 O 0.08983(5) 0.59531(15) 0.76194(11)
N1 N 0.17655(4) 0.47826(14) 0.49939(11)
N2 N 0.16503(4) 0.36972(14) 0.55823(11)
N3 N 0.28607(4) 0.31552(16) 0.64329(12)
N4 N 0.04510(4) 0.28466(16) 0.52123(12)
N5 N 0.05234(5) 0.39074(15) 0.60164(12)
N6 N 0.24553(4) 0.56528(14) 0.46907(11)
N7 N 0.20230(4) 0.16810(15) 0.68746(11)
N8 N 0.08649(5) 0.15303(15) 0.41511(12)
N9 N 0.11422(5) 0.54640(16) 0.70688(12)
C1 C 0.22204(5) 0.46917(16) 0.52467(13)
C2 C 0.24202(5) 0.35580(16) 0.60230(13)
C3 C 0.20344(5) 0.29299(17) 0.62204(12)
C4 C 0.08439(5) 0.26395(17) 0.49594(13)
C5 C 0.11899(5) 0.35673(17) 0.55937(13)
C6 C 0.09609(5) 0.43369(17) 0.62378(13)
H1 H 0.3075(8) 0.371(2) 0.6280(18)
H2 H 0.2930(7) 0.242(2) 0.6952(18)
N10 N 0.37682(5) 0.74457(19) 0.63461(14)
N11 N 0.39218(5) 0.70323(17) 0.54145(13)
N12 N 0.45758(5) 0.83880(18) 0.61929(14)
N13 N 0.45082(5) 0.69522(19) 0.45992(13)
N14 N 0.42624(7) 0.5844(2) 0.38715(15)
C7 C 0.43371(5) 0.74489(19) 0.54160(14)
H3 H 0.3723(8) 0.662(2) 0.6719(19)
H4 H 0.3492(9) 0.789(3) 0.605(2)
H5 H 0.3781(8) 0.639(2) 0.4908(19)
H6 H 0.4851(8) 0.868(2) 0.6181(18)
H7 H 0.4455(8) 0.873(3) 0.665(2)
H8 H 0.4793(8) 0.724(2) 0.4583(19)
H9 H 0.4465(10) 0.506(3) 0.390(2)
H10 H 0.4199(11) 0.616(3) 0.315(3)
loop_
_geom_bond_atom_site_label_1
_geom_bond_atom_site_label_2
_geom_bond_site_symmetry_1
_geom_bond_site_symmetry_2
O1 N6 1_555 1_555
O2 N6 1_555 1_555
O3 N7 1_555 1_555
O4 N7 1_555 1_555
O5 N8 1_555 1_555
O6 N8 1_555 1_555
O7 N9 1_555 1_555
O8 N9 1_555 1_555
N1 N2 1_555 1_555
N2 C3 1_555 1_555
N3 C2 1_555 1_555
N4 N5 1_555 1_555
N5 C6 1_555 1_555
N6 C1 1_555 1_555
N7 C3 1_555 1_555
N8 C4 1_555 1_555
N9 C6 1_555 1_555
C1 N1 1_555 1_555
C2 C1 1_555 1_555
C3 C2 1_555 1_555
C4 N4 1_555 1_555
C5 N2 1_555 1_555
C6 C5 1_555 1_555
H1 N3 1_555 1_555
H2 N3 1_555 1_555
N10 N11 1_555 1_555
N11 C7 1_555 1_555
N12 C7 1_555 1_555
N13 N14 1_555 1_555
N14 H9 1_555 1_555
C7 N13 1_555 1_555
H3 N10 1_555 1_555
H4 N10 1_555 1_555
H5 N11 1_555 1_555
H6 N12 1_555 1_555
H7 N12 1_555 1_555
H8 N13 1_555 1_555
H10 N14 1_555 1_555
C4 C5 1_555 1_555

#END
