
#######################################################################
#
#                 Cambridge Crystallographic Data Centre
#                                CCDC 
#
#######################################################################
#
# If this CIF has been generated from an entry in the Cambridge 
# Structural Database, then it will include bibliographic, chemical, 
# crystal, experimental, refinement or atomic coordinate data resulting 
# from the CCDC's data processing and validation procedures.
#
#######################################################################

data_DORPAC
_chemical_formula_moiety         'C56 H84 O12 P4 S8'
_chemical_name_systematic        
5,11,17,23-Tetra-t-butyl-25,26,27,28-tetrakis(diethylthiophosphato)-2,8,14,20-tetrathiacalix(4)arene
_symmetry_cell_setting           monoclinic
_symmetry_space_group_name_H-M   'P 21/c'
_symmetry_Int_Tables_number      14
_space_group_name_Hall           '-P 2ybc'
loop_
_symmetry_equiv_pos_site_id
_symmetry_equiv_pos_as_xyz
1 x,y,z
2 -x,1/2+y,1/2-z
3 -x,-y,-z
4 x,1/2-y,1/2+z
_cell_length_a                   22.6200(6)
_cell_length_b                   13.5391(2)
_cell_length_c                   22.3215(6)
_cell_angle_alpha                90
_cell_angle_beta                 97.492(2)
_cell_angle_gamma                90
_cell_volume                     6777.7
_exptl_crystal_colour            colorless
_exptl_crystal_description       parallelepiped
_chemical_melting_point          'above 260 deg.C'
_cell_formula_units_Z            4
loop_
_atom_site_label
_atom_site_type_symbol
_atom_site_fract_x
_atom_site_fract_y
_atom_site_fract_z
S1 S 0.64897(3) 1.04676(5) 0.48695(3)
S2 S 0.50662(3) 1.08277(5) 0.78256(3)
S3 S 0.81169(3) 1.26931(5) 0.87320(3)
S4 S 0.98879(3) 1.02745(5) 0.62072(3)
S5 S 0.56654(2) 0.92234(4) 0.67407(3)
S6 S 0.72548(2) 1.06415(4) 0.86309(3)
S7 S 0.93558(2) 1.00922(4) 0.76618(3)
S8 S 0.77269(2) 0.92264(4) 0.56541(3)
P1 P 0.65051(3) 1.09746(4) 0.56743(3)
P2 P 0.58051(3) 1.14572(4) 0.77198(3)
P3 P 0.82900(3) 1.22558(4) 0.79562(3)
P4 P 0.90981(3) 1.07958(4) 0.60076(3)
O1 O 0.66977(7) 1.01620(11) 0.61961(7)
O2 O 0.69238(7) 1.18625(12) 0.58787(8)
O3 O 0.59106(7) 1.14444(12) 0.58337(8)
O4 O 0.63310(7) 1.07749(11) 0.75450(7)
O5 O 0.57882(8) 1.21825(12) 0.71663(8)
O6 O 0.61157(8) 1.20573(14) 0.82727(8)
O7 O 0.81872(7) 1.10961(11) 0.78138(7)
O8 O 0.79198(7) 1.27129(12) 0.73791(8)
O9 O 0.89464(7) 1.24299(12) 0.78222(8)
O10 O 0.86214(7) 1.04796(11) 0.64433(7)
O11 O 0.87536(7) 1.05147(12) 0.53780(7)
O12 O 0.90368(7) 1.19497(11) 0.60157(7)
C1 C 0.75345(11) 1.19310(19) 0.57321(14)
H1 H 0.7633 1.1336 0.5524
H2 H 0.7810 1.1989 0.6101
C2 C 0.75940(14) 1.2809(2) 0.53400(17)
H3 H 0.7342 1.2726 0.4963
H4 H 0.8001 1.2872 0.5266
H5 H 0.7477 1.3392 0.5539
C3 C 0.53366(11) 1.09692(19) 0.56703(12)
H6 H 0.5113 1.0979 0.6013
H7 H 0.5396 1.0286 0.5562
C4 C 0.49890(11) 1.1500(2) 0.51439(12)
H8 H 0.4964 1.2189 0.5237
H9 H 0.4595 1.1227 0.5067
H10 H 0.5187 1.1421 0.4792
C5 C 0.54317(12) 1.30834(18) 0.71530(13)
H11 H 0.5662 1.3609 0.7367
H12 H 0.5079 1.2970 0.7348
C6 C 0.52553(13) 1.3371(2) 0.65063(13)
H13 H 0.5606 1.3431 0.6308
H14 H 0.5049 1.3992 0.6489
H15 H 0.4998 1.2873 0.6307
C7 C 0.58311(13) 1.2373(2) 0.87941(12)
H16 H 0.5403 1.2413 0.8680
H17 H 0.5975 1.3023 0.8923
C8 C 0.59687(14) 1.1652(3) 0.93058(14)
H18 H 0.5782 1.1030 0.9195
H19 H 0.5820 1.1904 0.9659
H20 H 0.6392 1.1562 0.9390
C9 C 0.72668(11) 1.26500(19) 0.73120(13)
H21 H 0.7129 1.2601 0.7705
H22 H 0.7129 1.2074 0.7075
C10 C 0.70371(13) 1.3572(2) 0.69977(17)
H23 H 0.7120 1.4125 0.7265
H24 H 0.6614 1.3516 0.6883
H25 H 0.7229 1.3668 0.6643
C11 C 0.93673(11) 1.30954(17) 0.81663(12)
H26 H 0.9152 1.3587 0.8368
H27 H 0.9600 1.3436 0.7895
C12 C 0.97753(12) 1.2527(2) 0.86263(13)
H28 H 0.9548 1.2241 0.8917
H29 H 1.0071 1.2964 0.8828
H30 H 0.9968 1.2013 0.8428
C13 C 0.90247(12) 1.0536(2) 0.48200(11)
H31 H 0.9424 1.0263 0.4888
H32 H 0.9050 1.1211 0.4679
C14 C 0.86409(12) 0.9934(2) 0.43636(11)
H33 H 0.8624 0.9267 0.4505
H34 H 0.8805 0.9941 0.3988
H35 H 0.8246 1.0207 0.4303
C15 C 0.93773(12) 1.25233(17) 0.64981(11)
H36 H 0.9797 1.2520 0.6450
H37 H 0.9332 1.2241 0.6889
C16 C 0.91400(14) 1.35583(19) 0.64564(14)
H38 H 0.9150 1.3807 0.6055
H39 H 0.9381 1.3970 0.6741
H40 H 0.8736 1.3561 0.6547
C17 C 0.70500(10) 0.86428(16) 0.57984(10)
C18 C 0.66307(10) 0.91523(16) 0.60805(10)
C19 C 0.61481(10) 0.86442(16) 0.62681(10)
C20 C 0.60583(10) 0.76554(16) 0.61033(10)
H41 H 0.5735 0.7321 0.6224
C21 C 0.64380(10) 0.71531(16) 0.57628(10)
C22 C 0.69411(10) 0.76614(16) 0.56279(10)
H42 H 0.7212 0.7336 0.5418
C23 C 0.63169(11) 0.60724(17) 0.55732(11)
C24 C 0.62983(15) 0.5448(2) 0.61472(14)
H43 H 0.5973 0.5664 0.6352
H44 H 0.6667 0.5524 0.6410
H45 H 0.6243 0.4765 0.6038
C25 C 0.57271(13) 0.5988(2) 0.51782(16)
H46 H 0.5415 0.6223 0.5395
H47 H 0.5654 0.5310 0.5067
H48 H 0.5736 0.6378 0.4820
C26 C 0.68106(14) 0.5644(2) 0.52448(15)
H49 H 0.6724 0.4964 0.5147
H50 H 0.7185 0.5688 0.5501
H51 H 0.6833 0.6010 0.4880
C27 C 0.61296(9) 0.90249(16) 0.74450(10)
C28 C 0.64262(10) 0.98111(16) 0.77597(10)
C29 C 0.68452(10) 0.96244(17) 0.82629(11)
C30 C 0.69239(10) 0.86505(16) 0.84710(10)
H52 H 0.7199 0.8526 0.8810
C31 C 0.66057(10) 0.78660(17) 0.81897(10)
C32 C 0.62120(10) 0.80701(17) 0.76717(10)
H53 H 0.5998 0.7554 0.7472
C33 C 0.66403(10) 0.68099(17) 0.84499(11)
C34 C 0.66977(12) 0.60461(18) 0.79533(12)
H54 H 0.6747 0.5400 0.8130
H55 H 0.7038 0.6202 0.7755
H56 H 0.6344 0.6058 0.7664
C35 C 0.71668(11) 0.66864(18) 0.89553(11)
H57 H 0.7113 0.7117 0.9285
H58 H 0.7532 0.6851 0.8802
H59 H 0.7184 0.6014 0.9093
C36 C 0.60600(11) 0.6607(2) 0.87154(13)
H60 H 0.6015 0.7084 0.9024
H61 H 0.6074 0.5955 0.8887
H62 H 0.5728 0.6653 0.8401
C37 C 0.79997(10) 1.01681(16) 0.86933(10)
C38 C 0.83706(10) 1.04130(16) 0.82672(10)
C39 C 0.89292(10) 0.99637(16) 0.82815(10)
C40 C 0.91318(10) 0.93508(16) 0.87678(10)
H63 H 0.9505 0.9058 0.8781
C41 C 0.87938(10) 0.91630(16) 0.92340(10)
C42 C 0.82220(10) 0.95706(16) 0.91784(10)
H64 H 0.7981 0.9438 0.9476
C43 C 0.90301(10) 0.85557(17) 0.97948(11)
C44 C 0.95642(13) 0.7911(2) 0.96870(13)
H65 H 0.9676 0.7501 1.0034
H66 H 0.9894 0.8327 0.9621
H67 H 0.9457 0.7503 0.9338
C45 C 0.85452(12) 0.7874(2) 0.99777(13)
H68 H 0.8225 0.8265 1.0094
H69 H 0.8709 0.7469 1.0311
H70 H 0.8397 0.7461 0.9642
C46 C 0.92178(14) 0.9274(2) 1.03169(12)
H71 H 0.8883 0.9673 1.0386
H72 H 0.9533 0.9691 1.0215
H73 H 0.9355 0.8907 1.0676
C47 C 0.89400(10) 0.92118(16) 0.71751(10)
C48 C 0.85957(10) 0.95010(16) 0.66400(10)
C49 C 0.82086(9) 0.88322(16) 0.63146(10)
C50 C 0.82043(10) 0.78559(16) 0.65196(10)
H74 H 0.7953 0.7404 0.6301
C51 C 0.85613(10) 0.75354(16) 0.70371(10)
C52 C 0.89260(10) 0.82344(16) 0.73606(10)
H75 H 0.9167 0.8041 0.7711
C53 C 0.85457(10) 0.64753(16) 0.72750(11)
C54 C 0.80991(11) 0.58273(17) 0.68787(12)
H76 H 0.7707 0.6104 0.6865
H77 H 0.8103 0.5173 0.7045
H78 H 0.8208 0.5798 0.6477
C55 C 0.83658(12) 0.65166(19) 0.79177(12)
H79 H 0.8680 0.6820 0.8186
H80 H 0.8299 0.5859 0.8054
H81 H 0.8007 0.6897 0.7913
C56 C 0.91627(11) 0.60036(18) 0.73014(12)
H82 H 0.9264 0.5934 0.6899
H83 H 0.9159 0.5365 0.7488
H84 H 0.9452 0.6416 0.7534
loop_
_geom_bond_atom_site_label_1
_geom_bond_atom_site_label_2
_geom_bond_site_symmetry_1
_geom_bond_site_symmetry_2
S1 P1 1_555 1_555
S2 P2 1_555 1_555
S3 P3 1_555 1_555
S4 P4 1_555 1_555
S5 C19 1_555 1_555
S6 C29 1_555 1_555
S7 C39 1_555 1_555
S8 C17 1_555 1_555
P1 O1 1_555 1_555
P2 O4 1_555 1_555
P3 O7 1_555 1_555
P4 O10 1_555 1_555
O1 C18 1_555 1_555
O2 P1 1_555 1_555
O3 P1 1_555 1_555
O4 C28 1_555 1_555
O5 P2 1_555 1_555
O6 P2 1_555 1_555
O7 C38 1_555 1_555
O8 P3 1_555 1_555
O9 P3 1_555 1_555
O10 C48 1_555 1_555
O11 P4 1_555 1_555
O12 P4 1_555 1_555
C1 O2 1_555 1_555
H1 C1 1_555 1_555
H2 C1 1_555 1_555
C2 C1 1_555 1_555
H3 C2 1_555 1_555
H4 C2 1_555 1_555
H5 C2 1_555 1_555
C3 O3 1_555 1_555
H6 C3 1_555 1_555
H7 C3 1_555 1_555
C4 C3 1_555 1_555
H8 C4 1_555 1_555
H9 C4 1_555 1_555
H10 C4 1_555 1_555
C5 O5 1_555 1_555
H11 C5 1_555 1_555
H12 C5 1_555 1_555
C6 C5 1_555 1_555
H13 C6 1_555 1_555
H14 C6 1_555 1_555
H15 C6 1_555 1_555
C7 O6 1_555 1_555
H16 C7 1_555 1_555
H17 C7 1_555 1_555
C8 C7 1_555 1_555
H18 C8 1_555 1_555
H19 C8 1_555 1_555
H20 C8 1_555 1_555
C9 O8 1_555 1_555
H21 C9 1_555 1_555
H22 C9 1_555 1_555
C10 C9 1_555 1_555
H23 C10 1_555 1_555
H24 C10 1_555 1_555
H25 C10 1_555 1_555
C11 O9 1_555 1_555
H26 C11 1_555 1_555
H27 C11 1_555 1_555
C12 C11 1_555 1_555
H28 C12 1_555 1_555
H29 C12 1_555 1_555
H30 C12 1_555 1_555
C13 O11 1_555 1_555
H31 C13 1_555 1_555
H32 C13 1_555 1_555
C14 C13 1_555 1_555
H33 C14 1_555 1_555
H34 C14 1_555 1_555
H35 C14 1_555 1_555
C15 O12 1_555 1_555
H36 C15 1_555 1_555
H37 C15 1_555 1_555
C16 C15 1_555 1_555
H38 C16 1_555 1_555
H39 C16 1_555 1_555
H40 C16 1_555 1_555
C17 C18 1_555 1_555
C18 C19 1_555 1_555
C19 C20 1_555 1_555
C20 H41 1_555 1_555
C21 C20 1_555 1_555
C22 C17 1_555 1_555
H42 C22 1_555 1_555
C23 C21 1_555 1_555
C24 C23 1_555 1_555
H43 C24 1_555 1_555
H44 C24 1_555 1_555
H45 C24 1_555 1_555
C25 C23 1_555 1_555
H46 C25 1_555 1_555
H47 C25 1_555 1_555
H48 C25 1_555 1_555
C26 C23 1_555 1_555
H49 C26 1_555 1_555
H50 C26 1_555 1_555
H51 C26 1_555 1_555
C27 S5 1_555 1_555
C28 C27 1_555 1_555
C29 C28 1_555 1_555
C30 C29 1_555 1_555
H52 C30 1_555 1_555
C31 C30 1_555 1_555
C32 C27 1_555 1_555
H53 C32 1_555 1_555
C33 C31 1_555 1_555
C34 C33 1_555 1_555
H54 C34 1_555 1_555
H55 C34 1_555 1_555
H56 C34 1_555 1_555
C35 C33 1_555 1_555
H57 C35 1_555 1_555
H58 C35 1_555 1_555
H59 C35 1_555 1_555
C36 C33 1_555 1_555
H60 C36 1_555 1_555
H61 C36 1_555 1_555
H62 C36 1_555 1_555
C37 S6 1_555 1_555
C38 C37 1_555 1_555
C39 C38 1_555 1_555
C40 C39 1_555 1_555
H63 C40 1_555 1_555
C41 C40 1_555 1_555
C42 C37 1_555 1_555
H64 C42 1_555 1_555
C43 C41 1_555 1_555
C44 C43 1_555 1_555
H65 C44 1_555 1_555
H66 C44 1_555 1_555
H67 C44 1_555 1_555
C45 C43 1_555 1_555
H68 C45 1_555 1_555
H69 C45 1_555 1_555
H70 C45 1_555 1_555
C46 C43 1_555 1_555
H71 C46 1_555 1_555
H72 C46 1_555 1_555
H73 C46 1_555 1_555
C47 S7 1_555 1_555
C48 C47 1_555 1_555
C49 S8 1_555 1_555
C50 C49 1_555 1_555
H74 C50 1_555 1_555
C51 C50 1_555 1_555
C52 C47 1_555 1_555
H75 C52 1_555 1_555
C53 C51 1_555 1_555
C54 C53 1_555 1_555
H76 C54 1_555 1_555
H77 C54 1_555 1_555
H78 C54 1_555 1_555
C55 C53 1_555 1_555
H79 C55 1_555 1_555
H80 C55 1_555 1_555
H81 C55 1_555 1_555
C56 C53 1_555 1_555
H82 C56 1_555 1_555
H83 C56 1_555 1_555
H84 C56 1_555 1_555
C21 C22 1_555 1_555
C31 C32 1_555 1_555
C41 C42 1_555 1_555
C48 C49 1_555 1_555
C51 C52 1_555 1_555

#END
