
#######################################################################
#
#                 Cambridge Crystallographic Data Centre
#                                CCDC 
#
#######################################################################
#
# If this CIF has been generated from an entry in the Cambridge 
# Structural Database, then it will include bibliographic, chemical, 
# crystal, experimental, refinement or atomic coordinate data resulting 
# from the CCDC's data processing and validation procedures.
#
#######################################################################

data_DORPIK
_chemical_formula_moiety         'C60 H86 O12 P2 S2'
_chemical_name_systematic        
5,11,17,23-Tetra-t-butyl-25,27-bis(diethylthiophosphato)-26,28-bis(ethoxycarbonylmethyl)calix(4)arene
_symmetry_cell_setting           monoclinic
_symmetry_space_group_name_H-M   'P 21/n'
_symmetry_Int_Tables_number      14
_space_group_name_Hall           '-P 2yn'
loop_
_symmetry_equiv_pos_site_id
_symmetry_equiv_pos_as_xyz
1 x,y,z
2 1/2-x,1/2+y,1/2-z
3 -x,-y,-z
4 1/2+x,1/2-y,1/2+z
_cell_length_a                   14.259(2)
_cell_length_b                   21.044(3)
_cell_length_c                   21.368(3)
_cell_angle_alpha                90
_cell_angle_beta                 93.161(3)
_cell_angle_gamma                90
_cell_volume                     6402.06
_exptl_crystal_colour            colorless
_exptl_crystal_description       plate
_chemical_melting_point          'above 260 deg.C'
_cell_formula_units_Z            4
loop_
_atom_site_label
_atom_site_type_symbol
_atom_site_fract_x
_atom_site_fract_y
_atom_site_fract_z
P1 P 0.99883(10) 0.48922(7) 0.35751(7)
P2 P 0.78277(10) 0.26126(7) 0.08909(6)
S1 S 1.08269(12) 0.49905(10) 0.29176(9)
S2 S 0.81267(13) 0.17356(7) 0.08243(7)
O1 O 0.9146(2) 0.44355(15) 0.33710(14)
O2 O 1.0375(2) 0.45746(17) 0.41937(18)
O3 O 0.9549(3) 0.55206(16) 0.38298(17)
O4 O 0.7706(2) 0.28901(14) 0.15703(14)
O5 O 0.8580(3) 0.30853(19) 0.0677(2)
O6 O 0.6903(3) 0.28345(19) 0.05343(17)
O7 O 0.7673(3) 0.42759(16) 0.2325(2)
O8 O 0.8579(3) 0.54386(19) 0.1989(2)
O9 O 0.9450(3) 0.48469(19) 0.1368(2)
O10 O 0.8836(3) 0.30124(16) 0.29047(18)
O11 O 1.0949(4) 0.3114(3) 0.2152(3)
O12 O 1.0822(3) 0.2989(3) 0.3167(3)
C1 C 0.8498(4) 0.3773(2) 0.4166(2)
C2 C 0.7784(5) 0.3665(3) 0.4567(2)
H1 H 0.7841 0.3315 0.4848
C3 C 0.6988(5) 0.4044(3) 0.4577(3)
C4 C 0.6914(4) 0.4525(3) 0.4138(3)
H2 H 0.6361 0.4778 0.4120
C5 C 0.7597(4) 0.4664(2) 0.3722(2)
C6 C 0.8415(4) 0.4294(2) 0.3768(2)
C7 C 0.6218(5) 0.3954(4) 0.5040(3)
C8 C 0.6408(7) 0.3397(5) 0.5456(4)
H3 H 0.6458 0.3013 0.5201
H4 H 0.5894 0.3348 0.5738
H5 H 0.6999 0.3465 0.5705
C9 C 0.6166(7) 0.4567(5) 0.5437(4)
H6 H 0.5632 0.4539 0.5705
H7 H 0.6086 0.4935 0.5158
H8 H 0.6748 0.4614 0.5699
C10 C 0.5271(6) 0.3871(5) 0.4689(4)
H9 H 0.5300 0.3510 0.4401
H10 H 0.5114 0.4258 0.4451
H11 H 0.4790 0.3791 0.4990
C11 C 1.1184(5) 0.4829(3) 0.4551(3)
H12 H 1.1521 0.5132 0.4289
H13 H 1.0976 0.5059 0.4922
C12 C 1.1795(6) 0.4325(4) 0.4745(5)
H14 H 1.2319 0.4495 0.5011
H15 H 1.2039 0.4120 0.4376
H16 H 1.1449 0.4013 0.4983
C13 C 0.9477(5) 0.6127(3) 0.3497(3)
H17 H 0.8819 0.6280 0.3483
H18 H 0.9665 0.6072 0.3061
C14 C 1.0093(5) 0.6593(3) 0.3824(3)
H19 H 1.0027 0.7005 0.3613
H20 H 1.0747 0.6449 0.3818
H21 H 0.9917 0.6634 0.4259
C15 C 0.7452(4) 0.5188(2) 0.3239(3)
H22 H 0.7305 0.5588 0.3456
H23 H 0.8044 0.5253 0.3026
C16 C 0.6678(4) 0.5044(2) 0.2758(3)
C17 C 0.5807(4) 0.5346(2) 0.2744(3)
H24 H 0.5707 0.5668 0.3045
C18 C 0.5078(3) 0.5196(2) 0.2309(3)
C19 C 0.5229(4) 0.4698(2) 0.1901(2)
H25 H 0.4731 0.4570 0.1615
C20 C 0.6081(4) 0.4379(2) 0.1896(2)
C21 C 0.6810(4) 0.4569(2) 0.2306(3)
C22 C 0.4144(4) 0.5547(3) 0.2299(3)
C23 C 0.4225(6) 0.6189(4) 0.2580(7)
H26 H 0.4660 0.6175 0.2952
H27 H 0.3606 0.6330 0.2702
H28 H 0.4463 0.6486 0.2274
C24 C 0.3492(6) 0.5194(5) 0.2679(6)
H29 H 0.3825 0.5046 0.3066
H30 H 0.3243 0.4827 0.2441
H31 H 0.2973 0.5472 0.2784
C25 C 0.3725(8) 0.5602(8) 0.1653(4)
H32 H 0.4121 0.5875 0.1406
H33 H 0.3096 0.5788 0.1663
H34 H 0.3680 0.5179 0.1460
C26 C 0.8231(5) 0.4336(3) 0.1809(5)
H35 H 0.7822 0.4279 0.1423
H36 H 0.8693 0.3985 0.1825
C27 C 0.8754(4) 0.4949(3) 0.1754(3)
C28 C 1.0041(6) 0.5388(3) 0.1250(4)
H37 H 1.0229 0.5602 0.1650
H38 H 0.9690 0.5697 0.0978
C29 C 1.0878(7) 0.5174(4) 0.0944(5)
H39 H 1.1275 0.5540 0.0859
H40 H 1.0688 0.4962 0.0548
H41 H 1.1230 0.4875 0.1219
C30 C 0.6156(4) 0.3785(2) 0.1498(2)
H42 H 0.6734 0.3806 0.1262
H43 H 0.5611 0.3761 0.1191
C31 C 0.6184(4) 0.3190(2) 0.1911(2)
C32 C 0.5457(4) 0.3080(3) 0.2298(3)
H44 H 0.4935 0.3361 0.2277
C33 C 0.5457(4) 0.2577(3) 0.2715(2)
C34 C 0.6234(4) 0.2190(2) 0.2745(2)
H45 H 0.6247 0.1843 0.3030
C35 C 0.7003(4) 0.2278(2) 0.2379(2)
C36 C 0.6940(4) 0.2771(2) 0.1946(2)
C37 C 0.4632(5) 0.2460(3) 0.3130(3)
C38 C 0.4092(5) 0.3078(3) 0.3247(3)
H46 H 0.3600 0.2994 0.3540
H47 H 0.3804 0.3235 0.2850
H48 H 0.4527 0.3398 0.3427
C39 C 0.3981(5) 0.1973(4) 0.2806(4)
H49 H 0.3461 0.1879 0.3073
H50 H 0.4332 0.1582 0.2733
H51 H 0.3731 0.2144 0.2404
C40 C 0.4990(6) 0.2205(4) 0.3774(3)
H52 H 0.4455 0.2126 0.4032
H53 H 0.5409 0.2519 0.3981
H54 H 0.5334 0.1807 0.3719
C41 C 0.9492(7) 0.2926(4) 0.0570(5)
H55 H 0.9489 0.2627 0.0213
H56 H 0.9767 0.2701 0.0944
C42 C 1.0081(6) 0.3456(4) 0.0439(4)
H57 H 1.0701 0.3301 0.0333
H58 H 1.0148 0.3731 0.0808
H59 H 0.9798 0.3698 0.0085
C43 C 0.6550(5) 0.2584(4) -0.0069(3)
H60 H 0.6692 0.2124 -0.0083
H61 H 0.5859 0.2632 -0.0101
C44 C 0.6920(8) 0.2875(6) -0.0587(4)
H62 H 0.6567 0.2738 -0.0970
H63 H 0.7581 0.2755 -0.0610
H64 H 0.6873 0.3338 -0.0545
C45 C 0.7862(4) 0.1856(2) 0.2493(2)
H65 H 0.7674 0.1405 0.2443
H66 H 0.8325 0.1953 0.2178
C46 C 0.8310(3) 0.1958(2) 0.3147(2)
C47 C 0.8235(3) 0.1488(2) 0.3599(2)
H67 H 0.7968 0.1091 0.3475
C48 C 0.8531(3) 0.1573(3) 0.4221(2)
C49 C 0.8883(3) 0.2174(3) 0.4387(2)
H68 H 0.9058 0.2255 0.4815
C50 C 0.8984(3) 0.2653(2) 0.3958(2)
C51 C 0.8729(3) 0.2527(2) 0.3333(2)
C52 C 0.8446(4) 0.1043(3) 0.4705(2)
C53 C 0.8904(17) 0.0452(7) 0.4489(8)
H69 H 0.9574 0.0533 0.4444
H70 H 0.8610 0.0321 0.4084
H71 H 0.8831 0.0114 0.4798
C54 C 0.7412(8) 0.0933(9) 0.4763(8)
H72 H 0.7118 0.1326 0.4901
H73 H 0.7321 0.0596 0.5070
H74 H 0.7124 0.0806 0.4355
C55 C 0.8879(16) 0.1198(8) 0.5339(6)
H75 H 0.9535 0.1325 0.5300
H76 H 0.8855 0.0823 0.5609
H77 H 0.8532 0.1547 0.5522
C56 C 0.9483(5) 0.2912(4) 0.2441(3)
H78 H 0.9326 0.3201 0.2085
H79 H 0.9410 0.2471 0.2284
C57 C 1.0469(5) 0.3012(3) 0.2650(4)
C58 C 1.1947(6) 0.3210(8) 0.2280(6)
H80 H 1.2056 0.3581 0.2561
H81 H 1.2230 0.2831 0.2488
C59 C 1.2349(7) 0.3316(9) 0.1710(5)
H82 H 1.3018 0.3412 0.1785
H83 H 1.2035 0.3676 0.1495
H84 H 1.2276 0.2935 0.1448
C60 C 0.9318(4) 0.3313(2) 0.4161(2)
H85 H 0.9631 0.3289 0.4586
H86 H 0.9782 0.3469 0.3869
C61? C 0.7918(16) 0.1261(8) 0.5249(8)
C62? C 0.9435(9) 0.0850(10) 0.4915(10)
C63? C 0.7941(17) 0.0455(7) 0.4454(7)
H87? H 0.8265 0.1607 0.5466
H88? H 0.7846 0.0907 0.5539
H89? H 0.7297 0.1415 0.5099
H90? H 0.9785 0.1224 0.5070
H91? H 0.9747 0.0666 0.4560
H92? H 0.9413 0.0534 0.5251
H93? H 0.8311 0.0256 0.4134
H94? H 0.7323 0.0574 0.4268
H95? H 0.7864 0.0154 0.4797
loop_
_geom_bond_atom_site_label_1
_geom_bond_atom_site_label_2
_geom_bond_site_symmetry_1
_geom_bond_site_symmetry_2
P1 S1 1_555 1_555
P2 S2 1_555 1_555
O1 P1 1_555 1_555
O2 P1 1_555 1_555
O3 P1 1_555 1_555
O4 P2 1_555 1_555
O5 P2 1_555 1_555
O6 P2 1_555 1_555
O7 C21 1_555 1_555
O8 C27 1_555 1_555
O9 C27 1_555 1_555
O10 C51 1_555 1_555
O11 C57 1_555 1_555
O12 C57 1_555 1_555
C1 C2 1_555 1_555
C2 H1 1_555 1_555
C3 C2 1_555 1_555
C4 C3 1_555 1_555
H2 C4 1_555 1_555
C5 C4 1_555 1_555
C6 O1 1_555 1_555
C7 C3 1_555 1_555
C8 C7 1_555 1_555
H3 C8 1_555 1_555
H4 C8 1_555 1_555
H5 C8 1_555 1_555
C9 C7 1_555 1_555
H6 C9 1_555 1_555
H7 C9 1_555 1_555
H8 C9 1_555 1_555
C10 C7 1_555 1_555
H9 C10 1_555 1_555
H10 C10 1_555 1_555
H11 C10 1_555 1_555
C11 O2 1_555 1_555
H12 C11 1_555 1_555
H13 C11 1_555 1_555
C12 C11 1_555 1_555
H14 C12 1_555 1_555
H15 C12 1_555 1_555
H16 C12 1_555 1_555
C13 O3 1_555 1_555
H17 C13 1_555 1_555
H18 C13 1_555 1_555
C14 C13 1_555 1_555
H19 C14 1_555 1_555
H20 C14 1_555 1_555
H21 C14 1_555 1_555
C15 C5 1_555 1_555
H22 C15 1_555 1_555
H23 C15 1_555 1_555
C16 C15 1_555 1_555
C17 C16 1_555 1_555
H24 C17 1_555 1_555
C18 C17 1_555 1_555
C19 C18 1_555 1_555
H25 C19 1_555 1_555
C20 C19 1_555 1_555
C21 C16 1_555 1_555
C22 C18 1_555 1_555
C23 C22 1_555 1_555
H26 C23 1_555 1_555
H27 C23 1_555 1_555
H28 C23 1_555 1_555
C24 C22 1_555 1_555
H29 C24 1_555 1_555
H30 C24 1_555 1_555
H31 C24 1_555 1_555
C25 C22 1_555 1_555
H32 C25 1_555 1_555
H33 C25 1_555 1_555
H34 C25 1_555 1_555
C26 O7 1_555 1_555
H35 C26 1_555 1_555
H36 C26 1_555 1_555
C27 C26 1_555 1_555
C28 O9 1_555 1_555
H37 C28 1_555 1_555
H38 C28 1_555 1_555
C29 C28 1_555 1_555
H39 C29 1_555 1_555
H40 C29 1_555 1_555
H41 C29 1_555 1_555
C30 C20 1_555 1_555
H42 C30 1_555 1_555
H43 C30 1_555 1_555
C31 C30 1_555 1_555
C32 C31 1_555 1_555
H44 C32 1_555 1_555
C33 C32 1_555 1_555
C34 C33 1_555 1_555
H45 C34 1_555 1_555
C35 C34 1_555 1_555
C36 O4 1_555 1_555
C37 C33 1_555 1_555
C38 C37 1_555 1_555
H46 C38 1_555 1_555
H47 C38 1_555 1_555
H48 C38 1_555 1_555
C39 C37 1_555 1_555
H49 C39 1_555 1_555
H50 C39 1_555 1_555
H51 C39 1_555 1_555
C40 C37 1_555 1_555
H52 C40 1_555 1_555
H53 C40 1_555 1_555
H54 C40 1_555 1_555
C41 O5 1_555 1_555
H55 C41 1_555 1_555
H56 C41 1_555 1_555
C42 C41 1_555 1_555
H57 C42 1_555 1_555
H58 C42 1_555 1_555
H59 C42 1_555 1_555
C43 O6 1_555 1_555
H60 C43 1_555 1_555
H61 C43 1_555 1_555
C44 C43 1_555 1_555
H62 C44 1_555 1_555
H63 C44 1_555 1_555
H64 C44 1_555 1_555
C45 C35 1_555 1_555
H65 C45 1_555 1_555
H66 C45 1_555 1_555
C46 C45 1_555 1_555
C47 C46 1_555 1_555
H67 C47 1_555 1_555
C48 C47 1_555 1_555
C49 C48 1_555 1_555
H68 C49 1_555 1_555
C50 C49 1_555 1_555
C51 C46 1_555 1_555
C52 C48 1_555 1_555
C53 C52 1_555 1_555
H69 C53 1_555 1_555
H70 C53 1_555 1_555
H71 C53 1_555 1_555
C54 C52 1_555 1_555
H72 C54 1_555 1_555
H73 C54 1_555 1_555
H74 C54 1_555 1_555
C55 C52 1_555 1_555
H75 C55 1_555 1_555
H76 C55 1_555 1_555
H77 C55 1_555 1_555
C56 O10 1_555 1_555
H78 C56 1_555 1_555
H79 C56 1_555 1_555
C57 C56 1_555 1_555
C58 O11 1_555 1_555
H80 C58 1_555 1_555
H81 C58 1_555 1_555
C59 C58 1_555 1_555
H82 C59 1_555 1_555
H83 C59 1_555 1_555
H84 C59 1_555 1_555
C60 C1 1_555 1_555
H85 C60 1_555 1_555
H86 C60 1_555 1_555
C1 C6 1_555 1_555
C5 C6 1_555 1_555
C20 C21 1_555 1_555
C31 C36 1_555 1_555
C35 C36 1_555 1_555
C50 C51 1_555 1_555
C50 C60 1_555 1_555

#END
