
#######################################################################
#
#                 Cambridge Crystallographic Data Centre
#                                CCDC 
#
#######################################################################
#
# If this CIF has been generated from an entry in the Cambridge 
# Structural Database, then it will include bibliographic, chemical, 
# crystal, experimental, refinement or atomic coordinate data resulting 
# from the CCDC's data processing and validation procedures.
#
#######################################################################

data_DORSUZ
_chemical_formula_moiety         'C31 H24 N4'
_chemical_name_systematic        
2-Amino-4,5,7-tris(p-tolyl)-1H-indole-3,6-dicarbonitrile
_symmetry_cell_setting           monoclinic
_symmetry_space_group_name_H-M   'P 21/n'
_symmetry_Int_Tables_number      14
_space_group_name_Hall           '-P 2yn'
loop_
_symmetry_equiv_pos_site_id
_symmetry_equiv_pos_as_xyz
1 x,y,z
2 1/2-x,1/2+y,1/2-z
3 -x,-y,-z
4 1/2+x,1/2-y,1/2+z
_cell_length_a                   11.3527(11)
_cell_length_b                   13.0321(13)
_cell_length_c                   17.9267(18)
_cell_angle_alpha                90
_cell_angle_beta                 96.3850(10)
_cell_angle_gamma                90
_cell_volume                     2635.79
_exptl_crystal_colour            colorless
_exptl_crystal_description       block
_chemical_melting_point          '269-270 deg.C'
_cell_formula_units_Z            4
loop_
_atom_site_label
_atom_site_type_symbol
_atom_site_fract_x
_atom_site_fract_y
_atom_site_fract_z
C1 C 0.03557(12) 0.51764(10) 0.15898(8)
C2 C 0.05435(12) 0.60548(10) 0.11666(8)
C3 C 0.16643(12) 0.61964(10) 0.08100(8)
C4 C -0.13440(12) 0.67181(11) 0.14876(8)
N1 N -0.20493(11) 0.75917(9) 0.13576(7)
C5 C -0.26346(12) 0.58110(11) 0.23186(9)
C6 C -0.03163(12) 0.68346(11) 0.11190(8)
C7 C 0.12527(12) 0.43283(10) 0.16568(8)
C8 C -0.15520(12) 0.58736(11) 0.19208(8)
C9 C -0.08381(13) 0.42594(12) 0.24659(9)
C10 C -0.06734(12) 0.51069(10) 0.19706(8)
C11 C -0.47166(13) 0.57684(12) 0.30346(9)
C12 C -0.04028(13) 0.78369(11) 0.07791(8)
C13 C 0.18226(14) 0.40330(12) 0.23438(9)
H1 H 0.1613 0.4335 0.2780
C14 C -0.14789(13) 0.82693(11) 0.09360(9)
N2 N -0.19654(13) 0.91713(10) 0.07257(9)
H2 H -0.2648 0.9335 0.0855
H3 H -0.1596 0.9588 0.0461
C15 C 0.04189(14) 0.83922(12) 0.04029(9)
C16 C 0.24396(13) 0.30964(11) 0.10710(10)
H4 H 0.2633 0.2778 0.0636
C17 C 0.30332(14) 0.28128(12) 0.17596(10)
C18 C 0.15668(13) 0.38422(11) 0.10176(9)
H5 H 0.1186 0.4020 0.0549
C19 C 0.27372(14) 0.62820(13) 0.12514(9)
H6 H 0.2758 0.6257 0.1771
N3 N -0.10178(13) 0.36296(11) 0.28844(10)
C20 C -0.38486(16) 0.64813(13) 0.32242(10)
H7 H -0.3954 0.6960 0.3596
C21 C -0.28182(15) 0.65081(12) 0.28776(9)
H8 H -0.2243 0.6999 0.3021
C22 C -0.34992(15) 0.50792(15) 0.21353(11)
H9 H -0.3392 0.4592 0.1770
C23 C 0.37921(16) 0.64368(15) 0.01638(12)
C24 C -0.58495(15) 0.57602(16) 0.34048(11)
H10 H -0.6072 0.5064 0.3495
H11 H -0.6468 0.6088 0.3082
H12 H -0.5727 0.6123 0.3873
C25 C 0.37828(15) 0.64051(15) 0.09301(12)
H13 H 0.4493 0.6468 0.1239
C26 C 0.27024(15) 0.32925(13) 0.23917(10)
H14 H 0.3080 0.3113 0.2861
N4 N 0.10448(15) 0.89074(12) 0.01060(9)
C27 C 0.16706(15) 0.62612(14) 0.00416(9)
H15 H 0.0958 0.6228 -0.0268
C28 C -0.45237(14) 0.50618(15) 0.24881(11)
H16 H -0.5094 0.4563 0.2354
C29 C 0.27136(17) 0.63745(16) -0.02725(11)
H17 H 0.2692 0.6410 -0.0792
C30 C 0.39855(18) 0.20047(16) 0.18172(13)
H18 H 0.4749 0.2328 0.1898
H19 H 0.3930 0.1615 0.1360
H20 H 0.3885 0.1556 0.2230
C31 C 0.4954(2) 0.6536(2) -0.01765(17)
H21 H 0.5587 0.6261 0.0166
H22 H 0.5108 0.7246 -0.0269
H23 H 0.4903 0.6162 -0.0641
loop_
_geom_bond_atom_site_label_1
_geom_bond_atom_site_label_2
_geom_bond_site_symmetry_1
_geom_bond_site_symmetry_2
C1 C2 1_555 1_555
C2 C3 1_555 1_555
C3 C19 1_555 1_555
C4 N1 1_555 1_555
N1 C14 1_555 1_555
C5 C8 1_555 1_555
C6 C2 1_555 1_555
C7 C1 1_555 1_555
C8 C4 1_555 1_555
C9 C10 1_555 1_555
C10 C1 1_555 1_555
C11 C20 1_555 1_555
C12 C6 1_555 1_555
C13 C7 1_555 1_555
H1 C13 1_555 1_555
C14 C12 1_555 1_555
N2 C14 1_555 1_555
H2 N2 1_555 1_555
H3 N2 1_555 1_555
C15 C12 1_555 1_555
C16 H4 1_555 1_555
C17 C16 1_555 1_555
C18 C7 1_555 1_555
H5 C18 1_555 1_555
C19 H6 1_555 1_555
N3 C9 1_555 1_555
C20 H7 1_555 1_555
C21 C5 1_555 1_555
H8 C21 1_555 1_555
C22 C5 1_555 1_555
H9 C22 1_555 1_555
C23 C25 1_555 1_555
C24 C11 1_555 1_555
H10 C24 1_555 1_555
H11 C24 1_555 1_555
H12 C24 1_555 1_555
C25 C19 1_555 1_555
H13 C25 1_555 1_555
C26 C13 1_555 1_555
H14 C26 1_555 1_555
N4 C15 1_555 1_555
C27 C3 1_555 1_555
H15 C27 1_555 1_555
C28 C11 1_555 1_555
H16 C28 1_555 1_555
C29 C23 1_555 1_555
H17 C29 1_555 1_555
C30 C17 1_555 1_555
H18 C30 1_555 1_555
H19 C30 1_555 1_555
H20 C30 1_555 1_555
C31 C23 1_555 1_555
H21 C31 1_555 1_555
H22 C31 1_555 1_555
H23 C31 1_555 1_555
C4 C6 1_555 1_555
C8 C10 1_555 1_555
C16 C18 1_555 1_555
C17 C26 1_555 1_555
C20 C21 1_555 1_555
C22 C28 1_555 1_555
C27 C29 1_555 1_555

#END
