
#######################################################################
#
#                 Cambridge Crystallographic Data Centre
#                                CCDC 
#
#######################################################################
#
# If this CIF has been generated from an entry in the Cambridge 
# Structural Database, then it will include bibliographic, chemical, 
# crystal, experimental, refinement or atomic coordinate data resulting 
# from the CCDC's data processing and validation procedures.
#
#######################################################################

data_DORSIN
_chemical_formula_moiety         'C32 H29 N5'
_chemical_name_systematic        
8,9-bis(4-Isopropylphenyl)-8,9-dihydropyrido(1,2-a)benzimidazole-6,7,9a(7H)-tricarbonitrile
_symmetry_cell_setting           monoclinic
_symmetry_space_group_name_H-M   'C 2/c'
_symmetry_Int_Tables_number      15
_space_group_name_Hall           '-C 2yn'
loop_
_symmetry_equiv_pos_site_id
_symmetry_equiv_pos_as_xyz
1 x,y,z
2 -x,y,1/2-z
3 1/2+x,1/2+y,z
4 1/2-x,1/2+y,1/2-z
5 -x,-y,-z
6 x,-y,1/2+z
7 1/2-x,1/2-y,-z
8 1/2+x,1/2-y,1/2+z
_cell_length_a                   30.75(3)
_cell_length_b                   10.011(12)
_cell_length_c                   21.55(2)
_cell_angle_alpha                90
_cell_angle_beta                 114.819(13)
_cell_angle_gamma                90
_cell_volume                     6021.19
_chemical_melting_point          216-217deg.C
_cell_formula_units_Z            8
loop_
_atom_site_label
_atom_site_type_symbol
_atom_site_fract_x
_atom_site_fract_y
_atom_site_fract_z
N1 N 0.6966(2) 1.0010(6) 0.4158(3)
C1 C 0.7614(2) 0.9428(6) 0.2738(3)
H1 H 0.7702 0.8556 0.2619
N2 N 0.6475(2) 0.9405(7) 0.3062(3)
C2 C 0.7750(2) 0.9397(6) 0.4020(3)
H2 H 0.7673 0.8442 0.3983
C3 C 0.7974(2) 0.9721(6) 0.3498(3)
H3 H 0.8041 1.0682 0.3531
C4 C 0.6911(2) 0.9661(6) 0.3071(3)
C5 C 0.7267(2) 1.0191(6) 0.3776(3)
C6 C 0.7082(2) 0.9348(7) 0.2587(3)
C7 C 0.8084(2) 0.9685(8) 0.4761(4)
C8 C 0.7692(2) 1.0436(7) 0.2279(4)
C9 C 0.6521(3) 0.9615(7) 0.3693(4)
C10 C 0.8141(3) 0.8724(8) 0.5279(3)
H4 H 0.7996 0.7892 0.5153
N3 N 0.7717(3) 1.1198(7) 0.1918(4)
C11 C 0.7346(3) 1.1652(8) 0.3737(4)
N4 N 0.7402(3) 1.2808(7) 0.3702(4)
N5 N 0.6516(3) 0.8318(9) 0.1432(4)
C12 C 0.8454(2) 0.9002(8) 0.3710(4)
C13 C 0.6754(2) 0.8769(8) 0.1953(4)
C14 C 0.7077(4) 1.0334(8) 0.4827(4)
H5 H 0.7379 1.0661 0.5110
C15 C 0.8487(3) 0.7602(9) 0.3724(5)
H6 H 0.8209 0.7092 0.3582
C16 C 0.8331(3) 1.0906(9) 0.4977(4)
H7 H 0.8313 1.1539 0.4651
C17 C 0.6734(4) 1.0166(9) 0.5067(5)
H8 H 0.6805 1.0339 0.5523
C18 C 0.8405(3) 0.9002(10) 0.5953(4)
H9 H 0.8429 0.8359 0.6277
C19 C 0.6156(3) 0.9451(10) 0.3961(5)
H10 H 0.5849 0.9159 0.3682
C20 C 0.8606(3) 1.1188(9) 0.5673(4)
H11 H 0.8765 1.2001 0.5807
C21 C 0.8636(3) 1.0210(10) 0.6170(4)
C22 C 0.6284(4) 0.9742(11) 0.4633(6)
H12 H 0.6055 0.9649 0.4806
C23 C 0.8929(4) 0.6967(13) 0.3946(6)
H13 H 0.8936 0.6039 0.3968
C24 C 0.8880(3) 0.9688(11) 0.3899(7)
H14 H 0.8876 1.0615 0.3868
C25 C 0.8945(6) 1.0520(15) 0.6941(5)
H15 H 0.9232 1.0739 0.6870
C26 C 0.9317(3) 0.9012(18) 0.4137(9)
H16 H 0.9600 0.9505 0.4305
C27 C 0.9345(5) 0.7615(19) 0.4131(12)
C28 C 0.8919(11) 1.167(2) 0.7168(8)
H17 H 0.8680 1.1668 0.7347
H18 H 0.8832 1.2314 0.6805
H19 H 0.9224 1.1909 0.7526
C29 C 0.9156(8) 0.926(2) 0.7323(11)
H20 H 0.9135 0.9273 0.7755
H21 H 0.9486 0.9197 0.7399
H22 H 0.8983 0.8507 0.7061
C30 C 0.9814(5) 0.671(3) 0.4321(19)
H23 H 0.9834 0.6076 0.4678
C31 C 1.0267(5) 0.7644(19) 0.4610(10)
H24 H 1.0194 0.8435 0.4800
H25 H 1.0355 0.7888 0.4248
H26 H 1.0528 0.7179 0.4960
C32 C 0.9852(9) 0.594(6) 0.3731(19)
H27 H 1.0116 0.6276 0.3652
H28 H 0.9561 0.6043 0.3325
H29 H 0.9903 0.5007 0.3848
loop_
_geom_bond_atom_site_label_1
_geom_bond_atom_site_label_2
_geom_bond_site_symmetry_1
_geom_bond_site_symmetry_2
N1 C5 1_555 1_555
C1 H1 1_555 1_555
N2 C4 1_555 1_555
C2 H2 1_555 1_555
C3 C1 1_555 1_555
H3 C3 1_555 1_555
C4 C5 1_555 1_555
C5 C2 1_555 1_555
C6 C1 1_555 1_555
C7 C2 1_555 1_555
C8 C1 1_555 1_555
C9 N1 1_555 1_555
C10 C7 1_555 1_555
H4 C10 1_555 1_555
N3 C8 1_555 1_555
C11 C5 1_555 1_555
N4 C11 1_555 1_555
N5 C13 1_555 1_555
C12 C3 1_555 1_555
C13 C6 1_555 1_555
C14 N1 1_555 1_555
H5 C14 1_555 1_555
C15 C12 1_555 1_555
H6 C15 1_555 1_555
C16 C7 1_555 1_555
H7 C16 1_555 1_555
C17 C14 1_555 1_555
H8 C17 1_555 1_555
C18 C10 1_555 1_555
H9 C18 1_555 1_555
C19 C9 1_555 1_555
H10 C19 1_555 1_555
C20 C16 1_555 1_555
H11 C20 1_555 1_555
C21 C18 1_555 1_555
C22 C17 1_555 1_555
H12 C22 1_555 1_555
C23 C15 1_555 1_555
H13 C23 1_555 1_555
C24 C12 1_555 1_555
H14 C24 1_555 1_555
C25 C21 1_555 1_555
H15 C25 1_555 1_555
C26 C24 1_555 1_555
H16 C26 1_555 1_555
C27 C23 1_555 1_555
C28 C25 1_555 1_555
H17 C28 1_555 1_555
H18 C28 1_555 1_555
H19 C28 1_555 1_555
C29 C25 1_555 1_555
H20 C29 1_555 1_555
H21 C29 1_555 1_555
H22 C29 1_555 1_555
C30 C27 1_555 1_555
H23 C30 1_555 1_555
C31 C30 1_555 1_555
H24 C31 1_555 1_555
H25 C31 1_555 1_555
H26 C31 1_555 1_555
C32 C30 1_555 1_555
H27 C32 1_555 1_555
H28 C32 1_555 1_555
H29 C32 1_555 1_555
N2 C9 1_555 1_555
C2 C3 1_555 1_555
C4 C6 1_555 1_555
C19 C22 1_555 1_555
C20 C21 1_555 1_555
C26 C27 1_555 1_555

#END
