
#######################################################################
#
#                 Cambridge Crystallographic Data Centre
#                                CCDC 
#
#######################################################################
#
# If this CIF has been generated from an entry in the Cambridge 
# Structural Database, then it will include bibliographic, chemical, 
# crystal, experimental, refinement or atomic coordinate data resulting 
# from the CCDC's data processing and validation procedures.
#
#######################################################################

data_DORTOU
_chemical_formula_moiety         'C25 H12 Cl2 N4'
_chemical_name_systematic        
8,9-bis(4-Chlorophenyl)pyrido(1,2-a)benzimidazole-6,7-dicarbonitrile
_symmetry_cell_setting           triclinic
_symmetry_space_group_name_H-M   'P -1'
_symmetry_Int_Tables_number      2
_space_group_name_Hall           '-P 1'
loop_
_symmetry_equiv_pos_site_id
_symmetry_equiv_pos_as_xyz
1 x,y,z
2 -x,-y,-z
_cell_length_a                   10.643(9)
_cell_length_b                   12.128(10)
_cell_length_c                   16.121(14)
_cell_angle_alpha                88.717(11)
_cell_angle_beta                 82.260(11)
_cell_angle_gamma                79.692(11)
_cell_volume                     2028.63
_exptl_crystal_colour            colorless
_exptl_crystal_description       block
_chemical_melting_point          'above 300 deg.C'
_cell_formula_units_Z            4
loop_
_atom_site_label
_atom_site_type_symbol
_atom_site_fract_x
_atom_site_fract_y
_atom_site_fract_z
Cl1 Cl 1.2973(3) 0.4817(2) 0.43874(17)
Cl2 Cl 1.0621(3) 0.8453(2) 0.08793(17)
C1 C 0.6144(8) 0.3428(7) 0.3246(5)
N1 N 0.5634(7) 0.5420(6) 0.1605(4)
C2 C 0.7314(8) 0.3532(7) 0.3489(5)
N2 N 0.4516(7) 0.4121(6) 0.2261(5)
C3 C 0.6368(8) 0.4905(7) 0.2225(5)
C4 C 0.8284(8) 0.5919(7) 0.2057(5)
C5 C 0.7814(9) 0.2846(8) 0.4132(6)
C6 C 0.9253(8) 0.4477(7) 0.3407(5)
C7 C 0.5895(9) 0.6231(8) 0.1020(6)
H1 H 0.6644 0.6536 0.0974
C8 C 0.7540(8) 0.5066(7) 0.2467(5)
C9 C 0.8013(8) 0.4371(7) 0.3106(5)
N3 N 0.4823(8) 0.1912(7) 0.3886(5)
C10 C 0.9382(9) 0.5564(8) 0.1468(6)
H2 H 0.9632 0.4811 0.1324
C11 C 0.5411(9) 0.2573(8) 0.3611(6)
C12 C 1.1478(9) 0.3691(8) 0.3599(6)
H3 H 1.2178 0.3105 0.3531
N4 N 0.8235(8) 0.2243(7) 0.4640(6)
C13 C 0.9411(9) 0.5471(8) 0.3776(6)
H4 H 0.8735 0.6079 0.3823
C14 C 0.9708(9) 0.7461(8) 0.1334(6)
C15 C 0.5664(8) 0.4105(7) 0.2602(6)
C16 C 1.0328(9) 0.3585(8) 0.3321(6)
H5 H 1.0258 0.2917 0.3074
C17 C 0.8603(9) 0.7835(9) 0.1891(6)
H6 H 0.8342 0.8593 0.2015
C18 C 0.4548(9) 0.4909(8) 0.1678(6)
C19 C 1.1571(8) 0.4693(7) 0.3982(6)
C20 C 0.7906(9) 0.7057(8) 0.2251(6)
H7 H 0.7172 0.7292 0.2631
C21 C 0.4956(9) 0.6546(8) 0.0512(6)
H8 H 0.5078 0.7094 0.0111
C22 C 1.0551(9) 0.5573(8) 0.4073(6)
H9 H 1.0624 0.6232 0.4333
C23 C 1.0090(9) 0.6361(8) 0.1103(6)
H10 H 1.0811 0.6145 0.0709
C24 C 0.3605(10) 0.5292(8) 0.1138(6)
H11 H 0.2849 0.4999 0.1179
C25 C 0.3833(10) 0.6098(9) 0.0558(7)
H12 H 0.3236 0.6348 0.0193
Cl3 Cl 0.7666(3) 1.0201(2) 0.05965(17)
Cl4 Cl 0.5317(3) 0.6584(2) 0.41737(17)
C26 C -0.0210(8) 1.1604(7) 0.1754(5)
C27 C 0.1118(8) 1.1509(7) 0.1525(5)
N5 N -0.1921(7) 1.0857(6) 0.2724(4)
N6 N -0.0518(7) 0.9664(6) 0.3428(4)
C28 C 0.0246(8) 1.0177(7) 0.2807(5)
C29 C -0.1103(9) 1.2398(7) 0.1351(6)
N7 N -0.1791(8) 1.3054(7) 0.1041(5)
C30 C 0.1602(9) 1.2225(8) 0.0888(6)
C31 C 0.2494(8) 0.9172(7) 0.2977(5)
C32 C 0.3426(8) 1.0592(7) 0.1615(5)
C33 C 0.3270(9) 0.9502(8) 0.3521(6)
H13 H 0.3232 1.0260 0.3620
C34 C 0.4222(9) 0.7588(8) 0.3698(6)
C35 C 0.5392(9) 1.1358(8) 0.1414(6)
H14 H 0.5831 1.1941 0.1481
C36 C 0.6055(9) 1.0351(8) 0.1013(6)
C37 C 0.2038(8) 1.0710(7) 0.1930(5)
C38 C -0.2800(10) 0.9688(8) 0.3854(6)
H15 H -0.3658 0.9923 0.3779
C39 C 0.4089(9) 1.1472(8) 0.1705(6)
H16 H 0.3653 1.2137 0.1962
C40 C -0.0654(8) 1.0920(7) 0.2404(5)
N8 N 0.1963(9) 1.2835(8) 0.0390(6)
C41 C -0.1795(9) 1.0102(7) 0.3328(6)
C42 C -0.0189(9) 0.8935(8) 0.4073(6)
H17 H 0.0665 0.8705 0.4160
C43 C 0.1573(8) 1.0045(7) 0.2574(5)
C44 C 0.2628(9) 0.8041(7) 0.2791(6)
H18 H 0.2129 0.7814 0.2418
C45 C 0.3496(9) 0.7245(9) 0.3153(6)
H19 H 0.3581 0.6489 0.3025
C46 C 0.5394(9) 0.9485(8) 0.0938(6)
H20 H 0.5827 0.8820 0.0681
C47 C 0.4103(9) 0.9591(8) 0.1236(6)
H21 H 0.3677 0.8995 0.1187
C48 C 0.4102(9) 0.8710(8) 0.3916(6)
H22 H 0.4566 0.8924 0.4316
C49 C -0.1167(10) 0.8572(9) 0.4571(7)
H23 H -0.0970 0.8062 0.4994
C50 C -0.2476(10) 0.8944(8) 0.4468(6)
H24 H -0.3119 0.8677 0.4822
loop_
_geom_bond_atom_site_label_1
_geom_bond_atom_site_label_2
_geom_bond_site_symmetry_1
_geom_bond_site_symmetry_2
Cl1 C19 1_555 1_555
Cl2 C14 1_555 1_555
C1 C2 1_555 1_555
N1 C3 1_555 1_555
C2 C5 1_555 1_555
N2 C15 1_555 1_555
C3 C8 1_555 1_555
C4 C8 1_555 1_555
C5 N4 1_555 1_555
C6 C9 1_555 1_555
C7 N1 1_555 1_555
H1 C7 1_555 1_555
C8 C9 1_555 1_555
C9 C2 1_555 1_555
N3 C11 1_555 1_555
C10 C4 1_555 1_555
H2 C10 1_555 1_555
C11 C1 1_555 1_555
C12 H3 1_555 1_555
C13 C6 1_555 1_555
H4 C13 1_555 1_555
C14 C17 1_555 1_555
C15 C1 1_555 1_555
C16 C6 1_555 1_555
H5 C16 1_555 1_555
C17 H6 1_555 1_555
C18 N1 1_555 1_555
C19 C12 1_555 1_555
C20 C4 1_555 1_555
H7 C20 1_555 1_555
C21 C7 1_555 1_555
H8 C21 1_555 1_555
C22 C13 1_555 1_555
H9 C22 1_555 1_555
C23 C10 1_555 1_555
H10 C23 1_555 1_555
C24 C18 1_555 1_555
H11 C24 1_555 1_555
C25 C21 1_555 1_555
H12 C25 1_555 1_555
Cl3 C36 1_555 1_555
Cl4 C34 1_555 1_555
C26 C27 1_555 1_555
C27 C30 1_555 1_555
N5 C40 1_555 1_555
N6 C28 1_555 1_555
C28 C40 1_555 1_555
C29 C26 1_555 1_555
N7 C29 1_555 1_555
C30 N8 1_555 1_555
C31 C33 1_555 1_555
C32 C37 1_555 1_555
C33 H13 1_555 1_555
C34 C45 1_555 1_555
C35 H14 1_555 1_555
C36 C35 1_555 1_555
C37 C27 1_555 1_555
C38 H15 1_555 1_555
C39 C32 1_555 1_555
H16 C39 1_555 1_555
C40 C26 1_555 1_555
C41 N5 1_555 1_555
C42 N6 1_555 1_555
H17 C42 1_555 1_555
C43 C28 1_555 1_555
C44 C31 1_555 1_555
H18 C44 1_555 1_555
C45 C44 1_555 1_555
H19 C45 1_555 1_555
C46 C36 1_555 1_555
H20 C46 1_555 1_555
C47 C32 1_555 1_555
H21 C47 1_555 1_555
C48 C33 1_555 1_555
H22 C48 1_555 1_555
C49 C42 1_555 1_555
H23 C49 1_555 1_555
C50 C38 1_555 1_555
H24 C50 1_555 1_555
N2 C18 1_555 1_555
C3 C15 1_555 1_555
C12 C16 1_555 1_555
C14 C23 1_555 1_555
C17 C20 1_555 1_555
C19 C22 1_555 1_555
C24 C25 1_555 1_555
N6 C41 1_555 1_555
C31 C43 1_555 1_555
C34 C48 1_555 1_555
C35 C39 1_555 1_555
C37 C43 1_555 1_555
C38 C41 1_555 1_555
C46 C47 1_555 1_555
C49 C50 1_555 1_555

#END
