
#######################################################################
#
#                 Cambridge Crystallographic Data Centre
#                                CCDC 
#
#######################################################################
#
# If this CIF has been generated from an entry in the Cambridge 
# Structural Database, then it will include bibliographic, chemical, 
# crystal, experimental, refinement or atomic coordinate data resulting 
# from the CCDC's data processing and validation procedures.
#
#######################################################################

data_DORTAG
_chemical_formula_moiety         'C27 H18 N4'
_chemical_name_systematic        
8,9-bis(4-Methylphenyl)pyrido(1,2-a)benzimidazole-6,7-dicarbonitrile
_symmetry_cell_setting           triclinic
_symmetry_space_group_name_H-M   'P -1'
_symmetry_Int_Tables_number      2
_space_group_name_Hall           '-P 1'
loop_
_symmetry_equiv_pos_site_id
_symmetry_equiv_pos_as_xyz
1 x,y,z
2 -x,-y,-z
_cell_length_a                   10.454(2)
_cell_length_b                   10.645(2)
_cell_length_c                   10.660(2)
_cell_angle_alpha                83.442(2)
_cell_angle_beta                 64.256(2)
_cell_angle_gamma                85.419(2)
_cell_volume                     1060.93
_exptl_crystal_colour            colorless
_exptl_crystal_description       block
_chemical_melting_point          'above 300 deg.C'
_cell_formula_units_Z            2
loop_
_atom_site_label
_atom_site_type_symbol
_atom_site_fract_x
_atom_site_fract_y
_atom_site_fract_z
N1 N 0.89522(18) 0.16928(16) 0.46520(18)
N2 N 0.82001(16) 0.30084(16) 0.63979(17)
C1 C 0.8570(2) 0.3255(2) 0.2914(2)
C2 C 0.7021(2) 0.57691(18) 0.6261(2)
C3 C 0.8533(2) 0.28479(19) 0.4224(2)
C4 C 0.75206(19) 0.49328(18) 0.5099(2)
C5 C 0.80361(19) 0.36993(19) 0.5268(2)
C6 C 0.8084(2) 0.4494(2) 0.2709(2)
C7 C 0.7548(2) 0.53295(19) 0.3783(2)
C8 C 0.7006(2) 0.66250(19) 0.3508(2)
C9 C 0.5737(2) 0.5581(2) 0.7434(2)
H1 H 0.5123 0.4985 0.7455
C10 C 0.9095(2) 0.2397(2) 0.1836(2)
N3 N 0.8112(2) 0.5130(2) 0.0285(2)
C11 C 0.7995(2) 0.3330(2) 0.7697(2)
H2 H 0.7680 0.4143 0.7959
C12 C 0.8740(2) 0.1799(2) 0.5957(2)
C13 C 0.8098(2) 0.4884(2) 0.1359(3)
N4 N 0.9517(2) 0.1690(2) 0.1005(2)
C14 C 0.5368(2) 0.6277(2) 0.8572(2)
H3 H 0.4501 0.6144 0.9344
C15 C 0.6257(2) 0.7164(2) 0.8588(2)
C16 C 0.5600(2) 0.7008(2) 0.4254(2)
H4 H 0.4974 0.6453 0.4947
C17 C 0.9020(2) 0.0903(2) 0.6897(2)
H5 H 0.9383 0.0100 0.6633
C18 C 0.7885(2) 0.6687(2) 0.6250(2)
H6 H 0.8730 0.6853 0.5460
C19 C 0.7899(2) 0.7489(2) 0.2491(2)
H7 H 0.8846 0.7254 0.1971
C20 C 0.7511(2) 0.7364(2) 0.7403(3)
H8 H 0.8120 0.7968 0.7377
C21 C 0.8256(2) 0.2452(2) 0.8572(2)
H9 H 0.8102 0.2660 0.9452
C22 C 0.8761(2) 0.1217(2) 0.8185(3)
H10 H 0.8915 0.0619 0.8816
C23 C 0.7412(3) 0.8687(2) 0.2235(3)
H11 H 0.8038 0.9248 0.1551
C24 C 0.6012(3) 0.9070(2) 0.2976(3)
C25 C 0.5122(2) 0.8209(2) 0.3976(3)
H12 H 0.4171 0.8442 0.4480
C26 C 0.5885(3) 0.7868(3) 0.9868(3)
H13 H 0.6170 0.7359 1.0513
H14 H 0.4878 0.8040 1.0310
H15 H 0.6372 0.8651 0.9592
C27 C 0.5478(4) 1.0379(3) 0.2673(3)
H16 H 0.6188 1.0981 0.2491
H17 H 0.4623 1.0596 0.3465
H18 H 0.5285 1.0391 0.1870
loop_
_geom_bond_atom_site_label_1
_geom_bond_atom_site_label_2
_geom_bond_site_symmetry_1
_geom_bond_site_symmetry_2
N1 C3 1_555 1_555
N2 C5 1_555 1_555
C1 C3 1_555 1_555
C2 C4 1_555 1_555
C3 C5 1_555 1_555
C4 C5 1_555 1_555
C6 C1 1_555 1_555
C7 C4 1_555 1_555
C8 C7 1_555 1_555
C9 C2 1_555 1_555
H1 C9 1_555 1_555
C10 C1 1_555 1_555
N3 C13 1_555 1_555
C11 N2 1_555 1_555
H2 C11 1_555 1_555
C12 N1 1_555 1_555
C13 C6 1_555 1_555
N4 C10 1_555 1_555
C14 C9 1_555 1_555
H3 C14 1_555 1_555
C15 C14 1_555 1_555
C16 C8 1_555 1_555
H4 C16 1_555 1_555
C17 C12 1_555 1_555
H5 C17 1_555 1_555
C18 C2 1_555 1_555
H6 C18 1_555 1_555
C19 C8 1_555 1_555
H7 C19 1_555 1_555
C20 C15 1_555 1_555
H8 C20 1_555 1_555
C21 C11 1_555 1_555
H9 C21 1_555 1_555
C22 C17 1_555 1_555
H10 C22 1_555 1_555
C23 C19 1_555 1_555
H11 C23 1_555 1_555
C24 C23 1_555 1_555
C25 C16 1_555 1_555
H12 C25 1_555 1_555
C26 C15 1_555 1_555
H13 C26 1_555 1_555
H14 C26 1_555 1_555
H15 C26 1_555 1_555
C27 C24 1_555 1_555
H16 C27 1_555 1_555
H17 C27 1_555 1_555
H18 C27 1_555 1_555
N2 C12 1_555 1_555
C6 C7 1_555 1_555
C18 C20 1_555 1_555
C21 C22 1_555 1_555
C24 C25 1_555 1_555

#END
