
#######################################################################
#
#                 Cambridge Crystallographic Data Centre
#                                CCDC 
#
#######################################################################
#
# If this CIF has been generated from an entry in the Cambridge 
# Structural Database, then it will include bibliographic, chemical, 
# crystal, experimental, refinement or atomic coordinate data resulting 
# from the CCDC's data processing and validation procedures.
#
#######################################################################

data_DORTUA
_chemical_formula_moiety         'C22 H15 N3 O2'
_chemical_name_systematic        
'Methyl 5-amino-4,6-dicyano-2,3-diphenylbenzoate'
_symmetry_cell_setting           triclinic
_symmetry_space_group_name_H-M   'P -1'
_symmetry_Int_Tables_number      2
_space_group_name_Hall           '-P 1'
loop_
_symmetry_equiv_pos_site_id
_symmetry_equiv_pos_as_xyz
1 x,y,z
2 -x,-y,-z
_cell_length_a                   9.5072(15)
_cell_length_b                   10.5280(17)
_cell_length_c                   19.011(3)
_cell_angle_alpha                79.888(2)
_cell_angle_beta                 82.942(2)
_cell_angle_gamma                88.888(2)
_cell_volume                     1859.09
_exptl_crystal_colour            colorless
_exptl_crystal_description       block
_chemical_melting_point          '210-211 deg.C'
_cell_formula_units_Z            4
loop_
_atom_site_label
_atom_site_type_symbol
_atom_site_fract_x
_atom_site_fract_y
_atom_site_fract_z
C1 C 0.57413(19) 0.83131(19) 0.35337(10)
C24 C 0.46589(17) 0.75266(15) 0.47753(9)
C25 C 0.70039(18) 0.86051(16) 0.45307(9)
C26 C 0.70227(18) 0.84475(16) 0.52839(9)
C27 C 0.47105(18) 0.73764(16) 0.55267(9)
N4 N 0.80800(17) 0.91677(17) 0.40627(8)
H16 H 0.8808 0.9444 0.4218
H17 H 0.8041 0.9251 0.3607
C28 C 0.58932(19) 0.78607(16) 0.57635(9)
C29 C 0.34309(18) 0.70331(18) 0.44857(10)
C30 C 0.57792(18) 0.81395(16) 0.42974(9)
N5 N 0.57815(19) 0.8498(2) 0.29179(9)
C31 C 0.8247(2) 0.88998(18) 0.55469(9)
C32 C 0.35554(19) 0.66873(17) 0.60514(9)
N6 N 0.9223(2) 0.92678(19) 0.57385(10)
O3 O 0.5044(2) 0.83872(18) 0.68799(8)
C33 C 0.6027(2) 0.77344(19) 0.65548(10)
O4 O 0.6947(2) 0.7135(2) 0.68349(9)
C34 C 0.3865(2) 0.5560(2) 0.65033(11)
H18 H 0.4789 0.5250 0.6484
C35 C 0.2167(2) 0.71293(19) 0.60795(10)
H19 H 0.1948 0.7884 0.5779
C36 C 0.2636(2) 0.7901(2) 0.40526(12)
H20 H 0.2897 0.8766 0.3932
C37 C 0.1428(3) 0.5330(2) 0.70042(12)
H21 H 0.0714 0.4873 0.7321
C38 C 0.1104(2) 0.6447(2) 0.65560(12)
H22 H 0.0175 0.6744 0.6572
C39 C 0.3046(2) 0.5747(2) 0.46489(12)
H23 H 0.3577 0.5160 0.4932
C40 C 0.2798(3) 0.4891(2) 0.69849(13)
H24 H 0.3013 0.4145 0.7294
C41 C 0.1460(3) 0.7466(4) 0.38043(15)
H25 H 0.0929 0.8047 0.3517
C42 C 0.1864(3) 0.5332(3) 0.43886(18)
H26 H 0.1606 0.4465 0.4494
C43 C 0.1066(3) 0.6216(5) 0.39697(19)
H27 H 0.0262 0.5944 0.3804
C44 C 0.5051(6) 0.8258(4) 0.76613(14)
H28 H 0.5028 0.7361 0.7874
H29 H 0.4234 0.8682 0.7862
H30 H 0.5895 0.8647 0.7758
C2 C 0.03066(18) 0.76781(15) 1.08453(9)
C3 C -0.08846(18) 0.82351(16) 1.11815(9)
C4 C 0.03831(19) 0.75843(16) 1.01081(9)
C5 C -0.0753(2) 0.80717(16) 0.97459(9)
C6 C -0.1953(2) 0.86053(17) 1.00862(9)
C7 C -0.2063(2) 0.86928(16) 1.08263(9)
C8 C 0.14302(18) 0.71497(18) 1.12961(9)
N1 N -0.32230(18) 0.91640(18) 1.11719(9)
H1 H -0.3263 0.9193 1.1623
H2 H -0.3925 0.9436 1.0942
C9 C 0.1601(2) 0.69125(17) 0.97534(9)
C10 C -0.09465(19) 0.83191(18) 1.19325(9)
C11 C -0.3117(2) 0.90685(19) 0.96974(10)
N2 N -0.10388(19) 0.8415(2) 1.25260(9)
N3 N -0.4059(2) 0.9463(2) 0.94036(11)
C12 C -0.0787(3) 0.7968(2) 0.89666(10)
O1 O 0.0281(3) 0.85900(16) 0.85458(8)
O2 O -0.1689(2) 0.7379(2) 0.87681(10)
C13 C 0.1672(2) 0.5843(2) 1.14401(11)
H3 H 0.1158 0.5287 1.1238
C14 C 0.2995(2) 0.7255(2) 0.97632(10)
H4 H 0.3196 0.7958 0.9970
C15 C 0.1341(2) 0.58786(18) 0.94210(10)
H5 H 0.0411 0.5649 0.9397
C16 C 0.2204(2) 0.7975(2) 1.15940(11)
H6 H 0.2038 0.8859 1.1505
C17 C 0.2440(3) 0.5189(2) 0.91265(13)
H7 H 0.2247 0.4499 0.8908
C18 C 0.3817(3) 0.5517(3) 0.91552(14)
H8 H 0.4558 0.5040 0.8966
C19 C 0.4095(2) 0.6558(3) 0.94662(13)
H9 H 0.5028 0.6795 0.9477
C20 C 0.2672(3) 0.5350(3) 1.18815(14)
H10 H 0.2820 0.4464 1.1984
C21 C 0.3448(3) 0.6174(4) 1.21683(15)
H11 H 0.4129 0.5844 1.2462
C22 C 0.3225(3) 0.7479(4) 1.20249(15)
H12 H 0.3762 0.8031 1.2218
C23 C 0.010(6) 0.841(3) 0.7764(12)
H13 H 0.0851 0.8846 0.7433
H14 H -0.0797 0.8760 0.7640
H15 H 0.0125 0.7505 0.7738
C45? C 0.068(4) 0.840(2) 0.7832(11)
H31? H 0.1465 0.8955 0.7619
H32? H -0.0108 0.8611 0.7560
H33? H 0.0942 0.7520 0.7831
loop_
_geom_bond_atom_site_label_1
_geom_bond_atom_site_label_2
_geom_bond_site_symmetry_1
_geom_bond_site_symmetry_2
C1 C30 1_555 1_555
C2 C3 1_555 1_555
C3 C7 1_555 1_555
C4 C2 1_555 1_555
C5 C4 1_555 1_555
C6 C5 1_555 1_555
C7 C6 1_555 1_555
C8 C2 1_555 1_555
N1 C7 1_555 1_555
H1 N1 1_555 1_555
H2 N1 1_555 1_555
C9 C4 1_555 1_555
C10 C3 1_555 1_555
C11 C6 1_555 1_555
N2 C10 1_555 1_555
N3 C11 1_555 1_555
C12 C5 1_555 1_555
O1 C12 1_555 1_555
O2 C12 1_555 1_555
C13 C8 1_555 1_555
H3 C13 1_555 1_555
C14 C9 1_555 1_555
H4 C14 1_555 1_555
C15 C9 1_555 1_555
H5 C15 1_555 1_555
C16 C8 1_555 1_555
H6 C16 1_555 1_555
C17 C15 1_555 1_555
H7 C17 1_555 1_555
C18 C17 1_555 1_555
H8 C18 1_555 1_555
C19 C14 1_555 1_555
H9 C19 1_555 1_555
C20 C13 1_555 1_555
H10 C20 1_555 1_555
C21 C20 1_555 1_555
H11 C21 1_555 1_555
C22 C16 1_555 1_555
H12 C22 1_555 1_555
C23 O1 1_555 1_555
H13 C23 1_555 1_555
H14 C23 1_555 1_555
H15 C23 1_555 1_555
C24 C27 1_555 1_555
C25 C26 1_555 1_555
C26 C28 1_555 1_555
C27 C28 1_555 1_555
N4 C25 1_555 1_555
H16 N4 1_555 1_555
H17 N4 1_555 1_555
C28 C33 1_555 1_555
C29 C24 1_555 1_555
C30 C24 1_555 1_555
N5 C1 1_555 1_555
C31 C26 1_555 1_555
C32 C27 1_555 1_555
N6 C31 1_555 1_555
O3 C33 1_555 1_555
C33 O4 1_555 1_555
C34 C32 1_555 1_555
H18 C34 1_555 1_555
C35 C32 1_555 1_555
H19 C35 1_555 1_555
C36 C29 1_555 1_555
H20 C36 1_555 1_555
C37 H21 1_555 1_555
C38 C35 1_555 1_555
H22 C38 1_555 1_555
C39 C29 1_555 1_555
H23 C39 1_555 1_555
C40 C34 1_555 1_555
H24 C40 1_555 1_555
C41 C36 1_555 1_555
H25 C41 1_555 1_555
C42 C39 1_555 1_555
H26 C42 1_555 1_555
C43 C41 1_555 1_555
H27 C43 1_555 1_555
C44 O3 1_555 1_555
H28 C44 1_555 1_555
H29 C44 1_555 1_555
H30 C44 1_555 1_555
C18 C19 1_555 1_555
C21 C22 1_555 1_555
C25 C30 1_555 1_555
C37 C38 1_555 1_555
C37 C40 1_555 1_555
C42 C43 1_555 1_555

#END
