
#######################################################################
#
#                 Cambridge Crystallographic Data Centre
#                                CCDC 
#
#######################################################################
#
# If this CIF has been generated from an entry in the Cambridge 
# Structural Database, then it will include bibliographic, chemical, 
# crystal, experimental, refinement or atomic coordinate data resulting 
# from the CCDC's data processing and validation procedures.
#
#######################################################################

data_DORTEK
_chemical_formula_moiety         'C28 H21 N5,C1 H2 Cl2'
_chemical_name_systematic        
'8,9-Di-p-tolyl-8,9-dihydropyrido(1,2-a)benzimidazole-6,7,9a(7H)-tricarbonitrile dichloromethane solvate'
_symmetry_cell_setting           monoclinic
_symmetry_space_group_name_H-M   'C 2/c'
_symmetry_Int_Tables_number      15
_space_group_name_Hall           '-C 2yn'
loop_
_symmetry_equiv_pos_site_id
_symmetry_equiv_pos_as_xyz
1 x,y,z
2 -x,y,1/2-z
3 1/2+x,1/2+y,z
4 1/2-x,1/2+y,1/2-z
5 -x,-y,-z
6 x,-y,1/2+z
7 1/2-x,1/2-y,-z
8 1/2+x,1/2-y,1/2+z
_cell_length_a                   26.535(3)
_cell_length_b                   10.0033(13)
_cell_length_c                   21.122(3)
_cell_angle_alpha                90
_cell_angle_beta                 107.909(2)
_cell_angle_gamma                90
_cell_volume                     5334.91
_exptl_crystal_colour            yellow
_exptl_crystal_description       sheet
_cell_formula_units_Z            8
loop_
_atom_site_label
_atom_site_type_symbol
_atom_site_fract_x
_atom_site_fract_y
_atom_site_fract_z
N1 N 0.14177(8) 0.4548(2) 0.09315(10)
C1 C 0.28242(9) 0.4622(2) 0.13229(11)
H1 H 0.2750 0.3661 0.1316
N2 N 0.19791(8) 0.5071(2) 0.03338(9)
C2 C 0.22877(9) 0.5362(2) 0.10322(11)
C3 C 0.23338(9) 0.6834(3) 0.11061(11)
C4 C 0.30439(9) 0.5062(2) 0.20592(11)
H2 H 0.3098 0.6032 0.2063
C5 C 0.20643(9) 0.4654(2) 0.20420(12)
C6 C 0.26427(9) 0.4769(2) 0.24567(11)
H3 H 0.2744 0.3907 0.2681
C7 C 0.18971(9) 0.4855(2) 0.13802(12)
N3 N 0.27373(11) 0.6578(3) 0.33773(13)
C8 C 0.31951(9) 0.4855(2) 0.09158(12)
C9 C 0.35781(9) 0.4424(3) 0.24127(12)
C10 C 0.21129(11) 0.5319(3) -0.02259(12)
H4 H 0.2447 0.5650 -0.0197
C11 C 0.27061(10) 0.5785(3) 0.29835(12)
C12 C 0.14797(10) 0.4669(3) 0.03319(12)
N4 N 0.23470(9) 0.7963(2) 0.11736(11)
N5 N 0.14263(10) 0.3665(3) 0.26213(12)
C13 C 0.32477(11) 0.3861(3) 0.04790(14)
H5 H 0.3092 0.3031 0.0486
C14 C 0.17067(10) 0.4105(3) 0.23585(12)
C15 C 0.34483(10) 0.6064(3) 0.09079(13)
H6 H 0.3431 0.6735 0.1206
C16 C 0.37259(12) 0.6279(3) 0.04604(15)
H7 H 0.3892 0.7097 0.0462
C17 C 0.40231(10) 0.5209(3) 0.26504(14)
H8 H 0.3999 0.6129 0.2584
C18 C 0.17546(12) 0.5077(3) -0.08266(13)
H9 H 0.1843 0.5209 -0.1215
C19 C 0.12467(12) 0.4625(3) -0.08561(14)
H10 H 0.1000 0.4459 -0.1269
C20 C 0.45097(12) 0.4631(4) 0.29899(16)
H11 H 0.4806 0.5175 0.3148
C21 C 0.11076(11) 0.4426(3) -0.03008(14)
H12 H 0.0769 0.4129 -0.0333
C22 C 0.37625(13) 0.5302(4) 0.00077(16)
C23 C 0.36316(12) 0.3060(3) 0.25097(16)
H13 H 0.3338 0.2508 0.2346
C24 C 0.45605(12) 0.3287(4) 0.30949(16)
C25 C 0.35273(13) 0.4086(4) 0.00346(16)
H14 H 0.3557 0.3404 -0.0251
C26 C 0.41201(14) 0.2503(4) 0.28496(18)
H15 H 0.4148 0.1583 0.2911
C27 C 0.40398(19) 0.5564(5) -0.0509(2)
H16 H 0.4413 0.5421 -0.0315
H17 H 0.3977 0.6471 -0.0661
H18 H 0.3904 0.4966 -0.0878
C28 C 0.50921(15) 0.2677(5) 0.3477(2)
H19 H 0.5072 0.2311 0.3889
H20 H 0.5361 0.3356 0.3568
H21 H 0.5179 0.1980 0.3216
Cl1 Cl -0.00223(7) 0.3393(2) 0.16748(9)
Cl2 Cl 0.00254(7) 0.3057(3) 0.03569(10)
C29 C 0.0356(2) 0.3290(8) 0.1167(3)
H22 H 0.0562 0.4105 0.1210
H23 H 0.0604 0.2557 0.1316
loop_
_geom_bond_atom_site_label_1
_geom_bond_atom_site_label_2
_geom_bond_site_symmetry_1
_geom_bond_site_symmetry_2
N1 C7 1_555 1_555
C1 H1 1_555 1_555
N2 C2 1_555 1_555
C2 C1 1_555 1_555
C3 C2 1_555 1_555
C4 C1 1_555 1_555
H2 C4 1_555 1_555
C5 C6 1_555 1_555
C6 C4 1_555 1_555
H3 C6 1_555 1_555
C7 C2 1_555 1_555
N3 C11 1_555 1_555
C8 C1 1_555 1_555
C9 C4 1_555 1_555
C10 N2 1_555 1_555
H4 C10 1_555 1_555
C11 C6 1_555 1_555
C12 N1 1_555 1_555
N4 C3 1_555 1_555
N5 C14 1_555 1_555
C13 C8 1_555 1_555
H5 C13 1_555 1_555
C14 C5 1_555 1_555
C15 C8 1_555 1_555
H6 C15 1_555 1_555
C16 C15 1_555 1_555
H7 C16 1_555 1_555
C17 C9 1_555 1_555
H8 C17 1_555 1_555
C18 C10 1_555 1_555
H9 C18 1_555 1_555
C19 C18 1_555 1_555
H10 C19 1_555 1_555
C20 C17 1_555 1_555
H11 C20 1_555 1_555
C21 C12 1_555 1_555
H12 C21 1_555 1_555
C22 C16 1_555 1_555
C23 C9 1_555 1_555
H13 C23 1_555 1_555
C24 C20 1_555 1_555
C25 C13 1_555 1_555
H14 C25 1_555 1_555
C26 C23 1_555 1_555
H15 C26 1_555 1_555
C27 C22 1_555 1_555
H16 C27 1_555 1_555
H17 C27 1_555 1_555
H18 C27 1_555 1_555
C28 C24 1_555 1_555
H19 C28 1_555 1_555
H20 C28 1_555 1_555
H21 C28 1_555 1_555
Cl1 C29 1_555 1_555
Cl2 C29 1_555 1_555
C29 H22 1_555 1_555
H23 C29 1_555 1_555
N2 C12 1_555 1_555
C5 C7 1_555 1_555
C19 C21 1_555 1_555
C22 C25 1_555 1_555
C24 C26 1_555 1_555

#END
