
#######################################################################
#
#                 Cambridge Crystallographic Data Centre
#                                CCDC 
#
#######################################################################
#
# If this CIF has been generated from an entry in the Cambridge 
# Structural Database, then it will include bibliographic, chemical, 
# crystal, experimental, refinement or atomic coordinate data resulting 
# from the CCDC's data processing and validation procedures.
#
#######################################################################

data_DORVEM
_chemical_formula_moiety         'C28 H20 N4'
_chemical_name_systematic        
4-Methyl-8,9-bis(p-tolyl)pyrido(1,2-a)benzimidazole-6,7-dicarbonitrile
_symmetry_cell_setting           monoclinic
_symmetry_space_group_name_H-M   'P 21/c'
_symmetry_Int_Tables_number      14
_space_group_name_Hall           '-P 2ybc'
loop_
_symmetry_equiv_pos_site_id
_symmetry_equiv_pos_as_xyz
1 x,y,z
2 -x,1/2+y,1/2-z
3 -x,-y,-z
4 x,1/2-y,1/2+z
_cell_length_a                   17.989(2)
_cell_length_b                   6.8454(8)
_cell_length_c                   21.7964(17)
_cell_angle_alpha                90
_cell_angle_beta                 123.917(6)
_cell_angle_gamma                90
_cell_volume                     2227.35
_chemical_melting_point          'above 300 deg.C'
_cell_formula_units_Z            4
loop_
_atom_site_label
_atom_site_type_symbol
_atom_site_fract_x
_atom_site_fract_y
_atom_site_fract_z
N1 N 0.58898(8) 0.27923(16) 0.46856(6)
N2 N 0.48539(8) 0.27075(15) 0.34403(6)
C1 C 0.38966(9) 0.22195(18) 0.47624(7)
C2 C 0.32288(9) 0.21970(18) 0.39968(7)
C3 C 0.57587(10) 0.28474(18) 0.40190(8)
C4 C 0.36389(10) 0.2072(2) 0.52800(8)
C5 C 0.64172(10) 0.3008(2) 0.38560(9)
C6 C 0.48075(9) 0.24371(17) 0.50417(7)
C7 C 0.22821(10) 0.1978(2) 0.37612(7)
C8 C 0.34634(9) 0.23886(18) 0.34831(7)
C9 C 0.43753(9) 0.25659(17) 0.37701(7)
C10 C 0.27655(10) 0.2420(2) 0.26700(7)
C11 C 0.50490(9) 0.26076(17) 0.45361(7)
N3 N 0.34543(10) 0.1973(2) 0.57023(8)
C12 C 0.54781(10) 0.24510(19) 0.58189(8)
C13 C 0.45864(11) 0.2671(2) 0.27091(8)
H1 H 0.3984 0.2551 0.2329
C14 C 0.52132(12) 0.2810(2) 0.25597(9)
H2 H 0.5042 0.2787 0.2071
C15 C 0.61281(12) 0.2992(2) 0.31310(9)
H3 H 0.6546 0.3103 0.3009
C16 C 0.22852(10) 0.0771(2) 0.22951(8)
H4 H 0.2368 -0.0380 0.2553
C17 C 0.26071(11) 0.4121(2) 0.22680(8)
H5 H 0.2910 0.5261 0.2512
N4 N 0.60137(10) 0.2444(2) 0.64396(7)
C18 C 0.20059(12) 0.4137(3) 0.15114(9)
H6 H 0.1915 0.5290 0.1253
C19 C 0.16787(11) 0.0823(3) 0.15345(8)
H7 H 0.1357 -0.0300 0.1291
C20 C 0.73756(12) 0.3163(3) 0.44856(10)
H8 H 0.7573 0.1932 0.4738
H9 H 0.7436 0.4153 0.4822
H10 H 0.7734 0.3503 0.4301
C21 C 0.05263(12) 0.1590(4) 0.33950(9)
C22 C 0.19482(12) 0.0179(3) 0.37773(10)
H11 H 0.2308 -0.0925 0.3912
C23 C 0.15378(12) 0.2492(3) 0.11288(9)
C24 C 0.17243(12) 0.3573(3) 0.35618(10)
H12 H 0.1932 0.4805 0.3547
C25 C 0.10796(13) 0.0008(3) 0.35943(11)
H13 H 0.0867 -0.1219 0.3607
C26 C 0.08623(13) 0.3371(4) 0.33840(11)
H14 H 0.0501 0.4472 0.3254
C27 C -0.04163(14) 0.1400(5) 0.32152(13)
H15 H -0.0419 0.1768 0.3639
H16 H -0.0614 0.0071 0.3085
H17 H -0.0813 0.2241 0.2808
C28 C 0.09047(18) 0.2522(4) 0.02944(11)
H18 H 0.0421 0.3410 0.0153
H19 H 0.0669 0.1234 0.0120
H20 H 0.1223 0.2942 0.0081
loop_
_geom_bond_atom_site_label_1
_geom_bond_atom_site_label_2
_geom_bond_site_symmetry_1
_geom_bond_site_symmetry_2
N1 C3 1_555 1_555
N2 C3 1_555 1_555
C1 C2 1_555 1_555
C2 C7 1_555 1_555
C3 C5 1_555 1_555
C4 C1 1_555 1_555
C5 C15 1_555 1_555
C6 C1 1_555 1_555
C7 C22 1_555 1_555
C8 C2 1_555 1_555
C9 N2 1_555 1_555
C10 C8 1_555 1_555
C11 N1 1_555 1_555
N3 C4 1_555 1_555
C12 C6 1_555 1_555
C13 N2 1_555 1_555
H1 C13 1_555 1_555
C14 C13 1_555 1_555
H2 C14 1_555 1_555
C15 C14 1_555 1_555
H3 C15 1_555 1_555
C16 C10 1_555 1_555
H4 C16 1_555 1_555
C17 C10 1_555 1_555
H5 C17 1_555 1_555
N4 C12 1_555 1_555
C18 C17 1_555 1_555
H6 C18 1_555 1_555
C19 C16 1_555 1_555
H7 C19 1_555 1_555
C20 C5 1_555 1_555
H8 C20 1_555 1_555
H9 C20 1_555 1_555
H10 C20 1_555 1_555
C21 C25 1_555 1_555
C22 H11 1_555 1_555
C23 C18 1_555 1_555
C24 C7 1_555 1_555
H12 C24 1_555 1_555
C25 C22 1_555 1_555
H13 C25 1_555 1_555
C26 C21 1_555 1_555
H14 C26 1_555 1_555
C27 C21 1_555 1_555
H15 C27 1_555 1_555
H16 C27 1_555 1_555
H17 C27 1_555 1_555
C28 C23 1_555 1_555
H18 C28 1_555 1_555
H19 C28 1_555 1_555
H20 C28 1_555 1_555
C6 C11 1_555 1_555
C8 C9 1_555 1_555
C9 C11 1_555 1_555
C19 C23 1_555 1_555
C24 C26 1_555 1_555

#END
