
#######################################################################
#
#                 Cambridge Crystallographic Data Centre
#                                CCDC 
#
#######################################################################
#
# If this CIF has been generated from an entry in the Cambridge 
# Structural Database, then it will include bibliographic, chemical, 
# crystal, experimental, refinement or atomic coordinate data resulting 
# from the CCDC's data processing and validation procedures.
#
#######################################################################

data_DORVUC
_chemical_formula_moiety         'C32 H28 N4'
_chemical_name_systematic        
4-Methyl-8,9-bis(4-isopropylphenyl)pyrido(1,2-a)benzimidazole-6,7-dicarbonitrile
_symmetry_cell_setting           triclinic
_symmetry_space_group_name_H-M   'P -1'
_symmetry_Int_Tables_number      2
_space_group_name_Hall           '-P 1'
loop_
_symmetry_equiv_pos_site_id
_symmetry_equiv_pos_as_xyz
1 x,y,z
2 -x,-y,-z
_cell_length_a                   10.0403(18)
_cell_length_b                   10.9408(19)
_cell_length_c                   12.564(2)
_cell_angle_alpha                90.040(3)
_cell_angle_beta                 104.859(3)
_cell_angle_gamma                99.734(3)
_cell_volume                     1313.38
_chemical_melting_point          'above 300 deg.C'
_cell_formula_units_Z            2
loop_
_atom_site_label
_atom_site_type_symbol
_atom_site_fract_x
_atom_site_fract_y
_atom_site_fract_z
C1 C 0.3795(4) 0.4629(3) 0.5789(3)
C2 C 0.1957(4) 0.5019(3) 0.4173(3)
C3 C 0.2755(4) 0.4212(3) 0.4829(3)
C4 C 0.2216(4) 0.6290(3) 0.4478(3)
N1 N 0.3893(3) 0.7875(3) 0.5909(3)
N2 N 0.5086(3) 0.6513(3) 0.6958(3)
C5 C 0.0820(4) 0.4538(3) 0.3169(3)
C6 C 0.4575(4) 0.3795(4) 0.6454(3)
C7 C 0.3309(4) 0.6689(3) 0.5416(3)
C8 C 0.1351(4) 0.7149(3) 0.3831(3)
C9 C 0.2498(4) 0.2909(4) 0.4518(3)
C10 C 0.4087(4) 0.5896(3) 0.6087(3)
C11 C 0.3635(5) 0.9038(4) 0.5607(4)
H1 H 0.2942 0.9135 0.4977
C12 C 0.1129(4) 0.4163(4) 0.2227(3)
H2 H 0.2047 0.4110 0.2237
C13 C 0.4947(4) 0.7697(4) 0.6830(3)
N3 N 0.5197(4) 0.3142(3) 0.6993(3)
N4 N 0.2356(4) 0.1870(3) 0.4318(3)
C14 C 0.1418(4) 0.7449(4) 0.2774(3)
H3 H 0.2029 0.7118 0.2458
C15 C 0.0443(4) 0.7672(4) 0.4279(3)
H4 H 0.0382 0.7490 0.4989
C16 C -0.1615(4) 0.4244(4) 0.2169(3)
H5 H -0.2539 0.4254 0.2169
C17 C 0.0073(5) 0.3865(4) 0.1265(3)
H6 H 0.0303 0.3616 0.0636
C18 C 0.0590(5) 0.8229(4) 0.2185(4)
H7 H 0.0648 0.8409 0.1473
C19 C 0.5767(4) 0.8752(4) 0.7503(4)
C20 C -0.1308(4) 0.3921(4) 0.1204(3)
C21 C -0.0564(4) 0.4553(4) 0.3136(3)
H8 H -0.0794 0.4774 0.3772
C22 C -0.0370(5) 0.8457(4) 0.3687(4)
H9 H -0.0968 0.8802 0.4007
C23 C 0.4401(5) 1.0034(4) 0.6238(4)
H10 H 0.4231 1.0825 0.6047
C24 C -0.0320(5) 0.8750(4) 0.2620(4)
C25 C 0.5461(5) 0.9884(4) 0.7189(4)
H11 H 0.5970 1.0586 0.7617
C26 C -0.1262(5) 0.9587(5) 0.1961(4)
H12 H -0.0926 0.9787 0.1305
C27 C -0.2428(5) 0.3678(5) 0.0123(4)
H13 H -0.1928 0.3679 -0.0452
C28 C 0.6913(6) 0.8546(5) 0.8460(4)
H14 H 0.7600 0.8203 0.8204
H15 H 0.6539 0.7980 0.8937
H16 H 0.7341 0.9322 0.8857
C29 C -0.2733(5) 0.8903(5) 0.1555(5)
H17 H -0.2750 0.8202 0.1089
H18 H -0.3312 0.9447 0.1145
H19 H -0.3082 0.8621 0.2173
C30 C -0.3259(6) 0.4688(7) -0.0128(5)
H20 H -0.3967 0.4583 0.0270
H21 H -0.3695 0.4661 -0.0905
H22 H -0.2655 0.5475 0.0089
C31 C -0.1139(7) 1.0784(5) 0.2557(6)
H23 H -0.1391 1.0632 0.3239
H24 H -0.1755 1.1276 0.2112
H25 H -0.0192 1.1219 0.2708
C32 C -0.3299(8) 0.2408(7) 0.0045(6)
H26 H -0.3790 0.2345 0.0611
H27 H -0.2703 0.1795 0.0139
H28 H -0.3961 0.2272 -0.0664
loop_
_geom_bond_atom_site_label_1
_geom_bond_atom_site_label_2
_geom_bond_site_symmetry_1
_geom_bond_site_symmetry_2
C1 C3 1_555 1_555
C2 C3 1_555 1_555
C3 C9 1_555 1_555
C4 C2 1_555 1_555
N1 C7 1_555 1_555
N2 C10 1_555 1_555
C5 C2 1_555 1_555
C6 C1 1_555 1_555
C7 C4 1_555 1_555
C8 C4 1_555 1_555
C9 N4 1_555 1_555
C10 C1 1_555 1_555
C11 N1 1_555 1_555
H1 C11 1_555 1_555
C12 C5 1_555 1_555
H2 C12 1_555 1_555
C13 N1 1_555 1_555
N3 C6 1_555 1_555
C14 C8 1_555 1_555
H3 C14 1_555 1_555
C15 C8 1_555 1_555
H4 C15 1_555 1_555
C16 H5 1_555 1_555
C17 C12 1_555 1_555
H6 C17 1_555 1_555
C18 C14 1_555 1_555
H7 C18 1_555 1_555
C19 C13 1_555 1_555
C20 C16 1_555 1_555
C21 C5 1_555 1_555
H8 C21 1_555 1_555
C22 C15 1_555 1_555
H9 C22 1_555 1_555
C23 C11 1_555 1_555
H10 C23 1_555 1_555
C24 C18 1_555 1_555
C25 C19 1_555 1_555
H11 C25 1_555 1_555
C26 C24 1_555 1_555
H12 C26 1_555 1_555
C27 C20 1_555 1_555
H13 C27 1_555 1_555
C28 C19 1_555 1_555
H14 C28 1_555 1_555
H15 C28 1_555 1_555
H16 C28 1_555 1_555
C29 C26 1_555 1_555
H17 C29 1_555 1_555
H18 C29 1_555 1_555
H19 C29 1_555 1_555
C30 C27 1_555 1_555
H20 C30 1_555 1_555
H21 C30 1_555 1_555
H22 C30 1_555 1_555
C31 C26 1_555 1_555
H23 C31 1_555 1_555
H24 C31 1_555 1_555
H25 C31 1_555 1_555
C32 C27 1_555 1_555
H26 C32 1_555 1_555
H27 C32 1_555 1_555
H28 C32 1_555 1_555
N2 C13 1_555 1_555
C7 C10 1_555 1_555
C16 C21 1_555 1_555
C17 C20 1_555 1_555
C22 C24 1_555 1_555
C23 C25 1_555 1_555

#END
