
#######################################################################
#
#                 Cambridge Crystallographic Data Centre
#                                CCDC 
#
#######################################################################
#
# If this CIF has been generated from an entry in the Cambridge 
# Structural Database, then it will include bibliographic, chemical, 
# crystal, experimental, refinement or atomic coordinate data resulting 
# from the CCDC's data processing and validation procedures.
#
#######################################################################

data_DORWUE
_chemical_formula_moiety         'C32 H20 F6 S2'
_chemical_name_systematic        
3-(2-(5-(9H-Fluoren-2-yl)-2-methyl-3-thienyl)-3,3,4,4,5,5-hexafluorocyclopent-1-en-1-yl)-2-methyl-1-benzothiophene
_symmetry_cell_setting           orthorhombic
_symmetry_space_group_name_H-M   'P b c a'
_symmetry_Int_Tables_number      61
_space_group_name_Hall           '-P 2ac 2ab'
loop_
_symmetry_equiv_pos_site_id
_symmetry_equiv_pos_as_xyz
1 x,y,z
2 1/2-x,-y,1/2+z
3 1/2+x,1/2-y,-z
4 -x,1/2+y,1/2-z
5 -x,-y,-z
6 1/2+x,y,1/2-z
7 1/2-x,1/2+y,z
8 x,1/2-y,1/2+z
_cell_length_a                   14.1418(9)
_cell_length_b                   7.7792(5)
_cell_length_c                   47.021(3)
_cell_angle_alpha                90
_cell_angle_beta                 90
_cell_angle_gamma                90
_cell_volume                     5172.87
_exptl_crystal_colour            colorless
_exptl_crystal_description       needle
_cell_formula_units_Z            8
loop_
_atom_site_label
_atom_site_type_symbol
_atom_site_fract_x
_atom_site_fract_y
_atom_site_fract_z
S1 S 0.28132(9) 0.34369(18) 0.36556(3)
S2 S 0.10454(9) 0.65480(17) 0.47129(3)
F1 F -0.0437(2) 0.1208(5) 0.35281(6)
F2 F -0.1075(2) 0.3725(5) 0.35751(6)
F3 F -0.1263(3) -0.0019(4) 0.39690(6)
F4 F -0.23031(19) 0.1899(5) 0.38526(6)
F5 F -0.1304(2) 0.1620(5) 0.44430(6)
F6 F -0.1745(2) 0.4005(4) 0.42457(6)
C1 C 0.1831(4) 0.6254(9) 0.23699(12)
C2 C 0.2679(4) 0.6712(8) 0.21789(12)
C3 C 0.2695(5) 0.7191(8) 0.19035(12)
C4 C 0.3532(5) 0.7546(8) 0.17737(11)
C5 C 0.4384(4) 0.7431(8) 0.19170(11)
C6 C 0.4381(5) 0.6929(8) 0.22088(12)
C7 C 0.3496(4) 0.6559(7) 0.23322(10)
C8 C 0.3284(4) 0.5998(8) 0.26279(12)
C9 C 0.3852(5) 0.5712(9) 0.28551(12)
C10 C 0.3431(4) 0.5180(8) 0.31068(11)
C11 C 0.2453(4) 0.4888(7) 0.31293(10)
C12 C 0.1872(5) 0.5197(8) 0.28983(11)
C13 C 0.2302(5) 0.5787(8) 0.26412(11)
C14 C 0.2057(4) 0.4241(7) 0.33984(10)
C15 C 0.1143(4) 0.4094(7) 0.34883(10)
C16 C 0.1051(4) 0.3372(7) 0.37678(10)
C17 C 0.1903(4) 0.2927(7) 0.38824(10)
C18 C 0.2135(4) 0.2044(7) 0.41581(10)
C19 C 0.0133(4) 0.3005(7) 0.39013(10)
C20 C -0.0681(4) 0.2384(8) 0.37243(11)
C21 C -0.1407(4) 0.1679(8) 0.39350(11)
C22 C -0.1160(4) 0.2630(7) 0.42105(10)
C23 C -0.0150(4) 0.3190(6) 0.41754(10)
C24 C 0.0346(4) 0.4083(7) 0.44118(10)
C25 C 0.0700(4) 0.3264(6) 0.46681(9)
C26 C 0.0717(4) 0.1542(7) 0.47463(10)
C27 C 0.1133(4) 0.1064(7) 0.50004(10)
C28 C 0.1534(4) 0.2294(7) 0.51819(10)
C29 C 0.1524(4) 0.4003(7) 0.51086(10)
C30 C 0.1124(4) 0.4465(7) 0.48544(10)
C31 C 0.0481(4) 0.5809(7) 0.44081(10)
C32 C 0.0168(4) 0.7091(8) 0.41901(11)
H1 H 0.1403 0.7250 0.2395
H2 H 0.1468 0.5275 0.2291
H3 H 0.2120 0.7281 0.1800
H4 H 0.3531 0.7882 0.1580
H5 H 0.4961 0.7682 0.1823
H6 H 0.4951 0.6848 0.2315
H7 H 0.4517 0.5870 0.2843
H8 H 0.3817 0.5007 0.3270
H9 H 0.1208 0.5023 0.2910
H10 H 0.0617 0.4439 0.3376
H11 H 0.2702 0.1334 0.4133
H12 H 0.1603 0.1314 0.4215
H13 H 0.2252 0.2909 0.4306
H14 H 0.0445 0.0697 0.4626
H15 H 0.1147 -0.0115 0.5053
H16 H 0.1815 0.1944 0.5356
H17 H 0.1787 0.4846 0.5231
H18 H 0.0153 0.6544 0.4002
H19 H 0.0611 0.8059 0.4187
H20 H -0.0466 0.7509 0.4238
loop_
_geom_bond_atom_site_label_1
_geom_bond_atom_site_label_2
_geom_bond_site_symmetry_1
_geom_bond_site_symmetry_2
S1 C14 1_555 1_555
S2 C30 1_555 1_555
F1 C20 1_555 1_555
F2 C20 1_555 1_555
F3 C21 1_555 1_555
F4 C21 1_555 1_555
F5 C22 1_555 1_555
F6 C22 1_555 1_555
C1 C2 1_555 1_555
C2 C3 1_555 1_555
C3 C4 1_555 1_555
C4 C5 1_555 1_555
C5 C6 1_555 1_555
C6 C7 1_555 1_555
C7 C2 1_555 1_555
C8 C7 1_555 1_555
C9 C8 1_555 1_555
C10 C9 1_555 1_555
C11 C10 1_555 1_555
C12 C11 1_555 1_555
C13 C1 1_555 1_555
C14 C11 1_555 1_555
C15 C14 1_555 1_555
C16 C15 1_555 1_555
C17 S1 1_555 1_555
C18 C17 1_555 1_555
C19 C16 1_555 1_555
C20 C19 1_555 1_555
C21 C20 1_555 1_555
C22 C21 1_555 1_555
C23 C19 1_555 1_555
C24 C23 1_555 1_555
C25 C24 1_555 1_555
C26 C25 1_555 1_555
C27 C26 1_555 1_555
C28 C27 1_555 1_555
C29 C28 1_555 1_555
C30 C25 1_555 1_555
C31 S2 1_555 1_555
C32 C31 1_555 1_555
H1 C1 1_555 1_555
H2 C1 1_555 1_555
H3 C3 1_555 1_555
H4 C4 1_555 1_555
H5 C5 1_555 1_555
H6 C6 1_555 1_555
H7 C9 1_555 1_555
H8 C10 1_555 1_555
H9 C12 1_555 1_555
H10 C15 1_555 1_555
H11 C18 1_555 1_555
H12 C18 1_555 1_555
H13 C18 1_555 1_555
H14 C26 1_555 1_555
H15 C27 1_555 1_555
H16 C28 1_555 1_555
H17 C29 1_555 1_555
H18 C32 1_555 1_555
H19 C32 1_555 1_555
H20 C32 1_555 1_555
C8 C13 1_555 1_555
C12 C13 1_555 1_555
C16 C17 1_555 1_555
C22 C23 1_555 1_555
C24 C31 1_555 1_555
C29 C30 1_555 1_555

#END
