
#######################################################################
#
#                 Cambridge Crystallographic Data Centre
#                                CCDC 
#
#######################################################################
#
# If this CIF has been generated from an entry in the Cambridge 
# Structural Database, then it will include bibliographic, chemical, 
# crystal, experimental, refinement or atomic coordinate data resulting 
# from the CCDC's data processing and validation procedures.
#
#######################################################################

data_DORXOY
_chemical_formula_moiety         'C31 H31 N3 O4 S1'
_chemical_name_systematic        
"(2R,2'E,4'S,5'E)/(2S,2'E,4'R,5'E)-Methyl 3-ethyl-2'-(1-methoxycarbonylethylidene)-4'-methyl-1'-phenyl-5'-(phenylimino)-3H-spiro[benzo(d)thiazole-2,3'-pyrrolidine]-4'-carboxylate"
_symmetry_cell_setting           triclinic
_symmetry_space_group_name_H-M   'P -1'
_symmetry_Int_Tables_number      2
_space_group_name_Hall           '-P 1'
loop_
_symmetry_equiv_pos_site_id
_symmetry_equiv_pos_as_xyz
1 x,y,z
2 -x,-y,-z
_cell_length_a                   9.3477(12)
_cell_length_b                   10.1370(14)
_cell_length_c                   16.035(2)
_cell_angle_alpha                101.292(2)
_cell_angle_beta                 93.471(3)
_cell_angle_gamma                112.752(4)
_cell_volume                     1358.39
_exptl_crystal_colour            colorless
_exptl_crystal_description       block
_chemical_melting_point          '185-186 deg.C'
_cell_formula_units_Z            2
loop_
_atom_site_label
_atom_site_type_symbol
_atom_site_fract_x
_atom_site_fract_y
_atom_site_fract_z
S1 S 0.53324(4) 0.61184(3) 0.21917(2)
O1 O 0.17575(11) 0.55493(10) 0.33045(6)
O2 O 0.42226(11) 0.70384(10) 0.39458(6)
O3 O 0.66372(11) 0.74027(11) 0.03938(6)
O4 O 0.43865(10) 0.74526(10) 0.07765(6)
N1 N 0.70812(13) 0.86146(12) 0.33059(7)
N2 N 0.48629(12) 0.98039(11) 0.23064(7)
N3 N 0.67931(13) 1.14645(12) 0.17490(7)
C1 C 0.59429(15) 0.81270(13) 0.25304(8)
C2 C 0.75184(15) 0.75596(14) 0.35308(8)
C3 C 0.67351(15) 0.61458(15) 0.29834(9)
C4 C 0.70505(16) 0.49681(15) 0.31011(9)
H1 H 0.6515 0.4024 0.2720
C5 C 0.81713(17) 0.51869(17) 0.37907(10)
H2 H 0.8412 0.4392 0.3879
C6 C 0.89286(17) 0.65661(17) 0.43439(10)
H3 H 0.9676 0.6701 0.4816
C7 C 0.86212(15) 0.77629(15) 0.42245(9)
H4 H 0.9154 0.8703 0.4610
C8 C 0.77091(16) 1.01321(15) 0.38193(9)
H5 H 0.7497 1.0757 0.3469
H6 H 0.8862 1.0490 0.3962
C9 C 0.70245(17) 1.03139(17) 0.46505(9)
H7 H 0.5884 0.9971 0.4516
H8 H 0.7481 1.1355 0.4956
H9 H 0.7268 0.9733 0.5014
C10 C 0.45243(15) 0.85363(13) 0.26210(8)
C11 C 0.31236(15) 0.77509(14) 0.28430(8)
C12 C 0.29479(15) 0.66344(14) 0.33544(8)
C13 C 0.16019(15) 0.78799(15) 0.26038(9)
H10 H 0.1424 0.8534 0.3084
H11 H 0.0733 0.6903 0.2479
H12 H 0.1662 0.8286 0.2094
C14 C 0.41566(19) 0.60031(16) 0.44646(9)
H13 H 0.3182 0.5735 0.4714
H14 H 0.5056 0.6457 0.4927
H15 H 0.4187 0.5117 0.4104
C15 C 0.40607(14) 1.07646(13) 0.24678(8)
C16 C 0.37619(16) 1.11965(14) 0.32895(9)
H16 H 0.4139 1.0910 0.3757
C17 C 0.29016(16) 1.20562(15) 0.34238(9)
H17 H 0.2665 1.2331 0.3982
C18 C 0.23871(17) 1.25143(15) 0.27488(10)
H18 H 0.1802 1.3101 0.2844
C19 C 0.27330(17) 1.21090(15) 0.19314(10)
H19 H 0.2396 1.2432 0.1469
C20 C 0.35662(15) 1.12368(14) 0.17883(9)
H20 H 0.3800 1.0961 0.1229
C21 C 0.67063(15) 0.89060(14) 0.17882(8)
C22 C 0.59355(15) 0.78396(14) 0.09048(8)
C23 C 0.35615(17) 0.63554(15) -0.00235(9)
H21 H 0.3986 0.6736 -0.0513
H22 H 0.2441 0.6146 -0.0074
H23 H 0.3704 0.5448 -0.0020
C24 C 0.84793(15) 0.93373(15) 0.18803(9)
H24 H 0.8868 0.9630 0.1362
H25 H 0.8701 0.8495 0.1955
H26 H 0.9004 1.0163 0.2382
C25 C 0.62011(15) 1.01893(14) 0.18990(8)
C26 C 0.80195(15) 1.19228(14) 0.12540(8)
C27 C 0.79303(17) 1.11249(15) 0.04261(9)
H27 H 0.7074 1.0200 0.0201
C28 C 0.90828(17) 1.16706(15) -0.00723(9)
H28 H 0.9020 1.1113 -0.0634
C29 C 1.03271(16) 1.30287(16) 0.02465(9)
H29 H 1.1116 1.3405 -0.0095
C30 C 1.04114(15) 1.38352(15) 0.10694(9)
H30 H 1.1263 1.4765 0.1290
C31 C 0.92612(15) 1.32939(14) 0.15727(8)
H31 H 0.9321 1.3857 0.2132
loop_
_geom_bond_atom_site_label_1
_geom_bond_atom_site_label_2
_geom_bond_site_symmetry_1
_geom_bond_site_symmetry_2
S1 C1 1_555 1_555
O1 C12 1_555 1_555
O2 C12 1_555 1_555
O3 C22 1_555 1_555
O4 C22 1_555 1_555
N1 C1 1_555 1_555
N2 C10 1_555 1_555
N3 C25 1_555 1_555
C1 C10 1_555 1_555
C2 N1 1_555 1_555
C3 S1 1_555 1_555
C4 C3 1_555 1_555
H1 C4 1_555 1_555
C5 C4 1_555 1_555
H2 C5 1_555 1_555
C6 C5 1_555 1_555
H3 C6 1_555 1_555
C7 C2 1_555 1_555
H4 C7 1_555 1_555
C8 N1 1_555 1_555
H5 C8 1_555 1_555
H6 C8 1_555 1_555
C9 C8 1_555 1_555
H7 C9 1_555 1_555
H8 C9 1_555 1_555
H9 C9 1_555 1_555
C10 C11 1_555 1_555
C11 C12 1_555 1_555
C13 C11 1_555 1_555
H10 C13 1_555 1_555
H11 C13 1_555 1_555
H12 C13 1_555 1_555
C14 O2 1_555 1_555
H13 C14 1_555 1_555
H14 C14 1_555 1_555
H15 C14 1_555 1_555
C15 N2 1_555 1_555
C16 C15 1_555 1_555
H16 C16 1_555 1_555
C17 C16 1_555 1_555
H17 C17 1_555 1_555
C18 C17 1_555 1_555
H18 C18 1_555 1_555
C19 C18 1_555 1_555
H19 C19 1_555 1_555
C20 C15 1_555 1_555
H20 C20 1_555 1_555
C21 C1 1_555 1_555
C22 C21 1_555 1_555
C23 O4 1_555 1_555
H21 C23 1_555 1_555
H22 C23 1_555 1_555
H23 C23 1_555 1_555
C24 C21 1_555 1_555
H24 C24 1_555 1_555
H25 C24 1_555 1_555
H26 C24 1_555 1_555
C25 N2 1_555 1_555
C26 N3 1_555 1_555
C27 C26 1_555 1_555
H27 C27 1_555 1_555
C28 C27 1_555 1_555
H28 C28 1_555 1_555
C29 C28 1_555 1_555
H29 C29 1_555 1_555
C30 C29 1_555 1_555
H30 C30 1_555 1_555
C31 C26 1_555 1_555
H31 C31 1_555 1_555
C2 C3 1_555 1_555
C6 C7 1_555 1_555
C19 C20 1_555 1_555
C21 C25 1_555 1_555
C30 C31 1_555 1_555

#END
