
#######################################################################
#
#                 Cambridge Crystallographic Data Centre
#                                CCDC 
#
#######################################################################
#
# If this CIF has been generated from an entry in the Cambridge 
# Structural Database, then it will include bibliographic, chemical, 
# crystal, experimental, refinement or atomic coordinate data resulting 
# from the CCDC's data processing and validation procedures.
#
#######################################################################

data_DORXEP
_chemical_name_common            
3,3'-(perfluorocyclopent-1-ene-1,2-diyl)bis(5-(9H-fluoren-2-yl)-2-methylthiophene)
_chemical_formula_moiety         'C41 H26 F6 S2'
_chemical_name_systematic        
3,3'-(3,3,4,4,5,5-Hexafluorocyclopent-1-ene-1,2-diyl)bis(5-(9H-fluoren-2-yl)-2-methylthiophene)
_symmetry_cell_setting           triclinic
_symmetry_space_group_name_H-M   'P -1'
_symmetry_Int_Tables_number      2
_space_group_name_Hall           '-P 1'
loop_
_symmetry_equiv_pos_site_id
_symmetry_equiv_pos_as_xyz
1 x,y,z
2 -x,-y,-z
_cell_length_a                   9.97872(18)
_cell_length_b                   11.4122(2)
_cell_length_c                   15.1487(3)
_cell_angle_alpha                70.9671(7)
_cell_angle_beta                 89.4662(7)
_cell_angle_gamma                78.8813(7)
_cell_volume                     1597.53
_exptl_crystal_colour            yellow
_exptl_crystal_description       block
_cell_formula_units_Z            2
_chemical_properties_physical    Photo-sensitive
_exptl_crystal_recrystallization_method 'chloroform/ hexane'
_exptl_crystal_preparation       photochromic
loop_
_atom_site_label
_atom_site_type_symbol
_atom_site_fract_x
_atom_site_fract_y
_atom_site_fract_z
S1 S 0.00546(3) 0.16975(3) 0.68636(2)
S2 S 0.18131(4) 0.50722(3) 0.32830(2)
F1 F 0.51214(9) -0.02320(8) 0.69662(7)
F2 F 0.52397(9) 0.11283(9) 0.76642(6)
F3 F 0.74245(9) 0.04109(10) 0.63863(7)
F4 F 0.67615(9) 0.23050(9) 0.64678(7)
F5 F 0.59657(10) 0.09581(10) 0.48414(7)
F6 F 0.63852(9) 0.28057(10) 0.46953(7)
C1 C 0.03807(14) 0.18366(12) 0.86511(10)
C2 C 0.11603(14) 0.19613(13) 0.93723(10)
C3 C 0.06223(14) 0.18190(13) 1.02395(10)
C4 C 0.12778(15) 0.18783(14) 1.11120(10)
C5 C 0.01439(14) 0.17263(13) 1.17854(10)
C6 C 0.01257(15) 0.17721(13) 1.26892(10)
C7 C -0.10529(16) 0.16100(14) 1.31743(10)
C8 C -0.21847(15) 0.13939(14) 1.27708(10)
C9 C -0.21751(15) 0.13443(13) 1.18630(10)
C10 C -0.10000(15) 0.15261(12) 1.13674(9)
C11 C -0.07026(14) 0.15782(12) 1.04021(10)
C12 C -0.14849(14) 0.14612(13) 0.96945(10)
C13 C -0.09399(14) 0.15888(13) 0.88281(10)
C14 C 0.09770(14) 0.18893(13) 0.77502(9)
C15 C 0.22783(14) 0.19869(13) 0.74926(9)
C16 C 0.25372(14) 0.18942(12) 0.65827(9)
C17 C 0.14066(14) 0.17328(13) 0.61541(9)
C18 C 0.12387(15) 0.15302(14) 0.52353(10)
C19 C 0.38903(13) 0.18537(13) 0.61976(9)
C20 C 0.51254(14) 0.10128(13) 0.68094(10)
C21 C 0.63521(15) 0.13716(14) 0.62397(11)
C22 C 0.57467(15) 0.19015(14) 0.52298(10)
C23 C 0.42495(14) 0.23674(13) 0.53106(9)
C24 C 0.19832(17) 0.48126(14) 0.51789(10)
C25 C 0.24675(15) 0.42929(13) 0.44182(9)
C26 C 0.34390(14) 0.32353(13) 0.44664(9)
C27 C 0.36480(14) 0.30765(13) 0.35721(9)
C28 C 0.28409(14) 0.39883(13) 0.28598(10)
C29 C 0.28396(14) 0.41581(13) 0.18572(9)
C30 C 0.39637(14) 0.35328(13) 0.15095(10)
C31 C 0.39787(14) 0.37078(13) 0.05623(9)
C32 C 0.50657(14) 0.31514(14) 0.00274(10)
C33 C 0.44985(15) 0.37802(13) -0.09758(10)
C34 C 0.50790(16) 0.37037(14) -0.17966(10)
C35 C 0.43708(17) 0.44285(15) -0.26475(10)
C36 C 0.31007(18) 0.51999(14) -0.26744(10)
C37 C 0.25029(17) 0.52755(14) -0.18574(10)
C38 C 0.32195(15) 0.45674(13) -0.10077(9)
C39 C 0.28926(14) 0.45204(12) -0.00534(9)
C40 C 0.17765(15) 0.51492(13) 0.02818(10)
C41 C 0.17515(15) 0.49613(13) 0.12356(10)
H1 H 0.2050 0.2142 0.9266
H2 H 0.1557 0.2700 1.0997
H3 H 0.2087 0.1185 1.1350
H4 H 0.0901 0.1911 1.2971
H5 H -0.1084 0.1648 1.3792
H6 H -0.2975 0.1278 1.3118
H7 H -0.2947 0.1191 1.1588
H8 H -0.2381 0.1296 0.9801
H9 H -0.1473 0.1507 0.8343
H10 H 0.2948 0.2105 0.7880
H11 H 0.0544 0.1017 0.5274
H12 H 0.2112 0.1091 0.5089
H13 H 0.0950 0.2350 0.4743
H14 H 0.1717 0.5736 0.4918
H15 H 0.2722 0.4580 0.5664
H16 H 0.1194 0.4462 0.5453
H17 H 0.4290 0.2398 0.3484
H18 H 0.4708 0.2993 0.1922
H19 H 0.5174 0.2220 0.0220
H20 H 0.5958 0.3365 0.0118
H21 H 0.5942 0.3168 -0.1779
H22 H 0.4761 0.4395 -0.3215
H23 H 0.2633 0.5684 -0.3262
H24 H 0.1629 0.5796 -0.1878
H25 H 0.1042 0.5699 -0.0135
H26 H 0.0988 0.5382 0.1471
loop_
_geom_bond_atom_site_label_1
_geom_bond_atom_site_label_2
_geom_bond_site_symmetry_1
_geom_bond_site_symmetry_2
S1 C14 1_555 1_555
S2 C25 1_555 1_555
F1 C20 1_555 1_555
F2 C20 1_555 1_555
F3 C21 1_555 1_555
F4 C21 1_555 1_555
F5 C22 1_555 1_555
F6 C22 1_555 1_555
C1 C2 1_555 1_555
C2 C3 1_555 1_555
C3 C4 1_555 1_555
C4 C5 1_555 1_555
C5 C6 1_555 1_555
C6 C7 1_555 1_555
C7 C8 1_555 1_555
C8 C9 1_555 1_555
C9 C10 1_555 1_555
C10 C5 1_555 1_555
C11 C3 1_555 1_555
C12 C11 1_555 1_555
C13 C1 1_555 1_555
C14 C1 1_555 1_555
C15 C14 1_555 1_555
C16 C15 1_555 1_555
C17 S1 1_555 1_555
C18 C17 1_555 1_555
C19 C16 1_555 1_555
C20 C19 1_555 1_555
C21 C20 1_555 1_555
C22 C21 1_555 1_555
C23 C19 1_555 1_555
C24 C25 1_555 1_555
C25 C26 1_555 1_555
C26 C23 1_555 1_555
C27 C26 1_555 1_555
C28 S2 1_555 1_555
C29 C28 1_555 1_555
C30 C29 1_555 1_555
C31 C30 1_555 1_555
C32 C31 1_555 1_555
C33 C32 1_555 1_555
C34 C33 1_555 1_555
C35 C34 1_555 1_555
C36 C35 1_555 1_555
C37 C36 1_555 1_555
C38 C33 1_555 1_555
C39 C31 1_555 1_555
C40 C39 1_555 1_555
C41 C29 1_555 1_555
H1 C2 1_555 1_555
H2 C4 1_555 1_555
H3 C4 1_555 1_555
H4 C6 1_555 1_555
H5 C7 1_555 1_555
H6 C8 1_555 1_555
H7 C9 1_555 1_555
H8 C12 1_555 1_555
H9 C13 1_555 1_555
H10 C15 1_555 1_555
H11 C18 1_555 1_555
H12 C18 1_555 1_555
H13 C18 1_555 1_555
H14 C24 1_555 1_555
H15 C24 1_555 1_555
H16 C24 1_555 1_555
H17 C27 1_555 1_555
H18 C30 1_555 1_555
H19 C32 1_555 1_555
H20 C32 1_555 1_555
H21 C34 1_555 1_555
H22 C35 1_555 1_555
H23 C36 1_555 1_555
H24 C37 1_555 1_555
H25 C40 1_555 1_555
H26 C41 1_555 1_555
C10 C11 1_555 1_555
C12 C13 1_555 1_555
C16 C17 1_555 1_555
C22 C23 1_555 1_555
C27 C28 1_555 1_555
C37 C38 1_555 1_555
C38 C39 1_555 1_555
C40 C41 1_555 1_555

#END
