
#######################################################################
#
#                 Cambridge Crystallographic Data Centre
#                                CCDC 
#
#######################################################################
#
# If this CIF has been generated from an entry in the Cambridge 
# Structural Database, then it will include bibliographic, chemical, 
# crystal, experimental, refinement or atomic coordinate data resulting 
# from the CCDC's data processing and validation procedures.
#
#######################################################################

data_DORYEQ
_chemical_formula_moiety         'C6 H2 N9 O8 1-,H4 N1 1+'
_chemical_name_systematic        
'ammonium 4-(4-amino-3,5-dinitro-1H-pyrazol-1-yl)-3,5-dinitropyrazol-1-ide'
_symmetry_cell_setting           triclinic
_symmetry_space_group_name_H-M   'P -1'
_symmetry_Int_Tables_number      2
_space_group_name_Hall           '-P 1'
loop_
_symmetry_equiv_pos_site_id
_symmetry_equiv_pos_as_xyz
1 x,y,z
2 -x,-y,-z
_cell_length_a                   7.124(2)
_cell_length_b                   8.642(3)
_cell_length_c                   10.941(4)
_cell_angle_alpha                100.173(2)
_cell_angle_beta                 106.167(4)
_cell_angle_gamma                102.307(4)
_cell_volume                     611.773
_exptl_crystal_colour            yellow
_exptl_crystal_description       Platelet
_cell_formula_units_Z            2
loop_
_atom_site_label
_atom_site_type_symbol
_atom_site_fract_x
_atom_site_fract_y
_atom_site_fract_z
O1 O 0.6544(2) -0.10368(15) 0.76313(13)
O2 O 0.52105(19) 0.08169(15) 0.83593(12)
O3 O 0.7928(2) 0.40993(16) 0.40469(13)
O4 O 0.71603(19) 0.55357(15) 0.55850(14)
O5 O 0.23695(18) 0.19277(14) 0.63560(13)
O6 O 0.12329(18) 0.34906(15) 0.76092(13)
O7 O 1.0358(2) 0.80670(17) 1.00119(15)
O8 O 0.7811(2) 0.86099(15) 1.05675(13)
N1 N 0.7263(2) 0.04749(16) 0.58212(14)
N2 N 0.7565(2) 0.15343(16) 0.50922(14)
N3 N 0.6279(2) 0.40182(16) 0.76059(14)
N4 N 0.7908(2) 0.52704(17) 0.83387(15)
N5 N 0.3815(2) 0.65132(19) 0.91865(15)
N6 N 0.6114(2) 0.02673(16) 0.76513(14)
N7 N 0.7431(2) 0.42608(17) 0.50407(15)
N8 N 0.2609(2) 0.31560(16) 0.72120(14)
N9 N 0.8562(2) 0.77598(17) 0.99137(15)
C1 C 0.6657(2) 0.11962(19) 0.67780(16)
C2 C 0.6574(2) 0.27687(19) 0.67087(16)
C3 C 0.7157(2) 0.28984(19) 0.56126(16)
C4 C 0.4526(2) 0.4276(2) 0.77987(16)
C5 C 0.5043(2) 0.57853(19) 0.87130(16)
C6 C 0.7169(3) 0.6298(2) 0.89918(17)
H1 H 0.234(3) 0.595(3) 0.899(2)
H2 H 0.447(4) 0.751(3) 0.977(3)
N10 N 0.9775(3) 0.1245(2) 0.32566(17)
H3 H 0.908(4) 0.059(3) 0.243(3)
H4 H 0.890(4) 0.125(3) 0.374(3)
H5 H 1.086(4) 0.084(3) 0.361(3)
H6 H 1.034(3) 0.226(3) 0.318(2)
loop_
_geom_bond_atom_site_label_1
_geom_bond_atom_site_label_2
_geom_bond_site_symmetry_1
_geom_bond_site_symmetry_2
O1 N6 1_555 1_555
O2 N6 1_555 1_555
O3 N7 1_555 1_555
O4 N7 1_555 1_555
O5 N8 1_555 1_555
O6 N8 1_555 1_555
O7 N9 1_555 1_555
O8 N9 1_555 1_555
N1 N2 1_555 1_555
N2 C3 1_555 1_555
N3 N4 1_555 1_555
N4 C6 1_555 1_555
N5 C5 1_555 1_555
N6 C1 1_555 1_555
N7 C3 1_555 1_555
N8 C4 1_555 1_555
N9 C6 1_555 1_555
C1 N1 1_555 1_555
C2 N3 1_555 1_555
C3 C2 1_555 1_555
C4 N3 1_555 1_555
C5 C4 1_555 1_555
C6 C5 1_555 1_555
H1 N5 1_555 1_555
H2 N5 1_555 1_555
N10 H3 1_555 1_555
H4 N10 1_555 1_555
H5 N10 1_555 1_555
H6 N10 1_555 1_555
C1 C2 1_555 1_555

#END
