
#######################################################################
#
#                 Cambridge Crystallographic Data Centre
#                                CCDC 
#
#######################################################################
#
# If this CIF has been generated from an entry in the Cambridge 
# Structural Database, then it will include bibliographic, chemical, 
# crystal, experimental, refinement or atomic coordinate data resulting 
# from the CCDC's data processing and validation procedures.
#
#######################################################################

data_DOSBAP
_chemical_formula_moiety         'C8 H6 F9 N2 1+,N1 O3 1-'
_chemical_name_systematic        
'1-Methyl-5-(nonafluoro-n-butyl)-1H-imidazol-3-ium nitrate'
_symmetry_cell_setting           triclinic
_symmetry_space_group_name_H-M   'P -1'
_symmetry_Int_Tables_number      2
_space_group_name_Hall           '-P 1'
loop_
_symmetry_equiv_pos_site_id
_symmetry_equiv_pos_as_xyz
1 x,y,z
2 -x,-y,-z
_cell_length_a                   5.2386(10)
_cell_length_b                   7.0270(14)
_cell_length_c                   18.630(4)
_cell_angle_alpha                95.04(3)
_cell_angle_beta                 94.36(3)
_cell_angle_gamma                106.48(3)
_cell_volume                     651.417
_exptl_crystal_colour            colorless
_exptl_crystal_description       plate
_cell_formula_units_Z            2
loop_
_atom_site_label
_atom_site_type_symbol
_atom_site_fract_x
_atom_site_fract_y
_atom_site_fract_z
F1 F 0.5534(11) 0.8152(9) 0.2298(2)
F2 F 0.5236(11) 1.1059(8) 0.2748(2)
F3 F 0.0521(11) 0.6451(8) 0.2769(2)
F4 F 0.0706(10) 0.9370(8) 0.3292(2)
F5 F 0.5019(16) 0.6420(11) 0.3517(3)
F6 F 0.5704(12) 0.9441(11) 0.3987(3)
F7 F 0.039(2) 0.5364(16) 0.4139(4)
F8 F 0.3821(17) 0.6701(14) 0.4882(3)
F9 F 0.1037(18) 0.8300(14) 0.4625(3)
N1 N 0.0702(14) 1.0577(10) 0.1664(3)
N2 N -0.0376(15) 0.8289(10) 0.0747(3)
H1 H -0.1153 0.7590 0.0312
C1 C 0.2094(15) 0.9200(12) 0.1773(4)
C2 C 0.1442(17) 0.7766(11) 0.1214(4)
H2 H 0.2089 0.6621 0.1149
C3 C -0.0805(18) 0.9927(12) 0.1022(4)
H3 H -0.2005 1.0570 0.0802
C4 C 0.085(2) 1.2415(12) 0.2096(4)
H4 H -0.0367 1.3037 0.1873
H5 H 0.2642 1.3297 0.2132
H6 H 0.0381 1.2136 0.2572
C5 C 0.3842(16) 0.9194(12) 0.2465(4)
C6 C 0.2156(17) 0.8171(13) 0.3061(4)
C7 C 0.3796(19) 0.7788(15) 0.3734(4)
C8 C 0.223(2) 0.704(2) 0.4347(5)
N3 N 0.4720(15) 0.3379(9) 0.0707(3)
O1 O 0.2724(13) 0.3935(8) 0.0513(3)
O2 O 0.6197(13) 0.4223(9) 0.1255(3)
O3 O 0.5118(14) 0.1949(10) 0.0332(3)
loop_
_geom_bond_atom_site_label_1
_geom_bond_atom_site_label_2
_geom_bond_site_symmetry_1
_geom_bond_site_symmetry_2
F1 C5 1_555 1_555
F2 C5 1_555 1_555
F3 C6 1_555 1_555
F4 C6 1_555 1_555
F5 C7 1_555 1_555
F6 C7 1_555 1_555
F7 C8 1_555 1_555
F8 C8 1_555 1_555
F9 C8 1_555 1_555
N1 C1 1_555 1_555
N2 H1 1_555 1_555
C1 C2 1_555 1_555
C2 N2 1_555 1_555
H2 C2 1_555 1_555
C3 N1 1_555 1_555
H3 C3 1_555 1_555
C4 N1 1_555 1_555
H4 C4 1_555 1_555
H5 C4 1_555 1_555
H6 C4 1_555 1_555
C5 C1 1_555 1_555
C6 C5 1_555 1_555
C7 C6 1_555 1_555
C8 C7 1_555 1_555
N3 O1 1_555 1_555
O2 N3 1_555 1_555
O3 N3 1_555 1_555
N2 C3 1_555 1_555

#END
