
#######################################################################
#
#                 Cambridge Crystallographic Data Centre
#                                CCDC 
#
#######################################################################
#
# If this CIF has been generated from an entry in the Cambridge 
# Structural Database, then it will include bibliographic, chemical, 
# crystal, experimental, refinement or atomic coordinate data resulting 
# from the CCDC's data processing and validation procedures.
#
#######################################################################

data_DOSBIX
_chemical_formula_moiety         'C6 H3 F7 N2'
_chemical_name_systematic        4-(Heptafluoropropyl)-1H-imidazole
_symmetry_cell_setting           orthorhombic
_symmetry_space_group_name_H-M   'P b c a'
_symmetry_Int_Tables_number      61
_space_group_name_Hall           '-P 2ac 2ab'
loop_
_symmetry_equiv_pos_site_id
_symmetry_equiv_pos_as_xyz
1 x,y,z
2 1/2-x,-y,1/2+z
3 1/2+x,1/2-y,-z
4 -x,1/2+y,1/2-z
5 -x,-y,-z
6 1/2+x,y,1/2-z
7 1/2-x,1/2+y,z
8 x,1/2-y,1/2+z
_cell_length_a                   9.823(2)
_cell_length_b                   7.3020(15)
_cell_length_c                   23.688(5)
_cell_angle_alpha                90
_cell_angle_beta                 90
_cell_angle_gamma                90
_cell_volume                     1699.08
_exptl_crystal_colour            colorless
_exptl_crystal_description       plate
_cell_formula_units_Z            8
loop_
_atom_site_label
_atom_site_type_symbol
_atom_site_fract_x
_atom_site_fract_y
_atom_site_fract_z
F1 F 0.2563(7) 0.2607(11) 0.1721(3)
F2 F 0.3998(9) 0.3790(14) 0.2279(3)
F3 F 0.3630(8) 0.0903(14) 0.2299(3)
F4 F 0.4382(8) 0.0703(10) 0.1181(3)
F5 F 0.5974(8) 0.1394(15) 0.1801(3)
F6 F 0.4154(7) 0.4468(11) 0.0962(3)
F7 F 0.5885(8) 0.4904(11) 0.1523(3)
N1 N 0.8039(9) 0.2694(14) 0.0172(4)
H1 H 0.8919 0.2599 0.0042
N2 N 0.5782(9) 0.2606(14) 0.0191(4)
C1 C 0.6881(11) 0.2288(17) -0.0123(5)
H2 H 0.6863 0.1836 -0.0503
C2 C 0.6255(10) 0.3213(17) 0.0695(4)
C3 C 0.7640(10) 0.3274(19) 0.0703(5)
H3 H 0.8215 0.3640 0.1010
C4 C 0.5313(11) 0.3673(15) 0.1171(4)
C5 C 0.4873(10) 0.2041(17) 0.1537(5)
C6 C 0.3743(11) 0.232(2) 0.1972(5)
loop_
_geom_bond_atom_site_label_1
_geom_bond_atom_site_label_2
_geom_bond_site_symmetry_1
_geom_bond_site_symmetry_2
F1 C6 1_555 1_555
F2 C6 1_555 1_555
F3 C6 1_555 1_555
F4 C5 1_555 1_555
F5 C5 1_555 1_555
F6 C4 1_555 1_555
F7 C4 1_555 1_555
N1 H1 1_555 1_555
N2 C1 1_555 1_555
C1 N1 1_555 1_555
H2 C1 1_555 1_555
C2 N2 1_555 1_555
C3 N1 1_555 1_555
H3 C3 1_555 1_555
C4 C2 1_555 1_555
C5 C4 1_555 1_555
C6 C5 1_555 1_555
C2 C3 1_555 1_555

#END
