
#######################################################################
#
#                 Cambridge Crystallographic Data Centre
#                                CCDC 
#
#######################################################################
#
# If this CIF has been generated from an entry in the Cambridge 
# Structural Database, then it will include bibliographic, chemical, 
# crystal, experimental, refinement or atomic coordinate data resulting 
# from the CCDC's data processing and validation procedures.
#
#######################################################################

data_DOSTEM
_chemical_formula_moiety         'C20 H22 N1 O5 P1'
_chemical_name_systematic        
'diethyl (1-methyl-2,8-dioxo-4-phenyl-1-azaspiro[4.5]deca-3,6,9-trien-3-yl)phosphonate'
_symmetry_cell_setting           monoclinic
_symmetry_space_group_name_H-M   'P 21/n'
_symmetry_Int_Tables_number      14
_space_group_name_Hall           '-P 2yn'
loop_
_symmetry_equiv_pos_site_id
_symmetry_equiv_pos_as_xyz
1 x,y,z
2 1/2-x,1/2+y,1/2-z
3 -x,-y,-z
4 1/2+x,1/2-y,1/2+z
_cell_length_a                   8.3849(3)
_cell_length_b                   12.0609(4)
_cell_length_c                   19.3266(6)
_cell_angle_alpha                90
_cell_angle_beta                 95.801(3)
_cell_angle_gamma                90
_cell_volume                     1944.48
_exptl_crystal_colour            'light colorless'
_exptl_crystal_description       block
_cell_formula_units_Z            4
loop_
_atom_site_label
_atom_site_type_symbol
_atom_site_fract_x
_atom_site_fract_y
_atom_site_fract_z
P1 P 0.79605(7) 0.84384(5) 0.10267(3)
O1 O 0.1245(2) 0.6371(2) 0.34706(11)
O2 O 0.5362(2) 0.66801(15) 0.02637(8)
O3 O 0.9033(2) 0.88953(16) 0.15948(8)
O4 O 0.7132(3) 0.92797(16) 0.04914(9)
O5 O 0.8819(2) 0.75994(17) 0.05730(9)
N1 N 0.4177(2) 0.65222(17) 0.12744(10)
C1 C 0.5265(3) 0.69197(19) 0.08728(11)
C2 C 0.6313(2) 0.76936(16) 0.13244(10)
C3 C 0.5799(2) 0.77298(16) 0.19531(10)
C4 C 0.4321(2) 0.69930(19) 0.19745(11)
C5 C 0.2866(3) 0.7683(2) 0.20691(13)
H1 H 0.2631 0.8275 0.1767
C6 C 0.1907(3) 0.7499(2) 0.25536(14)
H2 H 0.1028 0.7961 0.2582
C7 C 0.2186(3) 0.6586(2) 0.30500(12)
C8 C 0.3625(3) 0.59148(19) 0.29960(12)
H3 H 0.3861 0.5346 0.3315
C9 C 0.4598(3) 0.60875(18) 0.25107(11)
H4 H 0.5490 0.5632 0.2499
C10 C 0.2966(4) 0.5705(3) 0.10381(16)
H5 H 0.1920 0.6027 0.1039
H6 H 0.3055 0.5076 0.1344
H7 H 0.3125 0.5471 0.0575
C11 C 0.6442(3) 0.83615(17) 0.25796(10)
C12 C 0.5897(3) 0.9425(2) 0.26966(14)
H8 H 0.5129 0.9754 0.2381
C13 C 0.6508(4) 0.9993(3) 0.32881(18)
H9 H 0.6140 1.0703 0.3370
C14 C 0.7660(4) 0.9514(3) 0.37571(15)
H10 H 0.8057 0.9899 0.4155
C15 C 0.8209(4) 0.8481(3) 0.36347(13)
H11 H 0.9002 0.8166 0.3944
C16 C 0.7598(3) 0.7896(2) 0.30548(11)
H12 H 0.7965 0.7182 0.2982
C17 C 0.7093(5) 1.0454(3) 0.0556(2)
H13 H 0.7953 1.0697 0.0896
H14 H 0.6083 1.0681 0.0716
C18 C 0.7272(6) 1.0956(3) -0.0105(2)
H15 H 0.6441 1.0694 -0.0443
H16 H 0.8299 1.0764 -0.0249
H17 H 0.7196 1.1748 -0.0065
C19 C 0.8585(5) 0.7567(4) -0.01810(16)
H18 H 0.7450 0.7506 -0.0333
H19 H 0.8978 0.8250 -0.0368
C20 C 0.9407(6) 0.6657(4) -0.0433(2)
H20 H 0.9123 0.6582 -0.0924
H21 H 0.9118 0.5993 -0.0202
H22 H 1.0542 0.6775 -0.0344
loop_
_geom_bond_atom_site_label_1
_geom_bond_atom_site_label_2
_geom_bond_site_symmetry_1
_geom_bond_site_symmetry_2
P1 O3 1_555 1_555
O1 C7 1_555 1_555
O2 C1 1_555 1_555
O4 P1 1_555 1_555
O5 P1 1_555 1_555
N1 C1 1_555 1_555
C1 C2 1_555 1_555
C2 P1 1_555 1_555
C3 C2 1_555 1_555
C4 N1 1_555 1_555
C5 C4 1_555 1_555
H1 C5 1_555 1_555
C6 C5 1_555 1_555
H2 C6 1_555 1_555
C7 C6 1_555 1_555
C8 C7 1_555 1_555
H3 C8 1_555 1_555
C9 C4 1_555 1_555
H4 C9 1_555 1_555
C10 N1 1_555 1_555
H5 C10 1_555 1_555
H6 C10 1_555 1_555
H7 C10 1_555 1_555
C11 C3 1_555 1_555
C12 C11 1_555 1_555
H8 C12 1_555 1_555
C13 C12 1_555 1_555
H9 C13 1_555 1_555
C14 C13 1_555 1_555
H10 C14 1_555 1_555
C15 C14 1_555 1_555
H11 C15 1_555 1_555
C16 C11 1_555 1_555
H12 C16 1_555 1_555
C17 O4 1_555 1_555
H13 C17 1_555 1_555
H14 C17 1_555 1_555
C18 C17 1_555 1_555
H15 C18 1_555 1_555
H16 C18 1_555 1_555
H17 C18 1_555 1_555
C19 O5 1_555 1_555
H18 C19 1_555 1_555
H19 C19 1_555 1_555
C20 C19 1_555 1_555
H20 C20 1_555 1_555
H21 C20 1_555 1_555
H22 C20 1_555 1_555
C3 C4 1_555 1_555
C8 C9 1_555 1_555
C15 C16 1_555 1_555

#END
