
#######################################################################
#
#                 Cambridge Crystallographic Data Centre
#                                CCDC 
#
#######################################################################
#
# If this CIF has been generated from an entry in the Cambridge 
# Structural Database, then it will include bibliographic, chemical, 
# crystal, experimental, refinement or atomic coordinate data resulting 
# from the CCDC's data processing and validation procedures.
#
#######################################################################

data_DOSYAN
_chemical_formula_moiety         'C42 H38 N2 O4'
_chemical_name_systematic        
2,15-dihexylbenzo[de]benzo[3,4]pyrido[3',4',5':8,9]phenanthro[2,1-g]isoquinoline-1,3,14,16(2H,15H)-tetrone
_symmetry_cell_setting           monoclinic
_symmetry_space_group_name_H-M   'P 21/c'
_symmetry_Int_Tables_number      14
_space_group_name_Hall           '-P 2ybc'
loop_
_symmetry_equiv_pos_site_id
_symmetry_equiv_pos_as_xyz
1 x,y,z
2 -x,1/2+y,1/2-z
3 -x,-y,-z
4 x,1/2-y,1/2+z
_cell_length_a                   15.263(3)
_cell_length_b                   28.289(5)
_cell_length_c                   7.5628(13)
_cell_angle_alpha                90
_cell_angle_beta                 93.171(10)
_cell_angle_gamma                90
_cell_volume                     3260.43
_cell_formula_units_Z            4
loop_
_atom_site_label
_atom_site_type_symbol
_atom_site_fract_x
_atom_site_fract_y
_atom_site_fract_z
O1 O 0.6799(4) 1.0419(3) 0.2086(9)
O2 O 0.8278(5) 0.9135(2) 0.0211(9)
C1 C 0.4476(6) 0.9176(4) 0.1921(11)
H1 H 0.3969 0.8998 0.2036
C2 C 0.4496(7) 0.9635(4) 0.2528(11)
H2 H 0.4008 0.9763 0.3034
C3 C 0.5241(10) 0.9902(3) 0.2382(13)
H3 H 0.5243 1.0216 0.2743
C4 C 0.3610(8) 0.8426(3) -0.0413(11)
H4 H 0.3556 0.8752 -0.0275
C5 C 0.2886(7) 0.8179(4) -0.1023(11)
H5 H 0.2353 0.8333 -0.1255
C6 C 0.2954(7) 0.7695(4) -0.1292(10)
H6 H 0.2468 0.7520 -0.1695
C7 C 0.3752(8) 0.7479(3) -0.0953(10)
H7 H 0.3803 0.7159 -0.1196
C8 C 0.4779(6) 0.6681(4) 0.0823(9)
H8 H 0.4237 0.6812 0.1043
C9 C 0.4913(7) 0.6207(4) 0.1102(10)
H9 H 0.4457 0.6018 0.1458
C10 C 0.5744(8) 0.6006(3) 0.0850(10)
H10 H 0.5839 0.5686 0.1055
O3 O 0.7420(4) 0.5658(3) 0.0297(8)
O4 O 0.8440(5) 0.7085(2) -0.1319(10)
N1 N 0.7553(6) 0.9779(3) 0.1112(10)
C11 C 0.6899(6) 0.7554(4) -0.0429(9)
H11 H 0.7380 0.7746 -0.0613
C12 C 0.6991(6) 0.7068(4) -0.0428(9)
N2 N 0.7959(5) 0.6374(4) -0.0407(9)
C13 C 0.5988(8) 0.9234(4) 0.1115(10)
C14 C 0.5204(7) 0.8963(4) 0.1122(10)
C15 C 0.5992(8) 0.9709(4) 0.1701(12)
C16 C 0.4430(6) 0.8220(4) 0.0018(9)
C17 C 0.4482(6) 0.7721(4) -0.0264(9)
C18 C 0.6405(7) 0.6283(4) 0.0307(10)
C19 C 0.6286(8) 0.6780(4) 0.0006(9)
C20 C 0.6786(10) 0.9997(4) 0.1652(13)
C21 C 0.7592(9) 0.9308(4) 0.0605(11)
C22 C 0.6758(8) 0.9031(4) 0.0581(10)
C23 C 0.6789(6) 0.8564(4) 0.0165(9)
H12 H 0.7322 0.8429 -0.0096
C24 C 0.6017(7) 0.8278(3) 0.0122(9)
C25 C 0.6065(7) 0.7759(3) -0.0147(9)
C26 C 0.7847(8) 0.6855(4) -0.0753(11)
C27 C 0.8840(6) 0.6169(3) -0.0543(12)
H13 H 0.9178 0.6366 -0.1306
H14 H 0.8787 0.5858 -0.1077
C28 C 0.9329(6) 0.6128(4) 0.1295(15)
H15 H 0.9000 0.5918 0.2024
H16 H 0.9897 0.5983 0.1147
C29 C 0.9467(8) 0.6578(4) 0.2242(16)
H17 H 0.8900 0.6704 0.2522
H18 H 0.9731 0.6801 0.1457
C30 C 1.0042(8) 0.6543(5) 0.3942(18)
H19 H 1.0640 0.6475 0.3655
H20 H 0.9838 0.6284 0.4653
C31 C 0.5224(7) 0.8481(3) 0.0456(9)
C32 C 0.5331(7) 0.7483(3) -0.0055(9)
C33 C 0.5448(7) 0.6976(3) 0.0207(9)
C34 C 0.7295(8) 0.6085(4) 0.0090(11)
C35 C 0.8371(7) 1.0046(4) 0.1241(14)
H21 H 0.8828 0.9845 0.1771
H22 H 0.8300 1.0312 0.2031
C36 C 0.8671(9) 1.0232(5) -0.051(3)
H23 H 0.9150 1.0448 -0.0218
H24 H 0.8924 0.9964 -0.1102
C37 C 1.0027(15) 0.6999(7) 0.501(2)
H25 H 1.0091 0.7264 0.4217
H26 H 0.9457 0.7027 0.5514
C38 C 1.0683(17) 0.7032(11) 0.640(4)
H27 H 1.0735 0.6735 0.7010
H28 H 1.0526 0.7274 0.7219
H29 H 1.1234 0.7111 0.5922
C39 C 0.8581(11) 1.0646(6) -0.3355(19)
H30 H 0.9099 1.0828 -0.2991
H31 H 0.8757 1.0389 -0.4108
C40 C 0.8149(12) 1.0450(9) -0.173(2)
H32 H 0.7861 1.0710 -0.1161
H33 H 0.7696 1.0229 -0.2141
C41 C 0.7987(17) 1.1437(9) -0.430(4)
H34 H 0.8169 1.1538 -0.3121
H35 H 0.7425 1.1572 -0.4631
H36 H 0.8410 1.1538 -0.5109
C42 C 0.7924(11) 1.0954(9) -0.433(3)
H37 H 0.7915 1.0860 -0.5566
H38 H 0.7354 1.0873 -0.3909
loop_
_geom_bond_atom_site_label_1
_geom_bond_atom_site_label_2
_geom_bond_site_symmetry_1
_geom_bond_site_symmetry_2
O1 C20 1_555 1_555
O2 C21 1_555 1_555
C1 H1 1_555 1_555
C2 C1 1_555 1_555
H2 C2 1_555 1_555
C3 C2 1_555 1_555
H3 C3 1_555 1_555
C4 H4 1_555 1_555
C5 C4 1_555 1_555
H5 C5 1_555 1_555
C6 C5 1_555 1_555
H6 C6 1_555 1_555
C7 C6 1_555 1_555
H7 C7 1_555 1_555
C8 H8 1_555 1_555
C9 C8 1_555 1_555
H9 C9 1_555 1_555
C10 C9 1_555 1_555
H10 C10 1_555 1_555
O3 C34 1_555 1_555
O4 C26 1_555 1_555
N1 C20 1_555 1_555
C11 H11 1_555 1_555
C12 C11 1_555 1_555
N2 C26 1_555 1_555
C13 C14 1_555 1_555
C14 C1 1_555 1_555
C15 C3 1_555 1_555
C16 C4 1_555 1_555
C17 C7 1_555 1_555
C18 C10 1_555 1_555
C19 C12 1_555 1_555
C20 C15 1_555 1_555
C21 N1 1_555 1_555
C22 C13 1_555 1_555
C23 C22 1_555 1_555
H12 C23 1_555 1_555
C24 C23 1_555 1_555
C25 C11 1_555 1_555
C26 C12 1_555 1_555
C27 N2 1_555 1_555
H13 C27 1_555 1_555
H14 C27 1_555 1_555
C28 C27 1_555 1_555
H15 C28 1_555 1_555
H16 C28 1_555 1_555
C29 C28 1_555 1_555
H17 C29 1_555 1_555
H18 C29 1_555 1_555
C30 C29 1_555 1_555
H19 C30 1_555 1_555
H20 C30 1_555 1_555
C31 C14 1_555 1_555
C32 C17 1_555 1_555
C33 C8 1_555 1_555
C34 N2 1_555 1_555
C35 N1 1_555 1_555
H21 C35 1_555 1_555
H22 C35 1_555 1_555
C36 C35 1_555 1_555
H23 C36 1_555 1_555
H24 C36 1_555 1_555
C37 C30 1_555 1_555
H25 C37 1_555 1_555
H26 C37 1_555 1_555
C38 C37 1_555 1_555
H27 C38 1_555 1_555
H28 C38 1_555 1_555
H29 C38 1_555 1_555
C39 H30 1_555 1_555
H31 C39 1_555 1_555
C40 C36 1_555 1_555
H32 C40 1_555 1_555
H33 C40 1_555 1_555
C41 H34 1_555 1_555
H35 C41 1_555 1_555
H36 C41 1_555 1_555
C42 C39 1_555 1_555
H37 C42 1_555 1_555
H38 C42 1_555 1_555
C13 C15 1_555 1_555
C16 C17 1_555 1_555
C16 C31 1_555 1_555
C18 C19 1_555 1_555
C18 C34 1_555 1_555
C19 C33 1_555 1_555
C21 C22 1_555 1_555
C24 C25 1_555 1_555
C24 C31 1_555 1_555
C25 C32 1_555 1_555
C32 C33 1_555 1_555
C39 C40 1_555 1_555
C41 C42 1_555 1_555

#END
