
#######################################################################
#
#                 Cambridge Crystallographic Data Centre
#                                CCDC 
#
#######################################################################
#
# If this CIF has been generated from an entry in the Cambridge 
# Structural Database, then it will include bibliographic, chemical, 
# crystal, experimental, refinement or atomic coordinate data resulting 
# from the CCDC's data processing and validation procedures.
#
#######################################################################

data_DOTJUT
_chemical_formula_moiety         'C7 H13 N2 P1'
_chemical_name_systematic        5-t-butyl-3-methyl-1H-1,2,4-diazaphosphole
_symmetry_cell_setting           monoclinic
_symmetry_space_group_name_H-M   'C 2/c'
_symmetry_Int_Tables_number      15
_space_group_name_Hall           '-C 2yn'
loop_
_symmetry_equiv_pos_site_id
_symmetry_equiv_pos_as_xyz
1 x,y,z
2 -x,y,1/2-z
3 1/2+x,1/2+y,z
4 1/2-x,1/2+y,1/2-z
5 -x,-y,-z
6 x,-y,1/2+z
7 1/2-x,1/2-y,-z
8 1/2+x,1/2-y,1/2+z
_cell_length_a                   12.260(17)
_cell_length_b                   22.05(3)
_cell_length_c                   14.10(2)
_cell_angle_alpha                90
_cell_angle_beta                 94.24(2)
_cell_angle_gamma                90
_cell_volume                     3801.26
_cell_formula_units_Z            16
loop_
_atom_site_label
_atom_site_type_symbol
_atom_site_fract_x
_atom_site_fract_y
_atom_site_fract_z
P1 P 0.36039(9) 0.45655(5) 0.08182(7)
N1 N 0.3572(2) 0.36758(12) 0.1992(2)
H1 H 0.3454 0.3462 0.2484
N2 N 0.4093(2) 0.34463(13) 0.1250(2)
C1 C 0.3257(3) 0.42542(15) 0.1905(2)
C2 C 0.2669(3) 0.45726(17) 0.2679(3)
C3 C 0.1517(4) 0.4711(3) 0.2314(4)
H2 H 0.1518 0.4895 0.1697
H3 H 0.1195 0.4984 0.2743
H4 H 0.1101 0.4342 0.2268
C4 C 0.2776(5) 0.4230(2) 0.3622(4)
H5 H 0.2433 0.4459 0.4097
H6 H 0.3536 0.4173 0.3818
H7 H 0.2426 0.3842 0.3545
C5 C 0.3238(5) 0.5193(2) 0.2900(4)
H8 H 0.3215 0.5434 0.2331
H9 H 0.3986 0.5126 0.3127
H10 H 0.2865 0.5403 0.3378
C6 C 0.4175(3) 0.38637(16) 0.0570(2)
C7 C 0.4752(4) 0.3688(2) -0.0312(3)
H11 H 0.5283 0.3378 -0.0149
H12 H 0.5111 0.4038 -0.0549
H13 H 0.4224 0.3539 -0.0792
P2 P 0.68892(9) 0.15647(5) 0.09591(8)
N3 N 0.5531(2) 0.24023(12) 0.1313(2)
H14 H 0.4931 0.2601 0.1339
N4 N 0.6509(2) 0.26273(13) 0.1677(2)
C8 C 0.5561(3) 0.18545(15) 0.0913(2)
C9 C 0.4510(3) 0.15597(17) 0.0505(3)
C10 C 0.3586(5) 0.1643(3) 0.1172(4)
H15 H 0.3770 0.1434 0.1759
H16 H 0.2918 0.1481 0.0876
H17 H 0.3492 0.2067 0.1297
C11 C 0.4672(5) 0.0880(2) 0.0364(5)
H18 H 0.5204 0.0816 -0.0092
H19 H 0.3990 0.0699 0.0137
H20 H 0.4923 0.0698 0.0959
C12 C 0.4131(5) 0.1842(3) -0.0447(4)
H21 H 0.3917 0.2255 -0.0352
H22 H 0.3519 0.1617 -0.0729
H23 H 0.4718 0.1831 -0.0861
C13 C 0.7310(3) 0.22360(18) 0.1550(3)
C14 C 0.8457(3) 0.2395(2) 0.1933(4)
H24 H 0.8844 0.2576 0.1437
H25 H 0.8831 0.2034 0.2155
H26 H 0.8426 0.2677 0.2449
loop_
_geom_bond_atom_site_label_1
_geom_bond_atom_site_label_2
_geom_bond_site_symmetry_1
_geom_bond_site_symmetry_2
P1 C1 1_555 1_555
N1 H1 1_555 1_555
N2 N1 1_555 1_555
C1 N1 1_555 1_555
C2 C1 1_555 1_555
C3 C2 1_555 1_555
H2 C3 1_555 1_555
H3 C3 1_555 1_555
H4 C3 1_555 1_555
C4 C2 1_555 1_555
H5 C4 1_555 1_555
H6 C4 1_555 1_555
H7 C4 1_555 1_555
C5 C2 1_555 1_555
H8 C5 1_555 1_555
H9 C5 1_555 1_555
H10 C5 1_555 1_555
C6 P1 1_555 1_555
C7 C6 1_555 1_555
H11 C7 1_555 1_555
H12 C7 1_555 1_555
H13 C7 1_555 1_555
P2 C8 1_555 1_555
N3 H14 1_555 1_555
N4 N3 1_555 1_555
C8 N3 1_555 1_555
C9 C8 1_555 1_555
C10 C9 1_555 1_555
H15 C10 1_555 1_555
H16 C10 1_555 1_555
H17 C10 1_555 1_555
C11 C9 1_555 1_555
H18 C11 1_555 1_555
H19 C11 1_555 1_555
H20 C11 1_555 1_555
C12 C9 1_555 1_555
H21 C12 1_555 1_555
H22 C12 1_555 1_555
H23 C12 1_555 1_555
C13 P2 1_555 1_555
C14 C13 1_555 1_555
H24 C14 1_555 1_555
H25 C14 1_555 1_555
H26 C14 1_555 1_555
N2 C6 1_555 1_555
N4 C13 1_555 1_555

#END
