
#######################################################################
#
#                 Cambridge Crystallographic Data Centre
#                                CCDC 
#
#######################################################################
#
# If this CIF has been generated from an entry in the Cambridge 
# Structural Database, then it will include bibliographic, chemical, 
# crystal, experimental, refinement or atomic coordinate data resulting 
# from the CCDC's data processing and validation procedures.
#
#######################################################################

data_DOTKAA
_chemical_formula_moiety         'C12 H15 N2 P1,C12 H15 N2 P1'
_chemical_name_systematic        
'3-t-butyl-5-phenyl-1H-1,2,4-diazaphosphole 5-t-butyl-3-phenyl-1H-1,2,4-diazaphosphole'
_symmetry_cell_setting           monoclinic
_symmetry_space_group_name_H-M   'P 21'
_symmetry_Int_Tables_number      4
_space_group_name_Hall           'P 2yb'
loop_
_symmetry_equiv_pos_site_id
_symmetry_equiv_pos_as_xyz
1 x,y,z
2 -x,1/2+y,-z
_cell_length_a                   11.8190(14)
_cell_length_b                   8.5829(9)
_cell_length_c                   24.840(3)
_cell_angle_alpha                90
_cell_angle_beta                 103.238(2)
_cell_angle_gamma                90
_cell_volume                     2452.84
_cell_formula_units_Z            4
loop_
_atom_site_label
_atom_site_type_symbol
_atom_site_fract_x
_atom_site_fract_y
_atom_site_fract_z
P1 P 0.80911(14) 0.2009(2) 0.10574(7)
N1 N 1.0207(4) 0.2374(6) 0.10355(19)
H1 H 1.0830 0.2772 0.0971
N2 N 1.0230(4) 0.1038(6) 0.13213(19)
C1 C 0.9168(5) 0.0706(8) 0.1372(2)
C2 C 0.8999(5) -0.0735(7) 0.1678(2)
C3 C 0.9910(6) -0.1330(7) 0.2099(2)
H2 H 1.0633 -0.0844 0.2180
C4 C 0.9718(6) -0.2638(8) 0.2391(3)
H3 H 1.0319 -0.3034 0.2666
C5 C 0.8655(7) -0.3361(8) 0.2281(3)
H4 H 0.8540 -0.4251 0.2475
C6 C 0.7759(6) -0.2757(9) 0.1878(3)
H5 H 0.7033 -0.3235 0.1803
C7 C 0.7938(6) -0.1455(8) 0.1590(3)
H6 H 0.7321 -0.1047 0.1327
C8 C 0.9169(5) 0.3056(8) 0.0856(2)
C9 C 0.9076(5) 0.4555(7) 0.0532(3)
C10 C 0.9834(6) 0.5788(8) 0.0893(3)
H7 H 0.9790 0.6749 0.0692
H8 H 1.0626 0.5437 0.0989
H9 H 0.9561 0.5950 0.1224
C11 C 0.9493(6) 0.4351(8) 0.0013(2)
H10 H 0.9473 0.5335 -0.0173
H11 H 0.9000 0.3622 -0.0225
H12 H 1.0276 0.3963 0.0102
C12 C 0.7825(6) 0.5133(9) 0.0394(3)
H13 H 0.7596 0.5397 0.0729
H14 H 0.7325 0.4330 0.0203
H15 H 0.7766 0.6039 0.0162
P2 P 0.85972(14) 0.8008(2) 0.37801(8)
N3 N 0.6430(4) 0.8181(7) 0.3717(2)
H16 H 0.5726 0.8519 0.3637
N4 N 0.6718(4) 0.6840(6) 0.4004(2)
C13 C 0.7288(5) 0.8958(7) 0.3564(2)
C14 C 0.7011(5) 1.0399(7) 0.3231(3)
C15 C 0.7680(6) 1.0787(9) 0.2866(3)
H17 H 0.8305 1.0159 0.2838
C16 C 0.7430(7) 1.2104(10) 0.2542(3)
H18 H 0.7898 1.2369 0.2302
C17 C 0.6509(7) 1.3013(10) 0.2570(3)
H19 H 0.6330 1.3884 0.2344
C18 C 0.5845(7) 1.2633(9) 0.2937(4)
H20 H 0.5218 1.3259 0.2964
C19 C 0.6103(6) 1.1325(8) 0.3265(3)
H21 H 0.5648 1.1078 0.3513
C20 C 0.7843(5) 0.6570(7) 0.4073(2)
C21 C 0.8383(5) 0.5125(7) 0.4383(3)
C22 C 0.9399(6) 0.5631(8) 0.4858(3)
H22 H 0.9098 0.6151 0.5138
H23 H 0.9897 0.6329 0.4717
H24 H 0.9833 0.4730 0.5014
C23 C 0.8895(6) 0.4155(8) 0.3971(3)
H25 H 0.9241 0.3222 0.4149
H26 H 0.9475 0.4756 0.3850
H27 H 0.8286 0.3884 0.3658
C24 C 0.7506(6) 0.4200(9) 0.4598(3)
H28 H 0.7180 0.4838 0.4842
H29 H 0.7877 0.3308 0.4796
H30 H 0.6899 0.3863 0.4293
P3 P 0.20224(14) 0.7022(2) 0.39100(7)
N5 N 0.3936(4) 0.8063(7) 0.3694(2)
N6 N 0.4183(4) 0.6715(6) 0.39830(18)
H31 H 0.4875 0.6336 0.4065
C25 C 0.2829(5) 0.8397(7) 0.3629(2)
C26 C 0.2358(5) 0.9791(7) 0.3320(2)
C27 C 0.2885(6) 1.0468(7) 0.2929(2)
H32 H 0.3560 1.0023 0.2864
C28 C 0.2429(6) 1.1795(9) 0.2630(3)
H33 H 0.2786 1.2219 0.2367
C29 C 0.1445(7) 1.2458(8) 0.2734(3)
H34 H 0.1137 1.3341 0.2537
C30 C 0.0907(6) 1.1856(9) 0.3118(3)
H35 H 0.0247 1.2329 0.3187
C31 C 0.1369(6) 1.0514(7) 0.3405(3)
H36 H 0.0996 1.0092 0.3663
C32 C 0.3304(5) 0.6014(8) 0.4133(2)
C33 C 0.3522(5) 0.4498(7) 0.4455(3)
C34 C 0.4433(6) 0.4750(8) 0.4996(2)
H37 H 0.4168 0.5542 0.5210
H38 H 0.5154 0.5071 0.4914
H39 H 0.4549 0.3795 0.5202
C35 C 0.3965(6) 0.3292(8) 0.4099(3)
H40 H 0.4032 0.2297 0.4280
H41 H 0.4713 0.3606 0.4048
H42 H 0.3429 0.3214 0.3746
C36 C 0.2409(6) 0.3930(9) 0.4587(3)
H43 H 0.2123 0.4705 0.4801
H44 H 0.2556 0.2980 0.4795
H45 H 0.1841 0.3746 0.4250
P4 P 0.47777(15) 0.0899(2) 0.12115(8)
N7 N 0.2719(4) 0.2137(7) 0.1020(2)
N8 N 0.2683(4) 0.0791(6) 0.13020(18)
H46 H 0.2057 0.0465 0.1386
C37 C 0.3667(5) 0.0018(7) 0.1439(2)
C38 C 0.3676(5) -0.1423(8) 0.1762(3)
C39 C 0.4701(5) -0.1898(8) 0.2127(3)
H47 H 0.5385 -0.1347 0.2141
C40 C 0.4712(7) -0.3165(9) 0.2464(3)
H48 H 0.5397 -0.3448 0.2712
C41 C 0.3713(8) -0.4025(9) 0.2437(3)
H49 H 0.3723 -0.4899 0.2660
C42 C 0.2736(7) -0.3583(8) 0.2089(3)
H50 H 0.2057 -0.4141 0.2080
C43 C 0.2697(6) -0.2317(8) 0.1738(3)
H51 H 0.2009 -0.2071 0.1486
C44 C 0.3780(5) 0.2380(7) 0.0936(2)
C45 C 0.4050(6) 0.3816(8) 0.0641(3)
C46 C 0.4937(6) 0.4805(9) 0.1043(3)
H52 H 0.4655 0.5009 0.1369
H53 H 0.5051 0.5774 0.0870
H54 H 0.5662 0.4255 0.1143
C47 C 0.4586(6) 0.3327(8) 0.0151(3)
H55 H 0.5264 0.2700 0.0287
H56 H 0.4800 0.4241 -0.0025
H57 H 0.4027 0.2737 -0.0111
C48 C 0.2977(6) 0.4796(9) 0.0427(3)
H58 H 0.2452 0.4239 0.0139
H59 H 0.3197 0.5758 0.0282
H60 H 0.2603 0.5011 0.0723
loop_
_geom_bond_atom_site_label_1
_geom_bond_atom_site_label_2
_geom_bond_site_symmetry_1
_geom_bond_site_symmetry_2
P1 C1 1_555 1_555
N1 H1 1_555 1_555
N2 N1 1_555 1_555
C1 N2 1_555 1_555
C2 C1 1_555 1_555
C3 C2 1_555 1_555
H2 C3 1_555 1_555
C4 C3 1_555 1_555
H3 C4 1_555 1_555
C5 C4 1_555 1_555
H4 C5 1_555 1_555
C6 C5 1_555 1_555
H5 C6 1_555 1_555
C7 C2 1_555 1_555
H6 C7 1_555 1_555
C8 P1 1_555 1_555
C9 C8 1_555 1_555
C10 C9 1_555 1_555
H7 C10 1_555 1_555
H8 C10 1_555 1_555
H9 C10 1_555 1_555
C11 C9 1_555 1_555
H10 C11 1_555 1_555
H11 C11 1_555 1_555
H12 C11 1_555 1_555
C12 C9 1_555 1_555
H13 C12 1_555 1_555
H14 C12 1_555 1_555
H15 C12 1_555 1_555
P2 C13 1_555 1_555
N3 H16 1_555 1_555
N4 N3 1_555 1_555
C13 N3 1_555 1_555
C14 C13 1_555 1_555
C15 C14 1_555 1_555
H17 C15 1_555 1_555
C16 C15 1_555 1_555
H18 C16 1_555 1_555
C17 C16 1_555 1_555
H19 C17 1_555 1_555
C18 C17 1_555 1_555
H20 C18 1_555 1_555
C19 C14 1_555 1_555
H21 C19 1_555 1_555
C20 P2 1_555 1_555
C21 C20 1_555 1_555
C22 C21 1_555 1_555
H22 C22 1_555 1_555
H23 C22 1_555 1_555
H24 C22 1_555 1_555
C23 C21 1_555 1_555
H25 C23 1_555 1_555
H26 C23 1_555 1_555
H27 C23 1_555 1_555
C24 C21 1_555 1_555
H28 C24 1_555 1_555
H29 C24 1_555 1_555
H30 C24 1_555 1_555
P3 C25 1_555 1_555
N5 N6 1_555 1_555
N6 H31 1_555 1_555
C25 N5 1_555 1_555
C26 C25 1_555 1_555
C27 C26 1_555 1_555
H32 C27 1_555 1_555
C28 C27 1_555 1_555
H33 C28 1_555 1_555
C29 C28 1_555 1_555
H34 C29 1_555 1_555
C30 C29 1_555 1_555
H35 C30 1_555 1_555
C31 C26 1_555 1_555
H36 C31 1_555 1_555
C32 P3 1_555 1_555
C33 C32 1_555 1_555
C34 C33 1_555 1_555
H37 C34 1_555 1_555
H38 C34 1_555 1_555
H39 C34 1_555 1_555
C35 C33 1_555 1_555
H40 C35 1_555 1_555
H41 C35 1_555 1_555
H42 C35 1_555 1_555
C36 C33 1_555 1_555
H43 C36 1_555 1_555
H44 C36 1_555 1_555
H45 C36 1_555 1_555
P4 C37 1_555 1_555
N7 N8 1_555 1_555
N8 H46 1_555 1_555
C37 N8 1_555 1_555
C38 C37 1_555 1_555
C39 C38 1_555 1_555
H47 C39 1_555 1_555
C40 C39 1_555 1_555
H48 C40 1_555 1_555
C41 C40 1_555 1_555
H49 C41 1_555 1_555
C42 C41 1_555 1_555
H50 C42 1_555 1_555
C43 C38 1_555 1_555
H51 C43 1_555 1_555
C44 P4 1_555 1_555
C45 C44 1_555 1_555
C46 C45 1_555 1_555
H52 C46 1_555 1_555
H53 C46 1_555 1_555
H54 C46 1_555 1_555
C47 C45 1_555 1_555
H55 C47 1_555 1_555
H56 C47 1_555 1_555
H57 C47 1_555 1_555
C48 C45 1_555 1_555
H58 C48 1_555 1_555
H59 C48 1_555 1_555
H60 C48 1_555 1_555
N1 C8 1_555 1_555
C6 C7 1_555 1_555
N4 C20 1_555 1_555
C18 C19 1_555 1_555
N6 C32 1_555 1_555
C30 C31 1_555 1_555
N7 C44 1_555 1_555
C42 C43 1_555 1_555

#END
