
#######################################################################
#
#                 Cambridge Crystallographic Data Centre
#                                CCDC 
#
#######################################################################
#
# If this CIF has been generated from an entry in the Cambridge 
# Structural Database, then it will include bibliographic, chemical, 
# crystal, experimental, refinement or atomic coordinate data resulting 
# from the CCDC's data processing and validation procedures.
#
#######################################################################

data_DOTTIQ
_chemical_formula_moiety         'C10 H15 N1 O1'
_chemical_name_systematic        (1R,3S,8aR)-3-Ethynyloctahydro-1-indolizinol
_symmetry_cell_setting           orthorhombic
_symmetry_space_group_name_H-M   'P 21 21 21'
_symmetry_Int_Tables_number      19
_space_group_name_Hall           'P 2ac 2ab'
loop_
_symmetry_equiv_pos_site_id
_symmetry_equiv_pos_as_xyz
1 x,y,z
2 1/2-x,-y,1/2+z
3 1/2+x,1/2-y,-z
4 -x,1/2+y,1/2-z
_cell_length_a                   7.4042(10)
_cell_length_b                   8.5718(11)
_cell_length_c                   14.7778(19)
_cell_angle_alpha                90
_cell_angle_beta                 90
_cell_angle_gamma                90
_cell_volume                     937.907
_exptl_crystal_colour            colorless
_exptl_crystal_description       prism
_chemical_melting_point          62-63deg.C
_cell_formula_units_Z            4
_exptl_crystal_recrystallization_method 'ethyl acetate'
loop_
_atom_site_label
_atom_site_type_symbol
_atom_site_fract_x
_atom_site_fract_y
_atom_site_fract_z
C1 C 0.3141(2) 0.44205(16) 0.01925(9)
H1 H 0.2214 0.4321 -0.0296
C2 C 0.4761(2) 0.53412(18) -0.01747(11)
H2 H 0.4412 0.5945 -0.0718
H3 H 0.5759 0.4626 -0.0338
C3 C 0.5343(2) 0.64452(17) 0.05969(11)
H4 H 0.6625 0.6244 0.0774
C4 C 0.4065(2) 0.60318(16) 0.13731(9)
H5 H 0.4599 0.5136 0.1714
C5 C 0.3564(3) 0.72888(19) 0.20481(10)
H6 H 0.3063 0.8205 0.1727
H7 H 0.4652 0.7627 0.2384
C6 C 0.2164(3) 0.6641(2) 0.27057(11)
H8 H 0.2711 0.5791 0.3067
H9 H 0.1780 0.7475 0.3127
C7 C 0.0528(2) 0.6019(2) 0.22006(11)
H10 H -0.0094 0.6889 0.1889
H11 H -0.0329 0.5548 0.2636
C8 C 0.1099(2) 0.47985(17) 0.15081(10)
H12 H 0.1616 0.3881 0.1822
H13 H 0.0035 0.4450 0.1157
C9 C 0.36208(19) 0.28490(17) 0.05207(10)
C10 C 0.3930(2) 0.15656(18) 0.07625(13)
H14 H 0.4179 0.0532 0.0957
N1 N 0.24439(15) 0.54709(13) 0.08990(7)
O1 O 0.50996(18) 0.80357(13) 0.03554(8)
H15 H 0.591(4) 0.823(3) -0.0032(15)
loop_
_geom_bond_atom_site_label_1
_geom_bond_atom_site_label_2
_geom_bond_site_symmetry_1
_geom_bond_site_symmetry_2
C1 H1 1_555 1_555
C2 C1 1_555 1_555
H2 C2 1_555 1_555
H3 C2 1_555 1_555
C3 C2 1_555 1_555
H4 C3 1_555 1_555
C4 C3 1_555 1_555
H5 C4 1_555 1_555
C5 C4 1_555 1_555
H6 C5 1_555 1_555
H7 C5 1_555 1_555
C6 C5 1_555 1_555
H8 C6 1_555 1_555
H9 C6 1_555 1_555
C7 C6 1_555 1_555
H10 C7 1_555 1_555
H11 C7 1_555 1_555
C8 C7 1_555 1_555
H12 C8 1_555 1_555
H13 C8 1_555 1_555
C9 C1 1_555 1_555
C10 C9 1_555 1_555
H14 C10 1_555 1_555
N1 C1 1_555 1_555
O1 C3 1_555 1_555
H15 O1 1_555 1_555
C4 N1 1_555 1_555
C8 N1 1_555 1_555

#END
