
#######################################################################
#
#                 Cambridge Crystallographic Data Centre
#                                CCDC 
#
#######################################################################
#
# If this CIF has been generated from an entry in the Cambridge 
# Structural Database, then it will include bibliographic, chemical, 
# crystal, experimental, refinement or atomic coordinate data resulting 
# from the CCDC's data processing and validation procedures.
#
#######################################################################

data_DOVCOH
_chemical_name_common            
'5-mono[(4-methylphenyl)azo]-25,26,27,28-tetrahydroxycalix[4]arene dihydrate'
_chemical_formula_moiety         'C35 H30 N2 O4,2(H2 O1)'
_chemical_name_systematic        
'5-((4-p-tolyl)diazenyl)-25,26,27,28-tetrahydroxycalix[4]arene dihydrate'
_symmetry_cell_setting           triclinic
_symmetry_space_group_name_H-M   'P -1'
_symmetry_Int_Tables_number      2
_space_group_name_Hall           '-P 1'
loop_
_symmetry_equiv_pos_site_id
_symmetry_equiv_pos_as_xyz
1 x,y,z
2 -x,-y,-z
_cell_length_a                   10.9773(9)
_cell_length_b                   18.4860(15)
_cell_length_c                   18.8587(16)
_cell_angle_alpha                60.820(2)
_cell_angle_beta                 77.198(2)
_cell_angle_gamma                89.198(2)
_cell_volume                     3238.27
_cell_formula_units_Z            4
loop_
_atom_site_label
_atom_site_type_symbol
_atom_site_fract_x
_atom_site_fract_y
_atom_site_fract_z
O1 O 1.1908(3) 0.03162(19) 1.0469(2)
H1 H 1.1146 0.0274 1.0524
O2 O 1.2017(3) 0.1568(2) 0.8923(2)
H2 H 1.1253 0.1544 0.8981
O3 O 0.9402(3) 0.01762(18) 1.0678(2)
H3 H 0.9428 0.0566 1.0208
O4 O 0.9538(3) 0.14055(19) 0.91235(19)
H4 H 1.0299 0.1480 0.9060
N1 N 0.6865(6) 0.4061(3) 0.9048(4)
N2 N 0.7447(5) 0.4677(5) 0.8476(4)
C1 C 0.4537(8) 0.5836(5) 0.8834(5)
H9 H 0.3709 0.5747 0.9141
C2 C 0.5263(9) 0.5143(5) 0.8970(5)
H10 H 0.4944 0.4592 0.9358
C3 C 0.6495(9) 0.5378(6) 0.8462(5)
C4 C 0.7041(9) 0.6149(6) 0.7850(6)
H11 H 0.7858 0.6247 0.7525
C5 C 0.6270(8) 0.6787(5) 0.7747(5)
H12 H 0.6571 0.7332 0.7330
C6 C 0.5081(8) 0.6620(5) 0.8251(5)
C7 C 0.7816(6) 0.3429(4) 0.9002(4)
C8 C 0.7267(5) 0.2635(3) 0.9604(3)
H13 H 0.6499 0.2559 0.9975
C9 C 0.7862(5) 0.1952(3) 0.9654(3)
C10 C 0.8994(5) 0.2081(3) 0.9112(3)
C11 C 0.9596(5) 0.2884(4) 0.8517(3)
C12 C 0.8962(6) 0.3545(4) 0.8478(4)
H14 H 0.9326 0.4085 0.8084
C13 C 1.0863(5) 0.3001(3) 0.7938(3)
H15 H 1.0926 0.3511 0.7410
H16 H 1.0925 0.2542 0.7825
C14 C 1.1959(6) 0.3046(4) 0.8294(3)
C15 C 1.2465(5) 0.2339(4) 0.8788(3)
C16 C 1.3457(5) 0.2367(4) 0.9136(3)
C17 C 1.3945(6) 0.3135(5) 0.8958(4)
H17 H 1.4613 0.3173 0.9171
C18 C 1.3450(7) 0.3853(4) 0.8465(4)
H18 H 1.3789 0.4367 0.8352
C19 C 1.2457(6) 0.3811(4) 0.8141(4)
H19 H 1.2122 0.4295 0.7819
C20 C 1.3942(5) 0.1583(3) 0.9717(4)
H20 H 1.3902 0.1177 0.9535
H21 H 1.4818 0.1710 0.9676
C21 C 1.3219(6) 0.1201(4) 1.0622(4)
C22 C 1.3522(6) 0.1482(4) 1.1128(5)
H22 H 1.4198 0.1888 1.0915
C23 C 1.2834(7) 0.1165(5) 1.1944(5)
H23 H 1.3060 0.1349 1.2282
C24 C 1.1797(6) 0.0571(4) 1.2266(4)
H24 H 1.1328 0.0368 1.2814
C25 C 1.1465(6) 0.0284(3) 1.1777(4)
C26 C 1.2178(6) 0.0601(3) 1.0967(4)
C27 C 1.0359(5) -0.0345(3) 1.2125(3)
H25 H 1.0290 -0.0722 1.2716
H26 H 1.0472 -0.0671 1.1842
C28 C 0.9120(5) 0.0086(3) 1.2009(4)
C29 C 0.8397(6) 0.0232(4) 1.2624(4)
H27 H 0.8635 0.0062 1.3121
C30 C 0.7328(6) 0.0627(4) 1.2496(4)
H28 H 0.6843 0.0718 1.2910
C31 C 0.6972(5) 0.0886(3) 1.1762(4)
H29 H 0.6252 0.1157 1.1686
C32 C 0.7653(5) 0.0757(3) 1.1137(3)
C33 C 0.8700(5) 0.0351(3) 1.1273(3)
C34 C 0.7257(5) 0.1074(3) 1.0330(3)
H30 H 0.6351 0.1072 1.0445
H31 H 0.7474 0.0694 1.0116
C35 C 0.4286(6) 0.7353(4) 0.8096(4)
H32 H 0.3465 0.7147 0.8470
H33 H 0.4211 0.7626 0.7527
H34 H 0.4687 0.7743 0.8193
O5 O 0.5878(3) -0.3815(2) 1.4717(2)
H5 H 0.5200 -0.4099 1.4989
O6 O 0.2869(4) -0.4443(2) 1.4249(2)
H6 H 0.3535 -0.4142 1.3981
O7 O 0.3638(4) -0.4756(2) 1.5625(3)
H7 H 0.4304 -0.4453 1.5366
O8 O 0.5086(4) -0.3423(2) 1.3349(2)
H8 H 0.4400 -0.3702 1.3606
C36 C 0.6882(6) 0.1369(4) 1.5411(5)
C37 C 0.6365(6) 0.0597(5) 1.6048(4)
H35 H 0.6105 0.0508 1.6591
C38 C 0.6218(5) -0.0061(4) 1.5902(5)
H36 H 0.5880 -0.0592 1.6339
C39 C 0.6594(7) 0.0103(6) 1.5086(6)
C40 C 0.7089(7) 0.0852(6) 1.4462(5)
H37 H 0.7343 0.0946 1.3917
C41 C 0.7224(6) 0.1483(4) 1.4621(5)
H38 H 0.7560 0.2010 1.4176
C42 C 0.6100(6) -0.1807(5) 1.5072(5)
C43 C 0.5609(6) -0.2584(5) 1.5753(4)
H39 H 0.5353 -0.2648 1.6286
C44 C 0.5498(6) -0.3262(4) 1.5642(5)
C45 C 0.5936(6) -0.3142(4) 1.4835(5)
C46 C 0.6417(5) -0.2368(5) 1.4144(4)
C47 C 0.6479(5) -0.1707(4) 1.4298(5)
H40 H 0.6794 -0.1178 1.3850
C48 C 0.4870(7) -0.4084(3) 1.6392(4)
H41 H 0.5213 -0.4535 1.6317
H42 H 0.5064 -0.4130 1.6889
C49 C 0.2722(8) -0.3926(4) 1.7033(4)
H43 H 0.3096 -0.3728 1.7312
C50 C 0.1456(9) -0.3955(4) 1.7145(4)
H44 H 0.0965 -0.3774 1.7485
C51 C 0.0917(7) -0.4266(4) 1.6730(5)
H45 H 0.0049 -0.4300 1.6808
C52 C 0.1626(9) -0.4528(4) 1.6203(4)
C53 C 0.2910(8) -0.4473(3) 1.6122(4)
C54 C 0.3477(8) -0.4177(3) 1.6524(4)
C55 C 0.0989(6) -0.4845(3) 1.5747(4)
H46 H 0.1440 -0.5281 1.5699
H47 H 0.0136 -0.5084 1.6072
C56 C 0.0961(8) -0.4151(4) 1.4882(5)
C57 C -0.0051(7) -0.3674(5) 1.4816(5)
H48 H -0.0693 -0.3803 1.5287
C58 C -0.0092(7) -0.2996(4) 1.4030(5)
H49 H -0.0758 -0.2673 1.3976
C59 C 0.0884(7) -0.2821(4) 1.3338(4)
H50 H 0.0849 -0.2375 1.2821
C60 C 0.1905(7) -0.3276(4) 1.3376(4)
C61 C 0.1880(7) -0.3951(4) 1.4180(5)
C62 C 0.2935(7) -0.3029(4) 1.2621(4)
H51 H 0.2590 -0.2804 1.2133
H52 H 0.3333 -0.3517 1.2669
C63 C 0.3906(6) -0.2386(4) 1.2504(4)
C64 C 0.3793(6) -0.1551(4) 1.2024(4)
H53 H 0.3144 -0.1388 1.1754
C65 C 0.4639(7) -0.0956(4) 1.1944(4)
H54 H 0.4552 -0.0395 1.1614
C66 C 0.5597(7) -0.1162(4) 1.2334(4)
H55 H 0.6144 -0.0749 1.2282
C67 C 0.5748(6) -0.2002(5) 1.2812(4)
C68 C 0.4909(6) -0.2585(4) 1.2881(4)
C69 C 0.6795(5) -0.2253(4) 1.3272(4)
H56 H 0.7062 -0.2770 1.3309
H57 H 0.7508 -0.1828 1.2947
C70 C 0.7092(5) 0.2103(3) 1.5525(4)
H58 H 0.7457 0.2581 1.4990
H59 H 0.7651 0.1979 1.5886
H60 H 0.6303 0.2216 1.5771
N3 N 0.6129(5) -0.1159(3) 1.5409(4)
N4 N 0.6535(5) -0.0587(5) 1.4792(4)
O9 O 1.0105(8) 0.2561(5) 1.0678(5)
O11 O 0.9305(11) -0.1920(7) 1.5503(8)
O13 O 0.8417(11) 0.6555(6) 0.9150(7)
O14 O 0.9629(17) 0.2569(10) 1.1825(12)
O15 O 0.9748(18) 0.3811(11) 1.0279(12)
O10? O 0.9881(11) -0.0457(7) 1.4964(8)
O12? O 0.9312(13) -0.1191(9) 1.5780(9)
loop_
_geom_bond_atom_site_label_1
_geom_bond_atom_site_label_2
_geom_bond_site_symmetry_1
_geom_bond_site_symmetry_2
O1 H1 1_555 1_555
O2 H2 1_555 1_555
O3 H3 1_555 1_555
O4 H4 1_555 1_555
O5 H5 1_555 1_555
O6 H6 1_555 1_555
O7 H7 1_555 1_555
O8 H8 1_555 1_555
N1 N2 1_555 1_555
N2 C3 1_555 1_555
C1 H9 1_555 1_555
C2 C1 1_555 1_555
H10 C2 1_555 1_555
C3 C2 1_555 1_555
C4 C3 1_555 1_555
H11 C4 1_555 1_555
C5 C4 1_555 1_555
H12 C5 1_555 1_555
C6 C1 1_555 1_555
C7 N1 1_555 1_555
C8 C7 1_555 1_555
H13 C8 1_555 1_555
C9 C8 1_555 1_555
C10 O4 1_555 1_555
C11 C10 1_555 1_555
C12 C7 1_555 1_555
H14 C12 1_555 1_555
C13 C11 1_555 1_555
H15 C13 1_555 1_555
H16 C13 1_555 1_555
C14 C13 1_555 1_555
C15 O2 1_555 1_555
C16 C15 1_555 1_555
C17 C16 1_555 1_555
H17 C17 1_555 1_555
C18 C17 1_555 1_555
H18 C18 1_555 1_555
C19 C14 1_555 1_555
H19 C19 1_555 1_555
C20 C16 1_555 1_555
H20 C20 1_555 1_555
H21 C20 1_555 1_555
C21 C20 1_555 1_555
C22 C21 1_555 1_555
H22 C22 1_555 1_555
C23 C22 1_555 1_555
H23 C23 1_555 1_555
C24 C23 1_555 1_555
H24 C24 1_555 1_555
C25 C24 1_555 1_555
C26 O1 1_555 1_555
C27 C25 1_555 1_555
H25 C27 1_555 1_555
H26 C27 1_555 1_555
C28 C27 1_555 1_555
C29 C28 1_555 1_555
H27 C29 1_555 1_555
C30 C29 1_555 1_555
H28 C30 1_555 1_555
C31 C30 1_555 1_555
H29 C31 1_555 1_555
C32 C31 1_555 1_555
C33 O3 1_555 1_555
C34 C9 1_555 1_555
H30 C34 1_555 1_555
H31 C34 1_555 1_555
C35 C6 1_555 1_555
H32 C35 1_555 1_555
H33 C35 1_555 1_555
H34 C35 1_555 1_555
C36 C37 1_555 1_555
C37 H35 1_555 1_555
C38 C37 1_555 1_555
H36 C38 1_555 1_555
C39 C38 1_555 1_555
C40 C39 1_555 1_555
H37 C40 1_555 1_555
C41 C36 1_555 1_555
H38 C41 1_555 1_555
C42 C43 1_555 1_555
C43 H39 1_555 1_555
C44 C43 1_555 1_555
C45 O5 1_555 1_555
C46 C45 1_555 1_555
C47 C42 1_555 1_555
H40 C47 1_555 1_555
C48 C44 1_555 1_555
H41 C48 1_555 1_555
H42 C48 1_555 1_555
C49 H43 1_555 1_555
C50 C49 1_555 1_555
H44 C50 1_555 1_555
C51 C50 1_555 1_555
H45 C51 1_555 1_555
C52 C51 1_555 1_555
C53 O7 1_555 1_555
C54 C48 1_555 1_555
C55 C52 1_555 1_555
H46 C55 1_555 1_555
H47 C55 1_555 1_555
C56 C55 1_555 1_555
C57 C56 1_555 1_555
H48 C57 1_555 1_555
C58 C57 1_555 1_555
H49 C58 1_555 1_555
C59 C58 1_555 1_555
H50 C59 1_555 1_555
C60 C59 1_555 1_555
C61 O6 1_555 1_555
C62 C60 1_555 1_555
H51 C62 1_555 1_555
H52 C62 1_555 1_555
C63 C62 1_555 1_555
C64 C63 1_555 1_555
H53 C64 1_555 1_555
C65 C64 1_555 1_555
H54 C65 1_555 1_555
C66 C65 1_555 1_555
H55 C66 1_555 1_555
C67 C66 1_555 1_555
C68 O8 1_555 1_555
C69 C46 1_555 1_555
H56 C69 1_555 1_555
H57 C69 1_555 1_555
C70 C36 1_555 1_555
H58 C70 1_555 1_555
H59 C70 1_555 1_555
H60 C70 1_555 1_555
N3 C42 1_555 1_555
N4 C39 1_555 1_555
C5 C6 1_555 1_555
C9 C10 1_555 1_555
C11 C12 1_555 1_555
C14 C15 1_555 1_555
C18 C19 1_555 1_555
C21 C26 1_555 1_555
C25 C26 1_555 1_555
C28 C33 1_555 1_555
C32 C33 1_555 1_555
C32 C34 1_555 1_555
C40 C41 1_555 1_555
C44 C45 1_555 1_555
C46 C47 1_555 1_555
C49 C54 1_555 1_555
C52 C53 1_555 1_555
C53 C54 1_555 1_555
C56 C61 1_555 1_555
C60 C61 1_555 1_555
C63 C68 1_555 1_555
C67 C68 1_555 1_555
C67 C69 1_555 1_555
N3 N4 1_555 1_555

#END
