
#######################################################################
#
#                 Cambridge Crystallographic Data Centre
#                                CCDC 
#
#######################################################################
#
# If this CIF has been generated from an entry in the Cambridge 
# Structural Database, then it will include bibliographic, chemical, 
# crystal, experimental, refinement or atomic coordinate data resulting 
# from the CCDC's data processing and validation procedures.
#
#######################################################################

data_DOVLUW
_chemical_formula_moiety         'C32 H30 Ca2 F6 N4 O14 S2'
_chemical_name_systematic        
bis(\m~2~-2-((2-benzoylhydrazinylidene)methyl)-6-hydroxyphenolato)-dimethanol-bis(trifluoromethanesulfonato)-di-calcium
_symmetry_cell_setting           monoclinic
_symmetry_space_group_name_H-M   'P 21/n'
_symmetry_Int_Tables_number      14
_space_group_name_Hall           '-P 2yn'
loop_
_symmetry_equiv_pos_site_id
_symmetry_equiv_pos_as_xyz
1 x,y,z
2 1/2-x,1/2+y,1/2-z
3 -x,-y,-z
4 1/2+x,1/2-y,1/2+z
_cell_length_a                   10.6605(2)
_cell_length_b                   15.0299(3)
_cell_length_c                   12.9695(4)
_cell_angle_alpha                90
_cell_angle_beta                 105.361(1)
_cell_angle_gamma                90
_cell_volume                     2003.82
_exptl_crystal_colour            yellow
_exptl_crystal_description       needle
_cell_formula_units_Z            2
_exptl_crystal_recrystallization_method methanol
loop_
_atom_site_label
_atom_site_type_symbol
_atom_site_fract_x
_atom_site_fract_y
_atom_site_fract_z
Ca1 Ca 0.86780(4) 0.07800(3) 0.95818(4)
C1 C 0.8802(2) -0.08962(15) 1.13557(19)
O1 O 0.92857(14) -0.04044(10) 1.07076(13)
O2 O 1.06731(16) -0.17821(12) 1.16027(15)
H1 H 1.109(3) -0.214(2) 1.195(3)
C2 C 0.9506(2) -0.16441(16) 1.1851(2)
C3 C 0.9061(3) -0.21971(19) 1.2514(2)
H2 H 0.9550 -0.2699 1.2812
C4 C 0.7885(3) -0.2018(2) 1.2750(3)
H3 H 0.7574 -0.2394 1.3206
C5 C 0.7193(2) -0.12868(19) 1.2306(2)
H4 H 0.6409 -0.1156 1.2476
C6 C 0.7614(2) -0.07245(16) 1.1604(2)
C7 C 0.6765(2) 0.00172(17) 1.1186(2)
H5 H 0.6024 0.0083 1.1442
N1 N 0.69199(18) 0.05912(13) 1.05036(16)
N2 N 0.59695(19) 0.12533(15) 1.02556(18)
H6 H 0.549(3) 0.1251(18) 1.058(2)
C8 C 0.6114(2) 0.19050(17) 0.9595(2)
O3 O 0.70207(16) 0.18838(12) 0.91687(15)
C9 C 0.5179(2) 0.26665(17) 0.9420(2)
C10 C 0.4083(3) 0.2682(2) 0.9804(2)
H7 H 0.3876 0.2187 1.0171
C11 C 0.3296(3) 0.3424(2) 0.9646(3)
H8 H 0.2559 0.3437 0.9914
C12 C 0.3584(3) 0.4144(2) 0.9097(3)
H9 H 0.3037 0.4645 0.8984
C13 C 0.4670(3) 0.4135(2) 0.8712(3)
H10 H 0.4869 0.4629 0.8339
C14 C 0.5463(3) 0.3395(2) 0.8878(2)
H11 H 0.6206 0.3387 0.8618
O4 O 0.9813(2) 0.16841(13) 1.10272(17)
H12 H 1.031(4) 0.141(3) 1.144(3)
C15 C 1.0068(3) 0.2600(2) 1.1082(3)
H13 H 1.0760 0.2728 1.0746
H14 H 1.0333 0.2784 1.1825
H15 H 0.9289 0.2920 1.0714
S1 S 0.67742(6) -0.08520(4) 0.78167(5)
O5 O 0.78712(18) -0.02730(14) 0.81589(16)
O6 O 0.71204(17) -0.17337(12) 0.75705(16)
O7 O 0.58636(18) -0.08154(12) 0.84432(17)
C16 C 0.5913(3) -0.0400(2) 0.6532(3)
F1 F 0.5507(3) 0.04065(16) 0.66338(19)
F2 F 0.4883(2) -0.08873(17) 0.60985(18)
F3 F 0.6636(2) -0.03717(18) 0.58681(16)
Ca1B Ca 1.13220(4) -0.07800(3) 1.04182(4)
C1B C 1.1198(2) 0.08962(15) 0.86443(19)
O1B O 1.07143(14) 0.04044(10) 0.92924(13)
O2B O 0.93269(16) 0.17821(12) 0.83973(15)
H1B H 0.891(3) 0.214(2) 0.805(3)
C2B C 1.0494(2) 0.16441(16) 0.8149(2)
C3B C 1.0939(3) 0.21971(19) 0.7486(2)
H2B H 1.0450 0.2699 0.7188
C4B C 1.2115(3) 0.2018(2) 0.7250(3)
H3B H 1.2426 0.2394 0.6794
C5B C 1.2807(2) 0.12868(19) 0.7694(2)
H4B H 1.3591 0.1156 0.7524
C6B C 1.2386(2) 0.07245(16) 0.8396(2)
C7B C 1.3235(2) -0.00172(17) 0.8814(2)
H5B H 1.3976 -0.0083 0.8558
N1B N 1.30801(18) -0.05912(13) 0.94964(16)
N2B N 1.40305(19) -0.12533(15) 0.97444(18)
H6B H 1.451(3) -0.1251(18) 0.942(2)
C8B C 1.3886(2) -0.19050(17) 1.0405(2)
O3B O 1.29793(16) -0.18838(12) 1.08313(15)
C9B C 1.4821(2) -0.26665(17) 1.0580(2)
C10B C 1.5917(3) -0.2682(2) 1.0196(2)
H7B H 1.6124 -0.2187 0.9829
C11B C 1.6704(3) -0.3424(2) 1.0354(3)
H8B H 1.7441 -0.3437 1.0086
C12B C 1.6416(3) -0.4144(2) 1.0903(3)
H9B H 1.6963 -0.4645 1.1016
C13B C 1.5330(3) -0.4135(2) 1.1288(3)
H10B H 1.5131 -0.4629 1.1661
C14B C 1.4537(3) -0.3395(2) 1.1122(2)
H11B H 1.3794 -0.3387 1.1382
O4B O 1.0187(2) -0.16841(13) 0.89728(17)
H12B H 0.969(4) -0.141(3) 0.856(3)
C15B C 0.9932(3) -0.2600(2) 0.8918(3)
H13B H 0.9240 -0.2728 0.9254
H14B H 0.9667 -0.2784 0.8175
H15B H 1.0711 -0.2920 0.9286
S1B S 1.32258(6) 0.08520(4) 1.21833(5)
O5B O 1.21288(18) 0.02730(14) 1.18411(16)
O6B O 1.28796(17) 0.17337(12) 1.24295(16)
O7B O 1.41364(18) 0.08154(12) 1.15568(17)
C16B C 1.4087(3) 0.0400(2) 1.3468(3)
F1B F 1.4493(3) -0.04065(16) 1.33662(19)
F2B F 1.5117(2) 0.08873(17) 1.39015(18)
F3B F 1.3364(2) 0.03717(18) 1.41319(16)
loop_
_geom_bond_atom_site_label_1
_geom_bond_atom_site_label_2
_geom_bond_site_symmetry_1
_geom_bond_site_symmetry_2
Ca1 O1 1_555 1_555
C1 O1 1_555 1_555
O1 Ca1B 1_555 1_555
O2 H1 1_555 1_555
C2 C1 1_555 1_555
C3 C2 1_555 1_555
H2 C3 1_555 1_555
C4 C3 1_555 1_555
H3 C4 1_555 1_555
C5 C4 1_555 1_555
H4 C5 1_555 1_555
C6 C1 1_555 1_555
C7 C6 1_555 1_555
H5 C7 1_555 1_555
N1 Ca1 1_555 1_555
N2 N1 1_555 1_555
H6 N2 1_555 1_555
C8 N2 1_555 1_555
O3 Ca1 1_555 1_555
C9 C8 1_555 1_555
C10 C9 1_555 1_555
H7 C10 1_555 1_555
C11 C10 1_555 1_555
H8 C11 1_555 1_555
C12 C11 1_555 1_555
H9 C12 1_555 1_555
C13 C12 1_555 1_555
H10 C13 1_555 1_555
C14 C9 1_555 1_555
H11 C14 1_555 1_555
O4 Ca1 1_555 1_555
H12 O4 1_555 1_555
C15 O4 1_555 1_555
H13 C15 1_555 1_555
H14 C15 1_555 1_555
H15 C15 1_555 1_555
S1 O5 1_555 1_555
O5 Ca1 1_555 1_555
O6 S1 1_555 1_555
O7 S1 1_555 1_555
C16 S1 1_555 1_555
F1 C16 1_555 1_555
F2 C16 1_555 1_555
F3 C16 1_555 1_555
Ca1B O2 1_555 1_555
C1B O1B 1_555 1_555
O1B Ca1 1_555 1_555
O2B Ca1 1_555 1_555
H1B O2B 1_555 1_555
C2B C1B 1_555 1_555
C3B C2B 1_555 1_555
H2B C3B 1_555 1_555
C4B C3B 1_555 1_555
H3B C4B 1_555 1_555
C5B C4B 1_555 1_555
H4B C5B 1_555 1_555
C6B C1B 1_555 1_555
C7B C6B 1_555 1_555
H5B C7B 1_555 1_555
N1B Ca1B 1_555 1_555
N2B N1B 1_555 1_555
H6B N2B 1_555 1_555
C8B N2B 1_555 1_555
O3B Ca1B 1_555 1_555
C9B C8B 1_555 1_555
C10B C9B 1_555 1_555
H7B C10B 1_555 1_555
C11B C10B 1_555 1_555
H8B C11B 1_555 1_555
C12B C11B 1_555 1_555
H9B C12B 1_555 1_555
C13B C12B 1_555 1_555
H10B C13B 1_555 1_555
C14B C9B 1_555 1_555
H11B C14B 1_555 1_555
O4B Ca1B 1_555 1_555
H12B O4B 1_555 1_555
C15B O4B 1_555 1_555
H13B C15B 1_555 1_555
H14B C15B 1_555 1_555
H15B C15B 1_555 1_555
S1B O5B 1_555 1_555
O5B Ca1B 1_555 1_555
O6B S1B 1_555 1_555
O7B S1B 1_555 1_555
C16B S1B 1_555 1_555
F1B C16B 1_555 1_555
F2B C16B 1_555 1_555
F3B C16B 1_555 1_555
O2 C2 1_555 1_555
C5 C6 1_555 1_555
C7 N1 1_555 1_555
C8 O3 1_555 1_555
C13 C14 1_555 1_555
Ca1B O1B 1_555 1_555
O2B C2B 1_555 1_555
C5B C6B 1_555 1_555
C7B N1B 1_555 1_555
C8B O3B 1_555 1_555
C13B C14B 1_555 1_555

#END
