
#######################################################################
#
#                 Cambridge Crystallographic Data Centre
#                                CCDC 
#
#######################################################################
#
# If this CIF has been generated from an entry in the Cambridge 
# Structural Database, then it will include bibliographic, chemical, 
# crystal, experimental, refinement or atomic coordinate data resulting 
# from the CCDC's data processing and validation procedures.
#
#######################################################################

data_DOVNEI
_chemical_formula_moiety         'C10 H25 Cl1 F4 N3 Si1 1+,F5 Si1 1-'
_chemical_name_systematic        
'pentafluoro-silicon(iv) (N-(chloromethyl)-2-([2-(dimethylamino)ethyl](methyl)amino)-N,N-dimethylethanaminium)-tetrafluoro-silicon(iv)'
_symmetry_cell_setting           triclinic
_symmetry_space_group_name_H-M   'P -1'
_symmetry_Int_Tables_number      2
_space_group_name_Hall           '-P 1'
loop_
_symmetry_equiv_pos_site_id
_symmetry_equiv_pos_as_xyz
1 x,y,z
2 -x,-y,-z
_cell_length_a                   6.9707(15)
_cell_length_b                   11.533(2)
_cell_length_c                   12.264(2)
_cell_angle_alpha                107.672(10)
_cell_angle_beta                 95.625(10)
_cell_angle_gamma                98.336(10)
_cell_volume                     918.881
_exptl_crystal_colour            colorless
_exptl_crystal_description       needle
_cell_formula_units_Z            2
loop_
_atom_site_label
_atom_site_type_symbol
_atom_site_fract_x
_atom_site_fract_y
_atom_site_fract_z
Cl1 Cl 0.4675(2) 0.59109(14) 0.15526(13)
Si1 Si 0.64058(19) 0.23045(11) 0.43106(11)
F1 F 0.7459(5) 0.1882(3) 0.5342(2)
F2 F 0.6182(4) 0.3688(2) 0.5155(2)
F3 F 0.4189(4) 0.1668(3) 0.4413(2)
F4 F 0.8506(4) 0.2894(2) 0.3993(2)
N1 N 0.6640(6) 0.0675(4) 0.3146(4)
N2 N 0.5018(6) 0.2683(4) 0.2922(3)
N3 N 0.7986(6) 0.5744(4) 0.2825(3)
C1 C 0.8649(9) 0.0395(6) 0.3264(6)
H1 H 0.8943 0.0249 0.4004
H2 H 0.9600 0.1098 0.3238
H3 H 0.8731 -0.0345 0.2627
C2 C 0.5281(9) -0.0413(4) 0.3253(5)
H4 H 0.5504 -0.1179 0.2701
H5 H 0.3918 -0.0321 0.3086
H6 H 0.5537 -0.0447 0.4042
C3 C 0.6140(9) 0.0775(5) 0.1959(4)
H7 H 0.7284 0.1236 0.1753
H8 H 0.5777 -0.0060 0.1375
C4 C 0.4455(10) 0.1446(5) 0.1984(5)
H9 H 0.3288 0.0955 0.2139
H10 H 0.4128 0.1564 0.1226
C5 C 0.3175(8) 0.3170(5) 0.3191(6)
H11 H 0.3483 0.3905 0.3884
H12 H 0.2232 0.2532 0.3329
H13 H 0.2606 0.3392 0.2536
C6 C 0.6224(8) 0.3541(4) 0.2442(4)
H14 H 0.5474 0.3561 0.1721
H15 H 0.7433 0.3222 0.2244
C7 C 0.6779(8) 0.4853(4) 0.3301(4)
H16 H 0.5567 0.5164 0.3506
H17 H 0.7538 0.4830 0.4018
C8 C 1.0036(8) 0.5471(5) 0.2729(5)
H18 H 0.9966 0.4667 0.2137
H19 H 1.0647 0.5451 0.3476
H20 H 1.0823 0.6119 0.2512
C9 C 0.8153(8) 0.7021(4) 0.3663(4)
H21 H 0.9031 0.7611 0.3424
H22 H 0.8683 0.7037 0.4439
H23 H 0.6853 0.7250 0.3675
C10 C 0.7125(8) 0.5689(5) 0.1633(4)
H24 H 0.7186 0.4873 0.1077
H25 H 0.7926 0.6333 0.1404
Si2 Si 0.0426(2) 0.77899(14) 0.03130(12)
F5 F 0.1041(8) 0.6457(4) 0.0115(4)
F6 F 0.2045(9) 0.8970(4) 0.0551(4)
F7 F -0.1863(6) 0.7814(5) 0.0268(4)
F8 F 0.0587(6) 0.7978(4) 0.1712(3)
F9 F 0.0250(6) 0.7567(4) -0.1090(3)
loop_
_geom_bond_atom_site_label_1
_geom_bond_atom_site_label_2
_geom_bond_site_symmetry_1
_geom_bond_site_symmetry_2
Cl1 C10 1_555 1_555
Si1 F1 1_555 1_555
F2 Si1 1_555 1_555
F3 Si1 1_555 1_555
F4 Si1 1_555 1_555
N1 Si1 1_555 1_555
N2 Si1 1_555 1_555
N3 C7 1_555 1_555
C1 N1 1_555 1_555
H1 C1 1_555 1_555
H2 C1 1_555 1_555
H3 C1 1_555 1_555
C2 N1 1_555 1_555
H4 C2 1_555 1_555
H5 C2 1_555 1_555
H6 C2 1_555 1_555
C3 N1 1_555 1_555
H7 C3 1_555 1_555
H8 C3 1_555 1_555
C4 N2 1_555 1_555
H9 C4 1_555 1_555
H10 C4 1_555 1_555
C5 N2 1_555 1_555
H11 C5 1_555 1_555
H12 C5 1_555 1_555
H13 C5 1_555 1_555
C6 N2 1_555 1_555
H14 C6 1_555 1_555
H15 C6 1_555 1_555
C7 C6 1_555 1_555
H16 C7 1_555 1_555
H17 C7 1_555 1_555
C8 N3 1_555 1_555
H18 C8 1_555 1_555
H19 C8 1_555 1_555
H20 C8 1_555 1_555
C9 N3 1_555 1_555
H21 C9 1_555 1_555
H22 C9 1_555 1_555
H23 C9 1_555 1_555
C10 N3 1_555 1_555
H24 C10 1_555 1_555
H25 C10 1_555 1_555
Si2 F5 1_555 1_555
F6 Si2 1_555 1_555
F7 Si2 1_555 1_555
F8 Si2 1_555 1_555
F9 Si2 1_555 1_555
C3 C4 1_555 1_555

#END
