
#######################################################################
#
#                 Cambridge Crystallographic Data Centre
#                                CCDC 
#
#######################################################################
#
# If this CIF has been generated from an entry in the Cambridge 
# Structural Database, then it will include bibliographic, chemical, 
# crystal, experimental, refinement or atomic coordinate data resulting 
# from the CCDC's data processing and validation procedures.
#
#######################################################################

data_DOVPEK
_chemical_formula_moiety         'C25 H21 Cl1'
_chemical_name_systematic        
8a-(4-Chlorophenyl)-1-isopropylidene-3-phenyl-1,8a-dihydroazulene
_symmetry_cell_setting           monoclinic
_symmetry_space_group_name_H-M   'P 21/c'
_symmetry_Int_Tables_number      14
_space_group_name_Hall           '-P 2ybc'
loop_
_symmetry_equiv_pos_site_id
_symmetry_equiv_pos_as_xyz
1 x,y,z
2 -x,1/2+y,1/2-z
3 -x,-y,-z
4 x,1/2-y,1/2+z
_cell_length_a                   11.1389(13)
_cell_length_b                   13.3200(16)
_cell_length_c                   12.4925(15)
_cell_angle_alpha                90
_cell_angle_beta                 91.325(2)
_cell_angle_gamma                90
_cell_volume                     1853.02
_exptl_crystal_colour            yellow
_exptl_crystal_description       prism
_cell_formula_units_Z            4
loop_
_atom_site_label
_atom_site_type_symbol
_atom_site_fract_x
_atom_site_fract_y
_atom_site_fract_z
Cl1 Cl 1.37070(4) 0.05822(4) 0.36105(5)
C1 C 0.83940(15) 0.26617(13) 0.21441(15)
C2 C 0.91508(16) 0.28423(15) 0.12595(17)
C3 C 0.92502(18) 0.22642(15) 0.03863(18)
C4 C 0.86116(16) 0.13468(14) 0.01944(17)
C5 C 0.82425(15) 0.06951(14) 0.09215(16)
C6 C 0.85051(13) 0.07533(11) 0.21086(14)
C7 C 0.79947(13) 0.17599(12) 0.24834(13)
C8 C 0.70945(13) 0.15564(12) 0.32812(14)
C9 C 0.70029(14) 0.05490(13) 0.34296(15)
C10 C 0.77790(13) -0.00113(12) 0.27434(14)
C11 C 0.78311(13) -0.10195(12) 0.26347(15)
C12 C 0.85841(16) -0.15358(13) 0.18271(17)
H1 H 0.8076 -0.1802 0.1265
H2 H 0.9024 -0.2073 0.2166
H3 H 0.9137 -0.1064 0.1531
C13 C 0.71084(16) -0.17221(13) 0.33042(18)
H4 H 0.6578 -0.1341 0.3743
H5 H 0.7639 -0.2115 0.3753
H6 H 0.6645 -0.2160 0.2845
C14 C 0.98457(13) 0.06842(10) 0.24474(14)
C15 C 1.07645(15) 0.05845(12) 0.17396(17)
C16 C 1.19534(15) 0.05389(14) 0.21005(18)
C17 C 1.22101(14) 0.05994(12) 0.31704(17)
C18 C 1.13193(15) 0.06828(12) 0.39049(16)
H7 H 1.1503 0.0710 0.4634
C19 C 1.01357(15) 0.07250(12) 0.35327(15)
C20 C 0.63510(13) 0.23129(12) 0.38212(14)
C21 C 0.60726(15) 0.22071(15) 0.48870(16)
C22 C 0.53422(17) 0.28884(16) 0.53902(19)
C23 C 0.48658(16) 0.36850(15) 0.48258(18)
H8 H 0.4361 0.4137 0.5160
C24 C 0.51341(16) 0.38127(15) 0.37730(19)
C25 C 0.58732(16) 0.31400(14) 0.32689(17)
H9 H 0.8133(12) 0.3239(11) 0.2573(12)
H10 H 0.9532(14) 0.3456(13) 0.1294(14)
H11 H 0.9698(16) 0.2494(13) -0.0193(15)
H12 H 0.8411(14) 0.1216(12) -0.0557(15)
H13 H 0.7755(14) 0.0150(12) 0.0721(14)
H14 H 0.6445(14) 0.0232(12) 0.3919(14)
H15 H 1.0579(13) 0.0531(11) 0.0992(14)
H16 H 1.2558(14) 0.0491(11) 0.1603(14)
H17 H 0.9514(13) 0.0798(10) 0.4063(12)
H18 H 0.6379(13) 0.1654(12) 0.5298(13)
H19 H 0.5191(17) 0.2799(14) 0.6156(17)
H20 H 0.4818(15) 0.4369(13) 0.3332(15)
H21 H 0.6057(14) 0.3244(12) 0.2536(14)
loop_
_geom_bond_atom_site_label_1
_geom_bond_atom_site_label_2
_geom_bond_site_symmetry_1
_geom_bond_site_symmetry_2
Cl1 C17 1_555 1_555
C1 C2 1_555 1_555
C2 C3 1_555 1_555
C3 C4 1_555 1_555
C4 C5 1_555 1_555
C5 C6 1_555 1_555
C6 C7 1_555 1_555
C7 C1 1_555 1_555
C8 C7 1_555 1_555
C9 C8 1_555 1_555
C10 C6 1_555 1_555
C11 C10 1_555 1_555
C12 C11 1_555 1_555
H1 C12 1_555 1_555
H2 C12 1_555 1_555
H3 C12 1_555 1_555
C13 C11 1_555 1_555
H4 C13 1_555 1_555
H5 C13 1_555 1_555
H6 C13 1_555 1_555
C14 C6 1_555 1_555
C15 C14 1_555 1_555
C16 C15 1_555 1_555
C17 C16 1_555 1_555
C18 C17 1_555 1_555
H7 C18 1_555 1_555
C19 C14 1_555 1_555
C20 C8 1_555 1_555
C21 C20 1_555 1_555
C22 C21 1_555 1_555
C23 C22 1_555 1_555
H8 C23 1_555 1_555
C24 C23 1_555 1_555
C25 C20 1_555 1_555
H9 C1 1_555 1_555
H10 C2 1_555 1_555
H11 C3 1_555 1_555
H12 C4 1_555 1_555
H13 C5 1_555 1_555
H14 C9 1_555 1_555
H15 C15 1_555 1_555
H16 C16 1_555 1_555
H17 C19 1_555 1_555
H18 C21 1_555 1_555
H19 C22 1_555 1_555
H20 C24 1_555 1_555
H21 C25 1_555 1_555
C9 C10 1_555 1_555
C18 C19 1_555 1_555
C24 C25 1_555 1_555

#END
