
#######################################################################
#
#                 Cambridge Crystallographic Data Centre
#                                CCDC 
#
#######################################################################
#
# If this CIF has been generated from an entry in the Cambridge 
# Structural Database, then it will include bibliographic, chemical, 
# crystal, experimental, refinement or atomic coordinate data resulting 
# from the CCDC's data processing and validation procedures.
#
#######################################################################

data_DOVTOY
_chemical_compound_source        'Chamaecyparis formosensis Matsumura'
_chemical_name_common            "7,7'-(S)-dihydrotaiwanin C"
_chemical_formula_moiety         'C20 H14 O6'
_chemical_name_systematic        
5-(1,3-Benzodioxol-5-yl)-5,9-dihydrofuro[3',4':6,7]naphtho[2,3-d][1,3]dioxol-6(8H)-one
_chemical_properties_biological  'Significant cytotoxic activity'
_symmetry_cell_setting           triclinic
_symmetry_space_group_name_H-M   'P -1'
_symmetry_Int_Tables_number      2
_space_group_name_Hall           '-P 1'
loop_
_symmetry_equiv_pos_site_id
_symmetry_equiv_pos_as_xyz
1 x,y,z
2 -x,-y,-z
_cell_length_a                   7.9503(11)
_cell_length_b                   9.5256(13)
_cell_length_c                   11.0575(15)
_cell_angle_alpha                83.566(3)
_cell_angle_beta                 78.587(3)
_cell_angle_gamma                70.704(2)
_cell_volume                     773.743
_exptl_crystal_colour            colorless
_exptl_crystal_description       parallelepiped
_chemical_melting_point          '245-246 deg.C'
_cell_formula_units_Z            2
loop_
_atom_site_label
_atom_site_type_symbol
_atom_site_fract_x
_atom_site_fract_y
_atom_site_fract_z
O1 O 0.10660(18) 1.13253(14) 0.90812(12)
O2 O 0.38070(18) 0.97600(15) 0.83833(13)
O3 O -0.0200(2) 0.63311(16) 0.36968(12)
O4 O -0.3219(2) 0.77115(17) 0.42431(13)
O5 O 0.21405(19) 0.43799(15) 1.00943(13)
O6 O 0.51070(19) 0.30727(15) 0.93355(14)
C1 C -0.1455(2) 0.91964(18) 0.65008(15)
C2 C -0.2758(2) 0.9028(2) 0.58892(17)
H1 H -0.3972 0.9581 0.6097
C3 C -0.2203(3) 0.8035(2) 0.49831(16)
C4 C -0.0404(3) 0.72156(19) 0.46560(15)
C5 C 0.0897(2) 0.73529(19) 0.52256(15)
H2 H 0.2105 0.6798 0.4994
C6 C 0.0363(2) 0.83595(17) 0.61755(14)
C7 C -0.2101(2) 1.03397(19) 0.74741(17)
H3 H -0.2767 1.1291 0.7119
H4 H -0.2921 1.0041 0.8146
C8 C -0.0592(2) 1.05164(17) 0.79685(15)
C9 C -0.0752(2) 1.16300(19) 0.88690(16)
H5 H -0.1218 1.2637 0.8526
H6 H -0.1547 1.1504 0.9631
C10 C -0.1990(3) 0.6525(2) 0.3523(2)
H7 H -0.2286 0.5613 0.3776
H8 H -0.2083 0.6754 0.2657
C11 C 0.2782(2) 0.69798(17) 0.74499(14)
C12 C 0.1829(2) 0.64253(18) 0.84910(15)
H9 H 0.0625 0.6930 0.8793
C13 C 0.2744(2) 0.51067(18) 0.90477(15)
C14 C 0.4516(2) 0.43358(18) 0.85982(16)
C15 C 0.5466(3) 0.4835(2) 0.75748(18)
H10 H 0.6660 0.4307 0.7269
C16 C 0.4552(2) 0.6182(2) 0.70092(17)
H11 H 0.5160 0.6556 0.6308
C17 C 0.1852(2) 0.84608(17) 0.68100(15)
H12 H 0.2769 0.8706 0.6168
C18 C 0.1129(2) 0.96962(17) 0.76794(15)
C19 C 0.2211(2) 1.01889(19) 0.83650(16)
C20 C 0.3585(3) 0.3036(2) 1.02435(19)
H13 H 0.3884 0.2954 1.1063
H14 H 0.3226 0.2182 1.0146
loop_
_geom_bond_atom_site_label_1
_geom_bond_atom_site_label_2
_geom_bond_site_symmetry_1
_geom_bond_site_symmetry_2
O1 C9 1_555 1_555
O2 C19 1_555 1_555
O3 C4 1_555 1_555
O4 C3 1_555 1_555
O5 C13 1_555 1_555
O6 C14 1_555 1_555
C1 C2 1_555 1_555
C2 H1 1_555 1_555
C3 C2 1_555 1_555
C4 C3 1_555 1_555
C5 C4 1_555 1_555
H2 C5 1_555 1_555
C6 C1 1_555 1_555
C7 C1 1_555 1_555
H3 C7 1_555 1_555
H4 C7 1_555 1_555
C8 C7 1_555 1_555
C9 C8 1_555 1_555
H5 C9 1_555 1_555
H6 C9 1_555 1_555
C10 O3 1_555 1_555
H7 C10 1_555 1_555
H8 C10 1_555 1_555
C11 C12 1_555 1_555
C12 H9 1_555 1_555
C13 C12 1_555 1_555
C14 C13 1_555 1_555
C15 C14 1_555 1_555
H10 C15 1_555 1_555
C16 C11 1_555 1_555
H11 C16 1_555 1_555
C17 C6 1_555 1_555
H12 C17 1_555 1_555
C18 C8 1_555 1_555
C19 O1 1_555 1_555
C20 O5 1_555 1_555
H13 C20 1_555 1_555
H14 C20 1_555 1_555
O4 C10 1_555 1_555
O6 C20 1_555 1_555
C5 C6 1_555 1_555
C11 C17 1_555 1_555
C15 C16 1_555 1_555
C17 C18 1_555 1_555
C18 C19 1_555 1_555

#END
