
#######################################################################
#
#                 Cambridge Crystallographic Data Centre
#                                CCDC 
#
#######################################################################
#
# If this CIF has been generated from an entry in the Cambridge 
# Structural Database, then it will include bibliographic, chemical, 
# crystal, experimental, refinement or atomic coordinate data resulting 
# from the CCDC's data processing and validation procedures.
#
#######################################################################

data_DOVWAO
_chemical_formula_moiety         'C27 H40 N4 O1'
_chemical_name_systematic        
2-(2H-benzotriazol-2-yl)-6-((diisopropylamino)methyl)-4-(2,4,4-trimethylpentan-2-yl)phenol
_symmetry_cell_setting           monoclinic
_symmetry_space_group_name_H-M   'C 2/c'
_symmetry_Int_Tables_number      15
_space_group_name_Hall           '-C 2yn'
loop_
_symmetry_equiv_pos_site_id
_symmetry_equiv_pos_as_xyz
1 x,y,z
2 -x,y,1/2-z
3 1/2+x,1/2+y,z
4 1/2-x,1/2+y,1/2-z
5 -x,-y,-z
6 x,-y,1/2+z
7 1/2-x,1/2-y,-z
8 1/2+x,1/2-y,1/2+z
_cell_length_a                   12.1385(2)
_cell_length_b                   10.0974(2)
_cell_length_c                   41.5355(7)
_cell_angle_alpha                90
_cell_angle_beta                 92.4890(10)
_cell_angle_gamma                90
_cell_volume                     5086.09
_exptl_crystal_colour            colorless
_exptl_crystal_description       lamellar
_cell_formula_units_Z            8
_exptl_crystal_recrystallization_method acetonitrile
loop_
_atom_site_label
_atom_site_type_symbol
_atom_site_fract_x
_atom_site_fract_y
_atom_site_fract_z
O1 O 0.60673(7) 0.86920(8) 0.31888(2)
H1 H 0.6109 0.7867 0.3212
N1 N 0.65927(8) 1.13626(10) 0.32634(2)
N2 N 0.60931(8) 0.64156(10) 0.34965(2)
N3 N 0.60223(8) 1.14021(10) 0.29815(2)
C1 C 0.82220(10) 1.38292(13) 0.25491(3)
H2 H 0.8749 1.4388 0.2455
C2 C 0.83968(10) 1.34392(12) 0.28628(3)
H3 H 0.9030 1.3712 0.2988
C3 C 0.75834(9) 1.26066(11) 0.29917(3)
N4 N 0.75320(8) 1.20595(10) 0.32889(2)
C4 C 0.62274(9) 1.05941(11) 0.35279(3)
C5 C 0.61992(9) 1.11718(11) 0.38317(3)
H4 H 0.6400 1.2076 0.3859
C6 C 0.58805(9) 1.04439(11) 0.40966(3)
C7 C 0.59297(10) 1.10096(12) 0.44390(3)
C8 C 0.67612(10) 1.02305(13) 0.46648(3)
H5 H 0.6755 1.0670 0.4878
H6 H 0.6439 0.9339 0.4693
C9 C 0.79905(10) 1.00112(14) 0.45929(3)
C10 C 0.81362(12) 0.91093(18) 0.43005(4)
H7 H 0.7870 0.9567 0.4104
H8 H 0.7713 0.8292 0.4326
H9 H 0.8919 0.8892 0.4284
C11 C 0.55489(9) 0.91264(12) 0.40410(3)
H10 H 0.5296 0.8623 0.4216
C12 C 0.55763(9) 0.85333(11) 0.37405(3)
C13 C 0.52480(9) 0.71021(11) 0.36823(3)
H11 H 0.5170 0.6649 0.3891
H12 H 0.4527 0.7067 0.3562
C14 C 0.71622(10) 0.62811(12) 0.36840(3)
H13 H 0.7291 0.7137 0.3801
C15 C 0.71772(13) 0.51915(15) 0.39392(4)
H14 H 0.6558 0.5319 0.4080
H15 H 0.7872 0.5231 0.4068
H16 H 0.7110 0.4326 0.3834
C16 C 0.81089(11) 0.61132(15) 0.34585(4)
H17 H 0.8042 0.5254 0.3350
H18 H 0.8812 0.6154 0.3583
H19 H 0.8081 0.6824 0.3298
C17 C 0.57069(10) 0.51850(12) 0.33261(3)
H20 H 0.6363 0.4592 0.3312
C18 C 0.48237(12) 0.43975(14) 0.34943(4)
H21 H 0.5065 0.4240 0.3719
H22 H 0.4707 0.3547 0.3384
H23 H 0.4132 0.4900 0.3487
C19 C 0.53243(12) 0.55248(14) 0.29807(3)
H24 H 0.4686 0.6118 0.2984
H25 H 0.5117 0.4710 0.2865
H26 H 0.5924 0.5964 0.2872
C20 C 0.59514(9) 0.92676(11) 0.34781(3)
C21 C 0.47889(10) 1.08528(14) 0.45844(3)
H27 H 0.4232 1.1314 0.4448
H28 H 0.4809 1.1234 0.4802
H29 H 0.4601 0.9911 0.4596
C22 C 0.85012(12) 0.92968(15) 0.48905(3)
H30 H 0.9282 0.9118 0.4858
H31 H 0.8113 0.8459 0.4922
H32 H 0.8434 0.9858 0.5081
C23 C 0.86383(12) 1.12908(17) 0.45460(4)
H33 H 0.9430 1.1095 0.4554
H34 H 0.8476 1.1919 0.4717
H35 H 0.8425 1.1679 0.4336
C24 C 0.61911(11) 1.24987(12) 0.44441(3)
H36 H 0.6909 1.2650 0.4351
H37 H 0.6211 1.2819 0.4667
H38 H 0.5619 1.2977 0.4317
C25 C 0.66499(9) 1.21950(12) 0.28020(3)
C26 C 0.64900(10) 1.26040(13) 0.24767(3)
H39 H 0.5870 1.2323 0.2347
C27 C 0.72744(10) 1.34227(14) 0.23593(3)
H40 H 0.7185 1.3732 0.2144
loop_
_geom_bond_atom_site_label_1
_geom_bond_atom_site_label_2
_geom_bond_site_symmetry_1
_geom_bond_site_symmetry_2
O1 H1 1_555 1_555
N1 N3 1_555 1_555
N2 C13 1_555 1_555
N3 C25 1_555 1_555
C1 H2 1_555 1_555
C2 C1 1_555 1_555
H3 C2 1_555 1_555
C3 C2 1_555 1_555
N4 N1 1_555 1_555
C4 N1 1_555 1_555
C5 C4 1_555 1_555
H4 C5 1_555 1_555
C6 C5 1_555 1_555
C7 C6 1_555 1_555
C8 C7 1_555 1_555
H5 C8 1_555 1_555
H6 C8 1_555 1_555
C9 C8 1_555 1_555
C10 C9 1_555 1_555
H7 C10 1_555 1_555
H8 C10 1_555 1_555
H9 C10 1_555 1_555
C11 C6 1_555 1_555
H10 C11 1_555 1_555
C12 C11 1_555 1_555
C13 C12 1_555 1_555
H11 C13 1_555 1_555
H12 C13 1_555 1_555
C14 N2 1_555 1_555
H13 C14 1_555 1_555
C15 C14 1_555 1_555
H14 C15 1_555 1_555
H15 C15 1_555 1_555
H16 C15 1_555 1_555
C16 C14 1_555 1_555
H17 C16 1_555 1_555
H18 C16 1_555 1_555
H19 C16 1_555 1_555
C17 N2 1_555 1_555
H20 C17 1_555 1_555
C18 C17 1_555 1_555
H21 C18 1_555 1_555
H22 C18 1_555 1_555
H23 C18 1_555 1_555
C19 C17 1_555 1_555
H24 C19 1_555 1_555
H25 C19 1_555 1_555
H26 C19 1_555 1_555
C20 O1 1_555 1_555
C21 C7 1_555 1_555
H27 C21 1_555 1_555
H28 C21 1_555 1_555
H29 C21 1_555 1_555
C22 C9 1_555 1_555
H30 C22 1_555 1_555
H31 C22 1_555 1_555
H32 C22 1_555 1_555
C23 C9 1_555 1_555
H33 C23 1_555 1_555
H34 C23 1_555 1_555
H35 C23 1_555 1_555
C24 C7 1_555 1_555
H36 C24 1_555 1_555
H37 C24 1_555 1_555
H38 C24 1_555 1_555
C25 C3 1_555 1_555
C26 C25 1_555 1_555
H39 C26 1_555 1_555
C27 C1 1_555 1_555
H40 C27 1_555 1_555
C3 N4 1_555 1_555
C4 C20 1_555 1_555
C12 C20 1_555 1_555
C26 C27 1_555 1_555

#END
