
#######################################################################
#
#                 Cambridge Crystallographic Data Centre
#                                CCDC 
#
#######################################################################
#
# If this CIF has been generated from an entry in the Cambridge 
# Structural Database, then it will include bibliographic, chemical, 
# crystal, experimental, refinement or atomic coordinate data resulting 
# from the CCDC's data processing and validation procedures.
#
#######################################################################

data_DOVYOE01
_chemical_formula_moiety         'C10 H10 I1 N2 1+,Cl1 O4 1-'
_chemical_name_systematic        'bis(pyridine)iodonium perchlorate'
_symmetry_cell_setting           monoclinic
_symmetry_space_group_name_H-M   'P 21/n'
_symmetry_Int_Tables_number      14
_space_group_name_Hall           '-P 2yn'
loop_
_symmetry_equiv_pos_site_id
_symmetry_equiv_pos_as_xyz
1 x,y,z
2 1/2-x,1/2+y,1/2-z
3 -x,-y,-z
4 1/2+x,1/2-y,1/2+z
_cell_length_a                   12.2849(4)
_cell_length_b                   16.0628(3)
_cell_length_c                   14.7939(4)
_cell_angle_alpha                90
_cell_angle_beta                 113.273(3)
_cell_angle_gamma                90
_cell_volume                     2681.74
_exptl_crystal_colour            yellow
_exptl_crystal_description       plate
_cell_formula_units_Z            8
_chemical_properties_physical    Moisture-sensitive
loop_
_atom_site_label
_atom_site_type_symbol
_atom_site_fract_x
_atom_site_fract_y
_atom_site_fract_z
I1 I -0.00285(2) 0.25548(2) 0.50666(2)
N1 N 0.0702(2) 0.36244(15) 0.44900(17)
N2 N -0.0774(2) 0.15211(15) 0.56837(17)
C1 C 0.0724(3) 0.3600(2) 0.3595(2)
H1 H 0.0453 0.3117 0.3198
C2 C 0.1138(3) 0.4272(3) 0.3246(3)
H2 H 0.1157 0.425 0.2611
C3 C 0.1522(3) 0.4972(2) 0.3813(3)
H3 H 0.1794 0.544 0.357
C4 C 0.1508(3) 0.4987(2) 0.4747(3)
H4 H 0.1782 0.5461 0.516
C5 C 0.1091(3) 0.4304(2) 0.5055(2)
H5 H 0.1075 0.4308 0.5692
C6 C -0.0926(3) 0.16491(19) 0.6519(2)
H6 H -0.0726 0.2175 0.6835
C7 C -0.1366(3) 0.1033(2) 0.6931(2)
H7 H -0.1469 0.1133 0.7525
C8 C -0.1652(3) 0.0277(2) 0.6472(3)
H8 H -0.1953 -0.0156 0.6746
C9 C -0.1500(3) 0.0151(2) 0.5610(3)
H9 H -0.1698 -0.0369 0.5278
C10 C -0.1055(3) 0.07880(19) 0.5234(2)
H10 H -0.0947 0.0702 0.4639
I2 I 0.500 0.500 0.500
N3 N 0.4278(2) 0.40425(14) 0.57375(17)
C11 C 0.4267(3) 0.42016(19) 0.6623(2)
H11 H 0.454 0.4726 0.6923
C12 C 0.3872(3) 0.3624(2) 0.7105(2)
H12 H 0.3873 0.3747 0.7734
C13 C 0.3474(3) 0.28656(19) 0.6671(2)
H13 H 0.321 0.2454 0.6999
C14 C 0.3466(3) 0.2713(2) 0.5757(3)
H14 H 0.3177 0.2197 0.5437
C15 C 0.3876(3) 0.33088(18) 0.5307(2)
H15 H 0.3876 0.3198 0.4676
N3B N 0.5722(2) 0.59575(14) 0.42625(17)
C11B C 0.5733(3) 0.57984(19) 0.3377(2)
H11B H 0.546 0.5274 0.3077
C12B C 0.6128(3) 0.6376(2) 0.2895(2)
H12B H 0.6127 0.6253 0.2266
C13B C 0.6526(3) 0.71344(19) 0.3329(2)
H13B H 0.679 0.7546 0.3001
C14B C 0.6534(3) 0.7287(2) 0.4243(3)
H14B H 0.6823 0.7803 0.4563
C15B C 0.6124(3) 0.66912(18) 0.4693(2)
H15B H 0.6124 0.6802 0.5324
I3 I 0.500 0.000 0.500
N4 N 0.5681(2) 0.11401(15) 0.44988(17)
C16 C 0.5844(3) 0.1133(2) 0.3658(2)
H16 H 0.5668 0.0644 0.3265
C17 C 0.6266(3) 0.1827(2) 0.3356(3)
H17 H 0.6389 0.1815 0.2761
C18 C 0.6509(3) 0.2539(2) 0.3920(3)
H18 H 0.6785 0.3026 0.3712
C19 C 0.6346(3) 0.2535(2) 0.4794(3)
H19 H 0.6522 0.3014 0.5202
C20 C 0.5927(3) 0.18259(19) 0.5058(2)
H20 H 0.5806 0.1821 0.5654
N4B N 0.4319(2) -0.11401(15) 0.55012(17)
C16B C 0.4156(3) -0.1133(2) 0.6342(2)
H16B H 0.4332 -0.0644 0.6735
C17B C 0.3734(3) -0.1827(2) 0.6644(3)
H17B H 0.3611 -0.1815 0.7239
C18B C 0.3491(3) -0.2539(2) 0.6080(3)
H18B H 0.3215 -0.3026 0.6288
C19B C 0.3654(3) -0.2535(2) 0.5206(3)
H19B H 0.3478 -0.3014 0.4798
C20B C 0.4073(3) -0.18259(19) 0.4942(2)
H20B H 0.4194 -0.1821 0.4346
Cl1 Cl 0.23676(7) 0.19606(5) 0.28107(5)
O1 O 0.2014(2) 0.17411(14) 0.35977(17)
O2 O 0.2430(3) 0.1240(2) 0.2295(3)
O3 O 0.3479(3) 0.23674(19) 0.3198(2)
O4 O 0.1523(3) 0.25098(19) 0.2165(2)
Cl2 Cl 0.26306(7) 0.05775(5) 0.72515(5)
O5 O 0.3102(2) 0.08372(14) 0.65472(16)
O6 O 0.1427(2) 0.0341(2) 0.6768(2)
O7 O 0.2776(3) 0.1226(2) 0.7928(2)
O8 O 0.3283(3) -0.01304(18) 0.7766(2)
loop_
_geom_bond_atom_site_label_1
_geom_bond_atom_site_label_2
_geom_bond_site_symmetry_1
_geom_bond_site_symmetry_2
I1 N1 1_555 1_555
N1 C1 1_555 1_555
N2 I1 1_555 1_555
C1 H1 1_555 1_555
C2 C1 1_555 1_555
H2 C2 1_555 1_555
C3 C2 1_555 1_555
H3 C3 1_555 1_555
C4 C3 1_555 1_555
H4 C4 1_555 1_555
C5 N1 1_555 1_555
H5 C5 1_555 1_555
C6 N2 1_555 1_555
H6 C6 1_555 1_555
C7 C6 1_555 1_555
H7 C7 1_555 1_555
C8 C7 1_555 1_555
H8 C8 1_555 1_555
C9 C8 1_555 1_555
H9 C9 1_555 1_555
C10 N2 1_555 1_555
H10 C10 1_555 1_555
I2 N3 1_555 1_555
N3 C11 1_555 1_555
C11 H11 1_555 1_555
C12 C11 1_555 1_555
H12 C12 1_555 1_555
C13 C12 1_555 1_555
H13 C13 1_555 1_555
C14 C13 1_555 1_555
H14 C14 1_555 1_555
C15 N3 1_555 1_555
H15 C15 1_555 1_555
I3 N4 1_555 1_555
N4 C16 1_555 1_555
C16 H16 1_555 1_555
C17 C16 1_555 1_555
H17 C17 1_555 1_555
C18 C17 1_555 1_555
H18 C18 1_555 1_555
C19 C18 1_555 1_555
H19 C19 1_555 1_555
C20 N4 1_555 1_555
H20 C20 1_555 1_555
Cl1 O1 1_555 1_555
O2 Cl1 1_555 1_555
O3 Cl1 1_555 1_555
O4 Cl1 1_555 1_555
Cl2 O5 1_555 1_555
O6 Cl2 1_555 1_555
O7 Cl2 1_555 1_555
O8 Cl2 1_555 1_555
N3B I2 1_555 1_555
C11B N3B 1_555 1_555
H11B C11B 1_555 1_555
C12B C11B 1_555 1_555
H12B C12B 1_555 1_555
C13B C12B 1_555 1_555
H13B C13B 1_555 1_555
C14B C13B 1_555 1_555
H14B C14B 1_555 1_555
C15B N3B 1_555 1_555
H15B C15B 1_555 1_555
N4B I3 1_555 1_555
C16B N4B 1_555 1_555
H16B C16B 1_555 1_555
C17B C16B 1_555 1_555
H17B C17B 1_555 1_555
C18B C17B 1_555 1_555
H18B C18B 1_555 1_555
C19B C18B 1_555 1_555
H19B C19B 1_555 1_555
C20B N4B 1_555 1_555
H20B C20B 1_555 1_555
C4 C5 1_555 1_555
C9 C10 1_555 1_555
C14 C15 1_555 1_555
C19 C20 1_555 1_555
C14B C15B 1_555 1_555
C19B C20B 1_555 1_555

#END
