
#######################################################################
#
#                 Cambridge Crystallographic Data Centre
#                                CCDC 
#
#######################################################################
#
# If this CIF has been generated from an entry in the Cambridge 
# Structural Database, then it will include bibliographic, chemical, 
# crystal, experimental, refinement or atomic coordinate data resulting 
# from the CCDC's data processing and validation procedures.
#
#######################################################################

data_DOVYUK
_chemical_formula_moiety         'C10 H10 I1 N2 1+,Cl1 O4 1-'
_chemical_name_systematic        'bis(pyridine)iodonium perchlorate'
_symmetry_cell_setting           monoclinic
_symmetry_space_group_name_H-M   'P 21/n'
_symmetry_Int_Tables_number      14
_space_group_name_Hall           '-P 2yn'
loop_
_symmetry_equiv_pos_site_id
_symmetry_equiv_pos_as_xyz
1 x,y,z
2 1/2-x,1/2+y,1/2-z
3 -x,-y,-z
4 1/2+x,1/2-y,1/2+z
_cell_length_a                   12.1261(2)
_cell_length_b                   15.9708(2)
_cell_length_c                   14.7929(2)
_cell_angle_alpha                90
_cell_angle_beta                 113.742(2)
_cell_angle_gamma                90
_cell_volume                     2622.39
_exptl_crystal_colour            colorless
_exptl_crystal_description       plate
_cell_formula_units_Z            8
loop_
_atom_site_label
_atom_site_type_symbol
_atom_site_fract_x
_atom_site_fract_y
_atom_site_fract_z
I1 I 0.0000 0.0000 0.0000
N1 N -0.06553(13) 0.11528(10) 0.05066(11)
C1 C -0.09032(16) 0.18447(12) -0.00573(14)
C2 C -0.13192(18) 0.25676(12) 0.02077(17)
C3 C -0.14770(18) 0.25770(12) 0.10905(17)
C4 C -0.12257(17) 0.18577(13) 0.16639(15)
C5 C -0.08090(16) 0.11511(12) 0.13585(14)
H1 H -0.0796 0.1829 -0.0644
H2 H -0.1498 0.3036 -0.0207
H3 H -0.1757 0.3067 0.1290
H4 H -0.1335 0.1846 0.2254
H5 H -0.0648 0.0662 0.1743
N1B N 0.06553(13) -0.11528(10) -0.05066(11)
C1B C 0.09032(16) -0.18447(12) 0.00573(14)
C2B C 0.13192(18) -0.25676(12) -0.02077(17)
C3B C 0.14770(18) -0.25770(12) -0.10905(17)
C4B C 0.12257(17) -0.18577(13) -0.16639(15)
C5B C 0.08090(16) -0.11511(12) -0.13585(14)
H1B H 0.0796 -0.1829 0.0644
H2B H 0.1498 -0.3036 0.0207
H3B H 0.1757 -0.3067 -0.1290
H4B H 0.1335 -0.1846 -0.2254
H5B H 0.0648 -0.0662 -0.1743
I2 I 0.5000 0.0000 0.5000
N2 N 0.57209(14) 0.09516(10) 0.42426(11)
C6 C 0.61395(16) 0.16937(11) 0.46766(13)
C7 C 0.65504(16) 0.22969(12) 0.42178(14)
C8 C 0.65380(16) 0.21267(11) 0.32895(13)
C9 C 0.61178(16) 0.13545(12) 0.28562(13)
C10 C 0.57153(16) 0.07780(12) 0.33517(13)
H6 H 0.6138 0.1796 0.5298
H7 H 0.6821 0.2812 0.4523
H8 H 0.6797 0.2530 0.2968
H9 H 0.6089 0.1224 0.2232
H10 H 0.5436 0.0261 0.3076
N2B N 0.42791(14) -0.09516(10) 0.57574(11)
C6B C 0.38605(16) -0.16937(11) 0.53234(13)
C7B C 0.34496(16) -0.22969(12) 0.57822(14)
C8B C 0.34620(16) -0.21267(11) 0.67105(13)
C9B C 0.38822(16) -0.13545(12) 0.71438(13)
C10B C 0.42847(16) -0.07780(12) 0.66483(13)
H6B H 0.3862 -0.1796 0.4702
H7B H 0.3179 -0.2812 0.5477
H8B H 0.3203 -0.2530 0.7032
H9B H 0.3911 -0.1224 0.7768
H10B H 0.4564 -0.0261 0.6924
I3 I 1.005980(10) 0.245124(7) 0.494451(8)
N3 N 1.08210(13) 0.34882(10) 0.43320(11)
C11 C 1.10870(16) 0.42361(12) 0.47840(13)
C12 C 1.15268(16) 0.48853(12) 0.44036(14)
C13 C 1.16854(16) 0.47564(12) 0.35347(14)
C14 C 1.14045(16) 0.39811(12) 0.30739(13)
C15 C 1.09730(16) 0.33553(12) 0.34951(13)
N4 N 0.93109(13) 0.13760(10) 0.55105(11)
C16 C 0.89080(16) 0.07015(12) 0.49233(14)
C17 C 0.84848(18) 0.00032(12) 0.52360(16)
C18 C 0.84736(18) 0.00053(13) 0.61747(17)
C19 C 0.88779(17) 0.07140(14) 0.67600(15)
C20 C 0.92982(16) 0.13938(13) 0.64115(13)
H11 H 1.0953 0.4306 0.5355
H12 H 1.1711 0.5398 0.4731
H13 H 1.1971 0.5182 0.3263
H14 H 1.1499 0.3870 0.2491
H15 H 1.0777 0.2826 0.3208
H16 H 0.8917 0.0710 0.4298
H17 H 0.8197 -0.0458 0.4816
H18 H 0.8182 -0.0458 0.6404
H19 H 0.8873 0.0751 0.7388
H20 H 0.9574 0.1863 0.6795
Cl1 Cl 0.76497(4) 0.30116(3) 0.71682(3)
O1 O 0.85516(14) 0.24757(12) 0.78454(12)
O2 O 0.79862(13) 0.32365(9) 0.63659(10)
O3 O 0.7552(2) 0.37537(11) 0.76835(14)
O4 O 0.65099(13) 0.25860(10) 0.67858(11)
Cl2 Cl 0.73376(4) 0.44371(3) 0.27539(3)
O5 O 0.68637(12) 0.41661(9) 0.34580(10)
O6 O 0.66954(14) 0.51771(11) 0.22469(12)
O7 O 0.71796(15) 0.37815(11) 0.20411(12)
O8 O 0.86004(12) 0.46335(9) 0.32553(11)
loop_
_geom_bond_atom_site_label_1
_geom_bond_atom_site_label_2
_geom_bond_site_symmetry_1
_geom_bond_site_symmetry_2
I1 N1 1_555 1_555
N1 C1 1_555 1_555
C1 C2 1_555 1_555
C2 C3 1_555 1_555
C3 C4 1_555 1_555
C4 C5 1_555 1_555
C5 N1 1_555 1_555
H1 C1 1_555 1_555
H2 C2 1_555 1_555
H3 C3 1_555 1_555
H4 C4 1_555 1_555
H5 C5 1_555 1_555
I2 N2 1_555 1_555
N2 C6 1_555 1_555
C6 C7 1_555 1_555
C7 C8 1_555 1_555
C8 C9 1_555 1_555
C9 C10 1_555 1_555
C10 N2 1_555 1_555
H6 C6 1_555 1_555
H7 C7 1_555 1_555
H8 C8 1_555 1_555
H9 C9 1_555 1_555
H10 C10 1_555 1_555
I3 N3 1_555 1_555
N3 C11 1_555 1_555
C11 C12 1_555 1_555
C12 C13 1_555 1_555
C13 C14 1_555 1_555
C14 C15 1_555 1_555
C15 N3 1_555 1_555
N4 I3 1_555 1_555
C16 N4 1_555 1_555
C17 C16 1_555 1_555
C18 C17 1_555 1_555
C19 C18 1_555 1_555
C20 N4 1_555 1_555
H11 C11 1_555 1_555
H12 C12 1_555 1_555
H13 C13 1_555 1_555
H14 C14 1_555 1_555
H15 C15 1_555 1_555
H16 C16 1_555 1_555
H17 C17 1_555 1_555
H18 C18 1_555 1_555
H19 C19 1_555 1_555
H20 C20 1_555 1_555
Cl1 O1 1_555 1_555
O2 Cl1 1_555 1_555
O3 Cl1 1_555 1_555
O4 Cl1 1_555 1_555
Cl2 O5 1_555 1_555
O6 Cl2 1_555 1_555
O7 Cl2 1_555 1_555
O8 Cl2 1_555 1_555
N1B I1 1_555 1_555
C1B N1B 1_555 1_555
C2B C1B 1_555 1_555
C3B C2B 1_555 1_555
C4B C3B 1_555 1_555
C5B N1B 1_555 1_555
H1B C1B 1_555 1_555
H2B C2B 1_555 1_555
H3B C3B 1_555 1_555
H4B C4B 1_555 1_555
H5B C5B 1_555 1_555
N2B I2 1_555 1_555
C6B N2B 1_555 1_555
C7B C6B 1_555 1_555
C8B C7B 1_555 1_555
C9B C8B 1_555 1_555
C10B N2B 1_555 1_555
H6B C6B 1_555 1_555
H7B C7B 1_555 1_555
H8B C8B 1_555 1_555
H9B C9B 1_555 1_555
H10B C10B 1_555 1_555
C19 C20 1_555 1_555
C4B C5B 1_555 1_555
C9B C10B 1_555 1_555

#END
