
#######################################################################
#
#                 Cambridge Crystallographic Data Centre
#                                CCDC 
#
#######################################################################
#
# If this CIF has been generated from an entry in the Cambridge 
# Structural Database, then it will include bibliographic, chemical, 
# crystal, experimental, refinement or atomic coordinate data resulting 
# from the CCDC's data processing and validation procedures.
#
#######################################################################

data_DOVZAR02
_chemical_formula_moiety         'C10 H10 I1 N2 1+,C1 F3 O3 S1 1-'
_chemical_name_systematic        
'di(pyridin-1-yl)iodonium trifluoromethanesulfonate'
_symmetry_cell_setting           triclinic
_symmetry_space_group_name_H-M   'P -1'
_symmetry_Int_Tables_number      2
_space_group_name_Hall           '-P 1'
loop_
_symmetry_equiv_pos_site_id
_symmetry_equiv_pos_as_xyz
1 x,y,z
2 -x,-y,-z
_cell_length_a                   7.0091(4)
_cell_length_b                   10.6722(6)
_cell_length_c                   10.7542(8)
_cell_angle_alpha                93.455(5)
_cell_angle_beta                 105.677(6)
_cell_angle_gamma                104.138(5)
_cell_volume                     744.156
_exptl_crystal_colour            colorless
_exptl_crystal_description       plate
_cell_formula_units_Z            2
_chemical_properties_physical    Moisture-sensitive
loop_
_atom_site_label
_atom_site_type_symbol
_atom_site_fract_x
_atom_site_fract_y
_atom_site_fract_z
I1 I 0.78040(8) 0.49437(5) 0.60211(5)
N1 N 0.6547(12) 0.3500(8) 0.4194(8)
N2 N 0.8957(11) 0.6397(7) 0.7857(7)
C1 C 0.5931(16) 0.2212(9) 0.4280(10)
H1 H 0.6077 0.1934 0.5115
C2 C 0.5102(15) 0.1302(10) 0.3190(10)
H2 H 0.4678 0.0402 0.3271
C3 C 0.4886(15) 0.1696(10) 0.1980(10)
H3 H 0.4314 0.1074 0.1216
C4 C 0.5522(15) 0.3032(11) 0.1886(10)
H4 H 0.5382 0.3329 0.1059
C5 C 0.6358(14) 0.3907(10) 0.3023(9)
H5 H 0.6806 0.4813 0.2973
C6 C 0.8698(14) 0.6001(9) 0.8981(9)
H6 H 0.8001 0.5118 0.8981
C7 C 0.9414(16) 0.6840(9) 1.0124(9)
H7 H 0.9203 0.6546 1.0906
C8 C 1.0456(16) 0.8130(10) 1.0120(10)
H8 H 1.0993 0.8724 1.0904
C9 C 1.0698(16) 0.8531(10) 0.8977(11)
H9 H 1.1369 0.9414 0.8956
C10 C 0.9967(14) 0.7653(9) 0.7859(10)
H10 H 1.0174 0.7932 0.7071
S1 S 0.4280(4) 0.2145(2) 0.7929(2)
F1 F 0.0263(11) 0.1737(9) 0.6952(7)
F2 F 0.1509(11) 0.0280(6) 0.6238(7)
F3 F 0.1945(12) 0.2147(7) 0.5567(6)
O1 O 0.4402(12) 0.3497(7) 0.8279(7)
O2 O 0.5793(11) 0.1926(7) 0.7330(7)
O3 O 0.3913(12) 0.1315(7) 0.8892(7)
C11 C 0.1860(16) 0.1563(10) 0.6605(10)
loop_
_geom_bond_atom_site_label_1
_geom_bond_atom_site_label_2
_geom_bond_site_symmetry_1
_geom_bond_site_symmetry_2
I1 N1 1_555 1_555
N1 C1 1_555 1_555
N2 I1 1_555 1_555
C1 H1 1_555 1_555
C2 C1 1_555 1_555
H2 C2 1_555 1_555
C3 C2 1_555 1_555
H3 C3 1_555 1_555
C4 C3 1_555 1_555
H4 C4 1_555 1_555
C5 N1 1_555 1_555
H5 C5 1_555 1_555
C6 N2 1_555 1_555
H6 C6 1_555 1_555
C7 C6 1_555 1_555
H7 C7 1_555 1_555
C8 C7 1_555 1_555
H8 C8 1_555 1_555
C9 C8 1_555 1_555
H9 C9 1_555 1_555
C10 N2 1_555 1_555
H10 C10 1_555 1_555
S1 O1 1_555 1_555
F1 C11 1_555 1_555
F2 C11 1_555 1_555
F3 C11 1_555 1_555
O2 S1 1_555 1_555
O3 S1 1_555 1_555
C11 S1 1_555 1_555
C4 C5 1_555 1_555
C9 C10 1_555 1_555

#END
