
#######################################################################
#
#                 Cambridge Crystallographic Data Centre
#                                CCDC 
#
#######################################################################
#
# If this CIF has been generated from an entry in the Cambridge 
# Structural Database, then it will include bibliographic, chemical, 
# crystal, experimental, refinement or atomic coordinate data resulting 
# from the CCDC's data processing and validation procedures.
#
#######################################################################

data_DOVZAR01
_chemical_formula_moiety         'C10 H10 I1 N2 1+,C1 F3 O3 S1 1-'
_chemical_name_systematic        
'bis(pyridine)iodonium trifluoromethanesulfonate'
_symmetry_cell_setting           triclinic
_symmetry_space_group_name_H-M   'P -1'
_symmetry_Int_Tables_number      2
_space_group_name_Hall           '-P 1'
loop_
_symmetry_equiv_pos_site_id
_symmetry_equiv_pos_as_xyz
1 x,y,z
2 -x,-y,-z
_cell_length_a                   6.9897(3)
_cell_length_b                   10.6617(5)
_cell_length_c                   10.7350(5)
_cell_angle_alpha                93.588(4)
_cell_angle_beta                 105.368(4)
_cell_angle_gamma                104.094(4)
_cell_volume                     741.226
_exptl_crystal_colour            colorless
_exptl_crystal_description       plate
_cell_formula_units_Z            2
loop_
_atom_site_label
_atom_site_type_symbol
_atom_site_fract_x
_atom_site_fract_y
_atom_site_fract_z
C1 C 0.3131(6) 0.3457(4) 0.3401(4)
F1 F 0.3490(5) 0.4720(3) 0.3774(3)
F2 F 0.3052(5) 0.2846(3) 0.4440(3)
F3 F 0.4749(4) 0.3278(4) 0.3057(3)
S1 S 0.07175(15) 0.28509(9) 0.20721(8)
O1 O 0.0620(5) 0.1502(3) 0.1729(3)
O2 O 0.1068(5) 0.3683(3) 0.1100(3)
O3 O -0.0806(5) 0.3074(3) 0.2674(3)
I1 I 0.71966(3) 0.005739(16) 0.398109(15)
N1 N 0.6024(5) -0.1401(3) 0.2151(3)
C2 C 0.5056(6) -0.2644(4) 0.2148(4)
C3 C 0.4294(7) -0.3545(5) 0.1027(5)
C4 C 0.4543(7) -0.3137(5) -0.0133(5)
C5 C 0.5585(7) -0.1849(4) -0.0135(4)
C6 C 0.6309(6) -0.0999(4) 0.1027(4)
N2 N 0.8439(5) 0.1503(3) 0.5798(3)
C7 C 0.8644(6) 0.1094(4) 0.6987(4)
C8 C 0.9477(6) 0.1971(4) 0.8119(4)
C9 C 1.0112(7) 0.3293(5) 0.8036(4)
C10 C 0.9927(7) 0.3700(4) 0.6816(4)
C11 C 0.9078(7) 0.2777(4) 0.5713(4)
H1 H 0.4887 -0.2917 0.2929
H2 H 0.3628 -0.4407 0.1054
H3 H 0.4025 -0.3729 -0.0895
H4 H 0.5779 -0.1568 -0.0903
H5 H 0.7004 -0.0132 0.1049
H6 H 0.8247 0.0242 0.7025
H7 H 0.9624 0.1679 0.8920
H8 H 1.0654 0.3889 0.8786
H9 H 1.0367 0.4576 0.6741
H10 H 0.8944 0.3046 0.4897
loop_
_geom_bond_atom_site_label_1
_geom_bond_atom_site_label_2
_geom_bond_site_symmetry_1
_geom_bond_site_symmetry_2
C1 F1 1_555 1_555
F2 C1 1_555 1_555
F3 C1 1_555 1_555
S1 C1 1_555 1_555
O1 S1 1_555 1_555
O2 S1 1_555 1_555
O3 S1 1_555 1_555
I1 N1 1_555 1_555
N1 C2 1_555 1_555
C2 C3 1_555 1_555
C3 C4 1_555 1_555
C4 C5 1_555 1_555
C5 C6 1_555 1_555
C6 N1 1_555 1_555
N2 I1 1_555 1_555
C7 N2 1_555 1_555
C8 C7 1_555 1_555
C9 C8 1_555 1_555
C10 C9 1_555 1_555
C11 N2 1_555 1_555
H1 C2 1_555 1_555
H2 C3 1_555 1_555
H3 C4 1_555 1_555
H4 C5 1_555 1_555
H5 C6 1_555 1_555
H6 C7 1_555 1_555
H7 C8 1_555 1_555
H8 C9 1_555 1_555
H9 C10 1_555 1_555
H10 C11 1_555 1_555
C10 C11 1_555 1_555

#END
