
#######################################################################
#
#                 Cambridge Crystallographic Data Centre
#                                CCDC 
#
#######################################################################
#
# If this CIF has been generated from an entry in the Cambridge 
# Structural Database, then it will include bibliographic, chemical, 
# crystal, experimental, refinement or atomic coordinate data resulting 
# from the CCDC's data processing and validation procedures.
#
#######################################################################

data_DOVZOF
_chemical_formula_moiety         'C10 H10 Br1 N2 1+,B1 F4 1-'
_chemical_name_systematic        'bis(pyridine)bromonium tetrafluoroborate'
_symmetry_cell_setting           monoclinic
_symmetry_space_group_name_H-M   'P 21/c'
_symmetry_Int_Tables_number      14
_space_group_name_Hall           '-P 2ybc'
loop_
_symmetry_equiv_pos_site_id
_symmetry_equiv_pos_as_xyz
1 x,y,z
2 -x,1/2+y,1/2-z
3 -x,-y,-z
4 x,1/2-y,1/2+z
_cell_length_a                   13.5556(10)
_cell_length_b                   13.5811(8)
_cell_length_c                   7.3247(6)
_cell_angle_alpha                90
_cell_angle_beta                 97.287(7)
_cell_angle_gamma                90
_cell_volume                     1337.59
_exptl_crystal_colour            colorless
_exptl_crystal_description       lath
_cell_formula_units_Z            4
loop_
_atom_site_label
_atom_site_type_symbol
_atom_site_fract_x
_atom_site_fract_y
_atom_site_fract_z
B1 B 0.2142(4) 1.0570(4) 0.0467(8)
F1 F 0.1854(9) 1.0371(8) 0.2137(12)
F2 F 0.2609(11) 1.1407(6) 0.0471(16)
F3 F 0.1373(7) 1.0491(9) -0.0856(15)
F4 F 0.2787(6) 0.9819(6) 0.0053(14)
Br1 Br 0.31075(3) 0.83236(3) 0.53104(6)
N1 N 0.1681(2) 0.8063(2) 0.5895(5)
C1 C 0.1094(4) 0.8818(3) 0.6154(7)
C2 C 0.0135(4) 0.8666(4) 0.6461(8)
C3 C -0.0219(4) 0.7733(5) 0.6516(7)
C4 C 0.0394(4) 0.6953(4) 0.6249(7)
C5 C 0.1350(3) 0.7138(3) 0.5942(6)
N2 N 0.4558(2) 0.8599(2) 0.4625(5)
C6 C 0.5357(4) 0.8292(4) 0.5704(8)
C7 C 0.6293(4) 0.8420(4) 0.5225(10)
C8 C 0.6415(4) 0.8885(4) 0.3653(11)
C9 C 0.5588(4) 0.9220(4) 0.2568(9)
C10 C 0.4668(4) 0.9063(4) 0.3076(7)
H1 H 0.1346 0.9461 0.6107
H2 H -0.0266 0.9198 0.6632
H3 H -0.0863 0.7621 0.6726
H4 H 0.0168 0.6319 0.6275
H5 H 0.1783 0.6634 0.5746
H6 H 0.5266 0.7993 0.6816
H7 H 0.6833 0.8196 0.5983
H8 H 0.7044 0.8980 0.3329
H9 H 0.5630 0.9547 0.1472
H10 H 0.4111 0.9281 0.2344
F5? F 0.1579(11) 1.0123(10) 0.158(2)
F6? F 0.2112(8) 1.1574(4) 0.0951(15)
F7? F 0.1715(10) 1.0540(12) -0.1301(12)
F8? F 0.3073(7) 1.0300(12) 0.065(2)
loop_
_geom_bond_atom_site_label_1
_geom_bond_atom_site_label_2
_geom_bond_site_symmetry_1
_geom_bond_site_symmetry_2
B1 F1 1_555 1_555
F2 B1 1_555 1_555
F3 B1 1_555 1_555
F4 B1 1_555 1_555
Br1 N1 1_555 1_555
N1 C1 1_555 1_555
C1 C2 1_555 1_555
C2 C3 1_555 1_555
C3 C4 1_555 1_555
C4 C5 1_555 1_555
C5 N1 1_555 1_555
N2 Br1 1_555 1_555
C6 N2 1_555 1_555
C7 C6 1_555 1_555
C8 C7 1_555 1_555
C9 C8 1_555 1_555
C10 N2 1_555 1_555
H1 C1 1_555 1_555
H2 C2 1_555 1_555
H3 C3 1_555 1_555
H4 C4 1_555 1_555
H5 C5 1_555 1_555
H6 C6 1_555 1_555
H7 C7 1_555 1_555
H8 C8 1_555 1_555
H9 C9 1_555 1_555
H10 C10 1_555 1_555
C9 C10 1_555 1_555

#END
