
#######################################################################
#
#                 Cambridge Crystallographic Data Centre
#                                CCDC 
#
#######################################################################
#
# If this CIF has been generated from an entry in the Cambridge 
# Structural Database, then it will include bibliographic, chemical, 
# crystal, experimental, refinement or atomic coordinate data resulting 
# from the CCDC's data processing and validation procedures.
#
#######################################################################

data_DOWBIC
_chemical_formula_moiety         'C10 H10 Br1 N2 1+,Cl1 O4 1-'
_chemical_name_systematic        'bis(pyridine)bromonium perchlorate'
_symmetry_cell_setting           monoclinic
_symmetry_space_group_name_H-M   'C 2/c'
_symmetry_Int_Tables_number      15
_space_group_name_Hall           '-C 2yn'
loop_
_symmetry_equiv_pos_site_id
_symmetry_equiv_pos_as_xyz
1 x,y,z
2 1/2+x,1/2+y,z
3 -x,y,1/2-z
4 1/2-x,1/2+y,1/2-z
5 -x,-y,-z
6 1/2-x,1/2-y,-z
7 x,-y,1/2+z
8 1/2+x,1/2-y,1/2+z
_cell_length_a                   10.2259(3)
_cell_length_b                   12.5223(4)
_cell_length_c                   20.4388(6)
_cell_angle_alpha                90
_cell_angle_beta                 92.547(3)
_cell_angle_gamma                90
_cell_volume                     2614.64
_exptl_crystal_colour            'pale colorless'
_exptl_crystal_description       lath
_cell_formula_units_Z            8
loop_
_atom_site_label
_atom_site_type_symbol
_atom_site_fract_x
_atom_site_fract_y
_atom_site_fract_z
Cl1 Cl 0.21745(10) 0.52527(9) 0.64118(5)
O1 O 0.1218(3) 0.4972(4) 0.68599(17)
O2 O 0.2016(4) 0.6326(3) 0.6230(2)
O3 O 0.2060(5) 0.4602(4) 0.58508(19)
O4 O 0.3436(3) 0.5123(4) 0.6718(2)
Br1 Br 0.50046(4) 0.64896(3) 0.514679(19)
N1 N 0.3618(3) 0.6220(2) 0.43978(15)
C1 C 0.2355(4) 0.6238(3) 0.4523(2)
C2 C 0.1425(4) 0.6048(3) 0.4032(2)
C3 C 0.1811(5) 0.5846(3) 0.3414(2)
C4 C 0.3111(5) 0.5832(3) 0.3291(2)
C5 C 0.4016(5) 0.6023(3) 0.3796(2)
N2 N 0.6429(3) 0.6740(3) 0.59176(17)
C6 C 0.7690(4) 0.6683(3) 0.5798(3)
C7 C 0.8622(5) 0.6803(4) 0.6306(4)
C8 C 0.8214(7) 0.6977(5) 0.6917(3)
C9 C 0.6918(6) 0.7037(4) 0.7033(3)
C10 C 0.6040(5) 0.6911(4) 0.6520(2)
H1 H 0.2117 0.6373 0.4946
H2 H 0.0548 0.6056 0.4123
H3 H 0.1190 0.5717 0.3081
H4 H 0.3390 0.5703 0.2879
H5 H 0.4904 0.6007 0.3721
H6 H 0.7942 0.6562 0.5376
H7 H 0.9497 0.6762 0.6222
H8 H 0.8825 0.7063 0.7260
H9 H 0.6631 0.7164 0.7451
H10 H 0.5142 0.6938 0.6592
loop_
_geom_bond_atom_site_label_1
_geom_bond_atom_site_label_2
_geom_bond_site_symmetry_1
_geom_bond_site_symmetry_2
Cl1 O1 1_555 1_555
O2 Cl1 1_555 1_555
O3 Cl1 1_555 1_555
O4 Cl1 1_555 1_555
Br1 N1 1_555 1_555
N1 C1 1_555 1_555
C1 C2 1_555 1_555
C2 C3 1_555 1_555
C3 C4 1_555 1_555
C4 C5 1_555 1_555
C5 N1 1_555 1_555
N2 Br1 1_555 1_555
C6 N2 1_555 1_555
C7 C6 1_555 1_555
C8 C7 1_555 1_555
C9 C8 1_555 1_555
C10 N2 1_555 1_555
H1 C1 1_555 1_555
H2 C2 1_555 1_555
H3 C3 1_555 1_555
H4 C4 1_555 1_555
H5 C5 1_555 1_555
H6 C6 1_555 1_555
H7 C7 1_555 1_555
H8 C8 1_555 1_555
H9 C9 1_555 1_555
H10 C10 1_555 1_555
C9 C10 1_555 1_555

#END
