
#######################################################################
#
#                 Cambridge Crystallographic Data Centre
#                                CCDC 
#
#######################################################################
#
# If this CIF has been generated from an entry in the Cambridge 
# Structural Database, then it will include bibliographic, chemical, 
# crystal, experimental, refinement or atomic coordinate data resulting 
# from the CCDC's data processing and validation procedures.
#
#######################################################################

data_DOWBAU01
_chemical_formula_moiety         'C10 H10 Br1 N2 1+,F6 P1 1-'
_chemical_name_systematic        'bis(pyridine)bromonium hexafluorophosphate'
_symmetry_cell_setting           monoclinic
_symmetry_space_group_name_H-M   'P 21/c'
_symmetry_Int_Tables_number      14
_space_group_name_Hall           '-P 2ybc'
loop_
_symmetry_equiv_pos_site_id
_symmetry_equiv_pos_as_xyz
1 x,y,z
2 -x,1/2+y,1/2-z
3 -x,-y,-z
4 x,1/2-y,1/2+z
_cell_length_a                   6.6796(2)
_cell_length_b                   10.6598(3)
_cell_length_c                   9.6226(3)
_cell_angle_alpha                90
_cell_angle_beta                 89.073(3)
_cell_angle_gamma                90
_cell_volume                     685.07
_exptl_crystal_colour            colorless
_exptl_crystal_description       lath
_chemical_melting_point          '399 K'
_cell_formula_units_Z            2
loop_
_atom_site_label
_atom_site_type_symbol
_atom_site_fract_x
_atom_site_fract_y
_atom_site_fract_z
P1 P 0.5000 0.0000 0.5000
F1 F 0.47196(17) 0.11197(11) 0.39113(13)
F2 F 0.73860(16) 0.01356(11) 0.48362(13)
F3 F 0.49869(18) -0.09899(12) 0.37516(12)
F1B F 0.52804(17) -0.11197(11) 0.60887(13)
F2B F 0.26140(16) -0.01356(11) 0.51638(13)
F3B F 0.50131(18) 0.09899(12) 0.62484(12)
Br1 Br 0.5000 0.5000 0.5000
N1 N 0.76160(19) 0.41699(13) 0.57232(14)
C1 C 0.8254(3) 0.30818(17) 0.5196(2)
C2 C 1.0035(3) 0.25537(17) 0.5622(2)
C3 C 1.1152(3) 0.31734(17) 0.6606(2)
C4 C 1.0452(3) 0.42933(19) 0.71508(19)
C5 C 0.8663(3) 0.47698(18) 0.66890(18)
H1 H 0.7585 0.2754 0.4507
H2 H 1.0591 0.1875 0.5258
H3 H 1.2427 0.2876 0.6928
H4 H 1.1055 0.4679 0.7875
H5 H 0.8042 0.5476 0.7079
N1B N 0.23840(19) 0.58301(13) 0.42768(14)
C1B C 0.1746(3) 0.69182(17) 0.4804(2)
C2B C -0.0035(3) 0.74463(17) 0.4378(2)
C3B C -0.1152(3) 0.68266(17) 0.3394(2)
C4B C -0.0452(3) 0.57067(19) 0.28492(19)
C5B C 0.1337(3) 0.52302(18) 0.33110(18)
H1B H 0.2415 0.7246 0.5493
H2B H -0.0591 0.8125 0.4742
H3B H -0.2427 0.7124 0.3072
H4B H -0.1055 0.5321 0.2125
H5B H 0.1958 0.4524 0.2921
loop_
_geom_bond_atom_site_label_1
_geom_bond_atom_site_label_2
_geom_bond_site_symmetry_1
_geom_bond_site_symmetry_2
P1 F1 1_555 1_555
F2 P1 1_555 1_555
F3 P1 1_555 1_555
Br1 N1 1_555 1_555
N1 C1 1_555 1_555
C1 C2 1_555 1_555
C2 C3 1_555 1_555
C3 C4 1_555 1_555
C4 C5 1_555 1_555
C5 N1 1_555 1_555
H1 C1 1_555 1_555
H2 C2 1_555 1_555
H3 C3 1_555 1_555
H4 C4 1_555 1_555
H5 C5 1_555 1_555
F1B P1 1_555 1_555
F2B P1 1_555 1_555
F3B P1 1_555 1_555
N1B Br1 1_555 1_555
C1B N1B 1_555 1_555
C2B C1B 1_555 1_555
C3B C2B 1_555 1_555
C4B C3B 1_555 1_555
C5B N1B 1_555 1_555
H1B C1B 1_555 1_555
H2B C2B 1_555 1_555
H3B C3B 1_555 1_555
H4B C4B 1_555 1_555
H5B C5B 1_555 1_555
C4B C5B 1_555 1_555

#END
