
#######################################################################
#
#                 Cambridge Crystallographic Data Centre
#                                CCDC 
#
#######################################################################
#
# If this CIF has been generated from an entry in the Cambridge 
# Structural Database, then it will include bibliographic, chemical, 
# crystal, experimental, refinement or atomic coordinate data resulting 
# from the CCDC's data processing and validation procedures.
#
#######################################################################

data_DOWBOG
_chemical_formula_moiety         'C36 H46 N4'
_chemical_name_systematic        5,10,15,20-Tetra-n-butylporphyrin
_symmetry_cell_setting           monoclinic
_symmetry_space_group_name_H-M   'P 21/c'
_symmetry_Int_Tables_number      14
_space_group_name_Hall           '-P 2ybc'
loop_
_symmetry_equiv_pos_site_id
_symmetry_equiv_pos_as_xyz
1 x,y,z
2 -x,1/2+y,1/2-z
3 -x,-y,-z
4 x,1/2-y,1/2+z
_cell_length_a                   13.198(6)
_cell_length_b                   9.092(3)
_cell_length_c                   12.625(4)
_cell_angle_alpha                90
_cell_angle_beta                 96.66(3)
_cell_angle_gamma                90
_cell_volume                     1504.73
_exptl_crystal_colour            red
_exptl_crystal_description       plate
_chemical_melting_point          235deg.C
_cell_formula_units_Z            2
_exptl_crystal_recrystallization_method chloroform/n-hexane
loop_
_atom_site_label
_atom_site_type_symbol
_atom_site_fract_x
_atom_site_fract_y
_atom_site_fract_z
N1 N 0.3533(2) 0.0188(2) 0.0288(2)
N2 N 0.5456(2) 0.1381(2) 0.1305(2)
H1 H 0.5262(2) 0.0825(2) 0.0748(2)
C1 C 0.2691(2) -0.0432(3) -0.0272(2)
C2 C 0.1775(2) 0.0026(3) 0.0164(2)
H2 H 0.1095(2) -0.0252(3) -0.0085(2)
C3 C 0.2066(2) 0.0915(3) 0.0985(2)
H3 H 0.1631(2) 0.1392(3) 0.1426(2)
C4 C 0.3166(2) 0.1018(3) 0.1077(2)
C5 C 0.3744(2) 0.1839(3) 0.1873(2)
C6 C 0.3174(2) 0.2611(3) 0.2697(2)
H4 H 0.2560(2) 0.3088(3) 0.2323(2)
H5 H 0.3617(2) 0.3398(3) 0.3040(2)
C7 C 0.2844(2) 0.1604(3) 0.3573(2)
H6 H 0.2411(2) 0.2180(3) 0.4011(2)
H7 H 0.2417(2) 0.0803(3) 0.3228(2)
C8 C 0.3705(2) 0.0921(3) 0.4306(2)
H8 H 0.4151(2) 0.1711(3) 0.4638(2)
H9 H 0.4121(2) 0.0295(3) 0.3881(2)
C9 C 0.3313(3) -0.0006(4) 0.5179(3)
H10 H 0.3893(3) -0.0427(4) 0.5635(3)
H11 H 0.2883(3) -0.0801(4) 0.4853(3)
H12 H 0.2913(3) 0.0615(4) 0.5610(3)
C10 C 0.4805(2) 0.1988(3) 0.1971(2)
C11 C 0.5433(2) 0.2793(3) 0.2760(2)
H13 H 0.5201(2) 0.3332(3) 0.3330(2)
C12 C 0.6418(2) 0.2663(3) 0.2566(2)
H14 H 0.6991(2) 0.3093(3) 0.2976(2)
C13 C 0.6447(2) 0.1772(3) 0.1639(2)
C14 C 0.2682(2) -0.1361(3) -0.1169(2)
C15 C 0.1669(2) -0.1914(3) -0.1704(2)
H15 H 0.1769(2) -0.2882(3) -0.2036(2)
H16 H 0.1194(2) -0.2051(3) -0.1160(2)
C16 C 0.1190(3) -0.0844(5) -0.2564(3)
C17 C 0.0108(5) -0.1149(8) -0.3029(5)
C18 C 0.0182(6) -0.2384(9) -0.3804(7)
C14B C 0.7318(2) 0.1361(3) 0.1169(2)
C1B C 0.7309(2) 0.0432(3) 0.0272(2)
N1B N 0.6467(2) -0.0188(2) -0.0288(2)
C4B C 0.6834(2) -0.1018(3) -0.1077(2)
C3B C 0.7934(2) -0.0915(3) -0.0985(2)
C2B C 0.8225(2) -0.0026(3) -0.0164(2)
H2B H 0.8905(2) 0.0252(3) 0.0085(2)
H3B H 0.8369(2) -0.1392(3) -0.1426(2)
C5B C 0.6256(2) -0.1839(3) -0.1873(2)
C6B C 0.6826(2) -0.2611(3) -0.2697(2)
H4B H 0.7440(2) -0.3088(3) -0.2323(2)
H5B H 0.6383(2) -0.3398(3) -0.3040(2)
C7B C 0.7156(2) -0.1604(3) -0.3573(2)
H6B H 0.7589(2) -0.2180(3) -0.4011(2)
H7B H 0.7583(2) -0.0803(3) -0.3228(2)
C8B C 0.6295(2) -0.0921(3) -0.4306(2)
H8B H 0.5849(2) -0.1711(3) -0.4638(2)
H9B H 0.5879(2) -0.0295(3) -0.3881(2)
C9B C 0.6687(3) 0.0006(4) -0.5179(3)
H10B H 0.6107(3) 0.0427(4) -0.5635(3)
H11B H 0.7117(3) 0.0801(4) -0.4853(3)
H12B H 0.7087(3) -0.0615(4) -0.5610(3)
C10B C 0.5195(2) -0.1988(3) -0.1971(2)
N2B N 0.4544(2) -0.1381(2) -0.1305(2)
H1B H 0.4738(2) -0.0825(2) -0.0748(2)
C13B C 0.3553(2) -0.1772(3) -0.1639(2)
C12B C 0.3582(2) -0.2663(3) -0.2566(2)
C11B C 0.4567(2) -0.2793(3) -0.2760(2)
H13B H 0.4799(2) -0.3332(3) -0.3330(2)
H14B H 0.3009(2) -0.3093(3) -0.2976(2)
C15B C 0.8331(2) 0.1914(3) 0.1704(2)
H15B H 0.8231(2) 0.2882(3) 0.2036(2)
H16B H 0.8806(2) 0.2051(3) 0.1160(2)
C16B C 0.8810(3) 0.0844(5) 0.2564(3)
C17B C 0.9892(5) 0.1149(8) 0.3029(5)
C18B C 0.9818(6) 0.2384(9) 0.3804(7)
C19? C 0.9713(5) 0.1793(9) 0.3262(6)
C20? C 1.0110(7) 0.0894(10) 0.4272(7)
loop_
_geom_bond_atom_site_label_1
_geom_bond_atom_site_label_2
_geom_bond_site_symmetry_1
_geom_bond_site_symmetry_2
N1 C1 1_555 1_555
N2 H1 1_555 1_555
C1 C2 1_555 1_555
C2 H2 1_555 1_555
C3 C2 1_555 1_555
H3 C3 1_555 1_555
C4 N1 1_555 1_555
C5 C4 1_555 1_555
C6 C5 1_555 1_555
H4 C6 1_555 1_555
H5 C6 1_555 1_555
C7 C6 1_555 1_555
H6 C7 1_555 1_555
H7 C7 1_555 1_555
C8 C7 1_555 1_555
H8 C8 1_555 1_555
H9 C8 1_555 1_555
C9 C8 1_555 1_555
H10 C9 1_555 1_555
H11 C9 1_555 1_555
H12 C9 1_555 1_555
C10 N2 1_555 1_555
C11 C10 1_555 1_555
H13 C11 1_555 1_555
C12 C11 1_555 1_555
H14 C12 1_555 1_555
C13 N2 1_555 1_555
C14 C1 1_555 1_555
C15 C14 1_555 1_555
H15 C15 1_555 1_555
H16 C15 1_555 1_555
C16 C15 1_555 1_555
C17 C16 1_555 1_555
C18 C17 1_555 1_555
C14B C13 1_555 1_555
C1B C14B 1_555 1_555
N1B C1B 1_555 1_555
C4B N1B 1_555 1_555
C3B C4B 1_555 1_555
C2B C1B 1_555 1_555
H2B C2B 1_555 1_555
H3B C3B 1_555 1_555
C5B C4B 1_555 1_555
C6B C5B 1_555 1_555
H4B C6B 1_555 1_555
H5B C6B 1_555 1_555
C7B C6B 1_555 1_555
H6B C7B 1_555 1_555
H7B C7B 1_555 1_555
C8B C7B 1_555 1_555
H8B C8B 1_555 1_555
H9B C8B 1_555 1_555
C9B C8B 1_555 1_555
H10B C9B 1_555 1_555
H11B C9B 1_555 1_555
H12B C9B 1_555 1_555
C10B C5B 1_555 1_555
N2B C10B 1_555 1_555
H1B N2B 1_555 1_555
C13B C14 1_555 1_555
C12B C13B 1_555 1_555
C11B C10B 1_555 1_555
H13B C11B 1_555 1_555
H14B C12B 1_555 1_555
C15B C14B 1_555 1_555
H15B C15B 1_555 1_555
H16B C15B 1_555 1_555
C16B C15B 1_555 1_555
C17B C16B 1_555 1_555
C18B C17B 1_555 1_555
C3 C4 1_555 1_555
C5 C10 1_555 1_555
C12 C13 1_555 1_555
C3B C2B 1_555 1_555
N2B C13B 1_555 1_555
C12B C11B 1_555 1_555

#END
