
#######################################################################
#
#                 Cambridge Crystallographic Data Centre
#                                CCDC 
#
#######################################################################
#
# If this CIF has been generated from an entry in the Cambridge 
# Structural Database, then it will include bibliographic, chemical, 
# crystal, experimental, refinement or atomic coordinate data resulting 
# from the CCDC's data processing and validation procedures.
#
#######################################################################

data_DOWBAU
_chemical_formula_moiety         'C10 H10 Br1 N2 1+,F6 P1 1-'
_chemical_name_systematic        'bis(pyridine)bromonium hexafluorophosphate'
_symmetry_cell_setting           monoclinic
_symmetry_space_group_name_H-M   'P 21/c'
_symmetry_Int_Tables_number      14
_space_group_name_Hall           '-P 2ybc'
loop_
_symmetry_equiv_pos_site_id
_symmetry_equiv_pos_as_xyz
1 x,y,z
2 -x,1/2+y,1/2-z
3 -x,-y,-z
4 x,1/2-y,1/2+z
_cell_length_a                   6.7065(3)
_cell_length_b                   10.6364(5)
_cell_length_c                   9.9879(6)
_cell_angle_alpha                90
_cell_angle_beta                 90.374(4)
_cell_angle_gamma                90
_cell_volume                     712.452
_exptl_crystal_colour            colorless
_exptl_crystal_description       lath
_chemical_melting_point          '399 K'
_cell_formula_units_Z            2
loop_
_atom_site_label
_atom_site_type_symbol
_atom_site_fract_x
_atom_site_fract_y
_atom_site_fract_z
P1 P 0.5000 0.0000 0.5000
F1 F 0.4712(3) 0.11430(17) 0.40056(19)
F2 F 0.7355(2) 0.01226(14) 0.4844(2)
F3 F 0.4910(3) -0.09424(18) 0.37771(19)
F1B F 0.5288(3) -0.11430(17) 0.59944(19)
F2B F 0.2645(2) -0.01226(14) 0.5156(2)
F3B F 0.5090(3) 0.09424(18) 0.62229(19)
Br1 Br 0.5000 0.5000 0.5000
N1 N 0.7622(3) 0.41792(17) 0.57353(19)
C1 C 0.8323(4) 0.3137(2) 0.5204(3)
C2 C 1.0100(5) 0.2625(3) 0.5645(4)
C3 C 1.1135(4) 0.3205(3) 0.6630(3)
C4 C 1.0386(4) 0.4269(3) 0.7180(3)
C5 C 0.8613(4) 0.4741(3) 0.6711(3)
H1 H 0.7585 0.2754 0.4507
H2 H 1.0591 0.1875 0.5258
H3 H 1.2427 0.2876 0.6928
H4 H 1.1055 0.4679 0.7875
H5 H 0.8042 0.5476 0.7079
N1B N 0.2378(3) 0.58208(17) 0.42647(19)
C1B C 0.1677(4) 0.6863(2) 0.4796(3)
C2B C -0.0100(5) 0.7375(3) 0.4355(4)
C3B C -0.1135(4) 0.6795(3) 0.3370(3)
C4B C -0.0386(4) 0.5731(3) 0.2820(3)
C5B C 0.1387(4) 0.5259(3) 0.3289(3)
H1B H 0.2415 0.7246 0.5493
H2B H -0.0591 0.8125 0.4742
H3B H -0.2427 0.7124 0.3072
H4B H -0.1055 0.5321 0.2125
H5B H 0.1958 0.4524 0.2921
loop_
_geom_bond_atom_site_label_1
_geom_bond_atom_site_label_2
_geom_bond_site_symmetry_1
_geom_bond_site_symmetry_2
P1 F1 1_555 1_555
F2 P1 1_555 1_555
F3 P1 1_555 1_555
Br1 N1 1_555 1_555
N1 C1 1_555 1_555
C1 C2 1_555 1_555
C2 C3 1_555 1_555
C3 C4 1_555 1_555
C4 C5 1_555 1_555
C5 N1 1_555 1_555
H1 C1 1_555 1_555
H2 C2 1_555 1_555
H3 C3 1_555 1_555
H4 C4 1_555 1_555
H5 C5 1_555 1_555
F1B P1 1_555 1_555
F2B P1 1_555 1_555
F3B P1 1_555 1_555
N1B Br1 1_555 1_555
C1B N1B 1_555 1_555
C2B C1B 1_555 1_555
C3B C2B 1_555 1_555
C4B C3B 1_555 1_555
C5B N1B 1_555 1_555
H1B C1B 1_555 1_555
H2B C2B 1_555 1_555
H3B C3B 1_555 1_555
H4B C4B 1_555 1_555
H5B C5B 1_555 1_555
C4B C5B 1_555 1_555

#END
