
#######################################################################
#
#                 Cambridge Crystallographic Data Centre
#                                CCDC 
#
#######################################################################
#
# If this CIF has been generated from an entry in the Cambridge 
# Structural Database, then it will include bibliographic, chemical, 
# crystal, experimental, refinement or atomic coordinate data resulting 
# from the CCDC's data processing and validation procedures.
#
#######################################################################

data_DOWBIC01
_chemical_formula_moiety         'C10 H10 Br1 N2 1+,Cl1 O4 1-'
_chemical_name_systematic        'bis(pyridine)bromonium perchlorate'
_symmetry_cell_setting           monoclinic
_symmetry_space_group_name_H-M   'C 2/c'
_symmetry_Int_Tables_number      15
_space_group_name_Hall           '-C 2yn'
loop_
_symmetry_equiv_pos_site_id
_symmetry_equiv_pos_as_xyz
1 x,y,z
2 1/2+x,1/2+y,z
3 -x,y,1/2-z
4 1/2-x,1/2+y,1/2-z
5 -x,-y,-z
6 1/2-x,1/2-y,-z
7 x,-y,1/2+z
8 1/2+x,1/2-y,1/2+z
_cell_length_a                   10.1232(2)
_cell_length_b                   12.1732(3)
_cell_length_c                   20.2353(4)
_cell_angle_alpha                90
_cell_angle_beta                 93.002(2)
_cell_angle_gamma                90
_cell_volume                     2490.21
_exptl_crystal_colour            'pale colorless'
_exptl_crystal_description       lath
_cell_formula_units_Z            8
loop_
_atom_site_label
_atom_site_type_symbol
_atom_site_fract_x
_atom_site_fract_y
_atom_site_fract_z
Cl1 Cl 0.22182(4) 0.53245(4) 0.64199(2)
O1 O 0.12351(16) 0.50334(15) 0.68780(8)
O2 O 0.20099(17) 0.64435(13) 0.62052(8)
O3 O 0.21215(19) 0.46039(14) 0.58573(8)
O4 O 0.35166(15) 0.52321(15) 0.67452(8)
Br1 Br 0.498769(17) 0.650304(15) 0.516174(8)
N1 N 0.35895(16) 0.61803(13) 0.44139(8)
C1 C 0.23036(19) 0.62051(16) 0.45405(9)
C2 C 0.1353(2) 0.59826(16) 0.40424(10)
C3 C 0.1749(2) 0.57448(17) 0.34123(10)
C4 C 0.3088(2) 0.57246(16) 0.32961(9)
C5 C 0.3998(2) 0.59429(16) 0.38108(9)
N2 N 0.64271(16) 0.68165(14) 0.59419(8)
C6 C 0.77171(19) 0.67727(17) 0.58347(10)
C7 C 0.8656(2) 0.69265(18) 0.63493(12)
C8 C 0.8233(2) 0.71274(18) 0.69773(12)
C9 C 0.6893(2) 0.71742(18) 0.70780(11)
C10 C 0.6007(2) 0.70063(17) 0.65460(10)
H1 H 0.2075 0.6376 0.4971
H2 H 0.0453 0.5984 0.4131
H3 H 0.1124 0.5593 0.3071
H4 H 0.3376 0.5560 0.2882
H5 H 0.4905 0.5916 0.3743
H6 H 0.7968 0.6630 0.5405
H7 H 0.9556 0.6881 0.6269
H8 H 0.8848 0.7238 0.7333
H9 H 0.6590 0.7314 0.7499
H10 H 0.5087 0.7009 0.6607
loop_
_geom_bond_atom_site_label_1
_geom_bond_atom_site_label_2
_geom_bond_site_symmetry_1
_geom_bond_site_symmetry_2
Cl1 O1 1_555 1_555
O2 Cl1 1_555 1_555
O3 Cl1 1_555 1_555
O4 Cl1 1_555 1_555
Br1 N1 1_555 1_555
N1 C1 1_555 1_555
C1 C2 1_555 1_555
C2 C3 1_555 1_555
C3 C4 1_555 1_555
C4 C5 1_555 1_555
C5 N1 1_555 1_555
N2 Br1 1_555 1_555
C6 N2 1_555 1_555
C7 C6 1_555 1_555
C8 C7 1_555 1_555
C9 C8 1_555 1_555
C10 N2 1_555 1_555
H1 C1 1_555 1_555
H2 C2 1_555 1_555
H3 C3 1_555 1_555
H4 C4 1_555 1_555
H5 C5 1_555 1_555
H6 C6 1_555 1_555
H7 C7 1_555 1_555
H8 C8 1_555 1_555
H9 C9 1_555 1_555
H10 C10 1_555 1_555
C9 C10 1_555 1_555

#END
