
#######################################################################
#
#                 Cambridge Crystallographic Data Centre
#                                CCDC 
#
#######################################################################
#
# If this CIF has been generated from an entry in the Cambridge 
# Structural Database, then it will include bibliographic, chemical, 
# crystal, experimental, refinement or atomic coordinate data resulting 
# from the CCDC's data processing and validation procedures.
#
#######################################################################

data_DOWBOI
_chemical_formula_moiety         'C30 H41 N1 O7'
_chemical_name_systematic        
'8-ethyl-9,15,25-trihydroxy-3,6,20-trimethyl-21,23-dioxo-24-azapentacyclo[20.2.1.0^1,6^.0^11,20^.0^14,19^]pentacosa-4,12,22(25)-triene-4-carboxylic acid unknown solvate'
_symmetry_cell_setting           monoclinic
_symmetry_space_group_name_H-M   'P 2'
_symmetry_Int_Tables_number      3
_space_group_name_Hall           'P 2y'
loop_
_symmetry_equiv_pos_site_id
_symmetry_equiv_pos_as_xyz
1 x,y,z
2 -x,y,-z
_cell_length_a                   13.432(5)
_cell_length_b                   13.596(5)
_cell_length_c                   17.785(6)
_cell_angle_alpha                90
_cell_angle_beta                 90
_cell_angle_gamma                90
_cell_volume                     3247.92
_exptl_crystal_colour            colorless
_exptl_crystal_description       block
_cell_formula_units_Z            4
_chemical_properties_physical    hygroscopic
_exptl_crystal_recrystallization_method methanol
loop_
_atom_site_label
_atom_site_type_symbol
_atom_site_fract_x
_atom_site_fract_y
_atom_site_fract_z
N1 N 0.4120(5) 0.2641(6) 0.9240(4)
H1 H 0.4123 0.2483 0.9714
O1 O 0.0876(6) 0.1403(6) 1.0827(4)
O2 O 0.1056(7) 0.2991(7) 1.1145(4)
H2 H 0.0731 0.2805 1.1516
O3 O 0.3089(5) 0.3156(6) 0.7478(3)
H3 H 0.3437 0.3230 0.7097
O4 O 0.5813(5) 0.2634(5) 0.9101(3)
O5 O 0.4672(6) 0.3532(6) 0.6812(3)
O6 O 0.8516(9) 0.5757(11) 0.5769(7)
H4 H 0.8511 0.6134 0.5401
O7 O 0.5336(6) 0.5828(6) 0.9301(4)
H5 H 0.5351 0.6381 0.9102
C1 C 0.1835(7) 0.2454(8) 1.0015(5)
C2 C 0.2126(7) 0.1574(7) 0.9547(5)
H6 H 0.1498 0.1218 0.9442
C3 C 0.2533(8) 0.1885(7) 0.8783(5)
H7 H 0.1974 0.2012 0.8443
H8 H 0.2921 0.1340 0.8571
C4 C 0.3203(6) 0.2818(6) 0.8815(4)
C5 C 0.3644(7) 0.3001(7) 0.8039(4)
C6 C 0.4680(8) 0.2971(7) 0.8066(5)
C7 C 0.5188(6) 0.3324(7) 0.7403(5)
C8 C 0.6260(7) 0.3663(7) 0.7336(5)
C9 C 0.6509(9) 0.4118(8) 0.6575(5)
H9 H 0.6019 0.4652 0.6490
C10 C 0.6435(11) 0.3421(12) 0.5892(6)
H10 H 0.7000 0.2965 0.5891
H11 H 0.5820 0.3035 0.5922
C11 C 0.6439(12) 0.4036(15) 0.5166(8)
H12 H 0.5843 0.4452 0.5155
H13 H 0.6412 0.3594 0.4732
C12 C 0.7409(14) 0.4718(18) 0.5102(10)
H14 H 0.7988 0.4307 0.4986
H15 H 0.7320 0.5185 0.4687
C13 C 0.7602(13) 0.5280(13) 0.5821(8)
H16 H 0.7075 0.5782 0.5880
C14 C 0.7568(8) 0.4594(8) 0.6501(6)
H17 H 0.8036 0.4049 0.6392
C15 C 0.7932(11) 0.5078(11) 0.7256(9)
H18 H 0.8550 0.5400 0.7277
C16 C 0.7376(9) 0.5029(9) 0.7849(8)
H19 H 0.7593 0.5398 0.8265
C17 C 0.6405(8) 0.4446(8) 0.7962(6)
H20 H 0.6449 0.4099 0.8450
C18 C 0.5531(7) 0.5230(7) 0.8017(5)
H21 H 0.5810 0.5894 0.7982
H22 H 0.5072 0.5137 0.7595
C19 C 0.4947(7) 0.5124(6) 0.8773(5)
H23 H 0.5102 0.4463 0.8975
C20 C 0.3814(8) 0.5196(8) 0.8716(6)
H24 H 0.3632 0.4840 0.8250
C21 C 0.3291(8) 0.4645(9) 0.9358(5)
H25 H 0.2891 0.5126 0.9637
H26 H 0.3807 0.4406 0.9702
C22 C 0.2570(7) 0.3718(7) 0.9155(5)
C23 C 0.2102(7) 0.3363(8) 0.9854(4)
H27 H 0.1981 0.3838 1.0228
C24 C 0.4991(7) 0.2750(7) 0.8818(5)
C25 C 0.1233(8) 0.2228(9) 1.0696(5)
C26 C 0.2828(8) 0.0810(9) 0.9934(5)
H28 H 0.2431 0.0335 1.0209
H29 H 0.3270 0.1148 1.0279
H30 H 0.3218 0.0473 0.9555
C27 C 0.6954(7) 0.2773(8) 0.7507(5)
H31 H 0.6868 0.2572 0.8026
H32 H 0.7641 0.2963 0.7424
H33 H 0.6785 0.2230 0.7177
C28 C 0.3373(11) 0.6182(12) 0.8641(7)
H34 H 0.3733 0.6613 0.8988
H35 H 0.2688 0.6136 0.8828
C29 C 0.333(3) 0.670(3) 0.7906(14)
H36 H 0.2870 0.6362 0.7574
H37 H 0.3984 0.6718 0.7681
H38 H 0.3095 0.7371 0.7985
C30 C 0.1765(8) 0.4078(10) 0.8615(5)
H39 H 0.1814 0.3720 0.8145
H40 H 0.1854 0.4775 0.8522
H41 H 0.1114 0.3967 0.8837
N2 N 0.8739(5) 1.0702(5) 0.4773(4)
H42 H 0.9310 1.0687 0.4542
O8 O 0.9966(6) 1.2453(7) 0.2299(4)
O9 O 0.9736(5) 1.0880(7) 0.1947(4)
H43 H 1.0134 1.1034 0.1611
O10 O 0.6178(5) 1.1101(8) 0.4946(4)
H44 H 0.5890 1.1003 0.5353
O11 O 0.9343(5) 1.0213(6) 0.5909(4)
O12 O 0.5990(5) 1.0470(9) 0.6258(4)
O13 O 0.6235(11) 0.7657(8) 0.9178(6)
H45 H 0.6074 0.7885 0.9594
O14 O 0.8090(14) 0.7417(9) 0.4988(7)
C31 C 0.8884(8) 1.1407(10) 0.3051(5)
C32 C 0.8745(9) 1.2311(10) 0.3595(6)
H46 H 0.8515 1.2873 0.3286
C33 C 0.7910(10) 1.2054(10) 0.4133(7)
H47 H 0.7280 1.2237 0.3893
H48 H 0.7984 1.2470 0.4580
C34 C 0.7819(8) 1.0988(9) 0.4397(5)
C35 C 0.7106(8) 1.0909(9) 0.5019(5)
C36 C 0.7551(6) 1.0572(7) 0.5685(4)
C37 C 0.6923(6) 1.0290(8) 0.6312(4)
C38 C 0.7252(7) 0.9595(7) 0.6960(5)
C39 C 0.6377(9) 0.9365(9) 0.7510(5)
H49 H 0.5855 0.9014 0.7222
C40 C 0.5898(7) 1.0253(9) 0.7882(5)
H50 H 0.5669 1.0718 0.7498
H51 H 0.6384 1.0589 0.8202
C41 C 0.5003(9) 0.9901(13) 0.8363(6)
H52 H 0.4706 1.0470 0.8615
H53 H 0.4497 0.9620 0.8028
C42 C 0.5280(9) 0.9143(10) 0.8947(6)
H54 H 0.4675 0.8898 0.9191
H55 H 0.5698 0.9451 0.9333
C43 C 0.5847(12) 0.8278(9) 0.8591(6)
H56 H 0.5395 0.7896 0.8263
C44 C 0.6746(9) 0.8681(8) 0.8122(6)
H57 H 0.7214 0.9035 0.8456
C45 C 0.7254(12) 0.7806(10) 0.7779(8)
H58 H 0.7239 0.7213 0.8050
C46 C 0.7734(15) 0.7803(11) 0.7108(8)
H59 H 0.8105 0.7244 0.6974
C47 C 0.7700(11) 0.8645(9) 0.6577(7)
H60 H 0.8387 0.8794 0.6411
C48 C 0.7062(12) 0.8286(11) 0.5857(7)
H61 H 0.6836 0.7607 0.5930
H62 H 0.6476 0.8707 0.5791
C49 C 0.7748(12) 0.8352(10) 0.5150(7)
H63 H 0.8304 0.8819 0.5230
C50 C 0.7116(13) 0.8629(13) 0.4433(7)
H64 H 0.6667 0.9148 0.4627
C51 C 0.7795(11) 0.9225(12) 0.3838(7)
H65 H 0.8490 0.9143 0.3993
H66 H 0.7724 0.8896 0.3350
C52 C 0.7624(9) 1.0312(12) 0.3710(6)
C53 C 0.8398(8) 1.0568(10) 0.3125(5)
H67 H 0.8550 1.0074 0.2774
C54 C 0.8642(6) 1.0465(6) 0.5494(4)
C55 C 0.9598(9) 1.1669(11) 0.2424(6)
C56 C 0.9663(10) 1.2617(11) 0.3974(7)
H68 H 0.9848 1.3270 0.3806
H69 H 1.0193 1.2158 0.3854
H70 H 0.9556 1.2624 0.4514
C57 C 0.8116(7) 1.0146(7) 0.7379(5)
H71 H 0.7872 1.0769 0.7572
H72 H 0.8659 1.0266 0.7032
H73 H 0.8352 0.9745 0.7794
C58 C 0.6411(15) 0.7981(17) 0.3990(10)
C59 C 0.6597(10) 1.0531(16) 0.3357(6)
H74 H 0.6634 1.1135 0.3068
H75 H 0.6105 1.0602 0.3752
H76 H 0.6408 0.9993 0.3028
C60 C 0.551(3) 0.744(4) 0.427(3)
C61? C 0.556(4) 0.761(8) 0.351(4)
loop_
_geom_bond_atom_site_label_1
_geom_bond_atom_site_label_2
_geom_bond_site_symmetry_1
_geom_bond_site_symmetry_2
N1 H1 1_555 1_555
O1 C25 1_555 1_555
O2 H2 1_555 1_555
O3 H3 1_555 1_555
O4 C24 1_555 1_555
O5 C7 1_555 1_555
O6 H4 1_555 1_555
O7 H5 1_555 1_555
C1 C2 1_555 1_555
C2 H6 1_555 1_555
C3 C2 1_555 1_555
H7 C3 1_555 1_555
H8 C3 1_555 1_555
C4 N1 1_555 1_555
C5 O3 1_555 1_555
C6 C5 1_555 1_555
C7 C6 1_555 1_555
C8 C7 1_555 1_555
C9 C8 1_555 1_555
H9 C9 1_555 1_555
C10 C9 1_555 1_555
H10 C10 1_555 1_555
H11 C10 1_555 1_555
C11 C10 1_555 1_555
H12 C11 1_555 1_555
H13 C11 1_555 1_555
C12 C11 1_555 1_555
H14 C12 1_555 1_555
H15 C12 1_555 1_555
C13 O6 1_555 1_555
H16 C13 1_555 1_555
C14 C9 1_555 1_555
H17 C14 1_555 1_555
C15 C14 1_555 1_555
H18 C15 1_555 1_555
C16 C15 1_555 1_555
H19 C16 1_555 1_555
C17 C8 1_555 1_555
H20 C17 1_555 1_555
C18 C17 1_555 1_555
H21 C18 1_555 1_555
H22 C18 1_555 1_555
C19 O7 1_555 1_555
H23 C19 1_555 1_555
C20 C19 1_555 1_555
H24 C20 1_555 1_555
C21 C20 1_555 1_555
H25 C21 1_555 1_555
H26 C21 1_555 1_555
C22 C4 1_555 1_555
C23 C1 1_555 1_555
H27 C23 1_555 1_555
C24 N1 1_555 1_555
C25 O2 1_555 1_555
C26 C2 1_555 1_555
H28 C26 1_555 1_555
H29 C26 1_555 1_555
H30 C26 1_555 1_555
C27 C8 1_555 1_555
H31 C27 1_555 1_555
H32 C27 1_555 1_555
H33 C27 1_555 1_555
C28 C20 1_555 1_555
H34 C28 1_555 1_555
H35 C28 1_555 1_555
C29 C28 1_555 1_555
H36 C29 1_555 1_555
H37 C29 1_555 1_555
H38 C29 1_555 1_555
C30 C22 1_555 1_555
H39 C30 1_555 1_555
H40 C30 1_555 1_555
H41 C30 1_555 1_555
N2 H42 1_555 1_555
O8 C55 1_555 1_555
O9 H43 1_555 1_555
O10 H44 1_555 1_555
O11 C54 1_555 1_555
O12 C37 1_555 1_555
O13 H45 1_555 1_555
O14 C49 1_555 1_555
C31 C32 1_555 1_555
C32 H46 1_555 1_555
C33 C32 1_555 1_555
H47 C33 1_555 1_555
H48 C33 1_555 1_555
C34 N2 1_555 1_555
C35 O10 1_555 1_555
C36 C35 1_555 1_555
C37 C36 1_555 1_555
C38 C37 1_555 1_555
C39 C38 1_555 1_555
H49 C39 1_555 1_555
C40 C39 1_555 1_555
H50 C40 1_555 1_555
H51 C40 1_555 1_555
C41 C40 1_555 1_555
H52 C41 1_555 1_555
H53 C41 1_555 1_555
C42 C41 1_555 1_555
H54 C42 1_555 1_555
H55 C42 1_555 1_555
C43 O13 1_555 1_555
H56 C43 1_555 1_555
C44 C39 1_555 1_555
H57 C44 1_555 1_555
C45 C44 1_555 1_555
H58 C45 1_555 1_555
C46 C45 1_555 1_555
H59 C46 1_555 1_555
C47 C38 1_555 1_555
H60 C47 1_555 1_555
C48 C47 1_555 1_555
H61 C48 1_555 1_555
H62 C48 1_555 1_555
C49 C48 1_555 1_555
H63 C49 1_555 1_555
C50 C49 1_555 1_555
H64 C50 1_555 1_555
C51 C50 1_555 1_555
H65 C51 1_555 1_555
H66 C51 1_555 1_555
C52 C34 1_555 1_555
C53 C31 1_555 1_555
H67 C53 1_555 1_555
C54 N2 1_555 1_555
C55 O9 1_555 1_555
C56 C32 1_555 1_555
H68 C56 1_555 1_555
H69 C56 1_555 1_555
H70 C56 1_555 1_555
C57 C38 1_555 1_555
H71 C57 1_555 1_555
H72 C57 1_555 1_555
H73 C57 1_555 1_555
C58 C50 1_555 1_555
C59 C52 1_555 1_555
H74 C59 1_555 1_555
H75 C59 1_555 1_555
H76 C59 1_555 1_555
C60 C58 1_555 1_555
C1 C25 1_555 1_555
C3 C4 1_555 1_555
C4 C5 1_555 1_555
C6 C24 1_555 1_555
C12 C13 1_555 1_555
C13 C14 1_555 1_555
C16 C17 1_555 1_555
C18 C19 1_555 1_555
C21 C22 1_555 1_555
C22 C23 1_555 1_555
C31 C55 1_555 1_555
C33 C34 1_555 1_555
C34 C35 1_555 1_555
C36 C54 1_555 1_555
C42 C43 1_555 1_555
C43 C44 1_555 1_555
C46 C47 1_555 1_555
C51 C52 1_555 1_555
C52 C53 1_555 1_555

#END
