
#######################################################################
#
#                 Cambridge Crystallographic Data Centre
#                                CCDC 
#
#######################################################################
#
# If this CIF has been generated from an entry in the Cambridge 
# Structural Database, then it will include bibliographic, chemical, 
# crystal, experimental, refinement or atomic coordinate data resulting 
# from the CCDC's data processing and validation procedures.
#
#######################################################################

data_DOWDUP
_chemical_formula_moiety         'C25 H31 N1 O2 S1'
_chemical_name_systematic        
N-(2-Butyl-4,4,5-trimethyl-3-phenyl-2-cyclopenten-1-ylidene)-4-methylbenzenesulfonamide
_symmetry_cell_setting           triclinic
_symmetry_space_group_name_H-M   'P -1'
_symmetry_Int_Tables_number      2
_space_group_name_Hall           '-P 1'
loop_
_symmetry_equiv_pos_site_id
_symmetry_equiv_pos_as_xyz
1 x,y,z
2 -x,-y,-z
_cell_length_a                   9.4266(5)
_cell_length_b                   11.5875(6)
_cell_length_c                   12.6288(8)
_cell_angle_alpha                111.613(2)
_cell_angle_beta                 100.587(3)
_cell_angle_gamma                108.243(3)
_cell_volume                     1146.03
_exptl_crystal_colour            colorless
_exptl_crystal_description       prism
_cell_formula_units_Z            2
loop_
_atom_site_label
_atom_site_type_symbol
_atom_site_fract_x
_atom_site_fract_y
_atom_site_fract_z
S1 S 0.57775(7) 0.47428(6) 0.26224(5)
O1 O 0.4770(2) 0.51871(17) 0.32509(14)
O2 O 0.6905(2) 0.57250(19) 0.24109(15)
N1 N 0.4777(2) 0.3333(2) 0.13348(16)
C1 C 0.3186(3) 0.0673(3) -0.0786(2)
H1 H 0.2301 -0.0221 -0.1366
H2 H 0.3628 0.0595 -0.0054
C2 C 0.3394(3) 0.3054(2) 0.06323(19)
C3 C 0.2526(3) 0.1728(2) -0.04390(19)
C4 C 0.4479(3) 0.0957(3) -0.1354(2)
H3 H 0.5351 0.1863 -0.0786
H4 H 0.4918 0.0266 -0.1459
C5 C 0.3919(3) 0.0938(3) -0.2553(2)
H5 H 0.3617 0.1710 -0.2434
H6 H 0.2960 0.0082 -0.3093
C6 C 0.5188(4) 0.1042(4) -0.3170(3)
H7 H 0.6102 0.1926 -0.2675
H8 H 0.4740 0.0961 -0.3971
H9 H 0.5529 0.0306 -0.3255
C7 C 0.1074(3) 0.1619(2) -0.09566(19)
C8 C 0.0791(3) 0.2879(2) -0.0299(2)
C9 C 0.2427(3) 0.3894(2) 0.0715(2)
H10 H 0.2266 0.4167 0.1517
C10 C 0.3283(3) 0.5184(3) 0.0609(3)
H11 H 0.4301 0.5752 0.1275
H12 H 0.2626 0.5698 0.0651
H13 H 0.3472 0.4931 -0.0166
C11 C -0.0487(3) 0.2531(3) 0.0272(2)
H14 H -0.1483 0.1815 -0.0365
H15 H -0.0652 0.3349 0.0700
H16 H -0.0140 0.2208 0.0845
C12 C 0.0215(3) 0.3380(3) -0.1190(2)
H17 H 0.0983 0.3550 -0.1603
H18 H 0.0111 0.4226 -0.0748
H19 H -0.0819 0.2682 -0.1789
C13 C -0.0190(3) 0.0420(2) -0.2051(2)
C14 C -0.0361(3) 0.0363(3) -0.3190(2)
H20 H 0.0362 0.1082 -0.3270
C15 C -0.1573(3) -0.0729(3) -0.4206(2)
H21 H -0.1683 -0.0749 -0.4976
C16 C -0.2614(4) -0.1780(3) -0.4107(3)
H22 H -0.3452 -0.2524 -0.4805
C17 C -0.2438(4) -0.1751(3) -0.2992(3)
H23 H -0.3145 -0.2489 -0.2924
C18 C -0.1240(4) -0.0656(3) -0.1969(3)
H24 H -0.1139 -0.0644 -0.1202
C19 C 0.6803(3) 0.4124(2) 0.3434(2)
C20 C 0.6656(3) 0.4261(3) 0.4535(2)
H25 H 0.6006 0.4678 0.4850
C21 C 0.7468(3) 0.3782(3) 0.5179(2)
H26 H 0.7362 0.3872 0.5936
C22 C 0.8424(3) 0.3180(3) 0.4747(2)
C23 C 0.8580(3) 0.3077(3) 0.3651(2)
H27 H 0.9253 0.2681 0.3348
C24 C 0.7774(3) 0.3540(3) 0.2986(2)
H28 H 0.7888 0.3457 0.2233
C25 C 0.9265(4) 0.2641(3) 0.5454(3)
H29 H 0.9909 0.2268 0.5027
H30 H 0.8478 0.1920 0.5535
H31 H 0.9952 0.3385 0.6260
loop_
_geom_bond_atom_site_label_1
_geom_bond_atom_site_label_2
_geom_bond_site_symmetry_1
_geom_bond_site_symmetry_2
S1 O1 1_555 1_555
O2 S1 1_555 1_555
N1 S1 1_555 1_555
C1 H1 1_555 1_555
H2 C1 1_555 1_555
C2 N1 1_555 1_555
C3 C1 1_555 1_555
C4 C1 1_555 1_555
H3 C4 1_555 1_555
H4 C4 1_555 1_555
C5 C4 1_555 1_555
H5 C5 1_555 1_555
H6 C5 1_555 1_555
C6 C5 1_555 1_555
H7 C6 1_555 1_555
H8 C6 1_555 1_555
H9 C6 1_555 1_555
C7 C3 1_555 1_555
C8 C7 1_555 1_555
C9 C2 1_555 1_555
H10 C9 1_555 1_555
C10 C9 1_555 1_555
H11 C10 1_555 1_555
H12 C10 1_555 1_555
H13 C10 1_555 1_555
C11 C8 1_555 1_555
H14 C11 1_555 1_555
H15 C11 1_555 1_555
H16 C11 1_555 1_555
C12 C8 1_555 1_555
H17 C12 1_555 1_555
H18 C12 1_555 1_555
H19 C12 1_555 1_555
C13 C7 1_555 1_555
C14 C13 1_555 1_555
H20 C14 1_555 1_555
C15 C14 1_555 1_555
H21 C15 1_555 1_555
C16 C15 1_555 1_555
H22 C16 1_555 1_555
C17 C16 1_555 1_555
H23 C17 1_555 1_555
C18 C13 1_555 1_555
H24 C18 1_555 1_555
C19 S1 1_555 1_555
C20 C19 1_555 1_555
H25 C20 1_555 1_555
C21 C20 1_555 1_555
H26 C21 1_555 1_555
C22 C21 1_555 1_555
C23 C22 1_555 1_555
H27 C23 1_555 1_555
C24 C19 1_555 1_555
H28 C24 1_555 1_555
C25 C22 1_555 1_555
H29 C25 1_555 1_555
H30 C25 1_555 1_555
H31 C25 1_555 1_555
C2 C3 1_555 1_555
C8 C9 1_555 1_555
C17 C18 1_555 1_555
C23 C24 1_555 1_555

#END
