
#######################################################################
#
#                 Cambridge Crystallographic Data Centre
#                                CCDC 
#
#######################################################################
#
# If this CIF has been generated from an entry in the Cambridge 
# Structural Database, then it will include bibliographic, chemical, 
# crystal, experimental, refinement or atomic coordinate data resulting 
# from the CCDC's data processing and validation procedures.
#
#######################################################################

data_DOWFAX
_chemical_formula_moiety         'C27 H33 N1 O2 S1'
_chemical_name_systematic        
N-(2-Cyclohexyl-4,4,5-trimethyl-3-phenyl-2-cyclopenten-1-ylidene)-4-methylbenzenesulfonamide
_symmetry_cell_setting           orthorhombic
_symmetry_space_group_name_H-M   'P c a 21'
_symmetry_Int_Tables_number      29
_space_group_name_Hall           'P 2c -2ac'
loop_
_symmetry_equiv_pos_site_id
_symmetry_equiv_pos_as_xyz
1 x,y,z
2 -x,-y,1/2+z
3 1/2-x,y,1/2+z
4 1/2+x,-y,z
_cell_length_a                   20.0596(7)
_cell_length_b                   6.22590(10)
_cell_length_c                   18.9072(6)
_cell_angle_alpha                90
_cell_angle_beta                 90
_cell_angle_gamma                90
_cell_volume                     2361.3
_exptl_crystal_colour            colorless
_exptl_crystal_description       plate
_cell_formula_units_Z            4
loop_
_atom_site_label
_atom_site_type_symbol
_atom_site_fract_x
_atom_site_fract_y
_atom_site_fract_z
S1 S 0.02730(4) -0.11625(12) 0.18606(5)
O1 O -0.02014(13) -0.2518(4) 0.15061(14)
O2 O 0.00216(13) 0.0242(4) 0.24024(13)
N1 N 0.07341(14) 0.0223(4) 0.13060(15)
C1 C 0.16663(17) 0.2612(5) 0.03539(18)
H1 H 0.1831 0.3361 -0.0080
C2 C 0.04913(17) 0.1193(5) 0.07531(17)
C3 C 0.09236(17) 0.2312(5) 0.02606(18)
C4 C 0.1832(2) 0.4086(6) 0.0987(2)
H2 H 0.1599 0.5477 0.0928
H3 H 0.1668 0.3414 0.1428
C5 C 0.2574(2) 0.4476(7) 0.1046(3)
H4 H 0.2730 0.5280 0.0625
H5 H 0.2666 0.5365 0.1469
C6 C 0.2956(2) 0.2387(7) 0.1101(3)
H6 H 0.3441 0.2692 0.1113
H7 H 0.2836 0.1650 0.1547
C7 C 0.2802(2) 0.0937(7) 0.0481(2)
H8 H 0.3040 -0.0442 0.0543
H9 H 0.2967 0.1616 0.0042
C8 C 0.20548(18) 0.0495(6) 0.0407(2)
H10 H 0.1897 -0.0330 0.0822
H11 H 0.1974 -0.0380 -0.0021
C9 C 0.05535(18) 0.3027(5) -0.02893(18)
C10 C -0.01832(16) 0.2512(5) -0.02230(19)
C11 C -0.02284(18) 0.1355(5) 0.05097(18)
H12 H -0.0400 -0.0133 0.0429
C12 C -0.06793(19) 0.2444(6) 0.1051(2)
H13 H -0.0721 0.1526 0.1470
H14 H -0.1121 0.2678 0.0843
H15 H -0.0486 0.3828 0.1188
C13 C -0.0428(2) 0.0988(7) -0.0806(2)
H16 H -0.0397 0.1708 -0.1266
H17 H -0.0893 0.0591 -0.0714
H18 H -0.0151 -0.0309 -0.0810
C14 C -0.0585(2) 0.4621(6) -0.0271(2)
H19 H -0.0435 0.5610 0.0100
H20 H -0.1060 0.4311 -0.0207
H21 H -0.0514 0.5280 -0.0735
C15 C 0.08134(17) 0.4337(5) -0.08826(19)
C16 C 0.1034(2) 0.6440(5) -0.0742(2)
H22 H 0.1034 0.6965 -0.0270
C17 C 0.1252(2) 0.7744(6) -0.1287(2)
H23 H 0.1402 0.9160 -0.1187
C18 C 0.12536(19) 0.7009(7) -0.1969(2)
H24 H 0.1395 0.7924 -0.2342
C19 C 0.10503(19) 0.4939(7) -0.2114(2)
H25 H 0.1065 0.4414 -0.2586
C20 C 0.08251(18) 0.3627(6) -0.15732(19)
H26 H 0.0676 0.2214 -0.1680
C21 C 0.08804(18) -0.2814(5) 0.22608(17)
C22 C 0.06949(17) -0.4863(5) 0.24607(18)
H27 H 0.0272 -0.5418 0.2329
C23 C 0.11332(19) -0.6102(6) 0.28564(19)
H28 H 0.1008 -0.7512 0.2994
C24 C 0.1751(2) -0.5308(6) 0.3052(2)
C25 C 0.1926(2) -0.3235(6) 0.2842(2)
H29 H 0.2349 -0.2676 0.2972
C26 C 0.14984(19) -0.1985(6) 0.2452(2)
H30 H 0.1623 -0.0575 0.2314
C27 C 0.2226(2) -0.6690(8) 0.3473(3)
H31 H 0.1997 -0.8001 0.3626
H32 H 0.2380 -0.5894 0.3890
H33 H 0.2610 -0.7073 0.3178
loop_
_geom_bond_atom_site_label_1
_geom_bond_atom_site_label_2
_geom_bond_site_symmetry_1
_geom_bond_site_symmetry_2
S1 O1 1_555 1_555
O2 S1 1_555 1_555
N1 S1 1_555 1_555
C1 H1 1_555 1_555
C2 N1 1_555 1_555
C3 C1 1_555 1_555
C4 C1 1_555 1_555
H2 C4 1_555 1_555
H3 C4 1_555 1_555
C5 C4 1_555 1_555
H4 C5 1_555 1_555
H5 C5 1_555 1_555
C6 C5 1_555 1_555
H6 C6 1_555 1_555
H7 C6 1_555 1_555
C7 C6 1_555 1_555
H8 C7 1_555 1_555
H9 C7 1_555 1_555
C8 C1 1_555 1_555
H10 C8 1_555 1_555
H11 C8 1_555 1_555
C9 C3 1_555 1_555
C10 C9 1_555 1_555
C11 C2 1_555 1_555
H12 C11 1_555 1_555
C12 C11 1_555 1_555
H13 C12 1_555 1_555
H14 C12 1_555 1_555
H15 C12 1_555 1_555
C13 C10 1_555 1_555
H16 C13 1_555 1_555
H17 C13 1_555 1_555
H18 C13 1_555 1_555
C14 C10 1_555 1_555
H19 C14 1_555 1_555
H20 C14 1_555 1_555
H21 C14 1_555 1_555
C15 C9 1_555 1_555
C16 C15 1_555 1_555
H22 C16 1_555 1_555
C17 C16 1_555 1_555
H23 C17 1_555 1_555
C18 C17 1_555 1_555
H24 C18 1_555 1_555
C19 C18 1_555 1_555
H25 C19 1_555 1_555
C20 C15 1_555 1_555
H26 C20 1_555 1_555
C21 S1 1_555 1_555
C22 C21 1_555 1_555
H27 C22 1_555 1_555
C23 C22 1_555 1_555
H28 C23 1_555 1_555
C24 C23 1_555 1_555
C25 C24 1_555 1_555
H29 C25 1_555 1_555
C26 C21 1_555 1_555
H30 C26 1_555 1_555
C27 C24 1_555 1_555
H31 C27 1_555 1_555
H32 C27 1_555 1_555
H33 C27 1_555 1_555
C2 C3 1_555 1_555
C7 C8 1_555 1_555
C10 C11 1_555 1_555
C19 C20 1_555 1_555
C25 C26 1_555 1_555

#END
