
#######################################################################
#
#                 Cambridge Crystallographic Data Centre
#                                CCDC 
#
#######################################################################
#
# If this CIF has been generated from an entry in the Cambridge 
# Structural Database, then it will include bibliographic, chemical, 
# crystal, experimental, refinement or atomic coordinate data resulting 
# from the CCDC's data processing and validation procedures.
#
#######################################################################

data_DOWHED
_chemical_formula_moiety         'C22 H21 Br1 N4 O3 S1'
_chemical_name_systematic        
'(E,E)-Methyl 2-(2-(((4-((2-bromobenzylidene)amino)-5-methyl-4H-1,2,4-triazol-3-yl)sulfanyl)methyl)phenyl)-3-methoxyacrylate'
_chemical_properties_biological  'preliminary study on fungicidal activity'
_symmetry_cell_setting           monoclinic
_symmetry_space_group_name_H-M   'P 21/c'
_symmetry_Int_Tables_number      14
_space_group_name_Hall           '-P 2ybc'
loop_
_symmetry_equiv_pos_site_id
_symmetry_equiv_pos_as_xyz
1 x,y,z
2 -x,1/2+y,1/2-z
3 -x,-y,-z
4 x,1/2-y,1/2+z
_cell_length_a                   14.765(2)
_cell_length_b                   8.0087(13)
_cell_length_c                   19.700(3)
_cell_angle_alpha                90
_cell_angle_beta                 105.164(3)
_cell_angle_gamma                90
_cell_volume                     2248.38
_exptl_crystal_colour            colorless
_exptl_crystal_description       block
_chemical_melting_point          '158-160 deg.C'
_cell_formula_units_Z            4
loop_
_atom_site_label
_atom_site_type_symbol
_atom_site_fract_x
_atom_site_fract_y
_atom_site_fract_z
Br1 Br 0.18713(3) 0.40120(4) 0.149683(18)
C1 C 0.09686(18) 0.6572(4) 0.05310(14)
C2 C 0.1448(2) 0.5053(4) 0.05995(15)
C3 C 0.1618(2) 0.4225(4) 0.00367(17)
H1 H 0.1945 0.3220 0.0100
C4 C 0.1294(2) 0.4908(4) -0.06257(17)
H2 H 0.1401 0.4353 -0.1012
C5 C 0.0830(2) 0.6359(4) -0.07194(15)
H3 H 0.0623 0.6805 -0.1169
C6 C 0.0651(2) 0.7219(4) -0.01462(15)
H4 H 0.0320 0.8219 -0.0219
C7 C 0.07930(19) 0.7455(4) 0.11303(14)
H5 H 0.0999 0.6996 0.1578
C8 C -0.0521(2) 1.0052(4) 0.18085(15)
C9 C 0.0992(2) 1.0235(4) 0.22253(15)
C10 C -0.1453(2) 0.9589(5) 0.1352(2)
H6 H -0.1635 0.8521 0.1493
H7 H -0.1421 0.9532 0.0872
H8 H -0.1906 1.0415 0.1394
C11 C 0.2506(2) 0.8278(4) 0.28837(15)
H9 H 0.2366 0.8502 0.3330
H10 H 0.2144 0.7313 0.2671
C12 C 0.3535(2) 0.7936(4) 0.30005(14)
C13 C 0.41870(19) 0.8385(4) 0.36277(14)
C14 C 0.5124(2) 0.8011(4) 0.37109(17)
H11 H 0.5562 0.8302 0.4126
C15 C 0.5423(2) 0.7206(5) 0.3184(2)
H12 H 0.6055 0.6960 0.3247
C16 C 0.4788(3) 0.6779(4) 0.25739(19)
H13 H 0.4986 0.6247 0.2219
C17 C 0.3853(3) 0.7134(4) 0.24828(17)
H14 H 0.3424 0.6830 0.2065
C18 C 0.3891(2) 0.9262(3) 0.41923(14)
C19 C 0.3855(4) 1.1063(6) 0.4258(3)
C20 C 0.4001(6) 1.3593(6) 0.3624(5)
H15 H 0.3351 1.3882 0.3448
H16 H 0.4344 1.3979 0.3302
H17 H 0.4249 1.4109 0.4075
C21 C 0.3626(6) 0.8467(6) 0.4725(3)
H18 H 0.3451 0.9085 0.5070
C22 C 0.3381(8) 0.6061(15) 0.5358(5)
H19 H 0.3703 0.6654 0.5775
H20 H 0.3566 0.4909 0.5402
H21 H 0.2716 0.6142 0.5298
O1 O 0.4092(3) 1.1804(5) 0.3697(2)
O2 O 0.3478(2) 1.1910(4) 0.46124(15)
O3 O 0.3621(4) 0.6790(5) 0.4749(2)
N1 N 0.03675(19) 0.8826(3) 0.10516(12)
N2 N 0.02975(16) 0.9577(3) 0.16823(12)
N3 N -0.0362(2) 1.0908(3) 0.23870(14)
N4 N 0.0598(2) 1.1037(3) 0.26493(13)
S1 S 0.21923(6) 1.00894(12) 0.23031(5)
C23? C 0.3785(16) 0.834(2) 0.4823(8)
C24? C 0.330(2) 0.603(4) 0.5222(18)
C25? C 0.3708(13) 1.1138(11) 0.4117(10)
C26? C 0.425(3) 1.360(3) 0.391(2)
H22? H 0.3680 0.6021 0.5698
H23? H 0.3059 0.4934 0.5091
H24? H 0.2788 0.6798 0.5182
H25? H 0.3233 1.1722 0.4244
H26? H 0.3592 1.3795 0.3843
H27? H 0.4466 1.4230 0.3565
H28? H 0.4589 1.3938 0.4371
O4? O 0.387(2) 0.656(3) 0.4757(17)
O5? O 0.3632(13) 0.900(2) 0.5347(8)
O6? O 0.4409(10) 1.183(2) 0.3815(10)
loop_
_geom_bond_atom_site_label_1
_geom_bond_atom_site_label_2
_geom_bond_site_symmetry_1
_geom_bond_site_symmetry_2
Br1 C2 1_555 1_555
C1 C2 1_555 1_555
C2 C3 1_555 1_555
C3 H1 1_555 1_555
C4 C3 1_555 1_555
H2 C4 1_555 1_555
C5 C4 1_555 1_555
H3 C5 1_555 1_555
C6 C1 1_555 1_555
H4 C6 1_555 1_555
C7 C1 1_555 1_555
H5 C7 1_555 1_555
C8 C10 1_555 1_555
C9 N2 1_555 1_555
C10 H6 1_555 1_555
H7 C10 1_555 1_555
H8 C10 1_555 1_555
C11 H9 1_555 1_555
H10 C11 1_555 1_555
C12 C11 1_555 1_555
C13 C12 1_555 1_555
C14 C13 1_555 1_555
H11 C14 1_555 1_555
C15 C14 1_555 1_555
H12 C15 1_555 1_555
C16 C15 1_555 1_555
H13 C16 1_555 1_555
C17 C12 1_555 1_555
H14 C17 1_555 1_555
C18 C13 1_555 1_555
C19 C18 1_555 1_555
C20 H15 1_555 1_555
H16 C20 1_555 1_555
H17 C20 1_555 1_555
C21 C18 1_555 1_555
H18 C21 1_555 1_555
C22 H19 1_555 1_555
H20 C22 1_555 1_555
H21 C22 1_555 1_555
O1 C19 1_555 1_555
O2 C19 1_555 1_555
O3 C21 1_555 1_555
N1 C7 1_555 1_555
N2 C8 1_555 1_555
N3 C8 1_555 1_555
N4 C9 1_555 1_555
S1 C9 1_555 1_555
C5 C6 1_555 1_555
C11 S1 1_555 1_555
C16 C17 1_555 1_555
C20 O1 1_555 1_555
C22 O3 1_555 1_555
N1 N2 1_555 1_555
N3 N4 1_555 1_555

#END
