
#######################################################################
#
#                 Cambridge Crystallographic Data Centre
#                                CCDC 
#
#######################################################################
#
# If this CIF has been generated from an entry in the Cambridge 
# Structural Database, then it will include bibliographic, chemical, 
# crystal, experimental, refinement or atomic coordinate data resulting 
# from the CCDC's data processing and validation procedures.
#
#######################################################################

data_DOWJOO
_chemical_formula_moiety         'C40 H54 N4'
_chemical_name_systematic        5,10,15,20-tetrakis(1-Ethylpropyl)porphyrin
_symmetry_cell_setting           monoclinic
_symmetry_space_group_name_H-M   'P 21/c'
_symmetry_Int_Tables_number      14
_space_group_name_Hall           '-P 2ybc'
loop_
_symmetry_equiv_pos_site_id
_symmetry_equiv_pos_as_xyz
1 x,y,z
2 -x,1/2+y,1/2-z
3 -x,-y,-z
4 x,1/2-y,1/2+z
_cell_length_a                   11.347(2)
_cell_length_b                   10.446(2)
_cell_length_c                   14.142(3)
_cell_angle_alpha                90
_cell_angle_beta                 98.81(3)
_cell_angle_gamma                90
_cell_volume                     1656.48
_exptl_crystal_colour            blue
_exptl_crystal_description       plate
_chemical_melting_point          'above 350deg.C'
_cell_formula_units_Z            2
_exptl_crystal_recrystallization_method chloroform/n-hexane
loop_
_atom_site_label
_atom_site_type_symbol
_atom_site_fract_x
_atom_site_fract_y
_atom_site_fract_z
N1 N 0.6492(3) -0.0062(4) 0.1024(3)
H1 H 0.5841(3) -0.0052(4) 0.0597(3)
N2 N 0.4221(3) 0.1313(4) 0.0845(3)
C1 C 0.7516(5) -0.0735(5) 0.0973(3)
C2 C 0.8389(5) -0.0475(5) 0.1809(3)
H2 H 0.9175(5) -0.0812(5) 0.1941(3)
C3 C 0.7880(4) 0.0328(5) 0.2357(3)
H3 H 0.8236(4) 0.0664(5) 0.2958(3)
C4 C 0.6685(4) 0.0595(5) 0.1872(3)
C5 C 0.5855(4) 0.1410(5) 0.2232(3)
C6 C 0.6202(4) 0.1938(5) 0.3261(3)
H4 H 0.6978(4) 0.1519(5) 0.3518(3)
C7 C 0.6449(5) 0.3379(5) 0.3313(4)
H5 H 0.5700(5) 0.3836(5) 0.3067(4)
H6 H 0.6677(5) 0.3622(5) 0.3993(4)
C8 C 0.7393(6) 0.3826(6) 0.2774(4)
H7 H 0.7489(6) 0.4754(6) 0.2848(4)
H8 H 0.7168(6) 0.3616(6) 0.2095(4)
H9 H 0.8147(6) 0.3401(6) 0.3023(4)
C9 C 0.5317(5) 0.1514(6) 0.3937(4)
H10 H 0.4668(5) 0.2152(6) 0.3911(4)
H11 H 0.4956(5) 0.0682(6) 0.3716(4)
C10 C 0.5950(5) 0.1382(6) 0.4974(4)
H12 H 0.5373(5) 0.1113(6) 0.5384(4)
H13 H 0.6296(5) 0.2208(6) 0.5196(4)
H14 H 0.6584(5) 0.0740(6) 0.5002(4)
C11 C 0.4746(4) 0.1748(5) 0.1730(3)
C12 C 0.3904(4) 0.2625(5) 0.2029(3)
H15 H 0.4008(4) 0.3086(5) 0.2615(3)
C13 C 0.2947(5) 0.2689(5) 0.1347(3)
H16 H 0.2268(5) 0.3214(5) 0.1368(3)
C14 C 0.3109(4) 0.1840(5) 0.0582(3)
C15 C 0.7721(5) -0.1587(5) 0.0233(4)
C16 C 0.8984(7) -0.2211(7) 0.0294(4)
H17 H 0.9458(7) -0.1833(7) 0.0883(4)
C17 C 0.8986(7) -0.3580(8) 0.0480(6)
C18 C 0.8617(11) -0.3910(13) 0.1435(8)
C19 C 0.9705(6) -0.1815(7) -0.0559(5)
H18 H 0.9594(6) -0.0889(7) -0.0693(5)
H19 H 0.9376(6) -0.2290(7) -0.1146(5)
C20 C 1.0977(7) -0.2090(10) -0.0318(6)
H20 H 1.1385(7) -0.1838(10) -0.0852(6)
H21 H 1.1309(7) -0.1609(10) 0.0257(6)
H22 H 1.1092(7) -0.3009(10) -0.0196(6)
C15B C 0.2279(5) 0.1587(5) -0.0233(4)
C1B C 0.2484(5) 0.0735(5) -0.0973(3)
N1B N 0.3508(3) 0.0062(4) -0.1024(3)
H1B H 0.4159(3) 0.0052(4) -0.0597(3)
C4B C 0.3315(4) -0.0595(5) -0.1872(3)
C3B C 0.2120(4) -0.0328(5) -0.2357(3)
C2B C 0.1611(5) 0.0475(5) -0.1809(3)
H2B H 0.0825(5) 0.0812(5) -0.1941(3)
H3B H 0.1764(4) -0.0664(5) -0.2958(3)
C5B C 0.4145(4) -0.1410(5) -0.2232(3)
C6B C 0.3798(4) -0.1938(5) -0.3261(3)
H4B H 0.3022(4) -0.1519(5) -0.3518(3)
C7B C 0.3551(5) -0.3379(5) -0.3313(4)
H5B H 0.4300(5) -0.3836(5) -0.3067(4)
H6B H 0.3323(5) -0.3622(5) -0.3993(4)
C8B C 0.2607(6) -0.3826(6) -0.2774(4)
H7B H 0.2511(6) -0.4754(6) -0.2848(4)
H8B H 0.2832(6) -0.3616(6) -0.2095(4)
H9B H 0.1853(6) -0.3401(6) -0.3023(4)
C9B C 0.4683(5) -0.1514(6) -0.3937(4)
H10B H 0.5332(5) -0.2152(6) -0.3911(4)
H11B H 0.5044(5) -0.0682(6) -0.3716(4)
C10B C 0.4050(5) -0.1382(6) -0.4974(4)
H12B H 0.4627(5) -0.1113(6) -0.5384(4)
H13B H 0.3704(5) -0.2208(6) -0.5196(4)
H14B H 0.3416(5) -0.0740(6) -0.5002(4)
C11B C 0.5254(4) -0.1748(5) -0.1730(3)
N2B N 0.5779(3) -0.1313(4) -0.0845(3)
C14B C 0.6891(4) -0.1840(5) -0.0582(3)
C13B C 0.7053(5) -0.2689(5) -0.1347(3)
C12B C 0.6096(4) -0.2625(5) -0.2029(3)
H15B H 0.5992(4) -0.3086(5) -0.2615(3)
H16B H 0.7732(5) -0.3214(5) -0.1368(3)
C16B C 0.1016(7) 0.2211(7) -0.0294(4)
H17B H 0.0542(7) 0.1833(7) -0.0883(4)
C17B C 0.1014(7) 0.3580(8) -0.0480(6)
C18B C 0.1383(11) 0.3910(13) -0.1435(8)
C19B C 0.0295(6) 0.1815(7) 0.0559(5)
H18B H 0.0406(6) 0.0889(7) 0.0693(5)
H19B H 0.0624(6) 0.2290(7) 0.1146(5)
C20B C -0.0977(7) 0.2090(10) 0.0318(6)
H20B H -0.1385(7) 0.1838(10) 0.0852(6)
H21B H -0.1309(7) 0.1609(10) -0.0257(6)
H22B H -0.1092(7) 0.3009(10) 0.0196(6)
H23? H 0.4555(3) 0.0767(4) 0.0494(3)
C21? C 0.0818(20) 0.4763(23) -0.1254(16)
C22? C 0.1089(22) 0.3523(25) -0.1564(16)
loop_
_geom_bond_atom_site_label_1
_geom_bond_atom_site_label_2
_geom_bond_site_symmetry_1
_geom_bond_site_symmetry_2
N1 H1 1_555 1_555
N2 C11 1_555 1_555
C1 N1 1_555 1_555
C2 C1 1_555 1_555
H2 C2 1_555 1_555
C3 C2 1_555 1_555
H3 C3 1_555 1_555
C4 N1 1_555 1_555
C5 C4 1_555 1_555
C6 C5 1_555 1_555
H4 C6 1_555 1_555
C7 C6 1_555 1_555
H5 C7 1_555 1_555
H6 C7 1_555 1_555
C8 C7 1_555 1_555
H7 C8 1_555 1_555
H8 C8 1_555 1_555
H9 C8 1_555 1_555
C9 C6 1_555 1_555
H10 C9 1_555 1_555
H11 C9 1_555 1_555
C10 C9 1_555 1_555
H12 C10 1_555 1_555
H13 C10 1_555 1_555
H14 C10 1_555 1_555
C11 C5 1_555 1_555
C12 C11 1_555 1_555
H15 C12 1_555 1_555
C13 C12 1_555 1_555
H16 C13 1_555 1_555
C14 N2 1_555 1_555
C15 C1 1_555 1_555
C16 C15 1_555 1_555
H17 C16 1_555 1_555
C17 C16 1_555 1_555
C18 C17 1_555 1_555
C19 C16 1_555 1_555
H18 C19 1_555 1_555
H19 C19 1_555 1_555
C20 C19 1_555 1_555
H20 C20 1_555 1_555
H21 C20 1_555 1_555
H22 C20 1_555 1_555
C15B C14 1_555 1_555
C1B C15B 1_555 1_555
N1B C1B 1_555 1_555
H1B N1B 1_555 1_555
C4B N1B 1_555 1_555
C3B C4B 1_555 1_555
C2B C1B 1_555 1_555
H2B C2B 1_555 1_555
H3B C3B 1_555 1_555
C5B C4B 1_555 1_555
C6B C5B 1_555 1_555
H4B C6B 1_555 1_555
C7B C6B 1_555 1_555
H5B C7B 1_555 1_555
H6B C7B 1_555 1_555
C8B C7B 1_555 1_555
H7B C8B 1_555 1_555
H8B C8B 1_555 1_555
H9B C8B 1_555 1_555
C9B C6B 1_555 1_555
H10B C9B 1_555 1_555
H11B C9B 1_555 1_555
C10B C9B 1_555 1_555
H12B C10B 1_555 1_555
H13B C10B 1_555 1_555
H14B C10B 1_555 1_555
C11B C5B 1_555 1_555
N2B C11B 1_555 1_555
C14B C15 1_555 1_555
C13B C14B 1_555 1_555
C12B C11B 1_555 1_555
H15B C12B 1_555 1_555
H16B C13B 1_555 1_555
C16B C15B 1_555 1_555
H17B C16B 1_555 1_555
C17B C16B 1_555 1_555
C18B C17B 1_555 1_555
C19B C16B 1_555 1_555
H18B C19B 1_555 1_555
H19B C19B 1_555 1_555
C20B C19B 1_555 1_555
H20B C20B 1_555 1_555
H21B C20B 1_555 1_555
H22B C20B 1_555 1_555
C3 C4 1_555 1_555
C13 C14 1_555 1_555
C3B C2B 1_555 1_555
N2B C14B 1_555 1_555
C13B C12B 1_555 1_555

#END
