
#######################################################################
#
#                 Cambridge Crystallographic Data Centre
#                                CCDC 
#
#######################################################################
#
# If this CIF has been generated from an entry in the Cambridge 
# Structural Database, then it will include bibliographic, chemical, 
# crystal, experimental, refinement or atomic coordinate data resulting 
# from the CCDC's data processing and validation procedures.
#
#######################################################################

data_DOWJAB
_chemical_formula_moiety         'C10 H12 N2 O3'
_chemical_name_systematic        (S)-N-(1-(2-Nitrophenyl)ethyl)acetamide
_symmetry_cell_setting           tetragonal
_symmetry_space_group_name_H-M   'P 43'
_symmetry_Int_Tables_number      78
_space_group_name_Hall           'P 4cw'
loop_
_symmetry_equiv_pos_site_id
_symmetry_equiv_pos_as_xyz
1 x,y,z
2 -x,-y,1/2+z
3 -y,x,3/4+z
4 y,-x,1/4+z
_cell_length_a                   7.9423(19)
_cell_length_b                   7.9423(19)
_cell_length_c                   16.974(9)
_cell_angle_alpha                90
_cell_angle_beta                 90
_cell_angle_gamma                90
_cell_volume                     1070.72
_exptl_crystal_colour            colorless
_exptl_crystal_description       block
_cell_formula_units_Z            4
loop_
_atom_site_label
_atom_site_type_symbol
_atom_site_fract_x
_atom_site_fract_y
_atom_site_fract_z
O1 O -0.0313(4) 0.7324(4) 0.35041(15)
O2 O -0.1234(3) 0.7629(3) 0.23112(16)
O3 O 0.3530(3) 0.6359(3) 0.23254(16)
N1 N -0.0619(4) 0.6795(5) 0.28443(18)
N2 N 0.2732(4) 0.5351(4) 0.11511(16)
H1 H 0.3034 0.4955 0.0688
C1 C 0.0369(5) 0.4538(5) 0.1965(2)
C2 C -0.0263(5) 0.4998(5) 0.2679(2)
C3 C -0.0603(5) 0.3882(6) 0.3289(2)
H2 H -0.1017 0.4273 0.3781
C4 C -0.0326(5) 0.2199(6) 0.3162(3)
H3 H -0.0570 0.1403 0.3564
C5 C 0.0300(6) 0.1674(5) 0.2456(2)
H4 H 0.0483 0.0507 0.2368
C6 C 0.0670(5) 0.2803(6) 0.1873(2)
H5 H 0.1142 0.2406 0.1394
C7 C 0.0967(5) 0.5701(5) 0.13157(18)
H6 H 0.0861 0.6892 0.1501
C8 C -0.0056(5) 0.5494(6) 0.0566(2)
H7 H 0.0359 0.6278 0.0165
H8 H -0.1244 0.5733 0.0677
H9 H 0.0056 0.4336 0.0373
C9 C 0.3885(5) 0.5634(5) 0.1703(2)
C10 C 0.5624(5) 0.4965(6) 0.1547(2)
H10 H 0.6458 0.5834 0.1674
H11 H 0.5724 0.4656 0.0990
H12 H 0.5824 0.3970 0.1875
loop_
_geom_bond_atom_site_label_1
_geom_bond_atom_site_label_2
_geom_bond_site_symmetry_1
_geom_bond_site_symmetry_2
O1 N1 1_555 1_555
O2 N1 1_555 1_555
O3 C9 1_555 1_555
N1 C2 1_555 1_555
N2 H1 1_555 1_555
C1 C2 1_555 1_555
C2 C3 1_555 1_555
C3 H2 1_555 1_555
C4 C3 1_555 1_555
H3 C4 1_555 1_555
C5 C4 1_555 1_555
H4 C5 1_555 1_555
C6 C1 1_555 1_555
H5 C6 1_555 1_555
C7 N2 1_555 1_555
H6 C7 1_555 1_555
C8 C7 1_555 1_555
H7 C8 1_555 1_555
H8 C8 1_555 1_555
H9 C8 1_555 1_555
C9 N2 1_555 1_555
C10 C9 1_555 1_555
H10 C10 1_555 1_555
H11 C10 1_555 1_555
H12 C10 1_555 1_555
C1 C7 1_555 1_555
C5 C6 1_555 1_555

#END
