
#######################################################################
#
#                 Cambridge Crystallographic Data Centre
#                                CCDC 
#
#######################################################################
#
# If this CIF has been generated from an entry in the Cambridge 
# Structural Database, then it will include bibliographic, chemical, 
# crystal, experimental, refinement or atomic coordinate data resulting 
# from the CCDC's data processing and validation procedures.
#
#######################################################################

data_DOWKEH
_chemical_formula_moiety         'C66 H74 K2 N2 O4 P2 S2'
_chemical_name_systematic        
(\m~2~-(Diphenylmethyl)(phenyl(phenyl)phosphorothioyl)azanide)-tetrakis(tetrahydrofuran)-di-potassium
_symmetry_cell_setting           triclinic
_symmetry_space_group_name_H-M   'P -1'
_symmetry_Int_Tables_number      2
_space_group_name_Hall           '-P 1'
loop_
_symmetry_equiv_pos_site_id
_symmetry_equiv_pos_as_xyz
1 x,y,z
2 -x,-y,-z
_cell_length_a                   10.6191(11)
_cell_length_b                   12.9110(13)
_cell_length_c                   13.4716(15)
_cell_angle_alpha                108.184(9)
_cell_angle_beta                 96.182(9)
_cell_angle_gamma                113.202(9)
_cell_volume                     1555.56
_exptl_crystal_colour            yellow
_exptl_crystal_description       plates
_cell_formula_units_Z            1
loop_
_atom_site_label
_atom_site_type_symbol
_atom_site_fract_x
_atom_site_fract_y
_atom_site_fract_z
K1 K 0.00453(9) 0.38786(7) 0.32768(7)
S1 S 0.23726(10) 0.54529(8) 0.56089(7)
P1 P 0.27957(9) 0.67719(8) 0.50405(7)
O1 O 0.1489(4) 0.2788(3) 0.2198(3)
O2 O -0.1683(3) 0.3093(3) 0.1329(2)
N1 N 0.1827(3) 0.6293(3) 0.3853(2)
C1 C 0.2142(4) 0.7037(3) 0.3200(3)
H1 H 0.2952 0.7832 0.3642
C2 C 0.0884(4) 0.7254(3) 0.2833(3)
C3 C -0.0484(4) 0.6545(3) 0.2854(3)
H2 H -0.0653 0.5918 0.3103
C4 C -0.1604(4) 0.6761(4) 0.2509(3)
H3 H -0.2517 0.6274 0.2521
C5 C -0.1367(4) 0.7691(4) 0.2149(3)
H4 H -0.2117 0.7839 0.1925
C6 C -0.0012(5) 0.8406(4) 0.2121(4)
H5 H 0.0149 0.9033 0.1874
C7 C 0.1117(4) 0.8187(3) 0.2463(3)
H6 H 0.2028 0.8669 0.2442
C8 C 0.2563(4) 0.6409(3) 0.2224(3)
C9 C 0.1552(4) 0.5387(4) 0.1344(3)
H7 H 0.0595 0.5112 0.1326
C10 C 0.1947(5) 0.4770(4) 0.0493(3)
H8 H 0.1255 0.4086 -0.0088
C11 C 0.3362(5) 0.5164(4) 0.0502(3)
H9 H 0.3627 0.4750 -0.0069
C12 C 0.4381(5) 0.6183(5) 0.1371(4)
H10 H 0.5337 0.6455 0.1384
C13 C 0.3984(4) 0.6803(4) 0.2223(3)
H11 H 0.4679 0.7489 0.2799
C14 C 0.4689(4) 0.7520(3) 0.5107(3)
C15 C 0.5372(4) 0.8733(3) 0.5234(3)
H12 H 0.4910 0.9220 0.5406
C16 C 0.6735(4) 0.9233(4) 0.5107(3)
H13 H 0.7178 1.0046 0.5184
C17 C 0.7437(4) 0.8511(4) 0.4863(3)
H14 H 0.8345 0.8837 0.4767
C18 C 0.6788(4) 0.7318(4) 0.4766(3)
H15 H 0.7267 0.6843 0.4620
C19 C 0.5419(4) 0.6815(4) 0.4884(3)
H16 H 0.4986 0.6004 0.4813
C20 C 0.1401(7) 0.1694(6) 0.1480(7)
H17 H 0.1129 0.1611 0.0738
H18 H 0.0694 0.1002 0.1573
C21 C 0.2778(8) 0.1730(7) 0.1711(9)
H19 H 0.2944 0.1269 0.1062
H20 H 0.2863 0.1399 0.2256
C22 C 0.3790(6) 0.3052(6) 0.2120(6)
H21 H 0.4041 0.3298 0.1530
H22 H 0.4648 0.3244 0.2627
C23 C 0.2964(5) 0.3653(5) 0.2669(4)
C24 C -0.1707(6) 0.2419(6) 0.0262(4)
H23 H -0.1186 0.1953 0.0285
H24 H -0.1264 0.2972 -0.0086
C25 C -0.3194(5) 0.1592(5) -0.0350(4)
H25 H -0.3412 0.0753 -0.0466
H26 H -0.3382 0.1646 -0.1048
C26 C -0.4072(5) 0.2011(4) 0.0339(3)
H27 H -0.4586 0.1409 0.0621
H28 H -0.4745 0.2156 -0.0075
C27 C -0.2974(5) 0.3193(4) 0.1250(3)
H29 H -0.2876 0.3894 0.1081
H30 H -0.3246 0.3280 0.1925
C28 C 0.1368(4) 0.8158(4) 0.5774(3)
H31 H 0.0970 0.7960 0.5010
C29 C 0.2563(4) 0.7992(3) 0.6032(3)
C30 C 0.3467(4) 0.8667(4) 0.7070(3)
H32 H 0.4267 0.8563 0.7252
C31 C 0.3192(5) 0.9497(4) 0.7841(4)
H33 H 0.3810 0.9948 0.8532
C32 C 0.2000(5) 0.9652(4) 0.7582(4)
H34 H 0.1807 1.0197 0.8102
C33 C 0.1096(5) 0.8995(4) 0.6551(3)
H35 H 0.0387 0.9241 0.6322
H36 H 0.313(5) 0.435(4) 0.260(4)
K1A K -0.00453(9) 0.61214(7) 0.67232(7)
S1A S -0.23726(10) 0.45471(8) 0.43911(7)
P1A P -0.27957(9) 0.32281(8) 0.49595(7)
O1A O -0.1489(4) 0.7212(3) 0.7802(3)
O2A O 0.1683(3) 0.6907(3) 0.8671(2)
N1A N -0.1827(3) 0.3707(3) 0.6147(2)
C1A C -0.2142(4) 0.2963(3) 0.6800(3)
H1A H -0.2952 0.2168 0.6358
C2A C -0.0884(4) 0.2746(3) 0.7167(3)
C3A C 0.0484(4) 0.3455(3) 0.7146(3)
H2A H 0.0653 0.4082 0.6897
C4A C 0.1604(4) 0.3239(4) 0.7491(3)
H3A H 0.2517 0.3726 0.7479
C5A C 0.1367(4) 0.2309(4) 0.7851(3)
H4A H 0.2117 0.2161 0.8075
C6A C 0.0012(5) 0.1594(4) 0.7879(4)
H5A H -0.0149 0.0967 0.8126
C7A C -0.1117(4) 0.1813(3) 0.7537(3)
H6A H -0.2028 0.1331 0.7558
C8A C -0.2563(4) 0.3591(3) 0.7776(3)
C9A C -0.1552(4) 0.4613(4) 0.8656(3)
H7A H -0.0595 0.4888 0.8674
C10A C -0.1947(5) 0.5230(4) 0.9507(3)
H8A H -0.1255 0.5914 1.0088
C11A C -0.3362(5) 0.4836(4) 0.9498(3)
H9A H -0.3627 0.5250 1.0069
C12A C -0.4381(5) 0.3817(5) 0.8629(4)
H10A H -0.5337 0.3545 0.8616
C13A C -0.3984(4) 0.3197(4) 0.7777(3)
H11A H -0.4679 0.2511 0.7201
C14A C -0.4689(4) 0.2480(3) 0.4893(3)
C15A C -0.5372(4) 0.1267(3) 0.4766(3)
H12A H -0.4910 0.0780 0.4594
C16A C -0.6735(4) 0.0767(4) 0.4893(3)
H13A H -0.7178 -0.0046 0.4816
C17A C -0.7437(4) 0.1489(4) 0.5137(3)
H14A H -0.8345 0.1163 0.5233
C18A C -0.6788(4) 0.2682(4) 0.5234(3)
H15A H -0.7267 0.3157 0.5380
C19A C -0.5419(4) 0.3185(4) 0.5116(3)
H16A H -0.4986 0.3996 0.5187
C20A C -0.1401(7) 0.8306(6) 0.8520(7)
H17A H -0.1129 0.8389 0.9262
H18A H -0.0694 0.8998 0.8427
C21A C -0.2778(8) 0.8270(7) 0.8289(9)
H19A H -0.2944 0.8731 0.8938
H20A H -0.2863 0.8601 0.7744
C22A C -0.3790(6) 0.6948(6) 0.7880(6)
H21A H -0.4041 0.6702 0.8470
H22A H -0.4648 0.6756 0.7373
C23A C -0.2964(5) 0.6347(5) 0.7331(4)
C24A C 0.1707(6) 0.7581(6) 0.9738(4)
H23A H 0.1186 0.8047 0.9715
H24A H 0.1264 0.7028 1.0086
C25A C 0.3194(5) 0.8408(5) 1.0350(4)
H25A H 0.3412 0.9247 1.0466
H26A H 0.3382 0.8354 1.1048
C26A C 0.4072(5) 0.7989(4) 0.9661(3)
H27A H 0.4586 0.8591 0.9379
H28A H 0.4745 0.7844 1.0075
C27A C 0.2974(5) 0.6807(4) 0.8750(3)
H29A H 0.2876 0.6106 0.8919
H30A H 0.3246 0.6720 0.8075
C28A C -0.1368(4) 0.1842(4) 0.4226(3)
H31A H -0.0970 0.2040 0.4990
C29A C -0.2563(4) 0.2008(3) 0.3968(3)
C30A C -0.3467(4) 0.1333(4) 0.2930(3)
H32A H -0.4267 0.1437 0.2748
C31A C -0.3192(5) 0.0503(4) 0.2159(4)
H33A H -0.3810 0.0052 0.1468
C32A C -0.2000(5) 0.0348(4) 0.2418(4)
H34A H -0.1807 -0.0197 0.1898
C33A C -0.1096(5) 0.1005(4) 0.3449(3)
H35A H -0.0387 0.0759 0.3678
H36A H -0.313(5) 0.565(4) 0.740(4)
loop_
_geom_bond_atom_site_label_1
_geom_bond_atom_site_label_2
_geom_bond_site_symmetry_1
_geom_bond_site_symmetry_2
K1 S1 1_555 1_555
S1 P1 1_555 1_555
P1 N1 1_555 1_555
O1 K1 1_555 1_555
O2 K1 1_555 1_555
N1 K1 1_555 1_555
C1 N1 1_555 1_555
H1 C1 1_555 1_555
C2 C1 1_555 1_555
C3 C2 1_555 1_555
H2 C3 1_555 1_555
C4 C3 1_555 1_555
H3 C4 1_555 1_555
C5 C4 1_555 1_555
H4 C5 1_555 1_555
C6 C5 1_555 1_555
H5 C6 1_555 1_555
C7 C2 1_555 1_555
H6 C7 1_555 1_555
C8 C1 1_555 1_555
C9 C8 1_555 1_555
H7 C9 1_555 1_555
C10 C9 1_555 1_555
H8 C10 1_555 1_555
C11 C10 1_555 1_555
H9 C11 1_555 1_555
C12 C11 1_555 1_555
H10 C12 1_555 1_555
C13 C8 1_555 1_555
H11 C13 1_555 1_555
C14 P1 1_555 1_555
C15 C14 1_555 1_555
H12 C15 1_555 1_555
C16 C15 1_555 1_555
H13 C16 1_555 1_555
C17 C16 1_555 1_555
H14 C17 1_555 1_555
C18 C17 1_555 1_555
H15 C18 1_555 1_555
C19 C14 1_555 1_555
H16 C19 1_555 1_555
C20 O1 1_555 1_555
H17 C20 1_555 1_555
H18 C20 1_555 1_555
C21 C20 1_555 1_555
H19 C21 1_555 1_555
H20 C21 1_555 1_555
C22 C21 1_555 1_555
H21 C22 1_555 1_555
H22 C22 1_555 1_555
C23 O1 1_555 1_555
C24 O2 1_555 1_555
H23 C24 1_555 1_555
H24 C24 1_555 1_555
C25 C24 1_555 1_555
H25 C25 1_555 1_555
H26 C25 1_555 1_555
C26 C25 1_555 1_555
H27 C26 1_555 1_555
H28 C26 1_555 1_555
C27 O2 1_555 1_555
H29 C27 1_555 1_555
H30 C27 1_555 1_555
C28 H31 1_555 1_555
C29 P1 1_555 1_555
C30 C29 1_555 1_555
H32 C30 1_555 1_555
C31 C30 1_555 1_555
H33 C31 1_555 1_555
C32 C31 1_555 1_555
H34 C32 1_555 1_555
C33 C28 1_555 1_555
H35 C33 1_555 1_555
H36 C23 1_555 1_555
K1A S1 1_555 1_555
S1A K1 1_555 1_555
P1A S1A 1_555 1_555
O1A K1A 1_555 1_555
O2A K1A 1_555 1_555
N1A K1A 1_555 1_555
C1A N1A 1_555 1_555
H1A C1A 1_555 1_555
C2A C1A 1_555 1_555
C3A C2A 1_555 1_555
H2A C3A 1_555 1_555
C4A C3A 1_555 1_555
H3A C4A 1_555 1_555
C5A C4A 1_555 1_555
H4A C5A 1_555 1_555
C6A C5A 1_555 1_555
H5A C6A 1_555 1_555
C7A C2A 1_555 1_555
H6A C7A 1_555 1_555
C8A C1A 1_555 1_555
C9A C8A 1_555 1_555
H7A C9A 1_555 1_555
C10A C9A 1_555 1_555
H8A C10A 1_555 1_555
C11A C10A 1_555 1_555
H9A C11A 1_555 1_555
C12A C11A 1_555 1_555
H10A C12A 1_555 1_555
C13A C8A 1_555 1_555
H11A C13A 1_555 1_555
C14A P1A 1_555 1_555
C15A C14A 1_555 1_555
H12A C15A 1_555 1_555
C16A C15A 1_555 1_555
H13A C16A 1_555 1_555
C17A C16A 1_555 1_555
H14A C17A 1_555 1_555
C18A C17A 1_555 1_555
H15A C18A 1_555 1_555
C19A C14A 1_555 1_555
H16A C19A 1_555 1_555
C20A O1A 1_555 1_555
H17A C20A 1_555 1_555
H18A C20A 1_555 1_555
C21A C20A 1_555 1_555
H19A C21A 1_555 1_555
H20A C21A 1_555 1_555
C22A C21A 1_555 1_555
H21A C22A 1_555 1_555
H22A C22A 1_555 1_555
C23A O1A 1_555 1_555
C24A O2A 1_555 1_555
H23A C24A 1_555 1_555
H24A C24A 1_555 1_555
C25A C24A 1_555 1_555
H25A C25A 1_555 1_555
H26A C25A 1_555 1_555
C26A C25A 1_555 1_555
H27A C26A 1_555 1_555
H28A C26A 1_555 1_555
C27A O2A 1_555 1_555
H29A C27A 1_555 1_555
H30A C27A 1_555 1_555
C28A H31A 1_555 1_555
C29A P1A 1_555 1_555
C30A C29A 1_555 1_555
H32A C30A 1_555 1_555
C31A C30A 1_555 1_555
H33A C31A 1_555 1_555
C32A C31A 1_555 1_555
H34A C32A 1_555 1_555
C33A C28A 1_555 1_555
H35A C33A 1_555 1_555
H36A C23A 1_555 1_555
C6 C7 1_555 1_555
C12 C13 1_555 1_555
C18 C19 1_555 1_555
C22 C23 1_555 1_555
C26 C27 1_555 1_555
C28 C29 1_555 1_555
C32 C33 1_555 1_555
K1A S1A 1_555 1_555
P1A N1A 1_555 1_555
C6A C7A 1_555 1_555
C12A C13A 1_555 1_555
C18A C19A 1_555 1_555
C22A C23A 1_555 1_555
C26A C27A 1_555 1_555
C28A C29A 1_555 1_555
C32A C33A 1_555 1_555

#END
