
#######################################################################
#
#                 Cambridge Crystallographic Data Centre
#                                CCDC 
#
#######################################################################
#
# If this CIF has been generated from an entry in the Cambridge 
# Structural Database, then it will include bibliographic, chemical, 
# crystal, experimental, refinement or atomic coordinate data resulting 
# from the CCDC's data processing and validation procedures.
#
#######################################################################

data_DOWKAD
_chemical_formula_moiety         'C58 H58 Ba1 N2 O2 P2 S2,2(C4 H8 O1)'
_chemical_name_systematic        
'bis(N-(Diphenylmethyl)-P,P-diphenylphosphinothioic amidato)-bis(tetrahydrofuran)-barium tetrahydrofuran solvate'
_symmetry_cell_setting           triclinic
_symmetry_space_group_name_H-M   'P -1'
_symmetry_Int_Tables_number      2
_space_group_name_Hall           '-P 1'
loop_
_symmetry_equiv_pos_site_id
_symmetry_equiv_pos_as_xyz
1 x,y,z
2 -x,-y,-z
_cell_length_a                   10.1569(6)
_cell_length_b                   10.7253(5)
_cell_length_c                   14.9439(9)
_cell_angle_alpha                98.296(4)
_cell_angle_beta                 101.989(5)
_cell_angle_gamma                103.632(4)
_cell_volume                     1515.25
_exptl_crystal_colour            yellow
_exptl_crystal_description       plates
_cell_formula_units_Z            1
loop_
_atom_site_label
_atom_site_type_symbol
_atom_site_fract_x
_atom_site_fract_y
_atom_site_fract_z
Ba1 Ba 0.5000 0.5000 0.0000
S1 S 0.3522(2) 0.4056(2) 0.15569(16)
P1 P 0.4859(2) 0.5696(2) 0.23551(15)
O1 O 0.3020(8) 0.6274(8) -0.0536(6)
N1 N 0.5603(7) 0.6589(7) 0.1728(5)
C1 C 0.6571(9) 0.7875(9) 0.2185(6)
H1 H 0.7013 0.7834 0.2825
C2 C 0.7708(9) 0.8158(9) 0.1656(7)
C3 C 0.7374(10) 0.8284(10) 0.0724(7)
H2 H 0.6452 0.8213 0.0425
C4 C 0.8408(10) 0.8513(10) 0.0240(7)
H3 H 0.8173 0.8587 -0.0382
C5 C 0.9773(12) 0.8633(12) 0.0676(9)
H4 H 1.0459 0.8779 0.0347
C6 C 1.0140(11) 0.8534(14) 0.1614(10)
H5 H 1.1065 0.8627 0.1919
C7 C 0.9087(11) 0.8296(12) 0.2075(8)
H6 H 0.9323 0.8226 0.2697
C8 C 0.5853(10) 0.8976(9) 0.2229(7)
C9 C 0.4608(11) 0.8891(10) 0.1596(8)
H7 H 0.4166 0.8130 0.1145
C10 C 0.4019(13) 0.9936(12) 0.1634(10)
H8 H 0.3198 0.9866 0.1192
C11 C 0.4614(14) 1.1086(11) 0.2310(10)
H9 H 0.4213 1.1781 0.2330
C12 C 0.5838(17) 1.1138(12) 0.2954(10)
H10 H 0.6249 1.1877 0.3430
C13 C 0.6466(13) 1.0122(11) 0.2908(8)
H11 H 0.7305 1.0205 0.3336
C14 C 0.6148(9) 0.5269(8) 0.3207(6)
C15 C 0.5842(10) 0.4837(9) 0.4000(6)
H12 H 0.4973 0.4805 0.4119
C16 C 0.6838(10) 0.4455(9) 0.4615(7)
H13 H 0.6641 0.4197 0.5152
C17 C 0.8116(10) 0.4459(9) 0.4426(7)
H14 H 0.8772 0.4186 0.4827
C18 C 0.8412(10) 0.4871(10) 0.3639(7)
H15 H 0.9274 0.4879 0.3516
C19 C 0.7456(9) 0.5272(9) 0.3034(6)
H16 H 0.7676 0.5546 0.2508
C20 C 0.3984(10) 0.6543(9) 0.3080(7)
C21 C 0.2538(11) 0.6329(12) 0.2835(9)
H17 H 0.1999 0.5683 0.2320
C22 C 0.1889(15) 0.7063(15) 0.3345(11)
H18 H 0.0920 0.6896 0.3172
C23 C 0.2663(17) 0.8042(13) 0.4108(12)
H19 H 0.2225 0.8543 0.4443
C24 C 0.4096(16) 0.8260(11) 0.4363(10)
H20 H 0.4627 0.8904 0.4881
C25 C 0.4750(12) 0.7529(9) 0.3853(8)
H21 H 0.5719 0.7700 0.4031
C26 C 0.1618(14) 0.5928(17) -0.0418(12)
H22 H 0.1579 0.6374 0.0185
H23 H 0.1276 0.4990 -0.0469
C27 C 0.0780(14) 0.6375(19) -0.1202(11)
H24 H 0.0486 0.5714 -0.1774
H25 H -0.0040 0.6566 -0.1044
C28 C 0.1754(17) 0.7563(19) -0.1301(12)
H26 H 0.1698 0.8329 -0.0894
H27 H 0.1551 0.7685 -0.1941
C29 C 0.3167(12) 0.7340(12) -0.1026(8)
H28 H 0.3498 0.7118 -0.1576
H29 H 0.3832 0.8123 -0.0626
S1A S 0.6478(2) 0.5944(2) -0.15569(16)
P1A P 0.5141(2) 0.4304(2) -0.23551(15)
O1A O 0.6980(8) 0.3726(8) 0.0536(6)
N1A N 0.4397(7) 0.3411(7) -0.1728(5)
C1A C 0.3429(9) 0.2125(9) -0.2185(6)
H1A H 0.2987 0.2166 -0.2825
C2A C 0.2292(9) 0.1842(9) -0.1656(7)
C3A C 0.2626(10) 0.1716(10) -0.0724(7)
H2A H 0.3548 0.1787 -0.0425
C4A C 0.1592(10) 0.1487(10) -0.0240(7)
H3A H 0.1827 0.1413 0.0382
C5A C 0.0227(12) 0.1367(12) -0.0676(9)
H4A H -0.0459 0.1221 -0.0347
C6A C -0.0140(11) 0.1466(14) -0.1614(10)
H5A H -0.1065 0.1373 -0.1919
C7A C 0.0913(11) 0.1704(12) -0.2075(8)
H6A H 0.0677 0.1774 -0.2697
C8A C 0.4147(10) 0.1024(9) -0.2229(7)
C9A C 0.5392(11) 0.1109(10) -0.1596(8)
H7A H 0.5834 0.1870 -0.1145
C10A C 0.5981(13) 0.0064(12) -0.1634(10)
H8A H 0.6802 0.0134 -0.1192
C11A C 0.5386(14) -0.1086(11) -0.2310(10)
H9A H 0.5787 -0.1781 -0.2330
C12A C 0.4162(17) -0.1138(12) -0.2954(10)
H10A H 0.3751 -0.1877 -0.3430
C13A C 0.3534(13) -0.0122(11) -0.2908(8)
H11A H 0.2695 -0.0205 -0.3336
C14A C 0.3852(9) 0.4731(8) -0.3207(6)
C15A C 0.4158(10) 0.5163(9) -0.4000(6)
H12A H 0.5027 0.5195 -0.4119
C16A C 0.3162(10) 0.5545(9) -0.4615(7)
H13A H 0.3359 0.5803 -0.5152
C17A C 0.1884(10) 0.5541(9) -0.4426(7)
H14A H 0.1228 0.5814 -0.4827
C18A C 0.1588(10) 0.5129(10) -0.3639(7)
H15A H 0.0726 0.5121 -0.3516
C19A C 0.2544(9) 0.4728(9) -0.3034(6)
H16A H 0.2324 0.4454 -0.2508
C20A C 0.6016(10) 0.3457(9) -0.3080(7)
C21A C 0.7462(11) 0.3671(12) -0.2835(9)
H17A H 0.8001 0.4317 -0.2320
C22A C 0.8111(15) 0.2937(15) -0.3345(11)
H18A H 0.9080 0.3104 -0.3172
C23A C 0.7337(17) 0.1958(13) -0.4108(12)
H19A H 0.7775 0.1457 -0.4443
C24A C 0.5904(16) 0.1740(11) -0.4363(10)
H20A H 0.5373 0.1096 -0.4881
C25A C 0.5250(12) 0.2471(9) -0.3853(8)
H21A H 0.4281 0.2300 -0.4031
C26A C 0.8382(14) 0.4072(17) 0.0418(12)
H22A H 0.8421 0.3626 -0.0185
H23A H 0.8724 0.5010 0.0469
C27A C 0.9220(14) 0.3625(19) 0.1202(11)
H24A H 0.9514 0.4286 0.1774
H25A H 1.0040 0.3434 0.1044
C28A C 0.8246(17) 0.2437(19) 0.1301(12)
H26A H 0.8302 0.1671 0.0894
H27A H 0.8449 0.2315 0.1941
C29A C 0.6833(12) 0.2660(12) 0.1026(8)
H28A H 0.6502 0.2882 0.1576
H29A H 0.6168 0.1877 0.0626
O2 O 0.246(2) 0.1412(18) 0.3918(14)
C30 C 0.145(2) 0.199(2) 0.3291(15)
H30 H 0.1949 0.2801 0.3160
H31 H 0.0974 0.1373 0.2704
C31 C 0.0460(18) 0.221(2) 0.3836(13)
H32 H -0.0489 0.1724 0.3495
H33 H 0.0510 0.3131 0.3977
C32 C 0.0890(18) 0.1720(15) 0.4722(12)
H34 H 0.1342 0.2455 0.5242
H35 H 0.0074 0.1188 0.4863
C33 C 0.1798(12) 0.0990(11) 0.4587(8)
H36 H 0.1291 0.0070 0.4379
H37 H 0.2487 0.1092 0.5168
loop_
_geom_bond_atom_site_label_1
_geom_bond_atom_site_label_2
_geom_bond_site_symmetry_1
_geom_bond_site_symmetry_2
Ba1 S1 1_555 1_555
S1 P1 1_555 1_555
P1 N1 1_555 1_555
O1 Ba1 1_555 1_555
N1 Ba1 1_555 1_555
C1 N1 1_555 1_555
H1 C1 1_555 1_555
C2 C1 1_555 1_555
C3 C2 1_555 1_555
H2 C3 1_555 1_555
C4 C3 1_555 1_555
H3 C4 1_555 1_555
C5 C4 1_555 1_555
H4 C5 1_555 1_555
C6 C5 1_555 1_555
H5 C6 1_555 1_555
C7 C2 1_555 1_555
H6 C7 1_555 1_555
C8 C1 1_555 1_555
C9 C8 1_555 1_555
H7 C9 1_555 1_555
C10 C9 1_555 1_555
H8 C10 1_555 1_555
C11 C10 1_555 1_555
H9 C11 1_555 1_555
C12 C11 1_555 1_555
H10 C12 1_555 1_555
C13 C8 1_555 1_555
H11 C13 1_555 1_555
C14 P1 1_555 1_555
C15 C14 1_555 1_555
H12 C15 1_555 1_555
C16 C15 1_555 1_555
H13 C16 1_555 1_555
C17 C16 1_555 1_555
H14 C17 1_555 1_555
C18 C17 1_555 1_555
H15 C18 1_555 1_555
C19 C14 1_555 1_555
H16 C19 1_555 1_555
C20 P1 1_555 1_555
C21 C20 1_555 1_555
H17 C21 1_555 1_555
C22 C21 1_555 1_555
H18 C22 1_555 1_555
C23 C22 1_555 1_555
H19 C23 1_555 1_555
C24 C23 1_555 1_555
H20 C24 1_555 1_555
C25 C20 1_555 1_555
H21 C25 1_555 1_555
C26 O1 1_555 1_555
H22 C26 1_555 1_555
H23 C26 1_555 1_555
C27 C26 1_555 1_555
H24 C27 1_555 1_555
H25 C27 1_555 1_555
C28 C27 1_555 1_555
H26 C28 1_555 1_555
H27 C28 1_555 1_555
C29 O1 1_555 1_555
H28 C29 1_555 1_555
H29 C29 1_555 1_555
O2 C30 1_555 1_555
C30 H30 1_555 1_555
H31 C30 1_555 1_555
C31 C30 1_555 1_555
H32 C31 1_555 1_555
H33 C31 1_555 1_555
C32 C31 1_555 1_555
H34 C32 1_555 1_555
H35 C32 1_555 1_555
C33 O2 1_555 1_555
H36 C33 1_555 1_555
H37 C33 1_555 1_555
S1A Ba1 1_555 1_555
P1A S1A 1_555 1_555
O1A Ba1 1_555 1_555
N1A Ba1 1_555 1_555
C1A N1A 1_555 1_555
H1A C1A 1_555 1_555
C2A C1A 1_555 1_555
C3A C2A 1_555 1_555
H2A C3A 1_555 1_555
C4A C3A 1_555 1_555
H3A C4A 1_555 1_555
C5A C4A 1_555 1_555
H4A C5A 1_555 1_555
C6A C5A 1_555 1_555
H5A C6A 1_555 1_555
C7A C2A 1_555 1_555
H6A C7A 1_555 1_555
C8A C1A 1_555 1_555
C9A C8A 1_555 1_555
H7A C9A 1_555 1_555
C10A C9A 1_555 1_555
H8A C10A 1_555 1_555
C11A C10A 1_555 1_555
H9A C11A 1_555 1_555
C12A C11A 1_555 1_555
H10A C12A 1_555 1_555
C13A C8A 1_555 1_555
H11A C13A 1_555 1_555
C14A P1A 1_555 1_555
C15A C14A 1_555 1_555
H12A C15A 1_555 1_555
C16A C15A 1_555 1_555
H13A C16A 1_555 1_555
C17A C16A 1_555 1_555
H14A C17A 1_555 1_555
C18A C17A 1_555 1_555
H15A C18A 1_555 1_555
C19A C14A 1_555 1_555
H16A C19A 1_555 1_555
C20A P1A 1_555 1_555
C21A C20A 1_555 1_555
H17A C21A 1_555 1_555
C22A C21A 1_555 1_555
H18A C22A 1_555 1_555
C23A C22A 1_555 1_555
H19A C23A 1_555 1_555
C24A C23A 1_555 1_555
H20A C24A 1_555 1_555
C25A C20A 1_555 1_555
H21A C25A 1_555 1_555
C26A O1A 1_555 1_555
H22A C26A 1_555 1_555
H23A C26A 1_555 1_555
C27A C26A 1_555 1_555
H24A C27A 1_555 1_555
H25A C27A 1_555 1_555
C28A C27A 1_555 1_555
H26A C28A 1_555 1_555
H27A C28A 1_555 1_555
C29A O1A 1_555 1_555
H28A C29A 1_555 1_555
H29A C29A 1_555 1_555
C6 C7 1_555 1_555
C12 C13 1_555 1_555
C18 C19 1_555 1_555
C24 C25 1_555 1_555
C28 C29 1_555 1_555
C32 C33 1_555 1_555
P1A N1A 1_555 1_555
C6A C7A 1_555 1_555
C12A C13A 1_555 1_555
C18A C19A 1_555 1_555
C24A C25A 1_555 1_555
C28A C29A 1_555 1_555

#END
