
#######################################################################
#
#                 Cambridge Crystallographic Data Centre
#                                CCDC 
#
#######################################################################
#
# If this CIF has been generated from an entry in the Cambridge 
# Structural Database, then it will include bibliographic, chemical, 
# crystal, experimental, refinement or atomic coordinate data resulting 
# from the CCDC's data processing and validation procedures.
#
#######################################################################

data_DOWROY
_chemical_name_common            N,N'-carbonyldipyridine-2-carboxamide
_chemical_formula_moiety         'C13 H10 N4 O3'
_chemical_name_systematic        N,N'-carbonyldipicolinamide
_symmetry_cell_setting           orthorhombic
_symmetry_space_group_name_H-M   'P 21 21 21'
_symmetry_Int_Tables_number      19
_space_group_name_Hall           'P 2ac 2ab'
loop_
_symmetry_equiv_pos_site_id
_symmetry_equiv_pos_as_xyz
1 x,y,z
2 1/2-x,-y,1/2+z
3 1/2+x,1/2-y,-z
4 -x,1/2+y,1/2-z
_cell_length_a                   3.7186(2)
_cell_length_b                   17.6415(8)
_cell_length_c                   17.7613(8)
_cell_angle_alpha                90
_cell_angle_beta                 90
_cell_angle_gamma                90
_cell_volume                     1165.17
_exptl_crystal_colour            colorless
_exptl_crystal_description       needle
_cell_formula_units_Z            4
loop_
_atom_site_label
_atom_site_type_symbol
_atom_site_fract_x
_atom_site_fract_y
_atom_site_fract_z
O1 O 0.2612(6) 0.20216(12) 0.38657(13)
O2 O -0.3012(7) 0.05251(12) 0.24991(13)
O3 O -0.1616(7) 0.14776(13) 0.12555(12)
N1 N -0.0278(8) 0.09122(14) 0.35673(15)
H1 H -0.0920 0.0477 0.3768
N2 N -0.0113(8) 0.16772(14) 0.24993(15)
H2 H 0.0839 0.2013 0.2806
N3 N 0.1130(8) 0.03391(15) 0.49190(16)
N4 N 0.2412(7) 0.30435(15) 0.21759(15)
C1 C 0.1557(9) 0.13923(17) 0.40417(17)
C2 C -0.1282(9) 0.10110(17) 0.28124(18)
C3 C -0.0291(9) 0.18696(18) 0.17470(18)
C4 C 0.2157(9) 0.10669(17) 0.48119(18)
C5 C 0.3695(9) 0.15145(18) 0.53655(18)
H3 H 0.4346 0.2014 0.5266
C6 C 0.4240(9) 0.1200(2) 0.60706(19)
H4 H 0.5236 0.1485 0.6459
C7 C 0.3267(9) 0.0451(2) 0.6184(2)
H5 H 0.3656 0.0222 0.6648
C8 C 0.1707(9) 0.00447(19) 0.5600(2)
H6 H 0.1035 -0.0455 0.5687
C9 C 0.1343(9) 0.26316(17) 0.15803(18)
C10 C 0.1715(9) 0.28653(18) 0.08407(18)
H7 H 0.0957 0.2558 0.0446
C11 C 0.3241(9) 0.35665(19) 0.07037(19)
H8 H 0.3543 0.3739 0.0213
C12 C 0.4306(9) 0.40043(18) 0.13045(19)
H9 H 0.5330 0.4479 0.1226
C13 C 0.3833(9) 0.37287(18) 0.20300(19)
H10 H 0.4529 0.4032 0.2433
loop_
_geom_bond_atom_site_label_1
_geom_bond_atom_site_label_2
_geom_bond_site_symmetry_1
_geom_bond_site_symmetry_2
O1 C1 1_555 1_555
O2 C2 1_555 1_555
O3 C3 1_555 1_555
N1 H1 1_555 1_555
N2 H2 1_555 1_555
N3 C4 1_555 1_555
N4 C9 1_555 1_555
C1 N1 1_555 1_555
C2 N1 1_555 1_555
C3 N2 1_555 1_555
C4 C1 1_555 1_555
C5 C4 1_555 1_555
H3 C5 1_555 1_555
C6 C5 1_555 1_555
H4 C6 1_555 1_555
C7 C6 1_555 1_555
H5 C7 1_555 1_555
C8 N3 1_555 1_555
H6 C8 1_555 1_555
C9 C3 1_555 1_555
C10 C9 1_555 1_555
H7 C10 1_555 1_555
C11 C10 1_555 1_555
H8 C11 1_555 1_555
C12 C11 1_555 1_555
H9 C12 1_555 1_555
C13 N4 1_555 1_555
H10 C13 1_555 1_555
N2 C2 1_555 1_555
C7 C8 1_555 1_555
C12 C13 1_555 1_555

#END
