
#######################################################################
#
#                 Cambridge Crystallographic Data Centre
#                                CCDC 
#
#######################################################################
#
# If this CIF has been generated from an entry in the Cambridge 
# Structural Database, then it will include bibliographic, chemical, 
# crystal, experimental, refinement or atomic coordinate data resulting 
# from the CCDC's data processing and validation procedures.
#
#######################################################################

data_DOWTUE
_chemical_formula_moiety         'C32 H44 N2 O4'
_chemical_name_systematic        
7,10,19,22-Tetraoxa-4,13-diaza(16.8^4,13^)(9,10)anthracenophane
_symmetry_cell_setting           triclinic
_symmetry_space_group_name_H-M   'P -1'
_symmetry_Int_Tables_number      2
_space_group_name_Hall           '-P 1'
loop_
_symmetry_equiv_pos_site_id
_symmetry_equiv_pos_as_xyz
1 x,y,z
2 -x,-y,-z
_cell_length_a                   10.399(2)
_cell_length_b                   10.577(3)
_cell_length_c                   15.244(2)
_cell_angle_alpha                77.98(3)
_cell_angle_beta                 109.61(2)
_cell_angle_gamma                117.23(2)
_cell_volume                     1401.41
_cell_formula_units_Z            2
loop_
_atom_site_label
_atom_site_type_symbol
_atom_site_fract_x
_atom_site_fract_y
_atom_site_fract_z
C1 C 0.6299(4) 0.4618(4) 0.6254(2)
C2 C 0.4375(4) 0.2194(3) 0.6235(2)
C3 C 0.4326(4) 0.2290(3) 0.7146(2)
C4 C 0.5407(4) 0.3328(4) 0.5806(2)
C5 C 0.6187(4) 0.4735(3) 0.7148(2)
C6 C 0.3352(4) 0.0893(4) 0.5773(2)
C7 C 0.7338(4) 0.5834(4) 0.5848(2)
O1 O 1.0965(3) 0.4483(3) 0.8339(2)
C8 C 0.7091(4) 0.6092(4) 0.7552(2)
C9 C 0.2350(4) -0.0138(4) 0.7089(3)
C10 C 0.5259(4) 0.3555(3) 0.7610(2)
C11 C 0.3299(4) 0.1066(4) 0.7553(2)
C12 C 0.8025(4) 0.7214(4) 0.7124(3)
O2 O 0.7463(3) -0.0334(3) 0.8003(2)
C13 C 0.8166(4) 0.7084(4) 0.6262(3)
C14 C 0.5316(4) 0.3653(4) 0.8600(2)
C15 C 0.8837(4) 0.1275(4) 0.6971(2)
C16 C 0.2372(4) -0.0214(4) 0.6183(3)
C17 C 0.9848(4) 0.4252(4) 0.8768(3)
C18 C 0.6236(5) -0.1828(4) 0.9162(3)
N1 N 0.8831(3) 0.1915(3) 0.6024(2)
C19 C 0.9572(4) 0.2857(4) 0.9341(3)
O3 O 0.6635(3) -0.0768(3) 0.9771(2)
C20 C 1.2224(4) 0.5834(4) 0.7183(3)
C21 C 0.5606(4) 0.3103(4) 0.4924(2)
N2 N 0.8516(3) 0.2490(3) 0.9886(2)
C22 C 1.0343(4) 0.2568(4) 0.5891(3)
O4 O 1.1317(3) 0.4875(3) 0.6458(2)
C23 C 1.1322(4) 0.5786(4) 0.7784(3)
C24 C 0.7284(4) 0.0289(4) 0.7068(3)
C25 C 0.6482(4) 0.2188(4) 0.5107(2)
C26 C 1.1584(4) 0.3639(4) 0.6578(3)
C27 C 0.6041(4) -0.1261(4) 0.8163(3)
C28 C 0.6786(4) 0.3677(4) 0.9309(2)
C29 C 0.8203(5) -0.0083(4) 1.0216(3)
C30 C 0.8550(4) 0.1307(4) 1.0575(3)
C31 C 0.8081(4) 0.2891(4) 0.5733(2)
C32 C 0.6995(4) 0.2325(4) 0.9332(2)
H1 H 0.3388(32) 0.0823(30) 0.5154(19)
H2 H 0.1677(33) -0.1080(31) 0.5865(20)
H3 H 0.1606(34) -0.1004(33) 0.7404(21)
H4 H 0.3275(31) 0.1096(29) 0.8199(19)
H5 H 0.6957(31) 0.6193(29) 0.8168(18)
H6 H 0.8648(37) 0.8115(35) 0.7429(22)
H7 H 0.8894(31) 0.7922(30) 0.5949(19)
H8 H 0.7420(31) 0.5742(29) 0.5221(19)
H9 H 0.4614(33) 0.2631(31) 0.4482(20)
H10 H 0.6138(30) 0.4004(29) 0.4592(19)
H11 H 0.5886(31) 0.1244(30) 0.5418(19)
H12 H 0.6541(34) 0.2034(32) 0.4477(20)
H13 H 0.8684(33) 0.3802(31) 0.5341(20)
H14 H 0.8053(33) 0.3245(32) 0.6308(20)
H15 H 0.5215(32) 0.4549(30) 0.8627(19)
H16 H 0.4376(33) 0.2825(31) 0.8800(20)
H17 H 0.7707(31) 0.4580(30) 0.9154(19)
H18 H 0.6787(33) 0.3780(32) 0.9983(20)
H19 H 0.6149(35) 0.1495(33) 0.9635(21)
H20 H 0.6823(34) 0.2107(32) 0.8639(21)
H21 H 0.9508(33) 0.0731(32) 0.7122(20)
H22 H 0.9354(36) 0.2022(34) 0.7458(22)
H23 H 0.6661(36) 0.0865(34) 0.6978(22)
H24 H 0.6764(33) -0.0488(32) 0.6593(20)
H25 H 0.5357(35) -0.0736(33) 0.7935(21)
H26 H 0.5508(36) -0.2102(34) 0.7692(22)
H27 H 0.5204(38) -0.2664(36) 0.9240(23)
H28 H 0.7032(36) -0.2258(35) 0.9349(22)
H29 H 0.8489(38) -0.0759(36) 1.0810(23)
H30 H 0.8815(33) 0.0063(32) 0.9718(20)
H31 H 0.7788(35) 0.1113(33) 1.0959(21)
H32 H 0.9641(38) 0.1615(36) 1.1021(23)
H33 H 1.0637(39) 0.2948(36) 0.9763(23)
H34 H 0.9216(35) 0.2093(33) 0.8887(21)
H35 H 0.8853(37) 0.4185(35) 0.8247(22)
H36 H 1.0172(35) 0.5064(33) 0.9190(21)
H37 H 1.0328(37) 0.5862(35) 0.7370(22)
H38 H 1.1946(37) 0.6658(35) 0.8201(22)
H39 H 1.2701(39) 0.6856(37) 0.6893(24)
H40 H 1.3111(35) 0.5599(33) 0.7578(22)
H41 H 1.2615(34) 0.3935(32) 0.6433(21)
H42 H 1.1687(36) 0.3238(34) 0.7258(22)
H43 H 1.0278(31) 0.3051(30) 0.5217(19)
H44 H 1.0681(33) 0.1758(31) 0.5929(20)
loop_
_geom_bond_atom_site_label_1
_geom_bond_atom_site_label_2
_geom_bond_site_symmetry_1
_geom_bond_site_symmetry_2
C1 C4 1_555 1_555
C2 C3 1_555 1_555
C3 C10 1_555 1_555
C4 C2 1_555 1_555
C5 C1 1_555 1_555
C6 C2 1_555 1_555
C7 C1 1_555 1_555
O1 C17 1_555 1_555
C8 C5 1_555 1_555
C9 C11 1_555 1_555
C10 C5 1_555 1_555
C11 C3 1_555 1_555
C12 C8 1_555 1_555
O2 C24 1_555 1_555
C13 C7 1_555 1_555
C14 C10 1_555 1_555
C15 N1 1_555 1_555
C16 C6 1_555 1_555
C17 C19 1_555 1_555
C18 O3 1_555 1_555
N1 C22 1_555 1_555
C19 N2 1_555 1_555
O3 C29 1_555 1_555
C20 O4 1_555 1_555
C21 C4 1_555 1_555
N2 C30 1_555 1_555
C22 C26 1_555 1_555
O4 C26 1_555 1_555
C23 O1 1_555 1_555
C24 C15 1_555 1_555
C25 C21 1_555 1_555
C26 H41 1_555 1_555
C27 O2 1_555 1_555
C28 C14 1_555 1_555
C29 C30 1_555 1_555
C30 H31 1_555 1_555
C31 N1 1_555 1_555
C32 N2 1_555 1_555
H1 C6 1_555 1_555
H2 C16 1_555 1_555
H3 C9 1_555 1_555
H4 C11 1_555 1_555
H5 C8 1_555 1_555
H6 C12 1_555 1_555
H7 C13 1_555 1_555
H8 C7 1_555 1_555
H9 C21 1_555 1_555
H10 C21 1_555 1_555
H11 C25 1_555 1_555
H12 C25 1_555 1_555
H13 C31 1_555 1_555
H14 C31 1_555 1_555
H15 C14 1_555 1_555
H16 C14 1_555 1_555
H17 C28 1_555 1_555
H18 C28 1_555 1_555
H19 C32 1_555 1_555
H20 C32 1_555 1_555
H21 C15 1_555 1_555
H22 C15 1_555 1_555
H23 C24 1_555 1_555
H24 C24 1_555 1_555
H25 C27 1_555 1_555
H26 C27 1_555 1_555
H27 C18 1_555 1_555
H28 C18 1_555 1_555
H29 C29 1_555 1_555
H30 C29 1_555 1_555
H32 C30 1_555 1_555
H33 C19 1_555 1_555
H34 C19 1_555 1_555
H35 C17 1_555 1_555
H36 C17 1_555 1_555
H37 C23 1_555 1_555
H38 C23 1_555 1_555
H39 C20 1_555 1_555
H40 C20 1_555 1_555
H42 C26 1_555 1_555
H43 C22 1_555 1_555
H44 C22 1_555 1_555
C9 C16 1_555 1_555
C12 C13 1_555 1_555
C18 C27 1_555 1_555
C20 C23 1_555 1_555
C25 C31 1_555 1_555
C28 C32 1_555 1_555

#END
