
#######################################################################
#
#                 Cambridge Crystallographic Data Centre
#                                CCDC 
#
#######################################################################
#
# If this CIF has been generated from an entry in the Cambridge 
# Structural Database, then it will include bibliographic, chemical, 
# crystal, experimental, refinement or atomic coordinate data resulting 
# from the CCDC's data processing and validation procedures.
#
#######################################################################

data_DOWTUG
_chemical_formula_moiety         'C10 H6 O6 S2 2-,C3 H10 N1 1+,C1 H6 N3 1+'
_chemical_name_systematic        
'guanidinium propan-2-aminium naphthalene-1,5-disulfonate'
_symmetry_cell_setting           monoclinic
_symmetry_space_group_name_H-M   'P 21/c'
_symmetry_Int_Tables_number      14
_space_group_name_Hall           '-P 2ybc'
loop_
_symmetry_equiv_pos_site_id
_symmetry_equiv_pos_as_xyz
1 x,y,z
2 -x,1/2+y,1/2-z
3 -x,-y,-z
4 x,1/2-y,1/2+z
_cell_length_a                   12.650(3)
_cell_length_b                   9.4099(19)
_cell_length_c                   15.893(3)
_cell_angle_alpha                90
_cell_angle_beta                 98.67(3)
_cell_angle_gamma                90
_cell_volume                     1870.21
_exptl_crystal_colour            colorless
_exptl_crystal_description       block
_cell_formula_units_Z            4
loop_
_atom_site_label
_atom_site_type_symbol
_atom_site_fract_x
_atom_site_fract_y
_atom_site_fract_z
C1 C 0.1682(4) 0.4464(5) 0.0662(3)
H1 H 0.1216 0.4298 0.1076
H2 H 0.2021 0.3589 0.0544
H3 H 0.1273 0.4821 0.0148
C2 C 0.2165(5) 0.6995(5) 0.0972(4)
H4 H 0.1544 0.7081 0.1250
H5 H 0.1989 0.7290 0.0390
H6 H 0.2726 0.7587 0.1256
N1 N 0.29618(18) 0.5106(2) 0.18822(14)
H7 H 0.3454 0.5733 0.2102
H8 H 0.3260 0.4250 0.1874
H9 H 0.2439 0.5077 0.2199
C3 C 0.2518(3) 0.5533(4) 0.1004(2)
H10 H 0.3097 0.5462 0.0660
S1 S 0.49691(4) 0.26763(6) 0.14586(3)
O1 O 0.59037(14) 0.21343(19) 0.20052(11)
O2 O 0.50656(14) 0.41793(17) 0.12964(11)
O3 O 0.39883(14) 0.2327(2) 0.17661(12)
C4 C 0.49812(17) 0.0305(2) 0.04079(13)
C5 C 0.49500(17) 0.1814(2) 0.04640(13)
C6 C 0.4950(2) 0.2031(3) -0.10316(15)
H11 H 0.4921 0.2608 -0.1510
C7 C 0.4925(2) 0.2642(2) -0.02378(15)
H12 H 0.4892 0.3625 -0.0188
C8 C 0.49851(19) -0.0604(3) 0.11121(13)
H13 H 0.4942 -0.0214 0.1644
S1B S 0.50309(4) -0.26763(6) -0.14586(3)
O1B O 0.40963(14) -0.21343(19) -0.20052(11)
O2B O 0.49344(14) -0.41793(17) -0.12964(11)
O3B O 0.60117(14) -0.2327(2) -0.17661(12)
C4B C 0.50188(17) -0.0305(2) -0.04079(13)
C5B C 0.50500(17) -0.1814(2) -0.04640(13)
C6B C 0.5050(2) -0.2031(3) 0.10316(15)
H11B H 0.5079 -0.2608 0.1510
C7B C 0.5075(2) -0.2642(2) 0.02378(15)
H12B H 0.5108 -0.3625 0.0188
C8B C 0.50149(19) 0.0604(3) -0.11121(13)
H13B H 0.5058 0.0214 -0.1644
S2 S 0.87638(5) 0.90148(7) 0.16773(4)
O4 O 0.77159(15) 0.8382(2) 0.16258(14)
O5 O 0.96083(15) 0.8050(2) 0.20166(13)
O6 O 0.88381(16) 1.0343(2) 0.21418(12)
C9 C 0.89473(19) 0.9398(3) 0.06204(16)
C10 C 0.99470(18) 0.9894(3) 0.04308(15)
C11 C 0.8113(2) 0.9168(3) -0.00047(18)
H14 H 0.7459 0.8869 0.0133
C12 C 1.0829(2) 1.0190(3) 0.10619(17)
H15 H 1.0759 1.0082 0.1633
C13 C 0.8231(2) 0.9377(3) -0.08533(19)
H16 H 0.7655 0.9214 -0.1280
S2B S 1.12362(5) 1.09852(7) -0.16773(4)
O4B O 1.22841(15) 1.1618(2) -0.16258(14)
O5B O 1.03917(15) 1.1950(2) -0.20166(13)
O6B O 1.11619(16) 0.9657(2) -0.21418(12)
C9B C 1.10527(19) 1.0602(3) -0.06204(16)
C10B C 1.00530(18) 1.0106(3) -0.04308(15)
C11B C 1.1887(2) 1.0832(3) 0.00047(18)
H14B H 1.2541 1.1131 -0.0133
C12B C 0.9171(2) 0.9810(3) -0.10619(17)
H15B H 0.9241 0.9918 -0.1633
C13B C 1.1769(2) 1.0623(3) 0.08533(19)
H16B H 1.2345 1.0786 0.1280
N2 N 0.90476(18) 0.5073(3) 0.17148(14)
H17 H 0.9136 0.5975 0.1671
H18 H 0.9593 0.4517 0.1786
N3 N 0.72487(19) 0.5385(3) 0.15642(18)
H19 H 0.6614 0.5038 0.1520
H20 H 0.7338 0.6289 0.1538
C14 C 0.8074(2) 0.4542(3) 0.16721(16)
N4 N 0.7949(2) 0.3162(3) 0.17137(18)
H21 H 0.7317 0.2806 0.1670
H22 H 0.8498 0.2613 0.1785
loop_
_geom_bond_atom_site_label_1
_geom_bond_atom_site_label_2
_geom_bond_site_symmetry_1
_geom_bond_site_symmetry_2
C1 H1 1_555 1_555
H2 C1 1_555 1_555
H3 C1 1_555 1_555
C2 H4 1_555 1_555
H5 C2 1_555 1_555
H6 C2 1_555 1_555
N1 H7 1_555 1_555
H8 N1 1_555 1_555
H9 N1 1_555 1_555
C3 C1 1_555 1_555
H10 C3 1_555 1_555
S1 O1 1_555 1_555
O2 S1 1_555 1_555
O3 S1 1_555 1_555
C4 C5 1_555 1_555
C5 S1 1_555 1_555
C6 H11 1_555 1_555
C7 C5 1_555 1_555
H12 C7 1_555 1_555
C8 C4 1_555 1_555
H13 C8 1_555 1_555
S2 O4 1_555 1_555
O5 S2 1_555 1_555
O6 S2 1_555 1_555
C9 S2 1_555 1_555
C10 C9 1_555 1_555
C11 C9 1_555 1_555
H14 C11 1_555 1_555
C12 C10 1_555 1_555
H15 C12 1_555 1_555
C13 C11 1_555 1_555
H16 C13 1_555 1_555
N2 H17 1_555 1_555
H18 N2 1_555 1_555
N3 H19 1_555 1_555
H20 N3 1_555 1_555
C14 N2 1_555 1_555
N4 C14 1_555 1_555
H21 N4 1_555 1_555
H22 N4 1_555 1_555
S1B O1B 1_555 1_555
O2B S1B 1_555 1_555
O3B S1B 1_555 1_555
C4B C4 1_555 1_555
C5B S1B 1_555 1_555
C6B C8 1_555 1_555
H11B C6B 1_555 1_555
C7B C5B 1_555 1_555
H12B C7B 1_555 1_555
C8B C6 1_555 1_555
H13B C8B 1_555 1_555
S2B O4B 1_555 1_555
O5B S2B 1_555 1_555
O6B S2B 1_555 1_555
C9B S2B 1_555 1_555
C10B C10 1_555 1_555
C11B C9B 1_555 1_555
H14B C11B 1_555 1_555
C12B C13 1_555 1_555
H15B C12B 1_555 1_555
C13B C12 1_555 1_555
H16B C13B 1_555 1_555
C2 C3 1_555 1_555
N1 C3 1_555 1_555
C6 C7 1_555 1_555
N3 C14 1_555 1_555
C4B C5B 1_555 1_555
C4B C8B 1_555 1_555
C6B C7B 1_555 1_555
C9B C10B 1_555 1_555
C10B C12B 1_555 1_555
C11B C13B 1_555 1_555

#END
