
#######################################################################
#
#                 Cambridge Crystallographic Data Centre
#                                CCDC 
#
#######################################################################
#
# If this CIF has been generated from an entry in the Cambridge 
# Structural Database, then it will include bibliographic, chemical, 
# crystal, experimental, refinement or atomic coordinate data resulting 
# from the CCDC's data processing and validation procedures.
#
#######################################################################

data_DOWTOY
_chemical_formula_moiety         'C30 H40 N2 O4'
_chemical_name_systematic        
6,9,17,20-Tetraoxa-3,12-diaza(14.8^3,12^)(9,10)anthracenophane
_symmetry_cell_setting           monoclinic
_symmetry_space_group_name_H-M   'P c'
_symmetry_Int_Tables_number      7
_space_group_name_Hall           'P -2yc'
loop_
_symmetry_equiv_pos_site_id
_symmetry_equiv_pos_as_xyz
1 x,y,z
2 x,-y,1/2+z
_cell_length_a                   9.816(4)
_cell_length_b                   14.493(4)
_cell_length_c                   10.523(5)
_cell_angle_alpha                90
_cell_angle_beta                 118.26(3)
_cell_angle_gamma                90
_cell_volume                     1318.6
_cell_formula_units_Z            2
loop_
_atom_site_label
_atom_site_type_symbol
_atom_site_fract_x
_atom_site_fract_y
_atom_site_fract_z
C1 C 0.0332(4) 0.1832(3) 0.3379(4)
C2 C 0.2793(4) 0.1214(2) 0.3649(4)
C3 C 0.0418(4) 0.0798(3) 0.1539(4)
C4 C 0.2040(4) 0.0790(2) 0.2274(4)
C5 C -0.2094(4) 0.1328(3) 0.1275(4)
C6 C 0.4438(4) 0.1122(3) 0.4543(4)
C7 C 0.2808(5) 0.2157(3) 0.5592(4)
C8 C 0.1957(4) 0.1733(3) 0.4188(4)
C9 C 0.5179(5) 0.1512(3) 0.5880(4)
O1 O 0.4906(3) 0.3928(2) 0.1930(3)
C10 C -0.0426(4) 0.1321(3) 0.2087(4)
O2 O 0.0332(3) 0.2804(2) -0.2331(3)
C11 C -0.0451(5) 0.0309(3) 0.0202(4)
C12 C -0.0395(5) 0.4224(3) 0.1254(4)
O3 O -0.1504(3) 0.3952(2) -0.1256(3)
C13 C -0.2847(5) 0.0857(3) 0.0008(5)
N1 N 0.0214(4) 0.3767(2) 0.2670(3)
N2 N 0.2788(4) 0.1818(2) 0.0258(3)
C14 C 0.5457(5) 0.4390(3) 0.3285(5)
C15 C 0.4357(4) 0.2035(3) 0.6394(4)
C16 C 0.2976(5) 0.0372(2) 0.1639(4)
C17 C 0.2887(5) 0.4444(3) 0.4052(5)
C18 C 0.1209(5) 0.4400(3) 0.3852(4)
C19 C -0.0685(5) 0.3502(3) 0.0112(4)
O4 O 0.2956(4) 0.4933(2) 0.2965(3)
C20 C -0.2121(5) 0.3319(3) -0.2422(4)
C21 C -0.2031(5) 0.0342(3) -0.0525(5)
C22 C 0.3808(5) 0.1097(3) 0.1212(4)
C23 C 0.3904(5) 0.3187(3) 0.1748(5)
C24 C 0.1930(5) 0.1488(3) -0.1253(4)
C25 C 0.3614(5) 0.2674(3) 0.0389(4)
C26 C -0.0553(5) 0.2496(3) 0.3801(4)
C27 C 0.4464(5) 0.5154(3) 0.3274(5)
C28 C -0.1169(5) 0.3196(3) -0.3172(4)
C29 C -0.1030(5) 0.3374(3) 0.2880(5)
C30 C 0.0311(6) 0.1878(3) -0.2063(5)
H1 H 0.5062(42) 0.0749(25) 0.4126(39)
H2 H 0.6335(43) 0.1448(25) 0.6409(40)
H3 H 0.4844(48) 0.2362(26) 0.7295(50)
H4 H 0.2238(45) 0.2593(27) 0.5972(45)
H5 H -0.2779(40) 0.1681(24) 0.1588(38)
H6 H -0.4076(47) 0.0861(27) -0.0436(43)
H7 H -0.2655(50) -0.0025(31) -0.1383(47)
H8 H 0.0072(44) -0.0075(28) -0.0263(42)
H9 H -0.1497(40) 0.2199(24) 0.3722(40)
H10 H 0.0114(47) 0.2694(28) 0.4908(45)
H11 H -0.1930(57) 0.3187(29) 0.1846(55)
H12 H -0.1475(41) 0.3879(24) 0.3292(39)
H13 H 0.0738(55) 0.5019(32) 0.3703(52)
H14 H 0.1179(47) 0.4072(27) 0.4676(43)
H15 H 0.3340(70) 0.4833(42) 0.4821(67)
H16 H 0.3263(50) 0.3836(29) 0.4075(47)
H17 H 0.4412(55) 0.5631(29) 0.2423(52)
H18 H 0.4952(53) 0.5541(29) 0.4233(50)
H19 H 0.6489(48) 0.4686(27) 0.3471(47)
H20 H 0.5559(51) 0.3908(27) 0.3911(46)
H21 H 0.4366(51) 0.2736(27) 0.2523(49)
H22 H 0.2868(53) 0.3464(29) 0.1619(52)
H23 H 0.3040(37) 0.3056(21) -0.0450(34)
H24 H 0.4630(40) 0.2556(24) 0.0357(38)
H25 H 0.2627(42) 0.1620(24) -0.1785(42)
H26 H 0.1769(44) 0.0775(25) -0.1222(40)
H27 H -0.0155(49) 0.1503(26) -0.2953(47)
H28 H -0.0271(45) 0.1823(25) -0.1548(43)
H29 H -0.0973(41) 0.3855(23) -0.3396(38)
H30 H -0.1770(40) 0.2743(23) -0.4117(37)
H31 H -0.3175(56) 0.3672(32) -0.3099(55)
H32 H -0.2381(43) 0.2692(24) -0.2113(41)
H33 H -0.1341(46) 0.2991(27) 0.0215(45)
H34 H 0.0303(45) 0.3188(27) 0.0277(45)
H35 H 0.0464(48) 0.4711(25) 0.1220(44)
H36 H -0.1369(43) 0.4606(24) 0.1032(40)
H37 H 0.3677(40) -0.0084(24) 0.2276(40)
H38 H 0.2324(40) -0.0058(24) 0.0852(39)
H39 H 0.4604(55) 0.1413(29) 0.2073(53)
H40 H 0.4318(43) 0.0731(26) 0.0772(41)
loop_
_geom_bond_atom_site_label_1
_geom_bond_atom_site_label_2
_geom_bond_site_symmetry_1
_geom_bond_site_symmetry_2
C1 C8 1_555 1_555
C2 C4 1_555 1_555
C3 C4 1_555 1_555
C4 C16 1_555 1_555
C5 C10 1_555 1_555
C6 C2 1_555 1_555
C7 C8 1_555 1_555
C8 C2 1_555 1_555
C9 C6 1_555 1_555
O1 C14 1_555 1_555
C10 C1 1_555 1_555
O2 C28 1_555 1_555
C11 C3 1_555 1_555
C12 N1 1_555 1_555
O3 C19 1_555 1_555
C13 C5 1_555 1_555
N1 C18 1_555 1_555
N2 C22 1_555 1_555
C14 C27 1_555 1_555
C15 C7 1_555 1_555
C16 C22 1_555 1_555
C17 C18 1_555 1_555
C18 H13 1_555 1_555
C19 C12 1_555 1_555
O4 C17 1_555 1_555
C20 O3 1_555 1_555
C21 C11 1_555 1_555
C22 H39 1_555 1_555
C23 O1 1_555 1_555
C24 N2 1_555 1_555
C25 N2 1_555 1_555
C26 C1 1_555 1_555
C27 O4 1_555 1_555
C28 C20 1_555 1_555
C29 N1 1_555 1_555
C30 O2 1_555 1_555
H1 C6 1_555 1_555
H2 C9 1_555 1_555
H3 C15 1_555 1_555
H4 C7 1_555 1_555
H5 C5 1_555 1_555
H6 C13 1_555 1_555
H7 C21 1_555 1_555
H8 C11 1_555 1_555
H9 C26 1_555 1_555
H10 C26 1_555 1_555
H11 C29 1_555 1_555
H12 C29 1_555 1_555
H14 C18 1_555 1_555
H15 C17 1_555 1_555
H16 C17 1_555 1_555
H17 C27 1_555 1_555
H18 C27 1_555 1_555
H19 C14 1_555 1_555
H20 C14 1_555 1_555
H21 C23 1_555 1_555
H22 C23 1_555 1_555
H23 C25 1_555 1_555
H24 C25 1_555 1_555
H25 C24 1_555 1_555
H26 C24 1_555 1_555
H27 C30 1_555 1_555
H28 C30 1_555 1_555
H29 C28 1_555 1_555
H30 C28 1_555 1_555
H31 C20 1_555 1_555
H32 C20 1_555 1_555
H33 C19 1_555 1_555
H34 C19 1_555 1_555
H35 C12 1_555 1_555
H36 C12 1_555 1_555
H37 C16 1_555 1_555
H38 C16 1_555 1_555
H40 C22 1_555 1_555
C3 C10 1_555 1_555
C9 C15 1_555 1_555
C13 C21 1_555 1_555
C23 C25 1_555 1_555
C24 C30 1_555 1_555
C26 C29 1_555 1_555

#END
