
#######################################################################
#
#                 Cambridge Crystallographic Data Centre
#                                CCDC 
#
#######################################################################
#
# If this CIF has been generated from an entry in the Cambridge 
# Structural Database, then it will include bibliographic, chemical, 
# crystal, experimental, refinement or atomic coordinate data resulting 
# from the CCDC's data processing and validation procedures.
#
#######################################################################

data_DOWVOC32
_chemical_formula_moiety         'C10 H6 O6 S2 2-,C5 H6 N1 1+,C1 H6 N3 1+'
_chemical_name_systematic        
'guanidinium pyridinium naphthalene-1,5-disulfonate'
_symmetry_cell_setting           triclinic
_symmetry_space_group_name_H-M   'P -1'
_symmetry_Int_Tables_number      2
_space_group_name_Hall           '-P 1'
loop_
_symmetry_equiv_pos_site_id
_symmetry_equiv_pos_as_xyz
1 x,y,z
2 -x,-y,-z
_cell_length_a                   7.979(6)
_cell_length_b                   8.143(6)
_cell_length_c                   14.066(11)
_cell_angle_alpha                92.142(9)
_cell_angle_beta                 99.311(16)
_cell_angle_gamma                90.527(14)
_cell_volume                     901.131
_exptl_crystal_colour            colorless
_exptl_crystal_description       block
_cell_formula_units_Z            2
loop_
_atom_site_label
_atom_site_type_symbol
_atom_site_fract_x
_atom_site_fract_y
_atom_site_fract_z
C1 C 0.1776(3) 0.7817(3) 0.34845(19)
H1 H 0.2152 0.7391 0.4085
C2 C 0.2076(3) 0.7009(3) 0.2663(2)
H2 H 0.2697 0.6045 0.2701
C3 C 0.1464(4) 0.7618(3) 0.17853(19)
H3 H 0.1657 0.7066 0.1223
C4 C 0.0556(4) 0.9062(3) 0.1734(2)
H4 H 0.0116 0.9478 0.1140
C5 C 0.0316(3) 0.9864(3) 0.2571(2)
H5 H -0.0271 1.0847 0.2552
N1 N 0.0929(3) 0.9232(3) 0.34136(16)
H6 H 0.0775 0.9755 0.3934
C6 C 0.4030(3) 0.1278(3) 0.09072(17)
C7 C 0.4647(3) 0.0526(3) 0.17449(17)
H7 H 0.4351 0.0917 0.2324
C8 C 0.5726(3) -0.0833(3) 0.17375(17)
H8 H 0.6141 -0.1330 0.2311
C9 C 0.3832(3) 0.1425(3) -0.08864(17)
H9 H 0.3116 0.2321 -0.0890
C10 C 0.4451(3) 0.0691(3) -0.00018(16)
O1 O 0.1088(2) 0.2627(2) 0.03407(12)
O2 O 0.3604(2) 0.44082(19) 0.06716(12)
O3 O 0.2480(2) 0.3183(2) 0.19888(12)
S1 S 0.26856(7) 0.30029(7) 0.09793(4)
C6A C 0.5970(3) -0.1278(3) -0.09072(17)
C7A C 0.5353(3) -0.0526(3) -0.17449(17)
H7A H 0.5649 -0.0917 -0.2324
C8A C 0.4274(3) 0.0833(3) -0.17375(17)
H8A H 0.3859 0.1330 -0.2311
C9A C 0.6168(3) -0.1425(3) 0.08864(17)
H9A H 0.6884 -0.2321 0.0890
C10A C 0.5549(3) -0.0691(3) 0.00018(16)
O1A O 0.8912(2) -0.2627(2) -0.03407(12)
O2A O 0.6396(2) -0.44082(19) -0.06716(12)
O3A O 0.7520(2) -0.3183(2) -0.19888(12)
S1A S 0.73144(7) -0.30029(7) -0.09793(4)
C11 C 0.3864(3) 0.2008(3) 0.47975(16)
C12 C 0.4879(3) 0.2797(3) 0.42520(17)
H10 H 0.4610 0.3847 0.4044
C13 C 0.6331(3) 0.2013(3) 0.40064(17)
H11 H 0.7029 0.2564 0.3650
C14 C 0.3279(3) -0.0471(3) 0.57177(16)
H12 H 0.2343 0.0035 0.5910
C15 C 0.4272(3) 0.0396(3) 0.51385(16)
O4 O 0.0586(2) 0.18282(19) 0.47031(12)
O5 O 0.2198(2) 0.3327(2) 0.60753(12)
O6 O 0.1852(2) 0.4491(2) 0.44838(13)
S2 S 0.19751(7) 0.30183(7) 0.50298(4)
C11A C 0.6136(3) -0.2008(3) 0.52025(16)
C12A C 0.5121(3) -0.2797(3) 0.57480(17)
H10A H 0.5390 -0.3847 0.5956
C13A C 0.3669(3) -0.2013(3) 0.59936(17)
H11A H 0.2971 -0.2564 0.6350
C14A C 0.6721(3) 0.0471(3) 0.42823(16)
H12A H 0.7657 -0.0035 0.4090
C15A C 0.5728(3) -0.0396(3) 0.48615(16)
O4A O 0.9414(2) -0.18282(19) 0.52969(12)
O5A O 0.7802(2) -0.3327(2) 0.39247(12)
O6A O 0.8148(2) -0.4491(2) 0.55162(13)
S2A S 0.80249(7) -0.30183(7) 0.49702(4)
C16 C 0.7974(3) 0.4319(3) 0.19275(16)
N2 N 0.8009(3) 0.3781(3) 0.10247(14)
H13 H 0.8893 0.3292 0.0883
H14 H 0.7148 0.3921 0.0583
N3 N 0.6584(3) 0.5023(2) 0.21449(14)
H15 H 0.6540 0.5341 0.2730
H16 H 0.5726 0.5160 0.1701
N4 N 0.9297(3) 0.4105(2) 0.26090(14)
H17 H 0.9258 0.4422 0.3195
H18 H 1.0197 0.3648 0.2466
loop_
_geom_bond_atom_site_label_1
_geom_bond_atom_site_label_2
_geom_bond_site_symmetry_1
_geom_bond_site_symmetry_2
C1 H1 1_555 1_555
C2 C1 1_555 1_555
H2 C2 1_555 1_555
C3 C2 1_555 1_555
H3 C3 1_555 1_555
C4 C3 1_555 1_555
H4 C4 1_555 1_555
C5 C4 1_555 1_555
H5 C5 1_555 1_555
N1 C1 1_555 1_555
H6 N1 1_555 1_555
C6 C7 1_555 1_555
C7 H7 1_555 1_555
C8 C7 1_555 1_555
H8 C8 1_555 1_555
C9 H9 1_555 1_555
C10 C6 1_555 1_555
O1 S1 1_555 1_555
O2 S1 1_555 1_555
O3 S1 1_555 1_555
S1 C6 1_555 1_555
C11 C12 1_555 1_555
C12 H10 1_555 1_555
C13 C12 1_555 1_555
H11 C13 1_555 1_555
C14 H12 1_555 1_555
C15 C11 1_555 1_555
O4 S2 1_555 1_555
O5 S2 1_555 1_555
O6 S2 1_555 1_555
S2 C11 1_555 1_555
C16 N2 1_555 1_555
N2 H13 1_555 1_555
H14 N2 1_555 1_555
N3 C16 1_555 1_555
H15 N3 1_555 1_555
H16 N3 1_555 1_555
N4 C16 1_555 1_555
H17 N4 1_555 1_555
H18 N4 1_555 1_555
C6A C7A 1_555 1_555
C7A H7A 1_555 1_555
C8A C9 1_555 1_555
H8A C8A 1_555 1_555
C9A C8 1_555 1_555
H9A C9A 1_555 1_555
C10A C10 1_555 1_555
O1A S1A 1_555 1_555
O2A S1A 1_555 1_555
O3A S1A 1_555 1_555
S1A C6A 1_555 1_555
C11A C12A 1_555 1_555
C12A H10A 1_555 1_555
C13A C14 1_555 1_555
H11A C13A 1_555 1_555
C14A C13 1_555 1_555
H12A C14A 1_555 1_555
C15A C15 1_555 1_555
O4A S2A 1_555 1_555
O5A S2A 1_555 1_555
O6A S2A 1_555 1_555
S2A C11A 1_555 1_555
C5 N1 1_555 1_555
C9 C10 1_555 1_555
C14 C15 1_555 1_555
C6A C10A 1_555 1_555
C7A C8A 1_555 1_555
C9A C10A 1_555 1_555
C11A C15A 1_555 1_555
C12A C13A 1_555 1_555
C14A C15A 1_555 1_555

#END
