
#######################################################################
#
#                 Cambridge Crystallographic Data Centre
#                                CCDC 
#
#######################################################################
#
# If this CIF has been generated from an entry in the Cambridge 
# Structural Database, then it will include bibliographic, chemical, 
# crystal, experimental, refinement or atomic coordinate data resulting 
# from the CCDC's data processing and validation procedures.
#
#######################################################################

data_DOWVOC42
_chemical_formula_moiety         'C10 H6 O6 S2 2-,C5 H6 N1 1+,C1 H6 N3 1+'
_chemical_name_systematic        
'guanidinium pyridinium naphthalene-1,5-disulfonate'
_symmetry_cell_setting           triclinic
_symmetry_space_group_name_H-M   'P -1'
_symmetry_Int_Tables_number      2
_space_group_name_Hall           '-P 1'
loop_
_symmetry_equiv_pos_site_id
_symmetry_equiv_pos_as_xyz
1 x,y,z
2 -x,-y,-z
_cell_length_a                   8.042(4)
_cell_length_b                   8.179(4)
_cell_length_c                   14.106(8)
_cell_angle_alpha                92.283(6)
_cell_angle_beta                 101.589(9)
_cell_angle_gamma                90.378(8)
_cell_volume                     908.092
_exptl_crystal_colour            colorless
_exptl_crystal_description       block
_cell_formula_units_Z            2
loop_
_atom_site_label
_atom_site_type_symbol
_atom_site_fract_x
_atom_site_fract_y
_atom_site_fract_z
C1 C 0.7843(4) 0.3069(3) 0.7384(2)
H1 H 0.7183 0.3999 0.7378
C2 C 0.8352(4) 0.2300(4) 0.8204(2)
H2 H 0.8069 0.2704 0.8776
C3 C 0.9296(4) 0.0908(4) 0.8201(2)
H3 H 0.9679 0.0367 0.8770
C4 C 0.9663(3) 0.0331(3) 0.7340(2)
H4 H 1.0272 -0.0628 0.7318
C5 C 0.9153(3) 0.1139(3) 0.65446(17)
H5 H 0.9408 0.0742 0.5964
N1 N 0.8289(3) 0.2494(3) 0.65593(18)
H6 H 0.8004 0.3023 0.6038
C6 C 0.6120(3) 0.7984(2) 0.51986(14)
C7 C 0.5096(3) 0.7196(3) 0.57068(16)
H7 H 0.5355 0.6142 0.5907
C8 C 0.6343(3) 1.2033(3) 0.40712(16)
H8 H 0.7039 1.2592 0.3737
C9 C 0.6731(3) 1.0483(3) 0.43386(15)
H9 H 0.7671 0.9985 0.4167
C10 C 0.5731(2) 0.9609(2) 0.48743(14)
O1 O 0.7648(2) 0.6659(2) 0.39112(11)
O2 O 0.93890(19) 0.8049(2) 0.53076(12)
O3 O 0.8047(2) 0.54628(19) 0.54877(12)
S1 S 0.79463(7) 0.69451(7) 0.49580(4)
C6A C 0.3880(3) 1.2016(2) 0.48014(14)
C7A C 0.4904(3) 1.2804(3) 0.42932(16)
H7A H 0.4645 1.3858 0.4093
C8A C 0.3657(3) 0.7967(3) 0.59288(16)
H8A H 0.2961 0.7408 0.6263
C9A C 0.3269(3) 0.9517(3) 0.56614(15)
H9A H 0.2329 1.0015 0.5833
C10A C 0.4269(2) 1.0391(2) 0.51257(14)
O1A O 0.2352(2) 1.3341(2) 0.60888(11)
O2A O 0.06110(19) 1.1951(2) 0.46924(12)
O3A O 0.1953(2) 1.45372(19) 0.45123(12)
S1A S 0.20537(7) 1.30549(7) 0.50420(4)
C11 C 0.5917(3) 0.8735(2) 0.90963(15)
C12 C 0.5259(3) 0.9476(3) 0.82580(16)
H10 H 0.5526 0.9091 0.7679
C13 C 0.4173(3) 1.0824(3) 0.82618(16)
H11 H 0.3720 1.1314 0.7685
C14 C 0.6212(3) 0.8593(3) 1.08929(16)
H12 H 0.6926 0.7702 1.0900
C15 C 0.5549(2) 0.9312(2) 1.00027(15)
O4 O 0.88720(18) 0.74121(19) 0.96735(11)
O5 O 0.7408(2) 0.68438(18) 0.80192(11)
O6 O 0.63816(19) 0.56239(17) 0.93348(11)
S2 S 0.72586(7) 0.70251(7) 0.90278(4)
C11A C 0.4083(3) 1.1265(2) 1.09037(15)
C12A C 0.4741(3) 1.0524(3) 1.17420(16)
H10A H 0.4474 1.0909 1.2321
C13A C 0.5827(3) 0.9176(3) 1.17382(16)
H11A H 0.6280 0.8686 1.2315
C14A C 0.3788(3) 1.1407(3) 0.91071(16)
H12A H 0.3074 1.2298 0.9100
C15A C 0.4451(2) 1.0688(2) 0.99973(15)
O4A O 0.11280(18) 1.25879(19) 1.03265(11)
O5A O 0.2592(2) 1.31562(18) 1.19808(11)
O6A O 0.36184(19) 1.43761(17) 1.06652(11)
S2A S 0.27414(7) 1.29749(7) 1.09722(4)
C16 C 0.1905(3) 0.5770(2) 0.81036(15)
N2 N 0.1893(2) 0.6243(2) 0.90166(13)
H13 H 0.2768 0.6090 0.9465
H14 H 0.1010 0.6702 0.9158
N3 N 0.3255(2) 0.5067(2) 0.78836(13)
H15 H 0.3272 0.4791 0.7291
H16 H 0.4120 0.4884 0.8333
N4 N 0.0571(2) 0.6055(2) 0.74165(13)
H17 H 0.0582 0.5781 0.6823
H18 H -0.0308 0.6514 0.7563
loop_
_geom_bond_atom_site_label_1
_geom_bond_atom_site_label_2
_geom_bond_site_symmetry_1
_geom_bond_site_symmetry_2
C1 H1 1_555 1_555
C2 C1 1_555 1_555
H2 C2 1_555 1_555
C3 C2 1_555 1_555
H3 C3 1_555 1_555
C4 C3 1_555 1_555
H4 C4 1_555 1_555
C5 C4 1_555 1_555
H5 C5 1_555 1_555
N1 C1 1_555 1_555
H6 N1 1_555 1_555
C6 C7 1_555 1_555
C7 H7 1_555 1_555
C8 H8 1_555 1_555
C9 C8 1_555 1_555
H9 C9 1_555 1_555
C10 C6 1_555 1_555
O1 S1 1_555 1_555
O2 S1 1_555 1_555
O3 S1 1_555 1_555
S1 C6 1_555 1_555
C11 C12 1_555 1_555
C12 H10 1_555 1_555
C13 C12 1_555 1_555
H11 C13 1_555 1_555
C14 H12 1_555 1_555
C15 C11 1_555 1_555
O4 S2 1_555 1_555
O5 S2 1_555 1_555
O6 S2 1_555 1_555
S2 C11 1_555 1_555
C16 N2 1_555 1_555
N2 H13 1_555 1_555
H14 N2 1_555 1_555
N3 C16 1_555 1_555
H15 N3 1_555 1_555
H16 N3 1_555 1_555
N4 C16 1_555 1_555
H17 N4 1_555 1_555
H18 N4 1_555 1_555
C6A C7A 1_555 1_555
C7A C8 1_555 1_555
H7A C7A 1_555 1_555
C8A C7 1_555 1_555
H8A C8A 1_555 1_555
C9A C8A 1_555 1_555
H9A C9A 1_555 1_555
C10A C10 1_555 1_555
O1A S1A 1_555 1_555
O2A S1A 1_555 1_555
O3A S1A 1_555 1_555
S1A C6A 1_555 1_555
C11A C12A 1_555 1_555
C12A H10A 1_555 1_555
C13A C14 1_555 1_555
H11A C13A 1_555 1_555
C14A C13 1_555 1_555
H12A C14A 1_555 1_555
C15A C15 1_555 1_555
O4A S2A 1_555 1_555
O5A S2A 1_555 1_555
O6A S2A 1_555 1_555
S2A C11A 1_555 1_555
C5 N1 1_555 1_555
C9 C10 1_555 1_555
C14 C15 1_555 1_555
C6A C10A 1_555 1_555
C9A C10A 1_555 1_555
C11A C15A 1_555 1_555
C12A C13A 1_555 1_555
C14A C15A 1_555 1_555

#END
