
#######################################################################
#
#                 Cambridge Crystallographic Data Centre
#                                CCDC 
#
#######################################################################
#
# If this CIF has been generated from an entry in the Cambridge 
# Structural Database, then it will include bibliographic, chemical, 
# crystal, experimental, refinement or atomic coordinate data resulting 
# from the CCDC's data processing and validation procedures.
#
#######################################################################

data_DOWVOC05
_chemical_formula_moiety         'C10 H6 O6 S2 2-,C5 H6 N1 1+,C1 H6 N3 1+'
_chemical_name_systematic        
'guanidinium pyridinium naphthalene-1,5-disulfonate'
_symmetry_cell_setting           triclinic
_symmetry_space_group_name_H-M   'P -1'
_symmetry_Int_Tables_number      2
_space_group_name_Hall           '-P 1'
loop_
_symmetry_equiv_pos_site_id
_symmetry_equiv_pos_as_xyz
1 x,y,z
2 -x,-y,-z
_cell_length_a                   8.055(4)
_cell_length_b                   8.205(4)
_cell_length_c                   14.115(7)
_cell_angle_alpha                92.243(8)
_cell_angle_beta                 101.957(10)
_cell_angle_gamma                90.021(6)
_cell_volume                     911.905
_exptl_crystal_colour            colorless
_exptl_crystal_description       block
_cell_formula_units_Z            2
loop_
_atom_site_label
_atom_site_type_symbol
_atom_site_fract_x
_atom_site_fract_y
_atom_site_fract_z
C1 C 0.2156(5) 0.6903(4) 0.2622(3)
H1 H 0.2812 0.5969 0.2630
C2 C 0.1680(5) 0.7685(5) 0.1805(3)
H2 H 0.1980 0.7294 0.1237
C3 C 0.0742(5) 0.9075(5) 0.1811(3)
H3 H 0.0379 0.9631 0.1244
C4 C 0.0346(4) 0.9636(4) 0.2663(3)
H4 H -0.0258 1.0598 0.2687
C5 C 0.0831(4) 0.8793(4) 0.3456(2)
H5 H 0.0553 0.9163 0.4034
N1 N 0.1695(4) 0.7453(3) 0.3433(2)
H6 H 0.1975 0.6911 0.3951
C6 C 0.3896(3) 0.2020(3) 0.48012(16)
C7 C 0.4920(3) 0.2801(3) 0.43008(18)
H7 H 0.4669 0.3856 0.4101
C8 C 0.3641(3) -0.2007(3) 0.59129(18)
H8 H 0.2939 -0.2556 0.6243
C9 C 0.3263(3) -0.0465(3) 0.56475(18)
H9 H 0.2322 0.0040 0.5812
C10 C 0.4280(3) 0.0399(3) 0.51204(15)
O1 O 0.2003(3) 0.4563(2) 0.45188(15)
O2 O 0.0637(2) 0.2019(2) 0.46819(15)
O3 O 0.2392(3) 0.3357(3) 0.60863(13)
S1 S 0.20844(8) 0.30840(7) 0.50410(4)
C6A C 0.6104(3) -0.2020(3) 0.51988(16)
C7A C 0.5080(3) -0.2801(3) 0.56992(18)
H7A H 0.5331 -0.3856 0.5899
C8A C 0.6359(3) 0.2007(3) 0.40871(18)
H8A H 0.7061 0.2556 0.3757
C9A C 0.6737(3) 0.0465(3) 0.43525(18)
H9A H 0.7678 -0.0040 0.4188
C10A C 0.5720(3) -0.0399(3) 0.48796(15)
O1A O 0.7997(3) -0.4563(2) 0.54812(15)
O2A O 0.9363(2) -0.2019(2) 0.53181(15)
O3A O 0.7608(3) -0.3357(3) 0.39137(13)
S1A S 0.79156(8) -0.30840(7) 0.49590(4)
C11 C 0.4095(3) 0.1270(3) 0.09008(16)
C12 C 0.4768(3) 0.0526(3) 0.17430(18)
H10 H 0.4512 0.0916 0.2323
C13 C 0.5848(4) -0.0828(3) 0.17416(18)
H11 H 0.6308 -0.1318 0.2319
C14 C 0.3785(3) 0.1414(3) -0.08952(18)
H12 H 0.3080 0.2313 -0.0901
C15 C 0.4451(3) 0.0686(3) -0.00042(16)
O4 O 0.3627(2) 0.4362(2) 0.06666(13)
O5 O 0.1144(2) 0.2595(2) 0.03268(13)
O6 O 0.2620(2) 0.3151(2) 0.19812(12)
S2 S 0.27582(8) 0.29723(7) 0.09723(4)
C11A C 0.5905(3) -0.1270(3) -0.09008(16)
C12A C 0.5232(3) -0.0526(3) -0.17430(18)
H10A H 0.5488 -0.0916 -0.2323
C13A C 0.4152(4) 0.0828(3) -0.17416(18)
H11A H 0.3692 0.1318 -0.2319
C14A C 0.6215(3) -0.1414(3) 0.08952(18)
H12A H 0.6920 -0.2313 0.0901
C15A C 0.5549(3) -0.0686(3) 0.00042(16)
O4A O 0.6373(2) -0.4362(2) -0.06666(13)
O5A O 0.8856(2) -0.2595(2) -0.03268(13)
O6A O 0.7380(2) -0.3151(2) -0.19812(12)
S2A S 0.72418(8) -0.29723(7) -0.09723(4)
C16 C 0.1884(3) 0.5786(3) 0.81067(17)
N2 N 0.0547(3) 0.6079(3) 0.74225(16)
H13 H 0.0553 0.5815 0.6828
H14 H -0.0331 0.6534 0.7571
N3 N 0.3227(3) 0.5092(3) 0.78838(16)
H15 H 0.3237 0.4827 0.7290
H16 H 0.4097 0.4903 0.8332
N4 N 0.1882(3) 0.6242(3) 0.90179(15)
H17 H 0.2763 0.6083 0.9465
H18 H 0.1000 0.6696 0.9162
loop_
_geom_bond_atom_site_label_1
_geom_bond_atom_site_label_2
_geom_bond_site_symmetry_1
_geom_bond_site_symmetry_2
C1 H1 1_555 1_555
C2 C1 1_555 1_555
H2 C2 1_555 1_555
C3 C2 1_555 1_555
H3 C3 1_555 1_555
C4 C3 1_555 1_555
H4 C4 1_555 1_555
C5 C4 1_555 1_555
H5 C5 1_555 1_555
N1 C1 1_555 1_555
H6 N1 1_555 1_555
C6 C7 1_555 1_555
C7 H7 1_555 1_555
C8 H8 1_555 1_555
C9 C8 1_555 1_555
H9 C9 1_555 1_555
C10 C6 1_555 1_555
O1 S1 1_555 1_555
O2 S1 1_555 1_555
O3 S1 1_555 1_555
S1 C6 1_555 1_555
C11 C12 1_555 1_555
C12 H10 1_555 1_555
C13 C12 1_555 1_555
H11 C13 1_555 1_555
C14 H12 1_555 1_555
C15 C11 1_555 1_555
O4 S2 1_555 1_555
O5 S2 1_555 1_555
O6 S2 1_555 1_555
S2 C11 1_555 1_555
C16 N2 1_555 1_555
N2 H13 1_555 1_555
H14 N2 1_555 1_555
N3 C16 1_555 1_555
H15 N3 1_555 1_555
H16 N3 1_555 1_555
N4 C16 1_555 1_555
H17 N4 1_555 1_555
H18 N4 1_555 1_555
C6A C7A 1_555 1_555
C7A C8 1_555 1_555
H7A C7A 1_555 1_555
C8A C7 1_555 1_555
H8A C8A 1_555 1_555
C9A C8A 1_555 1_555
H9A C9A 1_555 1_555
C10A C10 1_555 1_555
O1A S1A 1_555 1_555
O2A S1A 1_555 1_555
O3A S1A 1_555 1_555
S1A C6A 1_555 1_555
C11A C12A 1_555 1_555
C12A H10A 1_555 1_555
C13A C14 1_555 1_555
H11A C13A 1_555 1_555
C14A C13 1_555 1_555
H12A C14A 1_555 1_555
C15A C15 1_555 1_555
O4A S2A 1_555 1_555
O5A S2A 1_555 1_555
O6A S2A 1_555 1_555
S2A C11A 1_555 1_555
C5 N1 1_555 1_555
C9 C10 1_555 1_555
C14 C15 1_555 1_555
C6A C10A 1_555 1_555
C9A C10A 1_555 1_555
C11A C15A 1_555 1_555
C12A C13A 1_555 1_555
C14A C15A 1_555 1_555

#END
