
#######################################################################
#
#                 Cambridge Crystallographic Data Centre
#                                CCDC 
#
#######################################################################
#
# If this CIF has been generated from an entry in the Cambridge 
# Structural Database, then it will include bibliographic, chemical, 
# crystal, experimental, refinement or atomic coordinate data resulting 
# from the CCDC's data processing and validation procedures.
#
#######################################################################

data_DOWVAO
_chemical_formula_moiety         'C10 H6 O6 S2 2-,C4 H12 N1 1+,C1 H6 N3 1+'
_chemical_name_systematic        
'guanidinium 2-methylpropan-2-aminium naphthalene-1,5-disulfonate'
_symmetry_cell_setting           monoclinic
_symmetry_space_group_name_H-M   'P 21/c'
_symmetry_Int_Tables_number      14
_space_group_name_Hall           '-P 2ybc'
loop_
_symmetry_equiv_pos_site_id
_symmetry_equiv_pos_as_xyz
1 x,y,z
2 -x,1/2+y,1/2-z
3 -x,-y,-z
4 x,1/2-y,1/2+z
_cell_length_a                   12.275(3)
_cell_length_b                   10.370(2)
_cell_length_c                   16.802(3)
_cell_angle_alpha                90
_cell_angle_beta                 93.89(3)
_cell_angle_gamma                90
_cell_volume                     2133.83
_exptl_crystal_colour            colorless
_exptl_crystal_description       block
_cell_formula_units_Z            4
loop_
_atom_site_label
_atom_site_type_symbol
_atom_site_fract_x
_atom_site_fract_y
_atom_site_fract_z
S1 S 0.52506(5) 0.22085(5) 0.15250(3)
O1 O 0.62152(14) 0.29867(15) 0.17494(10)
O2 O 0.43146(14) 0.29646(17) 0.12520(11)
C1 C 0.56069(17) 0.12515(19) 0.07033(12)
O3 O 0.50253(15) 0.13103(17) 0.21570(9)
C2 C 0.48362(17) 0.03646(19) 0.03320(12)
C3 C 0.69347(19) 0.0668(2) -0.02159(14)
H1 H 0.7630 0.0771 -0.0394
C4 C 0.66228(18) 0.1394(2) 0.04328(14)
H2 H 0.7111 0.1977 0.0681
C5 C 0.37678(18) 0.0187(2) 0.05877(13)
H3 H 0.3545 0.0664 0.1017
S1B S 0.47494(5) -0.22085(5) -0.15250(3)
O1B O 0.37848(14) -0.29867(15) -0.17494(10)
O2B O 0.56854(14) -0.29646(17) -0.12520(11)
C1B C 0.43931(17) -0.12515(19) -0.07033(12)
O3B O 0.49747(15) -0.13103(17) -0.21570(9)
C2B C 0.51638(17) -0.03646(19) -0.03320(12)
C3B C 0.30653(19) -0.0668(2) 0.02159(14)
H1B H 0.2370 -0.0771 0.0394
C4B C 0.33772(18) -0.1394(2) -0.04328(14)
H2B H 0.2889 -0.1977 -0.0681
C5B C 0.62322(18) -0.0187(2) -0.05877(13)
H3B H 0.6455 -0.0664 -0.1017
S2 S 0.07686(4) 0.13053(5) 0.18348(3)
O4 O -0.01175(12) 0.22340(15) 0.18310(10)
C6 C 0.01379(16) 0.05006(18) 0.02824(12)
C7 C 0.03869(16) 0.0133(2) 0.10968(12)
O5 O 0.17826(12) 0.18778(17) 0.16149(11)
C8 C 0.01525(19) 0.1795(2) 0.00171(14)
H4 H 0.0328 0.2450 0.0382
O6 O 0.09028(15) 0.05976(17) 0.25867(9)
C9 C -0.0085(2) 0.2094(2) -0.07607(15)
H5 H -0.0071 0.2952 -0.0922
C10 C 0.03522(19) -0.1130(2) 0.13242(14)
H6 H 0.0507 -0.1352 0.1856
S2B S -0.07686(4) -0.13053(5) -0.18348(3)
O4B O 0.01175(12) -0.22340(15) -0.18310(10)
C6B C -0.01379(16) -0.05006(18) -0.02824(12)
C7B C -0.03869(16) -0.0133(2) -0.10968(12)
O5B O -0.17826(12) -0.18778(17) -0.16149(11)
C8B C -0.01525(19) -0.1795(2) -0.00171(14)
H4B H -0.0328 -0.2450 -0.0382
O6B O -0.09028(15) -0.05976(17) -0.25867(9)
C9B C 0.0085(2) -0.2094(2) 0.07607(15)
H5B H 0.0071 -0.2952 0.0922
C10B C -0.03522(19) 0.1130(2) -0.13242(14)
H6B H -0.0507 0.1352 -0.1856
N1 N 0.20372(17) 0.65002(19) 0.24280(14)
H7 H 0.1397 0.6787 0.2509
H8 H 0.2605 0.6945 0.2580
C11 C 0.2148(2) 0.5384(2) 0.20730(15)
N2 N 0.3137(2) 0.4975(2) 0.19380(15)
H9 H 0.3220 0.4256 0.1695
H10 H 0.3698 0.5429 0.2093
N3 N 0.1279(2) 0.4705(2) 0.18414(14)
H11 H 0.0638 0.4992 0.1922
H12 H 0.1350 0.3974 0.1609
N4 N 0.67400(16) 0.56423(18) 0.19117(11)
H13 H 0.7435 0.5648 0.2101
H14 H 0.6520 0.4832 0.1834
H15 H 0.6330 0.6020 0.2261
C12 C 0.6630(2) 0.6367(3) 0.11300(14)
C13 C 0.5433(2) 0.6324(3) 0.08381(17)
H16 H 0.5007 0.6775 0.1208
H17 H 0.5195 0.5442 0.0798
H18 H 0.5338 0.6726 0.0324
C14 C 0.7332(3) 0.5678(4) 0.05603(19)
H19 H 0.8084 0.5731 0.0755
H20 H 0.7241 0.6075 0.0044
H21 H 0.7117 0.4789 0.0520
C15 C 0.7017(3) 0.7727(3) 0.1300(2)
H22 H 0.6548 0.8131 0.1661
H23 H 0.6998 0.8207 0.0811
H24 H 0.7751 0.7708 0.1537
loop_
_geom_bond_atom_site_label_1
_geom_bond_atom_site_label_2
_geom_bond_site_symmetry_1
_geom_bond_site_symmetry_2
S1 O1 1_555 1_555
O2 S1 1_555 1_555
C1 S1 1_555 1_555
O3 S1 1_555 1_555
C2 C1 1_555 1_555
C3 H1 1_555 1_555
C4 C1 1_555 1_555
H2 C4 1_555 1_555
C5 C2 1_555 1_555
H3 C5 1_555 1_555
S2 O4 1_555 1_555
C6 C7 1_555 1_555
C7 S2 1_555 1_555
O5 S2 1_555 1_555
C8 C6 1_555 1_555
H4 C8 1_555 1_555
O6 S2 1_555 1_555
C9 C8 1_555 1_555
H5 C9 1_555 1_555
C10 C7 1_555 1_555
H6 C10 1_555 1_555
N1 H7 1_555 1_555
H8 N1 1_555 1_555
C11 N1 1_555 1_555
N2 C11 1_555 1_555
H9 N2 1_555 1_555
H10 N2 1_555 1_555
N3 C11 1_555 1_555
H11 N3 1_555 1_555
H12 N3 1_555 1_555
N4 H13 1_555 1_555
H14 N4 1_555 1_555
H15 N4 1_555 1_555
C12 N4 1_555 1_555
C13 C12 1_555 1_555
H16 C13 1_555 1_555
H17 C13 1_555 1_555
H18 C13 1_555 1_555
C14 C12 1_555 1_555
H19 C14 1_555 1_555
H20 C14 1_555 1_555
H21 C14 1_555 1_555
C15 C12 1_555 1_555
H22 C15 1_555 1_555
H23 C15 1_555 1_555
H24 C15 1_555 1_555
S1B O1B 1_555 1_555
O2B S1B 1_555 1_555
C1B S1B 1_555 1_555
O3B S1B 1_555 1_555
C2B C2 1_555 1_555
C3B C5 1_555 1_555
H1B C3B 1_555 1_555
C4B C1B 1_555 1_555
H2B C4B 1_555 1_555
C5B C3 1_555 1_555
H3B C5B 1_555 1_555
S2B O4B 1_555 1_555
C6B C6 1_555 1_555
C7B S2B 1_555 1_555
O5B S2B 1_555 1_555
C8B C6B 1_555 1_555
H4B C8B 1_555 1_555
O6B S2B 1_555 1_555
C9B C10 1_555 1_555
H5B C9B 1_555 1_555
C10B C9 1_555 1_555
H6B C10B 1_555 1_555
C3 C4 1_555 1_555
C1B C2B 1_555 1_555
C2B C5B 1_555 1_555
C3B C4B 1_555 1_555
C6B C7B 1_555 1_555
C7B C10B 1_555 1_555
C8B C9B 1_555 1_555

#END
