
#######################################################################
#
#                 Cambridge Crystallographic Data Centre
#                                CCDC 
#
#######################################################################
#
# If this CIF has been generated from an entry in the Cambridge 
# Structural Database, then it will include bibliographic, chemical, 
# crystal, experimental, refinement or atomic coordinate data resulting 
# from the CCDC's data processing and validation procedures.
#
#######################################################################

data_DOWVOC01
_chemical_formula_moiety         'C10 H6 O6 S2 2-,C5 H6 N1 1+,C1 H6 N3 1+'
_chemical_name_systematic        
'guanidinium pyridinium naphthalene-1,5-disulfonate'
_symmetry_cell_setting           triclinic
_symmetry_space_group_name_H-M   'P -1'
_symmetry_Int_Tables_number      2
_space_group_name_Hall           '-P 1'
loop_
_symmetry_equiv_pos_site_id
_symmetry_equiv_pos_as_xyz
1 x,y,z
2 -x,-y,-z
_cell_length_a                   8.059(4)
_cell_length_b                   8.207(4)
_cell_length_c                   14.119(7)
_cell_angle_alpha                92.264(5)
_cell_angle_beta                 101.935(8)
_cell_angle_gamma                90.138(7)
_cell_volume                     912.88
_exptl_crystal_colour            colorless
_exptl_crystal_description       block
_cell_formula_units_Z            2
loop_
_atom_site_label
_atom_site_type_symbol
_atom_site_fract_x
_atom_site_fract_y
_atom_site_fract_z
C1 C 0.2158(4) 0.6900(4) 0.2623(3)
H1 H 0.2808 0.5964 0.2631
C2 C 0.1679(5) 0.7691(5) 0.1806(2)
H2 H 0.1983 0.7302 0.1239
C3 C 0.0735(5) 0.9083(5) 0.1806(2)
H3 H 0.0372 0.9635 0.1238
C4 C 0.0339(4) 0.9644(4) 0.2660(3)
H4 H -0.0267 1.0603 0.2684
C5 C 0.0831(3) 0.8798(4) 0.34555(18)
H5 H 0.0554 0.9168 0.4034
N1 N 0.1698(3) 0.7460(3) 0.34335(19)
H6 H 0.1980 0.6924 0.3953
C6 C 0.3892(3) 0.2018(3) 0.48006(15)
C7 C 0.4920(3) 0.2804(3) 0.42989(16)
H7 H 0.4668 0.3858 0.4099
C8 C 0.3643(3) -0.2016(3) 0.59136(17)
H8 H 0.2940 -0.2569 0.6241
C9 C 0.3263(3) -0.0470(3) 0.56512(16)
H9 H 0.2326 0.0033 0.5820
C10 C 0.4278(3) 0.0395(3) 0.51201(14)
O1 O 0.0631(2) 0.2006(2) 0.46811(14)
O2 O 0.2381(3) 0.3353(2) 0.60858(12)
O3 O 0.1994(3) 0.4560(2) 0.45168(14)
S1 S 0.20787(7) 0.30784(7) 0.50409(4)
C6A C 0.6108(3) -0.2018(3) 0.51994(15)
C7A C 0.5080(3) -0.2804(3) 0.57011(16)
H7A H 0.5332 -0.3858 0.5901
C8A C 0.6357(3) 0.2016(3) 0.40864(17)
H8A H 0.7060 0.2569 0.3759
C9A C 0.6737(3) 0.0470(3) 0.43488(16)
H9A H 0.7674 -0.0033 0.4180
C10A C 0.5722(3) -0.0395(3) 0.48799(14)
O1A O 0.9369(2) -0.2006(2) 0.53189(14)
O2A O 0.7619(3) -0.3353(2) 0.39142(12)
O3A O 0.8006(3) -0.4560(2) 0.54832(14)
S1A S 0.79213(7) -0.30784(7) 0.49591(4)
C11 C 0.4093(3) 0.1267(3) 0.09005(15)
C12 C 0.4762(3) 0.0521(3) 0.17431(16)
H10 H 0.4500 0.0908 0.2322
C13 C 0.5846(3) -0.0831(3) 0.17425(17)
H11 H 0.6304 -0.1321 0.2320
C14 C 0.3782(3) 0.1414(3) -0.08963(17)
H12 H 0.3075 0.2310 -0.0902
C15 C 0.4451(3) 0.0685(2) -0.00057(15)
O4 O 0.1139(2) 0.2592(2) 0.03260(13)
O5 O 0.2612(2) 0.3150(2) 0.19807(12)
O6 O 0.3626(2) 0.43669(19) 0.06662(12)
S2 S 0.27545(7) 0.29714(7) 0.09718(4)
C11A C 0.5907(3) -0.1267(3) -0.09005(15)
C12A C 0.5238(3) -0.0521(3) -0.17431(16)
H10A H 0.5500 -0.0908 -0.2322
C13A C 0.4154(3) 0.0831(3) -0.17425(17)
H11A H 0.3696 0.1321 -0.2320
C14A C 0.6218(3) -0.1414(3) 0.08963(17)
H12A H 0.6925 -0.2310 0.0902
C15A C 0.5549(3) -0.0685(2) 0.00057(15)
O4A O 0.8861(2) -0.2592(2) -0.03260(13)
O5A O 0.7388(2) -0.3150(2) -0.19807(12)
O6A O 0.6374(2) -0.43669(19) -0.06662(12)
S2A S 0.72455(7) -0.29714(7) -0.09718(4)
C16 C 0.1889(3) 0.5785(3) 0.81078(16)
N2 N 0.1885(3) 0.6242(3) 0.90189(14)
H13 H 0.2762 0.6082 0.9467
H14 H 0.1004 0.6699 0.9162
N3 N 0.0550(3) 0.6077(3) 0.74208(15)
H15 H 0.0555 0.5809 0.6826
H16 H -0.0327 0.6534 0.7568
N4 N 0.3232(3) 0.5087(2) 0.78880(15)
H17 H 0.3244 0.4817 0.7295
H18 H 0.4099 0.4900 0.8337
loop_
_geom_bond_atom_site_label_1
_geom_bond_atom_site_label_2
_geom_bond_site_symmetry_1
_geom_bond_site_symmetry_2
C1 H1 1_555 1_555
C2 C1 1_555 1_555
H2 C2 1_555 1_555
C3 C2 1_555 1_555
H3 C3 1_555 1_555
C4 C3 1_555 1_555
H4 C4 1_555 1_555
C5 C4 1_555 1_555
H5 C5 1_555 1_555
N1 C1 1_555 1_555
H6 N1 1_555 1_555
C6 C7 1_555 1_555
C7 H7 1_555 1_555
C8 H8 1_555 1_555
C9 C8 1_555 1_555
H9 C9 1_555 1_555
C10 C6 1_555 1_555
O1 S1 1_555 1_555
O2 S1 1_555 1_555
O3 S1 1_555 1_555
S1 C6 1_555 1_555
C11 C12 1_555 1_555
C12 H10 1_555 1_555
C13 C12 1_555 1_555
H11 C13 1_555 1_555
C14 H12 1_555 1_555
C15 C11 1_555 1_555
O4 S2 1_555 1_555
O5 S2 1_555 1_555
O6 S2 1_555 1_555
S2 C11 1_555 1_555
C16 N2 1_555 1_555
N2 H13 1_555 1_555
H14 N2 1_555 1_555
N3 C16 1_555 1_555
H15 N3 1_555 1_555
H16 N3 1_555 1_555
N4 C16 1_555 1_555
H17 N4 1_555 1_555
H18 N4 1_555 1_555
C6A C7A 1_555 1_555
C7A C8 1_555 1_555
H7A C7A 1_555 1_555
C8A C7 1_555 1_555
H8A C8A 1_555 1_555
C9A C8A 1_555 1_555
H9A C9A 1_555 1_555
C10A C10 1_555 1_555
O1A S1A 1_555 1_555
O2A S1A 1_555 1_555
O3A S1A 1_555 1_555
S1A C6A 1_555 1_555
C11A C12A 1_555 1_555
C12A H10A 1_555 1_555
C13A C14 1_555 1_555
H11A C13A 1_555 1_555
C14A C13 1_555 1_555
H12A C14A 1_555 1_555
C15A C15 1_555 1_555
O4A S2A 1_555 1_555
O5A S2A 1_555 1_555
O6A S2A 1_555 1_555
S2A C11A 1_555 1_555
C5 N1 1_555 1_555
C9 C10 1_555 1_555
C14 C15 1_555 1_555
C6A C10A 1_555 1_555
C9A C10A 1_555 1_555
C11A C15A 1_555 1_555
C12A C13A 1_555 1_555
C14A C15A 1_555 1_555

#END
