
#######################################################################
#
#                 Cambridge Crystallographic Data Centre
#                                CCDC 
#
#######################################################################
#
# If this CIF has been generated from an entry in the Cambridge 
# Structural Database, then it will include bibliographic, chemical, 
# crystal, experimental, refinement or atomic coordinate data resulting 
# from the CCDC's data processing and validation procedures.
#
#######################################################################

data_DOWVOC30
_chemical_formula_moiety         'C10 H6 O6 S2 2-,C5 H6 N1 1+,C1 H6 N3 1+'
_chemical_name_systematic        
'guanidinium pyridinium naphthalene-1,5-disulfonate'
_symmetry_cell_setting           triclinic
_symmetry_space_group_name_H-M   'P -1'
_symmetry_Int_Tables_number      2
_space_group_name_Hall           '-P 1'
loop_
_symmetry_equiv_pos_site_id
_symmetry_equiv_pos_as_xyz
1 x,y,z
2 -x,-y,-z
_cell_length_a                   7.967(6)
_cell_length_b                   8.131(6)
_cell_length_c                   14.048(11)
_cell_angle_alpha                92.120(9)
_cell_angle_beta                 99.247(14)
_cell_angle_gamma                90.520(13)
_cell_volume                     897.48
_exptl_crystal_colour            colorless
_exptl_crystal_description       block
_cell_formula_units_Z            2
loop_
_atom_site_label
_atom_site_type_symbol
_atom_site_fract_x
_atom_site_fract_y
_atom_site_fract_z
C1 C 0.1779(3) 0.7834(3) 0.34900(19)
H1 H 0.2164 0.7419 0.4093
C2 C 0.2074(3) 0.7003(3) 0.2664(2)
H2 H 0.2691 0.6036 0.2704
C3 C 0.1452(4) 0.7611(4) 0.17804(19)
H3 H 0.1638 0.7053 0.1218
C4 C 0.0545(4) 0.9062(3) 0.1731(2)
H4 H 0.0098 0.9476 0.1136
C5 C 0.0320(3) 0.9870(3) 0.2567(2)
H5 H -0.0261 1.0858 0.2547
N1 N 0.0933(3) 0.9243(3) 0.34136(16)
H6 H 0.0776 0.9769 0.3933
C6 C 0.4025(3) 0.1281(3) 0.09086(17)
C7 C 0.4645(3) 0.0531(3) 0.17478(17)
H7 H 0.4351 0.0923 0.2328
C8 C 0.5724(3) -0.0830(3) 0.17378(18)
H8 H 0.6142 -0.1327 0.2312
C9 C 0.3838(3) 0.1424(3) -0.08871(18)
H9 H 0.3127 0.2326 -0.0891
C10 C 0.4453(3) 0.0686(3) 0.00001(17)
O1 O 0.2475(2) 0.3183(2) 0.19896(12)
O2 O 0.3605(2) 0.4409(2) 0.06721(12)
O3 O 0.1085(2) 0.2627(2) 0.03414(12)
S1 S 0.26841(8) 0.30038(7) 0.09800(4)
C6A C 0.5975(3) -0.1281(3) -0.09086(17)
C7A C 0.5355(3) -0.0531(3) -0.17478(17)
H7A H 0.5649 -0.0923 -0.2328
C8A C 0.4276(3) 0.0830(3) -0.17378(18)
H8A H 0.3858 0.1327 -0.2312
C9A C 0.6162(3) -0.1424(3) 0.08871(18)
H9A H 0.6873 -0.2326 0.0891
C10A C 0.5547(3) -0.0686(3) -0.00001(17)
O1A O 0.7525(2) -0.3183(2) -0.19896(12)
O2A O 0.6395(2) -0.4409(2) -0.06721(12)
O3A O 0.8915(2) -0.2627(2) -0.03414(12)
S1A S 0.73159(8) -0.30038(7) -0.09800(4)
C11 C 0.3868(3) 0.2014(3) 0.47959(16)
C12 C 0.4879(3) 0.2799(3) 0.42489(17)
H10 H 0.4607 0.3848 0.4037
C13 C 0.6333(3) 0.2017(3) 0.40062(17)
H11 H 0.7037 0.2573 0.3654
C14 C 0.6722(3) 0.0466(3) 0.42783(16)
H12 H 0.7654 -0.0045 0.4080
C15 C 0.4270(3) 0.0396(3) 0.51366(16)
O4 O 0.2197(2) 0.3329(2) 0.60745(12)
O5 O 0.0584(2) 0.1830(2) 0.47005(12)
O6 O 0.1855(2) 0.4497(2) 0.44832(13)
S2 S 0.19740(7) 0.30217(7) 0.50285(4)
C11A C 0.6132(3) -0.2014(3) 0.52041(16)
C12A C 0.5121(3) -0.2799(3) 0.57511(17)
H10A H 0.5393 -0.3848 0.5963
C13A C 0.3667(3) -0.2017(3) 0.59938(17)
H11A H 0.2963 -0.2573 0.6346
C14A C 0.3278(3) -0.0466(3) 0.57217(16)
H12A H 0.2346 0.0045 0.5920
C15A C 0.5730(3) -0.0396(3) 0.48634(16)
O4A O 0.7803(2) -0.3329(2) 0.39255(12)
O5A O 0.9416(2) -0.1830(2) 0.52995(12)
O6A O 0.8145(2) -0.4497(2) 0.55168(13)
S2A S 0.80260(7) -0.30217(7) 0.49715(4)
C16 C 0.2028(3) 0.5680(3) 0.80732(17)
N2 N 0.0707(3) 0.5897(3) 0.73890(14)
H13 H 0.0750 0.5579 0.6803
H14 H -0.0194 0.6356 0.7531
N3 N 0.3420(3) 0.4971(2) 0.78530(15)
H15 H 0.3462 0.4654 0.7267
H16 H 0.4278 0.4829 0.8297
N4 N 0.1993(3) 0.6216(3) 0.89737(15)
H17 H 0.1110 0.6707 0.9116
H18 H 0.2855 0.6071 0.9415
loop_
_geom_bond_atom_site_label_1
_geom_bond_atom_site_label_2
_geom_bond_site_symmetry_1
_geom_bond_site_symmetry_2
C1 H1 1_555 1_555
C2 C1 1_555 1_555
H2 C2 1_555 1_555
C3 C2 1_555 1_555
H3 C3 1_555 1_555
C4 C3 1_555 1_555
H4 C4 1_555 1_555
C5 C4 1_555 1_555
H5 C5 1_555 1_555
N1 C1 1_555 1_555
H6 N1 1_555 1_555
C6 C7 1_555 1_555
C7 H7 1_555 1_555
C8 C7 1_555 1_555
H8 C8 1_555 1_555
C9 H9 1_555 1_555
C10 C6 1_555 1_555
O1 S1 1_555 1_555
O2 S1 1_555 1_555
O3 S1 1_555 1_555
S1 C6 1_555 1_555
C11 C12 1_555 1_555
C12 H10 1_555 1_555
C13 C12 1_555 1_555
H11 C13 1_555 1_555
C14 C13 1_555 1_555
H12 C14 1_555 1_555
C15 C11 1_555 1_555
O4 S2 1_555 1_555
O5 S2 1_555 1_555
O6 S2 1_555 1_555
S2 C11 1_555 1_555
C16 N2 1_555 1_555
N2 H13 1_555 1_555
H14 N2 1_555 1_555
N3 C16 1_555 1_555
H15 N3 1_555 1_555
H16 N3 1_555 1_555
N4 C16 1_555 1_555
H17 N4 1_555 1_555
H18 N4 1_555 1_555
C6A C7A 1_555 1_555
C7A H7A 1_555 1_555
C8A C9 1_555 1_555
H8A C8A 1_555 1_555
C9A C8 1_555 1_555
H9A C9A 1_555 1_555
C10A C10 1_555 1_555
O1A S1A 1_555 1_555
O2A S1A 1_555 1_555
O3A S1A 1_555 1_555
S1A C6A 1_555 1_555
C11A C12A 1_555 1_555
C12A H10A 1_555 1_555
C13A C12A 1_555 1_555
H11A C13A 1_555 1_555
C14A C15 1_555 1_555
H12A C14A 1_555 1_555
C15A C14 1_555 1_555
O4A S2A 1_555 1_555
O5A S2A 1_555 1_555
O6A S2A 1_555 1_555
S2A C11A 1_555 1_555
C5 N1 1_555 1_555
C9 C10 1_555 1_555
C15 C15A 1_555 1_555
C6A C10A 1_555 1_555
C7A C8A 1_555 1_555
C9A C10A 1_555 1_555
C11A C15A 1_555 1_555
C13A C14A 1_555 1_555

#END
