
#######################################################################
#
#                 Cambridge Crystallographic Data Centre
#                                CCDC 
#
#######################################################################
#
# If this CIF has been generated from an entry in the Cambridge 
# Structural Database, then it will include bibliographic, chemical, 
# crystal, experimental, refinement or atomic coordinate data resulting 
# from the CCDC's data processing and validation procedures.
#
#######################################################################

data_DOWVOC38
_chemical_formula_moiety         'C10 H6 O6 S2 2-,C5 H6 N1 1+,C1 H6 N3 1+'
_chemical_name_systematic        
'guanidinium pyridinium naphthalene-1,5-disulfonate'
_symmetry_cell_setting           triclinic
_symmetry_space_group_name_H-M   'P -1'
_symmetry_Int_Tables_number      2
_space_group_name_Hall           '-P 1'
loop_
_symmetry_equiv_pos_site_id
_symmetry_equiv_pos_as_xyz
1 x,y,z
2 -x,-y,-z
_cell_length_a                   8.030(7)
_cell_length_b                   8.179(7)
_cell_length_c                   14.136(14)
_cell_angle_alpha                92.277(10)
_cell_angle_beta                 99.815(18)
_cell_angle_gamma                90.533(15)
_cell_volume                     913.982
_exptl_crystal_colour            colorless
_exptl_crystal_description       block
_cell_formula_units_Z            2
loop_
_atom_site_label
_atom_site_type_symbol
_atom_site_fract_x
_atom_site_fract_y
_atom_site_fract_z
C1 C 0.1776(4) 0.7747(4) 0.3480(2)
H1 H 0.2144 0.7290 0.4069
C2 C 0.2099(4) 0.7000(4) 0.2648(2)
H2 H 0.2725 0.6047 0.2670
C3 C 0.1503(4) 0.7654(4) 0.1791(2)
H3 H 0.1718 0.7140 0.1227
C4 C 0.0575(4) 0.9083(4) 0.1747(2)
H4 H 0.0139 0.9522 0.1161
C5 C 0.0323(4) 0.9822(4) 0.2599(2)
H5 H -0.0265 1.0796 0.2596
N1 N 0.0920(3) 0.9149(3) 0.34298(18)
H6 H 0.0748 0.9633 0.3955
C6 C 0.4041(3) 0.1277(3) 0.09073(17)
C7 C 0.4672(3) 0.0536(3) 0.17441(18)
H7 H 0.4388 0.0930 0.2321
C8 C 0.5750(4) -0.0820(3) 0.17394(19)
H8 H 0.6175 -0.1311 0.2311
C9 C 0.3828(3) 0.1412(3) -0.08844(19)
H9 H 0.3121 0.2307 -0.0888
C10 C 0.4447(3) 0.0690(3) -0.00045(18)
O1 O 0.1099(2) 0.2619(2) 0.03355(13)
O2 O 0.3607(2) 0.4404(2) 0.06673(13)
O3 O 0.2504(2) 0.3180(2) 0.19813(13)
S1 S 0.26988(8) 0.29980(8) 0.09770(5)
C6A C 0.5959(3) -0.1277(3) -0.09073(17)
C7A C 0.5328(3) -0.0536(3) -0.17441(18)
H7A H 0.5612 -0.0930 -0.2321
C8A C 0.4250(4) 0.0820(3) -0.17394(19)
H8A H 0.3825 0.1311 -0.2311
C9A C 0.6172(3) -0.1412(3) 0.08844(19)
H9A H 0.6879 -0.2307 0.0888
C10A C 0.5553(3) -0.0690(3) 0.00045(18)
O1A O 0.8901(2) -0.2619(2) -0.03355(13)
O2A O 0.6393(2) -0.4404(2) -0.06673(13)
O3A O 0.7496(2) -0.3180(2) -0.19813(13)
S1A S 0.73012(8) -0.29980(8) -0.09770(5)
C11 C 0.3859(3) 0.2001(3) 0.47997(17)
C12 C 0.4872(3) 0.2800(3) 0.42618(18)
H10 H 0.4604 0.3848 0.4059
C13 C 0.6315(3) 0.2026(3) 0.40206(19)
H11 H 0.7002 0.2580 0.3668
C14 C 0.3282(3) -0.0482(3) 0.57047(18)
H12 H 0.2345 0.0014 0.5891
C15 C 0.4272(3) 0.0392(3) 0.51352(16)
O4 O 0.1855(2) 0.4484(2) 0.44964(14)
O5 O 0.2227(2) 0.3326(2) 0.60797(13)
O6 O 0.0583(2) 0.1828(2) 0.47064(13)
S2 S 0.19826(8) 0.30131(8) 0.50365(4)
C11A C 0.6141(3) -0.2001(3) 0.52003(17)
C12A C 0.5128(3) -0.2800(3) 0.57382(18)
H10A H 0.5396 -0.3848 0.5941
C13A C 0.3685(3) -0.2026(3) 0.59794(19)
H11A H 0.2998 -0.2580 0.6332
C14A C 0.6718(3) 0.0482(3) 0.42953(18)
H12A H 0.7655 -0.0014 0.4109
C15A C 0.5728(3) -0.0392(3) 0.48648(16)
O4A O 0.8145(2) -0.4484(2) 0.55036(14)
O5A O 0.7773(2) -0.3326(2) 0.39203(13)
O6A O 0.9417(2) -0.1828(2) 0.52936(13)
S2A S 0.80174(8) -0.30131(8) 0.49635(4)
C16 C 0.8007(3) 0.4297(3) 0.19200(18)
N2 N 0.9327(3) 0.4068(3) 0.26001(16)
H13 H 0.9294 0.4375 0.3185
H14 H 1.0217 0.3611 0.2457
N3 N 0.8037(3) 0.3776(3) 0.10148(15)
H15 H 0.8915 0.3292 0.0874
H16 H 0.7180 0.3926 0.0574
N4 N 0.6626(3) 0.5003(3) 0.21392(16)
H17 H 0.6590 0.5312 0.2724
H18 H 0.5771 0.5150 0.1696
loop_
_geom_bond_atom_site_label_1
_geom_bond_atom_site_label_2
_geom_bond_site_symmetry_1
_geom_bond_site_symmetry_2
C1 H1 1_555 1_555
C2 C1 1_555 1_555
H2 C2 1_555 1_555
C3 C2 1_555 1_555
H3 C3 1_555 1_555
C4 C3 1_555 1_555
H4 C4 1_555 1_555
C5 C4 1_555 1_555
H5 C5 1_555 1_555
N1 C1 1_555 1_555
H6 N1 1_555 1_555
C6 C7 1_555 1_555
C7 H7 1_555 1_555
C8 C7 1_555 1_555
H8 C8 1_555 1_555
C9 H9 1_555 1_555
C10 C6 1_555 1_555
O1 S1 1_555 1_555
O2 S1 1_555 1_555
O3 S1 1_555 1_555
S1 C6 1_555 1_555
C11 C12 1_555 1_555
C12 H10 1_555 1_555
C13 C12 1_555 1_555
H11 C13 1_555 1_555
C14 H12 1_555 1_555
C15 C11 1_555 1_555
O4 S2 1_555 1_555
O5 S2 1_555 1_555
O6 S2 1_555 1_555
S2 C11 1_555 1_555
C16 N2 1_555 1_555
N2 H13 1_555 1_555
H14 N2 1_555 1_555
N3 C16 1_555 1_555
H15 N3 1_555 1_555
H16 N3 1_555 1_555
N4 C16 1_555 1_555
H17 N4 1_555 1_555
H18 N4 1_555 1_555
C6A C7A 1_555 1_555
C7A H7A 1_555 1_555
C8A C9 1_555 1_555
H8A C8A 1_555 1_555
C9A C8 1_555 1_555
H9A C9A 1_555 1_555
C10A C10 1_555 1_555
O1A S1A 1_555 1_555
O2A S1A 1_555 1_555
O3A S1A 1_555 1_555
S1A C6A 1_555 1_555
C11A C12A 1_555 1_555
C12A H10A 1_555 1_555
C13A C14 1_555 1_555
H11A C13A 1_555 1_555
C14A C13 1_555 1_555
H12A C14A 1_555 1_555
C15A C15 1_555 1_555
O4A S2A 1_555 1_555
O5A S2A 1_555 1_555
O6A S2A 1_555 1_555
S2A C11A 1_555 1_555
C5 N1 1_555 1_555
C9 C10 1_555 1_555
C14 C15 1_555 1_555
C6A C10A 1_555 1_555
C7A C8A 1_555 1_555
C9A C10A 1_555 1_555
C11A C15A 1_555 1_555
C12A C13A 1_555 1_555
C14A C15A 1_555 1_555

#END
