
#######################################################################
#
#                 Cambridge Crystallographic Data Centre
#                                CCDC 
#
#######################################################################
#
# If this CIF has been generated from an entry in the Cambridge 
# Structural Database, then it will include bibliographic, chemical, 
# crystal, experimental, refinement or atomic coordinate data resulting 
# from the CCDC's data processing and validation procedures.
#
#######################################################################

data_DOWVOC29
_chemical_formula_moiety         'C10 H6 O6 S2 2-,C5 H6 N1 1+,C1 H6 N3 1+'
_chemical_name_systematic        
'Guandinium pyridinium naphthalene-1,5-disulfonate'
_symmetry_cell_setting           triclinic
_symmetry_space_group_name_H-M   'P -1'
_symmetry_Int_Tables_number      2
_space_group_name_Hall           '-P 1'
loop_
_symmetry_equiv_pos_site_id
_symmetry_equiv_pos_as_xyz
1 x,y,z
2 -x,-y,-z
_cell_length_a                   8.062(4)
_cell_length_b                   8.215(4)
_cell_length_c                   14.124(8)
_cell_angle_alpha                92.241(8)
_cell_angle_beta                 101.966(10)
_cell_angle_gamma                89.982(6)
_cell_volume                     914.368
_exptl_crystal_colour            colorless
_exptl_crystal_description       block
_cell_formula_units_Z            2
loop_
_atom_site_label
_atom_site_type_symbol
_atom_site_fract_x
_atom_site_fract_y
_atom_site_fract_z
C1 C 0.2151(5) 0.6906(5) 0.2620(3)
H1 H 0.2800 0.5968 0.2626
C2 C 0.1683(6) 0.7694(6) 0.1807(3)
H2 H 0.1985 0.7307 0.1239
C3 C 0.0756(5) 0.9079(6) 0.1816(3)
H3 H 0.0403 0.9643 0.1252
C4 C 0.0354(4) 0.9627(4) 0.2662(3)
H4 H -0.0250 1.0588 0.2685
C5 C 0.0831(4) 0.8780(4) 0.3458(2)
H5 H 0.0543 0.9143 0.4035
N1 N 0.1690(4) 0.7456(4) 0.3432(2)
H6 H 0.1973 0.6915 0.3950
C6 C 0.3892(3) 0.2025(3) 0.47991(18)
C7 C 0.4932(4) 0.2794(3) 0.4305(2)
H7 H 0.4690 0.3854 0.4114
C8 C 0.3646(3) -0.2016(3) 0.5917(2)
H8 H 0.2954 -0.2564 0.6252
C9 C 0.3263(3) -0.0463(3) 0.5648(2)
H9 H 0.2321 0.0041 0.5811
C10 C 0.4283(3) 0.0400(3) 0.51233(18)
O1 O 0.0630(2) 0.2025(3) 0.46789(17)
O2 O 0.2392(3) 0.3357(3) 0.60840(15)
O3 O 0.2005(3) 0.4564(3) 0.45198(17)
S1 S 0.20863(9) 0.30842(8) 0.50422(5)
C6A C 0.6108(3) -0.2025(3) 0.52009(18)
C7A C 0.5068(4) -0.2794(3) 0.5695(2)
H7A H 0.5310 -0.3854 0.5886
C8A C 0.6354(3) 0.2016(3) 0.4083(2)
H8A H 0.7046 0.2564 0.3748
C9A C 0.6737(3) 0.0463(3) 0.4352(2)
H9A H 0.7679 -0.0041 0.4189
C10A C 0.5717(3) -0.0400(3) 0.48767(18)
O1A O 0.9370(2) -0.2025(3) 0.53211(17)
O2A O 0.7608(3) -0.3357(3) 0.39160(15)
O3A O 0.7995(3) -0.4564(3) 0.54802(17)
S1A S 0.79137(9) -0.30842(8) 0.49578(5)
C11 C 0.4100(3) 0.1263(3) 0.08991(19)
C12 C 0.4762(3) 0.0527(3) 0.1737(2)
H10 H 0.4499 0.0920 0.2314
C13 C 0.5848(4) -0.0829(3) 0.1745(2)
H11 H 0.6304 -0.1318 0.2323
C14 C 0.3782(4) 0.1413(3) -0.0895(2)
H12 H 0.3073 0.2307 -0.0900
C15 C 0.4453(3) 0.0688(3) -0.00059(19)
O4 O 0.1142(2) 0.2601(3) 0.03258(15)
O5 O 0.3627(2) 0.4367(2) 0.06649(15)
O6 O 0.2622(3) 0.3156(2) 0.19783(14)
S2 S 0.27599(8) 0.29729(8) 0.09726(5)
C11A C 0.5900(3) -0.1263(3) -0.08991(19)
C12A C 0.5238(3) -0.0527(3) -0.1737(2)
H10A H 0.5501 -0.0920 -0.2314
C13A C 0.4152(4) 0.0829(3) -0.1745(2)
H11A H 0.3696 0.1318 -0.2323
C14A C 0.6218(4) -0.1413(3) 0.0895(2)
H12A H 0.6927 -0.2307 0.0900
C15A C 0.5547(3) -0.0688(3) 0.00059(19)
O4A O 0.8858(2) -0.2601(3) -0.03258(15)
O5A O 0.6373(2) -0.4367(2) -0.06649(15)
O6A O 0.7378(3) -0.3156(2) -0.19783(14)
S2A S 0.72401(8) -0.29729(8) -0.09726(5)
C16 C 0.8122(3) 0.4210(3) 0.1896(2)
N2 N 0.6768(3) 0.4908(3) 0.21148(18)
H13 H 0.6752 0.5174 0.2708
H14 H 0.5901 0.5095 0.1665
N3 N 0.9457(3) 0.3916(3) 0.25792(18)
H15 H 0.9451 0.4180 0.3174
H16 H 1.0335 0.3462 0.2431
N4 N 0.8114(3) 0.3760(3) 0.09807(18)
H17 H 0.8980 0.3278 0.0835
H18 H 0.7243 0.3951 0.0534
loop_
_geom_bond_atom_site_label_1
_geom_bond_atom_site_label_2
_geom_bond_site_symmetry_1
_geom_bond_site_symmetry_2
C1 H1 1_555 1_555
C2 C1 1_555 1_555
H2 C2 1_555 1_555
C3 C2 1_555 1_555
H3 C3 1_555 1_555
C4 C3 1_555 1_555
H4 C4 1_555 1_555
C5 C4 1_555 1_555
H5 C5 1_555 1_555
N1 C1 1_555 1_555
H6 N1 1_555 1_555
C6 C7 1_555 1_555
C7 H7 1_555 1_555
C8 H8 1_555 1_555
C9 C8 1_555 1_555
H9 C9 1_555 1_555
C10 C6 1_555 1_555
O1 S1 1_555 1_555
O2 S1 1_555 1_555
O3 S1 1_555 1_555
S1 C6 1_555 1_555
C11 C12 1_555 1_555
C12 H10 1_555 1_555
C13 C12 1_555 1_555
H11 C13 1_555 1_555
C14 H12 1_555 1_555
C15 C11 1_555 1_555
O4 S2 1_555 1_555
O5 S2 1_555 1_555
O6 S2 1_555 1_555
S2 C11 1_555 1_555
C16 N2 1_555 1_555
N2 H13 1_555 1_555
H14 N2 1_555 1_555
N3 C16 1_555 1_555
H15 N3 1_555 1_555
H16 N3 1_555 1_555
N4 C16 1_555 1_555
H17 N4 1_555 1_555
H18 N4 1_555 1_555
C6A C7A 1_555 1_555
C7A C8 1_555 1_555
H7A C7A 1_555 1_555
C8A C7 1_555 1_555
H8A C8A 1_555 1_555
C9A C8A 1_555 1_555
H9A C9A 1_555 1_555
C10A C10 1_555 1_555
O1A S1A 1_555 1_555
O2A S1A 1_555 1_555
O3A S1A 1_555 1_555
S1A C6A 1_555 1_555
C11A C12A 1_555 1_555
C12A H10A 1_555 1_555
C13A C14 1_555 1_555
H11A C13A 1_555 1_555
C14A C13 1_555 1_555
H12A C14A 1_555 1_555
C15A C15 1_555 1_555
O4A S2A 1_555 1_555
O5A S2A 1_555 1_555
O6A S2A 1_555 1_555
S2A C11A 1_555 1_555
C5 N1 1_555 1_555
C9 C10 1_555 1_555
C14 C15 1_555 1_555
C6A C10A 1_555 1_555
C9A C10A 1_555 1_555
C11A C15A 1_555 1_555
C12A C13A 1_555 1_555
C14A C15A 1_555 1_555

#END
