
#######################################################################
#
#                 Cambridge Crystallographic Data Centre
#                                CCDC 
#
#######################################################################
#
# If this CIF has been generated from an entry in the Cambridge 
# Structural Database, then it will include bibliographic, chemical, 
# crystal, experimental, refinement or atomic coordinate data resulting 
# from the CCDC's data processing and validation procedures.
#
#######################################################################

data_DOWVOC35
_chemical_formula_moiety         'C10 H6 O6 S2 2-,C5 H6 N1 1+,C1 H6 N3 1+'
_chemical_name_systematic        
'guanidinium pyridinium naphthalene-1,5-disulfonate'
_symmetry_cell_setting           triclinic
_symmetry_space_group_name_H-M   'P -1'
_symmetry_Int_Tables_number      2
_space_group_name_Hall           '-P 1'
loop_
_symmetry_equiv_pos_site_id
_symmetry_equiv_pos_as_xyz
1 x,y,z
2 -x,-y,-z
_cell_length_a                   7.981(6)
_cell_length_b                   8.136(7)
_cell_length_c                   14.060(12)
_cell_angle_alpha                92.211(10)
_cell_angle_beta                 99.516(16)
_cell_angle_gamma                90.523(14)
_cell_volume                     899.619
_exptl_crystal_colour            colorless
_exptl_crystal_description       block
_cell_formula_units_Z            2
loop_
_atom_site_label
_atom_site_type_symbol
_atom_site_fract_x
_atom_site_fract_y
_atom_site_fract_z
C1 C 0.8227(3) 0.2209(3) 0.6520(2)
H1 H 0.7852 0.2645 0.5922
C2 C 0.7915(4) 0.3001(3) 0.7341(2)
H2 H 0.7293 0.3964 0.7308
C3 C 0.8524(4) 0.2368(4) 0.8215(2)
H3 H 0.8328 0.2907 0.8781
C4 C 0.9432(4) 0.0929(4) 0.8257(2)
H4 H 0.9868 0.0498 0.8849
C5 C 0.9676(3) 0.0152(3) 0.7417(2)
H5 H 1.0263 -0.0831 0.7430
N1 N 0.9075(3) 0.0800(3) 0.65803(16)
H6 H 0.9238 0.0294 0.6056
C6 C 0.5967(3) 0.8721(3) 0.90940(17)
C7 C 0.5343(3) 0.9469(3) 0.82559(17)
H7 H 0.5633 0.9076 0.7676
C8 C 0.4268(3) 1.0827(3) 0.82645(17)
H8 H 0.3853 1.1326 0.7691
C9 C 0.6170(3) 0.8582(3) 1.08876(17)
H9 H 0.6889 0.7688 1.0893
C10 C 0.5549(3) 0.9307(3) 1.00019(16)
O1 O 0.6390(2) 0.5597(2) 0.93290(12)
O2 O 0.8905(2) 0.7374(2) 0.96610(12)
O3 O 0.7510(2) 0.6818(2) 0.80131(12)
S1 S 0.73089(7) 0.69985(7) 0.90217(4)
C6A C 0.4033(3) 1.1279(3) 1.09060(17)
C7A C 0.4657(3) 1.0531(3) 1.17441(17)
H7A H 0.4367 1.0924 1.2324
C8A C 0.5732(3) 0.9173(3) 1.17355(17)
H8A H 0.6147 0.8674 1.2309
C9A C 0.3830(3) 1.1418(3) 0.91124(17)
H9A H 0.3111 1.2312 0.9107
C10A C 0.4451(3) 1.0693(3) 0.99981(16)
O1A O 0.3610(2) 1.4403(2) 1.06710(12)
O2A O 0.1095(2) 1.2626(2) 1.03390(12)
O3A O 0.2490(2) 1.3182(2) 1.19869(12)
S1A S 0.26911(7) 1.30015(7) 1.09783(4)
C11 C 0.6137(3) 0.7996(3) 0.52007(16)
C12 C 0.5126(3) 0.7205(3) 0.57416(17)
H10 H 0.5396 0.6153 0.5948
C13 C 0.3676(3) 0.7983(3) 0.59857(17)
H11 H 0.2978 0.7425 0.6338
C14 C 0.6716(3) 1.0471(3) 0.42840(16)
H12 H 0.7649 0.9964 0.4088
C15 C 0.5728(3) 0.9607(3) 0.48629(15)
O4 O 0.8149(2) 0.5514(2) 0.55117(13)
O5 O 0.9416(2) 0.8175(2) 0.52962(12)
O6 O 0.7790(2) 0.6676(2) 0.39218(12)
S2 S 0.80223(7) 0.69849(7) 0.49664(4)
C11A C 0.3863(3) 1.2004(3) 0.47993(16)
C12A C 0.4874(3) 1.2795(3) 0.42584(17)
H10A H 0.4604 1.3847 0.4052
C13A C 0.6324(3) 1.2017(3) 0.40143(17)
H11A H 0.7022 1.2575 0.3662
C14A C 0.3284(3) 0.9529(3) 0.57160(16)
H12A H 0.2351 1.0036 0.5912
C15A C 0.4272(3) 1.0393(3) 0.51371(15)
O4A O 0.1851(2) 1.4486(2) 0.44883(13)
O5A O 0.0584(2) 1.1825(2) 0.47038(12)
O6A O 0.2210(2) 1.3324(2) 0.60782(12)
S2A S 0.19777(7) 1.30151(7) 0.50336(4)
C16 C 1.2013(3) 0.5688(3) 0.80772(16)
N2 N 1.3396(3) 0.4983(2) 0.78575(14)
H13 H 1.3433 0.4666 0.7271
H14 H 1.4256 0.4841 0.8301
N3 N 1.1976(3) 0.6221(3) 0.89779(14)
H15 H 1.2849 0.6108 0.9418
H16 H 1.1079 0.6680 0.9121
N4 N 1.0689(3) 0.5907(3) 0.73950(14)
H17 H 1.0725 0.5591 0.6808
H18 H 0.9791 0.6365 0.7538
loop_
_geom_bond_atom_site_label_1
_geom_bond_atom_site_label_2
_geom_bond_site_symmetry_1
_geom_bond_site_symmetry_2
C1 H1 1_555 1_555
C2 C1 1_555 1_555
H2 C2 1_555 1_555
C3 C2 1_555 1_555
H3 C3 1_555 1_555
C4 C3 1_555 1_555
H4 C4 1_555 1_555
C5 C4 1_555 1_555
H5 C5 1_555 1_555
N1 C1 1_555 1_555
H6 N1 1_555 1_555
C6 C7 1_555 1_555
C7 H7 1_555 1_555
C8 C7 1_555 1_555
H8 C8 1_555 1_555
C9 H9 1_555 1_555
C10 C6 1_555 1_555
O1 S1 1_555 1_555
O2 S1 1_555 1_555
O3 S1 1_555 1_555
S1 C6 1_555 1_555
C11 C12 1_555 1_555
C12 H10 1_555 1_555
C13 C12 1_555 1_555
H11 C13 1_555 1_555
C14 H12 1_555 1_555
C15 C11 1_555 1_555
O4 S2 1_555 1_555
O5 S2 1_555 1_555
O6 S2 1_555 1_555
S2 C11 1_555 1_555
C16 N2 1_555 1_555
N2 H13 1_555 1_555
H14 N2 1_555 1_555
N3 C16 1_555 1_555
H15 N3 1_555 1_555
H16 N3 1_555 1_555
N4 C16 1_555 1_555
H17 N4 1_555 1_555
H18 N4 1_555 1_555
C6A C7A 1_555 1_555
C7A H7A 1_555 1_555
C8A C9 1_555 1_555
H8A C8A 1_555 1_555
C9A C8 1_555 1_555
H9A C9A 1_555 1_555
C10A C10 1_555 1_555
O1A S1A 1_555 1_555
O2A S1A 1_555 1_555
O3A S1A 1_555 1_555
S1A C6A 1_555 1_555
C11A C12A 1_555 1_555
C12A H10A 1_555 1_555
C13A C14 1_555 1_555
H11A C13A 1_555 1_555
C14A C13 1_555 1_555
H12A C14A 1_555 1_555
C15A C15 1_555 1_555
O4A S2A 1_555 1_555
O5A S2A 1_555 1_555
O6A S2A 1_555 1_555
S2A C11A 1_555 1_555
C5 N1 1_555 1_555
C9 C10 1_555 1_555
C14 C15 1_555 1_555
C6A C10A 1_555 1_555
C7A C8A 1_555 1_555
C9A C10A 1_555 1_555
C11A C15A 1_555 1_555
C12A C13A 1_555 1_555
C14A C15A 1_555 1_555

#END
