
#######################################################################
#
#                 Cambridge Crystallographic Data Centre
#                                CCDC 
#
#######################################################################
#
# If this CIF has been generated from an entry in the Cambridge 
# Structural Database, then it will include bibliographic, chemical, 
# crystal, experimental, refinement or atomic coordinate data resulting 
# from the CCDC's data processing and validation procedures.
#
#######################################################################

data_DOWVOC31
_chemical_formula_moiety         'C10 H6 O6 S2 2-,C5 H6 N1 1+,C1 H6 N3 1+'
_chemical_name_systematic        
'guanidinium pyridinium naphthalene-1,5-disulfonate'
_symmetry_cell_setting           triclinic
_symmetry_space_group_name_H-M   'P -1'
_symmetry_Int_Tables_number      2
_space_group_name_Hall           '-P 1'
loop_
_symmetry_equiv_pos_site_id
_symmetry_equiv_pos_as_xyz
1 x,y,z
2 -x,-y,-z
_cell_length_a                   7.982(6)
_cell_length_b                   8.147(6)
_cell_length_c                   14.075(11)
_cell_angle_alpha                92.135(9)
_cell_angle_beta                 99.273(15)
_cell_angle_gamma                90.523(13)
_cell_volume                     902.594
_exptl_crystal_colour            colorless
_exptl_crystal_description       block
_cell_formula_units_Z            2
loop_
_atom_site_label
_atom_site_type_symbol
_atom_site_fract_x
_atom_site_fract_y
_atom_site_fract_z
C1 C 0.1775(3) 0.7825(3) 0.34871(18)
H1 H 0.2152 0.7406 0.4088
C2 C 0.2077(3) 0.7003(3) 0.26627(19)
H2 H 0.2693 0.6037 0.2700
C3 C 0.1460(3) 0.7622(3) 0.17851(18)
H3 H 0.1653 0.7071 0.1223
C4 C 0.0551(3) 0.9062(3) 0.17314(19)
H4 H 0.0107 0.9473 0.1137
C5 C 0.0318(3) 0.9868(3) 0.2567(2)
H5 H -0.0266 1.0852 0.2547
N1 N 0.0931(3) 0.9239(3) 0.34128(15)
H6 H 0.0777 0.9764 0.3932
C6 C 0.4027(3) 0.1277(3) 0.09067(16)
C7 C 0.4648(3) 0.0528(3) 0.17456(16)
H7 H 0.4353 0.0920 0.2325
C8 C 0.5728(3) -0.0830(3) 0.17371(17)
H8 H 0.6146 -0.1325 0.2310
C9 C 0.3834(3) 0.1426(3) -0.08855(16)
H9 H 0.3121 0.2323 -0.0890
C10 C 0.4451(3) 0.0696(3) -0.00011(16)
O1 O 0.3604(2) 0.44116(19) 0.06714(11)
O2 O 0.1086(2) 0.2628(2) 0.03409(12)
O3 O 0.2478(2) 0.31812(19) 0.19877(11)
S1 S 0.26839(7) 0.30034(7) 0.09791(4)
C6A C 0.5973(3) -0.1277(3) -0.09067(16)
C7A C 0.5352(3) -0.0528(3) -0.17456(16)
H7A H 0.5647 -0.0920 -0.2325
C8A C 0.4272(3) 0.0830(3) -0.17371(17)
H8A H 0.3854 0.1325 -0.2310
C9A C 0.6166(3) -0.1426(3) 0.08855(16)
H9A H 0.6879 -0.2323 0.0890
C10A C 0.5549(3) -0.0696(3) 0.00011(16)
O1A O 0.6396(2) -0.44116(19) -0.06714(11)
O2A O 0.8914(2) -0.2628(2) -0.03409(12)
O3A O 0.7522(2) -0.31812(19) -0.19877(11)
S1A S 0.73161(7) -0.30034(7) -0.09791(4)
C11 C 0.3865(3) 0.2011(3) 0.47968(15)
C12 C 0.4883(3) 0.2796(3) 0.42522(16)
H10 H 0.4617 0.3847 0.4045
C13 C 0.6334(3) 0.2012(3) 0.40060(16)
H11 H 0.7032 0.2564 0.3651
C14 C 0.3277(3) -0.0467(3) 0.57204(15)
H12 H 0.2344 0.0042 0.5915
C15 C 0.4272(3) 0.0395(3) 0.51385(15)
O4 O 0.1852(2) 0.44925(19) 0.44831(12)
O5 O 0.2195(2) 0.3328(2) 0.60763(11)
O6 O 0.05831(19) 0.18268(19) 0.47009(11)
S2 S 0.19747(7) 0.30207(7) 0.50298(4)
C11A C 0.6135(3) -0.2011(3) 0.52032(15)
C12A C 0.5117(3) -0.2796(3) 0.57478(16)
H10A H 0.5383 -0.3847 0.5955
C13A C 0.3666(3) -0.2012(3) 0.59940(16)
H11A H 0.2968 -0.2564 0.6349
C14A C 0.6723(3) 0.0467(3) 0.42796(15)
H12A H 0.7656 -0.0042 0.4085
C15A C 0.5728(3) -0.0395(3) 0.48615(15)
O4A O 0.8148(2) -0.44925(19) 0.55169(12)
O5A O 0.7805(2) -0.3328(2) 0.39237(11)
O6A O 0.94169(19) -0.18268(19) 0.52991(11)
S2A S 0.80253(7) -0.30207(7) 0.49702(4)
C16 C 0.2029(3) 0.5683(3) 0.80746(16)
N2 N 0.0703(2) 0.5893(2) 0.73895(14)
H13 H 0.0744 0.5570 0.6805
H14 H -0.0196 0.6352 0.7531
N3 N 0.3415(2) 0.4974(2) 0.78534(14)
H15 H 0.4286 0.4862 0.8292
H16 H 0.3441 0.4626 0.7272
N4 N 0.1989(3) 0.6220(2) 0.89734(14)
H17 H 0.2861 0.6109 0.9412
H18 H 0.1092 0.6680 0.9117
loop_
_geom_bond_atom_site_label_1
_geom_bond_atom_site_label_2
_geom_bond_site_symmetry_1
_geom_bond_site_symmetry_2
C1 H1 1_555 1_555
C2 C1 1_555 1_555
H2 C2 1_555 1_555
C3 C2 1_555 1_555
H3 C3 1_555 1_555
C4 C3 1_555 1_555
H4 C4 1_555 1_555
C5 C4 1_555 1_555
H5 C5 1_555 1_555
N1 C1 1_555 1_555
H6 N1 1_555 1_555
C6 C7 1_555 1_555
C7 H7 1_555 1_555
C8 C7 1_555 1_555
H8 C8 1_555 1_555
C9 H9 1_555 1_555
C10 C6 1_555 1_555
O1 S1 1_555 1_555
O2 S1 1_555 1_555
O3 S1 1_555 1_555
S1 C6 1_555 1_555
C11 C12 1_555 1_555
C12 H10 1_555 1_555
C13 C12 1_555 1_555
H11 C13 1_555 1_555
C14 H12 1_555 1_555
C15 C11 1_555 1_555
O4 S2 1_555 1_555
O5 S2 1_555 1_555
O6 S2 1_555 1_555
S2 C11 1_555 1_555
C16 N2 1_555 1_555
N2 H13 1_555 1_555
H14 N2 1_555 1_555
N3 C16 1_555 1_555
H15 N3 1_555 1_555
H16 N3 1_555 1_555
N4 C16 1_555 1_555
H17 N4 1_555 1_555
H18 N4 1_555 1_555
C6A C7A 1_555 1_555
C7A H7A 1_555 1_555
C8A C9 1_555 1_555
H8A C8A 1_555 1_555
C9A C8 1_555 1_555
H9A C9A 1_555 1_555
C10A C10 1_555 1_555
O1A S1A 1_555 1_555
O2A S1A 1_555 1_555
O3A S1A 1_555 1_555
S1A C6A 1_555 1_555
C11A C12A 1_555 1_555
C12A H10A 1_555 1_555
C13A C14 1_555 1_555
H11A C13A 1_555 1_555
C14A C13 1_555 1_555
H12A C14A 1_555 1_555
C15A C15 1_555 1_555
O4A S2A 1_555 1_555
O5A S2A 1_555 1_555
O6A S2A 1_555 1_555
S2A C11A 1_555 1_555
C5 N1 1_555 1_555
C9 C10 1_555 1_555
C14 C15 1_555 1_555
C6A C10A 1_555 1_555
C7A C8A 1_555 1_555
C9A C10A 1_555 1_555
C11A C15A 1_555 1_555
C12A C13A 1_555 1_555
C14A C15A 1_555 1_555

#END
