
#######################################################################
#
#                 Cambridge Crystallographic Data Centre
#                                CCDC 
#
#######################################################################
#
# If this CIF has been generated from an entry in the Cambridge 
# Structural Database, then it will include bibliographic, chemical, 
# crystal, experimental, refinement or atomic coordinate data resulting 
# from the CCDC's data processing and validation procedures.
#
#######################################################################

data_DOWWAP
_chemical_formula_moiety         'C10 H6 O6 S2 2-,C5 H9 N2 1+,C1 H6 N3 1+,H2 O1'
_chemical_name_systematic        
'guanidinium 2-ethyl-1H-imidazol-3-ium naphthalene-1,5-disulfonate monohydrate'
_symmetry_cell_setting           orthorhombic
_symmetry_space_group_name_H-M   'P n m a'
_symmetry_Int_Tables_number      62
_space_group_name_Hall           '-P 2ac 2n'
loop_
_symmetry_equiv_pos_site_id
_symmetry_equiv_pos_as_xyz
1 x,y,z
2 1/2-x,-y,1/2+z
3 1/2+x,1/2-y,1/2-z
4 -x,1/2+y,-z
5 -x,-y,-z
6 1/2+x,y,1/2-z
7 1/2-x,1/2+y,1/2+z
8 x,1/2-y,z
_cell_length_a                   18.712(4)
_cell_length_b                   13.224(3)
_cell_length_c                   8.1214(16)
_cell_angle_alpha                90
_cell_angle_beta                 90
_cell_angle_gamma                90
_cell_volume                     2009.62
_exptl_crystal_colour            colorless
_exptl_crystal_description       block
_cell_formula_units_Z            4
loop_
_atom_site_label
_atom_site_type_symbol
_atom_site_fract_x
_atom_site_fract_y
_atom_site_fract_z
N1 N -0.01463(14) 0.7500 0.3060(3)
H1 H -0.0583 0.7500 0.2599
N2 N 0.09644(15) 0.7500 0.3335(5)
H2 H 0.1435 0.7500 0.3103
C1 C 0.0683(2) 0.7500 0.4867(5)
H3 H 0.0936 0.7500 0.5853
C2 C -0.0014(2) 0.7500 0.4704(4)
H4 H -0.0351 0.7500 0.5547
C3 C 0.04541(18) 0.7500 0.2240(4)
C4 C 0.0561(3) 0.7500 0.0431(5)
H5 H 0.0835 0.6914 0.0140
C5 C -0.0103(3) 0.7500 -0.0515(5)
H6 H 0.0002 0.7500 -0.1672
H7 H -0.0372 0.6907 -0.0251
H5G H 0.0835 0.8086 0.0140
H7G H -0.0372 0.8093 -0.0251
N3 N 0.72073(11) 0.33560(16) 0.4136(3)
H8 H 0.7352 0.3943 0.3686
H9 H 0.6915 0.3360 0.5016
N4 N 0.78422(17) 0.2500 0.2224(4)
H10 H 0.7987 0.1911 0.1783
C6 C 0.74193(15) 0.2500 0.3500(4)
N3G N 0.72073(11) 0.16440(16) 0.4136(3)
H8G H 0.7352 0.1057 0.3686
H9G H 0.6915 0.1640 0.5016
H10G H 0.7987 0.3089 0.1783
S1 S 0.84837(3) 0.52983(4) 0.27188(7)
O1 O 0.87017(10) 0.62153(14) 0.1913(2)
O2 O 0.77669(9) 0.53622(14) 0.3353(2)
O3 O 0.85912(10) 0.44204(16) 0.1717(2)
C7 C 1.08493(14) 0.4911(2) 0.2624(3)
H11 H 1.1067 0.4900 0.1594
C8 C 1.01333(13) 0.50201(18) 0.2735(3)
H12 H 0.9862 0.5077 0.1779
C9 C 0.97930(11) 0.50475(15) 0.4273(2)
C10 C 0.90460(11) 0.51698(15) 0.4459(3)
C11 C 0.87369(12) 0.51837(18) 0.5967(3)
H13 H 0.8244 0.5257 0.6058
S1D S 1.15163(3) 0.47017(4) 0.72812(7)
O1D O 1.12983(10) 0.37847(14) 0.8087(2)
O2D O 1.22331(9) 0.46378(14) 0.6647(2)
O3D O 1.14088(10) 0.55796(16) 0.8283(2)
C7D C 0.91507(14) 0.5089(2) 0.7376(3)
H11D H 0.8933 0.5100 0.8406
C8D C 0.98667(13) 0.49799(18) 0.7265(3)
H12D H 1.0138 0.4923 0.8221
C9D C 1.02070(11) 0.49525(15) 0.5727(2)
C10D C 1.09540(11) 0.48302(15) 0.5541(3)
C11D C 1.12631(12) 0.48163(18) 0.4033(3)
H13D H 1.1756 0.4743 0.3942
O4 O 0.27384(15) 0.2500 0.6924(5)
H14 H 0.2536 0.3035 0.6761
H14G H 0.2536 0.1965 0.6761
H15? H 0.7990 0.1911 0.1777
loop_
_geom_bond_atom_site_label_1
_geom_bond_atom_site_label_2
_geom_bond_site_symmetry_1
_geom_bond_site_symmetry_2
N1 H1 1_555 1_555
N2 H2 1_555 1_555
C1 N2 1_555 1_555
H3 C1 1_555 1_555
C2 N1 1_555 1_555
H4 C2 1_555 1_555
C3 N1 1_555 1_555
C4 C3 1_555 1_555
H5 C4 1_555 1_555
C5 C4 1_555 1_555
H6 C5 1_555 1_555
H7 C5 1_555 1_555
N3 H8 1_555 1_555
H9 N3 1_555 1_555
N4 H10 1_555 1_555
C6 N3 1_555 1_555
S1 O1 1_555 1_555
O2 S1 1_555 1_555
O3 S1 1_555 1_555
C7 H11 1_555 1_555
C8 C7 1_555 1_555
H12 C8 1_555 1_555
C9 C8 1_555 1_555
C10 S1 1_555 1_555
C11 C10 1_555 1_555
H13 C11 1_555 1_555
O4 H14 1_555 1_555
H5G C4 1_555 1_555
H7G C5 1_555 1_555
N3G C6 1_555 1_555
H8G N3G 1_555 1_555
H9G N3G 1_555 1_555
H10G N4 1_555 1_555
S1D O1D 1_555 1_555
O2D S1D 1_555 1_555
O3D S1D 1_555 1_555
C7D C11 1_555 1_555
H11D C7D 1_555 1_555
C8D C7D 1_555 1_555
H12D C8D 1_555 1_555
C9D C9 1_555 1_555
C10D S1D 1_555 1_555
C11D C7 1_555 1_555
H13D C11D 1_555 1_555
H14G O4 1_555 1_555
N2 C3 1_555 1_555
C1 C2 1_555 1_555
N4 C6 1_555 1_555
C9 C10 1_555 1_555
C8D C9D 1_555 1_555
C9D C10D 1_555 1_555
C10D C11D 1_555 1_555

#END
