
#######################################################################
#
#                 Cambridge Crystallographic Data Centre
#                                CCDC 
#
#######################################################################
#
# If this CIF has been generated from an entry in the Cambridge 
# Structural Database, then it will include bibliographic, chemical, 
# crystal, experimental, refinement or atomic coordinate data resulting 
# from the CCDC's data processing and validation procedures.
#
#######################################################################

data_DOWXIX
_chemical_formula_moiety         'C30 H26 N2 O4'
_chemical_name_systematic        
meso-5,11-bis(2-Oxo-3H-1,3-benzoxazol-3-yl)-1,2,3,6a,7,8,9,12a-octahydrodibenzo[a,e][8]annulene
_symmetry_cell_setting           monoclinic
_symmetry_space_group_name_H-M   'P 21/n'
_symmetry_Int_Tables_number      14
_space_group_name_Hall           '-P 2yn'
loop_
_symmetry_equiv_pos_site_id
_symmetry_equiv_pos_as_xyz
1 x,y,z
2 1/2-x,1/2+y,1/2-z
3 -x,-y,-z
4 1/2+x,1/2-y,1/2+z
_cell_length_a                   13.1597(2)
_cell_length_b                   11.27520(10)
_cell_length_c                   16.5837(2)
_cell_angle_alpha                90
_cell_angle_beta                 105.0870(10)
_cell_angle_gamma                90
_cell_volume                     2375.85
_exptl_crystal_colour            colorless
_exptl_crystal_description       cubic
_cell_formula_units_Z            4
loop_
_atom_site_label
_atom_site_type_symbol
_atom_site_fract_x
_atom_site_fract_y
_atom_site_fract_z
C1 C 0.83156(16) 0.33859(17) 0.17568(12)
C2 C 0.81332(15) 0.29093(16) 0.25441(12)
C3 C 0.88585(15) 0.29289(17) 0.32567(12)
H1 H 0.8728 0.2563 0.3722
C4 C 0.99027(15) 0.35374(16) 0.33324(12)
H2 H 0.9803 0.4137 0.2891
C5 C 1.07547(15) 0.26695(16) 0.32195(12)
C6 C 1.04684(16) 0.17550(16) 0.25589(12)
C7 C 0.97672(18) 0.17812(18) 0.18220(13)
H3 H 0.9721 0.1060 0.1543
C8 C 0.90286(19) 0.2695(2) 0.13280(14)
H4 H 0.8543 0.2242 0.0887
C9 C 0.9572(2) 0.3555(2) 0.08620(15)
H5 H 1.0045 0.4065 0.1260
H6 H 0.9986 0.3112 0.0559
C10 C 0.8773(2) 0.4303(3) 0.02590(16)
H7 H 0.8357 0.3793 -0.0174
H8 H 0.9142 0.4864 -0.0007
C11 C 0.8039(2) 0.4981(2) 0.06604(14)
H9 H 0.8330 0.5764 0.0816
H10 H 0.7367 0.5081 0.0253
C12 C 0.78594(17) 0.4380(2) 0.14240(13)
H11 H 0.7390 0.4737 0.1682
C13 C 1.02550(14) 0.41682(16) 0.41686(11)
H12 H 0.9766 0.4804 0.4190
H13 H 1.0245 0.3613 0.4613
C14 C 1.13513(15) 0.46764(18) 0.43064(13)
H14 H 1.1365 0.5229 0.3861
H15 H 1.1539 0.5106 0.4831
C15 C 1.21355(17) 0.3703(2) 0.43231(16)
H16 H 1.2776 0.4045 0.4238
H17 H 1.2309 0.3331 0.4869
C16 C 1.17373(17) 0.2775(2) 0.36704(14)
H18 H 1.2223 0.2229 0.3575
C17 C 0.55541(16) 0.21101(19) 0.27443(14)
C18 C 0.47283(17) 0.2164(2) 0.31081(16)
H19 H 0.4121 0.1716 0.2912
C19 C 0.48538(18) 0.2923(2) 0.37817(17)
H20 H 0.4317 0.2980 0.4050
C20 C 0.57582(19) 0.3605(2) 0.40725(16)
H21 H 0.5810 0.4106 0.4527
C21 C 0.65917(17) 0.35488(19) 0.36917(14)
H22 H 0.7196 0.4006 0.3876
C22 C 0.64652(15) 0.27796(17) 0.30306(13)
C23 C 0.65972(16) 0.16461(19) 0.19234(14)
C24 C 1.09248(15) -0.01671(15) 0.33452(12)
C25 C 1.01868(16) -0.02762(17) 0.37991(12)
H23 H 0.9658 0.0283 0.3765
C26 C 1.02781(19) -0.12720(18) 0.43114(13)
H24 H 0.9799 -0.1379 0.4630
C27 C 1.10638(19) -0.21053(18) 0.43584(13)
H25 H 1.1096 -0.2759 0.4706
C28 C 1.18047(17) -0.19916(17) 0.39008(14)
H26 H 1.2336 -0.2548 0.3932
C29 C 1.17046(16) -0.10081(17) 0.33995(13)
C30 C 1.19093(19) 0.03459(19) 0.24776(16)
N1 N 0.71046(13) 0.24736(15) 0.25060(10)
N2 N 1.10578(13) 0.06662(14) 0.27609(11)
O1 O 1.23120(13) -0.06937(13) 0.28705(11)
O2 O 1.22817(17) 0.08438(16) 0.19827(14)
O3 O 0.56347(12) 0.14246(13) 0.20767(10)
O4 O 0.69005(13) 0.11689(15) 0.13848(10)
loop_
_geom_bond_atom_site_label_1
_geom_bond_atom_site_label_2
_geom_bond_site_symmetry_1
_geom_bond_site_symmetry_2
C1 C2 1_555 1_555
C2 C3 1_555 1_555
C3 H1 1_555 1_555
C4 C3 1_555 1_555
H2 C4 1_555 1_555
C5 C4 1_555 1_555
C6 C5 1_555 1_555
C7 C6 1_555 1_555
H3 C7 1_555 1_555
C8 C1 1_555 1_555
H4 C8 1_555 1_555
C9 C8 1_555 1_555
H5 C9 1_555 1_555
H6 C9 1_555 1_555
C10 C9 1_555 1_555
H7 C10 1_555 1_555
H8 C10 1_555 1_555
C11 C10 1_555 1_555
H9 C11 1_555 1_555
H10 C11 1_555 1_555
C12 C1 1_555 1_555
H11 C12 1_555 1_555
C13 C4 1_555 1_555
H12 C13 1_555 1_555
H13 C13 1_555 1_555
C14 C13 1_555 1_555
H14 C14 1_555 1_555
H15 C14 1_555 1_555
C15 C14 1_555 1_555
H16 C15 1_555 1_555
H17 C15 1_555 1_555
C16 C5 1_555 1_555
H18 C16 1_555 1_555
C17 C18 1_555 1_555
C18 H19 1_555 1_555
C19 C18 1_555 1_555
H20 C19 1_555 1_555
C20 C19 1_555 1_555
H21 C20 1_555 1_555
C21 C20 1_555 1_555
H22 C21 1_555 1_555
C22 C17 1_555 1_555
C23 N1 1_555 1_555
C24 C25 1_555 1_555
C25 H23 1_555 1_555
C26 C25 1_555 1_555
H24 C26 1_555 1_555
C27 C26 1_555 1_555
H25 C27 1_555 1_555
C28 C27 1_555 1_555
H26 C28 1_555 1_555
C29 C24 1_555 1_555
C30 N2 1_555 1_555
N1 C2 1_555 1_555
N2 C6 1_555 1_555
O1 C29 1_555 1_555
O2 C30 1_555 1_555
O3 C17 1_555 1_555
O4 C23 1_555 1_555
C7 C8 1_555 1_555
C11 C12 1_555 1_555
C15 C16 1_555 1_555
C21 C22 1_555 1_555
C22 N1 1_555 1_555
C23 O3 1_555 1_555
C24 N2 1_555 1_555
C28 C29 1_555 1_555
C30 O1 1_555 1_555

#END
