
#######################################################################
#
#                 Cambridge Crystallographic Data Centre
#                                CCDC 
#
#######################################################################
#
# If this CIF has been generated from an entry in the Cambridge 
# Structural Database, then it will include bibliographic, chemical, 
# crystal, experimental, refinement or atomic coordinate data resulting 
# from the CCDC's data processing and validation procedures.
#
#######################################################################

data_DOWXOD
_chemical_formula_moiety         'C24 H30 N2 O6 S2 2-,2(C8 H15 N2 1+),H2 O1'
_chemical_name_systematic        
"bis(1-n-Butyl-3-methylimidazolium) 4,4'-(butane-2,3-diylidenedinitrilo)-bis(3,5-diethylbenzenesulfonate) monohydrate"
_symmetry_cell_setting           monoclinic
_symmetry_space_group_name_H-M   'C 2/c'
_symmetry_Int_Tables_number      15
_space_group_name_Hall           '-C 2yn'
loop_
_symmetry_equiv_pos_site_id
_symmetry_equiv_pos_as_xyz
1 x,y,z
2 -x,y,1/2-z
3 1/2+x,1/2+y,z
4 1/2-x,1/2+y,1/2-z
5 -x,-y,-z
6 x,-y,1/2+z
7 1/2-x,1/2-y,-z
8 1/2+x,1/2-y,1/2+z
_cell_length_a                   37.283(9)
_cell_length_b                   8.728(2)
_cell_length_c                   13.581(3)
_cell_angle_alpha                90
_cell_angle_beta                 96.463(4)
_cell_angle_gamma                90
_cell_volume                     4391.25
_exptl_crystal_colour            colorless
_exptl_crystal_description       prism
_cell_formula_units_Z            4
_exptl_crystal_recrystallization_method isopropanol
loop_
_atom_site_label
_atom_site_type_symbol
_atom_site_fract_x
_atom_site_fract_y
_atom_site_fract_z
S1 S 0.927010(18) 0.90731(9) 0.80722(5)
O1 O 0.91995(5) 0.8994(2) 0.90974(14)
O2 O 0.93568(7) 1.0614(3) 0.77691(19)
O3 O 0.95321(6) 0.7932(3) 0.78474(16)
N1 N 0.79233(6) 0.7069(3) 0.56131(16)
C1 C 0.82328(7) 0.7679(3) 0.6198(2)
C2 C 0.82710(7) 0.7380(3) 0.7213(2)
C3 C 0.85889(7) 0.7843(3) 0.7779(2)
H3 H 0.8619 0.7653 0.8472
C4 C 0.88607(7) 0.8577(3) 0.7344(2)
C5 C 0.88154(7) 0.8873(3) 0.6332(2)
H4 H 0.9001 0.9390 0.6040
C6 C 0.85044(7) 0.8431(3) 0.5737(2)
C7 C 0.76524(7) 0.7902(3) 0.5303(2)
C8 C 0.76109(8) 0.9593(3) 0.5485(2)
H5 H 0.7822 0.9968 0.5911
H6 H 0.7590 1.0141 0.4852
H7 H 0.7393 0.9768 0.5812
C9 C 0.79729(7) 0.6641(4) 0.7709(2)
H8 H 0.7850 0.5864 0.7259
H9 H 0.8079 0.6110 0.8318
C10 C 0.76955(9) 0.7815(4) 0.7980(3)
H10 H 0.7573 0.8268 0.7374
H11 H 0.7518 0.7306 0.8349
H12 H 0.7818 0.8622 0.8392
C11 C 0.84660(8) 0.8732(4) 0.4634(2)
H13 H 0.8221 0.9130 0.4424
H14 H 0.8641 0.9531 0.4490
C12 C 0.85289(11) 0.7301(5) 0.4033(2)
H15 H 0.8362 0.6493 0.4190
H16 H 0.8488 0.7541 0.3325
H17 H 0.8778 0.6947 0.4200
S1F S 0.572990(18) 0.59269(9) 0.19278(5)
O1F O 0.58005(5) 0.6006(2) 0.09026(14)
O2F O 0.56432(7) 0.4386(3) 0.22309(19)
O3F O 0.54679(6) 0.7068(3) 0.21526(16)
N1F N 0.70767(6) 0.7931(3) 0.43869(16)
C1F C 0.67672(7) 0.7321(3) 0.3802(2)
C2F C 0.67290(7) 0.7620(3) 0.2787(2)
C3F C 0.64111(7) 0.7157(3) 0.2221(2)
H3F H 0.6381 0.7347 0.1528
C4F C 0.61393(7) 0.6423(3) 0.2656(2)
C5F C 0.61846(7) 0.6127(3) 0.3668(2)
H4F H 0.5999 0.5610 0.3960
C6F C 0.64956(7) 0.6569(3) 0.4263(2)
C7F C 0.73476(7) 0.7098(3) 0.4697(2)
C8F C 0.73891(8) 0.5407(3) 0.4515(2)
H5F H 0.7178 0.5032 0.4089
H6F H 0.7410 0.4859 0.5148
H7F H 0.7607 0.5232 0.4188
C9F C 0.70271(7) 0.8359(4) 0.2291(2)
H8F H 0.7150 0.9136 0.2741
H9F H 0.6921 0.8890 0.1682
C10F C 0.73045(9) 0.7185(4) 0.2020(3)
H10F H 0.7427 0.6732 0.2626
H11F H 0.7482 0.7694 0.1651
H12F H 0.7182 0.6378 0.1608
C11F C 0.65340(8) 0.6268(4) 0.5366(2)
H13F H 0.6779 0.5870 0.5576
H14F H 0.6359 0.5469 0.5510
C12F C 0.64711(11) 0.7699(5) 0.5967(2)
H15F H 0.6638 0.8507 0.5810
H16F H 0.6512 0.7459 0.6675
H17F H 0.6222 0.8053 0.5800
O4 O 0.5000 0.3023(5) 0.2500
H1 H 0.484(3) 0.356(14) 0.280(10)
H1A H 0.516(3) 0.356(14) 0.220(10)
N2 N 0.53592(7) -0.1892(3) 0.47685(19)
N3 N 0.55678(7) 0.0291(3) 0.4369(2)
C13 C 0.54627(8) -0.1085(3) 0.4035(2)
H18 H 0.5462 -0.1430 0.3371
C14 C 0.53976(9) -0.0999(4) 0.5608(2)
H19 H 0.5343 -0.1292 0.6248
C15 C 0.55259(9) 0.0357(4) 0.5356(3)
H20 H 0.5578 0.1209 0.5783
C16 C 0.52210(10) -0.3464(4) 0.4670(3)
H21 H 0.5192 -0.3759 0.3970
H22 H 0.4987 -0.3522 0.4932
H23 H 0.5392 -0.4162 0.5044
C17 C 0.56915(11) 0.1553(5) 0.3757(3)
H24 H 0.5662 0.2536 0.4104
H25 H 0.5533 0.1588 0.3121
C18 C 0.60800(12) 0.1418(6) 0.3538(3)
H26 H 0.6120 0.0374 0.3287
H27 H 0.6121 0.2153 0.3006
C19 C 0.63466(11) 0.1715(5) 0.4404(3)
H28 H 0.6336 0.0871 0.4886
H29 H 0.6281 0.2674 0.4728
C20 C 0.67358(10) 0.1858(5) 0.4139(3)
H30 H 0.6812 0.0879 0.3876
H31 H 0.6897 0.2124 0.4735
H32 H 0.6747 0.2660 0.3639
H2? H 0.521(3) 0.357(13) 0.251(9)
loop_
_geom_bond_atom_site_label_1
_geom_bond_atom_site_label_2
_geom_bond_site_symmetry_1
_geom_bond_site_symmetry_2
S1 O1 1_555 1_555
O2 S1 1_555 1_555
O3 S1 1_555 1_555
O4 H1 1_555 1_555
N1 C1 1_555 1_555
N2 C13 1_555 1_555
N3 C13 1_555 1_555
C1 C2 1_555 1_555
C2 C3 1_555 1_555
C3 H3 1_555 1_555
C4 S1 1_555 1_555
C5 C4 1_555 1_555
H4 C5 1_555 1_555
C6 C1 1_555 1_555
C7 N1 1_555 1_555
C8 C7 1_555 1_555
H5 C8 1_555 1_555
H6 C8 1_555 1_555
H7 C8 1_555 1_555
C9 C2 1_555 1_555
H8 C9 1_555 1_555
H9 C9 1_555 1_555
C10 C9 1_555 1_555
H10 C10 1_555 1_555
H11 C10 1_555 1_555
H12 C10 1_555 1_555
C11 C6 1_555 1_555
H13 C11 1_555 1_555
H14 C11 1_555 1_555
C12 C11 1_555 1_555
H15 C12 1_555 1_555
H16 C12 1_555 1_555
H17 C12 1_555 1_555
C13 H18 1_555 1_555
C14 N2 1_555 1_555
H19 C14 1_555 1_555
C15 N3 1_555 1_555
H20 C15 1_555 1_555
C16 N2 1_555 1_555
H21 C16 1_555 1_555
H22 C16 1_555 1_555
H23 C16 1_555 1_555
C17 N3 1_555 1_555
H24 C17 1_555 1_555
H25 C17 1_555 1_555
C18 C17 1_555 1_555
H26 C18 1_555 1_555
H27 C18 1_555 1_555
C19 C18 1_555 1_555
H28 C19 1_555 1_555
H29 C19 1_555 1_555
C20 C19 1_555 1_555
H30 C20 1_555 1_555
H31 C20 1_555 1_555
H32 C20 1_555 1_555
S1F O1F 1_555 1_555
O2F S1F 1_555 1_555
O3F S1F 1_555 1_555
H1A O4 1_555 1_555
N1F C1F 1_555 1_555
C1F C2F 1_555 1_555
C2F C3F 1_555 1_555
C3F H3F 1_555 1_555
C4F S1F 1_555 1_555
C5F C4F 1_555 1_555
H4F C5F 1_555 1_555
C6F C1F 1_555 1_555
C7F C7 1_555 1_555
C8F C7F 1_555 1_555
H5F C8F 1_555 1_555
H6F C8F 1_555 1_555
H7F C8F 1_555 1_555
C9F C2F 1_555 1_555
H8F C9F 1_555 1_555
H9F C9F 1_555 1_555
C10F C9F 1_555 1_555
H10F C10F 1_555 1_555
H11F C10F 1_555 1_555
H12F C10F 1_555 1_555
C11F C6F 1_555 1_555
H13F C11F 1_555 1_555
H14F C11F 1_555 1_555
C12F C11F 1_555 1_555
H15F C12F 1_555 1_555
H16F C12F 1_555 1_555
H17F C12F 1_555 1_555
C3 C4 1_555 1_555
C5 C6 1_555 1_555
C14 C15 1_555 1_555
N1F C7F 1_555 1_555
C3F C4F 1_555 1_555
C5F C6F 1_555 1_555

#END
