
#######################################################################
#
#                 Cambridge Crystallographic Data Centre
#                                CCDC 
#
#######################################################################
#
# If this CIF has been generated from an entry in the Cambridge 
# Structural Database, then it will include bibliographic, chemical, 
# crystal, experimental, refinement or atomic coordinate data resulting 
# from the CCDC's data processing and validation procedures.
#
#######################################################################

data_DOXBUP
_chemical_formula_moiety         'C18 H17 N1 O1 S1,C1 H2 Cl2'
_chemical_name_systematic        
'1-(3-Thienyl)-2,3,3a,4,5,11-hexahydro-6H-benzo[c]cyclopenta[f]azocin-6-one dichloromethane solvate'
_symmetry_cell_setting           monoclinic
_symmetry_space_group_name_H-M   'P 21/c'
_symmetry_Int_Tables_number      14
_space_group_name_Hall           '-P 2ybc'
loop_
_symmetry_equiv_pos_site_id
_symmetry_equiv_pos_as_xyz
1 x,y,z
2 -x,1/2+y,1/2-z
3 -x,-y,-z
4 x,1/2-y,1/2+z
_cell_length_a                   9.4678(14)
_cell_length_b                   22.465(3)
_cell_length_c                   8.4857(14)
_cell_angle_alpha                90
_cell_angle_beta                 94.892(15)
_cell_angle_gamma                90
_cell_volume                     1798.28
_exptl_crystal_colour            colorless
_exptl_crystal_description       block
_cell_formula_units_Z            4
loop_
_atom_site_label
_atom_site_type_symbol
_atom_site_fract_x
_atom_site_fract_y
_atom_site_fract_z
Cl1 Cl 0.43611(15) 0.52014(6) -0.28413(18)
Cl2 Cl 0.44010(12) 0.64056(5) -0.15278(14)
C1 C 0.4661(5) 0.5641(2) -0.1115(5)
H1 H 0.4006 0.5514 -0.0330
H2 H 0.5643 0.5577 -0.0647
S1 S -0.11009(15) 0.94114(5) 0.14833(16)
O1 O 0.1813(3) 0.53130(11) 0.0346(3)
N1 N -0.0262(3) 0.56827(13) 0.1049(4)
H3 H -0.0712 0.5427 0.0401
C2 C 0.1952(3) 0.61829(15) 0.1957(4)
C3 C 0.3014(4) 0.59978(16) 0.3097(4)
H4 H 0.3188 0.5585 0.3260
C4 C 0.3815(4) 0.64116(17) 0.3992(4)
H5 H 0.4514 0.6284 0.4789
C5 C 0.3588(4) 0.70157(17) 0.3713(4)
H6 H 0.4138 0.7303 0.4316
C6 C 0.2555(3) 0.71984(15) 0.2553(4)
H7 H 0.2422 0.7612 0.2360
C7 C 0.1711(3) 0.67926(14) 0.1667(4)
C8 C 0.0606(3) 0.70158(15) 0.0397(4)
H8 H 0.0947 0.7392 -0.0047
H9 H 0.0502 0.6720 -0.0470
C9 C -0.0833(3) 0.71238(15) 0.1002(4)
C10 C -0.1821(3) 0.65954(15) 0.1174(4)
H10 H -0.2239 0.6474 0.0100
C11 C -0.1143(4) 0.60475(15) 0.2017(4)
H11 H -0.0551 0.6183 0.2967
H12 H -0.1907 0.5794 0.2380
C12 C 0.1143(4) 0.56976(15) 0.1047(4)
C13 C -0.2998(4) 0.68534(16) 0.2101(4)
H13 H -0.3932 0.6690 0.1701
H14 H -0.2826 0.6757 0.3239
C14 C -0.2951(3) 0.75272(17) 0.1841(4)
H15 H -0.3672 0.7651 0.0990
H16 H -0.3120 0.7744 0.2823
C15 C -0.1456(3) 0.76429(15) 0.1367(4)
C16 C -0.0971(4) 0.82650(15) 0.1312(4)
C17 C 0.0400(4) 0.84922(16) 0.1060(4)
H17 H 0.1179 0.8247 0.0849
C18 C 0.0484(3) 0.91675(14) 0.1163(3)
H18 H 0.1302 0.9404 0.1061
C19 C -0.1891(4) 0.87346(18) 0.1548(5)
H19 H -0.2860 0.8682 0.1727
loop_
_geom_bond_atom_site_label_1
_geom_bond_atom_site_label_2
_geom_bond_site_symmetry_1
_geom_bond_site_symmetry_2
Cl1 C1 1_555 1_555
Cl2 C1 1_555 1_555
C1 H1 1_555 1_555
H2 C1 1_555 1_555
S1 C18 1_555 1_555
O1 C12 1_555 1_555
N1 H3 1_555 1_555
C2 C3 1_555 1_555
C3 H4 1_555 1_555
C4 C3 1_555 1_555
H5 C4 1_555 1_555
C5 C4 1_555 1_555
H6 C5 1_555 1_555
C6 C5 1_555 1_555
H7 C6 1_555 1_555
C7 C2 1_555 1_555
C8 C7 1_555 1_555
H8 C8 1_555 1_555
H9 C8 1_555 1_555
C9 C8 1_555 1_555
C10 C9 1_555 1_555
H10 C10 1_555 1_555
C11 N1 1_555 1_555
H11 C11 1_555 1_555
H12 C11 1_555 1_555
C12 N1 1_555 1_555
C13 C10 1_555 1_555
H13 C13 1_555 1_555
H14 C13 1_555 1_555
C14 C13 1_555 1_555
H15 C14 1_555 1_555
H16 C14 1_555 1_555
C15 C9 1_555 1_555
C16 C15 1_555 1_555
C17 C16 1_555 1_555
H17 C17 1_555 1_555
C18 C17 1_555 1_555
H18 C18 1_555 1_555
C19 S1 1_555 1_555
H19 C19 1_555 1_555
C2 C12 1_555 1_555
C6 C7 1_555 1_555
C10 C11 1_555 1_555
C14 C15 1_555 1_555
C16 C19 1_555 1_555

#END
