
#######################################################################
#
#                 Cambridge Crystallographic Data Centre
#                                CCDC 
#
#######################################################################
#
# If this CIF has been generated from an entry in the Cambridge 
# Structural Database, then it will include bibliographic, chemical, 
# crystal, experimental, refinement or atomic coordinate data resulting 
# from the CCDC's data processing and validation procedures.
#
#######################################################################

data_DOXCUQ
_chemical_formula_moiety         'C13 H16 N2 2+,C7 H4 O6 S1 2-,H2 O1'
_chemical_name_systematic        
"4,4'-Methylenedianilinium 2-hydroxy-5-sulfonatobenzoate monohydrate"
_symmetry_cell_setting           monoclinic
_symmetry_space_group_name_H-M   'P 21/c'
_symmetry_Int_Tables_number      14
_space_group_name_Hall           '-P 2ybc'
loop_
_symmetry_equiv_pos_site_id
_symmetry_equiv_pos_as_xyz
1 x,y,z
2 -x,1/2+y,1/2-z
3 -x,-y,-z
4 x,1/2-y,1/2+z
_cell_length_a                   6.1214(12)
_cell_length_b                   17.328(3)
_cell_length_c                   19.009(4)
_cell_angle_alpha                90
_cell_angle_beta                 96.294(3)
_cell_angle_gamma                90
_cell_volume                     2004.16
_exptl_crystal_colour            colorless
_exptl_crystal_description       block
_cell_formula_units_Z            4
loop_
_atom_site_label
_atom_site_type_symbol
_atom_site_fract_x
_atom_site_fract_y
_atom_site_fract_z
S1 S 0.29772(11) 0.21781(3) 0.34393(3)
O1 O 0.4770(3) 0.31337(10) 0.05809(8)
H1 H 0.3720 0.3365 0.0375
O2 O -0.0793(3) 0.39677(10) 0.13926(9)
O3 O 0.0891(3) 0.37583(9) 0.04277(8)
O4 O 0.2039(3) 0.28327(9) 0.37750(9)
O5 O 0.1442(3) 0.15354(9) 0.33476(9)
O6 O 0.5081(3) 0.19301(10) 0.38076(9)
C1 C 0.2374(4) 0.31757(12) 0.15112(11)
C2 C 0.4316(4) 0.29419(13) 0.12426(12)
C3 C 0.5852(4) 0.24971(14) 0.16551(12)
H2 H 0.7145 0.2349 0.1477
C4 C 0.5472(4) 0.22753(13) 0.23243(12)
H3 H 0.6514 0.1981 0.2599
C5 C 0.3523(4) 0.24895(13) 0.25957(11)
C6 C 0.2011(4) 0.29430(12) 0.21904(11)
H4 H 0.0731 0.3095 0.2374
C7 C 0.0686(4) 0.36720(13) 0.10949(13)
N1 N -0.6146(4) 0.48592(14) 0.86768(12)
N2 N -0.1211(4) 0.24469(13) 0.46000(12)
C8 C -0.4975(4) 0.49752(12) 0.80493(12)
C9 C -0.3004(4) 0.46107(13) 0.80071(12)
H5 H -0.2385 0.4304 0.8378
C10 C -0.1952(4) 0.47047(13) 0.74068(13)
H6 H -0.0616 0.4458 0.7377
C11 C -0.2842(4) 0.51587(13) 0.68486(12)
C12 C -0.4823(4) 0.55185(14) 0.69048(12)
H7 H -0.5441 0.5826 0.6535
C13 C -0.5913(4) 0.54312(13) 0.75014(12)
H8 H -0.7253 0.5675 0.7532
C14 C -0.1647(5) 0.52523(13) 0.61942(13)
H9 H -0.0169 0.5437 0.6336
H10 H -0.2400 0.5638 0.5887
C15 C -0.1523(4) 0.45040(13) 0.57837(12)
C16 C -0.3387(4) 0.41983(14) 0.54066(12)
H11 H -0.4721 0.4453 0.5415
C17 C -0.3323(4) 0.35263(13) 0.50185(12)
H12 H -0.4589 0.3332 0.4764
C18 C -0.1341(4) 0.31503(13) 0.50167(11)
C19 C 0.0519(4) 0.34284(15) 0.53960(13)
H13 H 0.1842 0.3164 0.5396
C20 C 0.0428(4) 0.41072(15) 0.57812(12)
H14 H 0.1694 0.4295 0.6040
H15 H -0.071(4) 0.2046(15) 0.4872(13)
H16 H -0.252(5) 0.2285(15) 0.4370(14)
H17 H -0.009(5) 0.2537(16) 0.4257(16)
H18 H -0.716(4) 0.5254(16) 0.8722(13)
H19 H -0.508(5) 0.4825(15) 0.9084(16)
H20 H -0.708(5) 0.4411(18) 0.8588(14)
O7 O 0.2688(4) 0.52428(17) 0.01798(12)
H21 H 0.176(7) 0.559(3) -0.001(2)
H22 H 0.184(8) 0.484(2) 0.025(3)
loop_
_geom_bond_atom_site_label_1
_geom_bond_atom_site_label_2
_geom_bond_site_symmetry_1
_geom_bond_site_symmetry_2
S1 O4 1_555 1_555
O1 H1 1_555 1_555
O2 C7 1_555 1_555
O3 C7 1_555 1_555
O5 S1 1_555 1_555
O6 S1 1_555 1_555
C1 C2 1_555 1_555
C2 O1 1_555 1_555
C3 C2 1_555 1_555
H2 C3 1_555 1_555
C4 C3 1_555 1_555
H3 C4 1_555 1_555
C5 S1 1_555 1_555
C6 C1 1_555 1_555
H4 C6 1_555 1_555
C7 C1 1_555 1_555
N1 C8 1_555 1_555
N2 C18 1_555 1_555
C8 C9 1_555 1_555
C9 H5 1_555 1_555
C10 C9 1_555 1_555
H6 C10 1_555 1_555
C11 C10 1_555 1_555
C12 C11 1_555 1_555
H7 C12 1_555 1_555
C13 C8 1_555 1_555
H8 C13 1_555 1_555
C14 C11 1_555 1_555
H9 C14 1_555 1_555
H10 C14 1_555 1_555
C15 C14 1_555 1_555
C16 C15 1_555 1_555
H11 C16 1_555 1_555
C17 C16 1_555 1_555
H12 C17 1_555 1_555
C18 C17 1_555 1_555
C19 C18 1_555 1_555
H13 C19 1_555 1_555
C20 C15 1_555 1_555
H14 C20 1_555 1_555
H15 N2 1_555 1_555
H16 N2 1_555 1_555
H17 N2 1_555 1_555
H18 N1 1_555 1_555
H19 N1 1_555 1_555
H20 N1 1_555 1_555
O7 H21 1_555 1_555
H22 O7 1_555 1_555
C4 C5 1_555 1_555
C5 C6 1_555 1_555
C12 C13 1_555 1_555
C19 C20 1_555 1_555

#END
