
#######################################################################
#
#                 Cambridge Crystallographic Data Centre
#                                CCDC 
#
#######################################################################
#
# If this CIF has been generated from an entry in the Cambridge 
# Structural Database, then it will include bibliographic, chemical, 
# crystal, experimental, refinement or atomic coordinate data resulting 
# from the CCDC's data processing and validation procedures.
#
#######################################################################

data_DOXKEI
_chemical_compound_source        'fungus Aspergillus versicolor ZLN-60'
_chemical_name_common            'Psychrophilin E'
_chemical_formula_moiety         'C25 H24 N4 O4'
_chemical_name_systematic        
N-(2,10,16-trioxo-1,9,15-triazapentacyclo[17.6.1.0^3,8^.0^11,15^.0^20,25^]hexacosa-3,5,7,19(26),20,22,24-heptaen-17-yl)acetamide
_symmetry_cell_setting           orthorhombic
_symmetry_space_group_name_H-M   'P 21 21 21'
_symmetry_Int_Tables_number      19
_space_group_name_Hall           'P 2ac 2ab'
loop_
_symmetry_equiv_pos_site_id
_symmetry_equiv_pos_as_xyz
1 x,y,z
2 1/2-x,-y,1/2+z
3 1/2+x,1/2-y,-z
4 -x,1/2+y,1/2-z
_cell_length_a                   12.39610(10)
_cell_length_b                   12.96880(10)
_cell_length_c                   13.79570(10)
_cell_angle_alpha                90
_cell_angle_beta                 90
_cell_angle_gamma                90
_cell_volume                     2217.83
_chemical_melting_point          '190 deg.C'
_cell_formula_units_Z            4
loop_
_atom_site_label
_atom_site_type_symbol
_atom_site_fract_x
_atom_site_fract_y
_atom_site_fract_z
O1 O 0.07228(8) -0.11877(8) 0.76997(6)
O2 O 0.47297(8) 0.01301(8) 0.52193(7)
N1 N 0.33498(8) 0.05494(8) 0.62239(7)
O3 O 0.27636(9) -0.14385(11) 0.50421(7)
N2 N -0.06833(8) 0.04424(10) 0.82817(8)
H1 H -0.0436 0.0343 0.8856
N3 N 0.26530(8) -0.17605(8) 0.66448(8)
H2 H 0.2208 -0.1900 0.7105
N4 N 0.05443(8) -0.06464(9) 0.61530(7)
O4 O -0.21544(10) 0.06009(13) 0.73540(10)
C1 C 0.27669(9) 0.04667(9) 0.70923(8)
H3 H 0.2922 0.0003 0.7587
C2 C 0.44745(9) -0.09552(10) 0.65856(9)
C3 C 0.37681(10) -0.17255(10) 0.68952(9)
C4 C 0.00739(10) 0.05377(11) 0.74816(9)
H4 H -0.0273 0.0910 0.6948
C5 C 0.04483(9) -0.05175(11) 0.71189(8)
C6 C 0.32041(11) 0.17933(11) 0.48035(10)
H5 H 0.3783 0.1533 0.4452
C7 C 0.20222(10) 0.17487(9) 0.62244(9)
C8 C 0.19521(10) 0.11519(9) 0.71089(9)
C9 C -0.17469(11) 0.05038(11) 0.81559(11)
C10 C 0.55459(11) -0.09710(12) 0.69038(11)
H6 H 0.6028 -0.0475 0.6681
C11 C 0.00863(11) 0.00255(12) 0.53866(9)
H7 H 0.0358 0.0724 0.5441
H8 H -0.0695 0.0039 0.5418
C12 C 0.41943(9) -0.00745(9) 0.59366(9)
C13 C 0.10615(11) 0.11627(12) 0.78407(9)
H9 H 0.0845 0.1869 0.7965
H10 H 0.1320 0.0871 0.8445
C14 C 0.41367(13) -0.24893(11) 0.75151(11)
H11 H 0.3677 -0.3019 0.7705
C15 C 0.22255(10) -0.15963(10) 0.57594(9)
C16 C 0.17265(15) 0.30036(12) 0.49921(13)
H12 H 0.1336 0.3555 0.4741
C17 C 0.09791(11) -0.16169(11) 0.57420(10)
H13 H 0.0708 -0.2212 0.6105
C18 C 0.04717(14) -0.04807(17) 0.44594(10)
H14 H -0.0033 -0.0360 0.3934
H15 H 0.1176 -0.0222 0.4272
C19 C 0.14222(12) 0.25818(11) 0.58652(12)
H16 H 0.0836 0.2842 0.6207
C20 C 0.28921(10) 0.13679(9) 0.56873(9)
C21 C 0.51856(15) -0.24633(13) 0.78504(13)
H17 H 0.5416 -0.2960 0.8290
C22 C -0.24107(14) 0.04675(14) 0.90669(14)
H18 H -0.2879 0.1057 0.9090
H19 H -0.1942 0.0474 0.9621
H20 H -0.2836 -0.0151 0.9072
C23 C 0.58939(13) -0.17170(13) 0.75454(13)
H21 H 0.6602 -0.1714 0.7769
C24 C 0.26054(14) 0.26239(13) 0.44768(12)
H22 H 0.2796 0.2938 0.3895
C25 C 0.05257(14) -0.16157(16) 0.47140(12)
H23 H 0.0999 -0.1984 0.4273
H24 H -0.0185 -0.1928 0.4695
loop_
_geom_bond_atom_site_label_1
_geom_bond_atom_site_label_2
_geom_bond_site_symmetry_1
_geom_bond_site_symmetry_2
O1 C5 1_555 1_555
O2 C12 1_555 1_555
N1 C1 1_555 1_555
O3 C15 1_555 1_555
N2 H1 1_555 1_555
N3 H2 1_555 1_555
N4 C5 1_555 1_555
O4 C9 1_555 1_555
C1 H3 1_555 1_555
C2 C3 1_555 1_555
C3 N3 1_555 1_555
C4 N2 1_555 1_555
H4 C4 1_555 1_555
C5 C4 1_555 1_555
C6 H5 1_555 1_555
C7 C8 1_555 1_555
C8 C1 1_555 1_555
C9 N2 1_555 1_555
C10 C2 1_555 1_555
H6 C10 1_555 1_555
C11 N4 1_555 1_555
H7 C11 1_555 1_555
H8 C11 1_555 1_555
C12 N1 1_555 1_555
C13 C4 1_555 1_555
H9 C13 1_555 1_555
H10 C13 1_555 1_555
C14 C3 1_555 1_555
H11 C14 1_555 1_555
C15 N3 1_555 1_555
C16 H12 1_555 1_555
C17 N4 1_555 1_555
H13 C17 1_555 1_555
C18 C11 1_555 1_555
H14 C18 1_555 1_555
H15 C18 1_555 1_555
C19 C7 1_555 1_555
H16 C19 1_555 1_555
C20 N1 1_555 1_555
C21 C14 1_555 1_555
H17 C21 1_555 1_555
C22 C9 1_555 1_555
H18 C22 1_555 1_555
H19 C22 1_555 1_555
H20 C22 1_555 1_555
C23 C10 1_555 1_555
H21 C23 1_555 1_555
C24 C6 1_555 1_555
H22 C24 1_555 1_555
C25 C17 1_555 1_555
H23 C25 1_555 1_555
H24 C25 1_555 1_555
C2 C12 1_555 1_555
C6 C20 1_555 1_555
C7 C20 1_555 1_555
C8 C13 1_555 1_555
C15 C17 1_555 1_555
C16 C19 1_555 1_555
C16 C24 1_555 1_555
C18 C25 1_555 1_555
C21 C23 1_555 1_555

#END
