
#######################################################################
#
#                 Cambridge Crystallographic Data Centre
#                                CCDC 
#
#######################################################################
#
# If this CIF has been generated from an entry in the Cambridge 
# Structural Database, then it will include bibliographic, chemical, 
# crystal, experimental, refinement or atomic coordinate data resulting 
# from the CCDC's data processing and validation procedures.
#
#######################################################################

data_DOXLUZ
_chemical_formula_moiety         'C11 H13 N3 2+,2(N1 O3 1-)'
_chemical_name_systematic        
'3-((pyridinium-4-ylmethyl)amino)pyridinium dinitrate'
_symmetry_cell_setting           monoclinic
_symmetry_space_group_name_H-M   'P 21/n'
_symmetry_Int_Tables_number      14
_space_group_name_Hall           '-P 2yn'
loop_
_symmetry_equiv_pos_site_id
_symmetry_equiv_pos_as_xyz
1 x,y,z
2 1/2-x,1/2+y,1/2-z
3 -x,-y,-z
4 1/2+x,1/2-y,1/2+z
_cell_length_a                   11.010(2)
_cell_length_b                   10.696(2)
_cell_length_c                   12.086(2)
_cell_angle_alpha                90
_cell_angle_beta                 104.74(3)
_cell_angle_gamma                90
_cell_volume                     1376.44
_exptl_crystal_colour            colorless
_exptl_crystal_description       prism
_cell_formula_units_Z            4
loop_
_atom_site_label
_atom_site_type_symbol
_atom_site_fract_x
_atom_site_fract_y
_atom_site_fract_z
O1 O 0.9284(2) -0.2775(2) 0.26830(18)
O2 O 0.9773(3) -0.4458(2) 0.3654(2)
O3 O 0.9899(2) -0.4403(2) 0.1919(2)
N1 N 0.9643(2) -0.3884(3) 0.2747(2)
O4 O 0.8236(3) 0.0053(2) 1.2483(2)
O5 O 0.9502(2) 0.0533(2) 1.1516(2)
O6 O 0.9850(3) 0.1180(3) 1.3225(3)
N2 N 0.9209(3) 0.0597(2) 1.2425(3)
N3 N 0.8057(2) -0.2448(2) 0.4404(2)
H1 H 0.834(3) -0.255(3) 0.381(2)
N4 N 0.7899(3) -0.4001(2) 0.6994(2)
H2 H 0.8629(17) -0.433(3) 0.716(3)
N5 N 0.7741(3) -0.1526(2) 1.0489(2)
H3 H 0.796(4) -0.106(3) 1.1081(19)
C1 C 0.8325(3) -0.3214(3) 0.5292(3)
H4 H 0.9003 -0.3758 0.5390
C2 C 0.7600(3) -0.3210(2) 0.6080(3)
C3 C 0.6586(3) -0.2401(3) 0.5865(3)
H5 H 0.6056 -0.2389 0.6354
C4 C 0.6359(3) -0.1622(3) 0.4941(3)
H6 H 0.5685 -0.1071 0.4817
C5 C 0.7100(3) -0.1641(3) 0.4203(3)
H7 H 0.6948 -0.1108 0.3574
C6 C 0.7166(4) -0.4150(3) 0.7806(3)
H8 H 0.7335 -0.4973 0.8148
H9 H 0.6286 -0.4127 0.7397
C7 C 0.6954(3) -0.2455(3) 1.0470(3)
H10 H 0.6534 -0.2530 1.1044
C8 C 0.6756(3) -0.3306(3) 0.9605(3)
H11 H 0.6197 -0.3962 0.9587
C9 C 0.7379(3) -0.3199(2) 0.8754(2)
C10 C 0.8206(3) -0.2218(3) 0.8810(3)
H12 H 0.8642 -0.2119 0.8250
C11 C 0.8373(3) -0.1395(3) 0.9700(3)
H13 H 0.8936 -0.0737 0.9752
loop_
_geom_bond_atom_site_label_1
_geom_bond_atom_site_label_2
_geom_bond_site_symmetry_1
_geom_bond_site_symmetry_2
O1 N1 1_555 1_555
O2 N1 1_555 1_555
O3 N1 1_555 1_555
O4 N2 1_555 1_555
O5 N2 1_555 1_555
O6 N2 1_555 1_555
N3 H1 1_555 1_555
N4 H2 1_555 1_555
N5 H3 1_555 1_555
C1 N3 1_555 1_555
H4 C1 1_555 1_555
C2 N4 1_555 1_555
C3 C2 1_555 1_555
H5 C3 1_555 1_555
C4 C3 1_555 1_555
H6 C4 1_555 1_555
C5 N3 1_555 1_555
H7 C5 1_555 1_555
C6 N4 1_555 1_555
H8 C6 1_555 1_555
H9 C6 1_555 1_555
C7 N5 1_555 1_555
H10 C7 1_555 1_555
C8 C7 1_555 1_555
H11 C8 1_555 1_555
C9 C6 1_555 1_555
C10 C9 1_555 1_555
H12 C10 1_555 1_555
C11 N5 1_555 1_555
H13 C11 1_555 1_555
C1 C2 1_555 1_555
C4 C5 1_555 1_555
C8 C9 1_555 1_555
C10 C11 1_555 1_555

#END
