
#######################################################################
#
#                 Cambridge Crystallographic Data Centre
#                                CCDC 
#
#######################################################################
#
# If this CIF has been generated from an entry in the Cambridge 
# Structural Database, then it will include bibliographic, chemical, 
# crystal, experimental, refinement or atomic coordinate data resulting 
# from the CCDC's data processing and validation procedures.
#
#######################################################################

data_DOXLEJ
_chemical_formula_moiety         'C11 H13 N3 2+,2(Cl1 O4 1-)'
_chemical_name_systematic        
'3-((pyridinium-4-ylmethyl)amino)pyridinium diperchlorate'
_symmetry_cell_setting           monoclinic
_symmetry_space_group_name_H-M   'C 2/c'
_symmetry_Int_Tables_number      15
_space_group_name_Hall           '-C 2yn'
loop_
_symmetry_equiv_pos_site_id
_symmetry_equiv_pos_as_xyz
1 x,y,z
2 -x,y,1/2-z
3 1/2+x,1/2+y,z
4 1/2-x,1/2+y,1/2-z
5 -x,-y,-z
6 x,-y,1/2+z
7 1/2-x,1/2-y,-z
8 1/2+x,1/2-y,1/2+z
_cell_length_a                   34.214(3)
_cell_length_b                   5.2584(4)
_cell_length_c                   18.2721(11)
_cell_angle_alpha                90
_cell_angle_beta                 111.427(6)
_cell_angle_gamma                90
_cell_volume                     3060.14
_exptl_crystal_colour            colorless
_exptl_crystal_description       prism
_cell_formula_units_Z            8
loop_
_atom_site_label
_atom_site_type_symbol
_atom_site_fract_x
_atom_site_fract_y
_atom_site_fract_z
Cl1 Cl 0.20377(3) 0.77925(17) 0.32290(5)
O1 O 0.21883(10) 0.9217(6) 0.27116(16)
O2 O 0.16102(10) 0.8434(7) 0.3075(2)
O3 O 0.20644(11) 0.5131(6) 0.30897(17)
O4 O 0.22852(10) 0.8354(6) 0.40310(16)
Cl2 Cl -0.04742(3) 1.1114(2) 0.10675(6)
O5 O -0.0144(2) 1.0356(17) 0.1688(3)
O6 O -0.0835(2) 1.0213(11) 0.1155(4)
O7 O -0.05141(19) 1.3786(8) 0.1036(3)
O8 O -0.04581(14) 1.0071(8) 0.0364(2)
N1 N 0.20915(11) 0.7493(7) 0.1058(2)
H1 H 0.2236(13) 0.837(8) 0.1461(18)
N2 N 0.13559(11) 0.2231(7) 0.0590(2)
H2 H 0.1195(13) 0.155(9) 0.0159(16)
N3 N 0.04706(13) 0.6650(8) 0.1870(3)
H3 H 0.0336(16) 0.785(8) 0.199(3)
C1 C 0.18563(11) 0.5607(7) 0.1164(2)
H4 H 0.1866 0.5205 0.1666
C2 C 0.15974(11) 0.4255(7) 0.0519(2)
C3 C 0.16009(12) 0.4951(8) -0.0218(2)
H5 H 0.1436 0.4057 -0.0663
C4 C 0.18440(13) 0.6935(9) -0.0292(2)
H6 H 0.1842 0.7404 -0.0784
C5 C 0.20894(13) 0.8215(8) 0.0366(3)
H7 H 0.2253 0.9580 0.0325
C6 C 0.12881(13) 0.1703(8) 0.1308(3)
H8 H 0.1557 0.1755 0.1740
H9 H 0.1181 -0.0016 0.1279
C7 C 0.07262(16) 0.5159(10) 0.2426(3)
H10 H 0.0724 0.5215 0.2934
C8 C 0.09903(14) 0.3551(9) 0.2250(3)
H11 H 0.1170 0.2506 0.2639
C9 C 0.09932(11) 0.3464(7) 0.1498(2)
C10 C 0.07142(13) 0.4997(9) 0.0935(3)
H12 H 0.0704 0.4950 0.0420
C11 C 0.04527(15) 0.6584(10) 0.1132(3)
H13 H 0.0263 0.7611 0.0752
loop_
_geom_bond_atom_site_label_1
_geom_bond_atom_site_label_2
_geom_bond_site_symmetry_1
_geom_bond_site_symmetry_2
Cl1 O1 1_555 1_555
O2 Cl1 1_555 1_555
O3 Cl1 1_555 1_555
O4 Cl1 1_555 1_555
Cl2 O5 1_555 1_555
O6 Cl2 1_555 1_555
O7 Cl2 1_555 1_555
O8 Cl2 1_555 1_555
N1 H1 1_555 1_555
N2 H2 1_555 1_555
N3 H3 1_555 1_555
C1 N1 1_555 1_555
H4 C1 1_555 1_555
C2 N2 1_555 1_555
C3 C2 1_555 1_555
H5 C3 1_555 1_555
C4 C3 1_555 1_555
H6 C4 1_555 1_555
C5 N1 1_555 1_555
H7 C5 1_555 1_555
C6 N2 1_555 1_555
H8 C6 1_555 1_555
H9 C6 1_555 1_555
C7 N3 1_555 1_555
H10 C7 1_555 1_555
C8 C7 1_555 1_555
H11 C8 1_555 1_555
C9 C6 1_555 1_555
C10 C9 1_555 1_555
H12 C10 1_555 1_555
C11 N3 1_555 1_555
H13 C11 1_555 1_555
C1 C2 1_555 1_555
C4 C5 1_555 1_555
C8 C9 1_555 1_555
C10 C11 1_555 1_555

#END
