
#######################################################################
#
#                 Cambridge Crystallographic Data Centre
#                                CCDC 
#
#######################################################################
#
# If this CIF has been generated from an entry in the Cambridge 
# Structural Database, then it will include bibliographic, chemical, 
# crystal, experimental, refinement or atomic coordinate data resulting 
# from the CCDC's data processing and validation procedures.
#
#######################################################################

data_DOXQIS
_chemical_formula_moiety         'C18 H16 Cl1 N1 O4'
_chemical_name_systematic        
1-(6-chloro-3-nitro-2-phenyl-3,4-dihydro-2H-chromen-4-yl)acetone
_symmetry_cell_setting           orthorhombic
_symmetry_space_group_name_H-M   'P b c a'
_symmetry_Int_Tables_number      61
_space_group_name_Hall           '-P 2ac 2ab'
loop_
_symmetry_equiv_pos_site_id
_symmetry_equiv_pos_as_xyz
1 x,y,z
2 1/2-x,-y,1/2+z
3 -x,1/2+y,1/2-z
4 1/2+x,1/2-y,-z
5 -x,-y,-z
6 1/2+x,y,1/2-z
7 x,1/2-y,1/2+z
8 1/2-x,1/2+y,z
_cell_length_a                   14.189(4)
_cell_length_b                   12.900(3)
_cell_length_c                   18.037(5)
_cell_angle_alpha                90
_cell_angle_beta                 90
_cell_angle_gamma                90
_cell_volume                     3301.46
_cell_formula_units_Z            8
loop_
_atom_site_label
_atom_site_type_symbol
_atom_site_fract_x
_atom_site_fract_y
_atom_site_fract_z
Cl1 Cl 1.16317(8) 0.98048(11) 0.40443(6)
N1 N 0.6724(3) 1.1011(2) 0.3744(2)
O1 O 0.75970(19) 0.89544(19) 0.40050(13)
O2 O 0.7129(2) 1.1172(2) 0.43251(19)
O3 O 0.5924(2) 1.1304(2) 0.36096(19)
O4 O 0.7612(2) 1.2162(2) 0.20999(15)
C1 C 0.8535(3) 0.9199(3) 0.39996(19)
C2 C 0.9117(3) 0.8630(3) 0.4456(2)
H1 H 0.8859 0.8108 0.4749
C3 C 1.0060(3) 0.8813(3) 0.4487(2)
H2 H 1.0447 0.8422 0.4795
C4 C 1.0432(3) 0.9602(3) 0.4046(2)
C5 C 0.9849(3) 1.0191(3) 0.3608(2)
H3 H 1.0107 1.0723 0.3326
C6 C 0.8886(3) 1.0014(3) 0.35755(19)
C7 C 0.8255(3) 1.0682(3) 0.30985(19)
H4 H 0.8314 1.1397 0.3277
C8 C 0.7220(3) 1.0375(3) 0.31664(19)
H5 H 0.6916 1.0509 0.2688
C9 C 0.7096(3) 0.9213(3) 0.3347(2)
H6 H 0.7363 0.8810 0.2937
C10 C 0.6090(3) 0.8870(3) 0.3460(2)
C11 C 0.5576(3) 0.8482(3) 0.2869(2)
H7 H 0.5849 0.8446 0.2401
C12 C 0.4655(3) 0.8147(3) 0.2974(3)
H8 H 0.4312 0.7880 0.2578
C13 C 0.4256(3) 0.8213(3) 0.3663(3)
H9 H 0.3641 0.7986 0.3735
C14 C 0.4755(4) 0.8610(4) 0.4246(3)
H10 H 0.4476 0.8663 0.4711
C15 C 0.5668(3) 0.8928(3) 0.4141(2)
H11 H 0.6007 0.9190 0.4541
C16 C 0.8552(3) 1.0672(3) 0.22847(18)
H12 H 0.9235 1.0703 0.2260
H13 H 0.8358 1.0019 0.2067
C17 C 0.8157(3) 1.1536(4) 0.1829(2)
C18 C 0.8477(3) 1.1591(4) 0.1045(2)
H14 H 0.8078 1.2059 0.0775
H15 H 0.8443 1.0914 0.0826
H16 H 0.9115 1.1836 0.1029
loop_
_geom_bond_atom_site_label_1
_geom_bond_atom_site_label_2
_geom_bond_site_symmetry_1
_geom_bond_site_symmetry_2
Cl1 C4 1_555 1_555
N1 O2 1_555 1_555
O1 C1 1_555 1_555
O3 N1 1_555 1_555
O4 C17 1_555 1_555
C1 C2 1_555 1_555
C2 H1 1_555 1_555
C3 C2 1_555 1_555
H2 C3 1_555 1_555
C4 C3 1_555 1_555
C5 C4 1_555 1_555
H3 C5 1_555 1_555
C6 C1 1_555 1_555
C7 C6 1_555 1_555
H4 C7 1_555 1_555
C8 N1 1_555 1_555
H5 C8 1_555 1_555
C9 O1 1_555 1_555
H6 C9 1_555 1_555
C10 C9 1_555 1_555
C11 C10 1_555 1_555
H7 C11 1_555 1_555
C12 C11 1_555 1_555
H8 C12 1_555 1_555
C13 C12 1_555 1_555
H9 C13 1_555 1_555
C14 C13 1_555 1_555
H10 C14 1_555 1_555
C15 C10 1_555 1_555
H11 C15 1_555 1_555
C16 C7 1_555 1_555
H12 C16 1_555 1_555
H13 C16 1_555 1_555
C17 C16 1_555 1_555
C18 C17 1_555 1_555
H14 C18 1_555 1_555
H15 C18 1_555 1_555
H16 C18 1_555 1_555
C5 C6 1_555 1_555
C7 C8 1_555 1_555
C8 C9 1_555 1_555
C14 C15 1_555 1_555

#END
