
#######################################################################
#
#                 Cambridge Crystallographic Data Centre
#                                CCDC 
#
#######################################################################
#
# If this CIF has been generated from an entry in the Cambridge 
# Structural Database, then it will include bibliographic, chemical, 
# crystal, experimental, refinement or atomic coordinate data resulting 
# from the CCDC's data processing and validation procedures.
#
#######################################################################

data_DOXRIT
_chemical_formula_moiety         'C12 H10 F3 N5'
_chemical_name_systematic        
4-((5-methylpyridin-2-yl)amino)-1-(2,2,2-trifluoroethyl)-1H-pyrazole-5-carbonitrile
_symmetry_cell_setting           monoclinic
_symmetry_space_group_name_H-M   'P 21/n'
_symmetry_Int_Tables_number      14
_space_group_name_Hall           '-P 2yn'
loop_
_symmetry_equiv_pos_site_id
_symmetry_equiv_pos_as_xyz
1 x,y,z
2 1/2-x,1/2+y,1/2-z
3 -x,-y,-z
4 1/2+x,1/2-y,1/2+z
_cell_length_a                   5.0276(10)
_cell_length_b                   21.688(4)
_cell_length_c                   23.835(5)
_cell_angle_alpha                90
_cell_angle_beta                 93.77(3)
_cell_angle_gamma                90
_cell_volume                     2593.31
_exptl_crystal_colour            colorless
_exptl_crystal_description       prism
_chemical_melting_point          '422.75 K'
_cell_formula_units_Z            8
loop_
_atom_site_label
_atom_site_type_symbol
_atom_site_fract_x
_atom_site_fract_y
_atom_site_fract_z
F1 F 0.3952(5) 0.12497(7) 0.42464(7)
F2 F 0.1890(3) 0.04896(10) 0.45772(7)
F3 F 0.5864(4) 0.06750(7) 0.48747(6)
N1 N -0.2724(4) 0.01331(8) 0.18589(8)
N2 N 0.0613(3) 0.08158(8) 0.21641(7)
H1 H 0.1520 0.1138 0.2089
N3 N 0.3520(3) 0.02674(7) 0.34665(7)
N4 N 0.1582(3) -0.01510(7) 0.33956(7)
N5 N 0.6746(4) 0.15707(10) 0.29949(9)
C1 C -0.1445(4) 0.06559(9) 0.17787(8)
C2 C -0.2092(5) 0.10382(10) 0.13246(10)
H2 H -0.1198 0.1409 0.1283
C3 C -0.4078(5) 0.08584(11) 0.09367(10)
H3 H -0.4530 0.1109 0.0629
C4 C -0.5420(4) 0.03059(11) 0.09989(9)
C5 C -0.4662(4) -0.00240(11) 0.14752(10)
H4 H -0.5577 -0.0388 0.1536
C6 C 0.1357(4) 0.05113(9) 0.26561(8)
C7 C 0.3447(4) 0.06799(8) 0.30304(8)
C8 C 0.0284(4) -0.00140(9) 0.29090(9)
H5 H -0.1161 -0.0237 0.2753
C9 C 0.5259(4) 0.02678(10) 0.39707(8)
H6 H 0.7012 0.0410 0.3882
H7 H 0.5440 -0.0150 0.4113
C10 C 0.4233(5) 0.06729(11) 0.44178(9)
C11 C 0.5281(4) 0.11728(10) 0.30112(8)
C12 C -0.7565(5) 0.00779(14) 0.05839(11)
H8 H -0.8221 -0.0311 0.0708
H9 H -0.6850 0.0028 0.0223
H10 H -0.8998 0.0371 0.0555
F4 F 0.5599(5) 0.24295(8) 0.06205(8)
F5 F 0.8037(4) 0.31500(12) 0.03576(7)
F6 F 0.4060(4) 0.30716(9) 0.00128(7)
N6 N 1.2620(4) 0.34830(8) 0.30613(8)
N7 N 0.9202(3) 0.28226(8) 0.27429(7)
H11 H 0.8285 0.2500 0.2811
N8 N 0.6378(3) 0.33920(7) 0.14427(7)
N9 N 0.8351(4) 0.38043(8) 0.15229(8)
N10 N 0.3072(4) 0.20867(10) 0.18920(9)
C13 C 1.1235(4) 0.29745(9) 0.31376(8)
C14 C 1.1736(5) 0.25908(11) 0.36008(10)
H12 H 1.0771 0.2229 0.3638
C15 C 1.3689(6) 0.27592(12) 0.40023(11)
H13 H 1.4054 0.2510 0.4315
C16 C 1.5122(5) 0.33021(11) 0.39425(10)
C17 C 1.4526(5) 0.36308(11) 0.34607(11)
H14 H 1.5518 0.3985 0.3405
C18 C 0.8492(4) 0.31337(8) 0.22530(8)
C19 C 0.6403(4) 0.29764(9) 0.18721(8)
C20 C 0.9614(4) 0.36567(9) 0.20100(9)
H15 H 1.1067 0.3873 0.2172
C21 C 0.4637(4) 0.34166(10) 0.09395(9)
H16 H 0.4522 0.3839 0.0806
H17 H 0.2864 0.3288 0.1027
C22 C 0.5584(5) 0.30141(12) 0.04835(10)
C23 C 0.4546(4) 0.24857(10) 0.18827(9)
C24 C 1.7202(6) 0.35153(14) 0.43837(13)
H18 H 1.7964 0.3896 0.4267
H19 H 1.8575 0.3209 0.4433
H20 H 1.6391 0.3577 0.4733
loop_
_geom_bond_atom_site_label_1
_geom_bond_atom_site_label_2
_geom_bond_site_symmetry_1
_geom_bond_site_symmetry_2
F1 C10 1_555 1_555
F2 C10 1_555 1_555
F3 C10 1_555 1_555
N1 C1 1_555 1_555
N2 H1 1_555 1_555
N3 N4 1_555 1_555
N4 C8 1_555 1_555
N5 C11 1_555 1_555
C1 N2 1_555 1_555
C2 C1 1_555 1_555
H2 C2 1_555 1_555
C3 C2 1_555 1_555
H3 C3 1_555 1_555
C4 C3 1_555 1_555
C5 N1 1_555 1_555
H4 C5 1_555 1_555
C6 N2 1_555 1_555
C7 N3 1_555 1_555
C8 C6 1_555 1_555
H5 C8 1_555 1_555
C9 N3 1_555 1_555
H6 C9 1_555 1_555
H7 C9 1_555 1_555
C10 C9 1_555 1_555
C11 C7 1_555 1_555
C12 C4 1_555 1_555
H8 C12 1_555 1_555
H9 C12 1_555 1_555
H10 C12 1_555 1_555
F4 C22 1_555 1_555
F5 C22 1_555 1_555
F6 C22 1_555 1_555
N6 C13 1_555 1_555
N7 H11 1_555 1_555
N8 N9 1_555 1_555
N9 C20 1_555 1_555
N10 C23 1_555 1_555
C13 N7 1_555 1_555
C14 C13 1_555 1_555
H12 C14 1_555 1_555
C15 C14 1_555 1_555
H13 C15 1_555 1_555
C16 C15 1_555 1_555
C17 N6 1_555 1_555
H14 C17 1_555 1_555
C18 N7 1_555 1_555
C19 N8 1_555 1_555
C20 C18 1_555 1_555
H15 C20 1_555 1_555
C21 N8 1_555 1_555
H16 C21 1_555 1_555
H17 C21 1_555 1_555
C22 C21 1_555 1_555
C23 C19 1_555 1_555
C24 C16 1_555 1_555
H18 C24 1_555 1_555
H19 C24 1_555 1_555
H20 C24 1_555 1_555
C4 C5 1_555 1_555
C6 C7 1_555 1_555
C16 C17 1_555 1_555
C18 C19 1_555 1_555

#END
