
#######################################################################
#
#                 Cambridge Crystallographic Data Centre
#                                CCDC 
#
#######################################################################
#
# If this CIF has been generated from an entry in the Cambridge 
# Structural Database, then it will include bibliographic, chemical, 
# crystal, experimental, refinement or atomic coordinate data resulting 
# from the CCDC's data processing and validation procedures.
#
#######################################################################

data_DOXSEO
_chemical_name_common            'Nicotine monomethyl iodide'
_chemical_formula_moiety         'C11 H17 N2 1+,I1 1-'
_chemical_name_systematic        
'1,1-Dimethyl-2-(3-pyridyl)-pyrrolidinium iodide'
_chemical_properties_biological  'agent causing rise in blood pressure'
_symmetry_cell_setting           monoclinic
_symmetry_space_group_name_H-M   'P 21'
_symmetry_Int_Tables_number      4
_space_group_name_Hall           'P 2yb'
loop_
_symmetry_equiv_pos_site_id
_symmetry_equiv_pos_as_xyz
1 x,y,z
2 -x,1/2+y,-z
_cell_length_a                   13.972(3)
_cell_length_b                   8.389(1)
_cell_length_c                   10.739(3)
_cell_angle_alpha                90
_cell_angle_beta                 96.62(2)
_cell_angle_gamma                90
_cell_volume                     1250.34
_chemical_melting_point          '409.1-410 K'
_cell_formula_units_Z            4
loop_
_atom_site_label
_atom_site_type_symbol
_atom_site_fract_x
_atom_site_fract_y
_atom_site_fract_z
I1 I 0.6400(1) 0.7500 0.8362(1)
I2 I 0.7682(1) 0.3985(1) 0.4731(1)
N1 N 0.2916(3) 0.6333(7) 0.8722(5)
C1 C 0.3628(4) 0.5653(7) 0.8160(5)
C2 C 0.3520(3) 0.4216(6) 0.7495(3)
C3 C 0.2619(3) 0.3523(6) 0.7373(4)
C4 C 0.1886(3) 0.4217(8) 0.7913(4)
C5 C 0.2068(4) 0.5619(8) 0.8562(5)
C6 C 0.4342(3) 0.3583(5) 0.6887(3)
C7 C 0.4115(3) 0.2856(6) 0.5589(4)
C8 C 0.4955(4) 0.1698(9) 0.5431(5)
C9 C 0.5597(3) 0.1726(8) 0.6681(4)
N2 N 0.4938(2) 0.2264(5) 0.7624(3)
C10 C 0.5497(4) 0.2872(8) 0.8785(4)
C11 C 0.4311(3) 0.0907(6) 0.7957(5)
H1 H 0.4241 0.6181 0.8219
H2 H 0.2508 0.2551 0.6908
H3 H 0.1258 0.3738 0.7841
H4 H 0.1544 0.6110 0.8922
H5 H 0.4688 0.4567 0.6851
H6 H 0.3515 0.2288 0.5529
H7 H 0.4080 0.3672 0.4959
H8 H 0.5308 0.2051 0.4766
H9 H 0.4714 0.0642 0.5251
H10 H 0.6119 0.2464 0.6652
H11 H 0.5850 0.0684 0.6888
H12 H 0.5901 0.3747 0.8600
H13 H 0.5888 0.1946 0.8990
H14 H 0.5158 0.3145 0.9483
H15 H 0.3869 0.0552 0.7261
H16 H 0.3956 0.1308 0.8604
H17 H 0.4706 0.0029 0.8277
N3 N 0.0384(3) 0.9253(7) 1.1003(4)
C12 C -0.0185(3) 0.8889(7) 0.9941(4)
C13 C 0.0104(3) 0.8981(6) 0.8756(4)
C14 C 0.1059(3) 0.9428(7) 0.8667(7)
C15 C 0.1627(3) 0.9825(7) 0.9744(5)
C16 C 0.1277(4) 0.9739(7) 1.0871(5)
C17 C -0.0628(3) 0.8573(5) 0.7642(4)
C18 C -0.0288(3) 0.7613(7) 0.6580(4)
C19 C -0.0955(4) 0.8147(8) 0.5401(5)
C20 C -0.1645(3) 0.9312(7) 0.5863(4)
N4 N -0.1083(2) 1.0055(5) 0.7000(3)
C21 C -0.1736(3) 1.0922(7) 0.7801(5)
C22 C -0.0357(3) 1.1220(7) 0.6618(4)
H18 H -0.0832 0.8545 1.0012
H19 H 0.1308 0.9456 0.7871
H20 H 0.2278 1.0168 0.9704
H21 H 0.1692 1.0043 1.1608
H22 H -0.1062 0.7926 0.8056
H23 H 0.0373 0.7849 0.6491
H24 H -0.0356 0.6491 0.6724
H25 H -0.1296 0.7250 0.5013
H26 H -0.0586 0.8648 0.4809
H27 H -0.1834 1.0105 0.5238
H28 H -0.2208 0.8777 0.6088
H29 H -0.2159 1.0155 0.8114
H30 H -0.2111 1.1754 0.7368
H31 H -0.1323 1.1371 0.8489
H32 H 0.0057 1.0770 0.6056
loop_
_geom_bond_atom_site_label_1
_geom_bond_atom_site_label_2
_geom_bond_site_symmetry_1
_geom_bond_site_symmetry_2
N1 C1 1_555 1_555
C1 C2 1_555 1_555
C2 C3 1_555 1_555
C3 C4 1_555 1_555
C4 C5 1_555 1_555
C5 N1 1_555 1_555
C6 C2 1_555 1_555
C7 C6 1_555 1_555
C8 C7 1_555 1_555
C9 C8 1_555 1_555
N2 C6 1_555 1_555
C10 N2 1_555 1_555
C11 N2 1_555 1_555
H1 C1 1_555 1_555
H2 C3 1_555 1_555
H3 C4 1_555 1_555
H4 C5 1_555 1_555
H5 C6 1_555 1_555
H6 C7 1_555 1_555
H7 C7 1_555 1_555
H8 C8 1_555 1_555
H9 C8 1_555 1_555
H10 C9 1_555 1_555
H11 C9 1_555 1_555
H12 C10 1_555 1_555
H13 C10 1_555 1_555
H14 C10 1_555 1_555
H15 C11 1_555 1_555
H16 C11 1_555 1_555
H17 C11 1_555 1_555
N3 C12 1_555 1_555
C12 C13 1_555 1_555
C13 C14 1_555 1_555
C14 C15 1_555 1_555
C15 C16 1_555 1_555
C16 N3 1_555 1_555
C17 C13 1_555 1_555
C18 C17 1_555 1_555
C19 C18 1_555 1_555
C20 C19 1_555 1_555
N4 C17 1_555 1_555
C21 N4 1_555 1_555
C22 N4 1_555 1_555
H18 C12 1_555 1_555
H19 C14 1_555 1_555
H20 C15 1_555 1_555
H21 C16 1_555 1_555
H22 C17 1_555 1_555
H23 C18 1_555 1_555
H24 C18 1_555 1_555
H25 C19 1_555 1_555
H26 C19 1_555 1_555
H27 C20 1_555 1_555
H28 C20 1_555 1_555
H29 C21 1_555 1_555
H30 C21 1_555 1_555
H31 C21 1_555 1_555
H32 C22 1_555 1_555
C9 N2 1_555 1_555
C20 N4 1_555 1_555

#END
