
#######################################################################
#
#                 Cambridge Crystallographic Data Centre
#                                CCDC 
#
#######################################################################
#
# If this CIF has been generated from an entry in the Cambridge 
# Structural Database, then it will include bibliographic, chemical, 
# crystal, experimental, refinement or atomic coordinate data resulting 
# from the CCDC's data processing and validation procedures.
#
#######################################################################

data_DOXWAQ
_chemical_compound_source        'aerial parts of Isodon tenuifolius'
_chemical_name_common            'Bistenuifolin D pyridine solvate dihydrate'
_chemical_formula_moiety         'C50 H66 O16,C5 H5 N1,2(H2 O1)'
_chemical_name_systematic        
"6,6'-Dihydroxy-5,5,5',5',9,9'-hexamethyl-3,3',15'-trioxo-18-oxaspiro[pentacyclo[11.6.1.0^1,10^.0^4,9^.0^14,19^]icosane-17,14'-tetracyclo[11.2.1.0^1,10^.0^4,9^]hexadecane]-14(19)-ene-2',8,8',11,11'-pentayl pentaacetate pyridine solvate dihydrate"
_symmetry_cell_setting           orthorhombic
_symmetry_space_group_name_H-M   'P 21 21 21'
_symmetry_Int_Tables_number      19
_space_group_name_Hall           'P 2ac 2ab'
loop_
_symmetry_equiv_pos_site_id
_symmetry_equiv_pos_as_xyz
1 x,y,z
2 1/2+x,1/2-y,-z
3 -x,1/2+y,1/2-z
4 1/2-x,-y,1/2+z
_cell_length_a                   10.7575(3)
_cell_length_b                   11.2807(3)
_cell_length_c                   43.2752(11)
_cell_angle_alpha                90
_cell_angle_beta                 90
_cell_angle_gamma                90
_cell_volume                     5251.54
_exptl_crystal_colour            colorless
_exptl_crystal_description       prism
_cell_formula_units_Z            4
loop_
_atom_site_label
_atom_site_type_symbol
_atom_site_fract_x
_atom_site_fract_y
_atom_site_fract_z
O1 O 0.5548(3) 0.0639(3) 0.03369(8)
O2 O 0.5188(3) 0.1138(2) 0.08318(7)
O3 O -0.1178(3) 0.3260(2) 0.11072(7)
O4 O 0.0068(3) 0.5342(2) 0.17361(6)
O5 O 0.0697(3) 0.6732(3) 0.20755(8)
O6 O -0.5533(3) 0.3594(3) 0.16670(7)
O7 O -0.0152(3) 0.1634(2) 0.05944(7)
O8 O 0.2755(3) 0.2807(2) 0.05599(6)
O9 O 0.4381(3) 0.4064(3) 0.06038(8)
O10 O 0.0249(2) -0.0584(2) 0.08799(6)
O11 O -0.1811(3) -0.0177(3) 0.09210(8)
O12 O 0.1329(3) -0.0794(3) 0.16053(8)
C1 C 0.5752(4) 0.1266(4) 0.05573(12)
C2 C 0.4368(4) 0.0110(3) 0.08667(10)
H1 H 0.3992 -0.0087 0.0662
C3 C 0.3319(4) 0.0411(4) 0.10974(9)
C4 C 0.2369(4) 0.1272(3) 0.09342(10)
H2 H 0.2254 0.0948 0.0721
C5 C 0.1033(4) 0.1331(3) 0.10781(10)
C6 C 0.0214(4) 0.2014(3) 0.08397(10)
C7 C 0.0032(4) 0.3290(3) 0.09542(10)
C8 C -0.1645(4) 0.4378(4) 0.11605(10)
C9 C -0.2664(4) 0.4548(4) 0.13938(10)
C10 C -0.2051(4) 0.4692(3) 0.17237(10)
H3 H -0.1465 0.4007 0.1742
C11 C -0.2927(4) 0.4577(4) 0.20075(10)
C12 C -0.2161(4) 0.4446(4) 0.23041(10)
H4 H -0.1386 0.3993 0.2256
O13 O -0.1817(3) 0.5630(3) 0.24167(7)
C13 C 0.6660(4) 0.2244(4) 0.05583(12)
H5 H 0.7484 0.1935 0.0612
H6 H 0.6409 0.2841 0.0711
H7 H 0.6692 0.2607 0.0353
C14 C 0.3832(4) 0.0929(4) 0.14002(10)
H8 H 0.4667 0.0614 0.1438
H9 H 0.3283 0.0710 0.1572
H10 H 0.3873 0.1795 0.1384
C15 C 0.0965(4) 0.2158(3) 0.13586(10)
H11 H 0.1674 0.2029 0.1501
H12 H 0.0177 0.2053 0.1473
C16 C 0.1033(4) 0.3396(4) 0.12028(10)
H13 H 0.0819 0.4035 0.1354
C17 C -0.1256(4) 0.5394(4) 0.10374(10)
C18 C -0.0203(4) 0.5445(3) 0.08139(10)
H14 H 0.0551 0.5752 0.0918
H15 H -0.0412 0.5983 0.0641
C19 C 0.0040(4) 0.4192(4) 0.06906(10)
H16 H -0.0608 0.3980 0.0538
H17 H 0.0856 0.4171 0.0585
C20 C -0.1969(4) 0.6399(4) 0.11923(10)
H18 H -0.2123 0.7079 0.1049
C21 C -0.1344(4) 0.6786(4) 0.14926(11)
H19 H -0.1829 0.7449 0.1581
H20 H -0.0506 0.7095 0.1442
C22 C -0.1205(4) 0.5815(4) 0.17424(11)
H21 H -0.1340 0.6193 0.1949
C23 C 0.0911(4) 0.5840(4) 0.19284(11)
C24 C 0.2088(4) 0.5151(4) 0.19398(11)
H22 H 0.2792 0.5697 0.1961
H23 H 0.2179 0.4692 0.1749
H24 H 0.2069 0.4611 0.2117
C25 C -0.3832(4) 0.5634(4) 0.20351(10)
H25 H -0.4178 0.5659 0.2244
H26 H -0.4507 0.5541 0.1885
H27 H -0.3384 0.6373 0.1993
C26 C -0.2814(4) 0.3862(4) 0.25821(11)
H28 H -0.2207 0.3759 0.2752
H29 H -0.3483 0.4392 0.2657
C27 C -0.3363(5) 0.2672(4) 0.24998(11)
H30 H -0.3793 0.2349 0.2686
O14 O -0.2418(4) 0.1860(3) 0.24103(8)
H31 H -0.1840 0.1875 0.2541
C28 C -0.4314(4) 0.2778(4) 0.22387(10)
C29 C -0.3633(4) 0.3360(4) 0.19617(10)
H32 H -0.2967 0.2781 0.1905
C30 C -0.4406(4) 0.3491(3) 0.16723(10)
C31 C -0.3635(4) 0.3544(4) 0.13810(10)
H33 H -0.4190 0.3671 0.1201
H34 H -0.3204 0.2777 0.1351
C32 C -0.3169(4) 0.5742(4) 0.12783(11)
H35 H -0.3716 0.5638 0.1096
H36 H -0.3631 0.6164 0.1443
C33 C -0.5470(4) 0.3427(4) 0.23638(11)
H37 H -0.5787 0.3007 0.2546
H38 H -0.6114 0.3447 0.2204
H39 H -0.5244 0.4239 0.2422
C34 C -0.4734(5) 0.1532(4) 0.21323(11)
H40 H -0.4047 0.1138 0.2025
H41 H -0.5444 0.1608 0.1992
H42 H -0.4976 0.1061 0.2313
C35 C 0.2351(4) 0.3552(3) 0.10830(10)
H43 H 0.2902 0.3687 0.1263
H44 H 0.2373 0.4281 0.0956
C36 C 0.2910(4) 0.2537(3) 0.08900(9)
H45 H 0.3821 0.2502 0.0935
C37 C 0.3595(5) 0.3596(4) 0.04488(12)
C38 C 0.3403(6) 0.3794(5) 0.01089(11)
H46 H 0.3959 0.4425 0.0037
H47 H 0.2538 0.4025 0.0071
H48 H 0.3586 0.3060 -0.0004
C39 C 0.0496(4) 0.0107(3) 0.11575(10)
H49 H -0.0274 0.0187 0.1285
C40 C -0.0950(4) -0.0614(4) 0.07814(11)
C41 C -0.1043(5) -0.1257(4) 0.04821(11)
H50 H -0.0904 -0.2105 0.0517
H51 H -0.0414 -0.0952 0.0339
H52 H -0.1872 -0.1136 0.0394
C42 C 0.1486(4) -0.0562(4) 0.13323(11)
C43 C 0.2644(4) -0.0804(4) 0.11474(10)
H53 H 0.2337 -0.1035 0.0938
C44 C 0.3433(4) -0.1881(4) 0.12577(10)
C45 C 0.4004(4) -0.1800(4) 0.15825(10)
H54 H 0.3350 -0.1619 0.1733
H55 H 0.4632 -0.1171 0.1586
H56 H 0.4393 -0.2558 0.1636
C46 C 0.4467(4) -0.2047(4) 0.10182(10)
H57 H 0.5045 -0.2681 0.1092
C47 C 0.5197(4) -0.0915(4) 0.09698(11)
H58 H 0.5845 -0.1053 0.0812
H59 H 0.5618 -0.0697 0.1165
O15 O 0.3909(3) -0.2418(2) 0.07317(7)
H60 H 0.4469 -0.2625 0.0608
C48 C 0.2604(4) -0.2970(4) 0.12536(11)
H61 H 0.2167 -0.3014 0.1055
H62 H 0.1995 -0.2915 0.1422
H63 H 0.3113 -0.3682 0.1281
C49 C -0.0683(7) 0.6911(7) 0.27323(14)
H64 H 0.0033 0.6945 0.2872
H65 H -0.1445 0.7073 0.2849
H66 H -0.0585 0.7506 0.2569
C50 C -0.0764(6) 0.5684(8) 0.25879(12)
O16 O -0.0022(4) 0.4914(5) 0.26114(9)
O17 O 0.7340(6) 0.0737(5) 0.15143(12)
C51 C 0.7015(5) 0.7508(5) -0.01400(12)
H67 H 0.7223 0.8046 -0.0301
C52 C 0.7578(5) 0.6424(5) -0.01193(13)
H68 H 0.8198 0.6201 -0.0264
C53 C 0.7242(5) 0.5662(5) 0.01117(12)
H69 H 0.7617 0.4902 0.0127
C54 C 0.6356(5) 0.6010(5) 0.03208(13)
H70 H 0.6127 0.5479 0.0481
N1 N 0.5803(4) 0.7068(4) 0.03062(10)
C55 C 0.6143(5) 0.7793(5) 0.00779(12)
H71 H 0.5758 0.8549 0.0066
O18 O 0.8613(15) 0.9487(13) 0.1884(3)
O19? O 0.7703(8) 0.9475(7) 0.20796(18)
loop_
_geom_bond_atom_site_label_1
_geom_bond_atom_site_label_2
_geom_bond_site_symmetry_1
_geom_bond_site_symmetry_2
O1 C1 1_555 1_555
O2 C1 1_555 1_555
O3 C7 1_555 1_555
O4 C22 1_555 1_555
O5 C23 1_555 1_555
O6 C30 1_555 1_555
O7 C6 1_555 1_555
O8 C36 1_555 1_555
O9 C37 1_555 1_555
O10 C39 1_555 1_555
O11 C40 1_555 1_555
O12 C42 1_555 1_555
C1 C13 1_555 1_555
C2 O2 1_555 1_555
H1 C2 1_555 1_555
C3 C2 1_555 1_555
C4 C3 1_555 1_555
H2 C4 1_555 1_555
C5 C4 1_555 1_555
C6 C5 1_555 1_555
C7 C6 1_555 1_555
C8 O3 1_555 1_555
C9 C8 1_555 1_555
C10 C9 1_555 1_555
H3 C10 1_555 1_555
C11 C10 1_555 1_555
C12 C11 1_555 1_555
H4 C12 1_555 1_555
O13 C12 1_555 1_555
C13 H5 1_555 1_555
H6 C13 1_555 1_555
H7 C13 1_555 1_555
C14 C3 1_555 1_555
H8 C14 1_555 1_555
H9 C14 1_555 1_555
H10 C14 1_555 1_555
C15 C5 1_555 1_555
H11 C15 1_555 1_555
H12 C15 1_555 1_555
C16 C7 1_555 1_555
H13 C16 1_555 1_555
C17 C8 1_555 1_555
C18 C17 1_555 1_555
H14 C18 1_555 1_555
H15 C18 1_555 1_555
C19 C7 1_555 1_555
H16 C19 1_555 1_555
H17 C19 1_555 1_555
C20 C17 1_555 1_555
H18 C20 1_555 1_555
C21 C20 1_555 1_555
H19 C21 1_555 1_555
H20 C21 1_555 1_555
C22 C10 1_555 1_555
H21 C22 1_555 1_555
C23 O4 1_555 1_555
C24 C23 1_555 1_555
H22 C24 1_555 1_555
H23 C24 1_555 1_555
H24 C24 1_555 1_555
C25 C11 1_555 1_555
H25 C25 1_555 1_555
H26 C25 1_555 1_555
H27 C25 1_555 1_555
C26 C12 1_555 1_555
H28 C26 1_555 1_555
H29 C26 1_555 1_555
C27 C26 1_555 1_555
H30 C27 1_555 1_555
O14 C27 1_555 1_555
H31 O14 1_555 1_555
C28 C27 1_555 1_555
C29 C11 1_555 1_555
H32 C29 1_555 1_555
C30 C29 1_555 1_555
C31 C9 1_555 1_555
H33 C31 1_555 1_555
H34 C31 1_555 1_555
C32 C9 1_555 1_555
H35 C32 1_555 1_555
H36 C32 1_555 1_555
C33 C28 1_555 1_555
H37 C33 1_555 1_555
H38 C33 1_555 1_555
H39 C33 1_555 1_555
C34 C28 1_555 1_555
H40 C34 1_555 1_555
H41 C34 1_555 1_555
H42 C34 1_555 1_555
C35 C16 1_555 1_555
H43 C35 1_555 1_555
H44 C35 1_555 1_555
C36 C4 1_555 1_555
H45 C36 1_555 1_555
C37 O8 1_555 1_555
C38 C37 1_555 1_555
H46 C38 1_555 1_555
H47 C38 1_555 1_555
H48 C38 1_555 1_555
C39 C5 1_555 1_555
H49 C39 1_555 1_555
C40 O10 1_555 1_555
C41 C40 1_555 1_555
H50 C41 1_555 1_555
H51 C41 1_555 1_555
H52 C41 1_555 1_555
C42 C39 1_555 1_555
C43 C3 1_555 1_555
H53 C43 1_555 1_555
C44 C43 1_555 1_555
C45 C44 1_555 1_555
H54 C45 1_555 1_555
H55 C45 1_555 1_555
H56 C45 1_555 1_555
C46 C44 1_555 1_555
H57 C46 1_555 1_555
C47 C2 1_555 1_555
H58 C47 1_555 1_555
H59 C47 1_555 1_555
O15 C46 1_555 1_555
H60 O15 1_555 1_555
C48 C44 1_555 1_555
H61 C48 1_555 1_555
H62 C48 1_555 1_555
H63 C48 1_555 1_555
C49 H64 1_555 1_555
H65 C49 1_555 1_555
H66 C49 1_555 1_555
C50 O13 1_555 1_555
O16 C50 1_555 1_555
C51 H67 1_555 1_555
C52 C51 1_555 1_555
H68 C52 1_555 1_555
C53 C52 1_555 1_555
H69 C53 1_555 1_555
C54 C53 1_555 1_555
H70 C54 1_555 1_555
N1 C54 1_555 1_555
C55 C51 1_555 1_555
H71 C55 1_555 1_555
C15 C16 1_555 1_555
C18 C19 1_555 1_555
C20 C32 1_555 1_555
C21 C22 1_555 1_555
C28 C29 1_555 1_555
C30 C31 1_555 1_555
C35 C36 1_555 1_555
C42 C43 1_555 1_555
C46 C47 1_555 1_555
C49 C50 1_555 1_555
N1 C55 1_555 1_555

#END
