
#######################################################################
#
#                 Cambridge Crystallographic Data Centre
#                                CCDC 
#
#######################################################################
#
# If this CIF has been generated from an entry in the Cambridge 
# Structural Database, then it will include bibliographic, chemical, 
# crystal, experimental, refinement or atomic coordinate data resulting 
# from the CCDC's data processing and validation procedures.
#
#######################################################################

data_DOXXOD04
_chemical_name_common            Alantolactone
_chemical_formula_moiety         'C15 H20 O2'
_chemical_name_systematic        
5,8a-dimethyl-3-methylene-3a,5,6,7,8,8a,9,9a-octahydronaphtho[2,3-b]furan-2(3H)-one
_symmetry_cell_setting           orthorhombic
_symmetry_space_group_name_H-M   'P 21 21 21'
_symmetry_Int_Tables_number      19
_space_group_name_Hall           'P 2ac 2ab'
loop_
_symmetry_equiv_pos_site_id
_symmetry_equiv_pos_as_xyz
1 x,y,z
2 1/2-x,-y,1/2+z
3 1/2+x,1/2-y,-z
4 -x,1/2+y,1/2-z
_cell_length_a                   6.2730(3)
_cell_length_b                   8.1361(4)
_cell_length_c                   25.3632(13)
_cell_angle_alpha                90
_cell_angle_beta                 90
_cell_angle_gamma                90
_cell_volume                     1294.48
_cell_formula_units_Z            4
loop_
_atom_site_label
_atom_site_type_symbol
_atom_site_fract_x
_atom_site_fract_y
_atom_site_fract_z
O1 O 0.1793(2) 0.00003(16) 0.98723(5)
O2 O -0.1422(3) -0.1051(2) 1.00180(6)
C1 C -0.0892(4) -0.2680(3) 0.90039(10)
H1 H -0.2239 -0.2845 0.9167
H2 H -0.0587 -0.3185 0.8675
C2 C 0.0542(3) -0.1755(2) 0.92326(7)
C3 C 0.0139(3) -0.0947(2) 0.97429(7)
C4 C 0.2750(3) -0.1274(2) 0.90487(7)
H3 H 0.3655 -0.2282 0.9020
C5 C 0.3573(3) -0.0204(2) 0.95012(7)
H4 H 0.4738 -0.0817 0.9685
C6 C 0.2691(3) -0.0418(2) 0.85243(7)
H5 H 0.2554 -0.1090 0.8220
C7 C 0.4432(3) 0.1457(2) 0.93374(8)
H6 H 0.5919 0.1309 0.9216
H7 H 0.4475 0.2172 0.9653
C8 C 0.2812(2) 0.1195(2) 0.84489(6)
C9 C 0.3195(3) 0.2362(2) 0.89038(6)
C10 C 0.1072(3) 0.3016(2) 0.91228(7)
H8 H 0.0350 0.3667 0.8851
H9 H 0.1350 0.3708 0.9431
H10 H 0.0163 0.2090 0.9225
C11 C 0.0087(4) 0.2309(4) 0.78051(9)
H11 H -0.0810 0.1407 0.7933
H12 H -0.0164 0.2471 0.7427
H13 H -0.0270 0.3319 0.7996
C12 C 0.2446(3) 0.1883(3) 0.78972(7)
H14 H 0.2824 0.0994 0.7642
C13 C 0.4594(3) 0.3828(3) 0.87263(8)
H15 H 0.4578 0.4675 0.9006
H16 H 0.6083 0.3443 0.8686
C14 C 0.3905(3) 0.3345(3) 0.77782(8)
H17 H 0.5380 0.2943 0.7727
H18 H 0.3441 0.3870 0.7445
C15 C 0.3886(4) 0.4608(3) 0.82139(9)
H19 H 0.2430 0.5060 0.8255
H20 H 0.4856 0.5525 0.8123
loop_
_geom_bond_atom_site_label_1
_geom_bond_atom_site_label_2
_geom_bond_site_symmetry_1
_geom_bond_site_symmetry_2
O1 C3 1_555 1_555
O2 C3 1_555 1_555
C1 H1 1_555 1_555
H2 C1 1_555 1_555
C2 C1 1_555 1_555
C3 C2 1_555 1_555
C4 C2 1_555 1_555
H3 C4 1_555 1_555
C5 O1 1_555 1_555
H4 C5 1_555 1_555
C6 C4 1_555 1_555
H5 C6 1_555 1_555
C7 C5 1_555 1_555
H6 C7 1_555 1_555
H7 C7 1_555 1_555
C8 C6 1_555 1_555
C9 C7 1_555 1_555
C10 C9 1_555 1_555
H8 C10 1_555 1_555
H9 C10 1_555 1_555
H10 C10 1_555 1_555
C11 H11 1_555 1_555
H12 C11 1_555 1_555
H13 C11 1_555 1_555
C12 C8 1_555 1_555
H14 C12 1_555 1_555
C13 C9 1_555 1_555
H15 C13 1_555 1_555
H16 C13 1_555 1_555
C14 C12 1_555 1_555
H17 C14 1_555 1_555
H18 C14 1_555 1_555
C15 C13 1_555 1_555
H19 C15 1_555 1_555
H20 C15 1_555 1_555
C4 C5 1_555 1_555
C8 C9 1_555 1_555
C11 C12 1_555 1_555
C14 C15 1_555 1_555

#END
