
#######################################################################
#
#                 Cambridge Crystallographic Data Centre
#                                CCDC 
#
#######################################################################
#
# If this CIF has been generated from an entry in the Cambridge 
# Structural Database, then it will include bibliographic, chemical, 
# crystal, experimental, refinement or atomic coordinate data resulting 
# from the CCDC's data processing and validation procedures.
#
#######################################################################

data_DOXYUM
_chemical_formula_moiety         'C24 H31 N3,0.5(H2 O1)'
_chemical_name_systematic        
'N-cyclopentyl-1-(2,6-diisopropylphenyl)-1H-benzimidazol-2-amine hemihydrate'
_symmetry_cell_setting           triclinic
_symmetry_space_group_name_H-M   'P -1'
_symmetry_Int_Tables_number      2
_space_group_name_Hall           '-P 1'
loop_
_symmetry_equiv_pos_site_id
_symmetry_equiv_pos_as_xyz
1 x,y,z
2 -x,-y,-z
_cell_length_a                   10.0498(5)
_cell_length_b                   13.3126(7)
_cell_length_c                   16.9593(10)
_cell_angle_alpha                88.988(5)
_cell_angle_beta                 75.801(5)
_cell_angle_gamma                78.453(5)
_cell_volume                     2153.95
_cell_formula_units_Z            4
loop_
_atom_site_label
_atom_site_type_symbol
_atom_site_fract_x
_atom_site_fract_y
_atom_site_fract_z
C1 C 0.3388(2) 0.24645(14) 0.23758(12)
C2 C 0.4595(2) 0.12767(14) 0.30047(12)
C3 C 0.5329(2) 0.07071(16) 0.35053(14)
H1 H 0.5361 0.0978 0.4013
C4 C 0.6018(3) -0.02807(17) 0.32320(16)
H2 H 0.6558 -0.0693 0.3551
C5 C 0.5929(3) -0.06737(17) 0.24998(16)
H3 H 0.6397 -0.1357 0.2332
C6 C 0.5172(3) -0.00944(16) 0.20035(14)
H4 H 0.5108 -0.0378 0.1507
C7 C 0.4514(2) 0.09071(15) 0.22524(12)
C8 C 0.3604(2) 0.30159(14) 0.37328(12)
C9 C 0.2445(2) 0.30383(16) 0.43871(13)
C10 C 0.2191(2) 0.37911(17) 0.49968(14)
H5 H 0.1419 0.3824 0.5456
C11 C 0.3058(2) 0.44910(17) 0.49371(14)
H6 H 0.2862 0.5010 0.5350
C12 C 0.4200(2) 0.44419(16) 0.42850(14)
H7 H 0.4786 0.4926 0.4257
C13 C 0.4510(2) 0.36985(15) 0.36678(13)
C14 C 0.1471(3) 0.22903(19) 0.44396(15)
H8 H 0.1809 0.1844 0.3933
C15 C 0.1512(3) 0.1597(2) 0.51574(18)
H9 H 0.2478 0.1232 0.5114
H10 H 0.0914 0.1100 0.5157
H11 H 0.1172 0.2012 0.5665
C16 C -0.0016(3) 0.2860(2) 0.44650(19)
H12 H -0.0392 0.3283 0.4967
H13 H -0.0609 0.2363 0.4449
H14 H -0.0002 0.3300 0.3995
C17 C 0.5794(2) 0.36196(17) 0.29615(14)
H15 H 0.5763 0.3071 0.2575
C18 C 0.5803(4) 0.4600(2) 0.2500(2)
H16 H 0.4934 0.4792 0.2320
H17 H 0.6607 0.4496 0.2026
H18 H 0.5873 0.5149 0.2856
C19 C 0.7128(3) 0.3281(3) 0.3259(2)
H19 H 0.7945 0.3167 0.2792
H20 H 0.7086 0.2642 0.3553
H21 H 0.7209 0.3816 0.3625
C20 C 0.2140(2) 0.36274(15) 0.15432(13)
H22 H 0.2625 0.3082 0.1113
C21 C 0.0572(3) 0.37067(19) 0.16956(16)
H23 H 0.0066 0.4128 0.2194
H24 H 0.0331 0.3019 0.1752
C22 C 0.0215(3) 0.4219(2) 0.09448(17)
H25 H -0.0738 0.4653 0.1085
H26 H 0.0262 0.3699 0.0524
C23 C 0.1319(3) 0.48745(19) 0.06419(16)
H27 H 0.1825 0.4682 0.0070
H28 H 0.0871 0.5611 0.0674
C24 C 0.2324(3) 0.46644(17) 0.11949(14)
H29 H 0.3302 0.4638 0.0882
H30 H 0.2075 0.5200 0.1633
H31 H 0.242(2) 0.3844(18) 0.2653(15)
N1 N 0.38442(18) 0.22835(11) 0.30793(10)
N2 N 0.37552(19) 0.16634(12) 0.18650(10)
N3 N 0.2696(2) 0.34026(14) 0.22496(12)
C25 C 0.1260(2) 0.78080(14) 0.24368(13)
C26 C -0.0119(2) 0.77081(14) 0.16134(13)
C27 C -0.0815(2) 0.77946(15) 0.10025(13)
H32 H -0.0580 0.8206 0.0546
C28 C -0.1876(2) 0.72486(17) 0.10913(15)
H33 H -0.2388 0.7283 0.0686
C29 C -0.2206(2) 0.66504(16) 0.17629(15)
H34 H -0.2941 0.6286 0.1806
C30 C -0.1495(2) 0.65695(16) 0.23717(15)
H35 H -0.1733 0.6158 0.2828
C31 C -0.0420(2) 0.71107(14) 0.22952(13)
C32 C 0.1637(2) 0.88551(15) 0.11835(12)
C33 C 0.1076(2) 0.99007(16) 0.13183(13)
C34 C 0.1780(3) 1.05639(17) 0.08104(14)
H36 H 0.1447 1.1284 0.0891
C35 C 0.2946(3) 1.01960(18) 0.01964(14)
H37 H 0.3408 1.0665 -0.0140
C36 C 0.3455(2) 0.91570(18) 0.00610(14)
H38 H 0.4252 0.8917 -0.0374
C37 C 0.2812(2) 0.84532(16) 0.05566(13)
C38 C -0.0243(3) 1.03104(17) 0.19746(15)
H39 H -0.0660 0.9711 0.2197
C39 C -0.1335(3) 1.1033(2) 0.16356(18)
H40 H -0.0986 1.1655 0.1450
H41 H -0.2207 1.1218 0.2062
H42 H -0.1515 1.0691 0.1177
C40 C 0.0110(3) 1.0822(2) 0.26761(16)
H43 H 0.0756 1.0323 0.2908
H44 H -0.0752 1.1072 0.3097
H45 H 0.0552 1.1400 0.2473
C41 C 0.3371(2) 0.73068(17) 0.04218(14)
H46 H 0.2708 0.6948 0.0806
C42 C 0.3458(3) 0.6948(2) -0.04430(16)
H47 H 0.2535 0.7150 -0.0560
H48 H 0.3757 0.6200 -0.0494
H49 H 0.4138 0.7264 -0.0830
C43 C 0.4802(3) 0.7008(2) 0.06129(19)
H50 H 0.5474 0.7344 0.0238
H51 H 0.5124 0.6262 0.0550
H52 H 0.4726 0.7225 0.1174
C44 C 0.2473(2) 0.79716(16) 0.35181(13)
H53 H 0.1697 0.7660 0.3847
C45 C 0.3857(3) 0.72920(19) 0.35510(17)
H54 H 0.4632 0.7454 0.3115
H55 H 0.3826 0.6559 0.3495
C46 C 0.4034(4) 0.7540(2) 0.4386(2)
H56 H 0.3660 0.7054 0.4787
H57 H 0.5038 0.7489 0.4367
C47 C 0.3233(3) 0.8618(2) 0.46194(16)
H58 H 0.3880 0.9075 0.4660
H59 H 0.2545 0.8635 0.5151
C48 C 0.2488(3) 0.89564(17) 0.39504(14)
H60 H 0.1521 0.9337 0.4185
H61 H 0.2999 0.9402 0.3569
H62 H 0.270(2) 0.8577(16) 0.2396(13)
N4 N 0.09728(18) 0.81527(12) 0.17169(10)
N5 N 0.04671(19) 0.71705(12) 0.28052(11)
N6 N 0.2267(2) 0.81301(15) 0.27040(11)
H63 H 0.107(3) 0.588(3) 0.325(2)
H64 H 0.154(4) 0.519(3) 0.386(3)
O1 O 0.1239(2) 0.51932(14) 0.34164(13)
loop_
_geom_bond_atom_site_label_1
_geom_bond_atom_site_label_2
_geom_bond_site_symmetry_1
_geom_bond_site_symmetry_2
C1 N1 1_555 1_555
C2 C3 1_555 1_555
C3 H1 1_555 1_555
C4 C3 1_555 1_555
H2 C4 1_555 1_555
C5 C4 1_555 1_555
H3 C5 1_555 1_555
C6 C5 1_555 1_555
H4 C6 1_555 1_555
C7 C2 1_555 1_555
C8 C9 1_555 1_555
C9 C10 1_555 1_555
C10 H5 1_555 1_555
C11 C10 1_555 1_555
H6 C11 1_555 1_555
C12 C11 1_555 1_555
H7 C12 1_555 1_555
C13 C8 1_555 1_555
C14 C9 1_555 1_555
H8 C14 1_555 1_555
C15 C14 1_555 1_555
H9 C15 1_555 1_555
H10 C15 1_555 1_555
H11 C15 1_555 1_555
C16 C14 1_555 1_555
H12 C16 1_555 1_555
H13 C16 1_555 1_555
H14 C16 1_555 1_555
C17 C13 1_555 1_555
H15 C17 1_555 1_555
C18 C17 1_555 1_555
H16 C18 1_555 1_555
H17 C18 1_555 1_555
H18 C18 1_555 1_555
C19 C17 1_555 1_555
H19 C19 1_555 1_555
H20 C19 1_555 1_555
H21 C19 1_555 1_555
C20 H22 1_555 1_555
C21 C20 1_555 1_555
H23 C21 1_555 1_555
H24 C21 1_555 1_555
C22 C21 1_555 1_555
H25 C22 1_555 1_555
H26 C22 1_555 1_555
C23 C22 1_555 1_555
H27 C23 1_555 1_555
H28 C23 1_555 1_555
C24 C20 1_555 1_555
H29 C24 1_555 1_555
H30 C24 1_555 1_555
H31 N3 1_555 1_555
N1 C2 1_555 1_555
N2 C1 1_555 1_555
N3 C1 1_555 1_555
C25 N4 1_555 1_555
C26 C27 1_555 1_555
C27 H32 1_555 1_555
C28 C27 1_555 1_555
H33 C28 1_555 1_555
C29 C28 1_555 1_555
H34 C29 1_555 1_555
C30 C29 1_555 1_555
H35 C30 1_555 1_555
C31 C26 1_555 1_555
C32 C33 1_555 1_555
C33 C34 1_555 1_555
C34 H36 1_555 1_555
C35 C34 1_555 1_555
H37 C35 1_555 1_555
C36 C35 1_555 1_555
H38 C36 1_555 1_555
C37 C32 1_555 1_555
C38 C33 1_555 1_555
H39 C38 1_555 1_555
C39 C38 1_555 1_555
H40 C39 1_555 1_555
H41 C39 1_555 1_555
H42 C39 1_555 1_555
C40 C38 1_555 1_555
H43 C40 1_555 1_555
H44 C40 1_555 1_555
H45 C40 1_555 1_555
C41 C37 1_555 1_555
H46 C41 1_555 1_555
C42 C41 1_555 1_555
H47 C42 1_555 1_555
H48 C42 1_555 1_555
H49 C42 1_555 1_555
C43 C41 1_555 1_555
H50 C43 1_555 1_555
H51 C43 1_555 1_555
H52 C43 1_555 1_555
C44 H53 1_555 1_555
C45 C44 1_555 1_555
H54 C45 1_555 1_555
H55 C45 1_555 1_555
C46 C45 1_555 1_555
H56 C46 1_555 1_555
H57 C46 1_555 1_555
C47 C46 1_555 1_555
H58 C47 1_555 1_555
H59 C47 1_555 1_555
C48 C44 1_555 1_555
H60 C48 1_555 1_555
H61 C48 1_555 1_555
H62 N6 1_555 1_555
N4 C26 1_555 1_555
N5 C25 1_555 1_555
N6 C25 1_555 1_555
H63 O1 1_555 1_555
H64 O1 1_555 1_555
C6 C7 1_555 1_555
C7 N2 1_555 1_555
C8 N1 1_555 1_555
C12 C13 1_555 1_555
C20 N3 1_555 1_555
C23 C24 1_555 1_555
C30 C31 1_555 1_555
C31 N5 1_555 1_555
C32 N4 1_555 1_555
C36 C37 1_555 1_555
C44 N6 1_555 1_555
C47 C48 1_555 1_555

#END
