
#######################################################################
#
#                 Cambridge Crystallographic Data Centre
#                                CCDC 
#
#######################################################################
#
# If this CIF has been generated from an entry in the Cambridge 
# Structural Database, then it will include bibliographic, chemical, 
# crystal, experimental, refinement or atomic coordinate data resulting 
# from the CCDC's data processing and validation procedures.
#
#######################################################################

data_DOXZAT
_chemical_formula_moiety         'C15 H21 N3 O2'
_chemical_name_systematic        
'1-isopropyl-2-(isopropylamino)-1H-benzimidazol-6-yl acetate'
_symmetry_cell_setting           monoclinic
_symmetry_space_group_name_H-M   'P 21/c'
_symmetry_Int_Tables_number      14
_space_group_name_Hall           '-P 2ybc'
loop_
_symmetry_equiv_pos_site_id
_symmetry_equiv_pos_as_xyz
1 x,y,z
2 -x,1/2+y,1/2-z
3 -x,-y,-z
4 x,1/2-y,1/2+z
_cell_length_a                   16.8144(15)
_cell_length_b                   9.3105(8)
_cell_length_c                   9.4113(7)
_cell_angle_alpha                90
_cell_angle_beta                 98.400(7)
_cell_angle_gamma                90
_cell_volume                     1457.54
_cell_formula_units_Z            4
loop_
_atom_site_label
_atom_site_type_symbol
_atom_site_fract_x
_atom_site_fract_y
_atom_site_fract_z
C1 C 1.05072(16) 0.7951(3) 0.1183(3)
H1 H 1.0498 0.7989 0.0140
H2 H 1.1059 0.7784 0.1653
H3 H 1.0311 0.8864 0.1517
C2 C 0.99817(14) 0.6762(3) 0.1545(2)
C3 C 0.86269(13) 0.5975(3) 0.1255(2)
C4 C 0.82649(13) 0.5955(3) 0.2481(2)
H4 H 0.8425 0.6584 0.3265
C5 C 0.76492(13) 0.4953(2) 0.2496(2)
C6 C 0.74093(13) 0.4029(3) 0.1333(2)
C7 C 0.78044(13) 0.4062(3) 0.0132(2)
H5 H 0.7658 0.3420 -0.0647
C8 C 0.84158(13) 0.5055(3) 0.0100(2)
H6 H 0.8691 0.5106 -0.0712
C9 C 0.66515(12) 0.3524(2) 0.2921(2)
C10 C 0.71161(14) 0.5361(3) 0.4882(2)
H7 H 0.6665 0.4919 0.5314
C11 C 0.78827(15) 0.5114(3) 0.5936(2)
H8 H 0.7969 0.4081 0.6084
H9 H 0.7831 0.5573 0.6855
H10 H 0.8341 0.5531 0.5547
C12 C 0.69106(14) 0.6935(3) 0.4628(3)
H11 H 0.7332 0.7400 0.4173
H12 H 0.6873 0.7403 0.5548
H13 H 0.6394 0.7019 0.3998
C13 C 0.55461(13) 0.1817(3) 0.3001(2)
H14 H 0.5349 0.2076 0.1979
C14 C 0.59701(15) 0.0366(3) 0.3024(3)
H15 H 0.6451 0.0455 0.2554
H16 H 0.5605 -0.0345 0.2513
H17 H 0.6127 0.0057 0.4021
C15 C 0.48273(13) 0.1722(3) 0.3801(2)
H18 H 0.5009 0.1457 0.4803
H19 H 0.4453 0.0993 0.3349
H20 H 0.4556 0.2655 0.3767
N1 N 0.67793(10) 0.3133(2) 0.16215(18)
N2 N 0.71532(11) 0.4610(2) 0.35112(18)
N3 N 0.60722(10) 0.2973(2) 0.36464(18)
H21 H 0.6015 0.3312 0.4499
O1 O 1.01996(11) 0.5648(3) 0.2123(2)
O2 O 0.91978(9) 0.70587(19) 0.10996(17)
loop_
_geom_bond_atom_site_label_1
_geom_bond_atom_site_label_2
_geom_bond_site_symmetry_1
_geom_bond_site_symmetry_2
C1 H1 1_555 1_555
H2 C1 1_555 1_555
H3 C1 1_555 1_555
C2 C1 1_555 1_555
C3 C4 1_555 1_555
C4 H4 1_555 1_555
C5 C4 1_555 1_555
C6 C5 1_555 1_555
C7 C6 1_555 1_555
H5 C7 1_555 1_555
C8 C3 1_555 1_555
H6 C8 1_555 1_555
C9 N1 1_555 1_555
C10 H7 1_555 1_555
C11 C10 1_555 1_555
H8 C11 1_555 1_555
H9 C11 1_555 1_555
H10 C11 1_555 1_555
C12 C10 1_555 1_555
H11 C12 1_555 1_555
H12 C12 1_555 1_555
H13 C12 1_555 1_555
C13 H14 1_555 1_555
C14 C13 1_555 1_555
H15 C14 1_555 1_555
H16 C14 1_555 1_555
H17 C14 1_555 1_555
C15 C13 1_555 1_555
H18 C15 1_555 1_555
H19 C15 1_555 1_555
H20 C15 1_555 1_555
N1 C6 1_555 1_555
N2 C5 1_555 1_555
N3 C9 1_555 1_555
H21 N3 1_555 1_555
O1 C2 1_555 1_555
O2 C2 1_555 1_555
C3 O2 1_555 1_555
C7 C8 1_555 1_555
C9 N2 1_555 1_555
C10 N2 1_555 1_555
C13 N3 1_555 1_555

#END
