
#######################################################################
#
#                 Cambridge Crystallographic Data Centre
#                                CCDC 
#
#######################################################################
#
# If this CIF has been generated from an entry in the Cambridge 
# Structural Database, then it will include bibliographic, chemical, 
# crystal, experimental, refinement or atomic coordinate data resulting 
# from the CCDC's data processing and validation procedures.
#
#######################################################################

data_DOYBAW02
_chemical_formula_moiety         'C24 H19 N1 O3'
_chemical_name_systematic        
'ethyl 3-benzoyl-2-phenylindolizine-1-carboxylate'
_symmetry_cell_setting           monoclinic
_symmetry_space_group_name_H-M   'P 21/n'
_symmetry_Int_Tables_number      14
_space_group_name_Hall           '-P 2yn'
loop_
_symmetry_equiv_pos_site_id
_symmetry_equiv_pos_as_xyz
1 x,y,z
2 1/2-x,1/2+y,1/2-z
3 -x,-y,-z
4 1/2+x,1/2-y,1/2+z
_cell_length_a                   12.230(2)
_cell_length_b                   10.242(2)
_cell_length_c                   15.576(3)
_cell_angle_alpha                90
_cell_angle_beta                 100.47(3)
_cell_angle_gamma                90
_cell_volume                     1918.56
_exptl_crystal_colour            colorless
_exptl_crystal_description       block
_cell_formula_units_Z            4
_chemical_properties_physical    Air-sensitive
loop_
_atom_site_label
_atom_site_type_symbol
_atom_site_fract_x
_atom_site_fract_y
_atom_site_fract_z
C1 C 0.86403(12) 0.39359(15) 0.16410(10)
O1 O 0.97329(11) 0.36982(16) 0.39411(10)
C2 C 0.76604(14) 0.41102(16) 0.27316(12)
O2 O 0.54343(13) 0.55967(18) 0.11887(12)
C3 C 0.57695(14) 0.47929(19) 0.17536(12)
C4 C 0.69583(14) 0.44344(17) 0.19365(12)
N1 N 0.75790(15) 0.43416(17) 0.12672(12)
C5 C 0.97825(15) 0.3582(2) 0.31071(14)
C6 C 0.73235(14) 0.41160(17) 0.35960(12)
C7 C 0.49537(14) 0.41161(19) 0.22066(12)
C8 C 0.87097(15) 0.38218(18) 0.25479(12)
C9 C 0.67842(16) 0.5202(2) 0.38632(14)
H1 H 0.6667 0.5938 0.3509
C10 C 0.50964(17) 0.2841(2) 0.24994(14)
H2 H 0.5754 0.2402 0.2470
C11 C 0.94350(18) 0.3665(2) 0.11342(15)
H3 H 1.0140 0.3380 0.1392
C12 C 0.74886(17) 0.3033(2) 0.41411(13)
H4 H 0.7847 0.2301 0.3973
O3 O 1.06269(13) 0.3320(2) 0.28451(12)
C13 C 0.73275(18) 0.4510(2) 0.03591(13)
H5 H 0.6624 0.4794 0.0096
C14 C 0.39777(16) 0.4774(2) 0.22763(15)
H6 H 0.3879 0.5635 0.2089
C15 C 0.9167(2) 0.3822(2) 0.02599(16)
H7 H 0.9694 0.3636 -0.0085
C16 C 0.7125(2) 0.3035(3) 0.49312(16)
H8 H 0.7243 0.2306 0.5292
C17 C 0.6422(2) 0.5187(2) 0.46582(16)
H9 H 0.6062 0.5913 0.4833
C18 C 0.8111(2) 0.4261(2) -0.01374(15)
H10 H 0.7946 0.4381 -0.0739
C19 C 0.4262(2) 0.2218(3) 0.28363(18)
H11 H 0.4354 0.1356 0.3024
C20 C 0.6590(2) 0.4109(3) 0.51870(16)
H12 H 0.6343 0.4103 0.5717
C21 C 1.07402(19) 0.3426(3) 0.45649(17)
H13 H 1.1217 0.4190 0.4638
H14 H 1.1144 0.2712 0.4358
C22 C 0.31548(19) 0.4148(3) 0.26236(19)
H15 H 0.2506 0.4592 0.2675
C23 C 1.0422(2) 0.3077(3) 0.53981(16)
H16 H 1.1078 0.2896 0.5822
H17 H 0.9955 0.2317 0.5320
H18 H 1.0024 0.3790 0.5598
C24 C 0.3294(2) 0.2878(3) 0.28922(19)
H19 H 0.2732 0.2456 0.3114
loop_
_geom_bond_atom_site_label_1
_geom_bond_atom_site_label_2
_geom_bond_site_symmetry_1
_geom_bond_site_symmetry_2
C1 N1 1_555 1_555
O1 C5 1_555 1_555
C2 C4 1_555 1_555
O2 C3 1_555 1_555
C3 C4 1_555 1_555
C4 N1 1_555 1_555
N1 C13 1_555 1_555
C5 C8 1_555 1_555
C6 C2 1_555 1_555
C7 C3 1_555 1_555
C8 C1 1_555 1_555
C9 C6 1_555 1_555
H1 C9 1_555 1_555
C10 C7 1_555 1_555
H2 C10 1_555 1_555
C11 C1 1_555 1_555
H3 C11 1_555 1_555
C12 C6 1_555 1_555
H4 C12 1_555 1_555
O3 C5 1_555 1_555
C13 H5 1_555 1_555
C14 C7 1_555 1_555
H6 C14 1_555 1_555
C15 C11 1_555 1_555
H7 C15 1_555 1_555
C16 C12 1_555 1_555
H8 C16 1_555 1_555
C17 C9 1_555 1_555
H9 C17 1_555 1_555
C18 C13 1_555 1_555
H10 C18 1_555 1_555
C19 C10 1_555 1_555
H11 C19 1_555 1_555
C20 C16 1_555 1_555
H12 C20 1_555 1_555
C21 O1 1_555 1_555
H13 C21 1_555 1_555
H14 C21 1_555 1_555
C22 C14 1_555 1_555
H15 C22 1_555 1_555
C23 C21 1_555 1_555
H16 C23 1_555 1_555
H17 C23 1_555 1_555
H18 C23 1_555 1_555
C24 C19 1_555 1_555
H19 C24 1_555 1_555
C2 C8 1_555 1_555
C15 C18 1_555 1_555
C17 C20 1_555 1_555
C22 C24 1_555 1_555

#END
