
#######################################################################
#
#                 Cambridge Crystallographic Data Centre
#                                CCDC 
#
#######################################################################
#
# If this CIF has been generated from an entry in the Cambridge 
# Structural Database, then it will include bibliographic, chemical, 
# crystal, experimental, refinement or atomic coordinate data resulting 
# from the CCDC's data processing and validation procedures.
#
#######################################################################

data_DOYCID
_chemical_formula_moiety         'C6 H3 N5 O6'
_chemical_name_systematic        
4-Amino-5,7-dinitrobenz(1,2-c)(1,2,5)oxadiazole-3-oxide
_symmetry_cell_setting           monoclinic
_symmetry_space_group_name_H-M   'P 21'
_symmetry_Int_Tables_number      4
_space_group_name_Hall           'P 2yb'
loop_
_symmetry_equiv_pos_site_id
_symmetry_equiv_pos_as_xyz
1 x,y,z
2 -x,1/2+y,-z
_cell_length_a                   11.959(7)
_cell_length_b                   9.863(6)
_cell_length_c                   7.180(4)
_cell_angle_alpha                90
_cell_angle_beta                 98.131(1)
_cell_angle_gamma                90
_cell_volume                     838.379
_exptl_crystal_colour            'light tan'
_cell_formula_units_Z            4
_exptl_crystal_preparation       'insensitive explosive action'
loop_
_atom_site_label
_atom_site_type_symbol
_atom_site_fract_x
_atom_site_fract_y
_atom_site_fract_z
C1 C 0.1698(7) 0.248(1) 0.301(1)
C2 C 0.0897(7) 0.129(1) 0.300(1)
C3 C 0.1056(6) 0.070(1) 0.485(1)
C4 C 0.1862(8) 0.110(1) 0.643(1)
C5 C 0.2582(6) 0.2145(9) 0.632(1)
C6 C 0.2491(7) 0.289(1) 0.446(1)
N1 N 0.303(1) 0.387(1) 0.393(2)
N2 N 0.1752(7) 0.319(1) 0.143(1)
N3 N 0.0201(5) 0.0959(8) 0.1530(9)
N4 N 0.0417(7) -0.038(1) 0.531(1)
N5 N 0.3353(6) 0.265(1) 0.775(1)
O1 O 0.2591(7) 0.418(1) 0.192(1)
O2 O 0.1106(6) 0.314(1) -0.0052(8)
O3 O -0.0224(6) -0.104(1) 0.412(1)
O4 O 0.0583(6) -0.0884(9) 0.702(1)
O5 O 0.3372(6) 0.205(1) 0.933(1)
O6 O 0.3970(6) 0.357(1) 0.7620(9)
C7 C -0.3371(6) 0.2565(9) 0.306(1)
C8 C -0.4045(7) 0.361(1) 0.321(1)
C9 C -0.3942(7) 0.424(1) 0.495(1)
C10 C -0.3180(9) 0.379(1) 0.650(1)
C11 C -0.2449(7) 0.269(1) 0.621(1)
C12 C -0.2505(6) 0.209(1) 0.460(1)
N6 N -0.193(1) 0.101(2) 0.388(2)
N7 N -0.3328(6) 0.1715(1) 0.153(1)
N8 N -0.4805(7) 0.411(1) 0.174(1)
N9 N -0.4543(6) 0.546(1) 0.531(1)
N10 N -0.1558(7) 0.245(1) 0.796(1)
O7 O -0.2474(7) 0.081(1) 0.184(1)
O8 O -0.3834(5) 0.172(1) -0.007(1)
O9 O -0.5182(6) 0.6023(8) 0.4162(9)
O10 O -0.4324(7) 0.579(1) 0.703(1)
O11 O -0.1510(7) 0.305(1) 0.932(1)
O12 O -0.0912(6) 0.145(1) 0.760(1)
loop_
_geom_bond_atom_site_label_1
_geom_bond_atom_site_label_2
_geom_bond_site_symmetry_1
_geom_bond_site_symmetry_2
C1 C2 1_555 1_555
C2 C3 1_555 1_555
C3 C4 1_555 1_555
C4 C5 1_555 1_555
C5 C6 1_555 1_555
C6 C1 1_555 1_555
N1 C6 1_555 1_555
N2 C1 1_555 1_555
N3 C2 1_555 1_555
N4 C3 1_555 1_555
N5 C5 1_555 1_555
O1 N1 1_555 1_555
O2 N2 1_555 1_555
O3 N4 1_555 1_555
O4 N4 1_555 1_555
O5 N5 1_555 1_555
O6 N5 1_555 1_555
C7 C8 1_555 1_555
C8 C9 1_555 1_555
C9 C10 1_555 1_555
C10 C11 1_555 1_555
C11 C12 1_555 1_555
C12 C7 1_555 1_555
N6 C12 1_555 1_555
N7 C7 1_555 1_555
N8 C8 1_555 1_555
N9 C9 1_555 1_555
N10 C11 1_555 1_555
O7 N6 1_555 1_555
O8 N7 1_555 1_555
O9 N9 1_555 1_555
O10 N9 1_555 1_555
O11 N10 1_555 1_555
O12 N10 1_555 1_555
N2 O1 1_555 1_555
N7 O7 1_555 1_555

#END
