
#######################################################################
#
#                 Cambridge Crystallographic Data Centre
#                                CCDC 
#
#######################################################################
#
# If this CIF has been generated from an entry in the Cambridge 
# Structural Database, then it will include bibliographic, chemical, 
# crystal, experimental, refinement or atomic coordinate data resulting 
# from the CCDC's data processing and validation procedures.
#
#######################################################################

data_DOYHUV
_chemical_formula_moiety         'C24 H23 N1 O5'
_chemical_name_systematic        
'7a-Ethyl 2-methyl 5-oxo-1,7-diphenyl-6,7-dihydro-1H-pyrrolizine-2,7a(5H)-dicarboxylate'
_symmetry_cell_setting           orthorhombic
_symmetry_space_group_name_H-M   'P 21 21 21'
_symmetry_Int_Tables_number      19
_space_group_name_Hall           'P 2ac 2ab'
loop_
_symmetry_equiv_pos_site_id
_symmetry_equiv_pos_as_xyz
1 x,y,z
2 1/2-x,-y,1/2+z
3 -x,1/2+y,1/2-z
4 1/2+x,1/2-y,-z
_cell_length_a                   8.3562(17)
_cell_length_b                   9.7218(19)
_cell_length_c                   26.061(5)
_cell_angle_alpha                90
_cell_angle_beta                 90
_cell_angle_gamma                90
_cell_volume                     2117.13
_exptl_crystal_colour            white
_chemical_melting_point          '148-150 deg.C'
_cell_formula_units_Z            4
loop_
_atom_site_label
_atom_site_type_symbol
_atom_site_fract_x
_atom_site_fract_y
_atom_site_fract_z
C1 C 0.5135(3) 0.8242(3) 0.28740(10)
H1 H 0.5613 0.7416 0.2779
C2 C 0.3605(4) 0.8556(4) 0.26996(13)
H2 H 0.3059 0.7930 0.2494
C3 C 0.2898(4) 0.9770(4) 0.28274(14)
H3 H 0.1875 0.9974 0.2710
C4 C 0.3709(4) 1.0693(4) 0.31327(14)
H4 H 0.3235 1.1527 0.3220
C5 C 0.5228(4) 1.0385(3) 0.33099(11)
H5 H 0.5769 1.1015 0.3515
C6 C 0.5948(3) 0.9149(3) 0.31860(9)
C7 C 0.7588(3) 0.8803(2) 0.34028(9)
H6 H 0.8119 0.9663 0.3501
C8 C 0.7560(3) 0.7819(3) 0.38818(9)
C9 C 0.9411(3) 0.6970(3) 0.32762(9)
H7 H 1.0165 0.6395 0.3126
C10 C 0.8692(3) 0.8015(3) 0.30402(9)
C11 C 0.9010(3) 0.8487(3) 0.25191(9)
C12 C 1.0314(4) 0.7970(4) 0.17356(10)
H8 H 1.0937 0.7250 0.1582
H9 H 1.0931 0.8803 0.1744
H10 H 0.9360 0.8116 0.1538
C13 C 0.9589(4) 0.6336(3) 0.42135(10)
C14 C 0.8730(4) 0.7030(3) 0.46560(10)
H11 H 0.9479 0.7260 0.4927
H12 H 0.7912 0.6429 0.4796
C15 C 0.7970(3) 0.8342(3) 0.44314(9)
H13 H 0.6973 0.8540 0.4615
C16 C 0.9029(4) 0.9592(3) 0.44489(9)
C17 C 1.0670(4) 0.9540(3) 0.43699(11)
H14 H 1.1159 0.8702 0.4299
C18 C 1.1590(4) 1.0727(4) 0.43958(13)
H15 H 1.2687 1.0681 0.4338
C19 C 1.0885(6) 1.1972(4) 0.45066(12)
H16 H 1.1507 1.2762 0.4531
C20 C 0.5945(3) 0.7056(3) 0.39112(10)
C21 C 0.9269(6) 1.2042(4) 0.45807(12)
H17 H 0.8785 1.2884 0.4648
C22 C 0.8359(4) 1.0862(4) 0.45556(11)
H18 H 0.7263 1.0921 0.4612
C23 C 0.4489(5) 0.5081(5) 0.3629(2)
H19 H 0.3594 0.5662 0.3725
H20 H 0.4309 0.4755 0.3282
C24 C 0.4575(7) 0.3962(5) 0.3963(2)
H21 H 0.3598 0.3444 0.3944
H22 H 0.4728 0.4286 0.4307
H23 H 0.5457 0.3384 0.3867
N1 N 0.8874(3) 0.6862(2) 0.37794(8)
O1 O 0.8549(3) 0.9565(2) 0.23472(8)
O2 O 0.9882(2) 0.7580(2) 0.22549(6)
O3 O 0.5980(3) 0.5888(2) 0.36468(10)
O4 O 0.4818(2) 0.7508(3) 0.41353(7)
O5 O 1.0684(3) 0.5525(2) 0.42243(9)
loop_
_geom_bond_atom_site_label_1
_geom_bond_atom_site_label_2
_geom_bond_site_symmetry_1
_geom_bond_site_symmetry_2
C1 H1 1_555 1_555
C2 C1 1_555 1_555
H2 C2 1_555 1_555
C3 C2 1_555 1_555
H3 C3 1_555 1_555
C4 C3 1_555 1_555
H4 C4 1_555 1_555
C5 C4 1_555 1_555
H5 C5 1_555 1_555
C6 C1 1_555 1_555
C7 C6 1_555 1_555
H6 C7 1_555 1_555
C8 C7 1_555 1_555
C9 H7 1_555 1_555
C10 C7 1_555 1_555
C11 C10 1_555 1_555
C12 H8 1_555 1_555
H9 C12 1_555 1_555
H10 C12 1_555 1_555
C13 C14 1_555 1_555
C14 H11 1_555 1_555
H12 C14 1_555 1_555
C15 C8 1_555 1_555
H13 C15 1_555 1_555
C16 C15 1_555 1_555
C17 C16 1_555 1_555
H14 C17 1_555 1_555
C18 C17 1_555 1_555
H15 C18 1_555 1_555
C19 C18 1_555 1_555
H16 C19 1_555 1_555
C20 C8 1_555 1_555
C21 C19 1_555 1_555
H17 C21 1_555 1_555
C22 C16 1_555 1_555
H18 C22 1_555 1_555
C23 H19 1_555 1_555
H20 C23 1_555 1_555
C24 C23 1_555 1_555
H21 C24 1_555 1_555
H22 C24 1_555 1_555
H23 C24 1_555 1_555
N1 C8 1_555 1_555
O1 C11 1_555 1_555
O2 C11 1_555 1_555
O3 C20 1_555 1_555
O4 C20 1_555 1_555
O5 C13 1_555 1_555
C5 C6 1_555 1_555
C9 C10 1_555 1_555
C9 N1 1_555 1_555
C12 O2 1_555 1_555
C13 N1 1_555 1_555
C14 C15 1_555 1_555
C21 C22 1_555 1_555
C23 O3 1_555 1_555

#END
