
#######################################################################
#
#                 Cambridge Crystallographic Data Centre
#                                CCDC 
#
#######################################################################
#
# If this CIF has been generated from an entry in the Cambridge 
# Structural Database, then it will include bibliographic, chemical, 
# crystal, experimental, refinement or atomic coordinate data resulting 
# from the CCDC's data processing and validation procedures.
#
#######################################################################

data_DOYMAG
_chemical_formula_moiety         'C20 H23 N3'
_chemical_name_systematic        
((2E)-3-Cyclohexyl-1-(4-(dimethylamino)phenyl)prop-2-en-1-ylidene)malononitrile
_symmetry_cell_setting           monoclinic
_symmetry_space_group_name_H-M   'P 21/c'
_symmetry_Int_Tables_number      14
_space_group_name_Hall           '-P 2ybc'
loop_
_symmetry_equiv_pos_site_id
_symmetry_equiv_pos_as_xyz
1 x,y,z
2 -x,1/2+y,1/2-z
3 -x,-y,-z
4 x,1/2-y,1/2+z
_cell_length_a                   10.0678(3)
_cell_length_b                   15.9325(5)
_cell_length_c                   11.7652(4)
_cell_angle_alpha                90
_cell_angle_beta                 111.406(2)
_cell_angle_gamma                90
_cell_volume                     1757.02
_exptl_crystal_colour            amber
_exptl_crystal_description       plate
_chemical_melting_point          '128-130 deg.C'
_cell_formula_units_Z            4
_exptl_crystal_recrystallization_method pentane/chloroform
loop_
_atom_site_label
_atom_site_type_symbol
_atom_site_fract_x
_atom_site_fract_y
_atom_site_fract_z
N1 N 0.76075(16) 0.12204(12) 0.44830(13)
N2 N 0.91073(16) 0.09339(10) 0.84220(14)
N3 N 0.39565(14) 0.10996(8) 1.04581(11)
C1 C 0.55399(15) 0.11085(8) 0.63029(13)
C2 C 0.44304(16) 0.10909(9) 0.50778(13)
C3 C 0.31134(16) 0.13892(10) 0.47947(13)
C4 C 0.20068(15) 0.14086(10) 0.35344(13)
C5 C 0.18028(18) 0.23100(11) 0.30350(16)
C6 C 0.0675(2) 0.23482(13) 0.17475(18)
C7 C -0.0730(2) 0.19772(13) 0.1697(2)
C8 C -0.0540(2) 0.10906(12) 0.2216(2)
C9 C 0.05819(18) 0.10514(11) 0.34988(17)
C10 C 0.69461(16) 0.11051(9) 0.64012(13)
C11 C 0.73196(15) 0.11656(10) 0.53390(14)
C12 C 0.81344(16) 0.10115(9) 0.75387(14)
C13 C 0.51344(15) 0.11226(8) 0.73734(12)
C14 C 0.58609(15) 0.16150(9) 0.84115(12)
C15 C 0.54793(15) 0.16153(9) 0.94174(13)
C16 C 0.43484(15) 0.11108(8) 0.94688(12)
C17 C 0.36126(16) 0.06200(9) 0.84256(13)
C18 C 0.39864(16) 0.06391(9) 0.74148(13)
C19 C 0.4788(2) 0.15450(12) 1.15649(15)
C20 C 0.28016(19) 0.05604(11) 1.04807(16)
H1 H 0.4705(17) 0.0863(11) 0.4446(15)
H2 H 0.2853(17) 0.1637(10) 0.5448(15)
H3 H 0.2391(18) 0.1071(11) 0.3027(15)
H4 H 0.2801(19) 0.0285(11) 0.8426(14)
H5 H 0.6624(18) 0.1977(11) 0.8428(14)
H6 H 0.5959(18) 0.1982(12) 1.0091(15)
H7 H 0.270(2) 0.2545(12) 0.3038(17)
H8 H 0.0215(19) 0.1438(12) 0.4055(16)
H9 H 0.3473(18) 0.0286(12) 0.6743(16)
H10 H 0.074(2) 0.0471(13) 0.3800(16)
H11 H -0.027(2) 0.0713(14) 0.1659(18)
H12 H 0.104(3) 0.1983(17) 0.113(2)
H13 H 0.191(2) 0.0713(14) 0.9812(19)
H14 H -0.143(3) 0.0868(15) 0.225(2)
H15 H 0.269(3) 0.0604(17) 1.129(2)
H16 H 0.299(2) -0.0033(15) 1.0367(18)
H17 H 0.146(2) 0.2656(13) 0.3619(17)
H18 H 0.439(3) 0.1457(17) 1.219(2)
H19 H -0.115(3) 0.2319(17) 0.218(2)
H20 H 0.054(2) 0.2941(15) 0.1471(18)
H21 H -0.146(3) 0.1976(18) 0.083(2)
H22 H 0.575(3) 0.1365(17) 1.191(2)
H23 H 0.476(3) 0.2155(18) 1.142(2)
loop_
_geom_bond_atom_site_label_1
_geom_bond_atom_site_label_2
_geom_bond_site_symmetry_1
_geom_bond_site_symmetry_2
N1 C11 1_555 1_555
N2 C12 1_555 1_555
N3 C16 1_555 1_555
C1 C2 1_555 1_555
C2 C3 1_555 1_555
C3 C4 1_555 1_555
C4 C5 1_555 1_555
C5 C6 1_555 1_555
C6 C7 1_555 1_555
C7 C8 1_555 1_555
C8 C9 1_555 1_555
C9 C4 1_555 1_555
C10 C1 1_555 1_555
C11 C10 1_555 1_555
C12 C10 1_555 1_555
C13 C1 1_555 1_555
C14 C13 1_555 1_555
C15 C14 1_555 1_555
C16 C15 1_555 1_555
C17 C16 1_555 1_555
C18 C13 1_555 1_555
C19 N3 1_555 1_555
C20 N3 1_555 1_555
H1 C2 1_555 1_555
H2 C3 1_555 1_555
H3 C4 1_555 1_555
H4 C17 1_555 1_555
H5 C14 1_555 1_555
H6 C15 1_555 1_555
H7 C5 1_555 1_555
H8 C9 1_555 1_555
H9 C18 1_555 1_555
H10 C9 1_555 1_555
H11 C8 1_555 1_555
H12 C6 1_555 1_555
H13 C20 1_555 1_555
H14 C8 1_555 1_555
H15 C20 1_555 1_555
H16 C20 1_555 1_555
H17 C5 1_555 1_555
H18 C19 1_555 1_555
H19 C7 1_555 1_555
H20 C6 1_555 1_555
H21 C7 1_555 1_555
H22 C19 1_555 1_555
H23 C19 1_555 1_555
C17 C18 1_555 1_555

#END
