
#######################################################################
#
#                 Cambridge Crystallographic Data Centre
#                                CCDC 
#
#######################################################################
#
# If this CIF has been generated from an entry in the Cambridge 
# Structural Database, then it will include bibliographic, chemical, 
# crystal, experimental, refinement or atomic coordinate data resulting 
# from the CCDC's data processing and validation procedures.
#
#######################################################################

data_DOYMUA
_chemical_formula_moiety         'C19 H18 N2 O2'
_chemical_name_systematic        
'Ethyl 3-methyl-1,5-diphenyl-1H-pyrazole-4-carboxylate'
_symmetry_cell_setting           monoclinic
_symmetry_space_group_name_H-M   'P 21/n'
_symmetry_Int_Tables_number      14
_space_group_name_Hall           '-P 2yn'
loop_
_symmetry_equiv_pos_site_id
_symmetry_equiv_pos_as_xyz
1 x,y,z
2 1/2-x,1/2+y,1/2-z
3 -x,-y,-z
4 1/2+x,1/2-y,1/2+z
_cell_length_a                   10.468(8)
_cell_length_b                   15.676(12)
_cell_length_c                   10.469(8)
_cell_angle_alpha                90
_cell_angle_beta                 103.79
_cell_angle_gamma                90
_cell_volume                     1668.41
_exptl_crystal_colour            colorless
_exptl_crystal_description       block
_cell_formula_units_Z            4
loop_
_atom_site_label
_atom_site_type_symbol
_atom_site_fract_x
_atom_site_fract_y
_atom_site_fract_z
C1 C 0.6757(3) 0.10107(18) 0.1206(3)
C2 C 0.7251(3) 0.03934(18) 0.2145(3)
C3 C 0.6218(4) 0.01559(19) 0.2697(3)
C4 C 0.7324(3) 0.14942(18) 0.0267(3)
C5 C 0.8419(3) 0.2009(2) 0.0713(3)
H1 H 0.8817 0.2046 0.1606
C6 C 0.8900(4) 0.2462(2) -0.0191(5)
H2 H 0.9636 0.2806 0.0100
C7 C 0.8325(5) 0.2424(3) -0.1519(5)
H3 H 0.8656 0.2751 -0.2108
C8 C 0.7265(5) 0.1903(3) -0.1968(4)
H4 H 0.6887 0.1859 -0.2865
C9 C 0.6765(3) 0.1446(2) -0.1078(4)
H5 H 0.6038 0.1096 -0.1380
C10 C 0.8534(4) -0.0007(2) 0.2506(4)
C11 C 1.0605(4) -0.0110(3) 0.1932(4)
H6 H 1.0689 -0.0611 0.2489
H7 H 1.0828 -0.0272 0.1118
C12 C 1.1481(4) 0.0522(3) 0.2564(5)
H8 H 1.1321 0.1042 0.2066
H9 H 1.2368 0.0338 0.2630
H10 H 1.1350 0.0619 0.3430
C13 C 0.6150(3) -0.0489(2) 0.3742(3)
H11 H 0.5248 -0.0582 0.3761
H12 H 0.6629 -0.0281 0.4583
H13 H 0.6530 -0.1017 0.3550
C14 C 0.4529(3) 0.1709(2) 0.0575(3)
C15 C 0.4835(3) 0.2568(2) 0.0513(3)
H14 H 0.5678 0.2768 0.0884
C16 C 0.3850(3) 0.3115(2) -0.0117(3)
H15 H 0.4030 0.3695 -0.0153
C17 C 0.2638(3) 0.2826(2) -0.0680(3)
H16 H 0.1993 0.3202 -0.1118
C18 C 0.2354(3) 0.1970(3) -0.0606(3)
H17 H 0.1511 0.1769 -0.0977
C19 C 0.3323(3) 0.14166(19) 0.0020(3)
H18 H 0.3140 0.0838 0.0057
N1 N 0.5141(2) 0.05966(17) 0.2187(3)
N2 N 0.5498(2) 0.11232(14) 0.1275(2)
O1 O 0.8907(2) -0.04577(17) 0.3436(2)
O2 O 0.9259(2) 0.01921(15) 0.1649(3)
loop_
_geom_bond_atom_site_label_1
_geom_bond_atom_site_label_2
_geom_bond_site_symmetry_1
_geom_bond_site_symmetry_2
C1 C2 1_555 1_555
C2 C3 1_555 1_555
C3 C13 1_555 1_555
C4 C1 1_555 1_555
C5 C4 1_555 1_555
H1 C5 1_555 1_555
C6 C5 1_555 1_555
H2 C6 1_555 1_555
C7 C6 1_555 1_555
H3 C7 1_555 1_555
C8 C7 1_555 1_555
H4 C8 1_555 1_555
C9 C4 1_555 1_555
H5 C9 1_555 1_555
C10 C2 1_555 1_555
C11 H6 1_555 1_555
H7 C11 1_555 1_555
C12 C11 1_555 1_555
H8 C12 1_555 1_555
H9 C12 1_555 1_555
H10 C12 1_555 1_555
C13 H11 1_555 1_555
H12 C13 1_555 1_555
H13 C13 1_555 1_555
C14 C15 1_555 1_555
C15 H14 1_555 1_555
C16 C15 1_555 1_555
H15 C16 1_555 1_555
C17 C16 1_555 1_555
H16 C17 1_555 1_555
C18 C17 1_555 1_555
H17 C18 1_555 1_555
C19 C14 1_555 1_555
H18 C19 1_555 1_555
N1 C3 1_555 1_555
N2 C1 1_555 1_555
O1 C10 1_555 1_555
O2 C10 1_555 1_555
C8 C9 1_555 1_555
C11 O2 1_555 1_555
C14 N2 1_555 1_555
C18 C19 1_555 1_555
N1 N2 1_555 1_555

#END
