
#######################################################################
#
#                 Cambridge Crystallographic Data Centre
#                                CCDC 
#
#######################################################################
#
# If this CIF has been generated from an entry in the Cambridge 
# Structural Database, then it will include bibliographic, chemical, 
# crystal, experimental, refinement or atomic coordinate data resulting 
# from the CCDC's data processing and validation procedures.
#
#######################################################################

data_DOYNAH
_chemical_formula_moiety         'C25 H19 F3 N2 O2'
_chemical_name_systematic        
'Ethyl 1,3-diphenyl-5-(4-(trifluoromethyl)phenyl)-1H-pyrazole-4-carboxylate'
_symmetry_cell_setting           monoclinic
_symmetry_space_group_name_H-M   'P 21/c'
_symmetry_Int_Tables_number      14
_space_group_name_Hall           '-P 2ybc'
loop_
_symmetry_equiv_pos_site_id
_symmetry_equiv_pos_as_xyz
1 x,y,z
2 -x,1/2+y,1/2-z
3 -x,-y,-z
4 x,1/2-y,1/2+z
_cell_length_a                   12.182(2)
_cell_length_b                   19.321(4)
_cell_length_c                   9.0766(17)
_cell_angle_alpha                90
_cell_angle_beta                 98.535(4)
_cell_angle_gamma                90
_cell_volume                     2112.69
_exptl_crystal_colour            colorless
_exptl_crystal_description       block
_cell_formula_units_Z            4
loop_
_atom_site_label
_atom_site_type_symbol
_atom_site_fract_x
_atom_site_fract_y
_atom_site_fract_z
C1 C 0.42143(12) -0.00783(8) 0.23918(17)
C2 C 0.52595(12) 0.01402(8) 0.21314(17)
C3 C 0.59930(13) -0.04107(8) 0.26291(18)
C4 C 0.31282(12) 0.02830(8) 0.22084(19)
C5 C 0.28976(13) 0.07314(8) 0.33191(19)
H1 H 0.3408 0.0777 0.4213
C6 C 0.19227(14) 0.11111(8) 0.3121(2)
H2 H 0.1771 0.1423 0.3875
C7 C 0.11738(13) 0.10385(8) 0.1839(2)
C8 C 0.13863(13) 0.05771(8) 0.07556(19)
H3 H 0.0862 0.0518 -0.0120
C9 C 0.23633(13) 0.02005(8) 0.09460(19)
H4 H 0.2507 -0.0117 0.0199
C10 C 0.01777(16) 0.14902(10) 0.1537(2)
C11 C 0.55085(14) 0.07813(8) 0.13835(19)
C12 C 0.47894(14) 0.18771(8) 0.0530(2)
H5 H 0.4822 0.1785 -0.0535
H6 H 0.5478 0.2120 0.0965
C13 C 0.37908(14) 0.23078(8) 0.0697(2)
H7 H 0.3117 0.2061 0.0264
H8 H 0.3834 0.2750 0.0180
H9 H 0.3769 0.2394 0.1757
C14 C 0.72133(13) -0.04934(8) 0.27682(18)
C15 C 0.76554(13) -0.11515(8) 0.26629(19)
H10 H 0.7172 -0.1534 0.2425
C16 C 0.87861(14) -0.12555(10) 0.2899(2)
H11 H 0.9076 -0.1708 0.2816
C17 C 0.95017(14) -0.07062(10) 0.3255(2)
H12 H 1.0282 -0.0779 0.3427
C18 C 0.90699(13) -0.00500(9) 0.33558(18)
H13 H 0.9557 0.0331 0.3590
C19 C 0.79367(13) 0.00565(9) 0.31188(18)
H14 H 0.7650 0.0510 0.3197
C20 C 0.35647(13) -0.11804(8) 0.3481(2)
C21 C 0.26654(13) -0.14078(8) 0.2516(2)
H15 H 0.2554 -0.1261 0.1506
C22 C 0.19217(14) -0.18546(8) 0.3036(2)
H16 H 0.1290 -0.2013 0.2381
C23 C 0.20920(15) -0.20697(8) 0.4493(2)
H17 H 0.1574 -0.2372 0.4847
C24 C 0.30126(15) -0.18489(8) 0.5444(2)
H18 H 0.3134 -0.2005 0.6448
C25 C 0.37601(13) -0.14001(8) 0.4940(2)
H19 H 0.4397 -0.1246 0.5589
F1 F -0.06937(8) 0.11876(5) 0.07527(14)
F2 F -0.01637(9) 0.17234(6) 0.27744(14)
F3 F 0.03729(9) 0.20557(6) 0.07641(15)
N1 N 0.43624(10) -0.07213(6) 0.29780(14)
N2 N 0.54415(10) -0.09326(6) 0.31487(15)
O1 O 0.63517(9) 0.09023(5) 0.08833(13)
O2 O 0.46719(9) 0.12354(5) 0.13156(13)
loop_
_geom_bond_atom_site_label_1
_geom_bond_atom_site_label_2
_geom_bond_site_symmetry_1
_geom_bond_site_symmetry_2
C1 C2 1_555 1_555
C2 C3 1_555 1_555
C3 C14 1_555 1_555
C4 C1 1_555 1_555
C5 C4 1_555 1_555
H1 C5 1_555 1_555
C6 C5 1_555 1_555
H2 C6 1_555 1_555
C7 C6 1_555 1_555
C8 C7 1_555 1_555
H3 C8 1_555 1_555
C9 C4 1_555 1_555
H4 C9 1_555 1_555
C10 C7 1_555 1_555
C11 C2 1_555 1_555
C12 H5 1_555 1_555
H6 C12 1_555 1_555
C13 C12 1_555 1_555
H7 C13 1_555 1_555
H8 C13 1_555 1_555
H9 C13 1_555 1_555
C14 C15 1_555 1_555
C15 H10 1_555 1_555
C16 C15 1_555 1_555
H11 C16 1_555 1_555
C17 C16 1_555 1_555
H12 C17 1_555 1_555
C18 C17 1_555 1_555
H13 C18 1_555 1_555
C19 C14 1_555 1_555
H14 C19 1_555 1_555
C20 C21 1_555 1_555
C21 H15 1_555 1_555
C22 C21 1_555 1_555
H16 C22 1_555 1_555
C23 C22 1_555 1_555
H17 C23 1_555 1_555
C24 C23 1_555 1_555
H18 C24 1_555 1_555
C25 C20 1_555 1_555
H19 C25 1_555 1_555
F1 C10 1_555 1_555
F2 C10 1_555 1_555
F3 C10 1_555 1_555
N1 C1 1_555 1_555
N2 C3 1_555 1_555
O1 C11 1_555 1_555
O2 C11 1_555 1_555
C8 C9 1_555 1_555
C12 O2 1_555 1_555
C18 C19 1_555 1_555
C20 N1 1_555 1_555
C24 C25 1_555 1_555
N1 N2 1_555 1_555

#END
