
#######################################################################
#
#                 Cambridge Crystallographic Data Centre
#                                CCDC 
#
#######################################################################
#
# If this CIF has been generated from an entry in the Cambridge 
# Structural Database, then it will include bibliographic, chemical, 
# crystal, experimental, refinement or atomic coordinate data resulting 
# from the CCDC's data processing and validation procedures.
#
#######################################################################

data_DOYRAM
_chemical_formula_moiety         'C24 H23 N1 O4,H2 O1'
_chemical_name_systematic        
'Dimethyl (1R,4R)-4-phenyl-1-vinyl-1,2,4,9-tetrahydro-3H-carbazole-3,3-dicarboxylate monohydrate'
_symmetry_cell_setting           orthorhombic
_symmetry_space_group_name_H-M   'P 21 21 21'
_symmetry_Int_Tables_number      19
_space_group_name_Hall           'P 2ac 2ab'
loop_
_symmetry_equiv_pos_site_id
_symmetry_equiv_pos_as_xyz
1 x,y,z
2 1/2-x,-y,1/2+z
3 1/2+x,1/2-y,-z
4 -x,1/2+y,1/2-z
_cell_length_a                   9.04190(10)
_cell_length_b                   12.2803(2)
_cell_length_c                   19.0748(2)
_cell_angle_alpha                90
_cell_angle_beta                 90
_cell_angle_gamma                90
_cell_volume                     2118.01
_cell_formula_units_Z            4
loop_
_atom_site_label
_atom_site_type_symbol
_atom_site_fract_x
_atom_site_fract_y
_atom_site_fract_z
O1 O 0.68157(16) 0.69645(10) 1.03946(7)
O2 O 0.92026(14) 0.49688(13) 1.04655(7)
O3 O 0.45387(15) 0.62585(12) 1.04396(9)
O4 O 0.73929(16) 0.48072(13) 1.12580(6)
C1 C 0.85882(19) 0.39623(14) 0.84543(9)
C2 C 0.79142(19) 0.49562(14) 1.06134(9)
C3 C 0.72393(18) 0.52795(13) 0.93399(8)
H1 H 0.8150 0.5708 0.9378
C4 C 0.76489(19) 0.41906(14) 0.90432(8)
N1 N 0.77303(18) 0.23798(12) 0.88954(8)
H2 H 0.7562 0.1697 0.8958
C5 C 0.71540(19) 0.32189(14) 0.92921(9)
C6 C 0.8614(2) 0.28170(15) 0.83854(9)
C7 C 0.5012(2) 0.53965(18) 0.85246(10)
H3 H 0.4851 0.4655 0.8588
C8 C 0.61874(19) 0.59046(14) 0.88632(8)
C9 C 0.55388(18) 0.41465(14) 1.01489(9)
H4 H 0.4684 0.4307 0.9860
H5 H 0.5199 0.4083 1.0629
C10 C 0.9444(2) 0.45996(17) 0.80011(9)
H6 H 0.9439 0.5355 0.8038
C11 C 0.6183(2) 0.30370(14) 0.99186(10)
H7 H 0.5355 0.2578 0.9769
C12 C 0.6423(2) 0.70118(15) 0.87419(10)
H8 H 0.7211 0.7363 0.8959
C13 C 0.9476(3) 0.23010(18) 0.78800(11)
H9 H 0.9490 0.1546 0.7840
C14 C 0.5838(2) 0.61596(14) 1.03348(9)
C15 C 0.7009(2) 0.24311(16) 1.04834(10)
H10 H 0.7782 0.2788 1.0708
C16 C 0.66225(17) 0.51139(14) 1.01022(8)
C17 C 1.0295(3) 0.4090(2) 0.74980(12)
H11 H 1.0865 0.4506 0.7193
C18 C 0.8453(3) 0.4588(3) 1.18087(11)
H12 H 0.7952 0.4279 1.2205
H13 H 0.8925 0.5255 1.1945
H14 H 0.9184 0.4085 1.1641
C19 C 1.0308(3) 0.2949(2) 0.74415(12)
H15 H 1.0893 0.2623 0.7100
C20 C 0.4322(3) 0.7092(2) 0.79812(13)
H16 H 0.3694 0.7488 0.7691
C21 C 0.6702(3) 0.14314(19) 1.06768(13)
H17 H 0.5935 0.1054 1.0461
H18 H 0.7252 0.1100 1.1029
C22 C 0.6245(3) 0.80257(17) 1.05701(14)
H19 H 0.5809 0.8004 1.1029
H20 H 0.5509 0.8234 1.0233
H21 H 0.7036 0.8547 1.0565
C23 C 0.4074(3) 0.5994(2) 0.80912(12)
H22 H 0.3277 0.5653 0.7875
C24 C 0.5494(3) 0.7595(2) 0.83010(13)
H23 H 0.5668 0.8331 0.8222
O5 O 0.71793(18) 0.00531(13) 0.89543(9)
H24 H 0.629(4) -0.003(3) 0.9164(17)
H25 H 0.776(4) -0.037(3) 0.9195(17)
loop_
_geom_bond_atom_site_label_1
_geom_bond_atom_site_label_2
_geom_bond_site_symmetry_1
_geom_bond_site_symmetry_2
O1 C14 1_555 1_555
O2 C2 1_555 1_555
O3 C14 1_555 1_555
O4 C2 1_555 1_555
C1 C4 1_555 1_555
C2 C16 1_555 1_555
C3 H1 1_555 1_555
C4 C3 1_555 1_555
N1 H2 1_555 1_555
C5 C4 1_555 1_555
C6 C1 1_555 1_555
C7 H3 1_555 1_555
C8 C3 1_555 1_555
C9 H4 1_555 1_555
H5 C9 1_555 1_555
C10 C1 1_555 1_555
H6 C10 1_555 1_555
C11 C5 1_555 1_555
H7 C11 1_555 1_555
C12 C8 1_555 1_555
H8 C12 1_555 1_555
C13 C6 1_555 1_555
H9 C13 1_555 1_555
C14 C16 1_555 1_555
C15 C11 1_555 1_555
H10 C15 1_555 1_555
C16 C3 1_555 1_555
C17 C10 1_555 1_555
H11 C17 1_555 1_555
C18 O4 1_555 1_555
H12 C18 1_555 1_555
H13 C18 1_555 1_555
H14 C18 1_555 1_555
C19 C13 1_555 1_555
H15 C19 1_555 1_555
C20 H16 1_555 1_555
C21 C15 1_555 1_555
H17 C21 1_555 1_555
H18 C21 1_555 1_555
C22 O1 1_555 1_555
H19 C22 1_555 1_555
H20 C22 1_555 1_555
H21 C22 1_555 1_555
C23 C7 1_555 1_555
H22 C23 1_555 1_555
C24 C12 1_555 1_555
H23 C24 1_555 1_555
O5 H24 1_555 1_555
H25 O5 1_555 1_555
N1 C5 1_555 1_555
N1 C6 1_555 1_555
C7 C8 1_555 1_555
C9 C11 1_555 1_555
C9 C16 1_555 1_555
C17 C19 1_555 1_555
C20 C23 1_555 1_555
C20 C24 1_555 1_555

#END
