
#######################################################################
#
#                 Cambridge Crystallographic Data Centre
#                                CCDC 
#
#######################################################################
#
# If this CIF has been generated from an entry in the Cambridge 
# Structural Database, then it will include bibliographic, chemical, 
# crystal, experimental, refinement or atomic coordinate data resulting 
# from the CCDC's data processing and validation procedures.
#
#######################################################################

data_DOZBUR
_chemical_formula_moiety         'C25 H23 N1 O3 S1'
_chemical_name_systematic        
6-((4-methylphenyl)sulfonyl)-2,4-diphenyl-3,3a,6,6a-tetrahydro-2H-furo[2,3-b]pyrrole
_symmetry_cell_setting           monoclinic
_symmetry_space_group_name_H-M   'P n'
_symmetry_Int_Tables_number      7
_space_group_name_Hall           'P -2yac'
loop_
_symmetry_equiv_pos_site_id
_symmetry_equiv_pos_as_xyz
1 x,y,z
2 1/2+x,-y,1/2+z
_cell_length_a                   11.599(4)
_cell_length_b                   6.039(2)
_cell_length_c                   15.613(5)
_cell_angle_alpha                90
_cell_angle_beta                 110.218(5)
_cell_angle_gamma                90
_cell_volume                     1026.25
_exptl_crystal_colour            colorless
_exptl_crystal_description       block
_cell_formula_units_Z            2
loop_
_atom_site_label
_atom_site_type_symbol
_atom_site_fract_x
_atom_site_fract_y
_atom_site_fract_z
C1 C 0.4398(4) 0.4141(5) 1.0995(2)
H1 H 0.4626 0.5284 1.0667
C2 C 0.3464(3) 0.4526(6) 1.1341(2)
H2 H 0.3067 0.5926 1.1256
C3 C 0.3114(3) 0.2880(6) 1.1806(2)
H3 H 0.2458 0.3118 1.2028
C4 C 0.3720(3) 0.0887(6) 1.1949(2)
H4 H 0.3488 -0.0242 1.2281
C5 C 0.4673(3) 0.0494(5) 1.1614(2)
H5 H 0.5093 -0.0884 1.1724
C6 C 0.5000(3) 0.2138(5) 1.11169(19)
C7 C 0.5965(3) 0.1793(4) 1.0699(2)
H6 H 0.5716 0.2590 1.0101
C8 C 0.7283(3) 0.2441(5) 1.12629(19)
H7 H 0.7501 0.1960 1.1906
H8 H 0.7406 0.4060 1.1246
C9 C 0.8040(3) 0.1184(4) 1.07810(19)
H9 H 0.8841 0.0642 1.1219
C10 C 0.7159(3) -0.0748(5) 1.0315(2)
H10 H 0.7561 -0.2217 1.0511
C11 C 0.7506(3) 0.1580(4) 0.9209(2)
H11 H 0.7430 0.2187 0.8631
C12 C 0.8193(3) 0.2470(4) 0.99971(19)
C13 C 0.8998(3) 0.4424(4) 1.01332(19)
C14 C 0.9774(3) 0.5027(5) 1.0996(2)
H12 H 0.9804 0.4141 1.1507
C15 C 1.0506(3) 0.6902(5) 1.1129(2)
H13 H 1.1026 0.7284 1.1728
C16 C 1.0490(3) 0.8215(5) 1.0407(2)
H14 H 1.0985 0.9508 1.0500
C17 C 0.9730(3) 0.7602(5) 0.9533(2)
H15 H 0.9720 0.8473 0.9024
C18 C 0.8997(3) 0.5761(5) 0.9398(2)
H16 H 0.8480 0.5385 0.8797
C19 C 0.4399(3) -0.0235(4) 0.85097(19)
C20 C 0.4085(3) 0.1812(5) 0.8093(2)
H17 H 0.4574 0.2470 0.7783
C21 C 0.3046(3) 0.2894(5) 0.8133(2)
H18 H 0.2828 0.4297 0.7848
C22 C 0.2325(3) 0.1961(5) 0.8582(2)
C23 C 0.2638(3) -0.0130(5) 0.8962(2)
H19 H 0.2130 -0.0823 0.9248
C24 C 0.3664(3) -0.1221(5) 0.8934(2)
H20 H 0.3867 -0.2643 0.9205
C25 C 0.1235(3) 0.3211(6) 0.8655(3)
H21 H 0.0536 0.2200 0.8535
H22 H 0.1017 0.4415 0.8206
H23 H 0.1445 0.3828 0.9270
N1 N 0.6899(2) -0.0365(4) 0.93225(16)
O1 O 0.60895(18) -0.0542(3) 1.05404(13)
O2 O 0.5943(2) -0.1025(3) 0.76886(14)
O3 O 0.5724(2) -0.3799(3) 0.87939(15)
S1 S 0.57640(6) -0.15389(11) 0.85276(5)
loop_
_geom_bond_atom_site_label_1
_geom_bond_atom_site_label_2
_geom_bond_site_symmetry_1
_geom_bond_site_symmetry_2
C1 H1 1_555 1_555
C2 C1 1_555 1_555
H2 C2 1_555 1_555
C3 C2 1_555 1_555
H3 C3 1_555 1_555
C4 C3 1_555 1_555
H4 C4 1_555 1_555
C5 C4 1_555 1_555
H5 C5 1_555 1_555
C6 C1 1_555 1_555
C7 C6 1_555 1_555
H6 C7 1_555 1_555
C8 C7 1_555 1_555
H7 C8 1_555 1_555
H8 C8 1_555 1_555
C9 C8 1_555 1_555
H9 C9 1_555 1_555
C10 C9 1_555 1_555
H10 C10 1_555 1_555
C11 H11 1_555 1_555
C12 C9 1_555 1_555
C13 C12 1_555 1_555
C14 C13 1_555 1_555
H12 C14 1_555 1_555
C15 C14 1_555 1_555
H13 C15 1_555 1_555
C16 C15 1_555 1_555
H14 C16 1_555 1_555
C17 C16 1_555 1_555
H15 C17 1_555 1_555
C18 C13 1_555 1_555
H16 C18 1_555 1_555
C19 C20 1_555 1_555
C20 H17 1_555 1_555
C21 C20 1_555 1_555
H18 C21 1_555 1_555
C22 C21 1_555 1_555
C23 C22 1_555 1_555
H19 C23 1_555 1_555
C24 C19 1_555 1_555
H20 C24 1_555 1_555
C25 C22 1_555 1_555
H21 C25 1_555 1_555
H22 C25 1_555 1_555
H23 C25 1_555 1_555
N1 C10 1_555 1_555
O1 C7 1_555 1_555
O2 S1 1_555 1_555
O3 S1 1_555 1_555
S1 C19 1_555 1_555
C5 C6 1_555 1_555
C10 O1 1_555 1_555
C11 C12 1_555 1_555
C11 N1 1_555 1_555
C17 C18 1_555 1_555
C23 C24 1_555 1_555
N1 S1 1_555 1_555

#END
