
#######################################################################
#
#                 Cambridge Crystallographic Data Centre
#                                CCDC 
#
#######################################################################
#
# If this CIF has been generated from an entry in the Cambridge 
# Structural Database, then it will include bibliographic, chemical, 
# crystal, experimental, refinement or atomic coordinate data resulting 
# from the CCDC's data processing and validation procedures.
#
#######################################################################

data_DOZCAY
_chemical_formula_moiety         'C19 H19 N1 O3 S1'
_chemical_name_systematic        
6-((4-methylphenyl)sulfonyl)-4-phenyl-3,3a,6,6a-tetrahydro-2H-furo[2,3-b]pyrrole
_symmetry_cell_setting           triclinic
_symmetry_space_group_name_H-M   'P -1'
_symmetry_Int_Tables_number      2
_space_group_name_Hall           '-P 1'
loop_
_symmetry_equiv_pos_site_id
_symmetry_equiv_pos_as_xyz
1 x,y,z
2 -x,-y,-z
_cell_length_a                   9.5986(17)
_cell_length_b                   10.3836(19)
_cell_length_c                   10.5242(19)
_cell_angle_alpha                68.091(4)
_cell_angle_beta                 64.549(4)
_cell_angle_gamma                69.087(4)
_cell_volume                     854.187
_exptl_crystal_colour            colorless
_exptl_crystal_description       block
_cell_formula_units_Z            2
loop_
_atom_site_label
_atom_site_type_symbol
_atom_site_fract_x
_atom_site_fract_y
_atom_site_fract_z
O1 O 0.4126(3) 0.5044(3) 0.3702(3)
C1 C 0.4077(5) 0.4527(5) 0.2640(4)
H1 H 0.3648 0.5322 0.1922
H2 H 0.3412 0.3822 0.3111
C2 C 0.5788(5) 0.3840(4) 0.1918(4)
H3 H 0.5981 0.3821 0.0922
H4 H 0.6095 0.2853 0.2496
C3 C 0.6697(4) 0.4819(4) 0.1883(4)
H5 H 0.7661 0.4256 0.2159
C4 C 0.7086(4) 0.5967(4) 0.0467(4)
C5 C 0.6131(4) 0.7216(4) 0.0659(4)
H6 H 0.6162 0.8080 -0.0095
C6 C 0.5451(4) 0.5641(4) 0.3018(4)
H7 H 0.5890 0.5608 0.3739
N1 N 0.5057(4) 0.7129(3) 0.2108(3)
S1 S 0.42754(11) 0.85055(10) 0.27894(10)
O2 O 0.3280(3) 0.8027(3) 0.4258(3)
O3 O 0.3625(3) 0.9636(3) 0.1759(3)
C7 C 0.5820(4) 0.9009(4) 0.2817(4)
C8 C 0.6129(5) 0.8615(4) 0.4092(4)
H8 H 0.5511 0.8059 0.4956
C9 C 0.7325(5) 0.9024(5) 0.4118(5)
H9 H 0.7517 0.8755 0.5007
C10 C 0.8270(5) 0.9831(4) 0.2855(5)
C11 C 0.7947(5) 1.0199(4) 0.1589(5)
H10 H 0.8581 1.0737 0.0719
C12 C 0.6741(4) 0.9814(4) 0.1539(4)
H11 H 0.6539 1.0090 0.0654
C13 C 0.9559(6) 1.0286(6) 0.2903(6)
H12 H 1.0138 1.0785 0.1919
H13 H 1.0293 0.9443 0.3280
H14 H 0.9090 1.0928 0.3543
C14 C 0.8313(4) 0.5662(4) -0.0891(4)
C15 C 0.8687(5) 0.6755(4) -0.2172(4)
H15 H 0.8144 0.7719 -0.2168
C16 C 0.9841(5) 0.6438(5) -0.3439(4)
H16 H 1.0089 0.7191 -0.4296
C17 C 1.0635(5) 0.5051(5) -0.3481(5)
H17 H 1.1406 0.4843 -0.4364
C18 C 1.0299(5) 0.3963(5) -0.2224(5)
H18 H 1.0846 0.3001 -0.2236
C19 C 0.9163(5) 0.4276(4) -0.0944(4)
H19 H 0.8961 0.3522 -0.0081
loop_
_geom_bond_atom_site_label_1
_geom_bond_atom_site_label_2
_geom_bond_site_symmetry_1
_geom_bond_site_symmetry_2
O1 C1 1_555 1_555
C1 H1 1_555 1_555
H2 C1 1_555 1_555
C2 C1 1_555 1_555
H3 C2 1_555 1_555
H4 C2 1_555 1_555
C3 C2 1_555 1_555
H5 C3 1_555 1_555
C4 C3 1_555 1_555
C5 C4 1_555 1_555
H6 C5 1_555 1_555
C6 O1 1_555 1_555
H7 C6 1_555 1_555
N1 C5 1_555 1_555
S1 N1 1_555 1_555
O2 S1 1_555 1_555
O3 S1 1_555 1_555
C7 S1 1_555 1_555
C8 C7 1_555 1_555
H8 C8 1_555 1_555
C9 C8 1_555 1_555
H9 C9 1_555 1_555
C10 C9 1_555 1_555
C11 C10 1_555 1_555
H10 C11 1_555 1_555
C12 C7 1_555 1_555
H11 C12 1_555 1_555
C13 C10 1_555 1_555
H12 C13 1_555 1_555
H13 C13 1_555 1_555
H14 C13 1_555 1_555
C14 C4 1_555 1_555
C15 C14 1_555 1_555
H15 C15 1_555 1_555
C16 C15 1_555 1_555
H16 C16 1_555 1_555
C17 C16 1_555 1_555
H17 C17 1_555 1_555
C18 C17 1_555 1_555
H18 C18 1_555 1_555
C19 C14 1_555 1_555
H19 C19 1_555 1_555
C3 C6 1_555 1_555
C6 N1 1_555 1_555
C11 C12 1_555 1_555
C18 C19 1_555 1_555

#END
