
#######################################################################
#
#                 Cambridge Crystallographic Data Centre
#                                CCDC 
#
#######################################################################
#
# If this CIF has been generated from an entry in the Cambridge 
# Structural Database, then it will include bibliographic, chemical, 
# crystal, experimental, refinement or atomic coordinate data resulting 
# from the CCDC's data processing and validation procedures.
#
#######################################################################

data_DOZLAH
_chemical_formula_moiety         'C22 H18 Br1 N5 O2'
_chemical_name_systematic        
'ethyl 3-(2-bromophenyl)-4,4-dicyano-1,3,4,11b-tetrahydro-2H-pyrazino[2,1-a]phthalazine-1-carboxylate'
_symmetry_cell_setting           orthorhombic
_symmetry_space_group_name_H-M   'P 21 21 21'
_symmetry_Int_Tables_number      19
_space_group_name_Hall           'P 2ac 2ab'
loop_
_symmetry_equiv_pos_site_id
_symmetry_equiv_pos_as_xyz
1 x,y,z
2 1/2-x,-y,1/2+z
3 -x,1/2+y,1/2-z
4 1/2+x,1/2-y,-z
_cell_length_a                   8.8174(18)
_cell_length_b                   12.748(3)
_cell_length_c                   18.704(4)
_cell_angle_alpha                90
_cell_angle_beta                 90
_cell_angle_gamma                90
_cell_volume                     2102.41
_exptl_crystal_colour            colorless
_exptl_crystal_description       block
_cell_formula_units_Z            4
_exptl_crystal_recrystallization_method 'dichloromethane/ methanol'
loop_
_atom_site_label
_atom_site_type_symbol
_atom_site_fract_x
_atom_site_fract_y
_atom_site_fract_z
Br1 Br 0.45957(8) 0.69060(4) 0.07798(3)
O1 O 0.4392(5) 0.4602(3) 0.44788(17)
N1 N 0.2242(5) 0.3198(3) 0.2139(2)
N2 N 0.2909(4) 0.4169(3) 0.2351(2)
N3 N 0.6166(5) 0.2735(3) 0.2301(2)
N4 N 0.3820(6) 0.4113(4) 0.0585(2)
N5 N 0.5262(4) 0.5385(3) 0.29027(17)
H1 H 0.5697 0.5906 0.3078
C1 C 0.4990(5) 0.5390(3) 0.2136(2)
H2 H 0.4204 0.5931 0.2023
C2 C 0.3852(5) 0.5319(4) 0.3312(2)
H3 H 0.3187 0.5932 0.3199
C3 C 0.3033(5) 0.4299(4) 0.3137(2)
H4 H 0.3616 0.3696 0.3341
C4 C 0.4336(5) 0.4283(3) 0.1965(2)
C5 C 0.6415(6) 0.5639(3) 0.1725(2)
C6 C 0.7808(6) 0.5236(4) 0.1954(3)
H5 H 0.7842 0.4792 0.2362
C7 C 0.9138(7) 0.5473(4) 0.1595(3)
H6 H 1.0075 0.5191 0.1755
C8 C 0.9099(8) 0.6123(5) 0.1001(3)
H7 H 1.0009 0.6280 0.0751
C9 C 0.7750(8) 0.6539(4) 0.0775(3)
H8 H 0.7731 0.6996 0.0374
C10 C 0.6411(7) 0.6297(4) 0.1127(3)
C11 C 0.1419(6) 0.4266(4) 0.3416(2)
C12 C 0.0849(6) 0.4888(5) 0.3955(3)
H9 H 0.1477 0.5406 0.4168
C13 C -0.0635(6) 0.4764(5) 0.4189(3)
H10 H -0.1020 0.5206 0.4556
C14 C -0.1547(7) 0.4010(5) 0.3895(3)
H11 H -0.2557 0.3925 0.4062
C15 C -0.1004(6) 0.3372(5) 0.3356(3)
H12 H -0.1636 0.2848 0.3152
C16 C 0.0486(6) 0.3504(4) 0.3112(3)
C17 C 0.1091(6) 0.2914(4) 0.2515(3)
H13 H 0.0604 0.2274 0.2392
C18 C 0.5416(6) 0.3428(3) 0.2155(2)
C19 C 0.4008(6) 0.4182(4) 0.1185(3)
C20 C 0.4316(6) 0.5342(4) 0.4098(2)
O2 O 0.4380(12) 0.6360(6) 0.4302(4)
C21 C 0.4809(10) 0.6537(9) 0.5043(5)
H14 H 0.4337 0.5992 0.5348
H15 H 0.4418 0.7228 0.5200
C22 C 0.6490(12) 0.6510(11) 0.5141(7)
H16 H 0.6741 0.6711 0.5633
H17 H 0.6968 0.7001 0.4808
H18 H 0.6864 0.5799 0.5048
O3? O 0.5154(17) 0.6236(9) 0.4228(6)
C23? C 0.599(2) 0.6328(15) 0.4897(7)
H19? H 0.6973 0.6676 0.4808
H20? H 0.6191 0.5620 0.5092
C24? C 0.509(2) 0.6959(15) 0.5434(9)
H21? H 0.5705 0.7082 0.5861
H22? H 0.4169 0.6570 0.5567
H23? H 0.4798 0.7633 0.5222
loop_
_geom_bond_atom_site_label_1
_geom_bond_atom_site_label_2
_geom_bond_site_symmetry_1
_geom_bond_site_symmetry_2
Br1 C10 1_555 1_555
O1 C20 1_555 1_555
N1 N2 1_555 1_555
N2 C3 1_555 1_555
N3 C18 1_555 1_555
N4 C19 1_555 1_555
N5 H1 1_555 1_555
C1 N5 1_555 1_555
H2 C1 1_555 1_555
C2 N5 1_555 1_555
H3 C2 1_555 1_555
C3 C2 1_555 1_555
H4 C3 1_555 1_555
C4 N2 1_555 1_555
C5 C1 1_555 1_555
C6 C5 1_555 1_555
H5 C6 1_555 1_555
C7 C6 1_555 1_555
H6 C7 1_555 1_555
C8 C7 1_555 1_555
H7 C8 1_555 1_555
C9 C8 1_555 1_555
H8 C9 1_555 1_555
C10 C5 1_555 1_555
C11 C3 1_555 1_555
C12 C11 1_555 1_555
H9 C12 1_555 1_555
C13 C12 1_555 1_555
H10 C13 1_555 1_555
C14 C13 1_555 1_555
H11 C14 1_555 1_555
C15 C14 1_555 1_555
H12 C15 1_555 1_555
C16 C11 1_555 1_555
C17 N1 1_555 1_555
H13 C17 1_555 1_555
C18 C4 1_555 1_555
C19 C4 1_555 1_555
C20 C2 1_555 1_555
O2 C20 1_555 1_555
C21 O2 1_555 1_555
H14 C21 1_555 1_555
H15 C21 1_555 1_555
C22 C21 1_555 1_555
H16 C22 1_555 1_555
H17 C22 1_555 1_555
H18 C22 1_555 1_555
C1 C4 1_555 1_555
C9 C10 1_555 1_555
C15 C16 1_555 1_555
C16 C17 1_555 1_555

#END
