
#######################################################################
#
#                 Cambridge Crystallographic Data Centre
#                                CCDC 
#
#######################################################################
#
# If this CIF has been generated from an entry in the Cambridge 
# Structural Database, then it will include bibliographic, chemical, 
# crystal, experimental, refinement or atomic coordinate data resulting 
# from the CCDC's data processing and validation procedures.
#
#######################################################################

data_DOZNUB
_chemical_compound_source        'Neorautanenia edulis'
_chemical_formula_moiety         'C18 H12 O5'
_chemical_name_systematic        Neoduline
_chemical_properties_biological  
'tradional drug of Central Africa, as treatment for syphilis and frigidity'
_symmetry_cell_setting           monoclinic
_symmetry_space_group_name_H-M   'P 21'
_symmetry_Int_Tables_number      4
_space_group_name_Hall           'P 2yb'
loop_
_symmetry_equiv_pos_site_id
_symmetry_equiv_pos_as_xyz
1 x,y,z
2 -x,1/2+y,-z
_cell_length_a                   11.33(2)
_cell_length_b                   13.66(3)
_cell_length_c                   4.61(1)
_cell_angle_alpha                90
_cell_angle_beta                 109.7(1)
_cell_angle_gamma                90
_cell_volume                     671.72
_exptl_crystal_colour            white
_chemical_melting_point          225deg.C
_cell_formula_units_Z            2
loop_
_atom_site_label
_atom_site_type_symbol
_atom_site_fract_x
_atom_site_fract_y
_atom_site_fract_z
C1 C 0.2862(13) 0.7459 -0.1859(35)
C2 C 0.2234(13) 0.6593(14) -0.2737(31)
C3 C 0.2419(12) 0.8182(15) -0.0427(35)
C4 C 0.1902(15) 0.9500(16) 0.1974(36)
C5 C 0.3879(15) 0.1704(14) 0.4501(37)
C6 C 0.1272(13) 0.8001(13) 0.0162(35)
C7 C 0.2767(15) 0.9149(14) 0.0778(36)
C8 C 0.0578(14) 0.7176(13) -0.0794(35)
C9 C 0.1056(13) 0.6454(15) -0.2172(33)
C10 C 0.0546(12) 0.5102(16) -0.5530(34)
C11 C 0.1938(13) 0.4841(14) -0.4961(29)
C12 C 0.2091(13) 0.3231(16) -0.1820(34)
C13 C 0.2511(13) 0.4157(14) -0.2401(29)
C14 C 0.2898(14) 0.2784(13) 0.0770(38)
C15 C 0.4014(14) 0.3175(17) 0.2594(34)
C16 C 0.4452(14) 0.4072(15) 0.2012(34)
C17 C 0.3642(12) 0.4552(15) -0.0618(31)
C18 C 0.2773(12) 0.5753(14) -0.4045(32)
O1 O 0.0971(9) 0.8788(11) 0.1559(24)
O2 O 0.4620(10) 0.2554(12) 0.5040(31)
O3 O 0.2743(11) 0.1873(12) 0.1950(31)
O4 O 0.0395(9) 0.5601(11) -0.2971(24)
O5 O 0.3932(8) 0.5436(12) -0.1589(24)
H1 H 0.3713(13) 0.7585 -0.2368(35)
H2 H 0.1921(15) 1.0201(16) 0.3070(36)
H3 H 0.4386(15) 0.1104(14) 0.3949(37)
H4 H 0.3656(15) 0.1526(14) 0.6540(37)
H5 H 0.3596(15) 0.9534(14) 0.0754(36)
H6 H -0.0320(14) 0.7088(13) -0.0488(35)
H7 H -0.0003(12) 0.4438(16) -0.5936(34)
H8 H 0.0214(12) 0.5569(16) -0.7530(34)
H9 H 0.1901(13) 0.4504(14) -0.7109(29)
H10 H 0.1227(13) 0.2901(16) -0.3260(34)
H11 H 0.5330(14) 0.4386(15) 0.3443(34)
H12 H 0.2902(12) 0.6026(14) -0.6116(32)
loop_
_geom_bond_atom_site_label_1
_geom_bond_atom_site_label_2
_geom_bond_site_symmetry_1
_geom_bond_site_symmetry_2
C1 C2 1_555 1_555
C2 C9 1_555 1_555
C3 C1 1_555 1_555
C4 C7 1_555 1_555
C5 O2 1_555 1_555
C6 C3 1_555 1_555
C7 C3 1_555 1_555
C8 C6 1_555 1_555
C9 C8 1_555 1_555
C10 C11 1_555 1_555
C11 C13 1_555 1_555
C12 C13 1_555 1_555
C13 C17 1_555 1_555
C14 C12 1_555 1_555
C15 C14 1_555 1_555
C16 C15 1_555 1_555
C17 C16 1_555 1_555
C18 C2 1_555 1_555
O1 C4 1_555 1_555
O2 C15 1_555 1_555
O3 C5 1_555 1_555
O4 C9 1_555 1_555
O5 C17 1_555 1_555
H1 C1 1_555 1_555
H2 C4 1_555 1_555
H3 C5 1_555 1_555
H4 C5 1_555 1_555
H5 C7 1_555 1_555
H6 C8 1_555 1_555
H7 C10 1_555 1_555
H8 C10 1_555 1_555
H9 C11 1_555 1_555
H10 C12 1_555 1_555
H11 C16 1_555 1_555
H12 C18 1_555 1_555
C6 O1 1_555 1_555
C10 O4 1_555 1_555
C11 C18 1_555 1_555
C14 O3 1_555 1_555
C18 O5 1_555 1_555

#END
