
#######################################################################
#
#                 Cambridge Crystallographic Data Centre
#                                CCDC 
#
#######################################################################
#
# If this CIF has been generated from an entry in the Cambridge 
# Structural Database, then it will include bibliographic, chemical, 
# crystal, experimental, refinement or atomic coordinate data resulting 
# from the CCDC's data processing and validation procedures.
#
#######################################################################

data_DOZYOH
_chemical_formula_moiety         'C24 H24 N2 O10'
_chemical_name_systematic        
'Diethyl 2,6-bis(diacetylamino)furo[2,3-f][1]benzofuran-3,7-dicarboxylate'
_symmetry_cell_setting           tetragonal
_symmetry_space_group_name_H-M   'P 41 21 2'
_symmetry_Int_Tables_number      92
_space_group_name_Hall           'P 4abw 2nw'
loop_
_symmetry_equiv_pos_site_id
_symmetry_equiv_pos_as_xyz
1 x,y,z
2 -x,-y,1/2+z
3 1/2+x,1/2-y,3/4-z
4 1/2-x,1/2+y,1/4-z
5 -y,-x,1/2-z
6 y,x,-z
7 1/2+y,1/2-x,3/4+z
8 1/2-y,1/2+x,1/4+z
_cell_length_a                   9.6830(10)
_cell_length_b                   9.6830(10)
_cell_length_c                   24.696(6)
_cell_angle_alpha                90
_cell_angle_beta                 90
_cell_angle_gamma                90
_cell_volume                     2315.51
_exptl_crystal_colour            colorless
_exptl_crystal_description       prism
_chemical_melting_point          '241 deg.C'
_cell_formula_units_Z            4
_exptl_crystal_recrystallization_method dioxane/water
_exptl_crystal_preparation       fluorescent
loop_
_atom_site_label
_atom_site_type_symbol
_atom_site_fract_x
_atom_site_fract_y
_atom_site_fract_z
O1 O 0.6819(3) 0.2011(3) 0.14536(9)
O2 O 1.0210(3) 0.5204(3) 0.17662(10)
O3 O 1.0230(3) 0.4396(3) 0.09098(10)
O4 O 0.6123(3) 0.4355(3) 0.06314(10)
O5 O 0.8659(4) 0.1624(4) -0.01170(11)
N1 N 0.7741(3) 0.2694(3) 0.06220(11)
C1 C 0.6331(4) 0.1554(4) 0.24077(13)
H1 H 0.5743 0.0684 0.2316
C2 C 0.7021(4) 0.2251(4) 0.20031(13)
C3 C 0.8065(4) 0.3241(4) 0.20711(13)
C4 C 0.8547(4) 0.3579(4) 0.15310(13)
C5 C 0.7766(4) 0.2820(4) 0.11889(14)
C6 C 0.9726(4) 0.4436(4) 0.13573(15)
C7 C 1.1448(6) 0.6010(6) 0.16472(19)
C8 C 1.1704(9) 0.6958(9) 0.2109(3)
H4 H 1.2359 0.7677 0.1999
H5 H 1.2090 0.6435 0.2414
H6 H 1.0833 0.7388 0.2220
C9 C 0.8645(4) 0.1732(4) 0.03704(17)
C10 C 0.9545(4) 0.0924(5) 0.07382(15)
H7 H 1.0019 0.0201 0.0532
H8 H 0.8981 0.0499 0.1022
H9 H 1.0230 0.1538 0.0904
C11 C 0.6772(4) 0.3571(4) 0.03567(16)
C12 C 0.6579(5) 0.3475(5) -0.02399(14)
H10 H 0.6189 0.2571 -0.0332
H11 H 0.7473 0.3586 -0.0421
H12 H 0.5948 0.4205 -0.0360
H13 H 1.1339 0.6536 0.1306
H14 H 1.2239 0.5370 0.1607
O1D O 0.7989(3) 0.3181(3) 0.35464(9)
O2D O 0.4796(3) -0.0210(3) 0.32338(10)
O3D O 0.5604(3) -0.0230(3) 0.40902(10)
O4D O 0.5645(3) 0.3877(3) 0.43686(10)
O5D O 0.8376(4) 0.1341(4) 0.51170(11)
N1D N 0.7306(3) 0.2259(3) 0.43780(11)
C1D C 0.8446(4) 0.3669(4) 0.25923(13)
H1D H 0.9316 0.4257 0.2684
C2D C 0.7749(4) 0.2979(4) 0.29969(13)
C3D C 0.6759(4) 0.1935(4) 0.29289(13)
C4D C 0.6421(4) 0.1453(4) 0.34690(13)
C5D C 0.7180(4) 0.2234(4) 0.38111(14)
C6D C 0.5564(4) 0.0274(4) 0.36427(15)
C7D C 0.3990(6) -0.1448(6) 0.33528(19)
C8D C 0.3042(9) -0.1704(9) 0.2891(3)
H4D H 0.2323 -0.2359 0.3001
H5D H 0.3565 -0.2090 0.2586
H6D H 0.2612 -0.0833 0.2780
C9D C 0.8268(4) 0.1355(4) 0.46296(17)
C10D C 0.9076(5) 0.0455(4) 0.42618(15)
H7D H 0.9799 -0.0019 0.4468
H8D H 0.9501 0.1019 0.3978
H9D H 0.8462 -0.0230 0.4096
C11D C 0.6429(4) 0.3228(4) 0.46433(16)
C12D C 0.6525(5) 0.3421(5) 0.52399(14)
H10D H 0.7429 0.3811 0.5332
H11D H 0.6414 0.2527 0.5421
H12D H 0.5795 0.4052 0.5360
H13D H 0.3464 -0.1339 0.3694
H14D H 0.4630 -0.2239 0.3393
H2? H 1.2036 0.5964 0.1975
H3? H 1.1937 0.5492 0.1360
C13? C 1.1439(11) 0.7327(10) 0.1493(4)
H15? H 1.1006 0.7404 0.1136
H16? H 1.2390 0.7671 0.1474
H17? H 1.0916 0.7876 0.1756
loop_
_geom_bond_atom_site_label_1
_geom_bond_atom_site_label_2
_geom_bond_site_symmetry_1
_geom_bond_site_symmetry_2
O1 C2 1_555 1_555
O2 C6 1_555 1_555
O3 C6 1_555 1_555
O4 C11 1_555 1_555
O5 C9 1_555 1_555
N1 C5 1_555 1_555
C1 H1 1_555 1_555
C2 C1 1_555 1_555
C3 C2 1_555 1_555
C4 C3 1_555 1_555
C5 O1 1_555 1_555
C6 C4 1_555 1_555
C7 O2 1_555 1_555
C8 C7 1_555 1_555
H4 C8 1_555 1_555
H5 C8 1_555 1_555
H6 C8 1_555 1_555
C9 N1 1_555 1_555
C10 C9 1_555 1_555
H7 C10 1_555 1_555
H8 C10 1_555 1_555
H9 C10 1_555 1_555
C11 N1 1_555 1_555
C12 C11 1_555 1_555
H10 C12 1_555 1_555
H11 C12 1_555 1_555
H12 C12 1_555 1_555
H13 C7 1_555 1_555
H14 C7 1_555 1_555
O1D C2D 1_555 1_555
O2D C6D 1_555 1_555
O3D C6D 1_555 1_555
O4D C11D 1_555 1_555
O5D C9D 1_555 1_555
N1D C5D 1_555 1_555
C1D C3 1_555 1_555
H1D C1D 1_555 1_555
C2D C1D 1_555 1_555
C3D C1 1_555 1_555
C4D C3D 1_555 1_555
C5D O1D 1_555 1_555
C6D C4D 1_555 1_555
C7D O2D 1_555 1_555
C8D C7D 1_555 1_555
H4D C8D 1_555 1_555
H5D C8D 1_555 1_555
H6D C8D 1_555 1_555
C9D N1D 1_555 1_555
C10D C9D 1_555 1_555
H7D C10D 1_555 1_555
H8D C10D 1_555 1_555
H9D C10D 1_555 1_555
C11D N1D 1_555 1_555
C12D C11D 1_555 1_555
H10D C12D 1_555 1_555
H11D C12D 1_555 1_555
H12D C12D 1_555 1_555
H13D C7D 1_555 1_555
H14D C7D 1_555 1_555
C4 C5 1_555 1_555
C2D C3D 1_555 1_555
C4D C5D 1_555 1_555

#END
