
#######################################################################
#
#                 Cambridge Crystallographic Data Centre
#                                CCDC 
#
#######################################################################
#
# If this CIF has been generated from an entry in the Cambridge 
# Structural Database, then it will include bibliographic, chemical, 
# crystal, experimental, refinement or atomic coordinate data resulting 
# from the CCDC's data processing and validation procedures.
#
#######################################################################

data_DOZYUN
_chemical_formula_moiety         'C38 H36 N2 O10'
_chemical_name_systematic        
'Dibutyl 2,6-bis(acetyl(benzoyl)amino)furo[2,3-f][1]benzofuran-3,7-dicarboxylate'
_symmetry_cell_setting           monoclinic
_symmetry_space_group_name_H-M   'P 21/c'
_symmetry_Int_Tables_number      14
_space_group_name_Hall           '-P 2ybc'
loop_
_symmetry_equiv_pos_site_id
_symmetry_equiv_pos_as_xyz
1 x,y,z
2 -x,1/2+y,1/2-z
3 -x,-y,-z
4 x,1/2-y,1/2+z
_cell_length_a                   13.174(3)
_cell_length_b                   8.891(2)
_cell_length_c                   17.2460(10)
_cell_angle_alpha                90
_cell_angle_beta                 122.01(2)
_cell_angle_gamma                90
_cell_volume                     1712.89
_exptl_crystal_colour            white
_exptl_crystal_description       prism
_chemical_melting_point          '192 deg.C'
_cell_formula_units_Z            2
_exptl_crystal_recrystallization_method chloroform/heptane
_exptl_crystal_preparation       fluorescent
loop_
_atom_site_label
_atom_site_type_symbol
_atom_site_fract_x
_atom_site_fract_y
_atom_site_fract_z
O1 O 0.03018(8) 1.12922(10) 0.15305(6)
H1 H -0.1038 1.2337 -0.0227
O2 O 0.25707(10) 0.79181(12) 0.32150(6)
O3 O 0.24107(10) 0.69106(13) 0.19555(7)
O4 O -0.04115(10) 0.97243(15) 0.26879(8)
O5 O 0.30470(9) 1.06949(14) 0.45492(7)
N1 N 0.13953(10) 1.06490(13) 0.30830(7)
C1 C -0.06487(11) 1.13950(15) -0.01279(8)
C2 C 0.00889(11) 1.07320(15) 0.07077(8)
C3 C 0.07309(11) 0.93843(15) 0.08607(8)
C4 C 0.13623(11) 0.91373(15) 0.18341(8)
C5 C 0.10696(11) 1.03007(15) 0.21832(8)
C6 C 0.21655(11) 0.78632(16) 0.23250(9)
C7 C 0.33504(15) 0.67181(19) 0.38084(10)
H2 H 0.3420 0.5894 0.3476
H3 H 0.4198 0.7205 0.4209
C8 C 0.28680(13) 0.61509(18) 0.43647(10)
H4 H 0.2806 0.6995 0.4692
H5 H 0.2061 0.5711 0.4029
C9 C 0.36467(14) 0.49239(19) 0.50276(10)
H6 H 0.4492 0.5419 0.5474
H7 H 0.3783 0.4157 0.4709
C10 C 0.31565(18) 0.4267(2) 0.55699(14)
H8 H 0.3120 0.5103 0.5989
H9 H 0.3701 0.3557 0.5960
H10 H 0.2316 0.3926 0.5188
C11 C 0.05085(13) 1.02824(18) 0.32860(10)
C12 C 0.07392(16) 1.0661(2) 0.42077(11)
H11 H 0.0043 1.0596 0.4171
H12 H 0.1042 1.1700 0.4387
H13 H 0.1302 1.0025 0.4674
C13 C 0.26257(12) 1.09350(17) 0.37451(9)
C14 C 0.33388(12) 1.15541(17) 0.33811(9)
C15 C 0.44970(13) 1.09974(19) 0.37368(10)
H14 H 0.4775 1.0146 0.4179
C16 C 0.52074(14) 1.1589(2) 0.34427(11)
H15 H 0.6057 1.1196 0.3675
C17 C 0.47845(15) 1.2757(2) 0.28139(11)
H16 H 0.5305 1.3167 0.2573
C18 C 0.36464(14) 1.33278(19) 0.24767(11)
H17 H 0.3398 1.4183 0.2096
C19 C 0.29183(13) 1.27301(17) 0.27512(9)
H18 H 0.2111 1.3140 0.2536
O1B O -0.03018(8) 0.87078(10) -0.15305(6)
H1B H 0.1038 0.7663 0.0227
O2B O -0.25707(10) 1.20819(12) -0.32150(6)
O3B O -0.24107(10) 1.30894(13) -0.19555(7)
O4B O 0.04115(10) 1.02757(15) -0.26879(8)
O5B O -0.30470(9) 0.93051(14) -0.45492(7)
N1B N -0.13953(10) 0.93510(13) -0.30830(7)
C1B C 0.06487(11) 0.86050(15) 0.01279(8)
C2B C -0.00889(11) 0.92680(15) -0.07077(8)
C3B C -0.07309(11) 1.06157(15) -0.08607(8)
C4B C -0.13623(11) 1.08627(15) -0.18341(8)
C5B C -0.10696(11) 0.96993(15) -0.21832(8)
C6B C -0.21655(11) 1.21368(16) -0.23250(9)
C7B C -0.33504(15) 1.32819(19) -0.38084(10)
H2B H -0.3420 1.4106 -0.3476
H3B H -0.4198 1.2795 -0.4209
C8B C -0.28680(13) 1.38491(18) -0.43647(10)
H4B H -0.2806 1.3005 -0.4692
H5B H -0.2061 1.4289 -0.4029
C9B C -0.36467(14) 1.50761(19) -0.50276(10)
H6B H -0.4492 1.4581 -0.5474
H7B H -0.3783 1.5843 -0.4709
C10B C -0.31565(18) 1.5733(2) -0.55699(14)
H8B H -0.3120 1.4897 -0.5989
H9B H -0.3701 1.6443 -0.5960
H10B H -0.2316 1.6074 -0.5188
C11B C -0.05085(13) 0.97176(18) -0.32860(10)
C12B C -0.07392(16) 0.9339(2) -0.42077(11)
H11B H -0.0043 0.9404 -0.4171
H12B H -0.1042 0.8300 -0.4387
H13B H -0.1302 0.9975 -0.4674
C13B C -0.26257(12) 0.90650(17) -0.37451(9)
C14B C -0.33388(12) 0.84459(17) -0.33811(9)
C15B C -0.44970(13) 0.90026(19) -0.37368(10)
H14B H -0.4775 0.9854 -0.4179
C16B C -0.52074(14) 0.8411(2) -0.34427(11)
H15B H -0.6057 0.8804 -0.3675
C17B C -0.47845(15) 0.7243(2) -0.28139(11)
H16B H -0.5305 0.6833 -0.2573
C18B C -0.36464(14) 0.66722(19) -0.24767(11)
H17B H -0.3398 0.5817 -0.2096
C19B C -0.29183(13) 0.72699(17) -0.27512(9)
H18B H -0.2111 0.6860 -0.2536
loop_
_geom_bond_atom_site_label_1
_geom_bond_atom_site_label_2
_geom_bond_site_symmetry_1
_geom_bond_site_symmetry_2
O1 C2 1_555 1_555
H1 C1 1_555 1_555
O2 C6 1_555 1_555
O3 C6 1_555 1_555
O4 C11 1_555 1_555
O5 C13 1_555 1_555
N1 C5 1_555 1_555
C1 C2 1_555 1_555
C2 C3 1_555 1_555
C3 C4 1_555 1_555
C4 C5 1_555 1_555
C5 O1 1_555 1_555
C6 C4 1_555 1_555
C7 O2 1_555 1_555
H2 C7 1_555 1_555
H3 C7 1_555 1_555
C8 C7 1_555 1_555
H4 C8 1_555 1_555
H5 C8 1_555 1_555
C9 C8 1_555 1_555
H6 C9 1_555 1_555
H7 C9 1_555 1_555
C10 C9 1_555 1_555
H8 C10 1_555 1_555
H9 C10 1_555 1_555
H10 C10 1_555 1_555
C11 N1 1_555 1_555
C12 C11 1_555 1_555
H11 C12 1_555 1_555
H12 C12 1_555 1_555
H13 C12 1_555 1_555
C13 N1 1_555 1_555
C14 C13 1_555 1_555
C15 C14 1_555 1_555
H14 C15 1_555 1_555
C16 C15 1_555 1_555
H15 C16 1_555 1_555
C17 C16 1_555 1_555
H16 C17 1_555 1_555
C18 C17 1_555 1_555
H17 C18 1_555 1_555
C19 C14 1_555 1_555
H18 C19 1_555 1_555
O1B C2B 1_555 1_555
H1B C1B 1_555 1_555
O2B C6B 1_555 1_555
O3B C6B 1_555 1_555
O4B C11B 1_555 1_555
O5B C13B 1_555 1_555
N1B C5B 1_555 1_555
C1B C3 1_555 1_555
C2B C1B 1_555 1_555
C3B C1 1_555 1_555
C4B C3B 1_555 1_555
C5B O1B 1_555 1_555
C6B C4B 1_555 1_555
C7B O2B 1_555 1_555
H2B C7B 1_555 1_555
H3B C7B 1_555 1_555
C8B C7B 1_555 1_555
H4B C8B 1_555 1_555
H5B C8B 1_555 1_555
C9B C8B 1_555 1_555
H6B C9B 1_555 1_555
H7B C9B 1_555 1_555
C10B C9B 1_555 1_555
H8B C10B 1_555 1_555
H9B C10B 1_555 1_555
H10B C10B 1_555 1_555
C11B N1B 1_555 1_555
C12B C11B 1_555 1_555
H11B C12B 1_555 1_555
H12B C12B 1_555 1_555
H13B C12B 1_555 1_555
C13B N1B 1_555 1_555
C14B C13B 1_555 1_555
C15B C14B 1_555 1_555
H14B C15B 1_555 1_555
C16B C15B 1_555 1_555
H15B C16B 1_555 1_555
C17B C16B 1_555 1_555
H16B C17B 1_555 1_555
C18B C17B 1_555 1_555
H17B C18B 1_555 1_555
C19B C14B 1_555 1_555
H18B C19B 1_555 1_555
C18 C19 1_555 1_555
C2B C3B 1_555 1_555
C4B C5B 1_555 1_555
C18B C19B 1_555 1_555

#END
