
#######################################################################
#
#                 Cambridge Crystallographic Data Centre
#                                CCDC 
#
#######################################################################
#
# If this CIF has been generated from an entry in the Cambridge 
# Structural Database, then it will include bibliographic, chemical, 
# crystal, experimental, refinement or atomic coordinate data resulting 
# from the CCDC's data processing and validation procedures.
#
#######################################################################

data_DPANTH03
_chemical_formula_moiety         'C28 H20'
_chemical_name_systematic        9,9':10,10'-Bianthracene
_symmetry_cell_setting           orthorhombic
_symmetry_space_group_name_H-M   'P b c a'
_symmetry_Int_Tables_number      61
_space_group_name_Hall           '-P 2ac 2ab'
loop_
_symmetry_equiv_pos_site_id
_symmetry_equiv_pos_as_xyz
1 x,y,z
2 1/2+x,y,1/2-z
3 x,1/2-y,1/2+z
4 1/2-x,1/2+y,z
5 -x,-y,-z
6 1/2-x,-y,1/2+z
7 -x,1/2+y,1/2-z
8 1/2+x,1/2-y,-z
_cell_length_a                   8.091(1)
_cell_length_b                   12.020(3)
_cell_length_c                   18.742(2)
_cell_angle_alpha                90
_cell_angle_beta                 90
_cell_angle_gamma                90
_cell_volume                     1822.73
_exptl_crystal_colour            colorless
_exptl_crystal_description       'hexagonal prism'
_cell_formula_units_Z            4
loop_
_atom_site_label
_atom_site_type_symbol
_atom_site_fract_x
_atom_site_fract_y
_atom_site_fract_z
C1 C 0.8240(3) 0.54661(18) 0.60093(11)
H1 H 0.907(3) 0.6006(16) 0.5801(10)
C2 C 0.8323(3) 0.51543(19) 0.67270(11)
H2 H 0.921(3) 0.5489(15) 0.7032(10)
C3 C 0.7235(3) 0.43677(18) 0.69933(11)
H3 H 0.737(3) 0.4118(16) 0.7502(11)
C4 C 0.5919(3) 0.42173(17) 0.58415(10)
C5 C 0.6038(3) 0.38995(18) 0.65527(10)
H4 H 0.520(3) 0.3355(17) 0.6745(10)
C6 C 0.5059(3) 0.25319(19) 0.42443(10)
H5 H 0.422(3) 0.2024(19) 0.4424(11)
C7 C 0.5815(3) 0.23434(18) 0.35900(11)
H6 H 0.548(3) 0.1677(17) 0.3302(10)
C8 C 0.6953(3) 0.30887(19) 0.33182(11)
H7 H 0.753(3) 0.2978(16) 0.2842(10)
C9 C 0.7330(3) 0.40473(19) 0.37072(11)
H8 H 0.811(2) 0.4576(15) 0.3520(9)
C10 C 0.6573(3) 0.42604(17) 0.43566(10)
C11 C 0.7046(3) 0.50007(17) 0.55664(10)
C12 C 0.6859(3) 0.53139(18) 0.47830(10)
H9 H 0.792(2) 0.5682(16) 0.4611(9)
C13 C 0.4605(3) 0.37854(18) 0.53363(10)
H10 H 0.405(3) 0.3133(18) 0.5549(10)
C14 C 0.5430(3) 0.34859(18) 0.46334(10)
C12D C 0.3141(3) 0.46861(18) 0.52170(10)
C10D C 0.3427(3) 0.57396(17) 0.56434(10)
C9D C 0.2670(3) 0.59527(19) 0.62928(11)
C8D C 0.3047(3) 0.69113(19) 0.66818(11)
C7D C 0.4185(3) 0.76566(18) 0.64100(11)
C6D C 0.4941(3) 0.74681(19) 0.57557(10)
H5D H 0.578(3) 0.7976(19) 0.5576(11)
C14D C 0.4570(3) 0.65141(18) 0.53666(10)
C13D C 0.5395(3) 0.62146(18) 0.46637(10)
C4D C 0.4081(3) 0.57827(17) 0.41585(10)
C5D C 0.3962(3) 0.61005(18) 0.34473(10)
C3D C 0.2765(3) 0.56323(18) 0.30067(11)
C2D C 0.1677(3) 0.48457(19) 0.32730(11)
C1D C 0.1760(3) 0.45339(18) 0.39907(11)
H1D H 0.093(3) 0.3994(16) 0.4199(10)
C11D C 0.2954(3) 0.49993(17) 0.44336(10)
H9D H 0.208(2) 0.4318(16) 0.5389(9)
H2D H 0.079(3) 0.4511(15) 0.2968(10)
H3D H 0.263(3) 0.5882(16) 0.2498(11)
H4D H 0.480(3) 0.6645(17) 0.3255(10)
H10D H 0.595(3) 0.6867(18) 0.4451(10)
H6D H 0.452(3) 0.8323(17) 0.6698(10)
H7D H 0.247(3) 0.7022(16) 0.7158(10)
H8D H 0.189(2) 0.5424(15) 0.6480(9)
loop_
_geom_bond_atom_site_label_1
_geom_bond_atom_site_label_2
_geom_bond_site_symmetry_1
_geom_bond_site_symmetry_2
C1 H1 1_555 1_555
C2 C1 1_555 1_555
H2 C2 1_555 1_555
C3 C2 1_555 1_555
H3 C3 1_555 1_555
C4 C5 1_555 1_555
C5 C3 1_555 1_555
H4 C5 1_555 1_555
C6 H5 1_555 1_555
C7 C6 1_555 1_555
H6 C7 1_555 1_555
C8 C7 1_555 1_555
H7 C8 1_555 1_555
C9 C8 1_555 1_555
H8 C9 1_555 1_555
C10 C9 1_555 1_555
C11 C1 1_555 1_555
C12 C10 1_555 1_555
H9 C12 1_555 1_555
C13 C4 1_555 1_555
H10 C13 1_555 1_555
C14 C6 1_555 1_555
C12D C13 1_555 1_555
C10D C12D 1_555 1_555
C9D C10D 1_555 1_555
C8D C9D 1_555 1_555
C7D C8D 1_555 1_555
C6D C7D 1_555 1_555
H5D C6D 1_555 1_555
C14D C10D 1_555 1_555
C13D C12 1_555 1_555
C4D C13D 1_555 1_555
C5D C4D 1_555 1_555
C3D C5D 1_555 1_555
C2D C3D 1_555 1_555
C1D C2D 1_555 1_555
H1D C1D 1_555 1_555
C11D C12D 1_555 1_555
H9D C12D 1_555 1_555
H2D C2D 1_555 1_555
H3D C3D 1_555 1_555
H4D C5D 1_555 1_555
H10D C13D 1_555 1_555
H6D C7D 1_555 1_555
H7D C8D 1_555 1_555
H8D C9D 1_555 1_555
C4 C11 1_555 1_555
C10 C14 1_555 1_555
C11 C12 1_555 1_555
C13 C14 1_555 1_555
C6D C14D 1_555 1_555
C14D C13D 1_555 1_555
C4D C11D 1_555 1_555
C1D C11D 1_555 1_555

#END
