
#######################################################################
#
#                 Cambridge Crystallographic Data Centre
#                                CCDC 
#
#######################################################################
#
# If this CIF has been generated from an entry in the Cambridge 
# Structural Database, then it will include bibliographic, chemical, 
# crystal, experimental, refinement or atomic coordinate data resulting 
# from the CCDC's data processing and validation procedures.
#
#######################################################################

data_DPHDSE02
_chemical_formula_moiety         'C12 H10 Se2'
_chemical_name_systematic        '(M)-Diphenyl diselenide'
_symmetry_cell_setting           orthorhombic
_symmetry_space_group_name_H-M   'P 21 21 21'
_symmetry_Int_Tables_number      19
_space_group_name_Hall           'P 2ac 2ab'
loop_
_symmetry_equiv_pos_site_id
_symmetry_equiv_pos_as_xyz
1 x,y,z
2 1/2+x,1/2-y,-z
3 -x,1/2+y,1/2-z
4 1/2-x,-y,1/2+z
_cell_length_a                   5.5878(11)
_cell_length_b                   8.2521(17)
_cell_length_c                   23.907(5)
_cell_angle_alpha                90
_cell_angle_beta                 90
_cell_angle_gamma                90
_cell_volume                     1102.38
_exptl_crystal_colour            yellow
_exptl_crystal_description       prism
_cell_formula_units_Z            4
loop_
_atom_site_label
_atom_site_type_symbol
_atom_site_fract_x
_atom_site_fract_y
_atom_site_fract_z
Se1 Se 0.57419(13) 0.22620(8) 0.55357(3)
Se2 Se 0.93083(13) 0.29623(9) 0.59578(3)
C1 C 0.5482(13) -0.0036(8) 0.5679(2)
C2 C 0.3421(12) -0.0789(9) 0.5470(2)
C3 C 0.3083(12) -0.2450(9) 0.5565(2)
C4 C 0.4712(14) -0.3338(9) 0.5860(3)
C5 C 0.6800(12) -0.2572(9) 0.6066(3)
C6 C 0.7152(12) -0.0939(9) 0.5966(3)
C7 C 0.8357(12) 0.3358(9) 0.6725(2)
C8 C 0.6299(10) 0.2701(9) 0.6962(2)
C9 C 0.5864(13) 0.2929(9) 0.7526(2)
C10 C 0.7402(15) 0.3834(11) 0.7843(3)
C11 C 0.9413(16) 0.4523(9) 0.7609(3)
C12 C 0.9895(12) 0.4292(9) 0.7043(3)
H1 H 0.2266 -0.0182 0.5267
H2 H 0.1695 -0.2968 0.5420
H3 H 0.4447 -0.4459 0.5927
H4 H 0.7952 -0.3176 0.6271
H5 H 0.8569 -0.0430 0.6098
H6 H 0.5205 0.2101 0.6739
H7 H 0.4490 0.2456 0.7693
H8 H 0.7080 0.3989 0.8229
H9 H 1.0466 0.5153 0.7832
H10 H 1.1268 0.4772 0.6877
loop_
_geom_bond_atom_site_label_1
_geom_bond_atom_site_label_2
_geom_bond_site_symmetry_1
_geom_bond_site_symmetry_2
Se1 Se2 1_555 1_555
Se2 C7 1_555 1_555
C1 Se1 1_555 1_555
C2 C1 1_555 1_555
C3 C2 1_555 1_555
C4 C3 1_555 1_555
C5 C4 1_555 1_555
C6 C1 1_555 1_555
C7 C8 1_555 1_555
C8 C9 1_555 1_555
C9 C10 1_555 1_555
C10 C11 1_555 1_555
C11 C12 1_555 1_555
C12 C7 1_555 1_555
H1 C2 1_555 1_555
H2 C3 1_555 1_555
H3 C4 1_555 1_555
H4 C5 1_555 1_555
H5 C6 1_555 1_555
H6 C8 1_555 1_555
H7 C9 1_555 1_555
H8 C10 1_555 1_555
H9 C11 1_555 1_555
H10 C12 1_555 1_555
C5 C6 1_555 1_555

#END
