
#######################################################################
#
#                 Cambridge Crystallographic Data Centre
#                                CCDC 
#
#######################################################################
#
# If this CIF has been generated from an entry in the Cambridge 
# Structural Database, then it will include bibliographic, chemical, 
# crystal, experimental, refinement or atomic coordinate data resulting 
# from the CCDC's data processing and validation procedures.
#
#######################################################################

data_DPHMET02
_chemical_formula_moiety         'C26 H22 O1'
_chemical_name_systematic        'bis(Diphenylmethyl) ether'
_symmetry_cell_setting           monoclinic
_symmetry_space_group_name_H-M   'P 21/n'
_symmetry_Int_Tables_number      14
_space_group_name_Hall           '-P 2yn'
loop_
_symmetry_equiv_pos_site_id
_symmetry_equiv_pos_as_xyz
1 x,y,z
2 1/2-x,1/2+y,1/2-z
3 -x,-y,-z
4 1/2+x,1/2-y,1/2+z
_cell_length_a                   9.2922(3)
_cell_length_b                   22.6718(7)
_cell_length_c                   9.8383(3)
_cell_angle_alpha                90
_cell_angle_beta                 104.905(3)
_cell_angle_gamma                90
_cell_volume                     2002.91
_exptl_crystal_colour            white
_exptl_crystal_description       block
_cell_formula_units_Z            4
loop_
_atom_site_label
_atom_site_type_symbol
_atom_site_fract_x
_atom_site_fract_y
_atom_site_fract_z
O1 O -0.00663(11) 0.10394(4) 0.25031(10)
C1 C -0.23418(17) 0.15773(7) 0.19972(15)
C2 C -0.3071(2) 0.10623(9) 0.2191(2)
C3 C -0.4618(2) 0.10377(12) 0.1815(3)
C4 C -0.5444(2) 0.15191(12) 0.1240(2)
C5 C -0.4736(2) 0.20290(12) 0.1027(2)
C6 C -0.3190(2) 0.20572(9) 0.14029(18)
C7 C 0.00447(16) 0.20354(7) 0.16441(15)
C8 C -0.0183(2) 0.19429(9) 0.02102(18)
C9 C 0.0469(2) 0.23077(10) -0.0579(2)
C10 C 0.1354(2) 0.27679(10) 0.0041(2)
C11 C 0.1611(2) 0.28609(9) 0.1460(2)
C12 C 0.09535(19) 0.24959(7) 0.2264(2)
C13 C 0.16149(17) 0.10241(7) 0.48597(16)
C14 C 0.0585(2) 0.07569(9) 0.5458(2)
C15 C 0.0770(3) 0.07677(11) 0.6897(2)
C16 C 0.1979(3) 0.10448(10) 0.7752(2)
C17 C 0.2991(2) 0.13205(9) 0.7175(2)
C18 C 0.28040(19) 0.13150(8) 0.57332(18)
C19 C 0.20377(16) 0.04205(7) 0.28071(17)
C20 C 0.2964(2) 0.00374(8) 0.3720(2)
C21 C 0.3529(3) -0.04617(9) 0.3205(3)
C22 C 0.3171(2) -0.05757(10) 0.1787(3)
C23 C 0.2239(2) -0.02047(10) 0.0877(2)
C24 C 0.1680(2) 0.02925(8) 0.13768(19)
C25 C -0.06565(17) 0.16252(7) 0.25073(16)
C26 C 0.14584(16) 0.09886(7) 0.32929(16)
H1 H -0.250(2) 0.0725(9) 0.2605(19)
H2 H -0.506(3) 0.0668(11) 0.192(2)
H3 H -0.655(2) 0.1499(9) 0.096(2)
H4 H -0.529(2) 0.2374(10) 0.061(2)
H5 H -0.269(2) 0.2410(8) 0.1300(18)
H6 H -0.081(2) 0.1623(9) -0.025(2)
H7 H 0.026(2) 0.2233(10) -0.159(3)
H8 H 0.180(2) 0.3030(10) -0.053(2)
H9 H 0.225(2) 0.3168(10) 0.193(2)
H10 H 0.1136(19) 0.2564(7) 0.328(2)
H11 H -0.027(2) 0.0570(9) 0.484(2)
H12 H 0.001(3) 0.0598(10) 0.727(2)
H13 H 0.210(3) 0.1052(10) 0.879(3)
H14 H 0.385(2) 0.1525(9) 0.780(2)
H15 H 0.351(2) 0.1510(8) 0.5314(19)
H16 H 0.3213(19) 0.0110(7) 0.4731(19)
H17 H 0.418(3) -0.0714(11) 0.387(2)
H18 H 0.360(3) -0.0927(11) 0.141(2)
H19 H 0.198(2) -0.0286(9) -0.014(2)
H20 H 0.101(2) 0.0558(8) 0.0728(19)
H21 H -0.0380(16) 0.1783(6) 0.3491(16)
H22 H 0.2055(16) 0.1323(7) 0.3039(15)
loop_
_geom_bond_atom_site_label_1
_geom_bond_atom_site_label_2
_geom_bond_site_symmetry_1
_geom_bond_site_symmetry_2
O1 C25 1_555 1_555
C1 C2 1_555 1_555
C2 C3 1_555 1_555
C3 C4 1_555 1_555
C4 C5 1_555 1_555
C5 C6 1_555 1_555
C6 C1 1_555 1_555
C7 C8 1_555 1_555
C8 C9 1_555 1_555
C9 C10 1_555 1_555
C10 C11 1_555 1_555
C11 C12 1_555 1_555
C12 C7 1_555 1_555
C13 C14 1_555 1_555
C14 C15 1_555 1_555
C15 C16 1_555 1_555
C16 C17 1_555 1_555
C17 C18 1_555 1_555
C18 C13 1_555 1_555
C19 C20 1_555 1_555
C20 C21 1_555 1_555
C21 C22 1_555 1_555
C22 C23 1_555 1_555
C23 C24 1_555 1_555
C24 C19 1_555 1_555
C25 C1 1_555 1_555
C26 O1 1_555 1_555
H1 C2 1_555 1_555
H2 C3 1_555 1_555
H3 C4 1_555 1_555
H4 C5 1_555 1_555
H5 C6 1_555 1_555
H6 C8 1_555 1_555
H7 C9 1_555 1_555
H8 C10 1_555 1_555
H9 C11 1_555 1_555
H10 C12 1_555 1_555
H11 C14 1_555 1_555
H12 C15 1_555 1_555
H13 C16 1_555 1_555
H14 C17 1_555 1_555
H15 C18 1_555 1_555
H16 C20 1_555 1_555
H17 C21 1_555 1_555
H18 C22 1_555 1_555
H19 C23 1_555 1_555
H20 C24 1_555 1_555
H21 C25 1_555 1_555
H22 C26 1_555 1_555
C7 C25 1_555 1_555
C13 C26 1_555 1_555
C19 C26 1_555 1_555

#END
