
#######################################################################
#
#                 Cambridge Crystallographic Data Centre
#                                CCDC 
#
#######################################################################
#
# If this CIF has been generated from an entry in the Cambridge 
# Structural Database, then it will include bibliographic, chemical, 
# crystal, experimental, refinement or atomic coordinate data resulting 
# from the CCDC's data processing and validation procedures.
#
#######################################################################

data_DPIBFB
_chemical_formula_moiety         'C37 H29 Br1 O3'
_chemical_name_systematic        
'1,3,4,5,6,11-Hexahydro-6,11-diphenyl-6,11-exo-epoxy-1,5a-ethano-5aH-cyclobut(d)anthracen-14-ol p-bromobenzoate'
_symmetry_cell_setting           monoclinic
_symmetry_space_group_name_H-M   'P 21/c'
_symmetry_Int_Tables_number      14
_space_group_name_Hall           '-P 2ybc'
loop_
_symmetry_equiv_pos_site_id
_symmetry_equiv_pos_as_xyz
1 x,y,z
2 -x,1/2+y,1/2-z
3 -x,-y,-z
4 x,1/2-y,1/2+z
_cell_length_a                   14.651(2)
_cell_length_b                   15.885(2)
_cell_length_c                   12.186(2)
_cell_angle_alpha                90
_cell_angle_beta                 90.83(2)
_cell_angle_gamma                90
_cell_volume                     2835.76
_cell_formula_units_Z            4
loop_
_atom_site_label
_atom_site_type_symbol
_atom_site_fract_x
_atom_site_fract_y
_atom_site_fract_z
Br1 Br 0.04457 0.31887 0.59904
O1 O 0.81060 0.41020 0.87930
O2 O 0.48480 0.43730 0.66840
O3 O 0.42540 0.56570 0.65470
C1 C 0.70400 0.49530 0.79020
C2 C 0.73780 0.57830 0.74670
C3 C 0.65280 0.60760 0.72640
C4 C 0.60530 0.52430 0.76360
C5 C 0.57570 0.47260 0.66130
C6 C 0.64000 0.39760 0.65140
C7 C 0.72830 0.41990 0.71590
C8 C 0.80450 0.44660 0.63400
C9 C 0.87580 0.51040 0.68130
C10 C 0.83220 0.59520 0.71210
C11 C 0.66560 0.40110 0.94340
C12 C 0.67940 0.33280 0.87610
C13 C 0.62540 0.26080 0.88310
C14 C 0.55710 0.26010 0.96100
C15 C 0.54420 0.32790 1.02960
C16 C 0.59850 0.40200 1.02220
C17 C 0.73520 0.46520 0.90690
C18 C 0.75980 0.35400 0.80390
C19 C 0.41510 0.49060 0.65680
C20 C 0.32640 0.44740 0.64540
C21 C 0.24740 0.49420 0.65680
C22 C 0.16310 0.45600 0.64270
C23 C 0.15920 0.37240 0.61510
C24 C 0.23670 0.32490 0.60240
C25 C 0.32100 0.36210 0.61880
C26 C 0.76790 0.53370 0.98360
C27 C 0.70460 0.59040 1.02440
C28 C 0.73590 0.65670 1.09250
C29 C 0.82710 0.66450 1.11600
C30 C 0.88790 0.60870 1.07560
C31 C 0.85940 0.54350 1.00870
C32 C 0.81720 0.28040 0.77040
C33 C 0.88730 0.25140 0.83870
C34 C 0.93600 0.18020 0.80780
C35 C 0.91690 0.13840 0.71180
C36 C 0.84660 0.16730 0.64560
C37 C 0.79720 0.23760 0.67430
H1 H 0.62600 0.66500 0.69600
H2 H 0.54600 0.53900 0.81000
H3 H 0.52300 0.51100 0.59000
H4 H 0.65400 0.38400 0.56800
H5 H 0.60900 0.34400 0.68600
H6 H 0.77300 0.47400 0.56400
H7 H 0.83900 0.39100 0.60800
H8 H 0.92800 0.51900 0.62400
H9 H 0.90600 0.48300 0.75300
H10 H 0.83300 0.63600 0.64300
H11 H 0.87100 0.62500 0.77600
H12 H 0.63600 0.20800 0.83000
H13 H 0.51600 0.20500 0.99700
H14 H 0.49200 0.32800 1.09000
H15 H 0.58800 0.45500 1.08000
H16 H 0.25100 0.56000 0.67800
H17 H 0.10200 0.49300 0.65300
H18 H 0.23200 0.26000 0.58100
H19 H 0.38100 0.32500 0.60900
H20 H 0.63400 0.58300 1.01000
H21 H 0.68800 0.70000 1.13000
H22 H 0.85000 0.71400 1.16000
H23 H 0.96000 0.61600 1.09000
H24 H 0.90800 0.49900 0.95600
H25 H 0.90300 0.28500 0.91200
H26 H 0.99000 0.15800 0.85900
H27 H 0.95400 0.08400 0.68900
H28 H 0.83200 0.13400 0.57100
H29 H 0.74400 0.26100 0.62300
loop_
_geom_bond_atom_site_label_1
_geom_bond_atom_site_label_2
_geom_bond_site_symmetry_1
_geom_bond_site_symmetry_2
Br1 C23 1_555 1_555
O1 C17 1_555 1_555
O2 C5 1_555 1_555
O3 C19 1_555 1_555
C1 C2 1_555 1_555
C2 C3 1_555 1_555
C3 C4 1_555 1_555
C4 C1 1_555 1_555
C5 C4 1_555 1_555
C6 C5 1_555 1_555
C7 C1 1_555 1_555
C8 C7 1_555 1_555
C9 C8 1_555 1_555
C10 C2 1_555 1_555
C11 C12 1_555 1_555
C12 C13 1_555 1_555
C13 C14 1_555 1_555
C14 C15 1_555 1_555
C15 C16 1_555 1_555
C16 C11 1_555 1_555
C17 C1 1_555 1_555
C18 O1 1_555 1_555
C19 O2 1_555 1_555
C20 C19 1_555 1_555
C21 C20 1_555 1_555
C22 C21 1_555 1_555
C23 C22 1_555 1_555
C24 C23 1_555 1_555
C25 C20 1_555 1_555
C26 C17 1_555 1_555
C27 C26 1_555 1_555
C28 C27 1_555 1_555
C29 C28 1_555 1_555
C30 C29 1_555 1_555
C31 C26 1_555 1_555
C32 C18 1_555 1_555
C33 C32 1_555 1_555
C34 C33 1_555 1_555
C35 C34 1_555 1_555
C36 C35 1_555 1_555
C37 C32 1_555 1_555
H1 C3 1_555 1_555
H2 C4 1_555 1_555
H3 C5 1_555 1_555
H4 C6 1_555 1_555
H5 C6 1_555 1_555
H6 C8 1_555 1_555
H7 C8 1_555 1_555
H8 C9 1_555 1_555
H9 C9 1_555 1_555
H10 C10 1_555 1_555
H11 C10 1_555 1_555
H12 C13 1_555 1_555
H13 C14 1_555 1_555
H14 C15 1_555 1_555
H15 C16 1_555 1_555
H16 C21 1_555 1_555
H17 C22 1_555 1_555
H18 C24 1_555 1_555
H19 C25 1_555 1_555
H20 C27 1_555 1_555
H21 C28 1_555 1_555
H22 C29 1_555 1_555
H23 C30 1_555 1_555
H24 C31 1_555 1_555
H25 C33 1_555 1_555
H26 C34 1_555 1_555
H27 C35 1_555 1_555
H28 C36 1_555 1_555
H29 C37 1_555 1_555
C6 C7 1_555 1_555
C7 C18 1_555 1_555
C9 C10 1_555 1_555
C11 C17 1_555 1_555
C12 C18 1_555 1_555
C24 C25 1_555 1_555
C30 C31 1_555 1_555
C36 C37 1_555 1_555

#END
