
#######################################################################
#
#                 Cambridge Crystallographic Data Centre
#                                CCDC 
#
#######################################################################
#
# If this CIF has been generated from an entry in the Cambridge 
# Structural Database, then it will include bibliographic, chemical, 
# crystal, experimental, refinement or atomic coordinate data resulting 
# from the CCDC's data processing and validation procedures.
#
#######################################################################

data_DPIBFA
_chemical_formula_moiety         'C34 H30 Br2 O4'
_chemical_name_systematic        
'8-(1,2,3,4,5,6-Hexahydro-5-hydroxy-3a,6-methano-3aH-inden-8-ylidene)-1,2,3,4,5,6-hexahydro-3a,6-methano-3aH-inden-5-ol bis(p-bromobenzoate)'
_symmetry_cell_setting           triclinic
_symmetry_space_group_name_H-M   'P -1'
_symmetry_Int_Tables_number      2
_space_group_name_Hall           '-P 1'
loop_
_symmetry_equiv_pos_site_id
_symmetry_equiv_pos_as_xyz
1 x,y,z
2 -x,-y,-z
_cell_length_a                   12.562(3)
_cell_length_b                   14.596(4)
_cell_length_c                   8.308(2)
_cell_angle_alpha                102.60(3)
_cell_angle_beta                 95.15(3)
_cell_angle_gamma                82.49(3)
_cell_volume                     1470.92
_cell_formula_units_Z            2
loop_
_atom_site_label
_atom_site_type_symbol
_atom_site_fract_x
_atom_site_fract_y
_atom_site_fract_z
Br1 Br 0.87418 0.80564 0.42666
Br2 Br 0.74551 0.51348 0.56038
O1 O 0.51680 0.57570 -0.13450
O2 O 0.40840 0.92460 0.60700
O3 O 0.42530 0.72030 -0.06810
O4 O 0.32100 0.82710 0.40930
C1 C 0.16300 0.68860 -0.06000
C2 C 0.27320 0.62710 -0.08680
C3 C 0.33370 0.68670 -0.17170
C4 C 0.25360 0.77450 -0.18420
C5 C 0.16470 0.73670 -0.30880
C6 C 0.11160 0.68730 -0.23480
C7 C 0.01910 0.62870 -0.26710
C8 C 0.01490 0.59460 -0.11100
C9 C 0.08030 0.65700 0.03700
C10 C 0.20020 0.78650 -0.02050
C11 C 0.51180 0.65780 -0.05870
C12 C 0.59950 0.69570 0.05650
C13 C 0.58920 0.78930 0.14410
C14 C 0.67100 0.82160 0.25510
C15 C 0.76120 0.76220 0.27430
C16 C 0.77440 0.67040 0.18880
C17 C 0.69190 0.63780 0.07690
C18 C 0.21470 0.96000 0.12860
C19 C 0.29160 0.96830 0.28690
C20 C 0.24370 0.90860 0.38690
C21 C 0.14730 0.86990 0.27450
C22 C 0.06750 0.95860 0.27500
C23 C 0.10800 1.01080 0.18780
C24 C 0.07960 1.10250 0.13330
C25 C 0.18120 1.11080 0.04860
C26 C 0.23760 1.00840 -0.00760
C27 C 0.19080 0.85790 0.10450
C28 C 0.40270 0.84710 0.52260
C29 C 0.48140 0.76500 0.52860
C30 C 0.47340 0.67610 0.42590
C31 C 0.55060 0.60120 0.43410
C32 C 0.63860 0.61560 0.54550
C33 C 0.64980 0.70210 0.64840
C34 C 0.57190 0.77530 0.64030
H1 H 0.26500 0.55900 -0.15900
H2 H 0.31400 0.61800 0.03000
H3 H 0.35200 0.64900 -0.29200
H4 H 0.29000 0.82800 -0.21800
H5 H 0.14800 0.75000 -0.42800
H6 H -0.05400 0.67000 -0.29400
H7 H 0.03000 0.57200 -0.36800
H8 H -0.05100 0.57000 -0.07000
H9 H 0.12300 0.60600 -0.05700
H10 H 0.03500 0.70600 -0.02400
H11 H 0.51800 0.83500 0.12900
H12 H 0.66200 0.89200 0.32200
H13 H 0.84600 0.62500 0.20400
H14 H 0.70200 0.56700 0.01000
H15 H 0.29400 1.04000 0.35000
H16 H 0.37100 0.94000 0.25800
H17 H 0.22000 0.94800 0.50300
H18 H 0.11600 0.81600 0.31400
H19 H -0.00600 0.97600 0.33300
H20 H 0.15700 1.14000 -0.05800
H21 H 0.23100 1.16000 0.12400
H22 H 0.20700 0.97400 -0.12300
H23 H 0.32100 1.01000 -0.01500
H24 H 0.40500 0.66600 0.34100
H25 H 0.54100 0.53600 0.35500
H26 H 0.71700 0.71200 0.73300
H27 H 0.57900 0.84100 0.72000
loop_
_geom_bond_atom_site_label_1
_geom_bond_atom_site_label_2
_geom_bond_site_symmetry_1
_geom_bond_site_symmetry_2
Br1 C15 1_555 1_555
Br2 C32 1_555 1_555
O1 C11 1_555 1_555
O2 C28 1_555 1_555
O3 C3 1_555 1_555
O4 C20 1_555 1_555
C1 C2 1_555 1_555
C2 C3 1_555 1_555
C3 C4 1_555 1_555
C4 C5 1_555 1_555
C5 C6 1_555 1_555
C6 C1 1_555 1_555
C7 C6 1_555 1_555
C8 C7 1_555 1_555
C9 C1 1_555 1_555
C10 C1 1_555 1_555
C11 O3 1_555 1_555
C12 C11 1_555 1_555
C13 C12 1_555 1_555
C14 C13 1_555 1_555
C15 C14 1_555 1_555
C16 C15 1_555 1_555
C17 C12 1_555 1_555
C18 C19 1_555 1_555
C19 C20 1_555 1_555
C20 C21 1_555 1_555
C21 C22 1_555 1_555
C22 C23 1_555 1_555
C23 C18 1_555 1_555
C24 C23 1_555 1_555
C25 C24 1_555 1_555
C26 C18 1_555 1_555
C27 C10 1_555 1_555
C28 O4 1_555 1_555
C29 C28 1_555 1_555
C30 C29 1_555 1_555
C31 C30 1_555 1_555
C32 C31 1_555 1_555
C33 C32 1_555 1_555
C34 C29 1_555 1_555
H1 C2 1_555 1_555
H2 C2 1_555 1_555
H3 C3 1_555 1_555
H4 C4 1_555 1_555
H5 C5 1_555 1_555
H6 C7 1_555 1_555
H7 C7 1_555 1_555
H8 C8 1_555 1_555
H9 C9 1_555 1_555
H10 C9 1_555 1_555
H11 C13 1_555 1_555
H12 C14 1_555 1_555
H13 C16 1_555 1_555
H14 C17 1_555 1_555
H15 C19 1_555 1_555
H16 C19 1_555 1_555
H17 C20 1_555 1_555
H18 C21 1_555 1_555
H19 C22 1_555 1_555
H20 C25 1_555 1_555
H21 C25 1_555 1_555
H22 C26 1_555 1_555
H23 C26 1_555 1_555
H24 C30 1_555 1_555
H25 C31 1_555 1_555
H26 C33 1_555 1_555
H27 C34 1_555 1_555
C4 C10 1_555 1_555
C8 C9 1_555 1_555
C16 C17 1_555 1_555
C18 C27 1_555 1_555
C21 C27 1_555 1_555
C25 C26 1_555 1_555
C33 C34 1_555 1_555

#END
