
#######################################################################
#
#                 Cambridge Crystallographic Data Centre
#                                CCDC 
#
#######################################################################
#
# If this CIF has been generated from an entry in the Cambridge 
# Structural Database, then it will include bibliographic, chemical, 
# crystal, experimental, refinement or atomic coordinate data resulting 
# from the CCDC's data processing and validation procedures.
#
#######################################################################

data_DPINOL01
_chemical_formula_moiety         'C28 H18 N2'
_chemical_name_systematic        3,3'-Diphenyl-1,1'-bis(isoindolylidene)
_symmetry_cell_setting           triclinic
_symmetry_space_group_name_H-M   'P -1'
_symmetry_Int_Tables_number      2
_space_group_name_Hall           '-P 1'
loop_
_symmetry_equiv_pos_site_id
_symmetry_equiv_pos_as_xyz
1 x,y,z
2 -x,-y,-z
_cell_length_a                   9.8636(2)
_cell_length_b                   9.8691(3)
_cell_length_c                   10.8014(3)
_cell_angle_alpha                110.7554(12)
_cell_angle_beta                 95.5907(16)
_cell_angle_gamma                98.2510(15)
_cell_volume                     960.474
_exptl_crystal_colour            orange
_exptl_crystal_description       needle
_cell_formula_units_Z            2
loop_
_atom_site_label
_atom_site_type_symbol
_atom_site_fract_x
_atom_site_fract_y
_atom_site_fract_z
N1 N 0.24901(10) 0.43171(10) 0.32373(9)
N2 N 0.24940(10) 0.57071(10) 0.69096(9)
C1 C 0.18771(12) 0.26492(12) 0.03263(11)
H1 H 0.1081 0.2882 0.0725
C2 C 0.17852(13) 0.21286(13) -0.10561(12)
H2 H 0.0923 0.1993 -0.1602
C3 C 0.29468(13) 0.18036(14) -0.16470(12)
H3 H 0.2880 0.1444 -0.2596
C4 C 0.42035(13) 0.20053(15) -0.08495(12)
H4 H 0.5003 0.1796 -0.1252
C5 C 0.42991(13) 0.25122(14) 0.05356(12)
H5 H 0.5163 0.2642 0.1077
C6 C 0.31340(12) 0.28328(12) 0.11373(11)
C7 C 0.32105(11) 0.33450(12) 0.25992(11)
C8 C 0.40131(11) 0.28219(12) 0.35050(11)
C9 C 0.48648(12) 0.17785(13) 0.32991(12)
H6 H 0.5056 0.1258 0.2429
C10 C 0.54267(13) 0.15228(13) 0.44090(12)
H7 H 0.6015 0.0819 0.4297
C11 C 0.51401(13) 0.22835(13) 0.56849(12)
H8 H 0.5540 0.2090 0.6427
C12 C 0.42818(12) 0.33184(13) 0.58938(11)
H9 H 0.4088 0.3832 0.6764
C13 C 0.37175(12) 0.35754(12) 0.47871(11)
C14 C 0.27677(12) 0.45302(12) 0.46037(11)
C15 C 0.22052(11) 0.55102(12) 0.55481(11)
C16 C 0.12941(11) 0.65089(12) 0.53941(11)
C17 C 0.06542(12) 0.67270(13) 0.42950(11)
H10 H 0.0790 0.6178 0.3411
C18 C -0.01919(13) 0.77738(13) 0.45289(12)
H11 H -0.0633 0.7947 0.3792
C19 C -0.04065(13) 0.85760(13) 0.58241(12)
H12 H -0.0991 0.9284 0.5954
C20 C 0.02211(12) 0.83542(13) 0.69244(11)
H13 H 0.0068 0.8892 0.7805
C21 C 0.10813(12) 0.73203(12) 0.66980(11)
C22 C 0.18580(11) 0.67505(12) 0.75810(11)
C23 C 0.19308(11) 0.72132(12) 0.90401(11)
C24 C 0.19747(12) 0.61701(13) 0.96377(11)
H14 H 0.1961 0.5170 0.9096
C25 C 0.20386(13) 0.65833(13) 1.10133(12)
H15 H 0.2060 0.5867 1.1411
C26 C 0.20710(12) 0.80529(13) 1.18103(11)
H16 H 0.2107 0.8338 1.2752
C27 C 0.20509(12) 0.90998(13) 1.12292(11)
H17 H 0.2090 1.0104 1.1777
C28 C 0.19745(12) 0.86868(12) 0.98529(11)
H18 H 0.1952 0.9407 0.9460
loop_
_geom_bond_atom_site_label_1
_geom_bond_atom_site_label_2
_geom_bond_site_symmetry_1
_geom_bond_site_symmetry_2
N1 C7 1_555 1_555
N2 C15 1_555 1_555
C1 H1 1_555 1_555
C2 C1 1_555 1_555
H2 C2 1_555 1_555
C3 C2 1_555 1_555
H3 C3 1_555 1_555
C4 C3 1_555 1_555
H4 C4 1_555 1_555
C5 C4 1_555 1_555
H5 C5 1_555 1_555
C6 C1 1_555 1_555
C7 C6 1_555 1_555
C8 C7 1_555 1_555
C9 C8 1_555 1_555
H6 C9 1_555 1_555
C10 C9 1_555 1_555
H7 C10 1_555 1_555
C11 C10 1_555 1_555
H8 C11 1_555 1_555
C12 C11 1_555 1_555
H9 C12 1_555 1_555
C13 C8 1_555 1_555
C14 N1 1_555 1_555
C15 C14 1_555 1_555
C16 C15 1_555 1_555
C17 C16 1_555 1_555
H10 C17 1_555 1_555
C18 C17 1_555 1_555
H11 C18 1_555 1_555
C19 C18 1_555 1_555
H12 C19 1_555 1_555
C20 C19 1_555 1_555
H13 C20 1_555 1_555
C21 C16 1_555 1_555
C22 N2 1_555 1_555
C23 C22 1_555 1_555
C24 C23 1_555 1_555
H14 C24 1_555 1_555
C25 C24 1_555 1_555
H15 C25 1_555 1_555
C26 C25 1_555 1_555
H16 C26 1_555 1_555
C27 C26 1_555 1_555
H17 C27 1_555 1_555
C28 C23 1_555 1_555
H18 C28 1_555 1_555
C5 C6 1_555 1_555
C12 C13 1_555 1_555
C13 C14 1_555 1_555
C20 C21 1_555 1_555
C21 C22 1_555 1_555
C27 C28 1_555 1_555

#END
