
#######################################################################
#
#                 Cambridge Crystallographic Data Centre
#                                CCDC 
#
#######################################################################
#
# If this CIF has been generated from an entry in the Cambridge 
# Structural Database, then it will include bibliographic, chemical, 
# crystal, experimental, refinement or atomic coordinate data resulting 
# from the CCDC's data processing and validation procedures.
#
#######################################################################

data_DPPHOL01
_chemical_formula_moiety         'C18 H14 O1'
_chemical_name_systematic        1,1':3',1''-terphenyl-2'-ol
_symmetry_cell_setting           orthorhombic
_symmetry_space_group_name_H-M   'P 21 21 21'
_symmetry_Int_Tables_number      19
_space_group_name_Hall           'P 2ac 2ab'
loop_
_symmetry_equiv_pos_site_id
_symmetry_equiv_pos_as_xyz
1 x,y,z
2 1/2-x,-y,1/2+z
3 -x,1/2+y,1/2-z
4 1/2+x,1/2-y,-z
_cell_length_a                   6.2671(11)
_cell_length_b                   11.0840(19)
_cell_length_c                   18.187(3)
_cell_angle_alpha                90
_cell_angle_beta                 90
_cell_angle_gamma                90
_cell_volume                     1263.35
_exptl_crystal_colour            colorless
_exptl_crystal_description       rod
_cell_formula_units_Z            4
loop_
_atom_site_label
_atom_site_type_symbol
_atom_site_fract_x
_atom_site_fract_y
_atom_site_fract_z
O1 O 0.55056(18) 0.71691(12) 0.83965(7)
C1 C 0.7315(2) 0.68807(17) 0.87919(10)
C2 C 0.7557(2) 0.57550(16) 0.91310(9)
C3 C 0.9429(3) 0.55387(17) 0.95260(10)
H1 H 0.9606 0.4787 0.9769
C4 C 1.1026(3) 0.63917(17) 0.95717(10)
H2 H 1.2295 0.6225 0.9839
C5 C 1.0759(3) 0.74880(17) 0.92259(9)
H3 H 1.1867 0.8071 0.9257
C6 C 0.8907(2) 0.77701(16) 0.88309(9)
C7 C 0.8692(3) 0.89817(16) 0.84993(9)
C8 C 0.6818(3) 0.96653(16) 0.85643(10)
H4 H 0.5606 0.9325 0.8800
C9 C 0.6711(3) 1.08281(18) 0.82901(10)
H5 H 0.5435 1.1281 0.8345
C10 C 0.8457(3) 1.13390(19) 0.79349(11)
H6 H 0.8376 1.2136 0.7744
C11 C 1.0317(3) 1.06715(19) 0.78628(10)
H7 H 1.1517 1.1014 0.7621
C12 C 1.0440(3) 0.95134(18) 0.81396(10)
H8 H 1.1727 0.9069 0.8086
C13 C 0.5868(2) 0.48122(16) 0.90975(10)
C14 C 0.4971(3) 0.44446(16) 0.84314(10)
H9 H 0.5450 0.4799 0.7985
C15 C 0.3394(3) 0.35701(17) 0.84125(10)
H10 H 0.2788 0.3335 0.7955
C16 C 0.2697(3) 0.30372(16) 0.90571(11)
H11 H 0.1607 0.2442 0.9044
C17 C 0.3598(3) 0.33760(17) 0.97242(10)
H12 H 0.3142 0.3001 1.0167
C18 C 0.5158(3) 0.42601(16) 0.97439(9)
H13 H 0.5754 0.4494 1.0203
H14 H 0.454(4) 0.658(2) 0.8449(13)
loop_
_geom_bond_atom_site_label_1
_geom_bond_atom_site_label_2
_geom_bond_site_symmetry_1
_geom_bond_site_symmetry_2
O1 C1 1_555 1_555
C1 C2 1_555 1_555
C2 C3 1_555 1_555
C3 H1 1_555 1_555
C4 C3 1_555 1_555
H2 C4 1_555 1_555
C5 C4 1_555 1_555
H3 C5 1_555 1_555
C6 C1 1_555 1_555
C7 C6 1_555 1_555
C8 C7 1_555 1_555
H4 C8 1_555 1_555
C9 C8 1_555 1_555
H5 C9 1_555 1_555
C10 C9 1_555 1_555
H6 C10 1_555 1_555
C11 C10 1_555 1_555
H7 C11 1_555 1_555
C12 C7 1_555 1_555
H8 C12 1_555 1_555
C13 C2 1_555 1_555
C14 C13 1_555 1_555
H9 C14 1_555 1_555
C15 C14 1_555 1_555
H10 C15 1_555 1_555
C16 C15 1_555 1_555
H11 C16 1_555 1_555
C17 C16 1_555 1_555
H12 C17 1_555 1_555
C18 C13 1_555 1_555
H13 C18 1_555 1_555
H14 O1 1_555 1_555
C5 C6 1_555 1_555
C11 C12 1_555 1_555
C17 C18 1_555 1_555

#END
