
#######################################################################
#
#                 Cambridge Crystallographic Data Centre
#                                CCDC 
#
#######################################################################
#
# If this CIF has been generated from an entry in the Cambridge 
# Structural Database, then it will include bibliographic, chemical, 
# crystal, experimental, refinement or atomic coordinate data resulting 
# from the CCDC's data processing and validation procedures.
#
#######################################################################

data_DPPYBZ03
_chemical_formula_moiety         'C16 H12 N2'
_chemical_name_systematic        2,5-Diphenylpyrazine
_symmetry_cell_setting           monoclinic
_symmetry_space_group_name_H-M   'P 21/c'
_symmetry_Int_Tables_number      14
_space_group_name_Hall           '-P 2ybc'
loop_
_symmetry_equiv_pos_site_id
_symmetry_equiv_pos_as_xyz
1 x,y,z
2 -x,1/2+y,1/2-z
3 -x,-y,-z
4 x,1/2-y,1/2+z
_cell_length_a                   13.466(5)
_cell_length_b                   5.758(2)
_cell_length_c                   7.713(3)
_cell_angle_alpha                90
_cell_angle_beta                 93.049(9)
_cell_angle_gamma                90
_cell_volume                     597.198
_exptl_crystal_colour            red
_exptl_crystal_description       prismatic
_cell_formula_units_Z            2
loop_
_atom_site_label
_atom_site_type_symbol
_atom_site_fract_x
_atom_site_fract_y
_atom_site_fract_z
C1 C 0.59566(15) 0.0036(4) 0.4541(3)
N1 N 0.54860(13) -0.2015(3) 0.4531(3)
C2 C 0.70084(15) 0.0042(4) 0.4038(3)
C3 C 0.76582(16) 0.1841(4) 0.4539(3)
H1 H 0.7432 0.3085 0.5178
C4 C 0.83545(16) -0.1850(4) 0.2640(3)
H2 H 0.8587 -0.3084 0.1998
C5 C 0.73709(16) -0.1791(4) 0.3082(3)
H3 H 0.6946 -0.2997 0.2735
C6 C 0.86393(17) 0.1775(4) 0.4085(4)
H4 H 0.9066 0.2988 0.4411
C7 C 0.89896(16) -0.0057(4) 0.3158(3)
H5 H 0.9653 -0.0097 0.2879
C8 C 0.54542(16) 0.2021(4) 0.5004(4)
H6 H 0.5790 0.3432 0.4991
C1B C 0.40434(15) -0.0036(4) 0.5459(3)
N1B N 0.45140(13) 0.2015(3) 0.5469(3)
C2B C 0.29916(15) -0.0042(4) 0.5962(3)
C3B C 0.23418(16) -0.1841(4) 0.5461(3)
H1B H 0.2568 -0.3085 0.4822
C4B C 0.16455(16) 0.1850(4) 0.7360(3)
H2B H 0.1413 0.3084 0.8002
C5B C 0.26291(16) 0.1791(4) 0.6918(3)
H3B H 0.3054 0.2997 0.7265
C6B C 0.13607(17) -0.1775(4) 0.5915(4)
H4B H 0.0934 -0.2988 0.5589
C7B C 0.10104(16) 0.0057(4) 0.6842(3)
H5B H 0.0347 0.0097 0.7121
C8B C 0.45458(16) -0.2021(4) 0.4996(4)
H6B H 0.4210 -0.3432 0.5009
loop_
_geom_bond_atom_site_label_1
_geom_bond_atom_site_label_2
_geom_bond_site_symmetry_1
_geom_bond_site_symmetry_2
C1 N1 1_555 1_555
N1 C8B 1_555 1_555
C2 C1 1_555 1_555
C3 C2 1_555 1_555
H1 C3 1_555 1_555
C4 H2 1_555 1_555
C5 C2 1_555 1_555
H3 C5 1_555 1_555
C6 C3 1_555 1_555
H4 C6 1_555 1_555
C7 C4 1_555 1_555
H5 C7 1_555 1_555
C8 C1 1_555 1_555
H6 C8 1_555 1_555
C1B N1B 1_555 1_555
N1B C8 1_555 1_555
C2B C1B 1_555 1_555
C3B C2B 1_555 1_555
H1B C3B 1_555 1_555
C4B H2B 1_555 1_555
C5B C2B 1_555 1_555
H3B C5B 1_555 1_555
C6B C3B 1_555 1_555
H4B C6B 1_555 1_555
C7B C4B 1_555 1_555
H5B C7B 1_555 1_555
C8B C1B 1_555 1_555
H6B C8B 1_555 1_555
C4 C5 1_555 1_555
C6 C7 1_555 1_555
C4B C5B 1_555 1_555
C6B C7B 1_555 1_555

#END
