
#######################################################################
#
#                 Cambridge Crystallographic Data Centre
#                                CCDC 
#
#######################################################################
#
# If this CIF has been generated from an entry in the Cambridge 
# Structural Database, then it will include bibliographic, chemical, 
# crystal, experimental, refinement or atomic coordinate data resulting 
# from the CCDC's data processing and validation procedures.
#
#######################################################################

data_DPTHNO
_chemical_formula_moiety         'C16 H12 O1 S2'
_chemical_name_systematic        '2,5-Diphenyl-1,4-dithiine 1-oxide'
_symmetry_cell_setting           orthorhombic
_symmetry_space_group_name_H-M   'P b c a'
_symmetry_Int_Tables_number      61
_space_group_name_Hall           '-P 2ac 2ab'
loop_
_symmetry_equiv_pos_site_id
_symmetry_equiv_pos_as_xyz
1 x,y,z
2 1/2-x,1/2+y,z
3 x,1/2-y,1/2+z
4 1/2-x,-y,1/2+z
5 -x,-y,-z
6 1/2+x,1/2-y,-z
7 -x,1/2+y,1/2-z
8 1/2+x,y,1/2-z
_cell_length_a                   27.855(10)
_cell_length_b                   12.162(8)
_cell_length_c                   8.089(7)
_cell_angle_alpha                90
_cell_angle_beta                 90
_cell_angle_gamma                90
_cell_volume                     2740.33
_cell_formula_units_Z            8
loop_
_atom_site_label
_atom_site_type_symbol
_atom_site_fract_x
_atom_site_fract_y
_atom_site_fract_z
C1 C 0.47310 0.36500 0.19130
C2 C 0.55590 0.43880 0.23630
C3 C 0.31410 0.36590 0.09750
C4 C 0.29600 0.28830 -0.00990
C5 C 0.24850 0.29240 -0.05630
C6 C 0.21900 0.37340 0.00250
C7 C 0.23660 0.45180 0.10930
C8 C 0.28500 0.44890 0.15560
C9 C 0.44870 0.45810 0.19480
C10 C 0.36480 0.35790 0.15590
C11 C 0.38860 0.26160 0.15430
C12 C 0.52630 0.36220 0.16620
C13 C 0.54650 0.28120 0.06460
C14 C 0.59450 0.28270 0.03590
C15 C 0.62380 0.36180 0.10390
C16 C 0.60490 0.43870 0.20820
H1 H 0.54050 0.50220 0.31820
H2 H 0.32100 0.22470 -0.06230
H3 H 0.23290 0.23060 -0.14130
H4 H 0.18100 0.37660 -0.03660
H5 H 0.21220 0.51610 0.15510
H6 H 0.29950 0.51470 0.23890
H7 H 0.46830 0.53250 0.15540
H8 H 0.36750 0.19000 0.11600
H9 H 0.52450 0.21530 0.01260
H10 H 0.61100 0.22200 -0.04230
H11 H 0.66400 0.36670 0.07880
H12 H 0.62690 0.50050 0.27090
O1 O 0.38660 0.45000 0.43570
S1 S 0.44700 0.23700 0.20450
S2 S 0.38910 0.47390 0.25700
loop_
_geom_bond_atom_site_label_1
_geom_bond_atom_site_label_2
_geom_bond_site_symmetry_1
_geom_bond_site_symmetry_2
C1 C9 1_555 1_555
C2 C12 1_555 1_555
C3 C4 1_555 1_555
C4 C5 1_555 1_555
C5 C6 1_555 1_555
C6 C7 1_555 1_555
C7 C8 1_555 1_555
C8 C3 1_555 1_555
C9 H7 1_555 1_555
C10 C3 1_555 1_555
C11 C10 1_555 1_555
C12 C1 1_555 1_555
C13 C12 1_555 1_555
C14 C13 1_555 1_555
C15 C14 1_555 1_555
C16 C2 1_555 1_555
H1 C2 1_555 1_555
H2 C4 1_555 1_555
H3 C5 1_555 1_555
H4 C6 1_555 1_555
H5 C7 1_555 1_555
H6 C8 1_555 1_555
H8 C11 1_555 1_555
H9 C13 1_555 1_555
H10 C14 1_555 1_555
H11 C15 1_555 1_555
H12 C16 1_555 1_555
O1 S2 1_555 1_555
S1 C1 1_555 1_555
S2 C9 1_555 1_555
C10 S2 1_555 1_555
C11 S1 1_555 1_555
C15 C16 1_555 1_555

#END
