
#######################################################################
#
#                 Cambridge Crystallographic Data Centre
#                                CCDC 
#
#######################################################################
#
# If this CIF has been generated from an entry in the Cambridge 
# Structural Database, then it will include bibliographic, chemical, 
# crystal, experimental, refinement or atomic coordinate data resulting 
# from the CCDC's data processing and validation procedures.
#
#######################################################################

data_DSDTHL01
_chemical_formula_moiety         'C17 H14 O1 S2'
_chemical_name_systematic        
2-(1,3-dithiolan-2-ylidene)-1,2-diphenylethanone
_symmetry_cell_setting           monoclinic
_symmetry_space_group_name_H-M   'P 21/c'
_symmetry_Int_Tables_number      14
_space_group_name_Hall           '-P 2ybc'
loop_
_symmetry_equiv_pos_site_id
_symmetry_equiv_pos_as_xyz
1 x,y,z
2 -x,1/2+y,1/2-z
3 -x,-y,-z
4 x,1/2-y,1/2+z
_cell_length_a                   9.5414(8)
_cell_length_b                   17.3999(11)
_cell_length_c                   9.7984(8)
_cell_angle_alpha                90
_cell_angle_beta                 116.714(11)
_cell_angle_gamma                90
_cell_volume                     1453.09
_exptl_crystal_colour            colorless
_exptl_crystal_description       prismatic
_cell_formula_units_Z            4
loop_
_atom_site_label
_atom_site_type_symbol
_atom_site_fract_x
_atom_site_fract_y
_atom_site_fract_z
S1 S 0.87178(7) 0.60914(4) 0.88276(6)
S2 S 0.96655(6) 0.57866(4) 0.64139(6)
O1 O 0.55913(19) 0.63335(10) 0.74412(17)
C1 C 0.3707(3) 0.72008(12) 0.3825(2)
H1 H 0.4596 0.7441 0.3866
C2 C 0.2251(3) 0.74111(14) 0.2723(3)
H2 H 0.2156 0.7799 0.2033
C3 C 0.0925(3) 0.70492(15) 0.2636(3)
H3 H -0.0061 0.7192 0.1887
C4 C 0.1067(3) 0.64762(15) 0.3660(3)
H4 H 0.0176 0.6225 0.3589
C5 C 0.2525(2) 0.62743(13) 0.4789(3)
H5 H 0.2611 0.5897 0.5494
C6 C 0.3864(2) 0.66295(12) 0.4882(2)
C7 C 0.5424(2) 0.63979(12) 0.6126(2)
C8 C 0.6706(2) 0.62222(11) 0.5740(2)
C9 C 0.6393(2) 0.61689(11) 0.4108(2)
C10 C 0.7069(2) 0.66833(13) 0.3501(2)
H6 H 0.7756 0.7057 0.4122
C11 C 0.6722(3) 0.66427(15) 0.1963(3)
H7 H 0.7165 0.6996 0.1557
C12 C 0.5738(3) 0.60899(15) 0.1049(3)
H8 H 0.5518 0.6063 0.0024
C13 C 0.5067(3) 0.55688(14) 0.1645(3)
H9 H 0.4397 0.5189 0.1023
C14 C 0.5396(2) 0.56136(12) 0.3176(2)
H10 H 0.4937 0.5265 0.3574
C15 C 0.8166(2) 0.60609(11) 0.6875(2)
C16 C 1.0807(3) 0.59977(17) 0.9432(3)
H11 H 1.1265 0.6500 0.9470
H12 H 1.1316 0.5772 1.0445
C17 C 1.1045(3) 0.54945(18) 0.8314(3)
H13 H 1.0873 0.4961 0.8481
H14 H 1.2110 0.5547 0.8443
loop_
_geom_bond_atom_site_label_1
_geom_bond_atom_site_label_2
_geom_bond_site_symmetry_1
_geom_bond_site_symmetry_2
S1 C15 1_555 1_555
S2 C15 1_555 1_555
O1 C7 1_555 1_555
C1 H1 1_555 1_555
C2 C1 1_555 1_555
H2 C2 1_555 1_555
C3 C2 1_555 1_555
H3 C3 1_555 1_555
C4 C3 1_555 1_555
H4 C4 1_555 1_555
C5 C4 1_555 1_555
H5 C5 1_555 1_555
C6 C1 1_555 1_555
C7 C6 1_555 1_555
C8 C7 1_555 1_555
C9 C8 1_555 1_555
C10 C9 1_555 1_555
H6 C10 1_555 1_555
C11 C10 1_555 1_555
H7 C11 1_555 1_555
C12 C11 1_555 1_555
H8 C12 1_555 1_555
C13 C12 1_555 1_555
H9 C13 1_555 1_555
C14 C9 1_555 1_555
H10 C14 1_555 1_555
C15 C8 1_555 1_555
C16 S1 1_555 1_555
H11 C16 1_555 1_555
H12 C16 1_555 1_555
C17 S2 1_555 1_555
H13 C17 1_555 1_555
H14 C17 1_555 1_555
C5 C6 1_555 1_555
C13 C14 1_555 1_555
C16 C17 1_555 1_555

#END
