
#######################################################################
#
#                 Cambridge Crystallographic Data Centre
#                                CCDC 
#
#######################################################################
#
# If this CIF has been generated from an entry in the Cambridge 
# Structural Database, then it will include bibliographic, chemical, 
# crystal, experimental, refinement or atomic coordinate data resulting 
# from the CCDC's data processing and validation procedures.
#
#######################################################################

data_DTMPCY
_chemical_formula_moiety         'C18 H20 S2'
_chemical_name_systematic        
syn-2,11-Dithia-9,18-dimethyl(3.3)metacyclophane
_symmetry_cell_setting           monoclinic
_symmetry_space_group_name_H-M   'P 21/n'
_symmetry_Int_Tables_number      14
_space_group_name_Hall           '-P 2yn'
loop_
_symmetry_equiv_pos_site_id
_symmetry_equiv_pos_as_xyz
1 x,y,z
2 1/2-x,1/2+y,1/2-z
3 -x,-y,-z
4 1/2+x,1/2-y,1/2+z
_cell_length_a                   15.514(5)
_cell_length_b                   12.141(6)
_cell_length_c                   8.649(4)
_cell_angle_alpha                90
_cell_angle_beta                 109.88(3)
_cell_angle_gamma                90
_cell_volume                     1532
_cell_formula_units_Z            4
loop_
_atom_site_label
_atom_site_type_symbol
_atom_site_fract_x
_atom_site_fract_y
_atom_site_fract_z
C1 C 0.25990 0.70660 -0.00820
C2 C 0.26950 0.49170 -0.27310
C3 C 0.19480 0.63760 0.01860
C4 C 0.20810 0.43320 -0.22110
C5 C 0.22370 0.56090 0.14370
C6 C 0.23890 0.35610 -0.09950
C7 C 0.31520 0.54680 0.23130
C8 C 0.33220 0.34530 -0.01630
C9 C 0.37940 0.62020 0.20480
C10 C 0.39390 0.40250 -0.07350
C11 C 0.35070 0.70210 0.08510
C12 C 0.36330 0.47350 -0.20010
C13 C 0.15190 0.49550 0.19120
C14 C 0.17310 0.27550 -0.05840
C15 C 0.35260 0.45300 0.35230
C16 C 0.09810 0.64960 -0.10120
C17 C 0.37480 0.28280 0.14380
C18 C 0.10860 0.46310 -0.29910
H1 H 0.24000 0.76000 -0.09600
H2 H 0.24600 0.54400 -0.36100
H3 H 0.44300 0.61200 0.27000
H4 H 0.45900 0.39100 -0.02200
H5 H 0.39400 0.75400 0.06900
H6 H 0.40500 0.51200 -0.24100
H7 H 0.09400 0.53400 0.14900
H8 H 0.11300 0.28100 -0.14500
H9 H 0.17100 0.48800 0.30900
H10 H 0.16700 0.29500 0.04500
H11 H 0.14500 0.42200 0.14100
H12 H 0.19600 0.20100 -0.05300
H13 H 0.37900 0.48500 0.46000
H14 H 0.05800 0.60700 -0.05400
H15 H 0.30100 0.40600 0.35100
H16 H 0.08200 0.72600 -0.10400
H17 H 0.32500 0.24600 0.16900
H18 H 0.08900 0.43600 -0.41100
H19 H 0.41600 0.22700 0.12700
H20 H 0.07500 0.42200 -0.23900
S1 S 0.43740 0.36520 0.31790
S2 S 0.07540 0.60360 -0.30390
loop_
_geom_bond_atom_site_label_1
_geom_bond_atom_site_label_2
_geom_bond_site_symmetry_1
_geom_bond_site_symmetry_2
C1 C3 1_555 1_555
C2 C4 1_555 1_555
C3 C5 1_555 1_555
C4 C6 1_555 1_555
C5 C7 1_555 1_555
C6 C8 1_555 1_555
C7 C9 1_555 1_555
C8 C10 1_555 1_555
C9 C11 1_555 1_555
C10 C12 1_555 1_555
C11 C1 1_555 1_555
C12 C2 1_555 1_555
C13 C5 1_555 1_555
C14 C6 1_555 1_555
C15 C7 1_555 1_555
C16 C3 1_555 1_555
C17 C8 1_555 1_555
C18 C4 1_555 1_555
H1 C1 1_555 1_555
H2 C2 1_555 1_555
H3 C9 1_555 1_555
H4 C10 1_555 1_555
H5 C11 1_555 1_555
H6 C12 1_555 1_555
H7 C13 1_555 1_555
H8 C14 1_555 1_555
H9 C13 1_555 1_555
H10 C14 1_555 1_555
H11 C13 1_555 1_555
H12 C14 1_555 1_555
H13 C15 1_555 1_555
H14 C16 1_555 1_555
H15 C15 1_555 1_555
H16 C16 1_555 1_555
H17 C17 1_555 1_555
H18 C18 1_555 1_555
H19 C17 1_555 1_555
H20 C18 1_555 1_555
S1 C15 1_555 1_555
S2 C16 1_555 1_555
C17 S1 1_555 1_555
C18 S2 1_555 1_555

#END
