
#######################################################################
#
#                 Cambridge Crystallographic Data Centre
#                                CCDC 
#
#######################################################################
#
# If this CIF has been generated from an entry in the Cambridge 
# Structural Database, then it will include bibliographic, chemical, 
# crystal, experimental, refinement or atomic coordinate data resulting 
# from the CCDC's data processing and validation procedures.
#
#######################################################################

data_DUBBAE
_chemical_formula_moiety         'C31 H28 N4 O1'
_chemical_name_systematic        
1-(9-Mesityl-1,10-phenanthrolin-2-yl)-3-methyl-5-phenyl-4,5-dihydro-1H-pyrazol-5-ol
_symmetry_cell_setting           monoclinic
_symmetry_space_group_name_H-M   'P 21/c'
_symmetry_Int_Tables_number      14
_space_group_name_Hall           '-P 2ybc'
loop_
_symmetry_equiv_pos_site_id
_symmetry_equiv_pos_as_xyz
1 x,y,z
2 -x,1/2+y,1/2-z
3 -x,-y,-z
4 x,1/2-y,1/2+z
_cell_length_a                   19.5147(9)
_cell_length_b                   8.0629(4)
_cell_length_c                   16.3432(8)
_cell_angle_alpha                90
_cell_angle_beta                 92.685(2)
_cell_angle_gamma                90
_cell_volume                     2568.7
_exptl_crystal_colour            'pale yellow'
_exptl_crystal_description       block
_chemical_melting_point          '186-188 deg.C'
_cell_formula_units_Z            4
_exptl_crystal_recrystallization_method 'dichloromethane/petroleum ether'
loop_
_atom_site_label
_atom_site_type_symbol
_atom_site_fract_x
_atom_site_fract_y
_atom_site_fract_z
N1 N 0.21661(8) 0.47550(18) 0.12129(9)
N2 N 0.33113(8) 0.45865(18) 0.22480(10)
N3 N 0.37695(7) 0.3650(2) 0.34682(10)
N4 N 0.42404(8) 0.3869(2) 0.41358(10)
C1 C 0.04120(11) 0.4702(3) 0.12228(13)
C2 C -0.01437(11) 0.3748(3) 0.14352(14)
H1 H -0.0521 0.4278 0.1644
C3 C -0.01607(10) 0.2042(3) 0.13490(14)
C4 C 0.04135(11) 0.1291(3) 0.10383(15)
H2 H 0.0410 0.0148 0.0962
C5 C 0.09914(10) 0.2178(3) 0.08381(14)
C6 C 0.09915(10) 0.3909(3) 0.09355(12)
C7 C 0.03689(14) 0.6571(3) 0.12760(18)
H3 H 0.0792 0.7049 0.1112
H4 H 0.0290 0.6890 0.1830
H5 H -0.0002 0.6960 0.0920
C8 C -0.07778(12) 0.1022(3) 0.15583(17)
H6 H -0.0689 -0.0128 0.1455
H7 H -0.1170 0.1376 0.1226
H8 H -0.0867 0.1171 0.2126
C9 C 0.15979(12) 0.1291(3) 0.05128(18)
H9 H 0.1505 0.0123 0.0486
H10 H 0.1995 0.1486 0.0870
H11 H 0.1682 0.1697 -0.0025
C10 C 0.16118(10) 0.4874(2) 0.07163(13)
C11 C 0.16031(12) 0.5822(3) -0.00104(14)
H12 H 0.1203 0.5900 -0.0341
C12 C 0.21816(12) 0.6621(3) -0.02260(14)
H13 H 0.2177 0.7251 -0.0703
C13 C 0.27810(11) 0.6496(2) 0.02661(12)
C14 C 0.34114(12) 0.7252(3) 0.00608(14)
H14 H 0.3429 0.7878 -0.0416
C15 C 0.39818(12) 0.7068(3) 0.05493(14)
H15 H 0.4390 0.7550 0.0398
C16 C 0.39725(10) 0.6149(2) 0.12956(12)
C17 C 0.45489(10) 0.5979(3) 0.18387(13)
H16 H 0.4965 0.6443 0.1702
C18 C 0.45095(10) 0.5153(3) 0.25559(13)
H17 H 0.4892 0.5033 0.2912
C19 C 0.38661(9) 0.4478(2) 0.27464(12)
C20 C 0.33578(9) 0.5401(2) 0.15262(12)
C21 C 0.27491(10) 0.5552(2) 0.09959(12)
C22 C 0.43096(12) 0.3383(3) 0.56078(14)
H18 H 0.4767 0.3803 0.5566
H19 H 0.4329 0.2271 0.5818
H20 H 0.4063 0.4074 0.5972
C23 C 0.39513(10) 0.3384(2) 0.47819(13)
C24 C 0.32375(11) 0.2806(3) 0.46355(13)
H21 H 0.2928 0.3412 0.4974
H22 H 0.3200 0.1631 0.4753
C25 C 0.30759(9) 0.3154(2) 0.37250(12)
C26 C 0.28227(10) 0.1644(2) 0.32462(12)
C27 C 0.32655(12) 0.0336(3) 0.31281(16)
H23 H 0.3721 0.0415 0.3320
C28 C 0.30392(16) -0.1090(3) 0.2728(2)
H24 H 0.3343 -0.1958 0.2652
C29 C 0.23750(16) -0.1229(4) 0.24459(17)
H25 H 0.2225 -0.2188 0.2177
C30 C 0.19303(13) 0.0043(4) 0.25599(16)
H26 H 0.1476 -0.0052 0.2366
C31 C 0.21485(11) 0.1487(3) 0.29644(14)
H27 H 0.1839 0.2344 0.3044
O1 O 0.26149(7) 0.44913(17) 0.36637(9)
H28 H 0.2526 0.4702 0.3179
loop_
_geom_bond_atom_site_label_1
_geom_bond_atom_site_label_2
_geom_bond_site_symmetry_1
_geom_bond_site_symmetry_2
N1 C10 1_555 1_555
N2 C19 1_555 1_555
N3 N4 1_555 1_555
N4 C23 1_555 1_555
C1 C2 1_555 1_555
C2 H1 1_555 1_555
C3 C2 1_555 1_555
C4 C3 1_555 1_555
H2 C4 1_555 1_555
C5 C4 1_555 1_555
C6 C1 1_555 1_555
C7 C1 1_555 1_555
H3 C7 1_555 1_555
H4 C7 1_555 1_555
H5 C7 1_555 1_555
C8 C3 1_555 1_555
H6 C8 1_555 1_555
H7 C8 1_555 1_555
H8 C8 1_555 1_555
C9 C5 1_555 1_555
H9 C9 1_555 1_555
H10 C9 1_555 1_555
H11 C9 1_555 1_555
C10 C6 1_555 1_555
C11 C10 1_555 1_555
H12 C11 1_555 1_555
C12 C11 1_555 1_555
H13 C12 1_555 1_555
C13 C12 1_555 1_555
C14 C13 1_555 1_555
H14 C14 1_555 1_555
C15 C14 1_555 1_555
H15 C15 1_555 1_555
C16 C15 1_555 1_555
C17 C16 1_555 1_555
H16 C17 1_555 1_555
C18 C17 1_555 1_555
H17 C18 1_555 1_555
C19 N3 1_555 1_555
C20 N2 1_555 1_555
C21 N1 1_555 1_555
C22 H18 1_555 1_555
H19 C22 1_555 1_555
H20 C22 1_555 1_555
C23 C22 1_555 1_555
C24 C23 1_555 1_555
H21 C24 1_555 1_555
H22 C24 1_555 1_555
C25 N3 1_555 1_555
C26 C25 1_555 1_555
C27 C26 1_555 1_555
H23 C27 1_555 1_555
C28 C27 1_555 1_555
H24 C28 1_555 1_555
C29 C28 1_555 1_555
H25 C29 1_555 1_555
C30 C29 1_555 1_555
H26 C30 1_555 1_555
C31 C26 1_555 1_555
H27 C31 1_555 1_555
O1 C25 1_555 1_555
H28 O1 1_555 1_555
C5 C6 1_555 1_555
C13 C21 1_555 1_555
C16 C20 1_555 1_555
C18 C19 1_555 1_555
C20 C21 1_555 1_555
C24 C25 1_555 1_555
C30 C31 1_555 1_555

#END
