
#######################################################################
#
#                 Cambridge Crystallographic Data Centre
#                                CCDC 
#
#######################################################################
#
# If this CIF has been generated from an entry in the Cambridge 
# Structural Database, then it will include bibliographic, chemical, 
# crystal, experimental, refinement or atomic coordinate data resulting 
# from the CCDC's data processing and validation procedures.
#
#######################################################################

data_DUBHOZ
_chemical_formula_moiety         'C22 H21 N3 O3 S1'
_chemical_name_systematic        
7-(Diethylamino)-N-(3-methyl-1,3-benzothiazol-2(3H)-ylidene)-2-oxo-2H-chromene-3-carboxamide
_symmetry_cell_setting           monoclinic
_symmetry_space_group_name_H-M   'P 21/c'
_symmetry_Int_Tables_number      14
_space_group_name_Hall           '-P 2ybc'
loop_
_symmetry_equiv_pos_site_id
_symmetry_equiv_pos_as_xyz
1 x,y,z
2 -x,1/2+y,1/2-z
3 -x,-y,-z
4 x,1/2-y,1/2+z
_cell_length_a                   14.8875(10)
_cell_length_b                   13.4901(8)
_cell_length_c                   9.8585(7)
_cell_angle_alpha                90
_cell_angle_beta                 100.742(5)
_cell_angle_gamma                90
_cell_volume                     1945.23
_exptl_crystal_colour            yellowish
_exptl_crystal_description       plate
_cell_formula_units_Z            4
loop_
_atom_site_label
_atom_site_type_symbol
_atom_site_fract_x
_atom_site_fract_y
_atom_site_fract_z
H1 H -0.1490 0.9791 0.6191
H2 H -0.1940 1.0220 0.7382
H3 H -0.2386 0.9313 0.6515
H4 H -0.0340 0.6423 0.6338
H5 H 0.2342 0.8138 0.4507
H6 H 0.0174 0.9350 0.6913
H7 H 0.1418(14) 0.9209(16) 0.584(2)
H8 H -0.1693 0.6835 0.6352
H9 H -0.2295 0.7488 0.7145
H10 H 0.3665 0.9413 0.1348
H11 H 0.4592 0.9559 0.2381
H12 H 0.3743 0.9122 0.2905
H13 H -0.0688 0.9255 0.8346
H14 H -0.1584 0.8767 0.8655
H15 H 0.5528 0.9305 0.0747
H16 H 0.5778 0.5933 -0.0107
H17 H -0.1956 0.5962 0.8245
H18 H -0.1565 0.6833 0.9234
H19 H -0.0911 0.6216 0.8481
H20 H 0.659(2) 0.875(2) -0.056(3)
H21 H 0.6670 0.7070 -0.1010
C1 C 0.50079(17) 0.79496(19) 0.1055(3)
C2 C 0.55704(19) 0.8632(2) 0.0564(3)
C3 C 0.6188(2) 0.8289(3) -0.0197(4)
C4 C 0.6258(2) 0.7286(3) -0.0470(3)
C5 C 0.57210(19) 0.6607(2) 0.0055(3)
C6 C 0.50920(17) 0.69448(19) 0.0828(3)
C7 C 0.39271(17) 0.73364(17) 0.2266(3)
C8 C 0.29455(18) 0.65409(18) 0.3423(3)
C9 C 0.22182(16) 0.66808(17) 0.4237(2)
C10 C 0.16931(17) 0.58291(18) 0.4540(2)
C11 C 0.07406(16) 0.69315(16) 0.5610(2)
C12 C -0.00030(16) 0.69890(17) 0.6235(2)
C13 C -0.02589(17) 0.79120(17) 0.6724(2)
C14 C 0.03082(18) 0.87360(17) 0.6572(3)
C15 C 0.10396(19) 0.86497(18) 0.5942(3)
C16 C 0.12804(16) 0.77377(16) 0.5407(2)
C17 C 0.20006(17) 0.75925(17) 0.4686(3)
C18 C 0.40611(19) 0.91455(18) 0.2144(3)
C19 C -0.12500(19) 0.89247(18) 0.7927(3)
C20 C -0.1819(2) 0.9627(2) 0.6910(3)
C21 C -0.16914(17) 0.72022(18) 0.7198(3)
C22 C -0.1515(2) 0.64882(19) 0.8399(3)
N1 N 0.43406(14) 0.81457(14) 0.1835(2)
N2 N 0.33044(14) 0.74172(14) 0.3027(2)
N3 N -0.10247(14) 0.80050(14) 0.7283(2)
O1 O 0.32018(13) 0.57199(14) 0.3114(2)
O2 O 0.18180(14) 0.49661(12) 0.4306(2)
O3 O 0.09537(11) 0.60064(10) 0.51728(17)
S1 S 0.43484(5) 0.62492(5) 0.16227(8)
loop_
_geom_bond_atom_site_label_1
_geom_bond_atom_site_label_2
_geom_bond_site_symmetry_1
_geom_bond_site_symmetry_2
H1 C20 1_555 1_555
H2 C20 1_555 1_555
H3 C20 1_555 1_555
H4 C12 1_555 1_555
H5 C17 1_555 1_555
H6 C14 1_555 1_555
H7 C15 1_555 1_555
H8 C21 1_555 1_555
H9 C21 1_555 1_555
H10 C18 1_555 1_555
H11 C18 1_555 1_555
H12 C18 1_555 1_555
H13 C19 1_555 1_555
H14 C19 1_555 1_555
H15 C2 1_555 1_555
H16 C5 1_555 1_555
H17 C22 1_555 1_555
H18 C22 1_555 1_555
H19 C22 1_555 1_555
H20 C3 1_555 1_555
H21 C4 1_555 1_555
C1 C2 1_555 1_555
C2 C3 1_555 1_555
C3 C4 1_555 1_555
C4 C5 1_555 1_555
C5 C6 1_555 1_555
C6 C1 1_555 1_555
C7 N1 1_555 1_555
C8 C9 1_555 1_555
C9 C10 1_555 1_555
C10 O2 1_555 1_555
C11 C12 1_555 1_555
C12 C13 1_555 1_555
C13 C14 1_555 1_555
C14 C15 1_555 1_555
C15 C16 1_555 1_555
C16 C11 1_555 1_555
C17 C9 1_555 1_555
C18 N1 1_555 1_555
C19 C20 1_555 1_555
C21 C22 1_555 1_555
N1 C1 1_555 1_555
N2 C7 1_555 1_555
N3 C13 1_555 1_555
O1 C8 1_555 1_555
O3 C10 1_555 1_555
S1 C6 1_555 1_555
C7 S1 1_555 1_555
C8 N2 1_555 1_555
C11 O3 1_555 1_555
C16 C17 1_555 1_555
C19 N3 1_555 1_555
C21 N3 1_555 1_555

#END
