
#######################################################################
#
#                 Cambridge Crystallographic Data Centre
#                                CCDC 
#
#######################################################################
#
# If this CIF has been generated from an entry in the Cambridge 
# Structural Database, then it will include bibliographic, chemical, 
# crystal, experimental, refinement or atomic coordinate data resulting 
# from the CCDC's data processing and validation procedures.
#
#######################################################################

data_DUBJAN
_chemical_formula_moiety         'C17 H10 N2 O3 S1'
_chemical_name_systematic        
N-(1,3-Benzothiazol-2-yl)-2-oxo-2H-chromene-3-carboxamide
_symmetry_cell_setting           orthorhombic
_symmetry_space_group_name_H-M   'P b n 21'
_symmetry_Int_Tables_number      33
_space_group_name_Hall           'P 2c -2ab'
loop_
_symmetry_equiv_pos_site_id
_symmetry_equiv_pos_as_xyz
1 x,y,z
2 -x,-y,1/2+z
3 1/2-x,1/2+y,z
4 1/2+x,1/2-y,1/2+z
_cell_length_a                   6.3942(7)
_cell_length_b                   18.5903(19)
_cell_length_c                   23.964(2)
_cell_angle_alpha                90
_cell_angle_beta                 90
_cell_angle_gamma                90
_cell_volume                     2848.6
_exptl_crystal_colour            colorless
_exptl_crystal_description       needle
_cell_formula_units_Z            8
loop_
_atom_site_label
_atom_site_type_symbol
_atom_site_fract_x
_atom_site_fract_y
_atom_site_fract_z
C1 C 0.5460(10) 0.6938(3) 0.4249(2)
C2 C 0.7074(12) 0.6587(4) 0.4535(4)
H1 H 0.7128 0.6597 0.4922
C3 C 0.8571(11) 0.6229(4) 0.4237(3)
H2 H 0.9647 0.5995 0.4424
C4 C 0.8508(11) 0.6209(4) 0.3654(3)
H3 H 0.9525 0.5957 0.3457
C5 C 0.6936(12) 0.6565(3) 0.3370(4)
H4 H 0.6901 0.6558 0.2982
C6 C 0.5418(10) 0.6930(3) 0.3665(2)
C7 C 0.2587(9) 0.7564(3) 0.4123(4)
C8 C -0.0611(10) 0.8236(3) 0.3925(3)
C9 C -0.2428(9) 0.8587(4) 0.4209(4)
C10 C -0.2695(11) 0.8576(4) 0.4810(4)
C11 C -0.5767(10) 0.9291(4) 0.4710(3)
C12 C -0.7377(11) 0.9648(5) 0.4994(4)
H5 H -0.7439 0.9651 0.5382
C13 C -0.8850(12) 0.9991(4) 0.4678(4)
H6 H -0.9946 1.0227 0.4856
C14 C -0.8755(11) 0.9996(4) 0.4105(3)
H7 H -0.9773 1.0239 0.3901
C15 C -0.7175(11) 0.9648(4) 0.3832(4)
H8 H -0.7137 0.9647 0.3444
C16 C -0.5616(10) 0.9293(4) 0.4134(2)
C17 C -0.3880(10) 0.8928(3) 0.3892(3)
H9 H -0.3737 0.8924 0.3505
N1 N 0.3815(8) 0.7306(3) 0.4502(2)
N2 N 0.0813(8) 0.7933(3) 0.4271(2)
H10 H 0.0580 0.7977 0.4622
O1 O -0.0422(7) 0.8232(2) 0.34169(19)
O2 O -0.1555(9) 0.8269(3) 0.51424(18)
O3 O -0.4317(7) 0.8937(3) 0.50370(18)
S1 S 0.3265(3) 0.74109(8) 0.34231(7)
C18 C 0.5475(10) 0.4550(3) 0.6660(3)
C19 C 0.5480(10) 0.4539(3) 0.7244(3)
C20 C 0.7037(11) 0.4176(3) 0.7542(3)
H11 H 0.7041 0.4170 0.7930
C21 C 0.8563(11) 0.3829(4) 0.7241(3)
H12 H 0.9607 0.3580 0.7430
C22 C 0.8584(12) 0.3842(4) 0.6660(3)
H13 H 0.9638 0.3603 0.6467
C23 C 0.7058(13) 0.4205(4) 0.6369(4)
H14 H 0.7088 0.4218 0.5981
C24 C 0.2606(9) 0.5180(4) 0.6813(4)
C25 C -0.0582(10) 0.5840(4) 0.7015(3)
C26 C -0.2395(9) 0.6203(4) 0.6747(3)
C27 C -0.2636(10) 0.6198(5) 0.6137(4)
C28 C -0.5741(11) 0.6922(4) 0.6249(3)
C29 C -0.7323(11) 0.7266(5) 0.5978(4)
H15 H -0.7385 0.7265 0.5590
C30 C -0.8821(12) 0.7613(4) 0.6285(3)
H16 H -0.9895 0.7858 0.6105
C31 C -0.8740(11) 0.7600(4) 0.6866(3)
H17 H -0.9771 0.7832 0.7073
C32 C -0.7149(11) 0.7246(4) 0.7135(3)
H18 H -0.7108 0.7238 0.7523
C33 C -0.5584(10) 0.6898(3) 0.6826(2)
C34 C -0.3842(9) 0.6525(3) 0.7061(3)
H19 H -0.3712 0.6506 0.7447
N3 N 0.3818(9) 0.4921(3) 0.6417(2)
N4 N 0.0843(8) 0.5550(3) 0.6660(2)
H20 H 0.0619 0.5603 0.6308
O4 O -0.0367(6) 0.5819(2) 0.75229(18)
O5 O -0.1520(9) 0.5905(3) 0.5799(2)
O6 O -0.4281(8) 0.6574(3) 0.59220(18)
S2 S 0.3338(3) 0.50183(8) 0.74982(7)
loop_
_geom_bond_atom_site_label_1
_geom_bond_atom_site_label_2
_geom_bond_site_symmetry_1
_geom_bond_site_symmetry_2
C1 C2 1_555 1_555
C2 H1 1_555 1_555
C3 C2 1_555 1_555
H2 C3 1_555 1_555
C4 C3 1_555 1_555
H3 C4 1_555 1_555
C5 C4 1_555 1_555
H4 C5 1_555 1_555
C6 C1 1_555 1_555
C7 N1 1_555 1_555
C8 C9 1_555 1_555
C9 C10 1_555 1_555
C10 O2 1_555 1_555
C11 C12 1_555 1_555
C12 H5 1_555 1_555
C13 C12 1_555 1_555
H6 C13 1_555 1_555
C14 C13 1_555 1_555
H7 C14 1_555 1_555
C15 C14 1_555 1_555
H8 C15 1_555 1_555
C16 C11 1_555 1_555
C17 C9 1_555 1_555
H9 C17 1_555 1_555
N1 C1 1_555 1_555
N2 C7 1_555 1_555
H10 N2 1_555 1_555
O1 C8 1_555 1_555
O3 C10 1_555 1_555
S1 C6 1_555 1_555
C18 C19 1_555 1_555
C19 C20 1_555 1_555
C20 H11 1_555 1_555
C21 C20 1_555 1_555
H12 C21 1_555 1_555
C22 C21 1_555 1_555
H13 C22 1_555 1_555
C23 C18 1_555 1_555
H14 C23 1_555 1_555
C24 N3 1_555 1_555
C25 C26 1_555 1_555
C26 C27 1_555 1_555
C27 O5 1_555 1_555
C28 C29 1_555 1_555
C29 H15 1_555 1_555
C30 C29 1_555 1_555
H16 C30 1_555 1_555
C31 C30 1_555 1_555
H17 C31 1_555 1_555
C32 C31 1_555 1_555
H18 C32 1_555 1_555
C33 C28 1_555 1_555
C34 C26 1_555 1_555
H19 C34 1_555 1_555
N3 C18 1_555 1_555
N4 C24 1_555 1_555
H20 N4 1_555 1_555
O4 C25 1_555 1_555
O6 C27 1_555 1_555
S2 C19 1_555 1_555
C5 C6 1_555 1_555
C7 S1 1_555 1_555
C8 N2 1_555 1_555
C11 O3 1_555 1_555
C15 C16 1_555 1_555
C16 C17 1_555 1_555
C22 C23 1_555 1_555
C24 S2 1_555 1_555
C25 N4 1_555 1_555
C28 O6 1_555 1_555
C32 C33 1_555 1_555
C33 C34 1_555 1_555

#END
