
#######################################################################
#
#                 Cambridge Crystallographic Data Centre
#                                CCDC 
#
#######################################################################
#
# If this CIF has been generated from an entry in the Cambridge 
# Structural Database, then it will include bibliographic, chemical, 
# crystal, experimental, refinement or atomic coordinate data resulting 
# from the CCDC's data processing and validation procedures.
#
#######################################################################

data_DUBPUN
_chemical_formula_moiety         'C25 H18 N2'
_chemical_name_systematic        4'-(Diphenylamino)biphenyl-3-carbonitrile
_symmetry_cell_setting           monoclinic
_symmetry_space_group_name_H-M   'P 21/n'
_symmetry_Int_Tables_number      14
_space_group_name_Hall           '-P 2yn'
loop_
_symmetry_equiv_pos_site_id
_symmetry_equiv_pos_as_xyz
1 x,y,z
2 1/2-x,1/2+y,1/2-z
3 -x,-y,-z
4 1/2+x,1/2-y,1/2+z
_cell_length_a                   14.441(3)
_cell_length_b                   8.2340(16)
_cell_length_c                   16.817(3)
_cell_angle_alpha                90
_cell_angle_beta                 108.78(3)
_cell_angle_gamma                90
_cell_volume                     1893.2
_exptl_crystal_colour            colorless
_exptl_crystal_description       plate
_cell_formula_units_Z            4
loop_
_atom_site_label
_atom_site_type_symbol
_atom_site_fract_x
_atom_site_fract_y
_atom_site_fract_z
N1 N 0.41943(17) 0.7215(3) 0.15558(14)
C1 C 0.2580(3) 0.7129(5) 0.0502(2)
H1 H 0.2385 0.6351 0.0816
C2 C 0.1926(3) 0.7688(6) -0.0242(3)
H2 H 0.1290 0.7285 -0.0426
C3 C 0.2206(4) 0.8829(7) -0.0707(3)
H3 H 0.1756 0.9238 -0.1194
C4 C 0.3145(4) 0.9361(6) -0.0453(3)
H4 H 0.3347 1.0094 -0.0784
C5 C 0.3796(3) 0.8831(5) 0.0285(2)
H5 H 0.4433 0.9227 0.0456
C6 C 0.3522(2) 0.7721(4) 0.07779(19)
C7 C 0.3913(2) 0.7214(4) 0.22927(18)
C8 C 0.4356(2) 0.6153(4) 0.29330(18)
H6 H 0.4835 0.5447 0.2881
C9 C 0.4091(3) 0.6128(5) 0.3657(2)
H7 H 0.4402 0.5422 0.4093
C10 C 0.3373(3) 0.7145(6) 0.3729(3)
H8 H 0.3182 0.7116 0.4206
C11 C 0.2938(3) 0.8206(6) 0.3091(3)
H9 H 0.2451 0.8898 0.3142
C12 C 0.3207(2) 0.8270(4) 0.2377(2)
H10 H 0.2917 0.9016 0.1955
C13 C 0.5205(2) 0.7115(4) 0.16451(17)
C14 C 0.5507(2) 0.6163(4) 0.10891(18)
H11 H 0.5050 0.5574 0.0672
C15 C 0.6479(2) 0.6095(4) 0.11572(18)
H12 H 0.6669 0.5460 0.0779
C16 C 0.7187(2) 0.6944(4) 0.17728(17)
C17 C 0.6870(2) 0.7874(4) 0.23245(18)
H13 H 0.7324 0.8460 0.2745
C18 C 0.5900(2) 0.7946(4) 0.22617(18)
H14 H 0.5710 0.8569 0.2644
C19 C 0.8233(2) 0.6911(3) 0.18421(18)
C20 C 0.8532(2) 0.6582(4) 0.1147(2)
H15 H 0.8064 0.6406 0.0626
C21 C 0.9518(3) 0.6515(5) 0.1225(3)
H16 H 0.9702 0.6270 0.0757
C22 C 1.0223(3) 0.6803(4) 0.1978(3)
H17 H 1.0882 0.6759 0.2025
C23 C 0.9938(2) 0.7163(4) 0.2670(2)
C24 C 0.8957(2) 0.7196(4) 0.25988(19)
H18 H 0.8780 0.7416 0.3073
C25 C 1.0648(3) 0.7529(5) 0.3449(3)
N2 N 1.1219(2) 0.7870(5) 0.4090(2)
loop_
_geom_bond_atom_site_label_1
_geom_bond_atom_site_label_2
_geom_bond_site_symmetry_1
_geom_bond_site_symmetry_2
N1 C6 1_555 1_555
C1 H1 1_555 1_555
C2 C1 1_555 1_555
H2 C2 1_555 1_555
C3 C2 1_555 1_555
H3 C3 1_555 1_555
C4 C3 1_555 1_555
H4 C4 1_555 1_555
C5 C4 1_555 1_555
H5 C5 1_555 1_555
C6 C1 1_555 1_555
C7 N1 1_555 1_555
C8 C7 1_555 1_555
H6 C8 1_555 1_555
C9 C8 1_555 1_555
H7 C9 1_555 1_555
C10 C9 1_555 1_555
H8 C10 1_555 1_555
C11 C10 1_555 1_555
H9 C11 1_555 1_555
C12 C7 1_555 1_555
H10 C12 1_555 1_555
C13 N1 1_555 1_555
C14 C13 1_555 1_555
H11 C14 1_555 1_555
C15 C14 1_555 1_555
H12 C15 1_555 1_555
C16 C15 1_555 1_555
C17 C16 1_555 1_555
H13 C17 1_555 1_555
C18 C13 1_555 1_555
H14 C18 1_555 1_555
C19 C16 1_555 1_555
C20 C19 1_555 1_555
H15 C20 1_555 1_555
C21 C20 1_555 1_555
H16 C21 1_555 1_555
C22 C21 1_555 1_555
H17 C22 1_555 1_555
C23 C22 1_555 1_555
C24 C19 1_555 1_555
H18 C24 1_555 1_555
C25 C23 1_555 1_555
N2 C25 1_555 1_555
C5 C6 1_555 1_555
C11 C12 1_555 1_555
C17 C18 1_555 1_555
C23 C24 1_555 1_555

#END
