
#######################################################################
#
#                 Cambridge Crystallographic Data Centre
#                                CCDC 
#
#######################################################################
#
# If this CIF has been generated from an entry in the Cambridge 
# Structural Database, then it will include bibliographic, chemical, 
# crystal, experimental, refinement or atomic coordinate data resulting 
# from the CCDC's data processing and validation procedures.
#
#######################################################################

data_DUBYUW
_chemical_name_common            
"N-methyl-N-(3-(5-(2'-methyl-2-(trifluoromethyl)biphenyl-4-yl)-1,2,4-oxadiazol-3-yl)benzyl)glycine hydrochloride"
_chemical_formula_moiety         'C26 H23 F3 N3 O3 1+,Cl1 1-'
_chemical_name_systematic        
"carboxy-N-methyl-N-(3-(5-(2'-methyl-2-(trifluoromethyl)biphenyl-4-yl)-1,2,4-oxadiazol-3-yl)benzyl)methanaminium chloride"
_symmetry_cell_setting           triclinic
_symmetry_space_group_name_H-M   'P -1'
_symmetry_Int_Tables_number      2
_space_group_name_Hall           '-P 1'
loop_
_symmetry_equiv_pos_site_id
_symmetry_equiv_pos_as_xyz
1 x,y,z
2 -x,-y,-z
_cell_length_a                   7.2330(4)
_cell_length_b                   7.3212(6)
_cell_length_c                   27.193(2)
_cell_angle_alpha                92.765(6)
_cell_angle_beta                 92.935(5)
_cell_angle_gamma                119.469(7)
_cell_volume                     1247.56
_cell_formula_units_Z            2
loop_
_atom_site_label
_atom_site_type_symbol
_atom_site_fract_x
_atom_site_fract_y
_atom_site_fract_z
O1 O 0.5502(3) 0.8608(3) 0.10294(9)
O2 O 0.3755(3) 0.9759(3) 0.05535(9)
H1 H 0.483(5) 1.107(5) 0.0646(12)
O3 O 0.9883(4) 0.4037(5) 0.24220(9)
N1 N 0.2411(3) 0.4408(3) 0.07606(8)
H2 H 0.384(4) 0.475(4) 0.0764(9)
N2 N 0.7078(4) 0.0936(4) 0.24460(9)
N3 N 0.8185(4) 0.4091(5) 0.21570(10)
C1 C 0.4045(4) 0.8299(4) 0.07460(11)
C2 C 0.2282(4) 0.6177(4) 0.05496(10)
H3 H 0.0933 0.6075 0.0618
H4 H 0.2301 0.6039 0.0194
C3 C 0.1738(5) 0.4147(5) 0.12809(10)
H5 H 0.2542 0.5488 0.1477
H6 H 0.0240 0.3736 0.1273
C4 C 0.2086(4) 0.2522(4) 0.15232(9)
C5 C 0.0456(4) 0.0460(5) 0.15283(11)
H7 H -0.0895 0.0065 0.1384
C6 C 0.0815(5) -0.1005(5) 0.17444(12)
H8 H -0.0288 -0.2387 0.1742
C7 C 0.2800(5) -0.0437(4) 0.19637(11)
H9 H 0.3034 -0.1432 0.2112
C8 C 0.4443(4) 0.1606(4) 0.19638(9)
C9 C 0.4073(4) 0.3082(4) 0.17447(9)
H10 H 0.5177 0.4464 0.1747
C10 C 0.6585(5) 0.2230(5) 0.21882(10)
C11 C 0.9066(6) 0.2134(7) 0.25805(12)
C12 C 0.1108(4) 0.2457(4) 0.04310(11)
H11 H 0.1607 0.2667 0.0107
H12 H -0.0357 0.2120 0.0412
H13 H 0.1228 0.1321 0.0561
F1 F 1.1028(14) -0.2296(8) 0.3978(2)
F2 F 0.9380(8) -0.3581(7) 0.32834(19)
F3 F 1.2668(10) -0.2509(9) 0.3389(3)
C13 C 1.072(2) 0.2201(18) 0.2910(5)
C14 C 1.2632(11) 0.3976(15) 0.3112(3)
H14 H 1.2979 0.5309 0.3021
C15 C 1.3965(13) 0.3737(18) 0.3439(3)
H15 H 1.5228 0.4916 0.3568
C16 C 1.348(3) 0.173(4) 0.3588(6)
C17 C 1.1668(18) 0.0069(18) 0.3388(4)
C18 C 1.0289(16) 0.0293(18) 0.3045(4)
H16 H 0.9051 -0.0898 0.2910
C19 C 1.1151(16) -0.2063(14) 0.3524(5)
C20 C 1.5115(11) 0.1810(12) 0.3975(3)
C21 C 1.6852(13) 0.1634(16) 0.3804(3)
H17 H 1.6921 0.1391 0.3468
C22 C 1.8408(14) 0.1828(17) 0.4140(4)
H18 H 1.9528 0.1664 0.4036
C23 C 1.8328(13) 0.2259(13) 0.4625(3)
H19 H 1.9441 0.2434 0.4845
C24 C 1.6727(12) 0.2449(11) 0.4808(3)
H20 H 1.6705 0.2708 0.5145
C25 C 1.5035(10) 0.2233(12) 0.4455(3)
C26 C 1.3272(11) 0.2435(12) 0.4633(3)
H21 H 1.1987 0.1095 0.4584
H22 H 1.3094 0.3442 0.4452
H23 H 1.3573 0.2903 0.4978
Cl1 Cl 0.67566(10) 0.43864(11) 0.06979(3)
O1A O 2.4498(3) -0.8608(3) 0.89706(9)
O2A O 2.6245(3) -0.9759(3) 0.94465(9)
H1A H 2.517(5) -1.107(5) 0.9354(12)
O3A O 2.0117(4) -0.4037(5) 0.75780(9)
N1A N 2.7589(3) -0.4408(3) 0.92394(8)
H2A H 2.616(4) -0.475(4) 0.9236(9)
N2A N 2.2922(4) -0.0936(4) 0.75540(9)
N3A N 2.1815(4) -0.4091(5) 0.78430(10)
C1A C 2.5955(4) -0.8299(4) 0.92540(11)
C2A C 2.7718(4) -0.6177(4) 0.94504(10)
H3A H 2.9067 -0.6075 0.9382
H4A H 2.7699 -0.6039 0.9806
C3A C 2.8262(5) -0.4147(5) 0.87191(10)
H5A H 2.7458 -0.5488 0.8523
H6A H 2.9760 -0.3736 0.8727
C4A C 2.7914(4) -0.2522(4) 0.84768(9)
C5A C 2.9544(4) -0.0460(5) 0.84717(11)
H7A H 3.0895 -0.0065 0.8616
C6A C 2.9185(5) 0.1005(5) 0.82556(12)
H8A H 3.0288 0.2387 0.8258
C7A C 2.7200(5) 0.0437(4) 0.80363(11)
H9A H 2.6966 0.1432 0.7888
C8A C 2.5557(4) -0.1606(4) 0.80362(9)
C9A C 2.5927(4) -0.3082(4) 0.82553(9)
H10A H 2.4823 -0.4464 0.8253
C10A C 2.3415(5) -0.2230(5) 0.78118(10)
C11A C 2.0934(6) -0.2134(7) 0.74195(12)
C12A C 2.8892(4) -0.2457(4) 0.95690(11)
H11A H 2.8393 -0.2667 0.9893
H12A H 3.0357 -0.2120 0.9588
H13A H 2.8772 -0.1321 0.9439
F1A F 1.8972(14) 0.2296(8) 0.6022(2)
F2A F 2.0620(8) 0.3581(7) 0.67166(19)
F3A F 1.7332(10) 0.2509(9) 0.6611(3)
C13A C 1.928(2) -0.2201(18) 0.7090(5)
C14A C 1.7368(11) -0.3976(15) 0.6888(3)
H14A H 1.7021 -0.5309 0.6979
C15A C 1.6035(13) -0.3737(18) 0.6561(3)
H15A H 1.4772 -0.4916 0.6432
C16A C 1.652(3) -0.173(4) 0.6412(6)
C17A C 1.8332(18) -0.0069(18) 0.6612(4)
C18A C 1.9711(16) -0.0293(18) 0.6955(4)
H16A H 2.0949 0.0898 0.7090
C19A C 1.8849(16) 0.2063(14) 0.6476(5)
C20A C 1.4885(11) -0.1810(12) 0.6025(3)
C21A C 1.3148(13) -0.1634(16) 0.6196(3)
H17A H 1.3079 -0.1391 0.6532
C22A C 1.1592(14) -0.1828(17) 0.5860(4)
H18A H 1.0472 -0.1664 0.5964
C23A C 1.1672(13) -0.2259(13) 0.5375(3)
H19A H 1.0559 -0.2434 0.5155
C24A C 1.3273(12) -0.2449(11) 0.5192(3)
H20A H 1.3295 -0.2708 0.4855
C25A C 1.4965(10) -0.2233(12) 0.5545(3)
C26A C 1.6728(11) -0.2435(12) 0.5367(3)
H21A H 1.8013 -0.1095 0.5416
H22A H 1.6906 -0.3442 0.5548
H23A H 1.6427 -0.2903 0.5022
F4? F 1.5321(13) 0.3648(10) 0.4190(3)
F5? F 1.6967(9) 0.3905(10) 0.3580(4)
F6? F 1.5380(9) 0.5711(8) 0.3686(3)
C27? C 1.020(3) 0.115(2) 0.2884(7)
C28? C 1.2031(19) 0.2635(16) 0.3122(4)
H24? H 1.2528 0.4034 0.3062
C29? C 1.326(4) 0.214(4) 0.3471(8)
C30? C 1.247(2) -0.003(2) 0.3523(4)
C31? C 1.0668(13) -0.1499(19) 0.3254(3)
H25? H 1.0211 -0.2916 0.3283
C32? C 0.9494(15) -0.0960(16) 0.2940(4)
H26? H 0.8240 -0.1999 0.2768
C33? C 1.5093(18) 0.3827(15) 0.3747(6)
C34? C 1.3681(11) -0.0703(11) 0.3868(3)
C35? C 1.5677(13) -0.0401(16) 0.3749(3)
H27? H 1.6254 0.0218 0.3463
C36? C 1.6759(14) -0.1038(15) 0.4063(4)
H28? H 1.8069 -0.0868 0.3986
C37? C 1.5936(15) -0.1917(14) 0.4487(3)
H29? H 1.6705 -0.2317 0.4697
C38? C 1.4041(14) -0.2213(12) 0.4605(3)
H30? H 1.3494 -0.2841 0.4892
C39? C 1.2868(12) -0.1580(11) 0.4298(3)
C40? C 1.0801(12) -0.1867(14) 0.4447(4)
H31? H 1.0769 -0.0580 0.4421
H32? H 1.0642 -0.2235 0.4783
H33? H 0.9657 -0.2971 0.4234
loop_
_geom_bond_atom_site_label_1
_geom_bond_atom_site_label_2
_geom_bond_site_symmetry_1
_geom_bond_site_symmetry_2
O1 C1 1_555 1_555
O2 H1 1_555 1_555
O3 N3 1_555 1_555
N1 H2 1_555 1_555
N2 C10 1_555 1_555
N3 C10 1_555 1_555
C1 O2 1_555 1_555
C2 N1 1_555 1_555
H3 C2 1_555 1_555
H4 C2 1_555 1_555
C3 N1 1_555 1_555
H5 C3 1_555 1_555
H6 C3 1_555 1_555
C4 C3 1_555 1_555
C5 C4 1_555 1_555
H7 C5 1_555 1_555
C6 C5 1_555 1_555
H8 C6 1_555 1_555
C7 C6 1_555 1_555
H9 C7 1_555 1_555
C8 C7 1_555 1_555
C9 C4 1_555 1_555
H10 C9 1_555 1_555
C10 C8 1_555 1_555
C11 O3 1_555 1_555
C12 N1 1_555 1_555
H11 C12 1_555 1_555
H12 C12 1_555 1_555
H13 C12 1_555 1_555
F1 C19 1_555 1_555
F2 C19 1_555 1_555
F3 C19 1_555 1_555
C13 C11 1_555 1_555
C14 C13 1_555 1_555
H14 C14 1_555 1_555
C15 C14 1_555 1_555
H15 C15 1_555 1_555
C16 C15 1_555 1_555
C17 C16 1_555 1_555
C18 C13 1_555 1_555
H16 C18 1_555 1_555
C19 C17 1_555 1_555
C20 C16 1_555 1_555
C21 C20 1_555 1_555
H17 C21 1_555 1_555
C22 C21 1_555 1_555
H18 C22 1_555 1_555
C23 C22 1_555 1_555
H19 C23 1_555 1_555
C24 C23 1_555 1_555
H20 C24 1_555 1_555
C25 C20 1_555 1_555
C26 C25 1_555 1_555
H21 C26 1_555 1_555
H22 C26 1_555 1_555
H23 C26 1_555 1_555
O1A C1A 1_555 1_555
O2A H1A 1_555 1_555
O3A N3A 1_555 1_555
N1A H2A 1_555 1_555
N2A C10A 1_555 1_555
N3A C10A 1_555 1_555
C1A O2A 1_555 1_555
C2A N1A 1_555 1_555
H3A C2A 1_555 1_555
H4A C2A 1_555 1_555
C3A N1A 1_555 1_555
H5A C3A 1_555 1_555
H6A C3A 1_555 1_555
C4A C3A 1_555 1_555
C5A C4A 1_555 1_555
H7A C5A 1_555 1_555
C6A C5A 1_555 1_555
H8A C6A 1_555 1_555
C7A C6A 1_555 1_555
H9A C7A 1_555 1_555
C8A C7A 1_555 1_555
C9A C4A 1_555 1_555
H10A C9A 1_555 1_555
C10A C8A 1_555 1_555
C11A O3A 1_555 1_555
C12A N1A 1_555 1_555
H11A C12A 1_555 1_555
H12A C12A 1_555 1_555
H13A C12A 1_555 1_555
F1A C19A 1_555 1_555
F2A C19A 1_555 1_555
F3A C19A 1_555 1_555
C13A C11A 1_555 1_555
C14A C13A 1_555 1_555
H14A C14A 1_555 1_555
C15A C14A 1_555 1_555
H15A C15A 1_555 1_555
C16A C15A 1_555 1_555
C17A C16A 1_555 1_555
C18A C13A 1_555 1_555
H16A C18A 1_555 1_555
C19A C17A 1_555 1_555
C20A C16A 1_555 1_555
C21A C20A 1_555 1_555
H17A C21A 1_555 1_555
C22A C21A 1_555 1_555
H18A C22A 1_555 1_555
C23A C22A 1_555 1_555
H19A C23A 1_555 1_555
C24A C23A 1_555 1_555
H20A C24A 1_555 1_555
C25A C20A 1_555 1_555
C26A C25A 1_555 1_555
H21A C26A 1_555 1_555
H22A C26A 1_555 1_555
H23A C26A 1_555 1_555
N2 C11 1_555 1_555
C1 C2 1_555 1_555
C8 C9 1_555 1_555
C17 C18 1_555 1_555
C24 C25 1_555 1_555
N2A C11A 1_555 1_555
C1A C2A 1_555 1_555
C8A C9A 1_555 1_555
C17A C18A 1_555 1_555
C24A C25A 1_555 1_555

#END
