
#######################################################################
#
#                 Cambridge Crystallographic Data Centre
#                                CCDC 
#
#######################################################################
#
# If this CIF has been generated from an entry in the Cambridge 
# Structural Database, then it will include bibliographic, chemical, 
# crystal, experimental, refinement or atomic coordinate data resulting 
# from the CCDC's data processing and validation procedures.
#
#######################################################################

data_DUCKOD
_chemical_formula_moiety         'C12 H24 O6,C6 H10 N2 2+,2(Cl1 O4 1-)'
_chemical_name_systematic        
'3-(Ammoniomethyl)pyridinium diperchlorate 18-crown-6'
_symmetry_cell_setting           monoclinic
_symmetry_space_group_name_H-M   'P 21/n'
_symmetry_Int_Tables_number      14
_space_group_name_Hall           '-P 2yn'
loop_
_symmetry_equiv_pos_site_id
_symmetry_equiv_pos_as_xyz
1 x,y,z
2 1/2-x,1/2+y,1/2-z
3 -x,-y,-z
4 1/2+x,1/2-y,1/2+z
_cell_length_a                   15.439(3)
_cell_length_b                   10.316(2)
_cell_length_c                   17.350(4)
_cell_angle_alpha                90
_cell_angle_beta                 105.93(3)
_cell_angle_gamma                90
_cell_volume                     2657.19
_exptl_crystal_colour            colorless
_exptl_crystal_description       needle
_cell_formula_units_Z            4
loop_
_atom_site_label
_atom_site_type_symbol
_atom_site_fract_x
_atom_site_fract_y
_atom_site_fract_z
N1 N 0.4998(2) 0.4621(3) 0.68914(18)
H1 H 0.4999 0.3759 0.6875
H2 H 0.5274 0.4933 0.6543
H3 H 0.4432 0.4906 0.6765
C1 C 0.5476(3) 0.5061(4) 0.7706(2)
H4 H 0.5496 0.6000 0.7716
H5 H 0.6091 0.4745 0.7842
C2 C 0.5029(2) 0.4591(4) 0.8325(2)
C3 C 0.4393(3) 0.5327(4) 0.8544(3)
H6 H 0.4231 0.6131 0.8306
C4 C 0.3992(3) 0.4886(5) 0.9114(3)
H7 H 0.3564 0.5389 0.9262
C5 C 0.4228(3) 0.3715(5) 0.9455(3)
H8 H 0.3960 0.3400 0.9836
N2 N 0.4847(2) 0.3017(3) 0.9241(2)
H9 H 0.4996 0.2275 0.9465
C6 C 0.5249(3) 0.3422(4) 0.8691(2)
H10 H 0.5680 0.2902 0.8559
C7 C 0.4288(6) 0.1169(6) 0.6831(4)
H11 H 0.4382 0.0312 0.7071
H12 H 0.4103 0.1064 0.6254
O1 O 0.5104(3) 0.1865(3) 0.7055(2)
C8 C 0.5799(6) 0.1207(6) 0.6838(4)
H13 H 0.5603 0.0977 0.6274
H14 H 0.5946 0.0415 0.7147
C9 C 0.6615(5) 0.2056(7) 0.6991(4)
H15 H 0.6794 0.2333 0.7547
H16 H 0.7112 0.1587 0.6881
O2 O 0.6387(3) 0.3144(4) 0.6478(2)
C10 C 0.7113(4) 0.3932(9) 0.6475(5)
H17 H 0.7581 0.3421 0.6344
H18 H 0.7360 0.4305 0.7003
C11 C 0.6819(4) 0.4990(8) 0.5872(5)
H19 H 0.7331 0.5525 0.5858
H20 H 0.6571 0.4619 0.5343
O3 O 0.6152(3) 0.5764(4) 0.6084(2)
C12 C 0.5764(5) 0.6716(7) 0.5492(4)
H21 H 0.5405 0.6295 0.5010
H22 H 0.6236 0.7208 0.5356
C13 C 0.5189(5) 0.7594(6) 0.5812(4)
H23 H 0.5531 0.7949 0.6322
H24 H 0.4981 0.8307 0.5443
O4 O 0.4442(3) 0.6874(3) 0.5912(2)
C14 C 0.3855(4) 0.7617(5) 0.6223(4)
H25 H 0.3731 0.8439 0.5943
H26 H 0.4125 0.7788 0.6788
C15 C 0.3013(4) 0.6872(6) 0.6113(4)
H27 H 0.2577 0.7390 0.6286
H28 H 0.2762 0.6674 0.5549
O5 O 0.3177(2) 0.5692(4) 0.6563(2)
C16 C 0.2446(3) 0.4827(7) 0.6325(4)
H29 H 0.2354 0.4592 0.5767
H30 H 0.1902 0.5242 0.6379
C17 C 0.2633(4) 0.3649(8) 0.6831(5)
H31 H 0.2736 0.3885 0.7390
H32 H 0.2119 0.3070 0.6685
O6 O 0.3402(3) 0.3019(4) 0.6719(3)
C18 C 0.3573(5) 0.1826(7) 0.7086(4)
H33 H 0.3030 0.1303 0.6944
H34 H 0.3754 0.1936 0.7663
Cl1 Cl 0.24011(7) 0.54271(12) 0.05171(7)
O7 O 0.2948(3) 0.4307(4) 0.0594(2)
O8 O 0.2501(3) 0.5956(4) 0.1293(2)
O9 O 0.1477(2) 0.5149(4) 0.0184(2)
O10 O 0.2679(3) 0.6358(4) 0.0044(3)
Cl2 Cl 0.52624(8) 0.90502(11) 0.89317(7)
O11 O 0.4606(3) 0.8459(4) 0.9277(3)
O12 O 0.6084(3) 0.8789(5) 0.9496(3)
O13 O 0.5257(4) 0.8452(4) 0.8218(3)
O14 O 0.5088(4) 1.0364(4) 0.8825(3)
loop_
_geom_bond_atom_site_label_1
_geom_bond_atom_site_label_2
_geom_bond_site_symmetry_1
_geom_bond_site_symmetry_2
N1 H1 1_555 1_555
H2 N1 1_555 1_555
H3 N1 1_555 1_555
C1 N1 1_555 1_555
H4 C1 1_555 1_555
H5 C1 1_555 1_555
C2 C1 1_555 1_555
C3 C2 1_555 1_555
H6 C3 1_555 1_555
C4 C3 1_555 1_555
H7 C4 1_555 1_555
C5 C4 1_555 1_555
H8 C5 1_555 1_555
N2 C5 1_555 1_555
H9 N2 1_555 1_555
C6 C2 1_555 1_555
H10 C6 1_555 1_555
C7 H11 1_555 1_555
H12 C7 1_555 1_555
O1 C7 1_555 1_555
C8 O1 1_555 1_555
H13 C8 1_555 1_555
H14 C8 1_555 1_555
C9 C8 1_555 1_555
H15 C9 1_555 1_555
H16 C9 1_555 1_555
O2 C9 1_555 1_555
C10 O2 1_555 1_555
H17 C10 1_555 1_555
H18 C10 1_555 1_555
C11 C10 1_555 1_555
H19 C11 1_555 1_555
H20 C11 1_555 1_555
O3 C11 1_555 1_555
C12 O3 1_555 1_555
H21 C12 1_555 1_555
H22 C12 1_555 1_555
C13 C12 1_555 1_555
H23 C13 1_555 1_555
H24 C13 1_555 1_555
O4 C13 1_555 1_555
C14 O4 1_555 1_555
H25 C14 1_555 1_555
H26 C14 1_555 1_555
C15 C14 1_555 1_555
H27 C15 1_555 1_555
H28 C15 1_555 1_555
O5 C15 1_555 1_555
C16 O5 1_555 1_555
H29 C16 1_555 1_555
H30 C16 1_555 1_555
C17 C16 1_555 1_555
H31 C17 1_555 1_555
H32 C17 1_555 1_555
O6 C17 1_555 1_555
C18 C7 1_555 1_555
H33 C18 1_555 1_555
H34 C18 1_555 1_555
Cl1 O7 1_555 1_555
O8 Cl1 1_555 1_555
O9 Cl1 1_555 1_555
O10 Cl1 1_555 1_555
Cl2 O11 1_555 1_555
O12 Cl2 1_555 1_555
O13 Cl2 1_555 1_555
O14 Cl2 1_555 1_555
N2 C6 1_555 1_555
O6 C18 1_555 1_555

#END
