
#######################################################################
#
#                 Cambridge Crystallographic Data Centre
#                                CCDC 
#
#######################################################################
#
# If this CIF has been generated from an entry in the Cambridge 
# Structural Database, then it will include bibliographic, chemical, 
# crystal, experimental, refinement or atomic coordinate data resulting 
# from the CCDC's data processing and validation procedures.
#
#######################################################################

data_DUCKET
_chemical_formula_moiety         'C12 H24 O6,C6 H14 N1 1+,I3 1-'
_chemical_name_systematic        '3-Methylpiperidinium tri-iodide 18-crown-6'
_symmetry_cell_setting           monoclinic
_symmetry_space_group_name_H-M   'P 21/c'
_symmetry_Int_Tables_number      14
_space_group_name_Hall           '-P 2ybc'
loop_
_symmetry_equiv_pos_site_id
_symmetry_equiv_pos_as_xyz
1 x,y,z
2 -x,1/2+y,1/2-z
3 -x,-y,-z
4 x,1/2-y,1/2+z
_cell_length_a                   10.925(2)
_cell_length_b                   16.637(3)
_cell_length_c                   15.185(3)
_cell_angle_alpha                90
_cell_angle_beta                 90.33(3)
_cell_angle_gamma                90
_cell_volume                     2759.97
_exptl_crystal_colour            yellow
_exptl_crystal_description       lamellar
_cell_formula_units_Z            4
loop_
_atom_site_label
_atom_site_type_symbol
_atom_site_fract_x
_atom_site_fract_y
_atom_site_fract_z
C1 C -0.0089(6) 0.1597(4) 0.5331(4)
H1 H -0.0378 0.1483 0.4739
H2 H -0.0795 0.1649 0.5711
C2 C 0.0696(7) 0.0938(4) 0.5644(5)
H3 H 0.1058 0.1079 0.6208
H4 H 0.0211 0.0455 0.5722
O1 O 0.1617(4) 0.0798(3) 0.5027(3)
C3 C 0.2408(8) 0.0152(4) 0.5264(5)
H5 H 0.2782 -0.0062 0.4736
H6 H 0.1927 -0.0273 0.5529
C4 C 0.3378(8) 0.0399(4) 0.5886(5)
H7 H 0.3019 0.0642 0.6405
H8 H 0.3852 -0.0066 0.6070
O2 O 0.4148(5) 0.0963(3) 0.5454(3)
C5 C 0.5064(8) 0.1288(5) 0.6005(5)
H9 H 0.5561 0.0858 0.6249
H10 H 0.4690 0.1576 0.6489
C6 C 0.5848(6) 0.1845(5) 0.5487(5)
H11 H 0.6528 0.2027 0.5849
H12 H 0.6178 0.1565 0.4982
O3 O 0.5154(4) 0.2512(3) 0.5202(3)
C7 C 0.5834(7) 0.3078(6) 0.4698(6)
H13 H 0.6080 0.2836 0.4146
H14 H 0.6568 0.3233 0.5019
C8 C 0.5073(8) 0.3798(5) 0.4523(6)
H15 H 0.4769 0.4007 0.5076
H16 H 0.5575 0.4210 0.4254
O4 O 0.4078(5) 0.3621(3) 0.3963(3)
C9 C 0.3281(8) 0.4290(4) 0.3835(5)
H17 H 0.2869 0.4234 0.3271
H18 H 0.3766 0.4779 0.3815
C10 C 0.2352(8) 0.4369(4) 0.4533(5)
H19 H 0.2753 0.4421 0.5102
H20 H 0.1864 0.4848 0.4432
O5 O 0.1602(4) 0.3696(3) 0.4531(3)
C11 C 0.0647(6) 0.3728(4) 0.5155(4)
H21 H 0.0140 0.4195 0.5041
H22 H 0.0994 0.3781 0.5742
C12 C -0.0111(6) 0.2998(4) 0.5112(4)
H23 H -0.0793 0.3047 0.5515
H24 H -0.0438 0.2933 0.4521
O6 O 0.0595(3) 0.2325(2) 0.5337(2)
C13 C 0.4116(5) 0.1791(4) 0.2614(3)
H25 H 0.4488 0.2323 0.2683
C14 C 0.3001(5) 0.1872(4) 0.2007(3)
H26 H 0.3251 0.2104 0.1450
H27 H 0.2662 0.1343 0.1890
C15 C 0.2029(5) 0.2398(4) 0.2419(4)
H28 H 0.2336 0.2943 0.2471
H29 H 0.1312 0.2409 0.2040
C16 C 0.1678(5) 0.2096(4) 0.3308(4)
H30 H 0.1089 0.2461 0.3567
H31 H 0.1290 0.1574 0.3248
N1 N 0.2756(4) 0.2025(3) 0.3900(3)
H32 H 0.2519 0.1819 0.4420
H33 H 0.3070 0.2517 0.4000
C17 C 0.3716(5) 0.1500(3) 0.3513(3)
H34 H 0.3403 0.0957 0.3461
H35 H 0.4420 0.1488 0.3905
C18 C 0.5075(6) 0.1224(5) 0.2257(5)
H36 H 0.5756 0.1201 0.2658
H37 H 0.5349 0.1414 0.1695
H38 H 0.4729 0.0697 0.2192
I1 I 0.82564(3) 0.23621(3) 0.76071(2)
I2 I 0.87472(4) 0.40745(3) 0.74310(3)
I3 I 0.79393(6) 0.06263(3) 0.77600(4)
loop_
_geom_bond_atom_site_label_1
_geom_bond_atom_site_label_2
_geom_bond_site_symmetry_1
_geom_bond_site_symmetry_2
C1 H1 1_555 1_555
H2 C1 1_555 1_555
C2 C1 1_555 1_555
H3 C2 1_555 1_555
H4 C2 1_555 1_555
O1 C2 1_555 1_555
C3 O1 1_555 1_555
H5 C3 1_555 1_555
H6 C3 1_555 1_555
C4 C3 1_555 1_555
H7 C4 1_555 1_555
H8 C4 1_555 1_555
O2 C4 1_555 1_555
C5 O2 1_555 1_555
H9 C5 1_555 1_555
H10 C5 1_555 1_555
C6 C5 1_555 1_555
H11 C6 1_555 1_555
H12 C6 1_555 1_555
O3 C6 1_555 1_555
C7 O3 1_555 1_555
H13 C7 1_555 1_555
H14 C7 1_555 1_555
C8 C7 1_555 1_555
H15 C8 1_555 1_555
H16 C8 1_555 1_555
O4 C8 1_555 1_555
C9 O4 1_555 1_555
H17 C9 1_555 1_555
H18 C9 1_555 1_555
C10 C9 1_555 1_555
H19 C10 1_555 1_555
H20 C10 1_555 1_555
O5 C10 1_555 1_555
C11 O5 1_555 1_555
H21 C11 1_555 1_555
H22 C11 1_555 1_555
C12 C11 1_555 1_555
H23 C12 1_555 1_555
H24 C12 1_555 1_555
O6 C1 1_555 1_555
C13 H25 1_555 1_555
C14 C13 1_555 1_555
H26 C14 1_555 1_555
H27 C14 1_555 1_555
C15 C14 1_555 1_555
H28 C15 1_555 1_555
H29 C15 1_555 1_555
C16 C15 1_555 1_555
H30 C16 1_555 1_555
H31 C16 1_555 1_555
N1 C16 1_555 1_555
H32 N1 1_555 1_555
H33 N1 1_555 1_555
C17 C13 1_555 1_555
H34 C17 1_555 1_555
H35 C17 1_555 1_555
C18 C13 1_555 1_555
H36 C18 1_555 1_555
H37 C18 1_555 1_555
H38 C18 1_555 1_555
I1 I2 1_555 1_555
I3 I1 1_555 1_555
C12 O6 1_555 1_555
N1 C17 1_555 1_555

#END
