
#######################################################################
#
#                 Cambridge Crystallographic Data Centre
#                                CCDC 
#
#######################################################################
#
# If this CIF has been generated from an entry in the Cambridge 
# Structural Database, then it will include bibliographic, chemical, 
# crystal, experimental, refinement or atomic coordinate data resulting 
# from the CCDC's data processing and validation procedures.
#
#######################################################################

data_DUCPEY
_chemical_formula_moiety         'C18 H18 N2 O4 S1'
_chemical_name_systematic        
'ethyl 3-(1-(pyridin-2-ylsulfonyl)-2,3-dihydro-1H-indol-7-yl)acrylate'
_symmetry_cell_setting           monoclinic
_symmetry_space_group_name_H-M   'P 21/n'
_symmetry_Int_Tables_number      14
_space_group_name_Hall           '-P 2yn'
loop_
_symmetry_equiv_pos_site_id
_symmetry_equiv_pos_as_xyz
1 x,y,z
2 1/2-x,1/2+y,1/2-z
3 -x,-y,-z
4 1/2+x,1/2-y,1/2+z
_cell_length_a                   8.8040(16)
_cell_length_b                   10.9952(19)
_cell_length_c                   18.299(3)
_cell_angle_alpha                90
_cell_angle_beta                 97.334(3)
_cell_angle_gamma                90
_cell_volume                     1756.88
_exptl_crystal_colour            colorless
_exptl_crystal_description       block
_cell_formula_units_Z            4
loop_
_atom_site_label
_atom_site_type_symbol
_atom_site_fract_x
_atom_site_fract_y
_atom_site_fract_z
S1 S 0.59685(6) 0.90700(5) 0.22428(3)
N1 N 0.64645(19) 0.79485(15) 0.17178(9)
N2 N 0.3020(2) 0.93987(17) 0.18512(9)
O1 O 0.91289(16) 1.20992(13) -0.03018(8)
O2 O 0.9703(2) 1.14428(16) 0.08572(9)
O3 O 0.61115(17) 1.01788(12) 0.18547(7)
O4 O 0.68361(19) 0.88823(15) 0.29489(8)
C1 C 1.0237(4) 1.3766(3) -0.08515(18)
H1 H 1.0536 1.3227 -0.1221
H2 H 1.0958 1.4423 -0.0773
H3 H 0.9236 1.4086 -0.1013
C2 C 1.0206(3) 1.3090(2) -0.01544(16)
H4 H 1.1217 1.2776 0.0020
H5 H 0.9889 1.3622 0.0221
C3 C 0.8974(2) 1.13427(19) 0.02591(13)
C4 C 0.7814(2) 1.04168(18) 0.00485(10)
H6 H 0.7325 1.0401 -0.0433
C5 C 0.7445(2) 0.96062(18) 0.05203(10)
H7 H 0.7971 0.9645 0.0994
C6 C 0.6292(2) 0.86440(17) 0.03811(11)
C7 C 0.5601(2) 0.83827(19) -0.03331(11)
H8 H 0.5807 0.8881 -0.0719
C8 C 0.4623(2) 0.7405(2) -0.04808(13)
H9 H 0.4165 0.7266 -0.0960
C9 C 0.4320(3) 0.6637(2) 0.00758(15)
H10 H 0.3692 0.5963 -0.0029
C10 C 0.4954(3) 0.68730(19) 0.07882(13)
C11 C 0.5880(2) 0.78885(18) 0.09410(11)
C12 C 0.6222(3) 0.6681(2) 0.19993(14)
H11 H 0.5989 0.6708 0.2503
H12 H 0.7130 0.6187 0.1982
C13 C 0.4877(3) 0.6169(2) 0.14879(15)
H13 H 0.4997 0.5304 0.1410
H14 H 0.3916 0.6312 0.1681
C14 C 0.4000(2) 0.88557(18) 0.23511(10)
C15 C 0.1537(3) 0.9230(3) 0.19127(14)
H15 H 0.0820 0.9613 0.1572
C16 C 0.1010(3) 0.8533(3) 0.24419(16)
H16 H -0.0035 0.8443 0.2460
C17 C 0.2053(4) 0.7970(3) 0.29438(16)
H17 H 0.1729 0.7471 0.3304
C18 C 0.3596(3) 0.8149(2) 0.29117(12)
H18 H 0.4335 0.7801 0.3258
loop_
_geom_bond_atom_site_label_1
_geom_bond_atom_site_label_2
_geom_bond_site_symmetry_1
_geom_bond_site_symmetry_2
S1 N1 1_555 1_555
N1 C11 1_555 1_555
N2 C14 1_555 1_555
O1 C2 1_555 1_555
O2 C3 1_555 1_555
O3 S1 1_555 1_555
O4 S1 1_555 1_555
C1 H1 1_555 1_555
H2 C1 1_555 1_555
H3 C1 1_555 1_555
C2 C1 1_555 1_555
H4 C2 1_555 1_555
H5 C2 1_555 1_555
C3 O1 1_555 1_555
C4 C3 1_555 1_555
H6 C4 1_555 1_555
C5 C4 1_555 1_555
H7 C5 1_555 1_555
C6 C5 1_555 1_555
C7 C6 1_555 1_555
H8 C7 1_555 1_555
C8 C7 1_555 1_555
H9 C8 1_555 1_555
C9 C8 1_555 1_555
H10 C9 1_555 1_555
C10 C9 1_555 1_555
C11 C6 1_555 1_555
C12 N1 1_555 1_555
H11 C12 1_555 1_555
H12 C12 1_555 1_555
C13 C10 1_555 1_555
H13 C13 1_555 1_555
H14 C13 1_555 1_555
C14 S1 1_555 1_555
C15 N2 1_555 1_555
H15 C15 1_555 1_555
C16 C15 1_555 1_555
H16 C16 1_555 1_555
C17 C16 1_555 1_555
H17 C17 1_555 1_555
C18 C14 1_555 1_555
H18 C18 1_555 1_555
C10 C11 1_555 1_555
C12 C13 1_555 1_555
C17 C18 1_555 1_555

#END
