
#######################################################################
#
#                 Cambridge Crystallographic Data Centre
#                                CCDC 
#
#######################################################################
#
# If this CIF has been generated from an entry in the Cambridge 
# Structural Database, then it will include bibliographic, chemical, 
# crystal, experimental, refinement or atomic coordinate data resulting 
# from the CCDC's data processing and validation procedures.
#
#######################################################################

data_DUCSEA
_chemical_formula_moiety         'C9 H11 Cl1 N4 O1'
_chemical_name_systematic        
N''-(1-(4-Chlorophenyl)ethylidene)carbonohydrazide
_symmetry_cell_setting           monoclinic
_symmetry_space_group_name_H-M   'P 21/c'
_symmetry_Int_Tables_number      14
_space_group_name_Hall           '-P 2ybc'
loop_
_symmetry_equiv_pos_site_id
_symmetry_equiv_pos_as_xyz
1 x,y,z
2 -x,1/2+y,1/2-z
3 -x,-y,-z
4 x,1/2-y,1/2+z
_cell_length_a                   14.6429(14)
_cell_length_b                   9.6041(12)
_cell_length_c                   7.4327(9)
_cell_angle_alpha                90
_cell_angle_beta                 90.1020(10)
_cell_angle_gamma                90
_cell_volume                     1045.27
_exptl_crystal_colour            colorless
_exptl_crystal_description       needle
_cell_formula_units_Z            4
_exptl_crystal_recrystallization_method ethanol
loop_
_atom_site_label
_atom_site_type_symbol
_atom_site_fract_x
_atom_site_fract_y
_atom_site_fract_z
Cl1 Cl 0.94869(7) 1.35122(11) 0.60169(13)
N1 N 0.57886(16) 0.7625(2) 0.3769(3)
H1 H 0.5945 0.6791 0.4057
N2 N 0.63579(17) 0.8715(2) 0.4127(3)
N3 N 0.47946(16) 0.9177(2) 0.2451(3)
H2 H 0.5175 0.9828 0.2719
N4 N 0.39947(16) 0.9500(2) 0.1494(3)
H3 H 0.4001 0.9058 0.0443
H4 H 0.3513 0.9224 0.2129
O1 O 0.44329(14) 0.6900(2) 0.2677(3)
C1 C 0.4970(2) 0.7867(3) 0.2949(4)
C2 C 0.7519(2) 0.7025(3) 0.5085(4)
H5 H 0.7062 0.6479 0.5682
H6 H 0.8056 0.7075 0.5825
H7 H 0.7669 0.6601 0.3955
C3 C 0.7158(2) 0.8469(3) 0.4762(4)
C4 C 0.77306(19) 0.9705(3) 0.5105(4)
C5 C 0.8596(2) 0.9605(3) 0.5861(4)
H8 H 0.8821 0.8733 0.6173
C6 C 0.9131(2) 1.0768(4) 0.6161(4)
H9 H 0.9710 1.0676 0.6663
C7 C 0.8802(2) 1.2056(3) 0.5714(4)
C8 C 0.7950(2) 1.2196(4) 0.4976(4)
H10 H 0.7729 1.3074 0.4678
C9 C 0.7423(2) 1.1031(3) 0.4676(4)
H11 H 0.6845 1.1136 0.4173
loop_
_geom_bond_atom_site_label_1
_geom_bond_atom_site_label_2
_geom_bond_site_symmetry_1
_geom_bond_site_symmetry_2
Cl1 C7 1_555 1_555
N1 H1 1_555 1_555
N2 N1 1_555 1_555
N3 H2 1_555 1_555
N4 N3 1_555 1_555
H3 N4 1_555 1_555
H4 N4 1_555 1_555
O1 C1 1_555 1_555
C1 N1 1_555 1_555
C2 H5 1_555 1_555
H6 C2 1_555 1_555
H7 C2 1_555 1_555
C3 N2 1_555 1_555
C4 C3 1_555 1_555
C5 C4 1_555 1_555
H8 C5 1_555 1_555
C6 C5 1_555 1_555
H9 C6 1_555 1_555
C7 C6 1_555 1_555
C8 C7 1_555 1_555
H10 C8 1_555 1_555
C9 C4 1_555 1_555
H11 C9 1_555 1_555
N3 C1 1_555 1_555
C2 C3 1_555 1_555
C8 C9 1_555 1_555

#END
