
#######################################################################
#
#                 Cambridge Crystallographic Data Centre
#                                CCDC 
#
#######################################################################
#
# If this CIF has been generated from an entry in the Cambridge 
# Structural Database, then it will include bibliographic, chemical, 
# crystal, experimental, refinement or atomic coordinate data resulting 
# from the CCDC's data processing and validation procedures.
#
#######################################################################

data_DUCSIE
_chemical_formula_moiety         'C27 H27 Cl2 N7 O4 S1'
_chemical_name_systematic        
N'-Benzoyl-2-chloro-N'-((3-((6-chloro-3-pyridinyl)methyl)-2-(nitroimino)-1-imidazolidinyl)sulfanyl)-N-(2-methyl-2-propanyl)benzohydrazide
_symmetry_cell_setting           monoclinic
_symmetry_space_group_name_H-M   'P 21/n'
_symmetry_Int_Tables_number      14
_space_group_name_Hall           '-P 2yn'
loop_
_symmetry_equiv_pos_site_id
_symmetry_equiv_pos_as_xyz
1 x,y,z
2 1/2-x,1/2+y,1/2-z
3 -x,-y,-z
4 1/2+x,1/2-y,1/2+z
_cell_length_a                   11.2271(19)
_cell_length_b                   10.1360(17)
_cell_length_c                   25.660(4)
_cell_angle_alpha                90
_cell_angle_beta                 102.233(2)
_cell_angle_gamma                90
_cell_volume                     2853.75
_exptl_crystal_colour            colorless
_exptl_crystal_description       prism
_cell_formula_units_Z            4
_exptl_crystal_recrystallization_method isopropanol
loop_
_atom_site_label
_atom_site_type_symbol
_atom_site_fract_x
_atom_site_fract_y
_atom_site_fract_z
Cl1 Cl -0.00213(9) 0.49776(9) 0.40638(4)
Cl2 Cl -0.11702(9) 0.58796(9) 0.15026(4)
S1 S 0.14276(6) 0.07999(6) 0.09665(2)
O1 O 0.06429(15) 0.32169(19) 0.17809(6)
O2 O 0.11152(17) 0.45234(18) 0.07819(8)
O3 O 0.0674(2) -0.1707(2) 0.14149(9)
O4 O -0.1101(2) -0.0950(2) 0.14492(11)
N1 N -0.03379(17) 0.2563(2) 0.09591(7)
N2 N 0.08279(17) 0.23245(19) 0.08582(7)
N3 N 0.21131(18) 0.0735(2) 0.16139(7)
N4 N 0.2211(2) 0.0837(2) 0.24814(8)
N5 N 0.0473(2) -0.0140(2) 0.20121(8)
N6 N 0.0006(2) -0.0955(2) 0.15925(9)
N7 N 0.1465(2) 0.3052(3) 0.40109(9)
C1 C -0.1896(3) 0.4535(3) 0.17016(13)
C2 C -0.2914(3) 0.4740(5) 0.19289(16)
H1 H -0.3207 0.5589 0.1958
C3 C -0.3459(4) 0.3701(5) 0.21039(17)
H2 H -0.4121 0.3841 0.2262
C4 C -0.3057(3) 0.2426(5) 0.20542(15)
H3 H -0.3468 0.1727 0.2171
C5 C -0.2077(2) 0.2171(4) 0.18388(12)
H4 H -0.1792 0.1314 0.1820
C6 C -0.1483(2) 0.3285(3) 0.16371(10)
C7 C -0.0311(2) 0.3051(2) 0.14593(9)
C8 C -0.1401(2) 0.2467(3) 0.04779(9)
C9 C -0.2336(3) 0.1494(4) 0.05798(15)
H5 H -0.2744 0.1846 0.0842
H6 H -0.1941 0.0681 0.0708
H7 H -0.2920 0.1334 0.0254
C10 C -0.1969(3) 0.3813(3) 0.03440(14)
H8 H -0.2587 0.3756 0.0023
H9 H -0.1352 0.4427 0.0293
H10 H -0.2327 0.4110 0.0631
C11 C -0.0898(3) 0.2030(5) -0.00012(13)
H11 H -0.0538 0.1171 0.0066
H12 H -0.0292 0.2647 -0.0060
H13 H -0.1549 0.1996 -0.0311
C12 C 0.1470(2) 0.3426(2) 0.07288(9)
C13 C 0.2546(2) 0.3156(3) 0.04891(10)
C14 C 0.2425(3) 0.2453(3) 0.00197(12)
H14 H 0.1692 0.2035 -0.0124
C15 C 0.3376(3) 0.2368(4) -0.02354(13)
H15 H 0.3278 0.1915 -0.0557
C16 C 0.4471(3) 0.2949(4) -0.00196(15)
H16 H 0.5123 0.2870 -0.0188
C17 C 0.4599(3) 0.3646(4) 0.04451(15)
H17 H 0.5342 0.4041 0.0592
C18 C 0.3636(2) 0.3768(3) 0.06963(12)
H18 H 0.3724 0.4265 0.1007
C19 C 0.3185(2) 0.1561(3) 0.18253(10)
H19 H 0.3066 0.2453 0.1687
H20 H 0.3912 0.1195 0.1733
C20 C 0.3281(3) 0.1541(4) 0.24168(12)
H21 H 0.4015 0.1088 0.2596
H22 H 0.3286 0.2429 0.2558
C21 C 0.1539(2) 0.0411(2) 0.20220(9)
C22 C 0.1974(3) 0.0529(3) 0.30041(10)
H23 H 0.2731 0.0267 0.3240
H24 H 0.1417 -0.0212 0.2971
C23 C 0.1436(2) 0.1681(3) 0.32484(9)
C24 C 0.1910(3) 0.2073(3) 0.37612(10)
H25 H 0.2590 0.1626 0.3949
C25 C 0.0517(3) 0.3670(3) 0.37382(11)
C26 C -0.0045(3) 0.3379(4) 0.32266(13)
H26 H -0.0724 0.3849 0.3051
C27 C 0.0435(3) 0.2360(3) 0.29801(12)
H27 H 0.0079 0.2132 0.2631
loop_
_geom_bond_atom_site_label_1
_geom_bond_atom_site_label_2
_geom_bond_site_symmetry_1
_geom_bond_site_symmetry_2
Cl1 C25 1_555 1_555
Cl2 C1 1_555 1_555
S1 N2 1_555 1_555
O1 C7 1_555 1_555
O2 C12 1_555 1_555
O3 N6 1_555 1_555
O4 N6 1_555 1_555
N1 N2 1_555 1_555
N2 C12 1_555 1_555
N3 S1 1_555 1_555
N4 C20 1_555 1_555
N5 N6 1_555 1_555
N7 C24 1_555 1_555
C1 C2 1_555 1_555
C2 H1 1_555 1_555
C3 C2 1_555 1_555
H2 C3 1_555 1_555
C4 C3 1_555 1_555
H3 C4 1_555 1_555
C5 C4 1_555 1_555
H4 C5 1_555 1_555
C6 C1 1_555 1_555
C7 N1 1_555 1_555
C8 N1 1_555 1_555
C9 C8 1_555 1_555
H5 C9 1_555 1_555
H6 C9 1_555 1_555
H7 C9 1_555 1_555
C10 C8 1_555 1_555
H8 C10 1_555 1_555
H9 C10 1_555 1_555
H10 C10 1_555 1_555
C11 C8 1_555 1_555
H11 C11 1_555 1_555
H12 C11 1_555 1_555
H13 C11 1_555 1_555
C12 C13 1_555 1_555
C13 C14 1_555 1_555
C14 H14 1_555 1_555
C15 C14 1_555 1_555
H15 C15 1_555 1_555
C16 C15 1_555 1_555
H16 C16 1_555 1_555
C17 C16 1_555 1_555
H17 C17 1_555 1_555
C18 C13 1_555 1_555
H18 C18 1_555 1_555
C19 N3 1_555 1_555
H19 C19 1_555 1_555
H20 C19 1_555 1_555
C20 C19 1_555 1_555
H21 C20 1_555 1_555
H22 C20 1_555 1_555
C21 N3 1_555 1_555
C22 N4 1_555 1_555
H23 C22 1_555 1_555
H24 C22 1_555 1_555
C23 C22 1_555 1_555
C24 C23 1_555 1_555
H25 C24 1_555 1_555
C25 N7 1_555 1_555
C26 C25 1_555 1_555
H26 C26 1_555 1_555
C27 C23 1_555 1_555
H27 C27 1_555 1_555
N4 C21 1_555 1_555
N5 C21 1_555 1_555
C5 C6 1_555 1_555
C6 C7 1_555 1_555
C17 C18 1_555 1_555
C26 C27 1_555 1_555

#END
