
#######################################################################
#
#                 Cambridge Crystallographic Data Centre
#                                CCDC 
#
#######################################################################
#
# If this CIF has been generated from an entry in the Cambridge 
# Structural Database, then it will include bibliographic, chemical, 
# crystal, experimental, refinement or atomic coordinate data resulting 
# from the CCDC's data processing and validation procedures.
#
#######################################################################

data_DUCTIG
_chemical_formula_moiety         '2(C12 H12 N5 1+),C7 H4 O6 S1 2-,C2 H6 O1'
_chemical_name_systematic        
'bis(6-(benzylamino)-3H-purin-7-ium) 2-hydroxy-5-sulfonatobenzoate ethanol solvate'
_symmetry_cell_setting           triclinic
_symmetry_space_group_name_H-M   'P -1'
_symmetry_Int_Tables_number      2
_space_group_name_Hall           '-P 1'
loop_
_symmetry_equiv_pos_site_id
_symmetry_equiv_pos_as_xyz
1 x,y,z
2 -x,-y,-z
_cell_length_a                   10.6684(8)
_cell_length_b                   11.3981(9)
_cell_length_c                   15.1175(12)
_cell_angle_alpha                71.0290(10)
_cell_angle_beta                 77.0130(10)
_cell_angle_gamma                87.404(2)
_cell_volume                     1693.19
_exptl_crystal_colour            colorless
_exptl_crystal_description       block
_cell_formula_units_Z            2
loop_
_atom_site_label
_atom_site_type_symbol
_atom_site_fract_x
_atom_site_fract_y
_atom_site_fract_z
N1 N 0.8383(3) -0.1209(3) 0.5373(2)
H1 H 0.9095 -0.1494 0.5521
N2 N 0.6342(3) -0.0604(3) 0.5545(2)
N3 N 0.8230(3) -0.0186(3) 0.2804(2)
N4 N 0.6284(3) 0.0010(3) 0.3850(2)
H2 H 0.5493 0.0220 0.3922
N5 N 1.0068(3) -0.1013(3) 0.3387(2)
H3 H 1.0418 -0.1341 0.3867
C1 C 0.7308(4) -0.1072(4) 0.5964(3)
H4 H 0.7233 -0.1286 0.6622
C2 C 0.6858(3) -0.0449(3) 0.4616(3)
C3 C 0.8125(4) -0.0803(3) 0.4480(3)
C4 C 0.8830(4) -0.0672(3) 0.3562(3)
C5 C 0.7027(4) 0.0111(4) 0.2984(3)
H5 H 0.6646 0.0424 0.2461
C6 C 1.0840(4) -0.0855(4) 0.2426(3)
H6 H 1.0272 -0.0816 0.1999
H7 H 1.1373 -0.1571 0.2444
C7 C 1.1685(4) 0.0300(4) 0.2037(2)
C8 C 1.1131(4) 0.1462(4) 0.1850(3)
H8 H 1.0241 0.1515 0.1946
C9 C 1.1883(5) 0.2528(5) 0.1526(3)
H9 H 1.1497 0.3296 0.1412
C10 C 1.3192(5) 0.2471(6) 0.1369(3)
H10 H 1.3696 0.3197 0.1149
C11 C 1.3754(5) 0.1358(6) 0.1534(3)
H11 H 1.4647 0.1324 0.1425
C12 C 1.3016(4) 0.0264(5) 0.1865(3)
H12 H 1.3417 -0.0496 0.1971
N6 N 0.8597(3) 0.6695(3) 0.0643(2)
H13 H 0.8371 0.5940 0.0745
N7 N 0.9857(3) 0.8372(3) 0.0284(2)
N8 N 0.6024(3) 0.8965(3) 0.0844(2)
N9 N 0.8127(3) 0.9800(3) 0.0446(2)
H14 H 0.8626 1.0437 0.0306
N10 N 0.5603(3) 0.6895(3) 0.1011(2)
H15 H 0.5876 0.6153 0.1099
C13 C 0.9803(4) 0.7163(4) 0.0393(3)
H16 H 1.0528 0.6694 0.0305
C14 C 0.8600(4) 0.8663(3) 0.0481(3)
C15 C 0.7794(4) 0.7649(3) 0.0706(3)
C16 C 0.6460(4) 0.7801(3) 0.0864(2)
C17 C 0.6848(4) 0.9875(4) 0.0641(3)
H17 H 0.6515 1.0647 0.0630
C18 C 0.4244(4) 0.7086(4) 0.1032(3)
H18 H 0.4043 0.6903 0.0495
H19 H 0.4069 0.7952 0.0952
C19 C 0.3380(4) 0.6294(4) 0.1947(3)
C20 C 0.2461(4) 0.5518(5) 0.1922(4)
H20 H 0.2387 0.5468 0.1334
C21 C 0.1636(5) 0.4803(6) 0.2752(4)
H21 H 0.1018 0.4278 0.2719
C22 C 0.1734(5) 0.4870(5) 0.3619(4)
H22 H 0.1179 0.4397 0.4179
C23 C 0.2653(5) 0.5638(5) 0.3658(4)
H23 H 0.2723 0.5689 0.4247
C24 C 0.3477(4) 0.6337(4) 0.2830(3)
H24 H 0.4107 0.6846 0.2867
O1 O 0.7015(3) 0.2489(2) 0.10014(18)
O2 O 0.8303(2) 0.4272(2) 0.07975(18)
O3 O 0.6027(3) 0.4483(2) 0.08450(19)
O4 O 0.9638(3) 0.2135(3) 0.3914(2)
O5 O 0.8285(3) 0.1923(3) 0.53157(19)
O6 O 0.5959(3) 0.2476(3) 0.53776(18)
H25 H 0.6617 0.2258 0.5575
S1 S 0.70290(10) 0.36608(9) 0.11758(7)
C25 C 0.6721(3) 0.3344(3) 0.2432(3)
C26 C 0.7706(3) 0.2952(3) 0.2912(3)
H26 H 0.8531 0.2886 0.2568
C27 C 0.7472(3) 0.2655(3) 0.3902(3)
C28 C 0.6231(4) 0.2772(3) 0.4409(3)
C29 C 0.5254(4) 0.3189(4) 0.3927(3)
H27 H 0.4435 0.3283 0.4266
C30 C 0.5490(4) 0.3465(3) 0.2949(3)
H28 H 0.4827 0.3733 0.2630
C31 C 0.8555(4) 0.2206(4) 0.4410(3)
O7 O 0.3546(5) 0.2637(5) 0.6607(6)
H29 H 0.4251 0.2698 0.6239
C32 C 0.3048(8) 0.3750(6) 0.6478(6)
H30 H 0.3385 0.4249 0.5816
H31 H 0.3371 0.4128 0.6876
C33 C 0.1693(7) 0.3848(6) 0.6668(5)
H32 H 0.1381 0.3814 0.6129
H33 H 0.1468 0.4622 0.6778
H34 H 0.1311 0.3175 0.7228
loop_
_geom_bond_atom_site_label_1
_geom_bond_atom_site_label_2
_geom_bond_site_symmetry_1
_geom_bond_site_symmetry_2
N1 H1 1_555 1_555
N2 C1 1_555 1_555
N3 C4 1_555 1_555
N4 H2 1_555 1_555
N5 H3 1_555 1_555
C1 N1 1_555 1_555
H4 C1 1_555 1_555
C2 N2 1_555 1_555
C3 N1 1_555 1_555
C4 N5 1_555 1_555
C5 N3 1_555 1_555
H5 C5 1_555 1_555
C6 N5 1_555 1_555
H6 C6 1_555 1_555
H7 C6 1_555 1_555
C7 C6 1_555 1_555
C8 C7 1_555 1_555
H8 C8 1_555 1_555
C9 C8 1_555 1_555
H9 C9 1_555 1_555
C10 C9 1_555 1_555
H10 C10 1_555 1_555
C11 C10 1_555 1_555
H11 C11 1_555 1_555
C12 C7 1_555 1_555
H12 C12 1_555 1_555
N6 H13 1_555 1_555
N7 C13 1_555 1_555
N8 C16 1_555 1_555
N9 H14 1_555 1_555
N10 H15 1_555 1_555
C13 N6 1_555 1_555
H16 C13 1_555 1_555
C14 N7 1_555 1_555
C15 N6 1_555 1_555
C16 N10 1_555 1_555
C17 N8 1_555 1_555
H17 C17 1_555 1_555
C18 N10 1_555 1_555
H18 C18 1_555 1_555
H19 C18 1_555 1_555
C19 C18 1_555 1_555
C20 C19 1_555 1_555
H20 C20 1_555 1_555
C21 C20 1_555 1_555
H21 C21 1_555 1_555
C22 C21 1_555 1_555
H22 C22 1_555 1_555
C23 C22 1_555 1_555
H23 C23 1_555 1_555
C24 C19 1_555 1_555
H24 C24 1_555 1_555
O1 S1 1_555 1_555
O2 S1 1_555 1_555
O3 S1 1_555 1_555
O4 C31 1_555 1_555
O5 C31 1_555 1_555
O6 H25 1_555 1_555
S1 C25 1_555 1_555
C25 C26 1_555 1_555
C26 H26 1_555 1_555
C27 C26 1_555 1_555
C28 O6 1_555 1_555
C29 C28 1_555 1_555
H27 C29 1_555 1_555
C30 C25 1_555 1_555
H28 C30 1_555 1_555
C31 C27 1_555 1_555
O7 H29 1_555 1_555
C32 O7 1_555 1_555
H30 C32 1_555 1_555
H31 C32 1_555 1_555
C33 C32 1_555 1_555
H32 C33 1_555 1_555
H33 C33 1_555 1_555
H34 C33 1_555 1_555
N4 C2 1_555 1_555
N4 C5 1_555 1_555
C2 C3 1_555 1_555
C3 C4 1_555 1_555
C11 C12 1_555 1_555
N9 C14 1_555 1_555
N9 C17 1_555 1_555
C14 C15 1_555 1_555
C15 C16 1_555 1_555
C23 C24 1_555 1_555
C27 C28 1_555 1_555
C29 C30 1_555 1_555

#END
