
#######################################################################
#
#                 Cambridge Crystallographic Data Centre
#                                CCDC 
#
#######################################################################
#
# If this CIF has been generated from an entry in the Cambridge 
# Structural Database, then it will include bibliographic, chemical, 
# crystal, experimental, refinement or atomic coordinate data resulting 
# from the CCDC's data processing and validation procedures.
#
#######################################################################

data_DUCVII
_chemical_formula_moiety         'C4 H15 N3 2+,2(C7 H3 N2 O6 1-)'
_chemical_name_systematic        
"2,2'-iminodiethanaminium bis(3,5-dinitrobenzoate)"
_symmetry_cell_setting           triclinic
_symmetry_space_group_name_H-M   'P -1'
_symmetry_Int_Tables_number      2
_space_group_name_Hall           '-P 1'
loop_
_symmetry_equiv_pos_site_id
_symmetry_equiv_pos_as_xyz
1 x,y,z
2 -x,-y,-z
_cell_length_a                   8.5665(8)
_cell_length_b                   11.8387(9)
_cell_length_c                   12.4901(11)
_cell_angle_alpha                77.2580(10)
_cell_angle_beta                 77.1820(10)
_cell_angle_gamma                78.290(2)
_cell_volume                     1188.81
_exptl_crystal_colour            colorless
_exptl_crystal_description       block
_cell_formula_units_Z            2
loop_
_atom_site_label
_atom_site_type_symbol
_atom_site_fract_x
_atom_site_fract_y
_atom_site_fract_z
N1 N 0.2492(3) 0.62011(18) 0.58123(17)
H1 H 0.2962 0.6200 0.5101
H2 H 0.1763 0.5718 0.6015
H3 H 0.3242 0.5962 0.6242
N2 N 0.4133(3) 0.77175(17) 0.63852(18)
H4 H 0.3718 0.7823 0.7080
N3 N 0.7272(2) 0.62517(17) 0.63781(18)
H5 H 0.6380 0.5922 0.6588
H6 H 0.8041 0.5818 0.6738
H7 H 0.7616 0.6298 0.5645
C1 C 0.1679(3) 0.7400(2) 0.5944(2)
H8 H 0.1078 0.7391 0.6701
H9 H 0.0918 0.7685 0.5436
C2 C 0.2925(3) 0.8203(2) 0.5697(2)
H10 H 0.3435 0.8288 0.4915
H11 H 0.2403 0.8973 0.5849
C3 C 0.5638(3) 0.8200(2) 0.6034(3)
H12 H 0.5451 0.8992 0.6183
H13 H 0.6011 0.8235 0.5237
C4 C 0.6902(3) 0.7450(2) 0.6650(2)
H14 H 0.7881 0.7800 0.6447
H15 H 0.6517 0.7401 0.7448
N4 N 0.6453(4) 0.2938(3) 1.0141(2)
N5 N 0.7739(5) 0.0115(2) 0.7625(3)
O1 O 1.1266(3) 0.32181(19) 0.57989(18)
O2 O 1.0212(2) 0.47213(16) 0.66788(16)
O3 O 0.6705(6) 0.3794(3) 1.0358(3)
O4 O 0.5526(3) 0.2337(3) 1.0745(2)
O5 O 0.6750(4) -0.0431(2) 0.8279(3)
O6 O 0.8549(5) -0.0162(2) 0.6750(3)
C5 C 1.0334(3) 0.3689(2) 0.6541(2)
C6 C 0.9211(3) 0.2938(2) 0.7378(2)
C7 C 0.8351(3) 0.3296(2) 0.8355(2)
H16 H 0.8450 0.4006 0.8516
C8 C 0.7344(3) 0.2579(2) 0.9087(2)
C9 C 0.7125(4) 0.1542(2) 0.8871(2)
H17 H 0.6420 0.1080 0.9366
C10 C 0.7981(4) 0.1214(2) 0.7899(2)
C11 C 0.9040(3) 0.1879(2) 0.7156(2)
H18 H 0.9634 0.1618 0.6512
N6 N 0.1041(4) 0.3221(3) 1.0693(2)
N7 N 0.2235(3) 0.03220(19) 0.8264(2)
O7 O 0.5758(3) 0.33884(19) 0.63057(17)
O8 O 0.4816(2) 0.48898(16) 0.71828(17)
O9 O 0.1330(4) 0.4079(3) 1.0897(2)
O10 O 0.0113(5) 0.2638(3) 1.1310(2)
O11 O 0.1355(3) -0.02654(18) 0.8965(2)
O12 O 0.2878(3) 0.00614(19) 0.7369(2)
C12 C 0.4873(3) 0.3868(2) 0.7054(2)
C13 C 0.3737(3) 0.3145(2) 0.79105(19)
C14 C 0.2901(3) 0.3532(2) 0.8882(2)
H19 H 0.3012 0.4251 0.9019
C15 C 0.1901(3) 0.2831(2) 0.9643(2)
C16 C 0.1672(3) 0.1776(2) 0.9477(2)
H20 H 0.0990 0.1318 1.0000
C17 C 0.2497(3) 0.14260(19) 0.8502(2)
C18 C 0.3527(3) 0.2083(2) 0.7721(2)
H21 H 0.4076 0.1815 0.7071
loop_
_geom_bond_atom_site_label_1
_geom_bond_atom_site_label_2
_geom_bond_site_symmetry_1
_geom_bond_site_symmetry_2
N1 H1 1_555 1_555
H2 N1 1_555 1_555
H3 N1 1_555 1_555
N2 H4 1_555 1_555
N3 H5 1_555 1_555
H6 N3 1_555 1_555
H7 N3 1_555 1_555
C1 N1 1_555 1_555
H8 C1 1_555 1_555
H9 C1 1_555 1_555
C2 N2 1_555 1_555
H10 C2 1_555 1_555
H11 C2 1_555 1_555
C3 N2 1_555 1_555
H12 C3 1_555 1_555
H13 C3 1_555 1_555
C4 N3 1_555 1_555
H14 C4 1_555 1_555
H15 C4 1_555 1_555
N4 O3 1_555 1_555
N5 O5 1_555 1_555
O1 C5 1_555 1_555
O2 C5 1_555 1_555
O4 N4 1_555 1_555
O6 N5 1_555 1_555
C5 C6 1_555 1_555
C6 C7 1_555 1_555
C7 H16 1_555 1_555
C8 N4 1_555 1_555
C9 C8 1_555 1_555
H17 C9 1_555 1_555
C10 N5 1_555 1_555
C11 C6 1_555 1_555
H18 C11 1_555 1_555
N6 O9 1_555 1_555
N7 O11 1_555 1_555
O7 C12 1_555 1_555
O8 C12 1_555 1_555
O10 N6 1_555 1_555
O12 N7 1_555 1_555
C12 C13 1_555 1_555
C13 C14 1_555 1_555
C14 H19 1_555 1_555
C15 N6 1_555 1_555
C16 C15 1_555 1_555
H20 C16 1_555 1_555
C17 N7 1_555 1_555
C18 C13 1_555 1_555
H21 C18 1_555 1_555
C1 C2 1_555 1_555
C3 C4 1_555 1_555
C7 C8 1_555 1_555
C9 C10 1_555 1_555
C10 C11 1_555 1_555
C14 C15 1_555 1_555
C16 C17 1_555 1_555
C17 C18 1_555 1_555

#END
