
#######################################################################
#
#                 Cambridge Crystallographic Data Centre
#                                CCDC 
#
#######################################################################
#
# If this CIF has been generated from an entry in the Cambridge 
# Structural Database, then it will include bibliographic, chemical, 
# crystal, experimental, refinement or atomic coordinate data resulting 
# from the CCDC's data processing and validation procedures.
#
#######################################################################

data_DUCVIH
_chemical_formula_moiety         'C14 H11 Cl1 N2 O1'
_chemical_name_systematic        
2-(2-Chlorophenyl)-2,3-dihydroquinazolin-4(1H)-one
_symmetry_cell_setting           triclinic
_symmetry_space_group_name_H-M   'P -1'
_symmetry_Int_Tables_number      2
_space_group_name_Hall           '-P 1'
loop_
_symmetry_equiv_pos_site_id
_symmetry_equiv_pos_as_xyz
1 x,y,z
2 -x,-y,-z
_cell_length_a                   6.99000(10)
_cell_length_b                   8.7488(2)
_cell_length_c                   10.4756(2)
_cell_angle_alpha                100.6390(10)
_cell_angle_beta                 92.7260(10)
_cell_angle_gamma                101.7860(10)
_cell_volume                     613.914
_exptl_crystal_colour            colorless
_exptl_crystal_description       block
_chemical_melting_point          '485-486 K'
_cell_formula_units_Z            2
_exptl_crystal_recrystallization_method ethanol
loop_
_atom_site_label
_atom_site_type_symbol
_atom_site_fract_x
_atom_site_fract_y
_atom_site_fract_z
Cl1 Cl 0.16029(5) 0.69778(5) 0.05650(4)
N1 N 0.50252(18) 1.00296(13) 0.18929(11)
C1 C 0.53903(19) 0.72253(15) 0.14393(12)
O1 O 1.08313(14) 1.09067(13) 0.17031(11)
C2 C 0.9066(2) 1.04662(16) 0.18541(14)
C3 C 0.61534(19) 1.08206(15) 0.30290(12)
N2 N 0.78205(17) 0.94682(14) 0.09040(12)
C4 C 0.3498(2) 0.62845(16) 0.12560(13)
C5 C 0.57649(19) 0.88323(15) 0.10227(13)
C6 C 0.6833(2) 0.66331(18) 0.20113(14)
H1 H 0.8115 0.7230 0.2153
C7 C 0.3048(2) 0.48197(17) 0.16089(15)
H2 H 0.1769 0.4217 0.1469
C8 C 0.8198(2) 1.10531(17) 0.30508(13)
C9 C 0.5326(2) 1.14921(18) 0.41197(14)
H3 H 0.3970 1.1339 0.4120
C10 C 0.6398(3) 0.5163(2) 0.23777(16)
H4 H 0.7385 0.4786 0.2765
C11 C 0.9362(2) 1.1958(2) 0.41504(17)
H5 H 1.0720 1.2122 0.4163
C12 C 0.4514(3) 0.42650(18) 0.21692(16)
H6 H 0.4232 0.3277 0.2409
C13 C 0.6509(3) 1.2379(2) 0.51937(16)
H7 H 0.5944 1.2828 0.5916
C14 C 0.8526(3) 1.2615(3) 0.52208(17)
H8 H 0.9312 1.3214 0.5957
H9 H 0.382(2) 0.9860(18) 0.1921(14)
H10 H 0.823(2) 0.9236(19) 0.0184(18)
H11 H 0.510(2) 0.8682(16) 0.0185(14)
loop_
_geom_bond_atom_site_label_1
_geom_bond_atom_site_label_2
_geom_bond_site_symmetry_1
_geom_bond_site_symmetry_2
Cl1 C4 1_555 1_555
N1 C3 1_555 1_555
C1 C4 1_555 1_555
O1 C2 1_555 1_555
C2 N2 1_555 1_555
C3 C8 1_555 1_555
N2 C5 1_555 1_555
C4 C7 1_555 1_555
C5 N1 1_555 1_555
C6 C1 1_555 1_555
H1 C6 1_555 1_555
C7 H2 1_555 1_555
C8 C2 1_555 1_555
C9 C3 1_555 1_555
H3 C9 1_555 1_555
C10 C6 1_555 1_555
H4 C10 1_555 1_555
C11 C8 1_555 1_555
H5 C11 1_555 1_555
C12 C7 1_555 1_555
H6 C12 1_555 1_555
C13 C9 1_555 1_555
H7 C13 1_555 1_555
C14 C11 1_555 1_555
H8 C14 1_555 1_555
H9 N1 1_555 1_555
H10 N2 1_555 1_555
H11 C5 1_555 1_555
C1 C5 1_555 1_555
C10 C12 1_555 1_555
C13 C14 1_555 1_555

#END
