
#######################################################################
#
#                 Cambridge Crystallographic Data Centre
#                                CCDC 
#
#######################################################################
#
# If this CIF has been generated from an entry in the Cambridge 
# Structural Database, then it will include bibliographic, chemical, 
# crystal, experimental, refinement or atomic coordinate data resulting 
# from the CCDC's data processing and validation procedures.
#
#######################################################################

data_DUCVUU
_chemical_formula_moiety         'C4 H15 N3 2+,2(C7 H4 N1 O5 1-)'
_chemical_name_systematic        
"2,2'-iminodiethanaminium bis(2-hydroxy-5-nitrobenzoate)"
_symmetry_cell_setting           orthorhombic
_symmetry_space_group_name_H-M   'P b c a'
_symmetry_Int_Tables_number      61
_space_group_name_Hall           '-P 2ac 2ab'
loop_
_symmetry_equiv_pos_site_id
_symmetry_equiv_pos_as_xyz
1 x,y,z
2 1/2-x,-y,1/2+z
3 -x,1/2+y,1/2-z
4 1/2+x,1/2-y,-z
5 -x,-y,-z
6 1/2+x,y,1/2-z
7 x,1/2-y,1/2+z
8 1/2-x,1/2+y,z
_cell_length_a                   12.1232(11)
_cell_length_b                   13.5714(14)
_cell_length_c                   26.179(3)
_cell_angle_alpha                90
_cell_angle_beta                 90
_cell_angle_gamma                90
_cell_volume                     4307.2
_exptl_crystal_colour            colorless
_exptl_crystal_description       block
_cell_formula_units_Z            8
loop_
_atom_site_label
_atom_site_type_symbol
_atom_site_fract_x
_atom_site_fract_y
_atom_site_fract_z
N1 N 0.8359(3) 0.0746(3) 0.43215(14)
H1 H 0.9000 0.0578 0.4180
H2 H 0.8066 0.0224 0.4476
H3 H 0.8469 0.1223 0.4549
N2 N 0.8218(3) 0.2758(3) 0.40957(16)
H4 H 0.7562 0.2950 0.4222
N3 N 1.0272(3) 0.3365(3) 0.45696(14)
H5 H 1.0019 0.3866 0.4755
H6 H 1.0998 0.3313 0.4612
H7 H 0.9947 0.2810 0.4670
C1 C 0.7602(5) 0.1097(5) 0.3923(2)
H8 H 0.6877 0.1202 0.4070
H9 H 0.7536 0.0600 0.3659
C2 C 0.8009(5) 0.2045(4) 0.3690(2)
H10 H 0.8682 0.1925 0.3500
H11 H 0.7460 0.2303 0.3456
C3 C 0.8817(4) 0.3631(4) 0.39389(19)
H12 H 0.8543 0.4194 0.4129
H13 H 0.8679 0.3752 0.3579
C4 C 1.0024(4) 0.3542(4) 0.40222(18)
H14 H 1.0310 0.3001 0.3819
H15 H 1.0386 0.4143 0.3911
N4 N 0.7369(4) 0.1165(4) 0.72683(17)
O1 O 0.7598(3) 0.1742(3) 0.53294(12)
O2 O 0.9417(3) 0.1721(2) 0.51695(12)
O3 O 1.0785(2) 0.1401(3) 0.58589(12)
H16 H 1.0548 0.1502 0.5570
O4 O 0.7597(3) 0.1017(4) 0.77167(15)
O5 O 0.6414(3) 0.1248(3) 0.71189(13)
C5 C 0.8577(4) 0.1676(3) 0.54709(17)
C6 C 0.8841(3) 0.1486(3) 0.60276(15)
C7 C 0.9932(4) 0.1369(4) 0.61933(19)
C8 C 1.0159(4) 0.1206(4) 0.67101(19)
H17 H 1.0887 0.1134 0.6815
C9 C 0.9338(4) 0.1148(4) 0.70628(18)
H18 H 0.9495 0.1040 0.7406
C10 C 0.8256(4) 0.1256(4) 0.68948(17)
C11 C 0.8011(4) 0.1426(3) 0.63909(16)
H19 H 0.7279 0.1503 0.6292
N5 N 0.4452(5) 0.1179(4) 0.2890(2)
O6 O 0.0810(2) 0.1051(2) 0.41973(12)
H20 H 0.1007 0.0949 0.4492
O7 O 0.2082(3) 0.0701(2) 0.49250(12)
O8 O 0.3887(3) 0.0470(3) 0.47939(13)
O9 O 0.5365(4) 0.1021(4) 0.30640(18)
O10 O 0.4284(4) 0.1341(4) 0.24383(18)
C12 C 0.2943(4) 0.0691(4) 0.46419(19)
C13 C 0.2776(3) 0.0935(3) 0.40821(17)
C14 C 0.1704(3) 0.1063(3) 0.38871(18)
C15 C 0.1547(4) 0.1231(3) 0.33657(19)
H21 H 0.0837 0.1319 0.3239
C16 C 0.2437(5) 0.1267(3) 0.30372(18)
H22 H 0.2331 0.1373 0.2690
C17 C 0.3499(4) 0.1142(4) 0.32337(19)
C18 C 0.3650(4) 0.0980(3) 0.37480(19)
H23 H 0.4363 0.0898 0.3873
loop_
_geom_bond_atom_site_label_1
_geom_bond_atom_site_label_2
_geom_bond_site_symmetry_1
_geom_bond_site_symmetry_2
N1 H1 1_555 1_555
H2 N1 1_555 1_555
H3 N1 1_555 1_555
N2 H4 1_555 1_555
N3 H5 1_555 1_555
H6 N3 1_555 1_555
H7 N3 1_555 1_555
C1 N1 1_555 1_555
H8 C1 1_555 1_555
H9 C1 1_555 1_555
C2 N2 1_555 1_555
H10 C2 1_555 1_555
H11 C2 1_555 1_555
C3 N2 1_555 1_555
H12 C3 1_555 1_555
H13 C3 1_555 1_555
C4 N3 1_555 1_555
H14 C4 1_555 1_555
H15 C4 1_555 1_555
N4 O4 1_555 1_555
O1 C5 1_555 1_555
O2 C5 1_555 1_555
O3 H16 1_555 1_555
O5 N4 1_555 1_555
C5 C6 1_555 1_555
C6 C7 1_555 1_555
C7 O3 1_555 1_555
C8 C7 1_555 1_555
H17 C8 1_555 1_555
C9 C8 1_555 1_555
H18 C9 1_555 1_555
C10 N4 1_555 1_555
C11 C6 1_555 1_555
H19 C11 1_555 1_555
N5 O9 1_555 1_555
O6 H20 1_555 1_555
O7 C12 1_555 1_555
O8 C12 1_555 1_555
O10 N5 1_555 1_555
C12 C13 1_555 1_555
C13 C14 1_555 1_555
C14 O6 1_555 1_555
C15 C14 1_555 1_555
H21 C15 1_555 1_555
C16 C15 1_555 1_555
H22 C16 1_555 1_555
C17 N5 1_555 1_555
C18 C13 1_555 1_555
H23 C18 1_555 1_555
C1 C2 1_555 1_555
C3 C4 1_555 1_555
C9 C10 1_555 1_555
C10 C11 1_555 1_555
C16 C17 1_555 1_555
C17 C18 1_555 1_555

#END
