
#######################################################################
#
#                 Cambridge Crystallographic Data Centre
#                                CCDC 
#
#######################################################################
#
# If this CIF has been generated from an entry in the Cambridge 
# Structural Database, then it will include bibliographic, chemical, 
# crystal, experimental, refinement or atomic coordinate data resulting 
# from the CCDC's data processing and validation procedures.
#
#######################################################################

data_DUCZOR
_chemical_formula_moiety         'C16 H16 N2 O4'
_chemical_name_systematic        
N'-(2-Hydroxy-4-methoxybenzylidene)-4-methoxybenzohydrazide
_symmetry_cell_setting           monoclinic
_symmetry_space_group_name_H-M   'P 21/c'
_symmetry_Int_Tables_number      14
_space_group_name_Hall           '-P 2ybc'
loop_
_symmetry_equiv_pos_site_id
_symmetry_equiv_pos_as_xyz
1 x,y,z
2 -x,1/2+y,1/2-z
3 -x,-y,-z
4 x,1/2-y,1/2+z
_cell_length_a                   17.692(2)
_cell_length_b                   5.4131(7)
_cell_length_c                   14.933(2)
_cell_angle_alpha                90
_cell_angle_beta                 97.431(7)
_cell_angle_gamma                90
_cell_volume                     1418.1
_exptl_crystal_colour            colorless
_exptl_crystal_description       block
_cell_formula_units_Z            4
loop_
_atom_site_label
_atom_site_type_symbol
_atom_site_fract_x
_atom_site_fract_y
_atom_site_fract_z
O1 O 0.25296(7) 0.8356(2) 0.42022(10)
H1 H 0.2079 0.7986 0.4079
O2 O 0.03919(7) 0.9056(3) 0.38193(10)
O3 O 0.49908(7) 0.5665(3) 0.36425(10)
O4 O -0.29179(7) 0.4958(3) 0.40281(9)
N1 N 0.13948(8) 0.5576(3) 0.35985(10)
N2 N 0.06360(9) 0.5020(3) 0.35871(12)
C1 C 0.26537(10) 0.4485(3) 0.34327(12)
C2 C 0.29666(10) 0.6628(3) 0.38635(12)
C3 C 0.37456(10) 0.7056(3) 0.39548(13)
H2 H 0.3949 0.8454 0.4258
C4 C 0.42197(10) 0.5403(4) 0.35937(13)
C5 C 0.39204(11) 0.3296(4) 0.31433(13)
H3 H 0.4237 0.2202 0.2889
C6 C 0.31544(11) 0.2860(4) 0.30805(13)
H4 H 0.2959 0.1430 0.2793
C7 C 0.18490(10) 0.3929(4) 0.33728(12)
H5 H 0.1665 0.2389 0.3172
C8 C 0.01619(10) 0.6911(4) 0.37443(12)
C9 C -0.06413(10) 0.6228(3) 0.38074(12)
C10 C -0.10700(10) 0.7816(4) 0.42781(13)
H6 H -0.0843 0.9226 0.4548
C11 C -0.18213(11) 0.7328(4) 0.43479(13)
H7 H -0.2100 0.8399 0.4666
C12 C -0.21659(10) 0.5231(3) 0.39429(12)
C13 C -0.17495(10) 0.3632(4) 0.34784(13)
H8 H -0.1979 0.2228 0.3206
C14 C -0.09899(10) 0.4126(4) 0.34193(13)
H9 H -0.0709 0.3030 0.3114
C15 C 0.53412(11) 0.7685(4) 0.41459(18)
H10 H 0.5154 0.9209 0.3873
H11 H 0.5884 0.7599 0.4150
H12 H 0.5222 0.7609 0.4754
C16 C -0.32941(11) 0.2764(4) 0.36696(15)
H13 H -0.3256 0.2651 0.3035
H14 H -0.3821 0.2823 0.3759
H15 H -0.3057 0.1346 0.3974
H16 H 0.0500(13) 0.341(2) 0.3594(16)
loop_
_geom_bond_atom_site_label_1
_geom_bond_atom_site_label_2
_geom_bond_site_symmetry_1
_geom_bond_site_symmetry_2
O1 H1 1_555 1_555
O2 C8 1_555 1_555
O3 C4 1_555 1_555
O4 C12 1_555 1_555
N1 N2 1_555 1_555
N2 C8 1_555 1_555
C1 C2 1_555 1_555
C2 O1 1_555 1_555
C3 C2 1_555 1_555
H2 C3 1_555 1_555
C4 C3 1_555 1_555
C5 C4 1_555 1_555
H3 C5 1_555 1_555
C6 C1 1_555 1_555
H4 C6 1_555 1_555
C7 N1 1_555 1_555
H5 C7 1_555 1_555
C8 C9 1_555 1_555
C9 C10 1_555 1_555
C10 H6 1_555 1_555
C11 C10 1_555 1_555
H7 C11 1_555 1_555
C12 C11 1_555 1_555
C13 C12 1_555 1_555
H8 C13 1_555 1_555
C14 C9 1_555 1_555
H9 C14 1_555 1_555
C15 O3 1_555 1_555
H10 C15 1_555 1_555
H11 C15 1_555 1_555
H12 C15 1_555 1_555
C16 O4 1_555 1_555
H13 C16 1_555 1_555
H14 C16 1_555 1_555
H15 C16 1_555 1_555
H16 N2 1_555 1_555
C1 C7 1_555 1_555
C5 C6 1_555 1_555
C13 C14 1_555 1_555

#END
