
#######################################################################
#
#                 Cambridge Crystallographic Data Centre
#                                CCDC 
#
#######################################################################
#
# If this CIF has been generated from an entry in the Cambridge 
# Structural Database, then it will include bibliographic, chemical, 
# crystal, experimental, refinement or atomic coordinate data resulting 
# from the CCDC's data processing and validation procedures.
#
#######################################################################

data_DUDCAH
_chemical_formula_moiety         'C13 H11 N1 O3 S1'
_chemical_name_systematic        N-(2-Formylphenyl)benzenesulfonamide
_symmetry_cell_setting           triclinic
_symmetry_space_group_name_H-M   'P -1'
_symmetry_Int_Tables_number      2
_space_group_name_Hall           '-P 1'
loop_
_symmetry_equiv_pos_site_id
_symmetry_equiv_pos_as_xyz
1 x,y,z
2 -x,-y,-z
_cell_length_a                   7.7656(2)
_cell_length_b                   9.0080(2)
_cell_length_c                   9.5855(2)
_cell_angle_alpha                86.2930(10)
_cell_angle_beta                 77.9120(10)
_cell_angle_gamma                68.8260(10)
_cell_volume                     611.353
_exptl_crystal_colour            colorless
_exptl_crystal_description       block
_cell_formula_units_Z            2
_exptl_crystal_recrystallization_method methanol
loop_
_atom_site_label
_atom_site_type_symbol
_atom_site_fract_x
_atom_site_fract_y
_atom_site_fract_z
C1 C 0.19429(17) 0.98956(14) 0.61966(13)
C2 C 0.1595(2) 1.10035(15) 0.72614(15)
H1 H 0.1207 1.0779 0.8210
C3 C 0.1827(2) 1.24378(17) 0.69056(18)
H2 H 0.1595 1.3170 0.7626
C4 C 0.2392(3) 1.2813(2) 0.5513(2)
H3 H 0.2547 1.3783 0.5292
C5 C 0.2722(3) 1.1734(2) 0.44619(19)
H4 H 0.3085 1.1987 0.3517
C6 C 0.2529(2) 1.02670(18) 0.47720(15)
C7 C 0.2926(3) 0.9189(3) 0.35857(18)
H5 H 0.3264 0.9554 0.2677
C8 C 0.36455(18) 0.70690(14) 0.85278(13)
C9 C 0.5123(2) 0.57064(16) 0.79634(16)
H6 H 0.4963 0.5055 0.7325
C10 C 0.6827(2) 0.5337(2) 0.83658(19)
H7 H 0.7829 0.4425 0.7999
C11 C 0.7062(2) 0.6304(2) 0.93052(19)
H8 H 0.8225 0.6047 0.9563
C12 C 0.5587(2) 0.7649(2) 0.98675(18)
H9 H 0.5758 0.8296 1.0503
C13 C 0.3853(2) 0.80416(16) 0.94909(15)
H10 H 0.2847 0.8941 0.9877
N1 N 0.16942(19) 0.84378(14) 0.64708(14)
O1 O 0.00479(14) 0.85915(13) 0.90061(12)
O2 O 0.13222(17) 0.60899(13) 0.76162(14)
O3 O 0.2861(2) 0.78653(18) 0.36620(14)
S1 S 0.14948(5) 0.75289(4) 0.79852(4)
H11 H 0.199(3) 0.790(2) 0.5767(19)
loop_
_geom_bond_atom_site_label_1
_geom_bond_atom_site_label_2
_geom_bond_site_symmetry_1
_geom_bond_site_symmetry_2
C1 C2 1_555 1_555
C2 H1 1_555 1_555
C3 C2 1_555 1_555
H2 C3 1_555 1_555
C4 C3 1_555 1_555
H3 C4 1_555 1_555
C5 C4 1_555 1_555
H4 C5 1_555 1_555
C6 C1 1_555 1_555
C7 C6 1_555 1_555
H5 C7 1_555 1_555
C8 C9 1_555 1_555
C9 H6 1_555 1_555
C10 C9 1_555 1_555
H7 C10 1_555 1_555
C11 C10 1_555 1_555
H8 C11 1_555 1_555
C12 C11 1_555 1_555
H9 C12 1_555 1_555
C13 C8 1_555 1_555
H10 C13 1_555 1_555
N1 C1 1_555 1_555
O1 S1 1_555 1_555
O2 S1 1_555 1_555
O3 C7 1_555 1_555
S1 C8 1_555 1_555
H11 N1 1_555 1_555
C5 C6 1_555 1_555
C12 C13 1_555 1_555
N1 S1 1_555 1_555

#END
