
#######################################################################
#
#                 Cambridge Crystallographic Data Centre
#                                CCDC 
#
#######################################################################
#
# If this CIF has been generated from an entry in the Cambridge 
# Structural Database, then it will include bibliographic, chemical, 
# crystal, experimental, refinement or atomic coordinate data resulting 
# from the CCDC's data processing and validation procedures.
#
#######################################################################

data_DUDDUC01
_chemical_formula_moiety         'C18 H10 N4'
_chemical_name_systematic        5,6-diphenylpyrazine-2,3-dicarbonitrile
_symmetry_cell_setting           monoclinic
_symmetry_space_group_name_H-M   'P 21/n'
_symmetry_Int_Tables_number      14
_space_group_name_Hall           '-P 2yn'
loop_
_symmetry_equiv_pos_site_id
_symmetry_equiv_pos_as_xyz
1 x,y,z
2 1/2-x,1/2+y,1/2-z
3 -x,-y,-z
4 1/2+x,1/2-y,1/2+z
_cell_length_a                   9.1609(9)
_cell_length_b                   7.1004(7)
_cell_length_c                   21.452(2)
_cell_angle_alpha                90
_cell_angle_beta                 101.551(2)
_cell_angle_gamma                90
_cell_volume                     1367.11
_exptl_crystal_colour            colorless
_exptl_crystal_description       block
_cell_formula_units_Z            4
loop_
_atom_site_label
_atom_site_type_symbol
_atom_site_fract_x
_atom_site_fract_y
_atom_site_fract_z
N1 N 0.08297(11) 0.40438(14) 0.22000(5)
N2 N -0.12574(11) 0.58769(14) 0.27686(5)
N3 N -0.11418(13) 0.34801(16) 0.06840(5)
N4 N -0.42594(13) 0.61254(16) 0.15686(5)
C1 C -0.05474(14) 0.43944(16) 0.18781(6)
C2 C -0.16019(14) 0.52478(17) 0.21683(6)
C3 C -0.08832(14) 0.38705(17) 0.12120(6)
C4 C -0.30954(14) 0.56747(17) 0.18273(6)
C5 C 0.11771(14) 0.45852(16) 0.28050(6)
C6 C 0.26843(14) 0.41093(16) 0.31628(6)
C7 C 0.39209(14) 0.44971(17) 0.28936(6)
H1 H 0.3788 0.4931 0.2467
C8 C 0.53410(14) 0.42451(17) 0.32526(6)
H2 H 0.6184 0.4538 0.3075
C9 C 0.55394(15) 0.35688(17) 0.38690(6)
H3 H 0.6517 0.3432 0.4117
C10 C 0.43164(15) 0.30906(18) 0.41261(6)
H4 H 0.4456 0.2575 0.4542
C11 C 0.28942(14) 0.33663(17) 0.37751(6)
H5 H 0.2056 0.3048 0.3952
C12 C 0.01368(13) 0.56155(16) 0.30858(6)
C13 C 0.05179(14) 0.65050(16) 0.37215(6)
C14 C 0.18358(14) 0.75099(18) 0.39057(6)
H6 H 0.2521 0.7595 0.3628
C15 C 0.21505(15) 0.83854(18) 0.44930(6)
H7 H 0.3047 0.9081 0.4617
C16 C 0.11569(15) 0.82467(18) 0.48998(6)
H8 H 0.1381 0.8833 0.5306
C17 C -0.01573(15) 0.72610(18) 0.47180(6)
H9 H -0.0836 0.7172 0.4998
C18 C -0.04879(14) 0.64020(17) 0.41283(6)
H10 H -0.1401 0.5742 0.4001
loop_
_geom_bond_atom_site_label_1
_geom_bond_atom_site_label_2
_geom_bond_site_symmetry_1
_geom_bond_site_symmetry_2
N1 C1 1_555 1_555
N2 C2 1_555 1_555
N3 C3 1_555 1_555
N4 C4 1_555 1_555
C1 C2 1_555 1_555
C2 C4 1_555 1_555
C3 C1 1_555 1_555
C5 N1 1_555 1_555
C6 C5 1_555 1_555
C7 C6 1_555 1_555
H1 C7 1_555 1_555
C8 C7 1_555 1_555
H2 C8 1_555 1_555
C9 C8 1_555 1_555
H3 C9 1_555 1_555
C10 C9 1_555 1_555
H4 C10 1_555 1_555
C11 C6 1_555 1_555
H5 C11 1_555 1_555
C12 N2 1_555 1_555
C13 C12 1_555 1_555
C14 C13 1_555 1_555
H6 C14 1_555 1_555
C15 C14 1_555 1_555
H7 C15 1_555 1_555
C16 C15 1_555 1_555
H8 C16 1_555 1_555
C17 C16 1_555 1_555
H9 C17 1_555 1_555
C18 C13 1_555 1_555
H10 C18 1_555 1_555
C5 C12 1_555 1_555
C10 C11 1_555 1_555
C17 C18 1_555 1_555

#END
