
#######################################################################
#
#                 Cambridge Crystallographic Data Centre
#                                CCDC 
#
#######################################################################
#
# If this CIF has been generated from an entry in the Cambridge 
# Structural Database, then it will include bibliographic, chemical, 
# crystal, experimental, refinement or atomic coordinate data resulting 
# from the CCDC's data processing and validation procedures.
#
#######################################################################

data_DUDHEP
_chemical_formula_moiety         'C28 H34 N2 O2'
_chemical_name_systematic        
1,1,3,3,5,5,7,7-Octamethyl-2,6-bis((2,5)pyrrola)-4,8-bis((2,5)furana)cyclo-octaphane
_symmetry_cell_setting           tetragonal
_symmetry_space_group_name_H-M   'P 41'
_symmetry_Int_Tables_number      76
_space_group_name_Hall           'P 4w'
loop_
_symmetry_equiv_pos_site_id
_symmetry_equiv_pos_as_xyz
1 x,y,z
2 -y,x,1/4+z
3 -x,-y,1/2+z
4 y,-x,3/4+z
_cell_length_a                   10.0800(20)
_cell_length_b                   10.0800(20)
_cell_length_c                   24.3800(20)
_cell_angle_alpha                90
_cell_angle_beta                 90
_cell_angle_gamma                90
_cell_volume                     2477.16
_cell_formula_units_Z            4
_exptl_crystal_recrystallization_method hexanes/dichloromethane
loop_
_atom_site_label
_atom_site_type_symbol
_atom_site_fract_x
_atom_site_fract_y
_atom_site_fract_z
O1 O 0.208682 0.683625 0.052187
N1 N 0.369350 0.978108 0.064267
O2 O 0.657585 0.807348 0.043777
C1 C 0.718014 0.700282 0.070910
C2 C 0.135792 0.919529 0.057791
C3 C 0.258343 0.968683 0.030085
C4 C 0.266294 0.440038 0.062542
C5 C 0.472593 1.028266 0.032679
N2 N 0.500228 0.507211 0.056315
C6 C 0.655006 0.916502 0.079904
C7 C 0.155256 0.786732 0.083298
C8 C 0.217933 0.570859 0.085611
C9 C 0.388751 0.463969 0.027740
C10 C 0.731482 0.568861 0.042350
C11 C 0.599714 0.522615 0.018084
C12 C 0.602656 1.048033 0.060403
C13 C 0.284823 0.343351 0.109146
C14 C 0.090151 1.018884 0.100605
C15 C 0.171960 0.605762 0.136682
C16 C 0.587747 1.140607 0.112273
C17 C 0.158114 0.385502 0.019081
C18 C 0.702988 1.108443 0.017194
C19 C 0.555223 0.488048 -0.031667
C20 C 0.024778 0.904951 0.010947
C21 C 0.131947 0.741784 0.134227
C22 C 0.832994 0.586805 -0.005916
C23 C 0.789431 0.468140 0.081086
C24 C 0.709539 0.875661 0.129119
C25 C 0.289993 1.013916 -0.020739
C26 C 0.426839 1.053309 -0.019464
C27 C 0.752942 0.739493 0.122438
C28 C 0.420368 0.449826 -0.025261
loop_
_geom_bond_atom_site_label_1
_geom_bond_atom_site_label_2
_geom_bond_site_symmetry_1
_geom_bond_site_symmetry_2
O1 C7 1_555 1_555
N1 C3 1_555 1_555
O2 C1 1_555 1_555
C1 C10 1_555 1_555
C2 C3 1_555 1_555
C3 C25 1_555 1_555
C4 C8 1_555 1_555
C5 N1 1_555 1_555
N2 C9 1_555 1_555
C6 O2 1_555 1_555
C7 C2 1_555 1_555
C8 O1 1_555 1_555
C9 C4 1_555 1_555
C10 C11 1_555 1_555
C11 N2 1_555 1_555
C12 C5 1_555 1_555
C13 C4 1_555 1_555
C14 C2 1_555 1_555
C15 C8 1_555 1_555
C16 C12 1_555 1_555
C17 C4 1_555 1_555
C18 C12 1_555 1_555
C19 C11 1_555 1_555
C20 C2 1_555 1_555
C21 C7 1_555 1_555
C22 C10 1_555 1_555
C23 C10 1_555 1_555
C24 C6 1_555 1_555
C25 C26 1_555 1_555
C26 C5 1_555 1_555
C27 C1 1_555 1_555
C28 C9 1_555 1_555
C6 C12 1_555 1_555
C15 C21 1_555 1_555
C19 C28 1_555 1_555
C24 C27 1_555 1_555

#END
