
#######################################################################
#
#                 Cambridge Crystallographic Data Centre
#                                CCDC 
#
#######################################################################
#
# If this CIF has been generated from an entry in the Cambridge 
# Structural Database, then it will include bibliographic, chemical, 
# crystal, experimental, refinement or atomic coordinate data resulting 
# from the CCDC's data processing and validation procedures.
#
#######################################################################

data_DUDJES
_chemical_formula_moiety         'C9 H9 Br1 O2'
_chemical_name_systematic        2-Bromo-1-(4-methoxyphenyl)ethanone
_symmetry_cell_setting           monoclinic
_symmetry_space_group_name_H-M   'P 21/c'
_symmetry_Int_Tables_number      14
_space_group_name_Hall           '-P 2ybc'
loop_
_symmetry_equiv_pos_site_id
_symmetry_equiv_pos_as_xyz
1 x,y,z
2 -x,1/2+y,1/2-z
3 -x,-y,-z
4 x,1/2-y,1/2+z
_cell_length_a                   7.7360(15)
_cell_length_b                   12.441(3)
_cell_length_c                   10.048(2)
_cell_angle_alpha                90
_cell_angle_beta                 111.42(3)
_cell_angle_gamma                90
_cell_volume                     900.259
_exptl_crystal_colour            colorless
_exptl_crystal_description       block
_cell_formula_units_Z            4
_exptl_crystal_recrystallization_method 'ethyl acetate'
loop_
_atom_site_label
_atom_site_type_symbol
_atom_site_fract_x
_atom_site_fract_y
_atom_site_fract_z
Br1 Br 0.20597(10) 0.66539(6) 0.07859(7)
O1 O 0.3621(7) 0.8754(4) 0.2083(5)
C1 C 0.1809(8) 0.8016(5) -0.0164(6)
H1 H 0.2308 0.7957 -0.0918
H2 H 0.0500 0.8190 -0.0608
O2 O 0.2187(6) 1.3075(4) -0.1487(5)
C2 C 0.2781(8) 0.8917(5) 0.0820(6)
C3 C 0.2657(7) 0.9994(5) 0.0181(6)
C4 C 0.1597(8) 1.0221(5) -0.1242(6)
H3 H 0.0957 0.9671 -0.1849
C5 C 0.1493(9) 1.1250(5) -0.1751(7)
H4 H 0.0780 1.1390 -0.2703
C6 C 0.2432(8) 1.2086(5) -0.0870(7)
C7 C 0.3497(8) 1.1859(5) 0.0560(7)
H5 H 0.4138 1.2406 0.1172
C8 C 0.3586(8) 1.0831(5) 0.1051(6)
H6 H 0.4297 1.0688 0.2003
C9 C 0.2906(10) 1.3980(6) -0.0610(8)
H7 H 0.2625 1.4618 -0.1186
H8 H 0.4227 1.3908 -0.0151
H9 H 0.2353 1.4028 0.0102
loop_
_geom_bond_atom_site_label_1
_geom_bond_atom_site_label_2
_geom_bond_site_symmetry_1
_geom_bond_site_symmetry_2
Br1 C1 1_555 1_555
O1 C2 1_555 1_555
C1 H1 1_555 1_555
H2 C1 1_555 1_555
O2 C6 1_555 1_555
C2 C1 1_555 1_555
C3 C2 1_555 1_555
C4 C3 1_555 1_555
H3 C4 1_555 1_555
C5 C4 1_555 1_555
H4 C5 1_555 1_555
C6 C5 1_555 1_555
C7 C6 1_555 1_555
H5 C7 1_555 1_555
C8 C3 1_555 1_555
H6 C8 1_555 1_555
C9 O2 1_555 1_555
H7 C9 1_555 1_555
H8 C9 1_555 1_555
H9 C9 1_555 1_555
C7 C8 1_555 1_555

#END
