
#######################################################################
#
#                 Cambridge Crystallographic Data Centre
#                                CCDC 
#
#######################################################################
#
# If this CIF has been generated from an entry in the Cambridge 
# Structural Database, then it will include bibliographic, chemical, 
# crystal, experimental, refinement or atomic coordinate data resulting 
# from the CCDC's data processing and validation procedures.
#
#######################################################################

data_DUDJAO02
_chemical_formula_moiety         'C9 H11 N3 S1'
_chemical_name_systematic        
2-[(4-methylphenyl)methylidene]hydrazine-1-carbothioamide
_symmetry_cell_setting           monoclinic
_symmetry_space_group_name_H-M   'P 21/c'
_symmetry_Int_Tables_number      14
_space_group_name_Hall           '-P 2ybc'
loop_
_symmetry_equiv_pos_site_id
_symmetry_equiv_pos_as_xyz
1 x,y,z
2 -x,1/2+y,1/2-z
3 -x,-y,-z
4 x,1/2-y,1/2+z
_cell_length_a                   13.2482(9)
_cell_length_b                   8.2243(4)
_cell_length_c                   10.2827(7)
_cell_angle_alpha                90
_cell_angle_beta                 111.265(3)
_cell_angle_gamma                90
_cell_volume                     1044.09
_exptl_crystal_colour            colorless
_exptl_crystal_description       sheet
_cell_formula_units_Z            4
loop_
_atom_site_label
_atom_site_type_symbol
_atom_site_fract_x
_atom_site_fract_y
_atom_site_fract_z
C1 C 0.0756(2) 0.4066(4) 0.3638(3)
C2 C 0.1847(2) 0.6844(4) 0.6336(3)
H1 H 0.156435 0.777384 0.581726
C3 C 0.2568(2) 0.7016(4) 0.7771(3)
C4 C 0.2945(3) 0.8546(4) 0.8304(4)
H2 H 0.267678 0.946181 0.775666
C5 C 0.3706(3) 0.8731(4) 0.9623(4)
H3 H 0.393775 0.976999 0.995473
C6 C 0.4132(3) 0.7412(5) 1.0462(3)
C7 C 0.3732(3) 0.5882(4) 0.9948(3)
H4 H 0.399158 0.497406 1.050884
C8 C 0.2967(3) 0.5679(4) 0.8644(3)
H5 H 0.271130 0.464205 0.833549
C9 C 0.5002(3) 0.7603(5) 1.1888(4)
H6 H 0.545563 0.851132 1.188105
H7 H 0.543271 0.663207 1.212407
H8 H 0.467193 0.778793 1.256562
N1 N 0.1048(2) 0.2701(3) 0.4375(3)
H9 H 0.136216 0.274468 0.526700
H10 H 0.092203 0.177436 0.395821
N2 N 0.0980(2) 0.5460(3) 0.4360(3)
H11 H 0.074011 0.636488 0.394220
N3 N 0.15874(19) 0.5456(3) 0.5761(3)
S1 S 0.01729(8) 0.40983(9) 0.18825(8)
loop_
_geom_bond_atom_site_label_1
_geom_bond_atom_site_label_2
_geom_bond_site_symmetry_1
_geom_bond_site_symmetry_2
C1 N1 1_555 1_555
C2 H1 1_555 1_555
C3 C2 1_555 1_555
C4 C3 1_555 1_555
H2 C4 1_555 1_555
C5 C4 1_555 1_555
H3 C5 1_555 1_555
C6 C5 1_555 1_555
C7 C6 1_555 1_555
H4 C7 1_555 1_555
C8 C3 1_555 1_555
H5 C8 1_555 1_555
C9 C6 1_555 1_555
H6 C9 1_555 1_555
H7 C9 1_555 1_555
H8 C9 1_555 1_555
N1 H9 1_555 1_555
H10 N1 1_555 1_555
N2 C1 1_555 1_555
H11 N2 1_555 1_555
N3 C2 1_555 1_555
S1 C1 1_555 1_555
C7 C8 1_555 1_555
N2 N3 1_555 1_555

#END
