
#######################################################################
#
#                 Cambridge Crystallographic Data Centre
#                                CCDC 
#
#######################################################################
#
# If this CIF has been generated from an entry in the Cambridge 
# Structural Database, then it will include bibliographic, chemical, 
# crystal, experimental, refinement or atomic coordinate data resulting 
# from the CCDC's data processing and validation procedures.
#
#######################################################################

data_DUDKOD
_chemical_formula_moiety         'C26 H25 N1 O5'
_chemical_name_systematic        
'(2R*,3R*,5R*)-dimethyl 5-hydroxy-1,2,3-triphenyl-2,5-pyrrolidinedicarboxylate'
_symmetry_cell_setting           monoclinic
_symmetry_space_group_name_H-M   'P 21/n'
_symmetry_Int_Tables_number      14
_space_group_name_Hall           '-P 2yn'
loop_
_symmetry_equiv_pos_site_id
_symmetry_equiv_pos_as_xyz
1 x,y,z
2 1/2-x,1/2+y,1/2-z
3 -x,-y,-z
4 1/2+x,1/2-y,1/2+z
_cell_length_a                   13.6991(6)
_cell_length_b                   9.8616(5)
_cell_length_c                   17.5991(8)
_cell_angle_alpha                90
_cell_angle_beta                 105.5260(10)
_cell_angle_gamma                90
_cell_volume                     2290.79
_exptl_crystal_colour            colorless
_exptl_crystal_description       block
_cell_formula_units_Z            4
loop_
_atom_site_label
_atom_site_type_symbol
_atom_site_fract_x
_atom_site_fract_y
_atom_site_fract_z
N1 N 0.76749(9) 0.90702(13) 0.02988(7)
O1 O 0.92660(8) 1.01146(13) 0.08233(7)
H1 H 0.9409 0.9308 0.0889
O2 O 0.88672(10) 0.68511(13) 0.05596(8)
O3 O 0.77143(14) 0.56691(14) -0.03137(9)
O4 O 0.83644(10) 1.24510(13) 0.08785(8)
O5 O 0.68590(9) 1.17042(12) 0.01715(8)
C1 C 0.73406(12) 0.86846(17) 0.09541(9)
C2 C 0.66637(14) 0.7613(2) 0.09014(11)
H2 H 0.6438 0.7141 0.0430
C3 C 0.63240(16) 0.7245(2) 0.15471(14)
H3 H 0.5873 0.6527 0.1504
C4 C 0.66444(17) 0.7925(3) 0.22473(13)
H4 H 0.6414 0.7673 0.2678
C5 C 0.73078(16) 0.8982(2) 0.23053(11)
H5 H 0.7523 0.9452 0.2779
C6 C 0.76636(13) 0.93630(19) 0.16727(10)
H6 H 0.8121 1.0076 0.1727
C7 C 0.84606(12) 0.83984(16) -0.15527(9)
C8 C 0.90620(14) 0.7329(2) -0.16589(12)
H7 H 0.9446 0.6869 -0.1218
C9 C 0.91100(18) 0.6924(3) -0.23933(14)
H8 H 0.9513 0.6191 -0.2448
C10 C 0.8565(2) 0.7600(3) -0.30378(14)
H9 H 0.8608 0.7342 -0.3536
C11 C 0.7947(2) 0.8668(3) -0.29606(12)
H10 H 0.7565 0.9116 -0.3406
C12 C 0.78974(18) 0.9071(2) -0.22132(11)
H11 H 0.7485 0.9793 -0.2159
C13 C 0.65955(12) 0.80798(17) -0.09504(10)
C14 C 0.63665(15) 0.7152(2) -0.15673(12)
H12 H 0.6852 0.6526 -0.1621
C15 C 0.54144(18) 0.7154(3) -0.21059(13)
H13 H 0.5266 0.6525 -0.2515
C16 C 0.46946(16) 0.8077(3) -0.20378(14)
H14 H 0.4058 0.8071 -0.2397
C17 C 0.49162(14) 0.9004(2) -0.14410(13)
H15 H 0.4431 0.9638 -0.1398
C18 C 0.58576(13) 0.90068(19) -0.08993(11)
H16 H 0.5997 0.9642 -0.0494
C19 C 0.76457(11) 0.81410(15) -0.03605(9)
C20 C 0.84732(11) 0.87972(16) -0.07217(9)
H17 H 0.9133 0.8517 -0.0383
C21 C 0.83586(12) 1.02888(16) -0.05585(10)
H18 H 0.7750 1.0666 -0.0910
H19 H 0.8941 1.0807 -0.0605
C22 C 0.82881(11) 1.02511(16) 0.02930(9)
C23 C 0.80540(13) 0.67304(17) -0.00450(10)
C24 C 0.9338(2) 0.5612(2) 0.09037(14)
H20 H 0.9920 0.5820 0.1331
H21 H 0.9547 0.5097 0.0511
H22 H 0.8864 0.5092 0.1098
C25 C 0.78401(13) 1.15865(17) 0.04961(10)
C26 C 0.64005(17) 1.2977(2) 0.02979(14)
H23 H 0.5689 1.2954 0.0037
H24 H 0.6713 1.3706 0.0087
H25 H 0.6496 1.3115 0.0853
loop_
_geom_bond_atom_site_label_1
_geom_bond_atom_site_label_2
_geom_bond_site_symmetry_1
_geom_bond_site_symmetry_2
N1 C1 1_555 1_555
O1 H1 1_555 1_555
O2 C23 1_555 1_555
O3 C23 1_555 1_555
O4 C25 1_555 1_555
O5 C25 1_555 1_555
C1 C2 1_555 1_555
C2 H2 1_555 1_555
C3 C2 1_555 1_555
H3 C3 1_555 1_555
C4 C3 1_555 1_555
H4 C4 1_555 1_555
C5 C4 1_555 1_555
H5 C5 1_555 1_555
C6 C1 1_555 1_555
H6 C6 1_555 1_555
C7 C8 1_555 1_555
C8 H7 1_555 1_555
C9 C8 1_555 1_555
H8 C9 1_555 1_555
C10 C9 1_555 1_555
H9 C10 1_555 1_555
C11 C10 1_555 1_555
H10 C11 1_555 1_555
C12 C7 1_555 1_555
H11 C12 1_555 1_555
C13 C14 1_555 1_555
C14 H12 1_555 1_555
C15 C14 1_555 1_555
H13 C15 1_555 1_555
C16 C15 1_555 1_555
H14 C16 1_555 1_555
C17 C16 1_555 1_555
H15 C17 1_555 1_555
C18 C13 1_555 1_555
H16 C18 1_555 1_555
C19 N1 1_555 1_555
C20 C7 1_555 1_555
H17 C20 1_555 1_555
C21 C20 1_555 1_555
H18 C21 1_555 1_555
H19 C21 1_555 1_555
C22 N1 1_555 1_555
C23 C19 1_555 1_555
C24 O2 1_555 1_555
H20 C24 1_555 1_555
H21 C24 1_555 1_555
H22 C24 1_555 1_555
C25 C22 1_555 1_555
C26 O5 1_555 1_555
H23 C26 1_555 1_555
H24 C26 1_555 1_555
H25 C26 1_555 1_555
O1 C22 1_555 1_555
C5 C6 1_555 1_555
C11 C12 1_555 1_555
C13 C19 1_555 1_555
C17 C18 1_555 1_555
C19 C20 1_555 1_555
C21 C22 1_555 1_555

#END
