
#######################################################################
#
#                 Cambridge Crystallographic Data Centre
#                                CCDC 
#
#######################################################################
#
# If this CIF has been generated from an entry in the Cambridge 
# Structural Database, then it will include bibliographic, chemical, 
# crystal, experimental, refinement or atomic coordinate data resulting 
# from the CCDC's data processing and validation procedures.
#
#######################################################################

data_DUDMUL
_chemical_name_common            
'4-(1-Methylvinyl)cyclohexene-1-carbaldehyde oxime'
_chemical_formula_moiety         'C10 H15 N1 O1'
_chemical_name_systematic        
N-Hydroxy-1-(4-isopropenyl-1-cyclohexen-1-yl)methanimine
_symmetry_cell_setting           triclinic
_symmetry_space_group_name_H-M   'P 1'
_symmetry_Int_Tables_number      1
_space_group_name_Hall           'P 1'
loop_
_symmetry_equiv_pos_site_id
_symmetry_equiv_pos_as_xyz
1 x,y,z
_cell_length_a                   7.2679(6)
_cell_length_b                   8.1702(7)
_cell_length_c                   8.9426(8)
_cell_angle_alpha                105.1500(10)
_cell_angle_beta                 95.6580(10)
_cell_angle_gamma                104.6020(10)
_cell_volume                     488.252
_exptl_crystal_colour            colorless
_exptl_crystal_description       block
_chemical_melting_point          '374-375 K'
_cell_formula_units_Z            2
_exptl_crystal_recrystallization_method 'ethyl acetate'
loop_
_atom_site_label
_atom_site_type_symbol
_atom_site_fract_x
_atom_site_fract_y
_atom_site_fract_z
O1 O 0.5000(4) 0.5002(4) 0.5001(3)
N1 N 0.4289(4) 0.6405(4) 0.4831(3)
C1 C 0.2564(5) 0.5857(4) 0.4097(4)
H1 H 0.1932 0.4649 0.3775
C2 C 0.1551(5) 0.7069(4) 0.3745(4)
C3 C -0.0246(5) 0.6464(4) 0.2976(4)
H2 H -0.0836 0.5251 0.2706
C4 C -0.1401(5) 0.7574(4) 0.2510(4)
H3 H -0.2386 0.7643 0.3161
H4 H -0.2048 0.7010 0.1425
C5 C -0.0167(5) 0.9448(4) 0.2672(4)
H5 H 0.0572 0.9363 0.1809
C6 C 0.1263(6) 1.0142(4) 0.4182(6)
H6 H 0.0572 1.0176 0.5058
H7 H 0.2013 1.1345 0.4291
C7 C 0.2618(6) 0.9016(5) 0.4248(5)
H8 H 0.3552 0.9237 0.3567
H9 H 0.3320 0.9354 0.5314
C8 C -0.1413(5) 1.0638(4) 0.2484(4)
C9 C -0.2394(18) 1.127(2) 0.3557(11)
H10 H -0.3134 1.1999 0.3366
H11 H -0.2342 1.0994 0.4501
C10 C -0.1478(19) 1.1072(18) 0.0954(12)
H12 H -0.2124 1.0017 0.0107
H13 H -0.0186 1.1541 0.0797
H14 H -0.2167 1.1936 0.0979
H29 H 0.599(5) 0.568(5) 0.568(5)
O2 O 0.7482(4) 0.9157(4) 0.6717(4)
N2 N 0.8170(4) 0.7770(4) 0.6971(3)
C11 C 0.9893(5) 0.8319(4) 0.7688(4)
H15 H 1.0553 0.9518 0.7953
C12 C 1.0866(5) 0.7107(4) 0.8108(4)
C13 C 1.2696(5) 0.7692(4) 0.8782(5)
H16 H 1.3307 0.8898 0.9017
C14 C 1.3864(5) 0.6556(4) 0.9198(5)
H17 H 1.4061 0.6763 1.0328
H18 H 1.5121 0.6889 0.8899
C15 C 1.2887(4) 0.4597(4) 0.8383(4)
H19 H 1.2949 0.4391 0.7262
C16 C 1.0754(4) 0.4179(4) 0.8527(5)
H20 H 1.0134 0.2921 0.8053
H21 H 1.0640 0.4475 0.9631
C17 C 0.9742(5) 0.5210(4) 0.7724(5)
H22 H 0.9523 0.4671 0.6594
H23 H 0.8492 0.5137 0.8041
C18 C 1.3935(4) 0.3442(4) 0.8964(4)
C19 C 1.4889(6) 0.2566(5) 0.8038(5)
H24 H 1.5548 0.1866 0.8401
H25 H 1.4904 0.2646 0.7021
C20 C 1.3869(7) 0.3355(6) 1.0597(5)
H26 H 1.4500 0.2509 1.0786
H27 H 1.2548 0.2998 1.0733
H28 H 1.4516 0.4500 1.1328
H30 H 0.641(4) 0.866(5) 0.609(5)
C21? C -0.208(2) 1.157(2) 0.3937(11)
C22? C -0.1413(5) 1.0638(4) 0.2484(4)
C23? C -0.1960(17) 1.0794(19) 0.1074(12)
H31? H -0.2765 1.2350 0.3683
H32? H -0.0981 1.2236 0.4747
H33? H -0.2922 1.0702 0.4303
H34? H -0.2772 1.1487 0.0964
H35? H -0.1529 1.0210 0.0200
loop_
_geom_bond_atom_site_label_1
_geom_bond_atom_site_label_2
_geom_bond_site_symmetry_1
_geom_bond_site_symmetry_2
O1 N1 1_555 1_555
O2 N2 1_555 1_555
N1 C1 1_555 1_555
N2 C11 1_555 1_555
C1 H1 1_555 1_555
C2 C1 1_555 1_555
C3 C2 1_555 1_555
H2 C3 1_555 1_555
C4 C3 1_555 1_555
H3 C4 1_555 1_555
H4 C4 1_555 1_555
C5 C4 1_555 1_555
H5 C5 1_555 1_555
C6 C5 1_555 1_555
H6 C6 1_555 1_555
H7 C6 1_555 1_555
C7 C2 1_555 1_555
H8 C7 1_555 1_555
H9 C7 1_555 1_555
C8 C5 1_555 1_555
C9 C8 1_555 1_555
H10 C9 1_555 1_555
H11 C9 1_555 1_555
C10 C8 1_555 1_555
H12 C10 1_555 1_555
H13 C10 1_555 1_555
H14 C10 1_555 1_555
C11 H15 1_555 1_555
C12 C11 1_555 1_555
C13 C12 1_555 1_555
H16 C13 1_555 1_555
C14 C13 1_555 1_555
H17 C14 1_555 1_555
H18 C14 1_555 1_555
C15 C14 1_555 1_555
H19 C15 1_555 1_555
C16 C15 1_555 1_555
H20 C16 1_555 1_555
H21 C16 1_555 1_555
C17 C12 1_555 1_555
H22 C17 1_555 1_555
H23 C17 1_555 1_555
C18 C15 1_555 1_555
C19 C18 1_555 1_555
H24 C19 1_555 1_555
H25 C19 1_555 1_555
C20 C18 1_555 1_555
H26 C20 1_555 1_555
H27 C20 1_555 1_555
H28 C20 1_555 1_555
H29 O1 1_555 1_555
H30 O2 1_555 1_555
C6 C7 1_555 1_555
C16 C17 1_555 1_555

#END
