
#######################################################################
#
#                 Cambridge Crystallographic Data Centre
#                                CCDC 
#
#######################################################################
#
# If this CIF has been generated from an entry in the Cambridge 
# Structural Database, then it will include bibliographic, chemical, 
# crystal, experimental, refinement or atomic coordinate data resulting 
# from the CCDC's data processing and validation procedures.
#
#######################################################################

data_DUFMUM
_chemical_formula_moiety         'C48 H30 N2 O1 Se2'
_chemical_name_systematic        
5,10,15,20-Tetraphenyl-27-oxa-25,29-diselenasapphyrin
_symmetry_cell_setting           triclinic
_symmetry_space_group_name_H-M   'P -1'
_symmetry_Int_Tables_number      2
_space_group_name_Hall           '-P 1'
loop_
_symmetry_equiv_pos_site_id
_symmetry_equiv_pos_as_xyz
1 x,y,z
2 -x,-y,-z
_cell_length_a                   12.638(4)
_cell_length_b                   14.765(3)
_cell_length_c                   10.037(2)
_cell_angle_alpha                94.23(2)
_cell_angle_beta                 100.79(2)
_cell_angle_gamma                108.72(2)
_cell_volume                     1724.34
_exptl_crystal_colour            green
_exptl_crystal_description       plate
_cell_formula_units_Z            2
_exptl_crystal_recrystallization_method methanol/dichloromethane
loop_
_atom_site_label
_atom_site_type_symbol
_atom_site_fract_x
_atom_site_fract_y
_atom_site_fract_z
Se1 Se 0.19452(6) 0.04712(4) 0.17138(6)
Se2 Se 0.29642(6) 0.12583(5) 0.47676(6)
O1 O 0.2689(3) 0.3953(3) 0.2275(4)
N1 N 0.3731(4) 0.3044(3) 0.5944(5)
N2 N 0.1665(4) 0.1412(3) -0.0350(5)
C1 C 0.1601(5) -0.0450(4) 0.0180(6)
C2 C 0.1884(6) -0.1252(4) 0.0568(6)
C3 C 0.2375(5) -0.1208(4) 0.1973(6)
C4 C 0.2475(5) -0.0356(4) 0.2784(6)
C5 C 0.2987(5) 0.0028(4) 0.4180(6)
C6 C 0.3658(5) -0.0262(4) 0.5215(6)
C7 C 0.4112(5) 0.0387(4) 0.6428(6)
C8 C 0.3874(5) 0.1244(4) 0.6467(6)
C9 C 0.4233(5) 0.2034(4) 0.7542(6)
C10 C 0.4095(5) 0.2920(4) 0.7267(6)
C11 C 0.4262(5) 0.3797(4) 0.8171(6)
C12 C 0.4004(5) 0.4427(4) 0.7377(6)
C13 C 0.3670(5) 0.3937(4) 0.5963(6)
C14 C 0.3369(5) 0.4313(4) 0.4734(6)
C15 C 0.3358(5) 0.3829(4) 0.3479(6)
C16 C 0.3886(5) 0.3165(4) 0.3110(6)
C17 C 0.3468(5) 0.2826(4) 0.1753(6)
C18 C 0.2688(5) 0.3289(4) 0.1231(6)
C19 C 0.1949(5) 0.3123(4) -0.0045(6)
C20 C 0.1636(5) 0.2212(4) -0.0883(6)
C21 C 0.1189(6) 0.1979(4) -0.2348(6)
C22 C 0.0954(6) 0.1021(4) -0.2672(6)
C23 C 0.1258(5) 0.0672(4) -0.1424(6)
C24 C 0.1218(5) -0.0270(4) -0.1151(6)
C25 C 0.0780(5) -0.1095(4) -0.2319(6)
C26 C 0.1167(5) -0.0986(4) -0.3532(6)
C27 C 0.0762(5) -0.1746(5) -0.4605(6)
C28 C -0.0011(5) -0.2621(4) -0.4465(6)
C29 C -0.0395(5) -0.2743(4) -0.3263(6)
C30 C 0.0001(5) -0.1968(4) -0.2193(6)
C31 C 0.4721(5) 0.1910(4) 0.8941(6)
C32 C 0.5675(6) 0.2610(4) 0.9770(7)
C33 C 0.6124(7) 0.2506(5) 1.1098(7)
C34 C 0.5633(6) 0.1677(5) 1.1606(6)
C35 C 0.4687(5) 0.0950(4) 1.0799(6)
C36 C 0.4232(5) 0.1064(4) 0.9484(6)
C37 C 0.3034(5) 0.5181(4) 0.4775(6)
C38 C 0.3492(5) 0.5909(4) 0.3998(6)
C39 C 0.3261(6) 0.6777(5) 0.4118(7)
C40 C 0.2538(6) 0.6892(5) 0.4925(7)
C41 C 0.2058(6) 0.6178(5) 0.5664(6)
C42 C 0.2316(6) 0.5323(4) 0.5615(6)
C43 C 0.1435(5) 0.3860(4) -0.0525(6)
C44 C 0.0327(6) 0.3559(5) -0.1380(7)
C45 C -0.0123(6) 0.4237(5) -0.1861(7)
C46 C 0.0480(6) 0.5212(5) -0.1493(7)
C47 C 0.1531(6) 0.5513(5) -0.0620(7)
C48 C 0.2036(5) 0.4850(4) -0.0149(6)
H1 H 0.1753 -0.1800 -0.0083
H2 H 0.2615 -0.1705 0.2333
H3 H 0.3791 -0.0857 0.5103
H4 H 0.4562 0.0247 0.7197
H5 H 0.4509 0.3904 0.9136
H6 H 0.4030 0.5063 0.7677
H7 H 0.4439 0.2986 0.3710
H8 H 0.3666 0.2360 0.1245
H9 H 0.1079 0.2415 -0.2963
H10 H 0.0645 0.0650 -0.3561
H11 H 0.1710 -0.0390 -0.3622
H12 H 0.1019 -0.1666 -0.5433
H13 H -0.0284 -0.3137 -0.5201
H14 H -0.0915 -0.3347 -0.3164
H15 H -0.0267 -0.2044 -0.1375
H16 H 0.6037 0.3186 0.9419
H17 H 0.6764 0.3004 1.1648
H18 H 0.5940 0.1598 1.2511
H19 H 0.4348 0.0370 1.1155
H20 H 0.3580 0.0564 0.8941
H21 H 0.3952 0.5811 0.3399
H22 H 0.3606 0.7284 0.3640
H23 H 0.2361 0.7468 0.4978
H24 H 0.1553 0.6265 0.6215
H25 H 0.2007 0.4841 0.6152
H26 H -0.0108 0.2888 -0.1623
H27 H -0.0858 0.4031 -0.2459
H28 H 0.0162 0.5672 -0.1840
H29 H 0.1925 0.6186 -0.0324
H30 H 0.2787 0.5068 0.0424
loop_
_geom_bond_atom_site_label_1
_geom_bond_atom_site_label_2
_geom_bond_site_symmetry_1
_geom_bond_site_symmetry_2
Se1 C1 1_555 1_555
Se2 C5 1_555 1_555
O1 C15 1_555 1_555
N1 C10 1_555 1_555
N2 C20 1_555 1_555
C1 C2 1_555 1_555
C2 C3 1_555 1_555
C3 C4 1_555 1_555
C4 Se1 1_555 1_555
C5 C4 1_555 1_555
C6 C5 1_555 1_555
C7 C6 1_555 1_555
C8 Se2 1_555 1_555
C9 C8 1_555 1_555
C10 C9 1_555 1_555
C11 C10 1_555 1_555
C12 C11 1_555 1_555
C13 N1 1_555 1_555
C14 C13 1_555 1_555
C15 C14 1_555 1_555
C16 C15 1_555 1_555
C17 C16 1_555 1_555
C18 O1 1_555 1_555
C19 C18 1_555 1_555
C20 C19 1_555 1_555
C21 C20 1_555 1_555
C22 C21 1_555 1_555
C23 N2 1_555 1_555
C24 C1 1_555 1_555
C25 C24 1_555 1_555
C26 C25 1_555 1_555
C27 C26 1_555 1_555
C28 C27 1_555 1_555
C29 C28 1_555 1_555
C30 C25 1_555 1_555
C31 C9 1_555 1_555
C32 C31 1_555 1_555
C33 C32 1_555 1_555
C34 C33 1_555 1_555
C35 C34 1_555 1_555
C36 C31 1_555 1_555
C37 C14 1_555 1_555
C38 C37 1_555 1_555
C39 C38 1_555 1_555
C40 C39 1_555 1_555
C41 C40 1_555 1_555
C42 C37 1_555 1_555
C43 C19 1_555 1_555
C44 C43 1_555 1_555
C45 C44 1_555 1_555
C46 C45 1_555 1_555
C47 C46 1_555 1_555
C48 C43 1_555 1_555
H1 C2 1_555 1_555
H2 C3 1_555 1_555
H3 C6 1_555 1_555
H4 C7 1_555 1_555
H5 C11 1_555 1_555
H6 C12 1_555 1_555
H7 C16 1_555 1_555
H8 C17 1_555 1_555
H9 C21 1_555 1_555
H10 C22 1_555 1_555
H11 C26 1_555 1_555
H12 C27 1_555 1_555
H13 C28 1_555 1_555
H14 C29 1_555 1_555
H15 C30 1_555 1_555
H16 C32 1_555 1_555
H17 C33 1_555 1_555
H18 C34 1_555 1_555
H19 C35 1_555 1_555
H20 C36 1_555 1_555
H21 C38 1_555 1_555
H22 C39 1_555 1_555
H23 C40 1_555 1_555
H24 C41 1_555 1_555
H25 C42 1_555 1_555
H26 C44 1_555 1_555
H27 C45 1_555 1_555
H28 C46 1_555 1_555
H29 C47 1_555 1_555
H30 C48 1_555 1_555
C7 C8 1_555 1_555
C12 C13 1_555 1_555
C17 C18 1_555 1_555
C22 C23 1_555 1_555
C23 C24 1_555 1_555
C29 C30 1_555 1_555
C35 C36 1_555 1_555
C41 C42 1_555 1_555
C47 C48 1_555 1_555

#END
