
#######################################################################
#
#                 Cambridge Crystallographic Data Centre
#                                CCDC 
#
#######################################################################
#
# If this CIF has been generated from an entry in the Cambridge 
# Structural Database, then it will include bibliographic, chemical, 
# crystal, experimental, refinement or atomic coordinate data resulting 
# from the CCDC's data processing and validation procedures.
#
#######################################################################

data_DUFMIA
_chemical_formula_moiety         'C11 H10 O4'
_chemical_name_systematic        
8,13-Dioxapentacyclo(6.5.0.0^2,6^.0^5,10^.0^3,11^)tridecane-9,12-dione
_symmetry_cell_setting           monoclinic
_symmetry_space_group_name_H-M   'P 21/c'
_symmetry_Int_Tables_number      14
_space_group_name_Hall           '-P 2ybc'
loop_
_symmetry_equiv_pos_site_id
_symmetry_equiv_pos_as_xyz
1 x,y,z
2 -x,1/2+y,1/2-z
3 -x,-y,-z
4 x,1/2-y,1/2+z
_cell_length_a                   6.558(1)
_cell_length_b                   10.603(2)
_cell_length_c                   13.395(2)
_cell_angle_alpha                90
_cell_angle_beta                 108.43(1)
_cell_angle_gamma                90
_cell_volume                     883.643
_exptl_crystal_colour            colorless
_chemical_melting_point          348-352deg.C
_cell_formula_units_Z            4
loop_
_atom_site_label
_atom_site_type_symbol
_atom_site_fract_x
_atom_site_fract_y
_atom_site_fract_z
C1 C 0.3043(5) 0.0673(3) 0.3586(3)
C2 C 0.3994(5) 0.1729(3) 0.4381(2)
C3 C 0.2539(5) 0.2311(3) 0.4946(3)
C4 C 0.2853(6) 0.3723(3) 0.4819(3)
C5 C 0.2230(5) 0.3664(4) 0.3608(3)
C6 C 0.3790(5) 0.2669(4) 0.3456(3)
C7 C 0.2839(5) 0.1606(4) 0.2666(3)
O1 O 0.0721(4) 0.1785(3) 0.1933(2)
C8 C -0.0757(6) 0.2409(3) 0.2252(3)
C9 C -0.0009(5) 0.3059(3) 0.3305(3)
C10 C 0.0199(5) 0.2113(3) 0.4252(2)
C11 C -0.0394(5) 0.0785(3) 0.3893(2)
O2 O 0.1060(3) 0.0102(2) 0.3602(2)
O3 O -0.2080(3) 0.0295(2) 0.3834(2)
O4 O -0.2601(4) 0.2400(3) 0.1686(2)
H1 H 0.4070(59) -0.0077(37) 0.3604(28)
H2 H 0.5451(60) 0.1548(35) 0.4842(29)
H3 H 0.2782(56) 0.1955(35) 0.5659(31)
H4 H 0.1753(62) 0.4269(39) 0.5053(30)
H5 H 0.4443(64) 0.3964(38) 0.5149(31)
H6 H 0.2252(60) 0.4449(40) 0.3250(31)
H7 H 0.5134(62) 0.3045(37) 0.3413(29)
H8 H 0.3760(59) 0.1352(38) 0.2193(32)
H9 H -0.1078(59) 0.3705(37) 0.3319(29)
H10 H -0.0851(56) 0.2402(36) 0.4608(29)
loop_
_geom_bond_atom_site_label_1
_geom_bond_atom_site_label_2
_geom_bond_site_symmetry_1
_geom_bond_site_symmetry_2
C1 C2 1_555 1_555
C2 C3 1_555 1_555
C3 C4 1_555 1_555
C4 C5 1_555 1_555
C5 C6 1_555 1_555
C6 C2 1_555 1_555
C7 C1 1_555 1_555
O1 C7 1_555 1_555
C8 O1 1_555 1_555
C9 C5 1_555 1_555
C10 C3 1_555 1_555
C11 C10 1_555 1_555
O2 C1 1_555 1_555
O3 C11 1_555 1_555
O4 C8 1_555 1_555
H1 C1 1_555 1_555
H2 C2 1_555 1_555
H3 C3 1_555 1_555
H4 C4 1_555 1_555
H5 C4 1_555 1_555
H6 C5 1_555 1_555
H7 C6 1_555 1_555
H8 C7 1_555 1_555
H9 C9 1_555 1_555
H10 C10 1_555 1_555
C6 C7 1_555 1_555
C8 C9 1_555 1_555
C9 C10 1_555 1_555
C11 O2 1_555 1_555

#END
