
#######################################################################
#
#                 Cambridge Crystallographic Data Centre
#                                CCDC 
#
#######################################################################
#
# If this CIF has been generated from an entry in the Cambridge 
# Structural Database, then it will include bibliographic, chemical, 
# crystal, experimental, refinement or atomic coordinate data resulting 
# from the CCDC's data processing and validation procedures.
#
#######################################################################

data_DUFRUT
_chemical_formula_moiety         'C21 H30 O5,C1 H4 O1'
_chemical_name_systematic        
'1,4,9-trihydroxy-12-isopropyl-4-(methoxymethyl)-8-methyl-14-methylenetricyclo[9.2.1.0^3,7^]tetradeca-2,11-dien-13-one methanol solvate'
_symmetry_cell_setting           orthorhombic
_symmetry_space_group_name_H-M   'P 21 21 21'
_symmetry_Int_Tables_number      19
_space_group_name_Hall           'P 2ac 2ab'
loop_
_symmetry_equiv_pos_site_id
_symmetry_equiv_pos_as_xyz
1 x,y,z
2 1/2+x,1/2-y,-z
3 -x,1/2+y,1/2-z
4 1/2-x,-y,1/2+z
_cell_length_a                   9.5308(2)
_cell_length_b                   14.4950(3)
_cell_length_c                   15.4006(3)
_cell_angle_alpha                90
_cell_angle_beta                 90
_cell_angle_gamma                90
_cell_volume                     2127.58
_exptl_crystal_colour            colorless
_exptl_crystal_description       block
_cell_formula_units_Z            4
loop_
_atom_site_label
_atom_site_type_symbol
_atom_site_fract_x
_atom_site_fract_y
_atom_site_fract_z
O1 O 0.49948(15) 0.67816(9) 0.79289(8)
O2 O 0.43417(11) 0.50453(8) 0.72995(7)
H1 H 0.4932 0.4937 0.7673
O3 O 0.93077(10) 0.56071(7) 0.80953(5)
H2 H 1.0125 0.5450 0.8171
O4 O 0.87648(13) 0.37309(7) 0.75347(6)
O5 O 0.87208(13) 0.57778(8) 0.36080(6)
H3 H 0.7969 0.5861 0.3361
C1 C 1.1231(3) 0.29329(16) 0.60689(19)
H4 H 1.2013 0.3338 0.5973
H5 H 1.1406 0.2352 0.5790
H6 H 1.1110 0.2837 0.6681
C2 C 0.9900(2) 0.33664(12) 0.56906(11)
H7 H 1.0065 0.3495 0.5074
C3 C 0.96357(16) 0.42691(10) 0.61467(8)
C4 C 0.90981(13) 0.43473(9) 0.70391(8)
C5 C 0.88954(13) 0.53819(9) 0.72412(7)
C6 C 0.73571(13) 0.56383(8) 0.71744(7)
H8 H 0.6992 0.5910 0.7673
C7 C 0.64332(13) 0.55449(8) 0.65314(7)
C8 C 0.48694(14) 0.57448(10) 0.67137(8)
C9 C 0.45239(17) 0.66928(12) 0.70678(11)
H9 H 0.4966 0.7160 0.6709
H10 H 0.3517 0.6789 0.7047
C10 C 0.4920(3) 0.76846(15) 0.82279(15)
H11 H 0.5529 0.8068 0.7887
H12 H 0.5206 0.7706 0.8825
H13 H 0.3973 0.7904 0.8178
C11 C 0.98080(14) 0.51335(10) 0.58266(8)
C12 C 0.97299(13) 0.58233(10) 0.65232(8)
C13 C 1.03436(17) 0.66418(12) 0.65518(11)
H14 H 1.0903 0.6837 0.6092
H15 H 1.0216 0.7022 0.7032
C14 C 0.99135(16) 0.54141(11) 0.48909(9)
H16 H 1.0582 0.5018 0.4596
H17 H 1.0255 0.6043 0.4855
C15 C 0.84771(16) 0.53461(10) 0.44352(8)
H18 H 0.8279 0.4692 0.4331
C16 C 0.71825(15) 0.57741(9) 0.48815(8)
H19 H 0.6458 0.5778 0.4430
C17 C 0.65659(13) 0.51330(9) 0.56177(7)
H20 H 0.7144 0.4575 0.5653
C18 C 0.50358(16) 0.48435(10) 0.54136(9)
H21 H 0.4873 0.4826 0.4792
H22 H 0.4828 0.4241 0.5657
C19 C 0.41545(15) 0.55831(12) 0.58390(10)
H23 H 0.3196 0.5375 0.5918
H24 H 0.4150 0.6143 0.5493
C20 C 0.73746(17) 0.67896(10) 0.51220(10)
H25 H 0.7964 0.6836 0.5626
H26 H 0.6477 0.7059 0.5245
H27 H 0.7804 0.7111 0.4646
C21 C 0.8701(3) 0.26851(15) 0.57592(16)
H28 H 0.8601 0.2490 0.6352
H29 H 0.8894 0.2159 0.5400
H30 H 0.7848 0.2974 0.5570
O6 O 0.81121(14) 0.98106(13) 0.67986(14)
H31 H 0.7391 0.9964 0.7050
C22 C 0.7999(2) 0.89030(16) 0.65301(14)
H32 H 0.8917 0.8660 0.6414
H33 H 0.7441 0.8874 0.6012
H34 H 0.7561 0.8545 0.6979
loop_
_geom_bond_atom_site_label_1
_geom_bond_atom_site_label_2
_geom_bond_site_symmetry_1
_geom_bond_site_symmetry_2
O1 C9 1_555 1_555
O2 H1 1_555 1_555
O3 H2 1_555 1_555
O4 C4 1_555 1_555
O5 H3 1_555 1_555
C1 H4 1_555 1_555
H5 C1 1_555 1_555
H6 C1 1_555 1_555
C2 C1 1_555 1_555
H7 C2 1_555 1_555
C3 C2 1_555 1_555
C4 C3 1_555 1_555
C5 O3 1_555 1_555
C6 C5 1_555 1_555
H8 C6 1_555 1_555
C7 C6 1_555 1_555
C8 O2 1_555 1_555
C9 C8 1_555 1_555
H9 C9 1_555 1_555
H10 C9 1_555 1_555
C10 O1 1_555 1_555
H11 C10 1_555 1_555
H12 C10 1_555 1_555
H13 C10 1_555 1_555
C11 C3 1_555 1_555
C12 C5 1_555 1_555
C13 C12 1_555 1_555
H14 C13 1_555 1_555
H15 C13 1_555 1_555
C14 C11 1_555 1_555
H16 C14 1_555 1_555
H17 C14 1_555 1_555
C15 O5 1_555 1_555
H18 C15 1_555 1_555
C16 C15 1_555 1_555
H19 C16 1_555 1_555
C17 C7 1_555 1_555
H20 C17 1_555 1_555
C18 C17 1_555 1_555
H21 C18 1_555 1_555
H22 C18 1_555 1_555
C19 C8 1_555 1_555
H23 C19 1_555 1_555
H24 C19 1_555 1_555
C20 C16 1_555 1_555
H25 C20 1_555 1_555
H26 C20 1_555 1_555
H27 C20 1_555 1_555
C21 C2 1_555 1_555
H28 C21 1_555 1_555
H29 C21 1_555 1_555
H30 C21 1_555 1_555
O6 H31 1_555 1_555
C22 O6 1_555 1_555
H32 C22 1_555 1_555
H33 C22 1_555 1_555
H34 C22 1_555 1_555
C4 C5 1_555 1_555
C7 C8 1_555 1_555
C11 C12 1_555 1_555
C14 C15 1_555 1_555
C16 C17 1_555 1_555
C18 C19 1_555 1_555

#END
