
#######################################################################
#
#                 Cambridge Crystallographic Data Centre
#                                CCDC 
#
#######################################################################
#
# If this CIF has been generated from an entry in the Cambridge 
# Structural Database, then it will include bibliographic, chemical, 
# crystal, experimental, refinement or atomic coordinate data resulting 
# from the CCDC's data processing and validation procedures.
#
#######################################################################

data_DUFSAA
_chemical_formula_moiety         'C21 H30 O6,H2 O1'
_chemical_name_systematic        
'6,9-dihydroxy-13-isopropyl-6-(methoxymethyl)-2,10-dimethyl-11,16-dioxatetracyclo[7.6.1.0^3,7^.0^10,14^]hexadeca-7,13-dien-12-one monohydrate'
_symmetry_cell_setting           monoclinic
_symmetry_space_group_name_H-M   'P 21'
_symmetry_Int_Tables_number      4
_space_group_name_Hall           'P 2yb'
loop_
_symmetry_equiv_pos_site_id
_symmetry_equiv_pos_as_xyz
1 x,y,z
2 -x,1/2+y,-z
_cell_length_a                   13.7755(10)
_cell_length_b                   8.3553(6)
_cell_length_c                   18.5617(13)
_cell_angle_alpha                90
_cell_angle_beta                 104.989(4)
_cell_angle_gamma                90
_cell_volume                     2063.73
_exptl_crystal_colour            colorless
_exptl_crystal_description       prism
_cell_formula_units_Z            4
loop_
_atom_site_label
_atom_site_type_symbol
_atom_site_fract_x
_atom_site_fract_y
_atom_site_fract_z
O1 O 0.56990(19) 0.2580(3) 0.50241(11)
O2 O 0.6108(2) 0.2094(3) 0.65273(12)
H1 H 0.5782 0.1538 0.6186
O3 O 0.72852(12) 0.79247(18) 0.74513(8)
O4 O 0.57132(13) 0.7465(2) 0.75337(10)
H2 H 0.5791 0.8412 0.7651
O5 O 0.66181(13) 0.4887(2) 0.86598(9)
O6 O 0.70380(18) 0.2385(2) 0.90453(12)
C1 C 0.5013(3) 0.3098(5) 0.43756(18)
H3 H 0.4444 0.3573 0.4501
H4 H 0.4795 0.2203 0.4050
H5 H 0.5327 0.3876 0.4129
C2 C 0.6058(2) 0.3851(3) 0.55186(15)
H6 H 0.5497 0.4439 0.5614
H7 H 0.6448 0.4581 0.5298
C3 C 0.6709(2) 0.3190(3) 0.62440(14)
C4 C 0.70718(19) 0.4561(3) 0.67864(12)
C5 C 0.64640(19) 0.5293(3) 0.71287(12)
H8 H 0.5825 0.4852 0.7044
C6 C 0.66520(18) 0.6734(3) 0.76349(12)
C7 C 0.71181(18) 0.6265(3) 0.84668(12)
C8 C 0.81675(17) 0.5708(3) 0.85386(10)
C9 C 0.8282(2) 0.4214(3) 0.87870(12)
C10 C 0.9204(2) 0.3168(3) 0.89460(14)
H9 H 0.9727 0.3764 0.8789
C11 C 0.9034(3) 0.1631(4) 0.85047(19)
H10 H 0.8525 0.1011 0.8645
H11 H 0.9649 0.1030 0.8606
H12 H 0.8820 0.1873 0.7982
C12 C 0.7694(3) 0.2455(4) 0.61510(16)
H13 H 0.7958 0.1674 0.6539
H14 H 0.7591 0.1941 0.5668
C13 C 0.8391(2) 0.3863(4) 0.62157(16)
H15 H 0.8255 0.4455 0.5751
H16 H 0.9086 0.3516 0.6345
C14 C 0.81701(19) 0.4891(3) 0.68408(12)
H17 H 0.8555 0.4425 0.7313
C15 C 0.84808(19) 0.6653(3) 0.68495(12)
H18 H 0.9204 0.6661 0.6890
C16 C 0.83317(17) 0.7573(3) 0.75260(12)
H19 H 0.8657 0.8613 0.7515
C17 C 0.9598(3) 0.2849(5) 0.97770(16)
H20 H 0.9719 0.3849 1.0040
H21 H 1.0214 0.2254 0.9866
H22 H 0.9110 0.2244 0.9949
C18 C 0.88485(18) 0.6838(3) 0.82887(12)
H23 H 0.9450 0.6274 0.8254
H24 H 0.9048 0.7685 0.8654
C19 C 0.7050(2) 0.7623(3) 0.89988(13)
H25 H 0.6360 0.7786 0.8999
H26 H 0.7312 0.8587 0.8839
H27 H 0.7434 0.7353 0.9493
C20 C 0.7982(2) 0.7548(4) 0.61334(14)
H28 H 0.7272 0.7619 0.6083
H29 H 0.8100 0.6982 0.5714
H30 H 0.8260 0.8605 0.6153
C21 C 0.7299(2) 0.3669(3) 0.88609(14)
O7 O 0.42628(16) 0.5742(2) 0.21894(12)
H31 H 0.4157 0.6137 0.2566
H32 H 0.3892 0.6211 0.1835
O8 O 0.91469(17) 0.3450(2) 0.19928(13)
H33 H 0.8808 0.3966 0.1641
H34 H 0.9161 0.3881 0.2392
O9 O 0.96026(18) 0.5435(3) 0.48731(11)
O10 O 0.75315(13) 1.04852(19) 0.24933(9)
O11 O 0.90928(13) 1.0341(2) 0.23446(11)
H35 H 0.8950 1.1294 0.2288
O12 O 0.82875(13) 0.7741(2) 0.12037(9)
O13 O 0.79785(18) 0.5240(3) 0.07817(11)
O14 O 0.9192(2) 0.4932(3) 0.33546(13)
H36 H 0.9567 0.4421 0.3691
C22 C 1.0313(3) 0.6085(5) 0.5485(2)
H37 H 1.0846 0.6573 0.5316
H38 H 1.0583 0.5251 0.5835
H39 H 0.9996 0.6878 0.5722
C23 C 0.9139(2) 0.6587(4) 0.43693(14)
H40 H 0.9644 0.7280 0.4255
H41 H 0.8708 0.7238 0.4590
C24 C 0.8509(3) 0.5825(3) 0.36470(15)
C25 C 0.8024(2) 0.7145(3) 0.31114(13)
C26 C 0.85360(19) 0.8010(3) 0.27506(12)
H42 H 0.9197 0.7686 0.2805
C27 C 0.82147(18) 0.9447(3) 0.22631(13)
C28 C 0.77225(18) 0.9002(3) 0.14348(12)
C29 C 0.67216(18) 0.8278(3) 0.13903(12)
C30 C 0.6680(2) 0.6800(3) 0.11278(13)
C31 C 0.5825(2) 0.5614(4) 0.10074(16)
H43 H 0.5304 0.6127 0.1201
C32 C 0.5360(3) 0.5334(5) 0.01956(19)
H44 H 0.5187 0.6343 -0.0052
H45 H 0.4765 0.4696 0.0136
H46 H 0.5830 0.4783 -0.0018
C33 C 0.6919(2) 0.7234(4) 0.30945(14)
H47 H 0.6550 0.6752 0.2622
C34 C 0.6814(3) 0.6072(5) 0.3714(2)
H48 H 0.6905 0.6631 0.4185
H49 H 0.6158 0.5566 0.3587
C35 C 0.7625(3) 0.4861(5) 0.3761(2)
H50 H 0.7420 0.4055 0.3375
H51 H 0.7795 0.4338 0.4244
C36 C 0.6475(2) 0.8903(4) 0.31190(15)
H52 H 0.5760 0.8746 0.3088
C37 C 0.65213(19) 0.9953(4) 0.24540(15)
H53 H 0.6141 1.0922 0.2500
C38 C 0.7675(2) 0.6448(3) 0.10074(13)
C39 C 0.6008(2) 0.9245(3) 0.16860(14)
H54 H 0.5449 0.8578 0.1728
H55 H 0.5743 1.0107 0.1341
C40 C 0.6111(3) 0.4113(4) 0.14566(19)
H56 H 0.5531 0.3439 0.1395
H57 H 0.6364 0.4385 0.1974
H58 H 0.6621 0.3557 0.1288
C41 C 0.7690(2) 1.0412(3) 0.09083(14)
H59 H 0.8362 1.0702 0.0903
H60 H 0.7369 1.1307 0.1076
H61 H 0.7317 1.0116 0.0414
C42 C 0.6911(3) 0.9811(5) 0.38426(18)
H62 H 0.6773 0.9233 0.4252
H63 H 0.6611 1.0854 0.3811
H64 H 0.7625 0.9918 0.3920
loop_
_geom_bond_atom_site_label_1
_geom_bond_atom_site_label_2
_geom_bond_site_symmetry_1
_geom_bond_site_symmetry_2
O1 C1 1_555 1_555
O2 H1 1_555 1_555
O3 C6 1_555 1_555
O4 H2 1_555 1_555
O5 C7 1_555 1_555
O6 C21 1_555 1_555
C1 H3 1_555 1_555
H4 C1 1_555 1_555
H5 C1 1_555 1_555
C2 O1 1_555 1_555
H6 C2 1_555 1_555
H7 C2 1_555 1_555
C3 O2 1_555 1_555
C4 C3 1_555 1_555
C5 C4 1_555 1_555
H8 C5 1_555 1_555
C6 O4 1_555 1_555
C7 C6 1_555 1_555
C8 C7 1_555 1_555
C9 C8 1_555 1_555
C10 C9 1_555 1_555
H9 C10 1_555 1_555
C11 C10 1_555 1_555
H10 C11 1_555 1_555
H11 C11 1_555 1_555
H12 C11 1_555 1_555
C12 C3 1_555 1_555
H13 C12 1_555 1_555
H14 C12 1_555 1_555
C13 C12 1_555 1_555
H15 C13 1_555 1_555
H16 C13 1_555 1_555
C14 C4 1_555 1_555
H17 C14 1_555 1_555
C15 C14 1_555 1_555
H18 C15 1_555 1_555
C16 O3 1_555 1_555
H19 C16 1_555 1_555
C17 C10 1_555 1_555
H20 C17 1_555 1_555
H21 C17 1_555 1_555
H22 C17 1_555 1_555
C18 C8 1_555 1_555
H23 C18 1_555 1_555
H24 C18 1_555 1_555
C19 C7 1_555 1_555
H25 C19 1_555 1_555
H26 C19 1_555 1_555
H27 C19 1_555 1_555
C20 C15 1_555 1_555
H28 C20 1_555 1_555
H29 C20 1_555 1_555
H30 C20 1_555 1_555
C21 O5 1_555 1_555
O7 H31 1_555 1_555
H32 O7 1_555 1_555
O8 H33 1_555 1_555
H34 O8 1_555 1_555
O9 C22 1_555 1_555
O10 C27 1_555 1_555
O11 H35 1_555 1_555
O12 C28 1_555 1_555
O13 C38 1_555 1_555
O14 H36 1_555 1_555
C22 H37 1_555 1_555
H38 C22 1_555 1_555
H39 C22 1_555 1_555
C23 O9 1_555 1_555
H40 C23 1_555 1_555
H41 C23 1_555 1_555
C24 O14 1_555 1_555
C25 C24 1_555 1_555
C26 C25 1_555 1_555
H42 C26 1_555 1_555
C27 O11 1_555 1_555
C28 C27 1_555 1_555
C29 C28 1_555 1_555
C30 C29 1_555 1_555
C31 C30 1_555 1_555
H43 C31 1_555 1_555
C32 C31 1_555 1_555
H44 C32 1_555 1_555
H45 C32 1_555 1_555
H46 C32 1_555 1_555
C33 C25 1_555 1_555
H47 C33 1_555 1_555
C34 C33 1_555 1_555
H48 C34 1_555 1_555
H49 C34 1_555 1_555
C35 C24 1_555 1_555
H50 C35 1_555 1_555
H51 C35 1_555 1_555
C36 C33 1_555 1_555
H52 C36 1_555 1_555
C37 O10 1_555 1_555
H53 C37 1_555 1_555
C38 O12 1_555 1_555
C39 C29 1_555 1_555
H54 C39 1_555 1_555
H55 C39 1_555 1_555
C40 C31 1_555 1_555
H56 C40 1_555 1_555
H57 C40 1_555 1_555
H58 C40 1_555 1_555
C41 C28 1_555 1_555
H59 C41 1_555 1_555
H60 C41 1_555 1_555
H61 C41 1_555 1_555
C42 C36 1_555 1_555
H62 C42 1_555 1_555
H63 C42 1_555 1_555
H64 C42 1_555 1_555
C2 C3 1_555 1_555
C5 C6 1_555 1_555
C9 C21 1_555 1_555
C13 C14 1_555 1_555
C15 C16 1_555 1_555
C16 C18 1_555 1_555
C23 C24 1_555 1_555
C26 C27 1_555 1_555
C30 C38 1_555 1_555
C34 C35 1_555 1_555
C36 C37 1_555 1_555
C37 C39 1_555 1_555

#END
