
#######################################################################
#
#                 Cambridge Crystallographic Data Centre
#                                CCDC 
#
#######################################################################
#
# If this CIF has been generated from an entry in the Cambridge 
# Structural Database, then it will include bibliographic, chemical, 
# crystal, experimental, refinement or atomic coordinate data resulting 
# from the CCDC's data processing and validation procedures.
#
#######################################################################

data_DUGNOK
_chemical_formula_moiety         'C19 H15 F3 N2 O1'
_chemical_name_systematic        
3-(4-methoxyphenyl)-6-methyl-4-(4-(trifluoromethyl)phenyl)pyridazine
_symmetry_cell_setting           monoclinic
_symmetry_space_group_name_H-M   'P 21/n'
_symmetry_Int_Tables_number      14
_space_group_name_Hall           '-P 2yn'
loop_
_symmetry_equiv_pos_site_id
_symmetry_equiv_pos_as_xyz
1 x,y,z
2 1/2-x,1/2+y,1/2-z
3 -x,-y,-z
4 1/2+x,1/2-y,1/2+z
_cell_length_a                   6.1166(11)
_cell_length_b                   10.929(2)
_cell_length_c                   24.165(5)
_cell_angle_alpha                90
_cell_angle_beta                 94.586(7)
_cell_angle_gamma                90
_cell_volume                     1610.22
_exptl_crystal_colour            colorless
_exptl_crystal_description       Tabullar
_cell_formula_units_Z            4
loop_
_atom_site_label
_atom_site_type_symbol
_atom_site_fract_x
_atom_site_fract_y
_atom_site_fract_z
F1 F 0.61536(18) -0.25308(9) 0.07480(4)
F2 F 0.72681(18) -0.16483(10) 0.00334(4)
F3 F 0.41380(16) -0.11810(10) 0.03178(5)
O1 O 0.2170(2) 0.51472(11) 0.05013(5)
N1 N 1.0128(2) 0.43140(12) 0.23037(5)
N2 N 1.1894(2) 0.40385(12) 0.26494(5)
C1 C 0.0665(3) 0.60452(16) 0.06677(7)
H1 H -0.0087 0.5734 0.0982
H2 H -0.0418 0.6224 0.0357
H3 H 0.1463 0.6795 0.0778
C2 C 0.3841(3) 0.47976(15) 0.08742(7)
C3 C 0.4072(3) 0.51448(15) 0.14280(7)
H4 H 0.3024 0.5672 0.1574
C4 C 0.5841(3) 0.47167(14) 0.17668(6)
H5 H 0.5999 0.4961 0.2145
C5 C 0.7396(3) 0.39364(14) 0.15659(6)
C6 C 0.9290(3) 0.34979(14) 0.19336(6)
C7 C 1.0179(3) 0.23087(14) 0.19045(6)
C8 C 0.9173(2) 0.13305(14) 0.15389(6)
C9 C 1.0301(3) 0.08536(14) 0.11127(6)
H6 H 1.1729 0.1146 0.1056
C10 C 0.9355(3) -0.00498(14) 0.07677(6)
H7 H 1.0127 -0.0372 0.0474
C11 C 0.7280(2) -0.04787(14) 0.08536(6)
C12 C 0.6227(3) -0.14492(15) 0.04890(7)
C13 C 1.2868(3) 0.29533(15) 0.26140(6)
C14 C 1.2023(3) 0.20560(15) 0.22480(6)
H8 H 1.2712 0.1279 0.2236
C15 C 1.4909(3) 0.27556(16) 0.29876(7)
H9 H 1.6143 0.3170 0.2833
H10 H 1.5216 0.1877 0.3019
H11 H 1.4704 0.3090 0.3356
C16 C 0.5400(3) 0.40379(15) 0.06634(7)
H12 H 0.5257 0.3811 0.0283
C17 C 0.7144(3) 0.36142(15) 0.10034(7)
H13 H 0.8196 0.3095 0.0855
C18 C 0.7106(3) 0.08718(14) 0.16283(6)
H14 H 0.6336 0.1187 0.1923
C19 C 0.6168(3) -0.00396(14) 0.12904(6)
H15 H 0.4771 -0.0362 0.1357
loop_
_geom_bond_atom_site_label_1
_geom_bond_atom_site_label_2
_geom_bond_site_symmetry_1
_geom_bond_site_symmetry_2
F1 C12 1_555 1_555
F2 C12 1_555 1_555
F3 C12 1_555 1_555
O1 C1 1_555 1_555
N1 N2 1_555 1_555
N2 C13 1_555 1_555
C1 H1 1_555 1_555
H2 C1 1_555 1_555
H3 C1 1_555 1_555
C2 O1 1_555 1_555
C3 C2 1_555 1_555
H4 C3 1_555 1_555
C4 C3 1_555 1_555
H5 C4 1_555 1_555
C5 C4 1_555 1_555
C6 N1 1_555 1_555
C7 C6 1_555 1_555
C8 C7 1_555 1_555
C9 C8 1_555 1_555
H6 C9 1_555 1_555
C10 C9 1_555 1_555
H7 C10 1_555 1_555
C11 C10 1_555 1_555
C12 C11 1_555 1_555
C13 C14 1_555 1_555
C14 C7 1_555 1_555
H8 C14 1_555 1_555
C15 C13 1_555 1_555
H9 C15 1_555 1_555
H10 C15 1_555 1_555
H11 C15 1_555 1_555
C16 C2 1_555 1_555
H12 C16 1_555 1_555
C17 C5 1_555 1_555
H13 C17 1_555 1_555
C18 C8 1_555 1_555
H14 C18 1_555 1_555
C19 C11 1_555 1_555
H15 C19 1_555 1_555
C5 C6 1_555 1_555
C16 C17 1_555 1_555
C18 C19 1_555 1_555

#END
