
#######################################################################
#
#                 Cambridge Crystallographic Data Centre
#                                CCDC 
#
#######################################################################
#
# If this CIF has been generated from an entry in the Cambridge 
# Structural Database, then it will include bibliographic, chemical, 
# crystal, experimental, refinement or atomic coordinate data resulting 
# from the CCDC's data processing and validation procedures.
#
#######################################################################

data_DUGXUA
_chemical_formula_moiety         'C30 H28 Br1 N1 O4 S1'
_chemical_name_systematic        
1-(4-bromophenyl)-6,7-dimethoxy-2-((4-methylphenyl)sulfonyl)-4-phenyl-1,2,3,4-tetrahydroisoquinoline
_symmetry_cell_setting           triclinic
_symmetry_space_group_name_H-M   'P -1'
_symmetry_Int_Tables_number      2
_space_group_name_Hall           '-P 1'
loop_
_symmetry_equiv_pos_site_id
_symmetry_equiv_pos_as_xyz
1 x,y,z
2 -x,-y,-z
_cell_length_a                   10.1307(9)
_cell_length_b                   10.1555(8)
_cell_length_c                   13.9776(12)
_cell_angle_alpha                107.0530(10)
_cell_angle_beta                 105.435(2)
_cell_angle_gamma                90.768(2)
_cell_volume                     1318.7
_exptl_crystal_colour            colorless
_exptl_crystal_description       block
_cell_formula_units_Z            2
loop_
_atom_site_label
_atom_site_type_symbol
_atom_site_fract_x
_atom_site_fract_y
_atom_site_fract_z
Br1 Br 0.59124(3) 0.61958(3) 1.27555(2)
S1 S 0.21707(6) -0.14282(6) 0.96892(4)
N1 N 0.27999(18) -0.00716(18) 0.95066(15)
O1 O -0.01070(17) 0.20327(17) 0.55948(13)
O2 O -0.12738(17) 0.30182(18) 0.70679(14)
O3 O 0.32957(16) -0.22340(16) 0.99266(13)
O4 O 0.14074(16) -0.09227(16) 1.04332(12)
C1 C 0.0458(2) 0.1751(2) 0.65144(18)
C2 C 0.1524(2) 0.0937(2) 0.66746(18)
H1 H 0.1927 0.0548 0.6127
C3 C 0.2025(2) 0.0673(2) 0.76314(18)
C4 C 0.3027(2) -0.0429(3) 0.7730(2)
H2 H 0.2452 -0.1340 0.7462
C5 C 0.3761(2) -0.0234(2) 0.88620(19)
H3 H 0.4275 -0.1044 0.8915
H4 H 0.4435 0.0596 0.9135
C6 C 0.2016(2) 0.1153(2) 0.95216(18)
H5 H 0.1214 0.1025 0.9787
C7 C 0.1456(2) 0.1282(2) 0.84360(18)
C8 C 0.0356(2) 0.2078(2) 0.82672(19)
H6 H -0.0040 0.2475 0.8818
C9 C -0.0167(2) 0.2299(2) 0.73149(19)
C10 C 0.0697(3) 0.1807(3) 0.4873(2)
H7 H 0.1590 0.2361 0.5211
H8 H 0.0213 0.2083 0.4265
H9 H 0.0840 0.0824 0.4647
C11 C -0.1759(3) 0.3801(3) 0.7913(2)
H10 H -0.2125 0.3170 0.8215
H11 H -0.2489 0.4341 0.7657
H12 H -0.0998 0.4428 0.8448
C12 C 0.4031(2) -0.0541(3) 0.70680(19)
C13 C 0.3722(3) -0.1574(3) 0.6122(2)
H13 H 0.2896 -0.2171 0.5902
C14 C 0.4587(3) -0.1760(3) 0.5487(2)
H14 H 0.4344 -0.2466 0.4833
C15 C 0.5798(3) -0.0921(3) 0.5803(2)
H15 H 0.6404 -0.1055 0.5375
C16 C 0.6128(3) 0.0119(3) 0.6748(2)
H16 H 0.6963 0.0702 0.6970
C17 C 0.5239(3) 0.0318(3) 0.7375(2)
H17 H 0.5464 0.1046 0.8018
C18 C 0.2942(2) 0.2432(2) 1.03022(18)
C19 C 0.3565(2) 0.2402(2) 1.13119(19)
H18 H 0.3382 0.1606 1.1499
C20 C 0.4447(2) 0.3508(2) 1.2051(2)
H19 H 0.4874 0.3472 1.2734
C21 C 0.4688(2) 0.4664(2) 1.1766(2)
C22 C 0.4058(3) 0.4751(2) 1.0787(2)
H20 H 0.4209 0.5568 1.0616
C23 C 0.3197(2) 0.3622(2) 1.00526(19)
H21 H 0.2776 0.3665 0.9370
C24 C 0.0994(2) -0.2441(2) 0.85072(18)
C25 C 0.1372(2) -0.3668(2) 0.79251(19)
H22 H 0.2248 -0.3970 0.8164
C26 C 0.0451(3) -0.4437(2) 0.6994(2)
H23 H 0.0705 -0.5272 0.6594
C27 C -0.0838(3) -0.4018(3) 0.66317(19)
C28 C -0.1185(2) -0.2783(3) 0.72280(19)
H24 H -0.2061 -0.2481 0.6988
C29 C -0.0283(2) -0.1986(2) 0.81606(18)
H25 H -0.0531 -0.1145 0.8557
C30 C -0.1835(3) -0.4892(3) 0.5630(2)
H26 H -0.1443 -0.4963 0.5049
H27 H -0.2701 -0.4463 0.5512
H28 H -0.2012 -0.5819 0.5677
loop_
_geom_bond_atom_site_label_1
_geom_bond_atom_site_label_2
_geom_bond_site_symmetry_1
_geom_bond_site_symmetry_2
Br1 C21 1_555 1_555
S1 N1 1_555 1_555
N1 C5 1_555 1_555
O1 C1 1_555 1_555
O2 C9 1_555 1_555
O3 S1 1_555 1_555
O4 S1 1_555 1_555
C1 C2 1_555 1_555
C2 H1 1_555 1_555
C3 C2 1_555 1_555
C4 C3 1_555 1_555
H2 C4 1_555 1_555
C5 C4 1_555 1_555
H3 C5 1_555 1_555
H4 C5 1_555 1_555
C6 N1 1_555 1_555
H5 C6 1_555 1_555
C7 C3 1_555 1_555
C8 C7 1_555 1_555
H6 C8 1_555 1_555
C9 C1 1_555 1_555
C10 O1 1_555 1_555
H7 C10 1_555 1_555
H8 C10 1_555 1_555
H9 C10 1_555 1_555
C11 O2 1_555 1_555
H10 C11 1_555 1_555
H11 C11 1_555 1_555
H12 C11 1_555 1_555
C12 C4 1_555 1_555
C13 C12 1_555 1_555
H13 C13 1_555 1_555
C14 C13 1_555 1_555
H14 C14 1_555 1_555
C15 C14 1_555 1_555
H15 C15 1_555 1_555
C16 C15 1_555 1_555
H16 C16 1_555 1_555
C17 C12 1_555 1_555
H17 C17 1_555 1_555
C18 C6 1_555 1_555
C19 C18 1_555 1_555
H18 C19 1_555 1_555
C20 C19 1_555 1_555
H19 C20 1_555 1_555
C21 C20 1_555 1_555
C22 C21 1_555 1_555
H20 C22 1_555 1_555
C23 C18 1_555 1_555
H21 C23 1_555 1_555
C24 S1 1_555 1_555
C25 C24 1_555 1_555
H22 C25 1_555 1_555
C26 C25 1_555 1_555
H23 C26 1_555 1_555
C27 C26 1_555 1_555
C28 C27 1_555 1_555
H24 C28 1_555 1_555
C29 C24 1_555 1_555
H25 C29 1_555 1_555
C30 C27 1_555 1_555
H26 C30 1_555 1_555
H27 C30 1_555 1_555
H28 C30 1_555 1_555
C6 C7 1_555 1_555
C8 C9 1_555 1_555
C16 C17 1_555 1_555
C22 C23 1_555 1_555
C28 C29 1_555 1_555

#END
