
#######################################################################
#
#                 Cambridge Crystallographic Data Centre
#                                CCDC 
#
#######################################################################
#
# If this CIF has been generated from an entry in the Cambridge 
# Structural Database, then it will include bibliographic, chemical, 
# crystal, experimental, refinement or atomic coordinate data resulting 
# from the CCDC's data processing and validation procedures.
#
#######################################################################

data_DUGYIP
_chemical_formula_moiety         'C31 H30 Cl1 N1 O5 S1'
_chemical_name_systematic        
1-(4-chlorophenyl)-5,6,7-trimethoxy-2-((4-methylphenyl)sulfonyl)-4-phenyl-1,2,3,4-tetrahydroisoquinoline
_symmetry_cell_setting           monoclinic
_symmetry_space_group_name_H-M   'P 21/c'
_symmetry_Int_Tables_number      14
_space_group_name_Hall           '-P 2ybc'
loop_
_symmetry_equiv_pos_site_id
_symmetry_equiv_pos_as_xyz
1 x,y,z
2 -x,1/2+y,1/2-z
3 -x,-y,-z
4 x,1/2-y,1/2+z
_cell_length_a                   11.0504(18)
_cell_length_b                   26.071(4)
_cell_length_c                   11.0713(17)
_cell_angle_alpha                90
_cell_angle_beta                 118.018(3)
_cell_angle_gamma                90
_cell_volume                     2815.77
_exptl_crystal_colour            yellow
_exptl_crystal_description       block
_cell_formula_units_Z            4
loop_
_atom_site_label
_atom_site_type_symbol
_atom_site_fract_x
_atom_site_fract_y
_atom_site_fract_z
Cl1 Cl 0.55633(9) -0.01454(3) 0.76373(9)
S1 S -0.04201(7) 0.13453(2) 0.46745(7)
O1 O -0.04285(19) 0.11244(7) 0.34795(19)
O2 O -0.15907(19) 0.16229(7) 0.4555(2)
O3 O 0.27060(19) 0.35407(6) 0.6192(2)
O4 O 0.4727(2) 0.35967(6) 0.5371(2)
O5 O 0.54826(19) 0.27517(7) 0.4502(2)
N1 N 0.0885(2) 0.17328(8) 0.5309(2)
C1 C -0.0124(3) 0.08507(9) 0.5874(3)
C2 C -0.0917(3) 0.08303(10) 0.6551(3)
H1 H -0.1613 0.1078 0.6366
C3 C -0.0671(4) 0.04427(11) 0.7499(3)
H2 H -0.1213 0.0428 0.7958
C4 C 0.0336(3) 0.00780(10) 0.7795(3)
C5 C 0.1107(3) 0.01021(10) 0.7089(3)
H3 H 0.1803 -0.0146 0.7274
C6 C 0.0873(3) 0.04786(10) 0.6134(3)
H4 H 0.1392 0.0485 0.5650
C7 C 0.0654(4) -0.03342(11) 0.8865(4)
H5 H 0.1526 -0.0256 0.9672
H6 H 0.0721 -0.0667 0.8489
H7 H -0.0080 -0.0347 0.9125
C8 C 0.1067(3) 0.20842(9) 0.6418(3)
H8 H 0.1891 0.1984 0.7271
H9 H 0.0263 0.2062 0.6584
C9 C 0.1229(3) 0.26360(9) 0.6034(3)
H10 H 0.1540 0.2852 0.6874
C10 C 0.1996(3) 0.16978(9) 0.4913(3)
H11 H 0.1543 0.1626 0.3908
C11 C 0.2977(3) 0.12557(9) 0.5609(3)
C12 C 0.3048(3) 0.08478(10) 0.4827(3)
H12 H 0.2540 0.0864 0.3858
C13 C 0.3848(3) 0.04199(11) 0.5440(3)
H13 H 0.3883 0.0144 0.4897
C14 C 0.4592(3) 0.03998(10) 0.6846(3)
C15 C 0.4566(3) 0.08051(10) 0.7652(3)
H14 H 0.5086 0.0789 0.8620
C16 C 0.3777(3) 0.12311(10) 0.7028(3)
H15 H 0.3779 0.1513 0.7574
C17 C 0.2717(3) 0.22131(9) 0.5123(3)
C18 C 0.3761(3) 0.22349(10) 0.4736(3)
H16 H 0.4000 0.1935 0.4407
C19 C 0.4440(3) 0.26916(10) 0.4832(3)
C20 C 0.4077(3) 0.31365(10) 0.5307(3)
C21 C 0.3041(3) 0.31116(9) 0.5674(3)
C22 C 0.2349(3) 0.26481(10) 0.5604(3)
C23 C 0.1994(3) 0.39272(10) 0.5166(3)
H17 H 0.2557 0.4028 0.4737
H18 H 0.1822 0.4227 0.5596
H19 H 0.1119 0.3788 0.4469
C24 C 0.6018(3) 0.36447(11) 0.6594(3)
H20 H 0.5859 0.3654 0.7394
H21 H 0.6472 0.3962 0.6554
H22 H 0.6602 0.3351 0.6668
C25 C 0.5800(3) 0.23180(10) 0.3909(3)
H23 H 0.6006 0.2022 0.4520
H24 H 0.6599 0.2397 0.3780
H25 H 0.5014 0.2239 0.3023
C26 C -0.0106(3) 0.28596(9) 0.4944(3)
C27 C -0.0632(3) 0.27248(10) 0.3570(3)
H26 H -0.0143 0.2488 0.3310
C28 C -0.1846(3) 0.29273(11) 0.2584(3)
H27 H -0.2180 0.2830 0.1654
C29 C -0.2586(3) 0.32730(11) 0.2933(3)
H28 H -0.3425 0.3412 0.2251
C30 C -0.2083(3) 0.34126(11) 0.4292(3)
H29 H -0.2576 0.3651 0.4542
C31 C -0.0862(3) 0.32064(10) 0.5291(3)
H30 H -0.0536 0.3302 0.6220
loop_
_geom_bond_atom_site_label_1
_geom_bond_atom_site_label_2
_geom_bond_site_symmetry_1
_geom_bond_site_symmetry_2
Cl1 C14 1_555 1_555
S1 O1 1_555 1_555
O2 S1 1_555 1_555
O3 C21 1_555 1_555
O4 C20 1_555 1_555
O5 C19 1_555 1_555
N1 S1 1_555 1_555
C1 S1 1_555 1_555
C2 C1 1_555 1_555
H1 C2 1_555 1_555
C3 C2 1_555 1_555
H2 C3 1_555 1_555
C4 C3 1_555 1_555
C5 C4 1_555 1_555
H3 C5 1_555 1_555
C6 C1 1_555 1_555
H4 C6 1_555 1_555
C7 C4 1_555 1_555
H5 C7 1_555 1_555
H6 C7 1_555 1_555
H7 C7 1_555 1_555
C8 N1 1_555 1_555
H8 C8 1_555 1_555
H9 C8 1_555 1_555
C9 C8 1_555 1_555
H10 C9 1_555 1_555
C10 N1 1_555 1_555
H11 C10 1_555 1_555
C11 C10 1_555 1_555
C12 C11 1_555 1_555
H12 C12 1_555 1_555
C13 C12 1_555 1_555
H13 C13 1_555 1_555
C14 C13 1_555 1_555
C15 C14 1_555 1_555
H14 C15 1_555 1_555
C16 C11 1_555 1_555
H15 C16 1_555 1_555
C17 C10 1_555 1_555
C18 C17 1_555 1_555
H16 C18 1_555 1_555
C19 C18 1_555 1_555
C20 C19 1_555 1_555
C21 C20 1_555 1_555
C22 C9 1_555 1_555
C23 O3 1_555 1_555
H17 C23 1_555 1_555
H18 C23 1_555 1_555
H19 C23 1_555 1_555
C24 O4 1_555 1_555
H20 C24 1_555 1_555
H21 C24 1_555 1_555
H22 C24 1_555 1_555
C25 O5 1_555 1_555
H23 C25 1_555 1_555
H24 C25 1_555 1_555
H25 C25 1_555 1_555
C26 C9 1_555 1_555
C27 C26 1_555 1_555
H26 C27 1_555 1_555
C28 C27 1_555 1_555
H27 C28 1_555 1_555
C29 C28 1_555 1_555
H28 C29 1_555 1_555
C30 C29 1_555 1_555
H29 C30 1_555 1_555
C31 C26 1_555 1_555
H30 C31 1_555 1_555
C5 C6 1_555 1_555
C15 C16 1_555 1_555
C17 C22 1_555 1_555
C21 C22 1_555 1_555
C30 C31 1_555 1_555

#END
