
#######################################################################
#
#                 Cambridge Crystallographic Data Centre
#                                CCDC 
#
#######################################################################
#
# If this CIF has been generated from an entry in the Cambridge 
# Structural Database, then it will include bibliographic, chemical, 
# crystal, experimental, refinement or atomic coordinate data resulting 
# from the CCDC's data processing and validation procedures.
#
#######################################################################

data_DUHNIF
_chemical_formula_moiety         'C17 H24 Cl1 N1 O2'
_chemical_name_systematic        't-butyl N-(4-chlorobenzylidene)leucinate'
_symmetry_cell_setting           orthorhombic
_symmetry_space_group_name_H-M   'P 21 21 21'
_symmetry_Int_Tables_number      19
_space_group_name_Hall           'P 2ac 2ab'
loop_
_symmetry_equiv_pos_site_id
_symmetry_equiv_pos_as_xyz
1 x,y,z
2 1/2-x,-y,1/2+z
3 1/2+x,1/2-y,-z
4 -x,1/2+y,1/2-z
_cell_length_a                   5.879(2)
_cell_length_b                   16.857(4)
_cell_length_c                   17.847(5)
_cell_angle_alpha                90
_cell_angle_beta                 90
_cell_angle_gamma                90
_cell_volume                     1768.68
_exptl_crystal_colour            colorless
_exptl_crystal_description       needle
_cell_formula_units_Z            4
_exptl_crystal_recrystallization_method 
'Re-crystallisation from solvent: dichloromethane/hexane'
loop_
_atom_site_label
_atom_site_type_symbol
_atom_site_fract_x
_atom_site_fract_y
_atom_site_fract_z
Cl1 Cl 0.19181(15) 0.87170(6) 0.56852(5)
O1 O 0.7834(3) 0.62065(12) 0.20212(11)
O2 O 1.0707(4) 0.68327(13) 0.14292(12)
N1 N 0.6619(4) 0.77945(15) 0.23488(14)
C1 C 0.2681(6) 0.84472(18) 0.47772(18)
C2 C 0.1174(5) 0.80239(19) 0.43456(19)
H1 H -0.0280 0.7885 0.4537
C3 C 0.1802(5) 0.78011(19) 0.36252(18)
H2 H 0.0751 0.7521 0.3319
C4 C 0.3939(5) 0.79816(18) 0.33468(18)
C5 C 0.5428(5) 0.84155(18) 0.37970(19)
H3 H 0.6888 0.8552 0.3609
C6 C 0.4816(5) 0.8650(2) 0.45134(18)
H4 H 0.5841 0.8945 0.4817
C7 C 0.4611(6) 0.77154(18) 0.25946(18)
H5 H 0.3499 0.7475 0.2282
C8 C 0.7085(6) 0.74955(18) 0.15898(17)
H6 H 0.5645 0.7295 0.1359
C9 C 0.8079(5) 0.81598(18) 0.11048(18)
H7 H 0.9473 0.8363 0.1350
H8 H 0.8532 0.7933 0.0615
C10 C 0.6477(5) 0.88546(19) 0.09648(18)
H9 H 0.6005 0.9075 0.1461
C11 C 0.7761(6) 0.95043(19) 0.05364(19)
H10 H 0.9136 0.9651 0.0814
H11 H 0.6781 0.9971 0.0482
H12 H 0.8187 0.9306 0.0040
C12 C 0.4339(5) 0.8609(2) 0.0540(2)
H13 H 0.4768 0.8381 0.0055
H14 H 0.3374 0.9075 0.0459
H15 H 0.3502 0.8214 0.0833
C13 C 0.8787(6) 0.68172(19) 0.16654(18)
C14 C 0.9102(5) 0.5456(2) 0.21473(19)
C15 C 0.7396(6) 0.49468(18) 0.2556(2)
H16 H 0.6918 0.5215 0.3017
H17 H 0.8092 0.4436 0.2682
H18 H 0.6068 0.4858 0.2234
C16 C 0.9687(7) 0.5095(2) 0.1391(2)
H19 H 0.8329 0.5090 0.1073
H20 H 1.0229 0.4550 0.1462
H21 H 1.0880 0.5411 0.1150
C17 C 1.1162(6) 0.5616(2) 0.2630(2)
H22 H 1.2254 0.5940 0.2350
H23 H 1.1876 0.5112 0.2771
H24 H 1.0694 0.5901 0.3084
loop_
_geom_bond_atom_site_label_1
_geom_bond_atom_site_label_2
_geom_bond_site_symmetry_1
_geom_bond_site_symmetry_2
Cl1 C1 1_555 1_555
O1 C13 1_555 1_555
O2 C13 1_555 1_555
N1 C7 1_555 1_555
C1 C2 1_555 1_555
C2 H1 1_555 1_555
C3 C2 1_555 1_555
H2 C3 1_555 1_555
C4 C3 1_555 1_555
C5 C4 1_555 1_555
H3 C5 1_555 1_555
C6 C1 1_555 1_555
H4 C6 1_555 1_555
C7 C4 1_555 1_555
H5 C7 1_555 1_555
C8 N1 1_555 1_555
H6 C8 1_555 1_555
C9 C8 1_555 1_555
H7 C9 1_555 1_555
H8 C9 1_555 1_555
C10 C9 1_555 1_555
H9 C10 1_555 1_555
C11 C10 1_555 1_555
H10 C11 1_555 1_555
H11 C11 1_555 1_555
H12 C11 1_555 1_555
C12 C10 1_555 1_555
H13 C12 1_555 1_555
H14 C12 1_555 1_555
H15 C12 1_555 1_555
C13 C8 1_555 1_555
C14 O1 1_555 1_555
C15 C14 1_555 1_555
H16 C15 1_555 1_555
H17 C15 1_555 1_555
H18 C15 1_555 1_555
C16 C14 1_555 1_555
H19 C16 1_555 1_555
H20 C16 1_555 1_555
H21 C16 1_555 1_555
C17 C14 1_555 1_555
H22 C17 1_555 1_555
H23 C17 1_555 1_555
H24 C17 1_555 1_555
C5 C6 1_555 1_555

#END
