
#######################################################################
#
#                 Cambridge Crystallographic Data Centre
#                                CCDC 
#
#######################################################################
#
# If this CIF has been generated from an entry in the Cambridge 
# Structural Database, then it will include bibliographic, chemical, 
# crystal, experimental, refinement or atomic coordinate data resulting 
# from the CCDC's data processing and validation procedures.
#
#######################################################################

data_DUHWEJ
_chemical_formula_moiety         'C32 H26 Cl4 N4 O6,C3 H7 N1 O1'
_chemical_name_systematic        
'1,3-bis(5-Ethoxycarbonyl-4-(2,4-dichlorophenyl)-2-oxo-1,2,3,4-tetrahydropyrimidin-6-yl)benzene dimethylformamide solvate'
_symmetry_cell_setting           monoclinic
_symmetry_space_group_name_H-M   'C 2/c'
_symmetry_Int_Tables_number      15
_space_group_name_Hall           '-C 2yn'
loop_
_symmetry_equiv_pos_site_id
_symmetry_equiv_pos_as_xyz
1 x,y,z
2 1/2+x,1/2+y,z
3 -x,y,1/2-z
4 1/2-x,1/2+y,1/2-z
5 -x,-y,-z
6 1/2-x,1/2-y,-z
7 x,-y,1/2+z
8 1/2+x,1/2-y,1/2+z
_cell_length_a                   31.673(3)
_cell_length_b                   14.190(1)
_cell_length_c                   21.224(2)
_cell_angle_alpha                90
_cell_angle_beta                 127.28(7)
_cell_angle_gamma                90
_cell_volume                     7589.97
_exptl_crystal_colour            colorless
_exptl_crystal_description       plate
_cell_formula_units_Z            8
_exptl_crystal_recrystallization_method dimethylformamide/acetonitrile
loop_
_atom_site_label
_atom_site_type_symbol
_atom_site_fract_x
_atom_site_fract_y
_atom_site_fract_z
Cl1 Cl 0.28161(10) 0.69348(13) 0.16106(13)
Cl2 Cl 0.35305(9) -0.15951(14) 0.33738(16)
Cl3 Cl 0.40038(13) -0.15007(14) 0.62587(18)
Cl4 Cl 0.26778(12) 0.34408(18) 0.05964(17)
O1 O 0.18223(19) 0.5545(3) 0.3144(3)
O2 O 0.25982(16) 0.1331(3) 0.5430(2)
O3 O 0.4265(2) 0.5930(5) 0.4783(4)
O4 O 0.48801(19) 0.2470(4) 0.6500(4)
O5 O 0.3873(2) 0.6121(3) 0.3503(3)
O6 O 0.48893(17) 0.0912(3) 0.6588(3)
N1 N 0.2695(2) 0.5127(4) 0.3967(3)
H1 H 0.2631 0.4707 0.4191
N2 N 0.32245(19) 0.2183(3) 0.5484(3)
H2 H 0.2990 0.2586 0.5154
N3 N 0.2385(2) 0.6126(3) 0.2924(3)
H3 H 0.2153 0.6533 0.2595
N4 N 0.3420(2) 0.0697(3) 0.6031(3)
H4 H 0.3365 0.0269 0.6261
C1 C 0.3589(2) 0.4817(4) 0.5061(4)
C2 C 0.3563(2) 0.3844(4) 0.5108(4)
H5 H 0.3338 0.3495 0.4648
C3 C 0.2271(3) 0.5591(5) 0.3331(4)
C4 C 0.3058(3) 0.1377(5) 0.5638(4)
C5 C 0.3865(3) 0.3393(4) 0.5826(5)
C6 C 0.4201(3) 0.3898(5) 0.6516(4)
H6 H 0.4407 0.3598 0.7006
C7 C 0.2878(3) 0.6058(4) 0.3006(4)
H7 H 0.2960 0.6688 0.2919
C8 C 0.3908(2) 0.0640(4) 0.6093(4)
H8 H 0.4178 0.0311 0.6586
C9 C 0.4224(3) 0.4873(5) 0.6458(5)
H9 H 0.4448 0.5227 0.6915
C10 C 0.3333(3) 0.5763(4) 0.3853(4)
C11 C 0.4103(3) 0.1641(5) 0.6145(4)
C12 C 0.3923(3) 0.5312(5) 0.5745(5)
H10 H 0.3946 0.5963 0.5723
C13 C 0.3220(3) 0.5281(4) 0.4277(4)
C14 C 0.3761(3) 0.2369(5) 0.5846(4)
C15 C 0.3876(3) 0.5936(5) 0.4123(6)
C16 C 0.4659(3) 0.1761(6) 0.6434(5)
C17 C 0.4363(3) 0.6337(6) 0.3636(5)
H11 H 0.4293 0.6750 0.3219
H12 H 0.4593 0.6670 0.4135
C18 C 0.5396(3) 0.0877(6) 0.6729(6)
H13 H 0.5380 0.1240 0.6328
H14 H 0.5669 0.1147 0.7243
C19 C 0.4625(4) 0.5517(7) 0.3656(7)
H17 H 0.4948 0.5692 0.3738
H18 H 0.4399 0.5186 0.3163
H19 H 0.4706 0.5116 0.4081
C20 C 0.5521(5) -0.0074(9) 0.6703(10)
H20 H 0.5839 -0.0098 0.6742
H21 H 0.5234 -0.0354 0.6213
H22 H 0.5575 -0.0414 0.7137
C22 C 0.2819(3) 0.5402(5) 0.2388(5)
C23 C 0.3817(3) 0.0090(5) 0.5413(5)
C24 C 0.2796(3) 0.5731(5) 0.1744(5)
C25 C 0.3851(3) -0.0892(5) 0.5438(6)
C26 C 0.2766(3) 0.5128(6) 0.1210(5)
H26 H 0.2769 0.5364 0.0804
C27 C 0.3764(3) -0.1398(5) 0.4812(7)
H27 H 0.3791 -0.2051 0.4843
C28 C 0.2731(3) 0.4181(7) 0.1282(6)
C29 C 0.3641(3) -0.0953(6) 0.4156(6)
C30 C 0.2737(3) 0.3828(5) 0.1896(6)
H28 H 0.2706 0.3183 0.1937
C31 C 0.3599(3) 0.0013(5) 0.4104(5)
H29 H 0.3513 0.0326 0.3655
C32 C 0.2789(3) 0.4434(5) 0.2442(5)
H30 H 0.2805 0.4188 0.2862
C33 C 0.3686(3) 0.0508(5) 0.4732(5)
H31 H 0.3655 0.1161 0.4693
N5 N 0.4274(4) 0.2629(5) 0.3662(6)
O7 O 0.3488(11) 0.230(3) 0.338(3)
C34 C 0.4042(15) 0.264(3) 0.2819(13)
H32 H 0.4205 0.3136 0.2723
H33 H 0.3668 0.2756 0.2510
H34 H 0.4103 0.2047 0.2673
C35 C 0.4852(8) 0.264(3) 0.429(2)
H35 H 0.4960 0.3267 0.4506
H36 H 0.5030 0.2464 0.4070
H37 H 0.4941 0.2209 0.4700
C36 C 0.3956(11) 0.239(2) 0.3855(19)
H38 H 0.4109 0.2295 0.4387
H15? H 0.5657 0.0542 0.7215
H16? H 0.5527 0.1506 0.6758
C21? C 0.5264(13) 0.030(3) 0.597(2)
H23? H 0.5577 0.0268 0.5995
H24? H 0.4988 0.0622 0.5492
H25? H 0.5149 -0.0323 0.5970
O8? O 0.3504(3) 0.2145(10) 0.3360(9)
C37? C 0.4410(6) 0.3093(11) 0.4386(9)
H39? H 0.4767 0.3327 0.4688
H40? H 0.4381 0.2646 0.4698
H41? H 0.4170 0.3607 0.4242
C38? C 0.4634(5) 0.2737(9) 0.3436(8)
H42? H 0.4976 0.2946 0.3887
H43? H 0.4488 0.3192 0.3018
H44? H 0.4670 0.2141 0.3258
C39? C 0.3808(4) 0.2234(8) 0.3195(7)
H45? H 0.3702 0.2009 0.2708
loop_
_geom_bond_atom_site_label_1
_geom_bond_atom_site_label_2
_geom_bond_site_symmetry_1
_geom_bond_site_symmetry_2
Cl1 C24 1_555 1_555
Cl2 C29 1_555 1_555
Cl3 C25 1_555 1_555
Cl4 C28 1_555 1_555
O1 C3 1_555 1_555
O2 C4 1_555 1_555
O3 C15 1_555 1_555
O4 C16 1_555 1_555
O5 C15 1_555 1_555
O6 C16 1_555 1_555
N1 H1 1_555 1_555
N2 H2 1_555 1_555
N3 H3 1_555 1_555
N4 H4 1_555 1_555
C1 C2 1_555 1_555
C2 H5 1_555 1_555
C3 N1 1_555 1_555
C4 N2 1_555 1_555
C5 C2 1_555 1_555
C6 C5 1_555 1_555
H6 C6 1_555 1_555
C7 N3 1_555 1_555
H7 C7 1_555 1_555
C8 N4 1_555 1_555
H8 C8 1_555 1_555
C9 C6 1_555 1_555
H9 C9 1_555 1_555
C10 C7 1_555 1_555
C11 C8 1_555 1_555
C12 C1 1_555 1_555
H10 C12 1_555 1_555
C13 N1 1_555 1_555
C14 N2 1_555 1_555
C15 C10 1_555 1_555
C16 C11 1_555 1_555
C17 O5 1_555 1_555
H11 C17 1_555 1_555
H12 C17 1_555 1_555
C18 O6 1_555 1_555
H13 C18 1_555 1_555
H14 C18 1_555 1_555
C19 C17 1_555 1_555
H17 C19 1_555 1_555
H18 C19 1_555 1_555
H19 C19 1_555 1_555
C20 C18 1_555 1_555
H20 C20 1_555 1_555
H21 C20 1_555 1_555
H22 C20 1_555 1_555
C22 C7 1_555 1_555
C23 C8 1_555 1_555
C24 C22 1_555 1_555
C25 C23 1_555 1_555
C26 C24 1_555 1_555
H26 C26 1_555 1_555
C27 C25 1_555 1_555
H27 C27 1_555 1_555
C28 C26 1_555 1_555
C29 C27 1_555 1_555
C30 C28 1_555 1_555
H28 C30 1_555 1_555
C31 C29 1_555 1_555
H29 C31 1_555 1_555
C32 C22 1_555 1_555
H30 C32 1_555 1_555
C33 C23 1_555 1_555
H31 C33 1_555 1_555
N5 C34 1_555 1_555
O7 C36 1_555 1_555
C34 H32 1_555 1_555
H33 C34 1_555 1_555
H34 C34 1_555 1_555
C35 N5 1_555 1_555
H35 C35 1_555 1_555
H36 C35 1_555 1_555
H37 C35 1_555 1_555
C36 N5 1_555 1_555
H38 C36 1_555 1_555
N3 C3 1_555 1_555
N4 C4 1_555 1_555
C1 C13 1_555 1_555
C5 C14 1_555 1_555
C9 C12 1_555 1_555
C10 C13 1_555 1_555
C11 C14 1_555 1_555
C30 C32 1_555 1_555
C31 C33 1_555 1_555

#END
