
#######################################################################
#
#                 Cambridge Crystallographic Data Centre
#                                CCDC 
#
#######################################################################
#
# If this CIF has been generated from an entry in the Cambridge 
# Structural Database, then it will include bibliographic, chemical, 
# crystal, experimental, refinement or atomic coordinate data resulting 
# from the CCDC's data processing and validation procedures.
#
#######################################################################

data_DUHXEK
_chemical_formula_moiety         'C21 H21 N5 O3'
_chemical_name_systematic        
6-Butyl-5-(4-methoxyphenoxy)-3-phenyl-3,6-dihydro-7H-[1,2,3]triazolo[4,5-d]pyrimidin-7-one
_symmetry_cell_setting           triclinic
_symmetry_space_group_name_H-M   'P -1'
_symmetry_Int_Tables_number      2
_space_group_name_Hall           '-P 1'
loop_
_symmetry_equiv_pos_site_id
_symmetry_equiv_pos_as_xyz
1 x,y,z
2 -x,-y,-z
_cell_length_a                   11.5167(13)
_cell_length_b                   12.4026(13)
_cell_length_c                   14.9353(16)
_cell_angle_alpha                78.795(2)
_cell_angle_beta                 76.207(2)
_cell_angle_gamma                76.360(2)
_cell_volume                     1991.69
_exptl_crystal_colour            colorless
_exptl_crystal_description       block
_cell_formula_units_Z            4
_exptl_crystal_recrystallization_method hexane/dichloromethane
loop_
_atom_site_label
_atom_site_type_symbol
_atom_site_fract_x
_atom_site_fract_y
_atom_site_fract_z
C1 C 0.3813(3) 1.1282(3) -0.0630(2)
C2 C 0.4159(3) 1.2053(3) -0.1390(3)
H1 H 0.4473 1.2648 -0.1315
C3 C 0.4038(4) 1.1937(4) -0.2255(3)
H2 H 0.4286 1.2451 -0.2767
C4 C 0.3560(4) 1.1082(4) -0.2378(3)
H3 H 0.3469 1.1021 -0.2968
C5 C 0.3215(3) 1.0312(3) -0.1625(3)
H4 H 0.2897 0.9721 -0.1703
C6 C 0.3341(3) 1.0418(3) -0.0745(2)
H5 H 0.3103 0.9900 -0.0233
C7 C 0.3573(3) 1.0900(2) 0.1139(2)
C8 C 0.4017(3) 1.1368(3) 0.1700(3)
C9 C 0.3731(3) 1.1058(3) 0.2691(3)
C10 C 0.2607(3) 0.9846(3) 0.2292(2)
C11 C 0.1502(3) 0.8491(3) 0.2166(2)
C12 C 0.0289(3) 0.8462(3) 0.2362(2)
H6 H -0.0257 0.8930 0.2758
C13 C -0.0129(3) 0.7744(3) 0.1976(2)
H7 H -0.0955 0.7721 0.2110
C14 C 0.0688(3) 0.7057(3) 0.1388(2)
C15 C 0.1902(3) 0.7121(3) 0.1176(2)
H8 H 0.2447 0.6676 0.0761
C16 C 0.2326(3) 0.7834(3) 0.1569(2)
H9 H 0.3149 0.7867 0.1432
C17 C -0.0777(4) 0.6012(4) 0.1313(3)
H10 H -0.0869 0.5741 0.1969
H11 H -0.0848 0.5438 0.0993
H12 H -0.1401 0.6663 0.1212
C18 C 0.2467(5) 0.9939(4) 0.3997(3)
H13 H 0.2351 1.0582 0.4312
H14 H 0.1682 0.9732 0.4084
C19 C 0.3312(5) 0.9008(5) 0.4395(3)
H15 H 0.4072 0.9247 0.4342
H16 H 0.3485 0.8401 0.4030
C20 C 0.2846(11) 0.8550(9) 0.5437(5)
H17 H 0.2018 0.8435 0.5531
H18 H 0.3363 0.7840 0.5619
C21 C 0.2888(10) 0.9402(8) 0.5999(5)
H19 H 0.3635 0.9671 0.5768
H20 H 0.2846 0.9068 0.6639
H21 H 0.2209 1.0016 0.5952
N1 N 0.3984(2) 1.1397(2) 0.0256(2)
N2 N 0.4667(3) 1.2151(2) 0.0314(3)
N3 N 0.4686(3) 1.2126(2) 0.1183(3)
N4 N 0.2861(2) 1.0120(2) 0.13914(17)
N5 N 0.2979(3) 1.0252(2) 0.29391(19)
O1 O 0.4041(3) 1.1411(2) 0.3284(2)
O2 O 0.1887(2) 0.9109(2) 0.26967(15)
O5 O 0.0382(2) 0.6299(2) 0.09702(18)
C22 C -0.1449(3) 0.6338(2) 0.43768(18)
C23 C -0.1744(3) 0.5483(3) 0.4068(2)
H22 H -0.1134 0.4941 0.3790
C24 C -0.2963(3) 0.5440(3) 0.4179(2)
H23 H -0.3169 0.4866 0.3967
C25 C -0.3869(3) 0.6231(4) 0.4594(2)
H24 H -0.4685 0.6199 0.4663
C26 C -0.3555(4) 0.7063(4) 0.4904(3)
H25 H -0.4164 0.7599 0.5191
C27 C -0.2362(4) 0.7126(3) 0.4800(3)
H26 H -0.2165 0.7701 0.5016
C28 C 0.0845(3) 0.5873(2) 0.37838(19)
C29 C 0.1745(3) 0.6332(3) 0.3916(2)
C30 C 0.2988(3) 0.5944(3) 0.3509(3)
C31 C 0.2108(3) 0.4696(3) 0.2899(2)
C32 C 0.1543(3) 0.3377(3) 0.2199(2)
C33 C 0.0893(3) 0.2762(3) 0.2924(2)
H27 H 0.0932 0.2781 0.3536
C34 C 0.0188(3) 0.2120(3) 0.2740(2)
H28 H -0.0263 0.1710 0.3232
C35 C 0.0135(3) 0.2071(3) 0.1841(2)
C36 C 0.0764(3) 0.2719(3) 0.1126(2)
H29 H 0.0713 0.2714 0.0515
C37 C 0.1466(3) 0.3373(3) 0.1306(2)
H30 H 0.1887 0.3812 0.0818
C38 C -0.0400(5) 0.1100(4) 0.0814(3)
H31 H -0.0841 0.1719 0.0454
H32 H -0.0717 0.0439 0.0850
H33 H 0.0448 0.0972 0.0521
C39 C 0.4370(5) 0.4412(4) 0.2681(5)
H34 H 0.4898 0.4463 0.3083
H35 H 0.4363 0.3626 0.2704
C40 C 0.4816(4) 0.4881(4) 0.1756(5)
H36 H 0.4737 0.5671 0.1781
H37 H 0.4220 0.4841 0.1407
C41 C 0.6105(11) 0.4531(16) 0.1097(10)
H38 H 0.6056 0.4016 0.0701
H39 H 0.6361 0.5188 0.0703
C42 C 0.6979(10) 0.3988(19) 0.1703(12)
H40 H 0.7216 0.4550 0.1942
H41 H 0.7687 0.3562 0.1350
H42 H 0.6605 0.3497 0.2212
N6 N -0.0203(2) 0.64224(19) 0.42687(15)
N7 N 0.0072(3) 0.7202(2) 0.46881(18)
N8 N 0.1237(3) 0.7147(2) 0.44767(18)
N9 N 0.0976(2) 0.50531(19) 0.32598(16)
N10 N 0.3093(2) 0.5042(2) 0.3012(2)
O3 O 0.3883(2) 0.6278(2) 0.3538(2)
O4 O 0.2423(2) 0.3919(2) 0.23281(19)
O6 O -0.0535(2) 0.1350(2) 0.17288(18)
C43? C 0.2534(19) 0.9186(14) 0.5406(7)
C44? C 0.3110(14) 0.8215(16) 0.6063(8)
C45? C 0.6174(7) 0.4221(14) 0.1683(10)
C46? C 0.6838(12) 0.4652(15) 0.0738(11)
H43? H 0.4133 0.9143 0.4292
H44? H 0.3321 0.8293 0.4218
H45? H 0.2578 0.9900 0.5557
H46? H 0.1686 0.9167 0.5446
H47? H 0.3036 0.7518 0.5914
H48? H 0.2700 0.8287 0.6694
H49? H 0.3957 0.8229 0.5992
H50? H 0.4748 0.5685 0.1698
H51? H 0.4417 0.4716 0.1310
H52? H 0.6526 0.4362 0.2167
H53? H 0.6214 0.3421 0.1743
H54? H 0.6476 0.4508 0.0268
H55? H 0.7680 0.4279 0.0651
H56? H 0.6785 0.5445 0.0689
loop_
_geom_bond_atom_site_label_1
_geom_bond_atom_site_label_2
_geom_bond_site_symmetry_1
_geom_bond_site_symmetry_2
C1 C2 1_555 1_555
C2 H1 1_555 1_555
C3 C2 1_555 1_555
H2 C3 1_555 1_555
C4 C3 1_555 1_555
H3 C4 1_555 1_555
C5 C4 1_555 1_555
H4 C5 1_555 1_555
C6 C1 1_555 1_555
H5 C6 1_555 1_555
C7 C8 1_555 1_555
C8 C9 1_555 1_555
C9 N5 1_555 1_555
C10 N4 1_555 1_555
C11 C12 1_555 1_555
C12 H6 1_555 1_555
C13 C12 1_555 1_555
H7 C13 1_555 1_555
C14 C13 1_555 1_555
C15 C14 1_555 1_555
H8 C15 1_555 1_555
C16 C11 1_555 1_555
H9 C16 1_555 1_555
C17 H10 1_555 1_555
H11 C17 1_555 1_555
H12 C17 1_555 1_555
C18 H13 1_555 1_555
H14 C18 1_555 1_555
C19 C18 1_555 1_555
H15 C19 1_555 1_555
H16 C19 1_555 1_555
C20 C19 1_555 1_555
H17 C20 1_555 1_555
H18 C20 1_555 1_555
C21 C20 1_555 1_555
H19 C21 1_555 1_555
H20 C21 1_555 1_555
H21 C21 1_555 1_555
C22 C23 1_555 1_555
C23 H22 1_555 1_555
C24 C23 1_555 1_555
H23 C24 1_555 1_555
C25 C24 1_555 1_555
H24 C25 1_555 1_555
C26 C25 1_555 1_555
H25 C26 1_555 1_555
C27 C22 1_555 1_555
H26 C27 1_555 1_555
C28 C29 1_555 1_555
C29 C30 1_555 1_555
C30 N10 1_555 1_555
C31 N9 1_555 1_555
C32 C33 1_555 1_555
C33 H27 1_555 1_555
C34 C33 1_555 1_555
H28 C34 1_555 1_555
C35 C34 1_555 1_555
C36 C35 1_555 1_555
H29 C36 1_555 1_555
C37 C32 1_555 1_555
H30 C37 1_555 1_555
C38 H31 1_555 1_555
H32 C38 1_555 1_555
H33 C38 1_555 1_555
C39 H34 1_555 1_555
H35 C39 1_555 1_555
C40 C39 1_555 1_555
H36 C40 1_555 1_555
H37 C40 1_555 1_555
C41 C40 1_555 1_555
H38 C41 1_555 1_555
H39 C41 1_555 1_555
C42 C41 1_555 1_555
H40 C42 1_555 1_555
H41 C42 1_555 1_555
H42 C42 1_555 1_555
N1 C1 1_555 1_555
N2 N1 1_555 1_555
N3 C8 1_555 1_555
N4 C7 1_555 1_555
N5 C10 1_555 1_555
N6 C22 1_555 1_555
N7 N6 1_555 1_555
N8 C29 1_555 1_555
N9 C28 1_555 1_555
N10 C31 1_555 1_555
O1 C9 1_555 1_555
O2 C10 1_555 1_555
O3 C30 1_555 1_555
O4 C31 1_555 1_555
O5 C14 1_555 1_555
O6 C35 1_555 1_555
C5 C6 1_555 1_555
C7 N1 1_555 1_555
C11 O2 1_555 1_555
C15 C16 1_555 1_555
C17 O5 1_555 1_555
C18 N5 1_555 1_555
C26 C27 1_555 1_555
C28 N6 1_555 1_555
C32 O4 1_555 1_555
C36 C37 1_555 1_555
C38 O6 1_555 1_555
C39 N10 1_555 1_555
N2 N3 1_555 1_555
N7 N8 1_555 1_555

#END
