
#######################################################################
#
#                 Cambridge Crystallographic Data Centre
#                                CCDC 
#
#######################################################################
#
# If this CIF has been generated from an entry in the Cambridge 
# Structural Database, then it will include bibliographic, chemical, 
# crystal, experimental, refinement or atomic coordinate data resulting 
# from the CCDC's data processing and validation procedures.
#
#######################################################################

data_DUHYUB
_chemical_formula_moiety         'C7 H7 N2 1+,C8 H5 Cl2 O3 1-,H2 O1'
_chemical_name_systematic        
'Benzimidazolium (2,4-dichlorophenoxy)acetate monohydrate'
_symmetry_cell_setting           orthorhombic
_symmetry_space_group_name_H-M   'P n a 21'
_symmetry_Int_Tables_number      33
_space_group_name_Hall           'P 2c -2n'
loop_
_symmetry_equiv_pos_site_id
_symmetry_equiv_pos_as_xyz
1 x,y,z
2 -x,-y,1/2+z
3 1/2+x,1/2-y,z
4 1/2-x,1/2+y,1/2+z
_cell_length_a                   4.9322(10)
_cell_length_b                   23.808(5)
_cell_length_c                   13.931(3)
_cell_angle_alpha                90
_cell_angle_beta                 90
_cell_angle_gamma                90
_cell_volume                     1635.86
_exptl_crystal_colour            colorless
_exptl_crystal_description       bar
_cell_formula_units_Z            4
_exptl_crystal_recrystallization_method acetone/ethanol
loop_
_atom_site_label
_atom_site_type_symbol
_atom_site_fract_x
_atom_site_fract_y
_atom_site_fract_z
Cl1 Cl 0.90454(14) 0.52904(3) 0.19850(5)
Cl2 Cl 0.18254(15) 0.69703(3) 0.23025(7)
O1 O 0.9973(3) 0.57283(7) 0.00727(12)
O2 O 0.8577(4) 0.60800(8) -0.23670(12)
O3 O 0.6808(3) 0.53999(7) -0.14827(13)
C1 C 0.5471(5) 0.61429(10) 0.2019(2)
H3 H 0.5020 0.6018 0.2631
C2 C 0.8470(4) 0.57845(8) -0.16206(16)
C3 C 0.6758(5) 0.65057(10) 0.01831(19)
H4 H 0.7166 0.6629 -0.0433
C5 C 0.8059(4) 0.60339(9) 0.05484(16)
C6 C 1.0646(5) 0.59077(11) -0.08771(18)
H5 H 1.2313 0.5724 -0.1072
H6 H 1.0983 0.6309 -0.0867
C8 C 0.4222(5) 0.66116(11) 0.1635(2)
C9 C 0.4859(5) 0.67944(11) 0.0727(2)
H8 H 0.4016 0.7112 0.0477
C11 C 0.7402(5) 0.58614(10) 0.14810(17)
N1 N 0.5521(4) 0.57806(9) -0.38610(16)
H1 H 0.6477 0.5848 -0.3358
N2 N 0.3939(4) 0.53553(8) -0.51242(16)
H2 H 0.3716 0.5105 -0.5563
C4 C 0.3528(5) 0.61244(10) -0.42408(17)
C7 C 0.5692(5) 0.53288(10) -0.4412(2)
H7 H 0.6888 0.5033 -0.4310
C10 C 0.2510(5) 0.58563(10) -0.50448(18)
C12 C 0.2556(6) 0.66476(10) -0.3953(2)
H9 H 0.3238 0.6831 -0.3415
C13 C -0.0475(6) 0.66061(14) -0.5315(3)
H10 H -0.1831 0.6780 -0.5671
C14 C 0.0468(6) 0.60888(13) -0.5602(2)
H11 H -0.0224 0.5906 -0.6139
C15 C 0.0547(7) 0.68769(13) -0.4503(3)
H12 H -0.0161 0.7225 -0.4331
O4 O 0.8508(6) 0.72439(12) -0.1984(3)
H13 H 0.831(9) 0.696(2) -0.219(4)
H14 H 0.995(8) 0.7405(17) -0.194(3)
loop_
_geom_bond_atom_site_label_1
_geom_bond_atom_site_label_2
_geom_bond_site_symmetry_1
_geom_bond_site_symmetry_2
Cl1 C11 1_555 1_555
Cl2 C8 1_555 1_555
O1 C5 1_555 1_555
N1 H1 1_555 1_555
O2 C2 1_555 1_555
N2 H2 1_555 1_555
O3 C2 1_555 1_555
C1 H3 1_555 1_555
C2 C6 1_555 1_555
C3 H4 1_555 1_555
C4 N1 1_555 1_555
C5 C3 1_555 1_555
C6 O1 1_555 1_555
H5 C6 1_555 1_555
H6 C6 1_555 1_555
C7 N1 1_555 1_555
H7 C7 1_555 1_555
C8 C1 1_555 1_555
C9 C3 1_555 1_555
H8 C9 1_555 1_555
C10 N2 1_555 1_555
C11 C1 1_555 1_555
C12 C4 1_555 1_555
H9 C12 1_555 1_555
C13 H10 1_555 1_555
C14 C10 1_555 1_555
H11 C14 1_555 1_555
C15 C12 1_555 1_555
H12 C15 1_555 1_555
O4 H13 1_555 1_555
H14 O4 1_555 1_555
N2 C7 1_555 1_555
C4 C10 1_555 1_555
C5 C11 1_555 1_555
C8 C9 1_555 1_555
C13 C14 1_555 1_555
C13 C15 1_555 1_555

#END
