
#######################################################################
#
#                 Cambridge Crystallographic Data Centre
#                                CCDC 
#
#######################################################################
#
# If this CIF has been generated from an entry in the Cambridge 
# Structural Database, then it will include bibliographic, chemical, 
# crystal, experimental, refinement or atomic coordinate data resulting 
# from the CCDC's data processing and validation procedures.
#
#######################################################################

data_DUHZEN
_chemical_formula_moiety         'C48 H48 N32 O16,2(C12 H13 N2 1+),2(I1 1-)'
_chemical_name_systematic        
'bis(4-(4-aminophenyl)-1-methylpyridinium) cucurbit(8)uril bis(iodide) unknown solvate'
_symmetry_cell_setting           orthorhombic
_symmetry_space_group_name_H-M   'P n a 21'
_symmetry_Int_Tables_number      33
_space_group_name_Hall           'P 2c -2n'
loop_
_symmetry_equiv_pos_site_id
_symmetry_equiv_pos_as_xyz
1 x,y,z
2 -x,-y,1/2+z
3 1/2+x,1/2-y,z
4 1/2-x,1/2+y,1/2+z
_cell_length_a                   13.093(3)
_cell_length_b                   25.621(5)
_cell_length_c                   27.140(5)
_cell_angle_alpha                90
_cell_angle_beta                 90
_cell_angle_gamma                90
_cell_volume                     9104.27
_exptl_crystal_colour            colorless
_exptl_crystal_description       block
_cell_formula_units_Z            4
loop_
_atom_site_label
_atom_site_type_symbol
_atom_site_fract_x
_atom_site_fract_y
_atom_site_fract_z
I1 I 0.13789(16) 0.72796(6) 0.00792(8)
I2 I 0.97731(7) 0.25261(2) 0.05096(4)
O1 O 0.9891(3) -0.1068(2) 0.4671(2)
O2 O 0.5420(3) -0.1583(2) 0.4201(2)
O3 O 0.9056(4) 0.0253(2) 0.5050(2)
O4 O 0.4624(4) -0.0253(2) 0.4671(2)
O5 O 0.8666(4) 0.1500(3) 0.4320(2)
O6 O 0.4153(4) 0.1013(3) 0.4068(3)
O7 O 0.8876(3) 0.2209(2) 0.2971(2)
O8 O 0.4453(3) 0.1510(2) 0.2640(2)
O9 O 0.9589(3) 0.17075(17) 0.17488(19)
O10 O 0.5169(3) 0.1015(2) 0.1358(2)
O11 O 1.0420(4) 0.0326(2) 0.1367(2)
O12 O 0.5989(3) -0.0258(2) 0.0939(2)
O13 O 1.0799(4) -0.0962(3) 0.2041(2)
O14 O 0.6395(4) -0.1546(3) 0.1627(2)
O15 O 1.0669(4) -0.1570(2) 0.3389(3)
O16 O 0.6158(4) -0.2107(2) 0.2977(2)
N1 N 0.8770(4) -0.1726(2) 0.4460(3)
N2 N 0.8303(4) -0.1154(2) 0.5012(2)
N3 N 0.6530(3) -0.1329(2) 0.4829(2)
N4 N 0.7017(4) -0.1958(2) 0.4309(2)
N5 N 0.7792(4) -0.0298(2) 0.5288(3)
N6 N 0.7433(4) 0.0551(2) 0.5207(3)
N7 N 0.5653(4) 0.0348(2) 0.5067(2)
N8 N 0.5985(4) -0.0493(2) 0.5138(2)
N9 N 0.7195(4) 0.1340(2) 0.4738(2)
N10 N 0.7157(4) 0.1886(3) 0.4096(2)
N11 N 0.5338(4) 0.1675(2) 0.3970(2)
N12 N 0.5395(4) 0.1159(3) 0.4643(2)
N13 N 0.7234(4) 0.2264(3) 0.3287(3)
N14 N 0.7472(4) 0.2344(2) 0.2479(2)
N15 N 0.5691(4) 0.2048(2) 0.2346(2)
N16 N 0.5508(3) 0.1985(2) 0.3158(2)
N17 N 0.7964(4) 0.2022(2) 0.1672(2)
N18 N 0.8434(4) 0.1387(2) 0.1169(2)
N19 N 0.6697(4) 0.1170(2) 0.0956(2)
N20 N 0.6209(3) 0.17122(19) 0.15501(19)
N21 N 0.9027(4) 0.05431(19) 0.0879(2)
N22 N 0.9421(4) -0.0293(2) 0.0966(2)
N23 N 0.7654(4) -0.0522(2) 0.0804(3)
N24 N 0.7300(4) 0.0315(2) 0.0700(3)
N25 N 0.9671(4) -0.1104(2) 0.1396(2)
N26 N 0.9665(4) -0.1633(3) 0.2027(3)
N27 N 0.7959(4) -0.1885(3) 0.1869(2)
N28 N 0.7904(4) -0.1332(2) 0.1239(2)
N29 N 0.9563(4) -0.1980(3) 0.2866(2)
N30 N 0.9288(4) -0.2066(2) 0.3667(2)
N31 N 0.7505(4) -0.2259(2) 0.3501(2)
N32 N 0.7781(4) -0.2221(2) 0.2693(2)
C1 C 0.9068(4) -0.1297(3) 0.4704(3)
C2 C 0.7826(4) -0.1953(2) 0.4655(2)
H1 H 0.7933 -0.2292 0.4813
C3 C 0.6255(4) -0.1614(3) 0.4426(2)
C4 C 0.7497(4) -0.1515(3) 0.5028(3)
H2 H 0.7409 -0.1657 0.5361
C5 C 0.8409(5) -0.0746(3) 0.5381(3)
H3 H 0.8230 -0.0888 0.5701
H4 H 0.9119 -0.0638 0.5395
C6 C 0.5790(5) -0.1053(3) 0.5110(3)
H5 H 0.5777 -0.1194 0.5442
H6 H 0.5122 -0.1108 0.4965
C7 C 0.8202(5) 0.0183(3) 0.5175(2)
C8 C 0.6734(5) -0.0249(2) 0.5449(3)
H7 H 0.6659 -0.0367 0.5790
C9 C 0.5371(5) -0.0142(3) 0.4927(3)
C10 C 0.6519(5) 0.0340(2) 0.5408(3)
H8 H 0.6348 0.0495 0.5727
C11 C 0.7677(6) 0.1088(3) 0.5163(3)
H9 H 0.8413 0.1125 0.5136
H10 H 0.7464 0.1267 0.5461
C12 C 0.4985(6) 0.0788(3) 0.5006(4)
H11 H 0.4900 0.0963 0.5320
H12 H 0.4319 0.0667 0.4898
C13 C 0.7762(5) 0.1562(3) 0.4392(2)
C14 C 0.6148(5) 0.1533(2) 0.4747(3)
H13 H 0.6000 0.1717 0.5056
C15 C 0.4937(5) 0.1259(3) 0.4218(3)
C16 C 0.6119(5) 0.1908(2) 0.4303(3)
H14 H 0.5934 0.2263 0.4403
C17 C 0.7578(7) 0.2280(4) 0.3788(3)
H15 H 0.8316 0.2248 0.3792
H16 H 0.7407 0.2618 0.3926
C18 C 0.4897(5) 0.1953(4) 0.3601(4)
H17 H 0.4763 0.2304 0.3719
H18 H 0.4246 0.1795 0.3520
C19 C 0.7981(5) 0.2256(2) 0.2908(3)
C20 C 0.6266(5) 0.2403(2) 0.3111(2)
H19 H 0.6026 0.2732 0.3253
C21 C 0.5153(5) 0.1812(3) 0.2710(3)
C22 C 0.6388(5) 0.2438(2) 0.2524(2)
H20 H 0.6205 0.2786 0.2402
C23 C 0.8044(5) 0.2442(2) 0.2027(3)
H21 H 0.7795 0.2762 0.1878
H22 H 0.8758 0.2494 0.2109
C24 C 0.5460(5) 0.2008(3) 0.1846(3)
H23 H 0.5403 0.2357 0.1710
H24 H 0.4798 0.1842 0.1812
C25 C 0.8760(4) 0.1704(2) 0.1549(2)
C26 C 0.7106(4) 0.1955(2) 0.1337(3)
H25 H 0.6930 0.2286 0.1178
C27 C 0.5919(5) 0.1262(2) 0.1297(3)
C28 C 0.7481(5) 0.1557(2) 0.0959(3)
H26 H 0.7576 0.1715 0.0634
C29 C 0.9189(4) 0.1100(2) 0.0876(3)
H27 H 0.9164 0.1225 0.0539
H28 H 0.9866 0.1174 0.1004
C30 C 0.6615(4) 0.0762(3) 0.0604(3)
H29 H 0.6768 0.0902 0.0280
H30 H 0.5915 0.0638 0.0599
C31 C 0.9700(4) 0.0199(3) 0.1089(2)
C32 C 0.8317(4) 0.0288(2) 0.0544(2)
H31 H 0.8404 0.0402 0.0202
C33 C 0.6905(6) -0.0167(3) 0.0841(3)
C34 C 0.8611(4) -0.0301(2) 0.0620(2)
H32 H 0.8821 -0.0465 0.0310
C35 C 1.0064(5) -0.0744(3) 0.1040(3)
H33 H 1.0146 -0.0923 0.0728
H34 H 1.0734 -0.0628 0.1146
C36 C 0.7486(5) -0.1075(3) 0.0803(3)
H35 H 0.7798 -0.1224 0.0511
H36 H 0.6758 -0.1143 0.0787
C37 C 1.0151(4) -0.1196(3) 0.1844(3)
C38 C 0.8958(6) -0.1501(3) 0.1255(3)
H37 H 0.9163 -0.1674 0.0949
C39 C 0.7321(6) -0.1584(3) 0.1586(3)
C40 C 0.8985(5) -0.1881(3) 0.1699(3)
H38 H 0.9220 -0.2230 0.1605
C41 C 1.0183(5) -0.1935(4) 0.2428(3)
H39 H 1.0344 -0.2282 0.2308
H40 H 1.0820 -0.1764 0.2512
C42 C 0.7545(6) -0.2306(3) 0.2180(3)
H41 H 0.6810 -0.2324 0.2138
H42 H 0.7831 -0.2638 0.2075
C43 C 0.9896(4) -0.1838(3) 0.3320(3)
C44 C 0.8787(5) -0.2367(3) 0.2902(3)
H43 H 0.9024 -0.2698 0.2760
C45 C 0.7059(4) -0.2186(2) 0.3041(3)
C46 C 0.8566(4) -0.2430(2) 0.3436(2)
H44 H 0.8670 -0.2790 0.3547
C47 C 0.9494(4) -0.2038(2) 0.4194(2)
H45 H 0.9491 -0.2388 0.4329
H46 H 1.0171 -0.1893 0.4244
C48 C 0.6928(5) -0.2348(3) 0.3938(3)
H47 H 0.6214 -0.2379 0.3848
H48 H 0.7139 -0.2679 0.4078
N33 N 1.2415(6) 0.1349(5) 0.3251(6)
H49 H 1.2903 0.1366 0.3039
H50 H 1.2523 0.1437 0.3552
N34 N 0.6573(10) 0.0384(7) 0.2381(7)
C49 C 1.1523(9) 0.1191(3) 0.3116(4)
C50 C 1.1299(8) 0.1047(4) 0.2646(4)
H51 H 1.1817 0.1048 0.2412
C51 C 1.0268(8) 0.0889(4) 0.2495(4)
H52 H 1.0155 0.0779 0.2173
C52 C 0.9494(9) 0.0900(4) 0.2811(4)
C53 C 0.9672(11) 0.1049(4) 0.3285(4)
H53 H 0.9138 0.1044 0.3511
C54 C 1.0618(9) 0.1206(4) 0.3433(5)
H54 H 1.0693 0.1330 0.3753
C55 C 0.8472(11) 0.0758(4) 0.2658(4)
C56 C 0.7548(12) 0.0858(6) 0.2892(9)
H55 H 0.7584 0.1069 0.3170
C57 C 0.653(2) 0.0676(9) 0.2756(11)
H56 H 0.5927 0.0763 0.2922
C58 C 0.731(2) 0.0278(17) 0.2130(9)
H57 H 0.7225 0.0062 0.1858
C59 C 0.8289(15) 0.0467(10) 0.2235(6)
H58 H 0.8823 0.0398 0.2018
C60 C 0.546(2) 0.0188(12) 0.2283(13)
H59 H 0.5006 0.0341 0.2519
H60 H 0.5441 -0.0185 0.2312
H61 H 0.5257 0.0288 0.1957
N35 N 0.5501(8) 0.9592(10) 0.3571(6)
H62 H 0.5101 0.9756 0.3769
H63 H 0.5250 0.9387 0.3351
N36 N 1.1870(8) 0.9843(4) 0.3468(9)
C61 C 0.6484(11) 0.9653(9) 0.3604(6)
C62 C 0.7035(14) 0.9939(12) 0.3905(5)
H64 H 0.6689 1.0130 0.4143
C63 C 0.8144(9) 0.9982(6) 0.3895(4)
H65 H 0.8477 1.0206 0.4113
C64 C 0.8719(8) 0.9679(4) 0.3549(5)
C65 C 0.8160(8) 0.9343(5) 0.3184(6)
H66 H 0.8486 0.9156 0.2937
C66 C 0.7003(14) 0.9340(7) 0.3259(9)
H67 H 0.6617 0.9117 0.3063
C67 C 0.9744(11) 0.9703(4) 0.3525(7)
C68 C 1.0281(12) 0.9626(5) 0.3092(7)
H68 H 0.9948 0.9515 0.2808
C69 C 1.1384(15) 0.9722(6) 0.3090(8)
H69 H 1.1736 0.9691 0.2793
C70 C 1.1374(11) 0.9952(7) 0.3910(8)
H70 H 1.1725 1.0089 0.4179
C71 C 1.0346(11) 0.9850(7) 0.3933(8)
H71 H 1.0026 0.9880 0.4237
C72 C 1.2962(12) 0.9904(8) 0.3412(12)
H72 H 1.3258 1.0000 0.3722
H73 H 1.3098 1.0173 0.3173
H74 H 1.3254 0.9581 0.3301
loop_
_geom_bond_atom_site_label_1
_geom_bond_atom_site_label_2
_geom_bond_site_symmetry_1
_geom_bond_site_symmetry_2
O1 C1 1_555 1_555
O2 C3 1_555 1_555
O3 C7 1_555 1_555
O4 C9 1_555 1_555
O5 C13 1_555 1_555
O6 C15 1_555 1_555
O7 C19 1_555 1_555
O8 C21 1_555 1_555
O9 C25 1_555 1_555
O10 C27 1_555 1_555
O11 C31 1_555 1_555
O12 C33 1_555 1_555
O13 C37 1_555 1_555
O14 C39 1_555 1_555
O15 C43 1_555 1_555
O16 C45 1_555 1_555
N1 C1 1_555 1_555
N2 C1 1_555 1_555
N3 C3 1_555 1_555
N4 C2 1_555 1_555
N5 C5 1_555 1_555
N6 C7 1_555 1_555
N7 C9 1_555 1_555
N8 C6 1_555 1_555
N9 C11 1_555 1_555
N10 C13 1_555 1_555
N11 C15 1_555 1_555
N12 C12 1_555 1_555
N13 C17 1_555 1_555
N14 C19 1_555 1_555
N15 C21 1_555 1_555
N16 C18 1_555 1_555
N17 C23 1_555 1_555
N18 C25 1_555 1_555
N19 C27 1_555 1_555
N20 C24 1_555 1_555
N21 C29 1_555 1_555
N22 C31 1_555 1_555
N23 C33 1_555 1_555
N24 C30 1_555 1_555
N25 C35 1_555 1_555
N26 C37 1_555 1_555
N27 C39 1_555 1_555
N28 C36 1_555 1_555
N29 C41 1_555 1_555
N30 C43 1_555 1_555
N31 C45 1_555 1_555
N32 C42 1_555 1_555
C2 N1 1_555 1_555
H1 C2 1_555 1_555
C3 N4 1_555 1_555
C4 N2 1_555 1_555
H2 C4 1_555 1_555
C5 N2 1_555 1_555
H3 C5 1_555 1_555
H4 C5 1_555 1_555
C6 N3 1_555 1_555
H5 C6 1_555 1_555
H6 C6 1_555 1_555
C7 N5 1_555 1_555
C8 N5 1_555 1_555
H7 C8 1_555 1_555
C9 N8 1_555 1_555
C10 N6 1_555 1_555
H8 C10 1_555 1_555
C11 N6 1_555 1_555
H9 C11 1_555 1_555
H10 C11 1_555 1_555
C12 N7 1_555 1_555
H11 C12 1_555 1_555
H12 C12 1_555 1_555
C13 N9 1_555 1_555
C14 N9 1_555 1_555
H13 C14 1_555 1_555
C15 N12 1_555 1_555
C16 N10 1_555 1_555
H14 C16 1_555 1_555
C17 N10 1_555 1_555
H15 C17 1_555 1_555
H16 C17 1_555 1_555
C18 N11 1_555 1_555
H17 C18 1_555 1_555
H18 C18 1_555 1_555
C19 N13 1_555 1_555
C20 N13 1_555 1_555
H19 C20 1_555 1_555
C21 N16 1_555 1_555
C22 N14 1_555 1_555
H20 C22 1_555 1_555
C23 N14 1_555 1_555
H21 C23 1_555 1_555
H22 C23 1_555 1_555
C24 N15 1_555 1_555
H23 C24 1_555 1_555
H24 C24 1_555 1_555
C25 N17 1_555 1_555
C26 N17 1_555 1_555
H25 C26 1_555 1_555
C27 N20 1_555 1_555
C28 N18 1_555 1_555
H26 C28 1_555 1_555
C29 N18 1_555 1_555
H27 C29 1_555 1_555
H28 C29 1_555 1_555
C30 N19 1_555 1_555
H29 C30 1_555 1_555
H30 C30 1_555 1_555
C31 N21 1_555 1_555
C32 N21 1_555 1_555
H31 C32 1_555 1_555
C33 N24 1_555 1_555
C34 N22 1_555 1_555
H32 C34 1_555 1_555
C35 N22 1_555 1_555
H33 C35 1_555 1_555
H34 C35 1_555 1_555
C36 N23 1_555 1_555
H35 C36 1_555 1_555
H36 C36 1_555 1_555
C37 N25 1_555 1_555
C38 N25 1_555 1_555
H37 C38 1_555 1_555
C39 N28 1_555 1_555
C40 N26 1_555 1_555
H38 C40 1_555 1_555
C41 N26 1_555 1_555
H39 C41 1_555 1_555
H40 C41 1_555 1_555
C42 N27 1_555 1_555
H41 C42 1_555 1_555
H42 C42 1_555 1_555
C43 N29 1_555 1_555
C44 N29 1_555 1_555
H43 C44 1_555 1_555
C45 N32 1_555 1_555
C46 N30 1_555 1_555
H44 C46 1_555 1_555
C47 N1 1_555 1_555
H45 C47 1_555 1_555
H46 C47 1_555 1_555
C48 N4 1_555 1_555
H47 C48 1_555 1_555
H48 C48 1_555 1_555
N33 H49 1_555 1_555
H50 N33 1_555 1_555
N34 C57 1_555 1_555
C49 N33 1_555 1_555
C50 C49 1_555 1_555
H51 C50 1_555 1_555
C51 C50 1_555 1_555
H52 C51 1_555 1_555
C52 C51 1_555 1_555
C53 C52 1_555 1_555
H53 C53 1_555 1_555
C54 C49 1_555 1_555
H54 C54 1_555 1_555
C55 C52 1_555 1_555
C56 C55 1_555 1_555
H55 C56 1_555 1_555
C57 C56 1_555 1_555
H56 C57 1_555 1_555
C58 N34 1_555 1_555
H57 C58 1_555 1_555
C59 C55 1_555 1_555
H58 C59 1_555 1_555
C60 N34 1_555 1_555
H59 C60 1_555 1_555
H60 C60 1_555 1_555
H61 C60 1_555 1_555
N35 H62 1_555 1_555
H63 N35 1_555 1_555
N36 C69 1_555 1_555
C61 N35 1_555 1_555
C62 C61 1_555 1_555
H64 C62 1_555 1_555
C63 C62 1_555 1_555
H65 C63 1_555 1_555
C64 C63 1_555 1_555
C65 C64 1_555 1_555
H66 C65 1_555 1_555
C66 C61 1_555 1_555
H67 C66 1_555 1_555
C67 C64 1_555 1_555
C68 C67 1_555 1_555
H68 C68 1_555 1_555
C69 C68 1_555 1_555
H69 C69 1_555 1_555
C70 N36 1_555 1_555
H70 C70 1_555 1_555
C71 C67 1_555 1_555
H71 C71 1_555 1_555
C72 N36 1_555 1_555
H72 C72 1_555 1_555
H73 C72 1_555 1_555
H74 C72 1_555 1_555
N3 C4 1_555 1_555
N7 C10 1_555 1_555
N8 C8 1_555 1_555
N11 C16 1_555 1_555
N12 C14 1_555 1_555
N15 C22 1_555 1_555
N16 C20 1_555 1_555
N19 C28 1_555 1_555
N20 C26 1_555 1_555
N23 C34 1_555 1_555
N24 C32 1_555 1_555
N27 C40 1_555 1_555
N28 C38 1_555 1_555
N30 C47 1_555 1_555
N31 C46 1_555 1_555
N31 C48 1_555 1_555
N32 C44 1_555 1_555
C2 C4 1_555 1_555
C8 C10 1_555 1_555
C14 C16 1_555 1_555
C20 C22 1_555 1_555
C26 C28 1_555 1_555
C32 C34 1_555 1_555
C38 C40 1_555 1_555
C44 C46 1_555 1_555
C53 C54 1_555 1_555
C58 C59 1_555 1_555
C65 C66 1_555 1_555
C70 C71 1_555 1_555

#END
