
#######################################################################
#
#                 Cambridge Crystallographic Data Centre
#                                CCDC 
#
#######################################################################
#
# If this CIF has been generated from an entry in the Cambridge 
# Structural Database, then it will include bibliographic, chemical, 
# crystal, experimental, refinement or atomic coordinate data resulting 
# from the CCDC's data processing and validation procedures.
#
#######################################################################

data_DUHZAJ
_chemical_formula_moiety         'C21 H18 F1 N1 O2'
_chemical_name_systematic        
1-ethyl-5-fluoro-3-(4-methoxyphenyl)-2-methylindeno[2,1-b]pyrrol-8(1H)-one
_symmetry_cell_setting           monoclinic
_symmetry_space_group_name_H-M   'C 2/c'
_symmetry_Int_Tables_number      15
_space_group_name_Hall           '-C 2yn'
loop_
_symmetry_equiv_pos_site_id
_symmetry_equiv_pos_as_xyz
1 x,y,z
2 -x,y,1/2-z
3 1/2+x,1/2+y,z
4 1/2-x,1/2+y,1/2-z
5 -x,-y,-z
6 x,-y,1/2+z
7 1/2-x,1/2-y,-z
8 1/2+x,1/2-y,1/2+z
_cell_length_a                   40.945(4)
_cell_length_b                   4.8118(6)
_cell_length_c                   18.9940(17)
_cell_angle_alpha                90
_cell_angle_beta                 114.230(3)
_cell_angle_gamma                90
_cell_volume                     3412.52
_exptl_crystal_colour            red
_exptl_crystal_description       block
_cell_formula_units_Z            8
loop_
_atom_site_label
_atom_site_type_symbol
_atom_site_fract_x
_atom_site_fract_y
_atom_site_fract_z
N1 N 0.66238(10) 0.6806(8) 0.3730(2)
O1 O 0.73586(8) 0.4117(7) 0.37346(19)
O2 O 0.46593(9) 0.3662(8) 0.0780(2)
F1 F 0.63630(7) -0.2639(7) 0.06568(17)
C1 C 0.70493(12) 0.3795(10) 0.3292(3)
C2 C 0.67217(13) 0.4974(9) 0.3289(3)
C3 C 0.62595(13) 0.6997(9) 0.3420(3)
C4 C 0.61148(12) 0.5296(9) 0.2759(3)
C5 C 0.64145(12) 0.4045(9) 0.2697(3)
C6 C 0.65259(11) 0.2086(9) 0.2231(3)
C7 C 0.63400(12) 0.0554(9) 0.1582(3)
H1 H 0.6091 0.0613 0.1337
C8 C 0.65446(13) -0.1121(10) 0.1306(3)
C9 C 0.69082(12) -0.1297(10) 0.1640(3)
H2 H 0.7030 -0.2434 0.1432
C10 C 0.70945(12) 0.0282(9) 0.2304(3)
H3 H 0.7343 0.0209 0.2548
C11 C 0.69024(12) 0.1954(9) 0.2592(3)
C12 C 0.68810(12) 0.8183(10) 0.4436(3)
H4 H 0.6773 0.9858 0.4528
H5 H 0.7092 0.8722 0.4357
C13 C 0.69917(13) 0.6338(10) 0.5131(3)
H6 H 0.6784 0.5802 0.5213
H7 H 0.7155 0.7322 0.5576
H8 H 0.7107 0.4709 0.5051
C14 C 0.60668(12) 0.8718(9) 0.3786(2)
H9 H 0.6118 0.8019 0.4294
H10 H 0.5814 0.8626 0.3477
H11 H 0.6145 1.0613 0.3822
C15 C 0.57364(12) 0.4912(9) 0.2239(3)
C16 C 0.5502(2) 0.7115(19) 0.1964(5)
H12 H 0.5585 0.8912 0.2111
C17 C 0.5148(2) 0.6721(19) 0.1476(5)
H13 H 0.4994 0.8235 0.1304
C18 C 0.50179(13) 0.3994(10) 0.1236(3)
C19 C 0.5261(2) 0.1789(19) 0.1454(5)
H14 H 0.5185 0.0007 0.1270
C20 C 0.5617(2) 0.2270(19) 0.1949(5)
H15 H 0.5779 0.0799 0.2088
C21 C 0.4541(3) 0.107(2) 0.0426(7)
H16 H 0.4288 0.1138 0.0117
H17 H 0.4592 -0.0337 0.0816
H18 H 0.4663 0.0629 0.0103
C22? C 0.5461(2) 0.4621(18) 0.2549(5)
H19? H 0.5527 0.4720 0.3078
C23? C 0.5107(2) 0.4201(18) 0.2054(5)
H20? H 0.4930 0.4056 0.2242
C24? C 0.5267(2) 0.4261(17) 0.0967(5)
H21? H 0.5206 0.4138 0.0439
C25? C 0.5618(2) 0.4721(18) 0.1469(5)
H22? H 0.5786 0.4913 0.1259
C26? C 0.4528(3) 0.313(3) 0.0027(6)
H23? H 0.4548 0.4763 -0.0244
H24? H 0.4280 0.2616 -0.0152
H25? H 0.4660 0.1637 -0.0067
loop_
_geom_bond_atom_site_label_1
_geom_bond_atom_site_label_2
_geom_bond_site_symmetry_1
_geom_bond_site_symmetry_2
N1 C2 1_555 1_555
O1 C1 1_555 1_555
O2 C18 1_555 1_555
F1 C8 1_555 1_555
C1 C2 1_555 1_555
C2 C5 1_555 1_555
C3 N1 1_555 1_555
C4 C3 1_555 1_555
C5 C4 1_555 1_555
C6 C5 1_555 1_555
C7 C6 1_555 1_555
H1 C7 1_555 1_555
C8 C7 1_555 1_555
C9 C8 1_555 1_555
H2 C9 1_555 1_555
C10 C9 1_555 1_555
H3 C10 1_555 1_555
C11 C1 1_555 1_555
C12 N1 1_555 1_555
H4 C12 1_555 1_555
H5 C12 1_555 1_555
C13 C12 1_555 1_555
H6 C13 1_555 1_555
H7 C13 1_555 1_555
H8 C13 1_555 1_555
C14 C3 1_555 1_555
H9 C14 1_555 1_555
H10 C14 1_555 1_555
H11 C14 1_555 1_555
C15 C4 1_555 1_555
C16 C15 1_555 1_555
H12 C16 1_555 1_555
C17 C16 1_555 1_555
H13 C17 1_555 1_555
C18 C17 1_555 1_555
C19 C18 1_555 1_555
H14 C19 1_555 1_555
C20 C15 1_555 1_555
H15 C20 1_555 1_555
C21 O2 1_555 1_555
H16 C21 1_555 1_555
H17 C21 1_555 1_555
H18 C21 1_555 1_555
C6 C11 1_555 1_555
C10 C11 1_555 1_555
C19 C20 1_555 1_555

#END
