
#######################################################################
#
#                 Cambridge Crystallographic Data Centre
#                                CCDC 
#
#######################################################################
#
# If this CIF has been generated from an entry in the Cambridge 
# Structural Database, then it will include bibliographic, chemical, 
# crystal, experimental, refinement or atomic coordinate data resulting 
# from the CCDC's data processing and validation procedures.
#
#######################################################################

data_DUJGIZ
_chemical_formula_moiety         'C5 H5 N1 O3'
_chemical_name_systematic        '5-Methylisoxazole-4-carboxylic acid'
_symmetry_cell_setting           orthorhombic
_symmetry_space_group_name_H-M   'P n m a'
_symmetry_Int_Tables_number      62
_space_group_name_Hall           '-P 2ac 2n'
loop_
_symmetry_equiv_pos_site_id
_symmetry_equiv_pos_as_xyz
1 x,y,z
2 1/2-x,-y,1/2+z
3 1/2+x,1/2-y,1/2-z
4 -x,1/2+y,-z
5 -x,-y,-z
6 1/2+x,y,1/2-z
7 1/2-x,1/2+y,1/2+z
8 x,1/2-y,z
_cell_length_a                   7.2540(15)
_cell_length_b                   6.4700(13)
_cell_length_c                   12.273(3)
_cell_angle_alpha                90
_cell_angle_beta                 90
_cell_angle_gamma                90
_cell_volume                     576.013
_exptl_crystal_colour            colorless
_exptl_crystal_description       block
_cell_formula_units_Z            4
_exptl_crystal_recrystallization_method ethanol
loop_
_atom_site_label
_atom_site_type_symbol
_atom_site_fract_x
_atom_site_fract_y
_atom_site_fract_z
C1 C 0.5625(4) 0.2500 0.5646(2)
C2 C 0.7524(3) 0.2500 0.52268(19)
C3 C 0.8152(3) 0.2500 0.4188(2)
C4 C 0.9135(3) 0.2500 0.5867(2)
H1 H 0.9130 0.2500 0.6625
C5 C 0.7282(5) 0.2500 0.3096(3)
H2 H 0.770(4) 0.139(4) 0.269(2)
H3 H 0.601(3) 0.2500 0.314(4)
N1 N 1.0626(3) 0.2500 0.52849(19)
O1 O 0.4365(2) 0.2500 0.48671(16)
H4 H 0.3301 0.2500 0.5157
O2 O 0.5268(3) 0.2500 0.65992(16)
O3 O 1.0006(2) 0.2500 0.41956(14)
H2G H 0.770(4) 0.361(4) 0.269(2)
loop_
_geom_bond_atom_site_label_1
_geom_bond_atom_site_label_2
_geom_bond_site_symmetry_1
_geom_bond_site_symmetry_2
C1 C2 1_555 1_555
C2 C3 1_555 1_555
C3 C5 1_555 1_555
C4 C2 1_555 1_555
H1 C4 1_555 1_555
C5 H2 1_555 1_555
H3 C5 1_555 1_555
N1 C4 1_555 1_555
O1 C1 1_555 1_555
H4 O1 1_555 1_555
O2 C1 1_555 1_555
O3 C3 1_555 1_555
H2G C5 1_555 1_555
N1 O3 1_555 1_555

#END
