
#######################################################################
#
#                 Cambridge Crystallographic Data Centre
#                                CCDC 
#
#######################################################################
#
# If this CIF has been generated from an entry in the Cambridge 
# Structural Database, then it will include bibliographic, chemical, 
# crystal, experimental, refinement or atomic coordinate data resulting 
# from the CCDC's data processing and validation procedures.
#
#######################################################################

data_DUJKOJ
_chemical_name_common            
'Amino(2-isopropylidenehydrazino)methaniminium 3-nitrobenzoate hemihydrate'
_chemical_formula_moiety         'C4 H11 N4 1+,C7 H4 N1 O4 1-,0.5(H2 O1)'
_chemical_name_systematic        
'1-(isopropylideneamino)guanidin-2-ium 3-nitrobenzoate hemihydrate'
_symmetry_cell_setting           monoclinic
_symmetry_space_group_name_H-M   'P 21/c'
_symmetry_Int_Tables_number      14
_space_group_name_Hall           '-P 2ybc'
loop_
_symmetry_equiv_pos_site_id
_symmetry_equiv_pos_as_xyz
1 x,y,z
2 -x,1/2+y,1/2-z
3 -x,-y,-z
4 x,1/2-y,1/2+z
_cell_length_a                   16.5833(6)
_cell_length_b                   22.2457(10)
_cell_length_c                   7.5424(3)
_cell_angle_alpha                90
_cell_angle_beta                 92.232(2)
_cell_angle_gamma                90
_cell_volume                     2780.33
_exptl_crystal_colour            colorless
_exptl_crystal_description       prism
_chemical_melting_point          '435-436 K'
_cell_formula_units_Z            8
_exptl_crystal_recrystallization_method acetone
loop_
_atom_site_label
_atom_site_type_symbol
_atom_site_fract_x
_atom_site_fract_y
_atom_site_fract_z
O1 O 0.53214(10) 0.81252(8) 0.2856(2)
O2 O 0.51509(10) 0.71297(8) 0.2780(2)
O3 O 0.80185(12) 0.89030(10) 0.4371(3)
O4 O 0.90614(12) 0.83281(11) 0.4219(4)
N1 N 0.83303(14) 0.84104(12) 0.4178(3)
C1 C 0.55819(14) 0.75937(12) 0.2933(3)
C2 C 0.64799(14) 0.74986(11) 0.3288(3)
C3 C 0.69888(15) 0.79915(12) 0.3527(3)
H1 H 0.6783 0.8390 0.3448
C4 C 0.77989(15) 0.78874(13) 0.3881(3)
C5 C 0.81320(16) 0.73169(13) 0.3984(4)
H2 H 0.8695 0.7262 0.4200
C6 C 0.76174(16) 0.68290(13) 0.3763(4)
H3 H 0.7825 0.6432 0.3850
C7 C 0.68044(15) 0.69216(12) 0.3418(3)
H4 H 0.6457 0.6584 0.3265
O5 O -0.11247(11) 0.93385(11) 0.1007(3)
O6 O -0.03790(12) 0.86476(10) -0.0110(3)
O7 O 0.24821(10) 0.86769(8) 0.0634(2)
O8 O 0.31194(9) 0.93239(8) 0.2451(2)
N2 N -0.04684(13) 0.91043(12) 0.0778(3)
C8 C 0.24919(14) 0.91177(11) 0.1672(3)
C9 C 0.16892(14) 0.94107(11) 0.1993(3)
C10 C 0.09944(14) 0.91448(12) 0.1272(3)
H5 H 0.1030 0.8790 0.0578
C11 C 0.02547(14) 0.93963(12) 0.1564(3)
C12 C 0.01764(16) 0.99132(13) 0.2560(4)
H6 H -0.0341 1.0078 0.2759
C13 C 0.08689(16) 1.01847(13) 0.3262(4)
H7 H 0.0829 1.0542 0.3943
C14 C 0.16210(15) 0.99375(12) 0.2974(3)
H8 H 0.2093 1.0129 0.3451
N3 N 0.36556(12) 0.70834(10) 0.4243(3)
H9 H 0.4153 0.7070 0.3880
H10 H 0.3406 0.6749 0.4518
N4 N 0.36412(12) 0.81090(10) 0.3975(3)
H11 H 0.4139 0.8106 0.3609
H12 H 0.3381 0.8452 0.4073
N5 N 0.25179(11) 0.75952(9) 0.4934(3)
H13 H 0.2268 0.7253 0.5121
N6 N 0.21349(12) 0.81397(9) 0.5205(3)
C15 C 0.32863(14) 0.76011(11) 0.4374(3)
C16 C 0.14172(14) 0.81102(12) 0.5791(3)
C17 C 0.09737(16) 0.75369(13) 0.6148(4)
H14 H 0.0884 0.7315 0.5035
H15 H 0.0453 0.7631 0.6651
H16 H 0.1295 0.7291 0.6990
C18 C 0.09902(16) 0.86897(13) 0.6092(4)
H17 H 0.1345 0.9026 0.5810
H18 H 0.0845 0.8716 0.7337
H19 H 0.0500 0.8708 0.5326
N7 N 0.53461(12) 0.89118(9) 0.5808(3)
H20 H 0.5064 0.8672 0.6476
H21 H 0.5489 0.8791 0.4755
N8 N 0.53482(12) 0.96461(9) 0.7968(3)
H22 H 0.5066 0.9415 0.8660
H23 H 0.5495 1.0008 0.8325
N9 N 0.59766(12) 0.98184(9) 0.5355(3)
H24 H 0.6083 1.0193 0.5655
N10 N 0.62350(12) 0.95652(9) 0.3776(3)
C19 C 0.55533(14) 0.94484(11) 0.6384(3)
C20 C 0.66388(14) 0.99055(12) 0.2777(3)
C21 C 0.69303(16) 0.96204(14) 0.1118(3)
H25 H 0.6731 0.9206 0.1033
H26 H 0.7522 0.9619 0.1154
H27 H 0.6729 0.9850 0.0083
C22 C 0.68386(17) 1.05488(13) 0.3123(4)
H28 H 0.6343 1.0771 0.3352
H29 H 0.7092 1.0720 0.2085
H30 H 0.7212 1.0578 0.4159
O9 O 0.45485(10) 0.90793(8) 0.0851(2)
H31 H 0.4854 0.8820 0.1333
H32 H 0.4102 0.9100 0.1336
loop_
_geom_bond_atom_site_label_1
_geom_bond_atom_site_label_2
_geom_bond_site_symmetry_1
_geom_bond_site_symmetry_2
O1 C1 1_555 1_555
O2 C1 1_555 1_555
O3 N1 1_555 1_555
O4 N1 1_555 1_555
N1 C4 1_555 1_555
C1 C2 1_555 1_555
C2 C3 1_555 1_555
C3 H1 1_555 1_555
C4 C3 1_555 1_555
C5 C4 1_555 1_555
H2 C5 1_555 1_555
C6 C5 1_555 1_555
H3 C6 1_555 1_555
C7 C2 1_555 1_555
H4 C7 1_555 1_555
O5 N2 1_555 1_555
O6 N2 1_555 1_555
O7 C8 1_555 1_555
O8 C8 1_555 1_555
N2 C11 1_555 1_555
C8 C9 1_555 1_555
C9 C10 1_555 1_555
C10 H5 1_555 1_555
C11 C10 1_555 1_555
C12 C11 1_555 1_555
H6 C12 1_555 1_555
C13 C12 1_555 1_555
H7 C13 1_555 1_555
C14 C9 1_555 1_555
H8 C14 1_555 1_555
N3 H9 1_555 1_555
H10 N3 1_555 1_555
N4 H11 1_555 1_555
H12 N4 1_555 1_555
N5 H13 1_555 1_555
N6 N5 1_555 1_555
C15 N3 1_555 1_555
C16 N6 1_555 1_555
C17 C16 1_555 1_555
H14 C17 1_555 1_555
H15 C17 1_555 1_555
H16 C17 1_555 1_555
C18 C16 1_555 1_555
H17 C18 1_555 1_555
H18 C18 1_555 1_555
H19 C18 1_555 1_555
N7 H20 1_555 1_555
H21 N7 1_555 1_555
N8 H22 1_555 1_555
H23 N8 1_555 1_555
N9 H24 1_555 1_555
N10 N9 1_555 1_555
C19 N7 1_555 1_555
C20 N10 1_555 1_555
C21 C20 1_555 1_555
H25 C21 1_555 1_555
H26 C21 1_555 1_555
H27 C21 1_555 1_555
C22 C20 1_555 1_555
H28 C22 1_555 1_555
H29 C22 1_555 1_555
H30 C22 1_555 1_555
O9 H31 1_555 1_555
H32 O9 1_555 1_555
C6 C7 1_555 1_555
C13 C14 1_555 1_555
N4 C15 1_555 1_555
N5 C15 1_555 1_555
N8 C19 1_555 1_555
N9 C19 1_555 1_555

#END
