
#######################################################################
#
#                 Cambridge Crystallographic Data Centre
#                                CCDC 
#
#######################################################################
#
# If this CIF has been generated from an entry in the Cambridge 
# Structural Database, then it will include bibliographic, chemical, 
# crystal, experimental, refinement or atomic coordinate data resulting 
# from the CCDC's data processing and validation procedures.
#
#######################################################################

data_DUJLOL
_chemical_formula_moiety         'C28 H23 B3 N2 O3,0.5(C6 H6)'
_chemical_name_systematic        
'4-(Pyridin-4-yl)-1-(2,4,6-triphenyl-1,3,5,2,4\l^5^,6-trioxatriborinan-2-yl)-1\l^5^-pyridine benzene solvate'
_symmetry_cell_setting           monoclinic
_symmetry_space_group_name_H-M   'P 21/n'
_symmetry_Int_Tables_number      14
_space_group_name_Hall           '-P 2yn'
loop_
_symmetry_equiv_pos_site_id
_symmetry_equiv_pos_as_xyz
1 x,y,z
2 1/2-x,1/2+y,1/2-z
3 -x,-y,-z
4 1/2+x,1/2-y,1/2+z
_cell_length_a                   11.603(7)
_cell_length_b                   14.671(9)
_cell_length_c                   17.144(10)
_cell_angle_alpha                90
_cell_angle_beta                 102.715(8)
_cell_angle_gamma                90
_cell_volume                     2846.81
_exptl_crystal_colour            colorless
_exptl_crystal_description       block
_cell_formula_units_Z            4
loop_
_atom_site_label
_atom_site_type_symbol
_atom_site_fract_x
_atom_site_fract_y
_atom_site_fract_z
O1 O 0.16218(10) 0.61571(9) 0.22415(8)
O2 O 0.25299(10) 0.76110(9) 0.24813(8)
O3 O 0.12436(11) 0.70417(9) 0.33158(8)
N1 N 0.10774(12) 0.86458(10) 0.28758(9)
N2 N -0.28069(15) 1.23785(13) 0.17361(13)
B1 B 0.19965(19) 0.77777(14) 0.31615(13)
B2 B 0.23497(17) 0.68270(15) 0.20526(13)
B3 B 0.10733(18) 0.62741(15) 0.28729(14)
C1 C 0.13861(15) 0.93451(13) 0.24630(11)
H1 H 0.2118 0.9329 0.2327
C2 C 0.06669(15) 1.00841(13) 0.22331(11)
H2 H 0.0908 1.0550 0.1937
C3 C -0.04197(15) 1.01353(13) 0.24420(10)
C4 C -0.07210(16) 0.94110(14) 0.28808(12)
H3 H -0.1437 0.9420 0.3041
C5 C 0.00304(15) 0.86820(13) 0.30800(12)
H4 H -0.0196 0.8200 0.3365
C6 C -0.12246(15) 1.09259(13) 0.22085(12)
C7 C -0.12838(17) 1.13866(15) 0.15048(13)
H5 H -0.0786 1.1223 0.1171
C8 C -0.20786(19) 1.20928(15) 0.12891(15)
H6 H -0.2105 1.2384 0.0804
C9 C -0.19788(17) 1.12207(15) 0.26780(13)
H7 H -0.1975 1.0939 0.3165
C10 C -0.27376(18) 1.19370(17) 0.24175(15)
H8 H -0.3236 1.2122 0.2745
C11 C 0.29206(16) 0.80957(12) 0.39455(11)
C12 C 0.40751(18) 0.83133(15) 0.39399(14)
H9 H 0.4332 0.8259 0.3465
C13 C 0.4868(2) 0.8613(2) 0.46246(18)
H10 H 0.5639 0.8758 0.4597
C14 C 0.4537(3) 0.8694(2) 0.53159(17)
H11 H 0.5072 0.8891 0.5771
C15 C 0.3417(3) 0.8488(2) 0.53502(16)
H12 H 0.3178 0.8553 0.5830
C16 C 0.2610(2) 0.8176(2) 0.46700(14)
H13 H 0.1848 0.8020 0.4711
C17 C 0.02483(15) 0.55068(13) 0.30718(12)
C18 C -0.01870(18) 0.55382(15) 0.37602(14)
H14 H 0.0029 0.6019 0.4116
C19 C -0.0936(2) 0.48721(19) 0.39310(17)
H15 H -0.1210 0.4899 0.4401
C20 C -0.1275(2) 0.41616(18) 0.3395(2)
H16 H -0.1784 0.3712 0.3503
C21 C -0.0865(2) 0.41242(18) 0.2713(2)
H17 H -0.1098 0.3650 0.2352
C22 C -0.01089(19) 0.47801(15) 0.25527(16)
H18 H 0.0172 0.4739 0.2086
C23 C 0.29978(15) 0.66573(13) 0.13591(11)
C24 C 0.28334(17) 0.58561(14) 0.09084(12)
H19 H 0.2300 0.5421 0.1007
C25 C 0.3452(2) 0.56989(18) 0.03180(14)
H20 H 0.3325 0.5165 0.0019
C26 C 0.4252(2) 0.6328(2) 0.01714(15)
H21 H 0.4674 0.6217 -0.0221
C27 C 0.4429(2) 0.71198(18) 0.06032(16)
H22 H 0.4969 0.7548 0.0502
C28 C 0.38044(18) 0.72834(15) 0.11907(13)
H23 H 0.3929 0.7825 0.1478
C29? C -0.1799(4) 0.0260(9) 0.9539(4)
C30? C -0.1006(11) 0.1089(6) 0.9495(4)
C31? C 0.0298(8) 0.0517(8) 0.9933(4)
C32? C 0.1437(15) 0.0497(8) 1.0182(7)
C33? C 0.047(4) 0.1118(17) 0.9763(19)
loop_
_geom_bond_atom_site_label_1
_geom_bond_atom_site_label_2
_geom_bond_site_symmetry_1
_geom_bond_site_symmetry_2
O1 B2 1_555 1_555
O2 B1 1_555 1_555
O3 B1 1_555 1_555
N1 B1 1_555 1_555
N2 C8 1_555 1_555
B1 C11 1_555 1_555
B2 O2 1_555 1_555
B3 O1 1_555 1_555
C1 N1 1_555 1_555
H1 C1 1_555 1_555
C2 C1 1_555 1_555
H2 C2 1_555 1_555
C3 C2 1_555 1_555
C4 C3 1_555 1_555
H3 C4 1_555 1_555
C5 N1 1_555 1_555
H4 C5 1_555 1_555
C6 C3 1_555 1_555
C7 C6 1_555 1_555
H5 C7 1_555 1_555
C8 C7 1_555 1_555
H6 C8 1_555 1_555
C9 C6 1_555 1_555
H7 C9 1_555 1_555
C10 N2 1_555 1_555
H8 C10 1_555 1_555
C11 C12 1_555 1_555
C12 H9 1_555 1_555
C13 C12 1_555 1_555
H10 C13 1_555 1_555
C14 C13 1_555 1_555
H11 C14 1_555 1_555
C15 C14 1_555 1_555
H12 C15 1_555 1_555
C16 C11 1_555 1_555
H13 C16 1_555 1_555
C17 B3 1_555 1_555
C18 C17 1_555 1_555
H14 C18 1_555 1_555
C19 C18 1_555 1_555
H15 C19 1_555 1_555
C20 C19 1_555 1_555
H16 C20 1_555 1_555
C21 C20 1_555 1_555
H17 C21 1_555 1_555
C22 C17 1_555 1_555
H18 C22 1_555 1_555
C23 B2 1_555 1_555
C24 C23 1_555 1_555
H19 C24 1_555 1_555
C25 C24 1_555 1_555
H20 C25 1_555 1_555
C26 C25 1_555 1_555
H21 C26 1_555 1_555
C27 C26 1_555 1_555
H22 C27 1_555 1_555
C28 C23 1_555 1_555
H23 C28 1_555 1_555
O3 B3 1_555 1_555
C4 C5 1_555 1_555
C9 C10 1_555 1_555
C15 C16 1_555 1_555
C21 C22 1_555 1_555
C27 C28 1_555 1_555

#END
