
#######################################################################
#
#                 Cambridge Crystallographic Data Centre
#                                CCDC 
#
#######################################################################
#
# If this CIF has been generated from an entry in the Cambridge 
# Structural Database, then it will include bibliographic, chemical, 
# crystal, experimental, refinement or atomic coordinate data resulting 
# from the CCDC's data processing and validation procedures.
#
#######################################################################

data_DUJLUR
_chemical_formula_moiety         'C46 H38 B6 N2 O6,C6 H14'
_chemical_name_systematic        
"1,1'-bis(2,4,6-Triphenyl-1,3,5,2,4,6\l^5^-trioxatriborinan-2-yl)-4,4'-bi-1\l^5^-pyridine n-hexane solvate"
_symmetry_cell_setting           monoclinic
_symmetry_space_group_name_H-M   'P 21/c'
_symmetry_Int_Tables_number      14
_space_group_name_Hall           '-P 2ybc'
loop_
_symmetry_equiv_pos_site_id
_symmetry_equiv_pos_as_xyz
1 x,y,z
2 -x,1/2+y,1/2-z
3 -x,-y,-z
4 x,1/2-y,1/2+z
_cell_length_a                   11.594(4)
_cell_length_b                   14.900(5)
_cell_length_c                   15.044(5)
_cell_angle_alpha                90
_cell_angle_beta                 108.256(5)
_cell_angle_gamma                90
_cell_volume                     2468.05
_exptl_crystal_colour            colorless
_exptl_crystal_description       block
_cell_formula_units_Z            2
loop_
_atom_site_label
_atom_site_type_symbol
_atom_site_fract_x
_atom_site_fract_y
_atom_site_fract_z
O1 O 0.4973(3) 0.8043(2) 0.2341(2)
O2 O 0.5015(3) 0.95370(19) 0.1818(2)
O3 O 0.6457(3) 0.85007(19) 0.1592(2)
N1 N 0.5724(3) 0.6920(2) 0.1443(2)
B1 B 0.6090(5) 0.7829(3) 0.2137(4)
B2 B 0.4464(5) 0.8869(4) 0.2185(3)
B3 B 0.5988(5) 0.9345(4) 0.1508(4)
C1 C 0.7161(4) 0.7515(3) 0.3050(3)
C2 C 0.8372(5) 0.7518(3) 0.3085(4)
H1 H 0.8569 0.7724 0.2567
C3 C 0.9288(6) 0.7230(5) 0.3854(5)
H2 H 1.0090 0.7242 0.3854
C4 C 0.9011(7) 0.6924(5) 0.4621(5)
H3 H 0.9621 0.6724 0.5147
C5 C 0.7839(7) 0.6917(4) 0.4601(4)
H4 H 0.7648 0.6708 0.5121
C6 C 0.6922(5) 0.7211(4) 0.3835(4)
H5 H 0.6125 0.7204 0.3848
C7 C 0.3296(4) 0.9076(3) 0.2440(3)
C8 C 0.2923(5) 0.8494(4) 0.3008(5)
H6 H 0.3377 0.7983 0.3243
C9 C 0.1870(7) 0.8671(5) 0.3228(6)
H7 H 0.1632 0.8274 0.3615
C10 C 0.1176(6) 0.9406(5) 0.2895(6)
H8 H 0.0465 0.9508 0.3041
C11 C 0.1545(6) 0.9989(4) 0.2343(5)
H9 H 0.1079 1.0492 0.2101
C12 C 0.2604(5) 0.9836(4) 0.2143(4)
H10 H 0.2864 1.0260 0.1794
C13 C 0.6528(4) 1.0110(3) 0.1053(3)
C14 C 0.7639(5) 1.0037(3) 0.0921(4)
H11 H 0.8104 0.9527 0.1137
C15 C 0.8091(6) 1.0696(5) 0.0477(4)
H12 H 0.8835 1.0613 0.0374
C16 C 0.7461(7) 1.1457(5) 0.0193(4)
H13 H 0.7775 1.1905 -0.0096
C17 C 0.6365(6) 1.1571(4) 0.0327(4)
H14 H 0.5930 1.2099 0.0135
C18 C 0.5895(5) 1.0897(3) 0.0754(3)
H15 H 0.5141 1.0978 0.0839
C19 C 0.6367(6) 0.6691(5) 0.0909(5)
H16 H 0.7023 0.7050 0.0906
C20 C 0.6119(6) 0.5939(4) 0.0346(5)
H17 H 0.6619 0.5796 -0.0010
C21 C 0.5157(4) 0.5403(3) 0.0304(3)
C22 C 0.4507(5) 0.5654(4) 0.0867(4)
H18 H 0.3845 0.5307 0.0879
C23 C 0.4794(5) 0.6407(4) 0.1422(4)
H19 H 0.4316 0.6557 0.1795
O1B O 0.5027(3) 0.1957(2) -0.2341(2)
O2B O 0.4985(3) 0.04630(19) -0.1818(2)
O3B O 0.3543(3) 0.14993(19) -0.1592(2)
N1B N 0.4276(3) 0.3080(2) -0.1443(2)
B1B B 0.3910(5) 0.2171(3) -0.2137(4)
B2B B 0.5536(5) 0.1131(4) -0.2185(3)
B3B B 0.4012(5) 0.0655(4) -0.1508(4)
C1B C 0.2839(4) 0.2485(3) -0.3050(3)
C2B C 0.1628(5) 0.2482(3) -0.3085(4)
H1B H 0.1431 0.2276 -0.2567
C3B C 0.0712(6) 0.2770(5) -0.3854(5)
H2B H -0.0090 0.2758 -0.3854
C4B C 0.0989(7) 0.3076(5) -0.4621(5)
H3B H 0.0379 0.3276 -0.5147
C5B C 0.2161(7) 0.3083(4) -0.4601(4)
H4B H 0.2352 0.3292 -0.5121
C6B C 0.3078(5) 0.2789(4) -0.3835(4)
H5B H 0.3875 0.2796 -0.3848
C7B C 0.6704(4) 0.0924(3) -0.2440(3)
C8B C 0.7077(5) 0.1506(4) -0.3008(5)
H6B H 0.6623 0.2017 -0.3243
C9B C 0.8130(7) 0.1329(5) -0.3228(6)
H7B H 0.8368 0.1726 -0.3615
C10B C 0.8824(6) 0.0594(5) -0.2895(6)
H8B H 0.9535 0.0492 -0.3041
C11B C 0.8455(6) 0.0011(4) -0.2343(5)
H9B H 0.8921 -0.0492 -0.2101
C12B C 0.7396(5) 0.0164(4) -0.2143(4)
H10B H 0.7136 -0.0260 -0.1794
C13B C 0.3472(4) -0.0110(3) -0.1053(3)
C14B C 0.2361(5) -0.0037(3) -0.0921(4)
H11B H 0.1896 0.0473 -0.1137
C15B C 0.1909(6) -0.0696(5) -0.0477(4)
H12B H 0.1165 -0.0613 -0.0374
C16B C 0.2539(7) -0.1457(5) -0.0193(4)
H13B H 0.2225 -0.1905 0.0096
C17B C 0.3635(6) -0.1571(4) -0.0327(4)
H14B H 0.4070 -0.2099 -0.0135
C18B C 0.4105(5) -0.0897(3) -0.0754(3)
H15B H 0.4859 -0.0978 -0.0839
C19B C 0.3633(6) 0.3309(5) -0.0909(5)
H16B H 0.2977 0.2950 -0.0906
C20B C 0.3881(6) 0.4061(4) -0.0346(5)
H17B H 0.3381 0.4204 0.0010
C21B C 0.4843(4) 0.4597(3) -0.0304(3)
C22B C 0.5493(5) 0.4346(4) -0.0867(4)
H18B H 0.6155 0.4693 -0.0879
C23B C 0.5206(5) 0.3593(4) -0.1422(4)
H19B H 0.5684 0.3443 -0.1795
C24? C 0.1562(14) 0.8851(10) 0.6789(11)
C25? C 0.0694(10) 0.8792(7) 0.6065(8)
C26? C -0.0350(16) 0.8988(11) 0.5397(12)
C27? C 0.0000 1.0000 0.5000
C28? C 0.1007(9) 1.0080(7) 0.5719(7)
C29? C 0.1884(6) 1.0117(4) 0.6461(5)
loop_
_geom_bond_atom_site_label_1
_geom_bond_atom_site_label_2
_geom_bond_site_symmetry_1
_geom_bond_site_symmetry_2
O1 B1 1_555 1_555
O2 B2 1_555 1_555
O3 B1 1_555 1_555
N1 B1 1_555 1_555
B1 C1 1_555 1_555
B2 O1 1_555 1_555
B3 O2 1_555 1_555
C1 C2 1_555 1_555
C2 H1 1_555 1_555
C3 C2 1_555 1_555
H2 C3 1_555 1_555
C4 C3 1_555 1_555
H3 C4 1_555 1_555
C5 C4 1_555 1_555
H4 C5 1_555 1_555
C6 C1 1_555 1_555
H5 C6 1_555 1_555
C7 B2 1_555 1_555
C8 C7 1_555 1_555
H6 C8 1_555 1_555
C9 C8 1_555 1_555
H7 C9 1_555 1_555
C10 C9 1_555 1_555
H8 C10 1_555 1_555
C11 C10 1_555 1_555
H9 C11 1_555 1_555
C12 C7 1_555 1_555
H10 C12 1_555 1_555
C13 B3 1_555 1_555
C14 C13 1_555 1_555
H11 C14 1_555 1_555
C15 C14 1_555 1_555
H12 C15 1_555 1_555
C16 C15 1_555 1_555
H13 C16 1_555 1_555
C17 C16 1_555 1_555
H14 C17 1_555 1_555
C18 C13 1_555 1_555
H15 C18 1_555 1_555
C19 N1 1_555 1_555
H16 C19 1_555 1_555
C20 C19 1_555 1_555
H17 C20 1_555 1_555
C21 C20 1_555 1_555
C22 C21 1_555 1_555
H18 C22 1_555 1_555
C23 N1 1_555 1_555
H19 C23 1_555 1_555
O1B B1B 1_555 1_555
O2B B2B 1_555 1_555
O3B B1B 1_555 1_555
N1B B1B 1_555 1_555
B1B C1B 1_555 1_555
B2B O1B 1_555 1_555
B3B O2B 1_555 1_555
C1B C2B 1_555 1_555
C2B H1B 1_555 1_555
C3B C2B 1_555 1_555
H2B C3B 1_555 1_555
C4B C3B 1_555 1_555
H3B C4B 1_555 1_555
C5B C4B 1_555 1_555
H4B C5B 1_555 1_555
C6B C1B 1_555 1_555
H5B C6B 1_555 1_555
C7B B2B 1_555 1_555
C8B C7B 1_555 1_555
H6B C8B 1_555 1_555
C9B C8B 1_555 1_555
H7B C9B 1_555 1_555
C10B C9B 1_555 1_555
H8B C10B 1_555 1_555
C11B C10B 1_555 1_555
H9B C11B 1_555 1_555
C12B C7B 1_555 1_555
H10B C12B 1_555 1_555
C13B B3B 1_555 1_555
C14B C13B 1_555 1_555
H11B C14B 1_555 1_555
C15B C14B 1_555 1_555
H12B C15B 1_555 1_555
C16B C15B 1_555 1_555
H13B C16B 1_555 1_555
C17B C16B 1_555 1_555
H14B C17B 1_555 1_555
C18B C13B 1_555 1_555
H15B C18B 1_555 1_555
C19B N1B 1_555 1_555
H16B C19B 1_555 1_555
C20B C19B 1_555 1_555
H17B C20B 1_555 1_555
C21B C21 1_555 1_555
C22B C21B 1_555 1_555
H18B C22B 1_555 1_555
C23B N1B 1_555 1_555
H19B C23B 1_555 1_555
O3 B3 1_555 1_555
C5 C6 1_555 1_555
C11 C12 1_555 1_555
C17 C18 1_555 1_555
C22 C23 1_555 1_555
O3B B3B 1_555 1_555
C5B C6B 1_555 1_555
C11B C12B 1_555 1_555
C17B C18B 1_555 1_555
C20B C21B 1_555 1_555
C22B C23B 1_555 1_555

#END
