
#######################################################################
#
#                 Cambridge Crystallographic Data Centre
#                                CCDC 
#
#######################################################################
#
# If this CIF has been generated from an entry in the Cambridge 
# Structural Database, then it will include bibliographic, chemical, 
# crystal, experimental, refinement or atomic coordinate data resulting 
# from the CCDC's data processing and validation procedures.
#
#######################################################################

data_DUJNEC
_chemical_formula_moiety         'C10 H10 N4,H2 O1'
_chemical_name_systematic        
'2-[(E)-(1H-Pyrrol-2-ylmethylidene)hydrazinyl]pyridine monohydrate'
_symmetry_cell_setting           monoclinic
_symmetry_space_group_name_H-M   'P 21/c'
_symmetry_Int_Tables_number      14
_space_group_name_Hall           '-P 2ybc'
loop_
_symmetry_equiv_pos_site_id
_symmetry_equiv_pos_as_xyz
1 x,y,z
2 -x,1/2+y,1/2-z
3 -x,-y,-z
4 x,1/2-y,1/2+z
_cell_length_a                   5.6479(3)
_cell_length_b                   7.4383(4)
_cell_length_c                   24.4233(11)
_cell_angle_alpha                90
_cell_angle_beta                 103.300(3)
_cell_angle_gamma                90
_cell_volume                     998.522
_exptl_crystal_colour            colorless
_exptl_crystal_description       block
_chemical_melting_point          '449-452 K'
_cell_formula_units_Z            4
_exptl_crystal_recrystallization_method methanol
loop_
_atom_site_label
_atom_site_type_symbol
_atom_site_fract_x
_atom_site_fract_y
_atom_site_fract_z
O1 O 0.0268(3) 0.5726(2) 0.74096(6)
H1 H 0.088(5) 0.635(3) 0.7695(7)
H2 H -0.071(4) 0.501(3) 0.7507(11)
N1 N 0.2897(3) 0.7646(2) 0.83791(7)
N2 N 0.5539(4) 0.8844(2) 0.78669(8)
H3 H 0.694(3) 0.935(3) 0.7844(10)
N3 N 0.3760(4) 0.8612(2) 0.73892(7)
N4 N 0.0207(4) 0.7784(2) 0.64316(7)
H4 H 0.000(5) 0.726(3) 0.6740(6)
C1 C 0.4955(4) 0.8541(3) 0.83784(8)
C2 C 0.2360(4) 0.7344(3) 0.88823(8)
H5 H 0.0904 0.6710 0.8886
C3 C 0.3790(5) 0.7898(3) 0.93898(9)
H6 H 0.3346 0.7654 0.9735
C4 C 0.5912(5) 0.8829(3) 0.93755(9)
H7 H 0.6942 0.9245 0.9716
C5 C 0.6526(4) 0.9152(3) 0.88711(9)
H8 H 0.7981 0.9774 0.8858
C6 C 0.4278(4) 0.8846(3) 0.69071(8)
H9 H 0.5870 0.9191 0.6882
C7 C 0.2393(4) 0.8574(3) 0.64086(8)
C8 C -0.1198(4) 0.7629(3) 0.59024(8)
H10 H -0.2775 0.7109 0.5804
C9 C 0.0049(4) 0.8353(3) 0.55333(8)
H11 H -0.0522 0.8433 0.5137
C10 C 0.2326(5) 0.8955(3) 0.58482(8)
H12 H 0.3571 0.9512 0.5705
loop_
_geom_bond_atom_site_label_1
_geom_bond_atom_site_label_2
_geom_bond_site_symmetry_1
_geom_bond_site_symmetry_2
O1 H1 1_555 1_555
H2 O1 1_555 1_555
N1 C1 1_555 1_555
N2 H3 1_555 1_555
N3 N2 1_555 1_555
N4 H4 1_555 1_555
C1 N2 1_555 1_555
C2 N1 1_555 1_555
H5 C2 1_555 1_555
C3 C2 1_555 1_555
H6 C3 1_555 1_555
C4 C3 1_555 1_555
H7 C4 1_555 1_555
C5 C1 1_555 1_555
H8 C5 1_555 1_555
C6 N3 1_555 1_555
H9 C6 1_555 1_555
C7 N4 1_555 1_555
C8 N4 1_555 1_555
H10 C8 1_555 1_555
C9 C8 1_555 1_555
H11 C9 1_555 1_555
C10 C7 1_555 1_555
H12 C10 1_555 1_555
C4 C5 1_555 1_555
C6 C7 1_555 1_555
C9 C10 1_555 1_555

#END
