
#######################################################################
#
#                 Cambridge Crystallographic Data Centre
#                                CCDC 
#
#######################################################################
#
# If this CIF has been generated from an entry in the Cambridge 
# Structural Database, then it will include bibliographic, chemical, 
# crystal, experimental, refinement or atomic coordinate data resulting 
# from the CCDC's data processing and validation procedures.
#
#######################################################################

data_DUJSEH
_chemical_formula_moiety         'C26 H32 Br1 N1 O1'
_chemical_name_systematic        
(4R,5R,10S)-N-(4-bromophenyl)dehydroabietamide
_symmetry_cell_setting           orthorhombic
_symmetry_space_group_name_H-M   'P 21 21 21'
_symmetry_Int_Tables_number      19
_space_group_name_Hall           'P 2ac 2ab'
loop_
_symmetry_equiv_pos_site_id
_symmetry_equiv_pos_as_xyz
1 x,y,z
2 1/2-x,-y,1/2+z
3 -x,1/2+y,1/2-z
4 1/2+x,1/2-y,-z
_cell_length_a                   5.9640(12)
_cell_length_b                   11.750(2)
_cell_length_c                   32.758(7)
_cell_angle_alpha                90
_cell_angle_beta                 90
_cell_angle_gamma                90
_cell_volume                     2295.58
_exptl_crystal_colour            colorless
_exptl_crystal_description       block
_cell_formula_units_Z            4
_exptl_crystal_recrystallization_method acetone
loop_
_atom_site_label
_atom_site_type_symbol
_atom_site_fract_x
_atom_site_fract_y
_atom_site_fract_z
Br1 Br 0.81958(18) 0.68193(7) 0.09535(2)
N1 N 0.8080(10) 1.0580(5) -0.03060(15)
H1 H 0.9407 1.0744 -0.0390
O1 O 0.4404(8) 1.1045(4) -0.03859(15)
C1 C -0.1942(15) 1.1802(8) -0.2890(2)
H2 H -0.2768 1.1527 -0.3121
H3 H -0.1996 1.2618 -0.2885
H4 H -0.2592 1.1506 -0.2644
C2 C 0.1482(15) 1.1731(9) -0.3320(2)
H5 H 0.0551 1.1471 -0.3540
H6 H 0.2929 1.1377 -0.3339
H7 H 0.1650 1.2542 -0.3337
C3 C 0.0417(14) 1.1424(8) -0.2921(2)
H8 H 0.0389 1.0591 -0.2910
C4 C 0.1823(13) 1.1816(8) -0.2558(2)
C5 C 0.2310(12) 1.2951(8) -0.2487(2)
H9 H 0.1777 1.3507 -0.2665
C6 C 0.3610(11) 1.3266(6) -0.21477(18)
H10 H 0.3951 1.4029 -0.2105
C7 C 0.4407(11) 1.2442(6) -0.18691(19)
C8 C 0.3956(12) 1.1298(6) -0.1947(2)
C9 C 0.2662(13) 1.1021(7) -0.2288(2)
H11 H 0.2345 1.0258 -0.2335
C10 C 0.5908(10) 1.2836(5) -0.15146(18)
C11 C 0.5900(9) 1.1879(5) -0.11856(17)
H12 H 0.4317 1.1781 -0.1114
C12 C 0.6589(13) 1.0742(5) -0.13792(19)
H13 H 0.7988 1.0831 -0.1527
H14 H 0.6804 1.0172 -0.1169
C13 C 0.4725(14) 1.0366(6) -0.1672(2)
H15 H 0.5267 0.9738 -0.1837
H16 H 0.3459 1.0093 -0.1514
C14 C 0.4971(11) 1.3919(5) -0.13126(18)
H17 H 0.5092 1.4546 -0.1504
H18 H 0.3393 1.3806 -0.1254
C15 C 0.6185(12) 1.4242(5) -0.09160(19)
H19 H 0.7739 1.4421 -0.0975
H20 H 0.5491 1.4913 -0.0799
C16 C 0.6080(11) 1.3265(6) -0.06107(18)
H21 H 0.4527 1.3132 -0.0537
H22 H 0.6879 1.3483 -0.0365
C17 C 0.7083(11) 1.2159(5) -0.0775(2)
C18 C 0.8244(11) 1.3108(6) -0.17050(17)
H23 H 0.8041 1.3499 -0.1960
H24 H 0.9045 1.2411 -0.1752
H25 H 0.9083 1.3580 -0.1521
C19 C 0.9710(10) 1.2251(6) -0.0809(2)
H26 H 1.0095 1.2840 -0.0999
H27 H 1.0310 1.1538 -0.0902
H28 H 1.0327 1.2429 -0.0546
C20 C 0.6416(14) 1.1207(6) -0.04718(19)
C21 C 0.7971(13) 0.9705(5) -0.00191(19)
C22 C 0.9833(12) 0.9004(5) 0.0016(2)
H29 H 1.1067 0.9120 -0.0153
C23 C 0.9861(13) 0.8142(7) 0.0298(2)
H30 H 1.1096 0.7659 0.0311
C24 C 0.8111(16) 0.7978(6) 0.05601(19)
C25 C 0.6259(13) 0.8674(6) 0.05292(19)
H31 H 0.5046 0.8560 0.0703
C26 C 0.6176(12) 0.9541(6) 0.02438(19)
H32 H 0.4924 1.0010 0.0228
loop_
_geom_bond_atom_site_label_1
_geom_bond_atom_site_label_2
_geom_bond_site_symmetry_1
_geom_bond_site_symmetry_2
Br1 C24 1_555 1_555
N1 H1 1_555 1_555
O1 C20 1_555 1_555
C1 H2 1_555 1_555
H3 C1 1_555 1_555
H4 C1 1_555 1_555
C2 H5 1_555 1_555
H6 C2 1_555 1_555
H7 C2 1_555 1_555
C3 C1 1_555 1_555
H8 C3 1_555 1_555
C4 C3 1_555 1_555
C5 C4 1_555 1_555
H9 C5 1_555 1_555
C6 C5 1_555 1_555
H10 C6 1_555 1_555
C7 C6 1_555 1_555
C8 C7 1_555 1_555
C9 C4 1_555 1_555
H11 C9 1_555 1_555
C10 C7 1_555 1_555
C11 C10 1_555 1_555
H12 C11 1_555 1_555
C12 C11 1_555 1_555
H13 C12 1_555 1_555
H14 C12 1_555 1_555
C13 C8 1_555 1_555
H15 C13 1_555 1_555
H16 C13 1_555 1_555
C14 C10 1_555 1_555
H17 C14 1_555 1_555
H18 C14 1_555 1_555
C15 C14 1_555 1_555
H19 C15 1_555 1_555
H20 C15 1_555 1_555
C16 C15 1_555 1_555
H21 C16 1_555 1_555
H22 C16 1_555 1_555
C17 C11 1_555 1_555
C18 C10 1_555 1_555
H23 C18 1_555 1_555
H24 C18 1_555 1_555
H25 C18 1_555 1_555
C19 C17 1_555 1_555
H26 C19 1_555 1_555
H27 C19 1_555 1_555
H28 C19 1_555 1_555
C20 N1 1_555 1_555
C21 N1 1_555 1_555
C22 C21 1_555 1_555
H29 C22 1_555 1_555
C23 C22 1_555 1_555
H30 C23 1_555 1_555
C24 C23 1_555 1_555
C25 C24 1_555 1_555
H31 C25 1_555 1_555
C26 C21 1_555 1_555
H32 C26 1_555 1_555
C2 C3 1_555 1_555
C8 C9 1_555 1_555
C12 C13 1_555 1_555
C16 C17 1_555 1_555
C17 C20 1_555 1_555
C25 C26 1_555 1_555

#END
