
#######################################################################
#
#                 Cambridge Crystallographic Data Centre
#                                CCDC 
#
#######################################################################
#
# If this CIF has been generated from an entry in the Cambridge 
# Structural Database, then it will include bibliographic, chemical, 
# crystal, experimental, refinement or atomic coordinate data resulting 
# from the CCDC's data processing and validation procedures.
#
#######################################################################

data_DUJTUX
_chemical_formula_moiety         'C15 H15 O10 1-,C6 H4 N3 O2 1+'
_chemical_name_systematic        
'4-Nitrobenzenediazonium pentamethyl cyclopentadienide-1,2,3,4,5-pentacarboxylate'
_symmetry_cell_setting           monoclinic
_symmetry_space_group_name_H-M   'P 21/n'
_symmetry_Int_Tables_number      14
_space_group_name_Hall           '-P 2yn'
loop_
_symmetry_equiv_pos_site_id
_symmetry_equiv_pos_as_xyz
1 x,y,z
2 1/2-x,1/2+y,1/2-z
3 -x,-y,-z
4 1/2+x,1/2-y,1/2+z
_cell_length_a                   9.833(4)
_cell_length_b                   18.484(8)
_cell_length_c                   13.345(7)
_cell_angle_alpha                90
_cell_angle_beta                 110.36(4)
_cell_angle_gamma                90
_cell_volume                     2273.96
_cell_formula_units_Z            4
loop_
_atom_site_label
_atom_site_type_symbol
_atom_site_fract_x
_atom_site_fract_y
_atom_site_fract_z
C1 C 0.0899(2) 0.6855(1) 0.8430(2)
C2 C 0.1396(2) 0.7504(1) 0.8120(2)
C3 C 0.0504(2) 0.8071(1) 0.8268(2)
C4 C -0.0506(3) 0.7778(1) 0.8657(2)
C5 C -0.0283(2) 0.7012(1) 0.8754(2)
C6 C 0.1564(2) 0.6125(1) 0.8467(2)
C7 C 0.2603(3) 0.7600(1) 0.7749(2)
C8 C 0.0520(2) 0.8853(1) 0.8021(2)
C9 C -0.1694(3) 0.8194(1) 0.8815(2)
C10 C -0.1246(3) 0.6514(1) 0.9023(2)
C11 C 0.1665(3) 0.5067(1) 0.7533(2)
C12 C 0.4447(3) 0.7007(2) 0.7291(2)
C13 C 0.0438(3) 1.0028(1) 0.8719(2)
C14 C -0.3678(3) 0.8959(2) 0.7907(3)
C15 C -0.1753(3) 0.5281(1) 0.9220(2)
O1 O 0.2492(2) 0.5877(1) 0.9241(1)
O2 O 0.2981(2) 0.8166(1) 0.7479(2)
O3 O 0.0437(2) 0.9116(1) 0.7183(1)
O4 O -0.1943(2) 0.8280(1) 0.9624(1)
O5 O -0.2321(2) 0.6668(1) 0.9216(2)
O6 O 0.1027(2) 0.5771(1) 0.7547(1)
O7 O 0.3290(2) 0.6973(1) 0.7720(1)
O8 O 0.0567(2) 0.9248(1) 0.8876(1)
O9 O -0.2502(2) 0.8497(1) 0.7884(1)
O10 O -0.0813(2) 0.5819(1) 0.9021(1)
H1 H 0.270(2) 0.512(1) 0.773(2)
H2 H 0.124(3) 0.492(1) 0.683(2)
H3 H 0.139(3) 0.476(1) 0.804(2)
H4 H 0.468(4) 0.653(2) 0.720(2)
H5 H 0.518(3) 0.730(1) 0.770(2)
H6 H 0.410(4) 0.723(2) 0.663(2)
H7 H -0.043(4) 1.014(2) 0.812(2)
H8 H 0.129(4) 1.021(2) 0.866(2)
H9 H 0.029(4) 1.024(2) 0.929(2)
H10 H -0.443(3) 0.871(2) 0.801(2)
H11 H -0.328(3) 0.926(2) 0.852(2)
H12 H -0.421(4) 0.910(2) 0.713(3)
H13 H -0.174(3) 0.539(1) 0.993(2)
H14 H -0.137(3) 0.484(1) 0.911(2)
H15 H -0.271(3) 0.534(1) 0.869(2)
C16 C 0.4760(3) 0.7084(1) 1.0423(2)
C17 C 0.3610(3) 0.7124(1) 1.0784(2)
C18 C 0.3145(3) 0.7814(1) 1.0906(2)
C19 C 0.3845(3) 0.8395(1) 1.0663(2)
C20 C 0.4999(3) 0.8337(1) 1.0309(2)
C21 C 0.5485(3) 0.7657(1) 1.0180(2)
O11 O 0.2568(2) 0.9186(1) 1.1330(2)
O12 O 0.3727(2) 0.9632(1) 1.0356(2)
N1 N 0.5257(2) 0.6389(1) 1.0263(1)
N2 N 0.5649(3) 0.5864(1) 1.0117(2)
N3 N 0.3338(2) 0.9133(1) 1.0797(2)
H16 H 0.317(2) 0.669(1) 1.094(2)
H17 H 0.239(2) 0.787(1) 1.116(2)
H18 H 0.544(2) 0.872(1) 1.017(2)
H19 H 0.631(2) 0.759(1) 0.999(2)
loop_
_geom_bond_atom_site_label_1
_geom_bond_atom_site_label_2
_geom_bond_site_symmetry_1
_geom_bond_site_symmetry_2
C1 C2 1_555 1_555
C2 C3 1_555 1_555
C3 C4 1_555 1_555
C4 C5 1_555 1_555
C5 C1 1_555 1_555
C6 C1 1_555 1_555
C7 C2 1_555 1_555
C8 C3 1_555 1_555
C9 C4 1_555 1_555
C10 C5 1_555 1_555
C11 O6 1_555 1_555
C12 O7 1_555 1_555
C13 O8 1_555 1_555
C14 O9 1_555 1_555
C15 O10 1_555 1_555
O1 C6 1_555 1_555
O2 C7 1_555 1_555
O3 C8 1_555 1_555
O4 C9 1_555 1_555
O5 C10 1_555 1_555
O6 C6 1_555 1_555
O7 C7 1_555 1_555
O8 C8 1_555 1_555
O9 C9 1_555 1_555
O10 C10 1_555 1_555
H1 C11 1_555 1_555
H2 C11 1_555 1_555
H3 C11 1_555 1_555
H4 C12 1_555 1_555
H5 C12 1_555 1_555
H6 C12 1_555 1_555
H7 C13 1_555 1_555
H8 C13 1_555 1_555
H9 C13 1_555 1_555
H10 C14 1_555 1_555
H11 C14 1_555 1_555
H12 C14 1_555 1_555
H13 C15 1_555 1_555
H14 C15 1_555 1_555
H15 C15 1_555 1_555
C16 C17 1_555 1_555
C17 C18 1_555 1_555
C18 C19 1_555 1_555
C19 C20 1_555 1_555
C20 C21 1_555 1_555
C21 C16 1_555 1_555
O11 N3 1_555 1_555
O12 N3 1_555 1_555
N1 C16 1_555 1_555
N2 N1 1_555 1_555
N3 C19 1_555 1_555
H16 C17 1_555 1_555
H17 C18 1_555 1_555
H18 C20 1_555 1_555
H19 C21 1_555 1_555

#END
