
#######################################################################
#
#                 Cambridge Crystallographic Data Centre
#                                CCDC 
#
#######################################################################
#
# If this CIF has been generated from an entry in the Cambridge 
# Structural Database, then it will include bibliographic, chemical, 
# crystal, experimental, refinement or atomic coordinate data resulting 
# from the CCDC's data processing and validation procedures.
#
#######################################################################

data_DUKHIB
_chemical_name_common            
1,4-bis(3-[4-(dimethylamino)benzylideneamino]propyl)piperazine
_chemical_formula_moiety         'C28 H42 N6'
_chemical_name_systematic        
4,4'-(Piperazine-1,4-diylbis(propane-3,1-diylnitrilomethylylidene))bis(N,N-dimethylaniline)
_symmetry_cell_setting           monoclinic
_symmetry_space_group_name_H-M   'P 21/c'
_symmetry_Int_Tables_number      14
_space_group_name_Hall           '-P 2ybc'
loop_
_symmetry_equiv_pos_site_id
_symmetry_equiv_pos_as_xyz
1 x,y,z
2 -x,1/2+y,1/2-z
3 -x,-y,-z
4 x,1/2-y,1/2+z
_cell_length_a                   17.599(2)
_cell_length_b                   6.4146(12)
_cell_length_c                   12.6643(18)
_cell_angle_alpha                90
_cell_angle_beta                 105.921(3)
_cell_angle_gamma                90
_cell_volume                     1374.84
_exptl_crystal_colour            yellow
_exptl_crystal_description       platelet
_cell_formula_units_Z            2
loop_
_atom_site_label
_atom_site_type_symbol
_atom_site_fract_x
_atom_site_fract_y
_atom_site_fract_z
N1 N 0.9158(3) -0.7316(8) 1.1684(4)
N2 N 0.7447(3) 0.0908(8) 0.9057(5)
N3 N 0.5629(3) 0.4652(7) 0.5991(4)
C1 C 0.7396(3) -0.0090(10) 0.9908(6)
H1 H 0.7045 0.0408 1.0280
C2 C 0.7852(3) -0.1960(9) 1.0339(5)
C3 C 0.8387(3) -0.2867(10) 0.9837(5)
H2 H 0.8455 -0.2295 0.9194
C4 C 0.8822(3) -0.4629(9) 1.0298(5)
H3 H 0.9183 -0.5194 0.9961
C5 C 0.8728(3) -0.5567(9) 1.1258(5)
C6 C 0.8190(3) -0.4665(9) 1.1741(5)
H4 H 0.8113 -0.5255 1.2375
C7 C 0.7766(3) -0.2905(10) 1.1299(5)
H5 H 0.7414 -0.2333 1.1649
C8 C 0.9031(4) -0.8320(10) 1.2662(5)
H6 H 0.9375 -0.9505 1.2856
H7 H 0.8492 -0.8767 1.2510
H8 H 0.9145 -0.7346 1.3260
C9 C 0.9638(4) -0.8399(10) 1.1115(6)
H9 H 0.9889 -0.9563 1.1548
H10 H 1.0033 -0.7471 1.0993
H11 H 0.9312 -0.8890 1.0422
C10 C 0.6968(4) 0.2755(10) 0.8724(5)
H12 H 0.7309 0.3962 0.8784
H13 H 0.6636 0.2962 0.9214
C11 C 0.6451(4) 0.2571(9) 0.7554(5)
H14 H 0.6095 0.1398 0.7500
H15 H 0.6781 0.2311 0.7067
C12 C 0.5971(3) 0.4555(9) 0.7193(5)
H16 H 0.5548 0.4618 0.7547
H17 H 0.6309 0.5758 0.7431
C13 C 0.5345(4) 0.6762(9) 0.5644(5)
H18 H 0.5778 0.7745 0.5873
H19 H 0.4940 0.7152 0.5995
C14 C 0.5005(4) 0.6860(10) 0.4399(5)
H20 H 0.4803 0.8251 0.4189
H21 H 0.5422 0.6586 0.4051
N1B N 0.0842(3) 1.7316(8) -0.1684(4)
N2B N 0.2553(3) 0.9092(8) 0.0943(5)
N3B N 0.4371(3) 0.5348(7) 0.4009(4)
C1B C 0.2604(3) 1.0090(10) 0.0092(6)
H1B H 0.2955 0.9592 -0.0280
C2B C 0.2148(3) 1.1960(9) -0.0339(5)
C3B C 0.1613(3) 1.2867(10) 0.0163(5)
H2B H 0.1545 1.2295 0.0806
C4B C 0.1178(3) 1.4629(9) -0.0298(5)
H3B H 0.0817 1.5194 0.0039
C5B C 0.1272(3) 1.5567(9) -0.1258(5)
C6B C 0.1810(3) 1.4665(9) -0.1741(5)
H4B H 0.1887 1.5255 -0.2375
C7B C 0.2234(3) 1.2905(10) -0.1299(5)
H5B H 0.2586 1.2333 -0.1649
C8B C 0.0969(4) 1.8320(10) -0.2662(5)
H6B H 0.0625 1.9505 -0.2856
H7B H 0.1508 1.8767 -0.2510
H8B H 0.0855 1.7346 -0.3260
C9B C 0.0362(4) 1.8399(10) -0.1115(6)
H9B H 0.0111 1.9563 -0.1548
H10B H -0.0033 1.7471 -0.0993
H11B H 0.0688 1.8890 -0.0422
C10B C 0.3032(4) 0.7245(10) 0.1276(5)
H12B H 0.2691 0.6038 0.1216
H13B H 0.3364 0.7038 0.0786
C11B C 0.3549(4) 0.7429(9) 0.2446(5)
H14B H 0.3905 0.8602 0.2500
H15B H 0.3219 0.7689 0.2933
C12B C 0.4029(3) 0.5445(9) 0.2807(5)
H16B H 0.4452 0.5382 0.2453
H17B H 0.3691 0.4242 0.2569
C13B C 0.4655(4) 0.3238(9) 0.4356(5)
H18B H 0.4222 0.2255 0.4127
H19B H 0.5060 0.2848 0.4005
C14B C 0.4995(4) 0.3140(10) 0.5601(5)
H20B H 0.5197 0.1749 0.5811
H21B H 0.4578 0.3414 0.5949
loop_
_geom_bond_atom_site_label_1
_geom_bond_atom_site_label_2
_geom_bond_site_symmetry_1
_geom_bond_site_symmetry_2
N1 C5 1_555 1_555
N2 C1 1_555 1_555
N3 C12 1_555 1_555
C1 H1 1_555 1_555
C2 C1 1_555 1_555
C3 C2 1_555 1_555
H2 C3 1_555 1_555
C4 C3 1_555 1_555
H3 C4 1_555 1_555
C5 C4 1_555 1_555
C6 C5 1_555 1_555
H4 C6 1_555 1_555
C7 C2 1_555 1_555
H5 C7 1_555 1_555
C8 N1 1_555 1_555
H6 C8 1_555 1_555
H7 C8 1_555 1_555
H8 C8 1_555 1_555
C9 N1 1_555 1_555
H9 C9 1_555 1_555
H10 C9 1_555 1_555
H11 C9 1_555 1_555
C10 N2 1_555 1_555
H12 C10 1_555 1_555
H13 C10 1_555 1_555
C11 C10 1_555 1_555
H14 C11 1_555 1_555
H15 C11 1_555 1_555
C12 C11 1_555 1_555
H16 C12 1_555 1_555
H17 C12 1_555 1_555
C13 N3 1_555 1_555
H18 C13 1_555 1_555
H19 C13 1_555 1_555
C14 C13 1_555 1_555
H20 C14 1_555 1_555
H21 C14 1_555 1_555
N1B C5B 1_555 1_555
N2B C1B 1_555 1_555
N3B C14 1_555 1_555
C1B H1B 1_555 1_555
C2B C1B 1_555 1_555
C3B C2B 1_555 1_555
H2B C3B 1_555 1_555
C4B C3B 1_555 1_555
H3B C4B 1_555 1_555
C5B C4B 1_555 1_555
C6B C5B 1_555 1_555
H4B C6B 1_555 1_555
C7B C2B 1_555 1_555
H5B C7B 1_555 1_555
C8B N1B 1_555 1_555
H6B C8B 1_555 1_555
H7B C8B 1_555 1_555
H8B C8B 1_555 1_555
C9B N1B 1_555 1_555
H9B C9B 1_555 1_555
H10B C9B 1_555 1_555
H11B C9B 1_555 1_555
C10B N2B 1_555 1_555
H12B C10B 1_555 1_555
H13B C10B 1_555 1_555
C11B C10B 1_555 1_555
H14B C11B 1_555 1_555
H15B C11B 1_555 1_555
C12B N3B 1_555 1_555
H16B C12B 1_555 1_555
H17B C12B 1_555 1_555
C13B N3B 1_555 1_555
H18B C13B 1_555 1_555
H19B C13B 1_555 1_555
C14B N3 1_555 1_555
H20B C14B 1_555 1_555
H21B C14B 1_555 1_555
C6 C7 1_555 1_555
C6B C7B 1_555 1_555
C11B C12B 1_555 1_555
C13B C14B 1_555 1_555

#END
