
#######################################################################
#
#                 Cambridge Crystallographic Data Centre
#                                CCDC 
#
#######################################################################
#
# If this CIF has been generated from an entry in the Cambridge 
# Structural Database, then it will include bibliographic, chemical, 
# crystal, experimental, refinement or atomic coordinate data resulting 
# from the CCDC's data processing and validation procedures.
#
#######################################################################

data_DUKJEZ01
_chemical_formula_moiety         'C19 H16 Cl1 N1 O2'
_chemical_name_systematic        
'ethyl 6-chloro-2-methyl-4-phenylquinoline-3-carboxylate'
_symmetry_cell_setting           triclinic
_symmetry_space_group_name_H-M   'P -1'
_symmetry_Int_Tables_number      2
_space_group_name_Hall           '-P 1'
loop_
_symmetry_equiv_pos_site_id
_symmetry_equiv_pos_as_xyz
1 x,y,z
2 -x,-y,-z
_cell_length_a                   8.1653(5)
_cell_length_b                   10.1367(4)
_cell_length_c                   10.5887(7)
_cell_angle_alpha                109.561(5)
_cell_angle_beta                 102.456(5)
_cell_angle_gamma                94.649(4)
_cell_volume                     795.131
_exptl_crystal_colour            colorless
_exptl_crystal_description       block
_cell_formula_units_Z            2
loop_
_atom_site_label
_atom_site_type_symbol
_atom_site_fract_x
_atom_site_fract_y
_atom_site_fract_z
Cl1 Cl 0.90247(5) 0.19391(4) 0.12003(3)
O1 O 0.56195(13) 0.32710(11) 0.78895(10)
O2 O 0.75042(14) 0.51811(11) 0.94200(10)
N1 N 0.70501(15) 0.62164(12) 0.56950(12)
C1 C 0.91667(18) 0.22888(15) 0.73818(15)
H1 H 0.9788 0.3172 0.8043
C2 C 0.94551(18) 0.10312(16) 0.75842(15)
H2 H 1.0276 0.1059 0.8384
C3 C 0.85520(19) -0.02613(16) 0.66265(16)
H3 H 0.8752 -0.1117 0.6770
C4 C 0.73557(19) -0.03042(15) 0.54574(16)
H4 H 0.6734 -0.1190 0.4801
C5 C 0.70644(18) 0.09493(15) 0.52438(14)
H5 H 0.6249 0.0915 0.4439
C6 C 0.79615(17) 0.22528(14) 0.62042(14)
C7 C 0.76137(17) 0.36002(14) 0.59981(14)
C8 C 0.78374(16) 0.38574(14) 0.47930(14)
C9 C 0.83489(17) 0.28610(15) 0.37049(14)
H6 H 0.8582 0.1975 0.3758
C10 C 0.85008(17) 0.31918(15) 0.25836(14)
C11 C 0.82389(18) 0.45113(15) 0.24791(14)
H7 H 0.8385 0.4719 0.1695
C12 C 0.77680(18) 0.54921(15) 0.35322(15)
H8 H 0.7590 0.6388 0.3477
C13 C 0.75448(17) 0.51858(14) 0.46999(14)
C14 C 0.68440(17) 0.59589(14) 0.67945(14)
C15 C 0.71044(17) 0.46478(15) 0.69777(14)
C16 C 0.67945(18) 0.44207(14) 0.82411(14)
C17 C 0.62875(19) 0.71143(15) 0.78567(15)
H9 H 0.6074 0.7889 0.7517
H10 H 0.7184 0.7476 0.8728
H11 H 0.5243 0.6730 0.8016
C18 C 0.5315(2) 0.28612(16) 0.90221(15)
H12 H 0.4541 0.3445 0.9475
H13 H 0.6400 0.3009 0.9725
C19 C 0.4525(2) 0.13220(18) 0.84254(17)
H14 H 0.3443 0.1190 0.7744
H15 H 0.4321 0.1015 0.9171
H16 H 0.5296 0.0755 0.7972
loop_
_geom_bond_atom_site_label_1
_geom_bond_atom_site_label_2
_geom_bond_site_symmetry_1
_geom_bond_site_symmetry_2
Cl1 C10 1_555 1_555
O1 C16 1_555 1_555
O2 C16 1_555 1_555
N1 C13 1_555 1_555
C1 H1 1_555 1_555
C2 C1 1_555 1_555
H2 C2 1_555 1_555
C3 C2 1_555 1_555
H3 C3 1_555 1_555
C4 C3 1_555 1_555
H4 C4 1_555 1_555
C5 C4 1_555 1_555
H5 C5 1_555 1_555
C6 C1 1_555 1_555
C7 C6 1_555 1_555
C8 C7 1_555 1_555
C9 C8 1_555 1_555
H6 C9 1_555 1_555
C10 C9 1_555 1_555
C11 C10 1_555 1_555
H7 C11 1_555 1_555
C12 C11 1_555 1_555
H8 C12 1_555 1_555
C13 C8 1_555 1_555
C14 N1 1_555 1_555
C15 C7 1_555 1_555
C16 C15 1_555 1_555
C17 C14 1_555 1_555
H9 C17 1_555 1_555
H10 C17 1_555 1_555
H11 C17 1_555 1_555
C18 O1 1_555 1_555
H12 C18 1_555 1_555
H13 C18 1_555 1_555
C19 C18 1_555 1_555
H14 C19 1_555 1_555
H15 C19 1_555 1_555
H16 C19 1_555 1_555
C5 C6 1_555 1_555
C12 C13 1_555 1_555
C14 C15 1_555 1_555

#END
