
#######################################################################
#
#                 Cambridge Crystallographic Data Centre
#                                CCDC 
#
#######################################################################
#
# If this CIF has been generated from an entry in the Cambridge 
# Structural Database, then it will include bibliographic, chemical, 
# crystal, experimental, refinement or atomic coordinate data resulting 
# from the CCDC's data processing and validation procedures.
#
#######################################################################

data_DUKKAW
_chemical_formula_moiety         'C12 H11 N3 O3,H2 O1'
_chemical_name_systematic        
"N'-[(E)-2-Hydroxybenzylidene]-5-methylisoxazole-4-carbohydrazide monohydrate"
_symmetry_cell_setting           orthorhombic
_symmetry_space_group_name_H-M   'P n a 21'
_symmetry_Int_Tables_number      33
_space_group_name_Hall           'P 2c -2n'
loop_
_symmetry_equiv_pos_site_id
_symmetry_equiv_pos_as_xyz
1 x,y,z
2 -x,-y,1/2+z
3 1/2+x,1/2-y,z
4 1/2-x,1/2+y,1/2+z
_cell_length_a                   12.8783(6)
_cell_length_b                   11.3108(6)
_cell_length_c                   8.6535(4)
_cell_angle_alpha                90
_cell_angle_beta                 90
_cell_angle_gamma                90
_cell_volume                     1260.5
_exptl_crystal_colour            pink
_exptl_crystal_description       block
_cell_formula_units_Z            4
_exptl_crystal_recrystallization_method dimethylformamide
loop_
_atom_site_label
_atom_site_type_symbol
_atom_site_fract_x
_atom_site_fract_y
_atom_site_fract_z
N1 N 0.14390(16) -0.00283(18) 0.3335(3)
N2 N 0.24031(12) 0.15708(15) 0.7518(2)
H1 H 0.1744 0.1523 0.7368
N3 N 0.27882(14) 0.20055(16) 0.8883(2)
O2 O 0.24526(12) -0.01962(14) 0.2774(2)
O3 O 0.40155(10) 0.13200(14) 0.6549(2)
O4 O 0.43156(13) 0.25524(19) 1.0747(2)
C1 C 0.26059(14) 0.06858(16) 0.5035(3)
C2 C 0.15530(16) 0.0488(2) 0.4659(3)
H4 H 0.1002 0.0704 0.5294
C3 C 0.31271(16) 0.02328(18) 0.3808(3)
C4 C 0.42389(18) 0.0114(3) 0.3423(4)
H5 H 0.4309 -0.0251 0.2427
H6 H 0.4575 -0.0367 0.4189
H7 H 0.4555 0.0882 0.3404
C5 C 0.30730(14) 0.12213(16) 0.6423(3)
C6 C 0.25002(15) 0.27711(17) 1.1395(3)
C7 C 0.35615(16) 0.29084(19) 1.1731(3)
C8 C 0.3861(2) 0.3415(2) 1.3120(3)
H8 H 0.4563 0.3500 1.3347
C9 C 0.3126(2) 0.3794(2) 1.4164(3)
H9 H 0.3336 0.4143 1.5086
C10 C 0.2090(2) 0.3664(2) 1.3859(3)
H10 H 0.1598 0.3912 1.4576
C11 C 0.17799(17) 0.31606(19) 1.2483(3)
H11 H 0.1075 0.3080 1.2277
C12 C 0.21445(16) 0.22851(18) 0.9941(3)
H12 H 0.1437 0.2176 0.9776
H13 H 0.403(2) 0.224(2) 0.994(3)
O1 O 0.01706(11) 0.16789(14) 0.7294(2)
H2 H -0.026(2) 0.123(2) 0.776(4)
H3 H -0.019(2) 0.2255(19) 0.704(4)
loop_
_geom_bond_atom_site_label_1
_geom_bond_atom_site_label_2
_geom_bond_site_symmetry_1
_geom_bond_site_symmetry_2
N1 O2 1_555 1_555
N2 H1 1_555 1_555
N3 N2 1_555 1_555
O1 H2 1_555 1_555
H3 O1 1_555 1_555
O2 C3 1_555 1_555
O3 C5 1_555 1_555
O4 C7 1_555 1_555
C1 C2 1_555 1_555
C2 N1 1_555 1_555
H4 C2 1_555 1_555
C3 C1 1_555 1_555
C4 C3 1_555 1_555
H5 C4 1_555 1_555
H6 C4 1_555 1_555
H7 C4 1_555 1_555
C5 N2 1_555 1_555
C6 C7 1_555 1_555
C7 C8 1_555 1_555
C8 H8 1_555 1_555
C9 C8 1_555 1_555
H9 C9 1_555 1_555
C10 C9 1_555 1_555
H10 C10 1_555 1_555
C11 C6 1_555 1_555
H11 C11 1_555 1_555
C12 N3 1_555 1_555
H12 C12 1_555 1_555
H13 O4 1_555 1_555
C1 C5 1_555 1_555
C6 C12 1_555 1_555
C10 C11 1_555 1_555

#END
