
#######################################################################
#
#                 Cambridge Crystallographic Data Centre
#                                CCDC 
#
#######################################################################
#
# If this CIF has been generated from an entry in the Cambridge 
# Structural Database, then it will include bibliographic, chemical, 
# crystal, experimental, refinement or atomic coordinate data resulting 
# from the CCDC's data processing and validation procedures.
#
#######################################################################

data_DUKXIR
_chemical_formula_moiety         'C21 H27 N1 O2'
_chemical_name_systematic        
1-((2S)-2-[hydroxy(diphenyl)methyl]pyrrolidin-1-yl)-2-methylpropan-2-ol
_symmetry_cell_setting           orthorhombic
_symmetry_space_group_name_H-M   'P 21 21 21'
_symmetry_Int_Tables_number      19
_space_group_name_Hall           'P 2ac 2ab'
loop_
_symmetry_equiv_pos_site_id
_symmetry_equiv_pos_as_xyz
1 x,y,z
2 1/2-x,-y,1/2+z
3 -x,1/2+y,1/2-z
4 1/2+x,1/2-y,-z
_cell_length_a                   8.5024(4)
_cell_length_b                   11.9480(5)
_cell_length_c                   17.6485(7)
_cell_angle_alpha                90
_cell_angle_beta                 90
_cell_angle_gamma                90
_cell_volume                     1792.85
_exptl_crystal_colour            colorless
_exptl_crystal_description       block
_cell_formula_units_Z            4
_exptl_crystal_recrystallization_method toluene
loop_
_atom_site_label
_atom_site_type_symbol
_atom_site_fract_x
_atom_site_fract_y
_atom_site_fract_z
N1 N 0.35346(16) 0.52971(12) 0.27771(8)
O1 O 0.28678(14) 0.74120(10) 0.30108(7)
O2 O 0.66413(14) 0.47597(11) 0.20799(7)
C1 C 0.5350(2) 0.52078(14) 0.16482(9)
C2 C 0.37558(19) 0.48853(14) 0.19995(10)
C3 C 0.5592(2) 0.64710(15) 0.16528(11)
C4 C 0.5423(2) 0.47535(18) 0.08388(10)
C5 C 0.4226(2) 0.45467(15) 0.33634(10)
C6 C 0.2884(3) 0.42443(16) 0.38944(11)
C7 C 0.1827(2) 0.52712(16) 0.38402(10)
C8 C 0.18740(19) 0.55350(13) 0.29899(9)
C9 C 0.14822(18) 0.67934(13) 0.28141(9)
C10 C 0.10664(18) 0.70077(14) 0.19757(9)
C11 C 0.1615(2) 0.79812(15) 0.16237(10)
C12 C 0.1260(2) 0.82006(18) 0.08651(11)
C13 C 0.0340(2) 0.7466(2) 0.04558(10)
C14 C -0.0230(2) 0.65083(18) 0.08018(10)
C15 C 0.0126(2) 0.62770(16) 0.15586(10)
C16 C 0.01362(19) 0.71839(13) 0.33306(9)
C17 C 0.0390(2) 0.79870(15) 0.38896(10)
C18 C -0.0794(2) 0.82608(17) 0.44028(10)
C19 C -0.2242(2) 0.77320(16) 0.43673(10)
C20 C -0.2520(2) 0.69529(17) 0.37973(10)
C21 C -0.1349(2) 0.66812(15) 0.32815(10)
H1 H 0.360(3) 0.695(2) 0.2932(14)
H2 H 0.673(3) 0.406(2) 0.2018(15)
H3 H 0.111(2) 0.5054(17) 0.2722(10)
H4 H 0.226(3) 0.8489(19) 0.1884(13)
H5 H 0.166(2) 0.8904(19) 0.0638(12)
H6 H 0.004(3) 0.759(2) -0.0051(15)
H7 H -0.094(3) 0.5981(19) 0.0528(11)
H8 H -0.030(2) 0.5631(18) 0.1773(11)
H9 H 0.141(2) 0.8358(17) 0.3923(11)
H10 H -0.063(3) 0.881(2) 0.4783(12)
H11 H -0.306(3) 0.7904(18) 0.4737(12)
H12 H -0.358(3) 0.6615(19) 0.3750(12)
H13 H -0.158(2) 0.6126(17) 0.2876(11)
H14 H 0.294(2) 0.5219(18) 0.1672(11)
H15 H 0.368(2) 0.4065(18) 0.1989(12)
H16 H 0.650(3) 0.6659(19) 0.1338(12)
H17 H 0.467(3) 0.6827(18) 0.1449(12)
H18 H 0.573(2) 0.6771(18) 0.2192(12)
H19 H 0.535(3) 0.393(2) 0.0857(12)
H20 H 0.451(3) 0.507(2) 0.0521(13)
H21 H 0.642(3) 0.4923(19) 0.0583(13)
H22 H 0.506(3) 0.494(2) 0.3651(12)
H23 H 0.473(3) 0.3898(19) 0.3115(12)
H24 H 0.327(3) 0.409(2) 0.4391(14)
H25 H 0.231(3) 0.358(2) 0.3697(12)
H26 H 0.077(3) 0.513(2) 0.4013(13)
H27 H 0.229(3) 0.589(2) 0.4111(13)
loop_
_geom_bond_atom_site_label_1
_geom_bond_atom_site_label_2
_geom_bond_site_symmetry_1
_geom_bond_site_symmetry_2
N1 C2 1_555 1_555
O1 C9 1_555 1_555
O2 C1 1_555 1_555
C1 C2 1_555 1_555
C2 H14 1_555 1_555
C3 C1 1_555 1_555
C4 C1 1_555 1_555
C5 N1 1_555 1_555
C6 C5 1_555 1_555
C7 C6 1_555 1_555
C8 N1 1_555 1_555
C9 C8 1_555 1_555
C10 C9 1_555 1_555
C11 C10 1_555 1_555
C12 C11 1_555 1_555
C13 C12 1_555 1_555
C14 C13 1_555 1_555
C15 C10 1_555 1_555
C16 C9 1_555 1_555
C17 C16 1_555 1_555
C18 C17 1_555 1_555
C19 C18 1_555 1_555
C20 C19 1_555 1_555
C21 C16 1_555 1_555
H1 O1 1_555 1_555
H2 O2 1_555 1_555
H3 C8 1_555 1_555
H4 C11 1_555 1_555
H5 C12 1_555 1_555
H6 C13 1_555 1_555
H7 C14 1_555 1_555
H8 C15 1_555 1_555
H9 C17 1_555 1_555
H10 C18 1_555 1_555
H11 C19 1_555 1_555
H12 C20 1_555 1_555
H13 C21 1_555 1_555
H15 C2 1_555 1_555
H16 C3 1_555 1_555
H17 C3 1_555 1_555
H18 C3 1_555 1_555
H19 C4 1_555 1_555
H20 C4 1_555 1_555
H21 C4 1_555 1_555
H22 C5 1_555 1_555
H23 C5 1_555 1_555
H24 C6 1_555 1_555
H25 C6 1_555 1_555
H26 C7 1_555 1_555
H27 C7 1_555 1_555
C7 C8 1_555 1_555
C14 C15 1_555 1_555
C20 C21 1_555 1_555

#END
