
#######################################################################
#
#                 Cambridge Crystallographic Data Centre
#                                CCDC 
#
#######################################################################
#
# If this CIF has been generated from an entry in the Cambridge 
# Structural Database, then it will include bibliographic, chemical, 
# crystal, experimental, refinement or atomic coordinate data resulting 
# from the CCDC's data processing and validation procedures.
#
#######################################################################

data_DUKXOX
_chemical_formula_moiety         'C17 H21 N1 O2'
_chemical_name_systematic        
2-((2-Hydroxyethyl)(methyl)amino)-1,1-diphenylethanol
_symmetry_cell_setting           monoclinic
_symmetry_space_group_name_H-M   'P 21/n'
_symmetry_Int_Tables_number      14
_space_group_name_Hall           '-P 2yn'
loop_
_symmetry_equiv_pos_site_id
_symmetry_equiv_pos_as_xyz
1 x,y,z
2 1/2-x,1/2+y,1/2-z
3 -x,-y,-z
4 1/2+x,1/2-y,1/2+z
_cell_length_a                   9.3438(2)
_cell_length_b                   15.9896(4)
_cell_length_c                   10.9479(3)
_cell_angle_alpha                90
_cell_angle_beta                 114.4410(10)
_cell_angle_gamma                90
_cell_volume                     1489.08
_exptl_crystal_colour            colorless
_exptl_crystal_description       block
_cell_formula_units_Z            4
_exptl_crystal_recrystallization_method toluene
loop_
_atom_site_label
_atom_site_type_symbol
_atom_site_fract_x
_atom_site_fract_y
_atom_site_fract_z
N1 N 0.85622(13) 0.05759(7) 0.74752(11)
O1 O 1.00400(13) -0.06277(7) 0.64116(13)
O2 O 0.80726(11) 0.09856(6) 0.49626(10)
C1 C 1.09664(17) -0.00902(9) 0.74820(15)
H1 H 1.1236 0.0425 0.7121
H2 H 1.1956 -0.0374 0.8066
C2 C 1.00289(17) 0.01278(9) 0.82778(14)
H3 H 0.9771 -0.0393 0.8633
H4 H 1.0682 0.0480 0.9052
C3 C 0.74175(17) 0.05058(9) 0.80697(15)
H5 H 0.6438 0.0786 0.7489
H6 H 0.7845 0.0771 0.8956
H7 H 0.7206 -0.0086 0.8161
C4 C 0.88563(16) 0.14520(8) 0.72346(13)
H8 H 0.9992 0.1534 0.7478
H9 H 0.8545 0.1826 0.7803
C5 C 0.78997(15) 0.16750(8) 0.57320(13)
C6 C 0.61520(15) 0.18108(8) 0.54241(13)
C7 C 0.56931(16) 0.25041(9) 0.59572(14)
H10 H 0.6460 0.2898 0.6486
C8 C 0.41220(17) 0.26216(9) 0.57198(16)
H11 H 0.3825 0.3094 0.6088
C9 C 0.29885(17) 0.20507(10) 0.49461(15)
H12 H 0.1916 0.2133 0.4777
C10 C 0.34365(17) 0.13601(10) 0.44236(15)
H13 H 0.2668 0.0965 0.3902
C11 C 0.50079(16) 0.12408(9) 0.46581(14)
H14 H 0.5299 0.0766 0.4291
C12 C 0.85580(15) 0.24542(8) 0.53429(13)
C13 C 0.93583(16) 0.30651(8) 0.62954(14)
H15 H 0.9503 0.2994 0.7201
C14 C 0.99440(17) 0.37765(9) 0.59293(15)
H16 H 1.0483 0.4188 0.6584
C15 C 0.97449(17) 0.38869(9) 0.46163(16)
H17 H 1.0154 0.4371 0.4370
C16 C 0.89443(18) 0.32875(9) 0.36600(15)
H18 H 0.8799 0.3364 0.2756
C17 C 0.83539(16) 0.25766(8) 0.40184(14)
H19 H 0.7807 0.2170 0.3356
H20 H 1.060(2) -0.0751(12) 0.596(2)
H21 H 0.816(2) 0.0551(12) 0.547(2)
loop_
_geom_bond_atom_site_label_1
_geom_bond_atom_site_label_2
_geom_bond_site_symmetry_1
_geom_bond_site_symmetry_2
N1 C2 1_555 1_555
O1 C1 1_555 1_555
O2 C5 1_555 1_555
C1 H1 1_555 1_555
H2 C1 1_555 1_555
C2 C1 1_555 1_555
H3 C2 1_555 1_555
H4 C2 1_555 1_555
C3 N1 1_555 1_555
H5 C3 1_555 1_555
H6 C3 1_555 1_555
H7 C3 1_555 1_555
C4 N1 1_555 1_555
H8 C4 1_555 1_555
H9 C4 1_555 1_555
C5 C4 1_555 1_555
C6 C5 1_555 1_555
C7 C6 1_555 1_555
H10 C7 1_555 1_555
C8 C7 1_555 1_555
H11 C8 1_555 1_555
C9 C8 1_555 1_555
H12 C9 1_555 1_555
C10 C9 1_555 1_555
H13 C10 1_555 1_555
C11 C6 1_555 1_555
H14 C11 1_555 1_555
C12 C5 1_555 1_555
C13 C12 1_555 1_555
H15 C13 1_555 1_555
C14 C13 1_555 1_555
H16 C14 1_555 1_555
C15 C14 1_555 1_555
H17 C15 1_555 1_555
C16 C15 1_555 1_555
H18 C16 1_555 1_555
C17 C12 1_555 1_555
H19 C17 1_555 1_555
H20 O1 1_555 1_555
H21 O2 1_555 1_555
C10 C11 1_555 1_555
C16 C17 1_555 1_555

#END
