
#######################################################################
#
#                 Cambridge Crystallographic Data Centre
#                                CCDC 
#
#######################################################################
#
# If this CIF has been generated from an entry in the Cambridge 
# Structural Database, then it will include bibliographic, chemical, 
# crystal, experimental, refinement or atomic coordinate data resulting 
# from the CCDC's data processing and validation procedures.
#
#######################################################################

data_DULDEU01
_chemical_formula_moiety         'C17 H21 N1 O2'
_chemical_name_systematic        
(1R*,2S*)-2-((2-Hydroxyethyl)(methyl)amino)-1,2-diphenylethanol
_symmetry_cell_setting           monoclinic
_symmetry_space_group_name_H-M   'P 21/n'
_symmetry_Int_Tables_number      14
_space_group_name_Hall           '-P 2yn'
loop_
_symmetry_equiv_pos_site_id
_symmetry_equiv_pos_as_xyz
1 x,y,z
2 1/2-x,1/2+y,1/2-z
3 -x,-y,-z
4 1/2+x,1/2-y,1/2+z
_cell_length_a                   9.5879(5)
_cell_length_b                   10.0655(6)
_cell_length_c                   16.1252(9)
_cell_angle_alpha                90
_cell_angle_beta                 99.0340(10)
_cell_angle_gamma                90
_cell_volume                     1536.89
_exptl_crystal_colour            colorless
_exptl_crystal_description       plate
_cell_formula_units_Z            4
_exptl_crystal_recrystallization_method toluene
loop_
_atom_site_label
_atom_site_type_symbol
_atom_site_fract_x
_atom_site_fract_y
_atom_site_fract_z
N1 N 0.13034(12) 0.28024(12) 0.52004(7)
O1 O 0.37554(17) 0.44375(14) 0.51848(10)
H1 H 0.292(7) 0.477(5) 0.501(3)
O2 O -0.10849(16) 0.43621(12) 0.53813(8)
H2 H -0.190(6) 0.475(5) 0.518(3)
C1 C 0.38199(17) 0.30547(19) 0.50519(12)
H3 H 0.4759 0.2734 0.5272
H4 H 0.3642 0.2872 0.4454
C2 C 0.27463(16) 0.23294(16) 0.54767(10)
H5 H 0.2792 0.1387 0.5357
H6 H 0.2983 0.2446 0.6080
C3 C 0.08071(19) 0.2418(2) 0.43275(10)
H7 H 0.1530 0.2603 0.3994
H8 H -0.0028 0.2914 0.4114
H9 H 0.0594 0.1486 0.4302
C4 C 0.03132(15) 0.23746(14) 0.57566(9)
H10 H 0.0234 0.1405 0.5717
C5 C -0.11738(15) 0.29667(15) 0.54522(9)
H11 H -0.1520 0.2606 0.4893
C6 C 0.06436(19) 0.18146(19) 0.72902(11)
H12 H 0.0286 0.0975 0.7140
C7 C 0.1006(2) 0.2136(3) 0.81363(12)
H13 H 0.0891 0.1515 0.8547
C8 C 0.1530(2) 0.3369(3) 0.83594(13)
H14 H 0.1760 0.3593 0.8924
C9 C 0.1719(2) 0.4274(2) 0.77537(12)
H15 H 0.2093 0.5107 0.7909
C10 C 0.13587(17) 0.39601(17) 0.69139(10)
H16 H 0.1488 0.4585 0.6508
C11 C 0.08071(15) 0.27249(15) 0.66697(9)
C12 C -0.22040(15) 0.25797(15) 0.60285(9)
C13 C -0.26360(17) 0.34606(17) 0.65922(10)
H17 H -0.2307 0.4331 0.6616
C14 C -0.3560(2) 0.3055(2) 0.71241(11)
H18 H -0.3852 0.3659 0.7498
C15 C -0.4043(2) 0.1778(2) 0.71042(12)
H19 H -0.4655 0.1513 0.7467
C16 C -0.3627(2) 0.08911(19) 0.65501(12)
H20 H -0.3949 0.0019 0.6537
C17 C -0.27270(17) 0.12926(17) 0.60097(11)
H21 H -0.2466 0.0689 0.5625
H22? H 0.461(6) 0.502(6) 0.513(4)
H23? H -0.041(5) 0.461(4) 0.518(3)
loop_
_geom_bond_atom_site_label_1
_geom_bond_atom_site_label_2
_geom_bond_site_symmetry_1
_geom_bond_site_symmetry_2
N1 C2 1_555 1_555
O1 H1 1_555 1_555
O2 H2 1_555 1_555
C1 O1 1_555 1_555
H3 C1 1_555 1_555
H4 C1 1_555 1_555
C2 C1 1_555 1_555
H5 C2 1_555 1_555
H6 C2 1_555 1_555
C3 N1 1_555 1_555
H7 C3 1_555 1_555
H8 C3 1_555 1_555
H9 C3 1_555 1_555
C4 N1 1_555 1_555
H10 C4 1_555 1_555
C5 O2 1_555 1_555
H11 C5 1_555 1_555
C6 H12 1_555 1_555
C7 C6 1_555 1_555
H13 C7 1_555 1_555
C8 C7 1_555 1_555
H14 C8 1_555 1_555
C9 C8 1_555 1_555
H15 C9 1_555 1_555
C10 C9 1_555 1_555
H16 C10 1_555 1_555
C11 C4 1_555 1_555
C12 C5 1_555 1_555
C13 C12 1_555 1_555
H17 C13 1_555 1_555
C14 C13 1_555 1_555
H18 C14 1_555 1_555
C15 C14 1_555 1_555
H19 C15 1_555 1_555
C16 C15 1_555 1_555
H20 C16 1_555 1_555
C17 C12 1_555 1_555
H21 C17 1_555 1_555
C4 C5 1_555 1_555
C6 C11 1_555 1_555
C10 C11 1_555 1_555
C16 C17 1_555 1_555

#END
