
#######################################################################
#
#                 Cambridge Crystallographic Data Centre
#                                CCDC 
#
#######################################################################
#
# If this CIF has been generated from an entry in the Cambridge 
# Structural Database, then it will include bibliographic, chemical, 
# crystal, experimental, refinement or atomic coordinate data resulting 
# from the CCDC's data processing and validation procedures.
#
#######################################################################

data_DULDEU
_chemical_formula_moiety         'C17 H21 N1 O2'
_chemical_name_systematic        
(1R*,2S*)-2-((2-Hydroxyethyl)(methyl)amino)-1,2-diphenylethanol
_symmetry_cell_setting           monoclinic
_symmetry_space_group_name_H-M   'P 21/n'
_symmetry_Int_Tables_number      14
_space_group_name_Hall           '-P 2yn'
loop_
_symmetry_equiv_pos_site_id
_symmetry_equiv_pos_as_xyz
1 x,y,z
2 1/2-x,1/2+y,1/2-z
3 -x,-y,-z
4 1/2+x,1/2-y,1/2+z
_cell_length_a                   9.5577(9)
_cell_length_b                   9.9481(9)
_cell_length_c                   15.9403(15)
_cell_angle_alpha                90
_cell_angle_beta                 100.136(2)
_cell_angle_gamma                90
_cell_volume                     1491.96
_exptl_crystal_colour            colorless
_exptl_crystal_description       plate
_cell_formula_units_Z            4
_exptl_crystal_recrystallization_method toluene
loop_
_atom_site_label
_atom_site_type_symbol
_atom_site_fract_x
_atom_site_fract_y
_atom_site_fract_z
N1 N 0.13144(11) 0.27954(10) 0.52216(6)
O1 O 0.37764(12) 0.44412(10) 0.52060(7)
H1 H 0.450(3) 0.487(4) 0.504(2)
O2 O -0.10814(12) 0.43810(9) 0.53834(6)
H2 H -0.043(4) 0.460(3) 0.510(2)
C1 C 0.38458(14) 0.30256(13) 0.50782(8)
H3 H 0.4813 0.2698 0.5315
H4 H 0.3654 0.2827 0.4460
C2 C 0.27655(13) 0.23023(13) 0.55095(8)
H5 H 0.2799 0.1328 0.5388
H6 H 0.3023 0.2426 0.6134
C3 C 0.07927(14) 0.24067(14) 0.43373(8)
H7 H 0.1532 0.2578 0.3995
H8 H -0.0056 0.2934 0.4111
H9 H 0.0553 0.1448 0.4313
C4 C 0.03329(13) 0.23669(12) 0.57829(8)
H10 H 0.0255 0.1365 0.5750
C5 C -0.11683(13) 0.29630(12) 0.54587(8)
H11 H -0.1530 0.2584 0.4880
C6 C 0.06569(14) 0.18334(14) 0.73457(8)
H12 H 0.0287 0.0964 0.7191
C7 C 0.10109(15) 0.21730(15) 0.82022(8)
H13 H 0.0888 0.1541 0.8630
C8 C 0.15458(15) 0.34431(15) 0.84275(9)
H14 H 0.1770 0.3691 0.9011
C9 C 0.17529(14) 0.43510(14) 0.78005(9)
H15 H 0.2139 0.5214 0.7958
C10 C 0.14015(13) 0.40100(13) 0.69453(8)
H16 H 0.1547 0.4638 0.6520
C11 C 0.08351(13) 0.27458(13) 0.67089(8)
C12 C -0.21970(13) 0.25736(13) 0.60404(8)
C13 C -0.26413(13) 0.34890(13) 0.65996(8)
H17 H -0.2319 0.4393 0.6612
C14 C -0.35558(14) 0.30825(14) 0.71397(8)
H18 H -0.3861 0.3714 0.7517
C15 C -0.40267(14) 0.17624(15) 0.71330(8)
H19 H -0.4647 0.1490 0.7506
C16 C -0.35869(14) 0.08426(14) 0.65787(8)
H20 H -0.3902 -0.0064 0.6573
C17 C -0.26856(13) 0.12498(13) 0.60331(8)
H21 H -0.2397 0.0620 0.5649
H22? H 0.296(5) 0.473(4) 0.501(2)
H23? H -0.191(4) 0.472(4) 0.514(2)
loop_
_geom_bond_atom_site_label_1
_geom_bond_atom_site_label_2
_geom_bond_site_symmetry_1
_geom_bond_site_symmetry_2
N1 C2 1_555 1_555
O1 H1 1_555 1_555
O2 H2 1_555 1_555
C1 O1 1_555 1_555
H3 C1 1_555 1_555
H4 C1 1_555 1_555
C2 C1 1_555 1_555
H5 C2 1_555 1_555
H6 C2 1_555 1_555
C3 N1 1_555 1_555
H7 C3 1_555 1_555
H8 C3 1_555 1_555
H9 C3 1_555 1_555
C4 N1 1_555 1_555
H10 C4 1_555 1_555
C5 O2 1_555 1_555
H11 C5 1_555 1_555
C6 H12 1_555 1_555
C7 C6 1_555 1_555
H13 C7 1_555 1_555
C8 C7 1_555 1_555
H14 C8 1_555 1_555
C9 C8 1_555 1_555
H15 C9 1_555 1_555
C10 C9 1_555 1_555
H16 C10 1_555 1_555
C11 C4 1_555 1_555
C12 C5 1_555 1_555
C13 C12 1_555 1_555
H17 C13 1_555 1_555
C14 C13 1_555 1_555
H18 C14 1_555 1_555
C15 C14 1_555 1_555
H19 C15 1_555 1_555
C16 C15 1_555 1_555
H20 C16 1_555 1_555
C17 C12 1_555 1_555
H21 C17 1_555 1_555
C4 C5 1_555 1_555
C6 C11 1_555 1_555
C10 C11 1_555 1_555
C16 C17 1_555 1_555

#END
