
#######################################################################
#
#                 Cambridge Crystallographic Data Centre
#                                CCDC 
#
#######################################################################
#
# If this CIF has been generated from an entry in the Cambridge 
# Structural Database, then it will include bibliographic, chemical, 
# crystal, experimental, refinement or atomic coordinate data resulting 
# from the CCDC's data processing and validation procedures.
#
#######################################################################

data_DULGOI
_chemical_formula_moiety         'C14 H12 Cl1 N1 O1'
_chemical_name_systematic        N-benzyl-4-chlorobenzamide
_symmetry_cell_setting           monoclinic
_symmetry_space_group_name_H-M   'P 21/n'
_symmetry_Int_Tables_number      14
_space_group_name_Hall           '-P 2yn'
loop_
_symmetry_equiv_pos_site_id
_symmetry_equiv_pos_as_xyz
1 x,y,z
2 1/2-x,1/2+y,1/2-z
3 -x,-y,-z
4 1/2+x,1/2-y,1/2+z
_cell_length_a                   5.6650(14)
_cell_length_b                   26.400(14)
_cell_length_c                   8.152(6)
_cell_angle_alpha                90
_cell_angle_beta                 91.080(11)
_cell_angle_gamma                90
_cell_volume                     1218.96
_exptl_crystal_colour            colorless
_exptl_crystal_description       lath
_cell_formula_units_Z            4
loop_
_atom_site_label
_atom_site_type_symbol
_atom_site_fract_x
_atom_site_fract_y
_atom_site_fract_z
Cl1 Cl 0.3441(4) 0.47047(9) 0.3081(3)
O1 O 0.9814(10) 0.2598(2) 0.4211(7)
N1 N 0.7805(11) 0.2356(3) 0.1942(9)
H1 H 0.6871 0.2451 0.1125
C1 C 0.8325(15) 0.2692(4) 0.3129(11)
C2 C 0.7052(14) 0.3187(4) 0.3042(10)
C3 C 0.4875(14) 0.3261(3) 0.2240(9)
H2 H 0.4133 0.2988 0.1671
C4 C 0.3809(14) 0.3728(4) 0.2275(9)
H3 H 0.2331 0.3777 0.1728
C5 C 0.4839(17) 0.4116(3) 0.3076(11)
C6 C 0.7001(16) 0.4065(4) 0.3884(10)
H4 H 0.7728 0.4345 0.4424
C7 C 0.8067(15) 0.3593(4) 0.3879(10)
H5 H 0.9521 0.3546 0.4459
C8 C 0.8710(13) 0.1841(3) 0.1942(10)
H6 H 1.0250 0.1838 0.2537
H7 H 0.9003 0.1741 0.0793
C9 C 0.7160(16) 0.1449(4) 0.2692(10)
C10 C 0.5116(17) 0.1574(4) 0.3545(10)
H8 H 0.4661 0.1918 0.3680
C11 C 0.3788(14) 0.1190(4) 0.4179(10)
H9 H 0.2393 0.1276 0.4745
C12 C 0.4365(18) 0.0687(4) 0.4040(11)
H10 H 0.3411 0.0432 0.4511
C13 C 0.6429(19) 0.0561(4) 0.3173(12)
H11 H 0.6884 0.0217 0.3038
C14 C 0.7758(15) 0.0946(4) 0.2531(10)
H12 H 0.9145 0.0862 0.1953
loop_
_geom_bond_atom_site_label_1
_geom_bond_atom_site_label_2
_geom_bond_site_symmetry_1
_geom_bond_site_symmetry_2
Cl1 C5 1_555 1_555
O1 C1 1_555 1_555
N1 H1 1_555 1_555
C1 N1 1_555 1_555
C2 C1 1_555 1_555
C3 C2 1_555 1_555
H2 C3 1_555 1_555
C4 C3 1_555 1_555
H3 C4 1_555 1_555
C5 C4 1_555 1_555
C6 C5 1_555 1_555
H4 C6 1_555 1_555
C7 C2 1_555 1_555
H5 C7 1_555 1_555
C8 N1 1_555 1_555
H6 C8 1_555 1_555
H7 C8 1_555 1_555
C9 C8 1_555 1_555
C10 C9 1_555 1_555
H8 C10 1_555 1_555
C11 C10 1_555 1_555
H9 C11 1_555 1_555
C12 C11 1_555 1_555
H10 C12 1_555 1_555
C13 C12 1_555 1_555
H11 C13 1_555 1_555
C14 C9 1_555 1_555
H12 C14 1_555 1_555
C6 C7 1_555 1_555
C13 C14 1_555 1_555

#END
