
#######################################################################
#
#                 Cambridge Crystallographic Data Centre
#                                CCDC 
#
#######################################################################
#
# If this CIF has been generated from an entry in the Cambridge 
# Structural Database, then it will include bibliographic, chemical, 
# crystal, experimental, refinement or atomic coordinate data resulting 
# from the CCDC's data processing and validation procedures.
#
#######################################################################

data_DULYUG
_chemical_formula_moiety         'C34 H28 O4'
_chemical_name_systematic        4,10-bis(3,5-dimethoxyphenyl)chrysene
_symmetry_cell_setting           monoclinic
_symmetry_space_group_name_H-M   'P 21/c'
_symmetry_Int_Tables_number      14
_space_group_name_Hall           '-P 2ybc'
loop_
_symmetry_equiv_pos_site_id
_symmetry_equiv_pos_as_xyz
1 x,y,z
2 -x,1/2+y,1/2-z
3 -x,-y,-z
4 x,1/2-y,1/2+z
_cell_length_a                   9.88877(19)
_cell_length_b                   10.72592(19)
_cell_length_c                   11.7422(2)
_cell_angle_alpha                90
_cell_angle_beta                 100.102(2)
_cell_angle_gamma                90
_cell_volume                     1226.14
_exptl_crystal_colour            white
_exptl_crystal_description       plate
_cell_formula_units_Z            2
loop_
_atom_site_label
_atom_site_type_symbol
_atom_site_fract_x
_atom_site_fract_y
_atom_site_fract_z
C1 C 0.18492(11) 0.22775(10) 0.67842(9)
C2 C 0.18498(11) 0.15424(10) 0.58053(9)
H1 H 0.1049 0.1477 0.5229
C3 C 0.30479(11) 0.09045(10) 0.56859(9)
C4 C 0.42270(11) 0.10019(10) 0.65214(10)
H2 H 0.5043 0.0580 0.6423
C5 C 0.42031(11) 0.17198(11) 0.75006(10)
C6 C 0.30137(11) 0.23645(10) 0.76436(9)
H3 H 0.3000 0.2854 0.8316
C7 C 0.05430(11) 0.29007(10) 0.69551(9)
C8 C -0.00442(11) 0.24056(10) 0.78428(9)
H4 H 0.0455 0.1802 0.8340
C9 C -0.13529(12) 0.27653(11) 0.80339(9)
H5 H -0.1712 0.2442 0.8672
C10 C -0.21016(11) 0.35901(11) 0.72850(10)
H6 H -0.3010 0.3800 0.7376
C11 C -0.15340(11) 0.41318(10) 0.63771(9)
C12 C -0.23599(11) 0.49164(10) 0.55538(10)
H7 H -0.3295 0.5046 0.5615
C13 C -0.18528(11) 0.54819(10) 0.46876(9)
H8 H -0.2457 0.5934 0.4115
C14 C 0.04205(11) 0.45888(10) 0.53830(9)
C15 C -0.01593(11) 0.38633(10) 0.62335(9)
C16 C 0.19207(12) -0.03364(12) 0.41024(10)
H9 H 0.1408 -0.0773 0.4624
H10 H 0.2148 -0.0923 0.3524
H11 H 0.1358 0.0343 0.3712
C17 C 0.53925(12) 0.24291(11) 0.93271(10)
H12 H 0.5196 0.3305 0.9125
H13 H 0.6295 0.2365 0.9825
H14 H 0.4687 0.2103 0.9738
O1 O 0.31610(8) 0.01655(8) 0.47555(7)
O2 O 0.53916(8) 0.17219(8) 0.82973(7)
C1B C -0.18492(11) 0.77225(10) 0.32158(9)
C2B C -0.18498(11) 0.84576(10) 0.41947(9)
H1B H -0.1049 0.8523 0.4771
C3B C -0.30479(11) 0.90955(10) 0.43141(9)
C4B C -0.42270(11) 0.89981(10) 0.34786(10)
H2B H -0.5043 0.9420 0.3577
C5B C -0.42031(11) 0.82802(11) 0.24994(10)
C6B C -0.30137(11) 0.76355(10) 0.23564(9)
H3B H -0.3000 0.7146 0.1684
C7B C -0.05430(11) 0.70993(10) 0.30449(9)
C8B C 0.00442(11) 0.75944(10) 0.21572(9)
H4B H -0.0455 0.8198 0.1660
C9B C 0.13529(12) 0.72347(11) 0.19661(9)
H5B H 0.1712 0.7558 0.1328
C10B C 0.21016(11) 0.64099(11) 0.27150(10)
H6B H 0.3010 0.6200 0.2624
C11B C 0.15340(11) 0.58682(10) 0.36229(9)
C12B C 0.23599(11) 0.50836(10) 0.44462(10)
H7B H 0.3295 0.4954 0.4385
C13B C 0.18528(11) 0.45181(10) 0.53124(9)
H8B H 0.2457 0.4066 0.5885
C14B C -0.04205(11) 0.54112(10) 0.46170(9)
C15B C 0.01593(11) 0.61367(10) 0.37665(9)
C16B C -0.19207(12) 1.03364(12) 0.58976(10)
H9B H -0.1408 1.0773 0.5376
H10B H -0.2148 1.0923 0.6476
H11B H -0.1358 0.9657 0.6288
C17B C -0.53925(12) 0.75709(11) 0.06729(10)
H12B H -0.5196 0.6695 0.0875
H13B H -0.6295 0.7635 0.0175
H14B H -0.4687 0.7897 0.0262
O1B O -0.31610(8) 0.98345(8) 0.52445(7)
O2B O -0.53916(8) 0.82781(8) 0.17027(7)
loop_
_geom_bond_atom_site_label_1
_geom_bond_atom_site_label_2
_geom_bond_site_symmetry_1
_geom_bond_site_symmetry_2
C1 C2 1_555 1_555
C2 H1 1_555 1_555
C3 C2 1_555 1_555
C4 C3 1_555 1_555
H2 C4 1_555 1_555
C5 C4 1_555 1_555
C6 C1 1_555 1_555
H3 C6 1_555 1_555
C7 C1 1_555 1_555
C8 C7 1_555 1_555
H4 C8 1_555 1_555
C9 C8 1_555 1_555
H5 C9 1_555 1_555
C10 C9 1_555 1_555
H6 C10 1_555 1_555
C11 C10 1_555 1_555
C12 C11 1_555 1_555
H7 C12 1_555 1_555
C13 C12 1_555 1_555
H8 C13 1_555 1_555
C14 C15 1_555 1_555
C15 C7 1_555 1_555
C16 H9 1_555 1_555
H10 C16 1_555 1_555
H11 C16 1_555 1_555
C17 H12 1_555 1_555
H13 C17 1_555 1_555
H14 C17 1_555 1_555
O1 C3 1_555 1_555
O2 C5 1_555 1_555
C1B C2B 1_555 1_555
C2B H1B 1_555 1_555
C3B C2B 1_555 1_555
C4B C3B 1_555 1_555
H2B C4B 1_555 1_555
C5B C4B 1_555 1_555
C6B C1B 1_555 1_555
H3B C6B 1_555 1_555
C7B C1B 1_555 1_555
C8B C7B 1_555 1_555
H4B C8B 1_555 1_555
C9B C8B 1_555 1_555
H5B C9B 1_555 1_555
C10B C9B 1_555 1_555
H6B C10B 1_555 1_555
C11B C10B 1_555 1_555
C12B C11B 1_555 1_555
H7B C12B 1_555 1_555
C13B C14 1_555 1_555
H8B C13B 1_555 1_555
C14B C13 1_555 1_555
C15B C7B 1_555 1_555
C16B H9B 1_555 1_555
H10B C16B 1_555 1_555
H11B C16B 1_555 1_555
C17B H12B 1_555 1_555
H13B C17B 1_555 1_555
H14B C17B 1_555 1_555
O1B C3B 1_555 1_555
O2B C5B 1_555 1_555
C5 C6 1_555 1_555
C11 C15 1_555 1_555
C14 C14B 1_555 1_555
C16 O1 1_555 1_555
C17 O2 1_555 1_555
C5B C6B 1_555 1_555
C11B C15B 1_555 1_555
C12B C13B 1_555 1_555
C14B C15B 1_555 1_555
C16B O1B 1_555 1_555
C17B O2B 1_555 1_555

#END
