
#######################################################################
#
#                 Cambridge Crystallographic Data Centre
#                                CCDC 
#
#######################################################################
#
# If this CIF has been generated from an entry in the Cambridge 
# Structural Database, then it will include bibliographic, chemical, 
# crystal, experimental, refinement or atomic coordinate data resulting 
# from the CCDC's data processing and validation procedures.
#
#######################################################################

data_DUMKIF
_chemical_formula_moiety         'C10 H19 N1 O1,C7 H7 O3 S1 1-,H3 O1 1+'
_chemical_name_systematic        
'oxonium 5-t-butylhexahydro-2H-azepin-2-onium p-toluenesulfonate'
_symmetry_cell_setting           monoclinic
_symmetry_space_group_name_H-M   'P 21/n'
_symmetry_Int_Tables_number      14
_space_group_name_Hall           '-P 2yn'
loop_
_symmetry_equiv_pos_site_id
_symmetry_equiv_pos_as_xyz
1 x,y,z
2 1/2-x,1/2+y,1/2-z
3 -x,-y,-z
4 1/2+x,1/2-y,1/2+z
_cell_length_a                   10.153(2)
_cell_length_b                   6.444(1)
_cell_length_c                   30.523(5)
_cell_angle_alpha                90
_cell_angle_beta                 96.65(1)
_cell_angle_gamma                90
_cell_volume                     1983.56
_chemical_melting_point          347K
_cell_formula_units_Z            4
loop_
_atom_site_label
_atom_site_type_symbol
_atom_site_fract_x
_atom_site_fract_y
_atom_site_fract_z
C1 C 0.4208(3) 0.4215(6) 0.2931(1)
O1 O 0.4246(2) 0.2299(4) 0.2803(1)
C2 C 0.5445(3) 0.5487(6) 0.3019(1)
C3 C 0.5769(3) 0.6091(6) 0.3505(1)
C4 C 0.4979(3) 0.7956(6) 0.3657(1)
C5 C 0.3485(3) 0.7536(6) 0.3612(1)
C6 C 0.2850(4) 0.7084(6) 0.3144(1)
N1 N 0.3063(3) 0.4969(5) 0.2998(1)
C7 C 0.5528(4) 0.8722(8) 0.4121(1)
C8 C 0.5494(6) 0.7013(10) 0.4464(1)
C9 C 0.4716(5) 1.0574(8) 0.4261(2)
C10 C 0.6960(5) 0.9495(12) 0.4111(2)
H1 H 0.6264(3) 0.4596(6) 0.2921(1)
H2 H 0.5326(3) 0.6887(6) 0.2823(1)
H3 H 0.5568(3) 0.4765(6) 0.3703(1)
H4 H 0.6811(3) 0.6470(6) 0.3562(1)
H5 H 0.5117(3) 0.9224(6) 0.3436(1)
H6 H 0.3003(3) 0.8881(6) 0.3731(1)
H7 H 0.3317(3) 0.6211(6) 0.3815(1)
H8 H 0.3260(4) 0.8144(6) 0.2922(1)
H9 H 0.1795(4) 0.7341(6) 0.3132(1)
H10 H 0.2291(25) 0.3973(46) 0.2980(12)
H11 H 0.6151(6) 0.5728(10) 0.4423(1)
H12 H 0.4503(6) 0.6435(10) 0.4481(1)
H13 H 0.5833(6) 0.7829(10) 0.4766(1)
H14 H 0.3762(5) 1.0012(8) 0.4333(2)
H15 H 0.4579(5) 1.1924(8) 0.4051(2)
H16 H 0.5310(5) 1.0984(8) 0.4565(2)
H17 H 0.7621(5) 0.8252(12) 0.4043(2)
H18 H 0.7291(5) 1.0169(12) 0.4428(2)
H19 H 0.6958(5) 1.0670(12) 0.3858(2)
S1 S 0.5205(1) 0.7178(1) 0.1796(1)
O2 O 0.5258(6) 0.4992(5) 0.1699(1)
O3 O 0.6472(3) 0.7986(7) 0.1990(1)
O4 O 0.4206(3) 0.7655(9) 0.2087(1)
C11 C 0.4750(3) 0.8519(9) 0.1300(1)
C12 C 0.5138(3) 1.0567(6) 0.1245(1)
C13 C 0.4707(4) 1.1618(6) 0.0868(2)
C14 C 0.3913(4) 1.0690(7) 0.0521(1)
C15 C 0.3525(4) 0.8678(8) 0.0580(1)
C16 C 0.3931(4) 0.7594(6) 0.0959(1)
C17 C 0.3447(5) 1.1896(9) 0.0099(1)
H20 H 0.5782(3) 1.1326(6) 0.1503(1)
H21 H 0.4993(4) 1.3222(6) 0.0838(2)
H22 H 0.2884(4) 0.7923(8) 0.0321(1)
H23 H 0.3608(4) 0.6012(6) 0.0993(1)
H24 H 0.3880(5) 1.3414(9) 0.0071(1)
H25 H 0.2383(5) 1.1999(9) 0.0024(1)
H26 H 0.3837(5) 1.0845(9) -0.0130(1)
O5 O 0.6402(3) 1.0642(5) 0.2714(1)
H27 H 0.5448(56) 1.1340(96) 0.2771(19)
H28 H 0.6427(56) 1.0000(83) 0.2423(10)
H29 H 0.7228(44) 1.1484(79) 0.2758(19)
loop_
_geom_bond_atom_site_label_1
_geom_bond_atom_site_label_2
_geom_bond_site_symmetry_1
_geom_bond_site_symmetry_2
C1 O1 1_555 1_555
C2 C1 1_555 1_555
C3 C2 1_555 1_555
C4 C3 1_555 1_555
C5 C4 1_555 1_555
C6 C5 1_555 1_555
N1 C1 1_555 1_555
C7 C4 1_555 1_555
C8 C7 1_555 1_555
C9 C7 1_555 1_555
C10 C7 1_555 1_555
H1 C2 1_555 1_555
H2 C2 1_555 1_555
H3 C3 1_555 1_555
H4 C3 1_555 1_555
H5 C4 1_555 1_555
H6 C5 1_555 1_555
H7 C5 1_555 1_555
H8 C6 1_555 1_555
H9 C6 1_555 1_555
H10 N1 1_555 1_555
H11 C8 1_555 1_555
H12 C8 1_555 1_555
H13 C8 1_555 1_555
H14 C9 1_555 1_555
H15 C9 1_555 1_555
H16 C9 1_555 1_555
H17 C10 1_555 1_555
H18 C10 1_555 1_555
H19 C10 1_555 1_555
S1 O2 1_555 1_555
O3 S1 1_555 1_555
O4 S1 1_555 1_555
C11 S1 1_555 1_555
C12 C11 1_555 1_555
C13 C12 1_555 1_555
C14 C13 1_555 1_555
C15 C14 1_555 1_555
C16 C11 1_555 1_555
C17 C14 1_555 1_555
H20 C12 1_555 1_555
H21 C13 1_555 1_555
H22 C15 1_555 1_555
H23 C16 1_555 1_555
H24 C17 1_555 1_555
H25 C17 1_555 1_555
H26 C17 1_555 1_555
O5 H27 1_555 1_555
H28 O5 1_555 1_555
H29 O5 1_555 1_555
C6 N1 1_555 1_555
C15 C16 1_555 1_555

#END
