
#######################################################################
#
#                 Cambridge Crystallographic Data Centre
#                                CCDC 
#
#######################################################################
#
# If this CIF has been generated from an entry in the Cambridge 
# Structural Database, then it will include bibliographic, chemical, 
# crystal, experimental, refinement or atomic coordinate data resulting 
# from the CCDC's data processing and validation procedures.
#
#######################################################################

data_DUMKAX
_chemical_formula_moiety         'C12 H13 Cl2 N1 O2'
_chemical_name_systematic        
3'-Acetamido-2,2-dichloro-4',5'-dimethylacetophenone
_symmetry_cell_setting           monoclinic
_symmetry_space_group_name_H-M   'P 21/n'
_symmetry_Int_Tables_number      14
_space_group_name_Hall           '-P 2yn'
loop_
_symmetry_equiv_pos_site_id
_symmetry_equiv_pos_as_xyz
1 x,y,z
2 1/2-x,1/2+y,1/2-z
3 -x,-y,-z
4 1/2+x,1/2-y,1/2+z
_cell_length_a                   17.645(2)
_cell_length_b                   14.645(1)
_cell_length_c                   10.5955(7)
_cell_angle_alpha                90
_cell_angle_beta                 107.191(7)
_cell_angle_gamma                90
_cell_volume                     2615.67
_exptl_crystal_colour            'pale yellow'
_cell_formula_units_Z            8
loop_
_atom_site_label
_atom_site_type_symbol
_atom_site_fract_x
_atom_site_fract_y
_atom_site_fract_z
Cl1 Cl 0.0784(1) 0.7401(1) -0.1467(1)
Cl2 Cl -0.0302(1) 0.8794(1) -0.2867(1)
O1 O 0.1035(2) 0.8946(2) -0.3834(2)
O2 O 0.3910(2) 1.0145(2) 0.1742(3)
N1 N 0.3497(2) 0.8685(2) 0.1477(3)
C1 C 0.2121(2) 0.8752(2) -0.1922(3)
C2 C 0.2415(2) 0.8745(2) -0.0549(3)
C3 C 0.3221(2) 0.8713(2) 0.0070(3)
C4 C 0.3770(2) 0.8699(2) -0.0660(3)
C5 C 0.3468(2) 0.8721(2) -0.2051(3)
C6 C 0.2668(2) 0.8744(2) -0.2647(3)
C7 C 0.1272(2) 0.8782(2) -0.2668(3)
C8 C 0.0677(2) 0.8572(3) -0.1920(3)
C9 C 0.4645(2) 0.8645(3) 0.0028(4)
C10 C 0.4036(3) 0.8715(4) -0.2884(4)
C11 C 0.3836(2) 0.9402(2) 0.2224(3)
C12 C 0.4127(3) 0.9226(3) 0.3676(4)
H1 H 0.342 0.826 0.175
H2 H 0.209 0.874 -0.005
H3 H 0.237 0.864 -0.369
H4 H 0.088 0.906 -0.105
H5 H 0.485 0.927 0.036
H6 H 0.493 0.839 -0.062
H7 H 0.474 0.817 0.081
H8 H 0.445 0.814 -0.258
H9 H 0.440 0.922 -0.276
H10 H 0.374 0.861 -0.374
H11 H 0.472 0.936 0.404
H12 H 0.403 0.854 0.387
H13 H 0.386 0.956 0.401
Cl3 Cl -0.1019(1) 1.2256(1) -0.3559(2)
Cl4 Cl -0.1879(1) 1.0659(1) -0.3158(1)
O3 O -0.0581(2) 1.0904(2) -0.0842(3)
O4 O 0.1746(2) 1.2216(2) 0.1893(3)
N2 N 0.2403(2) 1.1186(2) 0.1003(3)
C13 C 0.0507(2) 1.1084(2) -0.1697(3)
C14 C 0.1053(2) 1.1102(2) -0.0444(3)
C15 C 0.1853(2) 1.1166(2) -0.0289(3)
C16 C 0.2141(2) 1.1190(2) -0.1386(3)
C17 C 0.1590(2) 1.1161(2) -0.2658(3)
C18 C 0.0790(2) 1.1108(2) -0.2794(3)
C19 C -0.0345(2) 1.1011(2) -0.1790(3)
C20 C -0.0947(2) 1.1085(3) -0.3141(3)
C21 C 0.3019(2) 1.1233(2) -0.1234(3)
C22 C 0.1868(2) 1.1185(3) -0.3870(3)
C23 C 0.2309(2) 1.1701(3) 0.2012(3)
C24 C 0.2943(3) 1.1596(3) 0.3302(4)
H14 H 0.282 1.088 0.111
H15 H 0.089 1.106 0.016
H16 H 0.034 1.102 -0.372
H17 H -0.085 1.080 -0.382
H18 H 0.316 1.186 -0.148
H19 H 0.315 1.075 -0.184
H20 H 0.333 1.109 -0.027
H21 H 0.199 1.050 -0.399
H22 H 0.235 1.159 -0.365
H23 H 0.145 1.145 -0.465
H24 H 0.334 1.126 0.339
H25 H 0.313 1.233 0.347
H26 H 0.268 1.141 0.372
loop_
_geom_bond_atom_site_label_1
_geom_bond_atom_site_label_2
_geom_bond_site_symmetry_1
_geom_bond_site_symmetry_2
Cl1 C8 1_555 1_555
Cl2 C8 1_555 1_555
O1 C7 1_555 1_555
O2 C11 1_555 1_555
N1 C3 1_555 1_555
C1 C2 1_555 1_555
C2 C3 1_555 1_555
C3 C4 1_555 1_555
C4 C5 1_555 1_555
C5 C6 1_555 1_555
C6 C1 1_555 1_555
C7 C1 1_555 1_555
C8 C7 1_555 1_555
C9 C4 1_555 1_555
C10 C5 1_555 1_555
C11 N1 1_555 1_555
C12 C11 1_555 1_555
Cl3 C20 1_555 1_555
Cl4 C20 1_555 1_555
O3 C19 1_555 1_555
O4 C23 1_555 1_555
N2 C15 1_555 1_555
C13 C14 1_555 1_555
C14 C15 1_555 1_555
C15 C16 1_555 1_555
C16 C17 1_555 1_555
C17 C18 1_555 1_555
C18 C13 1_555 1_555
C19 C13 1_555 1_555
C20 C19 1_555 1_555
C21 C16 1_555 1_555
C22 C17 1_555 1_555
C23 N2 1_555 1_555
C24 C23 1_555 1_555
H1 N1 1_555 1_555
H2 C2 1_555 1_555
H3 C6 1_555 1_555
H4 C8 1_555 1_555
H5 C9 1_555 1_555
H6 C9 1_555 1_555
H7 C9 1_555 1_555
H8 C10 1_555 1_555
H9 C10 1_555 1_555
H10 C10 1_555 1_555
H11 C12 1_555 1_555
H12 C12 1_555 1_555
H13 C12 1_555 1_555
H14 N2 1_555 1_555
H15 C14 1_555 1_555
H16 C18 1_555 1_555
H17 C20 1_555 1_555
H18 C21 1_555 1_555
H19 C21 1_555 1_555
H20 C21 1_555 1_555
H21 C22 1_555 1_555
H22 C22 1_555 1_555
H23 C22 1_555 1_555
H24 C24 1_555 1_555
H25 C24 1_555 1_555
H26 C24 1_555 1_555

#END
