
#######################################################################
#
#                 Cambridge Crystallographic Data Centre
#                                CCDC 
#
#######################################################################
#
# If this CIF has been generated from an entry in the Cambridge 
# Structural Database, then it will include bibliographic, chemical, 
# crystal, experimental, refinement or atomic coordinate data resulting 
# from the CCDC's data processing and validation procedures.
#
#######################################################################

data_DUMMOO
_chemical_formula_moiety         'C10 H11 N3 O3'
_chemical_name_systematic        
'Ethyl 3-methyl-4-oxo-4,5-dihydro-1H-pyrrolo[2,3-d]pyridazine-2-carboxylate'
_symmetry_cell_setting           monoclinic
_symmetry_space_group_name_H-M   'P 21/c'
_symmetry_Int_Tables_number      14
_space_group_name_Hall           '-P 2ybc'
loop_
_symmetry_equiv_pos_site_id
_symmetry_equiv_pos_as_xyz
1 x,y,z
2 -x,1/2+y,1/2-z
3 -x,-y,-z
4 x,1/2-y,1/2+z
_cell_length_a                   8.0030(16)
_cell_length_b                   9.774(2)
_cell_length_c                   13.370(3)
_cell_angle_alpha                90
_cell_angle_beta                 90.17(3)
_cell_angle_gamma                90
_cell_volume                     1045.81
_exptl_crystal_colour            colorless
_exptl_crystal_description       plate
_cell_formula_units_Z            4
_exptl_crystal_recrystallization_method ethanol
loop_
_atom_site_label
_atom_site_type_symbol
_atom_site_fract_x
_atom_site_fract_y
_atom_site_fract_z
C1 C 0.0960(2) 0.38216(17) 0.86245(11)
C2 C 0.14214(19) 0.33040(17) 0.95543(11)
C3 C 0.0970(2) 0.19196(17) 0.97885(11)
C4 C 0.0078(2) 0.30214(18) 0.79200(12)
H1 H -0.0209 0.3395 0.7303
C5 C 0.22621(19) 0.43535(17) 1.00880(11)
C6 C 0.2266(2) 0.54646(17) 0.94508(11)
C7 C 0.2897(2) 0.68717(18) 0.95437(12)
C8 C 0.4347(2) 0.8457(2) 1.05488(15)
H2 H 0.3500 0.9150 1.0436
H3 H 0.5247 0.8602 1.0076
C9 C 0.4995(3) 0.8551(3) 1.15900(17)
H4 H 0.5831 0.7860 1.1694
H5 H 0.4094 0.8414 1.2052
H6 H 0.5478 0.9438 1.1696
C10 C 0.2976(2) 0.4242(2) 1.11193(12)
H7 H 0.2233 0.4670 1.1587
H8 H 0.4043 0.4690 1.1142
H9 H 0.3111 0.3295 1.1291
N1 N 0.14838(18) 0.51266(15) 0.85690(10)
N2 N -0.03348(19) 0.17759(15) 0.81245(10)
N3 N 0.01190(19) 0.12734(16) 0.90363(10)
O1 O 0.12783(16) 0.13034(12) 1.05782(8)
O2 O 0.27522(18) 0.77051(14) 0.88893(10)
O3 O 0.36361(16) 0.71015(13) 1.04147(9)
H10 H 0.132(2) 0.565(2) 0.8057(15)
H11 H -0.028(3) 0.042(3) 0.9145(16)
loop_
_geom_bond_atom_site_label_1
_geom_bond_atom_site_label_2
_geom_bond_site_symmetry_1
_geom_bond_site_symmetry_2
C1 C2 1_555 1_555
C2 C3 1_555 1_555
C3 N3 1_555 1_555
C4 C1 1_555 1_555
H1 C4 1_555 1_555
C5 C2 1_555 1_555
C6 C5 1_555 1_555
C7 C6 1_555 1_555
C8 H2 1_555 1_555
H3 C8 1_555 1_555
C9 C8 1_555 1_555
H4 C9 1_555 1_555
H5 C9 1_555 1_555
H6 C9 1_555 1_555
C10 C5 1_555 1_555
H7 C10 1_555 1_555
H8 C10 1_555 1_555
H9 C10 1_555 1_555
N1 C1 1_555 1_555
N2 C4 1_555 1_555
N3 N2 1_555 1_555
O1 C3 1_555 1_555
O2 C7 1_555 1_555
O3 C7 1_555 1_555
H10 N1 1_555 1_555
H11 N3 1_555 1_555
C6 N1 1_555 1_555
C8 O3 1_555 1_555

#END
