
#######################################################################
#
#                 Cambridge Crystallographic Data Centre
#                                CCDC 
#
#######################################################################
#
# If this CIF has been generated from an entry in the Cambridge 
# Structural Database, then it will include bibliographic, chemical, 
# crystal, experimental, refinement or atomic coordinate data resulting 
# from the CCDC's data processing and validation procedures.
#
#######################################################################

data_DUMNIK
_chemical_formula_moiety         'C17 H12 N4 O5,C2 H6 O1 S1'
_chemical_name_systematic        
'1-(4-nitrophenyl)-2-((5-(4-nitrophenyl)-2-furyl)methylene)hydrazine dimethyl sulfoxide solvate'
_symmetry_cell_setting           monoclinic
_symmetry_space_group_name_H-M   'P 21/c'
_symmetry_Int_Tables_number      14
_space_group_name_Hall           '-P 2ybc'
loop_
_symmetry_equiv_pos_site_id
_symmetry_equiv_pos_as_xyz
1 x,y,z
2 -x,1/2+y,1/2-z
3 -x,-y,-z
4 x,1/2-y,1/2+z
_cell_length_a                   14.3506(15)
_cell_length_b                   11.4640(5)
_cell_length_c                   13.8015(12)
_cell_angle_alpha                90
_cell_angle_beta                 118.252(12)
_cell_angle_gamma                90
_cell_volume                     2000.08
_exptl_crystal_colour            'dark red'
_exptl_crystal_description       block
_cell_formula_units_Z            4
loop_
_atom_site_label
_atom_site_type_symbol
_atom_site_fract_x
_atom_site_fract_y
_atom_site_fract_z
S1 S 0.18344(6) 0.46038(6) 0.62910(6)
O1 O 0.13463(18) 0.57893(16) 0.61584(17)
C1 C 0.0926(3) 0.3617(3) 0.6387(3)
H1 H 0.0240 0.3718 0.5763
H2 H 0.0885 0.3770 0.7050
H3 H 0.1163 0.2831 0.6400
C2 C 0.1606(3) 0.4194(3) 0.4947(3)
H4 H 0.1974 0.4722 0.4706
H5 H 0.0862 0.4225 0.4445
H6 H 0.1860 0.3415 0.4968
O2 O 0.07493(15) 0.06060(14) 0.44017(14)
N1 N 0.5429(2) -0.0940(2) 0.79651(19)
C3 C -0.3415(2) 0.25260(19) 0.1382(2)
C4 C 0.2295(2) -0.0574(2) 0.5435(2)
N2 N -0.23798(18) 0.25128(17) 0.21827(17)
H7 H -0.2095 0.3132 0.2558
N3 N -0.18041(18) 0.15160(17) 0.23812(18)
C5 C 0.1235(2) -0.0461(2) 0.4534(2)
C6 C -0.3900(2) 0.1556(2) 0.0727(2)
H8 H -0.3516 0.0874 0.0817
C7 C 0.3843(2) 0.0236(2) 0.6956(2)
H9 H 0.4192 0.0861 0.7414
O3 O 0.58524(17) -0.01086(18) 0.85813(17)
C8 C 0.4338(2) -0.0826(2) 0.7098(2)
C9 C 0.2815(2) -0.1650(2) 0.5631(2)
H10 H 0.2463 -0.2289 0.5196
O4 O 0.58939(17) -0.18715(16) 0.80567(17)
C10 C -0.4947(2) 0.1608(2) -0.0054(2)
H11 H -0.5271 0.0962 -0.0494
C11 C -0.5517(2) 0.2619(2) -0.0184(2)
C12 C -0.4002(2) 0.3546(2) 0.1225(2)
H12 H -0.3680 0.4202 0.1650
C13 C -0.0889(2) 0.1530(2) 0.3232(2)
H13 H -0.0648 0.2197 0.3664
C14 C -0.0239(2) 0.0504(2) 0.3511(2)
C15 C -0.5048(2) 0.3590(2) 0.0448(2)
H14 H -0.5437 0.4270 0.0350
C16 C 0.2823(2) 0.0355(2) 0.6123(2)
H15 H 0.2482 0.1070 0.6018
O5 O -0.70393(18) 0.1772(2) -0.15177(19)
N4 N -0.6630(2) 0.2650(2) -0.0983(2)
C17 C 0.3832(2) -0.1779(2) 0.6452(2)
H16 H 0.4175 -0.2495 0.6572
C18 C -0.0374(2) -0.0587(2) 0.3093(2)
H17 H -0.0974 -0.0878 0.2492
O6 O -0.71208(19) 0.3559(2) -0.1087(2)
C19 C 0.0567(2) -0.1193(2) 0.3742(2)
H18 H 0.0707 -0.1964 0.3645
loop_
_geom_bond_atom_site_label_1
_geom_bond_atom_site_label_2
_geom_bond_site_symmetry_1
_geom_bond_site_symmetry_2
S1 O1 1_555 1_555
C1 S1 1_555 1_555
H1 C1 1_555 1_555
H2 C1 1_555 1_555
H3 C1 1_555 1_555
C2 S1 1_555 1_555
H4 C2 1_555 1_555
H5 C2 1_555 1_555
H6 C2 1_555 1_555
O2 C5 1_555 1_555
N1 O3 1_555 1_555
C3 N2 1_555 1_555
C4 C5 1_555 1_555
N2 H7 1_555 1_555
N3 N2 1_555 1_555
C5 C19 1_555 1_555
C6 C3 1_555 1_555
H8 C6 1_555 1_555
C7 H9 1_555 1_555
C8 N1 1_555 1_555
C9 C4 1_555 1_555
H10 C9 1_555 1_555
O4 N1 1_555 1_555
C10 C6 1_555 1_555
H11 C10 1_555 1_555
C11 C10 1_555 1_555
C12 C3 1_555 1_555
H12 C12 1_555 1_555
C13 N3 1_555 1_555
H13 C13 1_555 1_555
C14 O2 1_555 1_555
C15 C11 1_555 1_555
H14 C15 1_555 1_555
C16 C4 1_555 1_555
H15 C16 1_555 1_555
O5 N4 1_555 1_555
N4 C11 1_555 1_555
C17 C8 1_555 1_555
H16 C17 1_555 1_555
C18 C14 1_555 1_555
H17 C18 1_555 1_555
O6 N4 1_555 1_555
C19 C18 1_555 1_555
H18 C19 1_555 1_555
C7 C8 1_555 1_555
C7 C16 1_555 1_555
C9 C17 1_555 1_555
C12 C15 1_555 1_555
C13 C14 1_555 1_555

#END
