
#######################################################################
#
#                 Cambridge Crystallographic Data Centre
#                                CCDC 
#
#######################################################################
#
# If this CIF has been generated from an entry in the Cambridge 
# Structural Database, then it will include bibliographic, chemical, 
# crystal, experimental, refinement or atomic coordinate data resulting 
# from the CCDC's data processing and validation procedures.
#
#######################################################################

data_DUMPEH
_chemical_formula_moiety         'C12 H9 I1 N2 O1 S1'
_chemical_name_systematic        
5-([(E)-2-(4-Iodophenyl)hydrazinylidene]methyl)thiophene-2-carbaldehyde
_symmetry_cell_setting           orthorhombic
_symmetry_space_group_name_H-M   'P b c a'
_symmetry_Int_Tables_number      61
_space_group_name_Hall           '-P 2ac 2ab'
loop_
_symmetry_equiv_pos_site_id
_symmetry_equiv_pos_as_xyz
1 x,y,z
2 1/2-x,-y,1/2+z
3 -x,1/2+y,1/2-z
4 1/2+x,1/2-y,-z
5 -x,-y,-z
6 1/2+x,y,1/2-z
7 x,1/2-y,1/2+z
8 1/2-x,1/2+y,z
_cell_length_a                   6.9291(9)
_cell_length_b                   11.7602(10)
_cell_length_c                   30.958(4)
_cell_angle_alpha                90
_cell_angle_beta                 90
_cell_angle_gamma                90
_cell_volume                     2522.69
_exptl_crystal_colour            colorless
_exptl_crystal_description       prism
_chemical_melting_point          464-467K
_cell_formula_units_Z            8
_exptl_crystal_recrystallization_method methanol
loop_
_atom_site_label
_atom_site_type_symbol
_atom_site_fract_x
_atom_site_fract_y
_atom_site_fract_z
I1 I -0.01127(8) 0.34335(4) 0.487908(18)
S1 S 0.1013(3) 0.10271(14) 0.21597(6)
N1 N 0.0936(8) -0.0324(5) 0.3466(2)
H1 H 0.039(9) -0.099(3) 0.350(2)
N2 N 0.1043(8) 0.0033(5) 0.3048(2)
O1 O 0.1012(7) 0.2541(4) 0.13359(16)
C1 C 0.0410(10) 0.2143(6) 0.4423(2)
C2 C 0.1194(10) 0.2425(6) 0.4030(2)
H2 H 0.1610 0.3182 0.3976
C3 C 0.1374(9) 0.1609(6) 0.3714(2)
H3 H 0.1900 0.1808 0.3441
C4 C 0.0794(9) 0.0499(6) 0.3792(2)
C5 C 0.0110(10) 0.0198(5) 0.4197(2)
H4 H -0.0202 -0.0573 0.4257
C6 C -0.0121(10) 0.1017(6) 0.4514(2)
H5 H -0.0631 0.0820 0.4789
C7 C 0.0949(10) -0.0729(6) 0.2752(2)
H6 H 0.0837 -0.1509 0.2827
C8 C 0.1016(9) -0.0394(5) 0.2306(2)
C9 C 0.1085(9) 0.0672(6) 0.1616(2)
C10 C 0.1118(10) -0.0491(6) 0.1562(2)
H7 H 0.1177 -0.0849 0.1288
C11 C 0.1057(10) -0.1090(6) 0.1951(2)
H8 H 0.1046 -0.1897 0.1968
C12 C 0.1088(9) 0.1509(6) 0.1282(2)
H9 H 0.1156 0.1243 0.0993
loop_
_geom_bond_atom_site_label_1
_geom_bond_atom_site_label_2
_geom_bond_site_symmetry_1
_geom_bond_site_symmetry_2
I1 C1 1_555 1_555
S1 C8 1_555 1_555
N1 H1 1_555 1_555
N2 N1 1_555 1_555
O1 C12 1_555 1_555
C1 C2 1_555 1_555
C2 H2 1_555 1_555
C3 C2 1_555 1_555
H3 C3 1_555 1_555
C4 N1 1_555 1_555
C5 C4 1_555 1_555
H4 C5 1_555 1_555
C6 C1 1_555 1_555
H5 C6 1_555 1_555
C7 N2 1_555 1_555
H6 C7 1_555 1_555
C8 C7 1_555 1_555
C9 S1 1_555 1_555
C10 C9 1_555 1_555
H7 C10 1_555 1_555
C11 C8 1_555 1_555
H8 C11 1_555 1_555
C12 C9 1_555 1_555
H9 C12 1_555 1_555
C3 C4 1_555 1_555
C5 C6 1_555 1_555
C10 C11 1_555 1_555

#END
