
#######################################################################
#
#                 Cambridge Crystallographic Data Centre
#                                CCDC 
#
#######################################################################
#
# If this CIF has been generated from an entry in the Cambridge 
# Structural Database, then it will include bibliographic, chemical, 
# crystal, experimental, refinement or atomic coordinate data resulting 
# from the CCDC's data processing and validation procedures.
#
#######################################################################

data_DUMSUB
_chemical_formula_moiety         'C20 H20 N2 O2'
_chemical_name_systematic        
3-(3,4-dimethoxyphenyl)-6-methyl-4-(4-methylphenyl)pyridazine
_symmetry_cell_setting           monoclinic
_symmetry_space_group_name_H-M   'P 21/n'
_symmetry_Int_Tables_number      14
_space_group_name_Hall           '-P 2yn'
loop_
_symmetry_equiv_pos_site_id
_symmetry_equiv_pos_as_xyz
1 x,y,z
2 1/2-x,1/2+y,1/2-z
3 -x,-y,-z
4 1/2+x,1/2-y,1/2+z
_cell_length_a                   7.8618(3)
_cell_length_b                   10.9341(4)
_cell_length_c                   19.6250(7)
_cell_angle_alpha                90
_cell_angle_beta                 95.893(2)
_cell_angle_gamma                90
_cell_volume                     1678.08
_exptl_crystal_colour            yellow
_cell_formula_units_Z            4
loop_
_atom_site_label
_atom_site_type_symbol
_atom_site_fract_x
_atom_site_fract_y
_atom_site_fract_z
O1 O -0.31750(14) 0.36425(11) 0.34509(6)
O2 O -0.22341(14) 0.47415(11) 0.23863(5)
N1 N 0.39217(19) 0.62176(14) 0.42681(7)
N2 N 0.5454(2) 0.67588(15) 0.44077(7)
C1 C -0.3883(3) 0.32571(19) 0.40549(9)
H1 H -0.3255 0.2565 0.4248
H2 H -0.5058 0.3032 0.3942
H3 H -0.3812 0.3914 0.4381
C2 C -0.1572(2) 0.41367(14) 0.35297(8)
C3 C -0.1063(2) 0.47512(14) 0.29529(7)
C4 C 0.0507(2) 0.53153(14) 0.29903(8)
H4 H 0.0809 0.5752 0.2614
C5 C 0.1660(2) 0.52467(14) 0.35818(8)
C6 C 0.3359(2) 0.58661(14) 0.36321(8)
C7 C 0.4311(2) 0.61091(14) 0.30699(8)
C8 C 0.38096(19) 0.56979(14) 0.23535(8)
C9 C 0.3634(2) 0.44606(15) 0.22005(8)
H5 H 0.3808 0.3883 0.2549
C10 C 0.3203(2) 0.40857(16) 0.15350(9)
H6 H 0.3092 0.3254 0.1442
C11 C 0.2931(2) 0.49146(18) 0.10007(9)
C12 C 0.2480(3) 0.4470(2) 0.02766(10)
H7 H 0.1757 0.5060 0.0027
H8 H 0.1888 0.3703 0.0285
H9 H 0.3506 0.4364 0.0057
C13 C -0.1835(3) 0.5431(2) 0.18106(9)
H10 H -0.1619 0.6265 0.1945
H11 H -0.2780 0.5399 0.1460
H12 H -0.0836 0.5094 0.1638
C14 C 0.1162(2) 0.46125(16) 0.41405(8)
H13 H 0.1914 0.4544 0.4537
C15 C -0.0443(2) 0.40789(15) 0.41161(8)
H14 H -0.0765 0.3676 0.4500
C16 C 0.6390(2) 0.70155(15) 0.38983(9)
C17 C 0.8125(2) 0.7556(2) 0.40940(11)
H15 H 0.8123 0.7986 0.4520
H16 H 0.8400 0.8114 0.3744
H17 H 0.8962 0.6915 0.4143
C18 C 0.5814(2) 0.67411(15) 0.32228(8)
H18 H 0.6449 0.6986 0.2872
C19 C 0.3118(2) 0.61417(18) 0.11580(9)
H19 H 0.2939 0.6718 0.0809
C20 C 0.3563(2) 0.65326(16) 0.18223(8)
H20 H 0.3699 0.7364 0.1913
loop_
_geom_bond_atom_site_label_1
_geom_bond_atom_site_label_2
_geom_bond_site_symmetry_1
_geom_bond_site_symmetry_2
O1 C1 1_555 1_555
O2 C3 1_555 1_555
N1 N2 1_555 1_555
N2 C16 1_555 1_555
C1 H1 1_555 1_555
H2 C1 1_555 1_555
H3 C1 1_555 1_555
C2 O1 1_555 1_555
C3 C2 1_555 1_555
C4 C3 1_555 1_555
H4 C4 1_555 1_555
C5 C4 1_555 1_555
C6 N1 1_555 1_555
C7 C6 1_555 1_555
C8 C7 1_555 1_555
C9 C8 1_555 1_555
H5 C9 1_555 1_555
C10 C9 1_555 1_555
H6 C10 1_555 1_555
C11 C10 1_555 1_555
C12 C11 1_555 1_555
H7 C12 1_555 1_555
H8 C12 1_555 1_555
H9 C12 1_555 1_555
C13 O2 1_555 1_555
H10 C13 1_555 1_555
H11 C13 1_555 1_555
H12 C13 1_555 1_555
C14 C5 1_555 1_555
H13 C14 1_555 1_555
C15 C2 1_555 1_555
H14 C15 1_555 1_555
C16 C17 1_555 1_555
C17 H15 1_555 1_555
H16 C17 1_555 1_555
H17 C17 1_555 1_555
C18 C7 1_555 1_555
H18 C18 1_555 1_555
C19 C11 1_555 1_555
H19 C19 1_555 1_555
C20 C8 1_555 1_555
H20 C20 1_555 1_555
C5 C6 1_555 1_555
C14 C15 1_555 1_555
C16 C18 1_555 1_555
C19 C20 1_555 1_555

#END
