
#######################################################################
#
#                 Cambridge Crystallographic Data Centre
#                                CCDC 
#
#######################################################################
#
# If this CIF has been generated from an entry in the Cambridge 
# Structural Database, then it will include bibliographic, chemical, 
# crystal, experimental, refinement or atomic coordinate data resulting 
# from the CCDC's data processing and validation procedures.
#
#######################################################################

data_DUMTUB
_chemical_formula_moiety         'C17 H15 N1 O2'
_chemical_name_systematic        
1-(1-Hydroxy-9H-carbazol-2-yl)-3-methylbut-2-en-1-one
_symmetry_cell_setting           triclinic
_symmetry_space_group_name_H-M   'P -1'
_symmetry_Int_Tables_number      2
_space_group_name_Hall           '-P 1'
loop_
_symmetry_equiv_pos_site_id
_symmetry_equiv_pos_as_xyz
1 x,y,z
2 -x,-y,-z
_cell_length_a                   6.3416(9)
_cell_length_b                   15.202(2)
_cell_length_c                   15.462(3)
_cell_angle_alpha                115.216(5)
_cell_angle_beta                 95.042(5)
_cell_angle_gamma                101.922(4)
_cell_volume                     1293.17
_exptl_crystal_colour            orange
_exptl_crystal_description       plate
_chemical_melting_point          '482-484 K'
_cell_formula_units_Z            4
_exptl_crystal_recrystallization_method ethanol
loop_
_atom_site_label
_atom_site_type_symbol
_atom_site_fract_x
_atom_site_fract_y
_atom_site_fract_z
C1 C 0.7818(2) 0.24361(12) 0.56142(11)
C2 C 0.6819(3) 0.31619(12) 0.61788(11)
H1 H 0.5434 0.2975 0.6334
C3 C 0.7926(3) 0.41613(12) 0.65017(12)
H2 H 0.7278 0.4672 0.6882
C4 C 0.9985(3) 0.44455(12) 0.62833(12)
H3 H 1.0709 0.5141 0.6522
C5 C 1.0970(3) 0.37214(12) 0.57234(11)
H4 H 1.2366 0.3916 0.5580
C6 C 0.9881(2) 0.26989(12) 0.53716(11)
C7 C 0.8360(2) -0.00303(12) 0.40772(11)
C8 C 0.8533(2) 0.09890(12) 0.46513(11)
C9 C 1.0325(2) 0.17577(11) 0.47439(11)
C10 C 1.2026(2) 0.15003(12) 0.42390(11)
H5 H 1.3252 0.2011 0.4289
C11 C 1.1880(2) 0.04945(12) 0.36717(11)
H6 H 1.3029 0.0321 0.3334
C12 C 1.0068(2) -0.02914(11) 0.35748(11)
C13 C 0.9842(2) -0.13732(12) 0.29741(11)
C14 C 1.1542(3) -0.17222(12) 0.24376(11)
H7 H 1.2805 -0.1225 0.2493
C15 C 1.1436(3) -0.26979(12) 0.18718(11)
C16 C 0.9526(3) -0.35834(12) 0.16533(12)
H8 H 0.9365 -0.3639 0.2254
H9 H 0.9790 -0.4204 0.1171
H10 H 0.8178 -0.3485 0.1392
C17 C 1.3362(3) -0.29673(13) 0.14197(12)
H11 H 1.4516 -0.2348 0.1590
H12 H 1.2888 -0.3343 0.0709
H13 H 1.3937 -0.3386 0.1665
N1 N 0.7042(2) 0.13977(10) 0.51833(9)
H27 H 0.5806 0.1055 0.5239
O1 O 0.65515(17) -0.07178(8) 0.40157(8)
H29 H 0.6662 -0.1302 0.3672
O2 O 0.81641(18) -0.20127(8) 0.29274(8)
C18 C 0.6941(2) -0.19517(12) 0.77600(11)
C19 C 0.7881(3) -0.27530(12) 0.73361(11)
H14 H 0.9299 -0.2729 0.7617
C20 C 0.6655(3) -0.35811(12) 0.64911(12)
H15 H 0.7260 -0.4132 0.6179
C21 C 0.4536(3) -0.36301(12) 0.60808(12)
H16 H 0.3725 -0.4217 0.5508
C22 C 0.3619(3) -0.28337(12) 0.65017(11)
H17 H 0.2188 -0.2870 0.6223
C23 C 0.4834(2) -0.19745(12) 0.73445(11)
C24 C 0.6547(2) 0.05079(11) 0.94208(11)
C25 C 0.6330(2) -0.04659(11) 0.86929(11)
C26 C 0.4459(2) -0.10097(11) 0.79421(11)
C27 C 0.2753(2) -0.05548(12) 0.79034(11)
H18 H 0.1488 -0.0906 0.7394
C28 C 0.2948(2) 0.04032(12) 0.86139(11)
H19 H 0.1798 0.0710 0.8586
C29 C 0.4818(2) 0.09561(11) 0.93938(11)
C30 C 0.5056(2) 0.19747(12) 1.01756(11)
C31 C 0.3307(2) 0.24795(12) 1.02043(11)
H20 H 0.1949 0.2088 0.9761
C32 C 0.3472(3) 0.34515(12) 1.08080(12)
C33 C 0.5470(3) 0.41995(13) 1.15485(13)
H21 H 0.5608 0.4072 1.2118
H22 H 0.5326 0.4885 1.1750
H23 H 0.6781 0.4130 1.1262
C34 C 0.1508(3) 0.38542(13) 1.07778(13)
H24 H 0.0296 0.3324 1.0266
H25 H 0.1892 0.4432 1.0637
H26 H 0.1055 0.4070 1.1410
N2 N 0.7808(2) -0.10416(10) 0.85829(9)
H28 H 0.9085 -0.0858 0.8972
O3 O 0.83971(17) 0.09766(8) 1.01146(8)
H30 H 0.8316 0.1547 1.0516
O4 O 0.67656(18) 0.24120(8) 1.08281(8)
loop_
_geom_bond_atom_site_label_1
_geom_bond_atom_site_label_2
_geom_bond_site_symmetry_1
_geom_bond_site_symmetry_2
C1 C2 1_555 1_555
C2 H1 1_555 1_555
C3 C2 1_555 1_555
H2 C3 1_555 1_555
C4 C3 1_555 1_555
H3 C4 1_555 1_555
C5 C4 1_555 1_555
H4 C5 1_555 1_555
C6 C1 1_555 1_555
C7 C8 1_555 1_555
C8 C9 1_555 1_555
C9 C6 1_555 1_555
C10 C9 1_555 1_555
H5 C10 1_555 1_555
C11 C10 1_555 1_555
H6 C11 1_555 1_555
C12 C7 1_555 1_555
C13 C12 1_555 1_555
C14 C13 1_555 1_555
H7 C14 1_555 1_555
C15 C14 1_555 1_555
C16 C15 1_555 1_555
H8 C16 1_555 1_555
H9 C16 1_555 1_555
H10 C16 1_555 1_555
C17 C15 1_555 1_555
H11 C17 1_555 1_555
H12 C17 1_555 1_555
H13 C17 1_555 1_555
C18 C19 1_555 1_555
C19 H14 1_555 1_555
C20 C19 1_555 1_555
H15 C20 1_555 1_555
C21 C20 1_555 1_555
H16 C21 1_555 1_555
C22 C21 1_555 1_555
H17 C22 1_555 1_555
C23 C18 1_555 1_555
C24 C25 1_555 1_555
C25 C26 1_555 1_555
C26 C23 1_555 1_555
C27 C26 1_555 1_555
H18 C27 1_555 1_555
C28 C27 1_555 1_555
H19 C28 1_555 1_555
C29 C24 1_555 1_555
C30 C29 1_555 1_555
C31 C30 1_555 1_555
H20 C31 1_555 1_555
C32 C31 1_555 1_555
C33 C32 1_555 1_555
H21 C33 1_555 1_555
H22 C33 1_555 1_555
H23 C33 1_555 1_555
C34 C32 1_555 1_555
H24 C34 1_555 1_555
H25 C34 1_555 1_555
H26 C34 1_555 1_555
N1 C1 1_555 1_555
H27 N1 1_555 1_555
N2 C18 1_555 1_555
H28 N2 1_555 1_555
O1 C7 1_555 1_555
H29 O1 1_555 1_555
O2 C13 1_555 1_555
O3 C24 1_555 1_555
H30 O3 1_555 1_555
O4 C30 1_555 1_555
C5 C6 1_555 1_555
C8 N1 1_555 1_555
C11 C12 1_555 1_555
C22 C23 1_555 1_555
C25 N2 1_555 1_555
C28 C29 1_555 1_555

#END
