
#######################################################################
#
#                 Cambridge Crystallographic Data Centre
#                                CCDC 
#
#######################################################################
#
# If this CIF has been generated from an entry in the Cambridge 
# Structural Database, then it will include bibliographic, chemical, 
# crystal, experimental, refinement or atomic coordinate data resulting 
# from the CCDC's data processing and validation procedures.
#
#######################################################################

data_DUMWUE
_chemical_formula_moiety         'C29 H29 Cl1 O11'
_chemical_name_systematic        
(E)-1-(4-Chlorophenyl)-3-[4-(2,3,4,6-tetra-O-acetyl-\b-D-allopyranosyloxy)phenyl]prop-2-en-1-one
_symmetry_cell_setting           monoclinic
_symmetry_space_group_name_H-M   'P 21'
_symmetry_Int_Tables_number      4
_space_group_name_Hall           'P 2yb'
loop_
_symmetry_equiv_pos_site_id
_symmetry_equiv_pos_as_xyz
1 x,y,z
2 -x,1/2+y,-z
_cell_length_a                   7.2387(14)
_cell_length_b                   39.239(8)
_cell_length_c                   10.297(2)
_cell_angle_alpha                90
_cell_angle_beta                 90.25(3)
_cell_angle_gamma                90
_cell_volume                     2924.73
_exptl_crystal_colour            colorless
_exptl_crystal_description       block
_cell_formula_units_Z            4
_exptl_crystal_recrystallization_method ethanol
loop_
_atom_site_label
_atom_site_type_symbol
_atom_site_fract_x
_atom_site_fract_y
_atom_site_fract_z
Cl1 Cl -0.4045(2) 0.46856(4) -0.80542(16)
O1 O 0.0935(4) 0.23162(7) 0.2486(2)
O2 O 0.0223(4) 0.22091(8) 0.5168(3)
O3 O -0.0068(5) 0.17591(10) 0.6492(3)
O4 O 0.1770(4) 0.14634(7) 0.3739(2)
O5 O 0.3944(5) 0.15196(10) 0.5296(4)
O6 O 0.2152(3) 0.15628(7) 0.1075(2)
O7 O 0.4675(4) 0.13160(8) 0.0196(3)
O8 O 0.4323(3) 0.20767(7) 0.0084(2)
O9 O 0.7123(4) 0.19670(8) 0.0942(3)
O10 O 0.2147(4) 0.26256(7) 0.0803(3)
O11 O -0.6370(8) 0.35722(14) -0.3468(4)
C1 C 0.0449(5) 0.19838(10) 0.2976(3)
H1 H -0.0276 0.1859 0.2297
C2 C 0.2234(5) 0.17956(10) 0.3222(3)
H2 H 0.3002 0.1924 0.3867
C3 C 0.3300(5) 0.17529(10) 0.1964(3)
H3 H 0.4502 0.1634 0.2120
C4 C 0.3608(5) 0.21054(10) 0.1381(3)
H4 H 0.4477 0.2240 0.1938
C5 C 0.1765(5) 0.22917(10) 0.1247(3)
H5 H 0.0931 0.2170 0.0625
C6 C -0.0756(6) 0.20335(12) 0.4162(4)
H6 H -0.1868 0.2166 0.3916
H7 H -0.1166 0.1809 0.4487
C7 C 0.0449(6) 0.20507(14) 0.6306(4)
C8 C 0.1309(8) 0.22760(18) 0.7274(4)
H8 H 0.0371 0.2428 0.7638
H9 H 0.2276 0.2412 0.6858
H10 H 0.1855 0.2138 0.7971
C9 C 0.2725(6) 0.13525(11) 0.4806(4)
C10 C 0.2024(6) 0.10208(11) 0.5231(4)
H11 H 0.2790 0.0935 0.5947
H12 H 0.2066 0.0860 0.4505
H13 H 0.0745 0.1046 0.5526
C11 C 0.3029(6) 0.13577(10) 0.0206(4)
C12 C 0.1689(7) 0.12083(13) -0.0733(4)
H14 H 0.1177 0.1389 -0.1282
H15 H 0.0687 0.1097 -0.0258
H16 H 0.2319 0.1040 -0.1278
C13 C 0.6163(5) 0.19973(11) -0.0015(4)
C14 C 0.6735(7) 0.19570(13) -0.1389(4)
H17 H 0.7064 0.2180 -0.1748
H18 H 0.5713 0.1859 -0.1893
H19 H 0.7807 0.1805 -0.1434
C15 C 0.0739(6) 0.27878(10) 0.0115(4)
C16 C 0.1302(7) 0.30255(11) -0.0791(4)
H20 H 0.2573 0.3080 -0.0883
C17 C -0.0025(8) 0.31829(12) -0.1565(4)
H21 H 0.0352 0.3346 -0.2194
C18 C -0.1872(8) 0.31079(12) -0.1440(4)
C19 C -0.2401(7) 0.28779(12) -0.0488(4)
H22 H -0.3677 0.2830 -0.0377
C20 C -0.1119(6) 0.27163(11) 0.0308(4)
H23 H -0.1501 0.2562 0.0963
C21 C -0.3332(8) 0.32739(14) -0.2210(5)
H24 H -0.4555 0.3196 -0.2065
C22 C -0.3144(9) 0.35191(13) -0.3078(4)
H25 H -0.1949 0.3605 -0.3273
C23 C -0.4788(10) 0.36618(16) -0.3751(5)
C24 C -0.4528(9) 0.39271(13) -0.4791(4)
C25 C -0.6059(10) 0.40906(17) -0.5284(5)
H26 H -0.7238 0.4039 -0.4933
C26 C -0.5936(10) 0.43274(15) -0.6271(5)
H27 H -0.7010 0.4437 -0.6599
C27 C -0.4251(10) 0.43989(13) -0.6758(5)
C28 C -0.2635(10) 0.42421(14) -0.6317(6)
H28 H -0.1468 0.4290 -0.6693
C29 C -0.2821(10) 0.40076(13) -0.5282(5)
H29 H -0.1750 0.3904 -0.4921
Cl2 Cl -0.4194(3) 0.24933(4) 1.58590(17)
O12 O 0.1131(4) 0.48458(7) 0.5432(2)
O13 O 0.0396(4) 0.49401(8) 0.2686(2)
O14 O 0.0283(5) 0.54079(9) 0.1405(3)
O15 O 0.2201(4) 0.56671(7) 0.3966(2)
O16 O 0.4724(4) 0.55925(9) 0.2730(3)
O17 O 0.2470(4) 0.56115(7) 0.6643(2)
O18 O 0.4752(6) 0.59742(12) 0.6962(5)
O19 O 0.4507(4) 0.51189(7) 0.7829(2)
O20 O 0.7336(4) 0.52389(9) 0.7032(3)
O21 O 0.2323(4) 0.45509(7) 0.7148(3)
O22 O -0.6366(6) 0.36340(14) 1.1305(4)
C30 C 0.0696(5) 0.51697(10) 0.4870(3)
H30 H 0.0023 0.5310 0.5527
C31 C 0.2533(5) 0.53414(10) 0.4569(3)
H31 H 0.3266 0.5194 0.3971
C32 C 0.3606(5) 0.53960(10) 0.5825(3)
H32 H 0.4828 0.5505 0.5651
C33 C 0.3851(5) 0.50576(10) 0.6528(3)
H33 H 0.4738 0.4909 0.6048
C34 C 0.1990(6) 0.48786(10) 0.6672(3)
H34 H 0.1175 0.5008 0.7278
C35 C -0.0543(5) 0.51158(11) 0.3716(3)
H35 H -0.1636 0.4982 0.3983
H36 H -0.0983 0.5339 0.3394
C36 C 0.0665(6) 0.51104(13) 0.1566(4)
C37 C 0.1418(7) 0.48837(17) 0.0542(4)
H37 H 0.0407 0.4754 0.0142
H38 H 0.2311 0.4726 0.0930
H39 H 0.2032 0.5022 -0.0121
C38 C 0.3431(5) 0.57652(11) 0.3034(4)
C39 C 0.2970(6) 0.61081(12) 0.2540(4)
H40 H 0.3474 0.6281 0.3132
H41 H 0.1625 0.6133 0.2486
H42 H 0.3505 0.6138 0.1676
C40 C 0.3226(6) 0.58947(11) 0.7148(4)
C41 C 0.1861(6) 0.60711(13) 0.8003(4)
H43 H 0.2385 0.6287 0.8308
H44 H 0.1578 0.5926 0.8750
H45 H 0.0725 0.6116 0.7510
C42 C 0.6307(6) 0.52256(11) 0.7942(4)
C43 C 0.6705(7) 0.53339(16) 0.9307(5)
H46 H 0.7818 0.5476 0.9323
H47 H 0.6902 0.5132 0.9850
H48 H 0.5657 0.5465 0.9642
C44 C 0.0878(6) 0.43935(10) 0.7811(4)
C45 C 0.1393(7) 0.41400(11) 0.8695(4)
H49 H 0.2650 0.4075 0.8789
C46 C 0.0033(7) 0.39862(11) 0.9431(4)
H50 H 0.0371 0.3812 1.0027
C47 C -0.1812(7) 0.40791(12) 0.9324(4)
C48 C -0.2288(6) 0.43279(11) 0.8400(4)
H51 H -0.3546 0.4392 0.8299
C49 C -0.0941(6) 0.44838(11) 0.7624(4)
H52 H -0.1276 0.4647 0.6985
C50 C -0.3288(8) 0.39263(13) 1.0094(4)
H53 H -0.4492 0.4017 0.9962
C51 C -0.3144(8) 0.36731(13) 1.0965(4)
H54 H -0.1964 0.3581 1.1169
C52 C -0.4804(9) 0.35371(15) 1.1606(5)
C53 C -0.4584(9) 0.32656(13) 1.2633(4)
C54 C -0.2858(9) 0.31860(14) 1.3170(5)
H55 H -0.1778 0.3294 1.2849
C55 C -0.2715(10) 0.29441(16) 1.4192(6)
H56 H -0.1559 0.2891 1.4584
C56 C -0.4352(10) 0.27874(13) 1.4595(5)
C57 C -0.6005(10) 0.28634(16) 1.4068(5)
H57 H -0.7080 0.2750 1.4368
C58 C -0.6159(9) 0.31037(17) 1.3100(5)
H58 H -0.7339 0.3159 1.2750
loop_
_geom_bond_atom_site_label_1
_geom_bond_atom_site_label_2
_geom_bond_site_symmetry_1
_geom_bond_site_symmetry_2
Cl1 C27 1_555 1_555
O1 C1 1_555 1_555
O2 C6 1_555 1_555
O3 C7 1_555 1_555
O4 C2 1_555 1_555
O5 C9 1_555 1_555
O6 C3 1_555 1_555
O7 C11 1_555 1_555
O8 C4 1_555 1_555
O9 C13 1_555 1_555
O10 C5 1_555 1_555
O11 C23 1_555 1_555
C1 H1 1_555 1_555
C2 C1 1_555 1_555
H2 C2 1_555 1_555
C3 C2 1_555 1_555
H3 C3 1_555 1_555
C4 C3 1_555 1_555
H4 C4 1_555 1_555
C5 O1 1_555 1_555
H5 C5 1_555 1_555
C6 C1 1_555 1_555
H6 C6 1_555 1_555
H7 C6 1_555 1_555
C7 O2 1_555 1_555
C8 C7 1_555 1_555
H8 C8 1_555 1_555
H9 C8 1_555 1_555
H10 C8 1_555 1_555
C9 O4 1_555 1_555
C10 C9 1_555 1_555
H11 C10 1_555 1_555
H12 C10 1_555 1_555
H13 C10 1_555 1_555
C11 O6 1_555 1_555
C12 C11 1_555 1_555
H14 C12 1_555 1_555
H15 C12 1_555 1_555
H16 C12 1_555 1_555
C13 O8 1_555 1_555
C14 C13 1_555 1_555
H17 C14 1_555 1_555
H18 C14 1_555 1_555
H19 C14 1_555 1_555
C15 O10 1_555 1_555
C16 C15 1_555 1_555
H20 C16 1_555 1_555
C17 C16 1_555 1_555
H21 C17 1_555 1_555
C18 C17 1_555 1_555
C19 C18 1_555 1_555
H22 C19 1_555 1_555
C20 C15 1_555 1_555
H23 C20 1_555 1_555
C21 C18 1_555 1_555
H24 C21 1_555 1_555
C22 C21 1_555 1_555
H25 C22 1_555 1_555
C23 C22 1_555 1_555
C24 C23 1_555 1_555
C25 C24 1_555 1_555
H26 C25 1_555 1_555
C26 C25 1_555 1_555
H27 C26 1_555 1_555
C27 C26 1_555 1_555
C28 C27 1_555 1_555
H28 C28 1_555 1_555
C29 C24 1_555 1_555
H29 C29 1_555 1_555
Cl2 C56 1_555 1_555
O12 C30 1_555 1_555
O13 C35 1_555 1_555
O14 C36 1_555 1_555
O15 C31 1_555 1_555
O16 C38 1_555 1_555
O17 C32 1_555 1_555
O18 C40 1_555 1_555
O19 C33 1_555 1_555
O20 C42 1_555 1_555
O21 C34 1_555 1_555
O22 C52 1_555 1_555
C30 H30 1_555 1_555
C31 C30 1_555 1_555
H31 C31 1_555 1_555
C32 C31 1_555 1_555
H32 C32 1_555 1_555
C33 C32 1_555 1_555
H33 C33 1_555 1_555
C34 O12 1_555 1_555
H34 C34 1_555 1_555
C35 C30 1_555 1_555
H35 C35 1_555 1_555
H36 C35 1_555 1_555
C36 O13 1_555 1_555
C37 C36 1_555 1_555
H37 C37 1_555 1_555
H38 C37 1_555 1_555
H39 C37 1_555 1_555
C38 O15 1_555 1_555
C39 C38 1_555 1_555
H40 C39 1_555 1_555
H41 C39 1_555 1_555
H42 C39 1_555 1_555
C40 O17 1_555 1_555
C41 C40 1_555 1_555
H43 C41 1_555 1_555
H44 C41 1_555 1_555
H45 C41 1_555 1_555
C42 O19 1_555 1_555
C43 C42 1_555 1_555
H46 C43 1_555 1_555
H47 C43 1_555 1_555
H48 C43 1_555 1_555
C44 O21 1_555 1_555
C45 C44 1_555 1_555
H49 C45 1_555 1_555
C46 C45 1_555 1_555
H50 C46 1_555 1_555
C47 C46 1_555 1_555
C48 C47 1_555 1_555
H51 C48 1_555 1_555
C49 C44 1_555 1_555
H52 C49 1_555 1_555
C50 C47 1_555 1_555
H53 C50 1_555 1_555
C51 C50 1_555 1_555
H54 C51 1_555 1_555
C52 C51 1_555 1_555
C53 C52 1_555 1_555
C54 C53 1_555 1_555
H55 C54 1_555 1_555
C55 C54 1_555 1_555
H56 C55 1_555 1_555
C56 C55 1_555 1_555
C57 C56 1_555 1_555
H57 C57 1_555 1_555
C58 C53 1_555 1_555
H58 C58 1_555 1_555
C4 C5 1_555 1_555
C19 C20 1_555 1_555
C28 C29 1_555 1_555
C33 C34 1_555 1_555
C48 C49 1_555 1_555
C57 C58 1_555 1_555

#END
