
#######################################################################
#
#                 Cambridge Crystallographic Data Centre
#                                CCDC 
#
#######################################################################
#
# If this CIF has been generated from an entry in the Cambridge 
# Structural Database, then it will include bibliographic, chemical, 
# crystal, experimental, refinement or atomic coordinate data resulting 
# from the CCDC's data processing and validation procedures.
#
#######################################################################

data_DUMYOB
_chemical_formula_moiety         'C16 H11 N5 O2,H2 O1'
_chemical_name_systematic        
'2-(4-(1H-1,2,4-triazol-1-yl)phenyl)-1H-benzimidazole-5-carboxylic acid monohydrate'
_symmetry_cell_setting           triclinic
_symmetry_space_group_name_H-M   'P -1'
_symmetry_Int_Tables_number      2
_space_group_name_Hall           '-P 1'
loop_
_symmetry_equiv_pos_site_id
_symmetry_equiv_pos_as_xyz
1 x,y,z
2 -x,-y,-z
_cell_length_a                   7.206(4)
_cell_length_b                   8.067(5)
_cell_length_c                   13.373(7)
_cell_angle_alpha                84.582(10)
_cell_angle_beta                 84.536(10)
_cell_angle_gamma                75.346(9)
_cell_volume                     746.679
_exptl_crystal_colour            brown
_exptl_crystal_description       rod
_cell_formula_units_Z            2
loop_
_atom_site_label
_atom_site_type_symbol
_atom_site_fract_x
_atom_site_fract_y
_atom_site_fract_z
O1 O 0.6574(6) -0.2715(6) 0.4999(3)
H1 H 0.7274 -0.3461 0.4442
O2 O 0.4140(7) -0.3007(6) 0.4169(3)
N1 N 0.3124(6) 0.0207(6) 0.8173(3)
N2 N -0.0027(6) 0.0649(6) 0.8034(3)
H2 H -0.1246 0.1032 0.8161
N3 N 0.0035(6) 0.4418(6) 1.2146(3)
N4 N 0.1605(8) 0.4616(8) 1.2588(4)
N5 N -0.1135(7) 0.5821(6) 1.3460(4)
C1 C 0.3443(8) -0.1823(7) 0.5762(4)
C2 C 0.4144(8) -0.1293(8) 0.6578(4)
H3 H 0.554(7) -0.142(6) 0.664(3)
C3 C 0.2835(7) -0.0513(7) 0.7323(4)
C4 C 0.0857(7) -0.0228(7) 0.7222(4)
C5 C 0.0145(9) -0.0798(7) 0.6427(4)
H4 H -0.121(8) -0.041(6) 0.629(4)
C6 C 0.1456(8) -0.1603(7) 0.5710(4)
H5 H 0.1021 -0.2016 0.5174
C7 C 0.4735(9) -0.2594(8) 0.4903(5)
C8 C 0.1356(7) 0.0898(7) 0.8584(4)
C9 C 0.0970(7) 0.1786(6) 0.9516(4)
C10 C 0.2500(9) 0.1821(8) 1.0061(4)
H6 H 0.385(10) 0.131(8) 0.976(5)
C11 C 0.2193(8) 0.2685(7) 1.0939(4)
H7 H 0.345(9) 0.264(8) 1.140(5)
C12 C 0.0346(7) 0.3521(6) 1.1267(4)
C13 C -0.1198(8) 0.3463(7) 1.0723(4)
H8 H -0.241(9) 0.397(7) 1.093(4)
C14 C -0.0880(9) 0.2607(7) 0.9862(4)
H9 H -0.187(9) 0.261(8) 0.953(5)
C15 C -0.1557(9) 0.5147(8) 1.2685(5)
H10 H -0.281(8) 0.522(6) 1.250(4)
C16 C 0.0787(10) 0.5463(9) 1.3371(5)
H11 H 0.176(12) 0.595(10) 1.377(6)
O3 O 0.3964(6) 0.7972(6) 0.2034(3)
H12 H 0.3861 0.8153 0.2739
H13 H 0.4790 0.8748 0.1929
loop_
_geom_bond_atom_site_label_1
_geom_bond_atom_site_label_2
_geom_bond_site_symmetry_1
_geom_bond_site_symmetry_2
O1 H1 1_555 1_555
O2 C7 1_555 1_555
N1 C3 1_555 1_555
N2 H2 1_555 1_555
N3 N4 1_555 1_555
N4 C16 1_555 1_555
N5 C15 1_555 1_555
C1 C2 1_555 1_555
C2 H3 1_555 1_555
C3 C2 1_555 1_555
C4 N2 1_555 1_555
C5 C4 1_555 1_555
H4 C5 1_555 1_555
C6 C1 1_555 1_555
H5 C6 1_555 1_555
C7 O1 1_555 1_555
C8 N1 1_555 1_555
C9 C8 1_555 1_555
C10 C9 1_555 1_555
H6 C10 1_555 1_555
C11 C10 1_555 1_555
H7 C11 1_555 1_555
C12 N3 1_555 1_555
C13 C12 1_555 1_555
H8 C13 1_555 1_555
C14 C9 1_555 1_555
H9 C14 1_555 1_555
C15 N3 1_555 1_555
H10 C15 1_555 1_555
C16 N5 1_555 1_555
H11 C16 1_555 1_555
O3 H12 1_555 1_555
H13 O3 1_555 1_555
N2 C8 1_555 1_555
C1 C7 1_555 1_555
C3 C4 1_555 1_555
C5 C6 1_555 1_555
C11 C12 1_555 1_555
C13 C14 1_555 1_555

#END
