
#######################################################################
#
#                 Cambridge Crystallographic Data Centre
#                                CCDC 
#
#######################################################################
#
# If this CIF has been generated from an entry in the Cambridge 
# Structural Database, then it will include bibliographic, chemical, 
# crystal, experimental, refinement or atomic coordinate data resulting 
# from the CCDC's data processing and validation procedures.
#
#######################################################################

data_DUNBUK
_chemical_formula_moiety         'C14 H12 N4 O2'
_chemical_name_systematic        
2,2'-(4-Amino-4H-1,2,4-triazole-3,5-diyl)diphenol
_symmetry_cell_setting           orthorhombic
_symmetry_space_group_name_H-M   'P 21 21 21'
_symmetry_Int_Tables_number      19
_space_group_name_Hall           'P 2ac 2ab'
loop_
_symmetry_equiv_pos_site_id
_symmetry_equiv_pos_as_xyz
1 x,y,z
2 1/2-x,-y,1/2+z
3 -x,1/2+y,1/2-z
4 1/2+x,1/2-y,-z
_cell_length_a                   8.262(2)
_cell_length_b                   9.384(3)
_cell_length_c                   15.919(4)
_cell_angle_alpha                90
_cell_angle_beta                 90
_cell_angle_gamma                90
_cell_volume                     1234.21
_exptl_crystal_colour            colorless
_exptl_crystal_description       block
_chemical_melting_point          '532.3-533.2 K'
_cell_formula_units_Z            4
_exptl_crystal_recrystallization_method ethanol
loop_
_atom_site_label
_atom_site_type_symbol
_atom_site_fract_x
_atom_site_fract_y
_atom_site_fract_z
C1 C 0.5404(4) 0.5286(4) 0.49447(17)
C2 C 0.4539(4) 0.4330(4) 0.54359(19)
H1 H 0.3416 0.4386 0.5450
C3 C 0.5310(4) 0.3309(4) 0.5899(2)
H2 H 0.4711 0.2671 0.6220
C4 C 0.6981(4) 0.3225(4) 0.5890(2)
H3 H 0.7509 0.2536 0.6208
C5 C 0.7861(4) 0.4166(3) 0.5408(2)
H4 H 0.8985 0.4103 0.5406
C6 C 0.7108(4) 0.5211(3) 0.49212(17)
C7 C 0.7987(4) 0.6149(3) 0.43411(18)
C8 C 0.9790(3) 0.7037(3) 0.34798(17)
C9 C 1.1311(3) 0.7234(3) 0.30083(17)
C10 C 1.1826(4) 0.8612(3) 0.2823(2)
H5 H 1.1286 0.9388 0.3055
C11 C 1.3126(4) 0.8838(4) 0.2298(2)
H6 H 1.3482 0.9759 0.2186
C12 C 1.3895(4) 0.7686(4) 0.1941(2)
H7 H 1.4744 0.7837 0.1568
C13 C 1.3427(4) 0.6316(4) 0.2127(2)
H8 H 1.3981 0.5550 0.1894
C14 C 1.2130(4) 0.6075(3) 0.26611(18)
N1 N 0.7263(3) 0.7099(3) 0.38646(15)
N2 N 0.8404(3) 0.7657(3) 0.33109(15)
N3 N 0.9594(3) 0.6108(3) 0.41328(15)
N4 N 1.0844(3) 0.5384(4) 0.45696(19)
O1 O 0.4530(3) 0.6247(3) 0.44960(15)
H9 H 0.5143 0.6734 0.4210
O2 O 1.1615(3) 0.4745(2) 0.28606(13)
H10 H 1.1785 0.4206 0.2465
H11 H 1.167(7) 0.605(5) 0.471(3)
H12 H 1.131(5) 0.486(4) 0.419(2)
loop_
_geom_bond_atom_site_label_1
_geom_bond_atom_site_label_2
_geom_bond_site_symmetry_1
_geom_bond_site_symmetry_2
C1 C2 1_555 1_555
C2 H1 1_555 1_555
C3 C2 1_555 1_555
H2 C3 1_555 1_555
C4 C3 1_555 1_555
H3 C4 1_555 1_555
C5 C4 1_555 1_555
H4 C5 1_555 1_555
C6 C1 1_555 1_555
C7 C6 1_555 1_555
C8 C9 1_555 1_555
C9 C10 1_555 1_555
C10 H5 1_555 1_555
C11 C10 1_555 1_555
H6 C11 1_555 1_555
C12 C11 1_555 1_555
H7 C12 1_555 1_555
C13 C12 1_555 1_555
H8 C13 1_555 1_555
C14 C9 1_555 1_555
N1 C7 1_555 1_555
N2 C8 1_555 1_555
N3 C7 1_555 1_555
N4 N3 1_555 1_555
O1 C1 1_555 1_555
H9 O1 1_555 1_555
O2 C14 1_555 1_555
H10 O2 1_555 1_555
H11 N4 1_555 1_555
H12 N4 1_555 1_555
C5 C6 1_555 1_555
C8 N3 1_555 1_555
C13 C14 1_555 1_555
N1 N2 1_555 1_555

#END
