
#######################################################################
#
#                 Cambridge Crystallographic Data Centre
#                                CCDC 
#
#######################################################################
#
# If this CIF has been generated from an entry in the Cambridge 
# Structural Database, then it will include bibliographic, chemical, 
# crystal, experimental, refinement or atomic coordinate data resulting 
# from the CCDC's data processing and validation procedures.
#
#######################################################################

data_DUNDEW
_chemical_name_common            
'bis(2-(1,3-Dioxo-1,3-dihydro-2H-isoindol-2-yl)ethyl) benzene-1,2-dicarboxylate'
_chemical_formula_moiety         'C28 H20 N2 O8'
_chemical_name_systematic        
'bis(2-(1,3-Dioxo-1,3-dihydro-2H-isoindol-2-yl)ethyl) phthalate'
_symmetry_cell_setting           monoclinic
_symmetry_space_group_name_H-M   'C 2/c'
_symmetry_Int_Tables_number      15
_space_group_name_Hall           '-C 2yn'
loop_
_symmetry_equiv_pos_site_id
_symmetry_equiv_pos_as_xyz
1 x,y,z
2 -x,y,1/2-z
3 1/2+x,1/2+y,z
4 1/2-x,1/2+y,1/2-z
5 -x,-y,-z
6 x,-y,1/2+z
7 1/2-x,1/2-y,-z
8 1/2+x,1/2-y,1/2+z
_cell_length_a                   15.021(2)
_cell_length_b                   12.3953(19)
_cell_length_c                   25.954(4)
_cell_angle_alpha                90
_cell_angle_beta                 90.125(2)
_cell_angle_gamma                90
_cell_volume                     4832.36
_exptl_crystal_colour            colorless
_exptl_crystal_description       block
_cell_formula_units_Z            8
_exptl_crystal_recrystallization_method acetone/water
loop_
_atom_site_label
_atom_site_type_symbol
_atom_site_fract_x
_atom_site_fract_y
_atom_site_fract_z
C1 C 0.97630(11) 1.05121(13) 0.91255(6)
C2 C 0.97412(11) 0.96188(13) 0.87460(6)
C3 C 1.03959(12) 0.89040(15) 0.85964(7)
H1 H 1.0973 0.8957 0.8724
C4 C 1.01605(15) 0.81098(16) 0.82513(7)
H2 H 1.0588 0.7616 0.8144
C5 C 0.93112(15) 0.80299(16) 0.80617(7)
H3 H 0.9172 0.7483 0.7830
C6 C 0.86611(13) 0.87458(16) 0.82088(6)
H4 H 0.8086 0.8695 0.8078
C7 C 0.88892(10) 0.95428(13) 0.85562(6)
C8 C 0.83416(10) 1.03777(13) 0.88082(6)
C9 C 0.86318(12) 1.18167(13) 0.94637(6)
H5 H 0.8060 1.2084 0.9345
H6 H 0.9060 1.2399 0.9432
C10 C 0.85568(11) 1.15007(13) 1.00187(6)
H7 H 0.9140 1.1333 1.0159
H8 H 0.8301 1.2085 1.0218
C11 C 0.75624(10) 1.03503(12) 1.04734(6)
C12 C 0.70715(10) 0.93102(12) 1.04218(6)
C13 C 0.73462(12) 0.84711(14) 1.07294(6)
H9 H 0.7771 0.8590 1.0984
C14 C 0.69920(14) 0.74499(15) 1.06614(7)
H10 H 0.7186 0.6882 1.0867
C15 C 0.63546(13) 0.72739(15) 1.02905(7)
H11 H 0.6118 0.6587 1.0245
C16 C 0.60667(11) 0.81130(13) 0.99856(7)
H12 H 0.5633 0.7991 0.9736
C17 C 0.64183(10) 0.91381(12) 1.00478(6)
C18 C 0.60827(10) 1.00635(13) 0.97419(6)
C19 C 0.53654(12) 1.06028(14) 0.89801(6)
H13 H 0.5853 1.1012 0.8833
H14 H 0.4993 1.1091 0.9177
C20 C 0.48331(11) 1.00681(15) 0.85621(6)
H15 H 0.4368 0.9635 0.8718
H16 H 0.4550 1.0618 0.8353
C21 C 0.59113(10) 0.97752(15) 0.78414(6)
C22 C 0.63316(11) 0.88163(14) 0.76059(6)
C23 C 0.68986(12) 0.87307(18) 0.71912(7)
H17 H 0.7077 0.9336 0.7006
C24 C 0.71909(14) 0.7715(2) 0.70614(8)
H18 H 0.7570 0.7632 0.6781
C25 C 0.69367(17) 0.6827(2) 0.73348(9)
H19 H 0.7161 0.6154 0.7244
C26 C 0.63520(16) 0.69062(17) 0.77446(8)
H20 H 0.6169 0.6299 0.7926
C27 C 0.60526(12) 0.79191(15) 0.78731(7)
C28 C 0.54202(12) 0.82721(15) 0.82772(6)
N1 N 0.89058(8) 1.09290(10) 0.91377(5)
N2 N 0.53736(9) 0.93881(11) 0.82350(5)
O1 O 1.03739(8) 1.08221(10) 0.93858(5)
O2 O 0.75574(8) 1.05580(11) 0.87512(5)
O3 O 0.79903(7) 1.05658(8) 1.00380(4)
O4 O 0.76146(8) 1.08763(10) 1.08580(4)
O5 O 0.61305(9) 1.09848(9) 0.98776(5)
O6 O 0.57008(8) 0.97564(9) 0.93053(4)
O7 O 0.59873(9) 1.07155(10) 0.77251(5)
O8 O 0.50082(10) 0.77394(12) 0.85785(5)
loop_
_geom_bond_atom_site_label_1
_geom_bond_atom_site_label_2
_geom_bond_site_symmetry_1
_geom_bond_site_symmetry_2
C1 C2 1_555 1_555
C2 C3 1_555 1_555
C3 H1 1_555 1_555
C4 C3 1_555 1_555
H2 C4 1_555 1_555
C5 C4 1_555 1_555
H3 C5 1_555 1_555
C6 C5 1_555 1_555
H4 C6 1_555 1_555
C7 C2 1_555 1_555
C8 C7 1_555 1_555
C9 H5 1_555 1_555
H6 C9 1_555 1_555
C10 C9 1_555 1_555
H7 C10 1_555 1_555
H8 C10 1_555 1_555
C11 C12 1_555 1_555
C12 C13 1_555 1_555
C13 H9 1_555 1_555
C14 C13 1_555 1_555
H10 C14 1_555 1_555
C15 C14 1_555 1_555
H11 C15 1_555 1_555
C16 C15 1_555 1_555
H12 C16 1_555 1_555
C17 C12 1_555 1_555
C18 C17 1_555 1_555
C19 H13 1_555 1_555
H14 C19 1_555 1_555
C20 C19 1_555 1_555
H15 C20 1_555 1_555
H16 C20 1_555 1_555
C21 C22 1_555 1_555
C22 C23 1_555 1_555
C23 H17 1_555 1_555
C24 C23 1_555 1_555
H18 C24 1_555 1_555
C25 C24 1_555 1_555
H19 C25 1_555 1_555
C26 C25 1_555 1_555
H20 C26 1_555 1_555
C27 C22 1_555 1_555
C28 C27 1_555 1_555
N1 C1 1_555 1_555
N2 C20 1_555 1_555
O1 C1 1_555 1_555
O2 C8 1_555 1_555
O3 C10 1_555 1_555
O4 C11 1_555 1_555
O5 C18 1_555 1_555
O6 C18 1_555 1_555
O7 C21 1_555 1_555
O8 C28 1_555 1_555
C6 C7 1_555 1_555
C8 N1 1_555 1_555
C9 N1 1_555 1_555
C11 O3 1_555 1_555
C16 C17 1_555 1_555
C19 O6 1_555 1_555
C21 N2 1_555 1_555
C26 C27 1_555 1_555
C28 N2 1_555 1_555

#END
