
#######################################################################
#
#                 Cambridge Crystallographic Data Centre
#                                CCDC 
#
#######################################################################
#
# If this CIF has been generated from an entry in the Cambridge 
# Structural Database, then it will include bibliographic, chemical, 
# crystal, experimental, refinement or atomic coordinate data resulting 
# from the CCDC's data processing and validation procedures.
#
#######################################################################

data_DUNFUP
_chemical_name_common            
'tetrabenzotetraaza[8]circulene dimethyl sulfoxide solvate'
_chemical_formula_moiety         'C40 H20 N4,2(C2 H6 O1 S1)'
_chemical_name_systematic        
'5,10,15,20-tetrahydro-5,10,15,20-tetraazatetracyclopenta[fgh,pqr,za~1~b~1~,j~1~k~1~l~1~]tetranaphthylene dimethyl sulfoxide solvate'
_symmetry_cell_setting           monoclinic
_symmetry_space_group_name_H-M   'P 21/c'
_symmetry_Int_Tables_number      14
_space_group_name_Hall           '-P 2ybc'
loop_
_symmetry_equiv_pos_site_id
_symmetry_equiv_pos_as_xyz
1 x,y,z
2 -x,1/2+y,1/2-z
3 -x,-y,-z
4 x,1/2-y,1/2+z
_cell_length_a                   9.859(7)
_cell_length_b                   14.778(8)
_cell_length_c                   12.206(8)
_cell_angle_alpha                90
_cell_angle_beta                 112.76(2)
_cell_angle_gamma                90
_cell_volume                     1639.89
_exptl_crystal_colour            colorless
_exptl_crystal_description       prism
_cell_formula_units_Z            2
_exptl_crystal_recrystallization_method 'dimethyl sulfoxide/ hexane'
_exptl_crystal_preparation       Luminescent
loop_
_atom_site_label
_atom_site_type_symbol
_atom_site_fract_x
_atom_site_fract_y
_atom_site_fract_z
C1 C 0.8374(3) 0.26756(17) 0.1205(2)
C2 C 0.7400(3) 0.20386(18) 0.1353(2)
H1 H 0.6370 0.2132 0.0963
C3 C 0.7904(3) 0.12829(18) 0.2049(2)
H2 H 0.7228 0.0859 0.2135
C4 C 0.9426(3) 0.11397(18) 0.2632(2)
H3 H 0.9778 0.0615 0.3107
C5 C 1.0400(3) 0.17523(17) 0.2519(2)
H4 H 1.1425 0.1648 0.2917
C6 C 0.9910(3) 0.25399(16) 0.1818(2)
C7 C 1.0886(3) 0.32016(16) 0.1673(2)
C8 C 1.0415(3) 0.39570(16) 0.0930(2)
C9 C 1.1727(3) 0.44193(16) 0.0983(2)
C10 C 1.2916(3) 0.39287(16) 0.1765(2)
N1 N 1.2393(2) 0.31836(14) 0.21669(18)
H5 H 1.2936 0.2768 0.2657
C11 C 0.5574(3) 0.58259(17) -0.2070(2)
C12 C 0.4378(3) 0.63342(18) -0.2851(2)
H6 H 0.4559 0.6870 -0.3203
C13 C 0.2960(3) 0.60639(19) -0.3106(2)
H7 H 0.2167 0.6411 -0.3638
C14 C 0.2669(3) 0.52814(19) -0.2592(2)
H8 H 0.1680 0.5102 -0.2774
C15 C 0.3803(3) 0.47684(18) -0.1825(2)
H9 H 0.3591 0.4238 -0.1480
C16 C 0.5283(3) 0.50261(17) -0.1545(2)
C17 C 0.6511(3) 0.45244(16) -0.0758(2)
C18 C 0.7982(3) 0.47798(16) -0.0459(2)
C19 C 0.8872(3) 0.40990(16) 0.0320(2)
C20 C 0.7906(3) 0.34657(16) 0.0472(2)
N2 N 0.6483(2) 0.37225(14) -0.01898(18)
H10 H 0.5687 0.3425 -0.0242
C1B C 1.1626(3) 0.73244(17) -0.1205(2)
C2B C 1.2600(3) 0.79614(18) -0.1353(2)
H1B H 1.3630 0.7868 -0.0963
C3B C 1.2096(3) 0.87171(18) -0.2049(2)
H2B H 1.2772 0.9141 -0.2135
C4B C 1.0574(3) 0.88603(18) -0.2632(2)
H3B H 1.0222 0.9385 -0.3107
C5B C 0.9600(3) 0.82477(17) -0.2519(2)
H4B H 0.8575 0.8352 -0.2917
C6B C 1.0090(3) 0.74601(16) -0.1818(2)
C7B C 0.9114(3) 0.67984(16) -0.1673(2)
C8B C 0.9585(3) 0.60430(16) -0.0930(2)
C9B C 0.8273(3) 0.55807(16) -0.0983(2)
C10B C 0.7084(3) 0.60713(16) -0.1765(2)
N1B N 0.7607(2) 0.68164(14) -0.21669(18)
H5B H 0.7064 0.7232 -0.2657
C11B C 1.4426(3) 0.41741(17) 0.2070(2)
C12B C 1.5622(3) 0.36658(18) 0.2851(2)
H6B H 1.5441 0.3130 0.3203
C13B C 1.7040(3) 0.39361(19) 0.3106(2)
H7B H 1.7833 0.3589 0.3638
C14B C 1.7331(3) 0.47186(19) 0.2592(2)
H8B H 1.8320 0.4898 0.2774
C15B C 1.6197(3) 0.52316(18) 0.1825(2)
H9B H 1.6409 0.5762 0.1480
C16B C 1.4717(3) 0.49739(17) 0.1545(2)
C17B C 1.3489(3) 0.54756(16) 0.0758(2)
C18B C 1.2018(3) 0.52202(16) 0.0459(2)
C19B C 1.1128(3) 0.59010(16) -0.0320(2)
C20B C 1.2094(3) 0.65343(16) -0.0472(2)
N2B N 1.3517(2) 0.62775(14) 0.01898(18)
H10B H 1.4313 0.6575 0.0242
C21 C 0.3917(4) 0.4173(2) 0.5082(3)
H11 H 0.4969 0.4206 0.5244
H12 H 0.3679 0.4604 0.5592
H13 H 0.3348 0.4322 0.4246
C22 C 0.1516(3) 0.3211(2) 0.4836(3)
H14 H 0.1169 0.3472 0.4036
H15 H 0.1279 0.3623 0.5366
H16 H 0.1033 0.2627 0.4808
S1 S 0.34650(8) 0.30504(5) 0.53805(6)
O1 O 0.3780(2) 0.24300(12) 0.45047(16)
loop_
_geom_bond_atom_site_label_1
_geom_bond_atom_site_label_2
_geom_bond_site_symmetry_1
_geom_bond_site_symmetry_2
C1 C2 1_555 1_555
C2 H1 1_555 1_555
C3 C2 1_555 1_555
H2 C3 1_555 1_555
C4 C3 1_555 1_555
H3 C4 1_555 1_555
C5 C4 1_555 1_555
H4 C5 1_555 1_555
C6 C1 1_555 1_555
C7 C6 1_555 1_555
C8 C7 1_555 1_555
C9 C8 1_555 1_555
C10 C9 1_555 1_555
N1 C7 1_555 1_555
H5 N1 1_555 1_555
C11 C12 1_555 1_555
C12 H6 1_555 1_555
C13 C12 1_555 1_555
H7 C13 1_555 1_555
C14 C13 1_555 1_555
H8 C14 1_555 1_555
C15 C14 1_555 1_555
H9 C15 1_555 1_555
C16 C11 1_555 1_555
C17 C16 1_555 1_555
C18 C17 1_555 1_555
C19 C8 1_555 1_555
C20 C1 1_555 1_555
N2 C17 1_555 1_555
H10 N2 1_555 1_555
C21 H11 1_555 1_555
H12 C21 1_555 1_555
H13 C21 1_555 1_555
C22 H14 1_555 1_555
H15 C22 1_555 1_555
H16 C22 1_555 1_555
S1 C21 1_555 1_555
O1 S1 1_555 1_555
C1B C2B 1_555 1_555
C2B H1B 1_555 1_555
C3B C2B 1_555 1_555
H2B C3B 1_555 1_555
C4B C3B 1_555 1_555
H3B C4B 1_555 1_555
C5B C4B 1_555 1_555
H4B C5B 1_555 1_555
C6B C1B 1_555 1_555
C7B C6B 1_555 1_555
C8B C7B 1_555 1_555
C9B C18 1_555 1_555
C10B C11 1_555 1_555
N1B C7B 1_555 1_555
H5B N1B 1_555 1_555
C11B C10 1_555 1_555
C12B C11B 1_555 1_555
H6B C12B 1_555 1_555
C13B C12B 1_555 1_555
H7B C13B 1_555 1_555
C14B C13B 1_555 1_555
H8B C14B 1_555 1_555
C15B C14B 1_555 1_555
H9B C15B 1_555 1_555
C16B C11B 1_555 1_555
C17B C16B 1_555 1_555
C18B C9 1_555 1_555
C19B C8B 1_555 1_555
C20B C1B 1_555 1_555
N2B C17B 1_555 1_555
H10B N2B 1_555 1_555
C5 C6 1_555 1_555
C10 N1 1_555 1_555
C15 C16 1_555 1_555
C18 C19 1_555 1_555
C19 C20 1_555 1_555
C20 N2 1_555 1_555
C22 S1 1_555 1_555
C5B C6B 1_555 1_555
C8B C9B 1_555 1_555
C9B C10B 1_555 1_555
C10B N1B 1_555 1_555
C15B C16B 1_555 1_555
C17B C18B 1_555 1_555
C18B C19B 1_555 1_555
C19B C20B 1_555 1_555
C20B N2B 1_555 1_555

#END
