
#######################################################################
#
#                 Cambridge Crystallographic Data Centre
#                                CCDC 
#
#######################################################################
#
# If this CIF has been generated from an entry in the Cambridge 
# Structural Database, then it will include bibliographic, chemical, 
# crystal, experimental, refinement or atomic coordinate data resulting 
# from the CCDC's data processing and validation procedures.
#
#######################################################################

data_DUNFUO
_chemical_name_common            'Methyl 2-(p-toluenesulfonamido)benzoate'
_chemical_formula_moiety         'C15 H15 N1 O4 S1'
_chemical_name_systematic        
'Methyl 2-(((4-methylphenyl)sulfonyl)amino)benzoate'
_symmetry_cell_setting           monoclinic
_symmetry_space_group_name_H-M   'P 21/c'
_symmetry_Int_Tables_number      14
_space_group_name_Hall           '-P 2ybc'
loop_
_symmetry_equiv_pos_site_id
_symmetry_equiv_pos_as_xyz
1 x,y,z
2 -x,1/2+y,1/2-z
3 -x,-y,-z
4 x,1/2-y,1/2+z
_cell_length_a                   15.0129(13)
_cell_length_b                   8.3593(7)
_cell_length_c                   11.9664(11)
_cell_angle_alpha                90
_cell_angle_beta                 96.854(2)
_cell_angle_gamma                90
_cell_volume                     1491.02
_exptl_crystal_colour            colorless
_exptl_crystal_description       block
_chemical_melting_point          '380 K'
_cell_formula_units_Z            4
_exptl_crystal_recrystallization_method hexane/ethanol
loop_
_atom_site_label
_atom_site_type_symbol
_atom_site_fract_x
_atom_site_fract_y
_atom_site_fract_z
S1 S 0.78611(3) 0.16418(5) 0.77097(4)
O1 O 0.56582(10) 0.0349(2) 0.36179(12)
O2 O 0.61287(10) 0.2115(2) 0.49515(14)
O3 O 0.80078(9) 0.05619(17) 0.86305(10)
O4 O 0.76453(10) 0.32689(16) 0.79146(12)
N1 N 0.70193(9) 0.10160(18) 0.68303(13)
H1 H 0.6798 0.1762 0.6367
C1 C 0.52814(17) 0.1643(4) 0.2920(2)
H2 H 0.4763 0.2057 0.3221
H3 H 0.5111 0.1258 0.2169
H4 H 0.5720 0.2477 0.2906
C2 C 0.60786(12) 0.0751(3) 0.46213(17)
C3 C 0.64536(11) -0.0668(2) 0.52490(15)
C4 C 0.69256(10) -0.0513(2) 0.63324(14)
C5 C 0.72532(13) -0.1874(2) 0.68995(18)
H5 H 0.7568 -0.1781 0.7615
C6 C 0.71195(15) -0.3359(2) 0.6419(2)
H6 H 0.7343 -0.4261 0.6812
C7 C 0.66594(16) -0.3525(3) 0.5364(2)
H7 H 0.6571 -0.4534 0.5042
C8 C 0.63345(15) -0.2203(3) 0.47946(19)
H8 H 0.6023 -0.2324 0.4080
C9 C 0.88094(11) 0.16066(19) 0.69848(13)
C10 C 0.88227(13) 0.2541(2) 0.60377(15)
H9 H 0.8323 0.3146 0.5766
C11 C 0.95774(14) 0.2569(3) 0.55021(16)
H10 H 0.9585 0.3201 0.4864
C12 C 1.03322(12) 0.1678(2) 0.58876(16)
C13 C 1.03009(13) 0.0749(2) 0.68292(17)
H11 H 1.0800 0.0144 0.7101
C14 C 0.95457(12) 0.0694(2) 0.73804(15)
H12 H 0.9533 0.0048 0.8011
C15 C 1.11567(15) 0.1736(3) 0.5291(2)
H13 H 1.1455 0.2744 0.5438
H14 H 1.0988 0.1620 0.4495
H15 H 1.1555 0.0883 0.5557
loop_
_geom_bond_atom_site_label_1
_geom_bond_atom_site_label_2
_geom_bond_site_symmetry_1
_geom_bond_site_symmetry_2
S1 O3 1_555 1_555
O1 C1 1_555 1_555
O2 C2 1_555 1_555
O4 S1 1_555 1_555
N1 S1 1_555 1_555
H1 N1 1_555 1_555
C1 H2 1_555 1_555
H3 C1 1_555 1_555
H4 C1 1_555 1_555
C2 O1 1_555 1_555
C3 C2 1_555 1_555
C4 N1 1_555 1_555
C5 C4 1_555 1_555
H5 C5 1_555 1_555
C6 C5 1_555 1_555
H6 C6 1_555 1_555
C7 C6 1_555 1_555
H7 C7 1_555 1_555
C8 C3 1_555 1_555
H8 C8 1_555 1_555
C9 S1 1_555 1_555
C10 C9 1_555 1_555
H9 C10 1_555 1_555
C11 C10 1_555 1_555
H10 C11 1_555 1_555
C12 C11 1_555 1_555
C13 C12 1_555 1_555
H11 C13 1_555 1_555
C14 C9 1_555 1_555
H12 C14 1_555 1_555
C15 C12 1_555 1_555
H13 C15 1_555 1_555
H14 C15 1_555 1_555
H15 C15 1_555 1_555
C3 C4 1_555 1_555
C7 C8 1_555 1_555
C13 C14 1_555 1_555

#END
