
#######################################################################
#
#                 Cambridge Crystallographic Data Centre
#                                CCDC 
#
#######################################################################
#
# If this CIF has been generated from an entry in the Cambridge 
# Structural Database, then it will include bibliographic, chemical, 
# crystal, experimental, refinement or atomic coordinate data resulting 
# from the CCDC's data processing and validation procedures.
#
#######################################################################

data_DUNGAW
_chemical_name_common            
'tetrabenzotetraaza[8]circulene tetrahydrofuran solvate'
_chemical_formula_moiety         'C40 H20 N4,5(C4 H8 O1)'
_chemical_name_systematic        
'5,10,15,20-tetrahydro-5,10,15,20-tetraazatetracyclopenta[fgh,pqr,za~1~b~1~,j~1~k~1~l~1~]tetranaphthylene tetrahydrofuran solvate'
_symmetry_cell_setting           monoclinic
_symmetry_space_group_name_H-M   'P 21/c'
_symmetry_Int_Tables_number      14
_space_group_name_Hall           '-P 2ybc'
loop_
_symmetry_equiv_pos_site_id
_symmetry_equiv_pos_as_xyz
1 x,y,z
2 -x,1/2+y,1/2-z
3 -x,-y,-z
4 x,1/2-y,1/2+z
_cell_length_a                   9.5350(19)
_cell_length_b                   9.6758(19)
_cell_length_c                   25.507(5)
_cell_angle_alpha                90
_cell_angle_beta                 100.661(5)
_cell_angle_gamma                90
_cell_volume                     2312.62
_exptl_crystal_colour            colorless
_exptl_crystal_description       prism
_cell_formula_units_Z            2
_exptl_crystal_recrystallization_method tetrahydrofuran/hexane
_exptl_crystal_preparation       Luminescent
loop_
_atom_site_label
_atom_site_type_symbol
_atom_site_fract_x
_atom_site_fract_y
_atom_site_fract_z
C1 C -0.04584(16) 0.45544(16) -0.12905(6)
C2 C -0.03365(16) 0.47035(16) -0.07388(6)
C3 C 0.10486(16) 0.52669(15) -0.05438(6)
C4 C 0.17137(16) 0.54201(16) -0.09837(6)
C5 C 0.31401(16) 0.59122(16) -0.09536(6)
C6 C 0.38265(17) 0.59971(17) -0.13951(6)
H1 H 0.3336 0.5707 -0.1736
C7 C 0.51955(17) 0.64935(17) -0.13417(7)
H2 H 0.5643 0.6542 -0.1644
C8 C 0.59327(17) 0.69277(17) -0.08429(7)
H3 H 0.6874 0.7283 -0.0809
C9 C 0.53013(16) 0.68428(16) -0.04026(7)
H4 H 0.5816 0.7132 -0.0065
C10 C 0.38998(16) 0.63327(16) -0.04425(6)
C11 C 0.31905(16) 0.62061(16) 0.00016(6)
C12 C 0.18121(16) 0.56780(16) -0.00299(6)
C13 C 0.15185(16) 0.56925(16) 0.04987(6)
C14 C 0.27262(16) 0.62350(16) 0.08290(6)
C15 C 0.28763(16) 0.63723(17) 0.13949(6)
C16 C 0.41352(17) 0.68451(17) 0.17261(7)
H5 H 0.4908 0.7160 0.1570
C17 C 0.42570(18) 0.68554(18) 0.22698(7)
H6 H 0.5114 0.7175 0.2487
C18 C 0.31344(18) 0.64008(18) 0.25083(7)
H7 H 0.3236 0.6399 0.2886
C19 C 0.18818(18) 0.59561(17) 0.21965(6)
H8 H 0.1119 0.5657 0.2361
C20 C 0.17162(17) 0.59385(16) 0.16362(6)
N1 N 0.07843(14) 0.50052(13) -0.14378(5)
H9 H 0.0956 0.5025 -0.1765
N2 N 0.37246(13) 0.65520(14) 0.05234(5)
H10 H 0.4569 0.6917 0.0642
C1B C 0.04584(16) 0.54456(16) 0.12905(6)
C2B C 0.03365(16) 0.52965(16) 0.07388(6)
C3B C -0.10486(16) 0.47331(15) 0.05438(6)
C4B C -0.17137(16) 0.45799(16) 0.09837(6)
C5B C -0.31401(16) 0.40878(16) 0.09536(6)
C6B C -0.38265(17) 0.40029(17) 0.13951(6)
H1B H -0.3336 0.4293 0.1736
C7B C -0.51955(17) 0.35065(17) 0.13417(7)
H2B H -0.5643 0.3458 0.1644
C8B C -0.59327(17) 0.30723(17) 0.08429(7)
H3B H -0.6874 0.2717 0.0809
C9B C -0.53013(16) 0.31572(16) 0.04026(7)
H4B H -0.5816 0.2868 0.0065
C10B C -0.38998(16) 0.36673(16) 0.04425(6)
C11B C -0.31905(16) 0.37939(16) -0.00016(6)
C12B C -0.18121(16) 0.43220(16) 0.00299(6)
C13B C -0.15185(16) 0.43075(16) -0.04987(6)
C14B C -0.27262(16) 0.37650(16) -0.08290(6)
C15B C -0.28763(16) 0.36277(17) -0.13949(6)
C16B C -0.41352(17) 0.31549(17) -0.17261(7)
H5B H -0.4908 0.2840 -0.1570
C17B C -0.42570(18) 0.31446(18) -0.22698(7)
H6B H -0.5114 0.2825 -0.2487
C18B C -0.31344(18) 0.35992(18) -0.25083(7)
H7B H -0.3236 0.3601 -0.2886
C19B C -0.18818(18) 0.40439(17) -0.21965(6)
H8B H -0.1119 0.4343 -0.2361
C20B C -0.17162(17) 0.40615(16) -0.16362(6)
N1B N -0.07843(14) 0.49948(13) 0.14378(5)
H9B H -0.0956 0.4975 0.1765
N2B N -0.37246(13) 0.34480(14) -0.05234(5)
H10B H -0.4569 0.3083 -0.0642
C21 C 0.1397(2) 0.2126(2) 0.23219(7)
H11 H 0.2261 0.2655 0.2480
H12 H 0.0549 0.2593 0.2413
C22 C 0.12702(19) 0.20133(19) 0.17271(7)
H13 H 0.1622 0.2859 0.1576
H14 H 0.0272 0.1839 0.1550
C23 C 0.22231(19) 0.07756(18) 0.16743(7)
H15 H 0.1893 0.0279 0.1335
H16 H 0.3227 0.1066 0.1692
C24 C 0.2070(2) -0.0113(2) 0.21461(8)
H17 H 0.1427 -0.0902 0.2029
H18 H 0.3012 -0.0482 0.2318
O1 O 0.14921(15) 0.07304(15) 0.25120(5)
C25 C 0.23904(18) 0.29988(19) 0.38699(8)
H19 H 0.1821 0.2620 0.4124
H20 H 0.2349 0.2342 0.3570
C26 C 0.1832(2) 0.4387(2) 0.36697(10)
H21 H 0.1908 0.4512 0.3291
H22 H 0.0821 0.4498 0.3705
C27 C 0.2755(3) 0.5387(2) 0.40143(9)
H23 H 0.2398 0.5565 0.4349
H24 H 0.2823 0.6273 0.3827
C28 C 0.4146(3) 0.4659(2) 0.41208(12)
H25 H 0.4700 0.4865 0.3838
H26 H 0.4712 0.4949 0.4469
O2 O 0.38218(13) 0.32191(13) 0.41268(5)
C29? C 0.0985(15) -0.0809(12) 0.0257(7)
H27? H 0.0812 -0.1057 0.0616
H28? H 0.1636 -0.1501 0.0145
O3? O 0.1583(3) 0.0558(3) 0.02584(11)
C30? C -0.0426(6) -0.0741(6) -0.01465(19)
H29? H -0.0343 -0.1219 -0.0482
H30? H -0.1213 -0.1166 0.0002
C31? C -0.0676(16) 0.0799(13) -0.0240(8)
H31? H -0.0551 0.1059 -0.0603
H32? H -0.1652 0.1057 -0.0195
C32? C 0.0414(5) 0.1500(5) 0.01708(19)
H33? H 0.0700 0.2398 0.0037
H34? H 0.0042 0.1658 0.0504
loop_
_geom_bond_atom_site_label_1
_geom_bond_atom_site_label_2
_geom_bond_site_symmetry_1
_geom_bond_site_symmetry_2
C1 C2 1_555 1_555
C2 C3 1_555 1_555
C3 C4 1_555 1_555
C4 C5 1_555 1_555
C5 C6 1_555 1_555
C6 H1 1_555 1_555
C7 C6 1_555 1_555
H2 C7 1_555 1_555
C8 C7 1_555 1_555
H3 C8 1_555 1_555
C9 C8 1_555 1_555
H4 C9 1_555 1_555
C10 C5 1_555 1_555
C11 C10 1_555 1_555
C12 C3 1_555 1_555
C13 C12 1_555 1_555
C14 C13 1_555 1_555
C15 C14 1_555 1_555
C16 C15 1_555 1_555
H5 C16 1_555 1_555
C17 C16 1_555 1_555
H6 C17 1_555 1_555
C18 C17 1_555 1_555
H7 C18 1_555 1_555
C19 C18 1_555 1_555
H8 C19 1_555 1_555
C20 C15 1_555 1_555
N1 C1 1_555 1_555
H9 N1 1_555 1_555
N2 C11 1_555 1_555
H10 N2 1_555 1_555
C21 H11 1_555 1_555
H12 C21 1_555 1_555
C22 C21 1_555 1_555
H13 C22 1_555 1_555
H14 C22 1_555 1_555
C23 C22 1_555 1_555
H15 C23 1_555 1_555
H16 C23 1_555 1_555
C24 C23 1_555 1_555
H17 C24 1_555 1_555
H18 C24 1_555 1_555
O1 C21 1_555 1_555
C25 H19 1_555 1_555
H20 C25 1_555 1_555
C26 C25 1_555 1_555
H21 C26 1_555 1_555
H22 C26 1_555 1_555
C27 C26 1_555 1_555
H23 C27 1_555 1_555
H24 C27 1_555 1_555
C28 C27 1_555 1_555
H25 C28 1_555 1_555
H26 C28 1_555 1_555
O2 C25 1_555 1_555
C1B C20 1_555 1_555
C2B C13 1_555 1_555
C3B C2B 1_555 1_555
C4B C3B 1_555 1_555
C5B C4B 1_555 1_555
C6B C5B 1_555 1_555
H1B C6B 1_555 1_555
C7B C6B 1_555 1_555
H2B C7B 1_555 1_555
C8B C7B 1_555 1_555
H3B C8B 1_555 1_555
C9B C8B 1_555 1_555
H4B C9B 1_555 1_555
C10B C5B 1_555 1_555
C11B C10B 1_555 1_555
C12B C3B 1_555 1_555
C13B C2 1_555 1_555
C14B C13B 1_555 1_555
C15B C14B 1_555 1_555
C16B C15B 1_555 1_555
H5B C16B 1_555 1_555
C17B C16B 1_555 1_555
H6B C17B 1_555 1_555
C18B C17B 1_555 1_555
H7B C18B 1_555 1_555
C19B C18B 1_555 1_555
H8B C19B 1_555 1_555
C20B C1 1_555 1_555
N1B C1B 1_555 1_555
H9B N1B 1_555 1_555
N2B C11B 1_555 1_555
H10B N2B 1_555 1_555
C4 N1 1_555 1_555
C9 C10 1_555 1_555
C11 C12 1_555 1_555
C14 N2 1_555 1_555
C19 C20 1_555 1_555
C24 O1 1_555 1_555
C28 O2 1_555 1_555
C1B C2B 1_555 1_555
C4B N1B 1_555 1_555
C9B C10B 1_555 1_555
C11B C12B 1_555 1_555
C12B C13B 1_555 1_555
C14B N2B 1_555 1_555
C15B C20B 1_555 1_555
C19B C20B 1_555 1_555

#END
