
#######################################################################
#
#                 Cambridge Crystallographic Data Centre
#                                CCDC 
#
#######################################################################
#
# If this CIF has been generated from an entry in the Cambridge 
# Structural Database, then it will include bibliographic, chemical, 
# crystal, experimental, refinement or atomic coordinate data resulting 
# from the CCDC's data processing and validation procedures.
#
#######################################################################

data_DUNGAV
_chemical_name_common            'Chlorimipraminium picrate'
_chemical_formula_moiety         'C19 H24 Cl1 N2 1+,C6 H2 N3 O7 1-'
_chemical_name_systematic        
'3-Chloro-5-[3-(dimethylamino)propyl]-10,11-dihydro-5H-dibenz[b,f]azepinium picrate'
_chemical_properties_biological  
'Clorimpramine is an antidepressant, used in treatment of obsessive-compulsive disorder and panic disorder and possible anti-cancer agent'
_symmetry_cell_setting           triclinic
_symmetry_space_group_name_H-M   'P -1'
_symmetry_Int_Tables_number      2
_space_group_name_Hall           '-P 1'
loop_
_symmetry_equiv_pos_site_id
_symmetry_equiv_pos_as_xyz
1 x,y,z
2 -x,-y,-z
_cell_length_a                   11.2252(3)
_cell_length_b                   13.1514(3)
_cell_length_c                   17.2787(4)
_cell_angle_alpha                90.9414(19)
_cell_angle_beta                 91.1253(19)
_cell_angle_gamma                100.4446(19)
_cell_volume                     2507.54
_exptl_crystal_colour            yellow
_exptl_crystal_description       plate
_chemical_melting_point          '393-395 K'
_cell_formula_units_Z            4
loop_
_atom_site_label
_atom_site_type_symbol
_atom_site_fract_x
_atom_site_fract_y
_atom_site_fract_z
Cl1 Cl 0.59334(3) 0.87280(3) 0.92251(2)
N1 N 0.37421(9) 0.86170(8) 0.65507(6)
N2 N 0.64917(9) 0.73998(8) 0.53424(6)
H1 H 0.6526 0.7035 0.5796
C1 C 0.39922(10) 0.81199(9) 0.72519(7)
C2 C 0.47865(10) 0.86207(10) 0.78235(7)
H2 H 0.5199 0.9309 0.7755
C3 C 0.49670(11) 0.81002(10) 0.84951(7)
C4 C 0.43734(11) 0.71005(10) 0.86195(7)
H3 H 0.4498 0.6760 0.9087
C5 C 0.35871(11) 0.66092(10) 0.80371(8)
H4 H 0.3167 0.5925 0.8114
C6 C 0.34025(11) 0.70941(10) 0.73483(7)
C7 C 0.25976(12) 0.65622(10) 0.67027(8)
H5 H 0.2404 0.5812 0.6802
H6 H 0.3038 0.6655 0.6211
C8 C 0.14237(12) 0.69788(11) 0.66183(9)
H7 H 0.0972 0.6631 0.6160
H8 H 0.0931 0.6765 0.7077
C9 C 0.14981(11) 0.81328(10) 0.65337(7)
C10 C 0.03832(12) 0.84621(11) 0.64822(8)
H9 H -0.0339 0.7961 0.6512
C11 C 0.02888(12) 0.94905(12) 0.63898(8)
H10 H -0.0484 0.9685 0.6342
C12 C 0.13302(12) 1.02253(11) 0.63690(8)
H11 H 0.1281 1.0934 0.6314
C13 C 0.24533(11) 0.99277(10) 0.64291(7)
H12 H 0.3168 1.0440 0.6420
C14 C 0.25533(11) 0.88889(10) 0.65020(7)
C15 C 0.47414(11) 0.93650(10) 0.62436(8)
H13 H 0.4982 0.9939 0.6625
H14 H 0.4462 0.9658 0.5763
C16 C 0.58398(11) 0.88708(10) 0.60687(7)
H15 H 0.6517 0.9410 0.5906
H16 H 0.6103 0.8554 0.6543
C17 C 0.55383(11) 0.80490(10) 0.54323(7)
H17 H 0.4761 0.7595 0.5548
H18 H 0.5429 0.8390 0.4936
C18 C 0.77140(11) 0.80309(11) 0.52275(8)
H19 H 0.7975 0.8448 0.5696
H20 H 0.7680 0.8488 0.4788
H21 H 0.8292 0.7572 0.5122
C19 C 0.61616(13) 0.66325(11) 0.46961(7)
H22 H 0.5368 0.6208 0.4790
H23 H 0.6772 0.6188 0.4664
H24 H 0.6127 0.6996 0.4208
Cl2 Cl 0.19710(4) 0.83645(3) 0.44656(2)
N3 N -0.00504(8) 0.84031(8) 0.17770(6)
N4 N 0.16727(9) 0.76659(8) 0.02222(6)
H25 H 0.1600 0.7376 0.0710
C20 C -0.00482(11) 0.79100(9) 0.25044(7)
C21 C 0.08559(11) 0.82856(10) 0.30604(7)
H26 H 0.1479 0.8848 0.2941
C22 C 0.08492(13) 0.78428(11) 0.37833(8)
C23 C -0.00406(14) 0.70222(12) 0.39755(9)
H27 H -0.0046 0.6725 0.4473
C24 C -0.09206(13) 0.66473(11) 0.34232(9)
H28 H -0.1533 0.6081 0.3552
C25 C -0.09587(11) 0.70576(10) 0.26812(9)
C26 C -0.19630(13) 0.65203(12) 0.21395(10)
H29 H -0.2743 0.6529 0.2395
H30 H -0.1874 0.5787 0.2086
C27 C -0.20590(12) 0.69393(11) 0.13257(9)
H31 H -0.1331 0.6859 0.1033
H32 H -0.2777 0.6536 0.1050
C28 C -0.21672(11) 0.80566(10) 0.13599(8)
C29 C -0.32578(12) 0.83958(12) 0.12103(8)
H33 H -0.3956 0.7910 0.1050
C30 C -0.33334(12) 0.94331(12) 0.12930(8)
H34 H -0.4079 0.9655 0.1188
C31 C -0.23241(12) 1.01431(11) 0.15281(7)
H35 H -0.2380 1.0852 0.1587
C32 C -0.12244(11) 0.98269(10) 0.16791(7)
H36 H -0.0529 1.0319 0.1833
C33 C -0.11529(10) 0.87815(10) 0.16026(7)
C34 C 0.10829(10) 0.90796(9) 0.15678(7)
H37 H 0.1776 0.8734 0.1689
H38 H 0.1187 0.9729 0.1880
C35 C 0.10798(11) 0.93317(10) 0.07102(7)
H39 H 0.0473 0.9779 0.0615
H40 H 0.1884 0.9735 0.0586
C36 C 0.08041(11) 0.84068(10) 0.01625(7)
H41 H -0.0022 0.8027 0.0263
H42 H 0.0804 0.8658 -0.0375
C37 C 0.29610(11) 0.81780(11) 0.01351(8)
H43 H 0.3482 0.7655 0.0146
H44 H 0.3199 0.8679 0.0561
H45 H 0.3049 0.8536 -0.0359
C38 C 0.13262(14) 0.68120(11) -0.03663(8)
H46 H 0.0488 0.6468 -0.0287
H47 H 0.1868 0.6310 -0.0311
H48 H 0.1396 0.7098 -0.0887
O1 O 0.26076(8) 0.70245(7) 0.15382(5)
O2 O 0.38889(9) 0.86117(7) 0.24018(6)
O3 O 0.50236(9) 0.79895(8) 0.32264(7)
O4 O 0.27695(10) 0.55178(8) 0.49309(5)
O5 O 0.12957(9) 0.43593(8) 0.44634(6)
O6 O -0.00593(11) 0.44920(9) 0.18672(7)
O7 O 0.04994(9) 0.58148(9) 0.11703(6)
N5 N 0.41012(9) 0.79142(8) 0.28158(7)
N6 N 0.20810(10) 0.51373(9) 0.43944(6)
N7 N 0.05988(10) 0.53218(9) 0.17559(6)
C39 C 0.24304(10) 0.66219(9) 0.21843(7)
C40 C 0.31920(10) 0.69712(9) 0.28621(7)
C41 C 0.31107(11) 0.64889(9) 0.35594(7)
H49 H 0.3660 0.6739 0.3974
C42 C 0.22078(11) 0.56251(9) 0.36500(7)
C43 C 0.14014(10) 0.52518(10) 0.30518(7)
H50 H 0.0786 0.4665 0.3126
C44 C 0.14961(10) 0.57354(9) 0.23489(7)
O8 O 0.71604(8) 0.69222(7) 0.67815(5)
O9 O 0.52660(10) 0.56347(9) 0.61786(6)
O10 O 0.43317(9) 0.44269(9) 0.68675(6)
O11 O 0.53373(9) 0.39608(8) 0.94767(6)
O12 O 0.68754(10) 0.49588(8) 1.00391(6)
O13 O 0.91601(11) 0.78149(10) 0.86413(8)
O14 O 0.81134(9) 0.84577(8) 0.77794(6)
N8 N 0.51250(9) 0.51864(8) 0.67940(6)
N9 N 0.61854(10) 0.47077(9) 0.94774(6)
N10 N 0.83039(10) 0.77441(9) 0.81814(7)
C45 C 0.68478(10) 0.64639(9) 0.73884(7)
C46 C 0.59071(10) 0.55516(9) 0.74548(7)
C47 C 0.56982(10) 0.49945(9) 0.81231(7)
H51 H 0.5083 0.4395 0.8129
C48 C 0.63868(11) 0.53121(10) 0.87829(7)
C49 C 0.72585(11) 0.62116(10) 0.87969(7)
H52 H 0.7717 0.6434 0.9256
C50 C 0.74406(11) 0.67694(9) 0.81332(7)
loop_
_geom_bond_atom_site_label_1
_geom_bond_atom_site_label_2
_geom_bond_site_symmetry_1
_geom_bond_site_symmetry_2
Cl1 C3 1_555 1_555
N1 C1 1_555 1_555
N2 H1 1_555 1_555
C1 C2 1_555 1_555
C2 H2 1_555 1_555
C3 C2 1_555 1_555
C4 C3 1_555 1_555
H3 C4 1_555 1_555
C5 C4 1_555 1_555
H4 C5 1_555 1_555
C6 C1 1_555 1_555
C7 C6 1_555 1_555
H5 C7 1_555 1_555
H6 C7 1_555 1_555
C8 C7 1_555 1_555
H7 C8 1_555 1_555
H8 C8 1_555 1_555
C9 C8 1_555 1_555
C10 C9 1_555 1_555
H9 C10 1_555 1_555
C11 C10 1_555 1_555
H10 C11 1_555 1_555
C12 C11 1_555 1_555
H11 C12 1_555 1_555
C13 C12 1_555 1_555
H12 C13 1_555 1_555
C14 N1 1_555 1_555
C15 N1 1_555 1_555
H13 C15 1_555 1_555
H14 C15 1_555 1_555
C16 C15 1_555 1_555
H15 C16 1_555 1_555
H16 C16 1_555 1_555
C17 N2 1_555 1_555
H17 C17 1_555 1_555
H18 C17 1_555 1_555
C18 N2 1_555 1_555
H19 C18 1_555 1_555
H20 C18 1_555 1_555
H21 C18 1_555 1_555
C19 N2 1_555 1_555
H22 C19 1_555 1_555
H23 C19 1_555 1_555
H24 C19 1_555 1_555
Cl2 C22 1_555 1_555
N3 C20 1_555 1_555
N4 H25 1_555 1_555
C20 C21 1_555 1_555
C21 H26 1_555 1_555
C22 C21 1_555 1_555
C23 C22 1_555 1_555
H27 C23 1_555 1_555
C24 C23 1_555 1_555
H28 C24 1_555 1_555
C25 C20 1_555 1_555
C26 C25 1_555 1_555
H29 C26 1_555 1_555
H30 C26 1_555 1_555
C27 C26 1_555 1_555
H31 C27 1_555 1_555
H32 C27 1_555 1_555
C28 C27 1_555 1_555
C29 C28 1_555 1_555
H33 C29 1_555 1_555
C30 C29 1_555 1_555
H34 C30 1_555 1_555
C31 C30 1_555 1_555
H35 C31 1_555 1_555
C32 C31 1_555 1_555
H36 C32 1_555 1_555
C33 N3 1_555 1_555
C34 N3 1_555 1_555
H37 C34 1_555 1_555
H38 C34 1_555 1_555
C35 C34 1_555 1_555
H39 C35 1_555 1_555
H40 C35 1_555 1_555
C36 N4 1_555 1_555
H41 C36 1_555 1_555
H42 C36 1_555 1_555
C37 N4 1_555 1_555
H43 C37 1_555 1_555
H44 C37 1_555 1_555
H45 C37 1_555 1_555
C38 N4 1_555 1_555
H46 C38 1_555 1_555
H47 C38 1_555 1_555
H48 C38 1_555 1_555
O1 C39 1_555 1_555
O2 N5 1_555 1_555
O3 N5 1_555 1_555
O4 N6 1_555 1_555
O5 N6 1_555 1_555
O6 N7 1_555 1_555
O7 N7 1_555 1_555
N5 C40 1_555 1_555
N6 C42 1_555 1_555
N7 C44 1_555 1_555
C39 C40 1_555 1_555
C40 C41 1_555 1_555
C41 H49 1_555 1_555
C42 C41 1_555 1_555
C43 C42 1_555 1_555
H50 C43 1_555 1_555
C44 C39 1_555 1_555
O8 C45 1_555 1_555
O9 N8 1_555 1_555
O10 N8 1_555 1_555
O11 N9 1_555 1_555
O12 N9 1_555 1_555
O13 N10 1_555 1_555
O14 N10 1_555 1_555
N8 C46 1_555 1_555
N9 C48 1_555 1_555
N10 C50 1_555 1_555
C45 C46 1_555 1_555
C46 C47 1_555 1_555
C47 H51 1_555 1_555
C48 C47 1_555 1_555
C49 C48 1_555 1_555
H52 C49 1_555 1_555
C50 C45 1_555 1_555
C5 C6 1_555 1_555
C9 C14 1_555 1_555
C13 C14 1_555 1_555
C16 C17 1_555 1_555
C24 C25 1_555 1_555
C28 C33 1_555 1_555
C32 C33 1_555 1_555
C35 C36 1_555 1_555
C43 C44 1_555 1_555
C49 C50 1_555 1_555

#END
