
#######################################################################
#
#                 Cambridge Crystallographic Data Centre
#                                CCDC 
#
#######################################################################
#
# If this CIF has been generated from an entry in the Cambridge 
# Structural Database, then it will include bibliographic, chemical, 
# crystal, experimental, refinement or atomic coordinate data resulting 
# from the CCDC's data processing and validation procedures.
#
#######################################################################

data_DUNHIF
_chemical_formula_moiety         'C13 H6 F5 N3 O3'
_chemical_name_systematic        
4-nitro-2-((pentafluorophenyl)carbonohydrazonoyl)phenol
_symmetry_cell_setting           monoclinic
_symmetry_space_group_name_H-M   'P 21/c'
_symmetry_Int_Tables_number      14
_space_group_name_Hall           '-P 2ybc'
loop_
_symmetry_equiv_pos_site_id
_symmetry_equiv_pos_as_xyz
1 x,y,z
2 -x,1/2+y,1/2-z
3 -x,-y,-z
4 x,1/2-y,1/2+z
_cell_length_a                   8.404(2)
_cell_length_b                   13.281(3)
_cell_length_c                   11.867(3)
_cell_angle_alpha                90
_cell_angle_beta                 102.612(5)
_cell_angle_gamma                90
_cell_volume                     1292.56
_exptl_crystal_colour            yellow
_exptl_crystal_description       needle
_cell_formula_units_Z            4
loop_
_atom_site_label
_atom_site_type_symbol
_atom_site_fract_x
_atom_site_fract_y
_atom_site_fract_z
C1 C 0.7091(3) -0.1228(2) 1.0428(2)
C2 C 0.7236(3) -0.2259(2) 1.0252(2)
C3 C 0.6342(3) -0.09539(18) 1.1324(2)
C4 C 0.5807(3) -0.1677(2) 1.2009(2)
C5 C 0.6700(3) -0.2979(2) 1.0921(2)
C6 C 0.5984(3) -0.2688(2) 1.1805(2)
F1 F 0.61033(19) 0.00154(12) 1.15722(14)
F2 F 0.5112(2) -0.13676(13) 1.28626(15)
F3 F 0.79481(19) -0.25678(11) 0.93895(13)
F4 F 0.6876(2) -0.39595(12) 1.06978(15)
F5 F 0.5468(2) -0.33866(12) 1.24727(15)
N1 N 0.7693(3) -0.05804(17) 0.9710(2)
H1 H 0.8112 -0.0823 0.9169
N2 N 0.7634(3) 0.04426(16) 0.98466(19)
C7 C 0.8228(3) 0.09873(19) 0.9140(2)
H2 H 0.8659 0.0679 0.8569
C8 C 0.8940(3) 0.3682(2) 0.8532(2)
C9 C 0.8924(3) 0.2649(2) 0.8460(2)
H3 H 0.9373 0.2330 0.7905
C10 C 0.8254(3) 0.4199(2) 0.9342(2)
H4 H 0.8262 0.4899 0.9366
C11 C 0.8232(3) 0.2074(2) 0.9224(2)
C12 C 0.7546(3) 0.2603(2) 1.0059(2)
C13 C 0.7568(3) 0.3651(2) 1.0102(2)
H5 H 0.7117 0.3984 1.0648
N3 N 0.9697(3) 0.42544(18) 0.7748(2)
O1 O 0.6848(2) 0.21087(15) 1.08155(16)
H6 H 0.6948 0.1500 1.0737
O2 O 0.9639(3) 0.51875(15) 0.7781(2)
O3 O 1.0379(3) 0.37915(16) 0.70897(18)
loop_
_geom_bond_atom_site_label_1
_geom_bond_atom_site_label_2
_geom_bond_site_symmetry_1
_geom_bond_site_symmetry_2
C1 C2 1_555 1_555
C2 C5 1_555 1_555
C3 C1 1_555 1_555
C4 C3 1_555 1_555
C5 C6 1_555 1_555
C6 C4 1_555 1_555
F1 C3 1_555 1_555
F2 C4 1_555 1_555
F3 C2 1_555 1_555
F4 C5 1_555 1_555
F5 C6 1_555 1_555
N1 C1 1_555 1_555
H1 N1 1_555 1_555
N2 N1 1_555 1_555
C7 N2 1_555 1_555
H2 C7 1_555 1_555
C8 C9 1_555 1_555
C9 H3 1_555 1_555
C10 C8 1_555 1_555
H4 C10 1_555 1_555
C11 C7 1_555 1_555
C12 C11 1_555 1_555
C13 C10 1_555 1_555
H5 C13 1_555 1_555
N3 C8 1_555 1_555
O1 C12 1_555 1_555
H6 O1 1_555 1_555
O2 N3 1_555 1_555
O3 N3 1_555 1_555
C9 C11 1_555 1_555
C12 C13 1_555 1_555

#END
