
#######################################################################
#
#                 Cambridge Crystallographic Data Centre
#                                CCDC 
#
#######################################################################
#
# If this CIF has been generated from an entry in the Cambridge 
# Structural Database, then it will include bibliographic, chemical, 
# crystal, experimental, refinement or atomic coordinate data resulting 
# from the CCDC's data processing and validation procedures.
#
#######################################################################

data_DUNHAW
_chemical_formula_moiety         'C12 H12 O2 S1'
_chemical_name_systematic        
(R)-2-(2-Methoxyphenyl)-2,5-dihydrothiophene-3-carbaldehyde
_symmetry_cell_setting           triclinic
_symmetry_space_group_name_H-M   'P 1'
_symmetry_Int_Tables_number      1
_space_group_name_Hall           'P 1'
loop_
_symmetry_equiv_pos_site_id
_symmetry_equiv_pos_as_xyz
1 x,y,z
_cell_length_a                   6.8281(6)
_cell_length_b                   7.7624(9)
_cell_length_c                   11.8748(12)
_cell_angle_alpha                71.733(3)
_cell_angle_beta                 79.051(3)
_cell_angle_gamma                73.488(3)
_cell_volume                     569.502
_exptl_crystal_colour            yellow
_exptl_crystal_description       chunk
_cell_formula_units_Z            2
_exptl_crystal_recrystallization_method acetone
loop_
_atom_site_label
_atom_site_type_symbol
_atom_site_fract_x
_atom_site_fract_y
_atom_site_fract_z
S1 S 0.18231(16) -0.06575(15) 0.81497(10)
C1 C 0.5790(6) 0.0081(5) 0.9189(3)
C4 C 0.3932(5) 0.0505(5) 0.7461(3)
H1 H 0.5127 -0.0423 0.7236
C5 C 0.4530(5) 0.1295(5) 0.8313(3)
O2 O 0.6306(4) -0.1755(4) 0.9175(3)
O3 O 0.6367(5) 0.2578(6) 0.5468(3)
C10 C 0.4500(7) 0.3803(7) 0.9109(4)
H6 H 0.4055 0.5060 0.9090
C12 C 0.5748(7) 0.2607(7) 0.9928(4)
H8 H 0.6177 0.3058 1.0455
C13 C 0.1198(6) 0.2121(6) 0.6214(4)
H9 H 0.0611 0.2978 0.5550
C14 C 0.3153(5) 0.1889(5) 0.6343(3)
C15 C 0.6390(6) 0.0731(6) 0.9991(3)
H10 H 0.7220 -0.0087 1.0569
C16 C 0.3878(6) 0.3165(5) 0.8297(3)
H11 H 0.3020 0.3997 0.7738
C19 C -0.0019(7) 0.0973(8) 0.7161(4)
H13 H -0.0666 0.0312 0.6826
H14 H -0.1076 0.1748 0.7585
C22 C 0.4545(8) 0.2860(6) 0.5426(4)
H19 H 0.3984 0.3757 0.4767
C24 C 0.7650(8) -0.3065(7) 1.0013(5)
H22 H 0.8876 -0.2644 0.9932
H23 H 0.8005 -0.4266 0.9861
H24 H 0.6971 -0.3162 1.0808
S2 S 0.48209(17) 1.01438(17) 0.33170(10)
O1 O 0.9679(4) 1.0496(4) 0.2171(2)
C2 C 0.8721(5) 0.7749(5) 0.3322(3)
C3 C 1.0032(5) 0.8609(5) 0.2381(3)
C6 C 0.7167(5) 0.8901(5) 0.4051(3)
H2 H 0.7784 0.9821 0.4165
C7 C 0.8916(6) 0.5850(5) 0.3545(3)
H3 H 0.8034 0.5268 0.4145
C8 C 1.1709(7) 0.5657(7) 0.2007(4)
H4 H 1.2740 0.4944 0.1590
C9 C 1.1518(6) 0.7556(6) 0.1729(3)
H5 H 1.2380 0.8127 0.1109
O4 O 0.9507(5) 0.6890(5) 0.6125(3)
C11 C 0.7736(7) 0.6832(6) 0.6196(4)
H7 H 0.7184 0.6122 0.6908
C17 C 0.6391(6) 0.7799(5) 0.5245(3)
C18 C 0.4430(6) 0.7717(6) 0.5405(4)
H12 H 0.3857 0.7042 0.6124
C20 C 1.0396(7) 0.4804(6) 0.2892(4)
H15 H 1.0503 0.3530 0.3051
C21 C 1.0829(7) 1.1464(6) 0.1151(4)
H16 H 1.2258 1.1087 0.1270
H17 H 1.0340 1.2787 0.1044
H18 H 1.0661 1.1167 0.0454
C23 C 0.3209(7) 0.8746(7) 0.4393(4)
H20 H 0.1932 0.9538 0.4647
H21 H 0.2893 0.7886 0.4052
loop_
_geom_bond_atom_site_label_1
_geom_bond_atom_site_label_2
_geom_bond_site_symmetry_1
_geom_bond_site_symmetry_2
S1 C4 1_555 1_555
S2 C6 1_555 1_555
O1 C3 1_555 1_555
C1 C5 1_555 1_555
C2 C3 1_555 1_555
C3 C9 1_555 1_555
C4 H1 1_555 1_555
C5 C4 1_555 1_555
O2 C1 1_555 1_555
C6 C2 1_555 1_555
H2 C6 1_555 1_555
C7 C2 1_555 1_555
H3 C7 1_555 1_555
O3 C22 1_555 1_555
C8 H4 1_555 1_555
C9 C8 1_555 1_555
H5 C9 1_555 1_555
C10 H6 1_555 1_555
O4 C11 1_555 1_555
C11 H7 1_555 1_555
C12 C10 1_555 1_555
H8 C12 1_555 1_555
C13 H9 1_555 1_555
C14 C4 1_555 1_555
C15 C1 1_555 1_555
H10 C15 1_555 1_555
C16 C5 1_555 1_555
H11 C16 1_555 1_555
C17 C6 1_555 1_555
C18 C17 1_555 1_555
H12 C18 1_555 1_555
C19 S1 1_555 1_555
H13 C19 1_555 1_555
H14 C19 1_555 1_555
C20 C7 1_555 1_555
H15 C20 1_555 1_555
C21 O1 1_555 1_555
H16 C21 1_555 1_555
H17 C21 1_555 1_555
H18 C21 1_555 1_555
C22 C14 1_555 1_555
H19 C22 1_555 1_555
C23 S2 1_555 1_555
H20 C23 1_555 1_555
H21 C23 1_555 1_555
C24 O2 1_555 1_555
H22 C24 1_555 1_555
H23 C24 1_555 1_555
H24 C24 1_555 1_555
C8 C20 1_555 1_555
C10 C16 1_555 1_555
C11 C17 1_555 1_555
C12 C15 1_555 1_555
C13 C14 1_555 1_555
C13 C19 1_555 1_555
C18 C23 1_555 1_555

#END
