
#######################################################################
#
#                 Cambridge Crystallographic Data Centre
#                                CCDC 
#
#######################################################################
#
# If this CIF has been generated from an entry in the Cambridge 
# Structural Database, then it will include bibliographic, chemical, 
# crystal, experimental, refinement or atomic coordinate data resulting 
# from the CCDC's data processing and validation procedures.
#
#######################################################################

data_DUNKED
_chemical_name_common            'Trimipraminium hydrogen maleate'
_chemical_formula_moiety         'C20 H27 N2 1+,C4 H3 O4 1-'
_chemical_name_systematic        
'3-(10,11-dihydro-5H-dibenzo[b,f]azepin-5-yl)-N,N,2-trimethylpropan-1-aminium hydrogen maleate'
_chemical_properties_biological  
'Trimipramine has strong antidepressant activity, sedation and anxiolysis, with strong anticholinergic and antiadrenergic side-effects'
_symmetry_cell_setting           orthorhombic
_symmetry_space_group_name_H-M   'P n a 21'
_symmetry_Int_Tables_number      33
_space_group_name_Hall           'P 2c -2n'
loop_
_symmetry_equiv_pos_site_id
_symmetry_equiv_pos_as_xyz
1 x,y,z
2 -x,-y,1/2+z
3 1/2-x,1/2+y,1/2+z
4 1/2+x,1/2-y,z
_cell_length_a                   19.4356(4)
_cell_length_b                   11.0542(4)
_cell_length_c                   40.4107(13)
_cell_angle_alpha                90
_cell_angle_beta                 90
_cell_angle_gamma                90
_cell_volume                     8682.04
_exptl_crystal_colour            colorless
_exptl_crystal_description       plate
_chemical_melting_point          '410-412 K'
_cell_formula_units_Z            16
_exptl_crystal_recrystallization_method methanol
loop_
_atom_site_label
_atom_site_type_symbol
_atom_site_fract_x
_atom_site_fract_y
_atom_site_fract_z
O1 O 0.58175(9) 0.66955(15) 0.87821(5)
O2 O 0.50638(8) 0.54786(16) 0.90212(5)
O3 O 0.70323(9) 0.66032(16) 0.86344(5)
H1 H 0.6600 0.6619 0.8640
O4 O 0.78569(8) 0.52450(18) 0.86994(4)
C1 C 0.56195(11) 0.5666(2) 0.88763(6)
C2 C 0.60653(12) 0.4573(2) 0.88168(6)
H2 H 0.5838 0.3816 0.8837
C3 C 0.67296(12) 0.4509(2) 0.87401(6)
H3 H 0.6904 0.3712 0.8713
C4 C 0.72470(12) 0.5500(2) 0.86899(6)
O5 O 0.66282(9) 0.16974(15) 0.81349(5)
O6 O 0.73716(8) 0.04584(16) 0.78925(5)
O7 O 0.54116(9) 0.16247(16) 0.82794(5)
H4 H 0.5811 0.1699 0.8203
O8 O 0.45786(8) 0.02889(18) 0.82187(4)
C5 C 0.68199(11) 0.0647(2) 0.80384(6)
C6 C 0.63673(12) -0.0427(2) 0.80977(6)
H5 H 0.6588 -0.1190 0.8079
C7 C 0.57009(12) -0.0470(2) 0.81730(6)
H6 H 0.5518 -0.1263 0.8197
C8 C 0.51926(12) 0.0532(2) 0.82266(6)
O9 O 1.00950(9) -0.19360(17) 0.77304(6)
O10 O 0.93067(8) -0.10531(15) 0.80408(5)
O11 O 1.12417(9) -0.15162(18) 0.75295(6)
H7 H 1.0849 -0.1682 0.7603
O12 O 1.20222(9) -0.00892(17) 0.75951(5)
C9 C 0.98947(12) -0.1100(2) 0.79234(6)
C10 C 1.03816(12) -0.0089(2) 0.80136(6)
H8 H 1.0211 0.0467 0.8173
C11 C 1.10112(12) 0.0141(2) 0.79044(6)
H9 H 1.1215 0.0846 0.7996
C12 C 1.14567(12) -0.0517(2) 0.76614(7)
O13 O 0.12050(9) 0.34429(18) 0.93976(6)
O14 O 0.04202(9) 0.48725(17) 0.93376(6)
O15 O 0.23541(9) 0.30437(18) 0.91934(6)
H10 H 0.1951 0.3177 0.9259
O16 O 0.31337(8) 0.39596(16) 0.88852(5)
C13 C 0.09837(12) 0.4447(2) 0.92666(7)
C14 C 0.14201(12) 0.5106(2) 0.90230(7)
H11 H 0.1211 0.5808 0.8932
C15 C 0.20512(12) 0.4883(2) 0.89104(6)
H12 H 0.2214 0.5433 0.8748
C16 C 0.25439(12) 0.3894(2) 0.90020(6)
N1 N 0.31557(10) 0.86746(19) 0.99160(5)
N2 N 0.41974(12) 0.74274(17) 0.90465(6)
H13 H 0.4548 0.6876 0.9089
C17 C 0.27203(14) 0.7645(2) 0.99710(7)
C18 C 0.28481(13) 0.6814(2) 1.02218(7)
H14 H 0.3229 0.6922 1.0366
C19 C 0.24138(15) 0.5821(3) 1.02605(8)
H15 H 0.2504 0.5242 1.0428
C20 C 0.18535(15) 0.5679(3) 1.00553(9)
H16 H 0.1554 0.5009 1.0084
C21 C 0.17267(14) 0.6509(3) 0.98078(8)
H17 H 0.1339 0.6401 0.9668
C22 C 0.21557(15) 0.7504(3) 0.97584(8)
C23 C 0.20514(14) 0.8394(3) 0.94861(7)
H18 H 0.1696 0.8079 0.9333
H19 H 0.2486 0.8475 0.9360
C24 C 0.18330(15) 0.9626(3) 0.96072(7)
H20 H 0.1372 0.9540 0.9709
H21 H 0.1779 1.0154 0.9411
C25 C 0.22917(13) 1.0293(3) 0.98546(6)
C26 C 0.20910(14) 1.1469(3) 0.99337(8)
H22 H 0.1691 1.1794 0.9831
C27 C 0.24513(15) 1.2180(3) 1.01551(10)
H23 H 0.2305 1.2983 1.0201
C28 C 0.30230(15) 1.1711(3) 1.03075(9)
H24 H 0.3271 1.2186 1.0463
C29 C 0.32394(13) 1.0545(3) 1.02359(7)
H25 H 0.3632 1.0227 1.0346
C30 C 0.28892(12) 0.9827(2) 1.00042(6)
C31 C 0.38988(12) 0.8465(2) 0.99454(6)
H26 H 0.4001 0.8121 1.0166
H27 H 0.4145 0.9246 0.9926
C32 C 0.41544(15) 0.7607(2) 0.96804(7)
H28 H 0.3850 0.6878 0.9675
C33 C 0.48914(13) 0.7210(3) 0.97591(8)
H29 H 0.4898 0.6776 0.9970
H30 H 0.5188 0.7925 0.9774
H31 H 0.5060 0.6677 0.9583
C34 C 0.41246(12) 0.8238(2) 0.93451(6)
H32 H 0.3680 0.8672 0.9329
H33 H 0.4494 0.8854 0.9337
C35 C 0.35584(13) 0.6736(2) 0.89740(7)
H34 H 0.3654 0.6124 0.8804
H35 H 0.3202 0.7290 0.8893
H36 H 0.3398 0.6336 0.9176
C36 C 0.44040(13) 0.8170(2) 0.87571(6)
H37 H 0.4047 0.8774 0.8711
H38 H 0.4462 0.7646 0.8563
H39 H 0.4839 0.8581 0.8805
N3 N 0.93298(9) 0.36019(18) 0.70040(5)
N4 N 0.82441(11) 0.23990(17) 0.78662(6)
H40 H 0.7893 0.1850 0.7823
C37 C 0.96070(11) 0.4777(2) 0.69341(6)
C38 C 0.92522(13) 0.5557(2) 0.67222(6)
H41 H 0.8855 0.5271 0.6610
C39 C 0.94676(14) 0.6740(3) 0.66720(7)
H42 H 0.9218 0.7257 0.6528
C40 C 1.00465(14) 0.7161(3) 0.68330(8)
H43 H 1.0192 0.7976 0.6807
C41 C 1.04099(13) 0.6379(2) 0.70325(7)
H44 H 1.0812 0.6672 0.7139
C42 C 1.02187(12) 0.5185(2) 0.70856(6)
C43 C 1.06982(14) 0.4437(3) 0.72995(7)
H45 H 1.1128 0.4306 0.7173
H46 H 1.0819 0.4928 0.7496
C44 C 1.04523(13) 0.3215(3) 0.74211(6)
H47 H 1.0805 0.2860 0.7569
H48 H 1.0025 0.3322 0.7551
C45 C 1.03169(14) 0.2364(3) 0.71393(7)
C46 C 1.07402(13) 0.1371(3) 0.70710(7)
H49 H 1.1134 0.1232 0.7205
C47 C 1.05974(14) 0.0586(2) 0.68125(8)
H50 H 1.0891 -0.0083 0.6770
C48 C 1.00240(14) 0.0786(3) 0.66168(8)
H51 H 0.9916 0.0244 0.6442
C49 C 0.96095(13) 0.1777(2) 0.66772(6)
H52 H 0.9220 0.1916 0.6540
C50 C 0.97509(15) 0.2575(2) 0.69345(7)
C51 C 0.85855(11) 0.3432(2) 0.69700(6)
H53 H 0.8482 0.3103 0.6748
H54 H 0.8350 0.4222 0.6992
C52 C 0.83121(14) 0.2554(2) 0.72370(7)
H55 H 0.8620 0.1830 0.7248
C53 C 0.75860(12) 0.2147(3) 0.71426(7)
H56 H 0.7283 0.2854 0.7129
H57 H 0.7411 0.1588 0.7311
H58 H 0.7599 0.1737 0.6928
C54 C 0.83306(11) 0.3199(2) 0.75661(6)
H59 H 0.7962 0.3817 0.7568
H60 H 0.8775 0.3630 0.7585
C55 C 0.80369(13) 0.3156(2) 0.81538(6)
H61 H 0.7593 0.3542 0.8107
H62 H 0.8386 0.3780 0.8193
H63 H 0.7995 0.2645 0.8351
C56 C 0.88810(12) 0.1709(2) 0.79412(7)
H64 H 0.9244 0.2270 0.8011
H65 H 0.9030 0.1271 0.7743
H66 H 0.8789 0.1130 0.8120
N5 N 0.75577(11) -0.1416(2) 0.66359(5)
N6 N 0.84294(11) -0.26844(19) 0.77420(6)
H67 H 0.8733 -0.2057 0.7789
C57 C 0.73378(13) -0.0364(2) 0.64615(6)
C58 C 0.66948(12) 0.0151(2) 0.65213(6)
H68 H 0.6382 -0.0241 0.6667
C59 C 0.65072(13) 0.1227(3) 0.63715(6)
H69 H 0.6076 0.1591 0.6421
C60 C 0.69555(14) 0.1771(3) 0.61487(7)
H70 H 0.6828 0.2500 0.6041
C61 C 0.75887(14) 0.1248(3) 0.60840(7)
H71 H 0.7892 0.1624 0.5931
C62 C 0.77886(12) 0.0179(2) 0.62392(6)
C63 C 0.84630(12) -0.0437(2) 0.61698(6)
H72 H 0.8702 -0.0601 0.6381
H73 H 0.8758 0.0107 0.6037
C64 C 0.83590(14) -0.1622(2) 0.59839(6)
H74 H 0.8104 -0.1441 0.5778
H75 H 0.8818 -0.1929 0.5918
C65 C 0.79819(15) -0.2637(2) 0.61629(8)
C66 C 0.80278(14) -0.3780(3) 0.60162(7)
H76 H 0.8269 -0.3855 0.5813
C67 C 0.77363(14) -0.4813(2) 0.61541(7)
H77 H 0.7772 -0.5573 0.6046
C68 C 0.73934(14) -0.4708(3) 0.64528(7)
H78 H 0.7194 -0.5403 0.6552
C69 C 0.73412(13) -0.3593(2) 0.66065(7)
H79 H 0.7108 -0.3537 0.6812
C70 C 0.76249(14) -0.2538(2) 0.64662(8)
C71 C 0.74368(12) -0.1426(2) 0.69948(6)
H80 H 0.7049 -0.1976 0.7046
H81 H 0.7309 -0.0603 0.7069
C72 C 0.80829(11) -0.1847(2) 0.71815(6)
H82 H 0.8269 -0.2585 0.7070
C73 C 0.86398(12) -0.0872(2) 0.71826(6)
H83 H 0.9069 -0.1213 0.7269
H84 H 0.8494 -0.0197 0.7323
H85 H 0.8714 -0.0581 0.6956
C74 C 0.78581(11) -0.2186(2) 0.75302(6)
H86 H 0.7665 -0.1460 0.7640
H87 H 0.7487 -0.2797 0.7516
C75 C 0.88225(13) -0.3668(2) 0.75776(7)
H88 H 0.9099 -0.3327 0.7397
H89 H 0.8502 -0.4267 0.7488
H90 H 0.9127 -0.4057 0.7739
C76 C 0.81334(14) -0.3117(3) 0.80586(6)
H91 H 0.8502 -0.3431 0.8200
H92 H 0.7800 -0.3761 0.8014
H93 H 0.7903 -0.2444 0.8171
N7 N 0.49061(10) 0.37169(19) 1.02777(5)
N8 N 0.40102(11) 0.23369(18) 0.91833(5)
H94 H 0.3701 0.2956 0.9137
C77 C 0.51240(12) 0.4799(2) 1.04358(6)
C78 C 0.57518(11) 0.5346(2) 1.03544(6)
H95 H 0.6063 0.4936 1.0212
C79 C 0.59269(13) 0.6468(2) 1.04776(6)
H96 H 0.6348 0.6838 1.0415
C80 C 0.54832(14) 0.7055(2) 1.06947(6)
H97 H 0.5596 0.7833 1.0779
C81 C 0.48754(13) 0.6495(2) 1.07870(6)
H98 H 0.4581 0.6887 1.0941
C82 C 0.46838(12) 0.5377(2) 1.06605(6)
C83 C 0.40374(13) 0.4722(2) 1.07605(7)
H99 H 0.3769 0.4521 1.0560
H100 H 0.3753 0.5264 1.0900
C84 C 0.41876(14) 0.3567(2) 1.09509(7)
H101 H 0.3744 0.3248 1.1034
H102 H 0.4467 0.3786 1.1147
C85 C 0.45548(15) 0.2541(2) 1.07722(8)
C86 C 0.45524(15) 0.1421(3) 1.09310(7)
H103 H 0.4346 0.1365 1.1143
C87 C 0.48362(15) 0.0387(3) 1.07943(7)
H104 H 0.4825 -0.0359 1.0911
C88 C 0.51347(14) 0.0462(3) 1.04862(8)
H105 H 0.5327 -0.0239 1.0387
C89 C 0.51540(13) 0.1555(2) 1.03216(7)
H106 H 0.5362 0.1594 1.0109
C90 C 0.48756(14) 0.2608(2) 1.04588(7)
C91 C 0.50098(12) 0.3667(2) 0.99175(6)
H107 H 0.5404 0.3132 0.9867
H108 H 0.5120 0.4487 0.9834
C92 C 0.43646(11) 0.3190(2) 0.97420(5)
H109 H 0.4199 0.2449 0.9859
C93 C 0.37928(13) 0.4145(2) 0.97456(6)
H110 H 0.3368 0.3791 0.9658
H111 H 0.3930 0.4835 0.9608
H112 H 0.3715 0.4418 0.9973
C94 C 0.45769(11) 0.2851(2) 0.93916(6)
H113 H 0.4760 0.3581 0.9280
H114 H 0.4954 0.2251 0.9404
C95 C 0.36263(13) 0.1349(2) 0.93551(7)
H115 H 0.3954 0.0764 0.9447
H116 H 0.3323 0.0940 0.9197
H117 H 0.3350 0.1694 0.9535
C96 C 0.43019(14) 0.1898(3) 0.88633(6)
H118 H 0.3930 0.1580 0.8724
H119 H 0.4638 0.1255 0.8907
H120 H 0.4529 0.2570 0.8749
loop_
_geom_bond_atom_site_label_1
_geom_bond_atom_site_label_2
_geom_bond_site_symmetry_1
_geom_bond_site_symmetry_2
O1 C1 1_555 1_555
O2 C1 1_555 1_555
O3 H1 1_555 1_555
O4 C4 1_555 1_555
C1 C2 1_555 1_555
C2 H2 1_555 1_555
C3 C2 1_555 1_555
H3 C3 1_555 1_555
C4 O3 1_555 1_555
O5 C5 1_555 1_555
O6 C5 1_555 1_555
O7 H4 1_555 1_555
O8 C8 1_555 1_555
C5 C6 1_555 1_555
C6 H5 1_555 1_555
C7 C6 1_555 1_555
H6 C7 1_555 1_555
C8 O7 1_555 1_555
O9 C9 1_555 1_555
O10 C9 1_555 1_555
O11 H7 1_555 1_555
O12 C12 1_555 1_555
C9 C10 1_555 1_555
C10 H8 1_555 1_555
C11 C10 1_555 1_555
H9 C11 1_555 1_555
C12 O11 1_555 1_555
O13 C13 1_555 1_555
O14 C13 1_555 1_555
O15 H10 1_555 1_555
O16 C16 1_555 1_555
C13 C14 1_555 1_555
C14 H11 1_555 1_555
C15 C14 1_555 1_555
H12 C15 1_555 1_555
C16 O15 1_555 1_555
N1 C17 1_555 1_555
N2 H13 1_555 1_555
C17 C18 1_555 1_555
C18 H14 1_555 1_555
C19 C18 1_555 1_555
H15 C19 1_555 1_555
C20 C19 1_555 1_555
H16 C20 1_555 1_555
C21 C20 1_555 1_555
H17 C21 1_555 1_555
C22 C17 1_555 1_555
C23 C22 1_555 1_555
H18 C23 1_555 1_555
H19 C23 1_555 1_555
C24 C23 1_555 1_555
H20 C24 1_555 1_555
H21 C24 1_555 1_555
C25 C24 1_555 1_555
C26 C25 1_555 1_555
H22 C26 1_555 1_555
C27 C26 1_555 1_555
H23 C27 1_555 1_555
C28 C27 1_555 1_555
H24 C28 1_555 1_555
C29 C28 1_555 1_555
H25 C29 1_555 1_555
C30 N1 1_555 1_555
C31 N1 1_555 1_555
H26 C31 1_555 1_555
H27 C31 1_555 1_555
C32 C31 1_555 1_555
H28 C32 1_555 1_555
C33 C32 1_555 1_555
H29 C33 1_555 1_555
H30 C33 1_555 1_555
H31 C33 1_555 1_555
C34 N2 1_555 1_555
H32 C34 1_555 1_555
H33 C34 1_555 1_555
C35 N2 1_555 1_555
H34 C35 1_555 1_555
H35 C35 1_555 1_555
H36 C35 1_555 1_555
C36 N2 1_555 1_555
H37 C36 1_555 1_555
H38 C36 1_555 1_555
H39 C36 1_555 1_555
N3 C37 1_555 1_555
N4 H40 1_555 1_555
C37 C38 1_555 1_555
C38 H41 1_555 1_555
C39 C38 1_555 1_555
H42 C39 1_555 1_555
C40 C39 1_555 1_555
H43 C40 1_555 1_555
C41 C40 1_555 1_555
H44 C41 1_555 1_555
C42 C37 1_555 1_555
C43 C42 1_555 1_555
H45 C43 1_555 1_555
H46 C43 1_555 1_555
C44 C43 1_555 1_555
H47 C44 1_555 1_555
H48 C44 1_555 1_555
C45 C44 1_555 1_555
C46 C45 1_555 1_555
H49 C46 1_555 1_555
C47 C46 1_555 1_555
H50 C47 1_555 1_555
C48 C47 1_555 1_555
H51 C48 1_555 1_555
C49 C48 1_555 1_555
H52 C49 1_555 1_555
C50 N3 1_555 1_555
C51 N3 1_555 1_555
H53 C51 1_555 1_555
H54 C51 1_555 1_555
C52 C51 1_555 1_555
H55 C52 1_555 1_555
C53 C52 1_555 1_555
H56 C53 1_555 1_555
H57 C53 1_555 1_555
H58 C53 1_555 1_555
C54 N4 1_555 1_555
H59 C54 1_555 1_555
H60 C54 1_555 1_555
C55 N4 1_555 1_555
H61 C55 1_555 1_555
H62 C55 1_555 1_555
H63 C55 1_555 1_555
C56 N4 1_555 1_555
H64 C56 1_555 1_555
H65 C56 1_555 1_555
H66 C56 1_555 1_555
N5 C57 1_555 1_555
N6 H67 1_555 1_555
C57 C58 1_555 1_555
C58 H68 1_555 1_555
C59 C58 1_555 1_555
H69 C59 1_555 1_555
C60 C59 1_555 1_555
H70 C60 1_555 1_555
C61 C60 1_555 1_555
H71 C61 1_555 1_555
C62 C57 1_555 1_555
C63 C62 1_555 1_555
H72 C63 1_555 1_555
H73 C63 1_555 1_555
C64 C63 1_555 1_555
H74 C64 1_555 1_555
H75 C64 1_555 1_555
C65 C64 1_555 1_555
C66 C65 1_555 1_555
H76 C66 1_555 1_555
C67 C66 1_555 1_555
H77 C67 1_555 1_555
C68 C67 1_555 1_555
H78 C68 1_555 1_555
C69 C68 1_555 1_555
H79 C69 1_555 1_555
C70 N5 1_555 1_555
C71 N5 1_555 1_555
H80 C71 1_555 1_555
H81 C71 1_555 1_555
C72 C71 1_555 1_555
H82 C72 1_555 1_555
C73 C72 1_555 1_555
H83 C73 1_555 1_555
H84 C73 1_555 1_555
H85 C73 1_555 1_555
C74 N6 1_555 1_555
H86 C74 1_555 1_555
H87 C74 1_555 1_555
C75 N6 1_555 1_555
H88 C75 1_555 1_555
H89 C75 1_555 1_555
H90 C75 1_555 1_555
C76 N6 1_555 1_555
H91 C76 1_555 1_555
H92 C76 1_555 1_555
H93 C76 1_555 1_555
N7 C77 1_555 1_555
N8 H94 1_555 1_555
C77 C78 1_555 1_555
C78 H95 1_555 1_555
C79 C78 1_555 1_555
H96 C79 1_555 1_555
C80 C79 1_555 1_555
H97 C80 1_555 1_555
C81 C80 1_555 1_555
H98 C81 1_555 1_555
C82 C77 1_555 1_555
C83 C82 1_555 1_555
H99 C83 1_555 1_555
H100 C83 1_555 1_555
C84 C83 1_555 1_555
H101 C84 1_555 1_555
H102 C84 1_555 1_555
C85 C84 1_555 1_555
C86 C85 1_555 1_555
H103 C86 1_555 1_555
C87 C86 1_555 1_555
H104 C87 1_555 1_555
C88 C87 1_555 1_555
H105 C88 1_555 1_555
C89 C88 1_555 1_555
H106 C89 1_555 1_555
C90 N7 1_555 1_555
C91 N7 1_555 1_555
H107 C91 1_555 1_555
H108 C91 1_555 1_555
C92 C91 1_555 1_555
H109 C92 1_555 1_555
C93 C92 1_555 1_555
H110 C93 1_555 1_555
H111 C93 1_555 1_555
H112 C93 1_555 1_555
C94 N8 1_555 1_555
H113 C94 1_555 1_555
H114 C94 1_555 1_555
C95 N8 1_555 1_555
H115 C95 1_555 1_555
H116 C95 1_555 1_555
H117 C95 1_555 1_555
C96 N8 1_555 1_555
H118 C96 1_555 1_555
H119 C96 1_555 1_555
H120 C96 1_555 1_555
C3 C4 1_555 1_555
C7 C8 1_555 1_555
C11 C12 1_555 1_555
C15 C16 1_555 1_555
C21 C22 1_555 1_555
C25 C30 1_555 1_555
C29 C30 1_555 1_555
C32 C34 1_555 1_555
C41 C42 1_555 1_555
C45 C50 1_555 1_555
C49 C50 1_555 1_555
C52 C54 1_555 1_555
C61 C62 1_555 1_555
C65 C70 1_555 1_555
C69 C70 1_555 1_555
C72 C74 1_555 1_555
C81 C82 1_555 1_555
C85 C90 1_555 1_555
C89 C90 1_555 1_555
C92 C94 1_555 1_555

#END
