
#######################################################################
#
#                 Cambridge Crystallographic Data Centre
#                                CCDC 
#
#######################################################################
#
# If this CIF has been generated from an entry in the Cambridge 
# Structural Database, then it will include bibliographic, chemical, 
# crystal, experimental, refinement or atomic coordinate data resulting 
# from the CCDC's data processing and validation procedures.
#
#######################################################################

data_DUNMUW
_chemical_formula_moiety         'C27 H27 Br1 N2 O5'
_chemical_name_systematic        
'(5R/S,6R/S,10S/R)-Diethyl 10-(3-bromophenyl)-1-methyl-4-oxo-3-phenyl-2,3-diazaspiro[4.5]deca-1,7-diene-6,7-dicarboxylate'
_symmetry_cell_setting           monoclinic
_symmetry_space_group_name_H-M   'C c'
_symmetry_Int_Tables_number      9
_space_group_name_Hall           'C -2yc'
loop_
_symmetry_equiv_pos_site_id
_symmetry_equiv_pos_as_xyz
1 x,y,z
2 x,-y,1/2+z
3 1/2+x,1/2+y,z
4 1/2+x,1/2-y,1/2+z
_cell_length_a                   16.786(2)
_cell_length_b                   16.7779(19)
_cell_length_c                   35.405(4)
_cell_angle_alpha                90
_cell_angle_beta                 92.779(2)
_cell_angle_gamma                90
_cell_volume                     9959.52
_exptl_crystal_colour            colorless
_exptl_crystal_description       Plate
_cell_formula_units_Z            16
loop_
_atom_site_label
_atom_site_type_symbol
_atom_site_fract_x
_atom_site_fract_y
_atom_site_fract_z
Br1 Br -0.01084(5) 0.44078(6) 0.28426(3)
O1 O 0.3691(3) 0.6500(3) 0.37249(17)
O2 O 0.4265(3) 0.6054(4) 0.46066(19)
O3 O 0.3007(3) 0.6246(3) 0.47477(16)
O4 O 0.4161(4) 0.4287(5) 0.48196(17)
O5 O 0.5025(3) 0.3944(3) 0.43869(16)
N1 N 0.1764(3) 0.6606(3) 0.40458(16)
N2 N 0.2451(4) 0.6930(3) 0.3890(2)
C1 C 0.3225(4) 0.5224(4) 0.43176(18)
H1 H 0.2872 0.4903 0.4469
C2 C 0.2707(3) 0.5602(4) 0.39925(18)
C3 C 0.2596(3) 0.4984(3) 0.36601(17)
H2 H 0.2365 0.4504 0.3768
C4 C 0.3409(4) 0.4736(4) 0.35139(19)
H3 H 0.3334 0.4294 0.3339
H4 H 0.3633 0.5178 0.3378
C5 C 0.3974(4) 0.4496(4) 0.3830(2)
H5 H 0.4420 0.4198 0.3772
C6 C 0.3882(4) 0.4680(4) 0.41889(19)
C7 C 0.3583(4) 0.5870(4) 0.45719(19)
C8 C 0.3231(7) 0.6956(7) 0.4969(4)
H6 H 0.3436 0.6801 0.5219
H7 H 0.3645 0.7247 0.4846
C9 C 0.2531(8) 0.7456(6) 0.4999(4)
H8 H 0.2355 0.7640 0.4752
H9 H 0.2663 0.7906 0.5158
H10 H 0.2113 0.7154 0.5107
C10 C 0.3037(4) 0.6379(4) 0.38491(19)
C11 C 0.1905(4) 0.5876(4) 0.41120(18)
C12 C 0.1296(5) 0.5358(5) 0.4293(2)
H11 H 0.0860 0.5683 0.4369
H12 H 0.1538 0.5097 0.4510
H13 H 0.1100 0.4966 0.4114
C13 C 0.2420(4) 0.7742(4) 0.3776(2)
C14 C 0.1705(5) 0.8143(4) 0.3779(2)
H14 H 0.1255 0.7883 0.3861
C15 C 0.1645(4) 0.8934(4) 0.3661(2)
H15 H 0.1157 0.9197 0.3661
C16 C 0.2299(5) 0.9320(4) 0.3545(2)
H16 H 0.2263 0.9850 0.3468
C17 C 0.3022(5) 0.8923(4) 0.3541(2)
H17 H 0.3469 0.9184 0.3457
C18 C 0.3086(4) 0.8138(4) 0.3662(2)
H18 H 0.3576 0.7880 0.3666
C19 C 0.2027(4) 0.5243(4) 0.33383(18)
C20 C 0.1322(4) 0.4825(4) 0.32682(19)
H19 H 0.1171 0.4426 0.3432
C21 C 0.0843(4) 0.5012(5) 0.2949(2)
C22 C 0.1032(5) 0.5599(5) 0.2705(3)
H20 H 0.0698 0.5716 0.2495
C23 C 0.1733(6) 0.6017(6) 0.2775(3)
H21 H 0.1871 0.6422 0.2612
C24 C 0.2232(4) 0.5838(5) 0.3086(2)
H22 H 0.2707 0.6118 0.3128
C25 C 0.4368(5) 0.4301(4) 0.4501(2)
C26 C 0.5480(5) 0.3486(5) 0.4672(3)
H23 H 0.5399 0.3706 0.4920
H24 H 0.6044 0.3522 0.4626
C27 C 0.5228(6) 0.2631(5) 0.4662(3)
H25 H 0.5314 0.2412 0.4417
H26 H 0.4673 0.2595 0.4712
H27 H 0.5536 0.2338 0.4850
Br2 Br 0.50556(5) 0.42786(5) 0.28612(3)
O6 O 0.7159(3) 0.8045(3) 0.37126(17)
O7 O 0.6806(4) 0.8545(3) 0.4583(2)
O8 O 0.6989(3) 0.7279(3) 0.47434(16)
O9 O 0.5057(5) 0.8417(4) 0.48028(17)
O10 O 0.4650(3) 0.9311(3) 0.43686(17)
N3 N 0.7286(4) 0.6087(3) 0.40463(16)
N4 N 0.7606(4) 0.6781(3) 0.3884(2)
C28 C 0.5928(4) 0.7534(4) 0.43063(19)
H28 H 0.5621 0.7169 0.4459
C29 C 0.6279(3) 0.7037(4) 0.39786(18)
C30 C 0.5632(4) 0.6956(4) 0.36457(18)
H29 H 0.5161 0.6715 0.3752
C31 C 0.5382(4) 0.7774(4) 0.34980(19)
H30 H 0.5820 0.8012 0.3369
H31 H 0.4934 0.7717 0.3316
C32 C 0.5150(4) 0.8315(4) 0.3811(2)
H32 H 0.4834 0.8755 0.3750
C33 C 0.5372(4) 0.8198(4) 0.41709(19)
C34 C 0.6607(4) 0.7870(4) 0.4562(2)
C35 C 0.7725(7) 0.7496(7) 0.4959(3)
H33 H 0.7602 0.7701 0.5206
H34 H 0.8010 0.7905 0.4827
C36 C 0.8215(7) 0.6772(7) 0.5001(4)
H35 H 0.8338 0.6578 0.4755
H36 H 0.7926 0.6371 0.5131
H37 H 0.8701 0.6894 0.5143
C37 C 0.7050(4) 0.7388(4) 0.3839(2)
C38 C 0.6562(4) 0.6229(4) 0.4105(2)
C39 C 0.6063(4) 0.5617(4) 0.4287(2)
H38 H 0.5632 0.5461 0.4115
H39 H 0.5851 0.5837 0.4512
H40 H 0.6385 0.5160 0.4353
C40 C 0.8413(4) 0.6749(5) 0.3768(2)
C41 C 0.8794(4) 0.7433(4) 0.3662(2)
H41 H 0.8537 0.7923 0.3670
C42 C 0.9571(4) 0.7383(5) 0.3543(2)
H42 H 0.9831 0.7841 0.3467
C43 C 0.9957(4) 0.6657(5) 0.3536(2)
H43 H 1.0476 0.6623 0.3457
C44 C 0.9566(5) 0.5989(5) 0.3647(3)
H44 H 0.9824 0.5499 0.3645
C45 C 0.8791(4) 0.6032(4) 0.3763(2)
H45 H 0.8530 0.5573 0.3837
C46 C 0.5874(4) 0.6420(4) 0.33277(19)
C47 C 0.5456(4) 0.5715(4) 0.32589(18)
H46 H 0.5063 0.5557 0.3420
C48 C 0.5627(5) 0.5249(4) 0.2951(2)
C49 C 0.6193(5) 0.5460(5) 0.2707(3)
H47 H 0.6290 0.5145 0.2497
C50 C 0.6621(5) 0.6155(5) 0.2778(3)
H48 H 0.7020 0.6304 0.2619
C51 C 0.6458(4) 0.6622(4) 0.3081(2)
H49 H 0.6748 0.7089 0.3124
C52 C 0.5024(5) 0.8655(4) 0.4481(2)
C53 C 0.4223(5) 0.9743(5) 0.4649(2)
H50 H 0.4242 1.0309 0.4595
H51 H 0.4479 0.9655 0.4897
C54 C 0.3369(5) 0.9476(6) 0.4650(3)
H52 H 0.3127 0.9526 0.4400
H53 H 0.3086 0.9801 0.4821
H54 H 0.3349 0.8929 0.4729
Br3 Br 0.91490(5) 0.81716(5) 0.75471(3)
O11 O 0.6992(3) 0.4454(3) 0.66554(17)
O12 O 0.7332(4) 0.3982(3) 0.5777(2)
O13 O 0.7155(3) 0.5248(3) 0.56128(16)
O14 O 0.9064(5) 0.4095(4) 0.55598(17)
O15 O 0.9470(3) 0.3193(3) 0.59945(16)
N5 N 0.6820(3) 0.6404(3) 0.63135(17)
N6 N 0.6519(4) 0.5692(3) 0.64725(19)
C55 C 0.8212(4) 0.4987(4) 0.60547(19)
H55 H 0.8526 0.5352 0.5905
C56 C 0.7850(3) 0.5476(4) 0.63843(18)
C57 C 0.8500(3) 0.5558(4) 0.67149(18)
H56 H 0.8966 0.5803 0.6606
C58 C 0.8764(4) 0.4747(4) 0.68624(19)
H57 H 0.9223 0.4810 0.7037
H58 H 0.8338 0.4509 0.7000
C59 C 0.8976(4) 0.4207(4) 0.65491(19)
H59 H 0.9288 0.3762 0.6609
C60 C 0.8747(4) 0.4322(4) 0.61937(19)
C61 C 0.7525(4) 0.4667(4) 0.5800(2)
C62 C 0.6429(8) 0.5050(7) 0.5389(3)
H60 H 0.6561 0.4886 0.5137
H61 H 0.6155 0.4613 0.5507
C63 C 0.5916(7) 0.5746(7) 0.5367(4)
H62 H 0.6180 0.6167 0.5238
H63 H 0.5803 0.5917 0.5617
H64 H 0.5427 0.5614 0.5230
C64 C 0.7083(4) 0.5119(4) 0.65220(19)
C65 C 0.7560(4) 0.6284(4) 0.62533(19)
C66 C 0.8048(5) 0.6925(4) 0.6090(2)
H65 H 0.8213 0.6762 0.5846
H66 H 0.8509 0.7023 0.6254
H67 H 0.7736 0.7403 0.6065
C67 C 0.5729(4) 0.5712(4) 0.6598(2)
C68 C 0.5316(4) 0.6435(4) 0.6577(2)
H68 H 0.5552 0.6886 0.6478
C69 C 0.4543(4) 0.6472(5) 0.6706(2)
H69 H 0.4272 0.6956 0.6701
C70 C 0.4176(4) 0.5798(5) 0.6842(2)
H70 H 0.3657 0.5822 0.6922
C71 C 0.4594(4) 0.5091(5) 0.6858(2)
H71 H 0.4360 0.4638 0.6956
C72 C 0.5361(4) 0.5049(4) 0.6729(2)
H72 H 0.5627 0.4563 0.6732
C73 C 0.8261(4) 0.6101(4) 0.70328(18)
C74 C 0.8703(4) 0.6790(4) 0.71179(19)
H73 H 0.9121 0.6932 0.6969
C75 C 0.8522(4) 0.7264(4) 0.7423(2)
C76 C 0.7900(5) 0.7071(5) 0.7650(2)
H74 H 0.7783 0.7388 0.7856
C77 C 0.7460(6) 0.6395(5) 0.7564(3)
H75 H 0.7031 0.6265 0.7709
C78 C 0.7641(4) 0.5910(4) 0.7267(2)
H76 H 0.7347 0.5448 0.7220
C79 C 0.9098(5) 0.3868(4) 0.5878(2)
C80 C 0.9883(5) 0.2760(5) 0.5704(3)
H77 H 0.9622 0.2864 0.5459
H78 H 0.9850 0.2192 0.5753
C81 C 1.0732(5) 0.3000(5) 0.5699(3)
H79 H 1.0984 0.2718 0.5501
H80 H 1.0996 0.2875 0.5938
H81 H 1.0765 0.3563 0.5654
Br4 Br 0.92827(5) 0.30261(6) 0.74959(3)
O16 O 0.5435(3) 0.0970(3) 0.66448(17)
O17 O 0.4841(3) 0.1445(4) 0.57754(19)
O18 O 0.6091(3) 0.1262(3) 0.56231(16)
O19 O 0.4949(4) 0.3223(4) 0.55691(17)
O20 O 0.4103(3) 0.3570(3) 0.60062(15)
N7 N 0.7365(3) 0.0893(3) 0.63124(17)
N8 N 0.6684(4) 0.0553(3) 0.64738(19)
C82 C 0.5879(4) 0.2282(4) 0.60602(18)
H82 H 0.6226 0.2611 0.5909
C83 C 0.6414(3) 0.1901(3) 0.63850(18)
C84 C 0.6524(4) 0.2507(4) 0.67153(18)
H83 H 0.6745 0.2995 0.6610
C85 C 0.5720(4) 0.2723(4) 0.68663(19)
H84 H 0.5504 0.2263 0.6992
H85 H 0.5791 0.3146 0.7052
C86 C 0.5143(4) 0.2989(4) 0.6558(2)
H86 H 0.4703 0.3287 0.6622
C87 C 0.5233(4) 0.2817(4) 0.6200(2)
C88 C 0.5524(4) 0.1634(4) 0.5802(2)
C89 C 0.5865(7) 0.0556(6) 0.5400(4)
H87 H 0.5643 0.0713 0.5154
H88 H 0.5467 0.0251 0.5527
C90 C 0.6588(8) 0.0072(6) 0.5360(3)
H89 H 0.6452 -0.0407 0.5223
H90 H 0.6815 -0.0063 0.5606
H91 H 0.6969 0.0371 0.5224
C91 C 0.6083(4) 0.1097(4) 0.65152(18)
C92 C 0.7215(4) 0.1638(4) 0.62534(19)
C93 C 0.7812(4) 0.2161(4) 0.6088(2)
H92 H 0.8310 0.1882 0.6078
H93 H 0.7885 0.2630 0.6242
H94 H 0.7630 0.2313 0.5837
C94 C 0.6736(4) -0.0257(4) 0.6583(2)
C95 C 0.6054(4) -0.0677(4) 0.6663(2)
H95 H 0.5557 -0.0431 0.6642
C96 C 0.6121(5) -0.1469(4) 0.6774(2)
H96 H 0.5664 -0.1753 0.6827
C97 C 0.6850(5) -0.1841(4) 0.6807(2)
H97 H 0.6890 -0.2369 0.6885
C98 C 0.7521(5) -0.1415(4) 0.6721(2)
H98 H 0.8016 -0.1666 0.6740
C99 C 0.7478(4) -0.0628(4) 0.6609(2)
H99 H 0.7936 -0.0350 0.6551
C100 C 0.7096(4) 0.2237(4) 0.70363(18)
C101 C 0.7807(4) 0.2649(4) 0.71012(18)
H100 H 0.7938 0.3062 0.6940
C102 C 0.8325(4) 0.2450(5) 0.7406(2)
C103 C 0.8140(5) 0.1840(5) 0.7651(3)
H101 H 0.8478 0.1717 0.7859
C104 C 0.7443(5) 0.1419(5) 0.7578(3)
H102 H 0.7323 0.0995 0.7735
C105 C 0.6922(4) 0.1610(4) 0.7281(2)
H103 H 0.6452 0.1322 0.7241
C106 C 0.4747(5) 0.3214(5) 0.5891(2)
C107 C 0.3637(5) 0.4045(5) 0.5731(2)
H104 H 0.3079 0.4031 0.5790
H105 H 0.3684 0.3821 0.5480
C108 C 0.3919(6) 0.4881(5) 0.5734(3)
H106 H 0.3624 0.5179 0.5543
H107 H 0.4476 0.4893 0.5684
H108 H 0.3841 0.5113 0.5977
loop_
_geom_bond_atom_site_label_1
_geom_bond_atom_site_label_2
_geom_bond_site_symmetry_1
_geom_bond_site_symmetry_2
Br1 C21 1_555 1_555
O1 C10 1_555 1_555
O2 C7 1_555 1_555
O3 C7 1_555 1_555
O4 C25 1_555 1_555
O5 C25 1_555 1_555
N1 N2 1_555 1_555
N2 C10 1_555 1_555
C1 H1 1_555 1_555
C2 C1 1_555 1_555
C3 C2 1_555 1_555
H2 C3 1_555 1_555
C4 C3 1_555 1_555
H3 C4 1_555 1_555
H4 C4 1_555 1_555
C5 C4 1_555 1_555
H5 C5 1_555 1_555
C6 C1 1_555 1_555
C7 C1 1_555 1_555
C8 O3 1_555 1_555
H6 C8 1_555 1_555
H7 C8 1_555 1_555
C9 C8 1_555 1_555
H8 C9 1_555 1_555
H9 C9 1_555 1_555
H10 C9 1_555 1_555
C10 C2 1_555 1_555
C11 N1 1_555 1_555
C12 C11 1_555 1_555
H11 C12 1_555 1_555
H12 C12 1_555 1_555
H13 C12 1_555 1_555
C13 N2 1_555 1_555
C14 C13 1_555 1_555
H14 C14 1_555 1_555
C15 C14 1_555 1_555
H15 C15 1_555 1_555
C16 C15 1_555 1_555
H16 C16 1_555 1_555
C17 C16 1_555 1_555
H17 C17 1_555 1_555
C18 C13 1_555 1_555
H18 C18 1_555 1_555
C19 C3 1_555 1_555
C20 C19 1_555 1_555
H19 C20 1_555 1_555
C21 C20 1_555 1_555
C22 C21 1_555 1_555
H20 C22 1_555 1_555
C23 C22 1_555 1_555
H21 C23 1_555 1_555
C24 C19 1_555 1_555
H22 C24 1_555 1_555
C25 C6 1_555 1_555
C26 O5 1_555 1_555
H23 C26 1_555 1_555
H24 C26 1_555 1_555
C27 C26 1_555 1_555
H25 C27 1_555 1_555
H26 C27 1_555 1_555
H27 C27 1_555 1_555
Br2 C48 1_555 1_555
O6 C37 1_555 1_555
O7 C34 1_555 1_555
O8 C34 1_555 1_555
O9 C52 1_555 1_555
O10 C52 1_555 1_555
N3 N4 1_555 1_555
N4 C37 1_555 1_555
C28 H28 1_555 1_555
C29 C28 1_555 1_555
C30 C29 1_555 1_555
H29 C30 1_555 1_555
C31 C30 1_555 1_555
H30 C31 1_555 1_555
H31 C31 1_555 1_555
C32 C31 1_555 1_555
H32 C32 1_555 1_555
C33 C28 1_555 1_555
C34 C28 1_555 1_555
C35 O8 1_555 1_555
H33 C35 1_555 1_555
H34 C35 1_555 1_555
C36 C35 1_555 1_555
H35 C36 1_555 1_555
H36 C36 1_555 1_555
H37 C36 1_555 1_555
C37 C29 1_555 1_555
C38 N3 1_555 1_555
C39 C38 1_555 1_555
H38 C39 1_555 1_555
H39 C39 1_555 1_555
H40 C39 1_555 1_555
C40 N4 1_555 1_555
C41 C40 1_555 1_555
H41 C41 1_555 1_555
C42 C41 1_555 1_555
H42 C42 1_555 1_555
C43 C42 1_555 1_555
H43 C43 1_555 1_555
C44 C43 1_555 1_555
H44 C44 1_555 1_555
C45 C40 1_555 1_555
H45 C45 1_555 1_555
C46 C30 1_555 1_555
C47 C46 1_555 1_555
H46 C47 1_555 1_555
C48 C47 1_555 1_555
C49 C48 1_555 1_555
H47 C49 1_555 1_555
C50 C49 1_555 1_555
H48 C50 1_555 1_555
C51 C46 1_555 1_555
H49 C51 1_555 1_555
C52 C33 1_555 1_555
C53 O10 1_555 1_555
H50 C53 1_555 1_555
H51 C53 1_555 1_555
C54 C53 1_555 1_555
H52 C54 1_555 1_555
H53 C54 1_555 1_555
H54 C54 1_555 1_555
Br3 C75 1_555 1_555
O11 C64 1_555 1_555
O12 C61 1_555 1_555
O13 C61 1_555 1_555
O14 C79 1_555 1_555
O15 C79 1_555 1_555
N5 N6 1_555 1_555
N6 C64 1_555 1_555
C55 H55 1_555 1_555
C56 C55 1_555 1_555
C57 C56 1_555 1_555
H56 C57 1_555 1_555
C58 C57 1_555 1_555
H57 C58 1_555 1_555
H58 C58 1_555 1_555
C59 C58 1_555 1_555
H59 C59 1_555 1_555
C60 C55 1_555 1_555
C61 C55 1_555 1_555
C62 O13 1_555 1_555
H60 C62 1_555 1_555
H61 C62 1_555 1_555
C63 C62 1_555 1_555
H62 C63 1_555 1_555
H63 C63 1_555 1_555
H64 C63 1_555 1_555
C64 C56 1_555 1_555
C65 N5 1_555 1_555
C66 C65 1_555 1_555
H65 C66 1_555 1_555
H66 C66 1_555 1_555
H67 C66 1_555 1_555
C67 N6 1_555 1_555
C68 C67 1_555 1_555
H68 C68 1_555 1_555
C69 C68 1_555 1_555
H69 C69 1_555 1_555
C70 C69 1_555 1_555
H70 C70 1_555 1_555
C71 C70 1_555 1_555
H71 C71 1_555 1_555
C72 C67 1_555 1_555
H72 C72 1_555 1_555
C73 C57 1_555 1_555
C74 C73 1_555 1_555
H73 C74 1_555 1_555
C75 C74 1_555 1_555
C76 C75 1_555 1_555
H74 C76 1_555 1_555
C77 C76 1_555 1_555
H75 C77 1_555 1_555
C78 C73 1_555 1_555
H76 C78 1_555 1_555
C79 C60 1_555 1_555
C80 O15 1_555 1_555
H77 C80 1_555 1_555
H78 C80 1_555 1_555
C81 C80 1_555 1_555
H79 C81 1_555 1_555
H80 C81 1_555 1_555
H81 C81 1_555 1_555
Br4 C102 1_555 1_555
O16 C91 1_555 1_555
O17 C88 1_555 1_555
O18 C88 1_555 1_555
O19 C106 1_555 1_555
O20 C106 1_555 1_555
N7 N8 1_555 1_555
N8 C91 1_555 1_555
C82 H82 1_555 1_555
C83 C82 1_555 1_555
C84 C83 1_555 1_555
H83 C84 1_555 1_555
C85 C84 1_555 1_555
H84 C85 1_555 1_555
H85 C85 1_555 1_555
C86 C85 1_555 1_555
H86 C86 1_555 1_555
C87 C82 1_555 1_555
C88 C82 1_555 1_555
C89 O18 1_555 1_555
H87 C89 1_555 1_555
H88 C89 1_555 1_555
C90 C89 1_555 1_555
H89 C90 1_555 1_555
H90 C90 1_555 1_555
H91 C90 1_555 1_555
C91 C83 1_555 1_555
C92 N7 1_555 1_555
C93 C92 1_555 1_555
H92 C93 1_555 1_555
H93 C93 1_555 1_555
H94 C93 1_555 1_555
C94 N8 1_555 1_555
C95 C94 1_555 1_555
H95 C95 1_555 1_555
C96 C95 1_555 1_555
H96 C96 1_555 1_555
C97 C96 1_555 1_555
H97 C97 1_555 1_555
C98 C97 1_555 1_555
H98 C98 1_555 1_555
C99 C94 1_555 1_555
H99 C99 1_555 1_555
C100 C84 1_555 1_555
C101 C100 1_555 1_555
H100 C101 1_555 1_555
C102 C101 1_555 1_555
C103 C102 1_555 1_555
H101 C103 1_555 1_555
C104 C103 1_555 1_555
H102 C104 1_555 1_555
C105 C100 1_555 1_555
H103 C105 1_555 1_555
C106 C87 1_555 1_555
C107 O20 1_555 1_555
H104 C107 1_555 1_555
H105 C107 1_555 1_555
C108 C107 1_555 1_555
H106 C108 1_555 1_555
H107 C108 1_555 1_555
H108 C108 1_555 1_555
C2 C11 1_555 1_555
C5 C6 1_555 1_555
C17 C18 1_555 1_555
C23 C24 1_555 1_555
C29 C38 1_555 1_555
C32 C33 1_555 1_555
C44 C45 1_555 1_555
C50 C51 1_555 1_555
C56 C65 1_555 1_555
C59 C60 1_555 1_555
C71 C72 1_555 1_555
C77 C78 1_555 1_555
C83 C92 1_555 1_555
C86 C87 1_555 1_555
C98 C99 1_555 1_555
C104 C105 1_555 1_555

#END
