
#######################################################################
#
#                 Cambridge Crystallographic Data Centre
#                                CCDC 
#
#######################################################################
#
# If this CIF has been generated from an entry in the Cambridge 
# Structural Database, then it will include bibliographic, chemical, 
# crystal, experimental, refinement or atomic coordinate data resulting 
# from the CCDC's data processing and validation procedures.
#
#######################################################################

data_DUNMOQ
_chemical_formula_moiety         'C30 H28 N2 O3'
_chemical_name_systematic        
'(5S/R,6S/R,10R/S)-Ethyl 1-methyl-4-oxo-3,6,10-triphenyl-2,3-diazaspiro[4.5]deca-1,7-diene-7-carboxylate'
_symmetry_cell_setting           monoclinic
_symmetry_space_group_name_H-M   'P 21/n'
_symmetry_Int_Tables_number      14
_space_group_name_Hall           '-P 2yn'
loop_
_symmetry_equiv_pos_site_id
_symmetry_equiv_pos_as_xyz
1 x,y,z
2 1/2-x,1/2+y,1/2-z
3 -x,-y,-z
4 1/2+x,1/2-y,1/2+z
_cell_length_a                   12.107(2)
_cell_length_b                   10.601(2)
_cell_length_c                   18.803(4)
_cell_angle_alpha                90
_cell_angle_beta                 98.78(3)
_cell_angle_gamma                90
_cell_volume                     2385.02
_exptl_crystal_colour            colorless
_exptl_crystal_description       block
_cell_formula_units_Z            4
loop_
_atom_site_label
_atom_site_type_symbol
_atom_site_fract_x
_atom_site_fract_y
_atom_site_fract_z
O1 O 0.12501(8) 0.10780(9) 0.18410(5)
O2 O 0.42711(9) 0.36223(12) 0.04888(6)
O3 O 0.26613(8) 0.46347(10) 0.00943(6)
N1 N -0.04373(10) 0.20977(11) 0.18573(6)
N2 N -0.08400(9) 0.33424(11) 0.18834(6)
C1 C 0.15218(12) 0.45755(15) 0.37003(8)
H1 H 0.1752 0.5379 0.3554
C2 C 0.11578(14) 0.44493(18) 0.43644(9)
H2 H 0.1145 0.5164 0.4668
C3 C 0.08154(13) 0.32897(18) 0.45829(9)
H3 H 0.0556 0.3207 0.5033
C4 C 0.08520(12) 0.22497(16) 0.41436(8)
H4 H 0.0619 0.1449 0.4293
C5 C 0.12275(12) 0.23693(15) 0.34853(8)
H5 H 0.1263 0.1645 0.3192
C6 C 0.15531(11) 0.35393(14) 0.32485(8)
C7 C 0.19747(11) 0.37149(14) 0.25314(7)
H6 H 0.2166 0.4628 0.2498
C8 C 0.30506(11) 0.29738(15) 0.24946(8)
H7 H 0.3635 0.3240 0.2893
H8 H 0.2910 0.2062 0.2552
C9 C 0.34504(11) 0.31941(14) 0.17923(8)
H9 H 0.4217 0.3047 0.1764
C10 C 0.27867(11) 0.35867(13) 0.12027(7)
C11 C 0.15342(11) 0.37615(13) 0.11447(7)
H10 H 0.1377 0.4678 0.1053
C12 C 0.10872(11) 0.34123(13) 0.18647(7)
C13 C 0.33342(11) 0.39240(14) 0.05624(8)
C14 C 0.30618(13) 0.49435(17) -0.05767(9)
H11 H 0.3851 0.5221 -0.0472
H12 H 0.2615 0.5648 -0.0817
C15 C 0.29738(15) 0.38220(19) -0.10685(9)
H13 H 0.3135 0.4081 -0.1542
H14 H 0.2216 0.3475 -0.1118
H15 H 0.3513 0.3178 -0.0867
C16 C 0.08812(11) 0.30327(14) 0.05122(7)
C17 C -0.01981(12) 0.34036(15) 0.02198(8)
H16 H -0.0504 0.4155 0.0385
C18 C -0.08310(13) 0.26840(17) -0.03116(9)
H17 H -0.1573 0.2932 -0.0498
C19 C -0.03829(15) 0.16082(17) -0.05700(9)
H18 H -0.0817 0.1115 -0.0931
C20 C 0.06999(15) 0.12528(16) -0.03006(8)
H19 H 0.1017 0.0528 -0.0487
C21 C 0.13241(13) 0.19540(14) 0.02419(8)
H20 H 0.2062 0.1694 0.0431
C22 C 0.06930(11) 0.20364(13) 0.18517(7)
C23 C 0.00005(11) 0.40813(13) 0.18995(7)
C24 C -0.01374(13) 0.54724(14) 0.19589(9)
H21 H 0.0040 0.5881 0.1523
H22 H 0.0369 0.5787 0.2378
H23 H -0.0911 0.5664 0.2015
C25 C -0.12245(12) 0.10985(14) 0.18354(8)
C26 C -0.09174(15) -0.00498(16) 0.21521(9)
H24 H -0.0171 -0.0191 0.2378
C27 C -0.17149(19) -0.09939(18) 0.21347(11)
H25 H -0.1509 -0.1789 0.2348
C28 C -0.28027(18) -0.0796(2) 0.18120(11)
H26 H -0.3344 -0.1445 0.1808
C29 C -0.30949(17) 0.0347(2) 0.14972(12)
H27 H -0.3842 0.0485 0.1271
C30 C -0.23133(14) 0.13050(18) 0.15046(10)
H28 H -0.2522 0.2095 0.1285
loop_
_geom_bond_atom_site_label_1
_geom_bond_atom_site_label_2
_geom_bond_site_symmetry_1
_geom_bond_site_symmetry_2
O1 C22 1_555 1_555
O2 C13 1_555 1_555
O3 C13 1_555 1_555
N1 N2 1_555 1_555
N2 C23 1_555 1_555
C1 H1 1_555 1_555
C2 C1 1_555 1_555
H2 C2 1_555 1_555
C3 C2 1_555 1_555
H3 C3 1_555 1_555
C4 C3 1_555 1_555
H4 C4 1_555 1_555
C5 C4 1_555 1_555
H5 C5 1_555 1_555
C6 C1 1_555 1_555
C7 C6 1_555 1_555
H6 C7 1_555 1_555
C8 C7 1_555 1_555
H7 C8 1_555 1_555
H8 C8 1_555 1_555
C9 C8 1_555 1_555
H9 C9 1_555 1_555
C10 C9 1_555 1_555
C11 C10 1_555 1_555
H10 C11 1_555 1_555
C12 C7 1_555 1_555
C13 C10 1_555 1_555
C14 O3 1_555 1_555
H11 C14 1_555 1_555
H12 C14 1_555 1_555
C15 C14 1_555 1_555
H13 C15 1_555 1_555
H14 C15 1_555 1_555
H15 C15 1_555 1_555
C16 C11 1_555 1_555
C17 C16 1_555 1_555
H16 C17 1_555 1_555
C18 C17 1_555 1_555
H17 C18 1_555 1_555
C19 C18 1_555 1_555
H18 C19 1_555 1_555
C20 C19 1_555 1_555
H19 C20 1_555 1_555
C21 C16 1_555 1_555
H20 C21 1_555 1_555
C22 N1 1_555 1_555
C23 C12 1_555 1_555
C24 C23 1_555 1_555
H21 C24 1_555 1_555
H22 C24 1_555 1_555
H23 C24 1_555 1_555
C25 N1 1_555 1_555
C26 C25 1_555 1_555
H24 C26 1_555 1_555
C27 C26 1_555 1_555
H25 C27 1_555 1_555
C28 C27 1_555 1_555
H26 C28 1_555 1_555
C29 C28 1_555 1_555
H27 C29 1_555 1_555
C30 C25 1_555 1_555
H28 C30 1_555 1_555
C5 C6 1_555 1_555
C11 C12 1_555 1_555
C12 C22 1_555 1_555
C20 C21 1_555 1_555
C29 C30 1_555 1_555

#END
