
#######################################################################
#
#                 Cambridge Crystallographic Data Centre
#                                CCDC 
#
#######################################################################
#
# If this CIF has been generated from an entry in the Cambridge 
# Structural Database, then it will include bibliographic, chemical, 
# crystal, experimental, refinement or atomic coordinate data resulting 
# from the CCDC's data processing and validation procedures.
#
#######################################################################

data_DUNNAD
_chemical_formula_moiety         'C30 H28 N2 O3'
_chemical_name_systematic        
'(5R/S,6S/R,10S/R)-Ethyl 1-methyl-4-oxo-3,6,10-triphenyl-2,3-diazaspiro[4.5]deca-1,7-diene-7-carboxylate'
_symmetry_cell_setting           triclinic
_symmetry_space_group_name_H-M   'P -1'
_symmetry_Int_Tables_number      2
_space_group_name_Hall           '-P 1'
loop_
_symmetry_equiv_pos_site_id
_symmetry_equiv_pos_as_xyz
1 x,y,z
2 -x,-y,-z
_cell_length_a                   9.994(3)
_cell_length_b                   10.991(6)
_cell_length_c                   12.398(8)
_cell_angle_alpha                107.882(4)
_cell_angle_beta                 108.124(10)
_cell_angle_gamma                95.032(6)
_cell_volume                     1206.21
_exptl_crystal_colour            colorless
_exptl_crystal_description       block
_cell_formula_units_Z            2
loop_
_atom_site_label
_atom_site_type_symbol
_atom_site_fract_x
_atom_site_fract_y
_atom_site_fract_z
O1 O 0.16982(10) -0.03312(9) 0.52240(8)
O2 O 0.44538(12) 0.07116(11) 0.34901(9)
O3 O 0.25432(11) 0.13798(10) 0.24888(8)
N1 N 0.30365(12) -0.01179(10) 0.71811(9)
N2 N 0.41030(12) 0.08190(11) 0.82069(9)
C1 C 0.34101(13) 0.17079(12) 0.66673(11)
C2 C 0.43714(13) 0.18262(12) 0.79260(11)
C3 C 0.25803(13) 0.03041(12) 0.62231(11)
C4 C 0.54643(15) 0.29919(14) 0.88533(12)
H1 H 0.5595 0.2977 0.9666
H2 H 0.5135 0.3788 0.8783
H3 H 0.6380 0.2977 0.8720
C5 C 0.25620(14) -0.13578(13) 0.72075(12)
C6 C 0.23269(15) -0.24672(13) 0.62112(13)
H4 H 0.2502 -0.2402 0.5518
C7 C 0.18326(17) -0.36772(14) 0.62332(14)
H5 H 0.1660 -0.4441 0.5548
C8 C 0.15885(17) -0.37804(15) 0.72440(15)
H6 H 0.1241 -0.4611 0.7249
C9 C 0.18525(18) -0.26724(17) 0.82438(15)
H7 H 0.1707 -0.2743 0.8946
C10 C 0.23309(17) -0.14504(15) 0.82303(13)
H8 H 0.2498 -0.0687 0.8915
C11 C 0.24079(13) 0.27181(12) 0.67709(11)
H9 H 0.3025 0.3601 0.7045
C12 C 0.12672(14) 0.25023(13) 0.55321(11)
H10 H 0.0449 0.1815 0.5376
H11 H 0.0904 0.3318 0.5566
C13 C 0.17900(14) 0.21159(12) 0.44965(11)
H12 H 0.1193 0.2128 0.3737
C14 C 0.30435(14) 0.17552(12) 0.45736(11)
C15 C 0.41550(13) 0.17801(12) 0.57439(11)
H13 H 0.4546 0.0966 0.5540
C16 C 0.17271(14) 0.27403(13) 0.77187(12)
C17 C 0.21275(15) 0.38245(14) 0.87795(12)
H14 H 0.2825 0.4549 0.8905
C18 C 0.15267(18) 0.38682(17) 0.96570(14)
H15 H 0.1801 0.4622 1.0370
C19 C 0.05282(18) 0.28108(19) 0.94909(15)
H16 H 0.0130 0.2830 1.0098
C20 C 0.01094(17) 0.17279(17) 0.84441(14)
H17 H -0.0580 0.1004 0.8331
C21 C 0.06915(15) 0.16912(14) 0.75531(13)
H18 H 0.0383 0.0949 0.6828
C22 C 0.54101(13) 0.29255(12) 0.62050(11)
C23 C 0.52000(15) 0.41566(13) 0.61809(12)
H19 H 0.4250 0.4300 0.5895
C24 C 0.63650(17) 0.51763(14) 0.65712(13)
H20 H 0.6206 0.6010 0.6551
C25 C 0.77509(16) 0.49826(16) 0.69881(14)
H21 H 0.8545 0.5682 0.7259
C26 C 0.79805(15) 0.37627(16) 0.70109(13)
H22 H 0.8933 0.3625 0.7297
C27 C 0.68157(15) 0.27415(14) 0.66151(12)
H23 H 0.6980 0.1906 0.6624
C28 C 0.34403(14) 0.12328(13) 0.34846(12)
C29 C 0.28442(18) 0.08495(16) 0.13774(13)
H24 H 0.1932 0.0563 0.0672
H25 H 0.3280 0.0076 0.1390
C30 C 0.38492(19) 0.18453(18) 0.12407(14)
H26 H 0.4023 0.1464 0.0483
H27 H 0.4763 0.2112 0.1927
H28 H 0.3417 0.2609 0.1223
loop_
_geom_bond_atom_site_label_1
_geom_bond_atom_site_label_2
_geom_bond_site_symmetry_1
_geom_bond_site_symmetry_2
O1 C3 1_555 1_555
O2 C28 1_555 1_555
O3 C28 1_555 1_555
N1 N2 1_555 1_555
N2 C2 1_555 1_555
C1 C2 1_555 1_555
C2 C4 1_555 1_555
C3 N1 1_555 1_555
C4 H1 1_555 1_555
H2 C4 1_555 1_555
H3 C4 1_555 1_555
C5 N1 1_555 1_555
C6 C5 1_555 1_555
H4 C6 1_555 1_555
C7 C6 1_555 1_555
H5 C7 1_555 1_555
C8 C7 1_555 1_555
H6 C8 1_555 1_555
C9 C8 1_555 1_555
H7 C9 1_555 1_555
C10 C5 1_555 1_555
H8 C10 1_555 1_555
C11 C1 1_555 1_555
H9 C11 1_555 1_555
C12 C11 1_555 1_555
H10 C12 1_555 1_555
H11 C12 1_555 1_555
C13 C12 1_555 1_555
H12 C13 1_555 1_555
C14 C13 1_555 1_555
C15 C1 1_555 1_555
H13 C15 1_555 1_555
C16 C11 1_555 1_555
C17 C16 1_555 1_555
H14 C17 1_555 1_555
C18 C17 1_555 1_555
H15 C18 1_555 1_555
C19 C18 1_555 1_555
H16 C19 1_555 1_555
C20 C19 1_555 1_555
H17 C20 1_555 1_555
C21 C16 1_555 1_555
H18 C21 1_555 1_555
C22 C15 1_555 1_555
C23 C22 1_555 1_555
H19 C23 1_555 1_555
C24 C23 1_555 1_555
H20 C24 1_555 1_555
C25 C24 1_555 1_555
H21 C25 1_555 1_555
C26 C25 1_555 1_555
H22 C26 1_555 1_555
C27 C22 1_555 1_555
H23 C27 1_555 1_555
C28 C14 1_555 1_555
C29 O3 1_555 1_555
H24 C29 1_555 1_555
H25 C29 1_555 1_555
C30 C29 1_555 1_555
H26 C30 1_555 1_555
H27 C30 1_555 1_555
H28 C30 1_555 1_555
C1 C3 1_555 1_555
C9 C10 1_555 1_555
C14 C15 1_555 1_555
C20 C21 1_555 1_555
C26 C27 1_555 1_555

#END
