
#######################################################################
#
#                 Cambridge Crystallographic Data Centre
#                                CCDC 
#
#######################################################################
#
# If this CIF has been generated from an entry in the Cambridge 
# Structural Database, then it will include bibliographic, chemical, 
# crystal, experimental, refinement or atomic coordinate data resulting 
# from the CCDC's data processing and validation procedures.
#
#######################################################################

data_DUNNEH
_chemical_formula_moiety         'C27 H27 Cl1 N2 O5'
_chemical_name_systematic        
'(5R,6S,10S)-Diethyl 10-(4-chlorophenyl)-1-methyl-4-oxo-3-phenyl-2,3-diazaspiro[4.5]deca-1,7-diene-6,7-dicarboxylate'
_symmetry_cell_setting           orthorhombic
_symmetry_space_group_name_H-M   'P 21 21 21'
_symmetry_Int_Tables_number      19
_space_group_name_Hall           'P 2ac 2ab'
loop_
_symmetry_equiv_pos_site_id
_symmetry_equiv_pos_as_xyz
1 x,y,z
2 1/2-x,-y,1/2+z
3 -x,1/2+y,1/2-z
4 1/2+x,1/2-y,-z
_cell_length_a                   10.513(2)
_cell_length_b                   13.093(3)
_cell_length_c                   17.827(4)
_cell_angle_alpha                90
_cell_angle_beta                 90
_cell_angle_gamma                90
_cell_volume                     2453.83
_exptl_crystal_colour            colorless
_exptl_crystal_description       block
_cell_formula_units_Z            4
loop_
_atom_site_label
_atom_site_type_symbol
_atom_site_fract_x
_atom_site_fract_y
_atom_site_fract_z
Cl1 Cl -0.67163(7) -0.14368(6) -0.04090(4)
O1 O -0.93650(15) 0.10758(12) 0.28212(9)
O2 O -1.29220(18) 0.02695(16) 0.44602(11)
O3 O -1.10870(17) -0.02400(15) 0.49802(9)
O4 O -1.0780(2) -0.25345(14) 0.38784(11)
O5 O -0.91118(18) -0.20520(14) 0.45818(10)
N1 N -0.70001(18) -0.07790(14) 0.29627(11)
N2 N -0.74443(18) 0.02307(14) 0.28910(11)
C1 C -0.7789(2) -0.1323(2) 0.03346(12)
C2 C -0.8093(3) -0.03710(19) 0.06138(13)
H1 H -0.7771 0.0217 0.0392
C3 C -0.8894(3) -0.03077(18) 0.12350(13)
H2 H -0.9117 0.0330 0.1423
C4 C -0.9365(2) -0.11853(17) 0.15802(12)
C5 C -0.9076(2) -0.21295(17) 0.12611(13)
H3 H -0.9416 -0.2721 0.1469
C6 C -0.8292(2) -0.22007(18) 0.06385(13)
H4 H -0.8108 -0.2834 0.0429
C7 C -1.0106(2) -0.11506(17) 0.23141(11)
H5 H -1.0379 -0.1850 0.2426
C8 C -1.1303(2) -0.04882(19) 0.22814(13)
H6 H -1.1101 0.0144 0.2024
H7 H -1.1944 -0.0841 0.1988
C9 C -1.1848(2) -0.02385(18) 0.30337(13)
H8 H -1.2665 0.0034 0.3050
C10 C -1.1245(2) -0.03792(17) 0.36796(13)
C11 C -0.9925(2) -0.08328(16) 0.37374(12)
H9 H -0.9437 -0.0414 0.4091
C12 C -0.9220(2) -0.08044(16) 0.29655(12)
C13 C -0.8741(2) 0.02955(16) 0.28744(11)
C14 C -0.7971(2) -0.13713(16) 0.29915(11)
C15 C -0.7806(2) -0.25081(17) 0.30182(14)
H10 H -0.7157 -0.2709 0.2669
H11 H -0.8593 -0.2834 0.2887
H12 H -0.7561 -0.2710 0.3516
C16 C -0.6574(2) 0.10541(17) 0.29422(13)
C17 C -0.5576(2) 0.09885(19) 0.34534(17)
H13 H -0.5459 0.0397 0.3734
C18 C -0.4758(3) 0.1812(2) 0.3541(2)
H14 H -0.4093 0.1774 0.3883
C19 C -0.4927(3) 0.2685(2) 0.31221(19)
H15 H -0.4381 0.3238 0.3185
C20 C -0.5907(3) 0.27379(19) 0.26082(17)
H16 H -0.6009 0.3326 0.2322
C21 C -0.6748(2) 0.19251(18) 0.25106(14)
H17 H -0.7408 0.1966 0.2165
C22 C -1.1867(2) -0.00783(17) 0.43965(13)
C23 C -1.1530(3) 0.0087(2) 0.57137(14)
H18 H -1.2355 -0.0211 0.5823
H19 H -1.1608 0.0825 0.5730
C24 C -1.0567(3) -0.0268(2) 0.62699(15)
H20 H -0.9756 0.0030 0.6154
H21 H -1.0501 -0.0999 0.6249
H22 H -1.0823 -0.0064 0.6765
C25 C -1.0012(2) -0.19097(17) 0.40618(12)
C26 C -0.9057(3) -0.3055(2) 0.49311(18)
H23 H -0.8204 -0.3178 0.5117
H24 H -0.9250 -0.3574 0.4560
C27 C -0.9974(6) -0.3131(3) 0.5559(2)
H25 H -1.0821 -0.3028 0.5374
H26 H -0.9781 -0.2620 0.5928
H27 H -0.9913 -0.3796 0.5784
loop_
_geom_bond_atom_site_label_1
_geom_bond_atom_site_label_2
_geom_bond_site_symmetry_1
_geom_bond_site_symmetry_2
Cl1 C1 1_555 1_555
O1 C13 1_555 1_555
O2 C22 1_555 1_555
O3 C22 1_555 1_555
O4 C25 1_555 1_555
O5 C25 1_555 1_555
N1 N2 1_555 1_555
N2 C13 1_555 1_555
C1 C2 1_555 1_555
C2 H1 1_555 1_555
C3 C2 1_555 1_555
H2 C3 1_555 1_555
C4 C3 1_555 1_555
C5 C4 1_555 1_555
H3 C5 1_555 1_555
C6 C1 1_555 1_555
H4 C6 1_555 1_555
C7 C4 1_555 1_555
H5 C7 1_555 1_555
C8 C7 1_555 1_555
H6 C8 1_555 1_555
H7 C8 1_555 1_555
C9 C8 1_555 1_555
H8 C9 1_555 1_555
C10 C9 1_555 1_555
C11 C10 1_555 1_555
H9 C11 1_555 1_555
C12 C7 1_555 1_555
C13 C12 1_555 1_555
C14 N1 1_555 1_555
C15 C14 1_555 1_555
H10 C15 1_555 1_555
H11 C15 1_555 1_555
H12 C15 1_555 1_555
C16 N2 1_555 1_555
C17 C16 1_555 1_555
H13 C17 1_555 1_555
C18 C17 1_555 1_555
H14 C18 1_555 1_555
C19 C18 1_555 1_555
H15 C19 1_555 1_555
C20 C19 1_555 1_555
H16 C20 1_555 1_555
C21 C16 1_555 1_555
H17 C21 1_555 1_555
C22 C10 1_555 1_555
C23 O3 1_555 1_555
H18 C23 1_555 1_555
H19 C23 1_555 1_555
C24 C23 1_555 1_555
H20 C24 1_555 1_555
H21 C24 1_555 1_555
H22 C24 1_555 1_555
C25 C11 1_555 1_555
C26 O5 1_555 1_555
H23 C26 1_555 1_555
H24 C26 1_555 1_555
C27 C26 1_555 1_555
H25 C27 1_555 1_555
H26 C27 1_555 1_555
H27 C27 1_555 1_555
C5 C6 1_555 1_555
C11 C12 1_555 1_555
C12 C14 1_555 1_555
C20 C21 1_555 1_555

#END
