
#######################################################################
#
#                 Cambridge Crystallographic Data Centre
#                                CCDC 
#
#######################################################################
#
# If this CIF has been generated from an entry in the Cambridge 
# Structural Database, then it will include bibliographic, chemical, 
# crystal, experimental, refinement or atomic coordinate data resulting 
# from the CCDC's data processing and validation procedures.
#
#######################################################################

data_DUPFAV
_chemical_name_common            '1-mercapto-propionateoxytocin heptahydrate'
_chemical_formula_moiety         'C43 H65 N11 O12 S2,7(H2 O1)'
_chemical_name_systematic        'Deamino-oxytocin heptahydrate'
_chemical_properties_biological  'neurohypophyseal hormonal agent'
_symmetry_cell_setting           monoclinic
_symmetry_space_group_name_H-M   'P 21'
_symmetry_Int_Tables_number      4
_space_group_name_Hall           'P 2yb'
loop_
_symmetry_equiv_pos_site_id
_symmetry_equiv_pos_as_xyz
1 x,y,z
2 -x,1/2+y,-z
_cell_length_a                   27.27
_cell_length_b                   9.04
_cell_length_c                   23.04
_cell_angle_alpha                90
_cell_angle_beta                 102.24
_cell_angle_gamma                90
_cell_volume                     5550.73
_cell_formula_units_Z            4
loop_
_atom_site_label
_atom_site_type_symbol
_atom_site_fract_x
_atom_site_fract_y
_atom_site_fract_z
S1 S 0.8781(1) 0.6187(6) 0.3759(2)
C1 C 0.8264(6) 0.5367(23) 0.4092(8)
H1 H 0.8208(5) 0.4446(23) 0.4371(8)
C2 C 0.7835(4) 0.6319(15) 0.4065(5)
H2 H 0.7835(4) 0.6682(15) 0.4512(5)
H3 H 0.7880(4) 0.7264(15) 0.3794(5)
C3 C 0.7330(4) 0.5628(15) 0.3812(5)
O1 O 0.7132(3) 0.4635(11) 0.4023(4)
N1 N 0.7092(3) 0.6411(11) 0.3305(4)
H4 H 0.7304(3) 0.7242(11) 0.3127(4)
C4 C 0.6573(3) 0.6162(13) 0.3010(4)
H5 H 0.6433(3) 0.5184(13) 0.3190(4)
C5 C 0.6237(4) 0.7472(13) 0.3095(4)
H6 H 0.5851(4) 0.7153(13) 0.2929(4)
H7 H 0.6329(4) 0.8394(13) 0.2840(4)
C6 C 0.6291(4) 0.7959(13) 0.3732(4)
C7 C 0.6648(4) 0.8998(14) 0.3987(5)
H8 H 0.6902(4) 0.9432(14) 0.3727(5)
C8 C 0.5973(4) 0.7416(13) 0.4080(5)
H9 H 0.5709(4) 0.6567(13) 0.3905(5)
C9 C 0.6693(4) 0.9485(15) 0.4567(5)
H10 H 0.6985(4) 1.0260(15) 0.4753(5)
C10 C 0.6008(4) 0.7932(15) 0.4654(5)
H11 H 0.5748(4) 0.7513(15) 0.4908(5)
C11 C 0.6364(5) 0.8981(14) 0.4913(5)
O2 O 0.6373(3) 0.9452(11) 0.5464(3)
C12 C 0.6570(4) 0.6036(13) 0.2353(4)
O3 O 0.6922(3) 0.6329(12) 0.2128(3)
N2 N 0.6117(3) 0.5474(10) 0.2021(3)
H12 H 0.5827(3) 0.5115(10) 0.2244(3)
C13 C 0.6035(4) 0.5377(12) 0.1375(5)
H13 H 0.6321(4) 0.4619(12) 0.1250(5)
C14 C 0.5503(4) 0.4759(12) 0.1125(4)
H14 H 0.5243(4) 0.5387(12) 0.1328(4)
C15 C 0.5455(6) 0.3186(16) 0.1300(6)
H15 H 0.5645(5) 0.3041(16) 0.1758(6)
H16 H 0.5062(6) 0.2924(16) 0.1253(6)
C16 C 0.5343(6) 0.5026(24) 0.0442(5)
H17 H 0.5386(6) 0.6182(24) 0.0346(5)
H18 H 0.4955(6) 0.4708(24) 0.0290(5)
H19 H 0.5575(5) 0.4368(24) 0.0217(5)
C17 C 0.5680(7) 0.2144(14) 0.0916(8)
H20 H 0.6074(7) 0.2394(14) 0.0953(8)
H21 H 0.5491(7) 0.2277(14) 0.0458(8)
C18 C 0.6125(4) 0.6859(13) 0.1117(5)
O4 O 0.5855(3) 0.7943(9) 0.1152(3)
N3 N 0.6503(3) 0.6858(11) 0.0798(4)
H22 H 0.6706(3) 0.5856(11) 0.0766(4)
C19 C 0.6633(4) 0.8229(13) 0.0498(4)
H23 H 0.6972(4) 0.7937(13) 0.0342(4)
C20 C 0.6235(4) 0.8636(12) -0.0042(4)
H24 H 0.6332(4) 0.9686(12) -0.0212(4)
H25 H 0.5881(4) 0.8735(12) 0.0093(4)
C21 C 0.6183(4) 0.7499(13) -0.0528(5)
H26 H 0.5913(4) 0.7906(13) -0.0907(5)
H27 H 0.6045(4) 0.6489(13) -0.0370(5)
C22 C 0.6653(4) 0.7155(13) -0.0725(6)
N4 N 0.6815(4) 0.5786(13) -0.0733(5)
O5 O 0.6939(3) 0.8229(11) -0.0841(4)
C23 C 0.6794(4) 0.9534(15) 0.0909(5)
O6 O 0.6800(23) 1.0815(11) 0.0752(4)
N5 N 0.6973(3) 0.9162(10) 0.1507(4)
H28 H 0.6946(3) 0.8034(10) 0.1650(4)
C24 C 0.7213(3) 1.0252(11) 0.1937(5)
H29 H 0.7401(3) 1.1077(11) 0.1724(5)
C25 C 0.6811(4) 1.0987(15) 0.2197(5)
H30 H 0.6590(4) 1.1682(15) 0.1859(5)
H31 H 0.6575(4) 1.0133(15) 0.2320(5)
C26 C 0.7004(4) 1.1945(16) 0.2747(5)
O7 O 0.7449(4) 1.2525(12) 0.2805(6)
N6 N 0.6739(3) 1.2200(12) 0.3160(4)
C27 C 0.7593(3) 0.9519(12) 0.2414(5)
O8 O 0.7527(3) 0.9138(11) 0.2897(4)
N7 N 0.8014(3) 0.9170(13) 0.2208(4)
H32 H 0.8043(3) 0.9482(13) 0.1764(4)
C28 C 0.8422(4) 0.8377(14) 0.2593(5)
H33 H 0.8408(4) 0.8514(14) 0.3055(5)
C29 C 0.8393(4) 0.6731(15) 0.2459(6)
H34 H 0.8031(4) 0.6324(15) 0.2507(6)
H35 H 0.8435(4) 0.6557(15) 0.2009(6)
S2 S 0.8887(1) 0.5697(5) 0.2968(2)
C30 C 0.8895(4) 0.8992(15) 0.2442(5)
O9 O 0.9089(3) 0.8536(14) 0.2060(5)
N8 N 0.9140(3) 1.0108(12) 0.2830(4)
C31 C 0.9584(4) 1.0824(14) 0.2687(5)
H36 H 0.9544(4) 1.1015(14) 0.2217(5)
C32 C 0.9634(5) 1.2233(17) 0.3037(7)
H37 H 0.9453(5) 1.3141(17) 0.2770(7)
H38 H 1.0023(5) 1.2503(17) 0.3211(7)
C33 C 0.9371(5) 1.1870(18) 0.3520(7)
H39 H 0.9626(5) 1.1306(18) 0.3873(7)
H40 H 0.9242(5) 1.2878(18) 0.3692(7)
C34 C 0.8931(5) 1.0889(16) 0.3285(5)
H41 H 0.8593(5) 1.1512(16) 0.3095(5)
H42 H 0.8850(5) 1.0146(16) 0.3620(5)
C35 C 1.0047(4) 0.9867(13) 0.2855(5)
O10 O 1.0439(3) 1.0206(11) 0.2718(4)
N9 N 1.0015(3) 0.8569(11) 0.3177(4)
H43 H 0.9667(3) 0.8290(11) 0.3303(4)
C36 C 1.0439(4) 0.7607(13) 0.3343(4)
H44 H 1.0759(4) 0.8314(13) 0.3501(4)
C37 C 1.0353(4) 0.6566(14) 0.3827(5)
H45 H 1.0030(4) 0.5907(14) 0.3653(5)
H46 H 1.0683(4) 0.5853(14) 0.3940(5)
C38 C 1.0282(5) 0.7321(18) 0.4394(5)
H47 H 0.9977(5) 0.8102(18) 0.4281(5)
C39 C 1.0145(5) 0.6175(19) 0.4812(6)
H48 H 1.0093(6) 0.6711(19) 0.5213(6)
H49 H 1.0445(6) 0.5373(19) 0.4921(6)
H50 H 0.9804(5) 0.5624(19) 0.4600(6)
C40 C 1.0742(5) 0.8187(19) 0.4686(5)
C41 C 1.0560(4) 0.6741(14) 0.2836(4)
O11 O 1.0985(3) 0.6419(11) 0.2802(3)
N10 N 1.0153(4) 0.6184(14) 0.2425(4)
H51 H 0.9772(4) 0.6424(14) 0.2460(4)
C42 C 1.0255(5) 0.5267(20) 0.1950(6)
H52 H 1.0408(5) 0.5923(20) 0.1639(6)
H53 H 1.0515(5) 0.4395(20) 0.2125(6)
C43 C 0.9753(5) 0.4633(15) 0.1657(5)
O12 O 0.9345(3) 0.4625(11) 0.1787(3)
N11 N 0.9794(3) 0.3649(13) 0.1194(5)
H54 H 0.7152(21) 0.551(10) -0.0847(50)
H55 H 0.6612(30) 0.4840(51) -0.0686(47)
H56 H 0.6913(33) 1.299(13) 0.3458(48)
H57 H 0.6371(12) 1.2015(85) 0.3217(32)
H58 H 0.9455(13) 0.3311(97) 0.0927(30)
H59 H 1.0093(15) 0.3221(92) 0.1036(32)
H60 H 1.0932(39) 0.850(16) 0.4360(40)
H61 H 1.0842(59) 0.832(24) 0.5146(23)
H62 H 1.1082(24) 0.764(11) 0.4832(50)
S3 S 0.6655(1) 0.4364(5) 0.6463(2)
C44 C 0.6705(4) 0.5581(14) 0.5811(5)
H63 H 0.6565(4) 0.5562(14) 0.5337(5)
C45 C 0.7132(4) 0.6733(15) 0.5992(6)
H64 H 0.7034(4) 0.7453(15) 0.6324(6)
H65 H 0.7155(4) 0.7371(15) 0.5603(6)
C46 C 0.7640(4) 0.6082(14) 0.6241(5)
O13 O 0.7823(3) 0.4969(11) 0.6082(4)
N12 N 0.7883(3) 0.6910(11) 0.6733(4)
H66 H 0.7795(3) 0.7843(11) 0.6985(4)
C47 C 0.8415(3) 0.6622(11) 0.7019(4)
H67 H 0.8565(3) 0.5657(11) 0.6834(4)
C48 C 0.8733(4) 0.7939(14) 0.6921(4)
H68 H 0.9123(41) 0.7681(14) 0.7100(4)
H69 H 0.8624(4) 0.8881(14) 0.7152(4)
C49 C 0.8675(4) 0.8330(13) 0.6279(4)
C50 C 0.8363(4) 0.9449(13) 0.6014(4)
H70 H 0.8165(4) 1.0095(13) 0.6285(4)
C51 C 0.8954(4) 0.7570(13) 0.5954(4)
H71 H 0.9214(4) 0.6699(13) 0.6154(4)
C52 C 0.8289(4) 0.9785(14) 0.5410(4)
H72 H 0.8009(4) 1.0571(14) 0.5200(4)
C53 C 0.8922(5) 0.7954(15) 0.5362(5)
H73 H 0.9150(5) 0.7380(15) 0.5104(5)
C54 C 0.8595(4) 0.9049(14) 0.5091(5)
O14 O 0.8554(3) 0.9402(12) 0.4503(3)
C55 C 0.8429(4) 0.6355(12) 0.7673(4)
O15 O 0.8079(2) 0.6711(9) 0.7912(3)
N13 N 0.8860(3) 0.5725(10) 0.7993(3)
H74 H 0.9168(3) 0.5474(10) 0.7782(3)
C56 C 0.8895(3) 0.5386(12) 0.8618(4)
H75 H 0.8570(3) 0.4811(12) 0.8702(4)
C57 C 0.9331(4) 0.4304(14) 0.8812(4)
H76 H 0.9304(4) 0.3396(14) 0.8503(4)
C58 C 0.9297(5) 0.3741(18) 0.9434(7)
H77 H 0.8910(5) 0.3497(18) 0.9437(7)
H78 H 0.9433(5) 0.4598(18) 0.9758(7)
C59 C 0.9828(5) 0.5025(17) 0.8819(7)
H79 H 1.0125(5) 0.4231(17) 0.8958(7)
H80 H 0.9879(5) 0.5944(17) 0.9125(7)
H81 H 0.9837(5) 0.5419(17) 0.8379(7)
C60 C 0.9613(5) 0.2338(21) 0.9594(9)
H82 H 0.9582(5) 0.1969(21) 1.0030(9)
H83 H 1.0001(5) 0.2575(21) 0.9593(9)
H84 H 0.9473(5) 0.1482(21) 0.9273(9)
C61 C 0.8893(4) 0.6794(13) 0.8974(4)
O16 O 0.9190(3) 0.7832(10) 0.8979(4)
N14 N 0.8515(3) 0.6844(10) 0.9308(3)
H85 H 0.8295(3) 0.5856(10) 0.9321(3)
C62 C 0.8399(4) 0.8151(12) 0.9642(5)
H86 H 0.8056(4) 0.7900(12) 0.9786(5)
C63 C 0.8802(4) 0.8408(14) 1.0204(4)
H87 H 0.8715(4) 0.9414(14) 1.0414(4)
H88 H 0.9161(4) 0.8523(14) 1.0081(4)
C64 C 0.8834(4) 0.7140(16) 1.0645(5)
H89 H 0.9083(4) 0.7453(16) 1.1055(5)
H90 H 0.8981(4) 0.6177(16) 1.0463(5)
C65 C 0.8325(4) 0.6753(15) 1.0772(5)
N15 N 0.8201(5) 0.5336(14) 1.0773(9)
O17 O 0.8052(4) 0.7874(13) 1.0886(4)
C66 C 0.8275(4) 0.9527(14) 0.9259(5)
O18 O 0.8295(3) 1.0774(11) 0.9455(4)
N16 N 0.8057(3) 0.9224(9) 0.8653(4)
H91 H 0.8078(3) 0.8124(9) 0.8477(4)
C67 C 0.7803(3) 1.0384(13) 0.8276(5)
H92 H 0.7606(3) 1.1117(13) 0.8514(5)
C68 C 0.8193(4) 1.1342(12) 0.8042(5)
H93 H 0.8395(4) 1.0660(12) 0.7787(5)
H94 H 0.8454(4) 1.1824(12) 0.8412(5)
C69 C 0.7915(4) 1.2577(12) 0.7645(5)
O19 O 0.7547(3) 1.3284(10) 0.7825(4)
N17 N 0.8070(3) 1.2955(11) 0.7157(4)
C70 C 0.7453(4) 0.9613(12) 0.7766(5)
O20 O 0.7479(2) 0.9726(9) 0.7234(3)
N18 N 0.7057(3) 0.8831(9) 0.7935(4)
H95 H 0.7050(3) 0.8771(9) 0.8401(4)
C71 C 0.66852(3) 0.8091(11) 0.7490(4)
H96 H 0.6726(3) 0.8344(11) 0.7045(4)
C72 C 0.6723(4) 0.6408(11) 0.7572(6)
H97 H 0.7093(4) 0.6056(11) 0.7533(6)
H98 H 0.6657(4) 0.6119(11) 0.8005(6)
S4 S 0.6253(1) 0.5483(4) 0.7003(2)
C73 C 0.6192(4) 0.8608(14) 0.7600(5)
O21 O 0.5985(3) 0.8096(11) 0.7978(4)
N19 N 0.5957(3) 0.9777(10) 0.7245(4)
C74 C 0.5503(3) 1.0434(11) 0.7384(5)
H99 H 0.5533(3) 1.0602(11) 0.7854(5)
C75 C 0.5451(4) 1.1882(13) 0.7027(6)
H100 H 0.5645(4) 1.2275(13) 0.7290(6)
H101 H 0.5051(4) 1.2173(13) 0.6873(6)
C76 C 0.5695(41) 1.1510(16) 0.6509(6)
H102 H 0.5808(4) 1.2503(16) 0.6312(6)
H103 H 0.5442(4) 1.0882(16) 0.6174(6)
C77 C 0.6146(4) 1.0596(13) 0.6793(5)
H104 H 0.6460(14) 1.1293(13) 0.6989(5)
H105 H 0.6257(4) 0.9855(13) 0.6475(5)
C78 C 0.5054(4) 0.9472(13) 0.7225(5)
O22 O 0.4653(3) 0.9801(10) 0.7367(4)
N20 N 0.5083(3) 0.8243(11) 0.6873(4)
H106 H 0.5434(3) 0.8011(11) 0.6734(4)
C79 C 0.4651(3) 0.7254(13) 0.6689(5)
H107 H 0.4318(4) 0.7934(13) 0.6589(5)
C80 C 0.4732(5) 0.6392(14) 0.6147(5)
H108 H 0.5094(5) 0.5853(14) 0.6260(5)
H109 H 0.4441(5) 0.5554(14) 0.6041(5)
C81 C 0.4713(6) 0.7344(18) 0.5596(5)
H110 H 0.4987(5) 0.8232(18) 0.5705(5)
C82 C 0.4852(7) 0.6355(23) 0.5119(6)
H111 H 0.4845(7) 0.6996(23) 0.4722(6)
H112 H 0.4583(7) 0.5466(23) 0.5020(6)
H113 H 0.5223(7) 0.5900(23) 0.5276(6)
C83 C 0.4213(7) 0.8125(24) 0.5380(9)
H114 H 0.4132(7) 0.8814(24) 0.5731(9)
H115 H 0.3921(7) 0.7306(24) 0.5258(9)
H116 H 0.4230(7) 0.8802(24) 0.4998(9)
C84 C 0.4562(4) 0.6222(13) 0.7165(5)
O23 O 0.4153(3) 0.5742(12) 0.7168(4)
N21 N 0.4963(3) 0.5688(12) 0.7574(4)
H117 H 0.5342(3) 0.6097(12) 0.7585(4)
C85 C 0.4879(4) 0.4574(19) 0.7987(6)
H118 H 0.4607(4) 0.4970(19) 0.8231(6)
H119 H 0.4739(4) 0.3577(19) 0.7752(6)
C86 C 0.5369(5) 0.4255(15) 0.8407(5)
O24 O 0.5782(3) 0.4502(11) 0.8304(4)
N22 N 0.5293(3) 0.3428(13) 0.8888(5)
H120 H 0.7850(32) 0.493(16) 1.0802(95)
H121 H 0.8429(44) 0.446(11) 1.0687(66)
H122 H 0.7923(31) 1.357(10) 0.6772(27)
H123 H 0.8366(40) 1.231(14) 0.7067(48)
H124 H 0.4943(14) 0.3292(96) 0.8972(35)
H125 H 0.5520(31) 0.249(11) 0.9013(65)
O25 O 0.7755(3) 0.4491(11) 0.9028(4)
O26 O 0.6597(3) 0.2666(12) 0.8097(4)
O27 O 0.6283(3) 0.2883(13) 0.9727(4)
O28 O 0.7493(3) 0.3178(14) 0.5105(4)
O29 O 0.7127(4) 0.1238(13) 0.5948(4)
O30 O 0.6804(4) 0.1161(14) 0.9115(5)
O31 O 0.7550(4) 0.2489(17) 0.9923(6)
O32 O 0.8773(4) 0.2520(14) 0.0527(5)
O33 O 0.8062(4) 0.2658(16) 0.1015(5)
O34 O 0.7889(4) 0.1506(13) 0.4066(4)
O35 O 0.7122(4) 0.4248(14) 0.0834(6)
O36 O 0.7669(5) 0.3902(17) 0.1950(6)
O37 O 0.8573(5) 0.2750(15) 0.1858(6)
loop_
_geom_bond_atom_site_label_1
_geom_bond_atom_site_label_2
_geom_bond_site_symmetry_1
_geom_bond_site_symmetry_2
S1 C1 1_555 1_555
C1 H1 1_555 1_555
C2 C1 1_555 1_555
H2 C2 1_555 1_555
H3 C2 1_555 1_555
C3 C2 1_555 1_555
O1 C3 1_555 1_555
N1 C3 1_555 1_555
H4 N1 1_555 1_555
C4 N1 1_555 1_555
H5 C4 1_555 1_555
C5 C4 1_555 1_555
H6 C5 1_555 1_555
H7 C5 1_555 1_555
C6 C5 1_555 1_555
C7 C6 1_555 1_555
H8 C7 1_555 1_555
C8 C6 1_555 1_555
H9 C8 1_555 1_555
C9 C7 1_555 1_555
H10 C9 1_555 1_555
C10 C8 1_555 1_555
H11 C10 1_555 1_555
C11 C9 1_555 1_555
O2 C11 1_555 1_555
C12 C4 1_555 1_555
O3 C12 1_555 1_555
N2 C12 1_555 1_555
H12 N2 1_555 1_555
C13 N2 1_555 1_555
H13 C13 1_555 1_555
C14 C13 1_555 1_555
H14 C14 1_555 1_555
C15 C14 1_555 1_555
H15 C15 1_555 1_555
H16 C15 1_555 1_555
C16 C14 1_555 1_555
H17 C16 1_555 1_555
H18 C16 1_555 1_555
H19 C16 1_555 1_555
C17 C15 1_555 1_555
H20 C17 1_555 1_555
H21 C17 1_555 1_555
C18 C13 1_555 1_555
O4 C18 1_555 1_555
N3 C18 1_555 1_555
H22 N3 1_555 1_555
C19 N3 1_555 1_555
H23 C19 1_555 1_555
C20 C19 1_555 1_555
H24 C20 1_555 1_555
H25 C20 1_555 1_555
C21 C20 1_555 1_555
H26 C21 1_555 1_555
H27 C21 1_555 1_555
C22 C21 1_555 1_555
N4 C22 1_555 1_555
O5 C22 1_555 1_555
C23 C19 1_555 1_555
O6 C23 1_555 1_555
N5 C23 1_555 1_555
H28 N5 1_555 1_555
C24 N5 1_555 1_555
H29 C24 1_555 1_555
C25 C24 1_555 1_555
H30 C25 1_555 1_555
H31 C25 1_555 1_555
C26 C25 1_555 1_555
O7 C26 1_555 1_555
N6 C26 1_555 1_555
C27 C24 1_555 1_555
O8 C27 1_555 1_555
N7 C27 1_555 1_555
H32 N7 1_555 1_555
C28 N7 1_555 1_555
H33 C28 1_555 1_555
C29 C28 1_555 1_555
H34 C29 1_555 1_555
H35 C29 1_555 1_555
S2 S1 1_555 1_555
C30 C28 1_555 1_555
O9 C30 1_555 1_555
N8 C30 1_555 1_555
C31 N8 1_555 1_555
H36 C31 1_555 1_555
C32 C31 1_555 1_555
H37 C32 1_555 1_555
H38 C32 1_555 1_555
C33 C32 1_555 1_555
H39 C33 1_555 1_555
H40 C33 1_555 1_555
C34 N8 1_555 1_555
H41 C34 1_555 1_555
H42 C34 1_555 1_555
C35 C31 1_555 1_555
O10 C35 1_555 1_555
N9 C35 1_555 1_555
H43 N9 1_555 1_555
C36 N9 1_555 1_555
H44 C36 1_555 1_555
C37 C36 1_555 1_555
H45 C37 1_555 1_555
H46 C37 1_555 1_555
C38 C37 1_555 1_555
H47 C38 1_555 1_555
C39 C38 1_555 1_555
H48 C39 1_555 1_555
H49 C39 1_555 1_555
H50 C39 1_555 1_555
C40 C38 1_555 1_555
C41 C36 1_555 1_555
O11 C41 1_555 1_555
N10 C41 1_555 1_555
H51 N10 1_555 1_555
C42 N10 1_555 1_555
H52 C42 1_555 1_555
H53 C42 1_555 1_555
C43 C42 1_555 1_555
O12 C43 1_555 1_555
N11 C43 1_555 1_555
H54 N4 1_555 1_555
H55 N4 1_555 1_555
H56 N6 1_555 1_555
H57 N6 1_555 1_555
H58 N11 1_555 1_555
H59 N11 1_555 1_555
H60 C40 1_555 1_555
H61 C40 1_555 1_555
H62 C40 1_555 1_555
S3 C44 1_555 1_555
C44 H63 1_555 1_555
C45 C44 1_555 1_555
H64 C45 1_555 1_555
H65 C45 1_555 1_555
C46 C45 1_555 1_555
O13 C46 1_555 1_555
N12 C46 1_555 1_555
H66 N12 1_555 1_555
C47 N12 1_555 1_555
H67 C47 1_555 1_555
C48 C47 1_555 1_555
H68 C48 1_555 1_555
H69 C48 1_555 1_555
C49 C48 1_555 1_555
C50 C49 1_555 1_555
H70 C50 1_555 1_555
C51 C49 1_555 1_555
H71 C51 1_555 1_555
C52 C50 1_555 1_555
H72 C52 1_555 1_555
C53 C51 1_555 1_555
H73 C53 1_555 1_555
C54 C52 1_555 1_555
O14 C54 1_555 1_555
C55 C47 1_555 1_555
O15 C55 1_555 1_555
N13 C55 1_555 1_555
H74 N13 1_555 1_555
C56 N13 1_555 1_555
H75 C56 1_555 1_555
C57 C56 1_555 1_555
H76 C57 1_555 1_555
C58 C57 1_555 1_555
H77 C58 1_555 1_555
H78 C58 1_555 1_555
C59 C57 1_555 1_555
H79 C59 1_555 1_555
H80 C59 1_555 1_555
H81 C59 1_555 1_555
C60 C58 1_555 1_555
H82 C60 1_555 1_555
H83 C60 1_555 1_555
H84 C60 1_555 1_555
C61 C56 1_555 1_555
O16 C61 1_555 1_555
N14 C61 1_555 1_555
H85 N14 1_555 1_555
C62 N14 1_555 1_555
H86 C62 1_555 1_555
C63 C62 1_555 1_555
H87 C63 1_555 1_555
H88 C63 1_555 1_555
C64 C63 1_555 1_555
H89 C64 1_555 1_555
H90 C64 1_555 1_555
C65 C64 1_555 1_555
N15 C65 1_555 1_555
O17 C65 1_555 1_555
C66 C62 1_555 1_555
O18 C66 1_555 1_555
N16 C66 1_555 1_555
H91 N16 1_555 1_555
C67 N16 1_555 1_555
H92 C67 1_555 1_555
C68 C67 1_555 1_555
H93 C68 1_555 1_555
H94 C68 1_555 1_555
C69 C68 1_555 1_555
O19 C69 1_555 1_555
N17 C69 1_555 1_555
C70 C67 1_555 1_555
O20 C70 1_555 1_555
N18 C70 1_555 1_555
H95 N18 1_555 1_555
C71 N18 1_555 1_555
H96 C71 1_555 1_555
C72 C71 1_555 1_555
H97 C72 1_555 1_555
H98 C72 1_555 1_555
S4 S3 1_555 1_555
C73 C71 1_555 1_555
O21 C73 1_555 1_555
N19 C73 1_555 1_555
C74 N19 1_555 1_555
H99 C74 1_555 1_555
C75 C74 1_555 1_555
H100 C75 1_555 1_555
H101 C75 1_555 1_555
C76 C75 1_555 1_555
H102 C76 1_555 1_555
H103 C76 1_555 1_555
C77 N19 1_555 1_555
H104 C77 1_555 1_555
H105 C77 1_555 1_555
C78 C74 1_555 1_555
O22 C78 1_555 1_555
N20 C78 1_555 1_555
H106 N20 1_555 1_555
C79 N20 1_555 1_555
H107 C79 1_555 1_555
C80 C79 1_555 1_555
H108 C80 1_555 1_555
H109 C80 1_555 1_555
C81 C80 1_555 1_555
H110 C81 1_555 1_555
C82 C81 1_555 1_555
H111 C82 1_555 1_555
H112 C82 1_555 1_555
H113 C82 1_555 1_555
C83 C81 1_555 1_555
H114 C83 1_555 1_555
H115 C83 1_555 1_555
H116 C83 1_555 1_555
C84 C79 1_555 1_555
O23 C84 1_555 1_555
N21 C84 1_555 1_555
H117 N21 1_555 1_555
C85 N21 1_555 1_555
H118 C85 1_555 1_555
H119 C85 1_555 1_555
C86 C85 1_555 1_555
O24 C86 1_555 1_555
N22 C86 1_555 1_555
H120 N15 1_555 1_555
H121 N15 1_555 1_555
H122 N17 1_555 1_555
H123 N17 1_555 1_555
H124 N22 1_555 1_555
H125 N22 1_555 1_555
C10 C11 1_555 1_555
C29 S2 1_555 1_555
C33 C34 1_555 1_555
C53 C54 1_555 1_555
C72 S4 1_555 1_555
C76 C77 1_555 1_555

#END
