
#######################################################################
#
#                 Cambridge Crystallographic Data Centre
#                                CCDC 
#
#######################################################################
#
# If this CIF has been generated from an entry in the Cambridge 
# Structural Database, then it will include bibliographic, chemical, 
# crystal, experimental, refinement or atomic coordinate data resulting 
# from the CCDC's data processing and validation procedures.
#
#######################################################################

data_DUPGEB
_chemical_formula_moiety         'C7 H7 N2 1+,Cl1 O4 1-'
_chemical_name_systematic        '2-Cyanoanilinium perchlorate'
_symmetry_cell_setting           monoclinic
_symmetry_space_group_name_H-M   'P 21/c'
_symmetry_Int_Tables_number      14
_space_group_name_Hall           '-P 2ybc'
loop_
_symmetry_equiv_pos_site_id
_symmetry_equiv_pos_as_xyz
1 x,y,z
2 -x,1/2+y,1/2-z
3 -x,-y,-z
4 x,1/2-y,1/2+z
_cell_length_a                   11.089(2)
_cell_length_b                   7.4561(15)
_cell_length_c                   13.872(5)
_cell_angle_alpha                90
_cell_angle_beta                 128.454(18)
_cell_angle_gamma                90
_cell_volume                     898.183
_exptl_crystal_colour            colorless
_exptl_crystal_description       needle
_cell_formula_units_Z            4
loop_
_atom_site_label
_atom_site_type_symbol
_atom_site_fract_x
_atom_site_fract_y
_atom_site_fract_z
N1 N 0.10356(18) 0.1622(2) 0.40630(16)
H1 H 0.0666 0.0523 0.3784
H2 H 0.0743 0.2332 0.3435
H3 H 0.0675 0.2053 0.4438
N2 N 0.2247(3) 0.4407(3) 0.2725(2)
C1 C 0.2722(2) 0.1553(3) 0.49390(19)
C2 C 0.2853(3) 0.3504(3) 0.3573(2)
C3 C 0.5007(3) 0.0559(4) 0.6835(2)
H4 H 0.5493 -0.0064 0.7572
C4 C 0.3588(2) 0.2429(3) 0.4665(2)
C5 C 0.3415(3) 0.0628(3) 0.6013(2)
H5 H 0.2827 0.0054 0.6189
C6 C 0.5883(3) 0.1403(4) 0.6574(3)
H6 H 0.6952 0.1343 0.7133
C7 C 0.5183(3) 0.2326(4) 0.5496(3)
H7 H 0.5775 0.2886 0.5320
Cl1 Cl 0.91401(6) 0.33466(7) 0.57188(4)
O1 O 0.8898(2) 0.2197(2) 0.64175(15)
O2 O 0.7769(2) 0.4305(3) 0.48297(16)
O3 O 1.0336(2) 0.4577(2) 0.65476(18)
O4 O 0.9559(2) 0.2236(3) 0.51274(17)
loop_
_geom_bond_atom_site_label_1
_geom_bond_atom_site_label_2
_geom_bond_site_symmetry_1
_geom_bond_site_symmetry_2
N1 H1 1_555 1_555
H2 N1 1_555 1_555
H3 N1 1_555 1_555
N2 C2 1_555 1_555
C1 N1 1_555 1_555
C2 C4 1_555 1_555
C3 H4 1_555 1_555
C4 C1 1_555 1_555
C5 C1 1_555 1_555
H5 C5 1_555 1_555
C6 C3 1_555 1_555
H6 C6 1_555 1_555
C7 C4 1_555 1_555
H7 C7 1_555 1_555
Cl1 O1 1_555 1_555
O2 Cl1 1_555 1_555
O3 Cl1 1_555 1_555
O4 Cl1 1_555 1_555
C3 C5 1_555 1_555
C6 C7 1_555 1_555

#END
