
#######################################################################
#
#                 Cambridge Crystallographic Data Centre
#                                CCDC 
#
#######################################################################
#
# If this CIF has been generated from an entry in the Cambridge 
# Structural Database, then it will include bibliographic, chemical, 
# crystal, experimental, refinement or atomic coordinate data resulting 
# from the CCDC's data processing and validation procedures.
#
#######################################################################

data_DUPGIF
_chemical_name_common            
'1-(3,4-Dichlorobenzyl)-3-methylquinolin-1-ium tetracyanoquinodimethane'
_chemical_formula_moiety         'C17 H14 Cl2 N1 1+,C12 H4 N4 1-'
_chemical_name_systematic        
'1-(3,4-Dichlorobenzyl)-3-methylquinolin-1-ium 7,7,8,8-tetracyanoquinodimethanide'
_symmetry_cell_setting           monoclinic
_symmetry_space_group_name_H-M   'P 21/n'
_symmetry_Int_Tables_number      14
_space_group_name_Hall           '-P 2yn'
loop_
_symmetry_equiv_pos_site_id
_symmetry_equiv_pos_as_xyz
1 x,y,z
2 1/2-x,1/2+y,1/2-z
3 -x,-y,-z
4 1/2+x,1/2-y,1/2+z
_cell_length_a                   7.0795(14)
_cell_length_b                   18.704(4)
_cell_length_c                   18.608(4)
_cell_angle_alpha                90
_cell_angle_beta                 95.286(2)
_cell_angle_gamma                90
_cell_volume                     2453.5
_exptl_crystal_colour            black
_exptl_crystal_description       block
_cell_formula_units_Z            4
_exptl_crystal_recrystallization_method 'diethyl ether/acetonitrile'
loop_
_atom_site_label
_atom_site_type_symbol
_atom_site_fract_x
_atom_site_fract_y
_atom_site_fract_z
N1 N 0.29919(19) 0.47148(7) 0.39305(7)
Cl1 Cl -0.08219(9) 0.19603(3) 0.25897(3)
Cl2 Cl -0.40722(9) 0.30060(3) 0.19589(4)
C4 C 0.2600(2) 0.45003(9) 0.46162(9)
C5 C 0.1152(3) 0.31440(9) 0.29677(9)
H2 H 0.2095 0.2834 0.3158
C7 C 0.3127(2) 0.54043(9) 0.37601(9)
H3 H 0.3386 0.5524 0.3294
C8 C 0.2461(2) 0.50382(10) 0.51399(9)
C10 C 0.2898(2) 0.59540(9) 0.42521(10)
C14 C 0.1436(2) 0.38756(9) 0.30184(9)
C15 C 0.2366(2) 0.37768(9) 0.47945(10)
H6 H 0.2430 0.3423 0.4446
C16 C 0.3282(2) 0.41725(9) 0.33621(9)
H7 H 0.4048 0.3784 0.3575
H8 H 0.3972 0.4391 0.2992
C17 C -0.0524(3) 0.28720(9) 0.26362(10)
C18 C -0.1659(3) 0.40587(10) 0.24047(10)
H9 H -0.2606 0.4368 0.2216
C19 C 0.2612(2) 0.57597(10) 0.49425(10)
H10 H 0.2514 0.6113 0.5289
C22 C -0.1939(3) 0.33322(10) 0.23607(10)
C25 C 0.2156(3) 0.48249(12) 0.58499(10)
H12 H 0.2092 0.5169 0.6207
C26 C 0.0019(3) 0.43294(9) 0.27275(9)
H13 H 0.0202 0.4821 0.2751
C27 C 0.1956(3) 0.41215(12) 0.60159(10)
H14 H 0.1759 0.3988 0.6485
C28 C 0.2045(3) 0.35999(11) 0.54832(10)
H15 H 0.1882 0.3122 0.5601
C29 C 0.2965(3) 0.67200(10) 0.40124(12)
H16 H 0.2461 0.7022 0.4366
H17 H 0.2222 0.6775 0.3558
H18 H 0.4256 0.6853 0.3961
N2 N -0.0533(2) 0.39215(9) 0.75827(9)
N3 N 0.4950(3) 0.53355(8) 1.21413(9)
N4 N 0.3739(3) 0.70369(9) 1.04907(11)
N5 N 0.0918(3) 0.22596(9) 0.91236(10)
C1 C 0.1467(2) 0.41286(9) 0.93789(9)
C2 C 0.1399(2) 0.48648(9) 0.92029(9)
H1 H 0.0852 0.5004 0.8751
C3 C 0.2918(2) 0.51917(9) 1.03746(9)
C6 C 0.4384(3) 0.55209(9) 1.15743(10)
C9 C 0.2976(2) 0.44532(9) 1.05546(9)
H4 H 0.3498 0.4315 1.1010
C11 C 0.0043(3) 0.37834(9) 0.81630(10)
C12 C 0.3650(2) 0.57206(9) 1.08701(9)
C13 C 0.2107(2) 0.53737(9) 0.96747(9)
H5 H 0.2059 0.5851 0.9535
C20 C 0.3706(3) 0.64519(10) 1.06735(10)
C21 C 0.2293(3) 0.39456(9) 1.00816(9)
H11 H 0.2365 0.3467 1.0218
C23 C 0.0867(3) 0.28632(10) 0.90231(10)
C24 C 0.0775(3) 0.36059(9) 0.88739(9)
loop_
_geom_bond_atom_site_label_1
_geom_bond_atom_site_label_2
_geom_bond_site_symmetry_1
_geom_bond_site_symmetry_2
N1 C4 1_555 1_555
N2 C11 1_555 1_555
N3 C6 1_555 1_555
N4 C20 1_555 1_555
N5 C23 1_555 1_555
Cl1 C17 1_555 1_555
Cl2 C22 1_555 1_555
C1 C2 1_555 1_555
C2 H1 1_555 1_555
C3 C9 1_555 1_555
C4 C8 1_555 1_555
C5 H2 1_555 1_555
C6 C12 1_555 1_555
C7 N1 1_555 1_555
H3 C7 1_555 1_555
C8 C19 1_555 1_555
C9 H4 1_555 1_555
C10 C7 1_555 1_555
C11 C24 1_555 1_555
C12 C3 1_555 1_555
C13 C2 1_555 1_555
H5 C13 1_555 1_555
C14 C5 1_555 1_555
C15 C4 1_555 1_555
H6 C15 1_555 1_555
C16 N1 1_555 1_555
H7 C16 1_555 1_555
H8 C16 1_555 1_555
C17 C5 1_555 1_555
C18 H9 1_555 1_555
C19 C10 1_555 1_555
H10 C19 1_555 1_555
C20 C12 1_555 1_555
C21 C1 1_555 1_555
H11 C21 1_555 1_555
C22 C17 1_555 1_555
C23 C24 1_555 1_555
C24 C1 1_555 1_555
C25 C8 1_555 1_555
H12 C25 1_555 1_555
C26 C14 1_555 1_555
H13 C26 1_555 1_555
C27 C25 1_555 1_555
H14 C27 1_555 1_555
C28 C15 1_555 1_555
H15 C28 1_555 1_555
C29 C10 1_555 1_555
H16 C29 1_555 1_555
H17 C29 1_555 1_555
H18 C29 1_555 1_555
C3 C13 1_555 1_555
C9 C21 1_555 1_555
C14 C16 1_555 1_555
C18 C22 1_555 1_555
C18 C26 1_555 1_555
C27 C28 1_555 1_555

#END
