
#######################################################################
#
#                 Cambridge Crystallographic Data Centre
#                                CCDC 
#
#######################################################################
#
# If this CIF has been generated from an entry in the Cambridge 
# Structural Database, then it will include bibliographic, chemical, 
# crystal, experimental, refinement or atomic coordinate data resulting 
# from the CCDC's data processing and validation procedures.
#
#######################################################################

data_DUPHON
_chemical_formula_moiety         'C16 H24 O6'
_chemical_name_systematic        
5,13-dihydroxy-8,16-dimethyl-1,9-dioxacyclohexadeca-3,11-diene-2,10-dione
_symmetry_cell_setting           orthorhombic
_symmetry_space_group_name_H-M   'P 21 21 21'
_symmetry_Int_Tables_number      19
_space_group_name_Hall           'P 2ac 2ab'
loop_
_symmetry_equiv_pos_site_id
_symmetry_equiv_pos_as_xyz
1 x,y,z
2 1/2-x,-y,1/2+z
3 1/2+x,1/2-y,-z
4 -x,1/2+y,1/2-z
_cell_length_a                   9.9129(4)
_cell_length_b                   10.5346(4)
_cell_length_c                   16.4552(9)
_cell_angle_alpha                90
_cell_angle_beta                 90
_cell_angle_gamma                90
_cell_volume                     1718.39
_exptl_crystal_colour            colorless
_exptl_crystal_description       block
_cell_formula_units_Z            4
loop_
_atom_site_label
_atom_site_type_symbol
_atom_site_fract_x
_atom_site_fract_y
_atom_site_fract_z
O1 O 0.0596(3) 0.5083(3) 0.74918(18)
O2 O 0.0775(5) 0.6367(4) 0.8552(2)
O3 O 0.4831(3) 0.3849(3) 0.88003(17)
H1 H 0.5560 0.3525 0.8913
O4 O 0.4339(3) 0.3843(2) 0.57458(17)
O5 O 0.6134(3) 0.4854(3) 0.5243(2)
O6 O 0.2703(3) 0.8209(2) 0.54720(19)
H2 H 0.2245 0.8787 0.5284
C1 C -0.1746(4) 0.4902(5) 0.7176(3)
H3 H -0.1517 0.4124 0.6905
H4 H -0.2492 0.5295 0.6903
H5 H -0.1989 0.4724 0.7729
C2 C -0.0547(4) 0.5786(4) 0.7161(3)
H6 H -0.0729 0.6536 0.7495
C3 C 0.1172(5) 0.5488(4) 0.8173(3)
C4 C 0.2407(4) 0.4776(4) 0.8382(2)
H7 H 0.2869 0.5024 0.8847
C5 C 0.2910(4) 0.3825(4) 0.7968(2)
H8 H 0.2415 0.3533 0.7526
C6 C 0.4222(4) 0.3167(4) 0.8151(2)
H9 H 0.4033 0.2298 0.8331
C7 C 0.5122(4) 0.3117(4) 0.7403(2)
H10 H 0.6016 0.2850 0.7570
H11 H 0.5201 0.3969 0.7184
C8 C 0.4633(4) 0.2230(3) 0.6726(2)
H12 H 0.4975 0.1382 0.6827
H13 H 0.3656 0.2192 0.6737
C9 C 0.5086(5) 0.2658(3) 0.5891(2)
H14 H 0.6060 0.2818 0.5887
C10 C 0.4962(4) 0.4834(4) 0.5439(2)
C11 C 0.4070(4) 0.5953(3) 0.5378(2)
H15 H 0.4438 0.6698 0.5171
C12 C 0.2797(4) 0.5973(3) 0.5594(2)
H16 H 0.2431 0.5220 0.5791
C13 C 0.1889(4) 0.7093(4) 0.5554(2)
H17 H 0.1315 0.7014 0.5071
C14 C 0.0989(4) 0.7178(4) 0.6302(2)
H18 H 0.0585 0.8016 0.6323
H19 H 0.1541 0.7077 0.6784
C15 C -0.0132(4) 0.6184(4) 0.6316(2)
H20 H -0.0914 0.6521 0.6035
H21 H 0.0170 0.5440 0.6019
C16 C 0.4710(6) 0.1746(4) 0.5224(3)
H22 H 0.3749 0.1637 0.5215
H23 H 0.5136 0.0942 0.5320
H24 H 0.5006 0.2079 0.4710
loop_
_geom_bond_atom_site_label_1
_geom_bond_atom_site_label_2
_geom_bond_site_symmetry_1
_geom_bond_site_symmetry_2
O1 C2 1_555 1_555
O2 C3 1_555 1_555
O3 H1 1_555 1_555
O4 C9 1_555 1_555
O5 C10 1_555 1_555
O6 H2 1_555 1_555
C1 H3 1_555 1_555
H4 C1 1_555 1_555
H5 C1 1_555 1_555
C2 C1 1_555 1_555
H6 C2 1_555 1_555
C3 O1 1_555 1_555
C4 C3 1_555 1_555
H7 C4 1_555 1_555
C5 C4 1_555 1_555
H8 C5 1_555 1_555
C6 O3 1_555 1_555
H9 C6 1_555 1_555
C7 C6 1_555 1_555
H10 C7 1_555 1_555
H11 C7 1_555 1_555
C8 C7 1_555 1_555
H12 C8 1_555 1_555
H13 C8 1_555 1_555
C9 C8 1_555 1_555
H14 C9 1_555 1_555
C10 O4 1_555 1_555
C11 C10 1_555 1_555
H15 C11 1_555 1_555
C12 C11 1_555 1_555
H16 C12 1_555 1_555
C13 O6 1_555 1_555
H17 C13 1_555 1_555
C14 C13 1_555 1_555
H18 C14 1_555 1_555
H19 C14 1_555 1_555
C15 C2 1_555 1_555
H20 C15 1_555 1_555
H21 C15 1_555 1_555
C16 C9 1_555 1_555
H22 C16 1_555 1_555
H23 C16 1_555 1_555
H24 C16 1_555 1_555
C5 C6 1_555 1_555
C12 C13 1_555 1_555
C14 C15 1_555 1_555

#END
