
#######################################################################
#
#                 Cambridge Crystallographic Data Centre
#                                CCDC 
#
#######################################################################
#
# If this CIF has been generated from an entry in the Cambridge 
# Structural Database, then it will include bibliographic, chemical, 
# crystal, experimental, refinement or atomic coordinate data resulting 
# from the CCDC's data processing and validation procedures.
#
#######################################################################

data_DUPJED
_chemical_formula_moiety         'C15 H15 N1 O4'
_chemical_name_systematic        '1-(4-Methoxy)phenylethyl 4-nitrophenyl ether'
_symmetry_cell_setting           monoclinic
_symmetry_space_group_name_H-M   'P 21/n'
_symmetry_Int_Tables_number      14
_space_group_name_Hall           '-P 2yn'
loop_
_symmetry_equiv_pos_site_id
_symmetry_equiv_pos_as_xyz
1 x,y,z
2 1/2-x,1/2+y,1/2-z
3 -x,-y,-z
4 1/2+x,1/2-y,1/2+z
_cell_length_a                   6.548(1)
_cell_length_b                   7.898(1)
_cell_length_c                   26.947(5)
_cell_angle_alpha                90
_cell_angle_beta                 94.35(2)
_cell_angle_gamma                90
_cell_volume                     1389.58
_exptl_crystal_colour            colorless
_chemical_melting_point          '335-336 K'
_cell_formula_units_Z            4
loop_
_atom_site_label
_atom_site_type_symbol
_atom_site_fract_x
_atom_site_fract_y
_atom_site_fract_z
O1 O 0.8015(2) 0.3087(2) 0.1043(1)
C1 C 0.7496(3) 0.1372(3) 0.1176(1)
C2 C 0.9500(4) 0.0417(4) 0.1194(1)
C3 C 0.6509(3) 0.4169(3) 0.0869(1)
C4 C 0.7143(4) 0.5817(3) 0.0805(1)
C5 C 0.5826(4) 0.7010(3) 0.0604(1)
C6 C 0.3823(4) 0.6533(3) 0.0474(1)
C7 C 0.3143(3) 0.4928(3) 0.0534(1)
C8 C 0.4488(3) 0.3718(3) 0.0736(1)
N1 N 0.2417(4) 0.7828(3) 0.0253(1)
O2 O 0.0675(3) 0.7399(3) 0.0115(1)
O3 O 0.3033(2) 0.9279(3) 0.0221(1)
C9 C 0.6507(3) 0.1363(3) 0.1665(1)
C10 C 0.4862(3) 0.0349(3) 0.1739(1)
C11 C 0.3969(3) 0.0309(3) 0.2190(1)
C12 C 0.4750(3) 0.1329(3) 0.2575(1)
C13 C 0.6413(4) 0.2338(3) 0.2506(1)
C14 C 0.7284(4) 0.2361(3) 0.2060(1)
O4 O 0.3968(3) 0.1427(2) 0.3032(1)
C15 C 0.2150(4) 0.0506(4) 0.3104(1)
H1 H 0.6512 0.0849 0.0942
H2 H 0.9317 -0.0746 0.1284
H3 H 1.0467 0.0942 0.1432
H4 H 1.0004 0.0475 0.0869
H5 H 0.8531 0.6127 0.0905
H6 H 0.6283 0.8148 0.0553
H7 H 0.1746 0.4635 0.0438
H8 H 0.4035 0.2578 0.0784
H9 H 0.4310 -0.0354 0.1471
H10 H 0.2823 -0.0421 0.2234
H11 H 0.6974 0.3036 0.2775
H12 H 0.8445 0.3076 0.2019
H13 H 0.1806 0.0881 0.3426
H14 H 0.2386 -0.0694 0.3112
H15 H 0.1041 0.0760 0.2862
loop_
_geom_bond_atom_site_label_1
_geom_bond_atom_site_label_2
_geom_bond_site_symmetry_1
_geom_bond_site_symmetry_2
O1 C1 1_555 1_555
C1 C2 1_555 1_555
C2 H2 1_555 1_555
C3 O1 1_555 1_555
C4 C3 1_555 1_555
C5 C4 1_555 1_555
C6 C5 1_555 1_555
C7 C6 1_555 1_555
C8 C3 1_555 1_555
N1 C6 1_555 1_555
O2 N1 1_555 1_555
O3 N1 1_555 1_555
C9 C1 1_555 1_555
C10 C9 1_555 1_555
C11 C10 1_555 1_555
C12 C11 1_555 1_555
C13 C12 1_555 1_555
C14 C9 1_555 1_555
O4 C12 1_555 1_555
C15 O4 1_555 1_555
H1 C1 1_555 1_555
H3 C2 1_555 1_555
H4 C2 1_555 1_555
H5 C4 1_555 1_555
H6 C5 1_555 1_555
H7 C7 1_555 1_555
H8 C8 1_555 1_555
H9 C10 1_555 1_555
H10 C11 1_555 1_555
H11 C13 1_555 1_555
H12 C14 1_555 1_555
H13 C15 1_555 1_555
H14 C15 1_555 1_555
H15 C15 1_555 1_555
C7 C8 1_555 1_555
C13 C14 1_555 1_555

#END
