
#######################################################################
#
#                 Cambridge Crystallographic Data Centre
#                                CCDC 
#
#######################################################################
#
# If this CIF has been generated from an entry in the Cambridge 
# Structural Database, then it will include bibliographic, chemical, 
# crystal, experimental, refinement or atomic coordinate data resulting 
# from the CCDC's data processing and validation procedures.
#
#######################################################################

data_DUPJUU
_chemical_formula_moiety         'C11 H14 N4 O4'
_chemical_name_systematic        
(E)-1-(2,4-Dinitrophenyl)-2-pentylidenehydrazine
_symmetry_cell_setting           monoclinic
_symmetry_space_group_name_H-M   'C 2/c'
_symmetry_Int_Tables_number      15
_space_group_name_Hall           '-C 2yn'
loop_
_symmetry_equiv_pos_site_id
_symmetry_equiv_pos_as_xyz
1 x,y,z
2 -x,y,1/2-z
3 1/2+x,1/2+y,z
4 1/2-x,1/2+y,1/2-z
5 -x,-y,-z
6 x,-y,1/2+z
7 1/2-x,1/2-y,-z
8 1/2+x,1/2-y,1/2+z
_cell_length_a                   31.162(3)
_cell_length_b                   4.4930(4)
_cell_length_c                   18.7329(14)
_cell_angle_alpha                90
_cell_angle_beta                 106.159(4)
_cell_angle_gamma                90
_cell_volume                     2519.19
_exptl_crystal_colour            yellow
_exptl_crystal_description       needle
_chemical_melting_point          '371-372 K'
_cell_formula_units_Z            8
_exptl_crystal_recrystallization_method ethanol
loop_
_atom_site_label
_atom_site_type_symbol
_atom_site_fract_x
_atom_site_fract_y
_atom_site_fract_z
O1 O 0.04985(11) -0.5722(7) 0.23571(16)
O2 O 0.11770(10) -0.4264(8) 0.24360(16)
O3 O -0.03340(10) -0.1033(7) 0.37999(16)
O4 O -0.00644(9) 0.2652(7) 0.45386(15)
N1 N 0.07910(11) 0.3841(8) 0.49031(18)
H1 H 0.0551(14) 0.401(10) 0.505(2)
N2 N 0.11897(11) 0.5276(8) 0.52633(18)
N3 N 0.08254(13) -0.4163(9) 0.26201(19)
N4 N -0.00244(11) 0.0661(8) 0.41033(19)
C1 C 0.07833(13) 0.2003(10) 0.4333(2)
C2 C 0.04022(13) 0.0353(10) 0.3940(2)
C3 C 0.04158(14) -0.1701(9) 0.3391(2)
H2 H 0.0161 -0.2868 0.3159
C4 C 0.08074(14) -0.2003(10) 0.3192(2)
C5 C 0.11852(14) -0.0324(10) 0.3534(2)
H3 H 0.1450 -0.0528 0.3381
C6 C 0.11736(14) 0.1613(10) 0.4090(2)
H4 H 0.1434 0.2733 0.4321
C7 C 0.11826(14) 0.6629(11) 0.5855(2)
H5 H 0.0922(15) 0.660(11) 0.604(2)
C8 C 0.15800(14) 0.8254(11) 0.6307(2)
H6 H 0.1693 0.7207 0.6788
H7 H 0.1485 1.0266 0.6415
C9 C 0.19629(14) 0.8581(12) 0.5957(2)
H8 H 0.2041 0.6593 0.5802
H9 H 0.1863 0.9830 0.5505
C10 C 0.23763(15) 0.9966(13) 0.6476(3)
H10 H 0.2293 1.1896 0.6655
H11 H 0.2485 0.8654 0.6914
C11 C 0.27528(16) 1.0479(14) 0.6126(3)
H12 H 0.2826 0.8602 0.5921
H13 H 0.3016 1.1216 0.6503
H14 H 0.2660 1.1951 0.5727
loop_
_geom_bond_atom_site_label_1
_geom_bond_atom_site_label_2
_geom_bond_site_symmetry_1
_geom_bond_site_symmetry_2
O1 N3 1_555 1_555
O2 N3 1_555 1_555
O3 N4 1_555 1_555
O4 N4 1_555 1_555
N1 H1 1_555 1_555
N2 N1 1_555 1_555
N3 C4 1_555 1_555
N4 C2 1_555 1_555
C1 N1 1_555 1_555
C2 C1 1_555 1_555
C3 C2 1_555 1_555
H2 C3 1_555 1_555
C4 C3 1_555 1_555
C5 C4 1_555 1_555
H3 C5 1_555 1_555
C6 C1 1_555 1_555
H4 C6 1_555 1_555
C7 N2 1_555 1_555
H5 C7 1_555 1_555
C8 C7 1_555 1_555
H6 C8 1_555 1_555
H7 C8 1_555 1_555
C9 C8 1_555 1_555
H8 C9 1_555 1_555
H9 C9 1_555 1_555
C10 C9 1_555 1_555
H10 C10 1_555 1_555
H11 C10 1_555 1_555
C11 C10 1_555 1_555
H12 C11 1_555 1_555
H13 C11 1_555 1_555
H14 C11 1_555 1_555
C5 C6 1_555 1_555

#END
