
#######################################################################
#
#                 Cambridge Crystallographic Data Centre
#                                CCDC 
#
#######################################################################
#
# If this CIF has been generated from an entry in the Cambridge 
# Structural Database, then it will include bibliographic, chemical, 
# crystal, experimental, refinement or atomic coordinate data resulting 
# from the CCDC's data processing and validation procedures.
#
#######################################################################

data_DUPJIJ
_chemical_formula_moiety         'C24 H40 N4 O4 Si1'
_chemical_name_systematic        1,1',1'',1'''-silanetetrayltetraazepan-2-one
_symmetry_cell_setting           orthorhombic
_symmetry_space_group_name_H-M   'P n a 21'
_symmetry_Int_Tables_number      33
_space_group_name_Hall           'P 2c -2n'
loop_
_symmetry_equiv_pos_site_id
_symmetry_equiv_pos_as_xyz
1 x,y,z
2 -x,-y,1/2+z
3 1/2-x,1/2+y,1/2+z
4 1/2+x,1/2-y,z
_cell_length_a                   18.1083(7)
_cell_length_b                   17.6737(9)
_cell_length_c                   7.6710(3)
_cell_angle_alpha                90
_cell_angle_beta                 90
_cell_angle_gamma                90
_cell_volume                     2455.03
_exptl_crystal_colour            colorless
_exptl_crystal_description       block
_cell_formula_units_Z            4
loop_
_atom_site_label
_atom_site_type_symbol
_atom_site_fract_x
_atom_site_fract_y
_atom_site_fract_z
C1 C 0.3587(2) 0.1064(3) 0.4355(6)
C2 C 0.4111(2) 0.0643(3) 0.3177(6)
H1 H 0.4401 0.1006 0.2521
H2 H 0.3826 0.0347 0.2350
C3 C 0.4638(2) 0.0112(3) 0.4171(6)
H3 H 0.5086 0.0049 0.3492
H4 H 0.4773 0.0349 0.5266
C4 C 0.4313(2) -0.0663(2) 0.4549(6)
H5 H 0.4695 -0.0978 0.5059
H6 H 0.4168 -0.0894 0.3454
C5 C 0.3641(2) -0.0658(3) 0.5779(6)
H7 H 0.3457 -0.1171 0.5888
H8 H 0.3802 -0.0495 0.6925
C6 C 0.3012(2) -0.0152(3) 0.5192(6)
H9 H 0.2922 -0.0244 0.3964
H10 H 0.2570 -0.0298 0.5821
C7 C 0.2381(2) 0.0197(2) 0.9235(6)
C8 C 0.1958(2) -0.0317(3) 1.0454(6)
H11 H 0.1647 -0.0011 1.1203
H12 H 0.2306 -0.0586 1.1190
C9 C 0.1476(2) -0.0893(3) 0.9483(6)
H13 H 0.1742 -0.1067 0.8461
H14 H 0.1398 -0.1327 1.0234
C10 C 0.0726(2) -0.0591(3) 0.8905(7)
H15 H 0.0454 -0.1002 0.8364
H16 H 0.0453 -0.0438 0.9935
C11 C 0.0743(2) 0.0066(3) 0.7653(6)
H17 H 0.0240 0.0232 0.7446
H18 H 0.0941 -0.0109 0.6549
C12 C 0.1194(2) 0.0743(3) 0.8257(6)
H19 H 0.1047 0.1183 0.7585
H20 H 0.1079 0.0844 0.9470
C13 C 0.1573(2) 0.1394(3) 0.4249(6)
C14 C 0.1069(2) 0.1820(3) 0.3045(6)
H21 H 0.0816 0.1460 0.2300
H22 H 0.1366 0.2144 0.2303
C15 C 0.0494(2) 0.2305(3) 0.3977(6)
H23 H 0.0076 0.2377 0.3203
H24 H 0.0318 0.2031 0.4992
C16 C 0.0770(2) 0.3074(3) 0.4560(6)
H25 H 0.0360 0.3349 0.5069
H26 H 0.0930 0.3353 0.3537
C17 C 0.1402(2) 0.3065(3) 0.5869(6)
H27 H 0.1553 0.3583 0.6094
H28 H 0.1222 0.2856 0.6958
C18 C 0.2073(2) 0.2617(2) 0.5298(6)
H29 H 0.2185 0.2747 0.4098
H30 H 0.2491 0.2772 0.6004
C19 C 0.2698(2) 0.2239(2) 0.9275(5)
C20 C 0.3099(2) 0.2740(3) 1.0549(6)
H31 H 0.3402 0.2429 1.1305
H32 H 0.2740 0.3000 1.1271
C21 C 0.3594(2) 0.3332(3) 0.9633(7)
H33 H 0.3349 0.3502 0.8578
H34 H 0.3650 0.3767 1.0393
C22 C 0.4357(2) 0.3032(3) 0.9161(6)
H35 H 0.4645 0.3444 0.8671
H36 H 0.4602 0.2869 1.0221
C23 C 0.4354(2) 0.2378(3) 0.7872(6)
H37 H 0.4175 0.2564 0.6760
H38 H 0.4860 0.2212 0.7700
C24 C 0.3896(2) 0.1701(3) 0.8386(6)
H39 H 0.4055 0.1270 0.7699
H40 H 0.3994 0.1585 0.9600
N1 N 0.31268(18) 0.0663(2) 0.5439(5)
N2 N 0.19997(18) 0.0643(2) 0.8087(5)
N3 N 0.19982(18) 0.1787(2) 0.5422(5)
N4 N 0.30924(18) 0.1796(2) 0.8159(5)
O1 O 0.35853(16) 0.17641(17) 0.4420(4)
O2 O 0.30588(15) 0.01898(18) 0.9216(4)
O3 O 0.15775(16) 0.06982(17) 0.4283(4)
O4 O 0.20196(16) 0.22383(17) 0.9198(4)
Si1 Si 0.25558(5) 0.12226(6) 0.67739(18)
loop_
_geom_bond_atom_site_label_1
_geom_bond_atom_site_label_2
_geom_bond_site_symmetry_1
_geom_bond_site_symmetry_2
C1 C2 1_555 1_555
C2 H1 1_555 1_555
H2 C2 1_555 1_555
C3 C2 1_555 1_555
H3 C3 1_555 1_555
H4 C3 1_555 1_555
C4 C3 1_555 1_555
H5 C4 1_555 1_555
H6 C4 1_555 1_555
C5 C4 1_555 1_555
H7 C5 1_555 1_555
H8 C5 1_555 1_555
C6 C5 1_555 1_555
H9 C6 1_555 1_555
H10 C6 1_555 1_555
C7 C8 1_555 1_555
C8 H11 1_555 1_555
H12 C8 1_555 1_555
C9 C8 1_555 1_555
H13 C9 1_555 1_555
H14 C9 1_555 1_555
C10 C9 1_555 1_555
H15 C10 1_555 1_555
H16 C10 1_555 1_555
C11 C10 1_555 1_555
H17 C11 1_555 1_555
H18 C11 1_555 1_555
C12 C11 1_555 1_555
H19 C12 1_555 1_555
H20 C12 1_555 1_555
C13 C14 1_555 1_555
C14 H21 1_555 1_555
H22 C14 1_555 1_555
C15 C14 1_555 1_555
H23 C15 1_555 1_555
H24 C15 1_555 1_555
C16 C15 1_555 1_555
H25 C16 1_555 1_555
H26 C16 1_555 1_555
C17 C16 1_555 1_555
H27 C17 1_555 1_555
H28 C17 1_555 1_555
C18 C17 1_555 1_555
H29 C18 1_555 1_555
H30 C18 1_555 1_555
C19 C20 1_555 1_555
C20 H31 1_555 1_555
H32 C20 1_555 1_555
C21 C20 1_555 1_555
H33 C21 1_555 1_555
H34 C21 1_555 1_555
C22 C21 1_555 1_555
H35 C22 1_555 1_555
H36 C22 1_555 1_555
C23 C22 1_555 1_555
H37 C23 1_555 1_555
H38 C23 1_555 1_555
C24 C23 1_555 1_555
H39 C24 1_555 1_555
H40 C24 1_555 1_555
N1 C1 1_555 1_555
N2 C7 1_555 1_555
N3 C13 1_555 1_555
N4 C19 1_555 1_555
O1 C1 1_555 1_555
O2 C7 1_555 1_555
O3 C13 1_555 1_555
O4 C19 1_555 1_555
Si1 N1 1_555 1_555
C6 N1 1_555 1_555
C12 N2 1_555 1_555
C18 N3 1_555 1_555
C24 N4 1_555 1_555
N2 Si1 1_555 1_555
N3 Si1 1_555 1_555
N4 Si1 1_555 1_555

#END
