
#######################################################################
#
#                 Cambridge Crystallographic Data Centre
#                                CCDC 
#
#######################################################################
#
# If this CIF has been generated from an entry in the Cambridge 
# Structural Database, then it will include bibliographic, chemical, 
# crystal, experimental, refinement or atomic coordinate data resulting 
# from the CCDC's data processing and validation procedures.
#
#######################################################################

data_DUPKEF
_chemical_name_common            '2-Bromonicotinic acid'
_chemical_formula_moiety         'C6 H4 Br1 N1 O2'
_chemical_name_systematic        '2-Bromopyridine-3-carboxylic acid'
_symmetry_cell_setting           monoclinic
_symmetry_space_group_name_H-M   'P 21/c'
_symmetry_Int_Tables_number      14
_space_group_name_Hall           '-P 2ybc'
loop_
_symmetry_equiv_pos_site_id
_symmetry_equiv_pos_as_xyz
1 x,y,z
2 -x,1/2+y,1/2-z
3 -x,-y,-z
4 x,1/2-y,1/2+z
_cell_length_a                   3.9286(3)
_cell_length_b                   12.9737(9)
_cell_length_c                   12.8570(8)
_cell_angle_alpha                90
_cell_angle_beta                 96.695(4)
_cell_angle_gamma                90
_cell_volume                     650.833
_exptl_crystal_colour            colorless
_exptl_crystal_description       block
_chemical_melting_point          '520-523 K'
_cell_formula_units_Z            4
_exptl_crystal_recrystallization_method ethanol
loop_
_atom_site_label
_atom_site_type_symbol
_atom_site_fract_x
_atom_site_fract_y
_atom_site_fract_z
Br1 Br 0.26644(13) 0.59770(4) 0.89357(4)
O1 O -0.1485(10) 0.8088(3) 0.6204(3)
H1 H -0.2563 0.7783 0.5691
O2 O 0.0225(11) 0.6488(3) 0.6647(3)
N1 N 0.5499(10) 0.7843(3) 0.9471(3)
C1 C 0.3563(13) 0.7384(4) 0.8676(4)
C2 C 0.2287(12) 0.7899(4) 0.7756(4)
C3 C 0.3069(14) 0.8942(4) 0.7698(4)
H2 H 0.2193 0.9327 0.7098
C4 C 0.5111(13) 0.9428(4) 0.8507(4)
H3 H 0.5688 1.0137 0.8461
C5 C 0.6276(13) 0.8854(4) 0.9378(4)
H4 H 0.7679 0.9179 0.9935
C6 C 0.0240(13) 0.7406(4) 0.6822(4)
loop_
_geom_bond_atom_site_label_1
_geom_bond_atom_site_label_2
_geom_bond_site_symmetry_1
_geom_bond_site_symmetry_2
Br1 C1 1_555 1_555
O1 H1 1_555 1_555
O2 C6 1_555 1_555
N1 C1 1_555 1_555
C1 C2 1_555 1_555
C2 C3 1_555 1_555
C3 H2 1_555 1_555
C4 C3 1_555 1_555
H3 C4 1_555 1_555
C5 N1 1_555 1_555
H4 C5 1_555 1_555
C6 O1 1_555 1_555
C2 C6 1_555 1_555
C4 C5 1_555 1_555

#END
