
#######################################################################
#
#                 Cambridge Crystallographic Data Centre
#                                CCDC 
#
#######################################################################
#
# If this CIF has been generated from an entry in the Cambridge 
# Structural Database, then it will include bibliographic, chemical, 
# crystal, experimental, refinement or atomic coordinate data resulting 
# from the CCDC's data processing and validation procedures.
#
#######################################################################

data_DUPLUX
_chemical_formula_moiety         'C24 H22 F3 N1 O2'
_chemical_name_systematic        
'methyl 6-(4-t-butylphenyl)-4-phenyl-5-(trifluoromethyl)pyridine-2-carboxylate'
_symmetry_cell_setting           monoclinic
_symmetry_space_group_name_H-M   'C 2/c'
_symmetry_Int_Tables_number      15
_space_group_name_Hall           '-C 2yn'
loop_
_symmetry_equiv_pos_site_id
_symmetry_equiv_pos_as_xyz
1 x,y,z
2 -x,y,1/2-z
3 1/2+x,1/2+y,z
4 1/2-x,1/2+y,1/2-z
5 -x,-y,-z
6 x,-y,1/2+z
7 1/2-x,1/2-y,-z
8 1/2+x,1/2-y,1/2+z
_cell_length_a                   33.4249(17)
_cell_length_b                   6.2204(3)
_cell_length_c                   20.9937(9)
_cell_angle_alpha                90
_cell_angle_beta                 96.885(4)
_cell_angle_gamma                90
_cell_volume                     4333.45
_exptl_crystal_colour            colorless
_exptl_crystal_description       block
_cell_formula_units_Z            8
loop_
_atom_site_label
_atom_site_type_symbol
_atom_site_fract_x
_atom_site_fract_y
_atom_site_fract_z
O1 O 0.21528(7) 0.0609(3) 0.49731(11)
O2 O 0.23570(6) 0.0477(3) 0.39990(10)
N1 N 0.16500(7) 0.3962(4) 0.45731(11)
C1 C 0.14058(8) 0.5591(4) 0.43659(14)
C2 C 0.14000(8) 0.6452(4) 0.37475(14)
C3 C 0.16724(8) 0.5674(4) 0.33413(13)
C4 C 0.19241(8) 0.4000(4) 0.35727(13)
H1 H 0.2109 0.3433 0.3321
C5 C 0.18986(8) 0.3179(4) 0.41784(14)
C6 C 0.11382(8) 0.6304(5) 0.48463(13)
C7 C 0.11729(9) 0.8265(5) 0.51446(18)
H2 H 0.1365 0.9240 0.5036
C8 C 0.09282(10) 0.8818(6) 0.56035(17)
H3 H 0.0964 1.0148 0.5804
C9 C 0.06323(9) 0.7463(5) 0.57739(15)
C10 C 0.06039(11) 0.5508(5) 0.54721(19)
H4 H 0.0409 0.4542 0.5573
C11 C 0.08534(10) 0.4914(5) 0.50244(18)
H5 H 0.0828 0.3552 0.4841
C12 C 0.03552(11) 0.8076(6) 0.6274(2)
C13 C 0.10886(12) 0.8109(7) 0.35026(19)
C14 C 0.17072(9) 0.6466(5) 0.26803(14)
C15 C 0.18935(12) 0.8378(6) 0.25743(18)
H6 H 0.1994 0.9238 0.2919
C16 C 0.19324(15) 0.9026(7) 0.1954(2)
H7 H 0.2063 1.0314 0.1887
C17 C 0.17842(15) 0.7821(9) 0.1443(2)
H8 H 0.1805 0.8283 0.1027
C18 C 0.16064(13) 0.5948(9) 0.1550(2)
H9 H 0.1505 0.5105 0.1202
C19 C 0.15697(11) 0.5239(6) 0.21605(17)
H10 H 0.1450 0.3914 0.2220
C20 C 0.21452(8) 0.1301(5) 0.44386(15)
C21 C 0.26045(10) -0.1366(5) 0.41949(17)
H11 H 0.2718 -0.1936 0.3831
H12 H 0.2443 -0.2447 0.4367
H13 H 0.2818 -0.0939 0.4517
F1 F 0.0779(4) 0.820(2) 0.3803(5)
F2 F 0.1226(4) 0.993(2) 0.3416(6)
F3 F 0.0924(3) 0.7554(18) 0.2905(6)
C22 C 0.0564(4) 0.933(4) 0.6786(7)
H14 H 0.0805 0.8589 0.6958
H15 H 0.0393 0.9520 0.7117
H16 H 0.0632 1.0704 0.6624
C23 C 0.0016(4) 0.946(3) 0.5880(6)
H17 H 0.0133 1.0741 0.5726
H18 H -0.0184 0.9849 0.6152
H19 H -0.0108 0.8639 0.5522
C24 C 0.0148(7) 0.611(3) 0.6518(9)
H20 H 0.0014 0.5328 0.6161
H21 H -0.0046 0.6570 0.6792
H22 H 0.0345 0.5210 0.6756
C25? C 0.0330(6) 1.0447(19) 0.6401(10)
H23? H 0.0592 1.0975 0.6567
H24? H 0.0145 1.0699 0.6709
H25? H 0.0238 1.1182 0.6008
F4? F 0.1170(5) 1.005(2) 0.3792(6)
C26? C -0.0058(4) 0.725(4) 0.6141(10)
H26? H -0.0177 0.7759 0.5730
H27? H -0.0215 0.7748 0.6467
H28? H -0.0053 0.5708 0.6141
F5? F 0.0734(3) 0.758(2) 0.3650(7)
F6? F 0.1039(4) 0.839(3) 0.2895(6)
C27? C 0.0539(5) 0.704(4) 0.6939(6)
H29? H 0.0360 0.7302 0.7256
H30? H 0.0797 0.7680 0.7076
H31? H 0.0571 0.5521 0.6887
loop_
_geom_bond_atom_site_label_1
_geom_bond_atom_site_label_2
_geom_bond_site_symmetry_1
_geom_bond_site_symmetry_2
O1 C20 1_555 1_555
O2 C20 1_555 1_555
N1 C1 1_555 1_555
C1 C2 1_555 1_555
C2 C3 1_555 1_555
C3 C4 1_555 1_555
C4 H1 1_555 1_555
C5 N1 1_555 1_555
C6 C1 1_555 1_555
C7 C6 1_555 1_555
H2 C7 1_555 1_555
C8 C7 1_555 1_555
H3 C8 1_555 1_555
C9 C8 1_555 1_555
C10 C9 1_555 1_555
H4 C10 1_555 1_555
C11 C6 1_555 1_555
H5 C11 1_555 1_555
C12 C9 1_555 1_555
C13 C2 1_555 1_555
C14 C3 1_555 1_555
C15 C14 1_555 1_555
H6 C15 1_555 1_555
C16 C15 1_555 1_555
H7 C16 1_555 1_555
C17 C16 1_555 1_555
H8 C17 1_555 1_555
C18 C17 1_555 1_555
H9 C18 1_555 1_555
C19 C14 1_555 1_555
H10 C19 1_555 1_555
C20 C5 1_555 1_555
C21 O2 1_555 1_555
H11 C21 1_555 1_555
H12 C21 1_555 1_555
H13 C21 1_555 1_555
F1 C13 1_555 1_555
F2 C13 1_555 1_555
F3 C13 1_555 1_555
C22 C12 1_555 1_555
H14 C22 1_555 1_555
H15 C22 1_555 1_555
H16 C22 1_555 1_555
C23 C12 1_555 1_555
H17 C23 1_555 1_555
H18 C23 1_555 1_555
H19 C23 1_555 1_555
C24 C12 1_555 1_555
H20 C24 1_555 1_555
H21 C24 1_555 1_555
H22 C24 1_555 1_555
C4 C5 1_555 1_555
C10 C11 1_555 1_555
C18 C19 1_555 1_555

#END
