
#######################################################################
#
#                 Cambridge Crystallographic Data Centre
#                                CCDC 
#
#######################################################################
#
# If this CIF has been generated from an entry in the Cambridge 
# Structural Database, then it will include bibliographic, chemical, 
# crystal, experimental, refinement or atomic coordinate data resulting 
# from the CCDC's data processing and validation procedures.
#
#######################################################################

data_DUPLIL
_chemical_formula_moiety         'C14 H10 F3 N1 O1'
_chemical_name_systematic        
3-(6-methoxy-2-naphthyl)-2-(trifluoromethyl)-2H-azirene
_symmetry_cell_setting           monoclinic
_symmetry_space_group_name_H-M   'P 21'
_symmetry_Int_Tables_number      4
_space_group_name_Hall           'P 2yb'
loop_
_symmetry_equiv_pos_site_id
_symmetry_equiv_pos_as_xyz
1 x,y,z
2 -x,1/2+y,-z
_cell_length_a                   9.2351(7)
_cell_length_b                   5.3558(4)
_cell_length_c                   12.9094(9)
_cell_angle_alpha                90
_cell_angle_beta                 104.113(7)
_cell_angle_gamma                90
_cell_volume                     619.244
_exptl_crystal_colour            colorless
_exptl_crystal_description       block
_cell_formula_units_Z            2
loop_
_atom_site_label
_atom_site_type_symbol
_atom_site_fract_x
_atom_site_fract_y
_atom_site_fract_z
F1 F -0.4304(4) -0.0437(11) -1.1142(3)
F2 F -0.4568(5) -0.4120(13) -1.0817(3)
F3 F -0.3747(4) -0.3105(10) -1.2111(2)
O1 O -0.2805(4) 0.0357(7) -0.3764(2)
N1 N -0.1242(4) -0.0318(9) -1.0326(3)
C1 C -0.1820(4) 0.1375(9) -0.5283(3)
H1 H -0.1260 0.2696 -0.4925
C2 C -0.2673(5) -0.0017(9) -0.4786(3)
C3 C -0.3516(5) -0.2003(9) -0.5311(4)
H2 H -0.4111 -0.2912 -0.4960
C4 C -0.3487(5) -0.2640(11) -0.6324(3)
H3 H -0.4036 -0.4001 -0.6654
C5 C -0.2617(4) -0.1224(8) -0.6878(3)
C6 C -0.1781(4) 0.0817(8) -0.6348(3)
C7 C -0.0924(5) 0.2249(10) -0.6911(3)
H4 H -0.0360 0.3584 -0.6569
C8 C -0.0912(5) 0.1710(9) -0.7935(3)
H5 H -0.0370 0.2699 -0.8297
C9 C -0.1731(4) -0.0370(9) -0.8452(3)
C10 C -0.2554(4) -0.1775(8) -0.7930(3)
H6 H -0.3088 -0.3132 -0.8277
C11 C -0.1714(4) -0.0974(9) -0.9538(3)
C12 C -0.2177(5) -0.2703(10) -1.0416(3)
H7 H -0.1641 -0.4296 -1.0363
C13 C -0.3673(5) -0.2619(14) -1.1123(3)
C14 C -0.2027(7) 0.2397(12) -0.3171(4)
H8 H -0.2393 0.3937 -0.3518
H9 H -0.0979 0.2246 -0.3132
H10 H -0.2183 0.2384 -0.2463
loop_
_geom_bond_atom_site_label_1
_geom_bond_atom_site_label_2
_geom_bond_site_symmetry_1
_geom_bond_site_symmetry_2
F1 C13 1_555 1_555
F2 C13 1_555 1_555
F3 C13 1_555 1_555
O1 C2 1_555 1_555
N1 C11 1_555 1_555
C1 H1 1_555 1_555
C2 C1 1_555 1_555
C3 C2 1_555 1_555
H2 C3 1_555 1_555
C4 C3 1_555 1_555
H3 C4 1_555 1_555
C5 C4 1_555 1_555
C6 C1 1_555 1_555
C7 C6 1_555 1_555
H4 C7 1_555 1_555
C8 C7 1_555 1_555
H5 C8 1_555 1_555
C9 C8 1_555 1_555
C10 C5 1_555 1_555
H6 C10 1_555 1_555
C11 C9 1_555 1_555
C12 N1 1_555 1_555
H7 C12 1_555 1_555
C13 C12 1_555 1_555
C14 O1 1_555 1_555
H8 C14 1_555 1_555
H9 C14 1_555 1_555
H10 C14 1_555 1_555
C5 C6 1_555 1_555
C9 C10 1_555 1_555
C11 C12 1_555 1_555

#END
