
#######################################################################
#
#                 Cambridge Crystallographic Data Centre
#                                CCDC 
#
#######################################################################
#
# If this CIF has been generated from an entry in the Cambridge 
# Structural Database, then it will include bibliographic, chemical, 
# crystal, experimental, refinement or atomic coordinate data resulting 
# from the CCDC's data processing and validation procedures.
#
#######################################################################

data_DUPNOT
_chemical_formula_moiety         'C6 H6 O3'
_chemical_name_systematic        3,4-Dimethylfuran-2,5-dione
_symmetry_cell_setting           orthorhombic
_symmetry_space_group_name_H-M   'P b c a'
_symmetry_Int_Tables_number      61
_space_group_name_Hall           '-P 2ac 2ab'
loop_
_symmetry_equiv_pos_site_id
_symmetry_equiv_pos_as_xyz
1 x,y,z
2 1/2-x,-y,1/2+z
3 -x,1/2+y,1/2-z
4 1/2+x,1/2-y,-z
5 -x,-y,-z
6 1/2+x,y,1/2-z
7 x,1/2-y,1/2+z
8 1/2-x,1/2+y,z
_cell_length_a                   10.4087(18)
_cell_length_b                   8.5848(15)
_cell_length_c                   13.095(2)
_cell_angle_alpha                90
_cell_angle_beta                 90
_cell_angle_gamma                90
_cell_volume                     1170.12
_exptl_crystal_colour            colorless
_exptl_crystal_description       plate
_cell_formula_units_Z            8
loop_
_atom_site_label
_atom_site_type_symbol
_atom_site_fract_x
_atom_site_fract_y
_atom_site_fract_z
C1 C 0.21013(8) 0.04947(9) 0.74377(6)
C2 C 0.16580(8) 0.09029(9) 0.84811(6)
C3 C 0.06175(8) 0.18143(9) 0.83852(6)
C4 C 0.03516(8) 0.20010(9) 0.72780(6)
C5 C 0.23380(9) 0.03114(10) 0.93985(7)
H1 H 0.2334 -0.0830 0.9392
H2 H 0.1902 0.0687 1.0015
H3 H 0.3227 0.0687 0.9394
C6 C -0.02176(9) 0.25635(10) 0.91611(7)
H4 H -0.0139 0.3698 0.9108
H5 H 0.0048 0.2229 0.9845
H6 H -0.1113 0.2258 0.9043
O1 O 0.12815(6) 0.11870(7) 0.67262(5)
O2 O 0.29960(6) -0.02770(8) 0.71646(5)
O3 O -0.04983(6) 0.26794(8) 0.68539(5)
loop_
_geom_bond_atom_site_label_1
_geom_bond_atom_site_label_2
_geom_bond_site_symmetry_1
_geom_bond_site_symmetry_2
C1 C2 1_555 1_555
C2 C3 1_555 1_555
C3 C4 1_555 1_555
C4 O1 1_555 1_555
C5 C2 1_555 1_555
H1 C5 1_555 1_555
H2 C5 1_555 1_555
H3 C5 1_555 1_555
C6 C3 1_555 1_555
H4 C6 1_555 1_555
H5 C6 1_555 1_555
H6 C6 1_555 1_555
O1 C1 1_555 1_555
O2 C1 1_555 1_555
O3 C4 1_555 1_555

#END
