
#######################################################################
#
#                 Cambridge Crystallographic Data Centre
#                                CCDC 
#
#######################################################################
#
# If this CIF has been generated from an entry in the Cambridge 
# Structural Database, then it will include bibliographic, chemical, 
# crystal, experimental, refinement or atomic coordinate data resulting 
# from the CCDC's data processing and validation procedures.
#
#######################################################################

data_DUPPAH
_chemical_formula_moiety         'C20 H19 N1 O3'
_chemical_name_systematic        
2-((1-(4-Phenoxyphenoxy)propan-2-yl)oxy)pyridine
_symmetry_cell_setting           orthorhombic
_symmetry_space_group_name_H-M   'P b c a'
_symmetry_Int_Tables_number      61
_space_group_name_Hall           '-P 2ac 2ab'
loop_
_symmetry_equiv_pos_site_id
_symmetry_equiv_pos_as_xyz
1 x,y,z
2 1/2-x,-y,1/2+z
3 1/2+x,1/2-y,-z
4 -x,1/2+y,1/2-z
5 -x,-y,-z
6 1/2+x,y,1/2-z
7 1/2-x,1/2+y,z
8 x,1/2-y,1/2+z
_cell_length_a                   10.0676(2)
_cell_length_b                   8.02790(10)
_cell_length_c                   40.9129(7)
_cell_angle_alpha                90
_cell_angle_beta                 90
_cell_angle_gamma                90
_cell_volume                     3306.65
_exptl_crystal_colour            colorless
_exptl_crystal_description       block
_cell_formula_units_Z            8
loop_
_atom_site_label
_atom_site_type_symbol
_atom_site_fract_x
_atom_site_fract_y
_atom_site_fract_z
O1 O 0.93462(16) -0.1993(2) 0.07340(4)
O2 O 0.97257(17) 0.12811(19) 0.10028(4)
O3 O 0.84983(16) 0.6264(2) 0.18833(4)
N1 N 0.9994(2) -0.2077(3) 0.01922(5)
C1 C 0.8083(2) -0.3616(3) 0.03714(6)
H1 H 0.7514 -0.3931 0.0546
C2 C 0.7879(2) -0.4169(3) 0.00560(6)
H2 H 0.7164 -0.4901 0.0008
C3 C 0.8727(2) -0.3645(3) -0.01884(6)
H3 H 0.8595 -0.3993 -0.0408
C4 C 0.9750(2) -0.2626(3) -0.01099(6)
H4 H 1.0329 -0.2280 -0.0280
C5 C 0.9177(2) -0.2561(3) 0.04197(5)
C6 C 1.0603(2) -0.1277(3) 0.08188(5)
H5 H 1.0927 -0.0579 0.0633
C7 C 1.1605(3) -0.2635(3) 0.08878(6)
H6 H 1.1273 -0.3353 0.1063
H7 H 1.2449 -0.2131 0.0955
H8 H 1.1743 -0.3300 0.0690
C8 C 1.0369(3) -0.0192(3) 0.11085(6)
H9 H 0.9807 -0.0781 0.1270
H10 H 1.1225 0.0088 0.1214
C9 C 0.9480(2) 0.2473(3) 0.12354(5)
C10 C 0.8926(3) 0.3944(3) 0.11212(6)
H11 H 0.8755 0.4079 0.0894
C11 C 0.8624(2) 0.5218(3) 0.13372(6)
H12 H 0.8244 0.6227 0.1260
C12 C 0.8880(2) 0.5010(3) 0.16646(6)
C13 C 0.9423(2) 0.3563(3) 0.17803(6)
H13 H 0.9588 0.3437 0.2008
C14 C 0.9732(2) 0.2277(3) 0.15657(5)
H14 H 1.0114 0.1273 0.1645
C15 C 0.9434(2) 0.7403(3) 0.19842(5)
C16 C 1.0758(2) 0.7374(3) 0.18908(5)
H15 H 1.1078 0.6548 0.1744
C17 C 1.1612(3) 0.8584(3) 0.20167(6)
H16 H 1.2521 0.8581 0.1955
C18 C 1.1157(3) 0.9779(3) 0.22293(6)
H17 H 1.1751 1.0585 0.2316
C19 C 0.9830(3) 0.9803(3) 0.23162(5)
H18 H 0.9510 1.0640 0.2460
C20 C 0.8970(2) 0.8620(3) 0.21951(5)
H19 H 0.8060 0.8639 0.2256
loop_
_geom_bond_atom_site_label_1
_geom_bond_atom_site_label_2
_geom_bond_site_symmetry_1
_geom_bond_site_symmetry_2
O1 C5 1_555 1_555
O2 C8 1_555 1_555
O3 C12 1_555 1_555
N1 C4 1_555 1_555
C1 H1 1_555 1_555
C2 C1 1_555 1_555
H2 C2 1_555 1_555
C3 C2 1_555 1_555
H3 C3 1_555 1_555
C4 C3 1_555 1_555
H4 C4 1_555 1_555
C5 N1 1_555 1_555
C6 O1 1_555 1_555
H5 C6 1_555 1_555
C7 C6 1_555 1_555
H6 C7 1_555 1_555
H7 C7 1_555 1_555
H8 C7 1_555 1_555
C8 C6 1_555 1_555
H9 C8 1_555 1_555
H10 C8 1_555 1_555
C9 O2 1_555 1_555
C10 C9 1_555 1_555
H11 C10 1_555 1_555
C11 C10 1_555 1_555
H12 C11 1_555 1_555
C12 C11 1_555 1_555
C13 C12 1_555 1_555
H13 C13 1_555 1_555
C14 C9 1_555 1_555
H14 C14 1_555 1_555
C15 O3 1_555 1_555
C16 C15 1_555 1_555
H15 C16 1_555 1_555
C17 C16 1_555 1_555
H16 C17 1_555 1_555
C18 C17 1_555 1_555
H17 C18 1_555 1_555
C19 C18 1_555 1_555
H18 C19 1_555 1_555
C20 C15 1_555 1_555
H19 C20 1_555 1_555
C1 C5 1_555 1_555
C13 C14 1_555 1_555
C19 C20 1_555 1_555

#END
