
#######################################################################
#
#                 Cambridge Crystallographic Data Centre
#                                CCDC 
#
#######################################################################
#
# If this CIF has been generated from an entry in the Cambridge 
# Structural Database, then it will include bibliographic, chemical, 
# crystal, experimental, refinement or atomic coordinate data resulting 
# from the CCDC's data processing and validation procedures.
#
#######################################################################

data_DUQHON
_chemical_formula_moiety         'C22 H50 Li2 N8'
_chemical_name_systematic        
bis(\m~2~-1,4,7-Trimethyl-1,4,7,10-tetra-azacyclododecane)-di-lithium
_symmetry_cell_setting           monoclinic
_symmetry_space_group_name_H-M   'P 21/c'
_symmetry_Int_Tables_number      14
_space_group_name_Hall           '-P 2ybc'
loop_
_symmetry_equiv_pos_site_id
_symmetry_equiv_pos_as_xyz
1 x,y,z
2 -x,1/2+y,1/2-z
3 -x,-y,-z
4 x,1/2-y,1/2+z
_cell_length_a                   8.771(2)
_cell_length_b                   27.387(7)
_cell_length_c                   11.858(3)
_cell_angle_alpha                90
_cell_angle_beta                 110.826(4)
_cell_angle_gamma                90
_cell_volume                     2662.32
_exptl_crystal_colour            colorless
_exptl_crystal_description       prism
_cell_formula_units_Z            4
loop_
_atom_site_label
_atom_site_type_symbol
_atom_site_fract_x
_atom_site_fract_y
_atom_site_fract_z
N1 N 0.75525(17) 0.17478(5) 0.70937(13)
N2 N 1.02308(17) 0.18385(5) 0.61200(13)
N3 N 0.81902(17) 0.11263(5) 0.44647(12)
N4 N 0.5539(4) 0.18342(12) 0.4395(3)
N5 N 0.91713(16) 0.06868(5) 0.74713(12)
N6 N 1.04764(17) 0.11668(5) 0.98832(13)
N7 N 0.70515(17) 0.10640(5) 0.96209(13)
N8 N 0.57581(17) 0.04958(5) 0.72659(13)
Li1 Li 0.8668(3) 0.12591(10) 0.6355(2)
Li2 Li 0.8065(4) 0.11811(10) 0.8213(3)
C1 C 0.8482(2) 0.21905(6) 0.71599(17)
H1 H 0.9416 0.2194 0.7935
H2 H 0.7782 0.2475 0.7157
C2 C 0.9129(2) 0.22476(6) 0.61249(17)
H3 H 0.8202 0.2256 0.5346
H4 H 0.9727 0.2560 0.6216
C3 C 1.0349(2) 0.17595(6) 0.49284(16)
H5 H 1.1256 0.1531 0.5013
H6 H 1.0610 0.2074 0.4626
C4 C 0.8802(2) 0.15568(6) 0.40158(16)
H7 H 0.7953 0.1814 0.3799
H8 H 0.9009 0.1466 0.3275
C5 C 0.6386(5) 0.10500(15) 0.3751(4)
H9 H 0.6126 0.1176 0.2921
H10 H 0.6138 0.0696 0.3697
C6 C 0.5348(3) 0.13064(10) 0.4333(3)
H11 H 0.4190 0.1228 0.3877
H12 H 0.5619 0.1178 0.5162
C7 C 0.5087(3) 0.20727(10) 0.5316(2)
H13 H 0.3886 0.2058 0.5079
H14 H 0.5396 0.2421 0.5345
C8 C 0.5879(5) 0.18522(15) 0.6616(4)
H15 H 0.5644 0.2081 0.7180
H16 H 0.5292 0.1545 0.6633
C9 C 1.1866(2) 0.19375(7) 0.69771(18)
H17 H 1.2326 0.2220 0.6701
H18 H 1.2562 0.1652 0.7034
H19 H 1.1810 0.2008 0.7772
C10 C 0.9193(2) 0.06959(7) 0.44997(19)
H20 H 0.9118 0.0612 0.3678
H21 H 0.8802 0.0421 0.4851
H22 H 1.0331 0.0766 0.4993
C11 C 0.4674(4) 0.20605(12) 0.3226(3)
H23 H 0.3507 0.1988 0.2978
H24 H 0.5097 0.1931 0.2625
H25 H 0.4838 0.2415 0.3291
C12 C 1.0867(2) 0.06778(6) 0.82509(16)
H26 H 1.1437 0.0958 0.8049
H27 H 1.1376 0.0375 0.8097
C13 C 1.1101(2) 0.07016(7) 0.95908(16)
H28 H 1.0517 0.0426 0.9796
H29 H 1.2275 0.0670 1.0081
C14 C 0.9975(2) 0.11261(7) 1.09360(16)
H30 H 0.9874 0.1458 1.1235
H31 H 1.0832 0.0951 1.1587
C15 C 0.8369(2) 0.08598(7) 1.06556(16)
H32 H 0.8523 0.0512 1.0491
H33 H 0.8043 0.0872 1.1373
C16 C 0.5651(2) 0.07271(7) 0.92412(17)
H34 H 0.4649 0.0911 0.8785
H35 H 0.5505 0.0586 0.9965
C17 C 0.5890(2) 0.03175(6) 0.84594(16)
H36 H 0.6978 0.0169 0.8859
H37 H 0.5057 0.0062 0.8370
C18 C 0.6672(2) 0.01920(6) 0.67000(16)
H38 H 0.6414 0.0304 0.5858
H39 H 0.6290 -0.0150 0.6669
C19 C 0.8509(2) 0.02005(6) 0.73369(16)
H40 H 0.8786 0.0050 0.8145
H41 H 0.9022 0.0001 0.6872
C20 C 1.1723(2) 0.15465(7) 1.01046(18)
H42 H 1.2646 0.1469 1.0841
H43 H 1.1258 0.1862 1.0201
H44 H 1.2098 0.1563 0.9420
C21 C 0.6552(2) 0.15446(7) 0.99126(17)
H45 H 0.6229 0.1517 1.0621
H46 H 0.5628 0.1665 0.9225
H47 H 0.7466 0.1773 1.0087
C22 C 0.4046(2) 0.05185(7) 0.64867(17)
H48 H 0.3577 0.0189 0.6381
H49 H 0.3959 0.0652 0.5699
H50 H 0.3452 0.0729 0.6857
C23? C 0.4384(7) 0.2154(2) 0.3883(6)
C24? C 0.6641(9) 0.0989(3) 0.3704(7)
C25? C 0.5330(7) 0.13971(19) 0.3352(5)
C26? C 0.5110(6) 0.14988(18) 0.5324(4)
C27? C 0.5712(10) 0.1766(3) 0.6489(8)
H51? H 0.4801 0.2361 0.3382
H52? H 0.4356 0.2343 0.4578
H53? H 0.3280 0.2044 0.3406
H54? H 0.6255 0.0722 0.4098
H55? H 0.6729 0.0854 0.2954
H56? H 0.5422 0.1583 0.2664
H57? H 0.4236 0.1244 0.3081
H58? H 0.5595 0.1168 0.5455
H59? H 0.3914 0.1460 0.5080
H60? H 0.5209 0.1623 0.7040
H61? H 0.5362 0.2111 0.6347
N9? N 0.5461(8) 0.1728(3) 0.4310(6)
loop_
_geom_bond_atom_site_label_1
_geom_bond_atom_site_label_2
_geom_bond_site_symmetry_1
_geom_bond_site_symmetry_2
N1 Li1 1_555 1_555
N2 Li1 1_555 1_555
N3 Li1 1_555 1_555
N4 C6 1_555 1_555
N5 Li1 1_555 1_555
N6 Li2 1_555 1_555
N7 Li2 1_555 1_555
N8 C17 1_555 1_555
Li2 N1 1_555 1_555
C1 N1 1_555 1_555
H1 C1 1_555 1_555
H2 C1 1_555 1_555
C2 N2 1_555 1_555
H3 C2 1_555 1_555
H4 C2 1_555 1_555
C3 N2 1_555 1_555
H5 C3 1_555 1_555
H6 C3 1_555 1_555
C4 N3 1_555 1_555
H7 C4 1_555 1_555
H8 C4 1_555 1_555
C5 N3 1_555 1_555
H9 C5 1_555 1_555
H10 C5 1_555 1_555
C6 C5 1_555 1_555
H11 C6 1_555 1_555
H12 C6 1_555 1_555
C7 N4 1_555 1_555
H13 C7 1_555 1_555
H14 C7 1_555 1_555
C8 N1 1_555 1_555
H15 C8 1_555 1_555
H16 C8 1_555 1_555
C9 N2 1_555 1_555
H17 C9 1_555 1_555
H18 C9 1_555 1_555
H19 C9 1_555 1_555
C10 N3 1_555 1_555
H20 C10 1_555 1_555
H21 C10 1_555 1_555
H22 C10 1_555 1_555
C11 N4 1_555 1_555
H23 C11 1_555 1_555
H24 C11 1_555 1_555
H25 C11 1_555 1_555
C12 N5 1_555 1_555
H26 C12 1_555 1_555
H27 C12 1_555 1_555
C13 N6 1_555 1_555
H28 C13 1_555 1_555
H29 C13 1_555 1_555
C14 N6 1_555 1_555
H30 C14 1_555 1_555
H31 C14 1_555 1_555
C15 N7 1_555 1_555
H32 C15 1_555 1_555
H33 C15 1_555 1_555
C16 N7 1_555 1_555
H34 C16 1_555 1_555
H35 C16 1_555 1_555
C17 C16 1_555 1_555
H36 C17 1_555 1_555
H37 C17 1_555 1_555
C18 N8 1_555 1_555
H38 C18 1_555 1_555
H39 C18 1_555 1_555
C19 N5 1_555 1_555
H40 C19 1_555 1_555
H41 C19 1_555 1_555
C20 N6 1_555 1_555
H42 C20 1_555 1_555
H43 C20 1_555 1_555
H44 C20 1_555 1_555
C21 N7 1_555 1_555
H45 C21 1_555 1_555
H46 C21 1_555 1_555
H47 C21 1_555 1_555
C22 N8 1_555 1_555
H48 C22 1_555 1_555
H49 C22 1_555 1_555
H50 C22 1_555 1_555
N5 Li2 1_555 1_555
C1 C2 1_555 1_555
C3 C4 1_555 1_555
C7 C8 1_555 1_555
C12 C13 1_555 1_555
C14 C15 1_555 1_555
C18 C19 1_555 1_555

#END
