
#######################################################################
#
#                 Cambridge Crystallographic Data Centre
#                                CCDC 
#
#######################################################################
#
# If this CIF has been generated from an entry in the Cambridge 
# Structural Database, then it will include bibliographic, chemical, 
# crystal, experimental, refinement or atomic coordinate data resulting 
# from the CCDC's data processing and validation procedures.
#
#######################################################################

data_DUQJEF
_chemical_formula_moiety         'C11 H26 I1 N4 Na1'
_chemical_name_systematic        
Iodo-(1,4,7-trimethyl-1,4,7,10-tetra-azacyclododecane)-sodium
_symmetry_cell_setting           monoclinic
_symmetry_space_group_name_H-M   'P 21/c'
_symmetry_Int_Tables_number      14
_space_group_name_Hall           '-P 2ybc'
loop_
_symmetry_equiv_pos_site_id
_symmetry_equiv_pos_as_xyz
1 x,y,z
2 -x,1/2+y,1/2-z
3 -x,-y,-z
4 x,1/2-y,1/2+z
_cell_length_a                   9.3405(7)
_cell_length_b                   9.1214(7)
_cell_length_c                   19.3229(14)
_cell_angle_alpha                90
_cell_angle_beta                 100.8280(10)
_cell_angle_gamma                90
_cell_volume                     1616.97
_exptl_crystal_colour            colorless
_exptl_crystal_description       rod
_cell_formula_units_Z            4
loop_
_atom_site_label
_atom_site_type_symbol
_atom_site_fract_x
_atom_site_fract_y
_atom_site_fract_z
I1 I 0.274301(14) 0.306009(13) 0.357577(7)
Na1 Na 0.23280(8) 0.63564(8) 0.33905(4)
N1 N 0.0209(2) 0.80888(17) 0.31129(10)
H1 H -0.051(3) 0.777(2) 0.2832(13)
N2 N 0.20096(18) 0.74527(19) 0.45142(9)
N3 N 0.47342(17) 0.74247(18) 0.38701(8)
N4 N 0.2854(2) 0.80100(16) 0.24465(9)
C1 C -0.0239(2) 0.8485(3) 0.37733(12)
H2 H -0.0852 0.7691 0.3911
H3 H -0.0839 0.9387 0.3700
C2 C 0.1067(2) 0.8744(2) 0.43719(11)
H4 H 0.1647 0.9578 0.4246
H5 H 0.0707 0.9013 0.4805
C3 C 0.3485(2) 0.7861(2) 0.48898(11)
H6 H 0.3966 0.6983 0.5130
H7 H 0.3395 0.8597 0.5256
C4 C 0.4439(2) 0.8486(2) 0.44024(10)
H8 H 0.3952 0.9358 0.4159
H9 H 0.5376 0.8811 0.4689
C5 C 0.5253(2) 0.8156(2) 0.32828(11)
H10 H 0.5686 0.7410 0.3012
H11 H 0.6032 0.8859 0.3479
C6 C 0.4065(2) 0.8972(2) 0.27825(10)
H12 H 0.3668 0.9756 0.3047
H13 H 0.4501 0.9446 0.2410
C7 C 0.1529(2) 0.8868(2) 0.21848(11)
H14 H 0.0851 0.8267 0.1843
H15 H 0.1793 0.9743 0.1933
C8 C 0.0762(2) 0.9355(2) 0.27665(11)
H16 H 0.1449 0.9921 0.3120
H17 H -0.0061 1.0006 0.2568
C9 C 0.1353(2) 0.6351(2) 0.49093(12)
H18 H 0.1230 0.6764 0.5363
H19 H 0.1990 0.5490 0.4991
H20 H 0.0400 0.6062 0.4638
C10 C 0.5843(2) 0.6370(2) 0.42015(11)
H21 H 0.6005 0.5639 0.3853
H22 H 0.5507 0.5880 0.4593
H23 H 0.6757 0.6889 0.4380
C11 C 0.3287(3) 0.7200(2) 0.18604(12)
H24 H 0.3492 0.7895 0.1505
H25 H 0.2494 0.6544 0.1648
H26 H 0.4163 0.6622 0.2038
loop_
_geom_bond_atom_site_label_1
_geom_bond_atom_site_label_2
_geom_bond_site_symmetry_1
_geom_bond_site_symmetry_2
I1 Na1 1_555 1_555
Na1 N1 1_555 1_555
N1 H1 1_555 1_555
N2 Na1 1_555 1_555
N3 Na1 1_555 1_555
N4 Na1 1_555 1_555
C1 N1 1_555 1_555
H2 C1 1_555 1_555
H3 C1 1_555 1_555
C2 N2 1_555 1_555
H4 C2 1_555 1_555
H5 C2 1_555 1_555
C3 N2 1_555 1_555
H6 C3 1_555 1_555
H7 C3 1_555 1_555
C4 N3 1_555 1_555
H8 C4 1_555 1_555
H9 C4 1_555 1_555
C5 N3 1_555 1_555
H10 C5 1_555 1_555
H11 C5 1_555 1_555
C6 N4 1_555 1_555
H12 C6 1_555 1_555
H13 C6 1_555 1_555
C7 N4 1_555 1_555
H14 C7 1_555 1_555
H15 C7 1_555 1_555
C8 N1 1_555 1_555
H16 C8 1_555 1_555
H17 C8 1_555 1_555
C9 N2 1_555 1_555
H18 C9 1_555 1_555
H19 C9 1_555 1_555
H20 C9 1_555 1_555
C10 N3 1_555 1_555
H21 C10 1_555 1_555
H22 C10 1_555 1_555
H23 C10 1_555 1_555
C11 N4 1_555 1_555
H24 C11 1_555 1_555
H25 C11 1_555 1_555
H26 C11 1_555 1_555
C1 C2 1_555 1_555
C3 C4 1_555 1_555
C5 C6 1_555 1_555
C7 C8 1_555 1_555

#END
