
#######################################################################
#
#                 Cambridge Crystallographic Data Centre
#                                CCDC 
#
#######################################################################
#
# If this CIF has been generated from an entry in the Cambridge 
# Structural Database, then it will include bibliographic, chemical, 
# crystal, experimental, refinement or atomic coordinate data resulting 
# from the CCDC's data processing and validation procedures.
#
#######################################################################

data_DUQSOY
_chemical_formula_moiety         'C20 H19 Na1 O12,0.5(C10 H8 N2),H2 O1'
_chemical_name_systematic        
"(2-(2-(Carboxymethoxy)phenoxy)acetato)(2,2'-(o-phenylenedioxy)diaceticacid)-sodium 4,4'-bipyridine solvate monohydrate"
_symmetry_cell_setting           triclinic
_symmetry_space_group_name_H-M   'P -1'
_symmetry_Int_Tables_number      2
_space_group_name_Hall           '-P 1'
loop_
_symmetry_equiv_pos_site_id
_symmetry_equiv_pos_as_xyz
1 x,y,z
2 -x,-y,-z
_cell_length_a                   8.427(4)
_cell_length_b                   13.135(7)
_cell_length_c                   13.411(9)
_cell_angle_alpha                111.08(2)
_cell_angle_beta                 102.03(2)
_cell_angle_gamma                103.17(2)
_cell_volume                     1277.94
_exptl_crystal_colour            colorless
_exptl_crystal_description       block
_cell_formula_units_Z            2
loop_
_atom_site_label
_atom_site_type_symbol
_atom_site_fract_x
_atom_site_fract_y
_atom_site_fract_z
N1 N 0.6188(9) 0.2495(3) 0.2549(4)
C1 C 0.5554(11) 0.1402(4) 0.2509(3)
H1 H 0.5436 0.1326 0.3156
C2 C 0.5096(11) 0.0423(3) 0.1503(4)
H2 H 0.4672 -0.0309 0.1476
C3 C 0.5272(8) 0.0536(4) 0.0537(3)
C4 C 0.5907(14) 0.1629(6) 0.0577(5)
H3 H 0.6024 0.1706 -0.0069
C5 C 0.6365(14) 0.2609(4) 0.1583(6)
H4 H 0.6789 0.3340 0.1610
N1A N 0.3812(9) -0.2495(3) -0.2549(4)
C1A C 0.4446(11) -0.1402(4) -0.2509(3)
H1A H 0.4564 -0.1326 -0.3156
C2A C 0.4904(11) -0.0423(3) -0.1503(4)
H2A H 0.5328 0.0309 -0.1476
C3A C 0.4728(8) -0.0536(4) -0.0537(3)
C4A C 0.4093(14) -0.1629(6) -0.0577(5)
H3A H 0.3976 -0.1706 0.0069
C5A C 0.3635(14) -0.2609(4) -0.1583(6)
H4A H 0.3211 -0.3340 -0.1610
C6 C 1.2333(5) 0.9344(3) 0.3705(3)
C7 C 1.2214(5) 0.9812(3) 0.4873(3)
H5 H 1.3347 1.0083 0.5419
H6 H 1.1801 1.0465 0.4995
C8 C 1.1024(5) 0.9213(3) 0.6109(3)
C9 C 1.1633(5) 1.0313(3) 0.6957(3)
H7 H 1.2166 1.0933 0.6827
C10 C 1.1456(6) 1.0503(4) 0.8009(4)
H8 H 1.1865 1.1251 0.8580
C11 C 1.0677(6) 0.9588(4) 0.8206(4)
H9 H 1.0564 0.9718 0.8913
C12 C 1.0057(6) 0.8471(4) 0.7356(3)
H10 H 0.9524 0.7854 0.7491
C13 C 1.0231(5) 0.8276(3) 0.6309(3)
C14 C 0.8604(5) 0.6264(3) 0.5498(3)
H11 H 0.7599 0.6441 0.5650
H12 H 0.9204 0.6126 0.6111
C15 C 0.8062(5) 0.5200(3) 0.4395(3)
C16 C 1.4603(5) 0.7310(3) 0.4655(3)
C17 C 1.4237(5) 0.6162(3) 0.3699(3)
H13 H 1.4988 0.6235 0.3251
H14 H 1.4432 0.5606 0.3987
C18 C 1.1877(5) 0.4758(3) 0.2073(3)
C19 C 1.2722(7) 0.3957(4) 0.1820(4)
H15 H 1.3785 0.4095 0.2312
C20 C 1.1982(8) 0.2955(4) 0.0837(5)
H16 H 1.2553 0.2419 0.0665
C21 C 1.0408(7) 0.2740(4) 0.0108(4)
H17 H 0.9909 0.2051 -0.0544
C22 C 0.9552(6) 0.3544(4) 0.0336(4)
H18 H 0.8508 0.3408 -0.0174
C23 C 1.0267(5) 0.4546(3) 0.1329(3)
C24 C 0.7868(5) 0.5188(4) 0.0964(3)
H19 H 0.7130 0.4413 0.0765
H20 H 0.7944 0.5247 0.0274
C25 C 0.7118(5) 0.6051(4) 0.1570(4)
Na1 Na 1.05417(13) 0.69107(9) 0.36791(8)
O1 O 1.3113(4) 1.0102(3) 0.3415(3)
H21 H 1.3358 1.0765 0.3903
O2 O 1.1770(4) 0.8307(2) 0.3072(2)
O3 O 1.1079(3) 0.8946(2) 0.5032(2)
O4 O 0.9707(3) 0.7210(2) 0.5416(2)
O5 O 0.8786(4) 0.5185(2) 0.3693(2)
O6 O 0.6840(5) 0.4372(2) 0.4313(3)
H22 H 0.6665 0.3817 0.3714
O7 O 1.3450(4) 0.7679(3) 0.4858(2)
O8 O 1.6201(3) 0.7822(2) 0.5237(3)
O9 O 1.2474(3) 0.5785(2) 0.3023(2)
O10 O 0.9534(3) 0.5391(2) 0.1663(2)
O11 O 0.7838(4) 0.6794(3) 0.2531(3)
O12 O 0.5598(4) 0.5927(4) 0.0985(3)
H23 H 0.5767 0.5753 0.0368
O13 O 0.4114(5) 0.7809(3) 0.1738(4)
H24 H 0.4615 0.7313 0.1724
H25 H 0.3730 0.8057 0.2284
C26? C 0.461(3) 0.1518(9) 0.2270(11)
C27? C 0.420(3) 0.0521(7) 0.1287(11)
C28? C 0.509(2) 0.0521(9) 0.0521(7)
C29? C 0.6381(16) 0.1517(12) 0.0738(10)
C30? C 0.6791(16) 0.2514(10) 0.1720(11)
H26? H 0.4017 0.1518 0.2782
H27? H 0.3333 -0.0145 0.1142
H28? H 0.6974 0.1517 0.0225
H29? H 0.7658 0.3180 0.1865
N2? N 0.591(2) 0.2514(7) 0.2486(8)
loop_
_geom_bond_atom_site_label_1
_geom_bond_atom_site_label_2
_geom_bond_site_symmetry_1
_geom_bond_site_symmetry_2
N1 C1 1_555 1_555
C1 H1 1_555 1_555
C2 C1 1_555 1_555
H2 C2 1_555 1_555
C3 C2 1_555 1_555
C4 C3 1_555 1_555
H3 C4 1_555 1_555
C5 N1 1_555 1_555
H4 C5 1_555 1_555
C6 C7 1_555 1_555
C7 H5 1_555 1_555
H6 C7 1_555 1_555
C8 C9 1_555 1_555
C9 H7 1_555 1_555
C10 C9 1_555 1_555
H8 C10 1_555 1_555
C11 C10 1_555 1_555
H9 C11 1_555 1_555
C12 C11 1_555 1_555
H10 C12 1_555 1_555
C13 C8 1_555 1_555
C14 H11 1_555 1_555
H12 C14 1_555 1_555
C15 C14 1_555 1_555
C16 C17 1_555 1_555
C17 H13 1_555 1_555
H14 C17 1_555 1_555
C18 C19 1_555 1_555
C19 H15 1_555 1_555
C20 C19 1_555 1_555
H16 C20 1_555 1_555
C21 C20 1_555 1_555
H17 C21 1_555 1_555
C22 C21 1_555 1_555
H18 C22 1_555 1_555
C23 C18 1_555 1_555
C24 H19 1_555 1_555
H20 C24 1_555 1_555
C25 C24 1_555 1_555
Na1 O2 1_555 1_555
O1 C6 1_555 1_555
H21 O1 1_555 1_555
O2 C6 1_555 1_555
O3 C7 1_555 1_555
O4 C13 1_555 1_555
O5 C15 1_555 1_555
O6 C15 1_555 1_555
H22 O6 1_555 1_555
O7 C16 1_555 1_555
O8 C16 1_555 1_555
O9 C17 1_555 1_555
O10 C23 1_555 1_555
O11 C25 1_555 1_555
O12 C25 1_555 1_555
H23 O12 1_555 1_555
O13 H24 1_555 1_555
H25 O13 1_555 1_555
N1A C1A 1_555 1_555
C1A H1A 1_555 1_555
C2A C1A 1_555 1_555
H2A C2A 1_555 1_555
C3A C3 1_555 1_555
C4A C3A 1_555 1_555
H3A C4A 1_555 1_555
C5A N1A 1_555 1_555
H4A C5A 1_555 1_555
C4 C5 1_555 1_555
C8 O3 1_555 1_555
C12 C13 1_555 1_555
C14 O4 1_555 1_555
C18 O9 1_555 1_555
C22 C23 1_555 1_555
C24 O10 1_555 1_555
Na1 O3 1_555 1_555
Na1 O4 1_555 1_555
Na1 O5 1_555 1_555
Na1 O7 1_555 1_555
Na1 O9 1_555 1_555
Na1 O10 1_555 1_555
Na1 O11 1_555 1_555
C2A C3A 1_555 1_555
C4A C5A 1_555 1_555

#END
