
#######################################################################
#
#                 Cambridge Crystallographic Data Centre
#                                CCDC 
#
#######################################################################
#
# If this CIF has been generated from an entry in the Cambridge 
# Structural Database, then it will include bibliographic, chemical, 
# crystal, experimental, refinement or atomic coordinate data resulting 
# from the CCDC's data processing and validation procedures.
#
#######################################################################

data_DUQSAL
_chemical_formula_moiety         'C20 H21 N1 O2'
_chemical_name_systematic        
3-(4-butoxy-3-methoxyphenyl)-2-phenylacrylonitrile
_symmetry_cell_setting           monoclinic
_symmetry_space_group_name_H-M   'P 21/c'
_symmetry_Int_Tables_number      14
_space_group_name_Hall           '-P 2ybc'
loop_
_symmetry_equiv_pos_site_id
_symmetry_equiv_pos_as_xyz
1 x,y,z
2 -x,1/2+y,1/2-z
3 -x,-y,-z
4 x,1/2-y,1/2+z
_cell_length_a                   14.268(3)
_cell_length_b                   13.987(3)
_cell_length_c                   18.359(4)
_cell_angle_alpha                90
_cell_angle_beta                 110.28(3)
_cell_angle_gamma                90
_cell_volume                     3436.72
_exptl_crystal_colour            block
_cell_formula_units_Z            8
loop_
_atom_site_label
_atom_site_type_symbol
_atom_site_fract_x
_atom_site_fract_y
_atom_site_fract_z
O1 O 0.14755(13) 0.68589(14) 0.05315(9)
O2 O 0.12570(13) 0.58212(14) 0.16052(10)
C1 C 0.37025(17) 0.69108(18) 0.27205(13)
C2 C 0.21160(18) 0.63448(19) 0.18212(13)
C3 C 0.44955(18) 0.69460(18) 0.34757(13)
H1 H 0.5094 0.7199 0.3465
C4 C 0.38129(18) 0.74442(19) 0.21195(13)
H2 H 0.4390 0.7806 0.2212
C5 C 0.45211(18) 0.66790(18) 0.41886(13)
C6 C 0.22370(18) 0.69154(18) 0.12283(13)
C7 C 0.54097(18) 0.67781(18) 0.49126(13)
C8 C 0.30890(18) 0.7456(2) 0.13827(13)
H3 H 0.3181 0.7829 0.0994
C9 C 0.28296(17) 0.63484(19) 0.25500(13)
H4 H 0.2737 0.5974 0.2939
C10 C 0.3657(2) 0.6289(2) 0.43089(13)
C11 C 0.61720(19) 0.7420(2) 0.49638(15)
H5 H 0.6132 0.7803 0.4540
C12 C 0.5499(2) 0.6224(2) 0.55610(14)
H6 H 0.4993 0.5795 0.5543
N1 N 0.29864(18) 0.5974(2) 0.44407(13)
C13 C 0.15674(19) 0.7400(2) -0.01030(13)
H7 H 0.2140 0.7181 -0.0226
H8 H 0.1660 0.8072 0.0034
C14 C 0.0636(2) 0.7810(2) -0.14990(15)
H9 H 0.1162 0.7555 -0.1665
H10 H 0.0793 0.8474 -0.1356
C15 C 0.6990(2) 0.7495(2) 0.56406(17)
H11 H 0.7494 0.7931 0.5668
C16 C 0.0623(2) 0.7260(2) -0.07912(14)
H12 H 0.0057 0.7468 -0.0655
H13 H 0.0538 0.6585 -0.0917
C17 C 0.6321(2) 0.6297(3) 0.62295(16)
H14 H 0.6367 0.5913 0.6654
C18 C 0.7070(2) 0.6931(2) 0.62743(16)
H15 H 0.7624 0.6981 0.6726
C19 C 0.1125(2) 0.5171(2) 0.21558(15)
H16 H 0.1637 0.4691 0.2276
H17 H 0.0482 0.4872 0.1943
H18 H 0.1167 0.5510 0.2621
C20 C -0.0350(3) 0.7763(3) -0.21762(17)
H19 H -0.0497 0.7110 -0.2337
H20 H -0.0300 0.8133 -0.2602
H21 H -0.0875 0.8016 -0.2018
O3 O 0.84535(13) 0.46687(16) 1.19770(10)
C21 C 0.76960(19) 0.4585(2) 1.12855(14)
C22 C 0.54312(18) 0.4345(2) 0.90492(13)
H22 H 0.4934 0.3922 0.9061
O4 O 0.87745(13) 0.54096(15) 1.07941(10)
C23 C 0.62288(17) 0.44627(19) 0.97955(13)
C24 C 0.78631(18) 0.4981(2) 1.06333(14)
C25 C 0.52742(18) 0.47289(19) 0.83456(13)
C26 C 0.67989(19) 0.4136(2) 1.11777(14)
H23 H 0.6674 0.3873 1.1600
C27 C 0.71536(18) 0.49175(19) 0.99107(14)
H24 H 0.7280 0.5178 0.9488
C28 C 0.60821(19) 0.4075(2) 1.04420(13)
H25 H 0.5483 0.3764 1.0380
C29 C 0.44264(19) 0.44717(19) 0.76304(13)
C30 C 0.4238(2) 0.4981(2) 0.69443(14)
H26 H 0.4642 0.5500 0.6935
C31 C 0.3819(2) 0.3691(2) 0.76167(15)
H27 H 0.3930 0.3332 0.8065
N2 N 0.6433(2) 0.6045(2) 0.81636(15)
C32 C 0.8303(3) 0.4276(2) 1.26428(15)
H28 H 0.8178 0.3594 1.2576
H29 H 0.7734 0.4577 1.2723
C33 C 0.5936(2) 0.5450(2) 0.82526(14)
C34 C 0.3459(2) 0.4731(2) 0.62723(15)
H30 H 0.3342 0.5083 0.5820
C35 C 0.3056(2) 0.3442(2) 0.69461(17)
H31 H 0.2662 0.2912 0.6945
C36 C 0.9000(2) 0.5791(3) 1.01477(17)
H32 H 0.8961 0.5290 0.9781
H33 H 0.9662 0.6055 1.0328
H34 H 0.8527 0.6283 0.9902
C37 C 0.2868(2) 0.3966(3) 0.62774(17)
H35 H 0.2340 0.3801 0.5831
C38 C 0.9241(4) 0.4462(3) 1.3326(2)
H36 H 0.9714 0.4730 1.3109
H37 H 0.9074 0.4975 1.3615
C39 C 0.9681(5) 0.3921(5) 1.3779(4)
H38 H 0.9842 0.3410 1.3485
H39 H 0.9202 0.3654 1.3990
C40 C 1.0627(4) 0.4073(4) 1.4476(3)
H40 H 1.0885 0.4703 1.4454
H41 H 1.1117 0.3606 1.4471
H42 H 1.0477 0.4008 1.4945
loop_
_geom_bond_atom_site_label_1
_geom_bond_atom_site_label_2
_geom_bond_site_symmetry_1
_geom_bond_site_symmetry_2
O1 C6 1_555 1_555
O2 C2 1_555 1_555
C1 C3 1_555 1_555
C2 C6 1_555 1_555
C3 H1 1_555 1_555
C4 C1 1_555 1_555
H2 C4 1_555 1_555
C5 C3 1_555 1_555
C6 C8 1_555 1_555
C7 C5 1_555 1_555
C8 C4 1_555 1_555
H3 C8 1_555 1_555
C9 C1 1_555 1_555
H4 C9 1_555 1_555
C10 C5 1_555 1_555
C11 C7 1_555 1_555
H5 C11 1_555 1_555
C12 C7 1_555 1_555
H6 C12 1_555 1_555
N1 C10 1_555 1_555
C13 O1 1_555 1_555
H7 C13 1_555 1_555
H8 C13 1_555 1_555
C14 H9 1_555 1_555
H10 C14 1_555 1_555
C15 C11 1_555 1_555
H11 C15 1_555 1_555
C16 C13 1_555 1_555
H12 C16 1_555 1_555
H13 C16 1_555 1_555
C17 C12 1_555 1_555
H14 C17 1_555 1_555
C18 C15 1_555 1_555
H15 C18 1_555 1_555
C19 O2 1_555 1_555
H16 C19 1_555 1_555
H17 C19 1_555 1_555
H18 C19 1_555 1_555
C20 C14 1_555 1_555
H19 C20 1_555 1_555
H20 C20 1_555 1_555
H21 C20 1_555 1_555
O3 C21 1_555 1_555
C21 C24 1_555 1_555
C22 H22 1_555 1_555
O4 C24 1_555 1_555
C23 C22 1_555 1_555
C24 C27 1_555 1_555
C25 C22 1_555 1_555
C26 C21 1_555 1_555
H23 C26 1_555 1_555
C27 C23 1_555 1_555
H24 C27 1_555 1_555
C28 C23 1_555 1_555
H25 C28 1_555 1_555
C29 C25 1_555 1_555
C30 C29 1_555 1_555
H26 C30 1_555 1_555
C31 C29 1_555 1_555
H27 C31 1_555 1_555
N2 C33 1_555 1_555
C32 O3 1_555 1_555
H28 C32 1_555 1_555
H29 C32 1_555 1_555
C33 C25 1_555 1_555
C34 C30 1_555 1_555
H30 C34 1_555 1_555
C35 C31 1_555 1_555
H31 C35 1_555 1_555
C36 O4 1_555 1_555
H32 C36 1_555 1_555
H33 C36 1_555 1_555
H34 C36 1_555 1_555
C37 C34 1_555 1_555
H35 C37 1_555 1_555
C38 C32 1_555 1_555
H36 C38 1_555 1_555
H37 C38 1_555 1_555
C39 C38 1_555 1_555
H38 C39 1_555 1_555
H39 C39 1_555 1_555
C40 C39 1_555 1_555
H40 C40 1_555 1_555
H41 C40 1_555 1_555
H42 C40 1_555 1_555
C2 C9 1_555 1_555
C14 C16 1_555 1_555
C17 C18 1_555 1_555
C26 C28 1_555 1_555
C35 C37 1_555 1_555

#END
