
#######################################################################
#
#                 Cambridge Crystallographic Data Centre
#                                CCDC 
#
#######################################################################
#
# If this CIF has been generated from an entry in the Cambridge 
# Structural Database, then it will include bibliographic, chemical, 
# crystal, experimental, refinement or atomic coordinate data resulting 
# from the CCDC's data processing and validation procedures.
#
#######################################################################

data_DUQTEQ
_chemical_formula_moiety         'C20 H29 N1 O7'
_chemical_name_systematic        
5'-(1,4-dioxaspiro[4.5]dec-2-yl)dihydro-2''H-dispiro[cyclohexane-1,2'-furo[2,3-d][1,3]dioxole-6',5''-[1,3]oxazolidin]-2''-one
_symmetry_cell_setting           orthorhombic
_symmetry_space_group_name_H-M   'P 21 21 21'
_symmetry_Int_Tables_number      19
_space_group_name_Hall           'P 2ac 2ab'
loop_
_symmetry_equiv_pos_site_id
_symmetry_equiv_pos_as_xyz
1 x,y,z
2 1/2-x,-y,1/2+z
3 1/2+x,1/2-y,-z
4 -x,1/2+y,1/2-z
_cell_length_a                   5.7556(2)
_cell_length_b                   10.7062(4)
_cell_length_c                   30.9060(14)
_cell_angle_alpha                90
_cell_angle_beta                 90
_cell_angle_gamma                90
_cell_volume                     1904.45
_exptl_crystal_colour            colorless
_exptl_crystal_description       plate
_cell_formula_units_Z            4
loop_
_atom_site_label
_atom_site_type_symbol
_atom_site_fract_x
_atom_site_fract_y
_atom_site_fract_z
O1 O 0.0084(5) 0.2344(2) 0.85009(9)
C1 C -0.0517(7) 0.1054(4) 0.84770(14)
H1 H -0.2173 0.0931 0.8538
C2 C 0.0982(6) 0.0405(4) 0.88186(14)
H2 H 0.0185 -0.0290 0.8962
C3 C 0.1585(7) 0.1470(4) 0.91261(14)
C4 C 0.1939(7) 0.2536(3) 0.88071(14)
H3 H 0.3430 0.2420 0.8659
C5 C 0.1722(7) 0.3889(3) 0.89447(13)
H4 H 0.0280 0.4016 0.9108
C6 C 0.1842(7) 0.4783(4) 0.85688(14)
H5 H 0.2970 0.4507 0.8356
H6 H 0.0339 0.4869 0.8430
O2 O 0.2545(4) 0.5927(2) 0.87649(10)
C7 C 0.3996(6) 0.5606(4) 0.91255(14)
O3 O 0.3694(4) 0.4282(2) 0.91984(9)
C8 C 0.6503(7) 0.5843(4) 0.90130(14)
H7 H 0.6902 0.5381 0.8753
H8 H 0.7486 0.5545 0.9246
C9 C 0.6955(7) 0.7235(4) 0.89385(15)
H9 H 0.8597 0.7367 0.8885
H10 H 0.6103 0.7512 0.8685
C10 C 0.6211(7) 0.8000(4) 0.93278(16)
H11 H 0.6437 0.8880 0.9267
H12 H 0.7169 0.7781 0.9575
C11 C 0.3676(8) 0.7764(4) 0.94356(15)
H13 H 0.2709 0.8053 0.9199
H14 H 0.3257 0.8232 0.9693
C12 C 0.3229(7) 0.6367(3) 0.95135(14)
H15 H 0.4076 0.6095 0.9768
H16 H 0.1586 0.6231 0.9565
O4 O 0.0097(4) 0.0499(3) 0.80848(10)
C13 C 0.2311(7) -0.0134(4) 0.81303(15)
O5 O 0.2962(5) 0.0021(2) 0.85769(9)
C14 C 0.4093(7) 0.0480(4) 0.78437(15)
H17 H 0.5610 0.0127 0.7905
H18 H 0.4155 0.1365 0.7909
C15 C 0.3538(8) 0.0306(4) 0.73621(15)
H19 H 0.4771 0.0667 0.7188
H20 H 0.2102 0.0734 0.7292
C16 C 0.3299(7) -0.1089(4) 0.72567(14)
H21 H 0.2890 -0.1190 0.6954
H22 H 0.4773 -0.1504 0.7305
C17 C 0.1441(8) -0.1684(4) 0.75382(14)
H23 H 0.1355 -0.2571 0.7475
H24 H -0.0056 -0.1316 0.7470
C18 C 0.1959(8) -0.1501(4) 0.80214(14)
H25 H 0.0678 -0.1829 0.8191
H26 H 0.3346 -0.1966 0.8098
O6 O 0.4530(5) 0.0669(3) 1.00566(10)
O7 O 0.3654(4) 0.1225(3) 0.93732(9)
C19 C 0.3077(9) 0.0991(4) 0.97941(16)
N1 N 0.0779(7) 0.1167(4) 0.98507(15)
C20 C -0.0360(7) 0.1640(4) 0.94658(14)
H27 H -0.0791 0.2511 0.9498
H28 H -0.1727 0.1153 0.9394
H29 H 0.007(8) 0.109(5) 1.0122(18)
loop_
_geom_bond_atom_site_label_1
_geom_bond_atom_site_label_2
_geom_bond_site_symmetry_1
_geom_bond_site_symmetry_2
O1 C1 1_555 1_555
C1 H1 1_555 1_555
C2 C1 1_555 1_555
H2 C2 1_555 1_555
C3 C2 1_555 1_555
C4 O1 1_555 1_555
H3 C4 1_555 1_555
C5 C4 1_555 1_555
H4 C5 1_555 1_555
C6 C5 1_555 1_555
H5 C6 1_555 1_555
H6 C6 1_555 1_555
O2 C6 1_555 1_555
C7 O2 1_555 1_555
O3 C5 1_555 1_555
C8 C7 1_555 1_555
H7 C8 1_555 1_555
H8 C8 1_555 1_555
C9 C8 1_555 1_555
H9 C9 1_555 1_555
H10 C9 1_555 1_555
C10 C9 1_555 1_555
H11 C10 1_555 1_555
H12 C10 1_555 1_555
C11 C10 1_555 1_555
H13 C11 1_555 1_555
H14 C11 1_555 1_555
C12 C7 1_555 1_555
H15 C12 1_555 1_555
H16 C12 1_555 1_555
O4 C1 1_555 1_555
C13 O4 1_555 1_555
O5 C2 1_555 1_555
C14 C13 1_555 1_555
H17 C14 1_555 1_555
H18 C14 1_555 1_555
C15 C14 1_555 1_555
H19 C15 1_555 1_555
H20 C15 1_555 1_555
C16 C15 1_555 1_555
H21 C16 1_555 1_555
H22 C16 1_555 1_555
C17 C16 1_555 1_555
H23 C17 1_555 1_555
H24 C17 1_555 1_555
C18 C13 1_555 1_555
H25 C18 1_555 1_555
H26 C18 1_555 1_555
O6 C19 1_555 1_555
O7 C3 1_555 1_555
C19 O7 1_555 1_555
N1 C19 1_555 1_555
C20 C3 1_555 1_555
H27 C20 1_555 1_555
H28 C20 1_555 1_555
H29 N1 1_555 1_555
C3 C4 1_555 1_555
C7 O3 1_555 1_555
C11 C12 1_555 1_555
C13 O5 1_555 1_555
C17 C18 1_555 1_555
N1 C20 1_555 1_555

#END
