
#######################################################################
#
#                 Cambridge Crystallographic Data Centre
#                                CCDC 
#
#######################################################################
#
# If this CIF has been generated from an entry in the Cambridge 
# Structural Database, then it will include bibliographic, chemical, 
# crystal, experimental, refinement or atomic coordinate data resulting 
# from the CCDC's data processing and validation procedures.
#
#######################################################################

data_DUQTIU
_chemical_formula_moiety         'C22 H26 F6 N2 O6 S1'
_chemical_name_systematic        
1-(3,5-bis(trifluoromethyl)phenyl)-3-((5-(2,2-dimethyl-1,3-dioxolan-4-yl)-6-hydroxy-2,2-dimethyltetrahydrofuro[2,3-d][1,3]dioxol-6-yl)methyl)thiourea
_symmetry_cell_setting           orthorhombic
_symmetry_space_group_name_H-M   'P 21 2 21'
_symmetry_Int_Tables_number      18
_space_group_name_Hall           'P 2ac 2ac'
loop_
_symmetry_equiv_pos_site_id
_symmetry_equiv_pos_as_xyz
1 x,y,z
2 1/2-x,-y,1/2+z
3 1/2+x,-y,1/2-z
4 -x,y,-z
_cell_length_a                   9.0198(2)
_cell_length_b                   10.5166(3)
_cell_length_c                   29.4825(10)
_cell_angle_alpha                90
_cell_angle_beta                 90
_cell_angle_gamma                90
_cell_volume                     2796.64
_exptl_crystal_colour            colorless
_exptl_crystal_description       needle
_cell_formula_units_Z            4
loop_
_atom_site_label
_atom_site_type_symbol
_atom_site_fract_x
_atom_site_fract_y
_atom_site_fract_z
O1 O 0.5028(7) 0.6477(6) 0.8444(2)
C1 C 0.4062(9) 0.6852(10) 0.8802(3)
H1 H 0.4366 0.7662 0.8937
C2 C 0.4102(9) 0.5732(10) 0.9160(3)
H2 H 0.4092 0.6030 0.9475
C3 C 0.5516(8) 0.4995(10) 0.9037(3)
C4 C 0.5490(9) 0.5170(9) 0.8512(3)
H3 H 0.4758 0.4593 0.8378
C5 C 0.6960(9) 0.5031(9) 0.8268(3)
H4 H 0.7732 0.5484 0.8437
C6 C 0.6968(10) 0.5466(9) 0.7781(3)
H5 H 0.5986 0.5404 0.7648
H6 H 0.7313 0.6337 0.7756
O2 O 0.7960(7) 0.4619(6) 0.7569(2)
C7 C 0.7683(10) 0.3424(9) 0.7762(3)
O3 O 0.7341(6) 0.3703(6) 0.82374(19)
C8 C 0.9023(10) 0.2626(10) 0.7731(4)
H7 H 0.9232 0.2445 0.7418
H8 H 0.8863 0.1843 0.7892
H9 H 0.9848 0.3069 0.7863
C9 C 0.6329(10) 0.2783(10) 0.7545(4)
H10 H 0.5494 0.3348 0.7559
H11 H 0.6102 0.2013 0.7705
H12 H 0.6543 0.2587 0.7233
O4 O 0.2550(6) 0.6878(6) 0.8659(2)
C10 C 0.1747(10) 0.5839(10) 0.8839(4)
O5 O 0.2838(6) 0.4997(6) 0.9045(2)
C11 C 0.0716(11) 0.6315(12) 0.9214(4)
H13 H 0.0207 0.5606 0.9348
H14 H 0.0005 0.6894 0.9088
H15 H 0.1288 0.6743 0.9442
C12 C 0.0994(11) 0.5075(10) 0.8466(3)
H16 H 0.1726 0.4780 0.8254
H17 H 0.0289 0.5603 0.8311
H18 H 0.0492 0.4359 0.8597
O6 O 0.6716(6) 0.5765(6) 0.9212(2)
H19 H 0.7313 0.5308 0.9344
C13 C 0.5555(9) 0.3668(9) 0.9211(3)
H20 H 0.5282 0.3667 0.9529
H21 H 0.4831 0.3162 0.9048
N1 N 0.7028(7) 0.3084(7) 0.9159(2)
H22 H 0.7237 0.2695 0.8911
C14 C 0.8048(9) 0.3139(9) 0.9485(3)
N2 N 0.9376(8) 0.2621(8) 0.9390(2)
H23 H 1.0094 0.2868 0.9560
S1 S 0.7781(2) 0.3805(2) 0.99994(9)
C15 C 0.9770(9) 0.1714(9) 0.9044(3)
C16 C 0.8779(10) 0.0832(8) 0.8883(3)
H24 H 0.7798 0.0846 0.8980
C17 C 0.9234(10) -0.0054(9) 0.8585(4)
C18 C 1.0667(11) -0.0048(10) 0.8410(4)
H25 H 1.0955 -0.0633 0.8190
C19 C 1.1646(10) 0.0845(10) 0.8571(4)
C20 C 1.1196(9) 0.1722(9) 0.8877(3)
H26 H 1.1860 0.2339 0.8977
C21 C 0.8143(12) -0.1036(13) 0.8404(4)
C22 C 1.3177(14) 0.0862(13) 0.8391(5)
F1 F 0.7234(12) -0.1426(11) 0.8728(4)
F2 F 0.7260(13) -0.0565(9) 0.8103(4)
F3 F 0.8678(8) -0.2066(8) 0.8259(4)
F4 F 1.3481(8) 0.0016(10) 0.8087(4)
F5 F 1.4200(8) 0.0757(11) 0.8712(4)
F6 F 1.3529(11) 0.1952(11) 0.8216(5)
loop_
_geom_bond_atom_site_label_1
_geom_bond_atom_site_label_2
_geom_bond_site_symmetry_1
_geom_bond_site_symmetry_2
O1 C1 1_555 1_555
C1 H1 1_555 1_555
C2 C1 1_555 1_555
H2 C2 1_555 1_555
C3 C2 1_555 1_555
C4 O1 1_555 1_555
H3 C4 1_555 1_555
C5 C4 1_555 1_555
H4 C5 1_555 1_555
C6 C5 1_555 1_555
H5 C6 1_555 1_555
H6 C6 1_555 1_555
O2 C6 1_555 1_555
C7 O2 1_555 1_555
O3 C5 1_555 1_555
C8 C7 1_555 1_555
H7 C8 1_555 1_555
H8 C8 1_555 1_555
H9 C8 1_555 1_555
C9 C7 1_555 1_555
H10 C9 1_555 1_555
H11 C9 1_555 1_555
H12 C9 1_555 1_555
O4 C1 1_555 1_555
C10 O4 1_555 1_555
O5 C2 1_555 1_555
C11 C10 1_555 1_555
H13 C11 1_555 1_555
H14 C11 1_555 1_555
H15 C11 1_555 1_555
C12 C10 1_555 1_555
H16 C12 1_555 1_555
H17 C12 1_555 1_555
H18 C12 1_555 1_555
O6 C3 1_555 1_555
H19 O6 1_555 1_555
C13 C3 1_555 1_555
H20 C13 1_555 1_555
H21 C13 1_555 1_555
N1 C13 1_555 1_555
H22 N1 1_555 1_555
C14 N1 1_555 1_555
N2 C14 1_555 1_555
H23 N2 1_555 1_555
S1 C14 1_555 1_555
C15 N2 1_555 1_555
C16 C15 1_555 1_555
H24 C16 1_555 1_555
C17 C16 1_555 1_555
C18 C17 1_555 1_555
H25 C18 1_555 1_555
C19 C18 1_555 1_555
C20 C15 1_555 1_555
H26 C20 1_555 1_555
C21 C17 1_555 1_555
C22 C19 1_555 1_555
F1 C21 1_555 1_555
F2 C21 1_555 1_555
F3 C21 1_555 1_555
F4 C22 1_555 1_555
F5 C22 1_555 1_555
F6 C22 1_555 1_555
C3 C4 1_555 1_555
C7 O3 1_555 1_555
C10 O5 1_555 1_555
C19 C20 1_555 1_555

#END
