
#######################################################################
#
#                 Cambridge Crystallographic Data Centre
#                                CCDC 
#
#######################################################################
#
# If this CIF has been generated from an entry in the Cambridge 
# Structural Database, then it will include bibliographic, chemical, 
# crystal, experimental, refinement or atomic coordinate data resulting 
# from the CCDC's data processing and validation procedures.
#
#######################################################################

data_DURDOL
_chemical_formula_moiety         'C30 H31 N5'
_chemical_name_systematic        
(2,6-bis(2-(4-(dimethylamino)phenyl)vinyl)-1-ethylpyridin-4(1H)-ylidene)malononitrile
_symmetry_cell_setting           triclinic
_symmetry_space_group_name_H-M   'P -1'
_symmetry_Int_Tables_number      2
_space_group_name_Hall           '-P 1'
loop_
_symmetry_equiv_pos_site_id
_symmetry_equiv_pos_as_xyz
1 x,y,z
2 -x,-y,-z
_cell_length_a                   9.9443(12)
_cell_length_b                   12.2215(14)
_cell_length_c                   21.031(2)
_cell_angle_alpha                80.273(2)
_cell_angle_beta                 79.625(2)
_cell_angle_gamma                82.535(2)
_cell_volume                     2464.97
_exptl_crystal_colour            orange
_exptl_crystal_description       Prism
_cell_formula_units_Z            4
loop_
_atom_site_label
_atom_site_type_symbol
_atom_site_fract_x
_atom_site_fract_y
_atom_site_fract_z
N1 N -0.02609(15) 0.11927(11) 0.29807(7)
N2 N -0.57014(16) 0.22635(14) 0.20704(8)
N3 N -0.59380(16) -0.03850(14) 0.37332(8)
N4 N 0.18182(16) 0.72245(12) 0.00784(7)
N5 N 0.16182(15) -0.43954(13) 0.61663(7)
C1 C 0.14534(19) 0.20572(15) 0.34045(9)
H1 H 0.1106 0.2800 0.3237
H2 H 0.2420 0.2033 0.3411
H3 H 0.0982 0.1849 0.3840
C2 C 0.12199(17) 0.12522(14) 0.29702(8)
H4 H 0.1653 0.1489 0.2525
H5 H 0.1648 0.0515 0.3116
C3 C -0.09273(18) 0.19047(14) 0.25258(8)
C4 C -0.22896(18) 0.18564(14) 0.25181(8)
H6 H -0.2718 0.2343 0.2208
C5 C -0.30683(18) 0.10859(14) 0.29697(8)
C6 C -0.23526(18) 0.04157(14) 0.34448(8)
H7 H -0.2830 -0.0074 0.3768
C7 C -0.09852(18) 0.04608(14) 0.34477(8)
C8 C -0.44580(18) 0.10039(14) 0.29423(8)
C9 C -0.52583(18) 0.02269(14) 0.33810(8)
C10 C -0.51323(18) 0.16966(15) 0.24583(8)
C11 C -0.01288(18) 0.26987(14) 0.20367(8)
H8 H 0.0547 0.2415 0.1722
C12 C -0.03364(18) 0.38001(14) 0.20275(8)
H9 H -0.0928 0.4049 0.2381
C13 C 0.02586(17) 0.46621(14) 0.15254(8)
C14 C 0.08444(18) 0.44602(15) 0.08924(8)
H10 H 0.0902 0.3741 0.0792
C15 C 0.13370(18) 0.52961(15) 0.04146(8)
H11 H 0.1695 0.5136 -0.0003
C16 C 0.13060(17) 0.63922(14) 0.05502(8)
C17 C 0.07353(18) 0.65970(14) 0.11861(8)
H12 H 0.0709 0.7307 0.1294
C18 C 0.02115(18) 0.57484(15) 0.16533(8)
H13 H -0.0185 0.5911 0.2067
C19 C 0.2294(2) 0.70262(16) -0.05900(8)
H14 H 0.2990 0.6404 -0.0595
H15 H 0.2669 0.7678 -0.0844
H16 H 0.1537 0.6865 -0.0773
C20 C 0.1824(2) 0.83282(15) 0.02371(9)
H17 H 0.0895 0.8659 0.0335
H18 H 0.2308 0.8781 -0.0128
H19 H 0.2272 0.8278 0.0611
C21 C -0.02578(18) -0.02456(14) 0.39398(8)
H20 H 0.0472 0.0025 0.4065
C22 C -0.05944(18) -0.12586(14) 0.42167(8)
H21 H -0.1323 -0.1501 0.4075
C23 C 0.00323(18) -0.20340(14) 0.47131(8)
C24 C 0.12207(18) -0.18713(14) 0.49465(8)
H22 H 0.1657 -0.1231 0.4778
C25 C 0.17524(18) -0.26458(15) 0.54222(8)
H23 H 0.2540 -0.2520 0.5568
C26 C 0.11127(18) -0.36247(14) 0.56888(8)
C27 C -0.00696(18) -0.37915(14) 0.54534(8)
H24 H -0.0512 -0.4429 0.5620
C28 C -0.05735(18) -0.30133(14) 0.49775(8)
H25 H -0.1351 -0.3146 0.4826
C29 C 0.08848(19) -0.53553(15) 0.64567(8)
H26 H -0.0006 -0.5109 0.6678
H27 H 0.1393 -0.5827 0.6764
H28 H 0.0782 -0.5766 0.6120
C30 C 0.28962(18) -0.42748(16) 0.63716(9)
H29 H 0.3603 -0.4183 0.5996
H30 H 0.3152 -0.4929 0.6665
H31 H 0.2782 -0.3632 0.6590
N6 N 0.23459(15) 0.90537(12) 0.21316(7)
N7 N -0.31612(17) 1.02993(14) 0.12718(8)
N8 N -0.31740(17) 0.73578(15) 0.27975(8)
N9 N 0.44065(15) 1.46162(13) -0.11814(7)
N10 N 0.43767(15) 0.28517(12) 0.48823(7)
C31 C 0.45322(19) 0.82625(16) 0.15519(9)
H32 H 0.4161 0.7556 0.1634
H33 H 0.5507 0.8143 0.1549
H34 H 0.4351 0.8655 0.1136
C32 C 0.38698(18) 0.89443(15) 0.20825(8)
H35 H 0.4126 0.8585 0.2497
H36 H 0.4193 0.9679 0.1984
C33 C 0.16996(18) 0.98038(14) 0.16852(8)
C34 C 0.03221(18) 0.97690(14) 0.16768(8)
H37 H -0.0115 1.0305 0.1392
C35 C -0.04483(18) 0.89559(14) 0.20820(8)
C36 C 0.02707(18) 0.82017(14) 0.25270(8)
H38 H -0.0191 0.7652 0.2811
C37 C 0.16199(18) 0.82630(14) 0.25485(8)
C38 C -0.18447(18) 0.88911(14) 0.20549(8)
C39 C -0.25610(18) 0.96641(14) 0.16200(8)
C40 C -0.25906(18) 0.80485(15) 0.24696(9)
C41 C 0.24918(18) 1.06314(14) 0.12369(8)
H39 H 0.3264 1.0837 0.1361
C42 C 0.21522(18) 1.11065(14) 0.06541(8)
H40 H 0.1413 1.0842 0.0534
C43 C 0.27958(18) 1.19782(15) 0.01906(8)
C44 C 0.40050(19) 1.23914(15) 0.02458(8)
H41 H 0.4455 1.2087 0.0596
C45 C 0.45537(19) 1.32421(15) -0.02067(8)
H42 H 0.5375 1.3485 -0.0161
C46 C 0.38876(18) 1.37493(14) -0.07384(8)
C47 C 0.26636(18) 1.33323(15) -0.07939(8)
H43 H 0.2195 1.3645 -0.1137
C48 C 0.21557(18) 1.24662(15) -0.03444(8)
H44 H 0.1358 1.2196 -0.0398
C49 C 0.5734(2) 1.49570(16) -0.11619(10)
H45 H 0.5789 1.5044 -0.0723
H46 H 0.5852 1.5654 -0.1444
H47 H 0.6443 1.4399 -0.1306
C50 C 0.3816(2) 1.49882(17) -0.17736(9)
H48 H 0.3915 1.4382 -0.2021
H49 H 0.4283 1.5595 -0.2031
H50 H 0.2858 1.5234 -0.1661
C51 C 0.23238(18) 0.74590(15) 0.30220(8)
H51 H 0.2706 0.7725 0.3331
C52 C 0.24237(17) 0.63604(15) 0.30164(8)
H52 H 0.2133 0.6136 0.2667
C53 C 0.29391(17) 0.54689(14) 0.34979(8)
C54 C 0.29392(17) 0.56254(14) 0.41441(8)
H53 H 0.2628 0.6322 0.4268
C55 C 0.33911(17) 0.47693(15) 0.46011(8)
H54 H 0.3366 0.4899 0.5027
C56 C 0.38859(17) 0.37120(14) 0.44349(8)
C57 C 0.38806(17) 0.35474(14) 0.37847(8)
H55 H 0.4200 0.2855 0.3658
C58 C 0.34039(18) 0.44082(15) 0.33372(8)
H56 H 0.3393 0.4275 0.2916
C59 C 0.4216(2) 0.29902(15) 0.55659(9)
H57 H 0.4554 0.3676 0.5598
H58 H 0.4726 0.2377 0.5797
H59 H 0.3261 0.3009 0.5755
C60 C 0.4576(2) 0.17156(14) 0.47409(9)
H60 H 0.3723 0.1507 0.4670
H61 H 0.4886 0.1221 0.5103
H62 H 0.5251 0.1666 0.4355
loop_
_geom_bond_atom_site_label_1
_geom_bond_atom_site_label_2
_geom_bond_site_symmetry_1
_geom_bond_site_symmetry_2
N1 C2 1_555 1_555
N2 C10 1_555 1_555
N3 C9 1_555 1_555
N4 C16 1_555 1_555
N5 C26 1_555 1_555
C1 H1 1_555 1_555
H2 C1 1_555 1_555
H3 C1 1_555 1_555
C2 C1 1_555 1_555
H4 C2 1_555 1_555
H5 C2 1_555 1_555
C3 N1 1_555 1_555
C4 C3 1_555 1_555
H6 C4 1_555 1_555
C5 C4 1_555 1_555
C6 C5 1_555 1_555
H7 C6 1_555 1_555
C7 N1 1_555 1_555
C8 C5 1_555 1_555
C9 C8 1_555 1_555
C10 C8 1_555 1_555
C11 C3 1_555 1_555
H8 C11 1_555 1_555
C12 C11 1_555 1_555
H9 C12 1_555 1_555
C13 C12 1_555 1_555
C14 C13 1_555 1_555
H10 C14 1_555 1_555
C15 C14 1_555 1_555
H11 C15 1_555 1_555
C16 C15 1_555 1_555
C17 C16 1_555 1_555
H12 C17 1_555 1_555
C18 C13 1_555 1_555
H13 C18 1_555 1_555
C19 N4 1_555 1_555
H14 C19 1_555 1_555
H15 C19 1_555 1_555
H16 C19 1_555 1_555
C20 N4 1_555 1_555
H17 C20 1_555 1_555
H18 C20 1_555 1_555
H19 C20 1_555 1_555
C21 C7 1_555 1_555
H20 C21 1_555 1_555
C22 C21 1_555 1_555
H21 C22 1_555 1_555
C23 C22 1_555 1_555
C24 C23 1_555 1_555
H22 C24 1_555 1_555
C25 C24 1_555 1_555
H23 C25 1_555 1_555
C26 C25 1_555 1_555
C27 C26 1_555 1_555
H24 C27 1_555 1_555
C28 C23 1_555 1_555
H25 C28 1_555 1_555
C29 N5 1_555 1_555
H26 C29 1_555 1_555
H27 C29 1_555 1_555
H28 C29 1_555 1_555
C30 N5 1_555 1_555
H29 C30 1_555 1_555
H30 C30 1_555 1_555
H31 C30 1_555 1_555
N6 C32 1_555 1_555
N7 C39 1_555 1_555
N8 C40 1_555 1_555
N9 C46 1_555 1_555
N10 C56 1_555 1_555
C31 H32 1_555 1_555
H33 C31 1_555 1_555
H34 C31 1_555 1_555
C32 C31 1_555 1_555
H35 C32 1_555 1_555
H36 C32 1_555 1_555
C33 N6 1_555 1_555
C34 C33 1_555 1_555
H37 C34 1_555 1_555
C35 C34 1_555 1_555
C36 C35 1_555 1_555
H38 C36 1_555 1_555
C37 N6 1_555 1_555
C38 C35 1_555 1_555
C39 C38 1_555 1_555
C40 C38 1_555 1_555
C41 C33 1_555 1_555
H39 C41 1_555 1_555
C42 C41 1_555 1_555
H40 C42 1_555 1_555
C43 C42 1_555 1_555
C44 C43 1_555 1_555
H41 C44 1_555 1_555
C45 C44 1_555 1_555
H42 C45 1_555 1_555
C46 C45 1_555 1_555
C47 C46 1_555 1_555
H43 C47 1_555 1_555
C48 C43 1_555 1_555
H44 C48 1_555 1_555
C49 N9 1_555 1_555
H45 C49 1_555 1_555
H46 C49 1_555 1_555
H47 C49 1_555 1_555
C50 N9 1_555 1_555
H48 C50 1_555 1_555
H49 C50 1_555 1_555
H50 C50 1_555 1_555
C51 C37 1_555 1_555
H51 C51 1_555 1_555
C52 C51 1_555 1_555
H52 C52 1_555 1_555
C53 C52 1_555 1_555
C54 C53 1_555 1_555
H53 C54 1_555 1_555
C55 C54 1_555 1_555
H54 C55 1_555 1_555
C56 C55 1_555 1_555
C57 C56 1_555 1_555
H55 C57 1_555 1_555
C58 C53 1_555 1_555
H56 C58 1_555 1_555
C59 N10 1_555 1_555
H57 C59 1_555 1_555
H58 C59 1_555 1_555
H59 C59 1_555 1_555
C60 N10 1_555 1_555
H60 C60 1_555 1_555
H61 C60 1_555 1_555
H62 C60 1_555 1_555
C6 C7 1_555 1_555
C17 C18 1_555 1_555
C27 C28 1_555 1_555
C36 C37 1_555 1_555
C47 C48 1_555 1_555
C57 C58 1_555 1_555

#END
