
#######################################################################
#
#                 Cambridge Crystallographic Data Centre
#                                CCDC 
#
#######################################################################
#
# If this CIF has been generated from an entry in the Cambridge 
# Structural Database, then it will include bibliographic, chemical, 
# crystal, experimental, refinement or atomic coordinate data resulting 
# from the CCDC's data processing and validation procedures.
#
#######################################################################

data_DURKUY
_chemical_formula_moiety         'C34 H13 B1 F12 N6 O4'
_chemical_name_systematic        
1,2,3,4,6,7,8,9,11,12,13,14-dodecafluoro-14d-((3,4,5-trimethoxybenzyl)oxy)-14dH-5,9,10,14,14e,15-hexaaza-14d-boradibenzo[2,3:5,6]-s-indaceno[1,8,7-bcde]fluoranthene
_symmetry_cell_setting           monoclinic
_symmetry_space_group_name_H-M   'P 21/n'
_symmetry_Int_Tables_number      14
_space_group_name_Hall           '-P 2yn'
loop_
_symmetry_equiv_pos_site_id
_symmetry_equiv_pos_as_xyz
1 x,y,z
2 1/2-x,1/2+y,1/2-z
3 -x,-y,-z
4 1/2+x,1/2-y,1/2+z
_cell_length_a                   11.4236(1)
_cell_length_b                   22.6775(3)
_cell_length_c                   12.4717(2)
_cell_angle_alpha                90
_cell_angle_beta                 104.3081(6)
_cell_angle_gamma                90
_cell_volume                     3130.68
_exptl_crystal_colour            red
_exptl_crystal_description       plate
_cell_formula_units_Z            4
loop_
_atom_site_label
_atom_site_type_symbol
_atom_site_fract_x
_atom_site_fract_y
_atom_site_fract_z
C1 C 0.70400(19) 0.04846(9) 0.59282(17)
B1 B 0.5279(2) 0.11620(11) 0.5284(2)
N1 N 0.65694(16) 0.09980(8) 0.54420(15)
N2 N 0.53453(16) 0.17916(8) 0.56763(15)
N3 N 0.48971(16) 0.08509(8) 0.62098(14)
N4 N 0.64664(16) 0.01348(8) 0.65015(15)
N5 N 0.72330(17) 0.19834(8) 0.52747(15)
N6 N 0.39077(16) 0.16865(8) 0.67423(15)
O1 O 0.46156(13) 0.10592(6) 0.41844(12)
O2 O 0.49346(14) 0.30991(7) 0.25424(13)
O3 O 0.29756(14) 0.37000(6) 0.27808(12)
O4 O 0.13163(14) 0.31966(7) 0.36434(13)
F1 F 0.90380(11) -0.04407(5) 0.66271(10)
F2 F 1.13093(11) -0.01266(6) 0.65196(11)
F3 F 1.17321(11) 0.09269(6) 0.57258(11)
F4 F 0.99487(12) 0.17271(6) 0.50608(11)
F5 F 0.72807(12) 0.34122(6) 0.54444(11)
F6 F 0.60786(13) 0.43329(5) 0.60511(11)
F7 F 0.40426(12) 0.41615(6) 0.67323(11)
F8 F 0.32118(12) 0.30618(6) 0.69471(11)
F9 F 0.25059(12) 0.10726(6) 0.83849(11)
F10 F 0.26086(12) 0.01074(6) 0.96868(11)
F11 F 0.41172(12) -0.07878(6) 0.95830(11)
F12 F 0.56044(12) -0.07490(5) 0.82069(11)
C2 C 0.8303(2) 0.04973(9) 0.59151(18)
C3 C 0.9239(2) 0.01007(9) 0.62705(17)
C4 C 1.0388(2) 0.02558(10) 0.62183(18)
C5 C 1.06079(19) 0.08012(10) 0.58033(18)
C6 C 0.9699(2) 0.12051(10) 0.54611(18)
C7 C 0.8530(2) 0.10628(10) 0.55131(18)
C8 C 0.74195(19) 0.13941(10) 0.53174(17)
C9 C 0.6209(2) 0.21693(9) 0.55198(18)
C10 C 0.5833(2) 0.27482(9) 0.58332(18)
C11 C 0.6288(2) 0.33121(10) 0.58074(19)
C12 C 0.5687(2) 0.37804(9) 0.61303(19)
C13 C 0.4649(2) 0.36918(10) 0.64951(19)
C14 C 0.4216(2) 0.31302(10) 0.65827(19)
C15 C 0.4790(2) 0.26560(10) 0.62476(18)
C16 C 0.45589(19) 0.20215(9) 0.62168(18)
C17 C 0.41694(19) 0.11078(10) 0.67964(18)
C18 C 0.40003(19) 0.06594(9) 0.75779(18)
C19 C 0.3278(2) 0.06352(10) 0.83238(19)
C20 C 0.3317(2) 0.01462(11) 0.89765(19)
C21 C 0.4102(2) -0.03163(10) 0.89252(19)
C22 C 0.4851(2) -0.02987(10) 0.82118(19)
C23 C 0.47932(19) 0.01836(9) 0.75173(18)
C24 C 0.5429(2) 0.03416(9) 0.66779(18)
C25 C 0.3397(2) 0.12579(9) 0.38351(19)
H1 H 0.2978 0.1170 0.4423
H2 H 0.2983 0.1036 0.3165
C26 C 0.3297(2) 0.19140(9) 0.35818(18)
C27 C 0.4171(2) 0.21859(10) 0.31556(18)
H3 H 0.4823 0.1962 0.3023
C28 C 0.4093(2) 0.27906(10) 0.29202(18)
C29 C 0.3109(2) 0.31113(9) 0.30817(18)
C30 C 0.2237(2) 0.28364(10) 0.35099(18)
C31 C 0.2332(2) 0.22358(10) 0.37734(18)
H4 H 0.1745 0.2050 0.4080
C32 C 0.5985(2) 0.27776(11) 0.2442(2)
H5 H 0.6389 0.2609 0.3162
H6 H 0.6540 0.3045 0.2195
H7 H 0.5742 0.2460 0.1901
C33 C 0.3457(2) 0.41017(10) 0.3664(2)
H8 H 0.3094 0.4022 0.4284
H9 H 0.3272 0.4507 0.3406
H10 H 0.4335 0.4051 0.3908
C34 C 0.0474(2) 0.29524(10) 0.4200(2)
H11 H 0.0040 0.2625 0.3764
H12 H -0.0104 0.3257 0.4287
H13 H 0.0909 0.2808 0.4931
loop_
_geom_bond_atom_site_label_1
_geom_bond_atom_site_label_2
_geom_bond_site_symmetry_1
_geom_bond_site_symmetry_2
C1 N1 1_555 1_555
B1 N1 1_555 1_555
N1 C8 1_555 1_555
N2 B1 1_555 1_555
N3 B1 1_555 1_555
N4 C1 1_555 1_555
N5 C8 1_555 1_555
N6 C16 1_555 1_555
O1 B1 1_555 1_555
O2 C28 1_555 1_555
O3 C29 1_555 1_555
O4 C30 1_555 1_555
F1 C3 1_555 1_555
F2 C4 1_555 1_555
F3 C5 1_555 1_555
F4 C6 1_555 1_555
F5 C11 1_555 1_555
F6 C12 1_555 1_555
F7 C13 1_555 1_555
F8 C14 1_555 1_555
F9 C19 1_555 1_555
F10 C20 1_555 1_555
F11 C21 1_555 1_555
F12 C22 1_555 1_555
C2 C1 1_555 1_555
C3 C2 1_555 1_555
C4 C3 1_555 1_555
C5 C4 1_555 1_555
C6 C5 1_555 1_555
C7 C2 1_555 1_555
C8 C7 1_555 1_555
C9 N2 1_555 1_555
C10 C9 1_555 1_555
C11 C10 1_555 1_555
C12 C11 1_555 1_555
C13 C12 1_555 1_555
C14 C13 1_555 1_555
C15 C10 1_555 1_555
C16 N2 1_555 1_555
C17 N3 1_555 1_555
C18 C17 1_555 1_555
C19 C18 1_555 1_555
C20 C19 1_555 1_555
C21 C20 1_555 1_555
C22 C21 1_555 1_555
C23 C18 1_555 1_555
C24 N3 1_555 1_555
C25 O1 1_555 1_555
H1 C25 1_555 1_555
H2 C25 1_555 1_555
C26 C25 1_555 1_555
C27 C26 1_555 1_555
H3 C27 1_555 1_555
C28 C27 1_555 1_555
C29 C28 1_555 1_555
C30 C29 1_555 1_555
C31 C26 1_555 1_555
H4 C31 1_555 1_555
C32 O2 1_555 1_555
H5 C32 1_555 1_555
H6 C32 1_555 1_555
H7 C32 1_555 1_555
C33 O3 1_555 1_555
H8 C33 1_555 1_555
H9 C33 1_555 1_555
H10 C33 1_555 1_555
C34 O4 1_555 1_555
H11 C34 1_555 1_555
H12 C34 1_555 1_555
H13 C34 1_555 1_555
N4 C24 1_555 1_555
N5 C9 1_555 1_555
N6 C17 1_555 1_555
C6 C7 1_555 1_555
C14 C15 1_555 1_555
C15 C16 1_555 1_555
C22 C23 1_555 1_555
C23 C24 1_555 1_555
C30 C31 1_555 1_555

#END
