
#######################################################################
#
#                 Cambridge Crystallographic Data Centre
#                                CCDC 
#
#######################################################################
#
# If this CIF has been generated from an entry in the Cambridge 
# Structural Database, then it will include bibliographic, chemical, 
# crystal, experimental, refinement or atomic coordinate data resulting 
# from the CCDC's data processing and validation procedures.
#
#######################################################################

data_DURPEN02
_chemical_formula_moiety         'C25 H24 O12 P4'
_chemical_name_systematic        
'(methanetetrayltetra-4,1-phenylene)tetrakis(phosphonic acid)'
_symmetry_cell_setting           tetragonal
_symmetry_space_group_name_H-M   'I -4'
_symmetry_Int_Tables_number      82
_space_group_name_Hall           'I -4'
loop_
_symmetry_equiv_pos_site_id
_symmetry_equiv_pos_as_xyz
1 x,y,z
2 -x,-y,z
3 y,-x,-z
4 -y,x,-z
5 1/2+x,1/2+y,1/2+z
6 1/2-x,1/2-y,1/2+z
7 1/2+y,1/2-x,1/2-z
8 1/2-y,1/2+x,1/2-z
_cell_length_a                   13.2646(7)
_cell_length_b                   13.2646(7)
_cell_length_c                   7.5238(5)
_cell_angle_alpha                90
_cell_angle_beta                 90
_cell_angle_gamma                90
_cell_volume                     1323.81
_exptl_crystal_colour            colorless
_exptl_crystal_description       block
_cell_formula_units_Z            2
loop_
_atom_site_label
_atom_site_type_symbol
_atom_site_fract_x
_atom_site_fract_y
_atom_site_fract_z
C1 C 0.0164(3) 0.0904(3) 0.6259(6)
C2 C 0.1036(4) 0.1492(4) 0.6299(7)
H1 H 0.1555 0.1357 0.5503
C3 C 0.1140(4) 0.2269(4) 0.7502(7)
H2 H 0.1726 0.2653 0.7513
C4 C 0.0368(4) 0.2480(4) 0.8701(6)
C5 C -0.0495(4) 0.1892(4) 0.8706(7)
H3 H -0.1010 0.2022 0.9512
C6 C -0.0584(4) 0.1110(4) 0.7502(6)
H4 H -0.1161 0.0711 0.7523
C7 C 0.0000 0.0000 0.5000
O1 O -0.0599(3) 0.3916(3) 1.0610(5)
O2 O 0.1094(4) 0.4314(3) 0.9275(6)
H5 H 0.1647 0.4069 0.9048
O3 O 0.0996(5) 0.3124(4) 1.1842(6)
H6 H 0.0977 0.3552 1.2628
P1 P 0.04267(10) 0.35115(9) 1.01961(15)
C1A C -0.0164(3) -0.0904(3) 0.6259(6)
C2A C -0.1036(4) -0.1492(4) 0.6299(7)
H1A H -0.1555 -0.1357 0.5503
C3A C -0.1140(4) -0.2269(4) 0.7502(7)
H2A H -0.1726 -0.2653 0.7513
C4A C -0.0368(4) -0.2480(4) 0.8701(6)
C5A C 0.0495(4) -0.1892(4) 0.8706(7)
H3A H 0.1010 -0.2022 0.9512
C6A C 0.0584(4) -0.1110(4) 0.7502(6)
H4A H 0.1161 -0.0711 0.7523
O1A O 0.0599(3) -0.3916(3) 1.0610(5)
O2A O -0.1094(4) -0.4314(3) 0.9275(6)
H5A H -0.1647 -0.4069 0.9048
O3A O -0.0996(5) -0.3124(4) 1.1842(6)
H6A H -0.0977 -0.3552 1.2628
P1A P -0.04267(10) -0.35115(9) 1.01961(15)
C1B C 0.0904(3) -0.0164(3) 0.3741(6)
C2B C 0.1492(4) -0.1036(4) 0.3701(7)
H1B H 0.1357 -0.1555 0.4497
C3B C 0.2269(4) -0.1140(4) 0.2498(7)
H2B H 0.2653 -0.1726 0.2487
C4B C 0.2480(4) -0.0368(4) 0.1299(6)
C5B C 0.1892(4) 0.0495(4) 0.1294(7)
H3B H 0.2022 0.1010 0.0488
C6B C 0.1110(4) 0.0584(4) 0.2498(6)
H4B H 0.0711 0.1161 0.2477
O1B O 0.3916(3) 0.0599(3) -0.0610(5)
O2B O 0.4314(3) -0.1094(4) 0.0725(6)
H5B H 0.4069 -0.1647 0.0952
O3B O 0.3124(4) -0.0996(5) -0.1842(6)
H6B H 0.3552 -0.0977 -0.2628
P1B P 0.35115(9) -0.04267(10) -0.01961(15)
C1C C -0.0904(3) 0.0164(3) 0.3741(6)
C2C C -0.1492(4) 0.1036(4) 0.3701(7)
H1C H -0.1357 0.1555 0.4497
C3C C -0.2269(4) 0.1140(4) 0.2498(7)
H2C H -0.2653 0.1726 0.2487
C4C C -0.2480(4) 0.0368(4) 0.1299(6)
C5C C -0.1892(4) -0.0495(4) 0.1294(7)
H3C H -0.2022 -0.1010 0.0488
C6C C -0.1110(4) -0.0584(4) 0.2498(6)
H4C H -0.0711 -0.1161 0.2477
O1C O -0.3916(3) -0.0599(3) -0.0610(5)
O2C O -0.4314(3) 0.1094(4) 0.0725(6)
H5C H -0.4069 0.1647 0.0952
O3C O -0.3124(4) 0.0996(5) -0.1842(6)
H6C H -0.3552 0.0977 -0.2628
P1C P -0.35115(9) 0.04267(10) -0.01961(15)
loop_
_geom_bond_atom_site_label_1
_geom_bond_atom_site_label_2
_geom_bond_site_symmetry_1
_geom_bond_site_symmetry_2
C1 C2 1_555 1_555
C2 H1 1_555 1_555
C3 C2 1_555 1_555
H2 C3 1_555 1_555
C4 C3 1_555 1_555
C5 C4 1_555 1_555
H3 C5 1_555 1_555
C6 C1 1_555 1_555
H4 C6 1_555 1_555
C7 C1 1_555 1_555
O1 P1 1_555 1_555
O2 H5 1_555 1_555
O3 H6 1_555 1_555
P1 C4 1_555 1_555
C1A C7 1_555 1_555
C2A C1A 1_555 1_555
H1A C2A 1_555 1_555
C3A C2A 1_555 1_555
H2A C3A 1_555 1_555
C4A C3A 1_555 1_555
C5A C4A 1_555 1_555
H3A C5A 1_555 1_555
C6A C1A 1_555 1_555
H4A C6A 1_555 1_555
O1A P1A 1_555 1_555
O2A H5A 1_555 1_555
O3A H6A 1_555 1_555
P1A C4A 1_555 1_555
C1B C7 1_555 1_555
C2B C1B 1_555 1_555
H1B C2B 1_555 1_555
C3B C2B 1_555 1_555
H2B C3B 1_555 1_555
C4B C3B 1_555 1_555
C5B C4B 1_555 1_555
H3B C5B 1_555 1_555
C6B C1B 1_555 1_555
H4B C6B 1_555 1_555
O1B P1B 1_555 1_555
O2B H5B 1_555 1_555
O3B H6B 1_555 1_555
P1B C4B 1_555 1_555
C1C C7 1_555 1_555
C2C C1C 1_555 1_555
H1C C2C 1_555 1_555
C3C C2C 1_555 1_555
H2C C3C 1_555 1_555
C4C C3C 1_555 1_555
C5C C4C 1_555 1_555
H3C C5C 1_555 1_555
C6C C1C 1_555 1_555
H4C C6C 1_555 1_555
O1C P1C 1_555 1_555
O2C H5C 1_555 1_555
O3C H6C 1_555 1_555
P1C C4C 1_555 1_555
C5 C6 1_555 1_555
O2 P1 1_555 1_555
O3 P1 1_555 1_555
C5A C6A 1_555 1_555
O2A P1A 1_555 1_555
O3A P1A 1_555 1_555
C5B C6B 1_555 1_555
O2B P1B 1_555 1_555
O3B P1B 1_555 1_555
C5C C6C 1_555 1_555
O2C P1C 1_555 1_555
O3C P1C 1_555 1_555

#END
