
#######################################################################
#
#                 Cambridge Crystallographic Data Centre
#                                CCDC 
#
#######################################################################
#
# If this CIF has been generated from an entry in the Cambridge 
# Structural Database, then it will include bibliographic, chemical, 
# crystal, experimental, refinement or atomic coordinate data resulting 
# from the CCDC's data processing and validation procedures.
#
#######################################################################

data_DUSBAV
_chemical_name_common            9-Ethyl-3-formyl-9H-carbazole
_chemical_formula_moiety         'C15 H13 N1 O1'
_chemical_name_systematic        9-Ethyl-9H-carbazole-3-carbaldehyde
_symmetry_cell_setting           monoclinic
_symmetry_space_group_name_H-M   'P 21/n'
_symmetry_Int_Tables_number      14
_space_group_name_Hall           '-P 2yn'
loop_
_symmetry_equiv_pos_site_id
_symmetry_equiv_pos_as_xyz
1 x,y,z
2 1/2-x,1/2+y,1/2-z
3 -x,-y,-z
4 1/2+x,1/2-y,1/2+z
_cell_length_a                   10.6523(10)
_cell_length_b                   8.2312(6)
_cell_length_c                   13.8005(12)
_cell_angle_alpha                90
_cell_angle_beta                 104.3870(10)
_cell_angle_gamma                90
_cell_volume                     1172.1
_exptl_crystal_colour            colorless
_exptl_crystal_description       block
_cell_formula_units_Z            4
_exptl_crystal_recrystallization_method chloroform/hexane
loop_
_atom_site_label
_atom_site_type_symbol
_atom_site_fract_x
_atom_site_fract_y
_atom_site_fract_z
N1 N 0.23808(16) 0.0604(2) 0.36043(12)
O1 O 0.83067(17) 0.1354(3) 0.36513(14)
C1 C 0.3591(2) 0.0376(3) 0.34470(15)
C2 C 0.3972(2) -0.0683(3) 0.27949(16)
H1 H 0.3382 -0.1383 0.2390
C3 C 0.5250(2) -0.0665(3) 0.27648(16)
H2 H 0.5528 -0.1382 0.2340
C4 C 0.6142(2) 0.0397(3) 0.33530(15)
C5 C 0.5753(2) 0.1450(3) 0.40056(14)
H3 H 0.6347 0.2157 0.4401
C6 C 0.44792(19) 0.1444(2) 0.40663(13)
C7 C 0.37450(19) 0.2342(2) 0.46404(14)
C8 C 0.4063(2) 0.3526(3) 0.53694(16)
H4 H 0.4914 0.3886 0.5592
C9 C 0.3104(3) 0.4162(3) 0.57591(18)
H5 H 0.3304 0.4973 0.6242
C10 C 0.1842(3) 0.3611(3) 0.54428(19)
H6 H 0.1211 0.4063 0.5720
C11 C 0.1490(2) 0.2417(3) 0.47318(17)
H7 H 0.0640 0.2049 0.4524
C12 C 0.2467(2) 0.1786(3) 0.43386(15)
C13 C 0.7479(2) 0.0386(3) 0.32700(18)
H8 H 0.7716 -0.0439 0.2890
C14 C 0.1223(2) -0.0304(3) 0.31232(18)
H9 H 0.1251 -0.0561 0.2443
H10 H 0.0467 0.0368 0.3092
C15 C 0.1098(3) -0.1842(4) 0.3666(2)
H11 H 0.1832 -0.2527 0.3679
H12 H 0.0318 -0.2395 0.3329
H13 H 0.1065 -0.1593 0.4339
loop_
_geom_bond_atom_site_label_1
_geom_bond_atom_site_label_2
_geom_bond_site_symmetry_1
_geom_bond_site_symmetry_2
N1 C1 1_555 1_555
O1 C13 1_555 1_555
C1 C2 1_555 1_555
C2 H1 1_555 1_555
C3 C2 1_555 1_555
H2 C3 1_555 1_555
C4 C3 1_555 1_555
C5 C4 1_555 1_555
H3 C5 1_555 1_555
C6 C1 1_555 1_555
C7 C6 1_555 1_555
C8 C7 1_555 1_555
H4 C8 1_555 1_555
C9 C8 1_555 1_555
H5 C9 1_555 1_555
C10 C9 1_555 1_555
H6 C10 1_555 1_555
C11 C10 1_555 1_555
H7 C11 1_555 1_555
C12 N1 1_555 1_555
C13 C4 1_555 1_555
H8 C13 1_555 1_555
C14 N1 1_555 1_555
H9 C14 1_555 1_555
H10 C14 1_555 1_555
C15 C14 1_555 1_555
H11 C15 1_555 1_555
H12 C15 1_555 1_555
H13 C15 1_555 1_555
C5 C6 1_555 1_555
C7 C12 1_555 1_555
C11 C12 1_555 1_555

#END
