
#######################################################################
#
#                 Cambridge Crystallographic Data Centre
#                                CCDC 
#
#######################################################################
#
# If this CIF has been generated from an entry in the Cambridge 
# Structural Database, then it will include bibliographic, chemical, 
# crystal, experimental, refinement or atomic coordinate data resulting 
# from the CCDC's data processing and validation procedures.
#
#######################################################################

data_DUSCUQ
_chemical_formula_moiety         'C21 H19 Br1 O3'
_chemical_name_systematic        
'Ethyl 4-(4-bromophenyl)-6-r-phenyl-2-oxocyclohex-3-ene-1-t-carboxylate'
_symmetry_cell_setting           monoclinic
_symmetry_space_group_name_H-M   'P 21/c'
_symmetry_Int_Tables_number      14
_space_group_name_Hall           '-P 2ybc'
loop_
_symmetry_equiv_pos_site_id
_symmetry_equiv_pos_as_xyz
1 x,y,z
2 -x,1/2+y,1/2-z
3 -x,-y,-z
4 x,1/2-y,1/2+z
_cell_length_a                   11.0138(2)
_cell_length_b                   13.8197(4)
_cell_length_c                   12.1477(3)
_cell_angle_alpha                90
_cell_angle_beta                 95.180(2)
_cell_angle_gamma                90
_cell_volume                     1841.42
_exptl_crystal_colour            colorless
_exptl_crystal_description       prism
_chemical_melting_point          '359 K'
_cell_formula_units_Z            4
_exptl_crystal_recrystallization_method ethanol
loop_
_atom_site_label
_atom_site_type_symbol
_atom_site_fract_x
_atom_site_fract_y
_atom_site_fract_z
Br1 Br -0.27481(3) 0.39721(4) -0.28199(3)
O1 O 0.0731(2) -0.01378(13) 0.24548(16)
O2 O 0.2865(2) 0.06999(16) 0.46249(16)
O3 O 0.3423(2) 0.03049(16) 0.29591(17)
C1 C 0.1736(2) 0.13392(17) 0.30076(18)
C2 C 0.0916(3) 0.07028(17) 0.22341(19)
C3 C 0.0292(2) 0.11697(16) 0.12766(19)
C4 C 0.0424(2) 0.21111(16) 0.10325(16)
C5 C 0.1310(2) 0.27481(16) 0.17181(18)
C6 C 0.2304(2) 0.21756(17) 0.23886(19)
C7 C 0.2729(3) 0.07369(18) 0.3645(2)
C8 C 0.4481(3) -0.0246(3) 0.3446(3)
C9 C 0.4140(4) -0.1191(3) 0.3858(4)
C10 C -0.0332(2) 0.25631(16) 0.01031(17)
C11 C -0.0759(2) 0.20198(18) -0.08178(19)
C12 C -0.1466(2) 0.2436(2) -0.1692(2)
C13 C -0.1767(2) 0.3402(2) -0.1636(2)
C14 C -0.1361(3) 0.3956(2) -0.0745(2)
C15 C -0.0639(3) 0.35454(18) 0.0122(2)
C16 C 0.3109(2) 0.27847(18) 0.3204(2)
C17 C 0.2639(3) 0.3446(2) 0.3907(2)
C18 C 0.3395(4) 0.3930(2) 0.4700(3)
C19 C 0.4603(4) 0.3765(3) 0.4805(3)
C20 C 0.5093(4) 0.3114(3) 0.4118(4)
C21 C 0.4355(3) 0.2627(3) 0.3320(3)
H1 H 0.12304 0.16247 0.35470
H2 H -0.02300 0.07976 0.08038
H3 H 0.08663 0.31299 0.22186
H4 H 0.16886 0.31918 0.12331
H5 H 0.28296 0.18886 0.18667
H6 H 0.50529 -0.03357 0.28925
H7 H 0.48887 0.01232 0.40502
H8 H 0.36252 -0.11051 0.44476
H9 H 0.48618 -0.15375 0.41285
H10 H 0.37100 -0.15507 0.32702
H11 H -0.05654 0.13658 -0.08455
H12 H -0.17342 0.20688 -0.23080
H13 H -0.15706 0.46075 -0.07220
H14 H -0.03540 0.39252 0.07225
H15 H 0.18046 0.35672 0.38471
H16 H 0.30635 0.43742 0.51638
H17 H 0.51027 0.40899 0.53407
H18 H 0.59279 0.29993 0.41900
H19 H 0.46998 0.21897 0.28568
loop_
_geom_bond_atom_site_label_1
_geom_bond_atom_site_label_2
_geom_bond_site_symmetry_1
_geom_bond_site_symmetry_2
Br1 C13 1_555 1_555
O1 C2 1_555 1_555
O2 C7 1_555 1_555
O3 C7 1_555 1_555
C1 C2 1_555 1_555
C2 C3 1_555 1_555
C3 C4 1_555 1_555
C4 C5 1_555 1_555
C5 C6 1_555 1_555
C6 C1 1_555 1_555
C7 C1 1_555 1_555
C8 O3 1_555 1_555
C9 C8 1_555 1_555
C10 C4 1_555 1_555
C11 C10 1_555 1_555
C12 C11 1_555 1_555
C13 C12 1_555 1_555
C14 C13 1_555 1_555
C15 C10 1_555 1_555
C16 C6 1_555 1_555
C17 C16 1_555 1_555
C18 C17 1_555 1_555
C19 C18 1_555 1_555
C20 C19 1_555 1_555
C21 C16 1_555 1_555
H1 C1 1_555 1_555
H2 C3 1_555 1_555
H3 C5 1_555 1_555
H4 C5 1_555 1_555
H5 C6 1_555 1_555
H6 C8 1_555 1_555
H7 C8 1_555 1_555
H8 C9 1_555 1_555
H9 C9 1_555 1_555
H10 C9 1_555 1_555
H11 C11 1_555 1_555
H12 C12 1_555 1_555
H13 C14 1_555 1_555
H14 C15 1_555 1_555
H15 C17 1_555 1_555
H16 C18 1_555 1_555
H17 C19 1_555 1_555
H18 C20 1_555 1_555
H19 C21 1_555 1_555
C14 C15 1_555 1_555
C20 C21 1_555 1_555

#END
