
#######################################################################
#
#                 Cambridge Crystallographic Data Centre
#                                CCDC 
#
#######################################################################
#
# If this CIF has been generated from an entry in the Cambridge 
# Structural Database, then it will include bibliographic, chemical, 
# crystal, experimental, refinement or atomic coordinate data resulting 
# from the CCDC's data processing and validation procedures.
#
#######################################################################

data_DUSCEB
_chemical_formula_moiety         'C15 H20 O1,C15 H18 O1'
_chemical_name_systematic        
'2-allyl-6,7-dimethyl-1,2-dihydronaphthalen-1-ol 6,7-dimethyl-2-propyl-1,2-dihydronaphthalen-1-ol'
_symmetry_cell_setting           monoclinic
_symmetry_space_group_name_H-M   'P 21'
_symmetry_Int_Tables_number      4
_space_group_name_Hall           'P 2yb'
loop_
_symmetry_equiv_pos_site_id
_symmetry_equiv_pos_as_xyz
1 x,y,z
2 -x,1/2+y,-z
_cell_length_a                   14.1080(5)
_cell_length_b                   5.0112(2)
_cell_length_c                   17.5339(7)
_cell_angle_alpha                90
_cell_angle_beta                 94.2616(16)
_cell_angle_gamma                90
_cell_volume                     1236.18
_exptl_crystal_colour            green
_exptl_crystal_description       rod
_cell_formula_units_Z            2
loop_
_atom_site_label
_atom_site_type_symbol
_atom_site_fract_x
_atom_site_fract_y
_atom_site_fract_z
O1 O 0.78260(10) 0.3666(3) 0.25423(8)
H1 H 0.754(2) 0.200(7) 0.2565(16)
C1 C 0.86565(14) 0.3401(4) 0.21268(12)
H2 H 0.8965 0.1666 0.2280
C2 C 0.93488(14) 0.5598(4) 0.23637(12)
C3 C 0.93658(14) 0.6844(5) 0.30723(12)
H3 H 0.8895 0.6394 0.3410
C4 C 1.00571(15) 0.8743(5) 0.33036(14)
C5 C 1.07501(16) 0.9418(5) 0.28007(16)
C6 C 1.07333(15) 0.8134(5) 0.20970(15)
H4 H 1.1206 0.8571 0.1759
C7 C 1.00551(15) 0.6242(5) 0.18685(13)
C8 C 1.00537(18) 0.4823(6) 0.11344(14)
H5 H 1.0602 0.4920 0.0852
C9 C 0.93113(18) 0.3409(6) 0.08528(14)
H6 H 0.9351 0.2453 0.0388
C10 C 0.84081(16) 0.3300(5) 0.12589(12)
H7 H 0.8093 0.1549 0.1136
C11 C 0.77257(15) 0.5536(5) 0.09625(12)
H8 H 0.7159 0.5538 0.1264
H9 H 0.8047 0.7283 0.1037
C12 C 0.74155(16) 0.5187(5) 0.01316(12)
H10 H 0.7058 0.3634 -0.0010
C13 C 0.75986(17) 0.6857(6) -0.04149(13)
H11 H 0.7954 0.8433 -0.0297
H12 H 0.7376 0.6490 -0.0929
C14 C 1.00335(19) 1.0079(6) 0.40712(15)
H13 H 0.9900 1.1985 0.3998
H14 H 1.0650 0.9855 0.4360
H15 H 0.9535 0.9266 0.4355
C15 C 1.14904(18) 1.1502(6) 0.30094(19)
H16 H 1.1179 1.3218 0.3088
H17 H 1.1916 1.1673 0.2595
H18 H 1.1859 1.0973 0.3481
O2 O 0.69741(10) -0.1326(3) 0.25552(9)
H19 H 0.722(2) -0.288(7) 0.2527(17)
C16 C 0.61137(13) -0.1511(5) 0.29353(11)
H20 H 0.5804 -0.3245 0.2783
C17 C 0.54498(14) 0.0706(4) 0.26480(11)
C18 C 0.54892(14) 0.1874(4) 0.19329(11)
H21 H 0.5979 0.1352 0.1621
C19 C 0.48301(14) 0.3795(5) 0.16570(12)
C20 C 0.41075(15) 0.4590(4) 0.21218(13)
C21 C 0.40647(14) 0.3380(5) 0.28321(12)
H22 H 0.3572 0.3885 0.3144
C22 C 0.47168(14) 0.1460(5) 0.31033(12)
C23 C 0.46575(17) 0.0172(6) 0.38462(13)
H23 H 0.4093 0.0374 0.4104
C24 C 0.53677(18) -0.1277(6) 0.41752(12)
H24 H 0.5286 -0.2164 0.4645
C25 C 0.63001(15) -0.1522(5) 0.38100(12)
H25 H 0.6615 -0.3236 0.3974
C26 C 0.6904(3) 0.0828(9) 0.4131(2)
H26 H 0.7546 0.0683 0.3942
H27 H 0.6616 0.2506 0.3926
C27 C 0.7008(3) 0.1022(10) 0.4984(2)
H28 H 0.6705 0.2729 0.5113
H29 H 0.6603 -0.0409 0.5174
C28 C 0.7808(3) 0.0915(11) 0.5412(2)
H30 H 0.8097 -0.0848 0.5363
H31 H 0.7682 0.1226 0.5947
H32 H 0.8242 0.2289 0.5246
C29 C 0.49000(17) 0.5020(5) 0.08773(13)
H33 H 0.4987 0.6953 0.0930
H34 H 0.4315 0.4654 0.0557
H35 H 0.5443 0.4249 0.0638
C30 C 0.34037(16) 0.6720(5) 0.18669(14)
H36 H 0.2932 0.6909 0.2246
H37 H 0.3083 0.6222 0.1372
H38 H 0.3737 0.8419 0.1816
C31? C 0.7115(3) 0.0480(11) 0.4066(2)
H39? H 0.7650 0.0239 0.3737
H40? H 0.6878 0.2330 0.3997
C32? C 0.7465(3) 0.0063(11) 0.4888(2)
H41? H 0.7085 -0.1434 0.5072
H42? H 0.8124 -0.0610 0.4878
C33? C 0.7492(4) 0.1868(11) 0.5433(3)
H43? H 0.7601 0.3632 0.5214
H44? H 0.8008 0.1447 0.5819
H45? H 0.6885 0.1873 0.5672
loop_
_geom_bond_atom_site_label_1
_geom_bond_atom_site_label_2
_geom_bond_site_symmetry_1
_geom_bond_site_symmetry_2
O1 H1 1_555 1_555
C1 O1 1_555 1_555
H2 C1 1_555 1_555
C2 C1 1_555 1_555
C3 C2 1_555 1_555
H3 C3 1_555 1_555
C4 C3 1_555 1_555
C5 C4 1_555 1_555
C6 C5 1_555 1_555
H4 C6 1_555 1_555
C7 C2 1_555 1_555
C8 C7 1_555 1_555
H5 C8 1_555 1_555
C9 C8 1_555 1_555
H6 C9 1_555 1_555
C10 C1 1_555 1_555
H7 C10 1_555 1_555
C11 C10 1_555 1_555
H8 C11 1_555 1_555
H9 C11 1_555 1_555
C12 C11 1_555 1_555
H10 C12 1_555 1_555
C13 C12 1_555 1_555
H11 C13 1_555 1_555
H12 C13 1_555 1_555
C14 C4 1_555 1_555
H13 C14 1_555 1_555
H14 C14 1_555 1_555
H15 C14 1_555 1_555
C15 C5 1_555 1_555
H16 C15 1_555 1_555
H17 C15 1_555 1_555
H18 C15 1_555 1_555
O2 H19 1_555 1_555
C16 O2 1_555 1_555
H20 C16 1_555 1_555
C17 C16 1_555 1_555
C18 C17 1_555 1_555
H21 C18 1_555 1_555
C19 C18 1_555 1_555
C20 C19 1_555 1_555
C21 C20 1_555 1_555
H22 C21 1_555 1_555
C22 C17 1_555 1_555
C23 C22 1_555 1_555
H23 C23 1_555 1_555
C24 C23 1_555 1_555
H24 C24 1_555 1_555
C25 C16 1_555 1_555
H25 C25 1_555 1_555
C26 C25 1_555 1_555
H26 C26 1_555 1_555
H27 C26 1_555 1_555
C27 C26 1_555 1_555
H28 C27 1_555 1_555
H29 C27 1_555 1_555
C28 C27 1_555 1_555
H30 C28 1_555 1_555
H31 C28 1_555 1_555
H32 C28 1_555 1_555
C29 C19 1_555 1_555
H33 C29 1_555 1_555
H34 C29 1_555 1_555
H35 C29 1_555 1_555
C30 C20 1_555 1_555
H36 C30 1_555 1_555
H37 C30 1_555 1_555
H38 C30 1_555 1_555
C6 C7 1_555 1_555
C9 C10 1_555 1_555
C21 C22 1_555 1_555
C24 C25 1_555 1_555

#END
