
#######################################################################
#
#                 Cambridge Crystallographic Data Centre
#                                CCDC 
#
#######################################################################
#
# If this CIF has been generated from an entry in the Cambridge 
# Structural Database, then it will include bibliographic, chemical, 
# crystal, experimental, refinement or atomic coordinate data resulting 
# from the CCDC's data processing and validation procedures.
#
#######################################################################

data_DUSDEB
_chemical_formula_moiety         'C14 H12 N2 O3,H2 O1'
_chemical_name_systematic        'Methyl 4-isonicotinamidobenzoate monohydrate'
_symmetry_cell_setting           triclinic
_symmetry_space_group_name_H-M   'P -1'
_symmetry_Int_Tables_number      2
_space_group_name_Hall           '-P 1'
loop_
_symmetry_equiv_pos_site_id
_symmetry_equiv_pos_as_xyz
1 x,y,z
2 -x,-y,-z
_cell_length_a                   6.8836(3)
_cell_length_b                   8.8810(4)
_cell_length_c                   10.9658(5)
_cell_angle_alpha                96.0620(10)
_cell_angle_beta                 90.8960(10)
_cell_angle_gamma                95.8540(10)
_cell_volume                     662.914
_exptl_crystal_colour            colorless
_exptl_crystal_description       block
_cell_formula_units_Z            2
loop_
_atom_site_label
_atom_site_type_symbol
_atom_site_fract_x
_atom_site_fract_y
_atom_site_fract_z
N1 N 0.02099(15) 0.81758(12) 0.39503(10)
H1 H -0.0956 0.7830 0.3698
N2 N -0.34705(19) 0.52096(14) 0.70330(12)
O1 O 0.61235(16) 1.21607(13) 0.08752(10)
O2 O 0.33143(18) 1.24867(15) -0.00513(11)
O3 O 0.23987(15) 0.81573(15) 0.55168(10)
C1 C 0.7154(3) 1.3157(2) 0.00895(17)
H4 H 0.8527 1.3251 0.0290
H5 H 0.6685 1.4142 0.0207
H6 H 0.6937 1.2740 -0.0751
C2 C 0.4195(2) 1.19167(16) 0.07065(12)
C3 C 0.3244(2) 1.08944(15) 0.15573(11)
C4 C 0.1229(2) 1.05719(15) 0.14751(12)
H7 H 0.0521 1.0974 0.0881
C5 C 0.0271(2) 0.96663(15) 0.22619(12)
H8 H -0.1079 0.9452 0.2192
C6 C 0.13107(19) 0.90658(14) 0.31652(11)
C7 C 0.3329(2) 0.93699(16) 0.32434(12)
H9 H 0.4041 0.8963 0.3833
C8 C 0.4280(2) 1.02781(16) 0.24441(13)
H10 H 0.5633 1.0479 0.2501
C9 C 0.07765(19) 0.78029(15) 0.50566(12)
C10 C -0.07614(19) 0.69056(14) 0.57202(11)
C11 C -0.2737(2) 0.69375(16) 0.55336(12)
H11 H -0.3201 0.7522 0.4959
C12 C -0.4020(2) 0.60887(18) 0.62121(14)
H12 H -0.5351 0.6136 0.6086
C13 C -0.1559(2) 0.51992(17) 0.72155(14)
H13 H -0.1137 0.4597 0.7790
C14 C -0.0171(2) 0.60287(16) 0.66023(13)
H14 H 0.1151 0.6002 0.6778
O4 O 0.30526(15) 1.33795(13) -0.24537(9)
H2 H 0.4223 1.3964 -0.2516
H3 H 0.3142 1.3192 -0.1677
loop_
_geom_bond_atom_site_label_1
_geom_bond_atom_site_label_2
_geom_bond_site_symmetry_1
_geom_bond_site_symmetry_2
N1 H1 1_555 1_555
N2 C12 1_555 1_555
O1 C1 1_555 1_555
O2 C2 1_555 1_555
O3 C9 1_555 1_555
O4 H2 1_555 1_555
H3 O4 1_555 1_555
C1 H4 1_555 1_555
H5 C1 1_555 1_555
H6 C1 1_555 1_555
C2 O1 1_555 1_555
C3 C2 1_555 1_555
C4 C3 1_555 1_555
H7 C4 1_555 1_555
C5 C4 1_555 1_555
H8 C5 1_555 1_555
C6 N1 1_555 1_555
C7 C6 1_555 1_555
H9 C7 1_555 1_555
C8 C3 1_555 1_555
H10 C8 1_555 1_555
C9 N1 1_555 1_555
C10 C9 1_555 1_555
C11 C10 1_555 1_555
H11 C11 1_555 1_555
C12 C11 1_555 1_555
H12 C12 1_555 1_555
C13 N2 1_555 1_555
H13 C13 1_555 1_555
C14 C10 1_555 1_555
H14 C14 1_555 1_555
C5 C6 1_555 1_555
C7 C8 1_555 1_555
C13 C14 1_555 1_555

#END
