
#######################################################################
#
#                 Cambridge Crystallographic Data Centre
#                                CCDC 
#
#######################################################################
#
# If this CIF has been generated from an entry in the Cambridge 
# Structural Database, then it will include bibliographic, chemical, 
# crystal, experimental, refinement or atomic coordinate data resulting 
# from the CCDC's data processing and validation procedures.
#
#######################################################################

data_DUSFON
_chemical_formula_moiety         'C15 H17 N3 O6'
_chemical_name_systematic        
'(2S)-2-(4-Ethyl-2,3-dioxopiperazine-1-carboxamido)-2-(4-hydroxyphenyl)acetic acid'
_symmetry_cell_setting           orthorhombic
_symmetry_space_group_name_H-M   'P 21 21 21'
_symmetry_Int_Tables_number      19
_space_group_name_Hall           'P 2ac 2ab'
loop_
_symmetry_equiv_pos_site_id
_symmetry_equiv_pos_as_xyz
1 x,y,z
2 1/2-x,-y,1/2+z
3 1/2+x,1/2-y,-z
4 -x,1/2+y,1/2-z
_cell_length_a                   11.5899(19)
_cell_length_b                   13.038(2)
_cell_length_c                   20.794(3)
_cell_angle_alpha                90
_cell_angle_beta                 90
_cell_angle_gamma                90
_cell_volume                     3142.16
_exptl_crystal_colour            colorless
_exptl_crystal_description       bar
_cell_formula_units_Z            8
loop_
_atom_site_label
_atom_site_type_symbol
_atom_site_fract_x
_atom_site_fract_y
_atom_site_fract_z
O1 O 0.6862(2) 0.66654(17) 0.51841(12)
C1 C 0.4645(3) 0.3773(2) 0.73859(14)
C2 C 0.5301(3) 0.4183(2) 0.67963(14)
C3 C 0.6229(4) 0.5339(3) 0.75568(14)
H1 H 0.5614 0.5831 0.7630
H2 H 0.6960 0.5696 0.7598
C4 C 0.6161(3) 0.4511(3) 0.80428(14)
H3 H 0.6815 0.4052 0.7994
H4 H 0.6191 0.4805 0.8471
C5 C 0.4652(3) 0.3361(3) 0.85232(14)
H5 H 0.3841 0.3206 0.8457
H6 H 0.4717 0.3781 0.8906
C6 C 0.5296(4) 0.2396(3) 0.86191(19)
H7 H 0.4973 0.2028 0.8976
H8 H 0.6091 0.2549 0.8705
H9 H 0.5242 0.1983 0.8238
C7 C 0.6935(3) 0.5273(2) 0.64418(14)
C8 C 0.78013(16) 0.6197(2) 0.52363(14)
C9 C 0.7784(3) 0.5059(2) 0.53998(13)
H10 H 0.8536 0.4865 0.5578
C10 C 0.7571(3) 0.4445(2) 0.47940(13)
C11 C 0.8371(3) 0.3733(2) 0.45867(14)
H11 H 0.9052 0.3646 0.4817
C12 C 0.8176(3) 0.3146(2) 0.40408(15)
H12 H 0.8723 0.2671 0.3905
C13 C 0.7164(3) 0.3271(2) 0.37011(14)
C14 C 0.6354(3) 0.3972(3) 0.39031(15)
H13 H 0.5671 0.4058 0.3674
C15 C 0.6563(3) 0.4549(2) 0.44491(15)
H14 H 0.6011 0.5018 0.4587
N1 N 0.5094(2) 0.39370(19) 0.79653(11)
N2 N 0.6125(2) 0.49079(18) 0.69051(11)
N3 N 0.6901(2) 0.48256(18) 0.58659(10)
H29 H 0.6357 0.4402 0.5773
O2 O 0.3770(2) 0.3277(2) 0.72961(11)
O3 O 0.50699(18) 0.38196(17) 0.62759(9)
O4 O 0.7594(2) 0.59548(19) 0.65771(11)
O5 O 0.8770(2) 0.65925(18) 0.51346(13)
H32 H 0.687(9) 0.726(3) 0.500(4)
O6 O 0.6918(2) 0.27188(18) 0.31598(10)
H33 H 0.7493 0.2401 0.3046
C16 C 0.4769(4) 1.2845(3) 0.1574(2)
H15 H 0.4413 1.3066 0.1967
H16 H 0.4416 1.3192 0.1218
H17 H 0.5577 1.3003 0.1585
C17 C 0.4611(3) 1.1708(3) 0.14984(15)
H18 H 0.3794 1.1548 0.1495
H19 H 0.4935 1.1492 0.1090
C18 C 0.4657(3) 1.1091(2) 0.25917(14)
C19 C 0.5391(3) 1.0779(2) 0.31764(13)
C20 C 0.6653(3) 0.9982(3) 0.23883(13)
H20 H 0.6198 0.9381 0.2282
H21 H 0.7462 0.9806 0.2344
C21 C 0.6363(3) 1.0832(3) 0.19387(14)
H22 H 0.6867 1.1412 0.2020
H23 H 0.6484 1.0608 0.1499
C22 C 0.7251(3) 1.0017(2) 0.35317(14)
C23 C 0.7895(3) 1.0151(2) 0.46270(13)
H24 H 0.8671 1.0322 0.4474
C24 C 0.78669(17) 0.9022(2) 0.48071(13)
C25 C 0.7646(3) 1.0775(2) 0.52265(13)
C26 C 0.8464(3) 1.1431(2) 0.54761(15)
H25 H 0.9170 1.1500 0.5268
C27 C 0.8258(3) 1.1987(2) 0.60304(14)
H26 H 0.8823 1.2423 0.6193
C28 C 0.7214(3) 1.1894(2) 0.63420(14)
C29 C 0.6382(3) 1.1250(3) 0.60949(15)
H27 H 0.5673 1.1188 0.6301
C30 C 0.6598(3) 1.0695(2) 0.55422(15)
H28 H 0.6032 1.0262 0.5380
N4 N 0.5174(2) 1.11428(19) 0.20220(11)
N5 N 0.6415(2) 1.02945(18) 0.30565(10)
N6 N 0.7073(2) 1.03845(17) 0.41218(10)
H30 H 0.6477 1.0756 0.4202
O7 O 0.3658(2) 1.1346(2) 0.26865(11)
O8 O 0.50410(18) 1.10077(18) 0.37060(9)
O9 O 0.8068(2) 0.94970(17) 0.33806(10)
O10 O 0.8777(2) 0.86393(17) 0.50285(12)
O11 O 0.6930(2) 0.85492(17) 0.47513(12)
H34 H 0.679(8) 0.800(4) 0.496(4)
O12 O 0.6966(2) 1.24064(19) 0.68955(10)
H35 H 0.7521 1.2758 0.7000
H31? H 0.900(8) 0.722(3) 0.509(4)
H36? H 0.881(7) 0.798(2) 0.503(4)
loop_
_geom_bond_atom_site_label_1
_geom_bond_atom_site_label_2
_geom_bond_site_symmetry_1
_geom_bond_site_symmetry_2
O1 C8 1_555 1_555
C1 C2 1_555 1_555
C2 N2 1_555 1_555
C3 H1 1_555 1_555
H2 C3 1_555 1_555
C4 C3 1_555 1_555
H3 C4 1_555 1_555
H4 C4 1_555 1_555
C5 H5 1_555 1_555
H6 C5 1_555 1_555
C6 C5 1_555 1_555
H7 C6 1_555 1_555
H8 C6 1_555 1_555
H9 C6 1_555 1_555
C7 N2 1_555 1_555
C8 C9 1_555 1_555
C9 H10 1_555 1_555
C10 C9 1_555 1_555
C11 C10 1_555 1_555
H11 C11 1_555 1_555
C12 C11 1_555 1_555
H12 C12 1_555 1_555
C13 C12 1_555 1_555
C14 C13 1_555 1_555
H13 C14 1_555 1_555
C15 C10 1_555 1_555
H14 C15 1_555 1_555
C16 H15 1_555 1_555
H16 C16 1_555 1_555
H17 C16 1_555 1_555
C17 C16 1_555 1_555
H18 C17 1_555 1_555
H19 C17 1_555 1_555
C18 C19 1_555 1_555
C19 N5 1_555 1_555
C20 H20 1_555 1_555
H21 C20 1_555 1_555
C21 C20 1_555 1_555
H22 C21 1_555 1_555
H23 C21 1_555 1_555
C22 N5 1_555 1_555
C23 H24 1_555 1_555
C24 C23 1_555 1_555
C25 C23 1_555 1_555
C26 C25 1_555 1_555
H25 C26 1_555 1_555
C27 C26 1_555 1_555
H26 C27 1_555 1_555
C28 C27 1_555 1_555
C29 C28 1_555 1_555
H27 C29 1_555 1_555
C30 C25 1_555 1_555
H28 C30 1_555 1_555
N1 C1 1_555 1_555
N2 C3 1_555 1_555
N3 C7 1_555 1_555
H29 N3 1_555 1_555
N4 C17 1_555 1_555
N5 C20 1_555 1_555
N6 C22 1_555 1_555
H30 N6 1_555 1_555
O2 C1 1_555 1_555
O3 C2 1_555 1_555
O4 C7 1_555 1_555
O5 C8 1_555 1_555
H32 O1 1_555 1_555
O6 C13 1_555 1_555
H33 O6 1_555 1_555
O7 C18 1_555 1_555
O8 C19 1_555 1_555
O9 C22 1_555 1_555
O10 C24 1_555 1_555
O11 C24 1_555 1_555
H34 O11 1_555 1_555
O12 C28 1_555 1_555
H35 O12 1_555 1_555
C4 N1 1_555 1_555
C5 N1 1_555 1_555
C9 N3 1_555 1_555
C14 C15 1_555 1_555
C18 N4 1_555 1_555
C21 N4 1_555 1_555
C23 N6 1_555 1_555
C29 C30 1_555 1_555

#END
