
#######################################################################
#
#                 Cambridge Crystallographic Data Centre
#                                CCDC 
#
#######################################################################
#
# If this CIF has been generated from an entry in the Cambridge 
# Structural Database, then it will include bibliographic, chemical, 
# crystal, experimental, refinement or atomic coordinate data resulting 
# from the CCDC's data processing and validation procedures.
#
#######################################################################

data_DUSFIH
_chemical_formula_moiety         'C12 H14 N2 O2'
_chemical_name_systematic        '2-Isopropyl-3-methylquinoxaline 1,4-dioxide'
_symmetry_cell_setting           orthorhombic
_symmetry_space_group_name_H-M   'P n m a'
_symmetry_Int_Tables_number      62
_space_group_name_Hall           '-P 2ac 2n'
loop_
_symmetry_equiv_pos_site_id
_symmetry_equiv_pos_as_xyz
1 x,y,z
2 1/2-x,-y,1/2+z
3 -x,1/2+y,-z
4 1/2+x,1/2-y,1/2-z
5 -x,-y,-z
6 1/2+x,y,1/2-z
7 x,1/2-y,z
8 1/2-x,1/2+y,1/2+z
_cell_length_a                   13.3879(10)
_cell_length_b                   6.8462(6)
_cell_length_c                   11.8861(9)
_cell_angle_alpha                90
_cell_angle_beta                 90
_cell_angle_gamma                90
_cell_volume                     1089.44
_exptl_crystal_colour            colorless
_exptl_crystal_description       block
_cell_formula_units_Z            4
_exptl_crystal_recrystallization_method methanol
loop_
_atom_site_label
_atom_site_type_symbol
_atom_site_fract_x
_atom_site_fract_y
_atom_site_fract_z
C1 C 0.9509(2) 0.2500 1.1853(3)
H1 H 0.9026 0.2500 1.2416
C2 C 1.0499(3) 0.2500 1.2128(4)
H2 H 1.0689 0.2500 1.2880
C3 C 1.1212(2) 0.2500 1.1306(4)
H3 H 1.1883 0.2500 1.1510
C4 C 1.0962(2) 0.2500 1.0186(4)
H4 H 1.1454 0.2500 0.9633
C5 C 0.99369(19) 0.2500 0.9893(2)
C6 C 0.92245(18) 0.2500 1.0730(2)
C7 C 0.79331(18) 0.2500 0.9352(2)
C8 C 0.8664(2) 0.2500 0.8500(2)
C9 C 0.8419(3) 0.2500 0.7287(3)
H5 H 0.9023 0.2500 0.6845
H6 H 0.8034 0.1355 0.7099
C10 C 0.6836(2) 0.2500 0.9063(3)
H7 H 0.6798 0.2500 0.8240
C11 C 0.63084(17) 0.0655(4) 0.9452(2)
H8 H 0.6657 -0.0468 0.9169
H9 H 0.5636 0.0652 0.9173
H10 H 0.6299 0.0615 1.0259
N1 N 0.82094(15) 0.2500 1.04424(19)
N2 N 0.96482(17) 0.2500 0.8772(2)
O1 O 0.75580(15) 0.2500 1.12490(18)
O2 O 1.03357(18) 0.2500 0.8002(2)
H6F H 0.8034 0.3645 0.7099
C11F C 0.63084(17) 0.4345(4) 0.9452(2)
H8F H 0.6657 0.5468 0.9169
H9F H 0.5636 0.4348 0.9173
H10F H 0.6299 0.4385 1.0259
loop_
_geom_bond_atom_site_label_1
_geom_bond_atom_site_label_2
_geom_bond_site_symmetry_1
_geom_bond_site_symmetry_2
C1 H1 1_555 1_555
C2 C1 1_555 1_555
H2 C2 1_555 1_555
C3 C2 1_555 1_555
H3 C3 1_555 1_555
C4 C3 1_555 1_555
H4 C4 1_555 1_555
C5 C4 1_555 1_555
C6 C1 1_555 1_555
C7 C8 1_555 1_555
C8 C9 1_555 1_555
C9 H5 1_555 1_555
H6 C9 1_555 1_555
C10 C7 1_555 1_555
H7 C10 1_555 1_555
C11 C10 1_555 1_555
H8 C11 1_555 1_555
H9 C11 1_555 1_555
H10 C11 1_555 1_555
N1 C6 1_555 1_555
N2 C5 1_555 1_555
O1 N1 1_555 1_555
O2 N2 1_555 1_555
H6F C9 1_555 1_555
C11F C10 1_555 1_555
H8F C11F 1_555 1_555
H9F C11F 1_555 1_555
H10F C11F 1_555 1_555
C5 C6 1_555 1_555
C7 N1 1_555 1_555
C8 N2 1_555 1_555

#END
