
#######################################################################
#
#                 Cambridge Crystallographic Data Centre
#                                CCDC 
#
#######################################################################
#
# If this CIF has been generated from an entry in the Cambridge 
# Structural Database, then it will include bibliographic, chemical, 
# crystal, experimental, refinement or atomic coordinate data resulting 
# from the CCDC's data processing and validation procedures.
#
#######################################################################

data_DUSJIM
_chemical_formula_moiety         'C25 H18 B1 N3 O1'
_chemical_name_systematic        
diphenyl(3-((pyridin-2-yl)imino)isoindolin-1-onato)borate
_symmetry_cell_setting           triclinic
_symmetry_space_group_name_H-M   'P -1'
_symmetry_Int_Tables_number      2
_space_group_name_Hall           '-P 1'
loop_
_symmetry_equiv_pos_site_id
_symmetry_equiv_pos_as_xyz
1 x,y,z
2 -x,-y,-z
_cell_length_a                   8.3411(4)
_cell_length_b                   9.4833(5)
_cell_length_c                   14.6270(8)
_cell_angle_alpha                95.7490(10)
_cell_angle_beta                 105.7920(10)
_cell_angle_gamma                113.9930(10)
_cell_volume                     987.46
_exptl_crystal_colour            colorless
_exptl_crystal_description       block
_cell_formula_units_Z            2
loop_
_atom_site_label
_atom_site_type_symbol
_atom_site_fract_x
_atom_site_fract_y
_atom_site_fract_z
B1 B 0.3940(2) 0.26105(17) 0.25016(11)
N1 N 0.35699(15) 0.41694(12) 0.25311(8)
N2 N 0.52327(16) 0.29307(12) 0.35722(8)
N3 N 0.61329(16) 0.56992(13) 0.40303(9)
O1 O 0.51554(18) 0.04692(12) 0.36336(8)
C1 C 0.47457(19) 0.55731(15) 0.32093(10)
C2 C 0.62713(18) 0.44273(15) 0.41795(9)
C3 C 0.50407(18) 0.26386(15) 0.17381(9)
C4 C 0.75909(19) 0.43653(16) 0.50550(10)
C5 C 0.1956(2) 0.10594(15) 0.22424(10)
C6 C 0.1915(2) 0.54334(18) 0.16449(11)
H1 H 0.0941 0.5358 0.1115
C7 C 0.2171(2) 0.41212(17) 0.17797(10)
H2 H 0.1344 0.3153 0.1333
C8 C 0.4530(2) 0.69348(16) 0.30920(11)
H3 H 0.5345 0.7894 0.3550
C9 C 0.5617(2) 0.14602(17) 0.15930(11)
H4 H 0.5333 0.0659 0.1928
C10 C 0.5787(2) 0.18685(16) 0.40009(10)
C11 C 0.7294(2) 0.28032(16) 0.49568(10)
C12 C 0.5526(2) 0.38002(17) 0.12167(11)
H5 H 0.5196 0.4618 0.1299
C13 C 0.3138(2) 0.68772(17) 0.23140(12)
H6 H 0.3011 0.7791 0.2234
C14 C 1.0036(2) 0.5100(2) 0.65601(11)
H7 H 1.0973 0.5867 0.7110
C15 C 0.8356(2) 0.2360(2) 0.56555(11)
H8 H 0.8151 0.1309 0.5590
C16 C 0.7017(2) 0.2613(2) 0.04531(12)
H9 H 0.7658 0.2601 0.0025
C17 C 0.1045(2) 0.07987(18) 0.29268(13)
H10 H 0.1648 0.1468 0.3551
C18 C 0.6484(2) 0.3786(2) 0.05790(12)
H11 H 0.6766 0.4576 0.0236
C19 C 0.9743(2) 0.3546(2) 0.64604(11)
H12 H 1.0490 0.3287 0.6942
C20 C 0.8965(2) 0.55440(18) 0.58599(10)
H13 H 0.9163 0.6593 0.5929
C21 C 0.1000(2) -0.00173(18) 0.13361(12)
H14 H 0.1564 0.0095 0.0862
C22 C 0.6595(2) 0.1455(2) 0.09655(12)
H15 H 0.6968 0.0663 0.0891
C23 C -0.0768(3) -0.1252(2) 0.11177(15)
H16 H -0.1368 -0.1955 0.0504
C24 C -0.1640(3) -0.1448(2) 0.17941(18)
H17 H -0.2840 -0.2267 0.1639
C25 C -0.0736(3) -0.0432(2) 0.26993(17)
H18 H -0.1317 -0.0565 0.3166
loop_
_geom_bond_atom_site_label_1
_geom_bond_atom_site_label_2
_geom_bond_site_symmetry_1
_geom_bond_site_symmetry_2
B1 N1 1_555 1_555
N1 C1 1_555 1_555
N2 B1 1_555 1_555
N3 C1 1_555 1_555
O1 C10 1_555 1_555
C1 C8 1_555 1_555
C2 N2 1_555 1_555
C3 B1 1_555 1_555
C4 C2 1_555 1_555
C5 B1 1_555 1_555
C6 H1 1_555 1_555
C7 N1 1_555 1_555
H2 C7 1_555 1_555
C8 H3 1_555 1_555
C9 C3 1_555 1_555
H4 C9 1_555 1_555
C10 N2 1_555 1_555
C11 C4 1_555 1_555
C12 C3 1_555 1_555
H5 C12 1_555 1_555
C13 C6 1_555 1_555
H6 C13 1_555 1_555
C14 H7 1_555 1_555
C15 C11 1_555 1_555
H8 C15 1_555 1_555
C16 H9 1_555 1_555
C17 C5 1_555 1_555
H10 C17 1_555 1_555
C18 C12 1_555 1_555
H11 C18 1_555 1_555
C19 C14 1_555 1_555
H12 C19 1_555 1_555
C20 C4 1_555 1_555
H13 C20 1_555 1_555
C21 C5 1_555 1_555
H14 C21 1_555 1_555
C22 C9 1_555 1_555
H15 C22 1_555 1_555
C23 C21 1_555 1_555
H16 C23 1_555 1_555
C24 C23 1_555 1_555
H17 C24 1_555 1_555
C25 C17 1_555 1_555
H18 C25 1_555 1_555
N3 C2 1_555 1_555
C6 C7 1_555 1_555
C8 C13 1_555 1_555
C10 C11 1_555 1_555
C14 C20 1_555 1_555
C15 C19 1_555 1_555
C16 C18 1_555 1_555
C16 C22 1_555 1_555
C24 C25 1_555 1_555

#END
