
#######################################################################
#
#                 Cambridge Crystallographic Data Centre
#                                CCDC 
#
#######################################################################
#
# If this CIF has been generated from an entry in the Cambridge 
# Structural Database, then it will include bibliographic, chemical, 
# crystal, experimental, refinement or atomic coordinate data resulting 
# from the CCDC's data processing and validation procedures.
#
#######################################################################

data_DUSKEH
_chemical_formula_moiety         'C22 H17 B1 Cl1 N1 O3'
_chemical_name_systematic        
1,3,2-Benzodioxaborole-2-spiro-2'-(6-p-chlorophenyl-3-methyl-4-phenyl-1,3,2-oxazaborine)
_symmetry_cell_setting           triclinic
_symmetry_space_group_name_H-M   'P -1'
_symmetry_Int_Tables_number      2
_space_group_name_Hall           '-P 1'
loop_
_symmetry_equiv_pos_site_id
_symmetry_equiv_pos_as_xyz
1 x,y,z
2 -x,-y,-z
_cell_length_a                   8.577(4)
_cell_length_b                   10.656(5)
_cell_length_c                   11.598(5)
_cell_angle_alpha                84.77(4)
_cell_angle_beta                 83.25(4)
_cell_angle_gamma                67.38(4)
_cell_volume                     970.472
_exptl_crystal_colour            yellow
_chemical_melting_point          165deg.C
_cell_formula_units_Z            2
loop_
_atom_site_label
_atom_site_type_symbol
_atom_site_fract_x
_atom_site_fract_y
_atom_site_fract_z
Cl1 Cl 1.0007(8) 0.2157(6) 0.0486(6)
O1 O 0.702(2) 0.095(1) 0.581(1)
O2 O 0.671(2) 0.115(1) 0.789(1)
O3 O 0.426(2) 0.165(1) 0.696(1)
N1 N 0.632(2) -0.078(1) 0.713(1)
B1 B 0.610(5) 0.075(2) 0.692(2)
C1 C 0.751(2) 0.007(2) 0.498(2)
C2 C 0.748(2) -0.120(2) 0.516(1)
C3 C 0.692(2) -0.162(1) 0.628(1)
C4 C 0.816(2) 0.061(2) 0.388(2)
C5 C 0.821(3) 0.188(2) 0.381(2)
C6 C 0.868(4) 0.243(3) 0.277(3)
C7 C 0.930(2) 0.164(3) 0.188(3)
C8 C 0.926(3) 0.034(2) 0.186(2)
C9 C 0.867(3) -0.020(2) 0.292(2)
C10 C 0.706(2) -0.307(1) 0.639(1)
C11 C 0.770(4) -0.389(4) 0.741(3)
C12 C 0.802(4) -0.532(4) 0.746(3)
C13 C 0.737(2) -0.581(2) 0.653(2)
C14 C 0.691(4) -0.498(3) 0.552(3)
C15 C 0.658(4) -0.355(3) 0.545(3)
C16 C 0.537(4) 0.227(2) 0.844(2)
C17 C 0.539(4) 0.294(3) 0.935(2)
C18 C 0.384(7) 0.400(4) 0.972(3)
C19 C 0.243(4) 0.424(3) 0.912(3)
C20 C 0.238(3) 0.355(2) 0.815(2)
C21 C 0.394(4) 0.251(2) 0.785(2)
C22 C 0.573(3) -0.120(2) 0.833(1)
loop_
_geom_bond_atom_site_label_1
_geom_bond_atom_site_label_2
_geom_bond_site_symmetry_1
_geom_bond_site_symmetry_2
Cl1 C7 1_555 1_555
O1 B1 1_555 1_555
O2 B1 1_555 1_555
O3 B1 1_555 1_555
N1 B1 1_555 1_555
C1 O1 1_555 1_555
C2 C1 1_555 1_555
C3 N1 1_555 1_555
C4 C1 1_555 1_555
C5 C4 1_555 1_555
C6 C5 1_555 1_555
C7 C6 1_555 1_555
C8 C7 1_555 1_555
C9 C4 1_555 1_555
C10 C3 1_555 1_555
C11 C10 1_555 1_555
C12 C11 1_555 1_555
C13 C12 1_555 1_555
C14 C13 1_555 1_555
C15 C10 1_555 1_555
C16 O2 1_555 1_555
C17 C16 1_555 1_555
C18 C17 1_555 1_555
C19 C18 1_555 1_555
C20 C19 1_555 1_555
C21 O3 1_555 1_555
C22 N1 1_555 1_555
C2 C3 1_555 1_555
C8 C9 1_555 1_555
C14 C15 1_555 1_555
C16 C21 1_555 1_555
C20 C21 1_555 1_555

#END
