
#######################################################################
#
#                 Cambridge Crystallographic Data Centre
#                                CCDC 
#
#######################################################################
#
# If this CIF has been generated from an entry in the Cambridge 
# Structural Database, then it will include bibliographic, chemical, 
# crystal, experimental, refinement or atomic coordinate data resulting 
# from the CCDC's data processing and validation procedures.
#
#######################################################################

data_DUSLOT
_chemical_formula_moiety         'C2 H5 N2 1+,B1 F4 1-'
_chemical_name_systematic        'Cyanomethanaminium tetrafluoroborate'
_symmetry_cell_setting           orthorhombic
_symmetry_space_group_name_H-M   'P b c a'
_symmetry_Int_Tables_number      61
_space_group_name_Hall           '-P 2ac 2ab'
loop_
_symmetry_equiv_pos_site_id
_symmetry_equiv_pos_as_xyz
1 x,y,z
2 1/2-x,-y,1/2+z
3 -x,1/2+y,1/2-z
4 1/2+x,1/2-y,-z
5 -x,-y,-z
6 1/2+x,y,1/2-z
7 x,1/2-y,1/2+z
8 1/2-x,1/2+y,z
_cell_length_a                   9.790(2)
_cell_length_b                   10.204(2)
_cell_length_c                   11.057(2)
_cell_angle_alpha                90
_cell_angle_beta                 90
_cell_angle_gamma                90
_cell_volume                     1104.56
_exptl_crystal_colour            colorless
_exptl_crystal_description       prism
_cell_formula_units_Z            8
loop_
_atom_site_label
_atom_site_type_symbol
_atom_site_fract_x
_atom_site_fract_y
_atom_site_fract_z
F1 F 0.20443(11) 0.51691(10) 0.27959(10)
F2 F 0.25530(11) 0.69102(10) 0.39731(9)
F3 F 0.39397(10) 0.51360(11) 0.39567(11)
F4 F 0.18692(13) 0.50016(11) 0.48270(11)
B1 B 0.25945(17) 0.55466(18) 0.38936(15)
N1 N 0.11384(16) 0.80444(15) 0.59675(13)
C1 C 0.05747(17) 0.69059(16) 0.66197(16)
H1 H -0.0034 0.6428 0.6086
H2 H 0.1315 0.6323 0.6844
C2 C -0.01713(15) 0.72917(17) 0.77058(14)
N2 N -0.07586(17) 0.75568(18) 0.85538(14)
H3 H 0.052(3) 0.861(3) 0.574(2)
H4 H 0.170(3) 0.852(2) 0.645(2)
H5 H 0.165(3) 0.778(2) 0.535(2)
loop_
_geom_bond_atom_site_label_1
_geom_bond_atom_site_label_2
_geom_bond_site_symmetry_1
_geom_bond_site_symmetry_2
F1 B1 1_555 1_555
F2 B1 1_555 1_555
F3 B1 1_555 1_555
N1 C1 1_555 1_555
F4 B1 1_555 1_555
C1 H1 1_555 1_555
H2 C1 1_555 1_555
C2 C1 1_555 1_555
N2 C2 1_555 1_555
H3 N1 1_555 1_555
H4 N1 1_555 1_555
H5 N1 1_555 1_555

#END
