
#######################################################################
#
#                 Cambridge Crystallographic Data Centre
#                                CCDC 
#
#######################################################################
#
# If this CIF has been generated from an entry in the Cambridge 
# Structural Database, then it will include bibliographic, chemical, 
# crystal, experimental, refinement or atomic coordinate data resulting 
# from the CCDC's data processing and validation procedures.
#
#######################################################################

data_DUSQAL
_chemical_formula_moiety         'C29 H31 N3 O7 Si1,H2 O1'
_chemical_name_systematic        
'6-azido-3-(benzoyloxy)-4-((t-butyl(diphenyl)silyl)oxy)-5-hydroxytetrahydro-2H-pyran-2-carboxylic acid monohydrate'
_symmetry_cell_setting           monoclinic
_symmetry_space_group_name_H-M   'P 21'
_symmetry_Int_Tables_number      4
_space_group_name_Hall           'P 2yb'
loop_
_symmetry_equiv_pos_site_id
_symmetry_equiv_pos_as_xyz
1 x,y,z
2 -x,1/2+y,-z
_cell_length_a                   9.5413(5)
_cell_length_b                   9.8451(3)
_cell_length_c                   15.7253(7)
_cell_angle_alpha                90
_cell_angle_beta                 90.212(2)
_cell_angle_gamma                90
_cell_volume                     1477.15
_exptl_crystal_colour            colorless
_exptl_crystal_description       Block
_cell_formula_units_Z            2
loop_
_atom_site_label
_atom_site_type_symbol
_atom_site_fract_x
_atom_site_fract_y
_atom_site_fract_z
C1 C 0.8078(4) 0.5019(3) 0.5221(2)
H1 H 0.8780 0.5655 0.5002
C2 C 0.7802(4) 0.5327(3) 0.6161(2)
H2 H 0.7116 0.4680 0.6386
C3 C 0.7247(3) 0.6776(3) 0.6262(2)
H3 H 0.8000 0.7421 0.6134
C4 C 0.6032(4) 0.7021(3) 0.5660(2)
H4 H 0.5207 0.6532 0.5868
C5 C 0.6351(4) 0.6561(3) 0.4765(2)
H5 H 0.7052 0.7153 0.4501
C6 C 0.8585(4) 0.3578(3) 0.5089(2)
C7 C 0.9339(4) 0.4033(4) 0.7042(2)
C8 C 1.0690(4) 0.4051(4) 0.7492(2)
C9 C 1.0921(5) 0.3101(4) 0.8126(3)
H6 H 1.0233 0.2466 0.8256
C10 C 1.2174(6) 0.3101(6) 0.8563(3)
H7 H 1.2335 0.2454 0.8983
C11 C 1.3194(6) 0.4052(7) 0.8383(3)
H8 H 1.4028 0.4064 0.8691
C12 C 1.2969(5) 0.4971(5) 0.7751(3)
H9 H 1.3664 0.5598 0.7620
C13 C 1.1731(5) 0.4983(4) 0.7304(3)
H10 H 1.1591 0.5619 0.6874
C14 C 0.7941(4) 0.6120(4) 0.8672(2)
C15 C 0.7229(4) 0.4907(4) 0.8533(3)
H11 H 0.6660 0.4830 0.8055
C16 C 0.7336(5) 0.3814(4) 0.9080(3)
H12 H 0.6848 0.3016 0.8965
C17 C 0.8158(5) 0.3908(6) 0.9787(3)
H13 H 0.8225 0.3177 1.0160
C18 C 0.8889(5) 0.5079(6) 0.9951(3)
H14 H 0.9459 0.5139 1.0431
C19 C 0.8774(4) 0.6177(4) 0.9399(3)
H15 H 0.9266 0.6970 0.9518
C20 C 0.6374(4) 0.8816(4) 0.8499(2)
C21 C 0.5243(4) 0.8001(5) 0.8965(3)
H16 H 0.4601 0.8615 0.9234
H17 H 0.5676 0.7436 0.9388
H18 H 0.4745 0.7443 0.8565
C22 C 0.5673(5) 0.9777(4) 0.7865(3)
H19 H 0.5007 1.0338 0.8157
H20 H 0.5200 0.9257 0.7435
H21 H 0.6372 1.0340 0.7605
C23 C 0.7174(5) 0.9656(4) 0.9154(3)
H22 H 0.7822 1.0245 0.8869
H23 H 0.7678 0.9061 0.9530
H24 H 0.6525 1.0192 0.9477
C24 C 0.9250(4) 0.8473(3) 0.7617(2)
C25 C 0.9223(4) 0.9617(4) 0.7090(2)
H25 H 0.8365 0.9940 0.6894
C26 C 1.0439(5) 1.0284(4) 0.6851(3)
H26 H 1.0392 1.1038 0.6495
C27 C 1.1703(5) 0.9832(5) 0.7140(3)
H27 H 1.2520 1.0285 0.6988
C28 C 1.1771(5) 0.8718(5) 0.7650(3)
H28 H 1.2637 0.8411 0.7844
C29 C 1.0564(4) 0.8037(4) 0.7883(3)
H29 H 1.0634 0.7269 0.8225
N1 N 0.5061(3) 0.6542(3) 0.4265(2)
N2 N 0.5015(3) 0.7318(3) 0.3672(2)
N3 N 0.4802(5) 0.7984(5) 0.3106(3)
O1 O 0.6804(2) 0.5185(2) 0.47595(14)
O2 O 0.7568(3) 0.2732(3) 0.49318(18)
O3 O 0.9819(3) 0.3271(2) 0.51414(17)
O4 O 0.9076(2) 0.5229(2) 0.66357(14)
O5 O 0.8538(3) 0.3096(3) 0.70209(18)
O6 O 0.6774(2) 0.6995(2) 0.71033(14)
O7 O 0.5743(3) 0.8439(2) 0.56527(17)
Si1 Si 0.76101(10) 0.75997(9) 0.79485(6)
H30 H 0.484(3) 0.848(5) 0.552(3)
H31 H 0.781(5) 0.183(5) 0.491(3)
O8 O 0.7897(3) 1.0152(3) 0.4928(2)
H32 H 0.719(3) 0.971(4) 0.517(2)
H33 H 0.868(3) 0.968(4) 0.485(3)
loop_
_geom_bond_atom_site_label_1
_geom_bond_atom_site_label_2
_geom_bond_site_symmetry_1
_geom_bond_site_symmetry_2
C1 H1 1_555 1_555
C2 C1 1_555 1_555
H2 C2 1_555 1_555
C3 C2 1_555 1_555
H3 C3 1_555 1_555
C4 C3 1_555 1_555
H4 C4 1_555 1_555
C5 C4 1_555 1_555
H5 C5 1_555 1_555
C6 C1 1_555 1_555
C7 C8 1_555 1_555
C8 C9 1_555 1_555
C9 H6 1_555 1_555
C10 C9 1_555 1_555
H7 C10 1_555 1_555
C11 C10 1_555 1_555
H8 C11 1_555 1_555
C12 C11 1_555 1_555
H9 C12 1_555 1_555
C13 C8 1_555 1_555
H10 C13 1_555 1_555
C14 C15 1_555 1_555
C15 H11 1_555 1_555
C16 C15 1_555 1_555
H12 C16 1_555 1_555
C17 C16 1_555 1_555
H13 C17 1_555 1_555
C18 C17 1_555 1_555
H14 C18 1_555 1_555
C19 C14 1_555 1_555
H15 C19 1_555 1_555
C20 C21 1_555 1_555
C21 H16 1_555 1_555
H17 C21 1_555 1_555
H18 C21 1_555 1_555
C22 C20 1_555 1_555
H19 C22 1_555 1_555
H20 C22 1_555 1_555
H21 C22 1_555 1_555
C23 C20 1_555 1_555
H22 C23 1_555 1_555
H23 C23 1_555 1_555
H24 C23 1_555 1_555
C24 C25 1_555 1_555
C25 H25 1_555 1_555
C26 C25 1_555 1_555
H26 C26 1_555 1_555
C27 C26 1_555 1_555
H27 C27 1_555 1_555
C28 C27 1_555 1_555
H28 C28 1_555 1_555
C29 C24 1_555 1_555
H29 C29 1_555 1_555
N1 C5 1_555 1_555
N2 N1 1_555 1_555
N3 N2 1_555 1_555
O1 C1 1_555 1_555
O2 C6 1_555 1_555
O3 C6 1_555 1_555
O4 C2 1_555 1_555
O5 C7 1_555 1_555
O6 C3 1_555 1_555
O7 C4 1_555 1_555
Si1 C14 1_555 1_555
H30 O7 1_555 1_555
H31 O2 1_555 1_555
O8 H32 1_555 1_555
H33 O8 1_555 1_555
C5 O1 1_555 1_555
C7 O4 1_555 1_555
C12 C13 1_555 1_555
C18 C19 1_555 1_555
C20 Si1 1_555 1_555
C24 Si1 1_555 1_555
C28 C29 1_555 1_555
O6 Si1 1_555 1_555

#END
