
#######################################################################
#
#                 Cambridge Crystallographic Data Centre
#                                CCDC 
#
#######################################################################
#
# If this CIF has been generated from an entry in the Cambridge 
# Structural Database, then it will include bibliographic, chemical, 
# crystal, experimental, refinement or atomic coordinate data resulting 
# from the CCDC's data processing and validation procedures.
#
#######################################################################

data_DUSQEP
_chemical_formula_moiety         'C26 H23 N1 O11'
_chemical_name_systematic        
'methyl 4,6-diacetoxy-3-(benzoyloxy)-5-(1,3-dioxo-1,3-dihydro-2H-isoindol-2-yl)tetrahydro-2H-pyran-2-carboxylate'
_symmetry_cell_setting           monoclinic
_symmetry_space_group_name_H-M   'P 21'
_symmetry_Int_Tables_number      4
_space_group_name_Hall           'P 2yb'
loop_
_symmetry_equiv_pos_site_id
_symmetry_equiv_pos_as_xyz
1 x,y,z
2 -x,1/2+y,-z
_cell_length_a                   9.6406(6)
_cell_length_b                   10.2541(4)
_cell_length_c                   13.4925(8)
_cell_angle_alpha                90
_cell_angle_beta                 107.874(2)
_cell_angle_gamma                90
_cell_volume                     1269.43
_exptl_crystal_colour            colorless
_exptl_crystal_description       Rectangular
_cell_formula_units_Z            2
loop_
_atom_site_label
_atom_site_type_symbol
_atom_site_fract_x
_atom_site_fract_y
_atom_site_fract_z
C1 C 0.2662(3) 0.5614(3) 0.07836(19)
H1 H 0.2537 0.6559 0.0816
C2 C 0.1262(2) 0.4921(3) 0.07801(17)
H2 H 0.1358 0.3982 0.0685
C3 C 0.0936(3) 0.5173(3) 0.17874(19)
H3 H 0.0724 0.6098 0.1851
C4 C 0.2242(3) 0.4743(3) 0.26953(18)
H4 H 0.2404 0.3814 0.2599
C5 C 0.3581(3) 0.5476(3) 0.2629(2)
H5 H 0.3485 0.6417 0.2718
C6 C 0.3108(3) 0.5267(3) -0.0170(2)
C7 C 0.4045(4) 0.3621(5) -0.1002(3)
H6 H 0.3251 0.3166 -0.1485
H7 H 0.4860 0.3042 -0.0753
H8 H 0.4321 0.4351 -0.1345
C8 C -0.0667(3) 0.4599(3) -0.08063(19)
C9 C -0.2052(3) 0.5161(3) -0.14699(18)
C10 C -0.2791(3) 0.4524(3) -0.2384(2)
H9 H -0.2396 0.3777 -0.2580
C11 C -0.4101(3) 0.4992(4) -0.3000(2)
H10 H -0.4594 0.4559 -0.3613
C12 C -0.4695(4) 0.6104(4) -0.2716(3)
H11 H -0.5580 0.6425 -0.3140
C13 C -0.3971(4) 0.6737(3) -0.1801(3)
H12 H -0.4375 0.7479 -0.1604
C14 C -0.2650(3) 0.6272(3) -0.1178(2)
H13 H -0.2160 0.6703 -0.0564
C15 C -0.1425(3) 0.4941(4) 0.1998(2)
C16 C -0.2711(3) 0.4067(4) 0.1755(3)
H14 H -0.2470 0.3296 0.2176
H15 H -0.2990 0.3829 0.1032
H16 H -0.3505 0.4510 0.1899
C17 C 0.1828(3) 0.6050(3) 0.4185(2)
C18 C 0.1477(3) 0.5659(3) 0.51399(19)
C19 C 0.1149(3) 0.6409(3) 0.5881(2)
H17 H 0.1151 0.7314 0.5845
C20 C 0.0815(3) 0.5767(4) 0.6687(2)
H18 H 0.0576 0.6249 0.7196
C21 C 0.0835(4) 0.4420(4) 0.6740(2)
H19 H 0.0616 0.4012 0.7289
C22 C 0.1169(3) 0.3668(4) 0.6000(2)
H20 H 0.1184 0.2763 0.6040
C23 C 0.1481(3) 0.4311(3) 0.5195(2)
C24 C 0.1815(3) 0.3789(3) 0.4270(2)
C25 C 0.5941(3) 0.5779(3) 0.3817(2)
C26 C 0.7164(3) 0.5094(4) 0.4566(2)
H21 H 0.7922 0.4943 0.4256
H22 H 0.6829 0.4274 0.4750
H23 H 0.7536 0.5617 0.5180
N1 N 0.1999(2) 0.4885(2) 0.36966(15)
O1 O 0.38203(18) 0.51880(19) 0.16664(13)
O2 O 0.2964(4) 0.5984(3) -0.0877(2)
O3 O 0.3599(3) 0.4077(2) -0.01406(17)
O4 O 0.0058(2) 0.54312(17) -0.00509(14)
O5 O -0.0212(3) 0.3539(2) -0.09131(17)
O6 O -0.03165(18) 0.43810(18) 0.17550(15)
O7 O -0.1321(3) 0.5985(3) 0.2403(3)
O8 O 0.1953(3) 0.71217(19) 0.38615(17)
O9 O 0.1897(3) 0.2684(2) 0.40016(18)
O10 O 0.47953(18) 0.49648(19) 0.33981(13)
O11 O 0.5906(3) 0.6882(3) 0.3551(3)
loop_
_geom_bond_atom_site_label_1
_geom_bond_atom_site_label_2
_geom_bond_site_symmetry_1
_geom_bond_site_symmetry_2
C1 H1 1_555 1_555
C2 C1 1_555 1_555
H2 C2 1_555 1_555
C3 C2 1_555 1_555
H3 C3 1_555 1_555
C4 C3 1_555 1_555
H4 C4 1_555 1_555
C5 C4 1_555 1_555
H5 C5 1_555 1_555
C6 C1 1_555 1_555
C7 H6 1_555 1_555
H7 C7 1_555 1_555
H8 C7 1_555 1_555
C8 C9 1_555 1_555
C9 C10 1_555 1_555
C10 H9 1_555 1_555
C11 C10 1_555 1_555
H10 C11 1_555 1_555
C12 C11 1_555 1_555
H11 C12 1_555 1_555
C13 C12 1_555 1_555
H12 C13 1_555 1_555
C14 C9 1_555 1_555
H13 C14 1_555 1_555
C15 C16 1_555 1_555
C16 H14 1_555 1_555
H15 C16 1_555 1_555
H16 C16 1_555 1_555
C17 C18 1_555 1_555
C18 C19 1_555 1_555
C19 H17 1_555 1_555
C20 C19 1_555 1_555
H18 C20 1_555 1_555
C21 C20 1_555 1_555
H19 C21 1_555 1_555
C22 C21 1_555 1_555
H20 C22 1_555 1_555
C23 C18 1_555 1_555
C24 C23 1_555 1_555
C25 C26 1_555 1_555
C26 H21 1_555 1_555
H22 C26 1_555 1_555
H23 C26 1_555 1_555
N1 C4 1_555 1_555
O1 C1 1_555 1_555
O2 C6 1_555 1_555
O3 C6 1_555 1_555
O4 C2 1_555 1_555
O5 C8 1_555 1_555
O6 C3 1_555 1_555
O7 C15 1_555 1_555
O8 C17 1_555 1_555
O9 C24 1_555 1_555
O10 C5 1_555 1_555
O11 C25 1_555 1_555
C5 O1 1_555 1_555
C7 O3 1_555 1_555
C8 O4 1_555 1_555
C13 C14 1_555 1_555
C15 O6 1_555 1_555
C17 N1 1_555 1_555
C22 C23 1_555 1_555
C24 N1 1_555 1_555
C25 O10 1_555 1_555

#END
