
#######################################################################
#
#                 Cambridge Crystallographic Data Centre
#                                CCDC 
#
#######################################################################
#
# If this CIF has been generated from an entry in the Cambridge 
# Structural Database, then it will include bibliographic, chemical, 
# crystal, experimental, refinement or atomic coordinate data resulting 
# from the CCDC's data processing and validation procedures.
#
#######################################################################

data_DUSQUE
_chemical_formula_moiety         'C16 H36 N1 1+,C14 H8 N3 O3 S1 1-'
_chemical_name_systematic        
'Tetrabutylammonium N-benzoyl-(6-nitro-1,3-benzothiazol-2-yl)azanide'
_symmetry_cell_setting           monoclinic
_symmetry_space_group_name_H-M   'C c'
_symmetry_Int_Tables_number      9
_space_group_name_Hall           'C -2yc'
loop_
_symmetry_equiv_pos_site_id
_symmetry_equiv_pos_as_xyz
1 x,y,z
2 x,-y,1/2+z
3 1/2+x,1/2+y,z
4 1/2+x,1/2-y,1/2+z
_cell_length_a                   7.9234(7)
_cell_length_b                   25.059(2)
_cell_length_c                   15.4916(14)
_cell_angle_alpha                90
_cell_angle_beta                 97.699(2)
_cell_angle_gamma                90
_cell_volume                     3048.17
_exptl_crystal_colour            yellow
_exptl_crystal_description       block
_cell_formula_units_Z            4
loop_
_atom_site_label
_atom_site_type_symbol
_atom_site_fract_x
_atom_site_fract_y
_atom_site_fract_z
S1 S 0.70508(16) 0.32664(5) 0.33449(9)
O1 O 0.6825(5) 0.22458(14) 0.3155(3)
O2 O 0.8146(9) 0.57535(19) 0.3706(4)
O3 O 0.8142(7) 0.52224(19) 0.4779(4)
N1 N 0.6279(5) 0.26786(17) 0.1823(3)
N2 N 0.6516(5) 0.36006(18) 0.1718(3)
N3 N 0.7979(7) 0.5308(2) 0.3993(5)
C1 C 0.6094(7) 0.1727(2) 0.1884(4)
C2 C 0.6156(8) 0.1257(2) 0.2357(5)
H1 H 0.6405 0.1272 0.2967
C3 C 0.5860(10) 0.0768(3) 0.1957(6)
H2 H 0.5866 0.0454 0.2290
C4 C 0.5553(9) 0.0746(3) 0.1050(7)
H3 H 0.5379 0.0415 0.0767
C5 C 0.5504(9) 0.1211(3) 0.0569(5)
H4 H 0.5319 0.1197 -0.0043
C6 C 0.5723(7) 0.1689(2) 0.0985(4)
H5 H 0.5621 0.2004 0.0652
C7 C 0.6423(6) 0.2240(2) 0.2350(4)
C8 C 0.6573(6) 0.3158(2) 0.2190(3)
C9 C 0.7132(6) 0.3942(2) 0.3138(3)
C10 C 0.7471(7) 0.4359(2) 0.3727(4)
H6 H 0.7650 0.4295 0.4330
C11 C 0.7536(7) 0.4870(2) 0.3401(4)
C12 C 0.7267(8) 0.4976(2) 0.2513(5)
H7 H 0.7319 0.5329 0.2311
C13 C 0.6920(8) 0.4558(2) 0.1925(4)
H8 H 0.6745 0.4625 0.1322
C14 C 0.6833(6) 0.4036(2) 0.2238(4)
N4 N 0.1005(5) 0.30363(16) 0.0850(3)
C15 C 0.2355(7) 0.3308(2) 0.0382(4)
H9 H 0.3473 0.3244 0.0721
H10 H 0.2356 0.3136 -0.0185
C16 C 0.2155(8) 0.3893(2) 0.0237(4)
H11 H 0.2158 0.4073 0.0799
H12 H 0.1058 0.3964 -0.0116
C17 C 0.3571(8) 0.4115(3) -0.0218(5)
H13 H 0.3565 0.3932 -0.0777
H14 H 0.4665 0.4040 0.0137
C18 C 0.3428(11) 0.4709(3) -0.0380(8)
H15 H 0.3498 0.4896 0.0173
H16 H 0.2345 0.4788 -0.0727
H17 H 0.4350 0.4826 -0.0689
C19 C 0.0817(6) 0.3310(2) 0.1697(3)
H18 H -0.0017 0.3112 0.1984
H19 H 0.0352 0.3668 0.1567
C20 C 0.2431(7) 0.3364(2) 0.2329(4)
H20 H 0.3298 0.3548 0.2044
H21 H 0.2866 0.3008 0.2503
C21 C 0.2101(9) 0.3676(3) 0.3135(4)
H22 H 0.1071 0.3534 0.3338
H23 H 0.3053 0.3615 0.3597
C22 C 0.1894(11) 0.4244(3) 0.3004(6)
H24 H 0.2898 0.4389 0.2793
H25 H 0.1744 0.4413 0.3551
H26 H 0.0902 0.4311 0.2579
C23 C 0.1534(6) 0.2459(2) 0.0986(4)
H27 H 0.2673 0.2450 0.1322
H28 H 0.1620 0.2300 0.0415
C24 C 0.0357(7) 0.21084(19) 0.1452(5)
H29 H 0.0326 0.2249 0.2040
H30 H -0.0800 0.2128 0.1138
C25 C 0.0915(9) 0.1527(3) 0.1516(6)
H31 H 0.2143 0.1517 0.1711
H32 H 0.0349 0.1355 0.1967
C26 C 0.0580(11) 0.1222(3) 0.0743(6)
H33 H 0.1130 0.1388 0.0288
H34 H -0.0639 0.1207 0.0562
H35 H 0.1020 0.0864 0.0850
C27 C -0.0763(6) 0.3079(2) 0.0309(3)
H36 H -0.1613 0.2942 0.0657
H37 H -0.1017 0.3457 0.0191
C28 C -0.0946(8) 0.2782(3) -0.0552(4)
H38 H 0.0029 0.2864 -0.0857
H39 H -0.0947 0.2397 -0.0441
C29 C -0.2574(10) 0.2935(3) -0.1122(5)
H40 H -0.2581 0.3323 -0.1199
H41 H -0.2560 0.2773 -0.1697
C30 C -0.4061(10) 0.2790(4) -0.0820(5)
H42 H -0.4054 0.2921 -0.0231
H43 H -0.4159 0.2404 -0.0824
H44 H -0.5021 0.2942 -0.1194
loop_
_geom_bond_atom_site_label_1
_geom_bond_atom_site_label_2
_geom_bond_site_symmetry_1
_geom_bond_site_symmetry_2
S1 C8 1_555 1_555
O1 C7 1_555 1_555
O2 N3 1_555 1_555
O3 N3 1_555 1_555
N1 C7 1_555 1_555
N2 C8 1_555 1_555
N3 C11 1_555 1_555
C1 C2 1_555 1_555
C2 H1 1_555 1_555
C3 C2 1_555 1_555
H2 C3 1_555 1_555
C4 C3 1_555 1_555
H3 C4 1_555 1_555
C5 C4 1_555 1_555
H4 C5 1_555 1_555
C6 C1 1_555 1_555
H5 C6 1_555 1_555
C7 C1 1_555 1_555
C8 N1 1_555 1_555
C9 S1 1_555 1_555
C10 C9 1_555 1_555
H6 C10 1_555 1_555
C11 C10 1_555 1_555
C12 C11 1_555 1_555
H7 C12 1_555 1_555
C13 C12 1_555 1_555
H8 C13 1_555 1_555
C14 N2 1_555 1_555
N4 C15 1_555 1_555
C15 H9 1_555 1_555
H10 C15 1_555 1_555
C16 C15 1_555 1_555
H11 C16 1_555 1_555
H12 C16 1_555 1_555
C17 C16 1_555 1_555
H13 C17 1_555 1_555
H14 C17 1_555 1_555
C18 C17 1_555 1_555
H15 C18 1_555 1_555
H16 C18 1_555 1_555
H17 C18 1_555 1_555
C19 N4 1_555 1_555
H18 C19 1_555 1_555
H19 C19 1_555 1_555
C20 C19 1_555 1_555
H20 C20 1_555 1_555
H21 C20 1_555 1_555
C21 C20 1_555 1_555
H22 C21 1_555 1_555
H23 C21 1_555 1_555
C22 C21 1_555 1_555
H24 C22 1_555 1_555
H25 C22 1_555 1_555
H26 C22 1_555 1_555
C23 N4 1_555 1_555
H27 C23 1_555 1_555
H28 C23 1_555 1_555
C24 C23 1_555 1_555
H29 C24 1_555 1_555
H30 C24 1_555 1_555
C25 C24 1_555 1_555
H31 C25 1_555 1_555
H32 C25 1_555 1_555
C26 C25 1_555 1_555
H33 C26 1_555 1_555
H34 C26 1_555 1_555
H35 C26 1_555 1_555
C27 N4 1_555 1_555
H36 C27 1_555 1_555
H37 C27 1_555 1_555
C28 C27 1_555 1_555
H38 C28 1_555 1_555
H39 C28 1_555 1_555
C29 C28 1_555 1_555
H40 C29 1_555 1_555
H41 C29 1_555 1_555
C30 C29 1_555 1_555
H42 C30 1_555 1_555
H43 C30 1_555 1_555
H44 C30 1_555 1_555
C5 C6 1_555 1_555
C9 C14 1_555 1_555
C13 C14 1_555 1_555

#END
