
#######################################################################
#
#                 Cambridge Crystallographic Data Centre
#                                CCDC 
#
#######################################################################
#
# If this CIF has been generated from an entry in the Cambridge 
# Structural Database, then it will include bibliographic, chemical, 
# crystal, experimental, refinement or atomic coordinate data resulting 
# from the CCDC's data processing and validation procedures.
#
#######################################################################

data_DUSRUF
_chemical_formula_moiety         'C11 H11 N3 O2'
_chemical_name_systematic        
1-(4-Methoxyphenyl)-2-(1H-1,2,4-triazol-1-yl)ethanone
_symmetry_cell_setting           monoclinic
_symmetry_space_group_name_H-M   'C 2/c'
_symmetry_Int_Tables_number      15
_space_group_name_Hall           '-C 2yn'
loop_
_symmetry_equiv_pos_site_id
_symmetry_equiv_pos_as_xyz
1 x,y,z
2 -x,y,1/2-z
3 1/2+x,1/2+y,z
4 1/2-x,1/2+y,1/2-z
5 -x,-y,-z
6 x,-y,1/2+z
7 1/2-x,1/2-y,-z
8 1/2+x,1/2-y,1/2+z
_cell_length_a                   23.409(3)
_cell_length_b                   4.8347(7)
_cell_length_c                   20.607(2)
_cell_angle_alpha                90
_cell_angle_beta                 116.275(8)
_cell_angle_gamma                90
_cell_volume                     2091.24
_exptl_crystal_colour            colorless
_exptl_crystal_description       block
_cell_formula_units_Z            8
_exptl_crystal_recrystallization_method chloroform/methanol
loop_
_atom_site_label
_atom_site_type_symbol
_atom_site_fract_x
_atom_site_fract_y
_atom_site_fract_z
O1 O 0.34820(7) 0.4726(3) 0.43819(7)
C1 C 0.37507(9) 0.6336(4) 0.41489(9)
C2 C 0.42565(9) 0.8304(4) 0.46522(9)
H1 H 0.4651 0.8043 0.4595
H2 H 0.4110 1.0230 0.4512
N1 N 0.43985(8) 0.7900(3) 0.54036(8)
N2 N 0.47973(9) 0.5846(4) 0.57991(8)
C3 C 0.47828(12) 0.6132(5) 0.64287(10)
H3 H 0.5022 0.4971 0.6830
N3 N 0.44080(9) 0.8176(4) 0.64643(8)
C4 C 0.41747(10) 0.9240(4) 0.58069(10)
H4 H 0.3887 1.0753 0.5644
C5 C 0.36082(8) 0.6444(4) 0.33756(9)
C6 C 0.31663(9) 0.4624(4) 0.28896(9)
H5 H 0.2954 0.3354 0.3060
C7 C 0.30274(9) 0.4612(4) 0.21646(9)
H6 H 0.2724 0.3351 0.1841
C8 C 0.33387(9) 0.6477(4) 0.19143(8)
C9 C 0.37810(9) 0.8315(4) 0.23879(9)
H7 H 0.3993 0.9581 0.2215
C10 C 0.39130(9) 0.8305(4) 0.31086(9)
H8 H 0.4215 0.9577 0.3430
O2 O 0.32364(7) 0.6657(3) 0.12113(6)
C11 C 0.28122(11) 0.4693(5) 0.07117(10)
H9 H 0.2951 0.2817 0.0893
H10 H 0.2815 0.4918 0.0240
H11 H 0.2380 0.4998 0.0659
loop_
_geom_bond_atom_site_label_1
_geom_bond_atom_site_label_2
_geom_bond_site_symmetry_1
_geom_bond_site_symmetry_2
O1 C1 1_555 1_555
C1 C2 1_555 1_555
C2 H1 1_555 1_555
H2 C2 1_555 1_555
N1 C2 1_555 1_555
N2 N1 1_555 1_555
C3 N2 1_555 1_555
H3 C3 1_555 1_555
N3 C3 1_555 1_555
C4 N1 1_555 1_555
H4 C4 1_555 1_555
C5 C1 1_555 1_555
C6 C5 1_555 1_555
H5 C6 1_555 1_555
C7 C6 1_555 1_555
H6 C7 1_555 1_555
C8 C7 1_555 1_555
C9 C8 1_555 1_555
H7 C9 1_555 1_555
C10 C5 1_555 1_555
H8 C10 1_555 1_555
O2 C8 1_555 1_555
C11 O2 1_555 1_555
H9 C11 1_555 1_555
H10 C11 1_555 1_555
H11 C11 1_555 1_555
N3 C4 1_555 1_555
C9 C10 1_555 1_555

#END
