
#######################################################################
#
#                 Cambridge Crystallographic Data Centre
#                                CCDC 
#
#######################################################################
#
# If this CIF has been generated from an entry in the Cambridge 
# Structural Database, then it will include bibliographic, chemical, 
# crystal, experimental, refinement or atomic coordinate data resulting 
# from the CCDC's data processing and validation procedures.
#
#######################################################################

data_DUSWUL
_chemical_formula_moiety         'C18 H16 N4 O2'
_chemical_name_systematic        
'Ethyl 2,5,5-tricyano-4-(4-(dimethylamino)phenyl)penta-2,4-dienoate'
_symmetry_cell_setting           orthorhombic
_symmetry_space_group_name_H-M   'P b c a'
_symmetry_Int_Tables_number      61
_space_group_name_Hall           '-P 2ac 2ab'
loop_
_symmetry_equiv_pos_site_id
_symmetry_equiv_pos_as_xyz
1 x,y,z
2 1/2-x,-y,1/2+z
3 1/2+x,1/2-y,-z
4 -x,1/2+y,1/2-z
5 -x,-y,-z
6 1/2+x,y,1/2-z
7 1/2-x,1/2+y,z
8 x,1/2-y,1/2+z
_cell_length_a                   18.2514(14)
_cell_length_b                   8.6194(6)
_cell_length_c                   20.6536(16)
_cell_angle_alpha                90
_cell_angle_beta                 90
_cell_angle_gamma                90
_cell_volume                     3249.14
_exptl_crystal_colour            black
_exptl_crystal_description       needle
_cell_formula_units_Z            8
loop_
_atom_site_label
_atom_site_type_symbol
_atom_site_fract_x
_atom_site_fract_y
_atom_site_fract_z
O1 O 0.59229(5) 0.39417(12) 0.44098(5)
O2 O 0.61948(5) 0.25332(11) 0.52959(5)
N1 N 0.91786(6) -0.01304(15) 0.27958(6)
C1 C 0.81748(7) 0.13691(15) 0.34101(6)
C2 C 0.69235(7) 0.21024(15) 0.37126(6)
H1 H 0.6608 0.2816 0.3500
C3 C 0.71353(7) -0.11606(17) 0.17814(6)
H2 H 0.7404 -0.1504 0.1414
N2 N 0.60702(6) -0.26111(14) 0.14370(6)
N3 N 0.87465(7) 0.32121(15) 0.42546(6)
N4 N 0.76367(6) 0.01945(15) 0.50660(6)
C4 C 0.63950(7) -0.16187(15) 0.18536(6)
C5 C 0.84704(7) 0.23924(16) 0.38922(6)
C6 C 0.87278(7) 0.05404(16) 0.30610(6)
C7 C 0.60086(7) -0.09810(16) 0.23842(6)
H3 H 0.5503 -0.1207 0.2436
C8 C 0.71007(7) 0.03293(15) 0.27807(6)
C9 C 0.63518(7) -0.00453(15) 0.28238(6)
H4 H 0.6074 0.0369 0.3172
C10 C 0.62706(7) 0.29582(16) 0.46820(6)
C11 C 0.74732(8) -0.02335(16) 0.22292(6)
H5 H 0.7973 0.0039 0.2167
C12 C 0.68520(7) 0.20046(15) 0.43529(6)
C13 C 0.72882(7) 0.09878(16) 0.47463(6)
C14 C 0.74366(7) 0.12313(15) 0.32908(6)
C15 C 0.56693(8) 0.34377(19) 0.56739(7)
H6 H 0.5178 0.3390 0.5473
H7 H 0.5825 0.4537 0.5697
C16 C 0.52908(8) -0.29398(18) 0.14852(7)
H8 H 0.5186 -0.3420 0.1905
H9 H 0.5147 -0.3650 0.1137
H10 H 0.5014 -0.1971 0.1446
C17 C 0.64642(9) -0.32770(19) 0.08929(7)
H11 H 0.6489 -0.2517 0.0541
H12 H 0.6208 -0.4208 0.0742
H13 H 0.6962 -0.3555 0.1029
C18 C 0.56527(9) 0.2732(2) 0.63388(8)
H14 H 0.5493 0.1649 0.6308
H15 H 0.5310 0.3312 0.6612
H16 H 0.6144 0.2774 0.6529
loop_
_geom_bond_atom_site_label_1
_geom_bond_atom_site_label_2
_geom_bond_site_symmetry_1
_geom_bond_site_symmetry_2
O1 C10 1_555 1_555
O2 C10 1_555 1_555
N1 C6 1_555 1_555
C1 C5 1_555 1_555
C2 H1 1_555 1_555
C3 H2 1_555 1_555
N2 C4 1_555 1_555
N3 C5 1_555 1_555
N4 C13 1_555 1_555
C4 C3 1_555 1_555
C6 C1 1_555 1_555
C7 C4 1_555 1_555
H3 C7 1_555 1_555
C8 C9 1_555 1_555
C9 C7 1_555 1_555
H4 C9 1_555 1_555
C10 C12 1_555 1_555
C11 C3 1_555 1_555
H5 C11 1_555 1_555
C12 C2 1_555 1_555
C13 C12 1_555 1_555
C14 C1 1_555 1_555
C15 O2 1_555 1_555
H6 C15 1_555 1_555
H7 C15 1_555 1_555
C16 N2 1_555 1_555
H8 C16 1_555 1_555
H9 C16 1_555 1_555
H10 C16 1_555 1_555
C17 N2 1_555 1_555
H11 C17 1_555 1_555
H12 C17 1_555 1_555
H13 C17 1_555 1_555
C18 C15 1_555 1_555
H14 C18 1_555 1_555
H15 C18 1_555 1_555
H16 C18 1_555 1_555
C2 C14 1_555 1_555
C8 C11 1_555 1_555
C8 C14 1_555 1_555

#END
