
#######################################################################
#
#                 Cambridge Crystallographic Data Centre
#                                CCDC 
#
#######################################################################
#
# If this CIF has been generated from an entry in the Cambridge 
# Structural Database, then it will include bibliographic, chemical, 
# crystal, experimental, refinement or atomic coordinate data resulting 
# from the CCDC's data processing and validation procedures.
#
#######################################################################

data_DUSWOF
_chemical_formula_moiety         'C28 H30 N4 O4,C1 H2 Cl2'
_chemical_name_systematic        
'Ethyl 2-(2,2-dicyano-1-ethoxyvinyl)-3,4-bis(4-(dimethylamino)phenyl)-4-oxobut-2-enoate dichloromethane solvate'
_symmetry_cell_setting           triclinic
_symmetry_space_group_name_H-M   'P -1'
_symmetry_Int_Tables_number      2
_space_group_name_Hall           '-P 1'
loop_
_symmetry_equiv_pos_site_id
_symmetry_equiv_pos_as_xyz
1 x,y,z
2 -x,-y,-z
_cell_length_a                   10.5466(10)
_cell_length_b                   11.5371(13)
_cell_length_c                   13.1838(13)
_cell_angle_alpha                102.174(4)
_cell_angle_beta                 108.408(3)
_cell_angle_gamma                95.016(4)
_cell_volume                     1467.2
_exptl_crystal_colour            orange
_exptl_crystal_description       plate
_cell_formula_units_Z            2
loop_
_atom_site_label
_atom_site_type_symbol
_atom_site_fract_x
_atom_site_fract_y
_atom_site_fract_z
O1 O 0.14694(10) 0.43314(9) 0.97472(9)
O2 O 0.51082(9) 0.49664(10) 0.77192(9)
O3 O 0.20587(10) 0.54428(10) 0.69861(9)
O4 O 0.03296(10) 0.48746(11) 0.75327(10)
N1 N 0.66802(13) 0.11570(13) 1.08290(11)
N2 N 0.21911(15) 0.19708(14) 0.27219(11)
N3 N 0.10792(16) 0.08822(14) 0.69086(13)
C1 C 0.36206(14) 0.35289(13) 0.61355(12)
N4 N -0.03192(15) 0.17301(15) 0.97123(14)
C2 C 0.41187(13) 0.41647(13) 0.73021(12)
C3 C 0.42759(13) 0.30766(13) 0.87907(12)
C4 C 0.34750(13) 0.37708(13) 0.80904(12)
C5 C 0.15890(14) 0.48957(14) 0.75019(12)
C6 C 0.23158(13) 0.41244(13) 0.81844(12)
C7 C 0.53230(14) 0.27329(14) 1.06004(12)
H1 H 0.5482 0.2953 1.1372
C8 C 0.49050(14) 0.21627(14) 0.83617(13)
H2 H 0.4790 0.1981 0.7598
C9 C 0.10160(14) 0.24719(14) 0.85756(13)
C10 C 0.45209(13) 0.33418(13) 0.99299(12)
H3 H 0.4120 0.3961 1.0247
C11 C 0.16128(13) 0.36457(14) 0.88659(12)
C12 C 0.59150(14) 0.17872(14) 1.01672(13)
C13 C 0.56806(14) 0.15261(14) 0.90193(13)
H4 H 0.6067 0.0898 0.8697
C14 C 0.10673(15) 0.16149(15) 0.76436(14)
C15 C 0.43790(15) 0.37495(14) 0.54718(13)
H5 H 0.5224 0.4277 0.5803
C16 C 0.24032(16) 0.27225(15) 0.56267(13)
H6 H 0.1887 0.2535 0.6063
C17 C 0.39344(16) 0.32262(15) 0.43613(13)
H7 H 0.4478 0.3389 0.3938
C18 C 0.02785(15) 0.20551(15) 0.92107(14)
C19 C 0.20165(15) 0.56169(14) 1.01316(13)
H8 H 0.1434 0.6069 0.9665
H9 H 0.2942 0.5765 1.0103
C20 C 0.26748(17) 0.24460(15) 0.38354(13)
C21 C 0.71802(16) 0.01189(15) 1.03504(15)
H10 H 0.6420 -0.0451 0.9778
H11 H 0.7624 -0.0272 1.0929
H12 H 0.7834 0.0380 1.0022
C22 C 0.20431(15) 0.59989(15) 1.12978(13)
H13 H 0.1135 0.5782 1.1320
H14 H 0.2331 0.6871 1.1575
H15 H 0.2681 0.5593 1.1761
C23 C 0.19322(17) 0.21938(16) 0.45135(14)
H16 H 0.1097 0.1651 0.4193
C24 C 0.68732(17) 0.14142(16) 1.19948(14)
H17 H 0.7304 0.2254 1.2348
H18 H 0.7454 0.0883 1.2335
H19 H 0.5993 0.1280 1.2091
C25 C 0.29523(19) 0.22669(18) 0.20429(14)
H20 H 0.3165 0.3143 0.2185
H21 H 0.2411 0.1925 0.1262
H22 H 0.3796 0.1933 0.2222
C26 C -0.05675(17) 0.54784(19) 0.68061(16)
H23 H -0.0026 0.6135 0.6669
H24 H -0.1190 0.5835 0.7162
C27 C 0.0931(2) 0.1127(2) 0.22038(16)
H25 H 0.0996 0.0435 0.2528
H26 H 0.0758 0.0854 0.1409
H27 H 0.0186 0.1522 0.2324
C28 C -0.1370(2) 0.4592(2) 0.57329(18)
H28 H -0.1978 0.4999 0.5248
H29 H -0.1905 0.3945 0.5872
H30 H -0.0751 0.4254 0.5376
loop_
_geom_bond_atom_site_label_1
_geom_bond_atom_site_label_2
_geom_bond_site_symmetry_1
_geom_bond_site_symmetry_2
O1 C11 1_555 1_555
O2 C2 1_555 1_555
O3 C5 1_555 1_555
O4 C5 1_555 1_555
N1 C12 1_555 1_555
N2 C20 1_555 1_555
N3 C14 1_555 1_555
C1 C2 1_555 1_555
N4 C18 1_555 1_555
C2 C4 1_555 1_555
C3 C4 1_555 1_555
C4 C6 1_555 1_555
C5 C6 1_555 1_555
C6 C11 1_555 1_555
C7 H1 1_555 1_555
C8 C3 1_555 1_555
H2 C8 1_555 1_555
C9 C11 1_555 1_555
C10 C3 1_555 1_555
H3 C10 1_555 1_555
C12 C7 1_555 1_555
C13 C8 1_555 1_555
H4 C13 1_555 1_555
C14 C9 1_555 1_555
C15 C1 1_555 1_555
H5 C15 1_555 1_555
C16 C1 1_555 1_555
H6 C16 1_555 1_555
C17 C15 1_555 1_555
H7 C17 1_555 1_555
C18 C9 1_555 1_555
C19 O1 1_555 1_555
H8 C19 1_555 1_555
H9 C19 1_555 1_555
C20 C17 1_555 1_555
C21 N1 1_555 1_555
H10 C21 1_555 1_555
H11 C21 1_555 1_555
H12 C21 1_555 1_555
C22 C19 1_555 1_555
H13 C22 1_555 1_555
H14 C22 1_555 1_555
H15 C22 1_555 1_555
C23 C16 1_555 1_555
H16 C23 1_555 1_555
C24 N1 1_555 1_555
H17 C24 1_555 1_555
H18 C24 1_555 1_555
H19 C24 1_555 1_555
C25 N2 1_555 1_555
H20 C25 1_555 1_555
H21 C25 1_555 1_555
H22 C25 1_555 1_555
C26 O4 1_555 1_555
H23 C26 1_555 1_555
H24 C26 1_555 1_555
C27 N2 1_555 1_555
H25 C27 1_555 1_555
H26 C27 1_555 1_555
H27 C27 1_555 1_555
C28 C26 1_555 1_555
H28 C28 1_555 1_555
H29 C28 1_555 1_555
H30 C28 1_555 1_555
C7 C10 1_555 1_555
C12 C13 1_555 1_555
C20 C23 1_555 1_555

#END
