
#######################################################################
#
#                 Cambridge Crystallographic Data Centre
#                                CCDC 
#
#######################################################################
#
# If this CIF has been generated from an entry in the Cambridge 
# Structural Database, then it will include bibliographic, chemical, 
# crystal, experimental, refinement or atomic coordinate data resulting 
# from the CCDC's data processing and validation procedures.
#
#######################################################################

data_DUSWIZ
_chemical_formula_moiety         'C28 H30 N4 O4'
_chemical_name_systematic        
'Ethyl 3,4-dicyano-5,6-bis(4-(dimethylamino)phenyl)-2-ethoxy-4H-pyran-4-carboxylate'
_symmetry_cell_setting           triclinic
_symmetry_space_group_name_H-M   'P -1'
_symmetry_Int_Tables_number      2
_space_group_name_Hall           '-P 1'
loop_
_symmetry_equiv_pos_site_id
_symmetry_equiv_pos_as_xyz
1 x,y,z
2 -x,-y,-z
_cell_length_a                   13.3591(11)
_cell_length_b                   14.1483(11)
_cell_length_c                   15.5163(12)
_cell_angle_alpha                75.212(2)
_cell_angle_beta                 73.446(2)
_cell_angle_gamma                68.270(2)
_cell_volume                     2574.2
_exptl_crystal_colour            colorless
_exptl_crystal_description       plank
_cell_formula_units_Z            4
loop_
_atom_site_label
_atom_site_type_symbol
_atom_site_fract_x
_atom_site_fract_y
_atom_site_fract_z
O1 O 0.69040(13) 0.88106(13) 0.53366(11)
O2 O 0.83152(15) 0.93196(15) 0.52942(12)
O3 O 0.73088(15) 0.64962(14) 0.72988(12)
O4 O 0.71680(15) 0.71435(13) 0.85226(11)
C1 C 0.2882(3) 0.8267(3) 0.3280(2)
H1 H 0.2991 0.7534 0.3525
H2 H 0.2571 0.8461 0.2735
H3 H 0.2374 0.8682 0.3741
C2 C 0.7339(2) 0.87844(19) 0.67202(16)
C3 C 0.1997(3) 0.6358(3) 0.9475(2)
H4 H 0.2265 0.5847 0.9069
H5 H 0.1286 0.6331 0.9867
H6 H 0.2531 0.6204 0.9855
N1 N 0.1865(2) 0.7382(2) 0.89350(16)
C4 C 0.2774(2) 0.7619(2) 0.83767(17)
C5 C 0.2741(2) 0.8638(2) 0.79928(17)
H7 H 0.2069 0.9187 0.8106
C6 C 0.3675(2) 0.8852(2) 0.74528(17)
H8 H 0.3632 0.9551 0.7212
C7 C 0.4678(2) 0.80802(19) 0.72473(16)
C8 C 0.5688(2) 0.83393(18) 0.67036(16)
C9 C 0.59449(19) 0.85456(18) 0.57961(16)
C10 C 0.5396(2) 0.85231(18) 0.51003(16)
C11 C 0.4396(2) 0.8335(2) 0.53009(18)
H9 H 0.4029 0.8219 0.5921
C12 C 0.3921(2) 0.8310(2) 0.46319(18)
H10 H 0.3232 0.8188 0.4805
C13 C 0.4413(2) 0.84585(19) 0.37139(17)
N2 N 0.39294(19) 0.84519(19) 0.30417(15)
C14 C 0.4579(3) 0.8270(3) 0.21424(19)
H11 H 0.4924 0.7526 0.2146
H12 H 0.5154 0.8599 0.1972
H13 H 0.4101 0.8563 0.1700
C15 C 0.7507(2) 0.8967(2) 0.58105(18)
C16 C 0.8449(2) 0.9533(2) 0.43061(17)
H14 H 0.7773 1.0053 0.4127
H15 H 0.8599 0.8895 0.4071
C17 C 0.9407(3) 0.9935(3) 0.3937(2)
H16 H 0.9539 1.0085 0.3270
H17 H 1.0066 0.9415 0.4128
H18 H 0.9243 1.0568 0.4173
C18 C 0.8027(2) 0.8970(2) 0.71653(18)
N3 N 0.8567(2) 0.9101(2) 0.75507(17)
C19 C 0.6442(2) 0.83286(18) 0.72867(16)
C20 C 0.0845(3) 0.8193(3) 0.9175(2)
H19 H 0.0283 0.7887 0.9562
H20 H 0.0596 0.8609 0.8619
H21 H 0.0962 0.8633 0.9507
C21 C 0.3776(2) 0.6838(2) 0.81593(18)
H22 H 0.3821 0.6137 0.8393
C22 C 0.4699(2) 0.7069(2) 0.76111(17)
H23 H 0.5366 0.6522 0.7479
C23 C 0.7012(2) 0.7204(2) 0.77022(17)
C24 C 0.7797(2) 0.6133(2) 0.89542(19)
H24 H 0.8464 0.5814 0.8512
H25 H 0.7342 0.5669 0.9172
C25 C 0.8112(3) 0.6302(2) 0.9735(2)
H26 H 0.8551 0.6772 0.9512
H27 H 0.8548 0.5640 1.0035
H28 H 0.7445 0.6605 1.0173
C26 C 0.5778(2) 0.8920(2) 0.80385(19)
N4 N 0.5254(2) 0.93743(19) 0.86165(17)
C27 C 0.5884(2) 0.8681(2) 0.41819(16)
H29 H 0.6565 0.8818 0.4010
C28 C 0.5418(2) 0.8648(2) 0.35073(17)
H30 H 0.5789 0.8756 0.2888
O5 O 0.82362(13) 0.64747(13) 0.43607(11)
O6 O 0.68701(14) 0.59027(14) 0.44101(11)
O7 O 0.79600(16) 0.80967(14) 0.12390(12)
O8 O 0.80336(15) 0.87157(14) 0.24055(12)
C29 C 0.6786(2) 0.5625(2) 0.53925(16)
H31 H 0.6663 0.6236 0.5657
H32 H 0.7471 0.5087 0.5535
C30 C 0.9401(2) 0.6290(2) 0.16579(18)
C31 C 1.3890(3) 0.7821(3) 0.0185(2)
H33 H 1.3408 0.7969 -0.0238
H34 H 1.4659 0.7665 -0.0152
H35 H 1.3690 0.8424 0.0475
N5 N 1.3765(2) 0.6949(2) 0.08725(17)
C32 C 1.2752(2) 0.6928(2) 0.14036(17)
C33 C 1.1814(2) 0.7810(2) 0.14034(18)
H36 H 1.1879 0.8442 0.1034
C34 C 1.0798(2) 0.7777(2) 0.19301(18)
H37 H 1.0182 0.8390 0.1916
C35 C 1.0648(2) 0.68760(19) 0.24796(16)
C36 C 0.9550(2) 0.68000(19) 0.30014(16)
C37 C 0.9254(2) 0.66398(19) 0.39156(17)
C38 C 0.9813(2) 0.66150(19) 0.46120(16)
C39 C 0.9449(2) 0.6233(2) 0.55251(17)
H38 H 0.8844 0.5978 0.5682
C40 C 0.9928(2) 0.6212(2) 0.62044(18)
H39 H 0.9645 0.5947 0.6816
C41 C 1.0818(2) 0.6571(2) 0.60190(17)
N6 N 1.1310(2) 0.6536(2) 0.66979(15)
C42 C 1.2307(3) 0.6810(3) 0.6485(2)
H40 H 1.2811 0.6512 0.5954
H41 H 1.2663 0.6539 0.7008
H42 H 1.2120 0.7563 0.6348
C43 C 1.0713(3) 0.6483(2) 0.76390(18)
H43 H 0.9975 0.6995 0.7675
H44 H 1.1111 0.6629 0.8005
H45 H 1.0650 0.5791 0.7874
C44 C 1.0698(2) 0.6987(2) 0.44287(18)
H46 H 1.0971 0.7267 0.3819
C45 C 1.1184(2) 0.6959(2) 0.51101(18)
H47 H 1.1791 0.7212 0.4956
C46 C 0.7674(2) 0.6255(2) 0.38925(17)
C47 C 0.5828(3) 0.5229(3) 0.5769(2)
H48 H 0.5974 0.4610 0.5519
H49 H 0.5163 0.5760 0.5601
H50 H 0.5719 0.5057 0.6435
C48 C 0.7876(2) 0.6398(2) 0.29789(17)
C49 C 0.8764(2) 0.68679(19) 0.24183(16)
N7 N 0.98880(19) 0.58113(18) 0.10908(16)
C50 C 1.4722(2) 0.6035(3) 0.0915(2)
H51 H 1.4630 0.5498 0.0681
H52 H 1.4804 0.5784 0.1549
H53 H 1.5382 0.6203 0.0544
C51 C 1.2601(2) 0.6026(2) 0.19693(17)
H54 H 1.3216 0.5413 0.1997
C52 C 1.1580(2) 0.6007(2) 0.24872(17)
H55 H 1.1512 0.5379 0.2862
C53 C 0.8216(2) 0.8014(2) 0.20260(17)
C54 C 0.7429(6) 0.9155(5) 0.0803(4)
H56 H 0.7952 0.9552 0.0605
H57 H 0.6779 0.9513 0.1237
C55 C 0.7081(7) 0.9069(3) -0.0007(3)
H58 H 0.7737 0.8769 -0.0456
H59 H 0.6667 0.9757 -0.0284
H60 H 0.6614 0.8626 0.0191
C56 C 0.7270(2) 0.6088(2) 0.25469(18)
N8 N 0.6796(2) 0.5836(2) 0.21789(17)
C57? C 0.718(4) 0.904(4) 0.086(2)
H61? H 0.6989 0.9611 0.1199
H62? H 0.6493 0.8927 0.0849
C58? C 0.784(4) 0.924(2) -0.009(2)
H63? H 0.8584 0.9190 -0.0049
H64? H 0.7484 0.9938 -0.0387
H65? H 0.7901 0.8734 -0.0437
loop_
_geom_bond_atom_site_label_1
_geom_bond_atom_site_label_2
_geom_bond_site_symmetry_1
_geom_bond_site_symmetry_2
O1 C9 1_555 1_555
O2 C15 1_555 1_555
O3 C23 1_555 1_555
O4 C23 1_555 1_555
C1 H1 1_555 1_555
H2 C1 1_555 1_555
H3 C1 1_555 1_555
C2 C15 1_555 1_555
C3 H4 1_555 1_555
H5 C3 1_555 1_555
H6 C3 1_555 1_555
N1 C3 1_555 1_555
C4 N1 1_555 1_555
C5 C4 1_555 1_555
H7 C5 1_555 1_555
C6 C5 1_555 1_555
H8 C6 1_555 1_555
C7 C6 1_555 1_555
C8 C7 1_555 1_555
C9 C8 1_555 1_555
C10 C9 1_555 1_555
C11 C10 1_555 1_555
H9 C11 1_555 1_555
C12 C11 1_555 1_555
H10 C12 1_555 1_555
C13 C12 1_555 1_555
N2 C1 1_555 1_555
C14 N2 1_555 1_555
H11 C14 1_555 1_555
H12 C14 1_555 1_555
H13 C14 1_555 1_555
C15 O1 1_555 1_555
C16 O2 1_555 1_555
H14 C16 1_555 1_555
H15 C16 1_555 1_555
C17 C16 1_555 1_555
H16 C17 1_555 1_555
H17 C17 1_555 1_555
H18 C17 1_555 1_555
C18 C2 1_555 1_555
N3 C18 1_555 1_555
C19 C2 1_555 1_555
C20 N1 1_555 1_555
H19 C20 1_555 1_555
H20 C20 1_555 1_555
H21 C20 1_555 1_555
C21 C4 1_555 1_555
H22 C21 1_555 1_555
C22 C7 1_555 1_555
H23 C22 1_555 1_555
C23 C19 1_555 1_555
C24 O4 1_555 1_555
H24 C24 1_555 1_555
H25 C24 1_555 1_555
C25 C24 1_555 1_555
H26 C25 1_555 1_555
H27 C25 1_555 1_555
H28 C25 1_555 1_555
C26 C19 1_555 1_555
N4 C26 1_555 1_555
C27 C10 1_555 1_555
H29 C27 1_555 1_555
C28 C13 1_555 1_555
H30 C28 1_555 1_555
O5 C37 1_555 1_555
O6 C29 1_555 1_555
O7 C53 1_555 1_555
O8 C53 1_555 1_555
C29 H31 1_555 1_555
H32 C29 1_555 1_555
C30 C49 1_555 1_555
C31 H33 1_555 1_555
H34 C31 1_555 1_555
H35 C31 1_555 1_555
N5 C31 1_555 1_555
C32 N5 1_555 1_555
C33 C32 1_555 1_555
H36 C33 1_555 1_555
C34 C33 1_555 1_555
H37 C34 1_555 1_555
C35 C34 1_555 1_555
C36 C35 1_555 1_555
C37 C36 1_555 1_555
C38 C37 1_555 1_555
C39 C38 1_555 1_555
H38 C39 1_555 1_555
C40 C39 1_555 1_555
H39 C40 1_555 1_555
C41 C40 1_555 1_555
N6 C41 1_555 1_555
C42 N6 1_555 1_555
H40 C42 1_555 1_555
H41 C42 1_555 1_555
H42 C42 1_555 1_555
C43 N6 1_555 1_555
H43 C43 1_555 1_555
H44 C43 1_555 1_555
H45 C43 1_555 1_555
C44 C38 1_555 1_555
H46 C44 1_555 1_555
C45 C41 1_555 1_555
H47 C45 1_555 1_555
C46 O5 1_555 1_555
C47 C29 1_555 1_555
H48 C47 1_555 1_555
H49 C47 1_555 1_555
H50 C47 1_555 1_555
C48 C46 1_555 1_555
C49 C36 1_555 1_555
N7 C30 1_555 1_555
C50 N5 1_555 1_555
H51 C50 1_555 1_555
H52 C50 1_555 1_555
H53 C50 1_555 1_555
C51 C32 1_555 1_555
H54 C51 1_555 1_555
C52 C35 1_555 1_555
H55 C52 1_555 1_555
C53 C49 1_555 1_555
C54 O7 1_555 1_555
H56 C54 1_555 1_555
H57 C54 1_555 1_555
C55 C54 1_555 1_555
H58 C55 1_555 1_555
H59 C55 1_555 1_555
H60 C55 1_555 1_555
C56 C48 1_555 1_555
N8 C56 1_555 1_555
C8 C19 1_555 1_555
C13 N2 1_555 1_555
C21 C22 1_555 1_555
C27 C28 1_555 1_555
O6 C46 1_555 1_555
C44 C45 1_555 1_555
C48 C49 1_555 1_555
C51 C52 1_555 1_555

#END
