
#######################################################################
#
#                 Cambridge Crystallographic Data Centre
#                                CCDC 
#
#######################################################################
#
# If this CIF has been generated from an entry in the Cambridge 
# Structural Database, then it will include bibliographic, chemical, 
# crystal, experimental, refinement or atomic coordinate data resulting 
# from the CCDC's data processing and validation procedures.
#
#######################################################################

data_DUSXIZ
_chemical_name_common            
3beta,11alpha-Dihydroxy-17a-oxa-D-homoandrost-5-en-17-one
_chemical_formula_moiety         'C19 H28 O4'
_chemical_name_systematic        
8,11-Dihydroxy-10a,12a-dimethyl-3,4,4a,4b,5,7,8,9,10,10a,10b,11,12,12a-tetradecahydro-2H-naphtho[2,1-f]chromen-2-one
_chemical_properties_biological  
'D-homo lactones of the androstane series have potentially significant potency towards human aromatase inhibition'
_symmetry_cell_setting           monoclinic
_symmetry_space_group_name_H-M   'P 21'
_symmetry_Int_Tables_number      4
_space_group_name_Hall           'P 2yb'
loop_
_symmetry_equiv_pos_site_id
_symmetry_equiv_pos_as_xyz
1 x,y,z
2 -x,1/2+y,-z
_cell_length_a                   11.915(3)
_cell_length_b                   9.854(2)
_cell_length_c                   14.246(3)
_cell_angle_alpha                90
_cell_angle_beta                 102.66(3)
_cell_angle_gamma                90
_cell_volume                     1631.96
_exptl_crystal_colour            colorless
_exptl_crystal_description       needle
_cell_formula_units_Z            4
_exptl_crystal_recrystallization_method methanol
loop_
_atom_site_label
_atom_site_type_symbol
_atom_site_fract_x
_atom_site_fract_y
_atom_site_fract_z
C1 C 0.9668(6) -0.0351(9) 0.8744(7)
H1 H 0.9251 -0.1158 0.8433
H2 H 0.9861 -0.0514 0.9446
C2 C 1.0803(7) -0.0189(9) 0.8385(7)
H3 H 1.1256 0.0572 0.8731
H4 H 1.1267 -0.1027 0.8529
C3 C 1.0566(7) 0.0076(9) 0.7341(7)
H5 H 1.0206 -0.0751 0.6994
O1 O 1.1595(4) 0.0405(6) 0.7006(4)
H6 H 1.1968 -0.0308 0.6967
C4 C 0.9758(7) 0.1260(9) 0.7066(7)
H7 H 0.9538 0.1320 0.6355
H8 H 1.0169 0.2107 0.7306
C5 C 0.8679(7) 0.1160(8) 0.7455(7)
C6 C 0.7672(8) 0.1263(10) 0.6882(7)
H9 H 0.7643 0.1284 0.6210
C7 C 0.6540(6) 0.1352(9) 0.7199(6)
H10 H 0.6109 0.0493 0.7042
H11 H 0.6070 0.2097 0.6849
C8 C 0.6749(6) 0.1611(8) 0.8280(6)
H12 H 0.7060 0.2553 0.8404
C9 C 0.7686(6) 0.0604(8) 0.8813(6)
H13 H 0.7440 -0.0321 0.8561
C10 C 0.8868(6) 0.0897(8) 0.8531(6)
C11 C 0.7781(6) 0.0549(9) 0.9891(6)
H14 H 0.8203 0.1382 1.0173
O2 O 0.8426(4) -0.0592(6) 1.0332(4)
H15 H 0.8013 -0.1290 1.0235
C12 C 0.6615(6) 0.0549(9) 1.0183(7)
H16 H 0.6226 -0.0330 1.0001
H17 H 0.6744 0.0643 1.0891
C13 C 0.5839(6) 0.1694(8) 0.9707(6)
C14 C 0.5621(6) 0.1529(9) 0.8640(6)
H18 H 0.5312 0.0591 0.8493
C15 C 0.4689(7) 0.2504(8) 0.8136(7)
H19 H 0.4964 0.3451 0.8248
H20 H 0.4515 0.2332 0.7435
C16 C 0.3611(6) 0.2308(9) 0.8522(6)
H21 H 0.3152 0.3152 0.8396
H22 H 0.3152 0.1577 0.8143
C17 C 0.3752(7) 0.1970(8) 0.9557(7)
O3 O 0.2973(5) 0.2021(6) 0.9997(4)
C18 C 0.6319(7) 0.3083(9) 1.0075(7)
H23 H 0.5809 0.3798 0.9746
H24 H 0.7088 0.3198 0.9946
H25 H 0.6366 0.3142 1.0770
O4 O 0.4780(4) 0.1528(5) 1.0074(4)
C19 C 0.9460(7) 0.2132(8) 0.9097(6)
H26 H 1.0197 0.2303 0.8920
H27 H 0.9595 0.1946 0.9789
H28 H 0.8965 0.2932 0.8943
C20 C 1.0080(6) 0.6562(8) 0.5599(6)
H29 H 0.9721 0.6734 0.4914
H30 H 1.0204 0.7453 0.5927
C21 C 1.1250(6) 0.5893(8) 0.5655(6)
H31 H 1.1147 0.5052 0.5265
H32 H 1.1748 0.6514 0.5382
C22 C 1.1829(6) 0.5553(9) 0.6679(6)
H33 H 1.1985 0.6426 0.7042
O5 O 1.2915(4) 0.4876(5) 0.6748(4)
H34 H 1.2807 0.4129 0.6458
C23 C 1.1040(6) 0.4710(8) 0.7157(6)
H35 H 1.0966 0.3790 0.6872
H36 H 1.1397 0.4617 0.7850
C24 C 0.9847(6) 0.5318(7) 0.7051(6)
C25 C 0.9427(7) 0.5484(8) 0.7832(6)
H37 H 0.9910 0.5259 0.8435
C26 C 0.8240(6) 0.6003(8) 0.7828(6)
H38 H 0.8299 0.6927 0.8107
H39 H 0.7879 0.5410 0.8240
C27 C 0.7465(6) 0.6047(8) 0.6807(6)
H40 H 0.7197 0.5105 0.6617
C28 C 0.8139(6) 0.6586(8) 0.6069(5)
H41 H 0.8412 0.7519 0.6281
C29 C 0.9220(6) 0.5721(8) 0.6053(6)
O6 O 0.7782(4) 0.7336(5) 0.4348(4)
H42 H 0.7982 0.6734 0.3932
C30 C 0.7297(6) 0.6732(8) 0.5095(6)
H43 H 0.6993 0.5812 0.4875
C31 C 0.6271(7) 0.7661(8) 0.5166(6)
H44 H 0.6559 0.8577 0.5381
H45 H 0.5751 0.7749 0.4524
C32 C 0.5615(6) 0.7080(8) 0.5867(6)
C33 C 0.6422(6) 0.6918(8) 0.6842(6)
H46 H 0.6714 0.7844 0.7056
C34 C 0.5714(6) 0.6418(8) 0.7560(6)
H47 H 0.5430 0.5489 0.7381
H48 H 0.6216 0.6378 0.8213
C35 C 0.4701(7) 0.7344(9) 0.7573(6)
H49 H 0.4069 0.6782 0.7715
H50 H 0.4933 0.7989 0.8113
C36 C 0.4230(7) 0.8149(9) 0.6678(7)
O7 O 0.3402(5) 0.8891(6) 0.6618(5)
C37 C 0.4953(6) 0.5794(9) 0.5487(6)
H51 H 0.4460 0.5977 0.4853
H52 H 0.4477 0.5512 0.5933
H53 H 0.5498 0.5070 0.5431
O8 O 0.4727(4) 0.8118(6) 0.5927(4)
C38 C 0.8888(7) 0.4390(8) 0.5463(6)
H54 H 0.8344 0.3868 0.5744
H55 H 0.9581 0.3847 0.5479
H56 H 0.8531 0.4621 0.4795
loop_
_geom_bond_atom_site_label_1
_geom_bond_atom_site_label_2
_geom_bond_site_symmetry_1
_geom_bond_site_symmetry_2
C1 H1 1_555 1_555
H2 C1 1_555 1_555
C2 C1 1_555 1_555
H3 C2 1_555 1_555
H4 C2 1_555 1_555
C3 C2 1_555 1_555
H5 C3 1_555 1_555
O1 C3 1_555 1_555
H6 O1 1_555 1_555
C4 C3 1_555 1_555
H7 C4 1_555 1_555
H8 C4 1_555 1_555
C5 C4 1_555 1_555
C6 C5 1_555 1_555
H9 C6 1_555 1_555
C7 C6 1_555 1_555
H10 C7 1_555 1_555
H11 C7 1_555 1_555
C8 C7 1_555 1_555
H12 C8 1_555 1_555
C9 C8 1_555 1_555
H13 C9 1_555 1_555
C10 C1 1_555 1_555
C11 C9 1_555 1_555
H14 C11 1_555 1_555
O2 C11 1_555 1_555
H15 O2 1_555 1_555
C12 C11 1_555 1_555
H16 C12 1_555 1_555
H17 C12 1_555 1_555
C13 C12 1_555 1_555
C14 C8 1_555 1_555
H18 C14 1_555 1_555
C15 C14 1_555 1_555
H19 C15 1_555 1_555
H20 C15 1_555 1_555
C16 C15 1_555 1_555
H21 C16 1_555 1_555
H22 C16 1_555 1_555
C17 C16 1_555 1_555
O3 C17 1_555 1_555
C18 C13 1_555 1_555
H23 C18 1_555 1_555
H24 C18 1_555 1_555
H25 C18 1_555 1_555
O4 C13 1_555 1_555
C19 C10 1_555 1_555
H26 C19 1_555 1_555
H27 C19 1_555 1_555
H28 C19 1_555 1_555
C20 H29 1_555 1_555
H30 C20 1_555 1_555
C21 C20 1_555 1_555
H31 C21 1_555 1_555
H32 C21 1_555 1_555
C22 C21 1_555 1_555
H33 C22 1_555 1_555
O5 C22 1_555 1_555
H34 O5 1_555 1_555
C23 C22 1_555 1_555
H35 C23 1_555 1_555
H36 C23 1_555 1_555
C24 C23 1_555 1_555
C25 C24 1_555 1_555
H37 C25 1_555 1_555
C26 C25 1_555 1_555
H38 C26 1_555 1_555
H39 C26 1_555 1_555
C27 C26 1_555 1_555
H40 C27 1_555 1_555
C28 C27 1_555 1_555
H41 C28 1_555 1_555
C29 C20 1_555 1_555
O6 H42 1_555 1_555
C30 C28 1_555 1_555
H43 C30 1_555 1_555
C31 C30 1_555 1_555
H44 C31 1_555 1_555
H45 C31 1_555 1_555
C32 C31 1_555 1_555
C33 C27 1_555 1_555
H46 C33 1_555 1_555
C34 C33 1_555 1_555
H47 C34 1_555 1_555
H48 C34 1_555 1_555
C35 C34 1_555 1_555
H49 C35 1_555 1_555
H50 C35 1_555 1_555
C36 C35 1_555 1_555
O7 C36 1_555 1_555
C37 C32 1_555 1_555
H51 C37 1_555 1_555
H52 C37 1_555 1_555
H53 C37 1_555 1_555
O8 C32 1_555 1_555
C38 C29 1_555 1_555
H54 C38 1_555 1_555
H55 C38 1_555 1_555
H56 C38 1_555 1_555
C5 C10 1_555 1_555
C9 C10 1_555 1_555
C13 C14 1_555 1_555
C17 O4 1_555 1_555
C24 C29 1_555 1_555
C28 C29 1_555 1_555
O6 C30 1_555 1_555
C32 C33 1_555 1_555
C36 O8 1_555 1_555

#END
