
#######################################################################
#
#                 Cambridge Crystallographic Data Centre
#                                CCDC 
#
#######################################################################
#
# If this CIF has been generated from an entry in the Cambridge 
# Structural Database, then it will include bibliographic, chemical, 
# crystal, experimental, refinement or atomic coordinate data resulting 
# from the CCDC's data processing and validation procedures.
#
#######################################################################

data_DUSXIA
_chemical_formula_moiety         'C20 H21 N3 O4'
_chemical_name_systematic        
'Ethyl 3,4-dicyano-6-(4-(dimethylamino)phenyl)-2-ethoxy-4H-pyran-4-carboxylate'
_symmetry_cell_setting           monoclinic
_symmetry_space_group_name_H-M   'P 21/c'
_symmetry_Int_Tables_number      14
_space_group_name_Hall           '-P 2ybc'
loop_
_symmetry_equiv_pos_site_id
_symmetry_equiv_pos_as_xyz
1 x,y,z
2 -x,1/2+y,1/2-z
3 -x,-y,-z
4 x,1/2-y,1/2+z
_cell_length_a                   9.4696(14)
_cell_length_b                   18.274(3)
_cell_length_c                   11.0069(13)
_cell_angle_alpha                90
_cell_angle_beta                 95.809(5)
_cell_angle_gamma                90
_cell_volume                     1894.94
_exptl_crystal_colour            colorless
_exptl_crystal_description       needle
_cell_formula_units_Z            4
loop_
_atom_site_label
_atom_site_type_symbol
_atom_site_fract_x
_atom_site_fract_y
_atom_site_fract_z
O1 O 1.30882(13) 0.59345(6) 0.11162(10)
O2 O 1.27589(15) 0.51945(8) -0.05052(12)
O3 O 1.02648(12) 0.75158(6) 0.08658(9)
O4 O 1.15206(12) 0.81895(6) -0.03232(9)
N1 N 0.60842(16) 0.71656(8) 0.49429(12)
N2 N 1.31301(17) 0.70767(9) -0.23610(13)
N3 N 0.96457(17) 0.55380(8) -0.21487(13)
C1 C 0.5583(2) 0.65286(12) 0.55395(18)
H1 H 0.5041 0.6217 0.4935
H2 H 0.4972 0.6681 0.6161
H3 H 0.6395 0.6254 0.5929
C2 C 0.69860(17) 0.70922(9) 0.40610(13)
C3 C 0.75260(18) 0.77016(9) 0.34770(14)
H4 H 0.7264 0.8180 0.3704
C4 C 0.84271(17) 0.76155(9) 0.25826(14)
H5 H 0.8770 0.8038 0.2204
C5 C 0.88519(17) 0.69274(9) 0.22164(13)
C6 C 0.97829(17) 0.68391(9) 0.12454(13)
C7 C 1.01489(17) 0.62236(9) 0.07383(14)
H6 H 0.9790 0.5779 0.1033
C8 C 1.10993(17) 0.61775(9) -0.02779(14)
C9 C 1.24150(19) 0.56977(10) 0.00881(14)
C10 C 1.4431(2) 0.55760(11) 0.15326(17)
H7 H 1.5009 0.5908 0.2094
H8 H 1.4965 0.5480 0.0821
C11 C 1.4205(2) 0.48741(12) 0.2171(2)
H9 H 1.3628 0.4963 0.2847
H10 H 1.5124 0.4669 0.2491
H11 H 1.3712 0.4528 0.1595
C12 C 1.11190(17) 0.75311(9) -0.00279(13)
C13 C 1.10552(19) 0.88173(9) 0.03502(15)
H12 H 1.1390 0.8774 0.1229
H13 H 1.0006 0.8851 0.0262
C14 C 1.1689(2) 0.94765(10) -0.01896(18)
H14 H 1.2727 0.9440 -0.0079
H15 H 1.1389 0.9918 0.0220
H16 H 1.1368 0.9504 -0.1063
C15 C 1.15433(17) 0.69384(9) -0.06142(13)
C16 C 1.24238(18) 0.70306(9) -0.15732(14)
C17 C 0.56231(19) 0.78801(10) 0.53023(15)
H17 H 0.6442 0.8158 0.5673
H18 H 0.4926 0.7826 0.5896
H19 H 0.5189 0.8142 0.4582
C18 C 0.74126(18) 0.63999(9) 0.36831(14)
H20 H 0.7066 0.5974 0.4050
C19 C 0.83210(18) 0.63242(9) 0.27929(14)
H21 H 0.8594 0.5847 0.2565
C20 C 1.02974(19) 0.58100(9) -0.13448(14)
loop_
_geom_bond_atom_site_label_1
_geom_bond_atom_site_label_2
_geom_bond_site_symmetry_1
_geom_bond_site_symmetry_2
O1 C9 1_555 1_555
O2 C9 1_555 1_555
O3 C6 1_555 1_555
O4 C12 1_555 1_555
N1 C1 1_555 1_555
N2 C16 1_555 1_555
N3 C20 1_555 1_555
C1 H1 1_555 1_555
H2 C1 1_555 1_555
H3 C1 1_555 1_555
C2 N1 1_555 1_555
C3 C2 1_555 1_555
H4 C3 1_555 1_555
C4 C3 1_555 1_555
H5 C4 1_555 1_555
C5 C4 1_555 1_555
C6 C5 1_555 1_555
C7 C6 1_555 1_555
H6 C7 1_555 1_555
C8 C7 1_555 1_555
C9 C8 1_555 1_555
C10 O1 1_555 1_555
H7 C10 1_555 1_555
H8 C10 1_555 1_555
C11 C10 1_555 1_555
H9 C11 1_555 1_555
H10 C11 1_555 1_555
H11 C11 1_555 1_555
C12 O3 1_555 1_555
C13 O4 1_555 1_555
H12 C13 1_555 1_555
H13 C13 1_555 1_555
C14 C13 1_555 1_555
H14 C14 1_555 1_555
H15 C14 1_555 1_555
H16 C14 1_555 1_555
C15 C8 1_555 1_555
C16 C15 1_555 1_555
C17 N1 1_555 1_555
H17 C17 1_555 1_555
H18 C17 1_555 1_555
H19 C17 1_555 1_555
C18 C2 1_555 1_555
H20 C18 1_555 1_555
C19 C5 1_555 1_555
H21 C19 1_555 1_555
C20 C8 1_555 1_555
C12 C15 1_555 1_555
C18 C19 1_555 1_555

#END
