
#######################################################################
#
#                 Cambridge Crystallographic Data Centre
#                                CCDC 
#
#######################################################################
#
# If this CIF has been generated from an entry in the Cambridge 
# Structural Database, then it will include bibliographic, chemical, 
# crystal, experimental, refinement or atomic coordinate data resulting 
# from the CCDC's data processing and validation procedures.
#
#######################################################################

data_DUSXOF
_chemical_formula_moiety         'C12 H14 O4'
_chemical_name_systematic        
'Methyl 3-(cyclopropylmethoxy)-4-hydroxybenzoate'
_symmetry_cell_setting           monoclinic
_symmetry_space_group_name_H-M   'P 21/n'
_symmetry_Int_Tables_number      14
_space_group_name_Hall           '-P 2yn'
loop_
_symmetry_equiv_pos_site_id
_symmetry_equiv_pos_as_xyz
1 x,y,z
2 1/2-x,1/2+y,1/2-z
3 -x,-y,-z
4 1/2+x,1/2-y,1/2+z
_cell_length_a                   9.2326(18)
_cell_length_b                   7.4747(15)
_cell_length_c                   16.105(3)
_cell_angle_alpha                90
_cell_angle_beta                 102.22(3)
_cell_angle_gamma                90
_cell_volume                     1086.24
_exptl_crystal_colour            colorless
_exptl_crystal_description       block
_cell_formula_units_Z            4
_exptl_crystal_recrystallization_method 'ethyl acetate/hexane'
loop_
_atom_site_label
_atom_site_type_symbol
_atom_site_fract_x
_atom_site_fract_y
_atom_site_fract_z
O1 O 1.20469(11) 0.31399(12) 0.41048(5)
O2 O 1.30178(9) 0.17490(11) 0.31110(5)
O3 O 0.89725(9) 0.09184(11) 0.06138(5)
H1 H 0.8217 0.1289 0.0271
O4 O 0.65026(9) 0.22515(10) 0.10058(5)
C1 C 1.44532(14) 0.17415(17) 0.36957(8)
H2 H 1.4785 0.2976 0.3822
H3 H 1.5174 0.1108 0.3436
H4 H 1.4368 0.1136 0.4223
C2 C 1.19019(14) 0.24965(14) 0.33996(8)
C3 C 1.04746(14) 0.24370(13) 0.27724(7)
C4 C 1.03704(13) 0.16800(14) 0.19666(7)
H5 H 1.1222 0.1169 0.1817
C5 C 0.90327(13) 0.16755(13) 0.13899(7)
C6 C 0.77661(13) 0.23945(13) 0.16152(7)
C7 C 0.78714(14) 0.31575(15) 0.24153(7)
H6 H 0.7020 0.3661 0.2568
C8 C 0.92302(14) 0.31775(15) 0.29883(8)
H7 H 0.9305 0.3704 0.3533
C9 C 0.51186(13) 0.27000(15) 0.12305(7)
H8 H 0.5102 0.3987 0.1374
H9 H 0.4996 0.1998 0.1732
C10 C 0.38989(13) 0.22846(15) 0.04938(7)
H10 H 0.3932 0.1075 0.0233
C11 C 0.32129(13) 0.37525(17) -0.00999(8)
H11 H 0.3624 0.4974 0.0009
H12 H 0.2860 0.3447 -0.0707
C12 C 0.23882(13) 0.29816(16) 0.05244(8)
H13 H 0.1526 0.2203 0.0301
H14 H 0.2291 0.3730 0.1017
loop_
_geom_bond_atom_site_label_1
_geom_bond_atom_site_label_2
_geom_bond_site_symmetry_1
_geom_bond_site_symmetry_2
O1 C2 1_555 1_555
O2 C1 1_555 1_555
O3 H1 1_555 1_555
O4 C6 1_555 1_555
C1 H2 1_555 1_555
H3 C1 1_555 1_555
H4 C1 1_555 1_555
C2 O2 1_555 1_555
C3 C2 1_555 1_555
C4 C3 1_555 1_555
H5 C4 1_555 1_555
C5 O3 1_555 1_555
C6 C5 1_555 1_555
C7 C6 1_555 1_555
H6 C7 1_555 1_555
C8 C3 1_555 1_555
H7 C8 1_555 1_555
C9 O4 1_555 1_555
H8 C9 1_555 1_555
H9 C9 1_555 1_555
C10 C9 1_555 1_555
H10 C10 1_555 1_555
C11 C10 1_555 1_555
H11 C11 1_555 1_555
H12 C11 1_555 1_555
C12 C10 1_555 1_555
H13 C12 1_555 1_555
H14 C12 1_555 1_555
C4 C5 1_555 1_555
C7 C8 1_555 1_555
C11 C12 1_555 1_555

#END
