
#######################################################################
#
#                 Cambridge Crystallographic Data Centre
#                                CCDC 
#
#######################################################################
#
# If this CIF has been generated from an entry in the Cambridge 
# Structural Database, then it will include bibliographic, chemical, 
# crystal, experimental, refinement or atomic coordinate data resulting 
# from the CCDC's data processing and validation procedures.
#
#######################################################################

data_DUTBOK
_chemical_formula_moiety         'C20 H33 Cl1 N2 O3'
_chemical_name_systematic        
(S)-3-Chloro-4-(4-ethylpiperazin-1-yl)-5-[(1R,2S,5R)-2-isopropyl-5-methylcyclohexyloxy]furan-2(5H)-one
_symmetry_cell_setting           orthorhombic
_symmetry_space_group_name_H-M   'P 21 21 21'
_symmetry_Int_Tables_number      19
_space_group_name_Hall           'P 2ac 2ab'
loop_
_symmetry_equiv_pos_site_id
_symmetry_equiv_pos_as_xyz
1 x,y,z
2 1/2-x,-y,1/2+z
3 -x,1/2+y,1/2-z
4 1/2+x,1/2-y,-z
_cell_length_a                   8.7168(15)
_cell_length_b                   10.1470(18)
_cell_length_c                   24.478(4)
_cell_angle_alpha                90
_cell_angle_beta                 90
_cell_angle_gamma                90
_cell_volume                     2165.06
_exptl_crystal_colour            colorless
_exptl_crystal_description       block
_cell_formula_units_Z            4
loop_
_atom_site_label
_atom_site_type_symbol
_atom_site_fract_x
_atom_site_fract_y
_atom_site_fract_z
Cl1 Cl 0.92355(9) -0.19339(9) 0.15783(3)
C1 C 1.0114(3) -0.1277(3) 0.25997(11)
C2 C 0.8953(3) -0.1150(3) 0.21895(10)
C3 C 0.7814(3) -0.0351(2) 0.23643(9)
C4 C 0.8249(3) 0.0073(3) 0.29384(9)
H1 H 0.8300 0.1035 0.2967
C5 C 0.7051(3) 0.0215(3) 0.38183(9)
H2 H 0.6699 0.1120 0.3756
C6 C 0.5819(3) -0.0524(3) 0.41368(10)
H3 H 0.6217 -0.1414 0.4200
C7 C 0.5633(4) 0.0115(4) 0.46984(11)
H4 H 0.5220 0.0997 0.4653
H5 H 0.4903 -0.0391 0.4911
C8 C 0.7140(4) 0.0195(4) 0.50074(12)
H6 H 0.6975 0.0648 0.5351
H7 H 0.7494 -0.0690 0.5089
C9 C 0.8364(4) 0.0913(4) 0.46850(12)
H8 H 0.8015 0.1820 0.4626
C10 C 0.9897(4) 0.0966(4) 0.49839(12)
H9 H 0.9775 0.1439 0.5321
H10 H 1.0640 0.1407 0.4760
H11 H 1.0241 0.0086 0.5060
C11 C 0.4297(3) -0.0685(3) 0.38336(12)
H12 H 0.4543 -0.1031 0.3470
C12 C 0.3255(4) -0.1697(4) 0.41080(14)
H13 H 0.3810 -0.2504 0.4161
H14 H 0.2378 -0.1859 0.3880
H15 H 0.2921 -0.1365 0.4455
C13 C 0.3423(4) 0.0598(4) 0.37461(14)
H16 H 0.2544 0.0436 0.3519
H17 H 0.4081 0.1229 0.3571
H18 H 0.3092 0.0938 0.4093
N1 N 0.6474(2) 0.0035(2) 0.21506(8)
C14 C 0.5990(3) -0.0392(3) 0.16045(10)
H19 H 0.6371 -0.1275 0.1535
H20 H 0.6425 0.0192 0.1332
C15 C 0.4266(3) -0.0384(3) 0.15570(10)
H21 H 0.3968 -0.0654 0.1192
H22 H 0.3831 -0.1005 0.1815
N2 N 0.3681(2) 0.0924(2) 0.16674(9)
C16 C 0.4034(3) 0.1223(3) 0.22317(10)
H23 H 0.3579 0.0559 0.2466
H24 H 0.3591 0.2069 0.2328
C17 C 0.5741(3) 0.1263(2) 0.23249(11)
H25 H 0.6178 0.1995 0.2123
H26 H 0.5944 0.1406 0.2710
C18 C 0.2032(3) 0.1040(3) 0.15658(12)
H27 H 0.1686 0.1891 0.1698
H28 H 0.1503 0.0367 0.1774
C19 C 0.1589(4) 0.0909(4) 0.09789(13)
H29 H 0.2230 0.1468 0.0760
H30 H 0.0536 0.1165 0.0934
H31 H 0.1715 0.0010 0.0865
O1 O 0.71812(18) -0.04391(16) 0.32993(6)
O2 O 0.97260(19) -0.05115(19) 0.30335(7)
O3 O 1.1286(2) -0.1903(2) 0.25964(9)
C20 C 0.8549(3) 0.0261(3) 0.41285(10)
H32 H 0.9300 0.0747 0.3916
H33 H 0.8931 -0.0629 0.4178
loop_
_geom_bond_atom_site_label_1
_geom_bond_atom_site_label_2
_geom_bond_site_symmetry_1
_geom_bond_site_symmetry_2
Cl1 C2 1_555 1_555
C1 C2 1_555 1_555
C2 C3 1_555 1_555
C3 C4 1_555 1_555
C4 H1 1_555 1_555
C5 H2 1_555 1_555
C6 C5 1_555 1_555
H3 C6 1_555 1_555
C7 C6 1_555 1_555
H4 C7 1_555 1_555
H5 C7 1_555 1_555
C8 C7 1_555 1_555
H6 C8 1_555 1_555
H7 C8 1_555 1_555
C9 C8 1_555 1_555
H8 C9 1_555 1_555
C10 C9 1_555 1_555
H9 C10 1_555 1_555
H10 C10 1_555 1_555
H11 C10 1_555 1_555
C11 C6 1_555 1_555
H12 C11 1_555 1_555
C12 C11 1_555 1_555
H13 C12 1_555 1_555
H14 C12 1_555 1_555
H15 C12 1_555 1_555
C13 C11 1_555 1_555
H16 C13 1_555 1_555
H17 C13 1_555 1_555
H18 C13 1_555 1_555
N1 C3 1_555 1_555
C14 N1 1_555 1_555
H19 C14 1_555 1_555
H20 C14 1_555 1_555
C15 C14 1_555 1_555
H21 C15 1_555 1_555
H22 C15 1_555 1_555
N2 C15 1_555 1_555
C16 N2 1_555 1_555
H23 C16 1_555 1_555
H24 C16 1_555 1_555
C17 N1 1_555 1_555
H25 C17 1_555 1_555
H26 C17 1_555 1_555
C18 N2 1_555 1_555
H27 C18 1_555 1_555
H28 C18 1_555 1_555
C19 C18 1_555 1_555
H29 C19 1_555 1_555
H30 C19 1_555 1_555
H31 C19 1_555 1_555
O1 C4 1_555 1_555
O2 C1 1_555 1_555
O3 C1 1_555 1_555
C20 C5 1_555 1_555
H32 C20 1_555 1_555
H33 C20 1_555 1_555
C4 O2 1_555 1_555
C5 O1 1_555 1_555
C9 C20 1_555 1_555
C16 C17 1_555 1_555

#END
