
#######################################################################
#
#                 Cambridge Crystallographic Data Centre
#                                CCDC 
#
#######################################################################
#
# If this CIF has been generated from an entry in the Cambridge 
# Structural Database, then it will include bibliographic, chemical, 
# crystal, experimental, refinement or atomic coordinate data resulting 
# from the CCDC's data processing and validation procedures.
#
#######################################################################

data_DUTCAX
_chemical_formula_moiety         'C8 H10 N1 O2 1+,N1 O3 1-'
_chemical_name_systematic        '2-(Ethoxycarbonyl)pyridinium nitrate'
_symmetry_cell_setting           monoclinic
_symmetry_space_group_name_H-M   'P 21/n'
_symmetry_Int_Tables_number      14
_space_group_name_Hall           '-P 2yn'
loop_
_symmetry_equiv_pos_site_id
_symmetry_equiv_pos_as_xyz
1 x,y,z
2 1/2-x,1/2+y,1/2-z
3 -x,-y,-z
4 1/2+x,1/2-y,1/2+z
_cell_length_a                   6.8221(14)
_cell_length_b                   16.208(3)
_cell_length_c                   9.2195(18)
_cell_angle_alpha                90
_cell_angle_beta                 106.55(3)
_cell_angle_gamma                90
_cell_volume                     977.191
_exptl_crystal_colour            colorless
_exptl_crystal_description       prism
_cell_formula_units_Z            4
loop_
_atom_site_label
_atom_site_type_symbol
_atom_site_fract_x
_atom_site_fract_y
_atom_site_fract_z
O1 O 0.2450(3) 0.15158(11) 0.4900(2)
N1 N 0.2593(3) 0.01904(14) 0.3286(2)
H1 H 0.2558 0.0168 0.4210
C1 C 0.2474(4) 0.16983(18) 0.3508(3)
C2 C 0.2573(4) 0.09338(17) 0.2627(3)
O5 O 0.2430(3) 0.23734(13) 0.2988(2)
C3 C 0.2670(5) 0.0251(2) 0.0360(3)
H2 H 0.2693 0.0270 -0.0643
C4 C 0.2621(4) 0.09761(19) 0.1144(3)
H3 H 0.2621 0.1485 0.0677
C5 C 0.2664(4) -0.05092(18) 0.2550(3)
H4 H 0.2701 -0.1012 0.3043
C6 C 0.2289(5) 0.22041(19) 0.5875(3)
H5 H 0.1064 0.2522 0.5417
H6 H 0.3465 0.2565 0.6026
C7 C 0.2684(5) -0.04929(19) 0.1065(4)
H7 H 0.2707 -0.0982 0.0544
C8 C 0.2201(6) 0.1856(2) 0.7339(4)
H8 H 0.2077 0.2297 0.8004
H9 H 0.3429 0.1550 0.7788
H10 H 0.1040 0.1497 0.7175
O2 O 0.1957(4) -0.10679(14) 0.7615(2)
O3 O 0.2397(4) -0.00834(13) 0.6195(3)
O4 O 0.2805(4) -0.13303(14) 0.5588(2)
N2 N 0.2370(3) -0.08353(15) 0.6463(3)
loop_
_geom_bond_atom_site_label_1
_geom_bond_atom_site_label_2
_geom_bond_site_symmetry_1
_geom_bond_site_symmetry_2
O1 C1 1_555 1_555
O2 N2 1_555 1_555
N1 H1 1_555 1_555
O3 N2 1_555 1_555
O4 N2 1_555 1_555
C1 C2 1_555 1_555
C2 N1 1_555 1_555
O5 C1 1_555 1_555
C3 H2 1_555 1_555
C4 C2 1_555 1_555
H3 C4 1_555 1_555
C5 N1 1_555 1_555
H4 C5 1_555 1_555
C6 O1 1_555 1_555
H5 C6 1_555 1_555
H6 C6 1_555 1_555
C7 C3 1_555 1_555
H7 C7 1_555 1_555
C8 C6 1_555 1_555
H8 C8 1_555 1_555
H9 C8 1_555 1_555
H10 C8 1_555 1_555
C3 C4 1_555 1_555
C5 C7 1_555 1_555

#END
