
#######################################################################
#
#                 Cambridge Crystallographic Data Centre
#                                CCDC 
#
#######################################################################
#
# If this CIF has been generated from an entry in the Cambridge 
# Structural Database, then it will include bibliographic, chemical, 
# crystal, experimental, refinement or atomic coordinate data resulting 
# from the CCDC's data processing and validation procedures.
#
#######################################################################

data_DUTDUS
_chemical_formula_moiety         'C14 H19 N2 1+,B1 F4 1-'
_chemical_name_systematic        
'1-Ethyl-3-(2,4,6-trimethylphenyl)imidazolium tetrafluoroborate'
_symmetry_cell_setting           monoclinic
_symmetry_space_group_name_H-M   'P 21/n'
_symmetry_Int_Tables_number      14
_space_group_name_Hall           '-P 2yn'
loop_
_symmetry_equiv_pos_site_id
_symmetry_equiv_pos_as_xyz
1 x,y,z
2 1/2-x,1/2+y,1/2-z
3 -x,-y,-z
4 1/2+x,1/2-y,1/2+z
_cell_length_a                   7.7637(7)
_cell_length_b                   9.1625(9)
_cell_length_c                   21.559(2)
_cell_angle_alpha                90
_cell_angle_beta                 91.401(2)
_cell_angle_gamma                90
_cell_volume                     1533.14
_exptl_crystal_colour            colorless
_exptl_crystal_description       block
_cell_formula_units_Z            4
_exptl_crystal_recrystallization_method hexane/dichloromethane
loop_
_atom_site_label
_atom_site_type_symbol
_atom_site_fract_x
_atom_site_fract_y
_atom_site_fract_z
B1 B 0.3268(4) 0.6442(3) 0.16502(13)
F1 F 0.3231(3) 0.6699(2) 0.10302(8)
F2 F 0.4792(3) 0.5802(3) 0.18106(10)
F3 F 0.3132(2) 0.7798(2) 0.19293(8)
F4 F 0.1928(3) 0.5595(2) 0.17995(13)
C1 C 0.7628(3) 0.8458(2) 0.04243(9)
C2 C 0.7570(3) 0.7075(3) 0.01582(11)
C3 C 0.7342(3) 0.7003(3) -0.04830(11)
H1 H 0.7303 0.6093 -0.0674
C4 C 0.7172(3) 0.8245(3) -0.08467(10)
C5 C 0.7239(3) 0.9592(3) -0.05564(10)
H2 H 0.7117 1.0429 -0.0797
C6 C 0.7481(3) 0.9738(2) 0.00784(10)
C7 C 0.7746(5) 0.5706(3) 0.05432(14)
H3 H 0.7588 0.4867 0.0281
H4 H 0.6890 0.5705 0.0857
H5 H 0.8873 0.5674 0.0736
C8 C 0.6908(4) 0.8130(4) -0.15396(12)
H6 H 0.5704 0.8002 -0.1637
H7 H 0.7540 0.7308 -0.1691
H8 H 0.7311 0.9005 -0.1733
C9 C 0.7608(3) 1.1231(3) 0.03680(12)
H9 H 0.7485 1.1961 0.0051
H10 H 0.8709 1.1337 0.0575
H11 H 0.6710 1.1346 0.0663
C10 C 0.9442(3) 0.8499(3) 0.14103(11)
H12 H 1.0503 0.8278 0.1243
C11 C 0.9149(3) 0.8783(3) 0.20014(11)
H13 H 0.9968 0.8806 0.2323
C12 C 0.6688(3) 0.8903(2) 0.14954(10)
H14 H 0.5519 0.9012 0.1403
C13 C 0.6504(3) 0.9378(3) 0.26280(10)
H15 H 0.5305 0.9583 0.2526
H16 H 0.7004 1.0248 0.2815
C14 C 0.6599(4) 0.8162(3) 0.30850(12)
H17 H 0.6102 0.7299 0.2903
H18 H 0.5974 0.8425 0.3447
H19 H 0.7781 0.7979 0.3200
N1 N 0.7890(2) 0.8590(2) 0.10897(8)
N2 N 0.7417(2) 0.9036(2) 0.20523(8)
loop_
_geom_bond_atom_site_label_1
_geom_bond_atom_site_label_2
_geom_bond_site_symmetry_1
_geom_bond_site_symmetry_2
B1 F1 1_555 1_555
C1 C2 1_555 1_555
C2 C3 1_555 1_555
C3 H1 1_555 1_555
C4 C3 1_555 1_555
C5 C4 1_555 1_555
H2 C5 1_555 1_555
C6 C1 1_555 1_555
C7 C2 1_555 1_555
H3 C7 1_555 1_555
H4 C7 1_555 1_555
H5 C7 1_555 1_555
C8 C4 1_555 1_555
H6 C8 1_555 1_555
H7 C8 1_555 1_555
H8 C8 1_555 1_555
C9 C6 1_555 1_555
H9 C9 1_555 1_555
H10 C9 1_555 1_555
H11 C9 1_555 1_555
C10 H12 1_555 1_555
C11 C10 1_555 1_555
H13 C11 1_555 1_555
C12 H14 1_555 1_555
C13 H15 1_555 1_555
H16 C13 1_555 1_555
C14 C13 1_555 1_555
H17 C14 1_555 1_555
H18 C14 1_555 1_555
H19 C14 1_555 1_555
F2 B1 1_555 1_555
F3 B1 1_555 1_555
F4 B1 1_555 1_555
N1 C1 1_555 1_555
N2 C11 1_555 1_555
C5 C6 1_555 1_555
C10 N1 1_555 1_555
C12 N1 1_555 1_555
C12 N2 1_555 1_555
C13 N2 1_555 1_555

#END
