
#######################################################################
#
#                 Cambridge Crystallographic Data Centre
#                                CCDC 
#
#######################################################################
#
# If this CIF has been generated from an entry in the Cambridge 
# Structural Database, then it will include bibliographic, chemical, 
# crystal, experimental, refinement or atomic coordinate data resulting 
# from the CCDC's data processing and validation procedures.
#
#######################################################################

data_DUTGEF01
_chemical_formula_moiety         'C14 H11 Br1 N2 O4,H2 O1'
_chemical_name_systematic        
"N'-(5-Bromo-2-hydroxybenzylidene)-3,5-dihydroxybenzohydrazide monohydrate"
_symmetry_cell_setting           monoclinic
_symmetry_space_group_name_H-M   'P 21/c'
_symmetry_Int_Tables_number      14
_space_group_name_Hall           '-P 2ybc'
loop_
_symmetry_equiv_pos_site_id
_symmetry_equiv_pos_as_xyz
1 x,y,z
2 -x,1/2+y,1/2-z
3 -x,-y,-z
4 x,1/2-y,1/2+z
_cell_length_a                   14.267(6)
_cell_length_b                   8.079(4)
_cell_length_c                   13.157(6)
_cell_angle_alpha                90
_cell_angle_beta                 108.114(4)
_cell_angle_gamma                90
_cell_volume                     1441.36
_exptl_crystal_colour            yellow
_exptl_crystal_description       block
_cell_formula_units_Z            4
loop_
_atom_site_label
_atom_site_type_symbol
_atom_site_fract_x
_atom_site_fract_y
_atom_site_fract_z
H1 H 0.148(4) 0.669(4) 0.821(4)
H2 H 0.078(2) 0.788(4) 0.7783(19)
O1 O 0.1212(2) 0.7561(4) 0.8350(2)
Br1 Br 0.55181(3) 1.23112(6) 0.58551(4)
O2 O -0.18754(18) 0.5740(3) 0.19310(18)
H3 H -0.1448 0.6285 0.1788
O3 O -0.02200(16) 0.8259(3) 0.64245(18)
C1 C -0.0124(2) 0.7800(4) 0.5562(3)
N1 N 0.06989(19) 0.8117(3) 0.5308(2)
C2 C -0.2430(2) 0.5039(4) 0.3382(3)
H4 H -0.2934 0.4422 0.2919
C3 C 0.3161(2) 1.0670(4) 0.7417(3)
C4 C 0.4547(2) 1.1660(5) 0.6486(3)
C5 C 0.2169(2) 0.9402(4) 0.5679(3)
H5 H 0.2137 0.9131 0.4983
C6 C -0.1583(2) 0.6028(4) 0.5146(3)
H6 H -0.1526 0.6070 0.5869
O4 O 0.25174(19) 1.0165(3) 0.7932(2)
H7 H 0.2080 0.9606 0.7525
C7 C 0.3019(2) 1.0299(4) 0.6338(3)
O5 O -0.30078(19) 0.4292(4) 0.4803(2)
H8 H -0.2860 0.4378 0.5455
N2 N 0.14583(19) 0.8969(3) 0.6021(2)
C8 C -0.0909(2) 0.6858(4) 0.4770(2)
C9 C 0.3730(2) 1.0833(4) 0.5888(3)
H9 H 0.3646 1.0623 0.5170
C10 C -0.1758(2) 0.5869(4) 0.3005(3)
C11 C -0.0998(2) 0.6785(4) 0.3685(3)
H10 H -0.0553 0.7344 0.3421
C12 C -0.2343(2) 0.5137(4) 0.4451(3)
C13 C 0.3986(3) 1.1528(5) 0.8007(3)
H11 H 0.4070 1.1769 0.8722
C14 C 0.4682(3) 1.2027(5) 0.7552(3)
H12 H 0.5238 1.2605 0.7953
H13 H 0.075(3) 0.777(4) 0.4684(17)
loop_
_geom_bond_atom_site_label_1
_geom_bond_atom_site_label_2
_geom_bond_site_symmetry_1
_geom_bond_site_symmetry_2
H1 O1 1_555 1_555
H2 O1 1_555 1_555
Br1 C4 1_555 1_555
O2 H3 1_555 1_555
O3 C1 1_555 1_555
C1 N1 1_555 1_555
N1 N2 1_555 1_555
C2 H4 1_555 1_555
C3 O4 1_555 1_555
C4 C9 1_555 1_555
C5 H5 1_555 1_555
C6 H6 1_555 1_555
O4 H7 1_555 1_555
C7 C3 1_555 1_555
O5 H8 1_555 1_555
N2 C5 1_555 1_555
C8 C1 1_555 1_555
C9 C7 1_555 1_555
H9 C9 1_555 1_555
C10 O2 1_555 1_555
C11 C8 1_555 1_555
H10 C11 1_555 1_555
C12 C2 1_555 1_555
C13 C3 1_555 1_555
H11 C13 1_555 1_555
C14 C4 1_555 1_555
H12 C14 1_555 1_555
H13 N1 1_555 1_555
C2 C10 1_555 1_555
C5 C7 1_555 1_555
C6 C8 1_555 1_555
C6 C12 1_555 1_555
O5 C12 1_555 1_555
C10 C11 1_555 1_555
C13 C14 1_555 1_555

#END
