
#######################################################################
#
#                 Cambridge Crystallographic Data Centre
#                                CCDC 
#
#######################################################################
#
# If this CIF has been generated from an entry in the Cambridge 
# Structural Database, then it will include bibliographic, chemical, 
# crystal, experimental, refinement or atomic coordinate data resulting 
# from the CCDC's data processing and validation procedures.
#
#######################################################################

data_DUTGIK
_chemical_formula_moiety         'C38 H20 S4'
_chemical_name_systematic        
2,10-diphenyl[1]benzothieno[2''',3''':4'',5'']thieno[3'',2'':6',7']naphtho[2',3':4,5]thieno[3,2-b][1]benzothiophene
_symmetry_cell_setting           monoclinic
_symmetry_space_group_name_H-M   'P 21/a'
_symmetry_Int_Tables_number      14
_space_group_name_Hall           '-P 2yab'
loop_
_symmetry_equiv_pos_site_id
_symmetry_equiv_pos_as_xyz
1 x,y,z
2 1/2-x,1/2+y,-z
3 -x,-y,-z
4 1/2+x,1/2-y,z
_cell_length_a                   6.1280(15)
_cell_length_b                   7.5805(19)
_cell_length_c                   28.009(7)
_cell_angle_alpha                90
_cell_angle_beta                 94.509(7)
_cell_angle_gamma                90
_cell_volume                     1297.08
_exptl_crystal_colour            yellow
_exptl_crystal_description       plate
_cell_formula_units_Z            2
loop_
_atom_site_label
_atom_site_type_symbol
_atom_site_fract_x
_atom_site_fract_y
_atom_site_fract_z
C1 C 0.4896(7) 0.1165(7) 0.10417(18)
H1 H 0.5998 0.1981 0.1153
C2 C 0.4184(7) 0.1139(7) 0.05616(17)
H2 H 0.4813 0.1926 0.0347
C3 C 0.2572(8) -0.0014(7) 0.03900(18)
H3 H 0.2076 -0.0011 0.0060
C4 C 0.1679(8) -0.1181(7) 0.07030(19)
H4 H 0.0575 -0.1990 0.0589
C5 C 0.2412(8) -0.1158(7) 0.11840(18)
H5 H 0.1799 -0.1962 0.1397
C6 C 0.4028(7) 0.0017(7) 0.13642(18)
C7 C 0.4773(8) 0.0029(6) 0.18800(18)
C8 C 0.6870(7) 0.0682(6) 0.20369(18)
H6 H 0.7841 0.1033 0.1806
C9 C 0.7542(8) 0.0821(6) 0.25203(17)
H7 H 0.8941 0.1297 0.2617
C10 C 0.6176(7) 0.0266(6) 0.28610(17)
C11 C 0.4103(7) -0.0417(6) 0.27067(17)
C12 C 0.3409(8) -0.0537(6) 0.22198(17)
H8 H 0.2006 -0.1006 0.2123
C13 C 0.4654(7) -0.0328(6) 0.35837(17)
C14 C 0.4838(7) -0.0240(6) 0.40969(17)
C15 C 0.6909(7) 0.0545(6) 0.42552(17)
C16 C 0.6413(7) 0.0287(6) 0.33734(17)
C17 C 0.7489(7) 0.0859(6) 0.47289(17)
H9 H 0.8862 0.1385 0.4824
C18 C 0.6041(7) 0.0399(6) 0.50742(17)
C19 C 0.6576(7) 0.0712(6) 0.55680(16)
H10 H 0.7931 0.1256 0.5669
S1 S 0.84898(18) 0.10314(16) 0.37804(4)
S2 S 0.25540(19) -0.10090(16) 0.31743(4)
C1B C 0.5104(7) -0.1165(7) 0.89583(18)
H1B H 0.4002 -0.1981 0.8847
C2B C 0.5816(7) -0.1139(7) 0.94384(17)
H2B H 0.5187 -0.1926 0.9653
C3B C 0.7428(8) 0.0014(7) 0.96100(18)
H3B H 0.7924 0.0011 0.9940
C4B C 0.8321(8) 0.1181(7) 0.92970(19)
H4B H 0.9425 0.1990 0.9411
C5B C 0.7588(8) 0.1158(7) 0.88160(18)
H5B H 0.8201 0.1962 0.8603
C6B C 0.5972(7) -0.0017(7) 0.86358(18)
C7B C 0.5227(8) -0.0029(6) 0.81200(18)
C8B C 0.3130(7) -0.0682(6) 0.79631(18)
H6B H 0.2159 -0.1033 0.8194
C9B C 0.2458(8) -0.0821(6) 0.74797(17)
H7B H 0.1059 -0.1297 0.7383
C10B C 0.3824(7) -0.0266(6) 0.71390(17)
C11B C 0.5897(7) 0.0417(6) 0.72933(17)
C12B C 0.6591(8) 0.0537(6) 0.77802(17)
H8B H 0.7994 0.1006 0.7877
C13B C 0.5346(7) 0.0328(6) 0.64163(17)
C14B C 0.5162(7) 0.0240(6) 0.59031(17)
C15B C 0.3091(7) -0.0545(6) 0.57448(17)
C16B C 0.3587(7) -0.0287(6) 0.66266(17)
C17B C 0.2511(7) -0.0859(6) 0.52711(17)
H9B H 0.1138 -0.1385 0.5176
C18B C 0.3959(7) -0.0399(6) 0.49258(17)
C19B C 0.3424(7) -0.0712(6) 0.44320(16)
H10B H 0.2069 -0.1256 0.4331
S1B S 0.15102(18) -0.10314(16) 0.62196(4)
S2B S 0.74460(19) 0.10090(16) 0.68257(4)
loop_
_geom_bond_atom_site_label_1
_geom_bond_atom_site_label_2
_geom_bond_site_symmetry_1
_geom_bond_site_symmetry_2
C1 H1 1_555 1_555
C2 C1 1_555 1_555
H2 C2 1_555 1_555
C3 C2 1_555 1_555
H3 C3 1_555 1_555
C4 C3 1_555 1_555
H4 C4 1_555 1_555
C5 C4 1_555 1_555
H5 C5 1_555 1_555
C6 C1 1_555 1_555
C7 C6 1_555 1_555
C8 C7 1_555 1_555
H6 C8 1_555 1_555
C9 C8 1_555 1_555
H7 C9 1_555 1_555
C10 C9 1_555 1_555
C11 C10 1_555 1_555
C12 C7 1_555 1_555
H8 C12 1_555 1_555
C13 C14 1_555 1_555
C14 C15 1_555 1_555
C15 C17 1_555 1_555
C16 C10 1_555 1_555
C17 H9 1_555 1_555
C18 C17 1_555 1_555
C19 C18 1_555 1_555
H10 C19 1_555 1_555
S1 C15 1_555 1_555
S2 C11 1_555 1_555
C1B H1B 1_555 1_555
C2B C1B 1_555 1_555
H2B C2B 1_555 1_555
C3B C2B 1_555 1_555
H3B C3B 1_555 1_555
C4B C3B 1_555 1_555
H4B C4B 1_555 1_555
C5B C4B 1_555 1_555
H5B C5B 1_555 1_555
C6B C1B 1_555 1_555
C7B C6B 1_555 1_555
C8B C7B 1_555 1_555
H6B C8B 1_555 1_555
C9B C8B 1_555 1_555
H7B C9B 1_555 1_555
C10B C9B 1_555 1_555
C11B C10B 1_555 1_555
C12B C7B 1_555 1_555
H8B C12B 1_555 1_555
C13B C14B 1_555 1_555
C14B C19 1_555 1_555
C15B C14B 1_555 1_555
C16B C10B 1_555 1_555
C17B C15B 1_555 1_555
H9B C17B 1_555 1_555
C18B C18 1_555 1_555
C19B C14 1_555 1_555
H10B C19B 1_555 1_555
S1B C15B 1_555 1_555
S2B C11B 1_555 1_555
C5 C6 1_555 1_555
C11 C12 1_555 1_555
C13 C16 1_555 1_555
C13 S2 1_555 1_555
C16 S1 1_555 1_555
C5B C6B 1_555 1_555
C11B C12B 1_555 1_555
C13B C16B 1_555 1_555
C13B S2B 1_555 1_555
C16B S1B 1_555 1_555
C17B C18B 1_555 1_555
C18B C19B 1_555 1_555

#END
