
#######################################################################
#
#                 Cambridge Crystallographic Data Centre
#                                CCDC 
#
#######################################################################
#
# If this CIF has been generated from an entry in the Cambridge 
# Structural Database, then it will include bibliographic, chemical, 
# crystal, experimental, refinement or atomic coordinate data resulting 
# from the CCDC's data processing and validation procedures.
#
#######################################################################

data_DUTHOP
_chemical_formula_moiety         'C20 H24 O5'
_chemical_name_systematic        
cis-(2,5-bis(3,4-Dimethoxyphenyl))tetrahydrofuran
_symmetry_cell_setting           monoclinic
_symmetry_space_group_name_H-M   'P 21/c'
_symmetry_Int_Tables_number      14
_space_group_name_Hall           '-P 2ybc'
loop_
_symmetry_equiv_pos_site_id
_symmetry_equiv_pos_as_xyz
1 x,y,z
2 -x,1/2+y,1/2-z
3 -x,-y,-z
4 x,1/2-y,1/2+z
_cell_length_a                   9.603(2)
_cell_length_b                   6.420(1)
_cell_length_c                   30.160(5)
_cell_angle_alpha                90
_cell_angle_beta                 97.96(1)
_cell_angle_gamma                90
_cell_volume                     1841.49
_chemical_melting_point          '95-96 deg.C'
_cell_formula_units_Z            4
loop_
_atom_site_label
_atom_site_type_symbol
_atom_site_fract_x
_atom_site_fract_y
_atom_site_fract_z
O1 O 0.6758(3) -0.1583(4) 0.7252(1)
C1 C 0.6511(4) -0.2867(7) 0.7621(1)
C2 C 0.7527(6) -0.4620(7) 0.7630(1)
C3 C 0.7989(6) -0.4610(7) 0.7178(2)
C4 C 0.7082(5) -0.3032(7) 0.6915(1)
C5 C 0.6691(4) -0.1623(6) 0.8050(1)
C6 C 0.5949(4) -0.2223(6) 0.8389(1)
C7 C 0.6068(4) -0.1150(6) 0.8784(1)
C8 C 0.6947(3) 0.0609(5) 0.8853(1)
C9 C 0.7705(4) 0.1168(6) 0.8522(1)
C10 C 0.7590(4) 0.0080(6) 0.8123(1)
O2 O 0.5382(2) -0.1628(4) 0.9139(1)
C11 C 0.4577(4) -0.3509(7) 0.9110(1)
O3 O 0.6950(3) 0.1570(4) 0.9256(1)
C12 C 0.7929(4) 0.3204(7) 0.9367(1)
C13 C 0.7784(4) -0.1906(6) 0.6568(1)
C14 C 0.7494(4) -0.2595(6) 0.6129(1)
C15 C 0.8033(3) -0.1618(6) 0.5790(1)
C16 C 0.8895(3) 0.0162(6) 0.5884(1)
C17 C 0.9233(4) 0.0811(6) 0.6320(1)
C18 C 0.8677(4) -0.0221(6) 0.6660(1)
O4 O 0.7737(2) -0.2135(4) 0.5346(1)
C19 C 0.6753(4) -0.3767(7) 0.5236(1)
O5 O 0.9311(3) 0.1098(4) 0.5515(1)
C20 C 1.0183(4) 0.2889(7) 0.5587(1)
H1 H 0.562(3) -0.356(5) 0.752(1)
H2 H 0.715(3) -0.581(6) 0.769(1)
H3 H 0.814(4) -0.456(6) 0.792(1)
H4 H 0.890(4) -0.408(7) 0.722(1)
H5 H 0.807(4) -0.581(6) 0.707(1)
H6 H 0.619(3) -0.398(5) 0.679(1)
H7 H 0.540(3) -0.349(5) 0.833(1)
H8 H 0.822(3) 0.222(5) 0.857(1)
H9 H 0.815(3) 0.043(5) 0.790(1)
H10 H 0.423(3) -0.363(5) 0.938(1)
H11 H 0.387(3) -0.325(5) 0.885(1)
H12 H 0.506(3) -0.473(5) 0.903(1)
H13 H 0.783(3) 0.367(5) 0.968(1)
H14 H 0.884(3) 0.265(5) 0.936(1)
H15 H 0.778(3) 0.416(5) 0.915(1)
H16 H 0.698(3) -0.382(5) 0.609(1)
H17 H 0.981(3) 0.200(4) 0.641(1)
H18 H 0.886(3) 0.021(5) 0.695(1)
H19 H 0.664(3) -0.372(5) 0.490(1)
H20 H 0.719(3) -0.520(5) 0.539(1)
H21 H 0.577(3) -0.328(5) 0.532(1)
H22 H 1.036(3) 0.358(5) 0.528(1)
H23 H 0.959(3) 0.408(5) 0.570(1)
H24 H 1.106(3) 0.261(5) 0.579(1)
loop_
_geom_bond_atom_site_label_1
_geom_bond_atom_site_label_2
_geom_bond_site_symmetry_1
_geom_bond_site_symmetry_2
O1 C1 1_555 1_555
C1 C2 1_555 1_555
C2 C3 1_555 1_555
C3 C4 1_555 1_555
C4 O1 1_555 1_555
C5 C1 1_555 1_555
C6 C5 1_555 1_555
C7 C6 1_555 1_555
C8 C7 1_555 1_555
C9 C8 1_555 1_555
C10 C5 1_555 1_555
O2 C7 1_555 1_555
C11 O2 1_555 1_555
O3 C8 1_555 1_555
C12 O3 1_555 1_555
C13 C4 1_555 1_555
C14 C13 1_555 1_555
C15 C14 1_555 1_555
C16 C15 1_555 1_555
C17 C16 1_555 1_555
C18 C13 1_555 1_555
O4 C15 1_555 1_555
C19 O4 1_555 1_555
O5 C16 1_555 1_555
C20 O5 1_555 1_555
H1 C1 1_555 1_555
H2 C2 1_555 1_555
H3 C2 1_555 1_555
H4 C3 1_555 1_555
H5 C3 1_555 1_555
H6 C4 1_555 1_555
H7 C6 1_555 1_555
H8 C9 1_555 1_555
H9 C10 1_555 1_555
H10 C11 1_555 1_555
H11 C11 1_555 1_555
H12 C11 1_555 1_555
H13 C12 1_555 1_555
H14 C12 1_555 1_555
H15 C12 1_555 1_555
H16 C14 1_555 1_555
H17 C17 1_555 1_555
H18 C18 1_555 1_555
H19 C19 1_555 1_555
H20 C19 1_555 1_555
H21 C19 1_555 1_555
H22 C20 1_555 1_555
H23 C20 1_555 1_555
H24 C20 1_555 1_555
C9 C10 1_555 1_555
C17 C18 1_555 1_555

#END
