
#######################################################################
#
#                 Cambridge Crystallographic Data Centre
#                                CCDC 
#
#######################################################################
#
# If this CIF has been generated from an entry in the Cambridge 
# Structural Database, then it will include bibliographic, chemical, 
# crystal, experimental, refinement or atomic coordinate data resulting 
# from the CCDC's data processing and validation procedures.
#
#######################################################################

data_DUTLIO
_chemical_formula_moiety         'C34 H23 N5 O3,0.5(C1 H4 O1)'
_chemical_name_systematic        
'2-[2-(2-Anilino-4-oxo-3,4-dihydroquinazolin-3-yl)phenoxy]-3-phenylquinazolin-4(3H)-one methanol solvate'
_symmetry_cell_setting           monoclinic
_symmetry_space_group_name_H-M   'C 2/c'
_symmetry_Int_Tables_number      15
_space_group_name_Hall           '-C 2yn'
loop_
_symmetry_equiv_pos_site_id
_symmetry_equiv_pos_as_xyz
1 x,y,z
2 -x,y,1/2-z
3 1/2+x,1/2+y,z
4 1/2-x,1/2+y,1/2-z
5 -x,-y,-z
6 x,-y,1/2+z
7 1/2-x,1/2-y,-z
8 1/2+x,1/2-y,1/2+z
_cell_length_a                   24.268(2)
_cell_length_b                   16.5049(14)
_cell_length_c                   15.2929(12)
_cell_angle_alpha                90
_cell_angle_beta                 110.3820(10)
_cell_angle_gamma                90
_cell_volume                     5741.93
_exptl_crystal_colour            colorless
_exptl_crystal_description       block
_cell_formula_units_Z            8
_exptl_crystal_recrystallization_method methanol/dichloromethane
loop_
_atom_site_label
_atom_site_type_symbol
_atom_site_fract_x
_atom_site_fract_y
_atom_site_fract_z
C1 C 0.33889(11) 0.39224(16) 0.95966(18)
H1 H 0.2986 0.3843 0.9429
C2 C 0.37488(14) 0.3822(2) 1.0508(2)
H2 H 0.3587 0.3681 1.0956
C3 C 0.43447(15) 0.3929(3) 1.0766(2)
H3 H 0.4586 0.3857 1.1384
C4 C 0.45792(13) 0.4139(3) 1.0111(2)
H4 H 0.4983 0.4211 1.0284
C5 C 0.42214(12) 0.4248(2) 0.9184(2)
H5 H 0.4385 0.4392 0.8739
C6 C 0.36227(10) 0.41392(14) 0.89331(17)
C7 C 0.27029(10) 0.43844(13) 0.76026(15)
C8 C 0.18242(10) 0.43060(15) 0.62005(16)
C9 C 0.15259(10) 0.46910(14) 0.67699(16)
C10 C 0.09255(11) 0.48514(16) 0.6402(2)
H6 H 0.0712 0.4718 0.5786
C11 C 0.06483(12) 0.52059(18) 0.6949(2)
H7 H 0.0247 0.5314 0.6704
C12 C 0.09658(13) 0.54019(18) 0.7862(2)
H8 H 0.0775 0.5642 0.8229
C13 C 0.15578(12) 0.52491(15) 0.8240(2)
H9 H 0.1766 0.5388 0.8857
C14 C 0.18475(10) 0.48859(13) 0.76995(16)
C15 C 0.27546(10) 0.37942(14) 0.61502(15)
C16 C 0.29309(12) 0.42318(16) 0.55277(17)
H10 H 0.2841 0.4780 0.5433
C17 C 0.32434(13) 0.38468(18) 0.50451(19)
H11 H 0.3371 0.4140 0.4632
C18 C 0.33669(12) 0.30324(18) 0.51737(18)
H12 H 0.3570 0.2777 0.4836
C19 C 0.31914(11) 0.25893(16) 0.58009(17)
H13 H 0.3279 0.2040 0.5893
C20 C 0.28861(10) 0.29777(14) 0.62827(15)
C21 C 0.30048(10) 0.22726(13) 0.76894(16)
C22 C 0.38728(11) 0.19895(14) 0.88305(17)
C23 C 0.44826(12) 0.20351(18) 0.9158(2)
H14 H 0.4675 0.2278 0.8796
C24 C 0.48029(14) 0.1718(2) 1.0022(2)
H15 H 0.5211 0.1757 1.0244
C25 C 0.45238(15) 0.1344(2) 1.0559(2)
H16 H 0.4743 0.1129 1.1138
C26 C 0.39234(14) 0.12903(18) 1.0239(2)
H17 H 0.3735 0.1033 1.0598
C27 C 0.35942(12) 0.16190(15) 0.93765(17)
C28 C 0.29550(12) 0.15817(16) 0.90513(18)
C29 C 0.20409(10) 0.20150(14) 0.78235(16)
C30 C 0.17127(12) 0.13978(17) 0.72933(18)
H18 H 0.1896 0.0934 0.7182
C31 C 0.11087(13) 0.1470(2) 0.6926(2)
H19 H 0.0884 0.1054 0.6564
C32 C 0.08382(12) 0.2155(2) 0.7093(2)
H20 H 0.0431 0.2203 0.6843
C33 C 0.11721(13) 0.27667(19) 0.7630(2)
H21 H 0.0990 0.3230 0.7744
C34 C 0.17759(12) 0.26988(16) 0.8003(2)
H22 H 0.2001 0.3111 0.8372
N1 N 0.32858(9) 0.42035(13) 0.79688(14)
N2 N 0.24407(8) 0.47305(12) 0.81070(13)
N3 N 0.24277(8) 0.41832(11) 0.66622(13)
N4 N 0.35614(9) 0.23084(12) 0.79476(14)
N5 N 0.26758(9) 0.19548(12) 0.81838(13)
O1 O 0.15912(8) 0.40913(13) 0.53964(13)
O2 O 0.26452(7) 0.25565(10) 0.68598(11)
O3 O 0.26588(9) 0.12670(15) 0.94629(15)
H23 H 0.3454 0.4038 0.7553
C35 C 0.5532(2) 0.4402(4) 0.8065(4)
H24 H 0.5858 0.4492 0.7857
H25 H 0.5644 0.4548 0.8711
H26 H 0.5205 0.4729 0.7703
O4 O 0.53385(15) 0.3409(4) 0.7931(3)
H27? H 0.5000 0.3679 0.7500
loop_
_geom_bond_atom_site_label_1
_geom_bond_atom_site_label_2
_geom_bond_site_symmetry_1
_geom_bond_site_symmetry_2
C1 H1 1_555 1_555
C2 C1 1_555 1_555
H2 C2 1_555 1_555
C3 C2 1_555 1_555
H3 C3 1_555 1_555
C4 C3 1_555 1_555
H4 C4 1_555 1_555
C5 C4 1_555 1_555
H5 C5 1_555 1_555
C6 C1 1_555 1_555
C7 N1 1_555 1_555
C8 C9 1_555 1_555
C9 C10 1_555 1_555
C10 H6 1_555 1_555
C11 C10 1_555 1_555
H7 C11 1_555 1_555
C12 C11 1_555 1_555
H8 C12 1_555 1_555
C13 C12 1_555 1_555
H9 C13 1_555 1_555
C14 C9 1_555 1_555
C15 C16 1_555 1_555
C16 H10 1_555 1_555
C17 C16 1_555 1_555
H11 C17 1_555 1_555
C18 C17 1_555 1_555
H12 C18 1_555 1_555
C19 C18 1_555 1_555
H13 C19 1_555 1_555
C20 C15 1_555 1_555
C21 N4 1_555 1_555
C22 C23 1_555 1_555
C23 H14 1_555 1_555
C24 C23 1_555 1_555
H15 C24 1_555 1_555
C25 C24 1_555 1_555
H16 C25 1_555 1_555
C26 C25 1_555 1_555
H17 C26 1_555 1_555
C27 C22 1_555 1_555
C28 C27 1_555 1_555
C29 C30 1_555 1_555
C30 H18 1_555 1_555
C31 C30 1_555 1_555
H19 C31 1_555 1_555
C32 C31 1_555 1_555
H20 C32 1_555 1_555
C33 C32 1_555 1_555
H21 C33 1_555 1_555
C34 C29 1_555 1_555
H22 C34 1_555 1_555
N1 C6 1_555 1_555
N2 C7 1_555 1_555
N3 C7 1_555 1_555
N4 C22 1_555 1_555
N5 C21 1_555 1_555
O1 C8 1_555 1_555
O2 C20 1_555 1_555
O3 C28 1_555 1_555
H23 N1 1_555 1_555
C35 H24 1_555 1_555
H25 C35 1_555 1_555
H26 C35 1_555 1_555
O4 C35 1_555 1_555
C5 C6 1_555 1_555
C8 N3 1_555 1_555
C13 C14 1_555 1_555
C14 N2 1_555 1_555
C15 N3 1_555 1_555
C19 C20 1_555 1_555
C21 O2 1_555 1_555
C26 C27 1_555 1_555
C28 N5 1_555 1_555
C29 N5 1_555 1_555
C33 C34 1_555 1_555

#END
