
#######################################################################
#
#                 Cambridge Crystallographic Data Centre
#                                CCDC 
#
#######################################################################
#
# If this CIF has been generated from an entry in the Cambridge 
# Structural Database, then it will include bibliographic, chemical, 
# crystal, experimental, refinement or atomic coordinate data resulting 
# from the CCDC's data processing and validation procedures.
#
#######################################################################

data_DUTYEX
_chemical_compound_source        'leaves of Aglaia exima'
_chemical_name_common            Cycloart-24-ene-3beta,26-diol
_chemical_formula_moiety         'C30 H50 O2'
_chemical_name_systematic        9,19-Cyclolanost-24-ene-3,26-diol
_symmetry_cell_setting           monoclinic
_symmetry_space_group_name_H-M   'P 21'
_symmetry_Int_Tables_number      4
_space_group_name_Hall           'P 2yb'
loop_
_symmetry_equiv_pos_site_id
_symmetry_equiv_pos_as_xyz
1 x,y,z
2 -x,1/2+y,-z
_cell_length_a                   9.9950(14)
_cell_length_b                   7.5120(10)
_cell_length_c                   34.820(5)
_cell_angle_alpha                90
_cell_angle_beta                 91.029(2)
_cell_angle_gamma                90
_cell_volume                     2613.95
_exptl_crystal_colour            colorless
_exptl_crystal_description       plate
_cell_formula_units_Z            4
_exptl_crystal_recrystallization_method 'ethyl acetate'
loop_
_atom_site_label
_atom_site_type_symbol
_atom_site_fract_x
_atom_site_fract_y
_atom_site_fract_z
O1 O 0.8196(3) 0.5009(4) 0.73269(10)
H1 H 0.8842 0.5089 0.7177
O2 O -0.0926(3) 0.0538(5) 0.28107(9)
H2 H -0.1424 -0.0187 0.2693
C1 C 0.6990(5) 0.4641(6) 0.71105(14)
H3 H 0.6246 0.4576 0.7298
C2 C 0.6698(5) 0.6209(6) 0.68482(13)
H4 H 0.7463 0.6387 0.6676
H5 H 0.6603 0.7297 0.7006
C3 C 0.5413(4) 0.5941(6) 0.66033(14)
H6 H 0.4626 0.5951 0.6772
H7 H 0.5315 0.6933 0.6418
C4 C 0.5463(4) 0.4196(6) 0.63883(13)
C5 C 0.5667(5) 0.2676(6) 0.66768(13)
H8 H 0.4961 0.2843 0.6874
C6 C 0.7025(5) 0.2847(7) 0.68988(14)
C7 C 0.7133(6) 0.1353(7) 0.71945(17)
H9 H 0.7288 0.0220 0.7063
H10 H 0.6300 0.1282 0.7338
H11 H 0.7881 0.1598 0.7373
C8 C 0.8233(4) 0.2766(7) 0.66345(15)
H12 H 0.8166 0.1704 0.6472
H13 H 0.9058 0.2709 0.6790
H14 H 0.8248 0.3832 0.6472
C9 C 0.5395(5) 0.0842(6) 0.64985(14)
H15 H 0.6117 0.0537 0.6319
H16 H 0.5382 -0.0074 0.6703
C10 C 0.4054(4) 0.0867(6) 0.62840(13)
H17 H 0.3357 0.1359 0.6453
H18 H 0.3793 -0.0362 0.6213
C11 C 0.4152(4) 0.2002(6) 0.59238(13)
H19 H 0.4885 0.1462 0.5771
C12 C 0.4619(4) 0.3924(6) 0.60191(13)
C13 C 0.6114(4) 0.4216(6) 0.60022(12)
H20 H 0.6678 0.3184 0.5934
H21 H 0.6431 0.5375 0.5904
C14 C 0.3700(4) 0.5463(6) 0.58923(13)
H22 H 0.4244 0.6562 0.5881
H23 H 0.3021 0.5640 0.6092
C15 C 0.2956(4) 0.5231(6) 0.54978(12)
H24 H 0.2001 0.5536 0.5529
H25 H 0.3335 0.6082 0.5312
C16 C 0.3052(4) 0.3349(5) 0.53316(12)
C17 C 0.4415(4) 0.3143(6) 0.51311(13)
H26 H 0.5138 0.3503 0.5308
H27 H 0.4427 0.3899 0.4902
H28 H 0.4541 0.1897 0.5056
C18 C 0.2899(4) 0.1969(6) 0.56606(13)
C19 C 0.1616(4) 0.2328(6) 0.58904(13)
H29 H 0.1465 0.1341 0.6068
H30 H 0.0849 0.2433 0.5712
H31 H 0.1721 0.3438 0.6036
C20 C 0.2706(4) 0.0201(5) 0.54461(12)
H32 H 0.2152 -0.0627 0.5597
H33 H 0.3580 -0.0368 0.5398
C21 C 0.1991(4) 0.0684(6) 0.50638(12)
H34 H 0.1076 0.0181 0.5056
H35 H 0.2491 0.0197 0.4845
C22 C 0.1935(4) 0.2760(6) 0.50405(12)
H36 H 0.1060 0.3136 0.5149
C23 C 0.1965(4) 0.3444(5) 0.46270(13)
H37 H 0.2832 0.3056 0.4515
C24 C 0.1913(4) 0.5507(6) 0.46055(13)
H38 H 0.2726 0.6004 0.4724
H39 H 0.1128 0.5938 0.4742
H40 H 0.1850 0.5880 0.4336
C25 C 0.0833(4) 0.2608(6) 0.43826(12)
H41 H 0.0895 0.1296 0.4406
H42 H -0.0035 0.2975 0.4490
C26 C 0.0835(4) 0.3098(6) 0.39569(12)
H43 H 0.0524 0.4342 0.3926
H44 H 0.1763 0.3032 0.3863
C27 C -0.0035(4) 0.1910(7) 0.37175(13)
H45 H -0.0161 0.0740 0.3814
C28 C -0.0663(4) 0.2285(7) 0.33829(13)
C29 C -0.0642(6) 0.4038(7) 0.31926(16)
H46 H -0.0183 0.4900 0.3360
H47 H -0.1562 0.4436 0.3141
H48 H -0.0166 0.3942 0.2950
C30 C -0.1459(5) 0.0885(8) 0.31816(15)
H49 H -0.1442 -0.0222 0.3336
H50 H -0.2401 0.1278 0.3154
O3 O 1.7903(3) 0.7649(5) 1.24335(10)
H51 H 1.8534 0.7927 1.2289
O4 O 0.9518(4) 0.2801(5) 0.78237(9)
H52 H 0.9051 0.3438 0.7675
C31 C 1.6695(5) 0.7436(7) 1.22082(15)
H53 H 1.5927 0.7565 1.2386
C32 C 1.6570(5) 0.8907(6) 1.19104(14)
H54 H 1.7359 0.8877 1.1743
H55 H 1.6562 1.0074 1.2042
C33 C 1.5287(5) 0.8723(6) 1.16604(14)
H56 H 1.4487 0.8856 1.1822
H57 H 1.5262 0.9661 1.1461
C34 C 1.5290(5) 0.6896(6) 1.14735(14)
C35 C 1.5352(5) 0.5445(6) 1.17769(14)
H58 H 1.4598 0.5722 1.1952
C36 C 1.6625(5) 0.5531(7) 1.20379(14)
C37 C 1.6508(6) 0.4222(7) 1.23772(16)
H59 H 1.5632 0.4363 1.2495
H60 H 1.7215 0.4473 1.2568
H61 H 1.6603 0.2999 1.2284
C38 C 1.7893(5) 0.5113(8) 1.18178(16)
H62 H 1.8032 0.6031 1.1623
H63 H 1.7800 0.3949 1.1693
H64 H 1.8661 0.5090 1.1997
C39 C 1.5035(5) 0.3581(6) 1.16203(15)
H65 H 1.5792 0.3149 1.1466
H66 H 1.4911 0.2745 1.1837
C40 C 1.3760(5) 0.3636(6) 1.13696(14)
H67 H 1.3481 0.2408 1.1303
H68 H 1.3029 0.4203 1.1514
C41 C 1.4014(4) 0.4681(6) 1.10048(13)
H69 H 1.4767 0.4060 1.0875
C42 C 1.4523(4) 0.6587(6) 1.10937(14)
C43 C 1.6032(4) 0.6776(7) 1.10967(13)
H70 H 1.6412 0.7887 1.0992
H71 H 1.6569 0.5692 1.1050
C44 C 1.3665(4) 0.8139(6) 1.09347(13)
H72 H 1.4231 0.9221 1.0933
H73 H 1.2933 0.8358 1.1116
C45 C 1.3034(4) 0.7912(6) 1.05290(13)
H74 H 1.2085 0.8285 1.0535
H75 H 1.3499 0.8711 1.0349
C46 C 1.3107(4) 0.5989(6) 1.03765(12)
C47 C 1.4503(4) 0.5699(6) 1.02068(13)
H76 H 1.5190 0.6088 1.0393
H77 H 1.4580 0.6391 0.9970
H78 H 1.4627 0.4432 1.0150
C48 C 1.2828(4) 0.4665(6) 1.07123(13)
C49 C 1.1492(4) 0.5086(6) 1.09087(13)
H79 H 1.1295 0.4152 1.1096
H80 H 1.0771 0.5138 1.0714
H81 H 1.1562 0.6236 1.1040
C50 C 1.2662(4) 0.2873(6) 1.05027(13)
H82 H 1.2061 0.2073 1.0646
H83 H 1.3539 0.2278 1.0474
C51 C 1.2046(4) 0.3346(6) 1.01051(14)
H84 H 1.2587 0.2819 0.9899
H85 H 1.1124 0.2872 1.0082
C52 C 1.2033(4) 0.5400(6) 1.00700(13)
H86 H 1.1146 0.5814 1.0164
C53 C 1.2148(4) 0.6056(6) 0.96550(13)
H87 H 1.3036 0.5663 0.9558
C54 C 1.2084(5) 0.8091(6) 0.96208(14)
H88 H 1.2865 0.8616 0.9752
H89 H 1.1265 0.8526 0.9740
H90 H 1.2083 0.8430 0.9349
C55 C 1.1061(4) 0.5187(6) 0.94001(12)
H91 H 1.1120 0.3879 0.9431
H92 H 1.0174 0.5565 0.9493
C56 C 1.1143(4) 0.5629(7) 0.89736(12)
H93 H 1.0759 0.6826 0.8927
H94 H 1.2094 0.5658 0.8899
C57 C 1.0402(5) 0.4284(7) 0.87294(13)
H95 H 1.0464 0.3083 0.8814
C58 C 0.9668(4) 0.4553(7) 0.84101(13)
C59 C 0.9430(6) 0.6328(8) 0.82220(16)
H96 H 0.9726 0.7280 0.8396
H97 H 0.8474 0.6469 0.8163
H98 H 0.9936 0.6394 0.7984
C60 C 0.9049(5) 0.2981(8) 0.82061(14)
H99 H 0.9263 0.1882 0.8352
H100 H 0.8064 0.3121 0.8199
loop_
_geom_bond_atom_site_label_1
_geom_bond_atom_site_label_2
_geom_bond_site_symmetry_1
_geom_bond_site_symmetry_2
O1 H1 1_555 1_555
O2 H2 1_555 1_555
C1 O1 1_555 1_555
H3 C1 1_555 1_555
C2 C1 1_555 1_555
H4 C2 1_555 1_555
H5 C2 1_555 1_555
C3 C2 1_555 1_555
H6 C3 1_555 1_555
H7 C3 1_555 1_555
C4 C3 1_555 1_555
C5 C4 1_555 1_555
H8 C5 1_555 1_555
C6 C1 1_555 1_555
C7 C6 1_555 1_555
H9 C7 1_555 1_555
H10 C7 1_555 1_555
H11 C7 1_555 1_555
C8 C6 1_555 1_555
H12 C8 1_555 1_555
H13 C8 1_555 1_555
H14 C8 1_555 1_555
C9 C5 1_555 1_555
H15 C9 1_555 1_555
H16 C9 1_555 1_555
C10 C9 1_555 1_555
H17 C10 1_555 1_555
H18 C10 1_555 1_555
C11 C10 1_555 1_555
H19 C11 1_555 1_555
C12 C4 1_555 1_555
C13 C4 1_555 1_555
H20 C13 1_555 1_555
H21 C13 1_555 1_555
C14 C12 1_555 1_555
H22 C14 1_555 1_555
H23 C14 1_555 1_555
C15 C14 1_555 1_555
H24 C15 1_555 1_555
H25 C15 1_555 1_555
C16 C15 1_555 1_555
C17 C16 1_555 1_555
H26 C17 1_555 1_555
H27 C17 1_555 1_555
H28 C17 1_555 1_555
C18 C11 1_555 1_555
C19 C18 1_555 1_555
H29 C19 1_555 1_555
H30 C19 1_555 1_555
H31 C19 1_555 1_555
C20 C18 1_555 1_555
H32 C20 1_555 1_555
H33 C20 1_555 1_555
C21 C20 1_555 1_555
H34 C21 1_555 1_555
H35 C21 1_555 1_555
C22 C16 1_555 1_555
H36 C22 1_555 1_555
C23 C22 1_555 1_555
H37 C23 1_555 1_555
C24 C23 1_555 1_555
H38 C24 1_555 1_555
H39 C24 1_555 1_555
H40 C24 1_555 1_555
C25 C23 1_555 1_555
H41 C25 1_555 1_555
H42 C25 1_555 1_555
C26 C25 1_555 1_555
H43 C26 1_555 1_555
H44 C26 1_555 1_555
C27 C26 1_555 1_555
H45 C27 1_555 1_555
C28 C27 1_555 1_555
C29 C28 1_555 1_555
H46 C29 1_555 1_555
H47 C29 1_555 1_555
H48 C29 1_555 1_555
C30 O2 1_555 1_555
H49 C30 1_555 1_555
H50 C30 1_555 1_555
O3 H51 1_555 1_555
O4 H52 1_555 1_555
C31 O3 1_555 1_555
H53 C31 1_555 1_555
C32 C31 1_555 1_555
H54 C32 1_555 1_555
H55 C32 1_555 1_555
C33 C32 1_555 1_555
H56 C33 1_555 1_555
H57 C33 1_555 1_555
C34 C33 1_555 1_555
C35 C34 1_555 1_555
H58 C35 1_555 1_555
C36 C31 1_555 1_555
C37 C36 1_555 1_555
H59 C37 1_555 1_555
H60 C37 1_555 1_555
H61 C37 1_555 1_555
C38 C36 1_555 1_555
H62 C38 1_555 1_555
H63 C38 1_555 1_555
H64 C38 1_555 1_555
C39 C35 1_555 1_555
H65 C39 1_555 1_555
H66 C39 1_555 1_555
C40 C39 1_555 1_555
H67 C40 1_555 1_555
H68 C40 1_555 1_555
C41 C40 1_555 1_555
H69 C41 1_555 1_555
C42 C34 1_555 1_555
C43 C34 1_555 1_555
H70 C43 1_555 1_555
H71 C43 1_555 1_555
C44 C42 1_555 1_555
H72 C44 1_555 1_555
H73 C44 1_555 1_555
C45 C44 1_555 1_555
H74 C45 1_555 1_555
H75 C45 1_555 1_555
C46 C45 1_555 1_555
C47 C46 1_555 1_555
H76 C47 1_555 1_555
H77 C47 1_555 1_555
H78 C47 1_555 1_555
C48 C41 1_555 1_555
C49 C48 1_555 1_555
H79 C49 1_555 1_555
H80 C49 1_555 1_555
H81 C49 1_555 1_555
C50 C48 1_555 1_555
H82 C50 1_555 1_555
H83 C50 1_555 1_555
C51 C50 1_555 1_555
H84 C51 1_555 1_555
H85 C51 1_555 1_555
C52 C46 1_555 1_555
H86 C52 1_555 1_555
C53 C52 1_555 1_555
H87 C53 1_555 1_555
C54 C53 1_555 1_555
H88 C54 1_555 1_555
H89 C54 1_555 1_555
H90 C54 1_555 1_555
C55 C53 1_555 1_555
H91 C55 1_555 1_555
H92 C55 1_555 1_555
C56 C55 1_555 1_555
H93 C56 1_555 1_555
H94 C56 1_555 1_555
C57 C56 1_555 1_555
H95 C57 1_555 1_555
C58 C57 1_555 1_555
C59 C58 1_555 1_555
H96 C59 1_555 1_555
H97 C59 1_555 1_555
H98 C59 1_555 1_555
C60 O4 1_555 1_555
H99 C60 1_555 1_555
H100 C60 1_555 1_555
C5 C6 1_555 1_555
C11 C12 1_555 1_555
C12 C13 1_555 1_555
C16 C18 1_555 1_555
C21 C22 1_555 1_555
C28 C30 1_555 1_555
C35 C36 1_555 1_555
C41 C42 1_555 1_555
C42 C43 1_555 1_555
C46 C48 1_555 1_555
C51 C52 1_555 1_555
C58 C60 1_555 1_555

#END
