
#######################################################################
#
#                 Cambridge Crystallographic Data Centre
#                                CCDC 
#
#######################################################################
#
# If this CIF has been generated from an entry in the Cambridge 
# Structural Database, then it will include bibliographic, chemical, 
# crystal, experimental, refinement or atomic coordinate data resulting 
# from the CCDC's data processing and validation procedures.
#
#######################################################################

data_DUVBAY
_chemical_formula_moiety         'C15 H13 Br4 N1 O4'
_chemical_name_systematic        
'Ethyl 5,8-dibromo-2-(dibromomethyl)-6,7-dimethoxyquinoline-3-carboxylate'
_symmetry_cell_setting           triclinic
_symmetry_space_group_name_H-M   'P -1'
_symmetry_Int_Tables_number      2
_space_group_name_Hall           '-P 1'
loop_
_symmetry_equiv_pos_site_id
_symmetry_equiv_pos_as_xyz
1 x,y,z
2 -x,-y,-z
_cell_length_a                   8.992(2)
_cell_length_b                   9.632(2)
_cell_length_c                   11.454(3)
_cell_angle_alpha                84.868(3)
_cell_angle_beta                 71.948(3)
_cell_angle_gamma                77.552(3)
_cell_volume                     920.762
_exptl_crystal_colour            colorless
_exptl_crystal_description       block
_cell_formula_units_Z            2
loop_
_atom_site_label
_atom_site_type_symbol
_atom_site_fract_x
_atom_site_fract_y
_atom_site_fract_z
Br1 Br 0.57694(8) 1.26070(8) 0.23987(7)
Br2 Br 0.89932(9) 1.37644(7) 0.12167(7)
Br3 Br 1.17101(7) 1.17543(6) 0.39139(6)
Br4 Br 1.13760(9) 0.53496(6) 0.26742(6)
C1 C 1.2668(10) 0.5760(8) 0.5327(7)
H1 H 1.2422 0.6536 0.5870
H2 H 1.3424 0.4998 0.5547
H3 H 1.1710 0.5430 0.5393
C2 C 1.5111(8) 0.8569(7) 0.4025(6)
H4 H 1.5351 0.7702 0.3592
H5 H 1.5688 0.8449 0.4618
H6 H 1.5419 0.9323 0.3454
C3 C 1.2399(6) 0.7379(5) 0.3697(5)
C4 C 1.1433(6) 0.7213(5) 0.3041(5)
C5 C 1.2496(6) 0.8762(5) 0.3958(5)
C6 C 1.1574(6) 0.9927(5) 0.3568(5)
C7 C 1.0550(6) 0.9772(5) 0.2876(4)
C8 C 1.0484(6) 0.8386(5) 0.2603(5)
C9 C 0.9471(6) 0.8295(5) 0.1901(5)
H7 H 0.9363 0.7405 0.1723
C10 C 0.8643(6) 0.9490(5) 0.1478(5)
C11 C 0.8822(6) 1.0830(5) 0.1777(5)
C12 C 0.7951(6) 1.2193(5) 0.1337(5)
H8 H 0.7917 1.2035 0.0513
C13 C 0.7654(7) 0.9337(6) 0.0670(5)
C14 C 0.6348(9) 0.7820(7) 0.0037(6)
H9 H 0.7074 0.7516 -0.0760
H10 H 0.5601 0.8673 -0.0079
C15 C 0.5464(10) 0.6653(8) 0.0669(7)
H11 H 0.6213 0.5837 0.0820
H12 H 0.4910 0.6396 0.0152
H13 H 0.4709 0.6988 0.1435
N1 N 0.9716(5) 1.0961(4) 0.2468(4)
O1 O 0.7234(5) 0.8094(4) 0.0843(4)
O2 O 0.7315(5) 1.0223(5) -0.0062(4)
O3 O 1.3345(5) 0.6235(4) 0.4075(4)
O4 O 1.3441(5) 0.8917(4) 0.4638(3)
loop_
_geom_bond_atom_site_label_1
_geom_bond_atom_site_label_2
_geom_bond_site_symmetry_1
_geom_bond_site_symmetry_2
Br1 C12 1_555 1_555
Br2 C12 1_555 1_555
Br3 C6 1_555 1_555
Br4 C4 1_555 1_555
C1 H1 1_555 1_555
H2 C1 1_555 1_555
H3 C1 1_555 1_555
C2 H4 1_555 1_555
H5 C2 1_555 1_555
H6 C2 1_555 1_555
C3 C4 1_555 1_555
C4 C8 1_555 1_555
C5 C3 1_555 1_555
C6 C5 1_555 1_555
C7 C6 1_555 1_555
C8 C7 1_555 1_555
C9 C8 1_555 1_555
H7 C9 1_555 1_555
C10 C9 1_555 1_555
C11 C10 1_555 1_555
C12 C11 1_555 1_555
H8 C12 1_555 1_555
C13 C10 1_555 1_555
C14 H9 1_555 1_555
H10 C14 1_555 1_555
C15 C14 1_555 1_555
H11 C15 1_555 1_555
H12 C15 1_555 1_555
H13 C15 1_555 1_555
N1 C7 1_555 1_555
O1 C13 1_555 1_555
O2 C13 1_555 1_555
O3 C1 1_555 1_555
O4 C2 1_555 1_555
C3 O3 1_555 1_555
C5 O4 1_555 1_555
C11 N1 1_555 1_555
C14 O1 1_555 1_555

#END
