
#######################################################################
#
#                 Cambridge Crystallographic Data Centre
#                                CCDC 
#
#######################################################################
#
# If this CIF has been generated from an entry in the Cambridge 
# Structural Database, then it will include bibliographic, chemical, 
# crystal, experimental, refinement or atomic coordinate data resulting 
# from the CCDC's data processing and validation procedures.
#
#######################################################################

data_DUVDII
_chemical_name_common            
(Z)-N-(3-[1-(4-Chlorophenyl)ethyl]thiazolidin-2-ylidene)cyanamide
_chemical_formula_moiety         'C12 H12 Cl1 N3 S1'
_chemical_name_systematic        
(3-(1-(4-Chlorophenyl)ethyl)-1,3-thiazolidin-2-ylidene)cyanamide
_symmetry_cell_setting           orthorhombic
_symmetry_space_group_name_H-M   'P 21 21 21'
_symmetry_Int_Tables_number      19
_space_group_name_Hall           'P 2ac 2ab'
loop_
_symmetry_equiv_pos_site_id
_symmetry_equiv_pos_as_xyz
1 x,y,z
2 1/2-x,-y,1/2+z
3 -x,1/2+y,1/2-z
4 1/2+x,1/2-y,-z
_cell_length_a                   5.8850(12)
_cell_length_b                   7.5965(15)
_cell_length_c                   28.273(6)
_cell_angle_alpha                90
_cell_angle_beta                 90
_cell_angle_gamma                90
_cell_volume                     1263.96
_exptl_crystal_colour            white
_exptl_crystal_description       block
_cell_formula_units_Z            4
_exptl_crystal_recrystallization_method acetone/methanol
loop_
_atom_site_label
_atom_site_type_symbol
_atom_site_fract_x
_atom_site_fract_y
_atom_site_fract_z
Cl1 Cl 0.31420(16) -0.62970(7) 0.98241(2)
S1 S 0.18444(12) 0.16944(8) 0.77090(2)
N1 N 0.2773(4) 0.3380(3) 0.85392(7)
C1 C 0.3024(4) 0.1982(3) 0.82718(8)
C2 C 0.2990(4) -0.1331(3) 0.93777(8)
H1 H 0.2024 -0.0368 0.9407
N2 N 0.4250(4) 0.0594(2) 0.84129(6)
C3 C 0.4992(4) -0.1158(3) 0.91192(8)
C4 C 0.5466(4) 0.0572(3) 0.88698(8)
H2 H 0.4806 0.1507 0.9065
C5 C 0.7950(5) 0.1029(4) 0.87970(9)
H3 H 0.8064 0.2125 0.8630
H4 H 0.8672 0.0117 0.8616
H5 H 0.8686 0.1135 0.9099
C6 C 0.1462(5) 0.4672(3) 0.83801(8)
C7 C 0.2409(4) -0.2905(3) 0.95914(8)
H6 H 0.1055 -0.3011 0.9759
C8 C 0.5886(5) -0.4192(3) 0.93042(9)
H7 H 0.6860 -0.5152 0.9284
C9 C 0.3874(5) -0.4315(3) 0.95515(8)
N3 N 0.0347(5) 0.5868(3) 0.82737(8)
C10 C 0.6432(5) -0.2610(3) 0.90865(8)
H8 H 0.7778 -0.2518 0.8916
C11 C 0.4588(7) -0.0759(4) 0.80600(9)
H9 H 0.6166 -0.0769 0.7961
H10 H 0.4235 -0.1901 0.8195
C12 C 0.3144(8) -0.0437(4) 0.76555(12)
H11 H 0.1977 -0.1336 0.7638
H12 H 0.4039 -0.0488 0.7368
loop_
_geom_bond_atom_site_label_1
_geom_bond_atom_site_label_2
_geom_bond_site_symmetry_1
_geom_bond_site_symmetry_2
Cl1 C9 1_555 1_555
S1 C1 1_555 1_555
N1 C1 1_555 1_555
C1 N2 1_555 1_555
C2 H1 1_555 1_555
N2 C4 1_555 1_555
C3 C2 1_555 1_555
C4 C3 1_555 1_555
H2 C4 1_555 1_555
C5 C4 1_555 1_555
H3 C5 1_555 1_555
H4 C5 1_555 1_555
H5 C5 1_555 1_555
C6 N1 1_555 1_555
C7 C2 1_555 1_555
H6 C7 1_555 1_555
C8 H7 1_555 1_555
C9 C7 1_555 1_555
N3 C6 1_555 1_555
C10 C3 1_555 1_555
H8 C10 1_555 1_555
C11 N2 1_555 1_555
H9 C11 1_555 1_555
H10 C11 1_555 1_555
C12 S1 1_555 1_555
H11 C12 1_555 1_555
H12 C12 1_555 1_555
C8 C9 1_555 1_555
C8 C10 1_555 1_555
C11 C12 1_555 1_555

#END
