
#######################################################################
#
#                 Cambridge Crystallographic Data Centre
#                                CCDC 
#
#######################################################################
#
# If this CIF has been generated from an entry in the Cambridge 
# Structural Database, then it will include bibliographic, chemical, 
# crystal, experimental, refinement or atomic coordinate data resulting 
# from the CCDC's data processing and validation procedures.
#
#######################################################################

data_DUVFUW
_chemical_formula_moiety         'C15 H17 N3 O2 S2'
_chemical_name_systematic        
1-((5-(Dimethylamino)-1-naphthyl)sulfonyl)imidazolidine-2-thione
_symmetry_cell_setting           monoclinic
_symmetry_space_group_name_H-M   'P 21/n'
_symmetry_Int_Tables_number      14
_space_group_name_Hall           '-P 2yn'
loop_
_symmetry_equiv_pos_site_id
_symmetry_equiv_pos_as_xyz
1 x,y,z
2 1/2-x,1/2+y,1/2-z
3 -x,-y,-z
4 1/2+x,1/2-y,1/2+z
_cell_length_a                   15.364(4)
_cell_length_b                   6.9814(18)
_cell_length_c                   15.470(4)
_cell_angle_alpha                90
_cell_angle_beta                 113.967(4)
_cell_angle_gamma                90
_cell_volume                     1516.28
_exptl_crystal_colour            yellow
_exptl_crystal_description       block
_cell_formula_units_Z            4
loop_
_atom_site_label
_atom_site_type_symbol
_atom_site_fract_x
_atom_site_fract_y
_atom_site_fract_z
C1 C 0.61885(15) 0.6070(3) 0.72722(15)
C2 C 0.68621(19) 0.7474(3) 0.76019(18)
H1 H 0.6868 0.8466 0.7203
C3 C 0.75453(19) 0.7430(3) 0.85392(19)
H2 H 0.8011 0.8375 0.8746
C4 C 0.75429(17) 0.6051(3) 0.91479(17)
H3 H 0.7983 0.6099 0.9774
C5 C 0.68768(15) 0.4529(3) 0.88431(15)
C6 C 0.68432(16) 0.2951(3) 0.94243(16)
C7 C 0.62594(17) 0.1403(3) 0.90561(16)
H4 H 0.6253 0.0398 0.9448
C8 C 0.56701(17) 0.1343(3) 0.80839(17)
H5 H 0.5298 0.0267 0.7828
C9 C 0.56426(17) 0.2841(3) 0.75203(17)
H6 H 0.5235 0.2792 0.6883
C10 C 0.62191(14) 0.4484(3) 0.78765(15)
C11 C 0.45077(18) 0.6337(5) 0.6290(2)
H7 H 0.4425 0.5578 0.6769
H8 H 0.4051 0.5953 0.5678
H9 H 0.4416 0.7665 0.6391
C12 C 0.5635(2) 0.7304(4) 0.5667(2)
H10 H 0.5604 0.8616 0.5837
H11 H 0.5157 0.7072 0.5043
H12 H 0.6253 0.7046 0.5677
C13 C 0.7299(2) 0.6395(4) 1.1372(2)
H13 H 0.7391 0.7055 1.0863
H14 H 0.7896 0.6394 1.1929
C14 C 0.6522(2) 0.7308(4) 1.1575(2)
H15 H 0.6764 0.7806 1.2216
H16 H 0.6223 0.8341 1.1135
C15 C 0.60716(16) 0.4138(3) 1.11357(15)
N1 N 0.54715(14) 0.6055(3) 0.63401(13)
N2 N 0.69536(13) 0.4434(3) 1.10932(13)
N3 N 0.58699(18) 0.5772(3) 1.14554(17)
H17 H 0.534(2) 0.590(4) 1.154(2)
O1 O 0.74468(12) 0.1037(2) 1.09977(12)
O2 O 0.84230(11) 0.3748(3) 1.09114(11)
S1 S 0.75069(4) 0.29031(8) 1.06638(4)
S2 S 0.53971(5) 0.22082(10) 1.08475(6)
loop_
_geom_bond_atom_site_label_1
_geom_bond_atom_site_label_2
_geom_bond_site_symmetry_1
_geom_bond_site_symmetry_2
C1 C2 1_555 1_555
C2 H1 1_555 1_555
C3 C2 1_555 1_555
H2 C3 1_555 1_555
C4 C3 1_555 1_555
H3 C4 1_555 1_555
C5 C4 1_555 1_555
C6 C5 1_555 1_555
C7 C6 1_555 1_555
H4 C7 1_555 1_555
C8 C7 1_555 1_555
H5 C8 1_555 1_555
C9 C8 1_555 1_555
H6 C9 1_555 1_555
C10 C1 1_555 1_555
C11 H7 1_555 1_555
H8 C11 1_555 1_555
H9 C11 1_555 1_555
C12 H10 1_555 1_555
H11 C12 1_555 1_555
H12 C12 1_555 1_555
C13 H13 1_555 1_555
H14 C13 1_555 1_555
C14 C13 1_555 1_555
H15 C14 1_555 1_555
H16 C14 1_555 1_555
C15 N2 1_555 1_555
N1 C1 1_555 1_555
N2 C13 1_555 1_555
N3 C14 1_555 1_555
H17 N3 1_555 1_555
O1 S1 1_555 1_555
O2 S1 1_555 1_555
S1 C6 1_555 1_555
S2 C15 1_555 1_555
C5 C10 1_555 1_555
C9 C10 1_555 1_555
C11 N1 1_555 1_555
C12 N1 1_555 1_555
C15 N3 1_555 1_555
N2 S1 1_555 1_555

#END
