
#######################################################################
#
#                 Cambridge Crystallographic Data Centre
#                                CCDC 
#
#######################################################################
#
# If this CIF has been generated from an entry in the Cambridge 
# Structural Database, then it will include bibliographic, chemical, 
# crystal, experimental, refinement or atomic coordinate data resulting 
# from the CCDC's data processing and validation procedures.
#
#######################################################################

data_DUVGOQ10
_chemical_formula_moiety         'C38 H46 N8 O8 S2,4(H2 O1)'
_chemical_name_systematic        
'Cyclo-bis(S-cystyl-glycyl-prolyl-phenylalanine(S-S)) tetrahydrate'
_symmetry_cell_setting           monoclinic
_symmetry_space_group_name_H-M   'P 21'
_symmetry_Int_Tables_number      4
_space_group_name_Hall           'P 2yb'
loop_
_symmetry_equiv_pos_site_id
_symmetry_equiv_pos_as_xyz
1 x,y,z
2 -x,1/2+y,-z
_cell_length_a                   10.164(6)
_cell_length_b                   13.610(1)
_cell_length_c                   15.702(3)
_cell_angle_alpha                90
_cell_angle_beta                 101.12(3)
_cell_angle_gamma                90
_cell_volume                     2131.31
_chemical_melting_point          288-290deg.C(dec)
_cell_formula_units_Z            2
loop_
_atom_site_label
_atom_site_type_symbol
_atom_site_fract_x
_atom_site_fract_y
_atom_site_fract_z
S1 S 0.4253(1) 0.2500 0.14239(9)
S2 S 0.2777(1) 0.3020(1) 0.20039(8)
N1 N -0.0358(4) 0.2598(4) 0.2048(2)
C1 C 0.0147(5) 0.2380(4) 0.1260(3)
C2 C 0.1311(6) 0.3060(5) 0.1127(3)
C3 C 0.0443(5) 0.1291(4) 0.1163(3)
O1 O 0.0982(4) 0.1036(3) 0.0549(2)
N2 N 0.0023(4) 0.0650(3) 0.1688(3)
C4 C -0.0026(5) -0.0386(4) 0.1522(3)
C5 C 0.1129(5) -0.0940(4) 0.2068(3)
O2 O 0.2089(3) -0.0521(3) 0.2526(2)
N3 N 0.1058(4) -0.1930(3) 0.2011(2)
C6 C 0.1958(5) -0.2557(5) 0.2626(3)
C7 C 0.1450(7) -0.3586(5) 0.2400(6)
C8 C 0.038(1) -0.3524(6) 0.1705(6)
C9 C -0.0004(6) -0.2500(5) 0.1454(4)
C10 C 0.3433(5) -0.2461(4) 0.2617(3)
O3 O 0.4246(4) -0.2755(4) 0.3249(2)
N4 N 0.3789(4) -0.2111(3) 0.1899(2)
C11 C 0.5191(4) -0.2010(4) 0.1838(3)
C12 C 0.5379(5) -0.2279(4) 0.0912(3)
C13 C 0.4837(5) -0.3275(4) 0.0650(3)
C14 C 0.3645(5) -0.3384(4) 0.0085(4)
C15 C 0.3103(6) -0.4311(5) -0.0130(5)
C16 C 0.3752(6) -0.5122(5) 0.0213(4)
C17 C 0.4983(7) -0.5037(5) 0.0756(4)
C18 C 0.5521(6) -0.4119(4) 0.0971(4)
C19 C 0.5746(5) -0.0990(4) 0.2051(3)
O4 O 0.6933(3) -0.0823(3) 0.2022(3)
N5 N 0.4916(4) -0.0315(3) 0.2273(3)
C20 C 0.5173(5) 0.0729(4) 0.2270(3)
C21 C 0.4168(5) 0.1167(4) 0.1526(3)
C22 C 0.5118(4) 0.1216(4) 0.3139(3)
O5 O 0.6090(3) 0.1644(3) 0.3552(2)
N6 N 0.3956(4) 0.1143(3) 0.3416(3)
C23 C 0.3746(5) 0.1649(4) 0.4189(3)
C24 C 0.2256(5) 0.1773(4) 0.4133(3)
O6 O 0.1453(3) 0.1576(3) 0.3454(2)
N7 N 0.1839(4) 0.2101(3) 0.4837(2)
C25 C 0.0412(5) 0.2282(4) 0.4795(3)
C26 C 0.0371(5) 0.2735(5) 0.5677(3)
C27 C 0.1627(6) 0.2347(5) 0.6259(3)
C28 C 0.2663(5) 0.2313(5) 0.5682(3)
C29 C -0.0129(4) 0.2951(4) 0.4042(3)
O7 O 0.0492(4) 0.3689(3) 0.3890(2)
N8 N -0.1319(4) 0.2703(3) 0.3569(2)
C30 C -0.2023(5) 0.3272(4) 0.2836(3)
C31 C -0.2296(5) 0.4343(4) 0.3058(3)
C32 C -0.3153(6) 0.4405(4) 0.3732(4)
C33 C -0.4553(6) 0.4404(5) 0.3490(4)
C34 C -0.5335(7) 0.4391(6) 0.4111(5)
C35 C -0.4770(9) 0.4347(6) 0.4959(5)
C36 C -0.3405(9) 0.4338(6) 0.5213(4)
C37 C -0.2611(7) 0.4383(5) 0.4598(4)
C38 C -0.1424(5) 0.3178(4) 0.2033(3)
O8 O -0.1964(4) 0.3610(3) 0.1368(2)
H1 H 0.0000 0.2363 0.2500
H2 H -0.0703 0.2617 0.0664
H3 H 0.1035 0.3671 0.1367
H4 H 0.1367 0.2890 0.0664
H5 H -0.0703 0.0781 0.2031
H6 H 0.0000 -0.0527 0.0918
H7 H -0.1035 -0.0800 0.1582
H8 H 0.1719 -0.2383 0.3164
H9 H 0.1136 -0.3863 0.2882
H10 H 0.2146 -0.3975 0.2263
H11 H -0.0392 -0.3863 0.1801
H12 H 0.0630 -0.3829 0.1185
H13 H -0.0873 -0.2345 0.1573
H14 H -0.0026 -0.2364 0.0851
H15 H 0.3085 -0.1855 0.1347
H16 H 0.5859 -0.2382 0.2265
H17 H 0.6305 -0.2254 0.0886
H18 H 0.4913 -0.1799 0.0514
H19 H 0.3165 -0.2808 -0.0166
H20 H 0.2273 -0.4351 -0.0555
H21 H 0.3339 -0.5765 0.0069
H22 H 0.5470 -0.5609 0.0973
H23 H 0.6370 -0.4058 0.1339
H24 H 0.4140 -0.0527 0.2285
H25 H 0.6211 0.1035 0.2284
H26 H 0.4492 0.1035 0.0918
H27 H 0.3085 0.1035 0.1347
H28 H 0.3105 0.1035 0.2968
H29 H 0.4121 0.2363 0.4082
H30 H 0.4140 0.1309 0.4785
H31 H -0.0141 0.1694 0.4695
H32 H -0.0332 0.2617 0.5917
H33 H 0.0703 0.3418 0.5683
H34 H 0.1466 0.1686 0.6465
H35 H 0.1900 0.2748 0.6752
H36 H 0.3105 0.2890 0.5683
H37 H 0.3437 0.1835 0.5898
H38 H -0.1738 0.2089 0.3847
H39 H -0.2887 0.2961 0.2690
H40 H -0.2753 0.4726 0.2500
H41 H -0.1386 0.4726 0.3164
H42 H -0.4955 0.4422 0.2876
H43 H -0.6355 0.4417 0.3914
H44 H -0.5393 0.4310 0.5361
H45 H -0.3036 0.4275 0.5816
H46 H -0.1612 0.4422 0.4786
O9 O 0.7061(4) 0.1711(4) 0.5360(2)
H47 H 0.6562 0.1835 0.4785
H48 H 0.6562 0.2089 0.5683
O10 O 0.7751(4) 0.4093(3) 0.9610(2)
H49 H 0.7949 0.3945 1.0234
H50 H 0.8281 0.4726 0.9550
O11 O 0.8807(5) 0.0325(4) 0.3180(3)
H51 H 0.8612 0.0000 0.3633
O12 O 0.1550(6) 0.5095(4) 0.5104(3)
H52 H 0.2051 0.5508 0.5000
H53 H 0.1388 0.4727 0.4551
loop_
_geom_bond_atom_site_label_1
_geom_bond_atom_site_label_2
_geom_bond_site_symmetry_1
_geom_bond_site_symmetry_2
S1 S2 1_555 1_555
S2 C2 1_555 1_555
N1 C1 1_555 1_555
C1 C2 1_555 1_555
C2 H3 1_555 1_555
C3 C1 1_555 1_555
O1 C3 1_555 1_555
N2 C3 1_555 1_555
C4 N2 1_555 1_555
C5 C4 1_555 1_555
O2 C5 1_555 1_555
N3 C5 1_555 1_555
C6 N3 1_555 1_555
C7 C6 1_555 1_555
C8 C7 1_555 1_555
C9 N3 1_555 1_555
C10 C6 1_555 1_555
O3 C10 1_555 1_555
N4 C10 1_555 1_555
C11 N4 1_555 1_555
C12 C11 1_555 1_555
C13 C12 1_555 1_555
C14 C13 1_555 1_555
C15 C14 1_555 1_555
C16 C15 1_555 1_555
C17 C16 1_555 1_555
C18 C13 1_555 1_555
C19 C11 1_555 1_555
O4 C19 1_555 1_555
N5 C19 1_555 1_555
C20 N5 1_555 1_555
C21 S1 1_555 1_555
C22 C20 1_555 1_555
O5 C22 1_555 1_555
N6 C22 1_555 1_555
C23 N6 1_555 1_555
C24 C23 1_555 1_555
O6 C24 1_555 1_555
N7 C24 1_555 1_555
C25 N7 1_555 1_555
C26 C25 1_555 1_555
C27 C26 1_555 1_555
C28 N7 1_555 1_555
C29 C25 1_555 1_555
O7 C29 1_555 1_555
N8 C29 1_555 1_555
C30 N8 1_555 1_555
C31 C30 1_555 1_555
C32 C31 1_555 1_555
C33 C32 1_555 1_555
C34 C33 1_555 1_555
C35 C34 1_555 1_555
C36 C35 1_555 1_555
C37 C32 1_555 1_555
C38 N1 1_555 1_555
O8 C38 1_555 1_555
O9 H47 1_555 1_555
O10 H49 1_555 1_555
O11 H51 1_555 1_555
O12 H52 1_555 1_555
H1 N1 1_555 1_555
H2 C1 1_555 1_555
H4 C2 1_555 1_555
H5 N2 1_555 1_555
H6 C4 1_555 1_555
H7 C4 1_555 1_555
H8 C6 1_555 1_555
H9 C7 1_555 1_555
H10 C7 1_555 1_555
H11 C8 1_555 1_555
H12 C8 1_555 1_555
H13 C9 1_555 1_555
H14 C9 1_555 1_555
H15 N4 1_555 1_555
H16 C11 1_555 1_555
H17 C12 1_555 1_555
H18 C12 1_555 1_555
H19 C14 1_555 1_555
H20 C15 1_555 1_555
H21 C16 1_555 1_555
H22 C17 1_555 1_555
H23 C18 1_555 1_555
H24 N5 1_555 1_555
H25 C20 1_555 1_555
H26 C21 1_555 1_555
H27 C21 1_555 1_555
H28 N6 1_555 1_555
H29 C23 1_555 1_555
H30 C23 1_555 1_555
H31 C25 1_555 1_555
H32 C26 1_555 1_555
H33 C26 1_555 1_555
H34 C27 1_555 1_555
H35 C27 1_555 1_555
H36 C28 1_555 1_555
H37 C28 1_555 1_555
H38 N8 1_555 1_555
H39 C30 1_555 1_555
H40 C31 1_555 1_555
H41 C31 1_555 1_555
H42 C33 1_555 1_555
H43 C34 1_555 1_555
H44 C35 1_555 1_555
H45 C36 1_555 1_555
H46 C37 1_555 1_555
H48 O9 1_555 1_555
H50 O10 1_555 1_555
H53 O12 1_555 1_555
C8 C9 1_555 1_555
C17 C18 1_555 1_555
C20 C21 1_555 1_555
C27 C28 1_555 1_555
C30 C38 1_555 1_555
C36 C37 1_555 1_555

#END
