
#######################################################################
#
#                 Cambridge Crystallographic Data Centre
#                                CCDC 
#
#######################################################################
#
# If this CIF has been generated from an entry in the Cambridge 
# Structural Database, then it will include bibliographic, chemical, 
# crystal, experimental, refinement or atomic coordinate data resulting 
# from the CCDC's data processing and validation procedures.
#
#######################################################################

data_DUVKUB
_chemical_name_common            
3beta-Acetoxy-8beta,10beta-dihydroxy-6beta-methoxyeremophil-7(11)-en-8,12-olide
_chemical_formula_moiety         'C18 H26 O7'
_chemical_name_systematic        
'8a,9a-Dihydroxy-4-methoxy-3,4a,5-trimethyl-2-oxo-2,4,4a,5,6,7,8,8a,9,9a-decahydronaphtho[2,3-b]furan-6-yl acetate'
_symmetry_cell_setting           orthorhombic
_symmetry_space_group_name_H-M   'P 21 21 21'
_symmetry_Int_Tables_number      19
_space_group_name_Hall           'P 2ac 2ab'
loop_
_symmetry_equiv_pos_site_id
_symmetry_equiv_pos_as_xyz
1 x,y,z
2 1/2-x,-y,1/2+z
3 1/2+x,1/2-y,-z
4 -x,1/2+y,1/2-z
_cell_length_a                   7.3036(15)
_cell_length_b                   9.789(2)
_cell_length_c                   25.553(5)
_cell_angle_alpha                90
_cell_angle_beta                 90
_cell_angle_gamma                90
_cell_volume                     1826.91
_exptl_crystal_colour            colorless
_exptl_crystal_description       block
_cell_formula_units_Z            4
loop_
_atom_site_label
_atom_site_type_symbol
_atom_site_fract_x
_atom_site_fract_y
_atom_site_fract_z
O1 O -0.1967(4) -0.0086(3) 0.16487(12)
O2 O -0.1302(4) 0.1257(3) 0.23691(10)
H1 H -0.1081 0.2051 0.2450
O3 O -0.0053(4) 0.3976(2) 0.21312(9)
H2 H 0.0292 0.4773 0.2139
O4 O 0.2582(4) 0.2059(3) 0.23680(10)
O5 O 0.3015(4) 0.4876(3) 0.05334(11)
O6 O -0.1385(6) -0.2075(3) 0.12421(14)
O7 O 0.4013(7) 0.4379(4) -0.02711(15)
C1 C -0.0818(8) -0.1056(4) 0.14538(19)
C2 C 0.1101(7) -0.0616(4) 0.15266(18)
C3 C 0.1075(6) 0.0623(4) 0.17441(15)
C4 C 0.2533(6) 0.1666(4) 0.18310(14)
H3 H 0.3748 0.1278 0.1728
C5 C 0.2130(5) 0.2971(4) 0.14977(15)
C6 C 0.2322(6) 0.2612(4) 0.09058(14)
H4 H 0.1475 0.1825 0.0844
C7 C 0.1687(6) 0.3740(4) 0.05353(15)
H5 H 0.1630 0.3351 0.0174
C8 C -0.0162(6) 0.4317(5) 0.06655(15)
H6 H -0.1115 0.3645 0.0567
H7 H -0.0365 0.5153 0.0456
C9 C -0.0369(6) 0.4666(3) 0.12460(15)
H8 H 0.0431 0.5451 0.1331
H9 H -0.1650 0.4942 0.1315
C10 C 0.0124(5) 0.3469(3) 0.16006(14)
C11 C -0.1312(6) 0.2326(3) 0.15316(15)
H10 H -0.2525 0.2676 0.1641
H11 H -0.1392 0.2083 0.1156
C12 C -0.0877(6) 0.1053(4) 0.18429(16)
C13 C 0.2662(9) -0.1493(5) 0.1353(2)
H12 H 0.3821 -0.1035 0.1434
H13 H 0.2578 -0.1648 0.0975
H14 H 0.2611 -0.2371 0.1537
C14 C 0.4250(6) 0.2095(5) 0.07529(16)
H15 H 0.4278 0.1888 0.0378
H16 H 0.4536 0.1266 0.0952
H17 H 0.5159 0.2802 0.0832
C15 C 0.3518(6) 0.4075(4) 0.16654(16)
H18 H 0.4765 0.3748 0.1599
H19 H 0.3372 0.4267 0.2040
H20 H 0.3299 0.4912 0.1465
C16 C 0.3729(6) 0.1197(5) 0.26786(17)
H21 H 0.3710 0.1513 0.3043
H22 H 0.4985 0.1233 0.2545
H23 H 0.3277 0.0256 0.2662
C17 C 0.4023(8) 0.5098(6) 0.0103(2)
C18 C 0.5228(10) 0.6339(6) 0.0173(2)
H24 H 0.5956 0.6483 -0.0145
H25 H 0.6048 0.6196 0.0471
H26 H 0.4462 0.7144 0.0237
loop_
_geom_bond_atom_site_label_1
_geom_bond_atom_site_label_2
_geom_bond_site_symmetry_1
_geom_bond_site_symmetry_2
O1 C1 1_555 1_555
O2 H1 1_555 1_555
O3 H2 1_555 1_555
O4 C4 1_555 1_555
O5 C7 1_555 1_555
O6 C1 1_555 1_555
O7 C17 1_555 1_555
C1 C2 1_555 1_555
C2 C3 1_555 1_555
C3 C4 1_555 1_555
C4 H3 1_555 1_555
C5 C4 1_555 1_555
C6 C5 1_555 1_555
H4 C6 1_555 1_555
C7 C6 1_555 1_555
H5 C7 1_555 1_555
C8 C7 1_555 1_555
H6 C8 1_555 1_555
H7 C8 1_555 1_555
C9 C8 1_555 1_555
H8 C9 1_555 1_555
H9 C9 1_555 1_555
C10 O3 1_555 1_555
C11 C10 1_555 1_555
H10 C11 1_555 1_555
H11 C11 1_555 1_555
C12 O1 1_555 1_555
C13 C2 1_555 1_555
H12 C13 1_555 1_555
H13 C13 1_555 1_555
H14 C13 1_555 1_555
C14 C6 1_555 1_555
H15 C14 1_555 1_555
H16 C14 1_555 1_555
H17 C14 1_555 1_555
C15 C5 1_555 1_555
H18 C15 1_555 1_555
H19 C15 1_555 1_555
H20 C15 1_555 1_555
C16 O4 1_555 1_555
H21 C16 1_555 1_555
H22 C16 1_555 1_555
H23 C16 1_555 1_555
C17 O5 1_555 1_555
C18 C17 1_555 1_555
H24 C18 1_555 1_555
H25 C18 1_555 1_555
H26 C18 1_555 1_555
O2 C12 1_555 1_555
C3 C12 1_555 1_555
C5 C10 1_555 1_555
C9 C10 1_555 1_555
C11 C12 1_555 1_555

#END
