
#######################################################################
#
#                 Cambridge Crystallographic Data Centre
#                                CCDC 
#
#######################################################################
#
# If this CIF has been generated from an entry in the Cambridge 
# Structural Database, then it will include bibliographic, chemical, 
# crystal, experimental, refinement or atomic coordinate data resulting 
# from the CCDC's data processing and validation procedures.
#
#######################################################################

data_DUVKEL
_chemical_formula_moiety         '2(C4 H12 N1 O1 1+),C8 H4 O4 2-'
_chemical_name_systematic        
'bis[diethyl(hydroxy)ammonium] benzene-1,4-dicarboxylate'
_symmetry_cell_setting           monoclinic
_symmetry_space_group_name_H-M   'P 21/c'
_symmetry_Int_Tables_number      14
_space_group_name_Hall           '-P 2ybc'
loop_
_symmetry_equiv_pos_site_id
_symmetry_equiv_pos_as_xyz
1 x,y,z
2 -x,1/2+y,1/2-z
3 -x,-y,-z
4 x,1/2-y,1/2+z
_cell_length_a                   6.507(2)
_cell_length_b                   11.478(4)
_cell_length_c                   12.649(5)
_cell_angle_alpha                90
_cell_angle_beta                 97.380(7)
_cell_angle_gamma                90
_cell_volume                     936.894
_exptl_crystal_colour            colorless
_exptl_crystal_description       block
_cell_formula_units_Z            2
loop_
_atom_site_label
_atom_site_type_symbol
_atom_site_fract_x
_atom_site_fract_y
_atom_site_fract_z
O1 O 0.4427(3) 0.3065(2) 0.0657(2)
O2 O 0.1752(4) 0.2241(2) 0.1261(2)
C1 C 0.2564(5) 0.3044(3) 0.0788(3)
C2 C 0.1228(4) 0.4052(3) 0.0370(2)
C3 C -0.0744(5) 0.4198(3) 0.0657(3)
H1 H -0.1258 0.3653 0.1100
C4 C 0.1945(5) 0.4869(3) -0.0298(3)
H2 H 0.3257 0.4784 -0.0505
O1B O -0.4427(3) 0.6935(2) -0.0657(2)
O2B O -0.1752(4) 0.7759(2) -0.1261(2)
C1B C -0.2564(5) 0.6956(3) -0.0788(3)
C2B C -0.1228(4) 0.5948(3) -0.0370(2)
C3B C 0.0744(5) 0.5802(3) -0.0657(3)
H1B H 0.1258 0.6347 -0.1100
C4B C -0.1945(5) 0.5131(3) 0.0298(3)
H2B H -0.3257 0.5216 0.0505
O3 O 0.4471(5) 0.0641(2) 0.1778(3)
H3 H 0.3444 0.1052 0.1629
N1 N 0.6262(5) 0.1284(3) 0.1645(2)
H4 H 0.5847 0.1967 0.1320
C5 C 0.6600(11) 0.2447(5) 0.3266(4)
H5 H 0.6382 0.3143 0.2846
H6 H 0.7486 0.2617 0.3914
H7 H 0.5292 0.2162 0.3433
C6 C 0.7561(8) 0.1574(4) 0.2672(3)
H8 H 0.7786 0.0874 0.3101
H9 H 0.8901 0.1855 0.2525
C7 C 0.7465(6) 0.0633(4) 0.0917(3)
H10 H 0.6599 0.0520 0.0241
H11 H 0.8644 0.1102 0.0783
C8 C 0.8225(8) -0.0519(4) 0.1328(4)
H12 H 0.9352 -0.0411 0.1888
H13 H 0.8694 -0.0961 0.0761
H14 H 0.7121 -0.0930 0.1601
loop_
_geom_bond_atom_site_label_1
_geom_bond_atom_site_label_2
_geom_bond_site_symmetry_1
_geom_bond_site_symmetry_2
O1 C1 1_555 1_555
O2 C1 1_555 1_555
C1 C2 1_555 1_555
C2 C3 1_555 1_555
C3 H1 1_555 1_555
C4 C2 1_555 1_555
H2 C4 1_555 1_555
O3 H3 1_555 1_555
N1 O3 1_555 1_555
H4 N1 1_555 1_555
C5 H5 1_555 1_555
H6 C5 1_555 1_555
H7 C5 1_555 1_555
C6 N1 1_555 1_555
H8 C6 1_555 1_555
H9 C6 1_555 1_555
C7 N1 1_555 1_555
H10 C7 1_555 1_555
H11 C7 1_555 1_555
C8 C7 1_555 1_555
H12 C8 1_555 1_555
H13 C8 1_555 1_555
H14 C8 1_555 1_555
O1B C1B 1_555 1_555
O2B C1B 1_555 1_555
C1B C2B 1_555 1_555
C2B C3B 1_555 1_555
C3B C4 1_555 1_555
H1B C3B 1_555 1_555
C4B C3 1_555 1_555
H2B C4B 1_555 1_555
C5 C6 1_555 1_555
C2B C4B 1_555 1_555

#END
