
#######################################################################
#
#                 Cambridge Crystallographic Data Centre
#                                CCDC 
#
#######################################################################
#
# If this CIF has been generated from an entry in the Cambridge 
# Structural Database, then it will include bibliographic, chemical, 
# crystal, experimental, refinement or atomic coordinate data resulting 
# from the CCDC's data processing and validation procedures.
#
#######################################################################

data_DUWBUT02
_chemical_name_common            
rac-2,8-Di-isopropyl-5,11-methano-5,6,11,12-tetrahydrodibenzo[b,f][1,5]diazocine
_chemical_formula_moiety         'C21 H26 N2'
_chemical_name_systematic        
rac-5,13-Di-isopropyl-1,9-diazatetracyclo[7.7.1.0^2,7^.0^10,15^]heptadeca-2,4,6,10,12,14-hexaene
_symmetry_cell_setting           monoclinic
_symmetry_space_group_name_H-M   'P 21/c'
_symmetry_Int_Tables_number      14
_space_group_name_Hall           '-P 2ybc'
loop_
_symmetry_equiv_pos_site_id
_symmetry_equiv_pos_as_xyz
1 x,y,z
2 -x,1/2+y,1/2-z
3 -x,-y,-z
4 x,1/2-y,1/2+z
_cell_length_a                   14.985(3)
_cell_length_b                   11.195(2)
_cell_length_c                   10.7460(18)
_cell_angle_alpha                90
_cell_angle_beta                 104.873(2)
_cell_angle_gamma                90
_cell_volume                     1742.32
_exptl_crystal_colour            colorless
_exptl_crystal_description       needle
_chemical_melting_point          '383.5-384.5 K'
_cell_formula_units_Z            4
_exptl_crystal_recrystallization_method dichloromethane
loop_
_atom_site_label
_atom_site_type_symbol
_atom_site_fract_x
_atom_site_fract_y
_atom_site_fract_z
C1 C 0.3841(5) 0.2482(5) 0.7418(7)
H1 H 0.3981 0.3127 0.6956
C2 C 0.4360(4) 0.1446(4) 0.7520(5)
C3 C 0.4127(4) 0.0493(5) 0.8205(5)
H2 H 0.4473 -0.0205 0.8286
C4 C 0.3397(5) 0.0550(6) 0.8767(7)
H3 H 0.3234 -0.0115 0.9179
C5 C 0.2905(9) 0.1618(9) 0.8709(9)
C6 C 0.2539(13) 0.3719(13) 0.784(2)
H4 H 0.2919 0.4356 0.8309
H5 H 0.2368 0.3939 0.6936
C7 C 0.3112(7) 0.2571(8) 0.7998(10)
C8 C 0.5200(2) 0.1341(4) 0.6978(3)
H6 H 0.5259 0.0499 0.6760
C9 C 0.6056(4) 0.1679(8) 0.7961(6)
H7 H 0.6047 0.2520 0.8131
H8 H 0.6585 0.1493 0.7646
H9 H 0.6090 0.1242 0.8741
C10 C 0.5125(3) 0.2069(5) 0.5757(4)
H10 H 0.4583 0.1832 0.5113
H11 H 0.5662 0.1932 0.5443
H12 H 0.5085 0.2903 0.5945
N1 N 0.21879(7) 0.17047(9) 0.92914(10)
C11 C 0.13483(9) 0.10700(11) 0.85890(12)
H13 H 0.0969(4) 0.0860(2) 0.9209(6)
H14 H 0.15314(19) 0.0302(7) 0.8233(3)
C12 C 0.07616(8) 0.18015(10) 0.74930(11)
C13 C 0.00284(8) 0.12823(11) 0.65871(11)
H15 H -0.00999(19) 0.0433(12) 0.66651(15)
C14 C -0.05264(8) 0.19294(10) 0.55771(11)
C15 C -0.03285(8) 0.31384(11) 0.54915(12)
H16 H -0.0712(5) 0.3624(7) 0.4777(10)
C16 C 0.03904(8) 0.36740(11) 0.63810(11)
H17 H 0.05121(19) 0.4519(12) 0.63029(16)
C17 C 0.09428(8) 0.30181(10) 0.73881(11)
N2 N 0.16687(7) 0.36185(9) 0.83075(9)
C18 C 0.19355(9) 0.29337(11) 0.95077(12)
H18 H 0.2476(5) 0.3338(4) 1.0117(6)
H19 H 0.1405(5) 0.29261(11) 0.9926(4)
C19 C -0.13430(8) 0.13383(12) 0.46514(12)
H20 H -0.1195(2) 0.0465(12) 0.46081(13)
C20 C -0.15417(10) 0.18398(13) 0.32875(12)
H21 H -0.0969(5) 0.1781(8) 0.2965(4)
H22 H -0.1733(6) 0.2702(8) 0.32923(19)
H23 H -0.2054(6) 0.1368(6) 0.2705(5)
C21 C -0.21982(9) 0.14388(13) 0.51721(13)
H24 H -0.2727(5) 0.0990(8) 0.4587(7)
H25 H -0.2372(4) 0.2308(7) 0.5207(8)
H26 H -0.2060(2) 0.1085(8) 0.6066(8)
C22? C 0.2440(18) 0.3890(18) 0.781(3)
C23? C 0.5072(3) 0.1867(5) 0.6490(6)
C24? C 0.5995(6) 0.1971(9) 0.7448(8)
C25? C 0.5042(3) 0.0836(4) 0.5593(4)
C26? C 0.3742(8) 0.2807(8) 0.7205(10)
C27? C 0.2879(13) 0.1783(13) 0.8461(14)
C28? C 0.4303(5) 0.1822(6) 0.7191(6)
C29? C 0.3022(10) 0.2818(12) 0.7827(14)
C30? C 0.4136(6) 0.0801(7) 0.7829(7)
C31? C 0.3456(7) 0.0797(8) 0.8499(10)
H27? H 0.2830(19) 0.455(2) 0.836(3)
H28? H 0.2210(19) 0.4203(19) 0.688(4)
H29? H 0.4981 0.2596 0.5968
H30? H 0.5999 0.2664 0.7976
H31? H 0.6470 0.2045 0.6999
H32? H 0.6105 0.1271 0.7981
H33? H 0.5498 0.0948 0.5118
H34? H 0.4441 0.0790 0.5005
H35? H 0.5168 0.0109 0.6080
H36? H 0.3859(8) 0.357(3) 0.6732(19)
H37? H 0.4523(15) 0.003(3) 0.7806(7)
H38? H 0.3373(7) 0.003(3) 0.905(2)
loop_
_geom_bond_atom_site_label_1
_geom_bond_atom_site_label_2
_geom_bond_site_symmetry_1
_geom_bond_site_symmetry_2
C1 H1 1_555 1_555
C2 C1 1_555 1_555
C3 C2 1_555 1_555
H2 C3 1_555 1_555
C4 C3 1_555 1_555
H3 C4 1_555 1_555
C5 C4 1_555 1_555
C6 H4 1_555 1_555
H5 C6 1_555 1_555
C7 C1 1_555 1_555
C8 C2 1_555 1_555
H6 C8 1_555 1_555
C9 C8 1_555 1_555
H7 C9 1_555 1_555
H8 C9 1_555 1_555
H9 C9 1_555 1_555
C10 C8 1_555 1_555
H10 C10 1_555 1_555
H11 C10 1_555 1_555
H12 C10 1_555 1_555
N1 C5 1_555 1_555
C11 N1 1_555 1_555
H13 C11 1_555 1_555
H14 C11 1_555 1_555
C12 C11 1_555 1_555
C13 C12 1_555 1_555
H15 C13 1_555 1_555
C14 C13 1_555 1_555
C15 C14 1_555 1_555
H16 C15 1_555 1_555
C16 C15 1_555 1_555
H17 C16 1_555 1_555
C17 C12 1_555 1_555
N2 C6 1_555 1_555
C18 N1 1_555 1_555
H18 C18 1_555 1_555
H19 C18 1_555 1_555
C19 C14 1_555 1_555
H20 C19 1_555 1_555
C20 C19 1_555 1_555
H21 C20 1_555 1_555
H22 C20 1_555 1_555
H23 C20 1_555 1_555
C21 C19 1_555 1_555
H24 C21 1_555 1_555
H25 C21 1_555 1_555
H26 C21 1_555 1_555
C5 C7 1_555 1_555
C6 C7 1_555 1_555
C16 C17 1_555 1_555
C17 N2 1_555 1_555
N2 C18 1_555 1_555

#END
