
#######################################################################
#
#                 Cambridge Crystallographic Data Centre
#                                CCDC 
#
#######################################################################
#
# If this CIF has been generated from an entry in the Cambridge 
# Structural Database, then it will include bibliographic, chemical, 
# crystal, experimental, refinement or atomic coordinate data resulting 
# from the CCDC's data processing and validation procedures.
#
#######################################################################

data_DUWCOO
_chemical_name_common            
2,8-Di-t-butyl-5,11-methano-5,6,11,12-tetrahydrodibenzo[b,f][1,5]diazocine
_chemical_formula_moiety         'C23 H30 N2'
_chemical_name_systematic        
5,13-Di-t-butyl-1,9-diazatetracyclo[7.7.1.0^2,7^.0^10,15^]heptadeca-2,4,6,10,12,14-hexaene
_symmetry_cell_setting           monoclinic
_symmetry_space_group_name_H-M   'C 2'
_symmetry_Int_Tables_number      5
_space_group_name_Hall           'C 2y'
loop_
_symmetry_equiv_pos_site_id
_symmetry_equiv_pos_as_xyz
1 x,y,z
2 -x,y,-z
3 1/2+x,1/2+y,z
4 1/2-x,1/2+y,-z
_cell_length_a                   28.370(2)
_cell_length_b                   6.6841(5)
_cell_length_c                   21.6271(16)
_cell_angle_alpha                90
_cell_angle_beta                 105.940(1)
_cell_angle_gamma                90
_cell_volume                     3943.41
_exptl_crystal_colour            colorless
_exptl_crystal_description       rod
_chemical_melting_point          '449-450 K'
_cell_formula_units_Z            8
_exptl_crystal_recrystallization_method dichloromethane
loop_
_atom_site_label
_atom_site_type_symbol
_atom_site_fract_x
_atom_site_fract_y
_atom_site_fract_z
C1 C 0.29705(9) 0.6997(4) 0.31657(12)
H1 H 0.2740(7) 0.808(3) 0.3000(5)
C2 C 0.28092(9) 0.5360(4) 0.34443(12)
C3 C 0.31513(9) 0.3820(4) 0.36717(12)
H2 H 0.3045(3) 0.258(4) 0.3861(6)
C4 C 0.36311(9) 0.3976(4) 0.36395(12)
H3 H 0.3867(7) 0.288(3) 0.3812(5)
C5 C 0.37873(8) 0.5650(4) 0.33690(11)
N1 N 0.42947(7) 0.5831(3) 0.33819(10)
C6 C 0.44329(9) 0.4557(4) 0.29018(11)
H4 H 0.4287(3) 0.322(3) 0.29024(11)
H5 H 0.4791(7) 0.4398(5) 0.3023(3)
C7 C 0.42644(8) 0.5431(4) 0.22294(11)
C8 C 0.42931(8) 0.4301(4) 0.16940(11)
H6 H 0.4438(4) 0.297(4) 0.1763(2)
C9 C 0.41220(8) 0.5014(4) 0.10699(12)
C10 C 0.38991(8) 0.6919(4) 0.09871(12)
H7 H 0.3758(4) 0.7424(16) 0.0560(13)
C11 C 0.38810(8) 0.8067(4) 0.15105(12)
H8 H 0.3726(5) 0.943(4) 0.1439(2)
C12 C 0.40735(8) 0.7371(4) 0.21368(12)
N2 N 0.40805(7) 0.8683(3) 0.26647(10)
C13 C 0.35941(8) 0.8939(4) 0.27751(12)
H9 H 0.3340(5) 0.9142(6) 0.2346(8)
H10 H 0.35969(8) 1.019(2) 0.3045(5)
C14 C 0.34490(8) 0.7163(4) 0.31124(11)
C15 C 0.44134(9) 0.7901(4) 0.32588(12)
H11 H 0.4773(7) 0.7966(4) 0.32245(13)
H12 H 0.43910(9) 0.8799(17) 0.3645(7)
C16 C 0.22880(9) 0.5223(5) 0.35257(13)
C17 C 0.19571(10) 0.6899(5) 0.31706(16)
H13 H 0.2094(5) 0.825(3) 0.3359(8)
H14 H 0.1613(7) 0.6717(19) 0.3221(9)
H15 H 0.1944(6) 0.685(2) 0.2694(9)
C18 C 0.23221(11) 0.5373(7) 0.42460(14)
H16 H 0.2486(10) 0.666(3) 0.4421(5)
H17 H 0.2517(10) 0.422(3) 0.4479(5)
H18 H 0.1985(7) 0.534(4) 0.4306(2)
C19 C 0.20557(11) 0.3216(6) 0.32623(16)
H19 H 0.1699(7) 0.3137(14) 0.3314(10)
H20 H 0.2267(6) 0.204(2) 0.3519(8)
H21 H 0.2042(7) 0.3098(15) 0.2774(9)
C20 C 0.41706(8) 0.3845(4) 0.04798(11)
C21 C 0.45361(10) 0.2114(5) 0.06723(13)
H22 H 0.4866(6) 0.2654(11) 0.0929(9)
H23 H 0.4574(6) 0.142(2) 0.0271(7)
H24 H 0.4411(4) 0.112(2) 0.0944(9)
C22 C 0.36696(9) 0.2989(5) 0.01183(13)
H25 H 0.3550(4) 0.207(3) 0.0411(6)
H26 H 0.37011(17) 0.222(3) -0.0267(8)
H27 H 0.3430(4) 0.4112(19) -0.0025(8)
C23 C 0.43538(10) 0.5236(5) 0.00310(13)
H28 H 0.4108(5) 0.631(2) -0.0130(8)
H29 H 0.4401(7) 0.4453(15) -0.0339(8)
H30 H 0.4671(6) 0.585(3) 0.0271(5)
C24 C 0.07716(8) 0.1661(4) 0.33962(12)
H31 H 0.0834(2) 0.028(5) 0.3519(4)
C25 C 0.08023(9) 0.3079(4) 0.38772(12)
C26 C 0.07059(9) 0.5062(4) 0.36824(12)
H32 H 0.07246(11) 0.607(3) 0.3997(10)
C27 C 0.05832(8) 0.5588(4) 0.30370(12)
H33 H 0.0513(2) 0.701(4) 0.2911(4)
C28 C 0.05572(7) 0.4150(3) 0.25625(11)
N3 N 0.04248(6) 0.4747(3) 0.18992(9)
C29 C 0.08316(8) 0.5691(4) 0.17003(12)
H34 H 0.1013(3) 0.6646(18) 0.2052(6)
H35 H 0.0690(3) 0.6509(15) 0.1295(7)
C30 C 0.11926(8) 0.4191(3) 0.15718(11)
C31 C 0.16340(8) 0.4823(3) 0.14638(11)
H36 H 0.16942(19) 0.625(4) 0.14458(12)
C32 C 0.19885(8) 0.3504(3) 0.13817(11)
C33 C 0.18921(9) 0.1455(4) 0.14262(12)
H37 H 0.2130(7) 0.051(3) 0.13929(16)
C34 C 0.14550(9) 0.0801(4) 0.15178(12)
H38 H 0.1399(2) -0.058(5) 0.15416(14)
C35 C 0.10956(8) 0.2149(3) 0.15757(11)
N4 N 0.06304(7) 0.1409(3) 0.16151(10)
C36 C 0.06483(9) 0.0559(4) 0.22496(12)
H39 H 0.0943(6) -0.0275(16) 0.2396(3)
H40 H 0.0361(5) -0.0306(17) 0.22088(14)
C37 C 0.06551(8) 0.2153(4) 0.27465(11)
C38 C 0.02632(8) 0.3016(4) 0.14839(12)
H41 H 0.01973(15) 0.3436(8) 0.1028(8)
H42 H -0.0048(6) 0.2500(10) 0.15492(15)
C39 C 0.09348(10) 0.2421(5) 0.45839(13)
C40 C 0.05465(12) 0.0981(7) 0.46869(15)
H43 H 0.0222(7) 0.1644(19) 0.4562(12)
H44 H 0.0628(5) 0.059(3) 0.5146(10)
H45 H 0.0538(6) -0.023(3) 0.4419(11)
C41 C 0.1001(2) 0.4174(8) 0.50413(18)
H46 H 0.0650(9) 0.491(4) 0.4987(12)
H47 H 0.1260(12) 0.523(4) 0.4933(11)
H48 H 0.1142(13) 0.3642(17) 0.5534(12)
C42 C 0.14264(12) 0.1262(8) 0.47481(18)
H49 H 0.1527(6) 0.087(4) 0.5239(12)
H50 H 0.1701(7) 0.218(3) 0.4652(14)
H51 H 0.1386(3) -0.005(4) 0.4465(13)
C43 C 0.24560(8) 0.4172(4) 0.12220(12)
C44 C 0.29098(9) 0.3200(4) 0.16844(14)
H52 H 0.3207(5) 0.362(2) 0.1567(6)
H53 H 0.2879(3) 0.173(2) 0.1654(7)
H54 H 0.2934(4) 0.362(2) 0.2129(8)
C45 C 0.25236(9) 0.6444(4) 0.12621(14)
H55 H 0.2246(5) 0.7094(11) 0.0948(7)
H56 H 0.2833(6) 0.6802(7) 0.1163(8)
H57 H 0.2536(6) 0.6903(9) 0.1701(7)
C46 C 0.24233(9) 0.3507(4) 0.05278(13)
H58 H 0.2113(6) 0.414(2) 0.0213(5)
H59 H 0.2399(7) 0.195(3) 0.0498(2)
H60 H 0.2735(6) 0.398(2) 0.0404(4)
loop_
_geom_bond_atom_site_label_1
_geom_bond_atom_site_label_2
_geom_bond_site_symmetry_1
_geom_bond_site_symmetry_2
C1 H1 1_555 1_555
C2 C1 1_555 1_555
C3 C2 1_555 1_555
H2 C3 1_555 1_555
C4 C3 1_555 1_555
H3 C4 1_555 1_555
C5 C4 1_555 1_555
N1 C5 1_555 1_555
C6 N1 1_555 1_555
H4 C6 1_555 1_555
H5 C6 1_555 1_555
C7 C6 1_555 1_555
C8 C7 1_555 1_555
H6 C8 1_555 1_555
C9 C8 1_555 1_555
C10 C9 1_555 1_555
H7 C10 1_555 1_555
C11 C10 1_555 1_555
H8 C11 1_555 1_555
C12 C7 1_555 1_555
N2 C12 1_555 1_555
C13 N2 1_555 1_555
H9 C13 1_555 1_555
H10 C13 1_555 1_555
C14 C1 1_555 1_555
C15 N1 1_555 1_555
H11 C15 1_555 1_555
H12 C15 1_555 1_555
C16 C2 1_555 1_555
C17 C16 1_555 1_555
H13 C17 1_555 1_555
H14 C17 1_555 1_555
H15 C17 1_555 1_555
C18 C16 1_555 1_555
H16 C18 1_555 1_555
H17 C18 1_555 1_555
H18 C18 1_555 1_555
C19 C16 1_555 1_555
H19 C19 1_555 1_555
H20 C19 1_555 1_555
H21 C19 1_555 1_555
C20 C9 1_555 1_555
C21 C20 1_555 1_555
H22 C21 1_555 1_555
H23 C21 1_555 1_555
H24 C21 1_555 1_555
C22 C20 1_555 1_555
H25 C22 1_555 1_555
H26 C22 1_555 1_555
H27 C22 1_555 1_555
C23 C20 1_555 1_555
H28 C23 1_555 1_555
H29 C23 1_555 1_555
H30 C23 1_555 1_555
C24 H31 1_555 1_555
C25 C24 1_555 1_555
C26 C25 1_555 1_555
H32 C26 1_555 1_555
C27 C26 1_555 1_555
H33 C27 1_555 1_555
C28 C27 1_555 1_555
N3 C28 1_555 1_555
C29 N3 1_555 1_555
H34 C29 1_555 1_555
H35 C29 1_555 1_555
C30 C29 1_555 1_555
C31 C30 1_555 1_555
H36 C31 1_555 1_555
C32 C31 1_555 1_555
C33 C32 1_555 1_555
H37 C33 1_555 1_555
C34 C33 1_555 1_555
H38 C34 1_555 1_555
C35 C30 1_555 1_555
N4 C35 1_555 1_555
C36 N4 1_555 1_555
H39 C36 1_555 1_555
H40 C36 1_555 1_555
C37 C24 1_555 1_555
C38 N3 1_555 1_555
H41 C38 1_555 1_555
H42 C38 1_555 1_555
C39 C25 1_555 1_555
C40 C39 1_555 1_555
H43 C40 1_555 1_555
H44 C40 1_555 1_555
H45 C40 1_555 1_555
C41 C39 1_555 1_555
H46 C41 1_555 1_555
H47 C41 1_555 1_555
H48 C41 1_555 1_555
C42 C39 1_555 1_555
H49 C42 1_555 1_555
H50 C42 1_555 1_555
H51 C42 1_555 1_555
C43 C32 1_555 1_555
C44 C43 1_555 1_555
H52 C44 1_555 1_555
H53 C44 1_555 1_555
H54 C44 1_555 1_555
C45 C43 1_555 1_555
H55 C45 1_555 1_555
H56 C45 1_555 1_555
H57 C45 1_555 1_555
C46 C43 1_555 1_555
H58 C46 1_555 1_555
H59 C46 1_555 1_555
H60 C46 1_555 1_555
C5 C14 1_555 1_555
C11 C12 1_555 1_555
N2 C15 1_555 1_555
C13 C14 1_555 1_555
C28 C37 1_555 1_555
C34 C35 1_555 1_555
N4 C38 1_555 1_555
C36 C37 1_555 1_555

#END
