
#######################################################################
#
#                 Cambridge Crystallographic Data Centre
#                                CCDC 
#
#######################################################################
#
# If this CIF has been generated from an entry in the Cambridge 
# Structural Database, then it will include bibliographic, chemical, 
# crystal, experimental, refinement or atomic coordinate data resulting 
# from the CCDC's data processing and validation procedures.
#
#######################################################################

data_DUWPOB
_chemical_formula_moiety         
'C48 H48 N32 O16,2(C18 H21 N1 O5 S1),21.25(H2 O1)'
_chemical_name_systematic        
'Cucurbit(8)uril bis(3-(4-(2-(3,4-dimethoxyphenyl)vinyl)pyridinium-1-yl)propane-1-sulfonate) hydrate'
_symmetry_cell_setting           monoclinic
_symmetry_space_group_name_H-M   'P 21/c'
_symmetry_Int_Tables_number      14
_space_group_name_Hall           '-P 2ybc'
loop_
_symmetry_equiv_pos_site_id
_symmetry_equiv_pos_as_xyz
1 x,y,z
2 -x,1/2+y,1/2-z
3 -x,-y,-z
4 x,1/2-y,1/2+z
_cell_length_a                   14.3170(14)
_cell_length_b                   19.7222(18)
_cell_length_c                   19.9897(18)
_cell_angle_alpha                90
_cell_angle_beta                 105.533(2)
_cell_angle_gamma                90
_cell_volume                     5438.19
_exptl_crystal_colour            yellow
_exptl_crystal_description       needle
_chemical_melting_point          'above 400deg.C(dec)'
_cell_formula_units_Z            2
loop_
_atom_site_label
_atom_site_type_symbol
_atom_site_fract_x
_atom_site_fract_y
_atom_site_fract_z
O1 O -0.1639(3) 0.7225(2) -0.2227(2)
O2 O -0.1945(3) 0.7648(2) -0.0425(2)
O3 O -0.0467(3) 0.72388(18) 0.15570(19)
O4 O 0.1800(3) 0.64852(18) 0.26623(18)
O5 O -0.3692(3) 0.45177(19) -0.2090(2)
O6 O -0.4086(3) 0.4948(2) -0.0399(2)
O7 O -0.2729(3) 0.4652(2) 0.1524(2)
O8 O -0.0341(3) 0.3809(2) 0.2569(2)
N1 N -0.2345(3) 0.6314(2) -0.2907(2)
N2 N -0.3052(3) 0.6722(2) -0.2122(2)
N3 N -0.3294(3) 0.7035(2) -0.1007(2)
N4 N -0.2850(3) 0.7003(2) 0.0136(2)
N5 N -0.2030(3) 0.6826(2) 0.1346(2)
N6 N -0.0915(3) 0.6486(2) 0.2294(2)
N7 N 0.0546(3) 0.6009(2) 0.3028(2)
N8 N 0.1899(3) 0.5429(2) 0.3168(2)
N9 N -0.3102(3) 0.5225(2) -0.2797(2)
N10 N -0.3962(3) 0.5672(2) -0.2142(2)
N11 N -0.4084(3) 0.5944(2) -0.1000(2)
N12 N -0.3792(3) 0.5994(2) 0.0151(2)
N13 N -0.2969(3) 0.5806(2) 0.1360(2)
N14 N -0.1827(3) 0.5444(2) 0.2265(2)
N15 N -0.0325(3) 0.4934(2) 0.2918(2)
N16 N 0.1063(4) 0.4365(2) 0.3158(2)
C1 C -0.2266(4) 0.6794(3) -0.2394(3)
C2 C -0.3304(4) 0.7253(3) -0.1700(3)
H1 H -0.2841 0.7633 -0.1665
H2 H -0.3958 0.7426 -0.1936
C3 C -0.2638(4) 0.7263(3) -0.0433(3)
C4 C -0.2466(4) 0.7311(3) 0.0805(3)
H3 H -0.2996 0.7552 0.0939
H4 H -0.1973 0.7651 0.0772
C5 C -0.1073(4) 0.6890(3) 0.1710(3)
C6 C -0.0106(4) 0.6580(3) 0.2887(3)
H5 H -0.0350 0.6665 0.3299
H6 H 0.0259 0.6987 0.2814
C7 C 0.1444(4) 0.6018(3) 0.2927(3)
C8 C 0.2925(4) 0.5310(3) 0.3245(3)
H7 H 0.3225 0.5735 0.3138
H8 H 0.3242 0.5189 0.3734
C9 C -0.3599(4) 0.5085(3) -0.2325(3)
C10 C -0.4573(4) 0.5695(3) -0.1680(3)
H9 H -0.4822 0.5234 -0.1636
H10 H -0.5136 0.5991 -0.1884
C11 C -0.4001(4) 0.5562(3) -0.0417(3)
C12 C -0.3871(4) 0.5772(3) 0.0818(3)
H11 H -0.4108 0.5298 0.0778
H12 H -0.4360 0.6056 0.0955
C13 C -0.2516(4) 0.5242(3) 0.1700(3)
C14 C -0.1363(4) 0.4990(3) 0.2816(3)
H13 H -0.1658 0.4535 0.2714
H14 H -0.1489 0.5150 0.3253
C15 C 0.0095(4) 0.4321(3) 0.2853(3)
C16 C 0.1661(4) 0.3758(3) 0.3309(3)
H15 H 0.2019 0.3763 0.3807
H16 H 0.1231 0.3356 0.3229
C17 C -0.3228(4) 0.5927(3) -0.3028(3)
H17 H -0.3626 0.5963 -0.3522
C18 C -0.3759(4) 0.6239(3) -0.2517(3)
H18 H -0.4369 0.6474 -0.2774
C19 C -0.4061(4) 0.6667(3) -0.0849(3)
H19 H -0.4703 0.6884 -0.1063
C20 C -0.3805(4) 0.6697(3) -0.0048(3)
H20 H -0.4286 0.6968 0.0122
C21 C -0.2586(4) 0.6422(3) 0.1699(3)
H21 H -0.3100 0.6697 0.1826
C22 C -0.1816(4) 0.6168(3) 0.2355(3)
H22 H -0.1978 0.6303 0.2793
C23 C 0.0360(4) 0.5395(3) 0.3366(3)
H23 H 0.0184 0.5492 0.3808
C24 C 0.1334(4) 0.5001(3) 0.3496(3)
H24 H 0.1652 0.4942 0.4003
O1B O 0.1639(3) 0.2775(2) 0.2227(2)
O2B O 0.1945(3) 0.2352(2) 0.0425(2)
O3B O 0.0467(3) 0.27612(18) -0.15570(19)
O4B O -0.1800(3) 0.35148(18) -0.26623(18)
O5B O 0.3692(3) 0.54823(19) 0.2090(2)
O6B O 0.4086(3) 0.5052(2) 0.0399(2)
O7B O 0.2729(3) 0.5348(2) -0.1524(2)
O8B O 0.0341(3) 0.6191(2) -0.2569(2)
N1B N 0.2345(3) 0.3686(2) 0.2907(2)
N2B N 0.3052(3) 0.3278(2) 0.2122(2)
N3B N 0.3294(3) 0.2965(2) 0.1007(2)
N4B N 0.2850(3) 0.2997(2) -0.0136(2)
N5B N 0.2030(3) 0.3174(2) -0.1346(2)
N6B N 0.0915(3) 0.3514(2) -0.2294(2)
N7B N -0.0546(3) 0.3991(2) -0.3028(2)
N8B N -0.1899(3) 0.4571(2) -0.3168(2)
N9B N 0.3102(3) 0.4775(2) 0.2797(2)
N10B N 0.3962(3) 0.4328(2) 0.2142(2)
N11B N 0.4084(3) 0.4056(2) 0.1000(2)
N12B N 0.3792(3) 0.4006(2) -0.0151(2)
N13B N 0.2969(3) 0.4194(2) -0.1360(2)
N14B N 0.1827(3) 0.4556(2) -0.2265(2)
N15B N 0.0325(3) 0.5066(2) -0.2918(2)
N16B N -0.1063(4) 0.5635(2) -0.3158(2)
C1B C 0.2266(4) 0.3206(3) 0.2394(3)
C2B C 0.3304(4) 0.2747(3) 0.1700(3)
H1B H 0.2841 0.2367 0.1665
H2B H 0.3958 0.2574 0.1936
C3B C 0.2638(4) 0.2737(3) 0.0433(3)
C4B C 0.2466(4) 0.2689(3) -0.0805(3)
H3B H 0.2996 0.2448 -0.0939
H4B H 0.1973 0.2349 -0.0772
C5B C 0.1073(4) 0.3110(3) -0.1710(3)
C6B C 0.0106(4) 0.3420(3) -0.2887(3)
H5B H 0.0350 0.3335 -0.3299
H6B H -0.0259 0.3013 -0.2814
C7B C -0.1444(4) 0.3982(3) -0.2927(3)
C8B C -0.2925(4) 0.4690(3) -0.3245(3)
H7B H -0.3225 0.4265 -0.3138
H8B H -0.3242 0.4811 -0.3734
C9B C 0.3599(4) 0.4915(3) 0.2325(3)
C10B C 0.4573(4) 0.4305(3) 0.1680(3)
H9B H 0.4822 0.4766 0.1636
H10B H 0.5136 0.4009 0.1884
C11B C 0.4001(4) 0.4438(3) 0.0417(3)
C12B C 0.3871(4) 0.4228(3) -0.0818(3)
H11B H 0.4108 0.4702 -0.0778
H12B H 0.4360 0.3944 -0.0955
C13B C 0.2516(4) 0.4758(3) -0.1700(3)
C14B C 0.1363(4) 0.5010(3) -0.2816(3)
H13B H 0.1658 0.5465 -0.2714
H14B H 0.1489 0.4850 -0.3253
C15B C -0.0095(4) 0.5679(3) -0.2853(3)
C16B C -0.1661(4) 0.6242(3) -0.3309(3)
H15B H -0.2019 0.6237 -0.3807
H16B H -0.1231 0.6644 -0.3229
C17B C 0.3228(4) 0.4073(3) 0.3028(3)
H17B H 0.3626 0.4037 0.3522
C18B C 0.3759(4) 0.3761(3) 0.2517(3)
H18B H 0.4369 0.3526 0.2774
C19B C 0.4061(4) 0.3333(3) 0.0849(3)
H19B H 0.4703 0.3116 0.1063
C20B C 0.3805(4) 0.3303(3) 0.0048(3)
H20B H 0.4286 0.3032 -0.0122
C21B C 0.2586(4) 0.3578(3) -0.1699(3)
H21B H 0.3100 0.3303 -0.1826
C22B C 0.1816(4) 0.3832(3) -0.2355(3)
H22B H 0.1978 0.3697 -0.2793
C23B C -0.0360(4) 0.4605(3) -0.3366(3)
H23B H -0.0184 0.4508 -0.3808
C24B C -0.1334(4) 0.4999(3) -0.3496(3)
H24B H -0.1652 0.5058 -0.4003
S1 S 0.45378(11) 0.75600(8) 0.11324(8)
O9 O 0.4779(3) 0.8249(2) 0.0973(2)
O10 O 0.5291(4) 0.7276(3) 0.1675(3)
O11 O 0.4319(4) 0.7124(2) 0.0523(2)
O12 O -0.2218(4) 0.1439(2) 0.0386(2)
O13 O -0.0759(4) 0.1459(2) -0.0149(3)
N17 N 0.1788(4) 0.6082(3) 0.0919(3)
C25 C 0.0983(10) 0.6125(6) 0.1136(11)
H25 H 0.0777 0.6555 0.1256
C26 C 0.0450(6) 0.5558(6) 0.1189(5)
H26 H -0.0118 0.5603 0.1345
C27 C 0.0730(7) 0.4913(5) 0.1015(5)
C28 C 0.1587(7) 0.4892(5) 0.0809(6)
H27 H 0.1813 0.4467 0.0690
C29 C 0.2094(9) 0.5444(5) 0.0773(7)
H28 H 0.2683 0.5404 0.0643
C30 C 0.0119(6) 0.4323(4) 0.1031(4)
H29 H -0.0398 0.4371 0.1242
C31 C 0.0251(7) 0.3710(5) 0.0761(5)
H30 H 0.0802 0.3645 0.0590
C32 C 0.2339(12) 0.6681(9) 0.0811(8)
H31 H 0.1881 0.7049 0.0608
H32 H 0.2712 0.6568 0.0475
C33 C -0.0437(5) 0.3135(3) 0.0722(4)
C34 C -0.1196(6) 0.3118(4) 0.1023(4)
H33 H -0.1293 0.3481 0.1309
C35 C -0.1828(5) 0.2556(3) 0.0903(3)
H34 H -0.2379 0.2552 0.1082
C36 C -0.1639(5) 0.2011(3) 0.0521(3)
C37 C -0.0884(5) 0.2022(3) 0.0236(3)
C38 C -0.0273(5) 0.2579(3) 0.0338(4)
H35 H 0.0265 0.2582 0.0144
C39 C -0.3089(6) 0.1493(4) 0.0551(4)
H36 H -0.3451 0.1068 0.0438
H37 H -0.3469 0.1865 0.0285
H38 H -0.2968 0.1586 0.1049
C40 C -0.0127(6) 0.1509(4) -0.0595(4)
H39 H -0.0122 0.1076 -0.0835
H40 H 0.0531 0.1616 -0.0318
H41 H -0.0358 0.1868 -0.0938
C41 C 0.3029(5) 0.6930(4) 0.1478(4)
H42 H 0.3551 0.6591 0.1638
H43 H 0.2674 0.6967 0.1839
C42 C 0.3486(5) 0.7619(3) 0.1399(4)
H44 H 0.3632 0.7859 0.1850
H45 H 0.3008 0.7895 0.1057
O14 O 0.1710(3) 0.7860(2) 0.2264(3)
O15 O 0.3919(3) 0.8695(2) 0.4314(2)
O16 O 0.3592(4) 0.7957(3) 0.3093(3)
O17 O -0.1807(5) 0.8952(3) -0.0939(3)
O18 O 0.4213(4) 1.1662(3) 0.0087(3)
O19 O 0.5352(5) 0.6180(3) 0.2477(4)
O20 O -0.0965(5) -0.0014(3) -0.0051(3)
O21 O 0.5327(5) 1.1784(3) 0.1441(3)
O22 O 0.6647(5) 0.5329(4) 0.3278(4)
O23 O 0.4185(12) 1.0220(6) -0.0127(6)
O24 O 0.4564(7) 0.9643(4) 0.1107(5)
O25 O -0.262(3) 0.0560(18) -0.054(2)
C43? C 0.097(4) 0.598(2) 0.112(4)
C44? C 0.216(3) 0.6794(19) 0.0944(17)
C45? C 0.067(4) 0.532(2) 0.115(3)
C46? C 0.097(3) 0.480(2) 0.082(2)
C47? C 0.179(3) 0.4948(18) 0.0633(19)
C48? C 0.216(3) 0.5554(14) 0.062(2)
C49? C 0.070(3) 0.406(2) 0.070(2)
C50? C -0.003(3) 0.384(2) 0.094(2)
H46? H 0.0621 0.6352 0.1232
H47? H 0.2286 0.6899 0.0490
H48? H 0.1651 0.7106 0.1005
H49? H 0.0226 0.5233 0.1424
H50? H 0.2121 0.4579 0.0495
H51? H 0.2680 0.5626 0.0417
H52? H 0.1039 0.3766 0.0464
H53? H -0.0295 0.4121 0.1236
O26? O 0.3222(14) 1.0525(8) -0.0190(7)
loop_
_geom_bond_atom_site_label_1
_geom_bond_atom_site_label_2
_geom_bond_site_symmetry_1
_geom_bond_site_symmetry_2
O1 C1 1_555 1_555
O2 C3 1_555 1_555
O3 C5 1_555 1_555
O4 C7 1_555 1_555
O5 C9 1_555 1_555
O6 C11 1_555 1_555
O7 C13 1_555 1_555
O8 C15 1_555 1_555
N1 C1 1_555 1_555
N2 C1 1_555 1_555
N3 C2 1_555 1_555
N4 C3 1_555 1_555
N5 C4 1_555 1_555
N6 C5 1_555 1_555
N7 C6 1_555 1_555
N8 C7 1_555 1_555
N9 C9 1_555 1_555
N10 C9 1_555 1_555
N11 C10 1_555 1_555
N12 C11 1_555 1_555
N13 C12 1_555 1_555
N14 C13 1_555 1_555
N15 C14 1_555 1_555
N16 C15 1_555 1_555
C2 N2 1_555 1_555
H1 C2 1_555 1_555
H2 C2 1_555 1_555
C3 N3 1_555 1_555
C4 N4 1_555 1_555
H3 C4 1_555 1_555
H4 C4 1_555 1_555
C5 N5 1_555 1_555
C6 N6 1_555 1_555
H5 C6 1_555 1_555
H6 C6 1_555 1_555
C7 N7 1_555 1_555
C8 N8 1_555 1_555
H7 C8 1_555 1_555
H8 C8 1_555 1_555
C10 N10 1_555 1_555
H9 C10 1_555 1_555
H10 C10 1_555 1_555
C11 N11 1_555 1_555
C12 N12 1_555 1_555
H11 C12 1_555 1_555
H12 C12 1_555 1_555
C13 N13 1_555 1_555
C14 N14 1_555 1_555
H13 C14 1_555 1_555
H14 C14 1_555 1_555
C15 N15 1_555 1_555
C16 N16 1_555 1_555
H15 C16 1_555 1_555
H16 C16 1_555 1_555
C17 N1 1_555 1_555
H17 C17 1_555 1_555
C18 N2 1_555 1_555
H18 C18 1_555 1_555
C19 N3 1_555 1_555
H19 C19 1_555 1_555
C20 N4 1_555 1_555
H20 C20 1_555 1_555
C21 N5 1_555 1_555
H21 C21 1_555 1_555
C22 N6 1_555 1_555
H22 C22 1_555 1_555
C23 N7 1_555 1_555
H23 C23 1_555 1_555
C24 N8 1_555 1_555
H24 C24 1_555 1_555
S1 O9 1_555 1_555
O10 S1 1_555 1_555
O11 S1 1_555 1_555
O12 C36 1_555 1_555
O13 C37 1_555 1_555
N17 C25 1_555 1_555
C25 H25 1_555 1_555
C26 C25 1_555 1_555
H26 C26 1_555 1_555
C27 C26 1_555 1_555
C28 C27 1_555 1_555
H27 C28 1_555 1_555
C29 N17 1_555 1_555
H28 C29 1_555 1_555
C30 C27 1_555 1_555
H29 C30 1_555 1_555
C31 C30 1_555 1_555
H30 C31 1_555 1_555
C32 N17 1_555 1_555
H31 C32 1_555 1_555
H32 C32 1_555 1_555
C33 C31 1_555 1_555
C34 C33 1_555 1_555
H33 C34 1_555 1_555
C35 C34 1_555 1_555
H34 C35 1_555 1_555
C36 C35 1_555 1_555
C37 C36 1_555 1_555
C38 C33 1_555 1_555
H35 C38 1_555 1_555
C39 O12 1_555 1_555
H36 C39 1_555 1_555
H37 C39 1_555 1_555
H38 C39 1_555 1_555
C40 O13 1_555 1_555
H39 C40 1_555 1_555
H40 C40 1_555 1_555
H41 C40 1_555 1_555
C41 C32 1_555 1_555
H42 C41 1_555 1_555
H43 C41 1_555 1_555
C42 S1 1_555 1_555
H44 C42 1_555 1_555
H45 C42 1_555 1_555
O1B C1B 1_555 1_555
O2B C3B 1_555 1_555
O3B C5B 1_555 1_555
O4B C7B 1_555 1_555
O5B C9B 1_555 1_555
O6B C11B 1_555 1_555
O7B C13B 1_555 1_555
O8B C15B 1_555 1_555
N1B C16 1_555 1_555
N2B C1B 1_555 1_555
N3B C2B 1_555 1_555
N4B C3B 1_555 1_555
N5B C4B 1_555 1_555
N6B C5B 1_555 1_555
N7B C6B 1_555 1_555
N8B C7B 1_555 1_555
N9B C8 1_555 1_555
N10B C9B 1_555 1_555
N11B C10B 1_555 1_555
N12B C11B 1_555 1_555
N13B C12B 1_555 1_555
N14B C13B 1_555 1_555
N15B C14B 1_555 1_555
N16B C15B 1_555 1_555
C1B N1B 1_555 1_555
C2B N2B 1_555 1_555
H1B C2B 1_555 1_555
H2B C2B 1_555 1_555
C3B N3B 1_555 1_555
C4B N4B 1_555 1_555
H3B C4B 1_555 1_555
H4B C4B 1_555 1_555
C5B N5B 1_555 1_555
C6B N6B 1_555 1_555
H5B C6B 1_555 1_555
H6B C6B 1_555 1_555
C7B N7B 1_555 1_555
C8B N9 1_555 1_555
H7B C8B 1_555 1_555
H8B C8B 1_555 1_555
C9B N9B 1_555 1_555
C10B N10B 1_555 1_555
H9B C10B 1_555 1_555
H10B C10B 1_555 1_555
C11B N11B 1_555 1_555
C12B N12B 1_555 1_555
H11B C12B 1_555 1_555
H12B C12B 1_555 1_555
C13B N13B 1_555 1_555
C14B N14B 1_555 1_555
H13B C14B 1_555 1_555
H14B C14B 1_555 1_555
C15B N15B 1_555 1_555
C16B N1 1_555 1_555
H15B C16B 1_555 1_555
H16B C16B 1_555 1_555
C17B N1B 1_555 1_555
H17B C17B 1_555 1_555
C18B N2B 1_555 1_555
H18B C18B 1_555 1_555
C19B N3B 1_555 1_555
H19B C19B 1_555 1_555
C20B N4B 1_555 1_555
H20B C20B 1_555 1_555
C21B N5B 1_555 1_555
H21B C21B 1_555 1_555
C22B N6B 1_555 1_555
H22B C22B 1_555 1_555
C23B N7B 1_555 1_555
H23B C23B 1_555 1_555
C24B N8B 1_555 1_555
H24B C24B 1_555 1_555
N9 C17 1_555 1_555
N10 C18 1_555 1_555
N11 C19 1_555 1_555
N12 C20 1_555 1_555
N13 C21 1_555 1_555
N14 C22 1_555 1_555
N15 C23 1_555 1_555
N16 C24 1_555 1_555
C17 C18 1_555 1_555
C19 C20 1_555 1_555
C21 C22 1_555 1_555
C23 C24 1_555 1_555
C28 C29 1_555 1_555
C37 C38 1_555 1_555
C41 C42 1_555 1_555
N8B C8B 1_555 1_555
N9B C17B 1_555 1_555
N10B C18B 1_555 1_555
N11B C19B 1_555 1_555
N12B C20B 1_555 1_555
N13B C21B 1_555 1_555
N14B C22B 1_555 1_555
N15B C23B 1_555 1_555
N16B C16B 1_555 1_555
N16B C24B 1_555 1_555
C17B C18B 1_555 1_555
C19B C20B 1_555 1_555
C21B C22B 1_555 1_555
C23B C24B 1_555 1_555

#END
