
#######################################################################
#
#                 Cambridge Crystallographic Data Centre
#                                CCDC 
#
#######################################################################
#
# If this CIF has been generated from an entry in the Cambridge 
# Structural Database, then it will include bibliographic, chemical, 
# crystal, experimental, refinement or atomic coordinate data resulting 
# from the CCDC's data processing and validation procedures.
#
#######################################################################

data_DUWXIE
_chemical_formula_moiety         'C42 H31 N1 O2'
_chemical_name_systematic        
1-Nitro-4-(2-(4-(2-(4-(triphenylvinyl)phenyl)vinyl)phenyl)vinyl)benzene
_symmetry_cell_setting           triclinic
_symmetry_space_group_name_H-M   'P -1'
_symmetry_Int_Tables_number      2
_space_group_name_Hall           '-P 1'
loop_
_symmetry_equiv_pos_site_id
_symmetry_equiv_pos_as_xyz
1 x,y,z
2 -x,-y,-z
_cell_length_a                   9.396(5)
_cell_length_b                   17.959(6)
_cell_length_c                   18.690(7)
_cell_angle_alpha                79.896(14)
_cell_angle_beta                 83.610(15)
_cell_angle_gamma                86.117(15)
_cell_volume                     3081.85
_exptl_crystal_colour            yellow
_exptl_crystal_description       block
_cell_formula_units_Z            4
loop_
_atom_site_label
_atom_site_type_symbol
_atom_site_fract_x
_atom_site_fract_y
_atom_site_fract_z
C1 C 0.0916(4) 0.75957(18) 0.2057(2)
H1 H 0.1283 0.7349 0.2496
C2 C -0.0315(4) 0.8065(2) 0.2088(2)
H2 H -0.0782 0.8141 0.2549
C3 C -0.0867(4) 0.8424(2) 0.1458(2)
H3 H -0.1707 0.8748 0.1484
C4 C -0.0192(4) 0.8309(2) 0.0784(2)
H4 H -0.0567 0.8555 0.0347
C5 C 0.1031(4) 0.78342(18) 0.07497(19)
H5 H 0.1474 0.7747 0.0288
C6 C 0.1620(3) 0.74841(17) 0.13812(17)
C7 C 0.2978(3) 0.70070(17) 0.13139(17)
C8 C 0.2912(3) 0.63908(17) 0.08758(17)
C9 C 0.1925(4) 0.58356(18) 0.11178(19)
H6 H 0.1286 0.5865 0.1545
C10 C 0.1864(4) 0.52356(19) 0.07390(19)
H7 H 0.1193 0.4856 0.0912
C11 C 0.2777(4) 0.5194(2) 0.0115(2)
H8 H 0.2745 0.4782 -0.0139
C12 C 0.3738(4) 0.5754(2) -0.01408(19)
H9 H 0.4347 0.5733 -0.0579
C13 C 0.3820(4) 0.63460(19) 0.02380(18)
H10 H 0.4496 0.6723 0.0063
C14 C 0.5455(4) 0.58292(18) 0.17378(18)
H11 H 0.4563 0.5604 0.1896
C15 C 0.6688(4) 0.5373(2) 0.16766(19)
H12 H 0.6644 0.4839 0.1802
C16 C 0.7988(4) 0.5693(2) 0.14326(18)
H13 H 0.8834 0.5379 0.1376
C17 C 0.8048(4) 0.6470(2) 0.12722(19)
H14 H 0.8942 0.6692 0.1111
C18 C 0.6814(4) 0.6931(2) 0.13447(19)
H15 H 0.6870 0.7466 0.1239
C19 C 0.5495(3) 0.66132(18) 0.15719(17)
C20 C 0.4158(4) 0.71190(18) 0.16226(17)
C21 C 0.4214(3) 0.77350(18) 0.20555(18)
C22 C 0.4701(4) 0.7572(2) 0.2750(2)
H16 H 0.5094 0.7078 0.2915
C23 C 0.4629(4) 0.8103(2) 0.3201(2)
H17 H 0.4965 0.7969 0.3670
C24 C 0.4075(4) 0.8827(2) 0.2983(2)
C25 C 0.3659(4) 0.9020(2) 0.2265(2)
H18 H 0.3324 0.9523 0.2091
C26 C 0.3737(4) 0.84781(19) 0.1812(2)
H19 H 0.3461 0.8616 0.1331
C27 C 0.3972(5) 0.9365(3) 0.3497(3)
H20 H 0.4335 0.9189 0.3955
C28 C 0.3453(5) 1.0036(2) 0.3393(3)
H21 H 0.3078 1.0194 0.2936
C29 C 0.3333(4) 1.0626(2) 0.3880(2)
C30 C 0.3406(5) 1.0493(3) 0.4629(3)
H22 H 0.3602 0.9992 0.4873
C31 C 0.3200(5) 1.1075(3) 0.5024(3)
H23 H 0.3274 1.0969 0.5535
C32 C 0.2885(5) 1.1812(3) 0.4697(3)
C33 C 0.2864(5) 1.1952(2) 0.3940(3)
H24 H 0.2700 1.2455 0.3694
C34 C 0.3081(5) 1.1360(2) 0.3546(2)
H25 H 0.3054 1.1466 0.3031
C35 C 0.2591(7) 1.2309(3) 0.5268(5)
H26 H 0.2640 1.2111 0.5771
C36 C 0.2263(8) 1.3027(3) 0.5048(6)
H27 H 0.2205 1.3212 0.4543
C37 C 0.1971(5) 1.3571(3) 0.5604(3)
C38 C 0.1843(5) 1.3461(2) 0.6360(3)
H28 H 0.2006 1.2967 0.6627
C39 C 0.1482(5) 1.4059(3) 0.6733(3)
H29 H 0.1368 1.3976 0.7252
C40 C 0.1291(4) 1.4768(2) 0.6344(2)
C41 C 0.1457(5) 1.4903(2) 0.5589(2)
H30 H 0.1361 1.5402 0.5322
C42 C 0.1765(5) 1.4294(3) 0.5238(2)
H31 H 0.1839 1.4377 0.4719
N1 N 0.0852(5) 1.5403(2) 0.6724(2)
O1 O 0.1074(8) 1.6016(2) 0.6422(3)
O2 O 0.0195(4) 1.5261(2) 0.73330(18)
C45 C 0.6901(3) 0.19216(19) 0.12353(19)
H34 H 0.6991 0.2449 0.1068
C46 C 0.8109(4) 0.1437(2) 0.1226(2)
H35 H 0.9021 0.1634 0.1053
C47 C 0.7996(4) 0.0670(2) 0.14676(19)
H36 H 0.8829 0.0339 0.1462
C48 C 0.6667(4) 0.03847(19) 0.17186(19)
H37 H 0.6583 -0.0143 0.1887
C49 C 0.5465(4) 0.08712(18) 0.17223(18)
H38 H 0.4553 0.0672 0.1890
C50 C 0.5557(3) 0.16459(18) 0.14857(17)
C51 C 0.4252(3) 0.21732(17) 0.15290(18)
C52 C 0.3039(3) 0.20348(17) 0.12580(17)
C53 C 0.2945(3) 0.13988(17) 0.08488(18)
C54 C 0.3813(4) 0.13369(19) 0.02012(18)
H39 H 0.4488 0.1710 0.0007
C55 C 0.3695(4) 0.0733(2) -0.01608(19)
H40 H 0.4273 0.0704 -0.0607
C56 C 0.2746(4) 0.0177(2) 0.0122(2)
H41 H 0.2694 -0.0243 -0.0119
C57 C 0.1872(4) 0.0234(2) 0.0757(2)
H42 H 0.1211 -0.0146 0.0950
C58 C 0.1955(4) 0.08431(18) 0.11144(19)
H43 H 0.1333 0.0883 0.1544
C59 C 0.1072(4) 0.28786(19) 0.0726(2)
H44 H 0.1551 0.2843 0.0257
C60 C -0.0190(4) 0.3324(2) 0.0781(2)
H45 H -0.0559 0.3599 0.0353
C61 C -0.0907(4) 0.3368(2) 0.1459(3)
H46 H -0.1759 0.3681 0.1500
C62 C -0.0387(4) 0.2958(2) 0.2074(2)
H47 H -0.0898 0.2976 0.2540
C63 C 0.0885(4) 0.2517(2) 0.2022(2)
H48 H 0.1237 0.2237 0.2452
C64 C 0.1642(3) 0.24846(18) 0.13435(18)
C65 C 0.4367(3) 0.28121(18) 0.19302(18)
C66 C 0.3599(4) 0.35087(18) 0.17858(18)
H49 H 0.3056 0.3610 0.1377
C67 C 0.3611(4) 0.40509(19) 0.22240(19)
H50 H 0.3047 0.4509 0.2119
C68 C 0.4433(4) 0.39446(18) 0.28213(19)
C69 C 0.5311(4) 0.32819(19) 0.29167(19)
H51 H 0.5948 0.3209 0.3286
C70 C 0.5278(4) 0.27281(19) 0.24878(19)
H52 H 0.5885 0.2283 0.2573
C71 C 0.4414(4) 0.44972(19) 0.33039(18)
H53 H 0.5172 0.4456 0.3608
C72 C 0.3416(4) 0.50611(19) 0.33567(18)
H54 H 0.2653 0.5081 0.3059
C73 C 0.3350(4) 0.56486(18) 0.38127(19)
C74 C 0.2155(4) 0.6161(2) 0.3806(2)
H55 H 0.1419 0.6117 0.3507
C75 C 0.2030(4) 0.6730(2) 0.4227(2)
H56 H 0.1210 0.7070 0.4211
C76 C 0.3080(4) 0.6812(2) 0.46731(19)
C77 C 0.4265(4) 0.6304(2) 0.46769(19)
H57 H 0.5000 0.6348 0.4976
C78 C 0.4400(4) 0.5738(2) 0.4256(2)
H58 H 0.5226 0.5403 0.4270
C79 C 0.3007(5) 0.7427(2) 0.5120(2)
H59 H 0.3833 0.7482 0.5354
C80 C 0.1912(5) 0.7894(2) 0.5219(3)
H60 H 0.1091 0.7827 0.4988
C81 C 0.1795(5) 0.8514(3) 0.5647(3)
C82 C 0.0546(5) 0.8966(3) 0.5647(4)
H61 H -0.0200 0.8860 0.5381
C83 C 0.0357(5) 0.9564(4) 0.6019(4)
H62 H -0.0513 0.9866 0.6017
C84 C 0.1437(5) 0.9716(3) 0.6393(3)
C85 C 0.2713(5) 0.9304(2) 0.6403(2)
H63 H 0.3461 0.9435 0.6654
C86 C 0.2893(5) 0.8686(2) 0.6035(2)
H64 H 0.3759 0.8382 0.6047
N2 N 0.1223(5) 1.0376(3) 0.6745(3)
O3 O 0.2256(4) 1.06778(18) 0.68814(17)
O4 O -0.0008(6) 1.0387(4) 0.7162(4)
C43? C 0.2550(11) 1.2671(10) 0.4813(6)
H32? H 0.2517 1.3078 0.4414
C44? C 0.2322(11) 1.2780(9) 0.5501(8)
H33? H 0.2381 1.2376 0.5901
O5? O 0.0192(9) 1.0926(5) 0.6488(5)
loop_
_geom_bond_atom_site_label_1
_geom_bond_atom_site_label_2
_geom_bond_site_symmetry_1
_geom_bond_site_symmetry_2
C1 H1 1_555 1_555
C2 C1 1_555 1_555
H2 C2 1_555 1_555
C3 C2 1_555 1_555
H3 C3 1_555 1_555
C4 C3 1_555 1_555
H4 C4 1_555 1_555
C5 C4 1_555 1_555
H5 C5 1_555 1_555
C6 C1 1_555 1_555
C7 C6 1_555 1_555
C8 C7 1_555 1_555
C9 C8 1_555 1_555
H6 C9 1_555 1_555
C10 C9 1_555 1_555
H7 C10 1_555 1_555
C11 C10 1_555 1_555
H8 C11 1_555 1_555
C12 C11 1_555 1_555
H9 C12 1_555 1_555
C13 C8 1_555 1_555
H10 C13 1_555 1_555
C14 H11 1_555 1_555
C15 C14 1_555 1_555
H12 C15 1_555 1_555
C16 C15 1_555 1_555
H13 C16 1_555 1_555
C17 C16 1_555 1_555
H14 C17 1_555 1_555
C18 C17 1_555 1_555
H15 C18 1_555 1_555
C19 C14 1_555 1_555
C20 C7 1_555 1_555
C21 C20 1_555 1_555
C22 C21 1_555 1_555
H16 C22 1_555 1_555
C23 C22 1_555 1_555
H17 C23 1_555 1_555
C24 C23 1_555 1_555
C25 C24 1_555 1_555
H18 C25 1_555 1_555
C26 C21 1_555 1_555
H19 C26 1_555 1_555
C27 C24 1_555 1_555
H20 C27 1_555 1_555
C28 C27 1_555 1_555
H21 C28 1_555 1_555
C29 C28 1_555 1_555
C30 C29 1_555 1_555
H22 C30 1_555 1_555
C31 C30 1_555 1_555
H23 C31 1_555 1_555
C32 C31 1_555 1_555
C33 C32 1_555 1_555
H24 C33 1_555 1_555
C34 C29 1_555 1_555
H25 C34 1_555 1_555
C35 C32 1_555 1_555
H26 C35 1_555 1_555
C36 C35 1_555 1_555
H27 C36 1_555 1_555
C37 C36 1_555 1_555
C38 C37 1_555 1_555
H28 C38 1_555 1_555
C39 C38 1_555 1_555
H29 C39 1_555 1_555
C40 C39 1_555 1_555
C41 C40 1_555 1_555
H30 C41 1_555 1_555
C42 C37 1_555 1_555
H31 C42 1_555 1_555
N1 C40 1_555 1_555
O1 N1 1_555 1_555
O2 N1 1_555 1_555
C45 H34 1_555 1_555
C46 C45 1_555 1_555
H35 C46 1_555 1_555
C47 C46 1_555 1_555
H36 C47 1_555 1_555
C48 C47 1_555 1_555
H37 C48 1_555 1_555
C49 C48 1_555 1_555
H38 C49 1_555 1_555
C50 C45 1_555 1_555
C51 C50 1_555 1_555
C52 C51 1_555 1_555
C53 C52 1_555 1_555
C54 C53 1_555 1_555
H39 C54 1_555 1_555
C55 C54 1_555 1_555
H40 C55 1_555 1_555
C56 C55 1_555 1_555
H41 C56 1_555 1_555
C57 C56 1_555 1_555
H42 C57 1_555 1_555
C58 C53 1_555 1_555
H43 C58 1_555 1_555
C59 H44 1_555 1_555
C60 C59 1_555 1_555
H45 C60 1_555 1_555
C61 C60 1_555 1_555
H46 C61 1_555 1_555
C62 C61 1_555 1_555
H47 C62 1_555 1_555
C63 C62 1_555 1_555
H48 C63 1_555 1_555
C64 C52 1_555 1_555
C65 C51 1_555 1_555
C66 C65 1_555 1_555
H49 C66 1_555 1_555
C67 C66 1_555 1_555
H50 C67 1_555 1_555
C68 C67 1_555 1_555
C69 C68 1_555 1_555
H51 C69 1_555 1_555
C70 C65 1_555 1_555
H52 C70 1_555 1_555
C71 C68 1_555 1_555
H53 C71 1_555 1_555
C72 C71 1_555 1_555
H54 C72 1_555 1_555
C73 C72 1_555 1_555
C74 C73 1_555 1_555
H55 C74 1_555 1_555
C75 C74 1_555 1_555
H56 C75 1_555 1_555
C76 C75 1_555 1_555
C77 C76 1_555 1_555
H57 C77 1_555 1_555
C78 C73 1_555 1_555
H58 C78 1_555 1_555
C79 C76 1_555 1_555
H59 C79 1_555 1_555
C80 C79 1_555 1_555
H60 C80 1_555 1_555
C81 C80 1_555 1_555
C82 C81 1_555 1_555
H61 C82 1_555 1_555
C83 C82 1_555 1_555
H62 C83 1_555 1_555
C84 C83 1_555 1_555
C85 C84 1_555 1_555
H63 C85 1_555 1_555
C86 C81 1_555 1_555
H64 C86 1_555 1_555
N2 C84 1_555 1_555
O3 N2 1_555 1_555
O4 N2 1_555 1_555
C5 C6 1_555 1_555
C12 C13 1_555 1_555
C18 C19 1_555 1_555
C19 C20 1_555 1_555
C25 C26 1_555 1_555
C33 C34 1_555 1_555
C41 C42 1_555 1_555
C49 C50 1_555 1_555
C57 C58 1_555 1_555
C59 C64 1_555 1_555
C63 C64 1_555 1_555
C69 C70 1_555 1_555
C77 C78 1_555 1_555
C85 C86 1_555 1_555

#END
