
#######################################################################
#
#                 Cambridge Crystallographic Data Centre
#                                CCDC 
#
#######################################################################
#
# If this CIF has been generated from an entry in the Cambridge 
# Structural Database, then it will include bibliographic, chemical, 
# crystal, experimental, refinement or atomic coordinate data resulting 
# from the CCDC's data processing and validation procedures.
#
#######################################################################

data_DUWXOK
_chemical_formula_moiety         'C34 H25 N1 O2'
_chemical_name_systematic        
1-Nitro-4-(2-(4-(triphenylvinyl)phenyl)vinyl)benzene
_symmetry_cell_setting           monoclinic
_symmetry_space_group_name_H-M   'P 21'
_symmetry_Int_Tables_number      4
_space_group_name_Hall           'P 2yb'
loop_
_symmetry_equiv_pos_site_id
_symmetry_equiv_pos_as_xyz
1 x,y,z
2 -x,1/2+y,-z
_cell_length_a                   10.202(5)
_cell_length_b                   18.970(7)
_cell_length_c                   13.263(5)
_cell_angle_alpha                90
_cell_angle_beta                 98.310(15)
_cell_angle_gamma                90
_cell_volume                     2539.86
_exptl_crystal_colour            yellow
_exptl_crystal_description       block
_cell_formula_units_Z            4
loop_
_atom_site_label
_atom_site_type_symbol
_atom_site_fract_x
_atom_site_fract_y
_atom_site_fract_z
C1 C 0.9071(3) -0.34450(16) 0.2590(2)
C2 C 0.9503(3) -0.29641(17) 0.3340(2)
H1 H 0.9927 -0.3116 0.3989
C3 C 0.9307(3) -0.22534(18) 0.3132(2)
H2 H 0.9580 -0.1916 0.3650
C4 C 0.8713(3) -0.20241(16) 0.2173(2)
C5 C 0.8299(4) -0.25252(16) 0.1438(2)
H3 H 0.7892 -0.2374 0.0785
C6 C 0.8459(4) -0.32400(17) 0.1626(2)
H4 H 0.8163 -0.3579 0.1116
C7 C 0.8604(3) -0.12537(16) 0.1968(2)
H5 H 0.8496 -0.0949 0.2519
C8 C 0.8649(3) -0.09673(16) 0.1064(2)
H6 H 0.8734 -0.1285 0.0523
C9 C 0.8582(3) -0.02110(15) 0.0800(2)
C10 C 0.8316(3) 0.03134(15) 0.1466(2)
H7 H 0.8222 0.0195 0.2148
C11 C 0.8185(3) 0.10097(15) 0.1150(2)
H8 H 0.8036 0.1364 0.1627
C12 C 0.8268(3) 0.12026(15) 0.0143(2)
C13 C 0.8616(3) 0.06764(15) -0.0505(2)
H9 H 0.8748 0.0795 -0.1179
C14 C 0.8770(3) -0.00129(15) -0.0182(2)
H10 H 0.9009 -0.0361 -0.0637
C15 C 0.7977(3) 0.19389(14) -0.02235(19)
C16 C 0.8631(3) 0.25125(14) 0.04427(19)
C17 C 0.9968(3) 0.24617(16) 0.0829(2)
H11 H 1.0457 0.2059 0.0676
C18 C 1.0600(3) 0.29951(17) 0.1438(2)
H12 H 1.1520 0.2960 0.1683
C19 C 0.9897(4) 0.35728(16) 0.1686(2)
H13 H 1.0327 0.3931 0.2113
C20 C 0.8551(4) 0.36334(16) 0.1311(2)
H14 H 0.8064 0.4034 0.1473
C21 C 0.7932(3) 0.31014(16) 0.0699(2)
H15 H 0.7014 0.3140 0.0449
C22 C 0.7164(3) 0.20731(15) -0.1108(2)
C23 C 0.6963(3) 0.27877(15) -0.15581(19)
C24 C 0.8032(3) 0.32149(15) -0.1689(2)
H16 H 0.8909 0.3047 -0.1487
C25 C 0.7837(3) 0.38852(16) -0.2112(2)
H17 H 0.8575 0.4171 -0.2203
C26 C 0.6571(3) 0.41310(16) -0.2396(2)
H18 H 0.6434 0.4592 -0.2672
C27 C 0.5501(4) 0.37131(17) -0.2281(2)
H19 H 0.4629 0.3888 -0.2478
C28 C 0.5682(3) 0.30413(16) -0.1883(2)
H20 H 0.4936 0.2751 -0.1830
C29 C 0.6391(3) 0.15029(14) -0.1723(2)
C30 C 0.6668(4) 0.13552(16) -0.2702(2)
H21 H 0.7348 0.1604 -0.2971
C31 C 0.5935(4) 0.08403(18) -0.3279(2)
H22 H 0.6141 0.0727 -0.3936
C32 C 0.4921(4) 0.04935(18) -0.2918(3)
H23 H 0.4425 0.0147 -0.3326
C33 C 0.4623(4) 0.06485(17) -0.1964(3)
H24 H 0.3915 0.0413 -0.1713
C34 C 0.5366(3) 0.11546(16) -0.1366(2)
H25 H 0.5162 0.1260 -0.0706
N1 N 0.9241(3) -0.41932(15) 0.2812(2)
O1 O 0.8909(3) -0.46240(13) 0.2134(2)
O2 O 0.9713(4) -0.43698(15) 0.3678(2)
C35 C 0.8216(3) -0.36514(16) 0.5658(2)
C36 C 0.8930(4) -0.30983(19) 0.6140(2)
H26 H 0.9664 -0.3176 0.6656
C37 C 0.8515(4) -0.24132(19) 0.5830(3)
H27 H 0.8980 -0.2017 0.6141
C38 C 0.7443(4) -0.23080(19) 0.5081(3)
C39 C 0.6790(4) -0.2874(2) 0.4623(3)
H28 H 0.6067 -0.2803 0.4096
C40 C 0.7165(4) -0.35431(19) 0.4914(3)
H29 H 0.6692 -0.3935 0.4597
C41 C 0.6901(4) -0.1597(2) 0.4736(3)
H30 H 0.6034 -0.1584 0.4362
C42 C 0.7500(5) -0.1014(2) 0.4902(3)
H31 H 0.8352 -0.1029 0.5301
C43 C 0.7002(4) -0.03074(18) 0.4532(2)
C44 C 0.7923(4) 0.02036(19) 0.4420(2)
H32 H 0.8837 0.0107 0.4619
C45 C 0.7536(4) 0.08597(18) 0.4020(2)
H33 H 0.8189 0.1207 0.3950
C46 C 0.6201(3) 0.10156(15) 0.3718(2)
C47 C 0.5266(4) 0.05121(16) 0.3871(2)
H34 H 0.4350 0.0617 0.3699
C48 C 0.5650(4) -0.01448(17) 0.4275(2)
H35 H 0.4998 -0.0485 0.4377
C49 C 0.5835(3) 0.17279(15) 0.32893(19)
C50 C 0.6594(3) 0.23192(15) 0.3846(2)
C51 C 0.6588(3) 0.23838(16) 0.4904(2)
H36 H 0.6157 0.2036 0.5253
C52 C 0.7204(4) 0.29483(17) 0.5440(2)
H37 H 0.7172 0.2992 0.6150
C53 C 0.7861(4) 0.34462(17) 0.4948(2)
H38 H 0.8279 0.3834 0.5318
C54 C 0.7911(4) 0.33819(18) 0.3913(2)
H39 H 0.8373 0.3722 0.3573
C55 C 0.7282(3) 0.28165(17) 0.3374(2)
H40 H 0.7328 0.2773 0.2666
C56 C 0.4889(3) 0.18478(14) 0.2477(2)
C57 C 0.4511(3) 0.25755(14) 0.2109(2)
C58 C 0.4188(3) 0.30965(16) 0.2764(2)
H41 H 0.4176 0.2990 0.3462
C59 C 0.3883(3) 0.37733(16) 0.2404(3)
H42 H 0.3665 0.4125 0.2862
C60 C 0.3890(4) 0.39411(17) 0.1399(3)
H43 H 0.3701 0.4408 0.1164
C61 C 0.4180(3) 0.34156(18) 0.0727(2)
H44 H 0.4172 0.3522 0.0026
C62 C 0.4480(3) 0.27378(16) 0.1085(2)
H45 H 0.4666 0.2381 0.0624
C63 C 0.4145(3) 0.12712(15) 0.1843(2)
C64 C 0.2776(3) 0.12694(16) 0.1706(2)
H46 H 0.2320 0.1611 0.2048
C65 C 0.2052(3) 0.07763(16) 0.1075(2)
H47 H 0.1112 0.0772 0.1008
C66 C 0.2704(3) 0.02962(17) 0.0549(2)
H48 H 0.2217 -0.0028 0.0095
C67 C 0.4059(4) 0.02885(17) 0.0684(2)
H49 H 0.4508 -0.0050 0.0332
C68 C 0.4795(3) 0.07723(16) 0.1334(2)
H50 H 0.5735 0.0759 0.1425
N2 N 0.8573(3) -0.43686(15) 0.5994(2)
O3 O 0.7907(4) -0.48499(15) 0.5585(3)
O4 O 0.9499(3) -0.44583(16) 0.6669(2)
loop_
_geom_bond_atom_site_label_1
_geom_bond_atom_site_label_2
_geom_bond_site_symmetry_1
_geom_bond_site_symmetry_2
C1 C2 1_555 1_555
C2 H1 1_555 1_555
C3 C2 1_555 1_555
H2 C3 1_555 1_555
C4 C3 1_555 1_555
C5 C4 1_555 1_555
H3 C5 1_555 1_555
C6 C1 1_555 1_555
H4 C6 1_555 1_555
C7 C4 1_555 1_555
H5 C7 1_555 1_555
C8 C7 1_555 1_555
H6 C8 1_555 1_555
C9 C8 1_555 1_555
C10 C9 1_555 1_555
H7 C10 1_555 1_555
C11 C10 1_555 1_555
H8 C11 1_555 1_555
C12 C11 1_555 1_555
C13 C12 1_555 1_555
H9 C13 1_555 1_555
C14 C9 1_555 1_555
H10 C14 1_555 1_555
C15 C12 1_555 1_555
C16 C15 1_555 1_555
C17 C16 1_555 1_555
H11 C17 1_555 1_555
C18 C17 1_555 1_555
H12 C18 1_555 1_555
C19 C18 1_555 1_555
H13 C19 1_555 1_555
C20 C19 1_555 1_555
H14 C20 1_555 1_555
C21 C16 1_555 1_555
H15 C21 1_555 1_555
C22 C15 1_555 1_555
C23 C22 1_555 1_555
C24 C23 1_555 1_555
H16 C24 1_555 1_555
C25 C24 1_555 1_555
H17 C25 1_555 1_555
C26 C25 1_555 1_555
H18 C26 1_555 1_555
C27 C26 1_555 1_555
H19 C27 1_555 1_555
C28 C23 1_555 1_555
H20 C28 1_555 1_555
C29 C22 1_555 1_555
C30 C29 1_555 1_555
H21 C30 1_555 1_555
C31 C30 1_555 1_555
H22 C31 1_555 1_555
C32 C31 1_555 1_555
H23 C32 1_555 1_555
C33 C32 1_555 1_555
H24 C33 1_555 1_555
C34 C29 1_555 1_555
H25 C34 1_555 1_555
N1 C1 1_555 1_555
O1 N1 1_555 1_555
O2 N1 1_555 1_555
C35 C36 1_555 1_555
C36 H26 1_555 1_555
C37 C36 1_555 1_555
H27 C37 1_555 1_555
C38 C37 1_555 1_555
C39 C38 1_555 1_555
H28 C39 1_555 1_555
C40 C35 1_555 1_555
H29 C40 1_555 1_555
C41 C38 1_555 1_555
H30 C41 1_555 1_555
C42 C41 1_555 1_555
H31 C42 1_555 1_555
C43 C42 1_555 1_555
C44 C43 1_555 1_555
H32 C44 1_555 1_555
C45 C44 1_555 1_555
H33 C45 1_555 1_555
C46 C45 1_555 1_555
C47 C46 1_555 1_555
H34 C47 1_555 1_555
C48 C43 1_555 1_555
H35 C48 1_555 1_555
C49 C46 1_555 1_555
C50 C49 1_555 1_555
C51 C50 1_555 1_555
H36 C51 1_555 1_555
C52 C51 1_555 1_555
H37 C52 1_555 1_555
C53 C52 1_555 1_555
H38 C53 1_555 1_555
C54 C53 1_555 1_555
H39 C54 1_555 1_555
C55 C50 1_555 1_555
H40 C55 1_555 1_555
C56 C49 1_555 1_555
C57 C56 1_555 1_555
C58 C57 1_555 1_555
H41 C58 1_555 1_555
C59 C58 1_555 1_555
H42 C59 1_555 1_555
C60 C59 1_555 1_555
H43 C60 1_555 1_555
C61 C60 1_555 1_555
H44 C61 1_555 1_555
C62 C57 1_555 1_555
H45 C62 1_555 1_555
C63 C56 1_555 1_555
C64 C63 1_555 1_555
H46 C64 1_555 1_555
C65 C64 1_555 1_555
H47 C65 1_555 1_555
C66 C65 1_555 1_555
H48 C66 1_555 1_555
C67 C66 1_555 1_555
H49 C67 1_555 1_555
C68 C63 1_555 1_555
H50 C68 1_555 1_555
N2 C35 1_555 1_555
O3 N2 1_555 1_555
O4 N2 1_555 1_555
C5 C6 1_555 1_555
C13 C14 1_555 1_555
C20 C21 1_555 1_555
C27 C28 1_555 1_555
C33 C34 1_555 1_555
C39 C40 1_555 1_555
C47 C48 1_555 1_555
C54 C55 1_555 1_555
C61 C62 1_555 1_555
C67 C68 1_555 1_555

#END
