
#######################################################################
#
#                 Cambridge Crystallographic Data Centre
#                                CCDC 
#
#######################################################################
#
# If this CIF has been generated from an entry in the Cambridge 
# Structural Database, then it will include bibliographic, chemical, 
# crystal, experimental, refinement or atomic coordinate data resulting 
# from the CCDC's data processing and validation procedures.
#
#######################################################################

data_DUXDUX
_chemical_name_common            
'ethyl 3-((4-bromophenyl)amino)-2-cyanoacrylate'
_chemical_formula_moiety         'C12 H11 Br1 N2 O2'
_chemical_name_systematic        
'ethyl (2Z)-3-[(4-bromophenyl)amino]-2-cyanoprop-2-enoate'
_symmetry_cell_setting           triclinic
_symmetry_space_group_name_H-M   'P -1'
_symmetry_Int_Tables_number      2
_space_group_name_Hall           '-P 1'
loop_
_symmetry_equiv_pos_site_id
_symmetry_equiv_pos_as_xyz
1 x,y,z
2 -x,-y,-z
_cell_length_a                   7.4955(11)
_cell_length_b                   7.5254(11)
_cell_length_c                   12.0645(17)
_cell_angle_alpha                80.285(2)
_cell_angle_beta                 86.767(2)
_cell_angle_gamma                67.729(2)
_cell_volume                     620.7
_exptl_crystal_colour            red
_exptl_crystal_description       prism
_cell_formula_units_Z            2
loop_
_atom_site_label
_atom_site_type_symbol
_atom_site_fract_x
_atom_site_fract_y
_atom_site_fract_z
Br1 Br 0.28275(4) 0.94521(5) 0.33976(2)
N1 N 0.4610(3) 0.4644(3) 0.80486(19)
H1 H 0.5817 0.3969 0.8172
N2 N 0.1416(4) 0.3400(5) 1.1386(2)
O1 O 0.7296(3) 0.1941(3) 0.94511(18)
O2 O 0.6297(3) 0.0925(3) 1.11408(16)
C1 C 0.3327(4) 0.7971(4) 0.4859(2)
C2 C 0.5159(4) 0.7329(4) 0.5315(2)
H2 H 0.6126 0.7629 0.4907
C3 C 0.5542(4) 0.6248(4) 0.6369(2)
H3 H 0.6776 0.5806 0.6674
C4 C 0.4111(4) 0.5813(4) 0.6980(2)
C5 C 0.2270(4) 0.6472(4) 0.6529(2)
H4 H 0.1297 0.6190 0.6941
C6 C 0.1888(4) 0.7554(4) 0.5460(2)
H5 H 0.0658 0.7996 0.5150
C7 C 0.3436(4) 0.4470(4) 0.8877(2)
H6 H 0.2131 0.5228 0.8774
C8 C 0.4005(4) 0.3247(4) 0.9880(2)
C9 C 0.2581(4) 0.3301(4) 1.0724(2)
C10 C 0.6011(4) 0.1986(4) 1.0119(2)
C11 C 0.8283(4) -0.0327(5) 1.1434(3)
H7 H 0.9067 0.0447 1.1425
H8 H 0.8809 -0.1220 1.0899
C12 C 0.8271(5) -0.1419(5) 1.2579(3)
H9 H 0.7829 -0.0525 1.3108
H10 H 0.9553 -0.2326 1.2782
H11 H 0.7425 -0.2111 1.2588
loop_
_geom_bond_atom_site_label_1
_geom_bond_atom_site_label_2
_geom_bond_site_symmetry_1
_geom_bond_site_symmetry_2
Br1 C1 1_555 1_555
N1 H1 1_555 1_555
N2 C9 1_555 1_555
O1 C10 1_555 1_555
O2 C10 1_555 1_555
C1 C2 1_555 1_555
C2 H2 1_555 1_555
C3 C2 1_555 1_555
H3 C3 1_555 1_555
C4 N1 1_555 1_555
C5 C4 1_555 1_555
H4 C5 1_555 1_555
C6 C1 1_555 1_555
H5 C6 1_555 1_555
C7 N1 1_555 1_555
H6 C7 1_555 1_555
C8 C7 1_555 1_555
C9 C8 1_555 1_555
C10 C8 1_555 1_555
C11 O2 1_555 1_555
H7 C11 1_555 1_555
H8 C11 1_555 1_555
C12 C11 1_555 1_555
H9 C12 1_555 1_555
H10 C12 1_555 1_555
H11 C12 1_555 1_555
C3 C4 1_555 1_555
C5 C6 1_555 1_555

#END
