
#######################################################################
#
#                 Cambridge Crystallographic Data Centre
#                                CCDC 
#
#######################################################################
#
# If this CIF has been generated from an entry in the Cambridge 
# Structural Database, then it will include bibliographic, chemical, 
# crystal, experimental, refinement or atomic coordinate data resulting 
# from the CCDC's data processing and validation procedures.
#
#######################################################################

data_DUXRUL
_chemical_formula_moiety         'C22 H10 F8'
_chemical_name_systematic        
11,11,12,12,13,13,14,14-octafluoro-11,12,13,14-tetrahydrobenzo[g]chrysene
_symmetry_cell_setting           triclinic
_symmetry_space_group_name_H-M   'P -1'
_symmetry_Int_Tables_number      2
_space_group_name_Hall           '-P 1'
loop_
_symmetry_equiv_pos_site_id
_symmetry_equiv_pos_as_xyz
1 x,y,z
2 -x,-y,-z
_cell_length_a                   11.5700(4)
_cell_length_b                   12.5953(5)
_cell_length_c                   13.6440(5)
_cell_angle_alpha                66.2175(8)
_cell_angle_beta                 69.3626(7)
_cell_angle_gamma                77.8561(7)
_cell_volume                     1697.3
_exptl_crystal_colour            'light colorless'
_exptl_crystal_description       needle
_cell_formula_units_Z            4
loop_
_atom_site_label
_atom_site_type_symbol
_atom_site_fract_x
_atom_site_fract_y
_atom_site_fract_z
C1 C 0.45326(13) 0.63723(13) 0.38622(11)
C2 C 0.70120(13) 0.55752(13) 0.31279(12)
C3 C 0.54781(14) 0.67289(13) 0.40576(12)
H1 H 0.5272 0.7277 0.4421
C4 C 0.61060(13) 0.51671(13) 0.29414(12)
C5 C 0.66820(13) 0.63087(14) 0.37396(12)
H2 H 0.7293 0.6514 0.3934
C6 C 0.38768(14) 0.38063(14) 0.34646(12)
H3 H 0.4666 0.3383 0.3388
C7 C 0.30071(15) 0.78974(14) 0.44659(13)
H4 H 0.3639 0.8139 0.4606
C8 C 0.11565(14) 0.72125(15) 0.40624(13)
H5 H 0.0517 0.6988 0.3918
C9 C 0.15609(14) 0.49777(15) 0.37531(14)
H6 H 0.0758 0.5376 0.3857
C10 C 0.28797(15) 0.32925(15) 0.35637(13)
H7 H 0.2987 0.2527 0.3555
C11 C 0.18531(15) 0.84871(15) 0.46143(14)
H8 H 0.1689 0.9124 0.4862
C12 C 0.17138(15) 0.38994(15) 0.36774(14)
H9 H 0.1032 0.3571 0.3702
C13 C 0.09230(15) 0.81430(15) 0.43985(14)
H10 H 0.0128 0.8556 0.4486
C14 C 0.48151(13) 0.54866(13) 0.34036(11)
C15 C 0.37623(13) 0.49398(13) 0.34732(12)
C16 C 0.32753(13) 0.69417(13) 0.41098(12)
C17 C 0.25568(13) 0.55120(14) 0.36819(12)
C18 C 0.23264(13) 0.65789(14) 0.39248(12)
C19 C 0.65571(13) 0.44558(13) 0.21898(12)
C20 C 0.88035(14) 0.45123(14) 0.20082(13)
C21 C 0.83935(13) 0.53390(14) 0.26620(13)
C22 C 0.78787(14) 0.46744(14) 0.13833(13)
F1 F 0.58288(8) 0.46821(8) 0.15193(7)
F2 F 0.65877(8) 0.32846(8) 0.27862(8)
F3 F 0.78894(8) 0.57753(8) 0.06309(7)
F4 F 0.82240(9) 0.39443(9) 0.08106(8)
F5 F 0.89161(8) 0.63602(8) 0.19623(8)
F6 F 0.88446(9) 0.34030(8) 0.27305(8)
F7 F 0.89207(8) 0.49046(9) 0.35096(8)
F8 F 0.99485(8) 0.47054(9) 0.12816(8)
C23 C 0.54813(13) 1.05790(13) 0.27768(12)
C24 C 0.48097(13) 0.96718(13) 0.16705(11)
C25 C 0.64064(13) 1.02447(13) 0.34588(12)
C26 C 0.51114(13) 0.87834(13) 0.12171(11)
C27 C 0.69603(13) 0.94151(13) 0.17003(12)
C28 C 0.35677(13) 1.02977(13) 0.17471(11)
C29 C 0.77439(13) 1.03464(14) 0.26993(12)
C30 C 0.57515(13) 0.99075(13) 0.20071(11)
C31 C 0.41493(14) 0.83120(13) 0.10683(12)
C32 C 0.80305(13) 0.95588(13) 0.20186(12)
C33 C 0.63496(14) 0.83295(13) 0.09093(12)
H11 H 0.6553 0.7770 0.0559
C34 C 0.26325(13) 0.98193(14) 0.16386(12)
C35 C 0.29142(13) 0.87877(14) 0.13334(12)
C36 C 0.72661(13) 0.86748(13) 0.11024(12)
H12 H 0.8106 0.8411 0.0830
C37 C 0.44214(15) 0.73590(14) 0.07108(13)
H13 H 0.5252 0.7031 0.0532
C38 C 0.32940(14) 1.14141(14) 0.18161(12)
H14 H 0.3930 1.1780 0.1821
C39 C 0.14455(14) 1.04199(15) 0.17375(14)
H15 H 0.0802 1.0082 0.1711
C40 C 0.11915(15) 1.14731(16) 0.18699(15)
H16 H 0.0377 1.1847 0.1957
C41 C 0.21362(15) 1.19926(15) 0.18764(14)
H17 H 0.1982 1.2745 0.1922
C42 C 0.19970(15) 0.82855(15) 0.12367(13)
H18 H 0.1159 0.8594 0.1423
C43 C 0.35112(16) 0.68929(15) 0.06142(14)
H19 H 0.3717 0.6253 0.0367
C44 C 0.22884(16) 0.73590(15) 0.08790(14)
H20 H 0.1658 0.7039 0.0813
F9 F 0.43463(7) 1.03950(8) 0.35566(7)
F10 F 0.61402(8) 1.09344(8) 0.40616(7)
F11 F 0.62884(8) 0.91317(8) 0.41790(7)
F12 F 0.55169(8) 1.17572(7) 0.22235(7)
F13 F 0.85125(8) 1.00389(9) 0.33408(8)
F14 F 0.79162(8) 1.14523(8) 0.20020(8)
F15 F 0.89963(8) 0.99710(9) 0.10784(8)
F16 F 0.84715(8) 0.84913(8) 0.26317(8)
loop_
_geom_bond_atom_site_label_1
_geom_bond_atom_site_label_2
_geom_bond_site_symmetry_1
_geom_bond_site_symmetry_2
C1 C3 1_555 1_555
C2 C4 1_555 1_555
C3 H1 1_555 1_555
C4 C14 1_555 1_555
C5 C2 1_555 1_555
H2 C5 1_555 1_555
C6 H3 1_555 1_555
C7 H4 1_555 1_555
C8 H5 1_555 1_555
C9 H6 1_555 1_555
C10 C6 1_555 1_555
H7 C10 1_555 1_555
C11 C7 1_555 1_555
H8 C11 1_555 1_555
C12 C9 1_555 1_555
H9 C12 1_555 1_555
C13 C8 1_555 1_555
H10 C13 1_555 1_555
C14 C1 1_555 1_555
C15 C6 1_555 1_555
C16 C1 1_555 1_555
C17 C9 1_555 1_555
C18 C8 1_555 1_555
C19 C4 1_555 1_555
C20 C21 1_555 1_555
C21 C2 1_555 1_555
C22 C19 1_555 1_555
F1 C19 1_555 1_555
F2 C19 1_555 1_555
F3 C22 1_555 1_555
F4 C22 1_555 1_555
F5 C21 1_555 1_555
F6 C20 1_555 1_555
F7 C21 1_555 1_555
F8 C20 1_555 1_555
C23 C25 1_555 1_555
C24 C26 1_555 1_555
C25 C29 1_555 1_555
C26 C31 1_555 1_555
C27 C30 1_555 1_555
C28 C24 1_555 1_555
C29 C32 1_555 1_555
C30 C23 1_555 1_555
C31 C35 1_555 1_555
C32 C27 1_555 1_555
C33 C26 1_555 1_555
H11 C33 1_555 1_555
C34 C28 1_555 1_555
C35 C34 1_555 1_555
C36 C27 1_555 1_555
H12 C36 1_555 1_555
C37 C31 1_555 1_555
H13 C37 1_555 1_555
C38 C28 1_555 1_555
H14 C38 1_555 1_555
C39 C34 1_555 1_555
H15 C39 1_555 1_555
C40 C39 1_555 1_555
H16 C40 1_555 1_555
C41 C38 1_555 1_555
H17 C41 1_555 1_555
C42 C35 1_555 1_555
H18 C42 1_555 1_555
C43 C37 1_555 1_555
H19 C43 1_555 1_555
C44 C42 1_555 1_555
H20 C44 1_555 1_555
F9 C23 1_555 1_555
F10 C25 1_555 1_555
F11 C25 1_555 1_555
F12 C23 1_555 1_555
F13 C29 1_555 1_555
F14 C29 1_555 1_555
F15 C32 1_555 1_555
F16 C32 1_555 1_555
C3 C5 1_555 1_555
C7 C16 1_555 1_555
C10 C12 1_555 1_555
C11 C13 1_555 1_555
C14 C15 1_555 1_555
C15 C17 1_555 1_555
C16 C18 1_555 1_555
C17 C18 1_555 1_555
C20 C22 1_555 1_555
C24 C30 1_555 1_555
C33 C36 1_555 1_555
C40 C41 1_555 1_555
C43 C44 1_555 1_555

#END
