
#######################################################################
#
#                 Cambridge Crystallographic Data Centre
#                                CCDC 
#
#######################################################################
#
# If this CIF has been generated from an entry in the Cambridge 
# Structural Database, then it will include bibliographic, chemical, 
# crystal, experimental, refinement or atomic coordinate data resulting 
# from the CCDC's data processing and validation procedures.
#
#######################################################################

data_DUXSAS
_chemical_formula_moiety         'C22 H10 F4'
_chemical_name_systematic        10,11,12,13-tetrafluorobenzo[f]tetraphene
_symmetry_cell_setting           triclinic
_symmetry_space_group_name_H-M   'P -1'
_symmetry_Int_Tables_number      2
_space_group_name_Hall           '-P 1'
loop_
_symmetry_equiv_pos_site_id
_symmetry_equiv_pos_as_xyz
1 x,y,z
2 -x,-y,-z
_cell_length_a                   6.823(3)
_cell_length_b                   9.388(4)
_cell_length_c                   12.374(5)
_cell_angle_alpha                108.987(12)
_cell_angle_beta                 93.214(12)
_cell_angle_gamma                102.002(13)
_cell_volume                     726.513
_exptl_crystal_colour            colorless
_exptl_crystal_description       plate
_cell_formula_units_Z            2
_exptl_crystal_preparation       'as usual'
loop_
_atom_site_label
_atom_site_type_symbol
_atom_site_fract_x
_atom_site_fract_y
_atom_site_fract_z
F1 F 0.1125(2) -0.00377(18) 0.38799(12)
F2 F 0.1083(2) -0.07553(19) 0.15645(12)
F3 F 0.1829(2) 0.14940(19) 0.06239(11)
F4 F 0.2600(2) 0.45419(19) 0.19785(12)
C1 C 0.3478(4) 0.8692(3) 0.5897(2)
H1 H 0.3413 0.8446 0.5086
C2 C 0.3911(4) 1.0226(3) 0.6596(2)
H2 H 0.4153 1.1021 0.6269
C3 C 0.3995(4) 1.0608(4) 0.7793(2)
H3 H 0.4312 1.1663 0.8285
C4 C 0.3614(4) 0.9440(3) 0.8246(2)
H4 H 0.3643 0.9708 0.9057
C5 C 0.2860(4) 0.6977(4) 0.9270(2)
H5 H 0.3171 0.8032 0.9762
C6 C 0.2491(4) 0.5834(3) 0.9747(2)
H6 H 0.2557 0.6103 1.0560
C7 C 0.2024(4) 0.4290(4) 0.9048(2)
H7 H 0.1773 0.3500 0.9381
C8 C 0.1924(4) 0.3898(3) 0.7865(2)
H8 H 0.1579 0.2835 0.7390
C9 C 0.1872(4) 0.3086(3) 0.5366(2)
H9 H 0.1592 0.2293 0.5694
C10 C 0.1476(4) 0.1110(3) 0.3427(2)
C11 C 0.1465(4) 0.0742(3) 0.2266(2)
C12 C 0.1839(4) 0.1910(4) 0.1780(2)
C13 C 0.2226(4) 0.3423(4) 0.2456(2)
C14 C 0.2649(4) 0.5417(3) 0.4402(2)
H10 H 0.2899 0.6209 0.4072
C15 C 0.2685(4) 0.5839(3) 0.5591(2)
C16 C 0.3127(4) 0.7476(3) 0.6345(2)
C17 C 0.3184(4) 0.7862(3) 0.7558(2)
C18 C 0.2789(4) 0.6625(3) 0.8061(2)
C19 C 0.2324(4) 0.5050(3) 0.7353(2)
C20 C 0.2285(4) 0.4638(3) 0.6086(2)
C21 C 0.1862(4) 0.2672(3) 0.4166(2)
C22 C 0.2258(4) 0.3866(3) 0.3676(2)
loop_
_geom_bond_atom_site_label_1
_geom_bond_atom_site_label_2
_geom_bond_site_symmetry_1
_geom_bond_site_symmetry_2
F1 C10 1_555 1_555
F2 C11 1_555 1_555
F3 C12 1_555 1_555
F4 C13 1_555 1_555
C1 H1 1_555 1_555
C2 C1 1_555 1_555
H2 C2 1_555 1_555
C3 C2 1_555 1_555
H3 C3 1_555 1_555
C4 C3 1_555 1_555
H4 C4 1_555 1_555
C5 H5 1_555 1_555
C6 C5 1_555 1_555
H6 C6 1_555 1_555
C7 C6 1_555 1_555
H7 C7 1_555 1_555
C8 C7 1_555 1_555
H8 C8 1_555 1_555
C9 H9 1_555 1_555
C10 C11 1_555 1_555
C11 C12 1_555 1_555
C12 C13 1_555 1_555
C13 C22 1_555 1_555
C14 H10 1_555 1_555
C15 C14 1_555 1_555
C16 C1 1_555 1_555
C17 C4 1_555 1_555
C18 C5 1_555 1_555
C19 C8 1_555 1_555
C20 C9 1_555 1_555
C21 C9 1_555 1_555
C22 C14 1_555 1_555
C10 C21 1_555 1_555
C15 C16 1_555 1_555
C15 C20 1_555 1_555
C16 C17 1_555 1_555
C17 C18 1_555 1_555
C18 C19 1_555 1_555
C19 C20 1_555 1_555
C21 C22 1_555 1_555

#END
