
#######################################################################
#
#                 Cambridge Crystallographic Data Centre
#                                CCDC 
#
#######################################################################
#
# If this CIF has been generated from an entry in the Cambridge 
# Structural Database, then it will include bibliographic, chemical, 
# crystal, experimental, refinement or atomic coordinate data resulting 
# from the CCDC's data processing and validation procedures.
#
#######################################################################

data_DUXSEW
_chemical_formula_moiety         'C22 H10 F8'
_chemical_name_systematic        
10,10,11,11,12,12,13,13-octafluoro-10,11,12,13-tetrahydrobenzo[f]tetraphene
_symmetry_cell_setting           monoclinic
_symmetry_space_group_name_H-M   'C 2/c'
_symmetry_Int_Tables_number      15
_space_group_name_Hall           '-C 2yn'
loop_
_symmetry_equiv_pos_site_id
_symmetry_equiv_pos_as_xyz
1 x,y,z
2 -x,y,1/2-z
3 1/2+x,1/2+y,z
4 1/2-x,1/2+y,1/2-z
5 -x,-y,-z
6 x,-y,1/2+z
7 1/2-x,1/2-y,-z
8 1/2+x,1/2-y,1/2+z
_cell_length_a                   14.7137(9)
_cell_length_b                   16.5769(9)
_cell_length_c                   7.1777(4)
_cell_angle_alpha                90
_cell_angle_beta                 107.2763(16)
_cell_angle_gamma                90
_cell_volume                     1671.71
_exptl_crystal_colour            white
_exptl_crystal_description       rod
_cell_formula_units_Z            4
loop_
_atom_site_label
_atom_site_type_symbol
_atom_site_fract_x
_atom_site_fract_y
_atom_site_fract_z
C1 C 0.04597(8) 0.07962(7) 0.81882(17)
C2 C 0.09443(9) 0.00327(7) 0.88658(17)
C3 C 0.04495(8) 0.22652(7) 0.82040(18)
C4 C 0.18747(9) 0.00169(7) 1.01721(19)
H1 H 0.2185 0.0511 1.0641
C5 C 0.08910(9) 0.15404(7) 0.88679(18)
H2 H 0.1502 0.1545 0.9808
C6 C 0.04838(9) -0.07040(7) 0.81754(18)
C7 C 0.09818(10) -0.14300(8) 0.8813(2)
H3 H 0.0685 -0.1930 0.8348
C8 C 0.18906(10) -0.14272(8) 1.0096(2)
H4 H 0.2210 -0.1923 1.0515
C9 C 0.09724(10) 0.30309(8) 0.8954(2)
C10 C 0.23426(10) -0.06984(8) 1.0781(2)
H5 H 0.2969 -0.0697 1.1661
F1 F 0.14189(8) 0.29940(6) 1.08889(16)
C11 C 0.03425(13) 0.37839(10) 0.8547(3)
F2 F 0.16881(7) 0.31486(6) 0.81025(19)
F3 F -0.01817(8) 0.37843(7) 0.98003(18)
F4 F 0.08633(16) 0.44590(11) 0.8910(3)
C1A C -0.04597(8) 0.07962(7) 0.68118(17)
C2A C -0.09443(9) 0.00327(7) 0.61342(17)
C3A C -0.04495(8) 0.22652(7) 0.67960(18)
C4A C -0.18747(9) 0.00169(7) 0.48279(19)
H1A H -0.2185 0.0511 0.4359
C5A C -0.08910(9) 0.15404(7) 0.61321(18)
H2A H -0.1502 0.1545 0.5192
C6A C -0.04838(9) -0.07040(7) 0.68246(18)
C7A C -0.09818(10) -0.14300(8) 0.6187(2)
H3A H -0.0685 -0.1930 0.6652
C8A C -0.18906(10) -0.14272(8) 0.4904(2)
H4A H -0.2210 -0.1923 0.4485
C9A C -0.09724(10) 0.30309(8) 0.6046(2)
C10A C -0.23426(10) -0.06984(8) 0.4219(2)
H5A H -0.2969 -0.0697 0.3339
F1A F -0.14189(8) 0.29940(6) 0.41111(16)
C11A C -0.03425(13) 0.37839(10) 0.6453(3)
F2A F -0.16881(7) 0.31486(6) 0.68975(19)
F3A F 0.01817(8) 0.37843(7) 0.51997(18)
F4A F -0.08633(16) 0.44590(11) 0.6090(3)
F5? F 0.0944(9) 0.3871(7) 0.6514(19)
F6? F 0.0949(18) 0.4457(12) 0.824(3)
C12? C 0.0452(14) 0.3780(10) 0.783(3)
F7? F 0.0749(11) 0.3174(7) 1.0836(16)
F8? F 0.1889(7) 0.3062(6) 0.963(2)
loop_
_geom_bond_atom_site_label_1
_geom_bond_atom_site_label_2
_geom_bond_site_symmetry_1
_geom_bond_site_symmetry_2
C1 C2 1_555 1_555
C2 C4 1_555 1_555
C3 C5 1_555 1_555
C4 H1 1_555 1_555
C5 C1 1_555 1_555
H2 C5 1_555 1_555
C6 C2 1_555 1_555
C7 C6 1_555 1_555
H3 C7 1_555 1_555
C8 C7 1_555 1_555
H4 C8 1_555 1_555
C9 C3 1_555 1_555
C10 C4 1_555 1_555
H5 C10 1_555 1_555
F1 C9 1_555 1_555
C11 C9 1_555 1_555
F2 C9 1_555 1_555
F3 C11 1_555 1_555
F4 C11 1_555 1_555
C1A C1 1_555 1_555
C2A C1A 1_555 1_555
C3A C3 1_555 1_555
C4A C2A 1_555 1_555
H1A C4A 1_555 1_555
C5A C1A 1_555 1_555
H2A C5A 1_555 1_555
C6A C6 1_555 1_555
C7A C6A 1_555 1_555
H3A C7A 1_555 1_555
C8A C7A 1_555 1_555
H4A C8A 1_555 1_555
C9A C3A 1_555 1_555
C10A C4A 1_555 1_555
H5A C10A 1_555 1_555
F1A C9A 1_555 1_555
C11A C11 1_555 1_555
F2A C9A 1_555 1_555
F3A C11A 1_555 1_555
F4A C11A 1_555 1_555
C8 C10 1_555 1_555
C2A C6A 1_555 1_555
C3A C5A 1_555 1_555
C8A C10A 1_555 1_555
C9A C11A 1_555 1_555

#END
