
#######################################################################
#
#                 Cambridge Crystallographic Data Centre
#                                CCDC 
#
#######################################################################
#
# If this CIF has been generated from an entry in the Cambridge 
# Structural Database, then it will include bibliographic, chemical, 
# crystal, experimental, refinement or atomic coordinate data resulting 
# from the CCDC's data processing and validation procedures.
#
#######################################################################

data_DUXVUO
_chemical_name_common            (+)-Calvine
_chemical_formula_moiety         'C14 H25 N1 O2'
_chemical_name_systematic        
7-Pentyloctahydro-2H-pyrido[1,2-d][1,4]oxazepin-2-one
_symmetry_cell_setting           orthorhombic
_symmetry_space_group_name_H-M   'P 21 21 21'
_symmetry_Int_Tables_number      19
_space_group_name_Hall           'P 2ac 2ab'
loop_
_symmetry_equiv_pos_site_id
_symmetry_equiv_pos_as_xyz
1 x,y,z
2 1/2-x,-y,1/2+z
3 1/2+x,1/2-y,-z
4 -x,1/2+y,1/2-z
_cell_length_a                   5.2704(4)
_cell_length_b                   7.5069(4)
_cell_length_c                   34.360(2)
_cell_angle_alpha                90
_cell_angle_beta                 90
_cell_angle_gamma                90
_cell_volume                     1359.43
_exptl_crystal_colour            colorless
_exptl_crystal_description       block
_cell_formula_units_Z            4
loop_
_atom_site_label
_atom_site_type_symbol
_atom_site_fract_x
_atom_site_fract_y
_atom_site_fract_z
C1 C 0.1978(2) 0.15156(15) 0.90629(3)
H1 H 0.2196 0.2323 0.8845
H2 H 0.3463 0.0754 0.9074
C2 C 0.1832(3) 0.25934(15) 0.94344(3)
H3 H 0.2894 0.3641 0.9407
H4 H 0.0099 0.2994 0.9471
C3 C 0.1132(2) 0.03096(16) 0.99223(3)
C4 C -0.1190(2) -0.02325(16) 0.96952(3)
H5 H -0.2285 0.0799 0.9668
H6 H -0.2110 -0.1118 0.9845
C5 C -0.0673(2) -0.09952(15) 0.92873(3)
H7 H -0.2240 -0.1603 0.9210
C6 C 0.1391(2) -0.24315(15) 0.92867(3)
H8 H 0.0986 -0.3338 0.9478
H9 H 0.3009 -0.1905 0.9356
C7 C 0.1576(3) -0.32803(16) 0.88815(3)
H10 H 0.3050 -0.4053 0.8872
H11 H 0.0084 -0.4005 0.8835
C8 C 0.1791(2) -0.18706(16) 0.85610(3)
H12 H 0.1627 -0.2441 0.8309
H13 H 0.3452 -0.1318 0.8573
C9 C -0.0262(2) -0.04299(15) 0.86022(3)
H14 H -0.1899 -0.1035 0.8575
C10 C -0.0122(2) 0.09470(16) 0.82747(3)
H15 H 0.1548 0.1490 0.8277
H16 H -0.0324 0.0340 0.8028
C11 C -0.2120(2) 0.24139(16) 0.83044(3)
H17 H -0.3790 0.1887 0.8277
H18 H -0.2022 0.2952 0.8560
C12 C -0.1800(2) 0.38637(16) 0.79974(3)
H19 H -0.0116 0.4374 0.8021
H20 H -0.1936 0.3331 0.7741
C13 C -0.3761(2) 0.53454(17) 0.80336(3)
H21 H -0.5445 0.4832 0.8014
H22 H -0.3608 0.5889 0.8288
C14 C -0.3476(3) 0.67834(19) 0.77242(4)
H23 H -0.4728 0.7693 0.7765
H24 H -0.3709 0.6266 0.7471
H25 H -0.1812 0.7297 0.7741
N1 N -0.02642(18) 0.04093(13) 0.89926(3)
O1 O 0.26266(16) 0.16098(11) 0.97785(2)
O2 O 0.17466(18) -0.03633(12) 1.02281(2)
loop_
_geom_bond_atom_site_label_1
_geom_bond_atom_site_label_2
_geom_bond_site_symmetry_1
_geom_bond_site_symmetry_2
C1 H1 1_555 1_555
H2 C1 1_555 1_555
C2 C1 1_555 1_555
H3 C2 1_555 1_555
H4 C2 1_555 1_555
C3 C4 1_555 1_555
C4 H5 1_555 1_555
H6 C4 1_555 1_555
C5 C4 1_555 1_555
H7 C5 1_555 1_555
C6 C5 1_555 1_555
H8 C6 1_555 1_555
H9 C6 1_555 1_555
C7 C6 1_555 1_555
H10 C7 1_555 1_555
H11 C7 1_555 1_555
C8 C7 1_555 1_555
H12 C8 1_555 1_555
H13 C8 1_555 1_555
C9 C8 1_555 1_555
H14 C9 1_555 1_555
C10 C9 1_555 1_555
H15 C10 1_555 1_555
H16 C10 1_555 1_555
C11 C10 1_555 1_555
H17 C11 1_555 1_555
H18 C11 1_555 1_555
C12 C11 1_555 1_555
H19 C12 1_555 1_555
H20 C12 1_555 1_555
C13 C12 1_555 1_555
H21 C13 1_555 1_555
H22 C13 1_555 1_555
C14 C13 1_555 1_555
H23 C14 1_555 1_555
H24 C14 1_555 1_555
H25 C14 1_555 1_555
N1 C1 1_555 1_555
O1 C2 1_555 1_555
O2 C3 1_555 1_555
C3 O1 1_555 1_555
C5 N1 1_555 1_555
C9 N1 1_555 1_555

#END
