
#######################################################################
#
#                 Cambridge Crystallographic Data Centre
#                                CCDC 
#
#######################################################################
#
# If this CIF has been generated from an entry in the Cambridge 
# Structural Database, then it will include bibliographic, chemical, 
# crystal, experimental, refinement or atomic coordinate data resulting 
# from the CCDC's data processing and validation procedures.
#
#######################################################################

data_DUXVIC
_chemical_formula_moiety         'C17 H19 N3 O4 S1'
_chemical_name_systematic        
'(R)-Allyl 2-diazo-5-((S)-4-methylphenylsulfinamido)-3-oxo-hept-6-enoate'
_symmetry_cell_setting           orthorhombic
_symmetry_space_group_name_H-M   'P 21 21 21'
_symmetry_Int_Tables_number      19
_space_group_name_Hall           'P 2ac 2ab'
loop_
_symmetry_equiv_pos_site_id
_symmetry_equiv_pos_as_xyz
1 x,y,z
2 1/2-x,-y,1/2+z
3 -x,1/2+y,1/2-z
4 1/2+x,1/2-y,-z
_cell_length_a                   7.7884(16)
_cell_length_b                   12.215(2)
_cell_length_c                   19.569(4)
_cell_angle_alpha                90
_cell_angle_beta                 90
_cell_angle_gamma                90
_cell_volume                     1861.7
_exptl_crystal_colour            colorless
_exptl_crystal_description       prism
_cell_formula_units_Z            4
loop_
_atom_site_label
_atom_site_type_symbol
_atom_site_fract_x
_atom_site_fract_y
_atom_site_fract_z
S1 S 0.22702(8) 0.25937(6) 0.08094(3)
N1 N 0.4382(2) 0.24310(17) 0.08340(10)
C1 C 0.7130(3) 0.2534(2) 0.18082(13)
C2 C 0.5210(3) 0.1397(2) 0.10384(12)
O1 O 0.7683(2) 0.34475(15) 0.16882(9)
O2 O 0.5980(3) 0.03771(14) 0.25080(9)
O3 O 0.5614(2) 0.13732(14) 0.34675(9)
C3 C 0.1103(3) 0.1135(2) 0.17739(13)
H1 H 0.0921 0.0661 0.1409
C4 C 0.1814(3) 0.2152(2) 0.16653(11)
C5 C 0.6537(3) 0.2277(2) 0.25042(12)
C6 C 0.6026(4) 0.1241(2) 0.28024(14)
N2 N 0.6608(4) 0.3126(2) 0.29298(11)
C7 C 0.0662(3) 0.0825(3) 0.24317(14)
H2 H 0.0193 0.0135 0.2505
C8 C 0.1620(4) 0.2525(3) 0.28672(13)
H3 H 0.1796 0.2994 0.3235
C9 C 0.7043(3) 0.1661(2) 0.12738(12)
H4 H 0.7565 0.1000 0.1453
H5 H 0.7711 0.1893 0.0881
C10 C 0.0900(4) 0.1511(3) 0.29754(15)
C11 C 0.2089(3) 0.2859(2) 0.22094(12)
H6 H 0.2577 0.3544 0.2138
C12 C 0.5177(4) 0.0544(2) 0.04897(13)
H7 H 0.4212 0.0545 0.0210
C13 C 0.0340(4) 0.1165(3) 0.36888(14)
H8 H -0.0864 0.1307 0.3744
H9 H 0.0977 0.1572 0.4023
H10 H 0.0555 0.0397 0.3749
C14 C 0.4514(5) 0.0670(3) 0.45291(16)
H11 H 0.4148 0.0093 0.4803
N3 N 0.6693(5) 0.38503(19) 0.32713(13)
C15 C 0.5096(4) 0.0396(2) 0.38231(13)
H12 H 0.6053 -0.0111 0.3845
H13 H 0.4168 0.0043 0.3576
O4 O 0.1383(2) 0.17706(15) 0.03656(8)
C16 C 0.6282(6) -0.0171(3) 0.03591(16)
H14 H 0.7277 -0.0214 0.0621
H15 H 0.6109 -0.0658 0.0000
C17 C 0.4473(7) 0.1612(4) 0.47869(17)
H16 H 0.4827 0.2213 0.4532
H17 H 0.4090 0.1707 0.5233
H18 H 0.472(4) 0.266(2) 0.0469(11)
H19 H 0.455(3) 0.1115(17) 0.1432(10)
loop_
_geom_bond_atom_site_label_1
_geom_bond_atom_site_label_2
_geom_bond_site_symmetry_1
_geom_bond_site_symmetry_2
S1 N1 1_555 1_555
N1 C2 1_555 1_555
C1 O1 1_555 1_555
C2 C9 1_555 1_555
O2 C6 1_555 1_555
O3 C6 1_555 1_555
C3 H1 1_555 1_555
C4 S1 1_555 1_555
C5 C1 1_555 1_555
C6 C5 1_555 1_555
N2 C5 1_555 1_555
C7 C3 1_555 1_555
H2 C7 1_555 1_555
C8 H3 1_555 1_555
C9 C1 1_555 1_555
H4 C9 1_555 1_555
H5 C9 1_555 1_555
C10 C7 1_555 1_555
C11 C4 1_555 1_555
H6 C11 1_555 1_555
C12 C2 1_555 1_555
H7 C12 1_555 1_555
C13 C10 1_555 1_555
H8 C13 1_555 1_555
H9 C13 1_555 1_555
H10 C13 1_555 1_555
C14 H11 1_555 1_555
N3 N2 1_555 1_555
C15 O3 1_555 1_555
H12 C15 1_555 1_555
H13 C15 1_555 1_555
O4 S1 1_555 1_555
C16 C12 1_555 1_555
H14 C16 1_555 1_555
H15 C16 1_555 1_555
C17 C14 1_555 1_555
H16 C17 1_555 1_555
H17 C17 1_555 1_555
H18 N1 1_555 1_555
H19 C2 1_555 1_555
C3 C4 1_555 1_555
C8 C10 1_555 1_555
C8 C11 1_555 1_555
C14 C15 1_555 1_555

#END
