
#######################################################################
#
#                 Cambridge Crystallographic Data Centre
#                                CCDC 
#
#######################################################################
#
# If this CIF has been generated from an entry in the Cambridge 
# Structural Database, then it will include bibliographic, chemical, 
# crystal, experimental, refinement or atomic coordinate data resulting 
# from the CCDC's data processing and validation procedures.
#
#######################################################################

data_DUYKUE
_chemical_formula_moiety         'C11 H8 F4 N2 O1'
_chemical_name_systematic        
2,3,5,6-Tetrafluoro-4-(morpholin-4-yl)benzonitrile
_symmetry_cell_setting           orthorhombic
_symmetry_space_group_name_H-M   'P n a 21'
_symmetry_Int_Tables_number      33
_space_group_name_Hall           'P 2c -2n'
loop_
_symmetry_equiv_pos_site_id
_symmetry_equiv_pos_as_xyz
1 x,y,z
2 -x,-y,1/2+z
3 1/2-x,1/2+y,1/2+z
4 1/2+x,1/2-y,z
_cell_length_a                   16.0178(4)
_cell_length_b                   7.5162(2)
_cell_length_c                   9.0124(2)
_cell_angle_alpha                90
_cell_angle_beta                 90
_cell_angle_gamma                90
_cell_volume                     1085.03
_exptl_crystal_colour            'light colorless'
_exptl_crystal_description       prism
_chemical_melting_point          '78-79 deg.C'
_cell_formula_units_Z            4
loop_
_atom_site_label
_atom_site_type_symbol
_atom_site_fract_x
_atom_site_fract_y
_atom_site_fract_z
F1 F 0.41607(14) 0.8577(3) 0.6137(3)
F2 F 0.28401(15) 0.6875(3) 0.5095(3)
F3 F 0.3599(2) 0.1797(4) 0.7921(5)
F4 F 0.4920(2) 0.3533(5) 0.8901(4)
N1 N 0.5867(4) 0.7777(8) 0.8556(8)
C1 C 0.4587(3) 0.6111(7) 0.7554(6)
C2 C 0.4019(3) 0.6908(6) 0.6599(5)
C3 C 0.3335(2) 0.6025(5) 0.6063(6)
C4 C 0.3155(3) 0.4243(5) 0.6457(6)
C5 C 0.3727(3) 0.3456(6) 0.7407(6)
C6 C 0.4415(3) 0.4350(7) 0.7935(6)
C7 C 0.5286(4) 0.7015(8) 0.8107(7)
O1 O 0.0968(3) 0.1402(6) 0.6128(6)
N2 N 0.2452(4) 0.3367(8) 0.5780(8)
C8 C 0.2422(4) 0.1482(8) 0.5418(7)
H1 H 0.2971 0.0934 0.5631
H2 H 0.2307 0.1336 0.4345
C9 C 0.1752(3) 0.0541(7) 0.6308(7)
H3 H 0.1707 -0.0711 0.5974
H4 H 0.1908 0.0538 0.7371
C10 C 0.1004(4) 0.3214(8) 0.6568(7)
H5 H 0.1158 0.3286 0.7630
H6 H 0.0446 0.3763 0.6447
C11 C 0.1639(4) 0.4232(8) 0.5645(9)
H7 H 0.1463 0.4248 0.4592
H8 H 0.1677 0.5476 0.5998
C12? C 0.1038(11) 0.341(2) 0.560(2)
C13? C 0.1668(9) 0.424(2) 0.644(2)
C14? C 0.2494(10) 0.152(2) 0.623(2)
C15? C 0.1829(11) 0.087(3) 0.522(2)
H9? H 0.1497 0.4227 0.7494
H10? H 0.1711 0.5496 0.6124
H11? H 0.1092 0.3841 0.4561
H12? H 0.0494 0.3846 0.5972
H13? H 0.2411 0.1011 0.7231
H14? H 0.3045 0.1124 0.5859
H15? H 0.1973 0.1213 0.4192
H16? H 0.1821 -0.0450 0.5261
N3? N 0.2481(6) 0.3429(13) 0.6320(14)
O2? O 0.1001(7) 0.1516(15) 0.5552(16)
loop_
_geom_bond_atom_site_label_1
_geom_bond_atom_site_label_2
_geom_bond_site_symmetry_1
_geom_bond_site_symmetry_2
F1 C2 1_555 1_555
F2 C3 1_555 1_555
F3 C5 1_555 1_555
F4 C6 1_555 1_555
N1 C7 1_555 1_555
C1 C2 1_555 1_555
C2 C3 1_555 1_555
C3 C4 1_555 1_555
C4 C5 1_555 1_555
C5 C6 1_555 1_555
C6 C1 1_555 1_555
C7 C1 1_555 1_555
O1 C9 1_555 1_555
N2 C4 1_555 1_555
C8 N2 1_555 1_555
H1 C8 1_555 1_555
H2 C8 1_555 1_555
C9 C8 1_555 1_555
H3 C9 1_555 1_555
H4 C9 1_555 1_555
C10 O1 1_555 1_555
H5 C10 1_555 1_555
H6 C10 1_555 1_555
C11 N2 1_555 1_555
H7 C11 1_555 1_555
H8 C11 1_555 1_555
C10 C11 1_555 1_555

#END
