
#######################################################################
#
#                 Cambridge Crystallographic Data Centre
#                                CCDC 
#
#######################################################################
#
# If this CIF has been generated from an entry in the Cambridge 
# Structural Database, then it will include bibliographic, chemical, 
# crystal, experimental, refinement or atomic coordinate data resulting 
# from the CCDC's data processing and validation procedures.
#
#######################################################################

data_DUZCOR
_chemical_formula_moiety         'C21 H18 O1 S3'
_chemical_name_systematic        
2'-(Butylsulfanyl)-3,3'-bi-1-benzothiophene-2-carbaldehyde
_symmetry_cell_setting           triclinic
_symmetry_space_group_name_H-M   'P -1'
_symmetry_Int_Tables_number      2
_space_group_name_Hall           '-P 1'
loop_
_symmetry_equiv_pos_site_id
_symmetry_equiv_pos_as_xyz
1 x,y,z
2 -x,-y,-z
_cell_length_a                   9.903(2)
_cell_length_b                   10.102(2)
_cell_length_c                   10.120(2)
_cell_angle_alpha                90.205(4)
_cell_angle_beta                 103.568(4)
_cell_angle_gamma                107.486(4)
_cell_volume                     935.675
_exptl_crystal_colour            colorless
_exptl_crystal_description       block
_chemical_melting_point          108-109deg.C
_cell_formula_units_Z            2
loop_
_atom_site_label
_atom_site_type_symbol
_atom_site_fract_x
_atom_site_fract_y
_atom_site_fract_z
S1 S -0.58869(6) 0.68853(6) 0.54493(5)
S2 S -0.38820(6) 0.68973(6) -0.02084(5)
S3 S -0.63402(7) 0.75238(7) 0.07436(6)
C1 C -0.4368(2) 0.8337(2) 0.5603(2)
C2 C -0.3851(3) 0.9463(2) 0.6598(2)
H1 H -0.4315 0.9475 0.7295
C3 C -0.2662(3) 1.0532(2) 0.6520(2)
H2 H -0.2316 1.1286 0.7171
C4 C -0.1941(3) 1.0525(2) 0.5477(2)
H3 H -0.1124 1.1268 0.5447
C5 C -0.2441(2) 0.9423(2) 0.4502(2)
H4 H -0.1959 0.9415 0.3817
C6 C -0.3669(2) 0.8320(2) 0.45432(19)
C7 C -0.4415(2) 0.7113(2) 0.35986(19)
C8 C -0.5609(2) 0.6273(2) 0.39601(19)
C9 C -0.6611(2) 0.4984(2) 0.3211(2)
H5 H -0.6377 0.4666 0.2457
C10 C -0.3971(2) 0.6899(2) 0.23358(19)
C11 C -0.2654(2) 0.6573(2) 0.2297(2)
C12 C -0.1627(2) 0.6288(2) 0.3359(2)
H6 H -0.1736 0.6294 0.4247
C13 C -0.0434(2) 0.5994(3) 0.3073(3)
H7 H 0.0259 0.5800 0.3773
C14 C -0.0273(2) 0.5989(2) 0.1739(3)
H8 H 0.0539 0.5804 0.1570
C15 C -0.1272(2) 0.6247(2) 0.0676(3)
H9 H -0.1160 0.6227 -0.0210
C16 C -0.2466(2) 0.6543(2) 0.0962(2)
C17 C -0.4719(2) 0.7089(2) 0.1079(2)
C18 C -0.6786(3) 0.7581(3) -0.1087(2)
H10 H -0.6032 0.8319 -0.1347
H11 H -0.6826 0.6706 -0.1517
C19 C -0.8282(3) 0.7845(3) -0.1582(3)
H12 H -0.8525 0.7810 -0.2570
H13 H -0.9022 0.7094 -0.1321
C20 C -0.8346(4) 0.9153(3) -0.1061(3)
H14 H -0.7571 0.9912 -0.1263
H15 H -0.8198 0.9167 -0.0078
C21 C -0.9804(4) 0.9351(4) -0.1692(4)
H16 H -0.9830 1.0220 -0.1329
H17 H -1.0570 0.8602 -0.1487
H18 H -0.9940 0.9358 -0.2663
O1 O -0.77189(19) 0.42945(19) 0.34864(19)
loop_
_geom_bond_atom_site_label_1
_geom_bond_atom_site_label_2
_geom_bond_site_symmetry_1
_geom_bond_site_symmetry_2
S1 C1 1_555 1_555
S2 C16 1_555 1_555
S3 C17 1_555 1_555
C1 C2 1_555 1_555
C2 H1 1_555 1_555
C3 C2 1_555 1_555
H2 C3 1_555 1_555
C4 C3 1_555 1_555
H3 C4 1_555 1_555
C5 C4 1_555 1_555
H4 C5 1_555 1_555
C6 C1 1_555 1_555
C7 C6 1_555 1_555
C8 S1 1_555 1_555
C9 C8 1_555 1_555
H5 C9 1_555 1_555
C10 C7 1_555 1_555
C11 C10 1_555 1_555
C12 C11 1_555 1_555
H6 C12 1_555 1_555
C13 C12 1_555 1_555
H7 C13 1_555 1_555
C14 C13 1_555 1_555
H8 C14 1_555 1_555
C15 C14 1_555 1_555
H9 C15 1_555 1_555
C16 C11 1_555 1_555
C17 S2 1_555 1_555
C18 S3 1_555 1_555
H10 C18 1_555 1_555
H11 C18 1_555 1_555
C19 C18 1_555 1_555
H12 C19 1_555 1_555
H13 C19 1_555 1_555
C20 C19 1_555 1_555
H14 C20 1_555 1_555
H15 C20 1_555 1_555
C21 C20 1_555 1_555
H16 C21 1_555 1_555
H17 C21 1_555 1_555
H18 C21 1_555 1_555
O1 C9 1_555 1_555
C5 C6 1_555 1_555
C7 C8 1_555 1_555
C10 C17 1_555 1_555
C15 C16 1_555 1_555

#END
