
#######################################################################
#
#                 Cambridge Crystallographic Data Centre
#                                CCDC 
#
#######################################################################
#
# If this CIF has been generated from an entry in the Cambridge 
# Structural Database, then it will include bibliographic, chemical, 
# crystal, experimental, refinement or atomic coordinate data resulting 
# from the CCDC's data processing and validation procedures.
#
#######################################################################

data_DUZFUB
_chemical_formula_moiety         'C28 H36 S2'
_chemical_name_systematic        
2,7-diheptylthieno[3',2':5,6]naphtho[2,1-b]thiophene
_symmetry_cell_setting           triclinic
_symmetry_space_group_name_H-M   'P -1'
_symmetry_Int_Tables_number      2
_space_group_name_Hall           '-P 1'
loop_
_symmetry_equiv_pos_site_id
_symmetry_equiv_pos_as_xyz
1 x,y,z
2 -x,-y,-z
_cell_length_a                   6.7057(4)
_cell_length_b                   9.3950(5)
_cell_length_c                   10.2135(7)
_cell_angle_alpha                75.517(4)
_cell_angle_beta                 77.083(5)
_cell_angle_gamma                71.249(3)
_cell_volume                     582.702
_exptl_crystal_colour            white
_exptl_crystal_description       plate
_cell_formula_units_Z            1
loop_
_atom_site_label
_atom_site_type_symbol
_atom_site_fract_x
_atom_site_fract_y
_atom_site_fract_z
C1 C -0.3592(4) 0.6952(3) 0.5523(2)
C2 C -0.5202(4) 0.7820(3) 0.4717(2)
H1 H -0.5529 0.8906 0.4491
C3 C -0.6274(4) 0.7068(3) 0.4271(2)
H2 H -0.7362 0.7643 0.3734
C4 C -0.5803(3) 0.5438(3) 0.4591(2)
C5 C -0.3091(3) 0.5358(3) 0.5883(2)
C6 C -0.1439(4) 0.4747(3) 0.6723(2)
H3 H -0.0902 0.3683 0.7067
C7 C -0.0717(4) 0.5825(3) 0.6982(2)
C8 C 0.0968(4) 0.5638(3) 0.7809(2)
H4 H 0.0335 0.6250 0.8538
H5 H 0.2111 0.6057 0.7209
C9 C 0.1958(4) 0.3981(3) 0.8468(2)
H6 H 0.0827 0.3564 0.9085
H7 H 0.2581 0.3362 0.7744
C10 C 0.3682(4) 0.3836(3) 0.9279(2)
H8 H 0.4794 0.4275 0.8664
H9 H 0.3048 0.4443 1.0011
C11 C 0.4725(4) 0.2183(3) 0.9927(2)
H10 H 0.5357 0.1577 0.9194
H11 H 0.3611 0.1744 1.0540
C12 C 0.6453(4) 0.2026(3) 1.0742(2)
H12 H 0.7616 0.2400 1.0117
H13 H 0.5847 0.2685 1.1437
C13 C 0.7385(4) 0.0383(3) 1.1462(3)
H14 H 0.8062 -0.0264 1.0763
H15 H 0.6210 -0.0010 1.2046
C14 C 0.9024(4) 0.0229(3) 1.2341(3)
H16 H 0.8380 0.0888 1.3021
H17 H 1.0247 0.0539 1.1760
H18 H 0.9500 -0.0839 1.2811
S1 S -0.20207(9) 0.76629(6) 0.61836(6)
C1A C -0.6408(4) 0.3048(3) 0.4477(2)
C2A C -0.4798(4) 0.2180(3) 0.5283(2)
H1A H -0.4471 0.1094 0.5509
C3A C -0.3726(4) 0.2932(3) 0.5729(2)
H2A H -0.2638 0.2357 0.6266
C4A C -0.4197(3) 0.4562(3) 0.5409(2)
C5A C -0.6909(3) 0.4642(3) 0.4117(2)
C6A C -0.8561(4) 0.5253(3) 0.3277(2)
H3A H -0.9098 0.6317 0.2933
C7A C -0.9283(4) 0.4175(3) 0.3018(2)
C8A C -1.0968(4) 0.4362(3) 0.2191(2)
H4A H -1.0335 0.3750 0.1462
H5A H -1.2111 0.3943 0.2791
C9A C -1.1958(4) 0.6019(3) 0.1532(2)
H6A H -1.0827 0.6436 0.0915
H7A H -1.2581 0.6638 0.2256
C10A C -1.3682(4) 0.6164(3) 0.0721(2)
H8A H -1.4794 0.5725 0.1336
H9A H -1.3048 0.5557 -0.0011
C11A C -1.4725(4) 0.7817(3) 0.0073(2)
H10A H -1.5357 0.8423 0.0806
H11A H -1.3611 0.8256 -0.0540
C12A C -1.6453(4) 0.7974(3) -0.0742(2)
H12A H -1.7616 0.7600 -0.0117
H13A H -1.5847 0.7315 -0.1437
C13A C -1.7385(4) 0.9617(3) -0.1462(3)
H14A H -1.8062 1.0264 -0.0763
H15A H -1.6210 1.0010 -0.2046
C14A C -1.9024(4) 0.9771(3) -0.2341(3)
H16A H -1.8380 0.9112 -0.3021
H17A H -2.0247 0.9461 -0.1760
H18A H -1.9500 1.0839 -0.2811
S1A S -0.79793(9) 0.23371(6) 0.38164(6)
loop_
_geom_bond_atom_site_label_1
_geom_bond_atom_site_label_2
_geom_bond_site_symmetry_1
_geom_bond_site_symmetry_2
C1 C2 1_555 1_555
C2 H1 1_555 1_555
C3 C2 1_555 1_555
H2 C3 1_555 1_555
C4 C3 1_555 1_555
C5 C1 1_555 1_555
C6 C5 1_555 1_555
H3 C6 1_555 1_555
C7 C6 1_555 1_555
C8 C7 1_555 1_555
H4 C8 1_555 1_555
H5 C8 1_555 1_555
C9 C8 1_555 1_555
H6 C9 1_555 1_555
H7 C9 1_555 1_555
C10 C9 1_555 1_555
H8 C10 1_555 1_555
H9 C10 1_555 1_555
C11 C10 1_555 1_555
H10 C11 1_555 1_555
H11 C11 1_555 1_555
C12 C11 1_555 1_555
H12 C12 1_555 1_555
H13 C12 1_555 1_555
C13 C12 1_555 1_555
H14 C13 1_555 1_555
H15 C13 1_555 1_555
C14 C13 1_555 1_555
H16 C14 1_555 1_555
H17 C14 1_555 1_555
H18 C14 1_555 1_555
S1 C1 1_555 1_555
C1A C2A 1_555 1_555
C2A H1A 1_555 1_555
C3A C2A 1_555 1_555
H2A C3A 1_555 1_555
C4A C4 1_555 1_555
C5A C4 1_555 1_555
C6A C5A 1_555 1_555
H3A C6A 1_555 1_555
C7A C6A 1_555 1_555
C8A C7A 1_555 1_555
H4A C8A 1_555 1_555
H5A C8A 1_555 1_555
C9A C8A 1_555 1_555
H6A C9A 1_555 1_555
H7A C9A 1_555 1_555
C10A C9A 1_555 1_555
H8A C10A 1_555 1_555
H9A C10A 1_555 1_555
C11A C10A 1_555 1_555
H10A C11A 1_555 1_555
H11A C11A 1_555 1_555
C12A C11A 1_555 1_555
H12A C12A 1_555 1_555
H13A C12A 1_555 1_555
C13A C12A 1_555 1_555
H14A C13A 1_555 1_555
H15A C13A 1_555 1_555
C14A C13A 1_555 1_555
H16A C14A 1_555 1_555
H17A C14A 1_555 1_555
H18A C14A 1_555 1_555
S1A C1A 1_555 1_555
C5 C4A 1_555 1_555
C7 S1 1_555 1_555
C1A C5A 1_555 1_555
C3A C4A 1_555 1_555
C7A S1A 1_555 1_555

#END
