
#######################################################################
#
#                 Cambridge Crystallographic Data Centre
#                                CCDC 
#
#######################################################################
#
# If this CIF has been generated from an entry in the Cambridge 
# Structural Database, then it will include bibliographic, chemical, 
# crystal, experimental, refinement or atomic coordinate data resulting 
# from the CCDC's data processing and validation procedures.
#
#######################################################################

data_DUZFEK
_chemical_formula_moiety         'C19 H19 N5 O5'
_chemical_name_systematic        
'Ethyl ethyl-(3-(4-nitrophenyl)-5-oxo-1-phenyl-1,5-dihydro-4H-1,2,4-triazol-4-yl)carbamate'
_symmetry_cell_setting           monoclinic
_symmetry_space_group_name_H-M   'P 21/n'
_symmetry_Int_Tables_number      14
_space_group_name_Hall           '-P 2yn'
loop_
_symmetry_equiv_pos_site_id
_symmetry_equiv_pos_as_xyz
1 x,y,z
2 1/2-x,1/2+y,1/2-z
3 -x,-y,-z
4 1/2+x,1/2-y,1/2+z
_cell_length_a                   9.9394(11)
_cell_length_b                   16.4239(17)
_cell_length_c                   11.7360(12)
_cell_angle_alpha                90
_cell_angle_beta                 92.034(2)
_cell_angle_gamma                90
_cell_volume                     1914.62
_exptl_crystal_colour            colorless
_exptl_crystal_description       prismatic
_chemical_melting_point          115-117deg.C
_cell_formula_units_Z            4
loop_
_atom_site_label
_atom_site_type_symbol
_atom_site_fract_x
_atom_site_fract_y
_atom_site_fract_z
N1 N 0.07134(14) 0.17196(8) 0.74108(12)
N2 N 0.16156(15) 0.23226(8) 0.77384(12)
N3 N 0.25222(15) 0.11225(7) 0.80458(12)
N4 N 0.34811(15) 0.05260(8) 0.82549(13)
N5 N 0.74026(19) 0.36766(11) 0.95066(17)
O1 O 0.07600(14) 0.02904(7) 0.74104(13)
O2 O 0.76178(19) 0.43235(10) 0.90340(17)
O3 O 0.81760(18) 0.33745(11) 1.02145(17)
O4 O 0.39759(15) -0.06243(8) 0.92014(12)
O5 O 0.23253(14) 0.02025(7) 0.97969(11)
C1 C 0.1249(2) 0.09580(10) 0.75871(15)
C2 C 0.26910(18) 0.19567(9) 0.81140(14)
C3 C 0.39105(17) 0.23815(9) 0.85074(14)
C4 C 0.41102(19) 0.31743(10) 0.81272(16)
H1 H 0.3470 0.3416 0.7640
C5 C 0.52375(19) 0.36006(10) 0.84633(16)
H2 H 0.5370 0.4129 0.8207
C6 C 0.61681(19) 0.32354(10) 0.91833(16)
C7 C 0.5986(2) 0.24631(11) 0.96016(16)
H3 H 0.6616 0.2233 1.0110
C8 C 0.48559(19) 0.20397(10) 0.92541(15)
H4 H 0.4724 0.1515 0.9525
C9 C -0.05935(18) 0.19289(10) 0.69790(14)
C10 C -0.1423(2) 0.13592(12) 0.64688(17)
H5 H -0.1139 0.0822 0.6409
C11 C -0.2678(2) 0.15841(15) 0.60445(18)
H6 H -0.3242 0.1196 0.5705
C12 C -0.3100(2) 0.23700(17) 0.61184(19)
H7 H -0.3947 0.2520 0.5828
C13 C -0.2267(2) 0.29394(14) 0.66247(19)
H8 H -0.2555 0.3477 0.6673
C14 C -0.1013(2) 0.27316(12) 0.70624(18)
H9 H -0.0456 0.3122 0.7408
C15 C 0.4401(2) 0.03384(11) 0.73454(17)
H10 H 0.5241 0.0142 0.7690
H11 H 0.4594 0.0838 0.6942
C16 C 0.3894(2) -0.02771(13) 0.65010(19)
H12 H 0.3704 -0.0777 0.6887
H13 H 0.4565 -0.0372 0.5948
H14 H 0.3086 -0.0078 0.6124
C17 C 0.3287(2) -0.00222(10) 0.91069(15)
C18 C 0.1967(3) -0.04050(12) 1.06300(17)
H15 H 0.1525 -0.0141 1.1254
H16 H 0.2779 -0.0663 1.0937
C19 C 0.1060(3) -0.10348(13) 1.0122(2)
H17 H 0.0226 -0.0787 0.9872
H18 H 0.0889 -0.1444 1.0682
H19 H 0.1479 -0.1281 0.9482
loop_
_geom_bond_atom_site_label_1
_geom_bond_atom_site_label_2
_geom_bond_site_symmetry_1
_geom_bond_site_symmetry_2
N1 N2 1_555 1_555
N2 C2 1_555 1_555
N3 N4 1_555 1_555
N4 C15 1_555 1_555
N5 O2 1_555 1_555
O1 C1 1_555 1_555
O3 N5 1_555 1_555
O4 C17 1_555 1_555
O5 C17 1_555 1_555
C1 N1 1_555 1_555
C2 N3 1_555 1_555
C3 C2 1_555 1_555
C4 C3 1_555 1_555
H1 C4 1_555 1_555
C5 C4 1_555 1_555
H2 C5 1_555 1_555
C6 N5 1_555 1_555
C7 C6 1_555 1_555
H3 C7 1_555 1_555
C8 C3 1_555 1_555
H4 C8 1_555 1_555
C9 N1 1_555 1_555
C10 C9 1_555 1_555
H5 C10 1_555 1_555
C11 C10 1_555 1_555
H6 C11 1_555 1_555
C12 C11 1_555 1_555
H7 C12 1_555 1_555
C13 C12 1_555 1_555
H8 C13 1_555 1_555
C14 C9 1_555 1_555
H9 C14 1_555 1_555
C15 H10 1_555 1_555
H11 C15 1_555 1_555
C16 C15 1_555 1_555
H12 C16 1_555 1_555
H13 C16 1_555 1_555
H14 C16 1_555 1_555
C17 N4 1_555 1_555
C18 O5 1_555 1_555
H15 C18 1_555 1_555
H16 C18 1_555 1_555
C19 C18 1_555 1_555
H17 C19 1_555 1_555
H18 C19 1_555 1_555
H19 C19 1_555 1_555
N3 C1 1_555 1_555
C5 C6 1_555 1_555
C7 C8 1_555 1_555
C13 C14 1_555 1_555

#END
