
#######################################################################
#
#                 Cambridge Crystallographic Data Centre
#                                CCDC 
#
#######################################################################
#
# If this CIF has been generated from an entry in the Cambridge 
# Structural Database, then it will include bibliographic, chemical, 
# crystal, experimental, refinement or atomic coordinate data resulting 
# from the CCDC's data processing and validation procedures.
#
#######################################################################

data_DUZFOU
_chemical_formula_moiety         'C29 H23 N5 O5'
_chemical_name_systematic        
'Benzyl benzyl-(3-(4-nitrophenyl)-5-oxo-1-phenyl-1,5-dihydro-4H-1,2,4-triazol-4-yl)carbamate'
_symmetry_cell_setting           orthorhombic
_symmetry_space_group_name_H-M   'P b c a'
_symmetry_Int_Tables_number      61
_space_group_name_Hall           '-P 2ac 2ab'
loop_
_symmetry_equiv_pos_site_id
_symmetry_equiv_pos_as_xyz
1 x,y,z
2 1/2-x,-y,1/2+z
3 -x,1/2+y,1/2-z
4 1/2+x,1/2-y,-z
5 -x,-y,-z
6 1/2+x,y,1/2-z
7 x,1/2-y,1/2+z
8 1/2-x,1/2+y,z
_cell_length_a                   23.7174(19)
_cell_length_b                   8.9936(7)
_cell_length_c                   23.7173(19)
_cell_angle_alpha                90
_cell_angle_beta                 90
_cell_angle_gamma                90
_cell_volume                     5059.01
_exptl_crystal_colour            colorless
_exptl_crystal_description       prismatic
_chemical_melting_point          137-138deg.C
_cell_formula_units_Z            8
loop_
_atom_site_label
_atom_site_type_symbol
_atom_site_fract_x
_atom_site_fract_y
_atom_site_fract_z
N1 N 0.06326(5) 0.71849(15) 0.48200(6)
N2 N 0.04149(6) 0.82351(15) 0.51842(6)
N3 N 0.13317(5) 0.80389(15) 0.52973(6)
N4 N 0.18803(5) 0.83794(16) 0.54398(6)
N5 N 0.05184(9) 1.2783(2) 0.72743(7)
O1 O 0.15291(5) 0.61245(14) 0.46688(5)
O2 O 0.09061(8) 1.3611(2) 0.74091(7)
O3 O 0.00619(9) 1.2786(2) 0.75068(7)
O4 O 0.26249(5) 0.77894(16) 0.59843(6)
O5 O 0.17651(5) 0.67992(14) 0.61568(5)
C1 C 0.12036(7) 0.6989(2) 0.48901(7)
C2 C 0.08410(7) 0.87528(18) 0.54663(7)
C3 C 0.07783(7) 0.98199(18) 0.59253(7)
C4 C 0.02473(8) 0.9972(2) 0.61665(8)
H1 H -0.0053 0.9416 0.6028
C5 C 0.01613(8) 1.0937(2) 0.66081(8)
H2 H -0.0194 1.1034 0.6770
C6 C 0.06074(8) 1.1754(2) 0.68049(7)
C7 C 0.11318(8) 1.1641(2) 0.65736(8)
H3 H 0.1427 1.2218 0.6711
C8 C 0.12195(7) 1.0666(2) 0.61357(8)
H4 H 0.1577 1.0574 0.5979
C9 C 0.02624(7) 0.63599(18) 0.44691(7)
C10 C -0.03092(8) 0.6404(2) 0.45752(7)
H5 H -0.0451 0.6995 0.4864
C11 C -0.06694(9) 0.5562(2) 0.42475(9)
H6 H -0.1055 0.5584 0.4317
C12 C -0.04619(10) 0.4698(2) 0.38225(10)
H7 H -0.0705 0.4117 0.3608
C13 C 0.01016(11) 0.4686(2) 0.37124(9)
H8 H 0.0240 0.4108 0.3418
C14 C 0.04724(8) 0.5524(2) 0.40344(8)
H9 H 0.0857 0.5518 0.3957
C15 C 0.22299(8) 0.9165(2) 0.50180(9)
H10 H 0.2468 0.8449 0.4827
H11 H 0.2473 0.9867 0.5211
C16 C 0.18874(7) 0.9977(2) 0.45918(8)
C17 C 0.16818(8) 1.1375(2) 0.47010(9)
H12 H 0.1757 1.1817 0.5047
C18 C 0.13667(10) 1.2136(3) 0.43094(11)
H13 H 0.1236 1.3087 0.4390
C19 C 0.12467(10) 1.1497(4) 0.38070(12)
H14 H 0.1031 1.2011 0.3544
C20 C 0.14358(11) 1.0134(4) 0.36869(10)
H15 H 0.1349 0.9702 0.3342
C21 C 0.17635(9) 0.9356(2) 0.40766(9)
H16 H 0.1898 0.8414 0.3987
C22 C 0.21311(8) 0.7641(2) 0.58739(8)
C23 C 0.19718(9) 0.6138(2) 0.66793(9)
H17 H 0.2361 0.5838 0.6630
H18 H 0.1753 0.5256 0.6765
C24 C 0.19328(8) 0.7198(2) 0.71597(8)
C25 C 0.23893(10) 0.7504(4) 0.74904(11)
H19 H 0.2736 0.7067 0.7410
C26 C 0.23389(15) 0.8466(5) 0.79462(13)
H20 H 0.2652 0.8676 0.8168
C27 C 0.18364(17) 0.9098(4) 0.80695(13)
H21 H 0.1802 0.9732 0.8377
C28 C 0.13873(13) 0.8801(3) 0.77439(12)
H22 H 0.1041 0.9237 0.7825
C29 C 0.14360(10) 0.7865(3) 0.72949(10)
H23 H 0.1120 0.7675 0.7074
loop_
_geom_bond_atom_site_label_1
_geom_bond_atom_site_label_2
_geom_bond_site_symmetry_1
_geom_bond_site_symmetry_2
N1 N2 1_555 1_555
N2 C2 1_555 1_555
N3 N4 1_555 1_555
N4 C15 1_555 1_555
N5 O2 1_555 1_555
O1 C1 1_555 1_555
O3 N5 1_555 1_555
O4 C22 1_555 1_555
O5 C22 1_555 1_555
C1 N1 1_555 1_555
C2 N3 1_555 1_555
C3 C2 1_555 1_555
C4 C3 1_555 1_555
H1 C4 1_555 1_555
C5 C4 1_555 1_555
H2 C5 1_555 1_555
C6 N5 1_555 1_555
C7 C6 1_555 1_555
H3 C7 1_555 1_555
C8 C3 1_555 1_555
H4 C8 1_555 1_555
C9 N1 1_555 1_555
C10 C9 1_555 1_555
H5 C10 1_555 1_555
C11 C10 1_555 1_555
H6 C11 1_555 1_555
C12 C11 1_555 1_555
H7 C12 1_555 1_555
C13 C12 1_555 1_555
H8 C13 1_555 1_555
C14 C9 1_555 1_555
H9 C14 1_555 1_555
C15 H10 1_555 1_555
H11 C15 1_555 1_555
C16 C15 1_555 1_555
C17 C16 1_555 1_555
H12 C17 1_555 1_555
C18 C17 1_555 1_555
H13 C18 1_555 1_555
C19 C18 1_555 1_555
H14 C19 1_555 1_555
C20 C19 1_555 1_555
H15 C20 1_555 1_555
C21 C16 1_555 1_555
H16 C21 1_555 1_555
C22 N4 1_555 1_555
C23 O5 1_555 1_555
H17 C23 1_555 1_555
H18 C23 1_555 1_555
C24 C23 1_555 1_555
C25 C24 1_555 1_555
H19 C25 1_555 1_555
C26 C25 1_555 1_555
H20 C26 1_555 1_555
C27 C26 1_555 1_555
H21 C27 1_555 1_555
C28 C27 1_555 1_555
H22 C28 1_555 1_555
C29 C24 1_555 1_555
H23 C29 1_555 1_555
N3 C1 1_555 1_555
C5 C6 1_555 1_555
C7 C8 1_555 1_555
C13 C14 1_555 1_555
C20 C21 1_555 1_555
C28 C29 1_555 1_555

#END
