
#######################################################################
#
#                 Cambridge Crystallographic Data Centre
#                                CCDC 
#
#######################################################################
#
# If this CIF has been generated from an entry in the Cambridge 
# Structural Database, then it will include bibliographic, chemical, 
# crystal, experimental, refinement or atomic coordinate data resulting 
# from the CCDC's data processing and validation procedures.
#
#######################################################################

data_DUZGAI
_chemical_formula_moiety         'C28 H36 S2'
_chemical_name_systematic        
2,7-diheptylthieno[2',3':5,6]naphtho[1,2-b]thiophene
_symmetry_cell_setting           triclinic
_symmetry_space_group_name_H-M   'P -1'
_symmetry_Int_Tables_number      2
_space_group_name_Hall           '-P 1'
loop_
_symmetry_equiv_pos_site_id
_symmetry_equiv_pos_as_xyz
1 x,y,z
2 -x,-y,-z
_cell_length_a                   6.1837(6)
_cell_length_b                   9.1060(5)
_cell_length_c                   11.6714(6)
_cell_angle_alpha                67.240(5)
_cell_angle_beta                 76.721(6)
_cell_angle_gamma                79.135(6)
_cell_volume                     586.179
_exptl_crystal_colour            white
_exptl_crystal_description       block
_cell_formula_units_Z            1
loop_
_atom_site_label
_atom_site_type_symbol
_atom_site_fract_x
_atom_site_fract_y
_atom_site_fract_z
C1 C 0.2587(4) 0.8713(2) 0.46913(18)
C2 C 0.0911(3) 0.9591(2) 0.53080(17)
C3 C 0.1016(4) 0.9659(2) 0.65013(19)
H1 H 0.2254 0.9099 0.6907
C4 C -0.0631(4) 1.0513(2) 0.70648(18)
H2 H -0.0531 1.0542 0.7856
C5 C 0.2487(4) 0.8644(2) 0.35275(18)
C6 C 0.4379(3) 0.7674(2) 0.31106(18)
H3 H 0.4579 0.7499 0.2340
C7 C 0.5847(4) 0.7035(2) 0.39232(19)
C8 C 0.8004(3) 0.5960(2) 0.38448(18)
H4 H 0.7839 0.4916 0.4546
H5 H 0.9200 0.6443 0.3966
C9 C 0.8736(4) 0.5662(2) 0.26025(19)
H6 H 0.8922 0.6697 0.1893
H7 H 0.7564 0.5161 0.2476
C10 C 1.0940(4) 0.4567(2) 0.2607(2)
H8 H 1.2125 0.5120 0.2661
H9 H 1.0783 0.3586 0.3372
C11 C 1.1683(4) 0.4079(2) 0.14523(19)
H10 H 1.1868 0.5055 0.0685
H11 H 1.0500 0.3530 0.1390
C12 C 1.3878(4) 0.2970(2) 0.14995(18)
H12 H 1.5066 0.3534 0.1538
H13 H 1.3703 0.2013 0.2283
C13 C 1.4622(4) 0.2425(3) 0.03707(19)
H14 H 1.4810 0.3379 -0.0413
H15 H 1.3435 0.1862 0.0329
C14 C 1.6804(4) 0.1315(3) 0.0438(2)
H16 H 1.8000 0.1878 0.0447
H17 H 1.7189 0.0989 -0.0299
H18 H 1.6627 0.0363 0.1209
S1 S 0.49868(8) 0.75974(5) 0.52446(4)
C1A C -0.2587(4) 1.1287(2) 0.53087(18)
C2A C -0.0911(3) 1.0409(2) 0.46920(17)
C3A C -0.1016(4) 1.0341(2) 0.34987(19)
H1A H -0.2254 1.0901 0.3093
C4A C 0.0631(4) 0.9487(2) 0.29352(18)
H2A H 0.0531 0.9458 0.2144
C5A C -0.2487(4) 1.1356(2) 0.64725(18)
C6A C -0.4379(3) 1.2326(2) 0.68894(18)
H3A H -0.4579 1.2501 0.7660
C7A C -0.5847(4) 1.2965(2) 0.60768(19)
C8A C -0.8004(3) 1.4040(2) 0.61552(18)
H4A H -0.7839 1.5084 0.5454
H5A H -0.9200 1.3557 0.6034
C9A C -0.8736(4) 1.4338(2) 0.73975(19)
H6A H -0.8922 1.3303 0.8107
H7A H -0.7564 1.4839 0.7524
C10A C -1.0940(4) 1.5433(2) 0.7393(2)
H8A H -1.2125 1.4880 0.7339
H9A H -1.0783 1.6414 0.6628
C11A C -1.1683(4) 1.5921(2) 0.85477(19)
H10A H -1.1868 1.4945 0.9315
H11A H -1.0500 1.6470 0.8610
C12A C -1.3878(4) 1.7030(2) 0.85005(18)
H12A H -1.5066 1.6466 0.8462
H13A H -1.3703 1.7987 0.7717
C13A C -1.4622(4) 1.7575(3) 0.96293(19)
H14A H -1.4810 1.6621 1.0413
H15A H -1.3435 1.8138 0.9671
C14A C -1.6804(4) 1.8685(3) 0.9562(2)
H16A H -1.8000 1.8122 0.9553
H17A H -1.7189 1.9011 1.0299
H18A H -1.6627 1.9637 0.8791
S1A S -0.49868(8) 1.24026(5) 0.47554(4)
loop_
_geom_bond_atom_site_label_1
_geom_bond_atom_site_label_2
_geom_bond_site_symmetry_1
_geom_bond_site_symmetry_2
C1 C2 1_555 1_555
C2 C3 1_555 1_555
C3 H1 1_555 1_555
C4 C3 1_555 1_555
H2 C4 1_555 1_555
C5 C1 1_555 1_555
C6 C5 1_555 1_555
H3 C6 1_555 1_555
C7 C6 1_555 1_555
C8 C7 1_555 1_555
H4 C8 1_555 1_555
H5 C8 1_555 1_555
C9 C8 1_555 1_555
H6 C9 1_555 1_555
H7 C9 1_555 1_555
C10 C9 1_555 1_555
H8 C10 1_555 1_555
H9 C10 1_555 1_555
C11 C10 1_555 1_555
H10 C11 1_555 1_555
H11 C11 1_555 1_555
C12 C11 1_555 1_555
H12 C12 1_555 1_555
H13 C12 1_555 1_555
C13 C12 1_555 1_555
H14 C13 1_555 1_555
H15 C13 1_555 1_555
C14 C13 1_555 1_555
H16 C14 1_555 1_555
H17 C14 1_555 1_555
H18 C14 1_555 1_555
S1 C1 1_555 1_555
C1A C2A 1_555 1_555
C2A C2 1_555 1_555
C3A C2A 1_555 1_555
H1A C3A 1_555 1_555
C4A C5 1_555 1_555
H2A C4A 1_555 1_555
C5A C4 1_555 1_555
C6A C5A 1_555 1_555
H3A C6A 1_555 1_555
C7A C6A 1_555 1_555
C8A C7A 1_555 1_555
H4A C8A 1_555 1_555
H5A C8A 1_555 1_555
C9A C8A 1_555 1_555
H6A C9A 1_555 1_555
H7A C9A 1_555 1_555
C10A C9A 1_555 1_555
H8A C10A 1_555 1_555
H9A C10A 1_555 1_555
C11A C10A 1_555 1_555
H10A C11A 1_555 1_555
H11A C11A 1_555 1_555
C12A C11A 1_555 1_555
H12A C12A 1_555 1_555
H13A C12A 1_555 1_555
C13A C12A 1_555 1_555
H14A C13A 1_555 1_555
H15A C13A 1_555 1_555
C14A C13A 1_555 1_555
H16A C14A 1_555 1_555
H17A C14A 1_555 1_555
H18A C14A 1_555 1_555
S1A C1A 1_555 1_555
C7 S1 1_555 1_555
C1A C5A 1_555 1_555
C3A C4A 1_555 1_555
C7A S1A 1_555 1_555

#END
