
#######################################################################
#
#                 Cambridge Crystallographic Data Centre
#                                CCDC 
#
#######################################################################
#
# If this CIF has been generated from an entry in the Cambridge 
# Structural Database, then it will include bibliographic, chemical, 
# crystal, experimental, refinement or atomic coordinate data resulting 
# from the CCDC's data processing and validation procedures.
#
#######################################################################

data_DUZGOW
_chemical_formula_moiety         'C26 H26 S2'
_chemical_name_systematic        
6,12-dibutylbenzo[b][1]benzothieno[2,3-f][1]benzothiophene
_symmetry_cell_setting           monoclinic
_symmetry_space_group_name_H-M   'C 2/c'
_symmetry_Int_Tables_number      15
_space_group_name_Hall           '-C 2yn'
loop_
_symmetry_equiv_pos_site_id
_symmetry_equiv_pos_as_xyz
1 x,y,z
2 -x,y,1/2-z
3 1/2+x,1/2+y,z
4 1/2-x,1/2+y,1/2-z
5 -x,-y,-z
6 x,-y,1/2+z
7 1/2-x,1/2-y,-z
8 1/2+x,1/2-y,1/2+z
_cell_length_a                   21.1876(7)
_cell_length_b                   4.6865(2)
_cell_length_c                   20.8975(8)
_cell_angle_alpha                90
_cell_angle_beta                 91.004(2)
_cell_angle_gamma                90
_cell_volume                     2074.71
_exptl_crystal_colour            white
_exptl_crystal_description       plate
_cell_formula_units_Z            4
loop_
_atom_site_label
_atom_site_type_symbol
_atom_site_fract_x
_atom_site_fract_y
_atom_site_fract_z
C1 C 0.31201(12) 0.3073(6) 0.49330(14)
C2 C 0.27041(13) 0.4555(6) 0.45345(14)
C3 C 0.20579(13) 0.3955(6) 0.46001(13)
C4 C 0.15087(13) 0.5106(6) 0.42600(14)
C5 C 0.09403(13) 0.3964(6) 0.44899(14)
C6 C 0.03536(14) 0.4747(7) 0.42426(16)
H1 H -0.0021 0.3914 0.4402
C7 C 0.03244(15) 0.6759(8) 0.37609(17)
H2 H -0.0074 0.7346 0.3591
C8 C 0.08746(16) 0.7931(7) 0.35226(16)
H3 H 0.0848 0.9320 0.3192
C9 C 0.14587(15) 0.7107(7) 0.37583(15)
H4 H 0.1830 0.7895 0.3581
C10 C 0.29610(13) 0.6605(6) 0.40445(13)
H5 H 0.3381 0.7291 0.4190
H6 H 0.2677 0.8278 0.4008
C11 C 0.30190(14) 0.5194(7) 0.33864(14)
H7 H 0.3297 0.3504 0.3429
H8 H 0.2597 0.4516 0.3244
C12 C 0.32811(16) 0.7150(7) 0.28740(15)
H9 H 0.3249 0.6173 0.2455
H10 H 0.3019 0.8895 0.2849
C13 C 0.39630(17) 0.8004(9) 0.29979(19)
H11 H 0.3997 0.9044 0.3404
H12 H 0.4106 0.9231 0.2649
H13 H 0.4227 0.6289 0.3021
S1 S 0.39419(3) 0.34681(16) 0.48906(4)
C1F C 0.18799(12) 0.1927(6) 0.50670(14)
C2F C 0.22959(13) 0.0445(6) 0.54655(14)
C3F C 0.29421(13) 0.1045(6) 0.53999(13)
C4F C 0.34913(13) -0.0106(6) 0.57400(14)
C5F C 0.40597(13) 0.1036(6) 0.55101(14)
C6F C 0.46464(14) 0.0253(7) 0.57574(16)
H1F H 0.5021 0.1086 0.5598
C7F C 0.46756(15) -0.1759(8) 0.62391(17)
H2F H 0.5074 -0.2346 0.6409
C8F C 0.41254(16) -0.2931(7) 0.64774(16)
H3F H 0.4152 -0.4320 0.6808
C9F C 0.35413(15) -0.2107(7) 0.62417(15)
H4F H 0.3170 -0.2895 0.6419
C10F C 0.20390(13) -0.1605(6) 0.59555(13)
H5F H 0.1619 -0.2291 0.5810
H6F H 0.2323 -0.3278 0.5992
C11F C 0.19810(14) -0.0194(7) 0.66136(14)
H7F H 0.1703 0.1496 0.6571
H8F H 0.2403 0.0484 0.6756
C12F C 0.17189(16) -0.2150(7) 0.71260(15)
H9F H 0.1751 -0.1173 0.7545
H10F H 0.1981 -0.3895 0.7151
C13F C 0.10370(17) -0.3004(9) 0.70021(19)
H11F H 0.1003 -0.4044 0.6596
H12F H 0.0894 -0.4231 0.7351
H13F H 0.0773 -0.1289 0.6979
S1F S 0.10581(3) 0.15319(16) 0.51094(4)
loop_
_geom_bond_atom_site_label_1
_geom_bond_atom_site_label_2
_geom_bond_site_symmetry_1
_geom_bond_site_symmetry_2
C1 C2 1_555 1_555
C2 C3 1_555 1_555
C3 C4 1_555 1_555
C4 C5 1_555 1_555
C5 C6 1_555 1_555
C6 H1 1_555 1_555
C7 C6 1_555 1_555
H2 C7 1_555 1_555
C8 C7 1_555 1_555
H3 C8 1_555 1_555
C9 C4 1_555 1_555
H4 C9 1_555 1_555
C10 C2 1_555 1_555
H5 C10 1_555 1_555
H6 C10 1_555 1_555
C11 C10 1_555 1_555
H7 C11 1_555 1_555
H8 C11 1_555 1_555
C12 C11 1_555 1_555
H9 C12 1_555 1_555
H10 C12 1_555 1_555
C13 C12 1_555 1_555
H11 C13 1_555 1_555
H12 C13 1_555 1_555
H13 C13 1_555 1_555
S1 C1 1_555 1_555
C1F C3 1_555 1_555
C2F C1F 1_555 1_555
C3F C1 1_555 1_555
C4F C3F 1_555 1_555
C5F S1 1_555 1_555
C6F C5F 1_555 1_555
H1F C6F 1_555 1_555
C7F C6F 1_555 1_555
H2F C7F 1_555 1_555
C8F C7F 1_555 1_555
H3F C8F 1_555 1_555
C9F C4F 1_555 1_555
H4F C9F 1_555 1_555
C10F C2F 1_555 1_555
H5F C10F 1_555 1_555
H6F C10F 1_555 1_555
C11F C10F 1_555 1_555
H7F C11F 1_555 1_555
H8F C11F 1_555 1_555
C12F C11F 1_555 1_555
H9F C12F 1_555 1_555
H10F C12F 1_555 1_555
C13F C12F 1_555 1_555
H11F C13F 1_555 1_555
H12F C13F 1_555 1_555
H13F C13F 1_555 1_555
S1F C5 1_555 1_555
C8 C9 1_555 1_555
C1F S1F 1_555 1_555
C2F C3F 1_555 1_555
C4F C5F 1_555 1_555
C8F C9F 1_555 1_555

#END
