
#######################################################################
#
#                 Cambridge Crystallographic Data Centre
#                                CCDC 
#
#######################################################################
#
# If this CIF has been generated from an entry in the Cambridge 
# Structural Database, then it will include bibliographic, chemical, 
# crystal, experimental, refinement or atomic coordinate data resulting 
# from the CCDC's data processing and validation procedures.
#
#######################################################################

data_DUZGIQ
_chemical_formula_moiety         'C28 H32 O2 S2'
_chemical_name_systematic        
1,1'-thieno[2',3':5,6]naphtho[1,2-b]thiene-2,7-diyldiheptan-1-one
_symmetry_cell_setting           monoclinic
_symmetry_space_group_name_H-M   'P 21/n'
_symmetry_Int_Tables_number      14
_space_group_name_Hall           '-P 2yn'
loop_
_symmetry_equiv_pos_site_id
_symmetry_equiv_pos_as_xyz
1 x,y,z
2 1/2-x,1/2+y,1/2-z
3 -x,-y,-z
4 1/2+x,1/2-y,1/2+z
_cell_length_a                   11.2121(4)
_cell_length_b                   10.8647(2)
_cell_length_c                   19.8947(4)
_cell_angle_alpha                90
_cell_angle_beta                 92.346(2)
_cell_angle_gamma                90
_cell_volume                     2421.46
_exptl_crystal_colour            yellow
_exptl_crystal_description       prism
_cell_formula_units_Z            4
loop_
_atom_site_label
_atom_site_type_symbol
_atom_site_fract_x
_atom_site_fract_y
_atom_site_fract_z
C1 C 0.91621(18) 0.92624(18) 0.19551(9)
C2 C 0.79788(18) 0.92857(18) 0.16676(9)
C3 C 0.75487(19) 1.02354(19) 0.12255(10)
H1 H 0.8070 1.0885 0.1111
C4 C 0.64041(19) 1.02292(19) 0.09636(10)
H2 H 0.6128 1.0882 0.0680
C5 C 0.56235(19) 0.92420(19) 0.11155(9)
C6 C 0.44122(19) 0.90437(19) 0.08970(10)
H3 H 0.3970 0.9596 0.0613
C7 C 0.39567(19) 0.7978(2) 0.11386(10)
C8 C 0.60453(19) 0.82942(18) 0.15362(10)
C9 C 0.72168(18) 0.82973(18) 0.18376(9)
C10 C 0.76317(19) 0.73654(19) 0.22960(10)
H4 H 0.7107 0.6720 0.2412
C11 C 0.87629(19) 0.73821(19) 0.25695(10)
H5 H 0.9020 0.6759 0.2878
C12 C 0.95575(18) 0.83333(19) 0.23928(10)
C13 C 1.07798(19) 0.84883(19) 0.25973(10)
H6 H 1.1199 0.7941 0.2895
C14 C 1.12847(19) 0.94950(19) 0.23255(10)
C15 C 0.2759(2) 0.7414(2) 0.10338(11)
C16 C 0.18281(19) 0.8105(2) 0.06203(10)
H7 H 0.2101 0.8191 0.0156
H8 H 0.1748 0.8943 0.0809
C17 C 0.06089(18) 0.7483(2) 0.05968(11)
H9 H 0.0705 0.6612 0.0463
H10 H 0.0288 0.7494 0.1053
C18 C -0.0283(2) 0.8097(2) 0.01095(11)
H11 H 0.0058 0.8125 -0.0341
H12 H -0.0409 0.8956 0.0257
C19 C -0.14843(19) 0.7447(2) 0.00546(10)
H13 H -0.1357 0.6580 -0.0076
H14 H -0.1841 0.7448 0.0502
C20 C -0.2355(2) 0.8041(2) -0.04528(12)
H15 H -0.2468 0.8912 -0.0326
H16 H -0.2001 0.8028 -0.0901
C21 C -0.3565(2) 0.7416(2) -0.05059(13)
H17 H -0.3464 0.6552 -0.0634
H18 H -0.4073 0.7834 -0.0848
H19 H -0.3941 0.7458 -0.0070
C22 C 1.2533(2) 0.99380(19) 0.24054(10)
C23 C 1.33440(19) 0.9232(2) 0.28911(10)
H20 H 1.3405 0.8372 0.2732
H21 H 1.2979 0.9214 0.3336
C24 C 1.45905(18) 0.9768(2) 0.29745(10)
H22 H 1.4532 1.0644 0.3106
H23 H 1.4981 0.9733 0.2538
C25 C 1.5358(2) 0.9086(2) 0.35011(12)
H24 H 1.4956 0.9116 0.3935
H25 H 1.5411 0.8211 0.3366
C26 C 1.66141(18) 0.9594(2) 0.36057(11)
H26 H 1.7032 0.9522 0.3179
H27 H 1.6563 1.0480 0.3717
C27 C 1.7348(2) 0.8950(2) 0.41567(13)
H28 H 1.6934 0.9032 0.4585
H29 H 1.7387 0.8062 0.4048
C28 C 1.8606(2) 0.9436(3) 0.42591(14)
H30 H 1.9047 0.9296 0.3851
H31 H 1.9007 0.9006 0.4638
H32 H 1.8580 1.0320 0.4355
O1 O 0.25617(15) 0.64226(17) 0.12808(10)
O2 O 1.28575(15) 1.08216(15) 0.20863(8)
S1 S 1.02839(5) 1.03122(5) 0.18017(3)
S2 S 0.49828(5) 0.71719(5) 0.16452(3)
loop_
_geom_bond_atom_site_label_1
_geom_bond_atom_site_label_2
_geom_bond_site_symmetry_1
_geom_bond_site_symmetry_2
C1 C2 1_555 1_555
C2 C3 1_555 1_555
C3 H1 1_555 1_555
C4 C3 1_555 1_555
H2 C4 1_555 1_555
C5 C4 1_555 1_555
C6 C5 1_555 1_555
H3 C6 1_555 1_555
C7 C6 1_555 1_555
C8 C5 1_555 1_555
C9 C2 1_555 1_555
C10 C9 1_555 1_555
H4 C10 1_555 1_555
C11 C10 1_555 1_555
H5 C11 1_555 1_555
C12 C1 1_555 1_555
C13 C12 1_555 1_555
H6 C13 1_555 1_555
C14 C13 1_555 1_555
C15 C7 1_555 1_555
C16 C15 1_555 1_555
H7 C16 1_555 1_555
H8 C16 1_555 1_555
C17 C16 1_555 1_555
H9 C17 1_555 1_555
H10 C17 1_555 1_555
C18 C17 1_555 1_555
H11 C18 1_555 1_555
H12 C18 1_555 1_555
C19 C18 1_555 1_555
H13 C19 1_555 1_555
H14 C19 1_555 1_555
C20 C19 1_555 1_555
H15 C20 1_555 1_555
H16 C20 1_555 1_555
C21 C20 1_555 1_555
H17 C21 1_555 1_555
H18 C21 1_555 1_555
H19 C21 1_555 1_555
C22 C14 1_555 1_555
C23 C22 1_555 1_555
H20 C23 1_555 1_555
H21 C23 1_555 1_555
C24 C23 1_555 1_555
H22 C24 1_555 1_555
H23 C24 1_555 1_555
C25 C24 1_555 1_555
H24 C25 1_555 1_555
H25 C25 1_555 1_555
C26 C25 1_555 1_555
H26 C26 1_555 1_555
H27 C26 1_555 1_555
C27 C26 1_555 1_555
H28 C27 1_555 1_555
H29 C27 1_555 1_555
C28 C27 1_555 1_555
H30 C28 1_555 1_555
H31 C28 1_555 1_555
H32 C28 1_555 1_555
O1 C15 1_555 1_555
O2 C22 1_555 1_555
S1 C1 1_555 1_555
S2 C7 1_555 1_555
C8 C9 1_555 1_555
C8 S2 1_555 1_555
C11 C12 1_555 1_555
C14 S1 1_555 1_555

#END
