
#######################################################################
#
#                 Cambridge Crystallographic Data Centre
#                                CCDC 
#
#######################################################################
#
# If this CIF has been generated from an entry in the Cambridge 
# Structural Database, then it will include bibliographic, chemical, 
# crystal, experimental, refinement or atomic coordinate data resulting 
# from the CCDC's data processing and validation procedures.
#
#######################################################################

data_DUZMEQ
_chemical_compound_source        
'heartwood of Tsuga chinensis Pritzel var. formosana'
_chemical_formula_moiety         'C21 H24 O6'
_chemical_name_systematic        (+)-Tsugacetal
_symmetry_cell_setting           monoclinic
_symmetry_space_group_name_H-M   'P 21'
_symmetry_Int_Tables_number      4
_space_group_name_Hall           'P 2yb'
loop_
_symmetry_equiv_pos_site_id
_symmetry_equiv_pos_as_xyz
1 x,y,z
2 -x,1/2+y,-z
_cell_length_a                   12.418(2)
_cell_length_b                   14.465(3)
_cell_length_c                   5.207(1)
_cell_angle_alpha                90
_cell_angle_beta                 91.21(1)
_cell_angle_gamma                90
_cell_volume                     935.106
_exptl_crystal_colour            colorless
_chemical_melting_point          188-190deg.C
_cell_formula_units_Z            2
loop_
_atom_site_label
_atom_site_type_symbol
_atom_site_fract_x
_atom_site_fract_y
_atom_site_fract_z
C1 C 0.6824(2) 0.1671(2) 0.3079(5)
C2 C 0.6316(2) 0.2223(2) 0.4810(6)
C3 C 0.6914(2) 0.2815(2) 0.6411(6)
C4 C 0.8011(2) 0.2848(2) 0.6170(5)
C5 C 0.8545(2) 0.2280(2) 0.4433(5)
C6 C 0.7952(2) 0.1662(2) 0.2902(5)
C7 C 0.8486(2) 0.0980(2) 0.1074(5)
C8 C 0.9655(2) 0.0859(2) 0.1978(5)
C9 C 1.0208(2) 0.1794(2) 0.2160(5)
C10 C 0.9766(2) 0.2360(2) 0.4328(6)
C11 C 0.7883(2) 0.0069(2) 0.0830(5)
C12 C 0.7088(2) -0.0020(2) -0.1100(5)
C13 C 0.6468(2) -0.0809(2) -0.1298(5)
C14 C 0.6671(2) -0.1551(2) 0.0382(6)
C15 C 0.7464(3) -0.1481(2) 0.2251(6)
C16 C 0.8056(2) -0.0671(2) 0.2471(6)
C17 C 1.1396(2) 0.1506(2) 0.2333(6)
C18 C 1.0398(2) 0.0325(2) 0.0242(6)
O1 O 1.1457(2) 0.0699(2) 0.0766(4)
O2 O 1.1667(2) 0.1312(2) 0.4888(4)
O3 O 0.5208(2) 0.2186(2) 0.4970(5)
O4 O 0.6311(2) 0.3315(2) 0.8100(4)
O5 O 0.5648(2) -0.0962(2) -0.3030(4)
O6 O 0.6043(2) -0.2342(2) 0.0143(5)
C19 C 0.5349(3) -0.0222(2) -0.4685(7)
C20 C 0.6876(3) 0.3890(2) 0.9902(6)
C21 C 1.2734(3) 0.0990(3) 0.5239(7)
H1 H 0.5027 0.2435 0.3591
H2 H 0.5827 -0.2269 0.1004
H3 H 0.5083 0.0291 -0.3731
H4 H 0.7298 0.3643 1.0972
H5 H 1.2983 0.1051 0.6466
H6 H 0.6365 0.1191 0.1843
H7 H 0.8463 0.3290 0.7373
H8 H 0.8510 0.1357 -0.0801
H9 H 0.9656 0.0523 0.3877
H10 H 1.0038 0.2143 0.0357
H11 H 1.0125 0.2084 0.6120
H12 H 1.0009 0.3075 0.4168
H13 H 0.6947 0.0551 -0.2443
H14 H 0.7599 -0.2121 0.3427
H15 H 0.8670 -0.0609 0.3963
H16 H 1.1920 0.2058 0.1578
H17 H 1.0145 0.0412 -0.1774
H18 H 1.0351 -0.0419 0.0624
H19 H 0.4774 -0.0451 -0.5900
H20 H 0.6064 -0.0018 -0.5658
H21 H 0.6294 0.4263 1.0932
H22 H 0.7335 0.4385 0.8801
H23 H 1.3251 0.1254 0.3690
H24 H 1.2784 0.0211 0.4864
loop_
_geom_bond_atom_site_label_1
_geom_bond_atom_site_label_2
_geom_bond_site_symmetry_1
_geom_bond_site_symmetry_2
C1 C2 1_555 1_555
C2 C3 1_555 1_555
C3 C4 1_555 1_555
C4 C5 1_555 1_555
C5 C6 1_555 1_555
C6 C1 1_555 1_555
C7 C6 1_555 1_555
C8 C7 1_555 1_555
C9 C8 1_555 1_555
C10 C5 1_555 1_555
C11 C7 1_555 1_555
C12 C11 1_555 1_555
C13 C12 1_555 1_555
C14 C13 1_555 1_555
C15 C14 1_555 1_555
C16 C11 1_555 1_555
C17 C9 1_555 1_555
C18 C8 1_555 1_555
O1 C17 1_555 1_555
O2 C17 1_555 1_555
O3 C2 1_555 1_555
O4 C3 1_555 1_555
O5 C13 1_555 1_555
O6 C14 1_555 1_555
C19 O5 1_555 1_555
C20 O4 1_555 1_555
C21 O2 1_555 1_555
H1 O3 1_555 1_555
H2 O6 1_555 1_555
H3 C19 1_555 1_555
H4 C20 1_555 1_555
H5 C21 1_555 1_555
H6 C1 1_555 1_555
H7 C4 1_555 1_555
H8 C7 1_555 1_555
H9 C8 1_555 1_555
H10 C9 1_555 1_555
H11 C10 1_555 1_555
H12 C10 1_555 1_555
H13 C12 1_555 1_555
H14 C15 1_555 1_555
H15 C16 1_555 1_555
H16 C17 1_555 1_555
H17 C18 1_555 1_555
H18 C18 1_555 1_555
H19 C19 1_555 1_555
H20 C19 1_555 1_555
H21 C20 1_555 1_555
H22 C20 1_555 1_555
H23 C21 1_555 1_555
H24 C21 1_555 1_555
C9 C10 1_555 1_555
C15 C16 1_555 1_555
C18 O1 1_555 1_555

#END
