
#######################################################################
#
#                 Cambridge Crystallographic Data Centre
#                                CCDC 
#
#######################################################################
#
# If this CIF has been generated from an entry in the Cambridge 
# Structural Database, then it will include bibliographic, chemical, 
# crystal, experimental, refinement or atomic coordinate data resulting 
# from the CCDC's data processing and validation procedures.
#
#######################################################################

data_DUZVIF
_chemical_formula_moiety         'C12 H16 Cl1 N1 O3'
_chemical_name_systematic        
4-chloro-2-(((1-hydroxy-2-(hydroxymethyl)butan-2-yl)iminio)methyl)phenolate
_symmetry_cell_setting           orthorhombic
_symmetry_space_group_name_H-M   'P 21 21 21'
_symmetry_Int_Tables_number      19
_space_group_name_Hall           'P 2ac 2ab'
loop_
_symmetry_equiv_pos_site_id
_symmetry_equiv_pos_as_xyz
1 x,y,z
2 1/2-x,-y,1/2+z
3 -x,1/2+y,1/2-z
4 1/2+x,1/2-y,-z
_cell_length_a                   5.9403(7)
_cell_length_b                   8.8025(10)
_cell_length_c                   23.360(3)
_cell_angle_alpha                90
_cell_angle_beta                 90
_cell_angle_gamma                90
_cell_volume                     1221.48
_exptl_crystal_colour            yellow
_exptl_crystal_description       block
_cell_formula_units_Z            4
loop_
_atom_site_label
_atom_site_type_symbol
_atom_site_fract_x
_atom_site_fract_y
_atom_site_fract_z
Cl1 Cl 0.73842(9) 0.44909(5) -0.03521(2)
N1 N 0.8705(2) 0.93304(15) 0.16252(6)
O1 O 1.2204(2) 0.75693(13) 0.15044(5)
O2 O 1.0807(2) 1.04423(15) 0.25901(6)
H1 H 1.2065 1.0778 0.2661
O3 O 0.51881(18) 1.09302(14) 0.27874(5)
H2 H 0.6113 1.1341 0.2997
C1 C 0.8912(3) 0.73644(17) 0.09264(7)
C2 C 1.1119(3) 0.68919(17) 0.10996(7)
C3 C 1.2050(3) 0.56246(19) 0.08030(7)
H3 H 1.3460 0.5266 0.0910
C4 C 1.0934(3) 0.49208(19) 0.03660(8)
H4 H 1.1590 0.4101 0.0179
C5 C 0.8795(3) 0.54369(18) 0.01998(7)
C6 C 0.7798(3) 0.66296(17) 0.04690(6)
H5 H 0.6384 0.6962 0.0352
C7 C 0.7794(3) 0.85743(16) 0.12115(6)
H6 H 0.6346 0.8833 0.1095
C8 C 0.7692(3) 1.05853(16) 0.19602(6)
C9 C 0.9669(3) 1.14493(18) 0.22183(8)
H7 H 1.0675 1.1795 0.1918
H8 H 0.9133 1.2328 0.2429
C10 C 0.6287(3) 0.98441(18) 0.24372(7)
H9 H 0.5167 0.9183 0.2266
H10 H 0.7263 0.9222 0.2674
C11 C 0.6198(3) 1.1610(2) 0.15933(7)
H11 H 0.5027 1.0989 0.1423
H12 H 0.5468 1.2340 0.1843
C12 C 0.7373(4) 1.2474(2) 0.11187(8)
H13 H 0.8240 1.1779 0.0891
H14 H 0.8353 1.3224 0.1282
H15 H 0.6271 1.2965 0.0882
H16 H 1.009(2) 0.897(2) 0.1702(8)
loop_
_geom_bond_atom_site_label_1
_geom_bond_atom_site_label_2
_geom_bond_site_symmetry_1
_geom_bond_site_symmetry_2
Cl1 C5 1_555 1_555
N1 C7 1_555 1_555
O1 C2 1_555 1_555
O2 H1 1_555 1_555
O3 H2 1_555 1_555
C1 C2 1_555 1_555
C2 C3 1_555 1_555
C3 H3 1_555 1_555
C4 C3 1_555 1_555
H4 C4 1_555 1_555
C5 C4 1_555 1_555
C6 C1 1_555 1_555
H5 C6 1_555 1_555
C7 C1 1_555 1_555
H6 C7 1_555 1_555
C8 N1 1_555 1_555
C9 O2 1_555 1_555
H7 C9 1_555 1_555
H8 C9 1_555 1_555
C10 O3 1_555 1_555
H9 C10 1_555 1_555
H10 C10 1_555 1_555
C11 C8 1_555 1_555
H11 C11 1_555 1_555
H12 C11 1_555 1_555
C12 C11 1_555 1_555
H13 C12 1_555 1_555
H14 C12 1_555 1_555
H15 C12 1_555 1_555
H16 N1 1_555 1_555
C5 C6 1_555 1_555
C8 C9 1_555 1_555
C8 C10 1_555 1_555

#END
