
#######################################################################
#
#                 Cambridge Crystallographic Data Centre
#                                CCDC 
#
#######################################################################
#
# If this CIF has been generated from an entry in the Cambridge 
# Structural Database, then it will include bibliographic, chemical, 
# crystal, experimental, refinement or atomic coordinate data resulting 
# from the CCDC's data processing and validation procedures.
#
#######################################################################

data_DUZXUS
_chemical_name_common            (4-isocyanophenyl)acetylacetone
_chemical_formula_moiety         'C12 H11 N1 O2'
_chemical_name_systematic        3-(4-isocyanophenyl)-2,4-pentanedione
_symmetry_cell_setting           monoclinic
_symmetry_space_group_name_H-M   'P 21/c'
_symmetry_Int_Tables_number      14
_space_group_name_Hall           '-P 2ybc'
loop_
_symmetry_equiv_pos_site_id
_symmetry_equiv_pos_as_xyz
1 x,y,z
2 -x,1/2+y,1/2-z
3 -x,-y,-z
4 x,1/2-y,1/2+z
_cell_length_a                   7.0820(15)
_cell_length_b                   11.606(3)
_cell_length_c                   12.427(3)
_cell_angle_alpha                90
_cell_angle_beta                 93.666(13)
_cell_angle_gamma                90
_cell_volume                     1019.33
_exptl_crystal_colour            colorless
_chemical_melting_point          'decomposes at 140 deg.C'
_cell_formula_units_Z            4
_exptl_crystal_recrystallization_method 'ethyl acetate/hexane'
loop_
_atom_site_label
_atom_site_type_symbol
_atom_site_fract_x
_atom_site_fract_y
_atom_site_fract_z
O1 O 0.48611(19) 0.19037(11) 0.49333(10)
O2 O 0.77042(19) 0.07568(13) 0.46542(11)
N1 N 0.1602(2) -0.13001(15) -0.03896(13)
C1 C 0.2040(3) 0.17883(18) 0.38130(16)
H1 H 0.1204 0.1179 0.4051
H2 H 0.1834 0.1892 0.3032
H3 H 0.1761 0.2511 0.4179
C2 C 0.4044(3) 0.14597(16) 0.40816(14)
C3 C 0.5007(3) 0.06601(16) 0.34442(14)
C4 C 0.6844(3) 0.03227(17) 0.37854(15)
C5 C 0.7954(3) -0.05521(19) 0.32081(17)
H4 H 0.9199 -0.0652 0.3589
H5 H 0.8115 -0.0289 0.2470
H6 H 0.7277 -0.1289 0.3187
C6 C 0.4050(3) 0.01584(16) 0.24474(14)
C7 C 0.3281(3) -0.09480(17) 0.24474(15)
H7 H 0.3337 -0.1379 0.3099
C8 C 0.2436(3) -0.14318(17) 0.15173(15)
H8 H 0.1911 -0.2185 0.1529
C9 C 0.2369(3) -0.08012(17) 0.05748(15)
C10 C 0.3088(3) 0.03116(17) 0.05489(15)
H9 H 0.3014 0.0743 -0.0102
C11 C 0.3914(3) 0.07814(17) 0.14887(15)
H10 H 0.4399 0.1544 0.1479
C12 C 0.1027(3) -0.1710(2) -0.11995(17)
H11 H 0.659(5) 0.135(3) 0.496(2)
H12? H 0.7195 -0.0834 0.2575
H13? H 0.8278 -0.1198 0.3694
H14? H 0.9117 -0.0198 0.2977
loop_
_geom_bond_atom_site_label_1
_geom_bond_atom_site_label_2
_geom_bond_site_symmetry_1
_geom_bond_site_symmetry_2
O1 C2 1_555 1_555
O2 C4 1_555 1_555
N1 C9 1_555 1_555
C1 H1 1_555 1_555
H2 C1 1_555 1_555
H3 C1 1_555 1_555
C2 C1 1_555 1_555
C3 C2 1_555 1_555
C4 C3 1_555 1_555
C5 C4 1_555 1_555
H4 C5 1_555 1_555
H5 C5 1_555 1_555
H6 C5 1_555 1_555
C6 C3 1_555 1_555
C7 C6 1_555 1_555
H7 C7 1_555 1_555
C8 C7 1_555 1_555
H8 C8 1_555 1_555
C9 C8 1_555 1_555
C10 C9 1_555 1_555
H9 C10 1_555 1_555
C11 C6 1_555 1_555
H10 C11 1_555 1_555
C12 N1 1_555 1_555
H11 O2 1_555 1_555
C10 C11 1_555 1_555

#END
