
#######################################################################
#
#                 Cambridge Crystallographic Data Centre
#                                CCDC 
#
#######################################################################
#
# If this CIF has been generated from an entry in the Cambridge 
# Structural Database, then it will include bibliographic, chemical, 
# crystal, experimental, refinement or atomic coordinate data resulting 
# from the CCDC's data processing and validation procedures.
#
#######################################################################

data_DUZYEE
_chemical_compound_source        'Walsura cochinchinensis'
_chemical_name_common            'Cochinchinoid A methanol solvate'
_chemical_formula_moiety         'C36 H50 O9,C1 H4 O1'
_chemical_name_systematic        
'17-(3-furyl)-3,17-dihydroxy-4,8,10-trimethyl-16-oxo-6,19-epoxy-4,9-cyclo-9,10-secoandrost-14-ene-1,7-diyl bis(2-methylbutanoate) methanol solvate'
_symmetry_cell_setting           orthorhombic
_symmetry_space_group_name_H-M   'P 21 21 21'
_symmetry_Int_Tables_number      19
_space_group_name_Hall           'P 2ac 2ab'
loop_
_symmetry_equiv_pos_site_id
_symmetry_equiv_pos_as_xyz
1 x,y,z
2 1/2+x,1/2-y,-z
3 -x,1/2+y,1/2-z
4 1/2-x,-y,1/2+z
_cell_length_a                   7.70920(10)
_cell_length_b                   13.8740(2)
_cell_length_c                   33.2989(5)
_cell_angle_alpha                90
_cell_angle_beta                 90
_cell_angle_gamma                90
_cell_volume                     3561.57
_exptl_crystal_colour            colorless
_exptl_crystal_description       prism
_cell_formula_units_Z            4
loop_
_atom_site_label
_atom_site_type_symbol
_atom_site_fract_x
_atom_site_fract_y
_atom_site_fract_z
O1 O 0.62485(18) 0.58468(11) 0.84734(4)
H1 H 0.7334 0.5820 0.8492
O2 O 0.4002(2) 0.41356(10) 0.85682(5)
O3 O -0.01651(18) 0.57377(12) 0.83971(5)
O4 O 0.16169(17) 0.71505(10) 0.88584(4)
O5 O -0.1072(2) 0.74738(17) 0.90775(5)
O6 O 0.1887(3) 1.09156(15) 0.90767(7)
O7 O 0.4723(3) 1.07386(11) 0.84193(5)
H2 H 0.4775 1.1330 0.8471
O8 O 0.6736(3) 1.11220(13) 0.96909(5)
C1 C 0.5761(3) 0.57884(16) 0.80628(6)
H3 H 0.6752 0.6022 0.7895
C2 C 0.5379(3) 0.47268(17) 0.79490(7)
H4 H 0.5259 0.4690 0.7653
H5 H 0.6401 0.4334 0.8024
C3 C 0.3763(3) 0.42622(16) 0.81386(6)
H6 H 0.3558 0.3619 0.8012
C4 C 0.2163(3) 0.48985(17) 0.80758(7)
C5 C 0.2670(2) 0.59315(15) 0.81907(6)
H7 H 0.3051 0.5880 0.8477
C6 C 0.0954(3) 0.64418(16) 0.82129(6)
H8 H 0.0533 0.6588 0.7936
C7 C 0.1124(3) 0.73684(15) 0.84498(6)
H9 H 0.0000 0.7728 0.8447
C8 C 0.2579(3) 0.79985(16) 0.82666(6)
C9 C 0.4318(3) 0.74162(15) 0.82212(6)
H10 H 0.4633 0.7219 0.8501
C10 C 0.4163(3) 0.64500(16) 0.79824(6)
C11 C 0.5798(3) 0.80746(18) 0.80853(7)
H11 H 0.6858 0.7682 0.8049
H12 H 0.5496 0.8356 0.7821
C12 C 0.6186(3) 0.88850(18) 0.83773(8)
H13 H 0.6424 0.9477 0.8221
H14 H 0.7259 0.8721 0.8526
C13 C 0.4758(3) 0.91120(14) 0.86844(6)
C14 C 0.2928(3) 0.88531(15) 0.85396(6)
C15 C 0.1740(3) 0.94647(17) 0.86796(7)
H15 H 0.0522 0.9386 0.8650
C16 C 0.2572(3) 1.02710(17) 0.88836(8)
C17 C 0.4531(3) 1.02044(15) 0.87861(6)
C18 C 0.5085(3) 0.85614(16) 0.90794(7)
H16 H 0.5234 0.7874 0.9021
H17 H 0.4094 0.8650 0.9260
H18 H 0.6137 0.8811 0.9208
C19 C 0.3980(3) 0.65898(19) 0.75231(6)
H19 H 0.2977 0.7003 0.7467
H20 H 0.3813 0.5962 0.7394
H21 H 0.5033 0.6893 0.7417
C20 C 0.5708(3) 1.05892(15) 0.91044(7)
C21 C 0.5298(4) 1.08263(17) 0.94860(7)
H22 H 0.4164 1.0792 0.9597
C22 C 0.7530(3) 1.07627(18) 0.90685(8)
H23 H 0.8223 1.0673 0.8835
C23 C 0.8067(4) 1.10748(19) 0.94268(9)
H24 H 0.9232 1.1242 0.9488
C24 C 0.0632(3) 0.47880(17) 0.83688(8)
H25 H -0.0212 0.4310 0.8266
H26 H 0.1046 0.4573 0.8636
C25 C 0.1497(3) 0.47507(19) 0.76426(7)
H27 H 0.2463 0.4821 0.7454
H28 H 0.0606 0.5234 0.7582
H29 H 0.0998 0.4104 0.7617
C26 C 0.1883(3) 0.84397(19) 0.78719(7)
H30 H 0.0851 0.8828 0.7929
H31 H 0.1579 0.7922 0.7685
H32 H 0.2779 0.8849 0.7751
C27 C 0.0403(3) 0.72553(15) 0.91457(6)
C28 C 0.1149(3) 0.70391(16) 0.95547(6)
H33 H 0.2423 0.7173 0.9551
C29 C 0.0292(4) 0.76736(19) 0.98734(7)
H34 H -0.0976 0.7564 0.9866
H35 H 0.0714 0.7472 1.0141
C30 C 0.0636(4) 0.8734(2) 0.98216(9)
H36 H 0.0041 0.9094 1.0034
H37 H 0.0204 0.8944 0.9559
H38 H 0.1887 0.8855 0.9838
C31 C 0.0860(5) 0.59698(19) 0.96447(9)
H39 H 0.1428 0.5579 0.9438
H40 H -0.0387 0.5832 0.9646
H41 H 0.1353 0.5813 0.9908
O9 O 0.5098(16) 0.2655(9) 0.8468(4)
C32 C 0.484(2) 0.3357(8) 0.8680(3)
C33 C 0.4722(9) 0.3248(6) 0.9143(3)
H42 H 0.5289 0.2623 0.9216
C34 C 0.5822(9) 0.4054(4) 0.93189(17)
H43 H 0.5309 0.4681 0.9241
H44 H 0.5785 0.4010 0.9616
C35 C 0.7627(15) 0.4033(9) 0.9189(4)
H45 H 0.8255 0.4573 0.9311
H46 H 0.7679 0.4089 0.8896
H47 H 0.8160 0.3424 0.9273
C36 C 0.2886(8) 0.3240(4) 0.93249(15)
H48 H 0.2955 0.3072 0.9610
H49 H 0.2172 0.2762 0.9184
H50 H 0.2362 0.3879 0.9296
C42 C 0.0518(6) 0.1882(4) 0.81551(14)
H60 H 0.1146 0.2262 0.8356
H61 H -0.0147 0.1374 0.8290
H62 H -0.0276 0.2303 0.8006
O11 O 0.1717(5) 0.1459(5) 0.78852(10)
H63 H 0.2559 0.1233 0.8015
O10? O 0.544(2) 0.2778(11) 0.8449(6)
C37? C 0.464(4) 0.3265(14) 0.8705(5)
C38? C 0.5340(12) 0.3362(9) 0.9131(4)
H51? H 0.5414 0.2692 0.9240
C39? C 0.7716(13) 0.3737(6) 0.9614(2)
H52? H 0.8875 0.4023 0.9636
H53? H 0.7762 0.3061 0.9699
H54? H 0.6907 0.4091 0.9786
C40? C 0.3946(14) 0.3852(9) 0.9365(2)
H55? H 0.4211 0.3811 0.9652
H56? H 0.2833 0.3537 0.9312
H57? H 0.3879 0.4531 0.9285
C41? C 0.7110(18) 0.3792(10) 0.9184(4)
H58? H 0.7085 0.4475 0.9098
H59? H 0.7944 0.3445 0.9010
loop_
_geom_bond_atom_site_label_1
_geom_bond_atom_site_label_2
_geom_bond_site_symmetry_1
_geom_bond_site_symmetry_2
O1 H1 1_555 1_555
O2 C3 1_555 1_555
O3 C6 1_555 1_555
O4 C7 1_555 1_555
O5 C27 1_555 1_555
O6 C16 1_555 1_555
O7 H2 1_555 1_555
O8 C21 1_555 1_555
C1 O1 1_555 1_555
H3 C1 1_555 1_555
C2 C1 1_555 1_555
H4 C2 1_555 1_555
H5 C2 1_555 1_555
C3 C2 1_555 1_555
H6 C3 1_555 1_555
C4 C3 1_555 1_555
C5 C4 1_555 1_555
H7 C5 1_555 1_555
C6 C5 1_555 1_555
H8 C6 1_555 1_555
C7 C6 1_555 1_555
H9 C7 1_555 1_555
C8 C7 1_555 1_555
C9 C8 1_555 1_555
H10 C9 1_555 1_555
C10 C1 1_555 1_555
C11 C9 1_555 1_555
H11 C11 1_555 1_555
H12 C11 1_555 1_555
C12 C11 1_555 1_555
H13 C12 1_555 1_555
H14 C12 1_555 1_555
C13 C12 1_555 1_555
C14 C8 1_555 1_555
C15 C14 1_555 1_555
H15 C15 1_555 1_555
C16 C15 1_555 1_555
C17 O7 1_555 1_555
C18 C13 1_555 1_555
H16 C18 1_555 1_555
H17 C18 1_555 1_555
H18 C18 1_555 1_555
C19 C10 1_555 1_555
H19 C19 1_555 1_555
H20 C19 1_555 1_555
H21 C19 1_555 1_555
C20 C17 1_555 1_555
C21 C20 1_555 1_555
H22 C21 1_555 1_555
C22 C20 1_555 1_555
H23 C22 1_555 1_555
C23 O8 1_555 1_555
H24 C23 1_555 1_555
C24 O3 1_555 1_555
H25 C24 1_555 1_555
H26 C24 1_555 1_555
C25 C4 1_555 1_555
H27 C25 1_555 1_555
H28 C25 1_555 1_555
H29 C25 1_555 1_555
C26 C8 1_555 1_555
H30 C26 1_555 1_555
H31 C26 1_555 1_555
H32 C26 1_555 1_555
C27 O4 1_555 1_555
C28 C27 1_555 1_555
H33 C28 1_555 1_555
C29 C28 1_555 1_555
H34 C29 1_555 1_555
H35 C29 1_555 1_555
C30 C29 1_555 1_555
H36 C30 1_555 1_555
H37 C30 1_555 1_555
H38 C30 1_555 1_555
C31 C28 1_555 1_555
H39 C31 1_555 1_555
H40 C31 1_555 1_555
H41 C31 1_555 1_555
O9 C32 1_555 1_555
C32 O2 1_555 1_555
C33 C32 1_555 1_555
H42 C33 1_555 1_555
C34 C33 1_555 1_555
H43 C34 1_555 1_555
H44 C34 1_555 1_555
C35 C34 1_555 1_555
H45 C35 1_555 1_555
H46 C35 1_555 1_555
H47 C35 1_555 1_555
C36 C33 1_555 1_555
H48 C36 1_555 1_555
H49 C36 1_555 1_555
H50 C36 1_555 1_555
C42 H60 1_555 1_555
H61 C42 1_555 1_555
H62 C42 1_555 1_555
O11 C42 1_555 1_555
H63 O11 1_555 1_555
C4 C24 1_555 1_555
C5 C10 1_555 1_555
C9 C10 1_555 1_555
C13 C14 1_555 1_555
C13 C17 1_555 1_555
C16 C17 1_555 1_555
C22 C23 1_555 1_555

#END
