
#######################################################################
#
#                 Cambridge Crystallographic Data Centre
#                                CCDC 
#
#######################################################################
#
# If this CIF has been generated from an entry in the Cambridge 
# Structural Database, then it will include bibliographic, chemical, 
# crystal, experimental, refinement or atomic coordinate data resulting 
# from the CCDC's data processing and validation procedures.
#
#######################################################################

data_DUZYON
_chemical_name_common            
(4RS,5RS)-4-acetyl-4-methyl-5-(4-nitrophenyl)-2,2,2-trimethoxy-1,3,2-dioxaphospholane
_chemical_formula_moiety         'C14 H20 N1 O8 P1'
_chemical_name_systematic        
1-(2,2,2-Trimethoxy-4-methyl-5-(4-nitrophenyl)-1,3,2\l^5^-dioxaphospholan-4-yl)ethanone
_symmetry_cell_setting           orthorhombic
_symmetry_space_group_name_H-M   'P c a 21'
_symmetry_Int_Tables_number      29
_space_group_name_Hall           'P 2c -2ac'
loop_
_symmetry_equiv_pos_site_id
_symmetry_equiv_pos_as_xyz
1 x,y,z
2 -x,-y,1/2+z
3 1/2-x,y,1/2+z
4 1/2+x,-y,z
_cell_length_a                   13.383(2)
_cell_length_b                   17.884(2)
_cell_length_c                   13.509(3)
_cell_angle_alpha                90
_cell_angle_beta                 90
_cell_angle_gamma                90
_cell_volume                     3233.27
_exptl_crystal_colour            colorless
_chemical_melting_point          '341 K'
_cell_formula_units_Z            8
loop_
_atom_site_label
_atom_site_type_symbol
_atom_site_fract_x
_atom_site_fract_y
_atom_site_fract_z
P1 P 0.64493(4) 0.36033(3) 0.37174(3)
O1 O 0.44859(13) 0.33611(10) 0.97246(12)
O2 O 0.29417(12) 0.34422(9) 0.92587(13)
O3 O 0.60089(10) 0.32978(8) 0.48261(11)
O4 O 0.56941(10) 0.43198(8) 0.37915(11)
O5 O 0.65578(11) 0.49656(8) 0.53194(12)
O6 O 0.75759(11) 0.35778(7) 0.41074(11)
O7 O 0.60375(11) 0.28515(8) 0.32332(11)
O8 O 0.68353(10) 0.39277(8) 0.26434(10)
N1 N 0.38415(14) 0.34086(10) 0.90787(14)
C1 C 0.41620(16) 0.34237(11) 0.80380(16)
C2 C 0.51767(16) 0.34158(11) 0.78239(16)
C3 C 0.54625(15) 0.34375(11) 0.68323(16)
C4 C 0.47473(15) 0.34690(11) 0.60861(16)
C5 C 0.37321(16) 0.34572(12) 0.63316(16)
C6 C 0.34366(16) 0.34382(12) 0.73149(17)
C7 C 0.50390(15) 0.35612(11) 0.50148(16)
C8 C 0.50914(14) 0.43872(12) 0.46640(15)
C9 C 0.40886(16) 0.47105(13) 0.43638(17)
C10 C 0.56623(16) 0.48818(11) 0.54068(16)
C11 C 0.50887(17) 0.52606(13) 0.62325(18)
C12 C 0.79025(16) 0.33475(13) 0.50712(16)
C13 C 0.62106(17) 0.26207(13) 0.22341(16)
C14 C 0.73465(15) 0.46271(11) 0.25861(16)
H1 H 0.5661 0.3396 0.8337
H2 H 0.6152 0.3431 0.6664
H3 H 0.3243 0.3462 0.5822
H4 H 0.2748 0.3435 0.7486
H5 H 0.4554 0.3282 0.4590
H6 H 0.4184 0.5215 0.4099
H7 H 0.3649 0.4733 0.4943
H8 H 0.3785 0.4392 0.3856
H9 H 0.5559 0.5450 0.6729
H10 H 0.4635 0.4899 0.6542
H11 H 0.4701 0.5678 0.5961
H12 H 0.7677 0.3712 0.5565
H13 H 0.8634 0.3318 0.5082
H14 H 0.7620 0.2855 0.5225
H15 H 0.5861 0.2959 0.1781
H16 H 0.5961 0.2110 0.2142
H17 H 0.6929 0.2634 0.2094
H18 H 0.7041 0.4982 0.3048
H19 H 0.7299 0.4823 0.1911
H20 H 0.8051 0.4555 0.2760
P2 P 0.35066(4) 0.14160(3) 0.31888(4)
O9 O 0.70934(12) 0.16102(10) 0.86824(13)
O10 O 0.55587(13) 0.16934(10) 0.91769(12)
O11 O 0.39498(10) 0.16966(8) 0.43084(11)
O12 O 0.42704(10) 0.07044(8) 0.32260(11)
O13 O 0.33985(11) 0.00075(8) 0.47061(12)
O14 O 0.23815(11) 0.14170(8) 0.35891(11)
O15 O 0.38955(11) 0.21850(8) 0.27362(11)
O16 O 0.31145(10) 0.11142(8) 0.21051(11)
N2 N 0.61901(14) 0.16220(10) 0.85260(14)
C15 C 0.58469(16) 0.15598(11) 0.74909(16)
C16 C 0.65566(16) 0.14990(11) 0.67568(17)
C17 C 0.62459(16) 0.14818(11) 0.57777(16)
C18 C 0.52259(15) 0.15045(10) 0.55485(16)
C19 C 0.45261(15) 0.15641(11) 0.63084(16)
C20 C 0.48304(16) 0.15927(11) 0.72930(16)
C21 C 0.49241(15) 0.14294(11) 0.44836(16)
C22 C 0.48655(15) 0.06097(11) 0.40999(15)
C23 C 0.58658(16) 0.02839(13) 0.37882(16)
C24 C 0.42887(15) 0.01021(11) 0.48169(16)
C25 C 0.48445(17) -0.02798(12) 0.56525(17)
C26 C 0.20664(16) 0.15832(13) 0.45834(17)
C27 C 0.37731(17) 0.24242(13) 0.17242(16)
C28 C 0.26363(16) 0.04013(11) 0.20280(17)
H21 H 0.7246 0.1469 0.6918
H22 H 0.6726 0.1455 0.5261
H23 H 0.3834 0.1586 0.6153
H24 H 0.4356 0.1633 0.7814
H25 H 0.5405 0.1716 0.4063
H26 H 0.5761 -0.0210 0.3491
H27 H 0.6299 0.0236 0.4369
H28 H 0.6182 0.0616 0.3303
H29 H 0.4367 -0.0439 0.6161
H30 H 0.5326 0.0070 0.5943
H31 H 0.5200 -0.0717 0.5394
H32 H 0.2289 0.1184 0.5029
H33 H 0.1336 0.1619 0.4605
H34 H 0.2360 0.2059 0.4794
H35 H 0.4152 0.2092 0.1286
H36 H 0.4021 0.2937 0.1652
H37 H 0.3064 0.2407 0.1546
H38 H 0.2933 0.0055 0.2507
H39 H 0.2727 0.0204 0.1357
H40 H 0.1921 0.0456 0.2166
loop_
_geom_bond_atom_site_label_1
_geom_bond_atom_site_label_2
_geom_bond_site_symmetry_1
_geom_bond_site_symmetry_2
P1 O3 1_555 1_555
P2 O11 1_555 1_555
O1 N1 1_555 1_555
O2 N1 1_555 1_555
O3 C7 1_555 1_555
O4 P1 1_555 1_555
O5 C10 1_555 1_555
O6 P1 1_555 1_555
O7 P1 1_555 1_555
O8 P1 1_555 1_555
O9 N2 1_555 1_555
O10 N2 1_555 1_555
O11 C21 1_555 1_555
O12 P2 1_555 1_555
O13 C24 1_555 1_555
O14 P2 1_555 1_555
O15 P2 1_555 1_555
O16 P2 1_555 1_555
N1 C1 1_555 1_555
N2 C15 1_555 1_555
C1 C2 1_555 1_555
C2 C3 1_555 1_555
C3 C4 1_555 1_555
C4 C5 1_555 1_555
C5 C6 1_555 1_555
C6 C1 1_555 1_555
C7 C4 1_555 1_555
C8 O4 1_555 1_555
C9 C8 1_555 1_555
C10 C8 1_555 1_555
C11 C10 1_555 1_555
C12 O6 1_555 1_555
C13 O7 1_555 1_555
C14 O8 1_555 1_555
C15 C16 1_555 1_555
C16 C17 1_555 1_555
C17 C18 1_555 1_555
C18 C19 1_555 1_555
C19 C20 1_555 1_555
C20 C15 1_555 1_555
C21 C18 1_555 1_555
C22 O12 1_555 1_555
C23 C22 1_555 1_555
C24 C22 1_555 1_555
C25 C24 1_555 1_555
C26 O14 1_555 1_555
C27 O15 1_555 1_555
C28 O16 1_555 1_555
H1 C2 1_555 1_555
H2 C3 1_555 1_555
H3 C5 1_555 1_555
H4 C6 1_555 1_555
H5 C7 1_555 1_555
H6 C9 1_555 1_555
H7 C9 1_555 1_555
H8 C9 1_555 1_555
H9 C11 1_555 1_555
H10 C11 1_555 1_555
H11 C11 1_555 1_555
H12 C12 1_555 1_555
H13 C12 1_555 1_555
H14 C12 1_555 1_555
H15 C13 1_555 1_555
H16 C13 1_555 1_555
H17 C13 1_555 1_555
H18 C14 1_555 1_555
H19 C14 1_555 1_555
H20 C14 1_555 1_555
H21 C16 1_555 1_555
H22 C17 1_555 1_555
H23 C19 1_555 1_555
H24 C20 1_555 1_555
H25 C21 1_555 1_555
H26 C23 1_555 1_555
H27 C23 1_555 1_555
H28 C23 1_555 1_555
H29 C25 1_555 1_555
H30 C25 1_555 1_555
H31 C25 1_555 1_555
H32 C26 1_555 1_555
H33 C26 1_555 1_555
H34 C26 1_555 1_555
H35 C27 1_555 1_555
H36 C27 1_555 1_555
H37 C27 1_555 1_555
H38 C28 1_555 1_555
H39 C28 1_555 1_555
H40 C28 1_555 1_555
C7 C8 1_555 1_555
C21 C22 1_555 1_555

#END
