
#######################################################################
#
#                 Cambridge Crystallographic Data Centre
#                                CCDC 
#
#######################################################################
#
# If this CIF has been generated from an entry in the Cambridge 
# Structural Database, then it will include bibliographic, chemical, 
# crystal, experimental, refinement or atomic coordinate data resulting 
# from the CCDC's data processing and validation procedures.
#
#######################################################################

data_DUZYED
_chemical_name_common            (Z)-4-(formamidophenyl)acetylacetone
_chemical_formula_moiety         'C12 H13 N1 O3'
_chemical_name_systematic        (Z)-3-(4-formamidophenyl)-2,4-pentanedione
_symmetry_cell_setting           monoclinic
_symmetry_space_group_name_H-M   'P 21/c'
_symmetry_Int_Tables_number      14
_space_group_name_Hall           '-P 2ybc'
loop_
_symmetry_equiv_pos_site_id
_symmetry_equiv_pos_as_xyz
1 x,y,z
2 -x,1/2+y,1/2-z
3 -x,-y,-z
4 x,1/2-y,1/2+z
_cell_length_a                   13.289(2)
_cell_length_b                   7.5180(15)
_cell_length_c                   11.561(2)
_cell_angle_alpha                90
_cell_angle_beta                 111.153(8)
_cell_angle_gamma                90
_cell_volume                     1077.2
_exptl_crystal_colour            colorless
_chemical_melting_point          '124 deg.C'
_cell_formula_units_Z            4
loop_
_atom_site_label
_atom_site_type_symbol
_atom_site_fract_x
_atom_site_fract_y
_atom_site_fract_z
O1 O 0.46855(8) 0.65084(13) 0.40580(9)
O2 O 0.41601(8) 0.36355(14) 0.29668(10)
H1 H 0.4496(15) 0.457(3) 0.3614(18)
O3 O -0.12517(8) 0.82417(13) -0.25550(10)
N1 N 0.02198(9) 1.00858(15) -0.19461(10)
H2 H 0.0457 1.1095 -0.2137
C1 C 0.38440(12) 0.9260(2) 0.32921(15)
H3 H 0.4117 0.9590 0.4171
H4 H 0.3077 0.9569 0.2920
H5 H 0.4248 0.9905 0.2864
C2 C 0.39804(11) 0.72951(19) 0.31714(13)
C3 C 0.33188(11) 0.63342(18) 0.20813(13)
C4 C 0.34604(11) 0.45214(19) 0.20299(13)
C5 C 0.28771(10) 0.33518(11) 0.09537(8)
H6 H 0.3401 0.2649 0.0730
H7 H 0.2453 0.4087 0.0246
H8 H 0.2395 0.2551 0.1179
C6 C 0.24975(7) 0.72940(11) 0.10321(8)
C7 C 0.28050(8) 0.84931(11) 0.03007(8)
H9 H 0.3551 0.8701 0.0478
C8 C 0.20545(11) 0.93858(18) -0.06743(13)
H10 H 0.2287 1.0193 -0.1159
C9 C 0.09585(11) 0.91039(17) -0.09477(13)
C10 C 0.06246(11) 0.79314(19) -0.02236(13)
H11 H -0.0122 0.7740 -0.0396
C11 C 0.13927(11) 0.70454(18) 0.07523(13)
H12 H 0.1161 0.6248 0.1243
C12 C -0.07995(12) 0.96393(19) -0.26269(14)
H13 H -0.1211 1.0484 -0.3221
loop_
_geom_bond_atom_site_label_1
_geom_bond_atom_site_label_2
_geom_bond_site_symmetry_1
_geom_bond_site_symmetry_2
O1 C2 1_555 1_555
O2 H1 1_555 1_555
O3 C12 1_555 1_555
N1 H2 1_555 1_555
C1 H3 1_555 1_555
H4 C1 1_555 1_555
H5 C1 1_555 1_555
C2 C1 1_555 1_555
C3 C2 1_555 1_555
C4 O2 1_555 1_555
C5 C4 1_555 1_555
H6 C5 1_555 1_555
H7 C5 1_555 1_555
H8 C5 1_555 1_555
C6 C3 1_555 1_555
C7 C6 1_555 1_555
H9 C7 1_555 1_555
C8 C7 1_555 1_555
H10 C8 1_555 1_555
C9 N1 1_555 1_555
C10 C9 1_555 1_555
H11 C10 1_555 1_555
C11 C6 1_555 1_555
H12 C11 1_555 1_555
C12 N1 1_555 1_555
H13 C12 1_555 1_555
C3 C4 1_555 1_555
C8 C9 1_555 1_555
C10 C11 1_555 1_555

#END
