
#######################################################################
#
#                 Cambridge Crystallographic Data Centre
#                                CCDC 
#
#######################################################################
#
# If this CIF has been generated from an entry in the Cambridge 
# Structural Database, then it will include bibliographic, chemical, 
# crystal, experimental, refinement or atomic coordinate data resulting 
# from the CCDC's data processing and validation procedures.
#
#######################################################################

data_DUZYAZ
_chemical_name_common            (E)-(4-formamidophenyl)acetylacetone
_chemical_formula_moiety         'C12 H13 N1 O3'
_chemical_name_systematic        (E)-3-(4-formamidophenyl)-2,4-pentanedione
_symmetry_cell_setting           monoclinic
_symmetry_space_group_name_H-M   'C 2/c'
_symmetry_Int_Tables_number      15
_space_group_name_Hall           '-C 2yn'
loop_
_symmetry_equiv_pos_site_id
_symmetry_equiv_pos_as_xyz
1 x,y,z
2 -x,y,1/2-z
3 1/2+x,1/2+y,z
4 1/2-x,1/2+y,1/2-z
5 -x,-y,-z
6 x,-y,1/2+z
7 1/2-x,1/2-y,-z
8 1/2+x,1/2-y,1/2+z
_cell_length_a                   14.379(3)
_cell_length_b                   10.339(2)
_cell_length_c                   14.974(4)
_cell_angle_alpha                90
_cell_angle_beta                 91.296(15)
_cell_angle_gamma                90
_cell_volume                     2225.53
_exptl_crystal_colour            'light yellow'
_exptl_crystal_description       blade
_cell_formula_units_Z            8
loop_
_atom_site_label
_atom_site_type_symbol
_atom_site_fract_x
_atom_site_fract_y
_atom_site_fract_z
O1 O 0.22209(9) 0.46187(12) 0.00996(8)
O2 O 0.36443(9) 0.33058(13) 0.03578(8)
O3 O 0.06493(8) 0.08075(12) 0.59632(7)
N1 N 0.07249(11) 0.12175(15) 0.44760(9)
H1 H 0.0295(13) 0.0583(19) 0.4361(11)
C1 C 0.09266(15) 0.4560(2) 0.10537(14)
H2 H 0.0697 0.5221 0.0634
H3 H 0.0934 0.4912 0.1662
H4 H 0.0517 0.3803 0.1023
C2 C 0.18922(13) 0.41708(18) 0.08122(11)
C3 C 0.24121(12) 0.33038(16) 0.13770(10)
C4 C 0.32825(12) 0.29099(17) 0.11199(11)
C5 C 0.38992(13) 0.2023(2) 0.16404(12)
H5 H 0.3889 0.1165 0.1363
H6 H 0.3680 0.1958 0.2254
H7 H 0.4536 0.2361 0.1648
C6 C 0.19900(11) 0.27713(16) 0.22010(10)
C7 C 0.15198(12) 0.15957(16) 0.21747(11)
H8 H 0.1475 0.1131 0.1628
C8 C 0.11164(12) 0.10901(16) 0.29262(10)
H9 H 0.0808 0.0278 0.2894
C9 C 0.11596(11) 0.17618(16) 0.37267(11)
C10 C 0.16162(12) 0.29487(17) 0.37662(11)
H10 H 0.1642 0.3426 0.4308
C11 C 0.20330(12) 0.34290(17) 0.30089(11)
H11 H 0.2356 0.4229 0.3044
C12 C 0.09895(13) 0.13862(17) 0.53295(11)
H12 H 0.1472 0.1992 0.5456
H13 H 0.310(2) 0.395(3) 0.0111(16)
loop_
_geom_bond_atom_site_label_1
_geom_bond_atom_site_label_2
_geom_bond_site_symmetry_1
_geom_bond_site_symmetry_2
O1 C2 1_555 1_555
O2 C4 1_555 1_555
O3 C12 1_555 1_555
N1 H1 1_555 1_555
C1 H2 1_555 1_555
H3 C1 1_555 1_555
H4 C1 1_555 1_555
C2 C1 1_555 1_555
C3 C2 1_555 1_555
C4 C3 1_555 1_555
C5 C4 1_555 1_555
H5 C5 1_555 1_555
H6 C5 1_555 1_555
H7 C5 1_555 1_555
C6 C3 1_555 1_555
C7 C6 1_555 1_555
H8 C7 1_555 1_555
C8 C7 1_555 1_555
H9 C8 1_555 1_555
C9 N1 1_555 1_555
C10 C9 1_555 1_555
H10 C10 1_555 1_555
C11 C6 1_555 1_555
H11 C11 1_555 1_555
C12 N1 1_555 1_555
H12 C12 1_555 1_555
H13 O2 1_555 1_555
C8 C9 1_555 1_555
C10 C11 1_555 1_555

#END
