
#######################################################################
#
#                 Cambridge Crystallographic Data Centre
#                                CCDC 
#
#######################################################################
#
# If this CIF has been generated from an entry in the Cambridge 
# Structural Database, then it will include bibliographic, chemical, 
# crystal, experimental, refinement or atomic coordinate data resulting 
# from the CCDC's data processing and validation procedures.
#
#######################################################################

data_DXCHAC01
_chemical_formula_moiety         'C24 H40 O4,0.6(C3 H6 O1)'
_chemical_name_systematic        'Deoxycholic acid acetone clathrate'
_symmetry_cell_setting           orthorhombic
_symmetry_space_group_name_H-M   'P 21 21 21'
_symmetry_Int_Tables_number      19
_space_group_name_Hall           'P 2ac 2ab'
loop_
_symmetry_equiv_pos_site_id
_symmetry_equiv_pos_as_xyz
1 x,y,z
2 1/2+x,1/2-y,-z
3 -x,1/2+y,1/2-z
4 1/2-x,-y,1/2+z
_cell_length_a                   25.416(4)
_cell_length_b                   13.514(4)
_cell_length_c                   7.194(6)
_cell_angle_alpha                90
_cell_angle_beta                 90
_cell_angle_gamma                90
_cell_volume                     2470.94
_chemical_melting_point          170-175deg.C
_cell_formula_units_Z            4
loop_
_atom_site_label
_atom_site_type_symbol
_atom_site_fract_x
_atom_site_fract_y
_atom_site_fract_z
C1 C 0.1229(3) 0.2170(4) 0.3542(9)
C2 C 0.0677(3) 0.1897(4) 0.2946(8)
C3 C 0.0698(3) 0.1181(4) 0.1363(9)
C4 C 0.0996(3) 0.1619(4) -0.0275(8)
C5 C 0.1556(3) 0.1927(4) 0.0289(9)
C6 C 0.1861(3) 0.2365(4) -0.1371(10)
C7 C 0.1660(3) 0.3380(4) -0.1938(9)
C8 C 0.1637(3) 0.4101(4) -0.0305(9)
C9 C 0.1332(3) 0.3660(4) 0.1344(9)
C10 C 0.1558(3) 0.2649(4) 0.1975(9)
C11 C 0.1260(3) 0.4420(4) 0.2915(8)
C12 C 0.1013(3) 0.5396(4) 0.2253(8)
C13 C 0.1337(3) 0.5862(4) 0.0662(8)
C14 C 0.1382(3) 0.5077(4) -0.0900(9)
C15 C 0.1628(3) 0.5648(4) -0.2491(9)
C16 C 0.1373(3) 0.6687(4) -0.2330(9)
C17 C 0.1079(3) 0.6714(4) -0.0443(8)
C18 C 0.1868(3) 0.6189(4) 0.1443(9)
C19 C 0.2122(3) 0.2764(5) 0.2726(11)
C20 C 0.1078(3) 0.7775(4) 0.0380(8)
C21 C 0.0802(3) 0.7850(4) 0.2240(9)
C22 C 0.0846(3) 0.8529(5) -0.1020(9)
C23 C 0.0285(3) 0.8357(5) -0.1568(9)
C24 C 0.0089(3) 0.9161(4) -0.2876(8)
O1 O 0.0165(2) 0.0952(3) 0.0830(6)
O2 O 0.0481(2) 0.5205(3) 0.1641(6)
O3 O 0.0084(2) 1.0045(3) -0.2482(6)
O4 O -0.0072(2) 0.8832(3) -0.4473(7)
H1 H 0.1258 0.2577 0.4637
H2 H 0.1419 0.1534 0.3820
H3 H 0.0495 0.1587 0.3995
H4 H 0.0441 0.2478 0.2348
H5 H 0.0884 0.0548 0.1588
H6 H 0.0781 0.2228 -0.0712
H7 H 0.0974 0.1069 -0.1158
H8 H 0.1743 0.1355 0.0801
H9 H 0.2224 0.2515 -0.1007
H10 H 0.1839 0.1944 -0.2454
H11 H 0.1292 0.3323 -0.2334
H12 H 0.1917 0.3566 -0.2891
H13 H 0.1941 0.4158 0.0141
H14 H 0.0976 0.3501 0.0858
H15 H 0.1082 0.4097 0.3907
H16 H 0.1617 0.4479 0.3684
H17 H 0.1013 0.5898 0.3280
H18 H 0.1019 0.4928 -0.1266
H19 H 0.2013 0.5654 -0.2550
H20 H 0.1547 0.5361 -0.3710
H21 H 0.1089 0.6756 -0.3271
H22 H 0.1647 0.7181 -0.2389
H23 H 0.0713 0.6504 -0.0620
H24 H 0.2076 0.6558 0.0528
H25 H 0.2109 0.5668 0.1725
H26 H 0.1807 0.6618 0.2519
H27 H 0.2359 0.3073 0.1819
H28 H 0.2298 0.2185 0.3139
H29 H 0.2179 0.3213 0.3711
H30 H 0.1471 0.7967 0.0417
H31 H 0.1001 0.7526 0.3256
H32 H 0.0434 0.7496 0.2337
H33 H 0.0751 0.8575 0.2587
H34 H 0.1043 0.8452 -0.2181
H35 H 0.0885 0.9207 -0.0434
H36 H 0.0045 0.8375 -0.0504
H37 H 0.0241 0.7760 -0.2265
H38 H 0.0116 0.0811 -0.0369
H39 H 0.0259 0.5318 0.2609
H40 H -0.0223 0.9257 -0.5002
O5 O 0.2630 0.0519 0.4970
C25 C 0.1888 -0.0502 0.5307
H41 H 0.1791 -0.0430 0.6489
H42 H 0.1659 -0.0499 0.4342
H43 H 0.2015 -0.1114 0.4871
C26 C 0.2340 -0.0077 0.4229
C27 C 0.2378 -0.0300 0.2224
H44 H 0.2006 -0.0277 0.1755
H45 H 0.2529 -0.0957 0.2400
H46 H 0.2605 0.0229 0.1432
loop_
_geom_bond_atom_site_label_1
_geom_bond_atom_site_label_2
_geom_bond_site_symmetry_1
_geom_bond_site_symmetry_2
C1 C2 1_555 1_555
C2 C3 1_555 1_555
C3 C4 1_555 1_555
C4 C5 1_555 1_555
C5 C6 1_555 1_555
C6 C7 1_555 1_555
C7 C8 1_555 1_555
C8 C9 1_555 1_555
C9 C10 1_555 1_555
C10 C1 1_555 1_555
C11 C9 1_555 1_555
C12 C11 1_555 1_555
C13 C12 1_555 1_555
C14 C8 1_555 1_555
C15 C14 1_555 1_555
C16 C15 1_555 1_555
C17 C13 1_555 1_555
C18 C13 1_555 1_555
C19 C10 1_555 1_555
C20 C17 1_555 1_555
C21 C20 1_555 1_555
C22 C20 1_555 1_555
C23 C22 1_555 1_555
C24 C23 1_555 1_555
O1 C3 1_555 1_555
O2 C12 1_555 1_555
O3 C24 1_555 1_555
O4 C24 1_555 1_555
H1 C1 1_555 1_555
H2 C1 1_555 1_555
H3 C2 1_555 1_555
H4 C2 1_555 1_555
H5 C3 1_555 1_555
H6 C4 1_555 1_555
H7 C4 1_555 1_555
H8 C5 1_555 1_555
H9 C6 1_555 1_555
H10 C6 1_555 1_555
H11 C7 1_555 1_555
H12 C7 1_555 1_555
H13 C8 1_555 1_555
H14 C9 1_555 1_555
H15 C11 1_555 1_555
H16 C11 1_555 1_555
H17 C12 1_555 1_555
H18 C14 1_555 1_555
H19 C15 1_555 1_555
H20 C15 1_555 1_555
H21 C16 1_555 1_555
H22 C16 1_555 1_555
H23 C17 1_555 1_555
H24 C18 1_555 1_555
H25 C18 1_555 1_555
H26 C18 1_555 1_555
H27 C19 1_555 1_555
H28 C19 1_555 1_555
H29 C19 1_555 1_555
H30 C20 1_555 1_555
H31 C21 1_555 1_555
H32 C21 1_555 1_555
H33 C21 1_555 1_555
H34 C22 1_555 1_555
H35 C22 1_555 1_555
H36 C23 1_555 1_555
H37 C23 1_555 1_555
H38 O1 1_555 1_555
H39 O2 1_555 1_555
H40 O4 1_555 1_555
O5 C26 1_555 1_555
C25 H41 1_555 1_555
H42 C25 1_555 1_555
H43 C25 1_555 1_555
C26 C25 1_555 1_555
C27 C26 1_555 1_555
H44 C27 1_555 1_555
H45 C27 1_555 1_555
H46 C27 1_555 1_555
C5 C10 1_555 1_555
C13 C14 1_555 1_555
C16 C17 1_555 1_555

#END
