
#######################################################################
#
#                 Cambridge Crystallographic Data Centre
#                                CCDC 
#
#######################################################################
#
# If this CIF has been generated from an entry in the Cambridge 
# Structural Database, then it will include bibliographic, chemical, 
# crystal, experimental, refinement or atomic coordinate data resulting 
# from the CCDC's data processing and validation procedures.
#
#######################################################################

data_DYPNON
_chemical_formula_moiety         'C32 H28 O2'
_chemical_name_systematic        Dypnopinacone
_symmetry_cell_setting           monoclinic
_symmetry_space_group_name_H-M   'P 21/n'
_symmetry_Int_Tables_number      14
_space_group_name_Hall           '-P 2yn'
loop_
_symmetry_equiv_pos_site_id
_symmetry_equiv_pos_as_xyz
1 x,y,z
2 1/2-x,1/2+y,1/2-z
3 -x,-y,-z
4 1/2+x,1/2-y,1/2+z
_cell_length_a                   16.090(5)
_cell_length_b                   19.830(11)
_cell_length_c                   15.546(8)
_cell_angle_alpha                90
_cell_angle_beta                 95.52(3)
_cell_angle_gamma                90
_cell_volume                     4937.18
_cell_formula_units_Z            8
loop_
_atom_site_label
_atom_site_type_symbol
_atom_site_fract_x
_atom_site_fract_y
_atom_site_fract_z
C1 C 0.32480 0.69050 0.01910
C2 C 0.38370 0.64330 0.01130
C3 C 0.47100 0.64170 0.06220
C4 C 0.47280 0.68110 0.14730
C5 C 0.43330 0.75100 0.12090
C6 C 0.34090 0.74760 0.08540
C7 C 0.44560 0.79890 0.19650
O1 O 0.40480 0.79410 0.26060
C8 C 0.51480 0.85090 0.19980
C9 C 0.55830 0.86630 0.28080
C10 C 0.61830 0.91800 0.28530
C11 C 0.63640 0.95420 0.20990
C12 C 0.59070 0.93710 0.12800
C13 C 0.52820 0.88290 0.12280
C14 C 0.42240 0.63890 0.20940
C15 C 0.56380 0.69090 0.18320
C16 C 0.58570 0.68140 0.27110
C17 C 0.66960 0.69420 0.30650
C18 C 0.73290 0.71080 0.25200
C19 C 0.70710 0.72220 0.16450
C20 C 0.62360 0.71400 0.12950
C21 C 0.36520 0.58800 -0.05550
C22 C 0.36850 0.52230 -0.02370
C23 C 0.34790 0.46700 -0.08330
C24 C 0.33920 0.48160 -0.16870
C25 C 0.33230 0.54320 -0.20270
C26 C 0.34970 0.60290 -0.14340
C27 C 0.31420 0.81610 0.04170
C28 C 0.25230 0.85720 0.07550
C29 C 0.23010 0.91880 0.03330
C30 C 0.26810 0.94040 -0.03760
C31 C 0.32750 0.89520 -0.07270
C32 C 0.34930 0.83450 -0.03450
O2 O 0.28600 0.73310 0.15320
C33 C 0.20530 0.69150 0.43120
C34 C 0.25220 0.63890 0.41110
C35 C 0.23570 0.59180 0.33360
C36 C 0.13990 0.59510 0.29930
C37 C 0.11510 0.67020 0.28760
C38 C 0.12860 0.71130 0.37280
C39 C 0.02690 0.67550 0.24620
O3 O -0.03320 0.66670 0.28940
C40 C 0.00700 0.69160 0.15300
C41 C 0.06670 0.72490 0.10560
C42 C 0.04310 0.74160 0.01740
C43 C -0.03440 0.71900 -0.02220
C44 C -0.08850 0.68610 0.02250
C45 C -0.07030 0.67170 0.11490
C46 C 0.09150 0.55460 0.36690
C47 C 0.12970 0.55960 0.21110
C48 C 0.07590 0.50450 0.19200
C49 C 0.07000 0.47490 0.10870
C50 C 0.11610 0.49850 0.04140
C51 C 0.16830 0.55460 0.06100
C52 C 0.17920 0.58250 0.14620
C53 C 0.33060 0.62060 0.46780
C54 C 0.39940 0.59150 0.43390
C55 C 0.47660 0.58090 0.48530
C56 C 0.48390 0.59840 0.57350
C57 C 0.41400 0.62410 0.61090
C58 C 0.33660 0.63590 0.55850
C59 C 0.13570 0.78590 0.35030
C60 C 0.21440 0.81350 0.33360
C61 C 0.22100 0.88130 0.31120
C62 C 0.14890 0.92540 0.30340
C63 C 0.07060 0.89750 0.31830
C64 C 0.06440 0.82920 0.34420
O4 O 0.05980 0.70410 0.42790
loop_
_geom_bond_atom_site_label_1
_geom_bond_atom_site_label_2
_geom_bond_site_symmetry_1
_geom_bond_site_symmetry_2
C1 C2 1_555 1_555
C2 C3 1_555 1_555
C3 C4 1_555 1_555
C4 C5 1_555 1_555
C5 C6 1_555 1_555
C6 C1 1_555 1_555
C7 C5 1_555 1_555
O1 C7 1_555 1_555
C8 C7 1_555 1_555
C9 C8 1_555 1_555
C10 C9 1_555 1_555
C11 C10 1_555 1_555
C12 C11 1_555 1_555
C13 C8 1_555 1_555
C14 C4 1_555 1_555
C15 C4 1_555 1_555
C16 C15 1_555 1_555
C17 C16 1_555 1_555
C18 C17 1_555 1_555
C19 C18 1_555 1_555
C20 C15 1_555 1_555
C21 C2 1_555 1_555
C22 C21 1_555 1_555
C23 C22 1_555 1_555
C24 C23 1_555 1_555
C25 C24 1_555 1_555
C26 C21 1_555 1_555
C27 C6 1_555 1_555
C28 C27 1_555 1_555
C29 C28 1_555 1_555
C30 C29 1_555 1_555
C31 C30 1_555 1_555
C32 C27 1_555 1_555
O2 C6 1_555 1_555
C33 C34 1_555 1_555
C34 C35 1_555 1_555
C35 C36 1_555 1_555
C36 C37 1_555 1_555
C37 C38 1_555 1_555
C38 C33 1_555 1_555
C39 C37 1_555 1_555
O3 C39 1_555 1_555
C40 C39 1_555 1_555
C41 C40 1_555 1_555
C42 C41 1_555 1_555
C43 C42 1_555 1_555
C44 C43 1_555 1_555
C45 C40 1_555 1_555
C46 C36 1_555 1_555
C47 C36 1_555 1_555
C48 C47 1_555 1_555
C49 C48 1_555 1_555
C50 C49 1_555 1_555
C51 C50 1_555 1_555
C52 C47 1_555 1_555
C53 C34 1_555 1_555
C54 C53 1_555 1_555
C55 C54 1_555 1_555
C56 C55 1_555 1_555
C57 C56 1_555 1_555
C58 C53 1_555 1_555
C59 C38 1_555 1_555
C60 C59 1_555 1_555
C61 C60 1_555 1_555
C62 C61 1_555 1_555
C63 C62 1_555 1_555
C64 C59 1_555 1_555
O4 C38 1_555 1_555
C12 C13 1_555 1_555
C19 C20 1_555 1_555
C25 C26 1_555 1_555
C31 C32 1_555 1_555
C44 C45 1_555 1_555
C51 C52 1_555 1_555
C57 C58 1_555 1_555
C63 C64 1_555 1_555

#END
