
#######################################################################
#
#                 Cambridge Crystallographic Data Centre
#                                CCDC 
#
#######################################################################
#
# If this CIF has been generated from an entry in the Cambridge 
# Structural Database, then it will include bibliographic, chemical, 
# crystal, experimental, refinement or atomic coordinate data resulting 
# from the CCDC's data processing and validation procedures.
#
#######################################################################

data_EABNIE
_chemical_formula_moiety         'C12 H13 N1 O3'
_chemical_name_systematic        
1-Acetyl-2-hydroperoxy-2-methyl-3-methyleneindoline
_symmetry_cell_setting           monoclinic
_symmetry_space_group_name_H-M   'P 21/c'
_symmetry_Int_Tables_number      14
_space_group_name_Hall           '-P 2ybc'
loop_
_symmetry_equiv_pos_site_id
_symmetry_equiv_pos_as_xyz
1 x,y,z
2 -x,1/2+y,1/2-z
3 -x,-y,-z
4 x,1/2-y,1/2+z
_cell_length_a                   8.149(1)
_cell_length_b                   18.829(3)
_cell_length_c                   7.198(1)
_cell_angle_alpha                90
_cell_angle_beta                 102.54(1)
_cell_angle_gamma                90
_cell_volume                     1078.1
_exptl_crystal_colour            colorless
_cell_formula_units_Z            4
loop_
_atom_site_label
_atom_site_type_symbol
_atom_site_fract_x
_atom_site_fract_y
_atom_site_fract_z
C1 C -0.2880(4) -0.0804(2) 0.2028(4)
C2 C -0.2748(4) -0.1581(2) 0.2663(4)
C3 C -0.0987(4) -0.1714(2) 0.3570(4)
C4 C -0.0261(4) -0.2326(2) 0.4473(4)
C5 C 0.1467(4) -0.2336(2) 0.5181(4)
C6 C 0.2430(4) -0.1745(2) 0.4960(4)
C7 C 0.1706(4) -0.1128(2) 0.4054(4)
C8 C -0.0031(4) -0.1122(1) 0.3394(4)
C9 C -0.0513(4) 0.0092(2) 0.2080(4)
C10 C -0.1708(4) 0.0647(2) 0.1091(5)
C11 C -0.3971(4) -0.0387(2) 0.3107(5)
C12 C -0.4036(4) -0.2028(2) 0.2356(6)
N1 N -0.1082(3) -0.0563(1) 0.2448(3)
O1 O 0.0997(3) 0.0234(1) 0.2554(3)
O2 O -0.3657(3) -0.0723(1) 0.0084(3)
O3 O -0.2807(3) -0.1191(1) -0.1035(3)
H1 H -0.2229 -0.0854 -0.1568
H2 H -0.0966 -0.2750 0.4603
H3 H 0.2019 -0.2769 0.5840
H4 H 0.3670 -0.1762 0.5489
H5 H 0.2410 -0.0708 0.3885
H6 H -0.2841 0.0442 0.0542
H7 H -0.1807 0.1028 0.2029
H8 H -0.1213 0.0852 0.0053
H9 H -0.4187 0.0096 0.2531
H10 H -0.5065 -0.0639 0.3029
H11 H -0.3374 -0.0341 0.4470
H12 H -0.4022 -0.1784 0.3648
H13 H -0.5238 -0.1851 0.1686
loop_
_geom_bond_atom_site_label_1
_geom_bond_atom_site_label_2
_geom_bond_site_symmetry_1
_geom_bond_site_symmetry_2
C1 C2 1_555 1_555
C2 C3 1_555 1_555
C3 C4 1_555 1_555
C4 C5 1_555 1_555
C5 C6 1_555 1_555
C6 C7 1_555 1_555
C7 C8 1_555 1_555
C8 C3 1_555 1_555
C9 C10 1_555 1_555
C10 H6 1_555 1_555
C11 C1 1_555 1_555
C12 C2 1_555 1_555
N1 C1 1_555 1_555
O1 C9 1_555 1_555
O2 C1 1_555 1_555
O3 O2 1_555 1_555
H1 O3 1_555 1_555
H2 C4 1_555 1_555
H3 C5 1_555 1_555
H4 C6 1_555 1_555
H5 C7 1_555 1_555
H7 C10 1_555 1_555
H8 C10 1_555 1_555
H9 C11 1_555 1_555
H10 C11 1_555 1_555
H11 C11 1_555 1_555
H12 C12 1_555 1_555
H13 C12 1_555 1_555
C8 N1 1_555 1_555
C9 N1 1_555 1_555

#END
