
#######################################################################
#
#                 Cambridge Crystallographic Data Centre
#                                CCDC 
#
#######################################################################
#
# If this CIF has been generated from an entry in the Cambridge 
# Structural Database, then it will include bibliographic, chemical, 
# crystal, experimental, refinement or atomic coordinate data resulting 
# from the CCDC's data processing and validation procedures.
#
#######################################################################

data_EABPUS
_chemical_formula_moiety         'C44 H52 O4,3(C2 H3 N1)'
_chemical_name_systematic        
'3,9,16,22-Tetra-t-butyl-12,26-dioxaheptacyclo(18.5.2.1^1,5^.1^7,11^.1^11,14^.0^13,18^.0^24,27^)triaconta-2,4,7,9,13,15,17,20,22,24(27)-decaene-28,29-dione acetonitrile solvate'
_symmetry_cell_setting           triclinic
_symmetry_space_group_name_H-M   'P -1'
_symmetry_Int_Tables_number      2
_space_group_name_Hall           '-P 1'
loop_
_symmetry_equiv_pos_site_id
_symmetry_equiv_pos_as_xyz
1 x,y,z
2 -x,-y,-z
_cell_length_a                   12.656(2)
_cell_length_b                   15.396(3)
_cell_length_c                   12.272(2)
_cell_angle_alpha                99.77(2)
_cell_angle_beta                 101.53(1)
_cell_angle_gamma                92.49(2)
_cell_volume                     2301.56
_chemical_melting_point          270deg.C
_cell_formula_units_Z            2
loop_
_atom_site_label
_atom_site_type_symbol
_atom_site_fract_x
_atom_site_fract_y
_atom_site_fract_z
O1 O 0.0921(2) 0.3651(1) 0.0704(2)
O2 O 0.1643(1) 0.4182(1) 0.3215(1)
O3 O 0.4421(1) 0.4598(1) 0.2747(2)
O4 O 0.3487(2) 0.4066(1) 0.0226(2)
C1 C 0.0882(2) 0.4330(2) 0.1368(2)
C2 C 0.1154(2) 0.5206(2) 0.1157(2)
C3 C 0.0793(2) 0.5896(2) 0.1747(2)
C4 C 0.0212(2) 0.5849(2) 0.2658(2)
C5 C 0.0139(2) 0.5096(2) 0.3018(2)
C6 C 0.0572(2) 0.4273(2) 0.2501(2)
C7 C -0.0121(2) 0.3419(2) 0.2457(3)
C8 C 0.1675(2) 0.3313(2) 0.3326(2)
C9 C 0.0687(2) 0.2821(2) 0.2924(2)
C10 C 0.0584(2) 0.1949(2) 0.3024(2)
C11 C 0.1488(2) 0.1547(2) 0.3524(2)
C12 C 0.2455(2) 0.2064(2) 0.3908(2)
C13 C 0.2597(2) 0.2950(2) 0.3824(2)
C14 C 0.3684(2) 0.3471(2) 0.4222(2)
C15 C 0.4765(2) 0.3766(2) 0.2774(2)
C16 C 0.4472(2) 0.3220(2) 0.3463(2)
C17 C 0.4956(2) 0.2411(2) 0.3405(2)
C18 C 0.5661(2) 0.2156(2) 0.2707(3)
C19 C 0.5911(2) 0.2736(2) 0.2017(2)
C20 C 0.5465(2) 0.3535(2) 0.2057(2)
C21 C 0.5626(2) 0.4285(2) 0.1453(3)
C22 C 0.3719(2) 0.4771(2) 0.0878(2)
C23 C 0.4773(2) 0.4908(2) 0.1780(2)
C24 C 0.5190(2) 0.5857(2) 0.2156(2)
C25 C 0.4596(2) 0.6516(2) 0.1942(2)
C26 C 0.3456(2) 0.6304(2) 0.1348(2)
C27 C 0.3013(2) 0.5492(2) 0.0866(2)
C28 C 0.1832(2) 0.5308(2) 0.0292(2)
C29 C -0.0243(3) 0.6702(2) 0.3155(3)
C30 C 0.0694(4) 0.7394(2) 0.3715(4)
C31 C -0.0973(3) 0.7057(2) 0.2223(3)
C32 C -0.0889(4) 0.6551(3) 0.4028(4)
C33 C 0.1417(3) 0.0574(2) 0.3661(3)
C34 C 0.0321(4) 0.0094(3) 0.3068(5)
C35 C 0.1576(5) 0.0525(3) 0.4892(4)
C36 C 0.2267(5) 0.0102(3) 0.3174(7)
C37 C 0.6156(3) 0.1263(2) 0.2662(3)
C38 C 0.5750(5) 0.0713(3) 0.1484(5)
C39 C 0.5819(5) 0.0717(3) 0.3462(5)
C40 C 0.7376(4) 0.1398(3) 0.2890(6)
C41 C 0.5004(2) 0.7494(2) 0.2252(2)
C42 C 0.6212(3) 0.7616(2) 0.2741(3)
C43 C 0.4792(3) 0.7897(2) 0.1181(3)
C44 C 0.4405(3) 0.7970(2) 0.3108(3)
H1 H 0.0923 0.6462 0.1564
H2 H -0.0205 0.5074 0.3635
H3 H -0.0097 0.1617 0.2756
H4 H 0.3065 0.1796 0.4254
H5 H 0.4787 0.2017 0.3875
H6 H 0.6389 0.2578 0.1522
H7 H 0.5915 0.5993 0.2569
H8 H 0.3004 0.6779 0.1307
H9 H -0.0646 0.3525 0.2911
H10 H -0.0476 0.3174 0.1701
H11 H 0.3577 0.4081 0.4251
H12 H 0.3992 0.3373 0.4959
H13 H 0.6337 0.4567 0.1710
H14 H 0.5495 0.4087 0.0658
H15 H 0.1741 0.4778 -0.0255
H16 H 0.1603 0.5786 -0.0073
H17 H 0.1166 0.7174 0.4291
H18 H 0.1081 0.7521 0.3163
H19 H 0.0419 0.7920 0.4037
H20 H -0.1237 0.7591 0.2533
H21 H -0.0578 0.7165 0.1672
H22 H -0.1567 0.6634 0.1877
H23 H -0.1151 0.7092 0.4320
H24 H -0.1483 0.6128 0.3686
H25 H -0.0440 0.6337 0.4626
H26 H -0.0231 0.0371 0.3388
H27 H 0.0195 0.0119 0.2285
H28 H 0.0315 -0.0505 0.3164
H29 H 0.1550 -0.0077 0.4978
H30 H 0.2259 0.0813 0.5282
H31 H 0.1019 0.0808 0.5196
H32 H 0.2217 -0.0500 0.3258
H33 H 0.2166 0.0132 0.2392
H34 H 0.2961 0.0371 0.3558
H35 H 0.4983 0.0631 0.1327
H36 H 0.5972 0.1013 0.0939
H37 H 0.6045 0.0155 0.1445
H38 H 0.5052 0.0611 0.3292
H39 H 0.6137 0.0169 0.3382
H40 H 0.6051 0.1027 0.4218
H41 H 0.7673 0.0840 0.2845
H42 H 0.7585 0.1698 0.2341
H43 H 0.7638 0.1740 0.3623
H44 H 0.6365 0.7382 0.3419
H45 H 0.6586 0.7315 0.2210
H46 H 0.6445 0.8228 0.2902
H47 H 0.5024 0.8510 0.1367
H48 H 0.5181 0.7609 0.0656
H49 H 0.4040 0.7825 0.0853
H50 H 0.4637 0.8582 0.3278
H51 H 0.3649 0.7894 0.2803
H52 H 0.4558 0.7730 0.3783
N1 N 0.7779(4) 0.4359(4) 0.4053(4)
C45 C 0.7371(3) 0.4187(3) 0.4745(4)
C46 C 0.6871(3) 0.3966(3) 0.5596(3)
N2 N 0.8211(5) 0.2134(4) 0.9360(8)
C47 C 0.8782(4) 0.1724(3) 0.9665(5)
C48 C 0.9674(6) 0.1263(5) 1.0043(5)
N3 N 0.2076(7) 0.0728(6) -0.065(1)
C49 C 0.2395(5) 0.1331(5) 0.0046(7)
C50 C 0.2797(4) 0.2107(3) 0.0758(4)
loop_
_geom_bond_atom_site_label_1
_geom_bond_atom_site_label_2
_geom_bond_site_symmetry_1
_geom_bond_site_symmetry_2
O1 C1 1_555 1_555
O2 C6 1_555 1_555
O3 C15 1_555 1_555
O4 C22 1_555 1_555
C1 C2 1_555 1_555
C2 C3 1_555 1_555
C3 C4 1_555 1_555
C4 C5 1_555 1_555
C5 C6 1_555 1_555
C6 C1 1_555 1_555
C7 C6 1_555 1_555
C8 O2 1_555 1_555
C9 C7 1_555 1_555
C10 C9 1_555 1_555
C11 C10 1_555 1_555
C12 C11 1_555 1_555
C13 C8 1_555 1_555
C14 C13 1_555 1_555
C15 C16 1_555 1_555
C16 C14 1_555 1_555
C17 C16 1_555 1_555
C18 C17 1_555 1_555
C19 C18 1_555 1_555
C20 C15 1_555 1_555
C21 C20 1_555 1_555
C22 C23 1_555 1_555
C23 O3 1_555 1_555
C24 C23 1_555 1_555
C25 C24 1_555 1_555
C26 C25 1_555 1_555
C27 C22 1_555 1_555
C28 C2 1_555 1_555
C29 C4 1_555 1_555
C30 C29 1_555 1_555
C31 C29 1_555 1_555
C32 C29 1_555 1_555
C33 C11 1_555 1_555
C34 C33 1_555 1_555
C35 C33 1_555 1_555
C36 C33 1_555 1_555
C37 C18 1_555 1_555
C38 C37 1_555 1_555
C39 C37 1_555 1_555
C40 C37 1_555 1_555
C41 C25 1_555 1_555
C42 C41 1_555 1_555
C43 C41 1_555 1_555
C44 C41 1_555 1_555
H1 C3 1_555 1_555
H2 C5 1_555 1_555
H3 C10 1_555 1_555
H4 C12 1_555 1_555
H5 C17 1_555 1_555
H6 C19 1_555 1_555
H7 C24 1_555 1_555
H8 C26 1_555 1_555
H9 C7 1_555 1_555
H10 C7 1_555 1_555
H11 C14 1_555 1_555
H12 C14 1_555 1_555
H13 C21 1_555 1_555
H14 C21 1_555 1_555
H15 C28 1_555 1_555
H16 C28 1_555 1_555
H17 C30 1_555 1_555
H18 C30 1_555 1_555
H19 C30 1_555 1_555
H20 C31 1_555 1_555
H21 C31 1_555 1_555
H22 C31 1_555 1_555
H23 C32 1_555 1_555
H24 C32 1_555 1_555
H25 C32 1_555 1_555
H26 C34 1_555 1_555
H27 C34 1_555 1_555
H28 C34 1_555 1_555
H29 C35 1_555 1_555
H30 C35 1_555 1_555
H31 C35 1_555 1_555
H32 C36 1_555 1_555
H33 C36 1_555 1_555
H34 C36 1_555 1_555
H35 C38 1_555 1_555
H36 C38 1_555 1_555
H37 C38 1_555 1_555
H38 C39 1_555 1_555
H39 C39 1_555 1_555
H40 C39 1_555 1_555
H41 C40 1_555 1_555
H42 C40 1_555 1_555
H43 C40 1_555 1_555
H44 C42 1_555 1_555
H45 C42 1_555 1_555
H46 C42 1_555 1_555
H47 C43 1_555 1_555
H48 C43 1_555 1_555
H49 C43 1_555 1_555
H50 C44 1_555 1_555
H51 C44 1_555 1_555
H52 C44 1_555 1_555
N1 C45 1_555 1_555
C45 C46 1_555 1_555
N2 C47 1_555 1_555
C47 C48 1_555 1_555
N3 C49 1_555 1_555
C49 C50 1_555 1_555
C8 C9 1_555 1_555
C12 C13 1_555 1_555
C19 C20 1_555 1_555
C21 C23 1_555 1_555
C26 C27 1_555 1_555
C27 C28 1_555 1_555

#END
