
#######################################################################
#
#                 Cambridge Crystallographic Data Centre
#                                CCDC 
#
#######################################################################
#
# If this CIF has been generated from an entry in the Cambridge 
# Structural Database, then it will include bibliographic, chemical, 
# crystal, experimental, refinement or atomic coordinate data resulting 
# from the CCDC's data processing and validation procedures.
#
#######################################################################

data_EABPIG
_chemical_formula_moiety         'C44 H52 O4'
_chemical_name_systematic        
3,9,16,22-Tetra-t-butyl-13,26-dioxaheptacyclo(18.5.2.1^1,5^.1^11,14^.1^14,18^.0^7,12^.0^24,27^)triaconta-2,4,7,9,11,15,17,20,22,24(27)-decaene-28,30-dione
_symmetry_cell_setting           monoclinic
_symmetry_space_group_name_H-M   'P 21/c'
_symmetry_Int_Tables_number      14
_space_group_name_Hall           '-P 2ybc'
loop_
_symmetry_equiv_pos_site_id
_symmetry_equiv_pos_as_xyz
1 x,y,z
2 -x,1/2+y,1/2-z
3 -x,-y,-z
4 x,1/2-y,1/2+z
_cell_length_a                   14.035(2)
_cell_length_b                   11.990(2)
_cell_length_c                   11.063(2)
_cell_angle_alpha                90
_cell_angle_beta                 92.25(1)
_cell_angle_gamma                90
_cell_volume                     1860.24
_chemical_melting_point          270deg.C
_cell_formula_units_Z            2
loop_
_atom_site_label
_atom_site_type_symbol
_atom_site_fract_x
_atom_site_fract_y
_atom_site_fract_z
O1 O 1.0244(2) -0.0071(3) 0.7761(3)
O2 O 0.9370(2) 0.1275(3) 0.9665(3)
C1 C 1.0573(3) 0.0682(4) 0.8390(5)
C2 C 1.1563(3) 0.0657(4) 0.8903(4)
C3 C 1.1928(3) 0.1584(4) 0.9366(4)
C4 C 1.1433(3) 0.2654(4) 0.9449(4)
C5 C 1.0499(3) 0.2680(4) 0.9148(5)
C6 C 0.9960(3) 0.1685(4) 0.8685(4)
C7 C 0.9257(3) 0.1999(4) 0.7616(4)
C8 C 0.8418(2) 0.1327(4) 0.9260(5)
C9 C 0.8302(3) 0.1760(4) 0.8134(5)
C10 C 0.7377(3) 0.1898(4) 0.7638(4)
C11 C 0.6602(3) 0.1573(4) 0.8300(5)
C12 C 0.6770(3) 0.1102(4) 0.9430(5)
C13 C 0.7699(3) 0.0968(4) 0.9960(4)
C14 C 1.2124(3) -0.0429(4) 0.8829(5)
C15 C 1.2009(3) 0.3670(4) 0.9848(5)
C16 C 1.1413(4) 0.4704(4) 0.9968(6)
C17 C 1.2518(4) 0.3431(5) 1.1057(7)
C18 C 1.2737(5) 0.3881(5) 0.8882(8)
C19 C 0.5581(3) 0.1769(4) 0.7779(5)
C20 C 0.4830(3) 0.1256(5) 0.8567(6)
C21 C 0.5472(3) 0.1275(6) 0.6520(6)
C22 C 0.5411(3) 0.3022(5) 0.7714(6)
H1 H 1.2573 0.1555 0.9665
H2 H 1.0166 0.3362 0.9228
H3 H 0.7276 0.2219 0.6862
H4 H 0.6243 0.0859 0.9867
H5 H 0.9313 0.2763 0.7409
H6 H 0.9359 0.1550 0.6928
H7 H 1.2723 -0.0272 0.8493
H8 H 1.1776 -0.0931 0.8318
H9 H 1.1813 0.5310 1.0210
H10 H 1.1107 0.4870 0.9207
H11 H 1.0948 0.4585 1.0552
H12 H 1.2066 0.3291 1.1649
H13 H 1.2920 0.2799 1.0977
H14 H 1.2898 0.4060 1.1290
H15 H 1.3146 0.3250 0.8819
H16 H 1.2413 0.3998 0.8115
H17 H 1.3109 0.4520 0.9082
H18 H 0.4883 0.1575 0.9358
H19 H 0.4211 0.1402 0.8226
H20 H 0.4925 0.0473 0.8626
H21 H 0.4849 0.1426 0.6191
H22 H 0.5931 0.1595 0.6014
H23 H 0.5566 0.0490 0.6562
H24 H 0.5502 0.3336 0.8502
H25 H 0.5845 0.3356 0.7186
H26 H 0.4775 0.3165 0.7424
C14B C 0.7876(3) 0.0429(4) 1.1171(5)
C13B C 1.2301(3) -0.0968(4) 1.0040(4)
C2B C 0.8437(3) -0.0657(4) 1.1097(4)
H7B H 0.7277 0.0272 1.1507
H8B H 0.8224 0.0931 1.1682
C8B C 1.1582(2) -0.1327(4) 1.0740(5)
C12B C 1.3230(3) -0.1102(4) 1.0570(5)
C1B C 0.9427(3) -0.0682(4) 1.1610(5)
C3B C 0.8072(3) -0.1584(4) 1.0634(4)
O2B O 1.0630(2) -0.1275(3) 1.0335(3)
C9B C 1.1698(3) -0.1760(4) 1.1866(5)
C11B C 1.3398(3) -0.1573(4) 1.1700(5)
H4B H 1.3757 -0.0859 1.0133
O1B O 0.9756(2) 0.0071(3) 1.2239(3)
C6B C 1.0040(3) -0.1685(4) 1.1315(4)
C4B C 0.8567(3) -0.2654(4) 1.0551(4)
H1B H 0.7427 -0.1555 1.0335
C7B C 1.0743(3) -0.1999(4) 1.2384(4)
C10B C 1.2623(3) -0.1898(4) 1.2362(4)
C19B C 1.4419(3) -0.1769(4) 1.2221(5)
C5B C 0.9501(3) -0.2680(4) 1.0852(5)
C15B C 0.7991(3) -0.3670(4) 1.0152(5)
H5B H 1.0687 -0.2763 1.2591
H6B H 1.0641 -0.1550 1.3072
H3B H 1.2724 -0.2219 1.3138
C20B C 1.5170(3) -0.1256(5) 1.1433(6)
C21B C 1.4528(3) -0.1275(6) 1.3480(6)
C22B C 1.4589(3) -0.3022(5) 1.2286(6)
H2B H 0.9834 -0.3362 1.0772
C16B C 0.8587(4) -0.4704(4) 1.0032(6)
C17B C 0.7482(4) -0.3431(5) 0.8943(7)
C18B C 0.7263(5) -0.3881(5) 1.1118(8)
H18B H 1.5117 -0.1575 1.0642
H19B H 1.5789 -0.1402 1.1774
H20B H 1.5075 -0.0473 1.1374
H21B H 1.5151 -0.1426 1.3809
H22B H 1.4069 -0.1595 1.3986
H23B H 1.4434 -0.0490 1.3438
H24B H 1.4498 -0.3336 1.1498
H25B H 1.4155 -0.3356 1.2814
H26B H 1.5225 -0.3165 1.2576
H9B H 0.8187 -0.5310 0.9790
H10B H 0.8893 -0.4870 1.0793
H11B H 0.9052 -0.4585 0.9448
H12B H 0.7934 -0.3291 0.8351
H13B H 0.7080 -0.2799 0.9023
H14B H 0.7102 -0.4060 0.8710
H15B H 0.6854 -0.3250 1.1181
H16B H 0.7587 -0.3998 1.1885
H17B H 0.6891 -0.4520 1.0918
loop_
_geom_bond_atom_site_label_1
_geom_bond_atom_site_label_2
_geom_bond_site_symmetry_1
_geom_bond_site_symmetry_2
O1 C1 1_555 1_555
O2 C6 1_555 1_555
C1 C2 1_555 1_555
C2 C3 1_555 1_555
C3 C4 1_555 1_555
C4 C5 1_555 1_555
C5 C6 1_555 1_555
C6 C1 1_555 1_555
C7 C6 1_555 1_555
C8 O2 1_555 1_555
C9 C7 1_555 1_555
C10 C9 1_555 1_555
C11 C10 1_555 1_555
C12 C11 1_555 1_555
C13 C8 1_555 1_555
C14 C2 1_555 1_555
C15 C4 1_555 1_555
C16 C15 1_555 1_555
C17 C15 1_555 1_555
C18 C15 1_555 1_555
C19 C11 1_555 1_555
C20 C19 1_555 1_555
C21 C19 1_555 1_555
C22 C19 1_555 1_555
H1 C3 1_555 1_555
H2 C5 1_555 1_555
H3 C10 1_555 1_555
H4 C12 1_555 1_555
H5 C7 1_555 1_555
H6 C7 1_555 1_555
H7 C14 1_555 1_555
H8 C14 1_555 1_555
H9 C16 1_555 1_555
H10 C16 1_555 1_555
H11 C16 1_555 1_555
H12 C17 1_555 1_555
H13 C17 1_555 1_555
H14 C17 1_555 1_555
H15 C18 1_555 1_555
H16 C18 1_555 1_555
H17 C18 1_555 1_555
H18 C20 1_555 1_555
H19 C20 1_555 1_555
H20 C20 1_555 1_555
H21 C21 1_555 1_555
H22 C21 1_555 1_555
H23 C21 1_555 1_555
H24 C22 1_555 1_555
H25 C22 1_555 1_555
H26 C22 1_555 1_555
C14B C13 1_555 1_555
C13B C14 1_555 1_555
C2B C14B 1_555 1_555
H7B C14B 1_555 1_555
H8B C14B 1_555 1_555
C8B C13B 1_555 1_555
C12B C13B 1_555 1_555
C1B C2B 1_555 1_555
C3B C2B 1_555 1_555
O2B C8B 1_555 1_555
C9B C8B 1_555 1_555
C11B C12B 1_555 1_555
H4B C12B 1_555 1_555
O1B C1B 1_555 1_555
C6B C1B 1_555 1_555
C4B C3B 1_555 1_555
H1B C3B 1_555 1_555
C7B C9B 1_555 1_555
C10B C9B 1_555 1_555
C19B C11B 1_555 1_555
C5B C6B 1_555 1_555
C15B C4B 1_555 1_555
H5B C7B 1_555 1_555
H6B C7B 1_555 1_555
H3B C10B 1_555 1_555
C20B C19B 1_555 1_555
C21B C19B 1_555 1_555
C22B C19B 1_555 1_555
H2B C5B 1_555 1_555
C16B C15B 1_555 1_555
C17B C15B 1_555 1_555
C18B C15B 1_555 1_555
H18B C20B 1_555 1_555
H19B C20B 1_555 1_555
H20B C20B 1_555 1_555
H21B C21B 1_555 1_555
H22B C21B 1_555 1_555
H23B C21B 1_555 1_555
H24B C22B 1_555 1_555
H25B C22B 1_555 1_555
H26B C22B 1_555 1_555
H9B C16B 1_555 1_555
H10B C16B 1_555 1_555
H11B C16B 1_555 1_555
H12B C17B 1_555 1_555
H13B C17B 1_555 1_555
H14B C17B 1_555 1_555
H15B C18B 1_555 1_555
H16B C18B 1_555 1_555
H17B C18B 1_555 1_555
C8 C9 1_555 1_555
C12 C13 1_555 1_555
O2B C6B 1_555 1_555
C11B C10B 1_555 1_555
C6B C7B 1_555 1_555
C4B C5B 1_555 1_555

#END
