
#######################################################################
#
#                 Cambridge Crystallographic Data Centre
#                                CCDC 
#
#######################################################################
#
# If this CIF has been generated from an entry in the Cambridge 
# Structural Database, then it will include bibliographic, chemical, 
# crystal, experimental, refinement or atomic coordinate data resulting 
# from the CCDC's data processing and validation procedures.
#
#######################################################################

data_EABVOS
_chemical_formula_moiety         'C36 H30 S3'
_chemical_name_systematic        
7,8:14,15:24,25-Tribenzo-5,17,22-trithiatetracyclo(9.9.5.1^3,19^.1^9,13^)heptacosa-1,3(26),7,9,11,13(27),14,19,24-nonaene
_symmetry_cell_setting           monoclinic
_symmetry_space_group_name_H-M   'P 21/c'
_symmetry_Int_Tables_number      14
_space_group_name_Hall           '-P 2ybc'
loop_
_symmetry_equiv_pos_site_id
_symmetry_equiv_pos_as_xyz
1 x,y,z
2 -x,1/2+y,1/2-z
3 -x,-y,-z
4 x,1/2-y,1/2+z
_cell_length_a                   8.692(5)
_cell_length_b                   19.806(4)
_cell_length_c                   16.630(4)
_cell_angle_alpha                90
_cell_angle_beta                 92.54(3)
_cell_angle_gamma                90
_cell_volume                     2860.1
_exptl_crystal_colour            colorless
_chemical_melting_point          221-222deg.C
_cell_formula_units_Z            4
loop_
_atom_site_label
_atom_site_type_symbol
_atom_site_fract_x
_atom_site_fract_y
_atom_site_fract_z
S1 S 0.4482(2) 0.06552(9) 0.2409(1)
S2 S 0.5026(2) 0.4136(1) 0.4814(1)
S3 S 0.3651(2) 0.3257(1) 0.1261(1)
C1 C 0.4432(7) 0.2861(3) 0.4123(4)
C2 C 0.4757(7) 0.2171(4) 0.4073(4)
C3 C 0.4233(7) 0.1790(3) 0.3406(4)
C4 C 0.4526(8) 0.1038(3) 0.3383(4)
C5 C 0.6121(8) 0.1074(3) 0.2008(4)
C6 C 0.7639(7) 0.0855(3) 0.2388(4)
C7 C 0.8718(8) 0.1306(3) 0.2733(4)
C8 C 0.8512(6) 0.2059(3) 0.2746(4)
C9 C 0.8196(6) 0.2427(3) 0.2040(4)
C10 C 0.8079(6) 0.3124(3) 0.2063(4)
C11 C 0.8307(7) 0.3449(3) 0.2806(4)
C12 C 0.8640(7) 0.3099(3) 0.3512(4)
C13 C 0.9011(7) 0.3457(3) 0.4291(4)
C14 C 0.8163(8) 0.4001(3) 0.4584(4)
C15 C 0.6666(8) 0.4242(3) 0.4189(4)
C16 C 0.4978(8) 0.3234(4) 0.4877(4)
C17 C 0.3647(7) 0.3162(3) 0.3482(4)
C18 C 0.3155(7) 0.2803(3) 0.2813(4)
C19 C 0.2394(7) 0.3145(3) 0.2094(4)
C20 C 0.5071(7) 0.3816(3) 0.1729(4)
C21 C 0.6401(7) 0.3899(3) 0.1196(4)
C22 C 0.7775(7) 0.3543(3) 0.1328(4)
C23 C 0.8709(7) 0.2401(3) 0.3462(4)
C24 C 0.3442(7) 0.2120(3) 0.2786(4)
C25 C 0.8676(9) 0.4317(4) 0.5290(4)
C26 C 0.998(1) 0.4103(4) 0.5713(4)
C27 C 1.0808(8) 0.3564(5) 0.5446(5)
C28 C 1.0323(8) 0.3245(4) 0.4754(4)
C29 C 1.0086(7) 0.1054(3) 0.3093(4)
C30 C 1.0385(8) 0.0375(4) 0.3112(5)
C31 C 0.9331(9) -0.0065(4) 0.2775(5)
C32 C 0.7977(8) 0.0172(3) 0.2411(4)
C33 C 0.8930(8) 0.3618(3) 0.0786(4)
C34 C 0.8785(8) 0.4060(4) 0.0153(4)
C35 C 0.745(1) 0.4426(3) 0.0029(4)
C36 C 0.6280(8) 0.4337(3) 0.0545(4)
H1 H 0.5342 0.1957 0.4497
H2 H 0.3763 0.0823 0.3686
H3 H 0.5514 0.0957 0.3630
H4 H 0.6125 0.0982 0.1448
H5 H 0.6010 0.1546 0.2090
H6 H 0.8061 0.2197 0.1542
H7 H 0.8232 0.3927 0.2825
H8 H 0.6479 0.3994 0.3705
H9 H 0.6763 0.4708 0.4066
H10 H 0.5992 0.3083 0.5017
H11 H 0.4311 0.3116 0.5292
H12 H 0.3439 0.3633 0.3502
H13 H 0.2049 0.3578 0.2257
H14 H 0.1535 0.2881 0.1913
H15 H 0.4613 0.4244 0.1815
H16 H 0.5426 0.3631 0.2230
H17 H 0.8902 0.2149 0.3942
H18 H 0.3087 0.1869 0.2327
H19 H 0.8113 0.4689 0.5486
H20 H 1.0311 0.4330 0.6193
H21 H 1.1704 0.3414 0.5740
H22 H 1.0888 0.2867 0.4576
H23 H 1.0819 0.1358 0.3327
H24 H 1.1318 0.0211 0.3359
H25 H 0.9530 -0.0537 0.2790
H26 H 0.7265 -0.0139 0.2171
H27 H 0.9844 0.3358 0.0855
H28 H 0.9608 0.4114 -0.0200
H29 H 0.7342 0.4734 -0.0407
H30 H 0.5354 0.4584 0.0454
loop_
_geom_bond_atom_site_label_1
_geom_bond_atom_site_label_2
_geom_bond_site_symmetry_1
_geom_bond_site_symmetry_2
S1 C4 1_555 1_555
S2 C15 1_555 1_555
S3 C19 1_555 1_555
C1 C2 1_555 1_555
C2 C3 1_555 1_555
C3 C4 1_555 1_555
C4 H2 1_555 1_555
C5 S1 1_555 1_555
C6 C5 1_555 1_555
C7 C6 1_555 1_555
C8 C7 1_555 1_555
C9 C8 1_555 1_555
C10 C9 1_555 1_555
C11 C10 1_555 1_555
C12 C11 1_555 1_555
C13 C12 1_555 1_555
C14 C13 1_555 1_555
C15 C14 1_555 1_555
C16 S2 1_555 1_555
C17 C1 1_555 1_555
C18 C17 1_555 1_555
C19 C18 1_555 1_555
C20 S3 1_555 1_555
C21 C20 1_555 1_555
C22 C10 1_555 1_555
C23 C8 1_555 1_555
C24 C3 1_555 1_555
C25 C14 1_555 1_555
C26 C25 1_555 1_555
C27 C26 1_555 1_555
C28 C13 1_555 1_555
C29 C7 1_555 1_555
C30 C29 1_555 1_555
C31 C30 1_555 1_555
C32 C6 1_555 1_555
C33 C22 1_555 1_555
C34 C33 1_555 1_555
C35 C34 1_555 1_555
C36 C21 1_555 1_555
H1 C2 1_555 1_555
H3 C4 1_555 1_555
H4 C5 1_555 1_555
H5 C5 1_555 1_555
H6 C9 1_555 1_555
H7 C11 1_555 1_555
H8 C15 1_555 1_555
H9 C15 1_555 1_555
H10 C16 1_555 1_555
H11 C16 1_555 1_555
H12 C17 1_555 1_555
H13 C19 1_555 1_555
H14 C19 1_555 1_555
H15 C20 1_555 1_555
H16 C20 1_555 1_555
H17 C23 1_555 1_555
H18 C24 1_555 1_555
H19 C25 1_555 1_555
H20 C26 1_555 1_555
H21 C27 1_555 1_555
H22 C28 1_555 1_555
H23 C29 1_555 1_555
H24 C30 1_555 1_555
H25 C31 1_555 1_555
H26 C32 1_555 1_555
H27 C33 1_555 1_555
H28 C34 1_555 1_555
H29 C35 1_555 1_555
H30 C36 1_555 1_555
C1 C16 1_555 1_555
C12 C23 1_555 1_555
C18 C24 1_555 1_555
C21 C22 1_555 1_555
C27 C28 1_555 1_555
C31 C32 1_555 1_555
C35 C36 1_555 1_555

#END
