
#######################################################################
#
#                 Cambridge Crystallographic Data Centre
#                                CCDC 
#
#######################################################################
#
# If this CIF has been generated from an entry in the Cambridge 
# Structural Database, then it will include bibliographic, chemical, 
# crystal, experimental, refinement or atomic coordinate data resulting 
# from the CCDC's data processing and validation procedures.
#
#######################################################################

data_EACJUN
_chemical_formula_moiety         'C24 H22 S4'
_chemical_name_systematic        
21,22-m-Phenylene-3,5,13,15-tetrathiatricyclo(15.3.1.1^7,11^)docosa-1(21),7,9,11(22),17,19-hexaene
_symmetry_cell_setting           monoclinic
_symmetry_space_group_name_H-M   'P 21/n'
_symmetry_Int_Tables_number      14
_space_group_name_Hall           '-P 2yn'
loop_
_symmetry_equiv_pos_site_id
_symmetry_equiv_pos_as_xyz
1 x,y,z
2 1/2-x,1/2+y,1/2-z
3 -x,-y,-z
4 1/2+x,1/2-y,1/2+z
_cell_length_a                   11.783(4)
_cell_length_b                   8.778(4)
_cell_length_c                   20.693(4)
_cell_angle_alpha                90
_cell_angle_beta                 98.16(2)
_cell_angle_gamma                90
_cell_volume                     2118.63
_chemical_melting_point          304deg.C
_cell_formula_units_Z            4
loop_
_atom_site_label
_atom_site_type_symbol
_atom_site_fract_x
_atom_site_fract_y
_atom_site_fract_z
S1 S 0.1882(1) 0.1558(2) 0.77621(7)
S2 S 0.4274(1) 0.1280(2) 0.85297(7)
S3 S 0.4283(1) 0.4192(2) 0.56626(7)
S4 S 0.2115(1) 0.3667(2) 0.47775(8)
C1 C 0.0780(4) 0.1760(6) 0.5473(3)
C2 C -0.0313(5) 0.2384(7) 0.5452(3)
C3 C -0.0904(5) 0.2228(7) 0.5967(3)
C4 C -0.0410(5) 0.1499(7) 0.6527(3)
C5 C 0.0684(4) 0.0900(6) 0.6577(2)
C6 C 0.1206(5) 0.0124(7) 0.7194(3)
C7 C 0.2873(5) 0.0445(8) 0.8325(3)
C8 C 0.5083(5) 0.0462(7) 0.7925(3)
C9 C 0.5673(4) 0.1643(6) 0.7560(2)
C10 C 0.6514(5) 0.2578(7) 0.7906(3)
C11 C 0.7045(5) 0.3668(8) 0.7583(3)
C12 C 0.6767(4) 0.3857(7) 0.6915(3)
C13 C 0.5957(4) 0.2933(6) 0.6559(3)
C14 C 0.5409(4) 0.1811(6) 0.6884(2)
C15 C 0.4511(4) 0.0833(6) 0.6505(2)
C16 C 0.4767(5) -0.0498(7) 0.6191(3)
C17 C 0.3906(5) -0.1351(7) 0.5843(3)
C18 C 0.2775(5) -0.0886(6) 0.5785(3)
C19 C 0.2487(4) 0.0442(6) 0.6089(2)
C20 C 0.1285(4) 0.1028(6) 0.6038(2)
C21 C 0.3368(4) 0.1282(6) 0.6447(2)
C22 C 0.5656(5) 0.3176(7) 0.5835(3)
C23 C 0.3595(5) 0.3114(8) 0.4973(3)
C24 C 0.1353(5) 0.1878(7) 0.4876(3)
H1 H -0.061(4) 0.295(6) 0.507(2)
H2 H -0.161(5) 0.264(7) 0.593(3)
H3 H -0.078(3) 0.131(5) 0.685(2)
H4 H 0.176(4) -0.052(5) 0.712(2)
H5 H 0.064(5) -0.042(7) 0.737(3)
H6 H 0.289(4) -0.052(6) 0.817(2)
H7 H 0.260(5) 0.028(7) 0.878(3)
H8 H 0.566(5) -0.024(6) 0.813(3)
H9 H 0.457(5) -0.021(7) 0.767(3)
H10 H 0.669(4) 0.251(6) 0.840(2)
H11 H 0.759(5) 0.423(6) 0.783(3)
H12 H 0.714(4) 0.473(6) 0.667(2)
H13 H 0.550(4) -0.080(5) 0.621(2)
H14 H 0.409(4) -0.229(5) 0.565(2)
H15 H 0.214(3) -0.153(5) 0.555(2)
H16 H 0.316(3) 0.216(5) 0.661(2)
H17 H 0.551(4) 0.221(6) 0.566(2)
H18 H 0.621(4) 0.384(5) 0.564(2)
H19 H 0.365(3) 0.206(5) 0.511(2)
H20 H 0.397(4) 0.333(5) 0.462(2)
H21 H 0.076(4) 0.191(5) 0.454(2)
H22 H 0.187(4) 0.111(6) 0.480(2)
loop_
_geom_bond_atom_site_label_1
_geom_bond_atom_site_label_2
_geom_bond_site_symmetry_1
_geom_bond_site_symmetry_2
S1 C6 1_555 1_555
S2 C7 1_555 1_555
S3 C22 1_555 1_555
S4 C23 1_555 1_555
C1 C2 1_555 1_555
C2 C3 1_555 1_555
C3 C4 1_555 1_555
C4 C5 1_555 1_555
C5 C6 1_555 1_555
C6 H4 1_555 1_555
C7 S1 1_555 1_555
C8 S2 1_555 1_555
C9 C8 1_555 1_555
C10 C9 1_555 1_555
C11 C10 1_555 1_555
C12 C11 1_555 1_555
C13 C12 1_555 1_555
C14 C9 1_555 1_555
C15 C14 1_555 1_555
C16 C15 1_555 1_555
C17 C16 1_555 1_555
C18 C17 1_555 1_555
C19 C18 1_555 1_555
C20 C1 1_555 1_555
C21 C15 1_555 1_555
C22 C13 1_555 1_555
C23 S3 1_555 1_555
C24 S4 1_555 1_555
H1 C2 1_555 1_555
H2 C3 1_555 1_555
H3 C4 1_555 1_555
H5 C6 1_555 1_555
H6 C7 1_555 1_555
H7 C7 1_555 1_555
H8 C8 1_555 1_555
H9 C8 1_555 1_555
H10 C10 1_555 1_555
H11 C11 1_555 1_555
H12 C12 1_555 1_555
H13 C16 1_555 1_555
H14 C17 1_555 1_555
H15 C18 1_555 1_555
H16 C21 1_555 1_555
H17 C22 1_555 1_555
H18 C22 1_555 1_555
H19 C23 1_555 1_555
H20 C23 1_555 1_555
H21 C24 1_555 1_555
H22 C24 1_555 1_555
C1 C24 1_555 1_555
C5 C20 1_555 1_555
C13 C14 1_555 1_555
C19 C20 1_555 1_555
C19 C21 1_555 1_555

#END
