
#######################################################################
#
#                 Cambridge Crystallographic Data Centre
#                                CCDC 
#
#######################################################################
#
# If this CIF has been generated from an entry in the Cambridge 
# Structural Database, then it will include bibliographic, chemical, 
# crystal, experimental, refinement or atomic coordinate data resulting 
# from the CCDC's data processing and validation procedures.
#
#######################################################################

data_EACKIC
_chemical_formula_moiety         'C22 H24 O2 S4'
_chemical_name_systematic        
3,7,14,18-Tetrathiatricyclo(18.2.2.2^9,12^)hexacosa-9,11,20,22,23,25-hexaene-5,16-dione
_symmetry_cell_setting           monoclinic
_symmetry_space_group_name_H-M   'P 21/n'
_symmetry_Int_Tables_number      14
_space_group_name_Hall           '-P 2yn'
loop_
_symmetry_equiv_pos_site_id
_symmetry_equiv_pos_as_xyz
1 x,y,z
2 1/2-x,1/2+y,1/2-z
3 -x,-y,-z
4 1/2+x,1/2-y,1/2+z
_cell_length_a                   12.103(2)
_cell_length_b                   5.663(1)
_cell_length_c                   15.613(2)
_cell_angle_alpha                90
_cell_angle_beta                 93.49(1)
_cell_angle_gamma                90
_cell_volume                     1068.12
_chemical_melting_point          194deg.C
_cell_formula_units_Z            2
loop_
_atom_site_label
_atom_site_type_symbol
_atom_site_fract_x
_atom_site_fract_y
_atom_site_fract_z
S1 S 0.10941(5) 0.2550(1) 0.46598(4)
S2 S 0.36077(5) 0.1798(1) 0.29267(4)
O1 O 0.3427(2) -0.2047(4) 0.4643(1)
C1 C 0.1203(2) 0.2135(6) 0.5814(2)
C2 C 0.1725(2) -0.0125(5) 0.4303(2)
C3 C 0.2984(2) -0.0252(5) 0.4388(2)
C4 C 0.3655(2) 0.1767(5) 0.4087(2)
C5 C 0.4307(2) -0.0935(5) 0.2702(2)
C6 C 0.5471(2) -0.1186(4) 0.3097(1)
C7 C 0.5763(2) -0.3199(5) 0.3563(2)
C8 C 0.6831(2) -0.3515(5) 0.3913(2)
C9 C 0.2369(2) 0.1811(4) 0.6194(1)
C10 C 0.2659(2) -0.0198(5) 0.6656(2)
C11 C 0.6274(2) 0.0512(5) 0.2997(1)
H1 H 0.077(2) 0.072(5) 0.594(2)
H2 H 0.088(2) 0.354(5) 0.602(2)
H3 H 0.147(2) -0.135(5) 0.459(2)
H4 H 0.151(2) -0.020(5) 0.372(2)
H5 H 0.440(2) 0.154(4) 0.429(2)
H6 H 0.339(2) 0.323(5) 0.424(2)
H7 H 0.388(2) -0.227(5) 0.284(1)
H8 H 0.429(2) -0.091(5) 0.212(2)
H9 H 0.525(2) -0.439(5) 0.363(2)
H10 H 0.699(2) -0.500(5) 0.422(1)
H11 H 0.216(2) -0.132(4) 0.673(1)
H12 H 0.609(2) 0.190(4) 0.271(1)
C9B C 0.7631(2) -0.1811(4) 0.3806(1)
C8B C 0.3169(2) 0.3515(5) 0.6087(2)
C11B C 0.3726(2) -0.0512(5) 0.7003(1)
C10B C 0.7341(2) 0.0198(5) 0.3344(2)
C1B C 0.8797(2) -0.2135(6) 0.4186(2)
C7B C 0.4237(2) 0.3199(5) 0.6437(2)
H10B H 0.301(2) 0.500(5) 0.578(1)
C6B C 0.4529(2) 0.1186(4) 0.6903(1)
H12B H 0.391(2) -0.190(4) 0.729(1)
H11B H 0.784(2) 0.132(4) 0.327(1)
S1B S 0.89059(5) -0.2550(1) 0.53402(4)
H1B H 0.923(2) -0.072(5) 0.406(2)
H2B H 0.912(2) -0.354(5) 0.398(2)
H9B H 0.475(2) 0.439(5) 0.637(2)
C5B C 0.5693(2) 0.0935(5) 0.7298(2)
C2B C 0.8275(2) 0.0125(5) 0.5697(2)
S2B S 0.63923(5) -0.1798(1) 0.70733(4)
H7B H 0.612(2) 0.227(5) 0.716(1)
H8B H 0.571(2) 0.091(5) 0.788(2)
C3B C 0.7016(2) 0.0252(5) 0.5612(2)
H3B H 0.853(2) 0.135(5) 0.541(2)
H4B H 0.849(2) 0.020(5) 0.628(2)
C4B C 0.6345(2) -0.1767(5) 0.5913(2)
O1B O 0.6573(2) 0.2047(4) 0.5357(1)
H5B H 0.560(2) -0.154(4) 0.571(2)
H6B H 0.661(2) -0.323(5) 0.576(2)
loop_
_geom_bond_atom_site_label_1
_geom_bond_atom_site_label_2
_geom_bond_site_symmetry_1
_geom_bond_site_symmetry_2
S1 C1 1_555 1_555
S2 C4 1_555 1_555
O1 C3 1_555 1_555
C1 C9 1_555 1_555
C2 S1 1_555 1_555
C3 C2 1_555 1_555
C4 C3 1_555 1_555
C5 S2 1_555 1_555
C6 C5 1_555 1_555
C7 C6 1_555 1_555
C8 C7 1_555 1_555
C9 C10 1_555 1_555
C10 H11 1_555 1_555
C11 C6 1_555 1_555
H1 C1 1_555 1_555
H2 C1 1_555 1_555
H3 C2 1_555 1_555
H4 C2 1_555 1_555
H5 C4 1_555 1_555
H6 C4 1_555 1_555
H7 C5 1_555 1_555
H8 C5 1_555 1_555
H9 C7 1_555 1_555
H10 C8 1_555 1_555
H12 C11 1_555 1_555
C9B C8 1_555 1_555
C8B C9 1_555 1_555
C11B C10 1_555 1_555
C10B C11 1_555 1_555
C1B C9B 1_555 1_555
C7B C8B 1_555 1_555
H10B C8B 1_555 1_555
C6B C11B 1_555 1_555
H12B C11B 1_555 1_555
H11B C10B 1_555 1_555
S1B C1B 1_555 1_555
H1B C1B 1_555 1_555
H2B C1B 1_555 1_555
H9B C7B 1_555 1_555
C5B C6B 1_555 1_555
C2B S1B 1_555 1_555
S2B C5B 1_555 1_555
H7B C5B 1_555 1_555
H8B C5B 1_555 1_555
C3B C2B 1_555 1_555
H3B C2B 1_555 1_555
H4B C2B 1_555 1_555
C4B S2B 1_555 1_555
O1B C3B 1_555 1_555
H5B C4B 1_555 1_555
H6B C4B 1_555 1_555
C9B C10B 1_555 1_555
C7B C6B 1_555 1_555
C3B C4B 1_555 1_555

#END
