
#######################################################################
#
#                 Cambridge Crystallographic Data Centre
#                                CCDC 
#
#######################################################################
#
# If this CIF has been generated from an entry in the Cambridge 
# Structural Database, then it will include bibliographic, chemical, 
# crystal, experimental, refinement or atomic coordinate data resulting 
# from the CCDC's data processing and validation procedures.
#
#######################################################################

data_EACKEY
_chemical_formula_moiety         'C22 H24 O2 S4'
_chemical_name_systematic        
3,7,15,19-Tetrathiatricyclo(19.3.1.1^9,13^)hexacosa-1(25),9,11,13(26)21,23-hexaen-5,17-dione
_symmetry_cell_setting           triclinic
_symmetry_space_group_name_H-M   'P -1'
_symmetry_Int_Tables_number      2
_space_group_name_Hall           '-P 1'
loop_
_symmetry_equiv_pos_site_id
_symmetry_equiv_pos_as_xyz
1 x,y,z
2 -x,-y,-z
_cell_length_a                   9.454(2)
_cell_length_b                   21.402(5)
_cell_length_c                   5.441(2)
_cell_angle_alpha                92.81(2)
_cell_angle_beta                 103.07(2)
_cell_angle_gamma                91.59(2)
_cell_volume                     1070.24
_chemical_melting_point          127deg.C
_cell_formula_units_Z            2
loop_
_atom_site_label
_atom_site_type_symbol
_atom_site_fract_x
_atom_site_fract_y
_atom_site_fract_z
S1 S -0.0792(2) 0.09373(9) 0.3571(4)
S2 S -0.1098(2) 0.31013(8) 0.0523(3)
S3 S 0.5621(2) 0.40381(8) 0.9021(3)
S4 S 0.6409(2) 0.21106(9) 0.4118(3)
O1 O 0.0479(5) 0.2267(2) 0.5378(8)
O2 O 0.4184(5) 0.2720(2) 0.7672(8)
C1 C 0.2229(7) 0.0760(3) 0.480(1)
C2 C 0.0891(8) 0.0811(3) 0.586(1)
C3 C -0.0262(9) 0.1546(3) 0.175(1)
C4 C 0.0288(7) 0.2167(3) 0.310(1)
C5 C 0.0548(8) 0.2676(3) 0.142(1)
C6 C -0.0982(7) 0.3576(3) 0.345(1)
C7 C 0.0345(6) 0.3986(3) 0.418(1)
C8 C 0.0546(7) 0.4495(3) 0.279(1)
C9 C 0.1792(7) 0.4891(3) 0.351(1)
C10 C 0.2853(7) 0.4771(3) 0.564(1)
C11 C 0.2671(6) 0.4269(3) 0.706(1)
C12 C 0.3779(6) 0.4134(3) 0.941(1)
C13 C 0.5374(7) 0.3582(3) 0.610(1)
C14 C 0.4702(7) 0.2915(3) 0.600(1)
C15 C 0.4714(8) 0.2512(4) 0.365(1)
C16 C 0.6023(8) 0.1522(4) 0.619(1)
C17 C 0.4737(7) 0.1108(3) 0.502(1)
C18 C 0.4762(8) 0.0685(3) 0.301(1)
C19 C 0.3533(8) 0.0310(4) 0.189(1)
C20 C 0.2270(7) 0.0347(3) 0.278(1)
C21 C 0.3462(7) 0.1144(3) 0.588(1)
C22 C 0.1420(6) 0.3874(3) 0.631(1)
H1 H 0.098(6) 0.114(3) 0.70(1)
H2 H 0.0765 0.0424 0.6631
H3 H 0.039(9) 0.135(4) 0.11(1)
H4 H -0.123(9) 0.154(4) 0.05(1)
H5 H 0.088(7) 0.257(3) -0.01(1)
H6 H 0.127(7) 0.292(3) 0.23(1)
H7 H -0.184(6) 0.378(2) 0.30(1)
H8 H -0.101(7) 0.335(3) 0.47(1)
H9 H -0.0177 0.4578 0.1327
H10 H 0.1913 0.5241 0.2539
H11 H 0.375(7) 0.510(3) 0.61(1)
H12 H 0.402(6) 0.452(3) 1.08(1)
H13 H 0.3468 0.3752 1.0023
H14 H 0.4788 0.3802 0.4842
H15 H 0.6320 0.3541 0.5762
H16 H 0.393(7) 0.217(3) 0.33(1)
H17 H 0.464(7) 0.269(3) 0.23(1)
H18 H 0.584(5) 0.170(2) 0.77(1)
H19 H 0.680(7) 0.137(3) 0.64(1)
H20 H 0.57(1) 0.077(4) 0.23(2)
H21 H 0.338(7) -0.002(3) 0.05(1)
H22 H 0.1427 0.0087 0.2002
H23 H 0.352(5) 0.149(2) 0.73(1)
H24 H 0.1307 0.3523 0.7271
loop_
_geom_bond_atom_site_label_1
_geom_bond_atom_site_label_2
_geom_bond_site_symmetry_1
_geom_bond_site_symmetry_2
S1 C2 1_555 1_555
S2 C5 1_555 1_555
S3 C12 1_555 1_555
S4 C15 1_555 1_555
O1 C4 1_555 1_555
O2 C14 1_555 1_555
C1 C2 1_555 1_555
C2 H1 1_555 1_555
C3 S1 1_555 1_555
C4 C3 1_555 1_555
C5 C4 1_555 1_555
C6 S2 1_555 1_555
C7 C6 1_555 1_555
C8 C7 1_555 1_555
C9 C8 1_555 1_555
C10 C9 1_555 1_555
C11 C10 1_555 1_555
C12 C11 1_555 1_555
C13 S3 1_555 1_555
C14 C13 1_555 1_555
C15 C14 1_555 1_555
C16 S4 1_555 1_555
C17 C16 1_555 1_555
C18 C17 1_555 1_555
C19 C18 1_555 1_555
C20 C1 1_555 1_555
C21 C1 1_555 1_555
C22 C7 1_555 1_555
H2 C2 1_555 1_555
H3 C3 1_555 1_555
H4 C3 1_555 1_555
H5 C5 1_555 1_555
H6 C5 1_555 1_555
H7 C6 1_555 1_555
H8 C6 1_555 1_555
H9 C8 1_555 1_555
H10 C9 1_555 1_555
H11 C10 1_555 1_555
H12 C12 1_555 1_555
H13 C12 1_555 1_555
H14 C13 1_555 1_555
H15 C13 1_555 1_555
H16 C15 1_555 1_555
H17 C15 1_555 1_555
H18 C16 1_555 1_555
H19 C16 1_555 1_555
H20 C18 1_555 1_555
H21 C19 1_555 1_555
H22 C20 1_555 1_555
H23 C21 1_555 1_555
H24 C22 1_555 1_555
C11 C22 1_555 1_555
C17 C21 1_555 1_555
C19 C20 1_555 1_555

#END
