
#######################################################################
#
#                 Cambridge Crystallographic Data Centre
#                                CCDC 
#
#######################################################################
#
# If this CIF has been generated from an entry in the Cambridge 
# Structural Database, then it will include bibliographic, chemical, 
# crystal, experimental, refinement or atomic coordinate data resulting 
# from the CCDC's data processing and validation procedures.
#
#######################################################################

data_EADSUX
_chemical_formula_moiety         'C18 H24 O2'
_chemical_name_systematic        
1-Acetonyl-7-hydroxy-2,5-dimethyl-7-phenylbicyclo(3.2.0)heptane
_symmetry_cell_setting           monoclinic
_symmetry_space_group_name_H-M   'P 21/c'
_symmetry_Int_Tables_number      14
_space_group_name_Hall           '-P 2ybc'
loop_
_symmetry_equiv_pos_site_id
_symmetry_equiv_pos_as_xyz
1 x,y,z
2 -x,1/2+y,1/2-z
3 -x,-y,-z
4 x,1/2-y,1/2+z
_cell_length_a                   7.979(1)
_cell_length_b                   12.418(3)
_cell_length_c                   16.3005(9)
_cell_angle_alpha                90
_cell_angle_beta                 102.124(7)
_cell_angle_gamma                90
_cell_volume                     1579.08
_exptl_crystal_colour            colorless
_cell_formula_units_Z            4
loop_
_atom_site_label
_atom_site_type_symbol
_atom_site_fract_x
_atom_site_fract_y
_atom_site_fract_z
O1 O 0.6444(3) 0.2594(2) -0.3026(1)
O2 O 0.5724(2) 0.2418(2) 0.0193(1)
C1 C 0.6438(3) 0.2274(2) -0.1220(2)
C2 C 0.4547(4) 0.2572(3) -0.1552(2)
C3 C 0.3569(4) 0.1532(4) -0.1469(2)
C4 C 0.4704(5) 0.0662(3) -0.1715(2)
C5 C 0.6534(4) 0.1024(3) -0.1340(2)
C6 C 0.7025(4) 0.0876(3) -0.0377(2)
C7 C 0.7021(3) 0.2097(2) -0.0232(2)
C8 C 0.7668(4) 0.2987(2) -0.1579(2)
C9 C 0.7542(4) 0.3030(3) -0.2517(2)
C10 C 0.8925(4) 0.3664(3) -0.2788(2)
C11 C 0.3884(5) 0.3606(4) -0.1225(2)
C12 C 0.7838(5) 0.0547(3) -0.1797(2)
C13 C 0.8701(3) 0.2619(2) 0.0189(2)
C14 C 0.8678(5) 0.3639(3) 0.0515(2)
C15 C 1.0178(6) 0.4126(4) 0.0910(3)
C16 C 1.1724(5) 0.3622(5) 0.0988(3)
C17 C 1.1763(4) 0.2616(4) 0.0660(2)
C18 C 1.0262(4) 0.2110(3) 0.0254(2)
H1 H 0.43632 0.28029 -0.21215
H2 H 0.24698 0.15297 -0.18323
H3 H 0.34386 0.14271 -0.09052
H4 H 0.45341 0.06086 -0.23113
H5 H 0.44803 -0.00203 -0.14949
H6 H 0.81113 0.05472 -0.01802
H7 H 0.61833 0.04991 -0.01481
H8 H 0.87955 0.27530 -0.13330
H9 H 0.75093 0.37019 -0.13994
H10 H 0.93372 0.42032 -0.23795
H11 H 0.98327 0.32014 -0.28453
H12 H 0.84678 0.40032 -0.33111
H13 H 0.37632 0.35036 -0.06588
H14 H 0.46810 0.41796 -0.12336
H15 H 0.28080 0.37989 -0.15609
H16 H 0.89506 0.08044 -0.15485
H17 H 0.78242 -0.02183 -0.17555
H18 H 0.75604 0.07499 -0.23707
H19 H 0.76195 0.40110 0.04597
H20 H 1.01261 0.48370 0.11315
H21 H 1.27433 0.39810 0.12690
H22 H 1.28363 0.22618 0.07181
H23 H 1.03140 0.14119 0.00212
H24 H 0.59710 0.24644 0.07890
loop_
_geom_bond_atom_site_label_1
_geom_bond_atom_site_label_2
_geom_bond_site_symmetry_1
_geom_bond_site_symmetry_2
O1 C9 1_555 1_555
O2 C7 1_555 1_555
C1 C2 1_555 1_555
C2 C3 1_555 1_555
C3 C4 1_555 1_555
C4 C5 1_555 1_555
C5 C1 1_555 1_555
C6 C5 1_555 1_555
C7 C1 1_555 1_555
C8 C1 1_555 1_555
C9 C8 1_555 1_555
C10 C9 1_555 1_555
C11 C2 1_555 1_555
C12 C5 1_555 1_555
C13 C7 1_555 1_555
C14 C13 1_555 1_555
C15 C14 1_555 1_555
C16 C15 1_555 1_555
C17 C16 1_555 1_555
C18 C13 1_555 1_555
H1 C2 1_555 1_555
H2 C3 1_555 1_555
H3 C3 1_555 1_555
H4 C4 1_555 1_555
H5 C4 1_555 1_555
H6 C6 1_555 1_555
H7 C6 1_555 1_555
H8 C8 1_555 1_555
H9 C8 1_555 1_555
H10 C10 1_555 1_555
H11 C10 1_555 1_555
H12 C10 1_555 1_555
H13 C11 1_555 1_555
H14 C11 1_555 1_555
H15 C11 1_555 1_555
H16 C12 1_555 1_555
H17 C12 1_555 1_555
H18 C12 1_555 1_555
H19 C14 1_555 1_555
H20 C15 1_555 1_555
H21 C16 1_555 1_555
H22 C17 1_555 1_555
H23 C18 1_555 1_555
H24 O2 1_555 1_555
C6 C7 1_555 1_555
C17 C18 1_555 1_555

#END
