
#######################################################################
#
#                 Cambridge Crystallographic Data Centre
#                                CCDC 
#
#######################################################################
#
# If this CIF has been generated from an entry in the Cambridge 
# Structural Database, then it will include bibliographic, chemical, 
# crystal, experimental, refinement or atomic coordinate data resulting 
# from the CCDC's data processing and validation procedures.
#
#######################################################################

data_EBABIU
_chemical_formula_moiety         'C18 H15 Cl1 O1'
_chemical_name_systematic        
(S)-2-(4-Chlorobenzylidene)-3-phenylcyclopentanone
_symmetry_cell_setting           monoclinic
_symmetry_space_group_name_H-M   'P 21'
_symmetry_Int_Tables_number      4
_space_group_name_Hall           'P 2yb'
loop_
_symmetry_equiv_pos_site_id
_symmetry_equiv_pos_as_xyz
1 x,y,z
2 -x,1/2+y,-z
_cell_length_a                   6.025(3)
_cell_length_b                   8.067(3)
_cell_length_c                   14.859(6)
_cell_angle_alpha                90
_cell_angle_beta                 92.998(7)
_cell_angle_gamma                90
_cell_volume                     721.214
_exptl_crystal_colour            colorless
_exptl_crystal_description       plate
_cell_formula_units_Z            2
loop_
_atom_site_label
_atom_site_type_symbol
_atom_site_fract_x
_atom_site_fract_y
_atom_site_fract_z
Cl1 Cl 0.05896(16) 0.80816(13) 0.62069(5)
O1 O 0.8345(3) 0.6967(3) 0.13544(17)
C1 C 0.6605(5) 0.7739(3) 0.1250(2)
C2 C 0.5062(4) 0.8126(4) 0.19752(17)
C3 C 0.2998(5) 0.8938(3) 0.15471(18)
H1 H 0.1656 0.8381 0.1776
C4 C 0.3141(5) 0.8532(4) 0.05297(19)
H2 H 0.2376 0.7474 0.0379
H3 H 0.2448 0.9424 0.0154
C5 C 0.5616(5) 0.8400(4) 0.0374(2)
H4 H 0.5884 0.7632 -0.0128
H5 H 0.6247 0.9499 0.0237
C6 C 0.5577(5) 0.7679(3) 0.28304(19)
H6 H 0.6999 0.7182 0.2928
C7 C 0.4293(5) 0.7835(4) 0.36394(18)
C8 C 0.5157(6) 0.7080(4) 0.4430(2)
H7 H 0.6540 0.6516 0.4425
C9 C 0.4043(6) 0.7136(5) 0.5218(2)
H8 H 0.4647 0.6613 0.5749
C10 C 0.2027(6) 0.7967(4) 0.52237(19)
C11 C 0.1143(6) 0.8744(4) 0.4457(2)
H9 H -0.0234 0.9316 0.4468
C12 C 0.2289(5) 0.8680(4) 0.3673(2)
H10 H 0.1692 0.9225 0.3148
C13 C 0.2816(5) 1.0797(3) 0.17066(17)
C14 C 0.0810(5) 1.1570(4) 0.14567(19)
H11 H -0.0382 1.0932 0.1195
C15 C 0.0525(5) 1.3266(4) 0.15846(19)
H12 H -0.0856 1.3777 0.1418
C16 C 0.2262(5) 1.4200(4) 0.1955(2)
H13 H 0.2084 1.5358 0.2042
C17 C 0.4261(5) 1.3444(4) 0.2201(2)
H14 H 0.5455 1.4088 0.2456
C18 C 0.4545(5) 1.1746(4) 0.2078(2)
H15 H 0.5927 1.1240 0.2250
loop_
_geom_bond_atom_site_label_1
_geom_bond_atom_site_label_2
_geom_bond_site_symmetry_1
_geom_bond_site_symmetry_2
Cl1 C10 1_555 1_555
O1 C1 1_555 1_555
C1 C2 1_555 1_555
C2 C3 1_555 1_555
C3 H1 1_555 1_555
C4 C3 1_555 1_555
H2 C4 1_555 1_555
H3 C4 1_555 1_555
C5 C1 1_555 1_555
H4 C5 1_555 1_555
H5 C5 1_555 1_555
C6 C2 1_555 1_555
H6 C6 1_555 1_555
C7 C6 1_555 1_555
C8 C7 1_555 1_555
H7 C8 1_555 1_555
C9 C8 1_555 1_555
H8 C9 1_555 1_555
C10 C9 1_555 1_555
C11 C10 1_555 1_555
H9 C11 1_555 1_555
C12 C7 1_555 1_555
H10 C12 1_555 1_555
C13 C3 1_555 1_555
C14 C13 1_555 1_555
H11 C14 1_555 1_555
C15 C14 1_555 1_555
H12 C15 1_555 1_555
C16 C15 1_555 1_555
H13 C16 1_555 1_555
C17 C16 1_555 1_555
H14 C17 1_555 1_555
C18 C13 1_555 1_555
H15 C18 1_555 1_555
C4 C5 1_555 1_555
C11 C12 1_555 1_555
C17 C18 1_555 1_555

#END
