
#######################################################################
#
#                 Cambridge Crystallographic Data Centre
#                                CCDC 
#
#######################################################################
#
# If this CIF has been generated from an entry in the Cambridge 
# Structural Database, then it will include bibliographic, chemical, 
# crystal, experimental, refinement or atomic coordinate data resulting 
# from the CCDC's data processing and validation procedures.
#
#######################################################################

data_EBACEQ
_chemical_formula_moiety         'C22 H41 N3 O6'
_chemical_name_systematic        
'(6-(t-Butoxycarbonylamino)hexanoyl)-(\a-aminoisobutyryl)-leucine methyl ester'
_symmetry_cell_setting           triclinic
_symmetry_space_group_name_H-M   'P 1'
_symmetry_Int_Tables_number      1
_space_group_name_Hall           'P 1'
loop_
_symmetry_equiv_pos_site_id
_symmetry_equiv_pos_as_xyz
1 x,y,z
_cell_length_a                   9.354(14)
_cell_length_b                   9.844(14)
_cell_length_c                   15.72(2)
_cell_angle_alpha                79.378(10)
_cell_angle_beta                 76.445(10)
_cell_angle_gamma                87.222(10)
_cell_volume                     1383.06
_exptl_crystal_colour            colorless
_chemical_melting_point          '108-109 deg.C'
_cell_formula_units_Z            2
_exptl_crystal_recrystallization_method 'ethyl acetate'
loop_
_atom_site_label
_atom_site_type_symbol
_atom_site_fract_x
_atom_site_fract_y
_atom_site_fract_z
C1 C 0.7285(18) 0.6924(11) 0.4181(9)
O1 O 0.8323(12) 0.7415(11) 0.4352(8)
O2 O 0.7352(12) 0.6280(9) 0.3498(7)
C2 C 0.880(2) 0.619(2) 0.2943(14)
H1 H 0.8837 0.5441 0.2623
H2 H 0.9507 0.6024 0.3308
H3 H 0.9030 0.7039 0.2529
C3 C 0.5718(12) 0.6978(9) 0.4684(7)
H4 H 0.5259 0.6085 0.4733
N1 N 0.5702(8) 0.7214(7) 0.5588(5)
H5 H 0.6074 0.7971 0.5635
C4 C 0.5155(9) 0.6343(8) 0.6330(7)
C5 C 0.5169(9) 0.6803(8) 0.7223(6)
N2 N 0.6662(8) 0.7287(6) 0.7188(5)
H6 H 0.6767 0.8116 0.7264
C6 C 0.7861(12) 0.6467(10) 0.7041(7)
O3 O 0.7760(7) 0.5275(6) 0.6882(5)
C7 C 0.9314(10) 0.7037(9) 0.7038(7)
H7 H 0.9166 0.7932 0.7221
H8 H 0.9926 0.7168 0.6439
C8 C 1.0100(15) 0.6081(13) 0.7659(9)
H9 H 1.1107 0.6381 0.7562
H10 H 1.0118 0.5146 0.7540
C9 C 0.923(2) 0.611(3) 0.8698(15)
H11 H 0.8853 0.7046 0.8707
H12 H 0.8372 0.5526 0.8813
C10 C 0.972(3) 0.582(4) 0.9302(19)
H13 H 1.0576 0.6397 0.9192
H14 H 1.0080 0.4878 0.9303
C11 C 0.8835(15) 0.5876(14) 1.0287(9)
H15 H 0.9001 0.6751 1.0448
H16 H 0.7789 0.5781 1.0339
N3 N 0.9375(10) 0.4726(10) 1.0873(7)
H17 H 1.0204 0.4784 1.1011
O4 O 0.7375(9) 0.3390(9) 1.1065(6)
C12 C 0.8557(15) 0.3587(12) 1.1187(8)
O5 O 0.9317(8) 0.2663(8) 1.1693(6)
C13 C 0.8735(15) 0.1312(12) 1.2163(11)
C14 C 0.9845(18) 0.0744(14) 1.2693(13)
H18 H 0.9519 -0.0137 1.3047
H19 H 0.9948 0.1371 1.3075
H20 H 1.0776 0.0634 1.2295
C15 C 0.848(3) 0.046(2) 1.1475(17)
H21 H 0.9350 0.0483 1.1006
H22 H 0.7670 0.0853 1.1230
H23 H 0.8259 -0.0477 1.1762
C16 C 0.732(2) 0.160(2) 1.2845(14)
H24 H 0.6650 0.0839 1.2958
H25 H 0.6858 0.2432 1.2611
H26 H 0.7560 0.1700 1.3390
C17 C 0.4832(15) 0.8137(11) 0.4203(9)
H27 H 0.5300 0.9015 0.4152
H28 H 0.4910 0.7972 0.3604
C18 C 0.325(2) 0.827(2) 0.4626(12)
H29 H 0.3165 0.8420 0.5235
C19 C 0.268(2) 0.958(2) 0.4095(15)
H30 H 0.1660 0.9719 0.4350
H31 H 0.2804 0.9474 0.3488
H32 H 0.3233 1.0368 0.4118
C20 C 0.2411(19) 0.705(3) 0.4664(13)
H33 H 0.2682 0.6306 0.5084
H34 H 0.2615 0.6796 0.4087
H35 H 0.1380 0.7247 0.4847
O6 O 0.4565(7) 0.5225(6) 0.6329(5)
C21 C 0.4663(11) 0.5672(9) 0.8037(7)
H36 H 0.3772 0.5268 0.7998
H37 H 0.4489 0.6066 0.8567
H38 H 0.5412 0.4971 0.8055
C22 C 0.4104(10) 0.8062(8) 0.7306(7)
H39 H 0.3114 0.7766 0.7375
H40 H 0.4368 0.8753 0.6779
H41 H 0.4172 0.8444 0.7815
O7 O 0.2017(12) 1.2958(11) 0.4700(7)
O8 O 0.4342(11) 1.3498(10) 0.4404(6)
C23 C 0.412(3) 1.398(2) 0.3491(17)
H42 H 0.3432 1.4741 0.3496
H43 H 0.3740 1.3242 0.3291
H44 H 0.5041 1.4283 0.3096
C24 C 0.318(2) 1.2967(13) 0.4936(12)
C25 C 0.3338(10) 1.2176(9) 0.5844(7)
H45 H 0.3199 1.1194 0.5851
N4 N 0.4820(7) 1.2329(7) 0.5979(5)
H46 H 0.4955 1.2962 0.6263
C26 C 0.5975(10) 1.1543(8) 0.5686(6)
C27 C 0.7506(9) 1.1984(7) 0.5761(6)
N5 N 0.7454(7) 1.2312(7) 0.6648(5)
H47 H 0.7701 1.3128 0.6682
C28 C 0.7032(10) 1.1380(10) 0.7413(7)
C29 C 0.6903(11) 1.1926(9) 0.8296(6)
H48 H 0.7493 1.1349 0.8654
H49 H 0.7286 1.2859 0.8163
C30 C 0.5308(10) 1.1927(8) 0.8824(6)
H50 H 0.4907 1.1004 0.8933
H51 H 0.4727 1.2545 0.8481
C31 C 0.5213(11) 1.2397(9) 0.9721(6)
H52 H 0.5751 1.1748 1.0075
H53 H 0.5672 1.3294 0.9611
C32 C 0.3646(10) 1.2489(9) 1.0235(7)
H54 H 0.3156 1.1623 1.0281
H55 H 0.3141 1.3212 0.9908
C33 C 0.3512(11) 1.2796(9) 1.1179(7)
H56 H 0.2480 1.2875 1.1464
H57 H 0.3925 1.2027 1.1528
N6 N 0.4260(8) 1.4055(7) 1.1174(5)
H58 H 0.5154 1.4013 1.1230
O9 O 0.4526(8) 1.6286(7) 1.1005(6)
C34 C 0.4103(14) 1.7732(11) 1.0914(10)
C35 C 0.296(2) 1.7943(16) 1.1728(12)
H59 H 0.2882 1.8910 1.1759
H60 H 0.3243 1.7442 1.2249
H61 H 0.2029 1.7613 1.1697
C36 C 0.5439(19) 1.8439(15) 1.0939(17)
H62 H 0.5213 1.9389 1.0981
H63 H 0.6178 1.8390 1.0407
H64 H 0.5798 1.7998 1.1447
O10 O 0.2289(10) 1.5445(7) 1.1083(6)
C37 C 0.355(3) 1.8188(14) 1.0079(13)
H65 H 0.2527 1.7948 1.0194
H66 H 0.4103 1.7734 0.9616
H67 H 0.3651 1.9170 0.9897
C38 C 0.3575(14) 1.5281(11) 1.1083(7)
O11 O 0.6692(7) 1.0176(5) 0.7421(4)
C39 C 0.8680(10) 1.0881(9) 0.5546(7)
H68 H 0.8718 1.0697 0.4962
H69 H 0.8438 1.0047 0.5975
H70 H 0.9620 1.1207 0.5566
C40 C 0.7923(11) 1.3327(9) 0.5087(7)
H71 H 0.7947 1.3166 0.4500
H72 H 0.8875 1.3623 0.5109
H73 H 0.7207 1.4031 0.5232
O12 O 0.5830(6) 1.0489(6) 0.5364(4)
C41 C 0.2166(10) 1.2595(8) 0.6609(7)
H74 H 0.1228 1.2696 0.6440
H75 H 0.2420 1.3486 0.6711
C42 C 0.2004(12) 1.1531(10) 0.7486(7)
H76 H 0.2985 1.1191 0.7544
C43 C 0.1094(12) 1.0308(10) 0.7421(9)
H77 H 0.1602 0.9878 0.6934
H78 H 0.0152 1.0636 0.7325
H79 H 0.0962 0.9646 0.7964
C44 C 0.1309(13) 1.2213(12) 0.8287(8)
H80 H 0.1256 1.1552 0.8825
H81 H 0.0337 1.2531 0.8247
H82 H 0.1899 1.2982 0.8291
loop_
_geom_bond_atom_site_label_1
_geom_bond_atom_site_label_2
_geom_bond_site_symmetry_1
_geom_bond_site_symmetry_2
C1 O1 1_555 1_555
O2 C1 1_555 1_555
C2 O2 1_555 1_555
H1 C2 1_555 1_555
H2 C2 1_555 1_555
H3 C2 1_555 1_555
C3 C1 1_555 1_555
H4 C3 1_555 1_555
N1 C3 1_555 1_555
H5 N1 1_555 1_555
C4 N1 1_555 1_555
C5 C4 1_555 1_555
N2 C5 1_555 1_555
H6 N2 1_555 1_555
C6 N2 1_555 1_555
O3 C6 1_555 1_555
C7 C6 1_555 1_555
H7 C7 1_555 1_555
H8 C7 1_555 1_555
C8 C7 1_555 1_555
H9 C8 1_555 1_555
H10 C8 1_555 1_555
C9 C8 1_555 1_555
H11 C9 1_555 1_555
H12 C9 1_555 1_555
C10 C9 1_555 1_555
H13 C10 1_555 1_555
H14 C10 1_555 1_555
C11 C10 1_555 1_555
H15 C11 1_555 1_555
H16 C11 1_555 1_555
N3 C11 1_555 1_555
H17 N3 1_555 1_555
O4 C12 1_555 1_555
C12 N3 1_555 1_555
O5 C12 1_555 1_555
C13 O5 1_555 1_555
C14 C13 1_555 1_555
H18 C14 1_555 1_555
H19 C14 1_555 1_555
H20 C14 1_555 1_555
C15 C13 1_555 1_555
H21 C15 1_555 1_555
H22 C15 1_555 1_555
H23 C15 1_555 1_555
C16 C13 1_555 1_555
H24 C16 1_555 1_555
H25 C16 1_555 1_555
H26 C16 1_555 1_555
C17 C3 1_555 1_555
H27 C17 1_555 1_555
H28 C17 1_555 1_555
C18 C17 1_555 1_555
H29 C18 1_555 1_555
C19 C18 1_555 1_555
H30 C19 1_555 1_555
H31 C19 1_555 1_555
H32 C19 1_555 1_555
C20 C18 1_555 1_555
H33 C20 1_555 1_555
H34 C20 1_555 1_555
H35 C20 1_555 1_555
O6 C4 1_555 1_555
C21 C5 1_555 1_555
H36 C21 1_555 1_555
H37 C21 1_555 1_555
H38 C21 1_555 1_555
C22 C5 1_555 1_555
H39 C22 1_555 1_555
H40 C22 1_555 1_555
H41 C22 1_555 1_555
O7 C24 1_555 1_555
O8 C23 1_555 1_555
C23 H42 1_555 1_555
H43 C23 1_555 1_555
H44 C23 1_555 1_555
C24 O8 1_555 1_555
C25 C24 1_555 1_555
H45 C25 1_555 1_555
N4 C25 1_555 1_555
H46 N4 1_555 1_555
C26 N4 1_555 1_555
C27 C26 1_555 1_555
N5 C27 1_555 1_555
H47 N5 1_555 1_555
C28 N5 1_555 1_555
C29 C28 1_555 1_555
H48 C29 1_555 1_555
H49 C29 1_555 1_555
C30 C29 1_555 1_555
H50 C30 1_555 1_555
H51 C30 1_555 1_555
C31 C30 1_555 1_555
H52 C31 1_555 1_555
H53 C31 1_555 1_555
C32 C31 1_555 1_555
H54 C32 1_555 1_555
H55 C32 1_555 1_555
C33 C32 1_555 1_555
H56 C33 1_555 1_555
H57 C33 1_555 1_555
N6 C33 1_555 1_555
H58 N6 1_555 1_555
O9 C34 1_555 1_555
C34 C35 1_555 1_555
C35 H59 1_555 1_555
H60 C35 1_555 1_555
H61 C35 1_555 1_555
C36 C34 1_555 1_555
H62 C36 1_555 1_555
H63 C36 1_555 1_555
H64 C36 1_555 1_555
O10 C38 1_555 1_555
C37 C34 1_555 1_555
H65 C37 1_555 1_555
H66 C37 1_555 1_555
H67 C37 1_555 1_555
C38 N6 1_555 1_555
O11 C28 1_555 1_555
C39 C27 1_555 1_555
H68 C39 1_555 1_555
H69 C39 1_555 1_555
H70 C39 1_555 1_555
C40 C27 1_555 1_555
H71 C40 1_555 1_555
H72 C40 1_555 1_555
H73 C40 1_555 1_555
O12 C26 1_555 1_555
C41 C25 1_555 1_555
H74 C41 1_555 1_555
H75 C41 1_555 1_555
C42 C41 1_555 1_555
H76 C42 1_555 1_555
C43 C42 1_555 1_555
H77 C43 1_555 1_555
H78 C43 1_555 1_555
H79 C43 1_555 1_555
C44 C42 1_555 1_555
H80 C44 1_555 1_555
H81 C44 1_555 1_555
H82 C44 1_555 1_555
O9 C38 1_555 1_555

#END
