
#######################################################################
#
#                 Cambridge Crystallographic Data Centre
#                                CCDC 
#
#######################################################################
#
# If this CIF has been generated from an entry in the Cambridge 
# Structural Database, then it will include bibliographic, chemical, 
# crystal, experimental, refinement or atomic coordinate data resulting 
# from the CCDC's data processing and validation procedures.
#
#######################################################################

data_EBACOB
_chemical_formula_moiety         'C20 H15 N3 O1'
_chemical_name_systematic        
6-Phenyl-9,10-dihydropyrimido[1',2':1,2]pyrrolo[3,4-c]quinolin-12(8H)-one
_symmetry_cell_setting           monoclinic
_symmetry_space_group_name_H-M   'P 21/c'
_symmetry_Int_Tables_number      14
_space_group_name_Hall           '-P 2ybc'
loop_
_symmetry_equiv_pos_site_id
_symmetry_equiv_pos_as_xyz
1 x,y,z
2 -x,1/2+y,1/2-z
3 -x,-y,-z
4 x,1/2-y,1/2+z
_cell_length_a                   12.367(4)
_cell_length_b                   9.063(3)
_cell_length_c                   13.664(5)
_cell_angle_alpha                90
_cell_angle_beta                 96.585(4)
_cell_angle_gamma                90
_cell_volume                     1521.39
_exptl_crystal_colour            colorless
_exptl_crystal_description       block
_cell_formula_units_Z            4
loop_
_atom_site_label
_atom_site_type_symbol
_atom_site_fract_x
_atom_site_fract_y
_atom_site_fract_z
C1 C 0.20223(12) 1.10155(15) 0.66076(12)
C2 C 0.11552(14) 1.1015(2) 0.58757(14)
H1 H 0.1228 1.0579 0.5271
C3 C 0.01793(15) 1.1659(2) 0.60379(18)
H2 H -0.0398 1.1670 0.5538
C4 C 0.00575(16) 1.2281(2) 0.6935(2)
H3 H -0.0599 1.2721 0.7040
C5 C 0.09024(17) 1.2253(3) 0.76718(19)
H4 H 0.0816 1.2658 0.8284
C6 C 0.18827(15) 1.1626(2) 0.75119(15)
H5 H 0.2455 1.1614 0.8017
C7 C 0.31327(12) 1.05088(15) 0.64361(11)
C8 C 0.49422(12) 1.12257(16) 0.64141(10)
C9 C 0.57078(13) 1.23922(18) 0.64775(11)
H6 H 0.5478 1.3358 0.6556
C10 C 0.67783(14) 1.2104(2) 0.64243(12)
H7 H 0.7278 1.2875 0.6480
C11 C 0.71397(14) 1.0663(2) 0.62860(13)
H8 H 0.7877 1.0487 0.6261
C12 C 0.64236(13) 0.9512(2) 0.61883(12)
H9 H 0.6670 0.8564 0.6077
C13 C 0.53095(12) 0.97653(16) 0.62564(10)
C14 C 0.44872(12) 0.86809(16) 0.61736(10)
C15 C 0.34209(12) 0.90317(15) 0.62388(10)
C16 C 0.45782(13) 0.70496(17) 0.60419(11)
C17 C 0.32086(15) 0.49939(18) 0.58500(14)
H10 H 0.3296 0.4468 0.6472
H11 H 0.3656 0.4518 0.5404
C18 C 0.27764(13) 0.76496(15) 0.61203(11)
C19 C 0.13512(15) 0.59593(18) 0.60040(16)
H12 H 0.0613 0.5985 0.5677
H13 H 0.1327 0.5525 0.6650
C20 C 0.20314(16) 0.4981(2) 0.54177(16)
H14 H 0.1755 0.3979 0.5416
H15 H 0.1974 0.5324 0.4741
N1 N 0.35345(11) 0.65352(13) 0.60003(10)
N2 N 0.17584(11) 0.74893(14) 0.61292(10)
N3 N 0.38845(10) 1.15585(13) 0.65186(9)
O1 O 0.53869(10) 0.63053(13) 0.59917(9)
loop_
_geom_bond_atom_site_label_1
_geom_bond_atom_site_label_2
_geom_bond_site_symmetry_1
_geom_bond_site_symmetry_2
C1 C2 1_555 1_555
C2 H1 1_555 1_555
C3 C2 1_555 1_555
H2 C3 1_555 1_555
C4 C3 1_555 1_555
H3 C4 1_555 1_555
C5 C4 1_555 1_555
H4 C5 1_555 1_555
C6 C1 1_555 1_555
H5 C6 1_555 1_555
C7 C1 1_555 1_555
C8 C9 1_555 1_555
C9 H6 1_555 1_555
C10 C9 1_555 1_555
H7 C10 1_555 1_555
C11 C10 1_555 1_555
H8 C11 1_555 1_555
C12 C11 1_555 1_555
H9 C12 1_555 1_555
C13 C8 1_555 1_555
C14 C13 1_555 1_555
C15 C7 1_555 1_555
C16 C14 1_555 1_555
C17 H10 1_555 1_555
H11 C17 1_555 1_555
C18 C15 1_555 1_555
C19 H12 1_555 1_555
H13 C19 1_555 1_555
C20 C17 1_555 1_555
H14 C20 1_555 1_555
H15 C20 1_555 1_555
N1 C16 1_555 1_555
N2 C18 1_555 1_555
N3 C7 1_555 1_555
O1 C16 1_555 1_555
C5 C6 1_555 1_555
C8 N3 1_555 1_555
C12 C13 1_555 1_555
C14 C15 1_555 1_555
C17 N1 1_555 1_555
C18 N1 1_555 1_555
C19 C20 1_555 1_555
C19 N2 1_555 1_555

#END
