
#######################################################################
#
#                 Cambridge Crystallographic Data Centre
#                                CCDC 
#
#######################################################################
#
# If this CIF has been generated from an entry in the Cambridge 
# Structural Database, then it will include bibliographic, chemical, 
# crystal, experimental, refinement or atomic coordinate data resulting 
# from the CCDC's data processing and validation procedures.
#
#######################################################################

data_EBADAO
_chemical_formula_moiety         'C38 H41 N3 O7'
_chemical_name_systematic        
(2-(3-(Benzyloxy)-13-methyl-6,7,8,9,11,12,13,14,15,16-decahydrospiro[cyclopenta[a]phenanthrene-17,2'-oxetan]-4'-yl)pyrrolidin-1-yl)(3,5-dinitrophenyl)methanone
_symmetry_cell_setting           triclinic
_symmetry_space_group_name_H-M   'P 1'
_symmetry_Int_Tables_number      1
_space_group_name_Hall           'P 1'
loop_
_symmetry_equiv_pos_site_id
_symmetry_equiv_pos_as_xyz
1 x,y,z
_cell_length_a                   7.1374(3)
_cell_length_b                   10.4915(5)
_cell_length_c                   23.5245(12)
_cell_angle_alpha                96.570(3)
_cell_angle_beta                 91.750(3)
_cell_angle_gamma                108.864(2)
_cell_volume                     1651.72
_cell_formula_units_Z            2
loop_
_atom_site_label
_atom_site_type_symbol
_atom_site_fract_x
_atom_site_fract_y
_atom_site_fract_z
C1 C 0.6816(9) 0.6305(7) 0.8145(3)
C2 C 0.5955(13) 0.4911(8) 0.8110(3)
H1 H 0.5602 0.4394 0.7751
C3 C 0.5611(15) 0.4279(8) 0.8589(3)
H2 H 0.5028 0.3340 0.8557
C4 C 0.6133(13) 0.5038(9) 0.9123(3)
H3 H 0.5915 0.4605 0.9450
C5 C 0.6958(12) 0.6407(10) 0.9176(3)
H4 H 0.7295 0.6912 0.9538
C6 C 0.7294(11) 0.7048(8) 0.8688(3)
H5 H 0.7848 0.7989 0.8725
C7 C 0.7288(10) 0.6949(8) 0.7614(3)
H6 H 0.8261 0.7848 0.7709
H7 H 0.7855 0.6412 0.7354
C8 C 0.5709(9) 0.7454(7) 0.6807(3)
C9 C 0.7536(9) 0.8068(7) 0.6587(3)
H8 H 0.8727 0.8233 0.6801
C10 C 0.7503(9) 0.8424(8) 0.6030(3)
H9 H 0.8709 0.8859 0.5885
C11 C 0.5772(8) 0.8168(6) 0.5681(3)
C12 C 0.5841(8) 0.8469(7) 0.5063(3)
H10 H 0.5738 0.9379 0.5066
C13 C 0.7767(9) 0.8496(7) 0.4798(3)
H11 H 0.8011 0.7655 0.4843
H12 H 0.8850 0.9235 0.5007
C14 C 0.7768(9) 0.8672(7) 0.4167(3)
H13 H 0.7751 0.9577 0.4124
H14 H 0.8975 0.8581 0.4016
C15 C 0.5989(9) 0.7629(7) 0.3828(3)
C16 C 0.5531(10) 0.7802(6) 0.3212(3)
C17 C 0.3380(9) 0.6845(7) 0.3070(3)
H15 H 0.2706 0.7174 0.2785
H16 H 0.3353 0.5935 0.2925
C18 C 0.2407(10) 0.6855(8) 0.3637(3)
H17 H 0.1365 0.7258 0.3618
H18 H 0.1840 0.5938 0.3732
C19 C 0.4077(9) 0.7707(7) 0.4082(3)
H19 H 0.4116 0.8649 0.4082
C20 C 0.3966(8) 0.7449(6) 0.4701(3)
H20 H 0.3978 0.6524 0.4721
C21 C 0.2121(9) 0.7593(8) 0.4971(3)
H21 H 0.2145 0.8525 0.4981
H22 H 0.0951 0.7015 0.4734
C22 C 0.1982(9) 0.7215(8) 0.5570(3)
H23 H 0.1310 0.6244 0.5547
H24 H 0.1165 0.7667 0.5775
C23 C 0.3941(9) 0.7569(6) 0.5914(3)
C24 C 0.3950(9) 0.7222(6) 0.6472(3)
H25 H 0.2744 0.6824 0.6624
C25 C 0.6202(10) 0.6198(7) 0.3825(3)
H26 H 0.6452 0.6051 0.4212
H27 H 0.7288 0.6144 0.3604
H28 H 0.4999 0.5515 0.3659
C26 C 0.5933(10) 0.9235(7) 0.3034(3)
H29 H 0.4750 0.9430 0.2917
H30 H 0.6807 0.9967 0.3306
C27 C 0.6967(10) 0.8734(8) 0.2539(3)
H31 H 0.6117 0.8488 0.2182
C28 C 0.9121(10) 0.9570(8) 0.2436(3)
H32 H 0.9666 1.0284 0.2761
C29 C 1.0444(12) 0.8742(10) 0.2356(5)
H33 H 0.9683 0.7804 0.2217
H34 H 1.1172 0.8771 0.2714
C30 C 1.1865(12) 0.9372(9) 0.1913(4)
H35 H 1.2968 1.0143 0.2092
H36 H 1.2378 0.8710 0.1711
C31 C 1.0556(12) 0.9810(9) 0.1514(3)
H37 H 1.1335 1.0570 0.1329
H38 H 0.9837 0.9068 0.1222
C32 C 0.8374(10) 1.1161(8) 0.1864(3)
C33 C 0.8588(10) 1.1883(8) 0.1331(3)
C34 C 0.8955(10) 1.3238(8) 0.1383(4)
H39 H 0.9134 1.3746 0.1743
C35 C 0.9062(11) 1.3863(9) 0.0885(4)
C36 C 0.8787(15) 1.3191(11) 0.0362(4)
H40 H 0.8832 1.3633 0.0039
C37 C 0.8421(17) 1.1770(12) 0.0313(4)
C38 C 0.8233(14) 1.1092(10) 0.0791(4)
H41 H 0.7885 1.0151 0.0755
N1 N 0.9184(8) 1.0211(6) 0.1895(2)
N2 N 0.9461(14) 1.5338(10) 0.0950(5)
N3 N 0.840(2) 1.0844(15) -0.0260(6)
O1 O 0.5514(6) 0.7051(5) 0.73388(19)
O2 O 0.6909(7) 0.7542(5) 0.2799(2)
O3 O 0.7459(8) 1.1549(6) 0.2252(2)
O4 O 0.9778(15) 1.5943(8) 0.1405(4)
O5 O 0.9472(13) 1.5854(9) 0.0505(4)
O6 O 0.7627(18) 0.9769(12) -0.0287(4)
O7 O 0.912(3) 1.1506(17) -0.0660(5)
C39 C 0.4330(10) 0.4097(8) 0.1494(3)
C40 C 0.4571(12) 0.5452(8) 0.1526(3)
H42 H 0.4818 0.5987 0.1881
C41 C 0.4447(14) 0.6031(9) 0.1029(3)
H43 H 0.4645 0.6957 0.1050
C42 C 0.4029(11) 0.5221(9) 0.0505(3)
H44 H 0.3886 0.5592 0.0172
C43 C 0.3825(11) 0.3881(8) 0.0475(3)
H45 H 0.3594 0.3349 0.0119
C44 C 0.3955(10) 0.3298(8) 0.0963(3)
H46 H 0.3794 0.2377 0.0937
C45 C 0.4493(10) 0.3464(9) 0.2038(3)
H47 H 0.4632 0.2576 0.1942
H48 H 0.5643 0.4036 0.2284
C46 C 0.2711(9) 0.2938(7) 0.2874(3)
C47 C 0.4009(9) 0.2364(7) 0.3078(3)
H49 H 0.4983 0.2213 0.2852
C48 C 0.3854(9) 0.2008(7) 0.3629(3)
H50 H 0.4711 0.1587 0.3764
C49 C 0.2491(9) 0.2253(6) 0.3979(3)
C50 C 0.2446(9) 0.1949(7) 0.4607(3)
H51 H 0.1461 0.1046 0.4607
C51 C 0.4412(9) 0.1864(7) 0.4833(3)
H52 H 0.5466 0.2686 0.4775
H53 H 0.4664 0.1104 0.4613
C52 C 0.4470(9) 0.1686(7) 0.5483(2)
H54 H 0.3588 0.0792 0.5535
H55 H 0.5805 0.1757 0.5616
C53 C 0.3828(9) 0.2785(6) 0.5840(3)
C54 C 0.3383(9) 0.2576(7) 0.6466(3)
C55 C 0.2229(10) 0.3541(7) 0.6618(3)
H56 H 0.3130 0.4443 0.6759
H57 H 0.1337 0.3223 0.6913
C56 C 0.1048(9) 0.3569(7) 0.6065(3)
H58 H 0.1366 0.4488 0.5970
H59 H -0.0370 0.3200 0.6103
C57 C 0.1728(9) 0.2660(6) 0.5604(3)
H60 H 0.0880 0.1719 0.5613
C58 C 0.1699(8) 0.2934(6) 0.4976(3)
H61 H 0.2591 0.3858 0.4956
C59 C -0.0388(9) 0.2827(7) 0.4748(3)
H62 H -0.0880 0.3430 0.4998
H63 H -0.1278 0.1906 0.4748
C60 C -0.0362(10) 0.3213(9) 0.4131(3)
H64 H -0.1671 0.2765 0.3938
H65 H -0.0097 0.4185 0.4155
C61 C 0.1158(8) 0.2840(7) 0.3767(3)
C62 C 0.1266(9) 0.3155(7) 0.3207(3)
H66 H 0.0355 0.3516 0.3058
C63 C 0.5419(9) 0.4202(7) 0.5846(3)
H67 H 0.4891 0.4893 0.5998
H68 H 0.5779 0.4334 0.5462
H69 H 0.6572 0.4257 0.6081
C64 C 0.2468(9) 0.1136(7) 0.6640(3)
H70 H 0.1128 0.0937 0.6761
H71 H 0.2585 0.0409 0.6365
C65 C 0.4078(9) 0.1623(7) 0.7128(3)
H72 H 0.3547 0.1890 0.7484
C66 C 0.5430(9) 0.0825(7) 0.7238(3)
H73 H 0.5298 0.0137 0.6906
C67 C 0.7613(10) 0.1699(8) 0.7356(3)
H74 H 0.7740 0.2614 0.7525
H75 H 0.8299 0.1746 0.7005
C68 C 0.8452(10) 0.0971(8) 0.7778(3)
H76 H 0.8791 0.0223 0.7579
H77 H 0.9619 0.1594 0.8002
C69 C 0.6760(9) 0.0467(8) 0.8152(3)
H78 H 0.6817 -0.0335 0.8310
H79 H 0.6786 0.1163 0.8464
C70 C 0.3205(10) -0.0839(7) 0.7788(3)
C71 C 0.2893(9) -0.1500(7) 0.8325(3)
C72 C 0.2227(9) -0.2920(7) 0.8267(3)
H80 H 0.2047 -0.3429 0.7907
C73 C 0.1841(10) -0.3553(7) 0.8756(3)
C74 C 0.2067(11) -0.2848(9) 0.9298(3)
H81 H 0.1798 -0.3290 0.9622
C75 C 0.2707(13) -0.1468(9) 0.9334(3)
C76 C 0.3119(11) -0.0790(8) 0.8864(3)
H82 H 0.3554 0.0155 0.8911
N4 N 0.4974(7) 0.0142(6) 0.7761(2)
N5 N 0.1155(11) -0.5033(7) 0.8700(3)
N6 N 0.2906(17) -0.0708(9) 0.9907(3)
O8 O 0.2715(7) 0.3344(5) 0.23237(18)
O9 O 0.5143(6) 0.2832(4) 0.68545(18)
O10 O 0.1908(7) -0.1169(5) 0.7399(2)
O11 O 0.0871(12) -0.5661(6) 0.8206(3)
O12 O 0.0902(12) -0.5600(7) 0.9128(3)
O13 O 0.330(2) 0.0560(12) 0.9942(3)
O14 O 0.2841(19) -0.1261(9) 1.0317(3)
loop_
_geom_bond_atom_site_label_1
_geom_bond_atom_site_label_2
_geom_bond_site_symmetry_1
_geom_bond_site_symmetry_2
C1 C2 1_555 1_555
C2 H1 1_555 1_555
C3 C2 1_555 1_555
H2 C3 1_555 1_555
C4 C3 1_555 1_555
H3 C4 1_555 1_555
C5 C4 1_555 1_555
H4 C5 1_555 1_555
C6 C1 1_555 1_555
H5 C6 1_555 1_555
C7 C1 1_555 1_555
H6 C7 1_555 1_555
H7 C7 1_555 1_555
C8 C9 1_555 1_555
C9 H8 1_555 1_555
C10 C9 1_555 1_555
H9 C10 1_555 1_555
C11 C10 1_555 1_555
C12 C11 1_555 1_555
H10 C12 1_555 1_555
C13 C12 1_555 1_555
H11 C13 1_555 1_555
H12 C13 1_555 1_555
C14 C13 1_555 1_555
H13 C14 1_555 1_555
H14 C14 1_555 1_555
C15 C14 1_555 1_555
C16 C15 1_555 1_555
C17 C16 1_555 1_555
H15 C17 1_555 1_555
H16 C17 1_555 1_555
C18 C17 1_555 1_555
H17 C18 1_555 1_555
H18 C18 1_555 1_555
C19 C15 1_555 1_555
H19 C19 1_555 1_555
C20 C12 1_555 1_555
H20 C20 1_555 1_555
C21 C20 1_555 1_555
H21 C21 1_555 1_555
H22 C21 1_555 1_555
C22 C21 1_555 1_555
H23 C22 1_555 1_555
H24 C22 1_555 1_555
C23 C11 1_555 1_555
C24 C8 1_555 1_555
H25 C24 1_555 1_555
C25 C15 1_555 1_555
H26 C25 1_555 1_555
H27 C25 1_555 1_555
H28 C25 1_555 1_555
C26 C16 1_555 1_555
H29 C26 1_555 1_555
H30 C26 1_555 1_555
C27 C26 1_555 1_555
H31 C27 1_555 1_555
C28 C27 1_555 1_555
H32 C28 1_555 1_555
C29 C28 1_555 1_555
H33 C29 1_555 1_555
H34 C29 1_555 1_555
C30 C29 1_555 1_555
H35 C30 1_555 1_555
H36 C30 1_555 1_555
C31 C30 1_555 1_555
H37 C31 1_555 1_555
H38 C31 1_555 1_555
C32 C33 1_555 1_555
C33 C34 1_555 1_555
C34 H39 1_555 1_555
C35 C34 1_555 1_555
C36 C35 1_555 1_555
H40 C36 1_555 1_555
C37 C36 1_555 1_555
C38 C33 1_555 1_555
H41 C38 1_555 1_555
N1 C28 1_555 1_555
N2 C35 1_555 1_555
N3 C37 1_555 1_555
O1 C7 1_555 1_555
O2 C16 1_555 1_555
O3 C32 1_555 1_555
O4 N2 1_555 1_555
O5 N2 1_555 1_555
O6 N3 1_555 1_555
O7 N3 1_555 1_555
C39 C40 1_555 1_555
C40 H42 1_555 1_555
C41 C40 1_555 1_555
H43 C41 1_555 1_555
C42 C41 1_555 1_555
H44 C42 1_555 1_555
C43 C42 1_555 1_555
H45 C43 1_555 1_555
C44 C39 1_555 1_555
H46 C44 1_555 1_555
C45 C39 1_555 1_555
H47 C45 1_555 1_555
H48 C45 1_555 1_555
C46 C47 1_555 1_555
C47 H49 1_555 1_555
C48 C47 1_555 1_555
H50 C48 1_555 1_555
C49 C48 1_555 1_555
C50 C49 1_555 1_555
H51 C50 1_555 1_555
C51 C50 1_555 1_555
H52 C51 1_555 1_555
H53 C51 1_555 1_555
C52 C51 1_555 1_555
H54 C52 1_555 1_555
H55 C52 1_555 1_555
C53 C52 1_555 1_555
C54 C53 1_555 1_555
C55 C54 1_555 1_555
H56 C55 1_555 1_555
H57 C55 1_555 1_555
C56 C55 1_555 1_555
H58 C56 1_555 1_555
H59 C56 1_555 1_555
C57 C53 1_555 1_555
H60 C57 1_555 1_555
C58 C50 1_555 1_555
H61 C58 1_555 1_555
C59 C58 1_555 1_555
H62 C59 1_555 1_555
H63 C59 1_555 1_555
C60 C59 1_555 1_555
H64 C60 1_555 1_555
H65 C60 1_555 1_555
C61 C49 1_555 1_555
C62 C46 1_555 1_555
H66 C62 1_555 1_555
C63 C53 1_555 1_555
H67 C63 1_555 1_555
H68 C63 1_555 1_555
H69 C63 1_555 1_555
C64 C54 1_555 1_555
H70 C64 1_555 1_555
H71 C64 1_555 1_555
C65 C64 1_555 1_555
H72 C65 1_555 1_555
C66 C65 1_555 1_555
H73 C66 1_555 1_555
C67 C66 1_555 1_555
H74 C67 1_555 1_555
H75 C67 1_555 1_555
C68 C67 1_555 1_555
H76 C68 1_555 1_555
H77 C68 1_555 1_555
C69 C68 1_555 1_555
H78 C69 1_555 1_555
H79 C69 1_555 1_555
C70 C71 1_555 1_555
C71 C72 1_555 1_555
C72 H80 1_555 1_555
C73 C72 1_555 1_555
C74 C73 1_555 1_555
H81 C74 1_555 1_555
C75 C74 1_555 1_555
C76 C71 1_555 1_555
H82 C76 1_555 1_555
N4 C66 1_555 1_555
N5 C73 1_555 1_555
N6 C75 1_555 1_555
O8 C45 1_555 1_555
O9 C54 1_555 1_555
O10 C70 1_555 1_555
O11 N5 1_555 1_555
O12 N5 1_555 1_555
O13 N6 1_555 1_555
O14 N6 1_555 1_555
C5 C6 1_555 1_555
C8 O1 1_555 1_555
C18 C19 1_555 1_555
C19 C20 1_555 1_555
C22 C23 1_555 1_555
C23 C24 1_555 1_555
C27 O2 1_555 1_555
C31 N1 1_555 1_555
C32 N1 1_555 1_555
C37 C38 1_555 1_555
C43 C44 1_555 1_555
C46 O8 1_555 1_555
C56 C57 1_555 1_555
C57 C58 1_555 1_555
C60 C61 1_555 1_555
C61 C62 1_555 1_555
C65 O9 1_555 1_555
C69 N4 1_555 1_555
C70 N4 1_555 1_555
C75 C76 1_555 1_555

#END
