
#######################################################################
#
#                 Cambridge Crystallographic Data Centre
#                                CCDC 
#
#######################################################################
#
# If this CIF has been generated from an entry in the Cambridge 
# Structural Database, then it will include bibliographic, chemical, 
# crystal, experimental, refinement or atomic coordinate data resulting 
# from the CCDC's data processing and validation procedures.
#
#######################################################################

data_EBAGOG
_chemical_formula_moiety         'C19 H16 N2 O2 S1'
_chemical_name_systematic        
2-allyl-1-((4-methylphenyl)sulfonyl)-1H-indole-3-carbonitrile
_symmetry_cell_setting           monoclinic
_symmetry_space_group_name_H-M   'P 21/c'
_symmetry_Int_Tables_number      14
_space_group_name_Hall           '-P 2ybc'
loop_
_symmetry_equiv_pos_site_id
_symmetry_equiv_pos_as_xyz
1 x,y,z
2 -x,1/2+y,1/2-z
3 -x,-y,-z
4 x,1/2-y,1/2+z
_cell_length_a                   9.3811(4)
_cell_length_b                   20.8484(10)
_cell_length_c                   8.6963(4)
_cell_angle_alpha                90
_cell_angle_beta                 99.098(2)
_cell_angle_gamma                90
_cell_volume                     1679.43
_exptl_crystal_colour            colorless
_exptl_crystal_description       prism
_cell_formula_units_Z            4
loop_
_atom_site_label
_atom_site_type_symbol
_atom_site_fract_x
_atom_site_fract_y
_atom_site_fract_z
C1 C 0.2001(3) 0.67759(12) 1.1365(3)
C2 C 0.2547(4) 0.73632(15) 1.1887(4)
H1 H 0.3406 0.7388 1.2584
C3 C 0.1815(4) 0.79138(14) 1.1372(4)
H2 H 0.2189 0.8309 1.1733
C4 C 0.0552(3) 0.78955(13) 1.0344(3)
C5 C -0.0229(4) 0.85033(16) 0.9781(4)
H3 H -0.1089 0.8398 0.9072
H4 H 0.0387 0.8765 0.9258
H5 H -0.0483 0.8734 1.0654
C6 C 0.0029(3) 0.73018(16) 0.9856(4)
H6 H -0.0832 0.7277 0.9163
C7 C 0.0734(3) 0.67435(14) 1.0354(4)
H7 H 0.0351 0.6348 1.0005
C8 C 0.3163(3) 0.55701(11) 0.9156(3)
C9 C 0.1814(3) 0.52953(14) 0.8741(4)
H8 H 0.1158 0.5278 0.9438
C10 C 0.1479(4) 0.50503(15) 0.7268(5)
H9 H 0.0575 0.4867 0.6964
C11 C 0.2449(4) 0.50671(15) 0.6214(4)
H10 H 0.2184 0.4898 0.5220
C12 C 0.3788(4) 0.53308(14) 0.6630(4)
H11 H 0.4441 0.5341 0.5929
C13 C 0.4159(3) 0.55833(11) 0.8119(3)
C14 C 0.5429(3) 0.58897(12) 0.8910(3)
C15 C 0.6733(4) 0.59899(15) 0.8308(4)
C16 C 0.5233(3) 0.60644(12) 1.0365(3)
C17 C 0.6328(4) 0.63916(17) 1.1555(4)
H12 H 0.6138 0.6273 1.2583
H13 H 0.7276 0.6228 1.1453
C18 C 0.6367(4) 0.7099(2) 1.1461(5)
H14 H 0.6952 0.7297 1.2289
C19 C 0.5768(6) 0.7460(2) 1.0493(6)
H15 H 0.5164 0.7299 0.9628
H16 H 0.5909 0.7900 1.0608
N1 N 0.3836(2) 0.58652(10) 1.0553(2)
N2 N 0.7768(4) 0.60715(16) 0.7822(4)
O1 O 0.4006(3) 0.62188(12) 1.3329(2)
O2 O 0.1931(3) 0.55739(10) 1.2085(3)
S1 S 0.29337(9) 0.60753(4) 1.20158(9)
loop_
_geom_bond_atom_site_label_1
_geom_bond_atom_site_label_2
_geom_bond_site_symmetry_1
_geom_bond_site_symmetry_2
C1 C2 1_555 1_555
C2 H1 1_555 1_555
C3 C2 1_555 1_555
H2 C3 1_555 1_555
C4 C3 1_555 1_555
C5 C4 1_555 1_555
H3 C5 1_555 1_555
H4 C5 1_555 1_555
H5 C5 1_555 1_555
C6 C4 1_555 1_555
H6 C6 1_555 1_555
C7 C1 1_555 1_555
H7 C7 1_555 1_555
C8 C9 1_555 1_555
C9 H8 1_555 1_555
C10 C9 1_555 1_555
H9 C10 1_555 1_555
C11 C10 1_555 1_555
H10 C11 1_555 1_555
C12 C11 1_555 1_555
H11 C12 1_555 1_555
C13 C8 1_555 1_555
C14 C13 1_555 1_555
C15 C14 1_555 1_555
C16 C14 1_555 1_555
C17 C16 1_555 1_555
H12 C17 1_555 1_555
H13 C17 1_555 1_555
C18 C17 1_555 1_555
H14 C18 1_555 1_555
C19 C18 1_555 1_555
H15 C19 1_555 1_555
H16 C19 1_555 1_555
N1 C8 1_555 1_555
N2 C15 1_555 1_555
O1 S1 1_555 1_555
O2 S1 1_555 1_555
S1 C1 1_555 1_555
C6 C7 1_555 1_555
C12 C13 1_555 1_555
C16 N1 1_555 1_555
N1 S1 1_555 1_555

#END
