
#######################################################################
#
#                 Cambridge Crystallographic Data Centre
#                                CCDC 
#
#######################################################################
#
# If this CIF has been generated from an entry in the Cambridge 
# Structural Database, then it will include bibliographic, chemical, 
# crystal, experimental, refinement or atomic coordinate data resulting 
# from the CCDC's data processing and validation procedures.
#
#######################################################################

data_EBAHAT
_chemical_formula_moiety         'C16 H12 N2 O2 S1'
_chemical_name_systematic        
1-((4-methylphenyl)sulfonyl)-1H-indole-3-carbonitrile
_symmetry_cell_setting           monoclinic
_symmetry_space_group_name_H-M   'P 21/c'
_symmetry_Int_Tables_number      14
_space_group_name_Hall           '-P 2ybc'
loop_
_symmetry_equiv_pos_site_id
_symmetry_equiv_pos_as_xyz
1 x,y,z
2 -x,1/2+y,1/2-z
3 -x,-y,-z
4 x,1/2-y,1/2+z
_cell_length_a                   9.0829(15)
_cell_length_b                   10.2351(14)
_cell_length_c                   15.664(2)
_cell_angle_alpha                90
_cell_angle_beta                 97.384(10)
_cell_angle_gamma                90
_cell_volume                     1444.12
_exptl_crystal_colour            colorless
_exptl_crystal_description       prism
_cell_formula_units_Z            4
loop_
_atom_site_label
_atom_site_type_symbol
_atom_site_fract_x
_atom_site_fract_y
_atom_site_fract_z
C1 C 0.3412(3) 0.1652(3) 0.1185(2)
C2 C 0.4047(4) 0.0408(3) 0.1177(2)
H1 H 0.4831 0.0162 0.1608
C3 C 0.3516(4) -0.0459(3) 0.0534(2)
H2 H 0.3942 -0.1306 0.0530
C4 C 0.2373(4) -0.0122(3) -0.0108(2)
C5 C 0.1822(4) -0.1052(4) -0.0832(3)
H3 H 0.1019 -0.0636 -0.1215
H4 H 0.1451 -0.1852 -0.0590
H5 H 0.2640 -0.1269 -0.1158
C6 C 0.1744(4) 0.1120(3) -0.0082(2)
H6 H 0.0950 0.1361 -0.0509
C7 C 0.2260(4) 0.2008(3) 0.0557(2)
H7 H 0.1829 0.2853 0.0564
C8 C 0.1717(3) 0.2233(3) 0.2932(2)
C9 C 0.0604(4) 0.3057(3) 0.2540(2)
H8 H 0.0804 0.3702 0.2135
C10 C -0.0799(4) 0.2891(4) 0.2770(2)
H9 H -0.1583 0.3431 0.2512
C11 C -0.1103(4) 0.1951(3) 0.3373(2)
H10 H -0.2086 0.1862 0.3511
C12 C 0.0006(4) 0.1152(3) 0.3768(2)
H11 H -0.0198 0.0523 0.4183
C13 C 0.1437(3) 0.1292(3) 0.3541(2)
C14 C 0.2853(4) 0.0676(3) 0.3832(2)
C15 C 0.3899(4) 0.1223(3) 0.3401(2)
H12 H 0.4916 0.0978 0.3461
C16 C 0.3119(4) -0.0298(3) 0.4498(2)
N1 N 0.3255(3) 0.2196(2) 0.28589(16)
N2 N 0.3305(3) -0.1058(3) 0.5036(2)
O1 O 0.3419(2) 0.40154(19) 0.18142(15)
O2 O 0.5603(2) 0.2584(2) 0.22601(15)
S1 S 0.40429(9) 0.27468(8) 0.20094(6)
loop_
_geom_bond_atom_site_label_1
_geom_bond_atom_site_label_2
_geom_bond_site_symmetry_1
_geom_bond_site_symmetry_2
C1 C2 1_555 1_555
C2 H1 1_555 1_555
C3 C2 1_555 1_555
H2 C3 1_555 1_555
C4 C3 1_555 1_555
C5 C4 1_555 1_555
H3 C5 1_555 1_555
H4 C5 1_555 1_555
H5 C5 1_555 1_555
C6 C4 1_555 1_555
H6 C6 1_555 1_555
C7 C1 1_555 1_555
H7 C7 1_555 1_555
C8 C9 1_555 1_555
C9 H8 1_555 1_555
C10 C9 1_555 1_555
H9 C10 1_555 1_555
C11 C10 1_555 1_555
H10 C11 1_555 1_555
C12 C11 1_555 1_555
H11 C12 1_555 1_555
C13 C8 1_555 1_555
C14 C13 1_555 1_555
C15 C14 1_555 1_555
H12 C15 1_555 1_555
C16 C14 1_555 1_555
N1 C8 1_555 1_555
N2 C16 1_555 1_555
O1 S1 1_555 1_555
O2 S1 1_555 1_555
S1 C1 1_555 1_555
C6 C7 1_555 1_555
C12 C13 1_555 1_555
C15 N1 1_555 1_555
N1 S1 1_555 1_555

#END
