
#######################################################################
#
#                 Cambridge Crystallographic Data Centre
#                                CCDC 
#
#######################################################################
#
# If this CIF has been generated from an entry in the Cambridge 
# Structural Database, then it will include bibliographic, chemical, 
# crystal, experimental, refinement or atomic coordinate data resulting 
# from the CCDC's data processing and validation procedures.
#
#######################################################################

data_EBAPUT
_chemical_formula_moiety         'C13 H12 F3 N1 O2'
_chemical_name_systematic        
5-(1-(Benzylamino)-2,2,2-trifluoroethyl)-2(5H)-furanone
_symmetry_cell_setting           orthorhombic
_symmetry_space_group_name_H-M   'P 21 21 21'
_symmetry_Int_Tables_number      19
_space_group_name_Hall           'P 2ac 2ab'
loop_
_symmetry_equiv_pos_site_id
_symmetry_equiv_pos_as_xyz
1 x,y,z
2 1/2+x,1/2-y,-z
3 -x,1/2+y,1/2-z
4 1/2-x,-y,1/2+z
_cell_length_a                   8.053(2)
_cell_length_b                   10.635(5)
_cell_length_c                   14.657(9)
_cell_angle_alpha                90
_cell_angle_beta                 90
_cell_angle_gamma                90
_cell_volume                     1255.28
_exptl_crystal_colour            colorless
_exptl_crystal_description       block
_chemical_melting_point          '78 deg.C'
_cell_formula_units_Z            4
loop_
_atom_site_label
_atom_site_type_symbol
_atom_site_fract_x
_atom_site_fract_y
_atom_site_fract_z
O1 O 0.8482(4) -0.0545(3) 0.70430(19)
O2 O 0.9641(5) -0.0629(4) 0.8415(2)
C1 C 0.9167(6) -0.0011(5) 0.7788(3)
C2 C 0.9143(6) 0.1352(5) 0.7653(3)
C3 C 0.8454(6) 0.1603(4) 0.6872(3)
C4 C 0.7969(5) 0.0419(4) 0.6412(3)
C5 C 0.8806(5) 0.0266(4) 0.5487(3)
C6 C 0.8559(6) -0.1040(4) 0.5078(3)
N1 N 0.8183(4) 0.1261(3) 0.4907(2)
C7 C 0.9280(6) 0.1680(5) 0.4175(3)
C8 C 0.8867(5) 0.2992(4) 0.3871(3)
C9 C 0.8702(5) 0.3952(5) 0.4488(3)
C10 C 0.8415(6) 0.5172(5) 0.4205(5)
C11 C 0.8244(7) 0.5408(7) 0.3276(5)
C12 C 0.8378(7) 0.4453(8) 0.2665(4)
C13 C 0.8674(6) 0.3247(6) 0.2950(3)
F1 F 0.9161(7) -0.1115(3) 0.4244(2)
F2 F 0.6989(5) -0.1344(3) 0.5021(3)
F3 F 0.9333(6) -0.1932(3) 0.5557(2)
H1 H 0.7267 0.0981 0.4663
H2 H 0.9583 0.1988 0.8093
H3 H 0.8283 0.2467 0.6618
H4 H 0.6753 0.0386 0.6273
H5 H 1.0038 0.0340 0.5553
H6 H 1.0452 0.1662 0.4399
H7 H 0.9162 0.1096 0.3644
H8 H 0.8789 0.3767 0.5156
H9 H 0.8329 0.5871 0.4660
H10 H 0.8024 0.6283 0.3057
H11 H 0.8261 0.4629 0.1996
H12 H 0.8748 0.2549 0.2493
loop_
_geom_bond_atom_site_label_1
_geom_bond_atom_site_label_2
_geom_bond_site_symmetry_1
_geom_bond_site_symmetry_2
O1 C1 1_555 1_555
O2 C1 1_555 1_555
C1 C2 1_555 1_555
C2 C3 1_555 1_555
C3 C4 1_555 1_555
C4 O1 1_555 1_555
C5 C4 1_555 1_555
C6 C5 1_555 1_555
N1 C5 1_555 1_555
C7 N1 1_555 1_555
C8 C7 1_555 1_555
C9 C8 1_555 1_555
C10 C9 1_555 1_555
C11 C10 1_555 1_555
C12 C11 1_555 1_555
C13 C8 1_555 1_555
F1 C6 1_555 1_555
F2 C6 1_555 1_555
F3 C6 1_555 1_555
H1 N1 1_555 1_555
H2 C2 1_555 1_555
H3 C3 1_555 1_555
H4 C4 1_555 1_555
H5 C5 1_555 1_555
H6 C7 1_555 1_555
H7 C7 1_555 1_555
H8 C9 1_555 1_555
H9 C10 1_555 1_555
H10 C11 1_555 1_555
H11 C12 1_555 1_555
H12 C13 1_555 1_555
C12 C13 1_555 1_555

#END
