
#######################################################################
#
#                 Cambridge Crystallographic Data Centre
#                                CCDC 
#
#######################################################################
#
# If this CIF has been generated from an entry in the Cambridge 
# Structural Database, then it will include bibliographic, chemical, 
# crystal, experimental, refinement or atomic coordinate data resulting 
# from the CCDC's data processing and validation procedures.
#
#######################################################################

data_EBAXOX
_chemical_formula_moiety         'C17 H14 N2'
_chemical_name_systematic        
N-(4-methylphenyl)-1-(quinolin-2-yl)methanimine
_symmetry_cell_setting           triclinic
_symmetry_space_group_name_H-M   'P -1'
_symmetry_Int_Tables_number      2
_space_group_name_Hall           '-P 1'
loop_
_symmetry_equiv_pos_site_id
_symmetry_equiv_pos_as_xyz
1 x,y,z
2 -x,-y,-z
_cell_length_a                   6.088(2)
_cell_length_b                   7.770(2)
_cell_length_c                   27.688(8)
_cell_angle_alpha                84.223(4)
_cell_angle_beta                 87.120(4)
_cell_angle_gamma                89.905(2)
_cell_volume                     1301.44
_exptl_crystal_colour            yellow
_exptl_crystal_description       block
_cell_formula_units_Z            4
loop_
_atom_site_label
_atom_site_type_symbol
_atom_site_fract_x
_atom_site_fract_y
_atom_site_fract_z
N1 N 0.7756(4) 0.0869(3) -0.06329(9)
N2 N 0.6804(4) 0.2990(3) 0.04211(9)
C1 C 0.6572(5) 0.1696(4) -0.03203(10)
C2 C 0.4425(5) 0.2311(4) -0.04001(12)
H1 H 0.3634 0.2847 -0.0161
C3 C 0.3531(5) 0.2111(4) -0.08300(12)
H2 H 0.2115 0.2502 -0.0888
C4 C 0.4762(5) 0.1306(4) -0.11868(11)
C5 C 0.4019(5) 0.1117(4) -0.16557(12)
H3 H 0.2642 0.1535 -0.1739
C6 C 0.5290(6) 0.0333(4) -0.19843(13)
H4 H 0.4790 0.0236 -0.2292
C7 C 0.7348(6) -0.0329(4) -0.18629(12)
H5 H 0.8195 -0.0883 -0.2089
C8 C 0.8130(5) -0.0174(4) -0.14160(11)
H6 H 0.9502 -0.0622 -0.1340
C9 C 0.6869(5) 0.0663(3) -0.10694(10)
C10 C 0.7684(5) 0.2052(4) 0.01187(11)
H7 H 0.9063 0.1578 0.0175
C11 C 0.8032(5) 0.3475(4) 0.08063(11)
C12 C 0.7041(5) 0.3412(4) 0.12682(11)
H8 H 0.5609 0.2997 0.1324
C13 C 0.8151(5) 0.3955(4) 0.16470(11)
H9 H 0.7468 0.3871 0.1957
C14 C 1.0263(5) 0.4625(4) 0.15761(12)
C15 C 1.1234(5) 0.4712(4) 0.11112(12)
H10 H 1.2646 0.5166 0.1054
C16 C 1.0153(5) 0.4139(4) 0.07320(11)
H11 H 1.0849 0.4198 0.0424
C17 C 1.1488(7) 0.5239(5) 0.19874(14)
H12 H 1.0496 0.5286 0.2266
H13 H 1.2086 0.6370 0.1890
H14 H 1.2661 0.4450 0.2068
N3 N 0.7749(4) 0.4613(3) 0.43451(9)
N4 N 0.6798(4) 0.1766(3) 0.54057(9)
C18 C 0.6563(5) 0.3575(4) 0.46607(10)
C19 C 0.4417(5) 0.3013(4) 0.45800(12)
H15 H 0.3623 0.2314 0.4820
C20 C 0.3533(5) 0.3509(4) 0.41474(11)
H16 H 0.2115 0.3167 0.4089
C21 C 0.4777(5) 0.4543(4) 0.37882(11)
C22 C 0.4055(6) 0.5032(4) 0.33154(12)
H17 H 0.2687 0.4663 0.3231
C23 C 0.5339(6) 0.6030(5) 0.29863(12)
H18 H 0.4850 0.6328 0.2676
C24 C 0.7394(6) 0.6620(4) 0.31070(12)
H19 H 0.8248 0.7318 0.2878
C25 C 0.8148(5) 0.6177(4) 0.35562(11)
H20 H 0.9511 0.6580 0.3633
C26 C 0.6879(5) 0.5110(3) 0.39065(10)
C27 C 0.7675(5) 0.2917(4) 0.51011(11)
H21 H 0.9050 0.3356 0.5157
C28 C 0.8041(5) 0.1009(4) 0.57903(10)
C29 C 1.0162(5) 0.0397(4) 0.57104(11)
H22 H 1.0843 0.0557 0.5401
C30 C 1.1261(5) -0.0446(4) 0.60894(11)
H23 H 1.2671 -0.0862 0.6029
C31 C 1.0329(5) -0.0688(4) 0.65531(11)
C32 C 0.8209(5) -0.0060(4) 0.66279(11)
H24 H 0.7545 -0.0192 0.6939
C33 C 0.7070(5) 0.0751(4) 0.62526(11)
H25 H 0.5639 0.1126 0.6311
C34 C 1.1547(7) -0.1589(5) 0.69621(13)
H26 H 1.1096 -0.1129 0.7260
H27 H 1.3099 -0.1410 0.6899
H28 H 1.1227 -0.2805 0.6989
loop_
_geom_bond_atom_site_label_1
_geom_bond_atom_site_label_2
_geom_bond_site_symmetry_1
_geom_bond_site_symmetry_2
N1 C1 1_555 1_555
N2 C10 1_555 1_555
C1 C2 1_555 1_555
C2 H1 1_555 1_555
C3 C2 1_555 1_555
H2 C3 1_555 1_555
C4 C3 1_555 1_555
C5 C4 1_555 1_555
H3 C5 1_555 1_555
C6 C5 1_555 1_555
H4 C6 1_555 1_555
C7 C6 1_555 1_555
H5 C7 1_555 1_555
C8 C7 1_555 1_555
H6 C8 1_555 1_555
C9 N1 1_555 1_555
C10 C1 1_555 1_555
H7 C10 1_555 1_555
C11 N2 1_555 1_555
C12 C11 1_555 1_555
H8 C12 1_555 1_555
C13 C12 1_555 1_555
H9 C13 1_555 1_555
C14 C13 1_555 1_555
C15 C14 1_555 1_555
H10 C15 1_555 1_555
C16 C11 1_555 1_555
H11 C16 1_555 1_555
C17 C14 1_555 1_555
H12 C17 1_555 1_555
H13 C17 1_555 1_555
H14 C17 1_555 1_555
N3 C18 1_555 1_555
N4 C27 1_555 1_555
C18 C19 1_555 1_555
C19 H15 1_555 1_555
C20 C19 1_555 1_555
H16 C20 1_555 1_555
C21 C20 1_555 1_555
C22 C21 1_555 1_555
H17 C22 1_555 1_555
C23 C22 1_555 1_555
H18 C23 1_555 1_555
C24 C23 1_555 1_555
H19 C24 1_555 1_555
C25 C24 1_555 1_555
H20 C25 1_555 1_555
C26 N3 1_555 1_555
C27 C18 1_555 1_555
H21 C27 1_555 1_555
C28 N4 1_555 1_555
C29 C28 1_555 1_555
H22 C29 1_555 1_555
C30 C29 1_555 1_555
H23 C30 1_555 1_555
C31 C30 1_555 1_555
C32 C31 1_555 1_555
H24 C32 1_555 1_555
C33 C28 1_555 1_555
H25 C33 1_555 1_555
C34 C31 1_555 1_555
H26 C34 1_555 1_555
H27 C34 1_555 1_555
H28 C34 1_555 1_555
C4 C9 1_555 1_555
C8 C9 1_555 1_555
C15 C16 1_555 1_555
C21 C26 1_555 1_555
C25 C26 1_555 1_555
C32 C33 1_555 1_555

#END
