
#######################################################################
#
#                 Cambridge Crystallographic Data Centre
#                                CCDC 
#
#######################################################################
#
# If this CIF has been generated from an entry in the Cambridge 
# Structural Database, then it will include bibliographic, chemical, 
# crystal, experimental, refinement or atomic coordinate data resulting 
# from the CCDC's data processing and validation procedures.
#
#######################################################################

data_EBETEK
_chemical_formula_moiety         'C12 H21 N1 O2 S1'
_chemical_name_systematic        
(3S,6S,6aR)-6-t-butyl-3-isopropyl-tetrahydro-5-oxa-1-thia-3a-azapentalen-4-one
_symmetry_cell_setting           monoclinic
_symmetry_space_group_name_H-M   'P 21'
_symmetry_Int_Tables_number      4
_space_group_name_Hall           'P 2yb'
loop_
_symmetry_equiv_pos_site_id
_symmetry_equiv_pos_as_xyz
1 x,y,z
2 -x,1/2+y,-z
_cell_length_a                   11.156(3)
_cell_length_b                   6.253(1)
_cell_length_c                   11.156(3)
_cell_angle_alpha                90
_cell_angle_beta                 116.07(1)
_cell_angle_gamma                90
_cell_volume                     699.047
_cell_formula_units_Z            2
loop_
_atom_site_label
_atom_site_type_symbol
_atom_site_fract_x
_atom_site_fract_y
_atom_site_fract_z
S1 S 0.3122(1) 0.0000 -0.1148(1)
C1 C 0.4462(3) -0.0262(8) 0.0503(4)
C2 C 0.4209(3) 0.1321(7) 0.1422(4)
N1 N 0.2760(3) 0.1748(5) 0.0761(3)
C3 C 0.2347(4) 0.3837(7) 0.0415(4)
O1 O 0.1142(3) 0.3841(5) -0.0663(3)
C4 C 0.0717(3) 0.1640(7) -0.1052(4)
C5 C 0.1995(3) 0.0377(6) -0.0353(3)
C6 C 0.4675(4) 0.0457(7) 0.2836(4)
C7 C 0.6174(4) -0.0097(15) 0.3435(5)
C8 C 0.4410(5) 0.2056(14) 0.3717(5)
O2 O 0.2908(3) 0.5457(5) 0.0943(4)
C9 C -0.0166(4) 0.1511(9) -0.2565(4)
C10 C -0.1434(5) 0.2777(11) -0.2874(6)
C11 C -0.0492(5) -0.0885(11) -0.2879(6)
C12 C 0.0500(6) 0.2450(15) -0.3390(5)
H1 H 0.5375 0.0093 0.0487
H2 H 0.4489 -0.1830 0.0850
H3 H 0.4762 0.2733 0.1550
H4 H 0.0043 0.0932 -0.0746
H5 H 0.1704 -0.1175 -0.0235
H6 H 0.4131 -0.0936 0.2790
H7 H 0.6489 -0.0690 0.4407
H8 H 0.6332 -0.1262 0.2842
H9 H 0.6721 0.1284 0.3464
H10 H 0.4740 0.1420 0.4681
H11 H 0.4925 0.3483 0.3763
H12 H 0.3382 0.2370 0.3315
H13 H -0.2059 0.2718 -0.3903
H14 H -0.1931 0.2112 -0.2353
H15 H -0.1186 0.4374 -0.2579
H16 H -0.1097 -0.1078 -0.3906
H17 H 0.0398 -0.1747 -0.2603
H18 H -0.0998 -0.1458 -0.2342
H19 H -0.0151 0.2314 -0.4410
H20 H 0.0723 0.4069 -0.3143
H21 H 0.1385 0.1610 -0.3183
loop_
_geom_bond_atom_site_label_1
_geom_bond_atom_site_label_2
_geom_bond_site_symmetry_1
_geom_bond_site_symmetry_2
S1 C1 1_555 1_555
C1 C2 1_555 1_555
C2 N1 1_555 1_555
N1 C3 1_555 1_555
C3 O1 1_555 1_555
O1 C4 1_555 1_555
C4 C5 1_555 1_555
C5 S1 1_555 1_555
C6 C2 1_555 1_555
C7 C6 1_555 1_555
C8 C6 1_555 1_555
O2 C3 1_555 1_555
C9 C4 1_555 1_555
C10 C9 1_555 1_555
C11 C9 1_555 1_555
C12 C9 1_555 1_555
H1 C1 1_555 1_555
H2 C1 1_555 1_555
H3 C2 1_555 1_555
H4 C4 1_555 1_555
H5 C5 1_555 1_555
H6 C6 1_555 1_555
H7 C7 1_555 1_555
H8 C7 1_555 1_555
H9 C7 1_555 1_555
H10 C8 1_555 1_555
H11 C8 1_555 1_555
H12 C8 1_555 1_555
H13 C10 1_555 1_555
H14 C10 1_555 1_555
H15 C10 1_555 1_555
H16 C11 1_555 1_555
H17 C11 1_555 1_555
H18 C11 1_555 1_555
H19 C12 1_555 1_555
H20 C12 1_555 1_555
H21 C12 1_555 1_555
N1 C5 1_555 1_555

#END
