
#######################################################################
#
#                 Cambridge Crystallographic Data Centre
#                                CCDC 
#
#######################################################################
#
# If this CIF has been generated from an entry in the Cambridge 
# Structural Database, then it will include bibliographic, chemical, 
# crystal, experimental, refinement or atomic coordinate data resulting 
# from the CCDC's data processing and validation procedures.
#
#######################################################################

data_EBEXUH
_chemical_formula_moiety         'C46 H42 N4 O2'
_chemical_name_systematic        
2,2'-(1,4-phenylenebis(methylylideneazanylylidene-4,1-phenylene))bis(3-(4-butoxyphenyl)acrylonitrile)
_symmetry_cell_setting           triclinic
_symmetry_space_group_name_H-M   'P -1'
_symmetry_Int_Tables_number      2
_space_group_name_Hall           '-P 1'
loop_
_symmetry_equiv_pos_site_id
_symmetry_equiv_pos_as_xyz
1 x,y,z
2 -x,-y,-z
_cell_length_a                   6.506(5)
_cell_length_b                   10.623(5)
_cell_length_c                   28.063(5)
_cell_angle_alpha                85.023(5)
_cell_angle_beta                 85.483(5)
_cell_angle_gamma                76.774(5)
_cell_volume                     1877.49
_cell_formula_units_Z            2
loop_
_atom_site_label
_atom_site_type_symbol
_atom_site_fract_x
_atom_site_fract_y
_atom_site_fract_z
N1 N 0.2863(4) 0.4285(3) -0.05217(10)
C1 C 0.5634(5) 0.2834(3) -0.01048(12)
C2 C 0.0447(5) 0.7441(3) -0.14984(12)
C3 C 0.2157(5) 0.5353(3) -0.08505(12)
N2 N 1.0030(5) -0.0747(3) 0.09337(10)
C4 C -0.0457(5) 0.8533(3) -0.18378(13)
C5 C -0.0027(6) 1.0310(4) -0.24684(12)
C6 C 1.2370(5) -0.3872(3) 0.19302(12)
C7 C 1.0746(6) -0.1825(3) 0.12542(12)
C8 C 1.2640(5) -0.1908(4) 0.14545(13)
H1 H 1.3409 -0.1279 0.1364
O1 O -0.1670(5) 1.3491(3) -0.34576(11)
C9 C 0.7277(5) 0.0719(3) 0.05224(12)
C10 C 0.0025(5) 0.5902(4) -0.08367(14)
H2 H -0.0869 0.5577 -0.0608
C11 C 0.4803(6) 0.3949(3) -0.04303(12)
H3 H 0.5730 0.4434 -0.0577
C12 C 1.2841(6) -0.6836(4) 0.28628(14)
C13 C 0.8559(6) 0.1481(3) 0.02937(12)
H4 H 0.9991 0.1289 0.0350
C14 C -0.0823(6) 0.6918(4) -0.11518(13)
H5 H -0.2274 0.7261 -0.1132
C15 C 1.3174(5) -0.4895(4) 0.22992(13)
C16 C 0.3421(6) 0.5860(4) -0.11983(13)
H6 H 0.4867 0.5501 -0.1220
C17 C 0.8116(6) -0.0381(3) 0.08551(13)
H7 H 0.7173 -0.0833 0.1017
C18 C 0.2603(6) 0.6875(4) -0.15125(13)
H8 H 0.3506 0.7194 -0.1741
C19 C 0.7765(5) 0.2511(3) -0.00130(13)
H9 H 0.8666 0.3008 -0.0164
C20 C 0.0659(5) 0.9259(3) -0.21166(12)
H10 H 0.2105 0.9051 -0.2076
C21 C 1.0513(6) -0.3822(4) 0.17081(13)
H11 H 0.9786 -0.4479 0.1784
C22 C 1.3422(5) -0.2898(4) 0.17849(13)
H12 H 1.4699 -0.2914 0.1915
C23 C -0.2725(6) 0.8877(4) -0.18285(14)
C24 C 1.4909(6) -0.7503(4) 0.29070(13)
H13 H 1.5951 -0.7290 0.2690
C25 C 1.5180(6) -0.4858(4) 0.24742(14)
C26 C 1.2164(6) -0.5794(4) 0.24980(13)
H14 H 1.0837 -0.5746 0.2387
C27 C 0.9728(6) -0.2827(4) 0.13793(14)
H15 H 0.8483 -0.2827 0.1237
C28 C 0.0585(6) 1.2284(4) -0.28947(14)
H16 H 0.1400 1.2903 -0.2947
O2 O 1.4400(5) -0.9733(3) 0.39556(11)
C29 C 1.3983(8) -0.8798(4) 0.35903(16)
C30 C 0.1167(6) 1.1249(4) -0.25750(13)
H17 H 0.2411 1.1163 -0.2421
C31 C 0.5140(6) 0.1027(4) 0.04327(15)
H18 H 0.4244 0.0528 0.0584
N3 N -0.4524(5) 0.9171(4) -0.18031(13)
C32 C 0.4347(6) 0.2064(4) 0.01215(14)
H19 H 0.2919 0.2251 0.0062
C33 C -0.1207(7) 1.2418(4) -0.31421(14)
C34 C -0.1818(6) 1.0476(4) -0.27281(14)
H20 H -0.2656 0.9870 -0.2676
C35 C 1.5485(7) -0.8471(4) 0.32599(15)
H21 H 1.6894 -0.8907 0.3276
C36 C 1.1335(7) -0.7217(4) 0.31950(16)
H22 H 0.9914 -0.6819 0.3170
C37 C 1.1900(7) -0.8153(4) 0.35522(16)
H23 H 1.0869 -0.8361 0.3774
N4 N 1.6744(6) -0.4793(4) 0.26128(14)
C38 C -0.2393(7) 1.1503(4) -0.30585(14)
H24 H -0.3595 1.1577 -0.3227
C39 C -0.3553(9) 1.3742(5) -0.36900(18)
H25 H -0.4742 1.3774 -0.3456
H26 H -0.3535 1.3058 -0.3899
C40 C 1.6529(8) -1.0380(5) 0.40245(18)
H27 H 1.7363 -0.9750 0.4063
H28 H 1.7119 -1.0851 0.3746
C41 C -0.3774(11) 1.5026(5) -0.3980(2)
H29 H -0.2693 1.4965 -0.4240
H30 H -0.3625 1.5695 -0.3779
C42 C 1.6614(10) -1.1284(6) 0.4453(2)
H31 H 1.5866 -1.1949 0.4403
H32 H 1.5908 -1.0820 0.4725
C43 C -0.599(2) 1.5352(8) -0.4178(4)
H33 H -0.6089 1.4715 -0.4398
H34 H -0.7055 1.5327 -0.3917
C44 C 1.8883(15) -1.1921(10) 0.4566(3)
H35 H 1.9237 -1.2744 0.4419
H36 H 1.9774 -1.1385 0.4399
C45 C -0.631(2) 1.6444(12) -0.4388(5)
H37 H -0.5846 1.7029 -0.4201
H38 H -0.7797 1.6749 -0.4432
H39 H -0.5543 1.6404 -0.4695
C46 C 1.936(3) -1.211(2) 0.4925(5)
H40 H 1.8271 -1.1656 0.5138
H41 H 2.0644 -1.1827 0.4948
H42 H 1.9597 -1.3026 0.5011
loop_
_geom_bond_atom_site_label_1
_geom_bond_atom_site_label_2
_geom_bond_site_symmetry_1
_geom_bond_site_symmetry_2
N1 C3 1_555 1_555
C1 C11 1_555 1_555
C2 C4 1_555 1_555
C3 C10 1_555 1_555
N2 C7 1_555 1_555
C4 C20 1_555 1_555
C5 C20 1_555 1_555
C6 C15 1_555 1_555
C7 C8 1_555 1_555
C8 H1 1_555 1_555
O1 C33 1_555 1_555
C9 C13 1_555 1_555
C10 H2 1_555 1_555
C11 N1 1_555 1_555
H3 C11 1_555 1_555
C12 C24 1_555 1_555
C13 H4 1_555 1_555
C14 C2 1_555 1_555
H5 C14 1_555 1_555
C15 C25 1_555 1_555
C16 C3 1_555 1_555
H6 C16 1_555 1_555
C17 N2 1_555 1_555
H7 C17 1_555 1_555
C18 C2 1_555 1_555
H8 C18 1_555 1_555
C19 C1 1_555 1_555
H9 C19 1_555 1_555
C20 H10 1_555 1_555
C21 C6 1_555 1_555
H11 C21 1_555 1_555
C22 C6 1_555 1_555
H12 C22 1_555 1_555
C23 C4 1_555 1_555
C24 H13 1_555 1_555
C25 N4 1_555 1_555
C26 C12 1_555 1_555
H14 C26 1_555 1_555
C27 C7 1_555 1_555
H15 C27 1_555 1_555
C28 H16 1_555 1_555
O2 C29 1_555 1_555
C29 C35 1_555 1_555
C30 C5 1_555 1_555
H17 C30 1_555 1_555
C31 C9 1_555 1_555
H18 C31 1_555 1_555
N3 C23 1_555 1_555
C32 C1 1_555 1_555
H19 C32 1_555 1_555
C33 C28 1_555 1_555
C34 C5 1_555 1_555
H20 C34 1_555 1_555
C35 C24 1_555 1_555
H21 C35 1_555 1_555
C36 C12 1_555 1_555
H22 C36 1_555 1_555
C37 C29 1_555 1_555
H23 C37 1_555 1_555
C38 C33 1_555 1_555
H24 C38 1_555 1_555
C39 O1 1_555 1_555
H25 C39 1_555 1_555
H26 C39 1_555 1_555
C40 O2 1_555 1_555
H27 C40 1_555 1_555
H28 C40 1_555 1_555
C41 C39 1_555 1_555
H29 C41 1_555 1_555
H30 C41 1_555 1_555
C42 C40 1_555 1_555
H31 C42 1_555 1_555
H32 C42 1_555 1_555
C43 C41 1_555 1_555
H33 C43 1_555 1_555
H34 C43 1_555 1_555
C44 C42 1_555 1_555
H35 C44 1_555 1_555
H36 C44 1_555 1_555
C45 C43 1_555 1_555
H37 C45 1_555 1_555
H38 C45 1_555 1_555
H39 C45 1_555 1_555
C46 C44 1_555 1_555
H40 C46 1_555 1_555
H41 C46 1_555 1_555
H42 C46 1_555 1_555
C8 C22 1_555 1_555
C9 C17 1_555 1_555
C10 C14 1_555 1_555
C13 C19 1_555 1_555
C15 C26 1_555 1_555
C16 C18 1_555 1_555
C21 C27 1_555 1_555
C28 C30 1_555 1_555
C31 C32 1_555 1_555
C34 C38 1_555 1_555
C36 C37 1_555 1_555

#END
