
#######################################################################
#
#                 Cambridge Crystallographic Data Centre
#                                CCDC 
#
#######################################################################
#
# If this CIF has been generated from an entry in the Cambridge 
# Structural Database, then it will include bibliographic, chemical, 
# crystal, experimental, refinement or atomic coordinate data resulting 
# from the CCDC's data processing and validation procedures.
#
#######################################################################

data_EBICUN
_chemical_compound_source        'Speranskia tuberculata'
_chemical_name_common            
rel-(3R*)-(+)-3-Hydroxy-4-methoxy-3-(2-oxopropyl)-5-(3'-methoxy-2',5'-dioxo-1-methylpyrrol-4'-yl)-1-methylpyridine-2,6(1H,3H)-dione
_chemical_formula_moiety         'C16 H18 N2 O8'
_chemical_name_systematic        'Speranskilatine A'
_symmetry_cell_setting           triclinic
_symmetry_space_group_name_H-M   'P -1'
_symmetry_Int_Tables_number      2
_space_group_name_Hall           '-P 1'
loop_
_symmetry_equiv_pos_site_id
_symmetry_equiv_pos_as_xyz
1 x,y,z
2 -x,-y,-z
_cell_length_a                   8.871(1)
_cell_length_b                   10.330(1)
_cell_length_c                   10.387(1)
_cell_angle_alpha                90.765(4)
_cell_angle_beta                 114.277(4)
_cell_angle_gamma                99.908(3)
_cell_volume                     850.968
_exptl_crystal_colour            colorless
_exptl_crystal_description       prism
_chemical_melting_point          166-167deg.C
_cell_formula_units_Z            2
_exptl_crystal_recrystallization_method chloroform
loop_
_atom_site_label
_atom_site_type_symbol
_atom_site_fract_x
_atom_site_fract_y
_atom_site_fract_z
O1 O 0.2933(2) 0.9260(1) 0.8813(2)
O2 O 0.4210(2) 1.1913(1) 1.0279(2)
O3 O 0.3215(2) 1.3811(1) 0.8430(2)
O4 O -0.1876(2) 1.0803(1) 0.7598(2)
O5 O 0.2010(2) 1.0714(2) 0.5919(2)
O6 O -0.3091(3) 1.5469(2) 0.5213(2)
O7 O -0.1317(3) 1.3620(2) 0.4808(2)
O8 O -0.1143(2) 1.3672(1) 0.9435(2)
N1 N 0.0559(3) 1.0046(1) 0.8338(2)
N2 N -0.2358(3) 1.4784(1) 0.7468(3)
C1 C 0.2222(3) 1.0209(2) 0.8601(3)
C2 C 0.3246(3) 1.1597(2) 0.8777(3)
C3 C 0.2177(3) 1.2655(2) 0.8305(3)
C4 C 0.0502(3) 1.2390(2) 0.7861(3)
C5 C -0.0367(3) 1.1058(2) 0.7911(3)
C6 C 0.4422(3) 1.1627(3) 0.8022(3)
C7 C 0.3487(3) 1.1264(3) 0.6440(3)
C8 C 0.4450(4) 1.1620(3) 0.5556(4)
C9 C 0.2688(3) 1.5068(2) 0.8305(3)
C10 C -0.0375(4) 0.8724(3) 0.8368(3)
C11 C -0.2387(3) 1.4796(3) 0.6137(3)
C12 C -0.1342(3) 1.3810(2) 0.6066(3)
C13 C -0.0656(3) 1.3337(2) 0.7329(3)
C14 C -0.1357(3) 1.3900(2) 0.8244(3)
C15 C -0.0560(5) 1.2555(3) 0.4594(4)
C16 C -0.3231(4) 1.5576(3) 0.8004(4)
loop_
_geom_bond_atom_site_label_1
_geom_bond_atom_site_label_2
_geom_bond_site_symmetry_1
_geom_bond_site_symmetry_2
O1 C1 1_555 1_555
O2 C2 1_555 1_555
O3 C3 1_555 1_555
O4 C5 1_555 1_555
O5 C7 1_555 1_555
O6 C11 1_555 1_555
O7 C12 1_555 1_555
O8 C14 1_555 1_555
N1 C1 1_555 1_555
N2 C11 1_555 1_555
C1 C2 1_555 1_555
C2 C3 1_555 1_555
C3 C4 1_555 1_555
C4 C5 1_555 1_555
C5 N1 1_555 1_555
C6 C2 1_555 1_555
C7 C6 1_555 1_555
C8 C7 1_555 1_555
C9 O3 1_555 1_555
C10 N1 1_555 1_555
C11 C12 1_555 1_555
C12 C13 1_555 1_555
C13 C4 1_555 1_555
C14 N2 1_555 1_555
C15 O7 1_555 1_555
C16 N2 1_555 1_555
C13 C14 1_555 1_555

#END
