
#######################################################################
#
#                 Cambridge Crystallographic Data Centre
#                                CCDC 
#
#######################################################################
#
# If this CIF has been generated from an entry in the Cambridge 
# Structural Database, then it will include bibliographic, chemical, 
# crystal, experimental, refinement or atomic coordinate data resulting 
# from the CCDC's data processing and validation procedures.
#
#######################################################################

data_EBIFOL
_chemical_formula_moiety         'C14 H13 N1 O1'
_chemical_name_systematic        3-((E)-2-(4-Aminophenyl)-1-ethenyl)phenol
_symmetry_cell_setting           orthorhombic
_symmetry_space_group_name_H-M   'P c c n'
_symmetry_Int_Tables_number      56
_space_group_name_Hall           '-P 2ab 2ac'
loop_
_symmetry_equiv_pos_site_id
_symmetry_equiv_pos_as_xyz
1 x,y,z
2 1/2-x,1/2-y,z
3 -x,1/2+y,1/2-z
4 1/2+x,-y,1/2-z
5 -x,-y,-z
6 1/2+x,1/2+y,-z
7 x,1/2-y,1/2+z
8 1/2-x,y,1/2+z
_cell_length_a                   11.4815(5)
_cell_length_b                   26.0534(16)
_cell_length_c                   7.1885(4)
_cell_angle_alpha                90
_cell_angle_beta                 90
_cell_angle_gamma                90
_cell_volume                     2150.31
_exptl_crystal_colour            colorless
_exptl_crystal_description       block
_chemical_melting_point          202deg.C
_cell_formula_units_Z            8
loop_
_atom_site_label
_atom_site_type_symbol
_atom_site_fract_x
_atom_site_fract_y
_atom_site_fract_z
O1 O 0.41123(9) 0.71360(4) 0.19758(17)
C1 C 0.64621(13) 0.36693(6) 0.3985(2)
N1 N 0.66845(13) 0.31551(6) 0.4567(2)
C2 C 0.59829(13) 0.46941(6) 0.3025(2)
C3 C 0.58772(14) 0.71187(7) 0.0262(2)
C4 C 0.51591(14) 0.43062(7) 0.2756(2)
C5 C 0.70783(14) 0.63622(6) 0.0270(2)
C6 C 0.53955(14) 0.38013(7) 0.3205(2)
C7 C 0.52768(14) 0.63658(7) 0.1966(2)
C8 C 0.72811(14) 0.40514(6) 0.4312(2)
C9 C 0.57234(14) 0.52243(6) 0.2470(2)
C10 C 0.62785(12) 0.61053(6) 0.1391(2)
C11 C 0.70454(14) 0.45558(7) 0.3835(2)
C12 C 0.65085(14) 0.55707(6) 0.1937(2)
C13 C 0.50902(13) 0.68694(6) 0.1417(2)
C14 C 0.68688(14) 0.68613(7) -0.0313(2)
H1 H 0.4885(14) 0.5312(6) 0.244(2)
H2 H 0.4402(12) 0.4389(6) 0.223(2)
H3 H 0.4704(12) 0.6196(6) 0.275(2)
H4 H 0.7631(12) 0.4821(6) 0.406(2)
H5 H 0.8021(13) 0.3963(6) 0.486(2)
H6 H 0.7770(13) 0.6186(6) -0.009(2)
H7 H 0.7411(13) 0.7030(6) -0.115(2)
H8 H 0.5711(13) 0.7475(7) -0.013(2)
H9 H 0.7343(12) 0.5471(6) 0.1863(19)
H10 H 0.4826(13) 0.3528(6) 0.302(2)
H11 H 0.7481(15) 0.3081(6) 0.452(2)
H12 H 0.6271(15) 0.2905(7) 0.385(3)
H13 H 0.3778(17) 0.6995(8) 0.310(3)
loop_
_geom_bond_atom_site_label_1
_geom_bond_atom_site_label_2
_geom_bond_site_symmetry_1
_geom_bond_site_symmetry_2
O1 C13 1_555 1_555
C1 N1 1_555 1_555
N1 H11 1_555 1_555
C2 C4 1_555 1_555
C3 C13 1_555 1_555
C4 C6 1_555 1_555
C5 C10 1_555 1_555
C6 C1 1_555 1_555
C7 C10 1_555 1_555
C8 C1 1_555 1_555
C9 C2 1_555 1_555
C10 C12 1_555 1_555
C11 C2 1_555 1_555
C12 C9 1_555 1_555
C13 C7 1_555 1_555
C14 C3 1_555 1_555
H1 C9 1_555 1_555
H2 C4 1_555 1_555
H3 C7 1_555 1_555
H4 C11 1_555 1_555
H5 C8 1_555 1_555
H6 C5 1_555 1_555
H7 C14 1_555 1_555
H8 C3 1_555 1_555
H9 C12 1_555 1_555
H10 C6 1_555 1_555
H12 N1 1_555 1_555
H13 O1 1_555 1_555
C5 C14 1_555 1_555
C8 C11 1_555 1_555

#END
