
#######################################################################
#
#                 Cambridge Crystallographic Data Centre
#                                CCDC 
#
#######################################################################
#
# If this CIF has been generated from an entry in the Cambridge 
# Structural Database, then it will include bibliographic, chemical, 
# crystal, experimental, refinement or atomic coordinate data resulting 
# from the CCDC's data processing and validation procedures.
#
#######################################################################

data_EBIJIK
_chemical_formula_moiety         'C21 H30 N6 O4,0.5(H2 O1)'
_chemical_name_systematic        
"5,5'-Methylenebis(N'-acetyl-4-ethyl-3-methyl-1H-pyrrole-2-carbohydrazide) hemihydrate"
_symmetry_cell_setting           hexagonal
_symmetry_space_group_name_H-M   'P 62'
_symmetry_Int_Tables_number      171
_space_group_name_Hall           'P 62'
loop_
_symmetry_equiv_pos_site_id
_symmetry_equiv_pos_as_xyz
1 x,y,z
2 x-y,x,1/3+z
3 -y,x-y,2/3+z
4 -x,-y,z
5 -x+y,-x,1/3+z
6 y,-x+y,2/3+z
_cell_length_a                   16.533(4)
_cell_length_b                   16.533(4)
_cell_length_c                   14.654(5)
_cell_angle_alpha                90
_cell_angle_beta                 90
_cell_angle_gamma                120
_cell_volume                     3468.89
_exptl_crystal_colour            colorless
_exptl_crystal_description       block
_cell_formula_units_Z            6
loop_
_atom_site_label
_atom_site_type_symbol
_atom_site_fract_x
_atom_site_fract_y
_atom_site_fract_z
O1 O 0.26421(15) 0.14462(15) -0.11937(14)
O2 O 0.05369(16) 0.15764(16) -0.10276(17)
O3 O 0.65029(14) 0.67789(14) 0.07279(14)
O4 O 0.61342(15) 0.50774(15) -0.13943(14)
N1 N 0.15602(18) 0.10221(18) -0.00963(18)
H1 H 0.1172 0.0583 0.0257
N2 N 0.16776(18) 0.18996(17) -0.00135(17)
H2 H 0.2098 0.2300 0.0347
N3 N 0.18342(15) 0.36099(17) 0.03642(17)
H3 H 0.2113 0.3447 0.0756
N4 N 0.39873(15) 0.56182(15) 0.05742(15)
H4 H 0.3852 0.5507 0.0005
N5 N 0.55861(16) 0.61586(15) -0.05114(16)
H5 H 0.5029 0.5833 -0.0723
N6 N 0.63408(16) 0.65021(17) -0.11023(15)
H6 H 0.6680 0.7095 -0.1185
C1 C 0.1784(2) -0.0164(2) -0.0778(2)
H7 H 0.1819 -0.0324 -0.1400
H8 H 0.1159 -0.0552 -0.0555
H9 H 0.2210 -0.0260 -0.0412
C2 C 0.2039(2) 0.0835(2) -0.0717(2)
C3 C 0.1132(2) 0.2134(2) -0.0499(2)
C4 C 0.1279(2) 0.3055(2) -0.0330(2)
C5 C 0.0969(2) 0.3571(2) -0.0800(2)
C6 C 0.0338(3) 0.3241(3) -0.1622(3)
H10 H 0.0275 0.2663 -0.1836
H11 H 0.0603 0.3702 -0.2096
H12 H -0.0265 0.3147 -0.1458
C7 C 0.1356(2) 0.4442(2) -0.0375(2)
C8 C 0.1335(7) 0.5297(5) -0.0739(10)
H13 H 0.0817 0.5093 -0.1162
H14 H 0.1226 0.5610 -0.0235
C9 C 0.2223(12) 0.5979(6) -0.1215(8)
H15 H 0.2146 0.6462 -0.1492
H16 H 0.2369 0.5660 -0.1677
H17 H 0.2724 0.6252 -0.0779
C10 C 0.18796(19) 0.4442(2) 0.0346(2)
C11 C 0.23598(19) 0.5136(2) 0.1081(2)
H18 H 0.2021 0.4875 0.1645
H19 H 0.2313 0.5685 0.0941
C12 C 0.33605(19) 0.54461(18) 0.1248(2)
C13 C 0.3831(2) 0.5696(2) 0.2060(2)
C14 C 0.3393(2) 0.5605(3) 0.2985(2)
H20 H 0.2884 0.5735 0.2923
H21 H 0.3854 0.6075 0.3388
C15 C 0.3021(3) 0.4658(3) 0.3422(3)
H22 H 0.2584 0.4184 0.3017
H23 H 0.2714 0.4638 0.3984
H24 H 0.3529 0.4548 0.3543
C16 C 0.4786(2) 0.6053(2) 0.1872(2)
C17 C 0.5555(2) 0.6433(3) 0.2567(2)
H25 H 0.6043 0.6320 0.2369
H26 H 0.5313 0.6130 0.3142
H27 H 0.5800 0.7093 0.2633
C18 C 0.48715(18) 0.59973(18) 0.0933(2)
C19 C 0.5718(2) 0.63316(19) 0.0401(2)
C20 C 0.6545(2) 0.5929(2) -0.1540(2)
C21 C 0.7269(2) 0.6367(2) -0.2275(2)
H28 H 0.7640 0.6069 -0.2292
H29 H 0.7663 0.7020 -0.2149
H30 H 0.6968 0.6291 -0.2855
O5 O 0.0000 1.0000 0.1202(2)
H31 H 0.0293 0.9800 0.1522
H31C H -0.0293 1.0200 0.1522
C22? C 0.101(2) 0.5150(17) -0.0439(18)
C23? C 0.170(3) 0.589(2) -0.108(2)
H32? H 0.0378 0.4859 -0.0684
H33? H 0.1015 0.5414 0.0154
H34? H 0.1537 0.6369 -0.1161
H35? H 0.1679 0.5612 -0.1662
H36? H 0.2315 0.6159 -0.0830
loop_
_geom_bond_atom_site_label_1
_geom_bond_atom_site_label_2
_geom_bond_site_symmetry_1
_geom_bond_site_symmetry_2
O1 C2 1_555 1_555
O2 C3 1_555 1_555
O3 C19 1_555 1_555
O4 C20 1_555 1_555
N1 H1 1_555 1_555
N2 N1 1_555 1_555
H2 N2 1_555 1_555
N3 H3 1_555 1_555
N4 H4 1_555 1_555
N5 H5 1_555 1_555
N6 N5 1_555 1_555
H6 N6 1_555 1_555
C1 H7 1_555 1_555
H8 C1 1_555 1_555
H9 C1 1_555 1_555
C2 N1 1_555 1_555
C3 N2 1_555 1_555
C4 N3 1_555 1_555
C5 C4 1_555 1_555
C6 C5 1_555 1_555
H10 C6 1_555 1_555
H11 C6 1_555 1_555
H12 C6 1_555 1_555
C7 C5 1_555 1_555
C8 C7 1_555 1_555
H13 C8 1_555 1_555
H14 C8 1_555 1_555
C9 C8 1_555 1_555
H15 C9 1_555 1_555
H16 C9 1_555 1_555
H17 C9 1_555 1_555
C10 N3 1_555 1_555
C11 C10 1_555 1_555
H18 C11 1_555 1_555
H19 C11 1_555 1_555
C12 N4 1_555 1_555
C13 C12 1_555 1_555
C14 C13 1_555 1_555
H20 C14 1_555 1_555
H21 C14 1_555 1_555
C15 C14 1_555 1_555
H22 C15 1_555 1_555
H23 C15 1_555 1_555
H24 C15 1_555 1_555
C16 C13 1_555 1_555
C17 C16 1_555 1_555
H25 C17 1_555 1_555
H26 C17 1_555 1_555
H27 C17 1_555 1_555
C18 N4 1_555 1_555
C19 N5 1_555 1_555
C20 N6 1_555 1_555
C21 C20 1_555 1_555
H28 C21 1_555 1_555
H29 C21 1_555 1_555
H30 C21 1_555 1_555
O5 H31 1_555 1_555
H31C O5 1_555 1_555
C1 C2 1_555 1_555
C3 C4 1_555 1_555
C7 C10 1_555 1_555
C11 C12 1_555 1_555
C16 C18 1_555 1_555
C18 C19 1_555 1_555

#END
