
#######################################################################
#
#                 Cambridge Crystallographic Data Centre
#                                CCDC 
#
#######################################################################
#
# If this CIF has been generated from an entry in the Cambridge 
# Structural Database, then it will include bibliographic, chemical, 
# crystal, experimental, refinement or atomic coordinate data resulting 
# from the CCDC's data processing and validation procedures.
#
#######################################################################

data_EBIJOQ
_chemical_formula_moiety         'C23 H34 N6 O4,0.25(H2 O1)'
_chemical_name_systematic        
"5,5'-Methylenebis(4-ethyl-3-methyl-N'-propionyl-1H-pyrrole-2-carbohydrazide) hydrate"
_symmetry_cell_setting           triclinic
_symmetry_space_group_name_H-M   'P -1'
_symmetry_Int_Tables_number      2
_space_group_name_Hall           '-P 1'
loop_
_symmetry_equiv_pos_site_id
_symmetry_equiv_pos_as_xyz
1 x,y,z
2 -x,-y,-z
_cell_length_a                   12.094(4)
_cell_length_b                   12.534(4)
_cell_length_c                   18.268(6)
_cell_angle_alpha                75.307(4)
_cell_angle_beta                 71.083(5)
_cell_angle_gamma                78.421(5)
_cell_volume                     2512.61
_exptl_crystal_colour            colorless
_exptl_crystal_description       block
_cell_formula_units_Z            4
loop_
_atom_site_label
_atom_site_type_symbol
_atom_site_fract_x
_atom_site_fract_y
_atom_site_fract_z
O1 O 0.4534(4) 0.7841(4) 0.0604(2)
O2 O 0.3911(3) 0.4844(3) 0.10632(17)
O3 O 0.8637(3) 0.7696(2) 0.34128(17)
O4 O 0.7040(3) 1.0091(2) 0.20701(18)
N1 N 0.5464(4) 0.6254(4) 0.0224(2)
H1 H 0.5833 0.5927 -0.0164
N2 N 0.5399(4) 0.5699(3) 0.0994(2)
H2 H 0.5920 0.5748 0.1207
N3 N 0.4938(3) 0.5020(3) 0.26779(18)
H3 H 0.5517 0.5407 0.2480
N4 N 0.6127(3) 0.6317(3) 0.37355(18)
H4 H 0.5535 0.6832 0.3768
N5 N 0.6796(3) 0.8454(3) 0.3382(2)
H5 H 0.6121 0.8355 0.3367
N6 N 0.7013(3) 0.9511(3) 0.3339(2)
H6 H 0.7099 0.9671 0.3747
C1 C 0.4849(11) 0.9007(6) -0.0965(5)
H13 H 0.4147 0.9299 -0.0605
H14 H 0.4789 0.9254 -0.1494
H15 H 0.5521 0.9266 -0.0929
C2 C 0.4984(6) 0.7787(5) -0.0760(3)
H16 H 0.5731 0.7503 -0.1096
H17 H 0.4363 0.7532 -0.0874
C3 C 0.4946(5) 0.7300(5) 0.0093(3)
C4 C 0.4523(4) 0.5088(3) 0.1405(2)
C5 C 0.4326(4) 0.4731(3) 0.2250(2)
C6 C 0.3473(4) 0.4114(4) 0.2783(2)
C7 C 0.2565(5) 0.3635(5) 0.2611(3)
H18 H 0.2085 0.4223 0.2359
H19 H 0.2077 0.3254 0.3097
H20 H 0.2951 0.3121 0.2268
C8 C 0.3571(4) 0.4029(3) 0.3544(2)
C9 C 0.2791(4) 0.3487(4) 0.4317(3)
H21 H 0.3212 0.3307 0.4712
H22 H 0.2620 0.2795 0.4258
C10 C 0.1643(5) 0.4204(6) 0.4607(3)
H23 H 0.1802 0.4857 0.4719
H24 H 0.1159 0.3793 0.5079
H25 H 0.1240 0.4419 0.4208
C11 C 0.4486(4) 0.4599(3) 0.3453(2)
C12 C 0.4905(4) 0.4789(4) 0.4091(2)
H26 H 0.4311 0.5309 0.4368
H27 H 0.4948 0.4090 0.4467
C13 C 0.6064(4) 0.5217(3) 0.3850(2)
C14 C 0.7185(4) 0.4663(3) 0.3746(2)
C15 C 0.7503(5) 0.3421(4) 0.3855(3)
H28 H 0.6882 0.3104 0.3788
H29 H 0.8222 0.3252 0.3448
C16 C 0.7678(7) 0.2884(5) 0.4651(4)
H30 H 0.8310 0.3174 0.4715
H31 H 0.7870 0.2094 0.4689
H32 H 0.6966 0.3039 0.5057
C17 C 0.7968(4) 0.5453(4) 0.3562(2)
C18 C 0.9273(4) 0.5231(4) 0.3386(3)
H33 H 0.9558 0.4571 0.3170
H34 H 0.9486 0.5128 0.3865
H35 H 0.9618 0.5851 0.3011
C19 C 0.7282(4) 0.6486(3) 0.3560(2)
C20 C 0.7638(4) 0.7572(3) 0.3446(2)
C21 C 0.7093(4) 1.0287(4) 0.2684(3)
C22 C 0.7226(5) 1.1414(4) 0.2755(3)
H36 H 0.6795 1.1507 0.3289
H37 H 0.8052 1.1427 0.2689
C23 C 0.6854(9) 1.2333(5) 0.2234(5)
H38 H 0.7343 1.2312 0.1705
H39 H 0.6913 1.3004 0.2373
H40 H 0.6050 1.2314 0.2266
O5 O 0.4491(3) 0.8110(3) 0.32014(19)
O6 O 0.6737(3) 0.6377(3) 0.17484(17)
O7 O 0.9839(3) 1.0851(3) 0.39663(17)
O8 O 0.7059(3) 0.9784(3) 0.4800(2)
N7 N 0.5102(3) 0.8155(3) 0.1902(2)
H7 H 0.4904 0.8169 0.1487
N8 N 0.6269(3) 0.8180(3) 0.1823(2)
H8 H 0.6494 0.8781 0.1838
N9 N 0.8743(3) 0.8319(3) 0.14625(19)
H9 H 0.8331 0.8949 0.1532
N10 N 1.0103(3) 0.9373(3) 0.24382(19)
H10 H 0.9894 0.8726 0.2670
N11 N 0.9354(3) 0.9156(3) 0.41334(19)
H11 H 0.9401 0.8587 0.3938
N12 N 0.8858(3) 0.9126(3) 0.49361(19)
H12 H 0.9279 0.8853 0.5256
C24 C 0.2406(6) 0.7267(6) 0.3153(5)
H41 H 0.2824 0.6543 0.3094
H42 H 0.1636 0.7323 0.3092
H43 H 0.2332 0.7379 0.3668
C25 C 0.3058(4) 0.8118(5) 0.2548(3)
H44 H 0.2618 0.8844 0.2606
H45 H 0.3106 0.8010 0.2031
C26 C 0.4280(4) 0.8109(4) 0.2584(3)
C27 C 0.7058(4) 0.7265(4) 0.1724(2)
C28 C 0.8291(4) 0.7352(4) 0.1545(2)
C29 C 0.9243(4) 0.6537(4) 0.1378(3)
C30 C 0.9190(6) 0.5356(4) 0.1369(4)
H46 H 0.8968 0.5335 0.0915
H47 H 0.8619 0.5046 0.1841
H48 H 0.9950 0.4930 0.1348
C31 C 1.0268(4) 0.7032(5) 0.1201(3)
C32 C 1.1522(5) 0.6463(6) 0.0947(4)
H49 H 1.2041 0.6837 0.1077
H50 H 1.1563 0.5700 0.1238
C33 C 1.1941(6) 0.6472(7) 0.0073(4)
H51 H 1.1472 0.6047 -0.0050
H52 H 1.2752 0.6150 -0.0069
H53 H 1.1866 0.7224 -0.0217
C34 C 0.9938(4) 0.8120(5) 0.1255(2)
C35 C 1.0686(5) 0.9022(5) 0.1062(3)
H54 H 1.0611 0.9501 0.0568
H55 H 1.1500 0.8679 0.0967
C36 C 1.0466(4) 0.9750(4) 0.1645(2)
C37 C 1.0705(5) 1.0813(5) 0.1499(3)
C38 C 1.1068(7) 1.1593(7) 0.0694(3)
H56 H 1.0812 1.1355 0.0316
H57 H 1.0679 1.2340 0.0736
C39 C 1.2314(10) 1.1606(13) 0.0413(5)
H58 H 1.2592 1.1689 0.0828
H59 H 1.2496 1.2216 -0.0027
H60 H 1.2691 1.0920 0.0248
C40 C 1.0493(4) 1.1100(4) 0.2234(3)
C41 C 1.0618(7) 1.2218(5) 0.2344(3)
H61 H 1.0104 1.2344 0.2847
H62 H 1.0410 1.2790 0.1931
H63 H 1.1418 1.2232 0.2323
C42 C 1.0122(4) 1.0197(4) 0.2816(2)
C43 C 0.9762(4) 1.0106(4) 0.3664(2)
C44 C 0.7716(5) 0.9526(4) 0.5213(3)
C45 C 0.7312(5) 0.9617(5) 0.6065(3)
H64 H 0.7319 1.0377 0.6096
H65 H 0.7864 0.9141 0.6330
C46 C 0.6100(5) 0.9299(5) 0.6487(3)
H66 H 0.5541 0.9794 0.6246
H67 H 0.5898 0.9348 0.7032
H68 H 0.6084 0.8550 0.6454
O9 O 0.5083(8) 0.1616(8) 0.4947(6)
loop_
_geom_bond_atom_site_label_1
_geom_bond_atom_site_label_2
_geom_bond_site_symmetry_1
_geom_bond_site_symmetry_2
O1 C3 1_555 1_555
O2 C4 1_555 1_555
O3 C20 1_555 1_555
O4 C21 1_555 1_555
O5 C26 1_555 1_555
O6 C27 1_555 1_555
O7 C43 1_555 1_555
O8 C44 1_555 1_555
N1 H1 1_555 1_555
N2 N1 1_555 1_555
H2 N2 1_555 1_555
N3 H3 1_555 1_555
N4 H4 1_555 1_555
N5 H5 1_555 1_555
N6 N5 1_555 1_555
H6 N6 1_555 1_555
N7 H7 1_555 1_555
N8 N7 1_555 1_555
H8 N8 1_555 1_555
N9 H9 1_555 1_555
N10 H10 1_555 1_555
N11 H11 1_555 1_555
N12 N11 1_555 1_555
H12 N12 1_555 1_555
C1 H13 1_555 1_555
H14 C1 1_555 1_555
H15 C1 1_555 1_555
C2 C1 1_555 1_555
H16 C2 1_555 1_555
H17 C2 1_555 1_555
C3 N1 1_555 1_555
C4 N2 1_555 1_555
C5 N3 1_555 1_555
C6 C5 1_555 1_555
C7 C6 1_555 1_555
H18 C7 1_555 1_555
H19 C7 1_555 1_555
H20 C7 1_555 1_555
C8 C6 1_555 1_555
C9 C8 1_555 1_555
H21 C9 1_555 1_555
H22 C9 1_555 1_555
C10 C9 1_555 1_555
H23 C10 1_555 1_555
H24 C10 1_555 1_555
H25 C10 1_555 1_555
C11 N3 1_555 1_555
C12 C11 1_555 1_555
H26 C12 1_555 1_555
H27 C12 1_555 1_555
C13 N4 1_555 1_555
C14 C13 1_555 1_555
C15 C14 1_555 1_555
H28 C15 1_555 1_555
H29 C15 1_555 1_555
C16 C15 1_555 1_555
H30 C16 1_555 1_555
H31 C16 1_555 1_555
H32 C16 1_555 1_555
C17 C14 1_555 1_555
C18 C17 1_555 1_555
H33 C18 1_555 1_555
H34 C18 1_555 1_555
H35 C18 1_555 1_555
C19 N4 1_555 1_555
C20 N5 1_555 1_555
C21 N6 1_555 1_555
C22 C21 1_555 1_555
H36 C22 1_555 1_555
H37 C22 1_555 1_555
C23 C22 1_555 1_555
H38 C23 1_555 1_555
H39 C23 1_555 1_555
H40 C23 1_555 1_555
C24 H41 1_555 1_555
H42 C24 1_555 1_555
H43 C24 1_555 1_555
C25 C24 1_555 1_555
H44 C25 1_555 1_555
H45 C25 1_555 1_555
C26 N7 1_555 1_555
C27 N8 1_555 1_555
C28 N9 1_555 1_555
C29 C28 1_555 1_555
C30 C29 1_555 1_555
H46 C30 1_555 1_555
H47 C30 1_555 1_555
H48 C30 1_555 1_555
C31 C29 1_555 1_555
C32 C31 1_555 1_555
H49 C32 1_555 1_555
H50 C32 1_555 1_555
C33 C32 1_555 1_555
H51 C33 1_555 1_555
H52 C33 1_555 1_555
H53 C33 1_555 1_555
C34 N9 1_555 1_555
C35 C34 1_555 1_555
H54 C35 1_555 1_555
H55 C35 1_555 1_555
C36 N10 1_555 1_555
C37 C36 1_555 1_555
C38 C37 1_555 1_555
H56 C38 1_555 1_555
H57 C38 1_555 1_555
C39 C38 1_555 1_555
H58 C39 1_555 1_555
H59 C39 1_555 1_555
H60 C39 1_555 1_555
C40 C37 1_555 1_555
C41 C40 1_555 1_555
H61 C41 1_555 1_555
H62 C41 1_555 1_555
H63 C41 1_555 1_555
C42 N10 1_555 1_555
C43 N11 1_555 1_555
C44 N12 1_555 1_555
C45 C44 1_555 1_555
H64 C45 1_555 1_555
H65 C45 1_555 1_555
C46 C45 1_555 1_555
H66 C46 1_555 1_555
H67 C46 1_555 1_555
H68 C46 1_555 1_555
C2 C3 1_555 1_555
C4 C5 1_555 1_555
C8 C11 1_555 1_555
C12 C13 1_555 1_555
C17 C19 1_555 1_555
C19 C20 1_555 1_555
C25 C26 1_555 1_555
C27 C28 1_555 1_555
C31 C34 1_555 1_555
C35 C36 1_555 1_555
C40 C42 1_555 1_555
C42 C43 1_555 1_555

#END
