
#######################################################################
#
#                 Cambridge Crystallographic Data Centre
#                                CCDC 
#
#######################################################################
#
# If this CIF has been generated from an entry in the Cambridge 
# Structural Database, then it will include bibliographic, chemical, 
# crystal, experimental, refinement or atomic coordinate data resulting 
# from the CCDC's data processing and validation procedures.
#
#######################################################################

data_EBIKAD
_chemical_formula_moiety         'C25 H38 N6 O4,2(C4 H8 O1)'
_chemical_name_systematic        
"5,5'-Methylenebis(N'-butyryl-4-ethyl-3-methyl-1H-pyrrole-2-carbohydrazide) tetrahydrofuran solvate"
_symmetry_cell_setting           triclinic
_symmetry_space_group_name_H-M   'P -1'
_symmetry_Int_Tables_number      2
_space_group_name_Hall           '-P 1'
loop_
_symmetry_equiv_pos_site_id
_symmetry_equiv_pos_as_xyz
1 x,y,z
2 -x,-y,-z
_cell_length_a                   17.690(3)
_cell_length_b                   18.545(4)
_cell_length_c                   22.889(5)
_cell_angle_alpha                71.70(3)
_cell_angle_beta                 82.55(3)
_cell_angle_gamma                77.24(3)
_cell_volume                     6938.4
_cell_formula_units_Z            8
loop_
_atom_site_label
_atom_site_type_symbol
_atom_site_fract_x
_atom_site_fract_y
_atom_site_fract_z
O1 O 0.42811(10) 0.09911(11) 0.32002(8)
O2 O 0.44668(10) -0.06854(10) 0.49233(8)
O3 O -0.00362(10) 0.33322(9) 0.36447(8)
O4 O 0.12560(10) 0.28159(10) 0.22598(8)
N1 N 0.45273(12) 0.07474(12) 0.42004(10)
H1 H 0.4838 0.0763 0.4454
N2 N 0.38296(12) 0.05036(12) 0.44207(10)
H2 H 0.3395 0.0813 0.4321
N3 N 0.23796(11) 0.00363(11) 0.49010(9)
H3 H 0.2310 0.0518 0.4692
N4 N 0.06331(11) 0.12683(11) 0.43002(9)
H4 H 0.0744 0.1090 0.3988
N5 N 0.01757(12) 0.23567(12) 0.31995(9)
H5 H 0.0303 0.1868 0.3243
N6 N -0.00069(12) 0.28777(12) 0.26266(9)
H6 H -0.0485 0.3077 0.2552
C1 C 0.67524(18) 0.1072(2) 0.27348(17)
H25 H 0.6706 0.1623 0.2574
H26 H 0.7018 0.0833 0.2430
H27 H 0.7041 0.0885 0.3097
C2 C 0.59448(17) 0.0873(2) 0.28995(15)
H28 H 0.5646 0.1089 0.2537
H29 H 0.5993 0.0315 0.3021
C3 C 0.55111(15) 0.11748(16) 0.34163(12)
H30 H 0.5817 0.0969 0.3775
H31 H 0.5450 0.1734 0.3290
C4 C 0.47184(14) 0.09587(14) 0.35910(12)
C5 C 0.38408(14) -0.02277(14) 0.47952(11)
C6 C 0.30969(14) -0.04531(13) 0.50193(11)
C7 C 0.29554(14) -0.11823(14) 0.53634(11)
C8 C 0.35463(15) -0.19169(14) 0.55750(13)
H32 H 0.4054 -0.1823 0.5408
H33 H 0.3425 -0.2312 0.5435
H34 H 0.3536 -0.2083 0.6017
C9 C 0.21392(14) -0.11262(14) 0.54602(11)
C10 C 0.17144(15) -0.17796(14) 0.57740(12)
H35 H 0.1179 -0.1566 0.5872
H36 H 0.1947 -0.2081 0.6159
C11 C 0.17296(17) -0.23151(16) 0.53812(14)
H37 H 0.1468 -0.2029 0.5012
H38 H 0.1471 -0.2732 0.5611
H39 H 0.2258 -0.2521 0.5275
C12 C 0.18029(14) -0.03666(14) 0.51677(11)
C13 C 0.09563(14) -0.00278(14) 0.50781(12)
H40 H 0.0803 -0.0204 0.4762
H41 H 0.0664 -0.0244 0.5458
C14 C 0.07087(14) 0.08381(14) 0.49017(11)
C15 C 0.04648(15) 0.13237(15) 0.52664(11)
C16 C 0.04095(19) 0.10770(16) 0.59605(12)
H42 H 0.0856 0.0675 0.6103
H43 H 0.0443 0.1515 0.6095
C17 C -0.0271(3) 0.0798(3) 0.6251(2)
H44 H -0.0251 0.0657 0.6690
H45 H -0.0305 0.0353 0.6133
H46 H -0.0719 0.1196 0.6125
C18 C 0.02382(14) 0.20880(14) 0.48698(11)
C19 C -0.00810(17) 0.28051(15) 0.50629(12)
H47 H 0.0025 0.3250 0.4736
H48 H 0.0160 0.2773 0.5425
H49 H -0.0632 0.2850 0.5152
C20 C 0.03486(13) 0.20388(13) 0.42706(11)
C21 C 0.01505(13) 0.26309(14) 0.36922(11)
C22 C 0.05615(15) 0.30736(14) 0.21855(11)
C23 C 0.02666(15) 0.36339(15) 0.15880(11)
H50 H 0.0434 0.4120 0.1519
H51 H -0.0297 0.3735 0.1619
C24 C 0.05577(17) 0.33247(17) 0.10441(12)
H52 H 0.0389 0.2840 0.1112
H53 H 0.1121 0.3223 0.1012
C25 C 0.0257(2) 0.3895(2) 0.04443(14)
H54 H -0.0298 0.3958 0.0460
H55 H 0.0484 0.3703 0.0105
H56 H 0.0395 0.4386 0.0389
O5 O 0.15664(10) 0.05818(10) 0.34459(8)
O6 O 0.24864(10) 0.16367(10) 0.42459(8)
O7 O -0.17896(10) 0.51788(10) 0.20635(8)
O8 O -0.16194(10) 0.32117(11) 0.24896(9)
N7 N 0.26430(12) 0.11180(11) 0.32491(10)
H7 H 0.3138 0.1045 0.3168
N8 N 0.22424(12) 0.18587(11) 0.32441(10)
H8 H 0.2002 0.2159 0.2927
N9 N 0.18734(11) 0.34550(11) 0.31001(9)
H9 H 0.1946 0.3353 0.2753
N10 N 0.01358(11) 0.47484(11) 0.26291(9)
H10 H 0.0142 0.4374 0.2966
N11 N -0.13610(12) 0.43088(12) 0.29584(9)
H11 H -0.1012 0.4133 0.3223
N12 N -0.20547(12) 0.40322(12) 0.30721(10)
H12 H -0.2416 0.4180 0.3323
C26 C 0.30611(18) -0.16937(16) 0.38342(14)
H57 H 0.3288 -0.1742 0.3441
H58 H 0.2813 -0.2126 0.4042
H59 H 0.3460 -0.1686 0.4078
C27 C 0.24622(16) -0.09459(14) 0.37413(12)
H60 H 0.2052 -0.0961 0.3505
H61 H 0.2231 -0.0900 0.4139
C28 C 0.28261(14) -0.02469(14) 0.34068(11)
H62 H 0.3281 -0.0274 0.3614
H63 H 0.2998 -0.0264 0.2990
C29 C 0.22794(14) 0.05141(14) 0.33767(11)
C30 C 0.22408(14) 0.20954(14) 0.37504(11)
C31 C 0.19728(14) 0.29126(13) 0.36734(11)
C32 C 0.17965(14) 0.33057(14) 0.41171(11)
C33 C 0.18674(16) 0.29548(16) 0.47986(12)
H64 H 0.1641 0.2500 0.4939
H65 H 0.1601 0.3322 0.5008
H66 H 0.2406 0.2818 0.4885
C34 C 0.15766(14) 0.41039(14) 0.37976(11)
C35 C 0.13291(16) 0.47613(15) 0.40746(13)
H67 H 0.1569 0.5190 0.3825
H68 H 0.1522 0.4598 0.4483
C36 C 0.04594(19) 0.5043(2) 0.41259(17)
H69 H 0.0263 0.5214 0.3723
H70 H 0.0347 0.5465 0.4301
H71 H 0.0217 0.4628 0.4386
C37 C 0.16423(13) 0.41739(14) 0.31723(11)
C38 C 0.15309(14) 0.48730(14) 0.26238(12)
H72 H 0.1923 0.4786 0.2302
H73 H 0.1622 0.5308 0.2737
C39 C 0.07487(14) 0.50940(14) 0.23606(11)
C40 C 0.05169(14) 0.56719(14) 0.18290(11)
C41 C 0.10413(15) 0.61571(15) 0.13770(12)
H74 H 0.1457 0.6203 0.1593
H75 H 0.0747 0.6673 0.1201
C42 C 0.13867(18) 0.5806(2) 0.08631(14)
H76 H 0.1677 0.5294 0.1036
H77 H 0.1725 0.6121 0.0589
H78 H 0.0977 0.5779 0.0638
C43 C -0.02705(14) 0.56741(14) 0.17705(11)
C44 C -0.07474(16) 0.61972(17) 0.12513(12)
H79 H -0.0897 0.5894 0.1030
H80 H -0.0447 0.6554 0.0977
H81 H -0.1204 0.6480 0.1414
C45 C -0.05005(14) 0.50935(14) 0.22755(11)
C46 C -0.12505(14) 0.48672(14) 0.24152(11)
C47 C -0.21505(15) 0.35259(15) 0.27812(12)
C48 C -0.29611(15) 0.33558(16) 0.28541(12)
H82 H -0.3272 0.3589 0.3153
H83 H -0.2934 0.2801 0.3011
C49 C -0.33541(16) 0.36658(17) 0.22461(13)
H84 H -0.3023 0.3464 0.1938
H85 H -0.3416 0.4225 0.2106
C50 C -0.41481(17) 0.34440(19) 0.23039(15)
H86 H -0.4088 0.2891 0.2431
H87 H -0.4375 0.3654 0.1912
H88 H -0.4480 0.3648 0.2604
O9 O 0.33737(10) 0.70754(10) 0.29058(8)
O10 O 0.50036(10) 0.67173(10) 0.16856(8)
O11 O 0.05338(10) 1.05598(10) 0.03164(8)
O12 O 0.06130(11) 0.89094(12) 0.16290(9)
N13 N 0.46294(12) 0.71911(12) 0.27116(9)
H13 H 0.5090 0.7067 0.2840
N14 N 0.44891(12) 0.76872(12) 0.21203(9)
H14 H 0.4274 0.8165 0.2068
N15 N 0.42997(11) 0.87526(11) 0.09401(9)
H15 H 0.4171 0.8968 0.1230
N16 N 0.26302(11) 0.98963(11) 0.02387(9)
H16 H 0.2712 0.9399 0.0339
N17 N 0.12054(12) 0.93343(12) 0.04434(10)
H17 H 0.1640 0.9030 0.0404
N18 N 0.05182(12) 0.90509(12) 0.06202(10)
H18 H 0.0273 0.8972 0.0352
C51 C 0.50202(18) 0.70530(17) 0.41480(13)
H89 H 0.4979 0.7488 0.3783
H90 H 0.5507 0.6982 0.4321
H91 H 0.4602 0.7145 0.4443
C52 C 0.49776(15) 0.63280(15) 0.39832(12)
H92 H 0.5046 0.5888 0.4351
H93 H 0.5404 0.6239 0.3686
C53 C 0.42177(15) 0.63688(15) 0.37159(11)
H94 H 0.4201 0.5850 0.3713
H95 H 0.3797 0.6508 0.4001
C54 C 0.40404(14) 0.69079(14) 0.30797(11)
C55 C 0.46963(13) 0.74067(14) 0.16265(11)
C56 C 0.45707(13) 0.79692(14) 0.10241(11)
C57 C 0.47085(13) 0.78536(14) 0.04432(11)
C58 C 0.50539(16) 0.71055(15) 0.03055(12)
H96 H 0.5609 0.7016 0.0307
H97 H 0.4912 0.7132 -0.0093
H98 H 0.4861 0.6689 0.0614
C59 C 0.45147(14) 0.85879(14) 0.00026(11)
C60 C 0.45738(16) 0.87562(16) -0.06871(11)
H99 H 0.4976 0.8365 -0.0799
H100 H 0.4731 0.9252 -0.0874
C61 C 0.3823(2) 0.8775(2) -0.09504(14)
H101 H 0.3684 0.8274 -0.0793
H102 H 0.3893 0.8912 -0.1392
H103 H 0.3417 0.9151 -0.0832
C62 C 0.42690(13) 0.91310(14) 0.03224(11)
C63 C 0.40459(14) 0.99957(13) 0.00957(11)
H104 H 0.4281 1.0169 -0.0319
H105 H 0.4270 1.0209 0.0354
C64 C 0.31929(14) 1.03317(14) 0.00826(11)
C65 C 0.28350(14) 1.11095(14) -0.00556(11)
C66 C 0.32426(16) 1.17865(15) -0.02438(13)
H106 H 0.3794 1.1594 -0.0198
H107 H 0.3058 1.2099 0.0034
C67 C 0.31240(17) 1.23001(16) -0.09039(13)
H108 H 0.3290 1.1994 -0.1183
H109 H 0.3424 1.2700 -0.0999
H110 H 0.2584 1.2530 -0.0945
C68 C 0.20197(14) 1.11379(14) 0.00315(11)
C69 C 0.14163(16) 1.18647(15) -0.00445(13)
H111 H 0.1269 1.2059 -0.0463
H112 H 0.1625 1.2246 0.0053
H113 H 0.0969 1.1754 0.0228
C70 C 0.19022(14) 1.03788(14) 0.02107(11)
C71 C 0.11714(14) 1.01078(14) 0.03340(11)
C72 C 0.02389(15) 0.89002(15) 0.12140(12)
C73 C -0.05717(15) 0.87275(16) 0.13351(13)
H114 H -0.0586 0.8279 0.1693
H115 H -0.0709 0.8607 0.0984
C74 C -0.11557(17) 0.9409(2) 0.14449(17)
H116 H -0.1136 0.9855 0.1085
H117 H -0.1010 0.9530 0.1792
C75 C -0.19870(18) 0.9269(2) 0.15730(17)
H118 H -0.2141 0.9162 0.1227
H119 H -0.2328 0.9721 0.1639
H120 H -0.2015 0.8836 0.1934
O13 O 0.62459(10) 0.70577(11) 0.27874(9)
O14 O 0.65440(10) 0.49691(10) 0.33768(8)
O15 O 0.25185(10) 0.81543(10) 0.07871(8)
O16 O 0.32447(10) 0.90159(10) 0.20765(8)
N19 N 0.68285(12) 0.61085(12) 0.23573(10)
H19 H 0.7238 0.5916 0.2169
N20 N 0.61611(12) 0.57946(12) 0.24506(10)
H20 H 0.5832 0.5945 0.2171
N21 N 0.47391(11) 0.52273(11) 0.26618(9)
H21 H 0.4764 0.5568 0.2308
N22 N 0.30431(11) 0.63729(11) 0.20082(9)
H22 H 0.2920 0.6500 0.2344
N23 N 0.25900(12) 0.79582(11) 0.18131(10)
H23 H 0.2756 0.7650 0.2158
N24 N 0.22171(12) 0.87167(11) 0.17702(10)
H24 H 0.1756 0.8879 0.1642
C76 C 0.88174(18) 0.6809(2) 0.30408(17)
H121 H 0.9140 0.6622 0.2728
H122 H 0.9053 0.6577 0.3428
H123 H 0.8761 0.7361 0.2931
C77 C 0.80226(16) 0.65981(19) 0.30972(14)
H124 H 0.7701 0.6785 0.3416
H125 H 0.8081 0.6039 0.3222
C78 C 0.76176(15) 0.69388(16) 0.24962(12)
H126 H 0.7552 0.7498 0.2373
H127 H 0.7939 0.6756 0.2175
C79 C 0.68333(15) 0.67147(15) 0.25633(12)
C80 C 0.60362(14) 0.52447(14) 0.29925(11)
C81 C 0.53067(14) 0.49769(13) 0.30888(11)
C82 C 0.50440(14) 0.44284(14) 0.35984(11)
C83 C 0.54379(15) 0.40130(15) 0.41888(12)
H128 H 0.5876 0.3634 0.4116
H129 H 0.5078 0.3761 0.4494
H130 H 0.5610 0.4379 0.4333
C84 C 0.43055(14) 0.43446(14) 0.34729(11)
C85 C 0.38108(15) 0.37927(14) 0.38842(12)
H131 H 0.3280 0.3970 0.3763
H132 H 0.3812 0.3799 0.4306
C86 C 0.40909(18) 0.29614(16) 0.38570(14)
H133 H 0.4113 0.2953 0.3438
H134 H 0.3737 0.2644 0.4105
H135 H 0.4599 0.2765 0.4012
C87 C 0.41384(14) 0.48483(13) 0.28937(11)
C88 C 0.34280(14) 0.49674(14) 0.25506(12)
H136 H 0.3439 0.4500 0.2442
H137 H 0.2973 0.5034 0.2829
C89 C 0.33325(14) 0.56395(14) 0.19745(11)
C90 C 0.34604(14) 0.56684(14) 0.13585(11)
C91 C 0.37832(17) 0.49943(15) 0.11114(13)
H138 H 0.3489 0.5039 0.0769
H139 H 0.3716 0.4521 0.1431
C92 C 0.46427(18) 0.49377(18) 0.08943(15)
H140 H 0.4708 0.5381 0.0550
H141 H 0.4824 0.4476 0.0772
H142 H 0.4936 0.4921 0.1225
C93 C 0.32281(14) 0.64537(14) 0.10035(11)
C94 C 0.32306(17) 0.67552(16) 0.03172(12)
H143 H 0.2716 0.6821 0.0192
H144 H 0.3581 0.6394 0.0139
H145 H 0.3396 0.7244 0.0180
C95 C 0.29790(14) 0.68793(13) 0.14199(11)
C96 C 0.26894(13) 0.77093(14) 0.13052(11)
C97 C 0.25665(14) 0.91981(14) 0.19254(11)
C98 C 0.20598(14) 0.99697(14) 0.19109(12)
H146 H 0.1878 0.9971 0.2329
H147 H 0.1609 1.0045 0.1683
C99 C 0.24884(16) 1.06375(14) 0.16134(12)
H148 H 0.2705 1.0613 0.1207
H149 H 0.2915 1.0585 0.1860
C100 C 0.19555(19) 1.14225(16) 0.15549(15)
H150 H 0.1507 1.1457 0.1345
H151 H 0.2230 1.1827 0.1324
H152 H 0.1795 1.1477 0.1958
O17 O 0.17708(11) 0.65002(11) 0.30050(8)
C101 C 0.10805(17) 0.69730(17) 0.27083(14)
H153 H 0.0702 0.6656 0.2731
H154 H 0.1208 0.7226 0.2278
C102 C 0.07530(19) 0.75738(19) 0.30483(15)
H155 H 0.0600 0.8083 0.2761
H156 H 0.0309 0.7436 0.3325
C103 C 0.14310(19) 0.75476(17) 0.34045(14)
H157 H 0.1783 0.7874 0.3152
H158 H 0.1254 0.7703 0.3774
C104 C 0.18047(17) 0.67042(17) 0.35578(12)
H159 H 0.2338 0.6625 0.3659
H160 H 0.1521 0.6397 0.3903
O18 O 0.96732(12) 0.10608(13) 0.30428(10)
C105 C 1.0156(2) 0.0952(3) 0.2511(2)
H161 H 1.0630 0.0584 0.2640
H162 H 1.0296 0.1439 0.2262
C106 C 0.9745(2) 0.0668(3) 0.21499(17)
H163 H 1.0012 0.0158 0.2131
H164 H 0.9705 0.1015 0.1733
C107 C 0.89490(18) 0.0633(2) 0.24755(14)
H165 H 0.8904 0.0103 0.2700
H166 H 0.8547 0.0851 0.2184
C108 C 0.88912(17) 0.11109(18) 0.29125(15)
H167 H 0.8651 0.1644 0.2722
H168 H 0.8586 0.0905 0.3288
O19 O 0.91376(18) 0.2400(2) 0.09126(18)
C109 C 0.8426(2) 0.2856(2) 0.10319(18)
H169 H 0.8303 0.3311 0.0682
H170 H 0.8445 0.3022 0.1391
C110 C 0.78320(19) 0.23563(19) 0.11456(15)
H171 H 0.7342 0.2655 0.0983
H172 H 0.7747 0.2102 0.1582
C111 C 0.8959(2) 0.1992(3) 0.0536(2)
H173 H 0.9360 0.1539 0.0544
H174 H 0.8919 0.2320 0.0113
C112 C 0.8204(2) 0.1762(2) 0.07935(19)
H175 H 0.8280 0.1239 0.1070
H176 H 0.7885 0.1797 0.0468
O20 O 0.51000(10) 0.04356(11) 0.83637(8)
C117 C 0.53466(16) 0.01564(17) 0.78354(13)
H185 H 0.5214 -0.0346 0.7906
H186 H 0.5903 0.0113 0.7746
C118 C 0.49140(19) 0.07524(17) 0.73144(13)
H187 H 0.4877 0.0539 0.6985
H188 H 0.5158 0.1201 0.7149
C119 C 0.41212(19) 0.09512(19) 0.76370(14)
H189 H 0.3857 0.1470 0.7430
H190 H 0.3796 0.0586 0.7654
C120 C 0.43224(15) 0.08916(16) 0.82752(13)
H191 H 0.4303 0.1403 0.8311
H192 H 0.3956 0.0644 0.8584
O21 O 0.29750(11) 0.33628(11) 0.20179(9)
C121 C 0.36789(18) 0.28330(18) 0.22317(14)
H193 H 0.3601 0.2525 0.2656
H194 H 0.4095 0.3109 0.2202
C122 C 0.3860(3) 0.2330(2) 0.18047(18)
H195 H 0.4415 0.2148 0.1755
H196 H 0.3607 0.1887 0.1962
C123 C 0.3554(2) 0.2840(3) 0.12203(18)
H197 H 0.3428 0.2545 0.0976
H198 H 0.3925 0.3153 0.0982
C124 C 0.28490(18) 0.3326(2) 0.14168(13)
H199 H 0.2765 0.3841 0.1126
H200 H 0.2398 0.3099 0.1440
O22 O 0.20273(13) 0.45855(13) 0.55061(10)
C125 C 0.28473(18) 0.43814(18) 0.54152(14)
H201 H 0.2987 0.3949 0.5245
H202 H 0.3090 0.4239 0.5802
C126 C 0.31017(19) 0.50929(17) 0.49687(14)
H203 H 0.3024 0.5137 0.4546
H204 H 0.3642 0.5093 0.5004
C127 C 0.2562(2) 0.57303(18) 0.51855(15)
H205 H 0.2776 0.5830 0.5516
H206 H 0.2464 0.6206 0.4849
C128 C 0.1828(2) 0.5403(2) 0.54124(16)
H207 H 0.1616 0.5510 0.5796
H208 H 0.1440 0.5638 0.5110
O23 O 0.3516(3) 0.0683(2) 0.58505(19)
C129 C 0.3782(4) 0.1394(3) 0.5679(2)
H209 H 0.3718 0.1657 0.5244
H210 H 0.4329 0.1298 0.5749
C130 C 0.3313(3) 0.1895(3) 0.60633(18)
H211 H 0.3122 0.2416 0.5808
H212 H 0.3617 0.1919 0.6378
C131 C 0.2644(4) 0.1463(4) 0.6350(2)
H213 H 0.2147 0.1816 0.6306
H214 H 0.2708 0.1192 0.6783
C132 C 0.2713(4) 0.0888(3) 0.5971(3)
H215 H 0.2495 0.0439 0.6206
H216 H 0.2451 0.1133 0.5591
O24 O 0.7362(2) 0.4875(3) 0.0144(2)
C113 C 0.7908(3) 0.5307(3) 0.0186(3)
H177 H 0.8123 0.5558 -0.0221
H178 H 0.8330 0.4975 0.0432
C114 C 0.7454(4) 0.5910(4) 0.0496(3)
H179 H 0.7790 0.6060 0.0721
H180 H 0.7199 0.6368 0.0196
C115 C 0.6880(3) 0.5488(3) 0.0919(2)
H181 H 0.6414 0.5842 0.1000
H182 H 0.7098 0.5175 0.1307
C116 C 0.6708(4) 0.4983(4) 0.0556(3)
H183 H 0.6621 0.4488 0.0834
H184 H 0.6248 0.5236 0.0329
C133? C 0.7717(6) 0.5932(6) 0.0340(9)
C134? C 0.7913(5) 0.5054(5) 0.0618(6)
C135? C 0.7220(6) 0.4776(5) 0.0536(6)
C136? C 0.6579(5) 0.5495(5) 0.0473(5)
C137? C 0.0958(5) 0.1206(6) 0.6259(4)
H217? H 0.7787 0.6185 0.0636
H218? H 0.8056 0.6096 -0.0024
H219? H 0.8371 0.4834 0.0404
H220? H 0.8005 0.4916 0.1052
H221? H 0.7106 0.4354 0.0891
H222? H 0.7290 0.4607 0.0169
H223? H 0.6180 0.5490 0.0222
H224? H 0.6342 0.5519 0.0875
H225? H 0.0847 0.1017 0.6697
H226? H 0.0954 0.1751 0.6144
H227? H 0.1460 0.0941 0.6149
O25? O 0.6948(3) 0.6132(3) 0.0187(3)
loop_
_geom_bond_atom_site_label_1
_geom_bond_atom_site_label_2
_geom_bond_site_symmetry_1
_geom_bond_site_symmetry_2
O1 C4 1_555 1_555
O2 C5 1_555 1_555
O3 C21 1_555 1_555
O4 C22 1_555 1_555
O5 C29 1_555 1_555
O6 C30 1_555 1_555
O7 C46 1_555 1_555
O8 C47 1_555 1_555
O9 C54 1_555 1_555
O10 C55 1_555 1_555
O11 C71 1_555 1_555
O12 C72 1_555 1_555
O13 C79 1_555 1_555
O14 C80 1_555 1_555
O15 C96 1_555 1_555
O16 C97 1_555 1_555
N1 H1 1_555 1_555
N2 N1 1_555 1_555
H2 N2 1_555 1_555
N3 H3 1_555 1_555
N4 H4 1_555 1_555
N5 H5 1_555 1_555
N6 N5 1_555 1_555
H6 N6 1_555 1_555
N7 H7 1_555 1_555
N8 N7 1_555 1_555
H8 N8 1_555 1_555
N9 H9 1_555 1_555
N10 H10 1_555 1_555
N11 H11 1_555 1_555
N12 N11 1_555 1_555
H12 N12 1_555 1_555
N13 H13 1_555 1_555
N14 N13 1_555 1_555
H14 N14 1_555 1_555
N15 H15 1_555 1_555
N16 H16 1_555 1_555
N17 H17 1_555 1_555
N18 N17 1_555 1_555
H18 N18 1_555 1_555
N19 H19 1_555 1_555
N20 N19 1_555 1_555
H20 N20 1_555 1_555
N21 H21 1_555 1_555
N22 H22 1_555 1_555
N23 H23 1_555 1_555
N24 N23 1_555 1_555
H24 N24 1_555 1_555
C1 H25 1_555 1_555
H26 C1 1_555 1_555
H27 C1 1_555 1_555
C2 C1 1_555 1_555
H28 C2 1_555 1_555
H29 C2 1_555 1_555
C3 C2 1_555 1_555
H30 C3 1_555 1_555
H31 C3 1_555 1_555
C4 N1 1_555 1_555
C5 N2 1_555 1_555
C6 N3 1_555 1_555
C7 C6 1_555 1_555
C8 C7 1_555 1_555
H32 C8 1_555 1_555
H33 C8 1_555 1_555
H34 C8 1_555 1_555
C9 C7 1_555 1_555
C10 C9 1_555 1_555
H35 C10 1_555 1_555
H36 C10 1_555 1_555
C11 C10 1_555 1_555
H37 C11 1_555 1_555
H38 C11 1_555 1_555
H39 C11 1_555 1_555
C12 N3 1_555 1_555
C13 C12 1_555 1_555
H40 C13 1_555 1_555
H41 C13 1_555 1_555
C14 N4 1_555 1_555
C15 C14 1_555 1_555
C16 C15 1_555 1_555
H42 C16 1_555 1_555
H43 C16 1_555 1_555
C17 C16 1_555 1_555
H44 C17 1_555 1_555
H45 C17 1_555 1_555
H46 C17 1_555 1_555
C18 C15 1_555 1_555
C19 C18 1_555 1_555
H47 C19 1_555 1_555
H48 C19 1_555 1_555
H49 C19 1_555 1_555
C20 N4 1_555 1_555
C21 N5 1_555 1_555
C22 N6 1_555 1_555
C23 C22 1_555 1_555
H50 C23 1_555 1_555
H51 C23 1_555 1_555
C24 C23 1_555 1_555
H52 C24 1_555 1_555
H53 C24 1_555 1_555
C25 C24 1_555 1_555
H54 C25 1_555 1_555
H55 C25 1_555 1_555
H56 C25 1_555 1_555
C26 H57 1_555 1_555
H58 C26 1_555 1_555
H59 C26 1_555 1_555
C27 C26 1_555 1_555
H60 C27 1_555 1_555
H61 C27 1_555 1_555
C28 C27 1_555 1_555
H62 C28 1_555 1_555
H63 C28 1_555 1_555
C29 N7 1_555 1_555
C30 N8 1_555 1_555
C31 N9 1_555 1_555
C32 C31 1_555 1_555
C33 C32 1_555 1_555
H64 C33 1_555 1_555
H65 C33 1_555 1_555
H66 C33 1_555 1_555
C34 C32 1_555 1_555
C35 C34 1_555 1_555
H67 C35 1_555 1_555
H68 C35 1_555 1_555
C36 C35 1_555 1_555
H69 C36 1_555 1_555
H70 C36 1_555 1_555
H71 C36 1_555 1_555
C37 N9 1_555 1_555
C38 C37 1_555 1_555
H72 C38 1_555 1_555
H73 C38 1_555 1_555
C39 N10 1_555 1_555
C40 C39 1_555 1_555
C41 C40 1_555 1_555
H74 C41 1_555 1_555
H75 C41 1_555 1_555
C42 C41 1_555 1_555
H76 C42 1_555 1_555
H77 C42 1_555 1_555
H78 C42 1_555 1_555
C43 C40 1_555 1_555
C44 C43 1_555 1_555
H79 C44 1_555 1_555
H80 C44 1_555 1_555
H81 C44 1_555 1_555
C45 N10 1_555 1_555
C46 N11 1_555 1_555
C47 N12 1_555 1_555
C48 C47 1_555 1_555
H82 C48 1_555 1_555
H83 C48 1_555 1_555
C49 C48 1_555 1_555
H84 C49 1_555 1_555
H85 C49 1_555 1_555
C50 C49 1_555 1_555
H86 C50 1_555 1_555
H87 C50 1_555 1_555
H88 C50 1_555 1_555
C51 H89 1_555 1_555
H90 C51 1_555 1_555
H91 C51 1_555 1_555
C52 C51 1_555 1_555
H92 C52 1_555 1_555
H93 C52 1_555 1_555
C53 C52 1_555 1_555
H94 C53 1_555 1_555
H95 C53 1_555 1_555
C54 N13 1_555 1_555
C55 N14 1_555 1_555
C56 N15 1_555 1_555
C57 C56 1_555 1_555
C58 C57 1_555 1_555
H96 C58 1_555 1_555
H97 C58 1_555 1_555
H98 C58 1_555 1_555
C59 C57 1_555 1_555
C60 C59 1_555 1_555
H99 C60 1_555 1_555
H100 C60 1_555 1_555
C61 C60 1_555 1_555
H101 C61 1_555 1_555
H102 C61 1_555 1_555
H103 C61 1_555 1_555
C62 N15 1_555 1_555
C63 C62 1_555 1_555
H104 C63 1_555 1_555
H105 C63 1_555 1_555
C64 N16 1_555 1_555
C65 C64 1_555 1_555
C66 C65 1_555 1_555
H106 C66 1_555 1_555
H107 C66 1_555 1_555
C67 C66 1_555 1_555
H108 C67 1_555 1_555
H109 C67 1_555 1_555
H110 C67 1_555 1_555
C68 C65 1_555 1_555
C69 C68 1_555 1_555
H111 C69 1_555 1_555
H112 C69 1_555 1_555
H113 C69 1_555 1_555
C70 N16 1_555 1_555
C71 N17 1_555 1_555
C72 N18 1_555 1_555
C73 C72 1_555 1_555
H114 C73 1_555 1_555
H115 C73 1_555 1_555
C74 C73 1_555 1_555
H116 C74 1_555 1_555
H117 C74 1_555 1_555
C75 C74 1_555 1_555
H118 C75 1_555 1_555
H119 C75 1_555 1_555
H120 C75 1_555 1_555
C76 H121 1_555 1_555
H122 C76 1_555 1_555
H123 C76 1_555 1_555
C77 C76 1_555 1_555
H124 C77 1_555 1_555
H125 C77 1_555 1_555
C78 C77 1_555 1_555
H126 C78 1_555 1_555
H127 C78 1_555 1_555
C79 N19 1_555 1_555
C80 N20 1_555 1_555
C81 N21 1_555 1_555
C82 C81 1_555 1_555
C83 C82 1_555 1_555
H128 C83 1_555 1_555
H129 C83 1_555 1_555
H130 C83 1_555 1_555
C84 C82 1_555 1_555
C85 C84 1_555 1_555
H131 C85 1_555 1_555
H132 C85 1_555 1_555
C86 C85 1_555 1_555
H133 C86 1_555 1_555
H134 C86 1_555 1_555
H135 C86 1_555 1_555
C87 N21 1_555 1_555
C88 C87 1_555 1_555
H136 C88 1_555 1_555
H137 C88 1_555 1_555
C89 N22 1_555 1_555
C90 C89 1_555 1_555
C91 C90 1_555 1_555
H138 C91 1_555 1_555
H139 C91 1_555 1_555
C92 C91 1_555 1_555
H140 C92 1_555 1_555
H141 C92 1_555 1_555
H142 C92 1_555 1_555
C93 C90 1_555 1_555
C94 C93 1_555 1_555
H143 C94 1_555 1_555
H144 C94 1_555 1_555
H145 C94 1_555 1_555
C95 N22 1_555 1_555
C96 N23 1_555 1_555
C97 N24 1_555 1_555
C98 C97 1_555 1_555
H146 C98 1_555 1_555
H147 C98 1_555 1_555
C99 C98 1_555 1_555
H148 C99 1_555 1_555
H149 C99 1_555 1_555
C100 C99 1_555 1_555
H150 C100 1_555 1_555
H151 C100 1_555 1_555
H152 C100 1_555 1_555
O17 C101 1_555 1_555
O18 C105 1_555 1_555
O19 C109 1_555 1_555
O20 C117 1_555 1_555
O21 C121 1_555 1_555
O22 C125 1_555 1_555
O23 C129 1_555 1_555
C101 H153 1_555 1_555
H154 C101 1_555 1_555
C102 C101 1_555 1_555
H155 C102 1_555 1_555
H156 C102 1_555 1_555
C103 C102 1_555 1_555
H157 C103 1_555 1_555
H158 C103 1_555 1_555
C104 O17 1_555 1_555
H159 C104 1_555 1_555
H160 C104 1_555 1_555
C105 H161 1_555 1_555
H162 C105 1_555 1_555
C106 C105 1_555 1_555
H163 C106 1_555 1_555
H164 C106 1_555 1_555
C107 C106 1_555 1_555
H165 C107 1_555 1_555
H166 C107 1_555 1_555
C108 O18 1_555 1_555
H167 C108 1_555 1_555
H168 C108 1_555 1_555
C109 H169 1_555 1_555
H170 C109 1_555 1_555
C110 C109 1_555 1_555
H171 C110 1_555 1_555
H172 C110 1_555 1_555
C111 O19 1_555 1_555
H173 C111 1_555 1_555
H174 C111 1_555 1_555
C112 C110 1_555 1_555
H175 C112 1_555 1_555
H176 C112 1_555 1_555
O24 C113 1_555 1_555
C113 H177 1_555 1_555
H178 C113 1_555 1_555
C114 C113 1_555 1_555
H179 C114 1_555 1_555
H180 C114 1_555 1_555
C115 C114 1_555 1_555
H181 C115 1_555 1_555
H182 C115 1_555 1_555
C116 O24 1_555 1_555
H183 C116 1_555 1_555
H184 C116 1_555 1_555
C117 H185 1_555 1_555
H186 C117 1_555 1_555
C118 C117 1_555 1_555
H187 C118 1_555 1_555
H188 C118 1_555 1_555
C119 C118 1_555 1_555
H189 C119 1_555 1_555
H190 C119 1_555 1_555
C120 O20 1_555 1_555
H191 C120 1_555 1_555
H192 C120 1_555 1_555
C121 H193 1_555 1_555
H194 C121 1_555 1_555
C122 C121 1_555 1_555
H195 C122 1_555 1_555
H196 C122 1_555 1_555
C123 C122 1_555 1_555
H197 C123 1_555 1_555
H198 C123 1_555 1_555
C124 O21 1_555 1_555
H199 C124 1_555 1_555
H200 C124 1_555 1_555
C125 H201 1_555 1_555
H202 C125 1_555 1_555
C126 C125 1_555 1_555
H203 C126 1_555 1_555
H204 C126 1_555 1_555
C127 C126 1_555 1_555
H205 C127 1_555 1_555
H206 C127 1_555 1_555
C128 O22 1_555 1_555
H207 C128 1_555 1_555
H208 C128 1_555 1_555
C129 H209 1_555 1_555
H210 C129 1_555 1_555
C130 C129 1_555 1_555
H211 C130 1_555 1_555
H212 C130 1_555 1_555
C131 C130 1_555 1_555
H213 C131 1_555 1_555
H214 C131 1_555 1_555
C132 O23 1_555 1_555
H215 C132 1_555 1_555
H216 C132 1_555 1_555
C3 C4 1_555 1_555
C5 C6 1_555 1_555
C9 C12 1_555 1_555
C13 C14 1_555 1_555
C18 C20 1_555 1_555
C20 C21 1_555 1_555
C28 C29 1_555 1_555
C30 C31 1_555 1_555
C34 C37 1_555 1_555
C38 C39 1_555 1_555
C43 C45 1_555 1_555
C45 C46 1_555 1_555
C53 C54 1_555 1_555
C55 C56 1_555 1_555
C59 C62 1_555 1_555
C63 C64 1_555 1_555
C68 C70 1_555 1_555
C70 C71 1_555 1_555
C78 C79 1_555 1_555
C80 C81 1_555 1_555
C84 C87 1_555 1_555
C88 C89 1_555 1_555
C93 C95 1_555 1_555
C95 C96 1_555 1_555
C103 C104 1_555 1_555
C107 C108 1_555 1_555
C111 C112 1_555 1_555
C115 C116 1_555 1_555
C119 C120 1_555 1_555
C123 C124 1_555 1_555
C127 C128 1_555 1_555
C131 C132 1_555 1_555

#END
