
#######################################################################
#
#                 Cambridge Crystallographic Data Centre
#                                CCDC 
#
#######################################################################
#
# If this CIF has been generated from an entry in the Cambridge 
# Structural Database, then it will include bibliographic, chemical, 
# crystal, experimental, refinement or atomic coordinate data resulting 
# from the CCDC's data processing and validation procedures.
#
#######################################################################

data_EBIMUY
_chemical_formula_moiety         'C24 H28 N4 O5,0.25(C4 H10 O1)'
_chemical_name_systematic        
"Diethyl N-(1-benzyl-1-(2-imidazolin-2-yl)-2-phenyl-2-oxoethyl)hydrazine-N,N'-dicarboxylate diethyl ether solvate"
_symmetry_cell_setting           triclinic
_symmetry_space_group_name_H-M   'P -1'
_symmetry_Int_Tables_number      2
_space_group_name_Hall           '-P 1'
loop_
_symmetry_equiv_pos_site_id
_symmetry_equiv_pos_as_xyz
1 x,y,z
2 -x,-y,-z
_cell_length_a                   10.7535(2)
_cell_length_b                   14.7346(2)
_cell_length_c                   17.4971(4)
_cell_angle_alpha                112.7880(7)
_cell_angle_beta                 91.0234(7)
_cell_angle_gamma                97.0277(12)
_cell_volume                     2530.33
_exptl_crystal_colour            colorless
_exptl_crystal_description       plate
_cell_formula_units_Z            4
loop_
_atom_site_label
_atom_site_type_symbol
_atom_site_fract_x
_atom_site_fract_y
_atom_site_fract_z
O1 O -0.52454(14) 0.98628(11) 0.39503(11)
O2 O -0.78291(14) 0.89507(12) 0.27531(11)
O3 O -0.86258(14) 0.74811(12) 0.17315(10)
O4 O -0.56928(14) 0.64087(11) 0.10500(9)
O5 O -0.68829(13) 0.50916(10) 0.11486(8)
N1 N -0.67936(14) 0.76079(11) 0.24211(10)
N2 N -0.69844(14) 0.65763(11) 0.21058(9)
H1 H -0.7432 0.6268 0.2357
N3 N -0.65613(15) 0.72328(13) 0.40213(10)
N4 N -0.6953(2) 0.87997(14) 0.44963(12)
H2 H -0.7017 0.9365 0.4474
C1 C -0.5019(3) 1.0531(2) 0.2719(2)
H5 H -0.5095 1.0973 0.3260
C2 C -0.4741(4) 1.0886(3) 0.2105(3)
H6 H -0.4643 1.1566 0.2232
C3 C -0.4608(5) 1.0226(3) 0.1302(3)
H7 H -0.4397 1.0464 0.0894
C4 C -0.4787(4) 0.9224(3) 0.1111(2)
H8 H -0.4716 0.8782 0.0569
C5 C -0.5073(3) 0.8867(2) 0.17212(18)
H9 H -0.5190 0.8186 0.1586
C6 C -0.5186(2) 0.95111(18) 0.25244(16)
C7 C -0.54617(18) 0.92303(16) 0.32481(16)
C8 C -0.58786(16) 0.81413(14) 0.31536(12)
C9 C -0.46667(16) 0.76255(15) 0.29987(13)
H10 H -0.4871 0.6966 0.3000
H11 H -0.4410 0.7545 0.2450
C10 C -0.35703(17) 0.81746(14) 0.36243(13)
C11 C -0.24893(19) 0.85655(17) 0.33779(15)
H12 H -0.2459 0.8516 0.2832
C12 C -0.1452(2) 0.90302(18) 0.39350(18)
H13 H -0.0731 0.9285 0.3758
C13 C -0.1478(2) 0.91182(17) 0.47380(18)
H14 H -0.0778 0.9429 0.5109
C14 C -0.2536(2) 0.87484(18) 0.49928(16)
H15 H -0.2562 0.8813 0.5542
C15 C -0.35742(19) 0.82767(17) 0.44429(15)
H16 H -0.4288 0.8023 0.4627
C16 C -0.64564(16) 0.80558(15) 0.39220(12)
C17 C -0.7136(2) 0.74182(17) 0.48170(13)
H17 H -0.6578 0.7304 0.5202
H18 H -0.7923 0.6980 0.4731
C18 C -0.7364(2) 0.85014(17) 0.51579(14)
H19 H -0.8245 0.8559 0.5242
H20 H -0.6867 0.8890 0.5676
C19 C -0.77765(18) 0.80898(17) 0.23349(14)
C20 C -0.9737(3) 0.7914(3) 0.1616(2)
H21 H -0.9987 0.8334 0.2155
H22 H -0.9531 0.8324 0.1304
C21 C -1.0731(4) 0.7175(4) 0.1195(3)
H23 H -1.0534 0.6823 0.0632
H24 H -1.1477 0.7473 0.1195
H25 H -1.0869 0.6720 0.1466
C23 C -0.64548(17) 0.60612(15) 0.13956(12)
C24 C -0.6309(2) 0.44270(17) 0.04474(15)
H29 H -0.5402 0.4594 0.0525
H30 H -0.6588 0.4487 -0.0059
C25 C -0.6680(3) 0.3400(2) 0.03854(19)
H31 H -0.6429 0.3354 0.0897
H32 H -0.6277 0.2949 -0.0062
H33 H -0.7575 0.3229 0.0281
O6 O -0.11907(12) 0.38716(10) 0.32551(10)
O7 O 0.12157(11) 0.44852(11) 0.45716(8)
O8 O 0.32904(11) 0.50203(11) 0.46131(8)
O9 O 0.39915(13) 0.36019(12) 0.26466(11)
O10 O 0.49703(11) 0.50628(11) 0.26779(9)
N5 N 0.20852(13) 0.45980(12) 0.34352(9)
N6 N 0.31083(13) 0.50348(12) 0.31586(10)
H3 H 0.3158 0.5641 0.3204
N7 N -0.01278(17) 0.58587(13) 0.39666(11)
H4 H -0.0265 0.5588 0.4319
N8 N 0.06722(14) 0.60112(12) 0.28457(10)
C26 C 0.1344(2) 0.23702(16) 0.29873(14)
H34 H 0.2033 0.2794 0.2950
C27 C 0.1486(2) 0.14283(18) 0.29271(16)
H35 H 0.2275 0.1223 0.2850
C28 C 0.0491(3) 0.07944(19) 0.29780(17)
H36 H 0.0602 0.0164 0.2943
C29 C -0.0677(3) 0.10893(19) 0.30810(19)
H37 H -0.1362 0.0652 0.3105
C30 C -0.0844(2) 0.20296(17) 0.31484(16)
H38 H -0.1638 0.2225 0.3225
C31 C 0.01668(18) 0.26868(15) 0.31035(12)
C32 C -0.01225(17) 0.36817(14) 0.31668(12)
C33 C 0.08399(15) 0.44305(13) 0.29821(11)
C34 C 0.10212(17) 0.39669(15) 0.20330(12)
H39 H 0.1627 0.4424 0.1906
H40 H 0.1386 0.3360 0.1914
C35 C -0.01464(19) 0.37228(17) 0.14495(12)
C36 C -0.0999(3) 0.2880(2) 0.12714(17)
H41 H -0.0877 0.2448 0.1528
C37 C -0.2034(3) 0.2662(3) 0.0719(2)
H42 H -0.2611 0.2099 0.0623
C38 C -0.2214(3) 0.3263(3) 0.03162(19)
H43 H -0.2909 0.3111 -0.0058
C39 C -0.1375(3) 0.4087(2) 0.04625(16)
H44 H -0.1485 0.4493 0.0179
C40 C -0.0355(2) 0.43262(19) 0.10335(14)
H45 H 0.0201 0.4904 0.1139
C41 C 0.04080(15) 0.54465(14) 0.32423(11)
C42 C -0.04347(19) 0.68150(15) 0.40610(14)
H46 H -0.0084 0.7328 0.4588
H47 H -0.1336 0.6811 0.4015
C43 C 0.01924(19) 0.69554(15) 0.33280(14)
H48 H -0.0411 0.7097 0.2985
H49 H 0.0877 0.7503 0.3526
C44 C 0.21271(17) 0.46978(14) 0.42500(12)
C45 C 0.3473(2) 0.49442(19) 0.54098(13)
H50 H 0.2748 0.5128 0.5728
H51 H 0.4205 0.5401 0.5721
C46 C 0.3648(2) 0.3912(2) 0.52883(18)
H52 H 0.2886 0.3471 0.5038
H53 H 0.3852 0.3890 0.5816
H54 H 0.4319 0.3710 0.4932
C47 C 0.40246(17) 0.44740(17) 0.28150(13)
C48 C 0.60635(19) 0.46000(19) 0.23256(16)
H55 H 0.5829 0.4069 0.1785
H56 H 0.6423 0.4325 0.2687
C49 C 0.6982(2) 0.5394(2) 0.22485(19)
H57 H 0.6617 0.5654 0.1886
H58 H 0.7725 0.5123 0.2023
H59 H 0.7196 0.5918 0.2787
O11 O 0.0000 0.0000 0.0000
C50 C 0.1067(19) 0.0414(14) 0.0264(14)
H60 H 0.1352 -0.0204 0.0216
H61 H 0.1256 0.0454 -0.0263
C51 C 0.1937(13) 0.0830(10) 0.0550(9)
H62 H 0.1798 0.1428 0.1003
H63 H 0.2410 0.0998 0.0152
H64 H 0.2396 0.0444 0.0757
C50A C -0.1067(19) -0.0414(14) -0.0264(14)
H60A H -0.1352 0.0204 -0.0216
H61A H -0.1256 -0.0454 0.0263
C51A C -0.1937(13) -0.0830(10) -0.0550(9)
H62A H -0.1798 -0.1428 -0.1003
H63A H -0.2410 -0.0998 -0.0152
H64A H -0.2396 -0.0444 -0.0757
C22? C -0.9486(18) 0.8258(18) 0.1118(9)
H26? H -0.9045 0.7815 0.0690
H27? H -0.8964 0.8888 0.1384
H28? H -1.0245 0.8350 0.0877
loop_
_geom_bond_atom_site_label_1
_geom_bond_atom_site_label_2
_geom_bond_site_symmetry_1
_geom_bond_site_symmetry_2
O1 C7 1_555 1_555
O2 C19 1_555 1_555
O3 C19 1_555 1_555
O4 C23 1_555 1_555
O5 C23 1_555 1_555
O6 C32 1_555 1_555
O7 C44 1_555 1_555
O8 C44 1_555 1_555
O9 C47 1_555 1_555
O10 C47 1_555 1_555
N1 N2 1_555 1_555
N2 H1 1_555 1_555
N3 C16 1_555 1_555
N4 H2 1_555 1_555
N5 N6 1_555 1_555
N6 H3 1_555 1_555
N7 H4 1_555 1_555
N8 C41 1_555 1_555
C1 H5 1_555 1_555
C2 C1 1_555 1_555
H6 C2 1_555 1_555
C3 C2 1_555 1_555
H7 C3 1_555 1_555
C4 C3 1_555 1_555
H8 C4 1_555 1_555
C5 C4 1_555 1_555
H9 C5 1_555 1_555
C6 C1 1_555 1_555
C7 C6 1_555 1_555
C8 N1 1_555 1_555
C9 C8 1_555 1_555
H10 C9 1_555 1_555
H11 C9 1_555 1_555
C10 C9 1_555 1_555
C11 C10 1_555 1_555
H12 C11 1_555 1_555
C12 C11 1_555 1_555
H13 C12 1_555 1_555
C13 C12 1_555 1_555
H14 C13 1_555 1_555
C14 C13 1_555 1_555
H15 C14 1_555 1_555
C15 C10 1_555 1_555
H16 C15 1_555 1_555
C16 N4 1_555 1_555
C17 N3 1_555 1_555
H17 C17 1_555 1_555
H18 C17 1_555 1_555
C18 N4 1_555 1_555
H19 C18 1_555 1_555
H20 C18 1_555 1_555
C19 N1 1_555 1_555
C20 O3 1_555 1_555
H21 C20 1_555 1_555
H22 C20 1_555 1_555
C21 C20 1_555 1_555
H23 C21 1_555 1_555
H24 C21 1_555 1_555
H25 C21 1_555 1_555
C23 N2 1_555 1_555
C24 O5 1_555 1_555
H29 C24 1_555 1_555
H30 C24 1_555 1_555
C25 C24 1_555 1_555
H31 C25 1_555 1_555
H32 C25 1_555 1_555
H33 C25 1_555 1_555
C26 H34 1_555 1_555
C27 C26 1_555 1_555
H35 C27 1_555 1_555
C28 C27 1_555 1_555
H36 C28 1_555 1_555
C29 C28 1_555 1_555
H37 C29 1_555 1_555
C30 C29 1_555 1_555
H38 C30 1_555 1_555
C31 C26 1_555 1_555
C32 C31 1_555 1_555
C33 N5 1_555 1_555
C34 C33 1_555 1_555
H39 C34 1_555 1_555
H40 C34 1_555 1_555
C35 C34 1_555 1_555
C36 C35 1_555 1_555
H41 C36 1_555 1_555
C37 C36 1_555 1_555
H42 C37 1_555 1_555
C38 C37 1_555 1_555
H43 C38 1_555 1_555
C39 C38 1_555 1_555
H44 C39 1_555 1_555
C40 C35 1_555 1_555
H45 C40 1_555 1_555
C41 N7 1_555 1_555
C42 N7 1_555 1_555
H46 C42 1_555 1_555
H47 C42 1_555 1_555
C43 N8 1_555 1_555
H48 C43 1_555 1_555
H49 C43 1_555 1_555
C44 N5 1_555 1_555
C45 O8 1_555 1_555
H50 C45 1_555 1_555
H51 C45 1_555 1_555
C46 C45 1_555 1_555
H52 C46 1_555 1_555
H53 C46 1_555 1_555
H54 C46 1_555 1_555
C47 N6 1_555 1_555
C48 O10 1_555 1_555
H55 C48 1_555 1_555
H56 C48 1_555 1_555
C49 C48 1_555 1_555
H57 C49 1_555 1_555
H58 C49 1_555 1_555
H59 C49 1_555 1_555
O11 C50 1_555 1_555
C50 H60 1_555 1_555
H61 C50 1_555 1_555
C51 C50 1_555 1_555
H62 C51 1_555 1_555
H63 C51 1_555 1_555
H64 C51 1_555 1_555
C50A O11 1_555 1_555
H60A C50A 1_555 1_555
H61A C50A 1_555 1_555
C51A C50A 1_555 1_555
H62A C51A 1_555 1_555
H63A C51A 1_555 1_555
H64A C51A 1_555 1_555
C5 C6 1_555 1_555
C7 C8 1_555 1_555
C8 C16 1_555 1_555
C14 C15 1_555 1_555
C17 C18 1_555 1_555
C30 C31 1_555 1_555
C32 C33 1_555 1_555
C33 C41 1_555 1_555
C39 C40 1_555 1_555
C42 C43 1_555 1_555

#END
