
#######################################################################
#
#                 Cambridge Crystallographic Data Centre
#                                CCDC 
#
#######################################################################
#
# If this CIF has been generated from an entry in the Cambridge 
# Structural Database, then it will include bibliographic, chemical, 
# crystal, experimental, refinement or atomic coordinate data resulting 
# from the CCDC's data processing and validation procedures.
#
#######################################################################

data_EBIMOU
_chemical_formula_moiety         'C14 H15 I1 O4'
_chemical_name_systematic        
7'-iodo-4'-vinyl-2a',3',4',4a',7a',7b'-hexahydro-2'H-spiro[1,3-dioxolane-2,5'-indeno[7,1-bc]furan]-2'-one
_symmetry_cell_setting           orthorhombic
_symmetry_space_group_name_H-M   'P 21 21 2'
_symmetry_Int_Tables_number      18
_space_group_name_Hall           'P 2 2ab'
loop_
_symmetry_equiv_pos_site_id
_symmetry_equiv_pos_as_xyz
1 x,y,z
2 -x,-y,z
3 1/2-x,1/2+y,-z
4 1/2+x,1/2-y,-z
_cell_length_a                   13.4943(4)
_cell_length_b                   23.1613(6)
_cell_length_c                   9.0921(3)
_cell_angle_alpha                90
_cell_angle_beta                 90
_cell_angle_gamma                90
_cell_volume                     2841.7
_exptl_crystal_colour            colorless
_exptl_crystal_description       block
_cell_formula_units_Z            8
loop_
_atom_site_label
_atom_site_type_symbol
_atom_site_fract_x
_atom_site_fract_y
_atom_site_fract_z
I1 I 0.436389(19) 0.276639(11) 0.28956(3)
O1 O 0.20155(19) 0.25079(12) 0.3104(3)
O2 O 0.0760(3) 0.21227(17) 0.4309(3)
O3 O 0.3245(2) 0.13978(11) -0.1466(3)
O4 O 0.2897(2) 0.23274(10) -0.2095(3)
C1 C 0.3329(3) 0.24702(15) 0.1338(4)
C2 C 0.2276(3) 0.26568(17) 0.1593(4)
C3 C 0.1496(3) 0.23864(18) 0.0575(4)
C4 C 0.0709(3) 0.2153(2) 0.1651(4)
C5 C 0.0624(4) 0.1510(2) 0.1342(5)
C6 C 0.1628(3) 0.13421(19) 0.0701(5)
C7 C 0.1852(3) 0.18619(17) -0.0299(4)
C8 C 0.2893(3) 0.19326(16) -0.0892(4)
C9 C 0.3601(3) 0.21522(15) 0.0229(4)
C10 C 0.1119(3) 0.2256(2) 0.3159(4)
C11 C 0.2930(5) 0.1998(2) -0.3407(5)
H1 H 0.3290 0.2201 -0.4172
H2 H 0.2268 0.1912 -0.3758
C12 C 0.3452(4) 0.1468(2) -0.2972(5)
H3 H 0.3213 0.1140 -0.3532
H4 H 0.4160 0.1508 -0.3133
C13 C 0.1620(5) 0.0758(2) 0.0000(7)
H5 H 0.1909 0.0766 -0.0929
C14 C 0.1361(10) 0.0316(3) 0.0292(12)
H6 H 0.1058 0.0250 0.1195
H7 H 0.1447 0.0013 -0.0367
H8 H 0.230(2) 0.3035(15) 0.153(4)
H9 H 0.128(3) 0.265(2) -0.002(5)
H10 H 0.005(4) 0.2315(18) 0.152(5)
H11 H 0.049(3) 0.1309(17) 0.214(5)
H12 H 0.011(4) 0.148(2) 0.058(6)
H13 H 0.207(3) 0.1328(16) 0.135(4)
H14 H 0.149(2) 0.1841(12) -0.095(4)
H15 H 0.425(3) 0.2068(12) 0.008(3)
I2 I 0.44065(2) 0.089785(12) 0.23490(3)
O5 O 0.66985(19) 0.13265(13) 0.1927(3)
O6 O 0.8088(2) 0.12496(16) 0.0657(3)
O7 O 0.6158(2) 0.11825(11) 0.7235(3)
O8 O 0.6441(2) 0.02135(11) 0.6950(3)
C15 C 0.5588(3) 0.09910(14) 0.3819(4)
C16 C 0.6376(3) 0.14209(16) 0.3421(4)
C17 C 0.7312(3) 0.14029(17) 0.4405(4)
C18 C 0.8167(3) 0.13372(16) 0.3318(4)
C19 C 0.8682(3) 0.0779(2) 0.3723(6)
C20 C 0.7909(3) 0.04231(17) 0.4569(5)
C21 C 0.7389(3) 0.08968(16) 0.5471(4)
C22 C 0.6401(3) 0.07445(15) 0.6165(4)
C23 C 0.5581(3) 0.07096(14) 0.5069(4)
C24 C 0.7698(3) 0.13028(17) 0.1821(4)
C25 C 0.6344(6) 0.0341(3) 0.8444(7)
H16 H 0.6990 0.0345 0.8914
H17 H 0.5936 0.0052 0.8925
C26 C 0.5886(5) 0.0902(3) 0.8555(5)
H18 H 0.5172 0.0868 0.8632
H19 H 0.6133 0.1111 0.9404
C27 C 0.8371(4) -0.0058(2) 0.5418(6)
H20 H 0.8647 0.0041 0.6322
C28 C 0.8433(5) -0.0581(3) 0.5055(9)
H21 H 0.8171 -0.0705 0.4163
H22 H 0.8741 -0.0844 0.5678
H23 H 0.605(3) 0.1800(16) 0.341(4)
H24 H 0.728(3) 0.1737(16) 0.487(5)
H25 H 0.867(3) 0.1691(15) 0.331(4)
H26 H 0.925(3) 0.0827(16) 0.431(5)
H27 H 0.896(3) 0.0559(19) 0.289(6)
H28 H 0.745(3) 0.0254(14) 0.392(4)
H29 H 0.781(2) 0.0992(14) 0.627(4)
H30 H 0.505(3) 0.0493(14) 0.531(4)
loop_
_geom_bond_atom_site_label_1
_geom_bond_atom_site_label_2
_geom_bond_site_symmetry_1
_geom_bond_site_symmetry_2
I1 C1 1_555 1_555
O1 C2 1_555 1_555
O2 C10 1_555 1_555
O3 C8 1_555 1_555
O4 C8 1_555 1_555
C1 C2 1_555 1_555
C2 C3 1_555 1_555
C3 C4 1_555 1_555
C4 C5 1_555 1_555
C5 C6 1_555 1_555
C6 C7 1_555 1_555
C7 C3 1_555 1_555
C8 C7 1_555 1_555
C9 C1 1_555 1_555
C10 O1 1_555 1_555
C11 O4 1_555 1_555
H1 C11 1_555 1_555
H2 C11 1_555 1_555
C12 O3 1_555 1_555
H3 C12 1_555 1_555
H4 C12 1_555 1_555
C13 C6 1_555 1_555
H5 C13 1_555 1_555
C14 C13 1_555 1_555
H6 C14 1_555 1_555
H7 C14 1_555 1_555
H8 C2 1_555 1_555
H9 C3 1_555 1_555
H10 C4 1_555 1_555
H11 C5 1_555 1_555
H12 C5 1_555 1_555
H13 C6 1_555 1_555
H14 C7 1_555 1_555
H15 C9 1_555 1_555
I2 C15 1_555 1_555
O5 C16 1_555 1_555
O6 C24 1_555 1_555
O7 C22 1_555 1_555
O8 C22 1_555 1_555
C15 C16 1_555 1_555
C16 C17 1_555 1_555
C17 C18 1_555 1_555
C18 C19 1_555 1_555
C19 C20 1_555 1_555
C20 C21 1_555 1_555
C21 C17 1_555 1_555
C22 C21 1_555 1_555
C23 C15 1_555 1_555
C24 O5 1_555 1_555
C25 O8 1_555 1_555
H16 C25 1_555 1_555
H17 C25 1_555 1_555
C26 O7 1_555 1_555
H18 C26 1_555 1_555
H19 C26 1_555 1_555
C27 C20 1_555 1_555
H20 C27 1_555 1_555
C28 C27 1_555 1_555
H21 C28 1_555 1_555
H22 C28 1_555 1_555
H23 C16 1_555 1_555
H24 C17 1_555 1_555
H25 C18 1_555 1_555
H26 C19 1_555 1_555
H27 C19 1_555 1_555
H28 C20 1_555 1_555
H29 C21 1_555 1_555
H30 C23 1_555 1_555
C4 C10 1_555 1_555
C8 C9 1_555 1_555
C11 C12 1_555 1_555
C18 C24 1_555 1_555
C22 C23 1_555 1_555
C25 C26 1_555 1_555

#END
