
#######################################################################
#
#                 Cambridge Crystallographic Data Centre
#                                CCDC 
#
#######################################################################
#
# If this CIF has been generated from an entry in the Cambridge 
# Structural Database, then it will include bibliographic, chemical, 
# crystal, experimental, refinement or atomic coordinate data resulting 
# from the CCDC's data processing and validation procedures.
#
#######################################################################

data_EBIPEN
_chemical_formula_moiety         'C20 H15 N1 O2 S1'
_chemical_name_systematic        
'S-(2-(benzoylamino)phenyl) benzenecarbothioate'
_symmetry_cell_setting           orthorhombic
_symmetry_space_group_name_H-M   'P c a 21'
_symmetry_Int_Tables_number      29
_space_group_name_Hall           'P 2c -2ac'
loop_
_symmetry_equiv_pos_site_id
_symmetry_equiv_pos_as_xyz
1 x,y,z
2 -x,-y,1/2+z
3 1/2+x,-y,z
4 1/2-x,y,1/2+z
_cell_length_a                   8.627(4)
_cell_length_b                   21.194(10)
_cell_length_c                   9.387(4)
_cell_angle_alpha                90
_cell_angle_beta                 90
_cell_angle_gamma                90
_cell_volume                     1716.33
_exptl_crystal_colour            colorless
_exptl_crystal_description       block
_cell_formula_units_Z            4
loop_
_atom_site_label
_atom_site_type_symbol
_atom_site_fract_x
_atom_site_fract_y
_atom_site_fract_z
S1 S 0.3152(4) 0.27714(13) 0.8085(5)
N1 N 0.2396(12) 0.1711(4) 0.6001(9)
H1 H 0.2561 0.1702 0.5098
O1 O 0.2508(18) 0.3729(5) 0.6439(17)
O2 O 0.3161(10) 0.1341(3) 0.8118(11)
C1 C 0.3304(15) 0.3552(5) 0.7332(14)
C2 C 0.4626(11) 0.3909(5) 0.7935(14)
C3 C 0.5340(13) 0.3756(6) 0.9208(15)
H2 H 0.5015 0.3399 0.9703
C4 C 0.6534(16) 0.4122(8) 0.9764(18)
H3 H 0.7041 0.4007 1.0599
C5 C 0.696(2) 0.4682(9) 0.900(2)
H4 H 0.7720 0.4947 0.9370
C6 C 0.6281(18) 0.4826(6) 0.781(2)
H5 H 0.6592 0.5185 0.7315
C7 C 0.5085(14) 0.4447(6) 0.7235(16)
H6 H 0.4608 0.4561 0.6384
C8 C 0.1308(14) 0.2572(6) 0.7430(14)
C9 C 0.1138(12) 0.2057(5) 0.6493(12)
C10 C -0.0327(14) 0.1914(6) 0.6039(16)
H7 H -0.0450 0.1581 0.5405
C11 C -0.1585(15) 0.2227(7) 0.646(2)
H8 H -0.2545 0.2124 0.6068
C12 C -0.1482(15) 0.2705(7) 0.7461(19)
H9 H -0.2360 0.2913 0.7796
C13 C -0.0007(19) 0.2860(7) 0.7944(19)
H10 H 0.0095 0.3170 0.8640
C14 C 0.3361(11) 0.1392(5) 0.6838(12)
C15 C 0.4611(11) 0.1018(4) 0.6117(11)
C16 C 0.5210(12) 0.0505(5) 0.6830(12)
H11 H 0.4820 0.0406 0.7726
C17 C 0.6360(14) 0.0138(6) 0.6265(14)
H12 H 0.6745 -0.0207 0.6765
C18 C 0.6937(13) 0.0290(7) 0.4934(17)
H13 H 0.7696 0.0041 0.4511
C19 C 0.6370(15) 0.0817(7) 0.4241(15)
H14 H 0.6778 0.0928 0.3359
C20 C 0.5242(13) 0.1172(5) 0.4815(12)
H15 H 0.4885 0.1526 0.4329
loop_
_geom_bond_atom_site_label_1
_geom_bond_atom_site_label_2
_geom_bond_site_symmetry_1
_geom_bond_site_symmetry_2
S1 C1 1_555 1_555
N1 H1 1_555 1_555
O1 C1 1_555 1_555
O2 C14 1_555 1_555
C1 C2 1_555 1_555
C2 C3 1_555 1_555
C3 H2 1_555 1_555
C4 C3 1_555 1_555
H3 C4 1_555 1_555
C5 C4 1_555 1_555
H4 C5 1_555 1_555
C6 C5 1_555 1_555
H5 C6 1_555 1_555
C7 C2 1_555 1_555
H6 C7 1_555 1_555
C8 S1 1_555 1_555
C9 N1 1_555 1_555
C10 C9 1_555 1_555
H7 C10 1_555 1_555
C11 C10 1_555 1_555
H8 C11 1_555 1_555
C12 C11 1_555 1_555
H9 C12 1_555 1_555
C13 C8 1_555 1_555
H10 C13 1_555 1_555
C14 N1 1_555 1_555
C15 C14 1_555 1_555
C16 C15 1_555 1_555
H11 C16 1_555 1_555
C17 C16 1_555 1_555
H12 C17 1_555 1_555
C18 C17 1_555 1_555
H13 C18 1_555 1_555
C19 C18 1_555 1_555
H14 C19 1_555 1_555
C20 C15 1_555 1_555
H15 C20 1_555 1_555
C6 C7 1_555 1_555
C8 C9 1_555 1_555
C12 C13 1_555 1_555
C19 C20 1_555 1_555

#END
