
#######################################################################
#
#                 Cambridge Crystallographic Data Centre
#                                CCDC 
#
#######################################################################
#
# If this CIF has been generated from an entry in the Cambridge 
# Structural Database, then it will include bibliographic, chemical, 
# crystal, experimental, refinement or atomic coordinate data resulting 
# from the CCDC's data processing and validation procedures.
#
#######################################################################

data_EBIQIS
_chemical_formula_moiety         'C16 H18 N1 O1 1+,0.5(C6 H6 O2),Cl1 O4 1-'
_chemical_name_systematic        
'1-ethyl-4-(2-(4-methoxyphenyl)vinyl)pyridinium hemikis(benzene-1,4-diol) perchlorate'
_symmetry_cell_setting           triclinic
_symmetry_space_group_name_H-M   'P -1'
_symmetry_Int_Tables_number      2
_space_group_name_Hall           '-P 1'
loop_
_symmetry_equiv_pos_site_id
_symmetry_equiv_pos_as_xyz
1 x,y,z
2 -x,-y,-z
_cell_length_a                   6.7742(2)
_cell_length_b                   9.4592(2)
_cell_length_c                   15.5346(4)
_cell_angle_alpha                98.3820(10)
_cell_angle_beta                 96.5630(10)
_cell_angle_gamma                106.9960(10)
_cell_volume                     928.748
_exptl_crystal_colour            yellow
_exptl_crystal_description       block
_cell_formula_units_Z            2
loop_
_atom_site_label
_atom_site_type_symbol
_atom_site_fract_x
_atom_site_fract_y
_atom_site_fract_z
Cl1 Cl 0.81908(9) 0.23997(5) 0.34595(3)
O1 O 0.9264(7) 0.2526(5) 0.2749(2)
O2 O 0.8999(9) 0.3616(7) 0.4171(4)
O3 O 0.5955(6) 0.2240(5) 0.3110(2)
O4 O 0.7977(5) 0.1003(3) 0.37281(19)
O9 O 1.51065(19) 0.71639(12) 1.37199(7)
N1 N 1.0077(18) 0.2114(8) 0.6861(5)
C1 C 1.0011(9) 0.1155(5) 0.7425(3)
H1 H 0.9591 0.0105 0.7195
C2 C 1.0524(4) 0.1638(4) 0.83132(19)
H2 H 1.0456 0.0922 0.8688
C3 C 1.1148(3) 0.3163(5) 0.86840(16)
C4 C 1.1185(5) 0.4161(4) 0.8101(2)
H3 H 1.1587 0.5214 0.8318
C5 C 1.0633(12) 0.3598(6) 0.7210(3)
H4 H 1.0643 0.4285 0.6820
C6 C 1.1728(3) 0.3619(2) 0.96339(13)
H5 H 1.1509 0.2844 0.9972
C7 C 1.2545(3) 0.5037(3) 1.00745(14)
H6 H 1.2729 0.5805 0.9731
C8 C 1.3182(5) 0.5528(4) 1.1023(2)
C9 C 1.3923(6) 0.7063(4) 1.1395(3)
H7 H 1.4019 0.7792 1.1028
C10 C 1.3745(10) 0.5007(5) 1.2494(3)
H8 H 1.3694 0.4291 1.2868
C11 C 1.3116(10) 0.4516(5) 1.1600(3)
H9 H 1.2626 0.3465 1.1369
C12 C 1.4496(2) 0.75019(18) 1.22685(10)
C13 C 1.4441(2) 0.65063(16) 1.28540(9)
C14 C 1.4941(3) 0.6181(2) 1.43472(12)
C15 C 0.9509(3) 0.1524(2) 0.59131(11)
C16 C 0.7477(3) 0.0289(3) 0.56779(16)
H10 H 1.500(3) 0.861(2) 1.2520(13)
H11 H 1.539(4) 0.682(3) 1.4905(16)
H12 H 1.586(4) 0.554(3) 1.4260(15)
H13 H 1.351(4) 0.554(2) 1.4313(14)
H14 H 0.949(4) 0.236(3) 0.5646(16)
H15 H 1.064(4) 0.124(3) 0.5762(15)
H16 H 0.710(4) -0.004(3) 0.5046(18)
H17 H 0.640(4) 0.064(3) 0.5875(18)
H18 H 0.758(6) -0.054(5) 0.584(3)
O10 O 0.88963(17) 0.13038(14) 0.10360(9)
C28 C 0.5163(2) 0.09024(16) 0.08114(10)
C29 C 0.6936(2) 0.06645(16) 0.05374(10)
C30 C 0.6769(2) -0.02369(17) -0.02706(10)
H28 H 0.883(4) 0.168(3) 0.1553(17)
H29 H 0.529(3) 0.149(2) 0.1376(13)
H30 H 0.803(3) -0.039(2) -0.0458(13)
O10A O 0.11037(17) -0.13038(14) -0.10360(9)
C28A C 0.4837(2) -0.09024(16) -0.08114(10)
C29A C 0.3064(2) -0.06645(16) -0.05374(10)
C30A C 0.3231(2) 0.02369(17) 0.02706(10)
H28A H 0.117(4) -0.168(3) -0.1553(17)
H29A H 0.471(3) -0.149(2) -0.1376(13)
H30A H 0.197(3) 0.039(2) 0.0458(13)
O5? O 0.8188(12) 0.3643(9) 0.4056(6)
O6? O 0.8552(8) 0.2921(5) 0.2632(3)
O7? O 1.0305(10) 0.2142(7) 0.3751(3)
O8? O 0.6784(12) 0.1157(7) 0.3382(5)
N2? N 1.004(4) 0.2276(19) 0.6900(11)
C17? C 1.028(3) 0.1502(14) 0.7561(8)
H19? H 1.0012 0.0443 0.7435
C18? C 1.0913(12) 0.2285(11) 0.8403(5)
H20? H 1.1036 0.1766 0.8875
C19? C 1.1374(9) 0.3811(11) 0.8573(5)
C20? C 1.1154(15) 0.4518(10) 0.7865(6)
H21? H 1.1450 0.5579 0.7976
C21? C 1.055(3) 0.3777(14) 0.7041(7)
H22? H 1.0481 0.4296 0.6565
C22? C 1.2095(8) 0.4717(6) 0.9465(4)
H23? H 1.2407 0.5776 0.9524
C23? C 1.2347(8) 0.4175(7) 1.0198(4)
H24? H 1.2010 0.3112 1.0125
C24? C 1.3091(12) 0.5026(11) 1.1118(5)
C25? C 1.3683(16) 0.6560(10) 1.1321(6)
H25? H 1.3590 0.7088 1.0850
C26? C 1.379(2) 0.4862(10) 1.2646(7)
H26? H 1.3793 0.4280 1.3096
C27? C 1.316(3) 0.4197(14) 1.1769(9)
H27? H 1.2769 0.3132 1.1609
loop_
_geom_bond_atom_site_label_1
_geom_bond_atom_site_label_2
_geom_bond_site_symmetry_1
_geom_bond_site_symmetry_2
Cl1 O1 1_555 1_555
O2 Cl1 1_555 1_555
O3 Cl1 1_555 1_555
O4 Cl1 1_555 1_555
O9 C13 1_555 1_555
N1 C1 1_555 1_555
C1 H1 1_555 1_555
C2 C1 1_555 1_555
H2 C2 1_555 1_555
C3 C2 1_555 1_555
C4 C3 1_555 1_555
H3 C4 1_555 1_555
C5 N1 1_555 1_555
H4 C5 1_555 1_555
C6 C3 1_555 1_555
H5 C6 1_555 1_555
C7 C6 1_555 1_555
H6 C7 1_555 1_555
C8 C7 1_555 1_555
C9 C8 1_555 1_555
H7 C9 1_555 1_555
C10 H8 1_555 1_555
C11 C8 1_555 1_555
H9 C11 1_555 1_555
C12 C9 1_555 1_555
C13 C10 1_555 1_555
C14 O9 1_555 1_555
C15 N1 1_555 1_555
C16 C15 1_555 1_555
H10 C12 1_555 1_555
H11 C14 1_555 1_555
H12 C14 1_555 1_555
H13 C14 1_555 1_555
H14 C15 1_555 1_555
H15 C15 1_555 1_555
H16 C16 1_555 1_555
H17 C16 1_555 1_555
H18 C16 1_555 1_555
O10 C29 1_555 1_555
C28 C29 1_555 1_555
C29 C30 1_555 1_555
C30 H30 1_555 1_555
H28 O10 1_555 1_555
H29 C28 1_555 1_555
O10A C29A 1_555 1_555
C28A C30 1_555 1_555
C29A C28A 1_555 1_555
C30A C28 1_555 1_555
H28A O10A 1_555 1_555
H29A C28A 1_555 1_555
H30A C30A 1_555 1_555
C4 C5 1_555 1_555
C10 C11 1_555 1_555
C12 C13 1_555 1_555
C29A C30A 1_555 1_555

#END
