
#######################################################################
#
#                 Cambridge Crystallographic Data Centre
#                                CCDC 
#
#######################################################################
#
# If this CIF has been generated from an entry in the Cambridge 
# Structural Database, then it will include bibliographic, chemical, 
# crystal, experimental, refinement or atomic coordinate data resulting 
# from the CCDC's data processing and validation procedures.
#
#######################################################################

data_EBIXIY
_chemical_formula_moiety         'C10 H8 N4 S1'
_chemical_name_systematic        1,1'-Thiene-3,4-diylbis(1H-imidazole)
_symmetry_cell_setting           trigonal
_symmetry_space_group_name_H-M   'P 32 2 1'
_symmetry_Int_Tables_number      154
_space_group_name_Hall           'P 32 2"'
loop_
_symmetry_equiv_pos_site_id
_symmetry_equiv_pos_as_xyz
1 x,y,z
2 -y,x-y,2/3+z
3 -x+y,-x,1/3+z
4 y,x,-z
5 x-y,-y,1/3-z
6 -x,-x+y,2/3-z
_cell_length_a                   7.3135(4)
_cell_length_b                   7.3135(4)
_cell_length_c                   16.4964(19)
_cell_angle_alpha                90
_cell_angle_beta                 90
_cell_angle_gamma                120
_cell_volume                     764.135
_exptl_crystal_colour            yellow
_exptl_crystal_description       block
_cell_formula_units_Z            3
loop_
_atom_site_label
_atom_site_type_symbol
_atom_site_fract_x
_atom_site_fract_y
_atom_site_fract_z
C1 C -0.0276(2) 0.8655(2) 0.11274(9)
H1 H -0.1037 0.7660 0.0730
C2 C 0.1725(2) 0.9222(2) 0.13518(8)
C3 C 0.3556(3) 0.8557(3) 0.02238(9)
H2 H 0.3481 0.9479 -0.0145
C4 C 0.4118(3) 0.6234(3) 0.07506(8)
H3 H 0.4524 0.5223 0.0811
C5 C 0.3232(2) 0.6822(2) 0.13402(8)
H4 H 0.2930 0.6311 0.1868
N1 N 0.28705(18) 0.83223(19) 0.10014(6)
N2 N 0.4332(2) 0.7339(3) 0.00529(7)
S1 S -0.12164(7) 1.0000 0.1667
C1D C 0.1069(3) 1.1345(2) 0.22059(9)
H1D H 0.1303 1.2340 0.2603
C2D C 0.2503(3) 1.0778(2) 0.19815(8)
C3D C 0.4999(4) 1.1443(3) 0.31095(9)
H2D H 0.4002 1.0521 0.3478
C4D C 0.7884(4) 1.3766(3) 0.25827(8)
H3D H 0.9301 1.4777 0.2522
C5D C 0.6410(3) 1.3178(2) 0.19931(8)
H4D H 0.6619 1.3689 0.1465
N1D N 0.45482(26) 1.16777(19) 0.23319(6)
N2D N 0.6993(4) 1.2661(3) 0.32804(7)
loop_
_geom_bond_atom_site_label_1
_geom_bond_atom_site_label_2
_geom_bond_site_symmetry_1
_geom_bond_site_symmetry_2
C1 H1 1_555 1_555
C2 C1 1_555 1_555
C3 H2 1_555 1_555
C4 H3 1_555 1_555
C5 C4 1_555 1_555
H4 C5 1_555 1_555
N1 C2 1_555 1_555
N2 C3 1_555 1_555
S1 C1 1_555 1_555
C1D S1 1_555 1_555
H1D C1D 1_555 1_555
C2D C2 1_555 1_555
C3D H2D 1_555 1_555
C4D H3D 1_555 1_555
C5D C4D 1_555 1_555
H4D C5D 1_555 1_555
N1D C2D 1_555 1_555
N2D C3D 1_555 1_555
C3 N1 1_555 1_555
C4 N2 1_555 1_555
C5 N1 1_555 1_555
C1D C2D 1_555 1_555
C3D N1D 1_555 1_555
C4D N2D 1_555 1_555
C5D N1D 1_555 1_555

#END
