
#######################################################################
#
#                 Cambridge Crystallographic Data Centre
#                                CCDC 
#
#######################################################################
#
# If this CIF has been generated from an entry in the Cambridge 
# Structural Database, then it will include bibliographic, chemical, 
# crystal, experimental, refinement or atomic coordinate data resulting 
# from the CCDC's data processing and validation procedures.
#
#######################################################################

data_EBOHOU
_chemical_formula_moiety         'C20 H17 N2 1+,N1 O3 1-'
_chemical_name_systematic        '1-Benzyl-2-phenylbenzimidazolium nitrate'
_symmetry_cell_setting           triclinic
_symmetry_space_group_name_H-M   'P 1'
_symmetry_Int_Tables_number      1
_space_group_name_Hall           'P 1'
loop_
_symmetry_equiv_pos_site_id
_symmetry_equiv_pos_as_xyz
1 x,y,z
_cell_length_a                   5.707(3)
_cell_length_b                   8.886(5)
_cell_length_c                   9.503(5)
_cell_angle_alpha                71.733(5)
_cell_angle_beta                 79.378(9)
_cell_angle_gamma                84.199(9)
_cell_volume                     449.308
_exptl_crystal_colour            colorless
_exptl_crystal_description       needle
_cell_formula_units_Z            1
loop_
_atom_site_label
_atom_site_type_symbol
_atom_site_fract_x
_atom_site_fract_y
_atom_site_fract_z
O1 O 0.461(2) -0.5118(13) -1.1147(14)
O2 O 0.515(3) -0.2740(14) -1.1539(12)
O3 O 0.544(2) -0.4303(9) -0.9386(10)
N3 N 0.4931(18) -0.4044(12) -1.0673(12)
N1 N 0.5221(12) 0.0566(7) -0.8103(8)
N2 N 0.5982(13) -0.1521(9) -0.8913(8)
H1 H 0.5460 -0.2044 -0.9217
C1 C 0.3940(18) 0.1782(10) -0.7433(10)
H2 H 0.2302 0.1481 -0.7056
H3 H 0.3905 0.2783 -0.8225
C2 C 0.4956(16) 0.2044(10) -0.6179(10)
C3 C 0.6930(16) 0.1117(12) -0.5594(11)
H4 H 0.7657 0.0319 -0.5987
C4 C 0.778(2) 0.1418(13) -0.4406(13)
H5 H 0.9046 0.0795 -0.4003
C5 C 0.6756(18) 0.2617(12) -0.3840(12)
H6 H 0.7378 0.2843 -0.3094
C6 C 0.474(2) 0.3508(12) -0.4402(13)
H7 H 0.3955 0.4270 -0.3977
C7 C 0.3963(17) 0.3235(11) -0.5580(11)
H8 H 0.2716 0.3877 -0.5989
C8 C 0.4531(14) -0.0863(9) -0.7933(9)
C9 C 0.2596(14) -0.1720(9) -0.6792(10)
C10 C 0.2343(17) -0.1751(11) -0.5292(11)
H9 H 0.3374 -0.1207 -0.4993
C11 C 0.051(2) -0.2613(12) -0.4241(13)
H10 H 0.0311 -0.2617 -0.3246
C12 C -0.0949(19) -0.3426(13) -0.4648(14)
H11 H -0.2138 -0.3991 -0.3926
C13 C -0.0747(17) -0.3453(11) -0.6101(13)
H12 H -0.1794 -0.4019 -0.6362
C14 C 0.1064(16) -0.2616(10) -0.7186(11)
H13 H 0.1254 -0.2652 -0.8169
C15 C 0.7765(16) -0.0464(10) -0.9730(9)
C16 C 0.9748(17) -0.0629(13) -1.0773(11)
H14 H 1.0028 -0.1517 -1.1109
C17 C 1.129(2) 0.0617(14) -1.1285(13)
H15 H 1.2650 0.0554 -1.1981
C18 C 1.0869(19) 0.1979(13) -1.0778(13)
H16 H 1.1956 0.2778 -1.1138
C19 C 0.8801(19) 0.2139(14) -0.9728(11)
H17 H 0.8473 0.3040 -0.9413
C20 C 0.7300(15) 0.0871(9) -0.9200(9)
loop_
_geom_bond_atom_site_label_1
_geom_bond_atom_site_label_2
_geom_bond_site_symmetry_1
_geom_bond_site_symmetry_2
O1 N3 1_555 1_555
O2 N3 1_555 1_555
O3 N3 1_555 1_555
N1 C1 1_555 1_555
N2 H1 1_555 1_555
C1 H2 1_555 1_555
H3 C1 1_555 1_555
C2 C1 1_555 1_555
C3 C2 1_555 1_555
H4 C3 1_555 1_555
C4 C3 1_555 1_555
H5 C4 1_555 1_555
C5 C4 1_555 1_555
H6 C5 1_555 1_555
C6 C5 1_555 1_555
H7 C6 1_555 1_555
C7 C2 1_555 1_555
H8 C7 1_555 1_555
C8 N1 1_555 1_555
C9 C8 1_555 1_555
C10 C9 1_555 1_555
H9 C10 1_555 1_555
C11 C10 1_555 1_555
H10 C11 1_555 1_555
C12 C11 1_555 1_555
H11 C12 1_555 1_555
C13 C12 1_555 1_555
H12 C13 1_555 1_555
C14 C9 1_555 1_555
H13 C14 1_555 1_555
C15 N2 1_555 1_555
C16 C15 1_555 1_555
H14 C16 1_555 1_555
C17 C16 1_555 1_555
H15 C17 1_555 1_555
C18 C17 1_555 1_555
H16 C18 1_555 1_555
C19 C18 1_555 1_555
H17 C19 1_555 1_555
C20 N1 1_555 1_555
N2 C8 1_555 1_555
C6 C7 1_555 1_555
C13 C14 1_555 1_555
C15 C20 1_555 1_555
C19 C20 1_555 1_555

#END
