
#######################################################################
#
#                 Cambridge Crystallographic Data Centre
#                                CCDC 
#
#######################################################################
#
# If this CIF has been generated from an entry in the Cambridge 
# Structural Database, then it will include bibliographic, chemical, 
# crystal, experimental, refinement or atomic coordinate data resulting 
# from the CCDC's data processing and validation procedures.
#
#######################################################################

data_EBOHUA
_chemical_formula_moiety         'C20 H17 N2 1+,Cl1 O4 1-'
_chemical_name_systematic        '1-Benzyl-2-phenylbenzimidazolium perchlorate'
_symmetry_cell_setting           triclinic
_symmetry_space_group_name_H-M   'P 1'
_symmetry_Int_Tables_number      1
_space_group_name_Hall           'P 1'
loop_
_symmetry_equiv_pos_site_id
_symmetry_equiv_pos_as_xyz
1 x,y,z
_cell_length_a                   5.7108(17)
_cell_length_b                   9.011(3)
_cell_length_c                   9.451(3)
_cell_angle_alpha                70.550(3)
_cell_angle_beta                 81.022(4)
_cell_angle_gamma                85.818(3)
_cell_volume                     452.861
_exptl_crystal_colour            colorless
_exptl_crystal_description       needle
_cell_formula_units_Z            1
loop_
_atom_site_label
_atom_site_type_symbol
_atom_site_fract_x
_atom_site_fract_y
_atom_site_fract_z
Cl1 Cl 0.61437(8) 0.53212(6) 0.79825(6)
O1 O 0.7010(4) 0.4193(3) 0.7270(3)
O2 O 0.3683(4) 0.5083(3) 0.8538(3)
O3 O 0.7358(4) 0.5081(2) 0.9276(2)
O4 O 0.6507(5) 0.6889(3) 0.6989(3)
N1 N 0.7725(4) 0.7891(2) -0.0125(2)
N2 N 0.7051(3) 0.9922(2) 0.0649(2)
C1 C 0.9061(4) 1.0254(3) -0.0442(3)
C2 C 1.0583(5) 1.1523(3) -0.0976(3)
H1 H 1.0305 1.2398 -0.0655
C3 C 1.2511(5) 1.1410(3) -0.2001(3)
H2 H 1.3558 1.2239 -0.2394
C4 C 1.2957(5) 1.0096(4) -0.2476(3)
H3 H 1.4318 1.0059 -0.3148
C5 C 1.1440(5) 0.8850(3) -0.1977(3)
H4 H 1.1708 0.7989 -0.2319
C6 C 0.9481(4) 0.8953(3) -0.0931(3)
C7 C 0.6318(4) 0.8472(3) 0.0838(3)
C8 C 0.4370(4) 0.7625(3) 0.1933(3)
C9 C 0.2955(4) 0.6681(3) 0.1537(3)
H5 H 0.3223 0.6614 0.0563
C10 C 0.1156(5) 0.5842(3) 0.2575(3)
H6 H 0.0182 0.5239 0.2291
C11 C 0.0796(6) 0.5895(4) 0.4029(4)
H7 H -0.0423 0.5330 0.4729
C12 C 0.2257(6) 0.6792(4) 0.4451(3)
H8 H 0.2019 0.6818 0.5438
C13 C 0.4036(5) 0.7635(3) 0.3431(3)
H9 H 0.5026 0.8217 0.3729
C14 C 0.5753(5) 1.1103(3) 0.1257(3)
H10 H 0.4129 1.0773 0.1626
H11 H 0.5715 1.2096 0.0438
C15 C 0.6801(4) 1.1365(3) 0.2521(3)
C16 C 0.5763(5) 1.2542(3) 0.3073(3)
H12 H 0.4504 1.3145 0.2642
C17 C 0.6580(6) 1.2827(4) 0.4255(4)
H13 H 0.5865 1.3612 0.4623
C18 C 0.8445(6) 1.1952(4) 0.4886(3)
H14 H 0.9005 1.2147 0.5679
C19 C 0.9487(6) 1.0790(4) 0.4349(3)
H15 H 1.0752 1.0197 0.4781
C20 C 0.8664(5) 1.0493(3) 0.3160(3)
H16 H 0.9379 0.9702 0.2800
H17 H 0.740(4) 0.697(3) -0.031(3)
loop_
_geom_bond_atom_site_label_1
_geom_bond_atom_site_label_2
_geom_bond_site_symmetry_1
_geom_bond_site_symmetry_2
Cl1 O1 1_555 1_555
O2 Cl1 1_555 1_555
O3 Cl1 1_555 1_555
O4 Cl1 1_555 1_555
N1 C6 1_555 1_555
N2 C1 1_555 1_555
C1 C2 1_555 1_555
C2 H1 1_555 1_555
C3 C2 1_555 1_555
H2 C3 1_555 1_555
C4 C3 1_555 1_555
H3 C4 1_555 1_555
C5 C4 1_555 1_555
H4 C5 1_555 1_555
C6 C1 1_555 1_555
C7 N1 1_555 1_555
C8 C7 1_555 1_555
C9 C8 1_555 1_555
H5 C9 1_555 1_555
C10 C9 1_555 1_555
H6 C10 1_555 1_555
C11 C10 1_555 1_555
H7 C11 1_555 1_555
C12 C11 1_555 1_555
H8 C12 1_555 1_555
C13 C8 1_555 1_555
H9 C13 1_555 1_555
C14 N2 1_555 1_555
H10 C14 1_555 1_555
H11 C14 1_555 1_555
C15 C14 1_555 1_555
C16 C15 1_555 1_555
H12 C16 1_555 1_555
C17 C16 1_555 1_555
H13 C17 1_555 1_555
C18 C17 1_555 1_555
H14 C18 1_555 1_555
C19 C18 1_555 1_555
H15 C19 1_555 1_555
C20 C15 1_555 1_555
H16 C20 1_555 1_555
H17 N1 1_555 1_555
N2 C7 1_555 1_555
C5 C6 1_555 1_555
C12 C13 1_555 1_555
C19 C20 1_555 1_555

#END
