
#######################################################################
#
#                 Cambridge Crystallographic Data Centre
#                                CCDC 
#
#######################################################################
#
# If this CIF has been generated from an entry in the Cambridge 
# Structural Database, then it will include bibliographic, chemical, 
# crystal, experimental, refinement or atomic coordinate data resulting 
# from the CCDC's data processing and validation procedures.
#
#######################################################################

data_EBOJAI
_chemical_formula_moiety         'C20 H17 N2 1+,H2 O1,Cl1 1-'
_chemical_name_systematic        
'1-Benzyl-2-phenylbenzimidazolium chloride monohydrate'
_symmetry_cell_setting           triclinic
_symmetry_space_group_name_H-M   'P 1'
_symmetry_Int_Tables_number      1
_space_group_name_Hall           'P 1'
loop_
_symmetry_equiv_pos_site_id
_symmetry_equiv_pos_as_xyz
1 x,y,z
_cell_length_a                   5.441(4)
_cell_length_b                   8.892(6)
_cell_length_c                   9.554(7)
_cell_angle_alpha                74.542(8)
_cell_angle_beta                 82.346(8)
_cell_angle_gamma                76.224(8)
_cell_volume                     431.497
_exptl_crystal_colour            colorless
_exptl_crystal_description       block
_cell_formula_units_Z            1
loop_
_atom_site_label
_atom_site_type_symbol
_atom_site_fract_x
_atom_site_fract_y
_atom_site_fract_z
O1 O 0.2376(5) 0.3027(3) 0.0587(2)
H17 H 0.297(8) 0.361(5) 0.078(4)
H19 H 0.079(9) 0.364(5) 0.072(4)
Cl1 Cl 0.66409(11) 0.45710(8) 0.10162(7)
N1 N 0.4735(3) 0.1978(2) 0.58612(16)
N2 N 0.3359(3) 0.26975(19) 0.78897(17)
C1 C 0.2512(4) 0.3125(2) 0.5583(2)
C2 C 0.1167(5) 0.3751(3) 0.4331(2)
H1 H 0.1767 0.3462 0.3461
C3 C -0.1084(5) 0.4814(3) 0.4460(3)
H2 H -0.2038 0.5256 0.3654
C4 C -0.1989(5) 0.5255(3) 0.5763(3)
H3 H -0.3527 0.5981 0.5794
C5 C -0.0677(4) 0.4651(2) 0.7010(2)
H4 H -0.1291 0.4942 0.7877
C6 C 0.1618(4) 0.3578(2) 0.6881(2)
C7 C 0.5183(4) 0.1727(2) 0.72735(19)
C8 C 0.7262(4) 0.0565(2) 0.80479(19)
C9 C 0.8435(4) 0.0990(2) 0.9055(2)
H5 H 0.7891 0.1999 0.9237
C10 C 1.0414(4) -0.0096(3) 0.9782(2)
H6 H 1.1217 0.0197 1.0438
C11 C 1.1201(4) -0.1599(3) 0.9547(2)
H7 H 1.2548 -0.2313 1.0029
C12 C 0.9987(5) -0.2054(3) 0.8590(3)
H8 H 1.0489 -0.3084 0.8454
C13 C 0.8026(4) -0.0981(2) 0.7836(2)
H9 H 0.7221 -0.1288 0.7191
C14 C 0.6340(4) 0.1302(3) 0.4717(2)
H10 H 0.8003 0.0787 0.5066
H11 H 0.6555 0.2163 0.3871
C15 C 0.5246(4) 0.0099(2) 0.42669(19)
C16 C 0.6249(4) -0.0296(3) 0.2960(2)
H12 H 0.7520 0.0181 0.2400
C17 C 0.5346(5) -0.1403(3) 0.2497(2)
H13 H 0.6042 -0.1680 0.1634
C18 C 0.3439(5) -0.2094(3) 0.3300(3)
H14 H 0.2832 -0.2825 0.2976
C19 C 0.2418(4) -0.1698(3) 0.4596(3)
H15 H 0.1121 -0.2161 0.5142
C20 C 0.3340(4) -0.0604(2) 0.5081(2)
H16 H 0.2668 -0.0348 0.5956
H18 H 0.310(6) 0.276(4) 0.885(4)
loop_
_geom_bond_atom_site_label_1
_geom_bond_atom_site_label_2
_geom_bond_site_symmetry_1
_geom_bond_site_symmetry_2
O1 H17 1_555 1_555
N1 C1 1_555 1_555
N2 C6 1_555 1_555
C1 C2 1_555 1_555
C2 H1 1_555 1_555
C3 C2 1_555 1_555
H2 C3 1_555 1_555
C4 C3 1_555 1_555
H3 C4 1_555 1_555
C5 C4 1_555 1_555
H4 C5 1_555 1_555
C6 C1 1_555 1_555
C7 N1 1_555 1_555
C8 C7 1_555 1_555
C9 C8 1_555 1_555
H5 C9 1_555 1_555
C10 C9 1_555 1_555
H6 C10 1_555 1_555
C11 C10 1_555 1_555
H7 C11 1_555 1_555
C12 C11 1_555 1_555
H8 C12 1_555 1_555
C13 C8 1_555 1_555
H9 C13 1_555 1_555
C14 N1 1_555 1_555
H10 C14 1_555 1_555
H11 C14 1_555 1_555
C15 C14 1_555 1_555
C16 C15 1_555 1_555
H12 C16 1_555 1_555
C17 C16 1_555 1_555
H13 C17 1_555 1_555
C18 C17 1_555 1_555
H14 C18 1_555 1_555
C19 C18 1_555 1_555
H15 C19 1_555 1_555
C20 C15 1_555 1_555
H16 C20 1_555 1_555
H18 N2 1_555 1_555
H19 O1 1_555 1_555
N2 C7 1_555 1_555
C5 C6 1_555 1_555
C12 C13 1_555 1_555
C19 C20 1_555 1_555

#END
