
#######################################################################
#
#                 Cambridge Crystallographic Data Centre
#                                CCDC 
#
#######################################################################
#
# If this CIF has been generated from an entry in the Cambridge 
# Structural Database, then it will include bibliographic, chemical, 
# crystal, experimental, refinement or atomic coordinate data resulting 
# from the CCDC's data processing and validation procedures.
#
#######################################################################

data_EBONUE
_chemical_formula_moiety         'C12 H19 B1 Cl1 O2 P1'
_chemical_name_systematic        
2-Chloro-2-(triethylphosphino)-1,3,2-benzodioxaborole
_symmetry_cell_setting           orthorhombic
_symmetry_space_group_name_H-M   'P b c a'
_symmetry_Int_Tables_number      61
_space_group_name_Hall           '-P 2ac 2ab'
loop_
_symmetry_equiv_pos_site_id
_symmetry_equiv_pos_as_xyz
1 x,y,z
2 1/2+x,y,1/2-z
3 x,1/2-y,1/2+z
4 1/2-x,1/2+y,z
5 -x,-y,-z
6 1/2-x,-y,1/2+z
7 -x,1/2+y,1/2-z
8 1/2+x,1/2-y,-z
_cell_length_a                   13.4416(12)
_cell_length_b                   14.0419(12)
_cell_length_c                   14.6040(14)
_cell_angle_alpha                90
_cell_angle_beta                 90
_cell_angle_gamma                90
_cell_volume                     2756.44
_exptl_crystal_colour            colorless
_exptl_crystal_description       block
_cell_formula_units_Z            8
loop_
_atom_site_label
_atom_site_type_symbol
_atom_site_fract_x
_atom_site_fract_y
_atom_site_fract_z
B1 B 0.64592(13) -0.12842(12) 0.66502(12)
Cl1 Cl 0.56932(3) -0.22283(3) 0.72961(3)
C1 C 0.71639(11) -0.17019(10) 0.53065(11)
O1 O 0.62792(8) -0.13711(8) 0.56682(8)
C2 C 0.79018(12) -0.17126(10) 0.59770(11)
O2 O 0.75248(8) -0.14199(8) 0.68078(8)
C3 C 0.88684(12) -0.19888(12) 0.57765(13)
H1 H 0.9358(17) -0.2004(15) 0.6236(16)
C4 C 0.90636(14) -0.22808(12) 0.48737(14)
H2 H 0.9705(18) -0.2473(16) 0.4715(16)
C5 C 0.83194(15) -0.22948(12) 0.42122(13)
H3 H 0.8430(17) -0.2502(16) 0.3601(17)
C6 C 0.73427(14) -0.19999(12) 0.44208(12)
H4 H 0.6844(16) -0.1991(15) 0.3947(16)
P1 P 0.59972(3) -0.00031(3) 0.70886(3)
C7 C 0.54797(14) 0.00195(12) 0.82408(12)
H5 H 0.4902(17) -0.0357(15) 0.8212(16)
H6 H 0.5280(19) 0.0696(18) 0.8356(18)
C8 C 0.61810(16) -0.03370(16) 0.89888(13)
H7 H 0.647(2) -0.099(2) 0.886(2)
H8 H 0.674(2) 0.011(2) 0.907(2)
H9 H 0.583(2) -0.040(2) 0.960(2)
C9 C 0.50233(13) 0.04492(12) 0.63382(12)
H10 H 0.5320(17) 0.0566(17) 0.5769(18)
H11 H 0.4809(18) 0.1072(17) 0.6590(18)
C10 C 0.41345(14) -0.02246(15) 0.62506(15)
H12 H 0.3641(19) 0.0054(16) 0.5843(18)
H13 H 0.3822(19) -0.0350(19) 0.684(2)
H14 H 0.4325(18) -0.0846(18) 0.5991(17)
C11 C 0.70228(14) 0.08470(12) 0.70457(12)
H15 H 0.7472(19) 0.0681(18) 0.7530(18)
H16 H 0.6737(17) 0.1489(17) 0.7183(16)
C12 C 0.75792(14) 0.08536(13) 0.61317(14)
H17 H 0.715(2) 0.1061(18) 0.5619(19)
H18 H 0.7853(19) 0.0242(18) 0.5990(18)
H19 H 0.8120(17) 0.1290(16) 0.6153(16)
loop_
_geom_bond_atom_site_label_1
_geom_bond_atom_site_label_2
_geom_bond_site_symmetry_1
_geom_bond_site_symmetry_2
B1 Cl1 1_555 1_555
C1 O1 1_555 1_555
O1 B1 1_555 1_555
C2 C1 1_555 1_555
O2 B1 1_555 1_555
C3 C2 1_555 1_555
H1 C3 1_555 1_555
C4 C3 1_555 1_555
H2 C4 1_555 1_555
C5 C4 1_555 1_555
H3 C5 1_555 1_555
C6 C1 1_555 1_555
H4 C6 1_555 1_555
P1 B1 1_555 1_555
C7 P1 1_555 1_555
H5 C7 1_555 1_555
H6 C7 1_555 1_555
C8 C7 1_555 1_555
H7 C8 1_555 1_555
H8 C8 1_555 1_555
H9 C8 1_555 1_555
C9 P1 1_555 1_555
H10 C9 1_555 1_555
H11 C9 1_555 1_555
C10 C9 1_555 1_555
H12 C10 1_555 1_555
H13 C10 1_555 1_555
H14 C10 1_555 1_555
C11 P1 1_555 1_555
H15 C11 1_555 1_555
H16 C11 1_555 1_555
C12 C11 1_555 1_555
H17 C12 1_555 1_555
H18 C12 1_555 1_555
H19 C12 1_555 1_555
C2 O2 1_555 1_555
C5 C6 1_555 1_555

#END
