
#######################################################################
#
#                 Cambridge Crystallographic Data Centre
#                                CCDC 
#
#######################################################################
#
# If this CIF has been generated from an entry in the Cambridge 
# Structural Database, then it will include bibliographic, chemical, 
# crystal, experimental, refinement or atomic coordinate data resulting 
# from the CCDC's data processing and validation procedures.
#
#######################################################################

data_EBONIS
_chemical_formula_moiety         'C6 H4 B1 Br1 O2'
_chemical_name_systematic        2-Bromo-1,3,2-benzodioxaborole
_symmetry_cell_setting           monoclinic
_symmetry_space_group_name_H-M   'C 2/c'
_symmetry_Int_Tables_number      15
_space_group_name_Hall           '-C 2yn'
loop_
_symmetry_equiv_pos_site_id
_symmetry_equiv_pos_as_xyz
1 x,y,z
2 x,-y,1/2+z
3 1/2+x,1/2+y,z
4 1/2+x,1/2-y,1/2+z
5 -x,-y,-z
6 -x,y,1/2-z
7 1/2-x,1/2-y,-z
8 1/2-x,1/2+y,1/2-z
_cell_length_a                   10.7250(4)
_cell_length_b                   10.0682(4)
_cell_length_c                   7.2078(3)
_cell_angle_alpha                90
_cell_angle_beta                 119.53(1)
_cell_angle_gamma                90
_cell_volume                     677.205
_exptl_crystal_colour            colorless
_exptl_crystal_description       ellipsoid
_cell_formula_units_Z            4
loop_
_atom_site_label
_atom_site_type_symbol
_atom_site_fract_x
_atom_site_fract_y
_atom_site_fract_z
Br1 Br 0.5000 0.40782(2) 0.2500
O1 O 0.38426(12) 0.14451(13) 0.22262(18)
B1 B 0.5000 0.2193(3) 0.2500
C1 C 0.43026(16) 0.01363(17) 0.2339(2)
C2 C 0.3571(2) -0.10230(16) 0.2179(3)
C3 C 0.43032(18) -0.22054(18) 0.2352(3)
H1 H 0.266(3) -0.102(2) 0.195(5)
H2 H 0.382(3) -0.302(3) 0.226(5)
C1E C 0.56974(16) 0.01363(17) 0.2661(2)
O1E O 0.61574(12) 0.14451(13) 0.27738(18)
C2E C 0.6429(2) -0.10230(16) 0.2821(3)
C3E C 0.56968(18) -0.22054(18) 0.2648(3)
H2E H 0.618(3) -0.302(3) 0.274(5)
H1E H 0.734(3) -0.102(2) 0.305(5)
loop_
_geom_bond_atom_site_label_1
_geom_bond_atom_site_label_2
_geom_bond_site_symmetry_1
_geom_bond_site_symmetry_2
Br1 B1 1_555 1_555
O1 B1 1_555 1_555
B1 O1E 1_555 1_555
C1 O1 1_555 1_555
C2 C1 1_555 1_555
C3 C2 1_555 1_555
H1 C2 1_555 1_555
H2 C3 1_555 1_555
C1E C1 1_555 1_555
O1E C1E 1_555 1_555
C2E C1E 1_555 1_555
C3E C3 1_555 1_555
H2E C3E 1_555 1_555
H1E C2E 1_555 1_555
C2E C3E 1_555 1_555

#END
