
#######################################################################
#
#                 Cambridge Crystallographic Data Centre
#                                CCDC 
#
#######################################################################
#
# If this CIF has been generated from an entry in the Cambridge 
# Structural Database, then it will include bibliographic, chemical, 
# crystal, experimental, refinement or atomic coordinate data resulting 
# from the CCDC's data processing and validation procedures.
#
#######################################################################

data_EBONER
_chemical_formula_moiety         'C7 H9 N1 O2,C7 H6 O4'
_chemical_name_systematic        
'3-hydroxy-1,2-dimethylpyridin-4(1H)-one 2,5-dihydroxybenzoic acid'
_symmetry_cell_setting           monoclinic
_symmetry_space_group_name_H-M   'P 21/c'
_symmetry_Int_Tables_number      14
_space_group_name_Hall           '-P 2ybc'
loop_
_symmetry_equiv_pos_site_id
_symmetry_equiv_pos_as_xyz
1 x,y,z
2 -x,1/2+y,1/2-z
3 -x,-y,-z
4 x,1/2-y,1/2+z
_cell_length_a                   13.1801(5)
_cell_length_b                   9.9196(4)
_cell_length_c                   10.7365(4)
_cell_angle_alpha                90
_cell_angle_beta                 105.7970(10)
_cell_angle_gamma                90
_cell_volume                     1350.69
_exptl_crystal_description       block
_cell_formula_units_Z            4
loop_
_atom_site_label
_atom_site_type_symbol
_atom_site_fract_x
_atom_site_fract_y
_atom_site_fract_z
C1 C 0.90604(11) 0.39803(15) 0.51925(15)
H1 H 0.8937 0.3852 0.4306
C2 C 0.98286(12) 0.32394(14) 0.60379(15)
C3 C 0.99879(12) 0.33963(16) 0.73571(15)
H2 H 1.0488 0.2871 0.7931
C4 C 0.94090(12) 0.43270(16) 0.78257(15)
H3 H 0.9527 0.4435 0.8714
C5 C 0.86556(11) 0.51001(15) 0.69838(15)
C6 C 0.84622(11) 0.49242(14) 0.56510(14)
C7 C 0.76185(12) 0.57140(17) 0.47405(16)
O1 O 1.04174(9) 0.23544(12) 0.55330(11)
H4 H 1.0895 0.2045 0.6120
O2 O 0.81063(8) 0.60256(11) 0.75021(10)
H5 H 0.7650 0.6379 0.6918
O3 O 0.71382(9) 0.65986(12) 0.52074(11)
O4 O 0.74199(10) 0.54640(13) 0.35490(11)
H6 H 0.694(2) 0.598(3) 0.302(3)
C8 C 0.52453(12) 0.64382(16) 0.14395(16)
C9 C 0.47923(13) 0.53300(17) 0.18784(16)
H7 H 0.5162 0.4880 0.2624
C10 C 0.38184(13) 0.49049(17) 0.12262(17)
H8 H 0.3530 0.4160 0.1531
C11 C 0.21867(13) 0.5024(2) -0.05131(19)
H9 H 0.1671 0.5690 -0.0462
H10 H 0.2057 0.4210 -0.0098
H11 H 0.2141 0.4841 -0.1405
C12 C 0.30282(13) 0.72626(19) -0.15708(17)
H12 H 0.2964 0.6647 -0.2278
H13 H 0.3380 0.8067 -0.1727
H14 H 0.2339 0.7489 -0.1496
C13 C 0.36533(12) 0.66177(16) -0.03437(16)
C14 C 0.46457(12) 0.70695(16) 0.02964(16)
N1 N 0.32522(10) 0.55336(14) 0.01421(13)
O5 O 0.61855(8) 0.69305(12) 0.19950(11)
O6 O 0.50305(9) 0.81372(13) -0.02084(13)
H15 H 0.5674 0.8156 0.0074
loop_
_geom_bond_atom_site_label_1
_geom_bond_atom_site_label_2
_geom_bond_site_symmetry_1
_geom_bond_site_symmetry_2
C1 H1 1_555 1_555
C2 C1 1_555 1_555
C3 C2 1_555 1_555
H2 C3 1_555 1_555
C4 C3 1_555 1_555
H3 C4 1_555 1_555
C5 C4 1_555 1_555
C6 C1 1_555 1_555
C7 C6 1_555 1_555
O1 C2 1_555 1_555
H4 O1 1_555 1_555
O2 C5 1_555 1_555
H5 O2 1_555 1_555
O3 C7 1_555 1_555
O4 C7 1_555 1_555
H6 O4 1_555 1_555
C8 C9 1_555 1_555
C9 H7 1_555 1_555
C10 C9 1_555 1_555
H8 C10 1_555 1_555
C11 H9 1_555 1_555
H10 C11 1_555 1_555
H11 C11 1_555 1_555
C12 H12 1_555 1_555
H13 C12 1_555 1_555
H14 C12 1_555 1_555
C13 C12 1_555 1_555
C14 C8 1_555 1_555
N1 C10 1_555 1_555
O5 C8 1_555 1_555
O6 C14 1_555 1_555
H15 O6 1_555 1_555
C5 C6 1_555 1_555
C11 N1 1_555 1_555
C13 C14 1_555 1_555
C13 N1 1_555 1_555

#END
