
#######################################################################
#
#                 Cambridge Crystallographic Data Centre
#                                CCDC 
#
#######################################################################
#
# If this CIF has been generated from an entry in the Cambridge 
# Structural Database, then it will include bibliographic, chemical, 
# crystal, experimental, refinement or atomic coordinate data resulting 
# from the CCDC's data processing and validation procedures.
#
#######################################################################

data_EBOPAM
_chemical_formula_moiety         'C18 H31 B1 Cl1 O2 P1'
_chemical_name_systematic        
2-Chloro-2-(tris-(t-butyl)phosphino)-1,3,2-benzodioxaborole
_symmetry_cell_setting           orthorhombic
_symmetry_space_group_name_H-M   'P n a 21'
_symmetry_Int_Tables_number      33
_space_group_name_Hall           'P 2c -2n'
loop_
_symmetry_equiv_pos_site_id
_symmetry_equiv_pos_as_xyz
1 x,y,z
2 -x,-y,1/2+z
3 1/2+x,1/2-y,z
4 1/2-x,1/2+y,1/2+z
_cell_length_a                   16.664(1)
_cell_length_b                   13.455(5)
_cell_length_c                   8.546(1)
_cell_angle_alpha                90
_cell_angle_beta                 90
_cell_angle_gamma                90
_cell_volume                     1916.13
_exptl_crystal_colour            colorless
_exptl_crystal_description       block
_cell_formula_units_Z            4
_exptl_crystal_recrystallization_method toluene/hexane
loop_
_atom_site_label
_atom_site_type_symbol
_atom_site_fract_x
_atom_site_fract_y
_atom_site_fract_z
P1 P 0.203568(17) 0.33192(2) 0.48357(4)
Cl1 Cl 0.356031(17) 0.19396(2) 0.57328(4)
B1 B 0.31664(8) 0.28684(11) 0.42200(19)
O1 O 0.31721(6) 0.24041(7) 0.26767(12)
O2 O 0.37147(5) 0.37234(7) 0.41498(11)
C1 C 0.37810(8) 0.28581(10) 0.18656(16)
C2 C 0.41024(8) 0.36412(10) 0.27393(15)
C3 C 0.47162(8) 0.42294(10) 0.21655(17)
H1 H 0.4923(9) 0.4753(12) 0.2762(18)
C4 C 0.49951(8) 0.40170(11) 0.06542(19)
H2 H 0.5401(11) 0.4403(14) 0.025(2)
C5 C 0.46688(8) 0.32531(12) -0.0220(2)
H3 H 0.4877(12) 0.3149(13) -0.117(3)
C6 C 0.40492(8) 0.26527(11) 0.03730(17)
H4 H 0.3833(10) 0.2179(13) -0.024(2)
C7 C 0.15491(8) 0.38440(10) 0.29910(15)
C8 C 0.08103(9) 0.45055(12) 0.3326(2)
H5 H 0.0592(10) 0.4701(13) 0.238(2)
H6 H 0.0388(11) 0.4174(14) 0.383(2)
H7 H 0.0943(13) 0.5106(16) 0.391(2)
C9 C 0.21694(9) 0.44577(11) 0.20708(18)
H8 H 0.1895(10) 0.4780(13) 0.121(2)
H9 H 0.2421(10) 0.4972(13) 0.267(2)
H10 H 0.2555(10) 0.4027(15) 0.168(2)
C10 C 0.12844(9) 0.29978(12) 0.18798(17)
H11 H 0.1710(10) 0.2533(13) 0.162(2)
H12 H 0.0823(12) 0.2632(14) 0.232(3)
H13 H 0.1133(11) 0.3330(13) 0.098(3)
C11 C 0.14246(7) 0.22316(9) 0.56136(17)
C12 C 0.16082(8) 0.13064(10) 0.46046(17)
H14 H 0.1305(9) 0.0733(13) 0.504(2)
H15 H 0.1452(9) 0.1383(13) 0.354(2)
H16 H 0.2177(10) 0.1109(13) 0.463(2)
C13 C 0.05143(7) 0.24321(11) 0.55709(18)
H17 H 0.0333(10) 0.2993(13) 0.618(2)
H18 H 0.0339(10) 0.2560(13) 0.452(2)
H19 H 0.0243(11) 0.1893(14) 0.594(2)
C14 C 0.16463(8) 0.19646(11) 0.73142(17)
H20 H 0.1388(9) 0.1347(13) 0.758(2)
H21 H 0.2216(11) 0.1804(13) 0.746(2)
H22 H 0.1491(8) 0.2466(12) 0.8083(19)
C15 C 0.21412(8) 0.43293(10) 0.63758(16)
C16 C 0.24582(9) 0.53008(10) 0.5644(2)
H23 H 0.2959(10) 0.5212(13) 0.515(2)
H24 H 0.2091(10) 0.5623(12) 0.490(2)
H25 H 0.2552(9) 0.5765(13) 0.657(2)
C17 C 0.13466(9) 0.45691(12) 0.72272(18)
H26 H 0.1462(11) 0.5176(16) 0.790(3)
H27 H 0.0934(10) 0.4771(12) 0.651(2)
H28 H 0.1160(11) 0.4026(14) 0.785(2)
C18 C 0.27751(9) 0.39972(12) 0.75893(18)
H29 H 0.2642(11) 0.3432(15) 0.810(2)
H30 H 0.3315(11) 0.3931(13) 0.713(2)
H31 H 0.2826(10) 0.4504(14) 0.841(2)
loop_
_geom_bond_atom_site_label_1
_geom_bond_atom_site_label_2
_geom_bond_site_symmetry_1
_geom_bond_site_symmetry_2
P1 B1 1_555 1_555
Cl1 B1 1_555 1_555
B1 O1 1_555 1_555
O1 C1 1_555 1_555
O2 B1 1_555 1_555
C1 C2 1_555 1_555
C2 O2 1_555 1_555
C3 C2 1_555 1_555
H1 C3 1_555 1_555
C4 C3 1_555 1_555
H2 C4 1_555 1_555
C5 C4 1_555 1_555
H3 C5 1_555 1_555
C6 C1 1_555 1_555
H4 C6 1_555 1_555
C7 P1 1_555 1_555
C8 C7 1_555 1_555
H5 C8 1_555 1_555
H6 C8 1_555 1_555
H7 C8 1_555 1_555
C9 C7 1_555 1_555
H8 C9 1_555 1_555
H9 C9 1_555 1_555
H10 C9 1_555 1_555
C10 C7 1_555 1_555
H11 C10 1_555 1_555
H12 C10 1_555 1_555
H13 C10 1_555 1_555
C11 P1 1_555 1_555
C12 C11 1_555 1_555
H14 C12 1_555 1_555
H15 C12 1_555 1_555
H16 C12 1_555 1_555
C13 C11 1_555 1_555
H17 C13 1_555 1_555
H18 C13 1_555 1_555
H19 C13 1_555 1_555
C14 C11 1_555 1_555
H20 C14 1_555 1_555
H21 C14 1_555 1_555
H22 C14 1_555 1_555
C15 P1 1_555 1_555
C16 C15 1_555 1_555
H23 C16 1_555 1_555
H24 C16 1_555 1_555
H25 C16 1_555 1_555
C17 C15 1_555 1_555
H26 C17 1_555 1_555
H27 C17 1_555 1_555
H28 C17 1_555 1_555
C18 C15 1_555 1_555
H29 C18 1_555 1_555
H30 C18 1_555 1_555
H31 C18 1_555 1_555
C5 C6 1_555 1_555

#END
