
#######################################################################
#
#                 Cambridge Crystallographic Data Centre
#                                CCDC 
#
#######################################################################
#
# If this CIF has been generated from an entry in the Cambridge 
# Structural Database, then it will include bibliographic, chemical, 
# crystal, experimental, refinement or atomic coordinate data resulting 
# from the CCDC's data processing and validation procedures.
#
#######################################################################

data_EBOTAT
_chemical_formula_moiety         'C33 H24 N2'
_chemical_name_systematic        
N-(4-(2-(4-(9H-carbazol-9-yl)phenyl)vinyl)phenyl)-1-phenylmethanimine
_chemical_properties_biological  
'cytotoxic effect against HeLa cells was tested, showed low cyctotoxicity.'
_symmetry_cell_setting           monoclinic
_symmetry_space_group_name_H-M   'C 2/c'
_symmetry_Int_Tables_number      15
_space_group_name_Hall           '-C 2yn'
loop_
_symmetry_equiv_pos_site_id
_symmetry_equiv_pos_as_xyz
1 x,y,z
2 -x,y,1/2-z
3 1/2+x,1/2+y,z
4 1/2-x,1/2+y,1/2-z
5 -x,-y,-z
6 x,-y,1/2+z
7 1/2-x,1/2-y,-z
8 1/2+x,1/2-y,1/2+z
_cell_length_a                   36.888(6)
_cell_length_b                   11.0226(19)
_cell_length_c                   46.003(8)
_cell_angle_alpha                90
_cell_angle_beta                 92.876(2)
_cell_angle_gamma                90
_cell_volume                     18681.3
_exptl_crystal_colour            yellow
_exptl_crystal_description       block
_cell_formula_units_Z            32
loop_
_atom_site_label
_atom_site_type_symbol
_atom_site_fract_x
_atom_site_fract_y
_atom_site_fract_z
C1 C 0.40445(13) 1.2422(4) 0.19327(10)
C2 C 0.39098(13) 1.3240(5) 0.21348(11)
C3 C 0.41486(17) 1.3869(6) 0.23215(13)
H1 H 0.4062 1.4398 0.2460
C4 C 0.45142(16) 1.3702(6) 0.22996(13)
H2 H 0.4677 1.4136 0.2421
C5 C 0.46452(14) 1.2894(5) 0.20995(12)
H3 H 0.4895 1.2793 0.2091
C6 C 0.44155(13) 1.2230(5) 0.19117(10)
H4 H 0.4505 1.1685 0.1778
C7 C 0.35199(14) 1.3232(5) 0.20914(10)
C8 C 0.34355(13) 1.2418(5) 0.18642(10)
C9 C 0.30792(13) 1.2166(5) 0.17692(12)
H5 H 0.3025 1.1629 0.1617
C10 C 0.28084(14) 1.2765(5) 0.19147(12)
H6 H 0.2567 1.2623 0.1857
C11 C 0.28872(15) 1.3558(5) 0.21404(12)
H7 H 0.2698 1.3935 0.2232
C12 C 0.32396(15) 1.3803(5) 0.22325(11)
H8 H 0.3291 1.4337 0.2386
C13 C 0.37923(12) 1.1226(4) 0.15104(10)
C14 C 0.36489(12) 1.1628(5) 0.12431(10)
H9 H 0.3517 1.2346 0.1231
C15 C 0.37030(12) 1.0960(4) 0.09953(10)
H10 H 0.3606 1.1238 0.0817
C16 C 0.38998(12) 0.9878(4) 0.10050(10)
C17 C 0.40295(12) 0.9473(4) 0.12772(10)
H11 H 0.4155 0.8743 0.1290
C18 C 0.39771(13) 1.0122(4) 0.15281(10)
H12 H 0.4064 0.9826 0.1708
C19 C 0.39682(12) 0.9261(4) 0.07329(10)
H13 H 0.3869 0.9610 0.0563
C20 C 0.41598(13) 0.8240(4) 0.07034(10)
H14 H 0.4240 0.7848 0.0874
C21 C 0.42548(12) 0.7682(4) 0.04302(10)
C22 C 0.41912(12) 0.8279(4) 0.01583(9)
H15 H 0.4084 0.9043 0.0151
C23 C 0.42893(12) 0.7726(4) -0.00964(10)
H16 H 0.4252 0.8134 -0.0272
C24 C 0.44416(13) 0.6584(5) -0.00949(10)
C25 C 0.45084(12) 0.5996(4) 0.01705(9)
H17 H 0.4615 0.5232 0.0175
C26 C 0.44166(12) 0.6544(4) 0.04266(10)
H18 H 0.4464 0.6139 0.0602
C27 C 0.45488(12) 0.4995(5) -0.04141(10)
H19 H 0.4462 0.4465 -0.0276
C28 C 0.46821(12) 0.4510(4) -0.06854(10)
C29 C 0.48238(13) 0.5264(5) -0.08918(10)
H20 H 0.4825 0.6100 -0.0865
C30 C 0.49641(14) 0.4761(5) -0.11405(10)
H21 H 0.5060 0.5268 -0.1279
C31 C 0.49637(15) 0.3536(5) -0.11839(11)
H22 H 0.5061 0.3214 -0.1350
C32 C 0.48204(16) 0.2781(5) -0.09828(11)
H23 H 0.4818 0.1946 -0.1013
C33 C 0.46780(14) 0.3268(4) -0.07338(10)
H24 H 0.4579 0.2755 -0.0598
N1 N 0.37567(10) 1.1923(4) 0.17670(8)
N2 N 0.45496(10) 0.6123(4) -0.03642(8)
C34 C 0.37556(14) 0.8011(5) 0.20572(10)
C35 C 0.39576(14) 0.7245(4) 0.18836(10)
C36 C 0.43361(15) 0.7250(5) 0.18951(11)
H25 H 0.4468 0.6738 0.1780
C37 C 0.45047(16) 0.8062(6) 0.20885(12)
H26 H 0.4757 0.8088 0.2104
C38 C 0.43094(18) 0.8842(6) 0.22613(12)
H27 H 0.4432 0.9382 0.2386
C39 C 0.39357(17) 0.8815(5) 0.22478(11)
H28 H 0.3805 0.9327 0.2365
C40 C 0.33744(14) 0.7771(5) 0.19853(10)
C41 C 0.33655(14) 0.6868(5) 0.17698(10)
C42 C 0.30377(14) 0.6385(5) 0.16579(11)
H29 H 0.3033 0.5780 0.1517
C43 C 0.27207(15) 0.6836(6) 0.17633(12)
H30 H 0.2499 0.6533 0.1691
C44 C 0.27282(16) 0.7737(6) 0.19754(12)
H31 H 0.2511 0.8018 0.2044
C45 C 0.30519(15) 0.8225(5) 0.20861(11)
H32 H 0.3054 0.8841 0.2224
C46 C 0.38047(14) 0.5869(5) 0.14582(11)
C47 C 0.40551(16) 0.4920(5) 0.14770(13)
H33 H 0.4172 0.4711 0.1654
C48 C 0.41260(17) 0.4291(5) 0.12213(15)
H34 H 0.4294 0.3661 0.1231
C49 C 0.3954(2) 0.4576(6) 0.09539(14)
C50 C 0.3709(2) 0.5507(6) 0.09475(12)
H35 H 0.3586 0.5706 0.0772
C51 C 0.36396(17) 0.6150(5) 0.11905(11)
H36 H 0.3477 0.6795 0.1176
C52 C 0.39869(18) 0.3877(6) 0.06573(16)
H37 H 0.3801 0.3920 0.0513
C53 C 0.42567(19) 0.3284(6) 0.06189(17)
H38 H 0.4442 0.3248 0.0763
C54 C 0.42928(17) 0.2592(5) 0.03327(11)
C55 C 0.46412(16) 0.2289(5) 0.02607(11)
H39 H 0.4837 0.2560 0.0379
C56 C 0.47060(14) 0.1608(5) 0.00220(10)
H40 H 0.4944 0.1429 -0.0020
C57 C 0.44194(13) 0.1171(4) -0.01614(10)
C58 C 0.40698(13) 0.1476(4) -0.00960(10)
H41 H 0.3875 0.1209 -0.0215
C59 C 0.40073(16) 0.2183(5) 0.01487(12)
H42 H 0.3770 0.2385 0.0189
C60 C 0.47593(12) 0.0227(4) -0.05148(10)
H43 H 0.4967 0.0549 -0.0421
C61 C 0.47966(12) -0.0500(4) -0.07765(10)
C62 C 0.51384(13) -0.0658(5) -0.08874(10)
H44 H 0.5341 -0.0321 -0.0789
C63 C 0.51825(14) -0.1304(4) -0.11398(10)
H45 H 0.5413 -0.1404 -0.1210
C64 C 0.48871(14) -0.1794(5) -0.12858(11)
H46 H 0.4916 -0.2214 -0.1458
C65 C 0.45459(14) -0.1673(4) -0.11798(10)
H47 H 0.4346 -0.2018 -0.1280
C66 C 0.44995(12) -0.1041(4) -0.09248(10)
H48 H 0.4270 -0.0976 -0.0852
N3 N 0.37175(11) 0.6546(4) 0.17067(8)
N4 N 0.44516(10) 0.0436(4) -0.04111(8)
C67 C 0.10173(14) 1.0828(5) 0.20694(10)
C68 C 0.09314(13) 0.9934(5) 0.18555(10)
C69 C 0.05762(14) 0.9640(5) 0.17709(11)
H49 H 0.0523 0.9061 0.1628
C70 C 0.03012(15) 1.0251(5) 0.19092(12)
H50 H 0.0060 1.0070 0.1859
C71 C 0.03817(15) 1.1120(5) 0.21190(12)
H51 H 0.0193 1.1513 0.2208
C72 C 0.07356(15) 1.1418(5) 0.22001(11)
H52 H 0.0785 1.2009 0.2341
C73 C 0.14037(14) 1.0848(5) 0.21087(10)
C74 C 0.15420(13) 0.9966(4) 0.19201(10)
C75 C 0.19090(14) 0.9789(5) 0.19011(10)
H53 H 0.1998 0.9211 0.1775
C76 C 0.21422(15) 1.0492(5) 0.20740(11)
H54 H 0.2391 1.0378 0.2066
C77 C 0.20116(16) 1.1373(5) 0.22608(12)
H55 H 0.2174 1.1841 0.2374
C78 C 0.16467(16) 1.1548(5) 0.22768(11)
H56 H 0.1561 1.2137 0.2401
C79 C 0.12873(13) 0.8685(5) 0.15133(10)
C80 C 0.11493(13) 0.9099(5) 0.12438(10)
H57 H 0.1019 0.9821 0.1231
C81 C 0.12063(13) 0.8439(5) 0.09977(10)
H58 H 0.1112 0.8722 0.0819
C82 C 0.14015(12) 0.7355(4) 0.10080(10)
C83 C 0.15296(12) 0.6928(5) 0.12829(10)
H59 H 0.1653 0.6193 0.1297
C84 C 0.14737(13) 0.7590(5) 0.15296(10)
H60 H 0.1562 0.7302 0.1710
C85 C 0.14760(12) 0.6728(5) 0.07373(10)
H61 H 0.1375 0.7076 0.0568
C86 C 0.16701(12) 0.5723(5) 0.07020(10)
H62 H 0.1757 0.5331 0.0871
C87 C 0.17599(12) 0.5175(4) 0.04269(9)
C88 C 0.16995(12) 0.5769(4) 0.01623(9)
H63 H 0.1596 0.6539 0.0158
C89 C 0.17917(12) 0.5230(4) -0.00939(10)
H64 H 0.1750 0.5646 -0.0268
C90 C 0.19457(13) 0.4078(4) -0.00980(10)
C91 C 0.20136(12) 0.3483(4) 0.01687(10)
H65 H 0.2121 0.2720 0.0172
C92 C 0.19223(12) 0.4023(4) 0.04267(10)
H66 H 0.1969 0.3618 0.0602
C93 C 0.20471(13) 0.2495(5) -0.04178(10)
H67 H 0.1957 0.1961 -0.0282
C94 C 0.21845(12) 0.2014(4) -0.06902(9)
C95 C 0.23270(12) 0.2775(5) -0.08951(10)
H68 H 0.2328 0.3610 -0.0867
C96 C 0.24665(13) 0.2280(5) -0.11404(10)
H69 H 0.2564 0.2788 -0.1278
C97 C 0.24633(15) 0.1036(5) -0.11863(11)
H70 H 0.2561 0.0713 -0.1352
C98 C 0.23153(16) 0.0288(5) -0.09871(10)
H71 H 0.2308 -0.0545 -0.1019
C99 C 0.21772(14) 0.0766(5) -0.07400(11)
H72 H 0.2078 0.0252 -0.0605
N5 N 0.12529(11) 0.9409(4) 0.17649(8)
N6 N 0.20493(10) 0.3620(4) -0.03652(8)
C100 C 0.08869(14) 0.5242(5) 0.19916(11)
C101 C 0.08715(13) 0.4384(5) 0.17667(10)
C102 C 0.05437(13) 0.3946(5) 0.16475(10)
H73 H 0.0536 0.3371 0.1499
C103 C 0.02319(15) 0.4395(5) 0.17570(12)
H74 H 0.0008 0.4125 0.1681
C104 C 0.02457(15) 0.5240(5) 0.19783(13)
H75 H 0.0029 0.5511 0.2050
C105 C 0.05603(15) 0.5691(5) 0.20949(11)
H76 H 0.0561 0.6282 0.2239
C106 C 0.12649(14) 0.5444(5) 0.20712(10)
C107 C 0.14698(15) 0.4697(5) 0.18914(10)
C108 C 0.18444(14) 0.4688(5) 0.19080(11)
H77 H 0.1975 0.4207 0.1784
C109 C 0.20177(16) 0.5419(5) 0.21146(12)
H78 H 0.2270 0.5426 0.2132
C110 C 0.18189(17) 0.6157(5) 0.22997(12)
H79 H 0.1941 0.6639 0.2439
C111 C 0.14490(16) 0.6170(5) 0.22767(11)
H80 H 0.1320 0.6665 0.2398
C112 C 0.13125(14) 0.3398(5) 0.14487(10)
C113 C 0.15567(14) 0.2454(5) 0.14596(11)
H81 H 0.1680 0.2249 0.1634
C114 C 0.16187(14) 0.1799(5) 0.12031(12)
H82 H 0.1784 0.1162 0.1210
C115 C 0.14374(15) 0.2089(5) 0.09426(11)
C116 C 0.11944(15) 0.3045(5) 0.09348(11)
H83 H 0.1069 0.3251 0.0761
C117 C 0.11384(15) 0.3691(5) 0.11848(11)
H84 H 0.0979 0.4345 0.1176
C118 C 0.14834(15) 0.1390(5) 0.06706(11)
H85 H 0.1293 0.1423 0.0530
C119 C 0.17633(15) 0.0738(5) 0.06096(11)
H86 H 0.1953 0.0690 0.0751
C120 C 0.18061(15) 0.0067(5) 0.03359(10)
C121 C 0.15220(14) -0.0344(5) 0.01508(10)
H87 H 0.1286 -0.0149 0.0195
C122 C 0.15756(13) -0.1022(4) -0.00933(10)
H88 H 0.1377 -0.1275 -0.0211
C123 C 0.19251(13) -0.1336(4) -0.01668(10)
C124 C 0.22145(13) -0.0934(4) 0.00160(10)
H89 H 0.2451 -0.1126 -0.0028
C125 C 0.21532(13) -0.0257(4) 0.02600(10)
H90 H 0.2351 -0.0006 0.0378
C126 C 0.22570(13) -0.2273(4) -0.05250(10)
H91 H 0.2465 -0.1946 -0.0433
C127 C 0.22956(12) -0.3000(4) -0.07859(10)
C128 C 0.19991(12) -0.3533(4) -0.09349(9)
H92 H 0.1770 -0.3463 -0.0861
C129 C 0.20387(13) -0.4164(5) -0.11901(10)
H93 H 0.1838 -0.4497 -0.1291
C130 C 0.23805(13) -0.4294(4) -0.12935(10)
H94 H 0.2409 -0.4728 -0.1464
C131 C 0.26776(14) -0.3801(4) -0.11514(11)
H95 H 0.2907 -0.3902 -0.1223
C132 C 0.26346(13) -0.3151(4) -0.08996(10)
H96 H 0.2837 -0.2805 -0.0804
N7 N 0.12268(11) 0.4063(4) 0.17008(9)
N8 N 0.19527(10) -0.2062(4) -0.04169(8)
loop_
_geom_bond_atom_site_label_1
_geom_bond_atom_site_label_2
_geom_bond_site_symmetry_1
_geom_bond_site_symmetry_2
C1 C2 1_555 1_555
C2 C3 1_555 1_555
C3 H1 1_555 1_555
C4 C3 1_555 1_555
H2 C4 1_555 1_555
C5 C4 1_555 1_555
H3 C5 1_555 1_555
C6 C1 1_555 1_555
H4 C6 1_555 1_555
C7 C2 1_555 1_555
C8 C7 1_555 1_555
C9 C8 1_555 1_555
H5 C9 1_555 1_555
C10 C9 1_555 1_555
H6 C10 1_555 1_555
C11 C10 1_555 1_555
H7 C11 1_555 1_555
C12 C7 1_555 1_555
H8 C12 1_555 1_555
C13 C14 1_555 1_555
C14 H9 1_555 1_555
C15 C14 1_555 1_555
H10 C15 1_555 1_555
C16 C15 1_555 1_555
C17 C16 1_555 1_555
H11 C17 1_555 1_555
C18 C13 1_555 1_555
H12 C18 1_555 1_555
C19 C16 1_555 1_555
H13 C19 1_555 1_555
C20 C19 1_555 1_555
H14 C20 1_555 1_555
C21 C20 1_555 1_555
C22 C21 1_555 1_555
H15 C22 1_555 1_555
C23 C22 1_555 1_555
H16 C23 1_555 1_555
C24 C23 1_555 1_555
C25 C24 1_555 1_555
H17 C25 1_555 1_555
C26 C21 1_555 1_555
H18 C26 1_555 1_555
C27 H19 1_555 1_555
C28 C27 1_555 1_555
C29 C28 1_555 1_555
H20 C29 1_555 1_555
C30 C29 1_555 1_555
H21 C30 1_555 1_555
C31 C30 1_555 1_555
H22 C31 1_555 1_555
C32 C31 1_555 1_555
H23 C32 1_555 1_555
C33 C28 1_555 1_555
H24 C33 1_555 1_555
N1 C1 1_555 1_555
N2 C24 1_555 1_555
C34 C35 1_555 1_555
C35 C36 1_555 1_555
C36 H25 1_555 1_555
C37 C36 1_555 1_555
H26 C37 1_555 1_555
C38 C37 1_555 1_555
H27 C38 1_555 1_555
C39 C34 1_555 1_555
H28 C39 1_555 1_555
C40 C34 1_555 1_555
C41 C40 1_555 1_555
C42 C41 1_555 1_555
H29 C42 1_555 1_555
C43 C42 1_555 1_555
H30 C43 1_555 1_555
C44 C43 1_555 1_555
H31 C44 1_555 1_555
C45 C40 1_555 1_555
H32 C45 1_555 1_555
C46 C47 1_555 1_555
C47 H33 1_555 1_555
C48 C47 1_555 1_555
H34 C48 1_555 1_555
C49 C48 1_555 1_555
C50 C49 1_555 1_555
H35 C50 1_555 1_555
C51 C46 1_555 1_555
H36 C51 1_555 1_555
C52 C49 1_555 1_555
H37 C52 1_555 1_555
C53 C52 1_555 1_555
H38 C53 1_555 1_555
C54 C53 1_555 1_555
C55 C54 1_555 1_555
H39 C55 1_555 1_555
C56 C55 1_555 1_555
H40 C56 1_555 1_555
C57 C56 1_555 1_555
C58 C57 1_555 1_555
H41 C58 1_555 1_555
C59 C54 1_555 1_555
H42 C59 1_555 1_555
C60 H43 1_555 1_555
C61 C60 1_555 1_555
C62 C61 1_555 1_555
H44 C62 1_555 1_555
C63 C62 1_555 1_555
H45 C63 1_555 1_555
C64 C63 1_555 1_555
H46 C64 1_555 1_555
C65 C64 1_555 1_555
H47 C65 1_555 1_555
C66 C61 1_555 1_555
H48 C66 1_555 1_555
N3 C35 1_555 1_555
N4 C57 1_555 1_555
C67 C68 1_555 1_555
C68 C69 1_555 1_555
C69 H49 1_555 1_555
C70 C69 1_555 1_555
H50 C70 1_555 1_555
C71 C70 1_555 1_555
H51 C71 1_555 1_555
C72 C67 1_555 1_555
H52 C72 1_555 1_555
C73 C67 1_555 1_555
C74 C73 1_555 1_555
C75 C74 1_555 1_555
H53 C75 1_555 1_555
C76 C75 1_555 1_555
H54 C76 1_555 1_555
C77 C76 1_555 1_555
H55 C77 1_555 1_555
C78 C73 1_555 1_555
H56 C78 1_555 1_555
C79 C80 1_555 1_555
C80 H57 1_555 1_555
C81 C80 1_555 1_555
H58 C81 1_555 1_555
C82 C81 1_555 1_555
C83 C82 1_555 1_555
H59 C83 1_555 1_555
C84 C79 1_555 1_555
H60 C84 1_555 1_555
C85 C82 1_555 1_555
H61 C85 1_555 1_555
C86 C85 1_555 1_555
H62 C86 1_555 1_555
C87 C86 1_555 1_555
C88 C87 1_555 1_555
H63 C88 1_555 1_555
C89 C88 1_555 1_555
H64 C89 1_555 1_555
C90 C89 1_555 1_555
C91 C90 1_555 1_555
H65 C91 1_555 1_555
C92 C87 1_555 1_555
H66 C92 1_555 1_555
C93 H67 1_555 1_555
C94 C93 1_555 1_555
C95 C94 1_555 1_555
H68 C95 1_555 1_555
C96 C95 1_555 1_555
H69 C96 1_555 1_555
C97 C96 1_555 1_555
H70 C97 1_555 1_555
C98 C97 1_555 1_555
H71 C98 1_555 1_555
C99 C94 1_555 1_555
H72 C99 1_555 1_555
N5 C68 1_555 1_555
N6 C90 1_555 1_555
C100 C101 1_555 1_555
C101 C102 1_555 1_555
C102 H73 1_555 1_555
C103 C102 1_555 1_555
H74 C103 1_555 1_555
C104 C103 1_555 1_555
H75 C104 1_555 1_555
C105 C100 1_555 1_555
H76 C105 1_555 1_555
C106 C100 1_555 1_555
C107 C106 1_555 1_555
C108 C107 1_555 1_555
H77 C108 1_555 1_555
C109 C108 1_555 1_555
H78 C109 1_555 1_555
C110 C109 1_555 1_555
H79 C110 1_555 1_555
C111 C106 1_555 1_555
H80 C111 1_555 1_555
C112 C113 1_555 1_555
C113 H81 1_555 1_555
C114 C113 1_555 1_555
H82 C114 1_555 1_555
C115 C114 1_555 1_555
C116 C115 1_555 1_555
H83 C116 1_555 1_555
C117 C112 1_555 1_555
H84 C117 1_555 1_555
C118 C115 1_555 1_555
H85 C118 1_555 1_555
C119 C118 1_555 1_555
H86 C119 1_555 1_555
C120 C119 1_555 1_555
C121 C120 1_555 1_555
H87 C121 1_555 1_555
C122 C121 1_555 1_555
H88 C122 1_555 1_555
C123 C122 1_555 1_555
C124 C123 1_555 1_555
H89 C124 1_555 1_555
C125 C120 1_555 1_555
H90 C125 1_555 1_555
C126 H91 1_555 1_555
C127 C126 1_555 1_555
C128 C127 1_555 1_555
H92 C128 1_555 1_555
C129 C128 1_555 1_555
H93 C129 1_555 1_555
C130 C129 1_555 1_555
H94 C130 1_555 1_555
C131 C130 1_555 1_555
H95 C131 1_555 1_555
C132 C127 1_555 1_555
H96 C132 1_555 1_555
N7 C101 1_555 1_555
N8 C123 1_555 1_555
C5 C6 1_555 1_555
C8 N1 1_555 1_555
C11 C12 1_555 1_555
C13 N1 1_555 1_555
C17 C18 1_555 1_555
C25 C26 1_555 1_555
C27 N2 1_555 1_555
C32 C33 1_555 1_555
C38 C39 1_555 1_555
C41 N3 1_555 1_555
C44 C45 1_555 1_555
C46 N3 1_555 1_555
C50 C51 1_555 1_555
C58 C59 1_555 1_555
C60 N4 1_555 1_555
C65 C66 1_555 1_555
C71 C72 1_555 1_555
C74 N5 1_555 1_555
C77 C78 1_555 1_555
C79 N5 1_555 1_555
C83 C84 1_555 1_555
C91 C92 1_555 1_555
C93 N6 1_555 1_555
C98 C99 1_555 1_555
C104 C105 1_555 1_555
C107 N7 1_555 1_555
C110 C111 1_555 1_555
C112 N7 1_555 1_555
C116 C117 1_555 1_555
C124 C125 1_555 1_555
C126 N8 1_555 1_555
C131 C132 1_555 1_555

#END
