
#######################################################################
#
#                 Cambridge Crystallographic Data Centre
#                                CCDC 
#
#######################################################################
#
# If this CIF has been generated from an entry in the Cambridge 
# Structural Database, then it will include bibliographic, chemical, 
# crystal, experimental, refinement or atomic coordinate data resulting 
# from the CCDC's data processing and validation procedures.
#
#######################################################################

data_EBUJIW
_chemical_formula_moiety         'C22 H15 N2 O2 1-,C3 H10 N1 1+,0.5(C2 H3 N1)'
_chemical_name_systematic        
'Propan-1-aminium 2-cyano-3-(4-(diphenylamino)phenyl)acrylate acetonitrile solvate'
_symmetry_cell_setting           monoclinic
_symmetry_space_group_name_H-M   'P 21/c'
_symmetry_Int_Tables_number      14
_space_group_name_Hall           '-P 2ybc'
loop_
_symmetry_equiv_pos_site_id
_symmetry_equiv_pos_as_xyz
1 x,y,z
2 -x,1/2+y,1/2-z
3 -x,-y,-z
4 x,1/2-y,1/2+z
_cell_length_a                   20.497(8)
_cell_length_b                   6.687(3)
_cell_length_c                   20.628(8)
_cell_angle_alpha                90
_cell_angle_beta                 118.114(7)
_cell_angle_gamma                90
_cell_volume                     2493.75
_cell_formula_units_Z            4
loop_
_atom_site_label
_atom_site_type_symbol
_atom_site_fract_x
_atom_site_fract_y
_atom_site_fract_z
N1 N 0.0455(5) 0.918(2) 0.6084(6)
C1 C 0.0212(5) 0.8195(16) 0.5693(7)
C2 C -0.0141(8) 0.681(3) 0.5095(9)
H1 H -0.0462 0.7543 0.4644
H2 H -0.0438 0.5859 0.5206
H3 H 0.0237 0.6084 0.5025
O1 O 0.05855(13) 0.5410(3) 0.38204(13)
O2 O 0.06604(14) 0.8342(4) 0.33592(12)
N2 N 0.18058(19) 1.1508(4) 0.47543(16)
N3 N 0.39231(13) 0.7411(4) 0.81356(12)
C3 C 0.08362(16) 0.7130(5) 0.38703(16)
C4 C 0.14247(15) 0.7790(4) 0.46216(15)
C5 C 0.16298(17) 0.9863(5) 0.47040(15)
C6 C 0.17737(15) 0.6444(4) 0.51530(15)
H4 H 0.1634 0.5091 0.5018
C7 C 0.34083(15) 0.7189(4) 0.73903(15)
C8 C 0.34086(17) 0.5517(5) 0.69909(16)
H5 H 0.3781 0.4526 0.7217
C9 C 0.28751(17) 0.5280(4) 0.62707(16)
H6 H 0.2869 0.4097 0.6013
C10 C 0.23396(15) 0.6765(4) 0.59120(15)
C11 C 0.23522(15) 0.8459(4) 0.63109(15)
H7 H 0.1998 0.9488 0.6078
C12 C 0.28722(15) 0.8660(4) 0.70385(15)
H8 H 0.2866 0.9815 0.7304
C13 C 0.46267(15) 0.6430(4) 0.84356(15)
C14 C 0.50912(17) 0.6767(5) 0.81344(18)
H9 H 0.4944 0.7644 0.7727
C15 C 0.57752(18) 0.5818(5) 0.8428(2)
H10 H 0.6091 0.6035 0.8215
C16 C 0.59972(17) 0.4568(5) 0.90246(18)
H11 H 0.6468 0.3937 0.9229
C17 C 0.5531(2) 0.4239(5) 0.93220(17)
H12 H 0.5681 0.3374 0.9733
C18 C 0.48453(18) 0.5159(5) 0.90274(16)
H13 H 0.4525 0.4912 0.9234
C19 C 0.37087(15) 0.8378(4) 0.86168(15)
C20 C 0.30626(19) 0.7850(6) 0.86223(19)
H14 H 0.2764 0.6807 0.8311
C21 C 0.2849(2) 0.8823(8) 0.9075(2)
H15 H 0.2398 0.8462 0.9070
C22 C 0.3279(3) 1.0319(8) 0.9536(2)
H16 H 0.3126 1.0995 0.9847
C23 C 0.3928(2) 1.0822(6) 0.95421(19)
H17 H 0.4232 1.1838 0.9865
C24 C 0.41477(19) 0.9863(5) 0.90803(17)
H18 H 0.4597 1.0227 0.9084
N4 N 0.05817(17) 0.2328(5) 0.29661(16)
C25 C 0.1216(3) 0.2762(6) 0.2863(2)
H19 H 0.1664 0.2843 0.3347
H20 H 0.1147 0.4071 0.2615
C26 C 0.1317(3) 0.1152(7) 0.2403(3)
H21 H 0.1433 -0.0129 0.2676
H22 H 0.0848 0.0977 0.1943
C27 C 0.1913(3) 0.1638(9) 0.2222(4)
H23 H 0.1960 0.0557 0.1927
H24 H 0.2380 0.1790 0.2677
H25 H 0.1795 0.2890 0.1943
H26 H 0.051(2) 0.332(6) 0.328(2)
H27 H 0.063(2) 0.089(7) 0.318(2)
H28 H 0.013(2) 0.243(6) 0.251(3)
loop_
_geom_bond_atom_site_label_1
_geom_bond_atom_site_label_2
_geom_bond_site_symmetry_1
_geom_bond_site_symmetry_2
N1 C1 1_555 1_555
C1 C2 1_555 1_555
C2 H1 1_555 1_555
H2 C2 1_555 1_555
H3 C2 1_555 1_555
O1 C3 1_555 1_555
O2 C3 1_555 1_555
N2 C5 1_555 1_555
N3 C7 1_555 1_555
C3 C4 1_555 1_555
C4 C5 1_555 1_555
C6 C4 1_555 1_555
H4 C6 1_555 1_555
C7 C8 1_555 1_555
C8 H5 1_555 1_555
C9 C8 1_555 1_555
H6 C9 1_555 1_555
C10 C6 1_555 1_555
C11 C10 1_555 1_555
H7 C11 1_555 1_555
C12 C7 1_555 1_555
H8 C12 1_555 1_555
C13 N3 1_555 1_555
C14 C13 1_555 1_555
H9 C14 1_555 1_555
C15 C14 1_555 1_555
H10 C15 1_555 1_555
C16 C15 1_555 1_555
H11 C16 1_555 1_555
C17 C16 1_555 1_555
H12 C17 1_555 1_555
C18 C13 1_555 1_555
H13 C18 1_555 1_555
C19 N3 1_555 1_555
C20 C19 1_555 1_555
H14 C20 1_555 1_555
C21 C20 1_555 1_555
H15 C21 1_555 1_555
C22 C21 1_555 1_555
H16 C22 1_555 1_555
C23 C22 1_555 1_555
H17 C23 1_555 1_555
C24 C19 1_555 1_555
H18 C24 1_555 1_555
N4 C25 1_555 1_555
C25 H19 1_555 1_555
H20 C25 1_555 1_555
C26 C25 1_555 1_555
H21 C26 1_555 1_555
H22 C26 1_555 1_555
C27 C26 1_555 1_555
H23 C27 1_555 1_555
H24 C27 1_555 1_555
H25 C27 1_555 1_555
H26 N4 1_555 1_555
H27 N4 1_555 1_555
H28 N4 1_555 1_555
C9 C10 1_555 1_555
C11 C12 1_555 1_555
C17 C18 1_555 1_555
C23 C24 1_555 1_555

#END
