
#######################################################################
#
#                 Cambridge Crystallographic Data Centre
#                                CCDC 
#
#######################################################################
#
# If this CIF has been generated from an entry in the Cambridge 
# Structural Database, then it will include bibliographic, chemical, 
# crystal, experimental, refinement or atomic coordinate data resulting 
# from the CCDC's data processing and validation procedures.
#
#######################################################################

data_EBUJER
_chemical_formula_moiety         'C34 H39 Li1 N1 O2 P1'
_chemical_name_systematic        
(N-(2-(Diphenylphosphino)phenyl)-2,6-dimethylaniline-N,P)-bis(tetrahydrofuran)-lithium
_symmetry_cell_setting           monoclinic
_symmetry_space_group_name_H-M   'P 21/c'
_symmetry_Int_Tables_number      14
_space_group_name_Hall           '-P 2ybc'
loop_
_symmetry_equiv_pos_site_id
_symmetry_equiv_pos_as_xyz
1 x,y,z
2 x,1/2-y,1/2+z
3 -x,-y,-z
4 -x,1/2+y,1/2-z
_cell_length_a                   13.818(2)
_cell_length_b                   12.222(2)
_cell_length_c                   17.973(3)
_cell_angle_alpha                90
_cell_angle_beta                 98.969(3)
_cell_angle_gamma                90
_cell_volume                     2998.23
_exptl_crystal_colour            orange
_exptl_crystal_description       Plate
_cell_formula_units_Z            4
_exptl_crystal_recrystallization_method 'diethyl ether'
loop_
_atom_site_label
_atom_site_type_symbol
_atom_site_fract_x
_atom_site_fract_y
_atom_site_fract_z
Li1 Li 0.8541(4) 0.7642(4) 0.5085(3)
N1 N 0.77630(16) 0.79477(18) 0.40784(12)
P1 P 0.72665(5) 0.91073(6) 0.53759(4)
C1 C 0.6290(2) 0.8153(2) 0.55093(15)
C2 C 0.5588(2) 0.7795(2) 0.49117(16)
H1 H 0.5583 0.8090 0.4434
C3 C 0.4906(2) 0.7014(2) 0.50200(18)
H2 H 0.4450 0.6783 0.4614
C4 C 0.4890(2) 0.6571(2) 0.57213(19)
H3 H 0.4428 0.6044 0.5792
C5 C 0.5568(2) 0.6919(2) 0.63170(18)
H4 H 0.5558 0.6630 0.6794
C6 C 0.6262(2) 0.7689(2) 0.62149(16)
H5 H 0.6720 0.7905 0.6624
C7 C 0.7007(2) 1.0285(2) 0.59367(14)
C8 C 0.7750(2) 1.1057(2) 0.61121(15)
H6 H 0.8331 1.0978 0.5917
C9 C 0.7635(2) 1.1939(2) 0.65724(16)
H7 H 0.8134 1.2452 0.6678
C10 C 0.6788(2) 1.2062(2) 0.68749(17)
H8 H 0.6720 1.2647 0.7193
C11 C 0.6040(2) 1.1314(2) 0.67040(16)
H9 H 0.5462 1.1396 0.6903
C12 C 0.6152(2) 1.0439(2) 0.62357(15)
H10 H 0.5640 0.9943 0.6119
C13 C 0.69294(18) 0.9562(2) 0.44087(14)
C14 C 0.64024(19) 1.0506(2) 0.41959(16)
H11 H 0.6212 1.0952 0.4567
C15 C 0.6149(2) 1.0808(2) 0.34412(16)
H12 H 0.5807 1.1451 0.3306
C16 C 0.6426(2) 1.0118(2) 0.28994(16)
H13 H 0.6248 1.0293 0.2393
C17 C 0.6954(2) 0.9186(2) 0.30899(15)
H14 H 0.7131 0.8752 0.2708
C18 C 0.72396(19) 0.8861(2) 0.38474(15)
C19 C 0.8075(2) 0.7270(2) 0.35261(15)
C20 C 0.8974(2) 0.7479(2) 0.32791(16)
C21 C 0.9352(2) 0.6731(3) 0.28185(17)
H15 H 0.9952 0.6868 0.2663
C22 C 0.8843(2) 0.5782(3) 0.25885(17)
H16 H 0.9113 0.5266 0.2301
C23 C 0.7937(2) 0.5609(2) 0.27887(16)
H17 H 0.7587 0.4984 0.2618
C24 C 0.7530(2) 0.6348(2) 0.32402(15)
C25 C 0.6500(2) 0.6192(3) 0.33920(17)
H18 H 0.6467 0.6375 0.3907
H19 H 0.6308 0.5442 0.3301
H20 H 0.6065 0.6659 0.3065
C26 C 0.9514(2) 0.8536(3) 0.34954(19)
H21 H 1.0057 0.8601 0.3224
H22 H 0.9750 0.8536 0.4027
H23 H 0.9077 0.9143 0.3372
C27 C 1.0438(2) 0.8700(3) 0.58056(19)
H24 H 1.0011 0.9056 0.6111
H25 H 1.0648 0.9236 0.5466
C28 C 1.1301(2) 0.8203(3) 0.62907(19)
H26 H 1.1120 0.7899 0.6748
H27 H 1.1821 0.8734 0.6422
C29 C 1.1600(3) 0.7315(3) 0.5787(2)
H28 H 1.1886 0.6699 0.6083
H29 H 1.2073 0.7591 0.5487
C30 C 1.0659(3) 0.6983(3) 0.5288(2)
H30 H 1.0754 0.6954 0.4765
H31 H 1.0447 0.6268 0.5433
C31 C 0.7618(3) 0.5484(3) 0.52731(19)
H32 H 0.7846 0.5089 0.4866
H33 H 0.7005 0.5841 0.5076
C32 C 0.7471(3) 0.4721(3) 0.5880(3)
H34 H 0.7435 0.3970 0.5703
H35 H 0.6879 0.4895 0.6083
C33 C 0.8396(3) 0.4909(3) 0.6475(2)
H36 H 0.8265 0.4763 0.6981
H37 H 0.8937 0.4454 0.6376
C34 C 0.8606(3) 0.6097(3) 0.63718(18)
H38 H 0.8221 0.6550 0.6658
H39 H 0.9295 0.6255 0.6532
O1 O 0.99442(15) 0.78033(17) 0.53920(13)
O2 O 0.83331(15) 0.62857(16) 0.55768(11)
loop_
_geom_bond_atom_site_label_1
_geom_bond_atom_site_label_2
_geom_bond_site_symmetry_1
_geom_bond_site_symmetry_2
Li1 N1 1_555 1_555
N1 C18 1_555 1_555
P1 Li1 1_555 1_555
C1 P1 1_555 1_555
C2 C1 1_555 1_555
H1 C2 1_555 1_555
C3 C2 1_555 1_555
H2 C3 1_555 1_555
C4 C3 1_555 1_555
H3 C4 1_555 1_555
C5 C4 1_555 1_555
H4 C5 1_555 1_555
C6 C1 1_555 1_555
H5 C6 1_555 1_555
C7 P1 1_555 1_555
C8 C7 1_555 1_555
H6 C8 1_555 1_555
C9 C8 1_555 1_555
H7 C9 1_555 1_555
C10 C9 1_555 1_555
H8 C10 1_555 1_555
C11 C10 1_555 1_555
H9 C11 1_555 1_555
C12 C7 1_555 1_555
H10 C12 1_555 1_555
C13 P1 1_555 1_555
C14 C13 1_555 1_555
H11 C14 1_555 1_555
C15 C14 1_555 1_555
H12 C15 1_555 1_555
C16 C15 1_555 1_555
H13 C16 1_555 1_555
C17 C16 1_555 1_555
H14 C17 1_555 1_555
C18 C13 1_555 1_555
C19 N1 1_555 1_555
C20 C19 1_555 1_555
C21 C20 1_555 1_555
H15 C21 1_555 1_555
C22 C21 1_555 1_555
H16 C22 1_555 1_555
C23 C22 1_555 1_555
H17 C23 1_555 1_555
C24 C19 1_555 1_555
C25 C24 1_555 1_555
H18 C25 1_555 1_555
H19 C25 1_555 1_555
H20 C25 1_555 1_555
C26 C20 1_555 1_555
H21 C26 1_555 1_555
H22 C26 1_555 1_555
H23 C26 1_555 1_555
C27 H24 1_555 1_555
H25 C27 1_555 1_555
C28 C27 1_555 1_555
H26 C28 1_555 1_555
H27 C28 1_555 1_555
C29 C28 1_555 1_555
H28 C29 1_555 1_555
H29 C29 1_555 1_555
C30 C29 1_555 1_555
H30 C30 1_555 1_555
H31 C30 1_555 1_555
C31 H32 1_555 1_555
H33 C31 1_555 1_555
C32 C31 1_555 1_555
H34 C32 1_555 1_555
H35 C32 1_555 1_555
C33 C32 1_555 1_555
H36 C33 1_555 1_555
H37 C33 1_555 1_555
C34 C33 1_555 1_555
H38 C34 1_555 1_555
H39 C34 1_555 1_555
O1 Li1 1_555 1_555
O2 Li1 1_555 1_555
C5 C6 1_555 1_555
C11 C12 1_555 1_555
C17 C18 1_555 1_555
C23 C24 1_555 1_555
C27 O1 1_555 1_555
C30 O1 1_555 1_555
C31 O2 1_555 1_555
C34 O2 1_555 1_555

#END
