
#######################################################################
#
#                 Cambridge Crystallographic Data Centre
#                                CCDC 
#
#######################################################################
#
# If this CIF has been generated from an entry in the Cambridge 
# Structural Database, then it will include bibliographic, chemical, 
# crystal, experimental, refinement or atomic coordinate data resulting 
# from the CCDC's data processing and validation procedures.
#
#######################################################################

data_EBUNUN
_chemical_formula_moiety         'C30 H30 O6 Te3'
_chemical_name_systematic        
2,3,5,6,8,9-hexaethoxybistelluropheno[2',3',4',5':4,5;2'',3'',4'',5'':8,9]triphenyleno[1,12-bcd]tellurophene
_symmetry_cell_setting           monoclinic
_symmetry_space_group_name_H-M   'P 21/n'
_symmetry_Int_Tables_number      14
_space_group_name_Hall           '-P 2yn'
loop_
_symmetry_equiv_pos_site_id
_symmetry_equiv_pos_as_xyz
1 x,y,z
2 1/2-x,1/2+y,1/2-z
3 -x,-y,-z
4 1/2+x,1/2-y,1/2+z
_cell_length_a                   15.5616(4)
_cell_length_b                   24.9422(5)
_cell_length_c                   15.8574(5)
_cell_angle_alpha                90
_cell_angle_beta                 104.681(3)
_cell_angle_gamma                90
_cell_volume                     5953.95
_exptl_crystal_colour            'pale yellow'
_exptl_crystal_description       needle
_chemical_melting_point          '410 K'
_cell_formula_units_Z            8
_chemical_properties_physical    ', Oxygen-sensitive'
_exptl_crystal_recrystallization_method dichloromethane
_exptl_crystal_preparation       ', Luminescent'
loop_
_atom_site_label
_atom_site_type_symbol
_atom_site_fract_x
_atom_site_fract_y
_atom_site_fract_z
C1 C 0.3265(6) 0.1905(3) -0.0785(5)
C2 C 0.3988(6) 0.1565(3) -0.0734(5)
C3 C 0.4842(6) 0.1785(4) -0.0725(5)
C4 C 0.4948(5) 0.2337(4) -0.0766(5)
C5 C 0.4194(6) 0.2684(3) -0.0830(5)
C6 C 0.3370(6) 0.2469(3) -0.0832(5)
C7 C 0.2431(6) 0.1681(4) -0.0823(6)
C8 C 0.2341(6) 0.1124(4) -0.0800(6)
C9 C 0.3072(6) 0.0794(4) -0.0743(6)
C10 C 0.3904(6) 0.1007(4) -0.0697(6)
C11 C 0.5566(6) 0.1438(4) -0.0679(6)
C12 C 0.6387(6) 0.1667(4) -0.0694(7)
C13 C 0.6473(6) 0.2232(4) -0.0745(7)
C14 C 0.5761(6) 0.2563(4) -0.0783(7)
C15 C 0.4309(7) 0.3242(4) -0.0909(6)
C16 C 0.3576(6) 0.3567(4) -0.1003(6)
C17 C 0.2728(6) 0.3353(4) -0.1029(6)
C18 C 0.1373(8) 0.0624(6) -0.0174(10)
H1 H 0.1730 0.0776 0.0382
H2 H 0.1530 0.0242 -0.0207
C19 C 0.0385(9) 0.0691(8) -0.0251(11)
H3 H 0.0226 0.0500 0.0228
H4 H 0.0046 0.0543 -0.0809
H5 H 0.0246 0.1073 -0.0222
C20 C 0.2568(10) -0.0008(6) -0.1532(10)
H6 H 0.2054 -0.0216 -0.1450
H7 H 0.2334 0.0279 -0.1961
C21 C 0.3101(18) -0.0346(13) -0.1881(18)
H8 H 0.2750 -0.0496 -0.2433
H9 H 0.3325 -0.0637 -0.1470
H10 H 0.3602 -0.0142 -0.1986
C22 C 0.7151(10) 0.0992(11) -0.1189(15)
H11 H 0.6966 0.1163 -0.1771
H12 H 0.6704 0.0713 -0.1164
C23 C 0.8003(9) 0.0727(7) -0.1116(11)
H13 H 0.7943 0.0463 -0.1586
H14 H 0.8188 0.0544 -0.0551
H15 H 0.8450 0.0994 -0.1161
C24 C 0.7758(12) 0.2343(9) -0.1185(18)
H16 H 0.7538 0.2559 -0.1721
H17 H 0.7680 0.1962 -0.1358
C25 C 0.8732(8) 0.2446(8) -0.0861(10)
H18 H 0.9035 0.2330 -0.1301
H19 H 0.8966 0.2244 -0.0320
H20 H 0.8834 0.2829 -0.0747
C26 C 0.3636(9) 0.4467(4) -0.0505(9)
H21 H 0.4088 0.4369 0.0034
H22 H 0.3043 0.4456 -0.0383
C27 C 0.3821(11) 0.5026(4) -0.0803(9)
H23 H 0.3800 0.5286 -0.0345
H24 H 0.3370 0.5118 -0.1337
H25 H 0.4410 0.5033 -0.0918
C28 C 0.1248(8) 0.3612(4) -0.0988(9)
H26 H 0.1353 0.3469 -0.0389
H27 H 0.0909 0.3344 -0.1400
C29 C 0.0751(9) 0.4130(5) -0.1069(11)
H28 H 0.0177 0.4071 -0.0934
H29 H 0.0652 0.4266 -0.1665
H30 H 0.1097 0.4391 -0.0659
C30 C 0.2619(6) 0.2803(4) -0.0918(6)
O1 O 0.1510(5) 0.0912(3) -0.0891(5)
O2 O 0.3006(4) 0.0241(2) -0.0708(5)
O3 O 0.7130(4) 0.1354(3) -0.0603(5)
O4 O 0.7290(6) 0.2434(4) -0.0712(9)
O5 O 0.3669(5) 0.4102(3) -0.1192(5)
O6 O 0.2068(5) 0.3729(3) -0.1188(5)
Te1 Te 0.15021(4) 0.23046(3) -0.09331(5)
Te2 Te 0.51371(5) 0.06412(3) -0.06198(5)
Te3 Te 0.56401(5) 0.34054(3) -0.08718(6)
C31 C 0.2435(6) 0.2754(3) 0.1611(6)
C32 C 0.3104(7) 0.3131(4) 0.1639(7)
C33 C 0.2879(6) 0.3687(4) 0.1575(6)
C34 C 0.1990(6) 0.3846(4) 0.1488(7)
C35 C 0.1316(6) 0.3458(4) 0.1472(6)
C36 C 0.1531(6) 0.2916(4) 0.1539(6)
C37 C 0.2631(8) 0.2221(4) 0.1715(7)
C38 C 0.3532(8) 0.2054(4) 0.1846(9)
C39 C 0.4194(8) 0.2425(4) 0.1838(9)
C40 C 0.3988(7) 0.2973(4) 0.1725(7)
C41 C 0.3538(7) 0.4064(4) 0.1638(7)
C42 C 0.3328(7) 0.4608(4) 0.1612(7)
C43 C 0.2445(8) 0.4771(4) 0.1517(8)
C44 C 0.1777(7) 0.4393(4) 0.1459(7)
C45 C 0.0452(6) 0.3624(4) 0.1415(6)
C46 C -0.0197(7) 0.3253(4) 0.1434(6)
C47 C 0.0005(7) 0.2698(4) 0.1511(6)
C48 C 0.0879(7) 0.2530(4) 0.1561(7)
C49 C 0.3883(14) 0.1243(6) 0.1466(11)
H31 H 0.4465 0.1334 0.1359
H32 H 0.3415 0.1331 0.0934
C50 C 0.3853(10) 0.0633(4) 0.1663(9)
H33 H 0.3939 0.0428 0.1164
H34 H 0.3275 0.0543 0.1766
H35 H 0.4326 0.0545 0.2182
C51 C 0.5569(12) 0.2442(7) 0.1530(8)
H36 H 0.5791 0.2799 0.1760
H37 H 0.5214 0.2486 0.0921
C52 C 0.6345(8) 0.2065(6) 0.1562(8)
H38 H 0.6724 0.2214 0.1212
H39 H 0.6118 0.1714 0.1326
H40 H 0.6691 0.2023 0.2167
C53 C 0.4151(9) 0.5307(5) 0.2460(9)
H41 H 0.3892 0.5132 0.2900
H42 H 0.3862 0.5661 0.2315
C54 C 0.5120(10) 0.5376(7) 0.2812(10)
H43 H 0.5234 0.5595 0.3342
H44 H 0.5368 0.5555 0.2376
H45 H 0.5400 0.5024 0.2950
C55 C 0.2141(10) 0.5568(4) 0.0700(9)
H46 H 0.1684 0.5385 0.0241
H47 H 0.2713 0.5556 0.0534
C56 C 0.1872(9) 0.6138(5) 0.0803(10)
H48 H 0.1810 0.6331 0.0252
H49 H 0.2328 0.6313 0.1262
H50 H 0.1304 0.6143 0.0963
C57 C -0.1368(8) 0.3462(6) 0.2074(7)
H51 H -0.1008 0.3727 0.2480
H52 H -0.1309 0.3110 0.2370
C58 C -0.2316(7) 0.3631(5) 0.1830(8)
H53 H -0.2533 0.3660 0.2357
H54 H -0.2669 0.3364 0.1437
H55 H -0.2369 0.3980 0.1537
C59 C -0.0653(12) 0.1864(7) 0.1631(17)
H56 H -0.0214 0.1792 0.2191
H57 H -0.0435 0.1691 0.1162
C60 C -0.1510(10) 0.1620(7) 0.1655(12)
H58 H -0.1430 0.1234 0.1765
H59 H -0.1943 0.1677 0.1095
H60 H -0.1728 0.1786 0.2122
O7 O 0.3765(7) 0.1518(3) 0.2105(6)
O8 O 0.5053(5) 0.2224(3) 0.2030(6)
O9 O 0.4005(5) 0.4980(3) 0.1690(6)
O10 O 0.2227(5) 0.5310(3) 0.1530(5)
O11 O -0.1067(4) 0.3428(3) 0.1316(4)
O12 O -0.0702(6) 0.2381(4) 0.1496(7)
Te4 Te 0.15020(6) 0.17702(3) 0.17364(7)
Te5 Te 0.47734(5) 0.36722(3) 0.18129(7)
Te6 Te 0.04048(5) 0.44750(3) 0.13716(5)
loop_
_geom_bond_atom_site_label_1
_geom_bond_atom_site_label_2
_geom_bond_site_symmetry_1
_geom_bond_site_symmetry_2
C1 C2 1_555 1_555
C2 C3 1_555 1_555
C3 C4 1_555 1_555
C4 C5 1_555 1_555
C5 C6 1_555 1_555
C6 C1 1_555 1_555
C7 C1 1_555 1_555
C8 C7 1_555 1_555
C9 C8 1_555 1_555
C10 C2 1_555 1_555
C11 C3 1_555 1_555
C12 C11 1_555 1_555
C13 C12 1_555 1_555
C14 C4 1_555 1_555
C15 C5 1_555 1_555
C16 C15 1_555 1_555
C17 C16 1_555 1_555
C18 H1 1_555 1_555
H2 C18 1_555 1_555
C19 C18 1_555 1_555
H3 C19 1_555 1_555
H4 C19 1_555 1_555
H5 C19 1_555 1_555
C20 H6 1_555 1_555
H7 C20 1_555 1_555
C21 C20 1_555 1_555
H8 C21 1_555 1_555
H9 C21 1_555 1_555
H10 C21 1_555 1_555
C22 H11 1_555 1_555
H12 C22 1_555 1_555
C23 C22 1_555 1_555
H13 C23 1_555 1_555
H14 C23 1_555 1_555
H15 C23 1_555 1_555
C24 H16 1_555 1_555
H17 C24 1_555 1_555
C25 C24 1_555 1_555
H18 C25 1_555 1_555
H19 C25 1_555 1_555
H20 C25 1_555 1_555
C26 H21 1_555 1_555
H22 C26 1_555 1_555
C27 C26 1_555 1_555
H23 C27 1_555 1_555
H24 C27 1_555 1_555
H25 C27 1_555 1_555
C28 H26 1_555 1_555
H27 C28 1_555 1_555
C29 C28 1_555 1_555
H28 C29 1_555 1_555
H29 C29 1_555 1_555
H30 C29 1_555 1_555
C30 C6 1_555 1_555
O1 C8 1_555 1_555
O2 C9 1_555 1_555
O3 C12 1_555 1_555
O4 C13 1_555 1_555
O5 C16 1_555 1_555
O6 C17 1_555 1_555
Te1 C7 1_555 1_555
Te2 C10 1_555 1_555
Te3 C14 1_555 1_555
C31 C32 1_555 1_555
C32 C33 1_555 1_555
C33 C34 1_555 1_555
C34 C35 1_555 1_555
C35 C36 1_555 1_555
C36 C31 1_555 1_555
C37 C31 1_555 1_555
C38 C37 1_555 1_555
C39 C38 1_555 1_555
C40 C32 1_555 1_555
C41 C33 1_555 1_555
C42 C41 1_555 1_555
C43 C42 1_555 1_555
C44 C34 1_555 1_555
C45 C35 1_555 1_555
C46 C45 1_555 1_555
C47 C46 1_555 1_555
C48 C36 1_555 1_555
C49 H31 1_555 1_555
H32 C49 1_555 1_555
C50 C49 1_555 1_555
H33 C50 1_555 1_555
H34 C50 1_555 1_555
H35 C50 1_555 1_555
C51 H36 1_555 1_555
H37 C51 1_555 1_555
C52 C51 1_555 1_555
H38 C52 1_555 1_555
H39 C52 1_555 1_555
H40 C52 1_555 1_555
C53 H41 1_555 1_555
H42 C53 1_555 1_555
C54 C53 1_555 1_555
H43 C54 1_555 1_555
H44 C54 1_555 1_555
H45 C54 1_555 1_555
C55 H46 1_555 1_555
H47 C55 1_555 1_555
C56 C55 1_555 1_555
H48 C56 1_555 1_555
H49 C56 1_555 1_555
H50 C56 1_555 1_555
C57 H51 1_555 1_555
H52 C57 1_555 1_555
C58 C57 1_555 1_555
H53 C58 1_555 1_555
H54 C58 1_555 1_555
H55 C58 1_555 1_555
C59 H56 1_555 1_555
H57 C59 1_555 1_555
C60 C59 1_555 1_555
H58 C60 1_555 1_555
H59 C60 1_555 1_555
H60 C60 1_555 1_555
O7 C38 1_555 1_555
O8 C39 1_555 1_555
O9 C42 1_555 1_555
O10 C43 1_555 1_555
O11 C46 1_555 1_555
O12 C47 1_555 1_555
Te4 C37 1_555 1_555
Te5 C40 1_555 1_555
Te6 C44 1_555 1_555
C9 C10 1_555 1_555
C11 Te2 1_555 1_555
C13 C14 1_555 1_555
C15 Te3 1_555 1_555
C17 C30 1_555 1_555
C18 O1 1_555 1_555
C20 O2 1_555 1_555
C22 O3 1_555 1_555
C24 O4 1_555 1_555
C26 O5 1_555 1_555
C28 O6 1_555 1_555
C30 Te1 1_555 1_555
C39 C40 1_555 1_555
C41 Te5 1_555 1_555
C43 C44 1_555 1_555
C45 Te6 1_555 1_555
C47 C48 1_555 1_555
C48 Te4 1_555 1_555
C49 O7 1_555 1_555
C51 O8 1_555 1_555
C53 O9 1_555 1_555
C55 O10 1_555 1_555
C57 O11 1_555 1_555
C59 O12 1_555 1_555

#END
