
#######################################################################
#
#                 Cambridge Crystallographic Data Centre
#                                CCDC 
#
#######################################################################
#
# If this CIF has been generated from an entry in the Cambridge 
# Structural Database, then it will include bibliographic, chemical, 
# crystal, experimental, refinement or atomic coordinate data resulting 
# from the CCDC's data processing and validation procedures.
#
#######################################################################

data_EBUTUQ
_chemical_formula_moiety         'C39 H34 N4 O2 S4'
_chemical_name_systematic        
2-((4-Methyl-4',5'-dipentyl-1,1',3,3'-tetrathiafulvalen-5-yl)carbonyloxymethyl)-11,11,12,12-tetracyanoanthraquinodimethane
_symmetry_cell_setting           triclinic
_symmetry_space_group_name_H-M   'P -1'
_symmetry_Int_Tables_number      2
_space_group_name_Hall           '-P 1'
loop_
_symmetry_equiv_pos_site_id
_symmetry_equiv_pos_as_xyz
1 x,y,z
2 -x,-y,-z
_cell_length_a                   10.146(1)
_cell_length_b                   13.140(1)
_cell_length_c                   14.606(2)
_cell_angle_alpha                103.47(1)
_cell_angle_beta                 94.14(1)
_cell_angle_gamma                108.18(1)
_cell_volume                     1776.9
_exptl_crystal_colour            brown-black
_exptl_crystal_description       trapezoid
_chemical_melting_point          '200 deg.C'
_cell_formula_units_Z            2
loop_
_atom_site_label
_atom_site_type_symbol
_atom_site_fract_x
_atom_site_fract_y
_atom_site_fract_z
S1 S 0.12148(6) 0.18276(5) 0.40111(4)
S2 S 0.35568(6) 0.19383(5) 0.53926(4)
S3 S 0.34514(6) 0.35405(5) 0.30806(4)
S4 S 0.57535(6) 0.36932(5) 0.45087(4)
O1 O -0.14591(15) 0.12954(13) 0.44991(10)
O2 O -0.11029(16) 0.11088(14) 0.59858(11)
N1 N -0.6413(2) -0.22734(19) 0.28314(18)
N2 N -1.0311(2) -0.24878(18) 0.13485(16)
N3 N -0.2611(2) 0.15402(17) 0.00744(14)
N4 N -0.6585(2) 0.1072(2) -0.14011(15)
C1 C -0.5031(2) 0.05119(18) 0.33111(15)
H1 H -0.5530 0.0058 0.3679
C2 C -0.3623(2) 0.11291(18) 0.36222(15)
C3 C -0.2885(2) 0.17951(18) 0.30808(15)
H2 H -0.1914 0.2209 0.3284
C4 C -0.3566(2) 0.18538(18) 0.22498(15)
H3 H -0.3061 0.2320 0.1892
C5 C -0.7958(2) 0.17021(18) 0.06367(15)
H4 H -0.7470 0.2169 0.0274
C6 C -0.9346(2) 0.15926(19) 0.07249(16)
H5 H -0.9798 0.1998 0.0435
C7 C -1.0071(2) 0.0893(2) 0.12353(16)
H6 H -1.1025 0.0812 0.1285
C8 C -0.9416(2) 0.03113(19) 0.16737(15)
H7 H -0.9923 -0.0168 0.2021
C9 C -0.7222(2) -0.01227(18) 0.20930(15)
C10 C -0.5784(2) 0.12618(17) 0.10462(15)
C11 C -0.7278(2) 0.11296(17) 0.10789(14)
C12 C -0.8014(2) 0.04278(18) 0.16081(14)
C13 C -0.5730(2) 0.05458(18) 0.24655(15)
C14 C -0.4991(2) 0.12360(17) 0.19284(15)
C15 C -0.7792(2) -0.11893(19) 0.21375(16)
C16 C -0.7001(2) -0.1770(2) 0.25366(17)
C17 C -0.9203(3) -0.1893(2) 0.17027(17)
C18 C -0.5197(2) 0.13463(18) 0.02446(15)
C19 C -0.3748(2) 0.14587(18) 0.01759(15)
C20 C -0.6000(2) 0.1215(2) -0.06579(17)
C21 C -0.2926(2) 0.1117(2) 0.45659(16)
H8 H -0.3021 0.1713 0.5087
H9 H -0.3371 0.0393 0.4701
C22 C -0.0651(2) 0.12882(18) 0.52735(15)
C23 C 0.0821(2) 0.15433(17) 0.51080(15)
C24 C 0.1888(2) 0.15710(18) 0.57333(15)
C25 C 0.1831(3) 0.1330(2) 0.66896(16)
H10 H 0.1807 0.1984 0.7166
H11 H 0.2664 0.1152 0.6874
H12 H 0.0984 0.0696 0.6652
C26 C 0.3041(2) 0.23623(19) 0.44041(15)
C27 C 0.3961(2) 0.30902(19) 0.40471(16)
C28 C 0.5060(3) 0.46362(19) 0.32082(17)
C29 C 0.6112(2) 0.46909(19) 0.38430(17)
C30 C 0.5052(3) 0.5413(2) 0.25902(18)
H13 H 0.6008 0.5965 0.2688
H14 H 0.4412 0.5824 0.2805
C31 C 0.4595(3) 0.4837(2) 0.15181(18)
H15 H 0.3660 0.4257 0.1422
H16 H 0.4495 0.5393 0.1188
C32 C 0.5604(3) 0.4300(2) 0.1055(2)
H17 H 0.5797 0.3815 0.1434
H18 H 0.5136 0.3822 0.0410
C33 C 0.6985(3) 0.5118(2) 0.0968(2)
H19 H 0.7517 0.5525 0.1615
H20 H 0.6794 0.5668 0.0664
C34 C 0.7892(3) 0.4563(3) 0.0383(2)
H21 H 0.8104 0.4029 0.0687
H22 H 0.8771 0.5132 0.0353
H23 H 0.7383 0.4174 -0.0264
C35 C 0.7596(2) 0.5488(2) 0.40550(19)
H24 H 0.7879 0.5779 0.4755
H25 H 0.7633 0.6125 0.3793
C36 C 0.8644(3) 0.4962(2) 0.3641(2)
H26 H 0.8310 0.4600 0.2952
H27 H 0.8687 0.4379 0.3955
C37 C 1.0115(3) 0.5815(2) 0.3774(2)
H28 H 1.0066 0.6395 0.3459
H29 H 1.0439 0.6180 0.4464
C38 C 1.1188(3) 0.5318(3) 0.3376(2)
H30 H 1.1209 0.4715 0.3670
H31 H 1.2130 0.5898 0.3554
C39 C 1.0873(3) 0.4850(3) 0.2295(2)
H32 H 1.0052 0.4167 0.2122
H33 H 1.1686 0.4684 0.2063
H34 H 1.0678 0.5400 0.2004
loop_
_geom_bond_atom_site_label_1
_geom_bond_atom_site_label_2
_geom_bond_site_symmetry_1
_geom_bond_site_symmetry_2
S1 C23 1_555 1_555
S2 C24 1_555 1_555
S3 C27 1_555 1_555
S4 C27 1_555 1_555
O1 C21 1_555 1_555
O2 C22 1_555 1_555
N1 C16 1_555 1_555
N2 C17 1_555 1_555
N3 C19 1_555 1_555
N4 C20 1_555 1_555
C1 H1 1_555 1_555
C2 C1 1_555 1_555
C3 C2 1_555 1_555
H2 C3 1_555 1_555
C4 C3 1_555 1_555
H3 C4 1_555 1_555
C5 H4 1_555 1_555
C6 C5 1_555 1_555
H5 C6 1_555 1_555
C7 C6 1_555 1_555
H6 C7 1_555 1_555
C8 C7 1_555 1_555
H7 C8 1_555 1_555
C9 C12 1_555 1_555
C10 C11 1_555 1_555
C11 C5 1_555 1_555
C12 C8 1_555 1_555
C13 C1 1_555 1_555
C14 C4 1_555 1_555
C15 C9 1_555 1_555
C16 C15 1_555 1_555
C17 C15 1_555 1_555
C18 C10 1_555 1_555
C19 C18 1_555 1_555
C20 C18 1_555 1_555
C21 C2 1_555 1_555
H8 C21 1_555 1_555
H9 C21 1_555 1_555
C22 O1 1_555 1_555
C23 C22 1_555 1_555
C24 C23 1_555 1_555
C25 C24 1_555 1_555
H10 C25 1_555 1_555
H11 C25 1_555 1_555
H12 C25 1_555 1_555
C26 S1 1_555 1_555
C27 C26 1_555 1_555
C28 S3 1_555 1_555
C29 S4 1_555 1_555
C30 C28 1_555 1_555
H13 C30 1_555 1_555
H14 C30 1_555 1_555
C31 C30 1_555 1_555
H15 C31 1_555 1_555
H16 C31 1_555 1_555
C32 C31 1_555 1_555
H17 C32 1_555 1_555
H18 C32 1_555 1_555
C33 C32 1_555 1_555
H19 C33 1_555 1_555
H20 C33 1_555 1_555
C34 C33 1_555 1_555
H21 C34 1_555 1_555
H22 C34 1_555 1_555
H23 C34 1_555 1_555
C35 C29 1_555 1_555
H24 C35 1_555 1_555
H25 C35 1_555 1_555
C36 C35 1_555 1_555
H26 C36 1_555 1_555
H27 C36 1_555 1_555
C37 C36 1_555 1_555
H28 C37 1_555 1_555
H29 C37 1_555 1_555
C38 C37 1_555 1_555
H30 C38 1_555 1_555
H31 C38 1_555 1_555
C39 C38 1_555 1_555
H32 C39 1_555 1_555
H33 C39 1_555 1_555
H34 C39 1_555 1_555
S2 C26 1_555 1_555
C9 C13 1_555 1_555
C10 C14 1_555 1_555
C11 C12 1_555 1_555
C13 C14 1_555 1_555
C28 C29 1_555 1_555

#END
