
#######################################################################
#
#                 Cambridge Crystallographic Data Centre
#                                CCDC 
#
#######################################################################
#
# If this CIF has been generated from an entry in the Cambridge 
# Structural Database, then it will include bibliographic, chemical, 
# crystal, experimental, refinement or atomic coordinate data resulting 
# from the CCDC's data processing and validation procedures.
#
#######################################################################

data_EBUVOM
_chemical_formula_moiety         'C24 H22 O5'
_chemical_name_systematic        
11-(Methoxycarbonyl)-11-(4-ethyl-2-oxo-3,6-dioxabicyclo(3.1.0)hex-1-yl)-9,10-dihydro-9,10-ethanoanthracene
_symmetry_cell_setting           monoclinic
_symmetry_space_group_name_H-M   'P 21/c'
_symmetry_Int_Tables_number      14
_space_group_name_Hall           '-P 2ybc'
loop_
_symmetry_equiv_pos_site_id
_symmetry_equiv_pos_as_xyz
1 x,y,z
2 x,1/2-y,1/2+z
3 -x,-y,-z
4 -x,1/2+y,1/2-z
_cell_length_a                   18.4290(3)
_cell_length_b                   13.0245(2)
_cell_length_c                   20.1341(3)
_cell_angle_alpha                90
_cell_angle_beta                 156.3008(5)
_cell_angle_gamma                90
_cell_volume                     1942.45
_exptl_crystal_colour            colorless
_exptl_crystal_description       prism
_cell_formula_units_Z            4
loop_
_atom_site_label
_atom_site_type_symbol
_atom_site_fract_x
_atom_site_fract_y
_atom_site_fract_z
O1 O -0.92448(18) -0.17741(10) -0.14750(16)
O2 O -0.64666(19) -0.08601(11) -0.00546(16)
O3 O -1.0823(3) 0.02624(11) -0.3625(2)
O4 O -0.7720(2) -0.03113(11) -0.20480(19)
O5 O -1.2343(2) -0.06345(12) -0.4141(2)
C1 C -0.8110(2) -0.28232(12) -0.1769(2)
H1 H -0.8205 -0.3114 -0.1416
H2 H -0.6803 -0.2712 -0.0747
C2 C -0.9428(2) -0.20739(12) -0.4116(2)
C3 C -0.9072(2) -0.17534(11) -0.2603(2)
C4 C -1.0453(2) -0.17697(12) -0.4353(2)
H3 H -1.0992 -0.1084 -0.4852
C5 C -1.0069(2) -0.15307(12) -0.2795(2)
C6 C -0.8619(2) -0.30361(13) -0.3394(2)
C7 C -1.1771(2) -0.26280(13) -0.5315(2)
C8 C -1.1955(3) -0.44616(15) -0.5300(3)
H4 H -1.1402 -0.5174 -0.4811
C9 C -0.8924(2) -0.35453(12) -0.2984(2)
H5 H -0.8397 -0.4224 -0.2543
C10 C -1.0933(2) -0.35893(12) -0.4563(2)
H6 H -0.9892 -0.0823 -0.5106
C11 C -0.9297(3) -0.15022(14) -0.4588(2)
H7 H -1.4192 -0.1866 -0.7340
C12 C -1.3625(3) -0.25451(16) -0.6801(2)
H8 H -1.0903 -0.2977 -0.3072
C13 C -1.0947(3) -0.22383(13) -0.3066(2)
H9 H -0.7088 -0.4109 -0.2587
C14 C -1.1070(3) -0.05331(14) -0.3546(3)
H10 H -0.5599 0.0529 0.0591
H11 H -0.4611 -0.0018 0.0999
H12 H -0.4299 -0.0116 0.2108
C15 C -0.7664(3) -0.34311(15) -0.3130(2)
H13 H -0.8293 -0.1539 -0.4701
C16 C -0.7698(2) -0.08911(13) -0.1568(2)
H14 H -1.3700 -0.1276 -0.3909
H15 H -1.1314 -0.1507 -0.2146
C17 C -0.5079(3) -0.00896(19) 0.1039(3)
H16 H -1.3731 -0.1965 -0.5246
C18 C -0.8341(3) -0.19022(16) -0.4319(3)
H17 H -0.6906 -0.3131 -0.3450
C19 C -1.2614(3) -0.16954(19) -0.3398(3)
H18 H -1.4613 -0.5014 -0.7427
C20 C -1.2524(3) -0.16960(16) -0.4069(3)
H19 H -1.6002 -0.3342 -0.8627
C21 C -0.7531(3) -0.28562(17) -0.3598(3)
H20 H -1.2401 -0.3293 -0.3113
H21 H -1.4707 -0.2805 -0.5049
H22 H -1.3397 -0.2710 -0.3236
C22 C -1.3815(3) -0.43740(18) -0.6803(3)
C23 C -1.4644(3) -0.3428(2) -0.7545(3)
C24 C -1.3333(4) -0.2700(2) -0.3741(4)
loop_
_geom_bond_atom_site_label_1
_geom_bond_atom_site_label_2
_geom_bond_site_symmetry_1
_geom_bond_site_symmetry_2
O1 C5 1_555 1_555
O2 C16 1_555 1_555
O3 C14 1_555 1_555
O4 C16 1_555 1_555
O5 C14 1_555 1_555
C1 H1 1_555 1_555
H2 C1 1_555 1_555
C2 C4 1_555 1_555
C3 C1 1_555 1_555
C4 C3 1_555 1_555
H3 C4 1_555 1_555
C5 C3 1_555 1_555
C6 C2 1_555 1_555
C7 C4 1_555 1_555
C8 H4 1_555 1_555
C9 C1 1_555 1_555
H5 C9 1_555 1_555
C10 C7 1_555 1_555
H6 C11 1_555 1_555
C11 C2 1_555 1_555
H7 C12 1_555 1_555
C12 C7 1_555 1_555
H8 C13 1_555 1_555
C13 O1 1_555 1_555
H9 C15 1_555 1_555
C14 C5 1_555 1_555
H10 C17 1_555 1_555
H11 C17 1_555 1_555
H12 C17 1_555 1_555
C15 C6 1_555 1_555
H13 C18 1_555 1_555
C16 C3 1_555 1_555
H14 C19 1_555 1_555
H15 C19 1_555 1_555
C17 O2 1_555 1_555
H16 C20 1_555 1_555
C18 C11 1_555 1_555
H17 C21 1_555 1_555
C19 C20 1_555 1_555
H18 C22 1_555 1_555
C20 O5 1_555 1_555
H19 C23 1_555 1_555
C21 C15 1_555 1_555
H20 C24 1_555 1_555
H21 C24 1_555 1_555
H22 C24 1_555 1_555
C22 C8 1_555 1_555
C23 C12 1_555 1_555
C24 C19 1_555 1_555
C5 C13 1_555 1_555
C6 C9 1_555 1_555
C8 C10 1_555 1_555
C9 C10 1_555 1_555
C13 C20 1_555 1_555
C18 C21 1_555 1_555
C22 C23 1_555 1_555

#END
