
#######################################################################
#
#                 Cambridge Crystallographic Data Centre
#                                CCDC 
#
#######################################################################
#
# If this CIF has been generated from an entry in the Cambridge 
# Structural Database, then it will include bibliographic, chemical, 
# crystal, experimental, refinement or atomic coordinate data resulting 
# from the CCDC's data processing and validation procedures.
#
#######################################################################

data_EBUVEC
_chemical_formula_moiety         'C52 H24 Ca1 N14 O4,2(C2 H3 N1)'
_chemical_name_systematic        
'Diaqua-bis(acetonitrile)-bis(2-(1-oxy-2,2-dicyanoethenyl)-11,11,12,12-tetracyanoanthraquinodimethane-O)-calcium acetonitrile solvate'
_symmetry_cell_setting           monoclinic
_symmetry_space_group_name_H-M   'P 21/c'
_symmetry_Int_Tables_number      14
_space_group_name_Hall           '-P 2ybc'
loop_
_symmetry_equiv_pos_site_id
_symmetry_equiv_pos_as_xyz
1 x,y,z
2 -x,1/2+y,1/2-z
3 -x,-y,-z
4 x,1/2-y,1/2+z
_cell_length_a                   10.208(1)
_cell_length_b                   33.145(3)
_cell_length_c                   8.040(1)
_cell_angle_alpha                90
_cell_angle_beta                 110.51(1)
_cell_angle_gamma                90
_cell_volume                     2547.85
_exptl_crystal_colour            amber
_exptl_crystal_description       plate
_chemical_melting_point          'decomposes above 300 deg.C'
_cell_formula_units_Z            2
loop_
_atom_site_label
_atom_site_type_symbol
_atom_site_fract_x
_atom_site_fract_y
_atom_site_fract_z
Ca1 Ca 0.5000 0.0000 0.5000
C1 C 0.75366(16) 0.12782(5) 0.5546(2)
H1 H 0.6857(17) 0.1454(5) 0.571(2)
O1 O 0.42582(16) 0.05933(4) 0.33989(19)
H2 H 0.396(2) 0.0773(7) 0.382(3)
H3 H 0.462(3) 0.0679(8) 0.267(4)
C2 C 0.78046(16) 0.09007(5) 0.6349(2)
C3 C 0.88256(17) 0.06537(5) 0.6087(2)
H4 H 0.9027(18) 0.0388(6) 0.668(2)
C4 C 0.96009(18) 0.07885(5) 0.5085(2)
H5 H 1.0346(18) 0.0628(5) 0.498(2)
C5 C 1.15326(18) 0.19445(5) 0.3185(2)
H6 H 1.2235(19) 0.1773(5) 0.307(2)
C6 C 1.17266(19) 0.23587(5) 0.3394(2)
H7 H 1.257(2) 0.2456(6) 0.342(2)
C7 C 1.0700(2) 0.26013(5) 0.3630(2)
H8 H 1.082(2) 0.2885(6) 0.378(3)
O2 O 0.65464(12) 0.03916(3) 0.72370(15)
C8 C 0.94688(19) 0.24325(5) 0.3679(2)
H9 H 0.8787(18) 0.2593(5) 0.390(2)
C9 C 0.80062(16) 0.18115(5) 0.3590(2)
C10 C 1.00859(16) 0.13287(5) 0.3127(2)
C11 C 0.82729(16) 0.14131(5) 0.4477(2)
C12 C 0.93312(16) 0.11659(5) 0.4252(2)
C13 C 1.03084(16) 0.17692(5) 0.3242(2)
C14 C 0.92666(16) 0.20159(5) 0.3499(2)
C15 C 0.66968(17) 0.19650(5) 0.2826(2)
C16 C 0.54570(18) 0.17480(5) 0.2775(2)
C17 C 0.63737(18) 0.23371(5) 0.1831(2)
C18 C 1.04948(17) 0.10924(5) 0.2002(2)
C19 C 1.03419(18) 0.06591(5) 0.1890(2)
C20 C 1.10108(17) 0.12513(5) 0.0667(2)
C21 C 0.70199(16) 0.07460(5) 0.7494(2)
C22 C 0.68755(17) 0.09989(5) 0.8822(2)
C23 C 0.61399(18) 0.08611(5) 0.9936(2)
C24 C 0.74003(17) 0.14005(5) 0.9148(2)
C25 C 0.29852(19) 0.01768(5) 0.7749(2)
C26 C 0.2494(2) 0.02802(7) 0.9194(3)
H10 H 0.155(3) 0.0222(7) 0.887(3)
H11 H 0.267(3) 0.0561(8) 0.945(3)
H12 H 0.304(3) 0.0129(8) 1.026(4)
N1 N 0.44409(16) 0.15817(5) 0.2649(2)
N2 N 0.60043(17) 0.26220(5) 0.0992(2)
N3 N 1.02767(19) 0.03142(5) 0.1777(2)
N4 N 1.13646(17) 0.13494(5) -0.0478(2)
N5 N 0.55535(18) 0.07680(5) 1.0860(2)
N6 N 0.77862(16) 0.17286(5) 0.94350(19)
N7 N 0.33767(18) 0.00992(5) 0.6626(2)
O1B O 0.57418(16) -0.05933(4) 0.66011(19)
H2B H 0.604(2) -0.0773(7) 0.618(3)
H3B H 0.538(3) -0.0679(8) 0.733(4)
O2B O 0.34536(12) -0.03916(3) 0.27630(15)
C21B C 0.29801(16) -0.07460(5) 0.2506(2)
C2B C 0.21954(16) -0.09007(5) 0.3651(2)
C1B C 0.24634(16) -0.12782(5) 0.4454(2)
H1B H 0.3143(17) -0.1454(5) 0.429(2)
C11B C 0.17271(16) -0.14131(5) 0.5523(2)
C9B C 0.19938(16) -0.18115(5) 0.6410(2)
C14B C 0.07334(16) -0.20159(5) 0.6501(2)
C8B C 0.05312(19) -0.24325(5) 0.6321(2)
C7B C -0.0700(2) -0.26013(5) 0.6370(2)
C6B C -0.17266(19) -0.23587(5) 0.6606(2)
C5B C -0.15326(18) -0.19445(5) 0.6815(2)
H6B H -0.2235(19) -0.1773(5) 0.693(2)
C13B C -0.03084(16) -0.17692(5) 0.6758(2)
C10B C -0.00859(16) -0.13287(5) 0.6873(2)
C12B C 0.06688(16) -0.11659(5) 0.5748(2)
C4B C 0.03991(18) -0.07885(5) 0.4915(2)
C3B C 0.11744(17) -0.06537(5) 0.3913(2)
H4B H 0.0973(18) -0.0388(6) 0.332(2)
H5B H -0.0346(18) -0.0628(5) 0.502(2)
C18B C -0.04948(17) -0.10924(5) 0.7998(2)
C19B C -0.03419(18) -0.06591(5) 0.8110(2)
N3B N -0.02767(19) -0.03142(5) 0.8223(2)
C20B C -0.10108(17) -0.12513(5) 0.9333(2)
N4B N -0.13646(17) -0.13494(5) 1.0478(2)
H7B H -0.257(2) -0.2456(6) 0.658(2)
H8B H -0.082(2) -0.2885(6) 0.622(3)
H9B H 0.1213(18) -0.2593(5) 0.610(2)
C15B C 0.33032(17) -0.19650(5) 0.7174(2)
C16B C 0.45430(18) -0.17480(5) 0.7225(2)
N1B N 0.55591(16) -0.15817(5) 0.7351(2)
C17B C 0.36263(18) -0.23371(5) 0.8169(2)
N2B N 0.39957(17) -0.26220(5) 0.9008(2)
C22B C 0.31245(17) -0.09989(5) 0.1178(2)
C23B C 0.38601(18) -0.08611(5) 0.0064(2)
N5B N 0.44465(18) -0.07680(5) -0.0860(2)
C24B C 0.25997(17) -0.14005(5) 0.0852(2)
N6B N 0.22138(16) -0.17286(5) 0.05650(19)
N7B N 0.66233(18) -0.00992(5) 0.3374(2)
C25B C 0.70148(19) -0.01768(5) 0.2251(2)
C26B C 0.7506(2) -0.02802(7) 0.0806(3)
H10B H 0.845(3) -0.0222(7) 0.113(3)
H11B H 0.733(3) -0.0561(8) 0.055(3)
H12B H 0.696(3) -0.0129(8) -0.026(4)
C27 C 0.35463(19) 0.13747(6) 0.6636(2)
C28 C 0.3766(3) 0.17176(7) 0.7823(3)
H13 H 0.467(3) 0.1837(9) 0.805(4)
H14 H 0.370(3) 0.1641(9) 0.893(4)
H15 H 0.306(4) 0.1907(11) 0.732(5)
N8 N 0.33744(19) 0.11091(5) 0.5683(2)
loop_
_geom_bond_atom_site_label_1
_geom_bond_atom_site_label_2
_geom_bond_site_symmetry_1
_geom_bond_site_symmetry_2
Ca1 O1 1_555 1_555
C1 H1 1_555 1_555
O1 H2 1_555 1_555
H3 O1 1_555 1_555
C2 C1 1_555 1_555
C3 C2 1_555 1_555
H4 C3 1_555 1_555
C4 C3 1_555 1_555
H5 C4 1_555 1_555
C5 H6 1_555 1_555
C6 C5 1_555 1_555
H7 C6 1_555 1_555
C7 C6 1_555 1_555
H8 C7 1_555 1_555
O2 Ca1 1_555 1_555
C8 C7 1_555 1_555
H9 C8 1_555 1_555
C9 C11 1_555 1_555
C10 C12 1_555 1_555
C11 C1 1_555 1_555
C12 C4 1_555 1_555
C13 C5 1_555 1_555
C14 C8 1_555 1_555
C15 C9 1_555 1_555
C16 C15 1_555 1_555
C17 C15 1_555 1_555
C18 C10 1_555 1_555
C19 C18 1_555 1_555
C20 C18 1_555 1_555
C21 C2 1_555 1_555
C22 C21 1_555 1_555
C23 C22 1_555 1_555
C24 C22 1_555 1_555
C25 C26 1_555 1_555
C26 H10 1_555 1_555
H11 C26 1_555 1_555
H12 C26 1_555 1_555
N1 C16 1_555 1_555
N2 C17 1_555 1_555
N3 C19 1_555 1_555
N4 C20 1_555 1_555
N5 C23 1_555 1_555
N6 C24 1_555 1_555
N7 Ca1 1_555 1_555
C27 C28 1_555 1_555
C28 H13 1_555 1_555
H14 C28 1_555 1_555
H15 C28 1_555 1_555
N8 C27 1_555 1_555
O1B Ca1 1_555 1_555
H2B O1B 1_555 1_555
H3B O1B 1_555 1_555
O2B Ca1 1_555 1_555
C21B O2B 1_555 1_555
C2B C21B 1_555 1_555
C1B C2B 1_555 1_555
H1B C1B 1_555 1_555
C11B C1B 1_555 1_555
C9B C11B 1_555 1_555
C14B C9B 1_555 1_555
C8B C14B 1_555 1_555
C7B C8B 1_555 1_555
C6B C7B 1_555 1_555
C5B C6B 1_555 1_555
H6B C5B 1_555 1_555
C13B C14B 1_555 1_555
C10B C13B 1_555 1_555
C12B C11B 1_555 1_555
C4B C12B 1_555 1_555
C3B C2B 1_555 1_555
H4B C3B 1_555 1_555
H5B C4B 1_555 1_555
C18B C10B 1_555 1_555
C19B C18B 1_555 1_555
N3B C19B 1_555 1_555
C20B C18B 1_555 1_555
N4B C20B 1_555 1_555
H7B C6B 1_555 1_555
H8B C7B 1_555 1_555
H9B C8B 1_555 1_555
C15B C9B 1_555 1_555
C16B C15B 1_555 1_555
N1B C16B 1_555 1_555
C17B C15B 1_555 1_555
N2B C17B 1_555 1_555
C22B C21B 1_555 1_555
C23B C22B 1_555 1_555
N5B C23B 1_555 1_555
C24B C22B 1_555 1_555
N6B C24B 1_555 1_555
N7B Ca1 1_555 1_555
C25B N7B 1_555 1_555
C26B C25B 1_555 1_555
H10B C26B 1_555 1_555
H11B C26B 1_555 1_555
H12B C26B 1_555 1_555
O2 C21 1_555 1_555
C9 C14 1_555 1_555
C10 C13 1_555 1_555
C11 C12 1_555 1_555
C13 C14 1_555 1_555
C25 N7 1_555 1_555
C5B C13B 1_555 1_555
C10B C12B 1_555 1_555
C4B C3B 1_555 1_555

#END
