
#######################################################################
#
#                 Cambridge Crystallographic Data Centre
#                                CCDC 
#
#######################################################################
#
# If this CIF has been generated from an entry in the Cambridge 
# Structural Database, then it will include bibliographic, chemical, 
# crystal, experimental, refinement or atomic coordinate data resulting 
# from the CCDC's data processing and validation procedures.
#
#######################################################################

data_EBUYIM
_chemical_name_common            
'C6fullerene 2-(2H-1,3-dithiol-2-ylidene)-2H-1,3-dithiole 1,2 dichlorobenzene solvate'
_chemical_formula_moiety         'C60,C6 H4 S4,C6 H4 Cl2'
_chemical_name_systematic        
'C60fullerene tetrathiafulvalene 1,2-dichlorobenzene solvate'
_symmetry_cell_setting           triclinic
_symmetry_space_group_name_H-M   'P -1'
_symmetry_Int_Tables_number      2
_space_group_name_Hall           '-P 1'
loop_
_symmetry_equiv_pos_site_id
_symmetry_equiv_pos_as_xyz
1 x,y,z
2 -x,-y,-z
_cell_length_a                   13.356(3)
_cell_length_b                   20.269(4)
_cell_length_c                   31.853(6)
_cell_angle_alpha                103.95(3)
_cell_angle_beta                 91.70(3)
_cell_angle_gamma                102.17(3)
_cell_volume                     8151.12
_exptl_crystal_colour            black
_exptl_crystal_description       plate
_cell_formula_units_Z            8
_exptl_crystal_recrystallization_method 'Vapour Deposition'
_exptl_crystal_preparation       'Magnetic properties'
loop_
_atom_site_label
_atom_site_type_symbol
_atom_site_fract_x
_atom_site_fract_y
_atom_site_fract_z
C1 C 0.3243(2) 0.21047(14) -0.07619(8)
H1 H 0.2854 0.2112 -0.1007
C2 C 0.2916(2) 0.16527(14) -0.05304(9)
H2 H 0.2285 0.1337 -0.0606
C3 C 0.46172(17) 0.23956(11) -0.01258(7)
C4 C 0.54097(17) 0.27076(12) 0.01778(7)
C5 C 0.6963(2) 0.35728(14) 0.06392(9)
H3 H 0.7504 0.3957 0.0748
C6 C 0.6662(2) 0.31107(15) 0.08646(9)
H4 H 0.6984 0.3159 0.1137
S1 S 0.44222(5) 0.26847(3) -0.05930(2)
S2 S 0.36918(5) 0.16639(3) -0.00842(2)
S3 S 0.63240(5) 0.34444(3) 0.01352(2)
S4 S 0.56384(5) 0.24045(3) 0.06364(2)
C7 C 0.5562(2) 0.76706(13) 0.18678(9)
H5 H 0.4888 0.7455 0.1758
C8 C 0.6337(2) 0.73921(14) 0.17258(9)
H6 H 0.6225 0.6972 0.1515
C9 C 0.9397(2) 0.97477(13) 0.31128(9)
H7 H 1.0073 0.9979 0.3210
C10 C 0.8620(2) 1.00150(14) 0.32664(9)
H8 H 0.8733 1.0441 0.3472
C11 C 0.71569(18) 0.84694(13) 0.23399(8)
C12 C 0.77955(19) 0.89165(12) 0.26659(8)
S5 S 0.58440(5) 0.84568(3) 0.22677(2)
S6 S 0.75759(5) 0.78360(3) 0.19460(2)
S7 S 0.73813(5) 0.95428(3) 0.30703(2)
S8 S 0.91223(5) 0.89510(3) 0.27239(2)
C13 C 0.8540(2) 0.51197(13) 0.33439(9)
H9 H 0.8609 0.5516 0.3572
C14 C 0.9341(2) 0.48516(13) 0.32293(9)
H10 H 0.9986 0.5049 0.3377
C15 C 0.6507(2) 0.24447(14) 0.18018(9)
H11 H 0.6428 0.1996 0.1625
C16 C 0.5701(2) 0.27068(14) 0.19175(9)
H12 H 0.5036 0.2451 0.1822
C17 C 0.72483(19) 0.36073(12) 0.23605(8)
C18 C 0.78376(19) 0.40818(12) 0.26911(8)
S9 S 0.73583(5) 0.47131(3) 0.30584(2)
S10 S 0.91519(5) 0.41200(4) 0.27942(2)
S11 S 0.77315(5) 0.29706(3) 0.19921(2)
S12 S 0.59273(5) 0.35501(3) 0.22562(2)
C19 C 0.80024(19) 0.89209(13) 0.44542(8)
H13 H 0.7439 0.8545 0.4376
C20 C 0.82513(19) 0.93494(14) 0.42001(8)
H14 H 0.7872 0.9281 0.3937
C21 C 0.96010(18) 0.98184(12) 0.48572(7)
S13 S 0.87524(5) 0.90785(3) 0.49347(2)
S14 S 0.93108(5) 1.00444(3) 0.43732(2)
C19A C 1.19976(19) 1.10791(13) 0.55458(8)
H13A H 1.2561 1.1455 0.5624
C20A C 1.17487(19) 1.06506(14) 0.57999(8)
H14A H 1.2128 1.0719 0.6063
C21A C 1.03990(18) 1.01816(12) 0.51428(7)
S13A S 1.12476(5) 1.09215(3) 0.50653(2)
S14A S 1.06892(5) 0.99556(3) 0.56268(2)
C22 C 0.79943(19) 0.39284(14) 0.44542(9)
H15 H 0.7436 0.3549 0.4373
C23 C 0.81898(19) 0.43950(14) 0.42231(9)
H16 H 0.7773 0.4354 0.3975
C24 C 0.95982(18) 0.48222(12) 0.48580(7)
S15 S 0.92506(5) 0.50884(3) 0.43969(2)
S16 S 0.88076(5) 0.40450(3) 0.49121(2)
C22A C 1.20057(19) 0.60716(14) 0.55458(9)
H15A H 1.2564 0.6451 0.5627
C23A C 1.18102(19) 0.56050(14) 0.57769(9)
H16A H 1.2227 0.5646 0.6025
C24A C 1.04018(18) 0.51778(12) 0.51420(7)
S15A S 1.07494(5) 0.49116(3) 0.56031(2)
S16A S 1.11924(5) 0.59550(3) 0.50879(2)
C25 C 0.7487(3) 0.0027(2) 0.16869(14)
H17 H 0.7105 -0.0427 0.1578
C26 C 0.8383(3) 0.0936(2) 0.22904(13)
H18 H 0.8604 0.1095 0.2584
C27 C 0.8641(3) 0.13592(18) 0.20114(13)
H19 H 0.9042 0.1808 0.2119
C28 C 0.7790(4) 0.0269(3) 0.21243(15)
H20 H 0.7595 -0.0018 0.2309
C29 C 0.7744(3) 0.04523(18) 0.14104(11)
C30 C 0.8315(3) 0.11286(18) 0.15758(11)
Cl1 Cl 0.86349(14) 0.16775(9) 0.12380(5)
Cl2 Cl 0.73573(6) 0.01498(4) 0.08626(2)
C43 C 0.82496(15) 0.61689(9) 0.14928(5)
C44 C 0.86920(17) 0.63235(12) 0.19139(7)
C45 C 0.75021(18) 0.55614(12) 0.13271(8)
H29 H 0.7207 0.5459 0.1044
C46 C 0.8378(2) 0.58723(14) 0.21734(9)
H30 H 0.8667 0.5975 0.2457
C47 C 0.7201(2) 0.51110(14) 0.15870(10)
H31 H 0.6706 0.4701 0.1478
C48 C 0.7633(2) 0.52697(15) 0.20078(10)
H32 H 0.7420 0.4967 0.2182
Cl7 Cl 0.96592(5) 0.70583(3) 0.21199(2)
Cl8 Cl 0.86341(6) 0.67152(4) 0.11576(3)
C55 C 0.67392(15) 0.64102(9) 0.35069(5)
C56 C 0.63185(17) 0.62398(11) 0.30820(7)
C57 C 0.74843(17) 0.70196(12) 0.36710(8)
H37 H 0.7761 0.7134 0.3958
C58 C 0.7810(2) 0.74540(14) 0.34047(10)
H38 H 0.8303 0.7866 0.3513
C59 C 0.6654(2) 0.66724(14) 0.28145(9)
H39 H 0.6379 0.6559 0.2528
C60 C 0.7408(2) 0.72788(15) 0.29794(10)
H40 H 0.7642 0.7569 0.2800
Cl11 Cl 0.63356(5) 0.58778(3) 0.38494(2)
Cl12 Cl 0.53475(5) 0.55026(3) 0.28789(2)
C61 C 0.68424(18) 0.14170(12) 0.35266(8)
C62 C 0.6509(2) 0.17172(14) 0.28615(9)
H41 H 0.6177 0.1602 0.2584
C63 C 0.75247(18) 0.20554(13) 0.36834(9)
H42 H 0.7869 0.2167 0.3958
C64 C 0.7188(2) 0.23550(15) 0.30179(10)
H43 H 0.7306 0.2670 0.2846
C65 C 0.7690(2) 0.25273(14) 0.34279(10)
H44 H 0.8140 0.2960 0.3533
C66 C 0.63262(18) 0.12502(12) 0.31192(8)
Cl13 Cl 0.66235(5) 0.08478(3) 0.38589(2)
Cl14 Cl 0.54123(5) 0.04803(3) 0.29283(2)
C67 C 0.12226(5) 0.39844(4) 0.00001(2)
C68 C 0.42409(5) 0.45480(4) 0.04612(2)
C69 C 0.30349(5) 0.49246(4) 0.22195(2)
C70 C 0.35930(5) 0.44360(4) 0.20476(2)
C71 C 0.06523(5) 0.44724(4) 0.01745(2)
C72 C 0.46034(5) 0.52137(4) 0.16560(2)
C73 C 0.14409(5) 0.40160(4) 0.20876(2)
C74 C 0.28160(5) 0.48940(4) 0.01258(2)
C75 C 0.04387(5) 0.38366(4) 0.18359(2)
C76 C 0.00174(5) 0.43611(4) 0.17569(2)
C77 C 0.43862(5) 0.45833(4) 0.17631(2)
C78 C 0.27587(5) 0.36415(4) 0.00670(2)
C79 C 0.11144(5) 0.59396(3) 0.14947(2)
C80 C 0.38786(5) 0.34678(4) 0.06369(2)
C81 C 0.13818(5) 0.30014(3) 0.15462(2)
C82 C 0.14966(5) 0.52605(4) 0.21487(2)
C83 C 0.38200(5) 0.50741(4) 0.03796(2)
C84 C 0.37237(5) 0.38322(4) 0.03139(2)
C85 C 0.04084(5) 0.32121(4) 0.15056(2)
C86 C 0.03600(5) 0.54364(4) 0.15802(2)
C87 C 0.45381(5) 0.39904(4) 0.10060(2)
C88 C 0.32546(5) 0.55992(3) 0.21071(2)
C89 C -0.02803(5) 0.49167(4) 0.12123(2)
C90 C -0.03447(5) 0.36937(4) 0.05604(2)
C91 C 0.23039(5) 0.41766(4) -0.00252(2)
C92 C 0.09946(5) 0.33024(4) 0.01100(2)
C93 C 0.19362(5) 0.47181(4) 0.22413(2)
C94 C -0.00614(5) 0.31164(3) 0.10899(2)
C95 C 0.28661(5) 0.59119(3) 0.06735(2)
C96 C 0.02265(5) 0.31707(3) 0.03844(2)
C97 C 0.40244(5) 0.57366(3) 0.18342(2)
C98 C 0.43489(5) 0.39454(4) 0.14267(2)
C99 C 0.05214(5) 0.50794(4) 0.19036(2)
C100 C 0.31121(5) 0.29597(3) 0.07248(2)
C101 C 0.47476(5) 0.46441(4) 0.08970(2)
C102 C 0.38480(5) 0.56997(4) 0.07105(2)
C103 C -0.01354(5) 0.43221(4) 0.04567(2)
C104 C -0.05014(5) 0.42586(4) 0.13205(2)
C105 C 0.35373(5) 0.34062(3) 0.15090(2)
C106 C 0.07175(5) 0.54990(3) 0.07085(2)
C107 C 0.18293(5) 0.27203(3) 0.11894(2)
C108 C 0.29320(5) 0.29236(3) 0.11627(2)
C109 C -0.00994(5) 0.49598(4) 0.07912(2)
C110 C 0.29102(5) 0.62925(3) 0.14650(2)
C111 C 0.04074(5) 0.28159(3) 0.07162(2)
C112 C 0.43109(5) 0.57985(3) 0.11274(2)
C113 C 0.24193(5) 0.61922(3) 0.10312(2)
C114 C 0.21347(5) 0.61393(3) 0.17481(2)
C115 C 0.13315(5) 0.26146(3) 0.07545(2)
C116 C 0.20236(5) 0.35177(4) 0.19178(2)
C117 C 0.38464(5) 0.60952(3) 0.15017(2)
C118 C 0.30652(5) 0.37070(4) 0.18907(2)
C119 C 0.13109(5) 0.59837(3) 0.10582(2)
C120 C -0.05216(5) 0.36595(4) 0.10073(2)
C121 C 0.22291(5) 0.53821(4) 0.02976(2)
C122 C 0.47784(5) 0.52499(4) 0.12093(2)
C123 C 0.22799(5) 0.57986(3) 0.20584(2)
C124 C 0.19550(5) 0.30992(3) 0.01528(2)
C125 C 0.11895(5) 0.51978(4) 0.03279(2)
C126 C 0.21124(5) 0.27661(3) 0.04723(2)
C187 C 0.31031(4) 0.79603(3) 0.27818(2)
C188 C 0.19960(4) 0.77185(3) 0.27839(2)
C189 C 0.35703(4) 0.86497(3) 0.29702(2)
C190 C 0.06013(4) 0.79601(3) 0.32395(2)
C191 C 0.18927(4) 0.89042(3) 0.31729(2)
C192 C 0.20936(4) 0.74349(3) 0.48176(2)
C193 C 0.42528(4) 0.79050(3) 0.48106(2)
C194 C 0.14084(4) 0.81761(3) 0.29742(2)
C195 C 0.37686(4) 0.71887(3) 0.46149(2)
C196 C 0.18034(4) 0.70212(3) 0.28505(2)
C197 C 0.04096(4) 0.72951(3) 0.32993(2)
C198 C 0.50656(4) 0.81285(3) 0.45468(2)
C199 C 0.35824(4) 0.74140(3) 0.28459(2)
C200 C 0.25629(4) 0.81303(3) 0.50089(2)
C201 C 0.36645(4) 0.83670(3) 0.50027(2)
C202 C 0.21291(4) 0.62235(2) 0.34391(2)
C203 C 0.05865(4) 0.85471(3) 0.35991(2)
C204 C 0.42723(4) 0.69553(3) 0.42291(2)
C205 C 0.11925(4) 0.64040(2) 0.34045(2)
C206 C 0.11187(4) 0.72601(3) 0.45560(2)
C207 C 0.01841(3) 0.77469(3) 0.40718(2)
C208 C 0.29443(4) 0.64445(2) 0.31767(2)
C209 C 0.50794(4) 0.75379(3) 0.41895(2)
C210 C 0.27136(4) 0.69610(3) 0.46183(2)
C211 C 0.27817(4) 0.68332(3) 0.28907(2)
C212 C 0.29472(4) 0.91301(3) 0.31696(2)
C213 C 0.10249(4) 0.68150(2) 0.31014(2)
C214 C 0.01994(3) 0.71861(3) 0.37296(2)
C215 C 0.45397(4) 0.88231(3) 0.32326(2)
C216 C 0.11378(4) 0.66751(3) 0.41970(2)
C217 C 0.46855(4) 0.71715(3) 0.33980(2)
C218 C 0.54736(3) 0.83387(3) 0.37174(2)
C219 C 0.26080(4) 0.62638(2) 0.38624(2)
C220 C 0.39173(4) 0.66155(3) 0.34354(2)
C221 C 0.06560(4) 0.77892(3) 0.44987(2)
C222 C 0.11495(4) 0.85087(3) 0.46962(2)
C223 C 0.03840(4) 0.84449(3) 0.40070(2)
C224 C 0.52760(3) 0.76378(3) 0.37804(2)
C225 C 0.50014(4) 0.82992(3) 0.32916(2)
C226 C 0.13894(4) 0.91297(3) 0.35576(2)
C227 C 0.52531(4) 0.87881(3) 0.44876(2)
C228 C 0.54649(3) 0.88983(3) 0.40578(2)
C229 C 0.45158(4) 0.94070(3) 0.35915(2)
C230 C 0.35422(4) 0.96006(2) 0.35553(2)
C231 C 0.28853(4) 0.92581(3) 0.49051(2)
C232 C 0.37158(4) 0.65099(2) 0.38625(2)
C233 C 0.09859(4) 0.89220(3) 0.43926(2)
C234 C 0.27267(4) 0.96465(2) 0.46133(2)
C235 C 0.30564(4) 0.98239(2) 0.39255(2)
C236 C 0.35413(4) 0.98631(2) 0.43511(2)
C237 C 0.19614(4) 0.95828(2) 0.39292(2)
C238 C 0.46407(4) 0.92651(3) 0.46828(2)
C239 C 0.38650(4) 0.90694(3) 0.49372(2)
C240 C 0.45235(4) 0.75828(3) 0.30972(2)
C241 C 0.21243(4) 0.64856(2) 0.42332(2)
C242 C 0.06869(4) 0.66356(2) 0.37900(2)
C243 C 0.20846(4) 0.86796(3) 0.49471(2)
C244 C 0.44702(4) 0.96753(2) 0.43833(2)
C245 C 0.17557(4) 0.94717(2) 0.43533(2)
C246 C 0.49747(4) 0.94462(3) 0.39982(2)
C247 C 0.36000(4) 0.36000(3) 0.29484(2)
C248 C 0.19652(4) 0.24615(3) 0.48035(2)
C249 C 0.28286(4) 0.21925(3) 0.47288(2)
C250 C 0.20761(4) 0.32179(3) 0.49539(2)
C251 C 0.38431(4) 0.26616(3) 0.48008(2)
C252 C 0.52606(4) 0.35699(3) 0.44372(2)
C253 C 0.54217(3) 0.33123(3) 0.36894(2)
C254 C 0.45118(4) 0.38789(3) 0.32481(2)
C255 C 0.43544(4) 0.26773(3) 0.30131(2)
C256 C 0.27325(4) 0.38723(3) 0.30256(2)
C257 C 0.16303(4) 0.26988(3) 0.28114(2)
C258 C 0.25420(4) 0.47673(2) 0.43056(2)
C259 C 0.54261(3) 0.38673(3) 0.40603(2)
C260 C 0.09142(4) 0.40098(3) 0.41961(2)
C261 C 0.10956(4) 0.36831(3) 0.32901(2)
C262 C 0.49765(4) 0.33122(3) 0.32859(2)
C263 C 0.10508(4) 0.21859(3) 0.45055(2)
C264 C 0.03034(3) 0.24946(3) 0.33157(2)
C265 C 0.23874(4) 0.44679(2) 0.46835(2)
C266 C 0.17204(4) 0.34019(3) 0.29521(2)
C267 C 0.04079(4) 0.32352(3) 0.34652(2)
C268 C 0.01446(3) 0.27551(3) 0.40668(2)
C269 C 0.35129(4) 0.48769(2) 0.41529(2)
C270 C 0.16358(4) 0.44815(2) 0.40087(2)
C271 C 0.03096(4) 0.34064(3) 0.39292(2)
C272 C 0.17309(4) 0.43247(3) 0.35672(2)
C273 C 0.10457(4) 0.16453(2) 0.41447(2)
C274 C 0.42010(4) 0.44099(2) 0.47175(2)
C275 C 0.28308(4) 0.16337(2) 0.43506(2)
C276 C 0.27374(4) 0.44364(2) 0.34022(2)
C277 C 0.44620(4) 0.23844(3) 0.44639(2)
C278 C 0.46674(4) 0.38435(3) 0.47528(2)
C279 C 0.52520(3) 0.26585(3) 0.38229(2)
C280 C 0.51576(3) 0.28323(3) 0.42876(2)
C281 C 0.13765(4) 0.40055(3) 0.46081(2)
C282 C 0.36144(4) 0.47051(2) 0.36888(2)
C283 C 0.34875(4) 0.28564(3) 0.28007(2)
C284 C 0.19512(4) 0.13605(2) 0.40643(2)
C285 C 0.08952(4) 0.22252(3) 0.29983(2)
C286 C 0.45109(4) 0.44179(2) 0.36103(2)
C287 C 0.43582(4) 0.46939(2) 0.43631(2)
C288 C 0.25310(4) 0.24157(3) 0.27351(2)
C289 C 0.12133(4) 0.33958(3) 0.47415(2)
C290 C 0.05891(4) 0.27562(3) 0.44680(2)
C291 C 0.20535(4) 0.11900(2) 0.35982(2)
C292 C 0.41902(4) 0.20621(3) 0.31432(2)
C293 C 0.46528(4) 0.20556(3) 0.35531(2)
C294 C 0.01412(3) 0.21983(3) 0.36917(2)
C295 C 0.31986(4) 0.43039(3) 0.48822(2)
C296 C 0.49799(4) 0.44144(2) 0.40255(2)
C297 C 0.39267(4) 0.33703(3) 0.49448(2)
C298 C 0.23625(4) 0.17692(3) 0.28775(2)
C299 C 0.30307(4) 0.36524(3) 0.50202(2)
C300 C 0.38336(4) 0.17460(3) 0.41849(2)
C301 C 0.12034(4) 0.13715(2) 0.33899(2)
C302 C 0.39336(4) 0.15880(2) 0.37451(2)
C303 C 0.13633(4) 0.16579(2) 0.30341(2)
C304 C 0.31732(4) 0.16031(2) 0.30718(2)
C305 C 0.05833(4) 0.16509(2) 0.37250(2)
C306 C 0.30223(4) 0.13016(2) 0.34435(2)
C307 C 0.29959(4) 0.00993(3) 0.22363(2)
C308 C 0.34120(4) -0.05515(3) 0.01117(2)
C309 C 0.32489(4) -0.05469(3) 0.21455(2)
C310 C 0.15732(4) -0.11016(3) -0.00210(2)
C311 C 0.14124(4) -0.11254(3) 0.20109(2)
C312 C 0.19302(4) 0.01470(3) 0.22158(2)
C313 C 0.09861(4) -0.16617(2) 0.01423(2)
C314 C 0.27034(4) -0.17382(2) 0.01782(2)
C315 C 0.40984(4) -0.06615(3) 0.18864(2)
C316 C 0.02744(4) -0.05007(3) 0.18091(2)
C317 C -0.00946(3) -0.08720(3) 0.04847(2)
C318 C 0.44082(4) 0.05464(3) 0.18276(2)
C319 C 0.15324(4) -0.23153(2) 0.06303(2)
C320 C 0.46620(3) -0.01284(3) 0.17319(2)
C321 C 0.24285(4) -0.11745(3) 0.20289(2)
C322 C 0.26426(4) -0.11462(3) 0.00011(2)
C323 C 0.01663(4) -0.15481(3) 0.03890(2)
C324 C 0.21371(4) 0.01743(3) 0.01884(2)
C325 C 0.47069(4) -0.09459(3) 0.10335(2)
C326 C 0.31511(4) 0.01228(3) 0.02066(2)
C327 C 0.06952(4) -0.15887(3) 0.16539(2)
C328 C 0.11580(4) -0.04512(3) 0.21064(2)
C329 C 0.18657(4) 0.07356(2) 0.20351(2)
C330 C 0.04785(4) -0.03359(3) 0.03286(2)
C331 C 0.13185(4) -0.04548(3) 0.00712(2)
C332 C 0.33961(4) -0.19634(2) 0.08405(2)
C333 C 0.38761(4) 0.05838(3) 0.05603(2)
C334 C 0.16806(4) -0.20518(2) 0.02626(2)
C335 C 0.35525(4) -0.16881(3) 0.04601(2)
C336 C -0.01349(3) -0.00517(3) 0.11853(2)
C337 C 0.42978(4) -0.05012(3) 0.04082(2)
C338 C 0.49761(3) -0.02748(3) 0.12946(2)
C339 C -0.03439(3) -0.13063(3) 0.11002(2)
C340 C 0.24178(4) -0.22679(2) 0.09222(2)
C341 C 0.43530(4) -0.10626(3) 0.05733(2)
C342 C -0.04040(3) -0.07246(3) 0.09251(2)
C343 C 0.10436(4) -0.20753(2) 0.13410(2)
C344 C 0.00134(4) -0.18236(3) 0.07712(2)
C345 C 0.27794(4) -0.16832(3) 0.16986(2)
C346 C 0.28902(4) 0.10484(2) 0.19491(2)
C347 C 0.41106(4) -0.14987(3) 0.11922(2)
C348 C 0.10213(4) 0.06928(3) 0.17574(2)
C349 C 0.07562(4) 0.03652(3) 0.06051(2)
C350 C 0.02183(4) 0.00663(3) 0.16423(2)
C351 C 0.45558(4) 0.08180(3) 0.14441(2)
C352 C 0.38171(4) -0.13643(3) 0.16126(2)
C353 C 0.35859(4) 0.06585(3) 0.20725(2)
C354 C 0.45742(4) 0.01963(3) 0.06822(2)
C355 C -0.00065(4) -0.11981(3) 0.15362(2)
C356 C 0.38876(4) 0.11907(2) 0.13289(2)
C357 C 0.49072(3) 0.03067(3) 0.11177(2)
C358 C 0.24716(4) 0.11179(2) 0.08528(2)
C359 C 0.21021(4) -0.21210(2) 0.13630(2)
C360 C 0.30368(4) 0.13123(2) 0.15834(2)
C361 C 0.35352(4) 0.10704(2) 0.08744(2)
C362 C 0.17907(4) 0.06842(2) 0.05181(2)
C363 C 0.04609(4) 0.05059(3) 0.10255(2)
C364 C 0.06864(4) -0.21911(2) 0.08864(2)
C365 C 0.11726(4) 0.09628(2) 0.13756(2)
C366 C 0.21603(4) 0.12696(2) 0.12922(2)
C31? C 0.758(2) 0.0485(13) 0.1368(7)
H21? H 0.7237 0.0360 0.1092
C32? C 0.779(3) 0.0282(16) 0.2074(8)
H22? H 0.7616 0.0003 0.2265
C33? C 0.851(2) 0.0911(11) 0.2210(6)
H23? H 0.8821 0.1056 0.2492
C34? C 0.734(3) 0.0073(16) 0.1649(9)
H24? H 0.6860 -0.0351 0.1557
C35? C 0.8376(12) 0.1120(8) 0.1506(5)
C36? C 0.8771(11) 0.1321(7) 0.1920(4)
Cl3? Cl 0.9616(7) 0.2044(4) 0.2099(3)
Cl4? Cl 0.8772(11) 0.1611(9) 0.1166(5)
C37? C 0.837(3) 0.0578(19) 0.2244(12)
H25? H 0.8269 0.0270 0.2421
C38? C 0.914(5) 0.174(2) 0.2146(17)
H26? H 0.9527 0.2186 0.2258
C39? C 0.874(3) 0.150(2) 0.1703(14)
H27? H 0.8867 0.1805 0.1522
C40? C 0.893(4) 0.127(2) 0.2410(16)
H28? H 0.9164 0.1418 0.2702
C41? C 0.798(2) 0.0356(13) 0.1804(8)
C42? C 0.816(2) 0.0820(14) 0.1540(9)
Cl5? Cl 0.768(2) 0.0554(17) 0.0993(10)
Cl6? Cl 0.7310(18) -0.0502(13) 0.1591(8)
C49? C 0.785(4) 0.552(2) 0.1481(15)
C50? C 0.842(5) 0.626(3) 0.1660(18)
C51? C 0.769(7) 0.503(4) 0.176(2)
H33? H 0.7339 0.4566 0.1650
C52? C 0.883(7) 0.651(4) 0.213(3)
H34? H 0.9182 0.6967 0.2243
C53? C 0.810(9) 0.527(5) 0.223(3)
H35? H 0.8003 0.4964 0.2403
C54? C 0.865(9) 0.601(5) 0.241(3)
H36? H 0.8899 0.6155 0.2698
Cl9? Cl 0.869(6) 0.688(4) 0.131(2)
Cl10? Cl 0.735(4) 0.520(2) 0.0898(15)
C127? C 0.0998(2) 0.44981(16) 0.01014(9)
C128? C 0.3729(2) 0.56651(15) 0.06086(10)
C129? C 0.3388(2) 0.44737(15) 0.21110(9)
C130? C 0.4175(2) 0.43685(15) 0.18260(10)
C131? C 0.0186(2) 0.45882(15) 0.03821(10)
C132? C 0.4391(2) 0.55578(15) 0.17577(10)
C133? C 0.2350(2) 0.32654(15) 0.17205(10)
C134? C 0.1977(2) 0.56704(15) 0.04889(10)
C135? C 0.1364(2) 0.29706(14) 0.14817(10)
C136? C 0.0617(2) 0.32957(15) 0.15942(10)
C137? C 0.4667(2) 0.49071(15) 0.16460(10)
C138? C 0.2740(2) 0.46768(16) 0.00596(9)
C139? C 0.0426(2) 0.50529(15) 0.18417(10)
C140? C 0.4274(2) 0.46204(16) 0.04578(10)
C141? C 0.2642(2) 0.27999(15) 0.09945(10)
C142? C 0.1609(2) 0.42868(15) 0.21483(9)
C143? C 0.2975(2) 0.59640(15) 0.07102(10)
C144? C 0.3643(2) 0.50197(16) 0.02980(10)
C145? C 0.1584(2) 0.26808(14) 0.10346(10)
C146? C 0.0071(2) 0.43312(15) 0.17471(10)
C147? C 0.4782(2) 0.49980(15) 0.08876(10)
C148? C 0.3141(2) 0.51705(15) 0.22041(9)
C149? C -0.0418(2) 0.39660(15) 0.13046(10)
C150? C -0.0047(2) 0.33983(15) 0.04559(10)
C151? C 0.1835(2) 0.50308(16) 0.01426(9)
C152? C 0.1182(2) 0.37732(16) 0.00056(9)
C153? C 0.2513(2) 0.39241(15) 0.20555(9)
C154? C 0.0925(2) 0.26946(14) 0.07183(10)
C155? C 0.1726(2) 0.61541(14) 0.12059(10)
C156? C 0.0732(2) 0.32763(15) 0.01809(9)
C157? C 0.3588(2) 0.56914(15) 0.20275(9)
C158? C 0.4869(2) 0.46449(15) 0.12065(10)
C159? C 0.0700(2) 0.39410(15) 0.19113(9)
C160? C 0.3964(2) 0.39116(16) 0.03780(10)
C161? C 0.4507(2) 0.56259(15) 0.09793(10)
C162? C 0.2774(2) 0.62646(14) 0.11686(10)
C163? C -0.0313(2) 0.40444(15) 0.05693(10)
C164? C -0.0157(2) 0.33376(14) 0.12225(10)
C165? C 0.4438(2) 0.38393(15) 0.11074(10)
C166? C -0.0095(2) 0.51123(15) 0.11114(10)
C167? C 0.3106(2) 0.29768(15) 0.06568(10)
C168? C 0.4028(2) 0.35219(15) 0.07086(10)
C169? C -0.0501(2) 0.42923(15) 0.09926(10)
C170? C 0.1915(2) 0.59547(15) 0.19150(9)
C171? C 0.1376(2) 0.28743(15) 0.03115(10)
C172? C 0.3394(2) 0.62471(14) 0.14768(10)
C173? C 0.1265(2) 0.59981(14) 0.15364(10)
C174? C 0.1449(2) 0.54469(15) 0.20797(9)
C175? C 0.2464(2) 0.30329(15) 0.02782(10)
C176? C 0.3128(2) 0.31796(15) 0.14469(10)
C177? C 0.2962(2) 0.60699(14) 0.18967(9)
C178? C 0.4034(2) 0.37298(15) 0.15116(10)
C179? C 0.0339(2) 0.54436(15) 0.15109(10)
C180? C 0.0069(2) 0.30221(14) 0.07763(10)
C181? C 0.1234(2) 0.57568(15) 0.07618(10)
C182? C 0.4302(2) 0.59173(15) 0.14210(10)
C183? C 0.2010(2) 0.49947(15) 0.22370(9)
C184? C 0.2374(2) 0.39561(16) -0.00239(9)
C185? C 0.0306(2) 0.52431(15) 0.07025(10)
C186? C 0.2949(2) 0.35536(16) 0.01224(10)
loop_
_geom_bond_atom_site_label_1
_geom_bond_atom_site_label_2
_geom_bond_site_symmetry_1
_geom_bond_site_symmetry_2
C1 H1 1_555 1_555
C2 C1 1_555 1_555
H2 C2 1_555 1_555
C3 C4 1_555 1_555
C4 S3 1_555 1_555
C5 H3 1_555 1_555
C6 C5 1_555 1_555
H4 C6 1_555 1_555
S1 C1 1_555 1_555
S2 C2 1_555 1_555
S3 C5 1_555 1_555
S4 C4 1_555 1_555
C7 H5 1_555 1_555
C8 C7 1_555 1_555
H6 C8 1_555 1_555
C9 H7 1_555 1_555
C10 C9 1_555 1_555
H8 C10 1_555 1_555
C11 C12 1_555 1_555
C12 S7 1_555 1_555
S5 C7 1_555 1_555
S6 C8 1_555 1_555
S7 C10 1_555 1_555
S8 C9 1_555 1_555
C13 H9 1_555 1_555
C14 C13 1_555 1_555
H10 C14 1_555 1_555
C15 H11 1_555 1_555
C16 C15 1_555 1_555
H12 C16 1_555 1_555
C17 C18 1_555 1_555
C18 S9 1_555 1_555
S9 C13 1_555 1_555
S10 C14 1_555 1_555
S11 C15 1_555 1_555
S12 C16 1_555 1_555
C19 H13 1_555 1_555
C20 C19 1_555 1_555
H14 C20 1_555 1_555
C21 S13 1_555 1_555
S13 C19 1_555 1_555
S14 C20 1_555 1_555
C22 H15 1_555 1_555
C23 C22 1_555 1_555
H16 C23 1_555 1_555
C24 S15 1_555 1_555
S15 C23 1_555 1_555
S16 C22 1_555 1_555
C25 H17 1_555 1_555
C26 H18 1_555 1_555
C27 C26 1_555 1_555
H19 C27 1_555 1_555
C28 C25 1_555 1_555
H20 C28 1_555 1_555
C29 C25 1_555 1_555
C30 C27 1_555 1_555
Cl1 C30 1_555 1_555
Cl2 C29 1_555 1_555
C43 C44 1_555 1_555
C44 C46 1_555 1_555
C45 C43 1_555 1_555
H29 C45 1_555 1_555
C46 H30 1_555 1_555
C47 C45 1_555 1_555
H31 C47 1_555 1_555
C48 C46 1_555 1_555
H32 C48 1_555 1_555
Cl7 C44 1_555 1_555
Cl8 C43 1_555 1_555
C55 C56 1_555 1_555
C56 C59 1_555 1_555
C57 C55 1_555 1_555
H37 C57 1_555 1_555
C58 C57 1_555 1_555
H38 C58 1_555 1_555
C59 H39 1_555 1_555
C60 C58 1_555 1_555
H40 C60 1_555 1_555
Cl11 C55 1_555 1_555
Cl12 C56 1_555 1_555
C61 C63 1_555 1_555
C62 H41 1_555 1_555
C63 H42 1_555 1_555
C64 C62 1_555 1_555
H43 C64 1_555 1_555
C65 C63 1_555 1_555
H44 C65 1_555 1_555
C66 C61 1_555 1_555
Cl13 C61 1_555 1_555
Cl14 C66 1_555 1_555
C67 C71 1_555 1_555
C68 C83 1_555 1_555
C69 C70 1_555 1_555
C70 C77 1_555 1_555
C71 C103 1_555 1_555
C72 C77 1_555 1_555
C73 C75 1_555 1_555
C74 C83 1_555 1_555
C75 C76 1_555 1_555
C76 C99 1_555 1_555
C77 C98 1_555 1_555
C78 C84 1_555 1_555
C79 C86 1_555 1_555
C80 C84 1_555 1_555
C81 C85 1_555 1_555
C82 C93 1_555 1_555
C83 C102 1_555 1_555
C84 C68 1_555 1_555
C85 C75 1_555 1_555
C86 C89 1_555 1_555
C87 C80 1_555 1_555
C88 C69 1_555 1_555
C89 C104 1_555 1_555
C90 C96 1_555 1_555
C91 C67 1_555 1_555
C92 C67 1_555 1_555
C93 C69 1_555 1_555
C94 C85 1_555 1_555
C95 C102 1_555 1_555
C96 C92 1_555 1_555
C97 C72 1_555 1_555
C98 C87 1_555 1_555
C99 C82 1_555 1_555
C100 C80 1_555 1_555
C101 C68 1_555 1_555
C102 C112 1_555 1_555
C103 C90 1_555 1_555
C104 C76 1_555 1_555
C105 C98 1_555 1_555
C106 C109 1_555 1_555
C107 C81 1_555 1_555
C108 C100 1_555 1_555
C109 C89 1_555 1_555
C110 C113 1_555 1_555
C111 C94 1_555 1_555
C112 C117 1_555 1_555
C113 C95 1_555 1_555
C114 C79 1_555 1_555
C115 C107 1_555 1_555
C116 C73 1_555 1_555
C117 C97 1_555 1_555
C118 C70 1_555 1_555
C119 C79 1_555 1_555
C120 C90 1_555 1_555
C121 C74 1_555 1_555
C122 C72 1_555 1_555
C123 C82 1_555 1_555
C124 C78 1_555 1_555
C125 C71 1_555 1_555
C126 C100 1_555 1_555
C187 C188 1_555 1_555
C188 C194 1_555 1_555
C189 C187 1_555 1_555
C190 C194 1_555 1_555
C191 C194 1_555 1_555
C192 C200 1_555 1_555
C193 C195 1_555 1_555
C195 C204 1_555 1_555
C196 C188 1_555 1_555
C197 C190 1_555 1_555
C198 C193 1_555 1_555
C199 C187 1_555 1_555
C200 C201 1_555 1_555
C201 C193 1_555 1_555
C202 C205 1_555 1_555
C203 C190 1_555 1_555
C204 C209 1_555 1_555
C205 C213 1_555 1_555
C206 C192 1_555 1_555
C207 C214 1_555 1_555
C208 C202 1_555 1_555
C209 C198 1_555 1_555
C210 C192 1_555 1_555
C211 C196 1_555 1_555
C212 C189 1_555 1_555
C213 C196 1_555 1_555
C214 C197 1_555 1_555
C215 C189 1_555 1_555
C216 C206 1_555 1_555
C217 C220 1_555 1_555
C218 C224 1_555 1_555
C219 C202 1_555 1_555
C220 C208 1_555 1_555
C221 C206 1_555 1_555
C222 C221 1_555 1_555
C223 C203 1_555 1_555
C224 C209 1_555 1_555
C225 C215 1_555 1_555
C226 C191 1_555 1_555
C227 C198 1_555 1_555
C228 C218 1_555 1_555
C229 C215 1_555 1_555
C230 C212 1_555 1_555
C231 C234 1_555 1_555
C232 C204 1_555 1_555
C233 C222 1_555 1_555
C234 C236 1_555 1_555
C235 C230 1_555 1_555
C236 C235 1_555 1_555
C237 C226 1_555 1_555
C238 C227 1_555 1_555
C239 C201 1_555 1_555
C240 C199 1_555 1_555
C241 C210 1_555 1_555
C242 C205 1_555 1_555
C243 C200 1_555 1_555
C244 C236 1_555 1_555
C245 C233 1_555 1_555
C246 C228 1_555 1_555
C247 C254 1_555 1_555
C248 C249 1_555 1_555
C249 C251 1_555 1_555
C250 C248 1_555 1_555
C251 C277 1_555 1_555
C252 C259 1_555 1_555
C253 C259 1_555 1_555
C254 C262 1_555 1_555
C255 C262 1_555 1_555
C256 C247 1_555 1_555
C257 C266 1_555 1_555
C258 C265 1_555 1_555
C259 C296 1_555 1_555
C260 C270 1_555 1_555
C261 C266 1_555 1_555
C262 C253 1_555 1_555
C263 C248 1_555 1_555
C264 C267 1_555 1_555
C265 C281 1_555 1_555
C266 C256 1_555 1_555
C267 C261 1_555 1_555
C268 C271 1_555 1_555
C269 C258 1_555 1_555
C270 C258 1_555 1_555
C271 C260 1_555 1_555
C272 C261 1_555 1_555
C273 C263 1_555 1_555
C274 C278 1_555 1_555
C275 C249 1_555 1_555
C276 C256 1_555 1_555
C277 C280 1_555 1_555
C278 C252 1_555 1_555
C279 C253 1_555 1_555
C280 C252 1_555 1_555
C281 C260 1_555 1_555
C282 C269 1_555 1_555
C283 C247 1_555 1_555
C284 C273 1_555 1_555
C285 C257 1_555 1_555
C286 C254 1_555 1_555
C287 C269 1_555 1_555
C288 C257 1_555 1_555
C289 C250 1_555 1_555
C290 C263 1_555 1_555
C291 C284 1_555 1_555
C292 C255 1_555 1_555
C293 C279 1_555 1_555
C294 C264 1_555 1_555
C295 C265 1_555 1_555
C296 C286 1_555 1_555
C297 C251 1_555 1_555
C298 C288 1_555 1_555
C299 C250 1_555 1_555
C300 C275 1_555 1_555
C301 C291 1_555 1_555
C302 C293 1_555 1_555
C303 C285 1_555 1_555
C304 C292 1_555 1_555
C305 C273 1_555 1_555
C306 C291 1_555 1_555
C307 C309 1_555 1_555
C308 C322 1_555 1_555
C309 C315 1_555 1_555
C310 C313 1_555 1_555
C311 C321 1_555 1_555
C312 C307 1_555 1_555
C313 C323 1_555 1_555
C314 C322 1_555 1_555
C315 C320 1_555 1_555
C316 C328 1_555 1_555
C317 C323 1_555 1_555
C318 C320 1_555 1_555
C319 C334 1_555 1_555
C320 C338 1_555 1_555
C321 C309 1_555 1_555
C322 C310 1_555 1_555
C323 C344 1_555 1_555
C324 C326 1_555 1_555
C325 C338 1_555 1_555
C326 C308 1_555 1_555
C327 C311 1_555 1_555
C328 C311 1_555 1_555
C329 C312 1_555 1_555
C330 C317 1_555 1_555
C331 C310 1_555 1_555
C332 C335 1_555 1_555
C333 C326 1_555 1_555
C334 C313 1_555 1_555
C335 C314 1_555 1_555
C336 C342 1_555 1_555
C337 C308 1_555 1_555
C338 C357 1_555 1_555
C339 C342 1_555 1_555
C340 C319 1_555 1_555
C341 C325 1_555 1_555
C342 C317 1_555 1_555
C343 C327 1_555 1_555
C344 C339 1_555 1_555
C345 C321 1_555 1_555
C346 C329 1_555 1_555
C347 C325 1_555 1_555
C348 C329 1_555 1_555
C349 C330 1_555 1_555
C350 C316 1_555 1_555
C351 C318 1_555 1_555
C352 C315 1_555 1_555
C353 C307 1_555 1_555
C354 C333 1_555 1_555
C355 C316 1_555 1_555
C356 C351 1_555 1_555
C357 C351 1_555 1_555
C358 C361 1_555 1_555
C359 C340 1_555 1_555
C360 C346 1_555 1_555
C361 C333 1_555 1_555
C362 C324 1_555 1_555
C363 C336 1_555 1_555
C364 C319 1_555 1_555
C365 C348 1_555 1_555
C366 C358 1_555 1_555
C19A H13A 1_555 1_555
C20A C19A 1_555 1_555
H14A C20A 1_555 1_555
C21A C21 1_555 1_555
S13A C19A 1_555 1_555
S14A C20A 1_555 1_555
C22A H15A 1_555 1_555
C23A C22A 1_555 1_555
H16A C23A 1_555 1_555
C24A C24 1_555 1_555
S15A C23A 1_555 1_555
S16A C22A 1_555 1_555
C3 S1 1_555 1_555
C3 S2 1_555 1_555
C6 S4 1_555 1_555
C11 S5 1_555 1_555
C11 S6 1_555 1_555
C12 S8 1_555 1_555
C17 S11 1_555 1_555
C17 S12 1_555 1_555
C18 S10 1_555 1_555
C21 S14 1_555 1_555
C24 S16 1_555 1_555
C26 C28 1_555 1_555
C29 C30 1_555 1_555
C47 C48 1_555 1_555
C59 C60 1_555 1_555
C62 C66 1_555 1_555
C64 C65 1_555 1_555
C73 C93 1_555 1_555
C74 C91 1_555 1_555
C78 C91 1_555 1_555
C81 C116 1_555 1_555
C86 C99 1_555 1_555
C87 C101 1_555 1_555
C88 C97 1_555 1_555
C88 C123 1_555 1_555
C92 C124 1_555 1_555
C94 C120 1_555 1_555
C95 C121 1_555 1_555
C96 C111 1_555 1_555
C101 C122 1_555 1_555
C103 C109 1_555 1_555
C104 C120 1_555 1_555
C105 C108 1_555 1_555
C105 C118 1_555 1_555
C106 C119 1_555 1_555
C106 C125 1_555 1_555
C107 C108 1_555 1_555
C110 C114 1_555 1_555
C110 C117 1_555 1_555
C111 C115 1_555 1_555
C112 C122 1_555 1_555
C113 C119 1_555 1_555
C114 C123 1_555 1_555
C115 C126 1_555 1_555
C116 C118 1_555 1_555
C121 C125 1_555 1_555
C124 C126 1_555 1_555
C191 C212 1_555 1_555
C195 C210 1_555 1_555
C197 C213 1_555 1_555
C199 C211 1_555 1_555
C203 C226 1_555 1_555
C207 C221 1_555 1_555
C207 C223 1_555 1_555
C208 C211 1_555 1_555
C214 C242 1_555 1_555
C216 C241 1_555 1_555
C216 C242 1_555 1_555
C217 C224 1_555 1_555
C217 C240 1_555 1_555
C218 C225 1_555 1_555
C219 C232 1_555 1_555
C219 C241 1_555 1_555
C220 C232 1_555 1_555
C222 C243 1_555 1_555
C223 C233 1_555 1_555
C225 C240 1_555 1_555
C227 C228 1_555 1_555
C229 C230 1_555 1_555
C229 C246 1_555 1_555
C231 C239 1_555 1_555
C231 C243 1_555 1_555
C234 C245 1_555 1_555
C235 C237 1_555 1_555
C237 C245 1_555 1_555
C238 C239 1_555 1_555
C238 C244 1_555 1_555
C244 C246 1_555 1_555
C255 C283 1_555 1_555
C264 C285 1_555 1_555
C267 C271 1_555 1_555
C268 C290 1_555 1_555
C268 C294 1_555 1_555
C270 C272 1_555 1_555
C272 C276 1_555 1_555
C274 C287 1_555 1_555
C274 C295 1_555 1_555
C275 C284 1_555 1_555
C276 C282 1_555 1_555
C277 C300 1_555 1_555
C278 C297 1_555 1_555
C279 C280 1_555 1_555
C281 C289 1_555 1_555
C282 C286 1_555 1_555
C283 C288 1_555 1_555
C287 C296 1_555 1_555
C289 C290 1_555 1_555
C292 C293 1_555 1_555
C294 C305 1_555 1_555
C295 C299 1_555 1_555
C297 C299 1_555 1_555
C298 C303 1_555 1_555
C298 C304 1_555 1_555
C300 C302 1_555 1_555
C301 C303 1_555 1_555
C301 C305 1_555 1_555
C302 C306 1_555 1_555
C304 C306 1_555 1_555
C312 C328 1_555 1_555
C314 C334 1_555 1_555
C318 C353 1_555 1_555
C324 C331 1_555 1_555
C327 C355 1_555 1_555
C330 C331 1_555 1_555
C332 C340 1_555 1_555
C332 C347 1_555 1_555
C335 C341 1_555 1_555
C336 C350 1_555 1_555
C337 C341 1_555 1_555
C337 C354 1_555 1_555
C339 C355 1_555 1_555
C343 C359 1_555 1_555
C343 C364 1_555 1_555
C344 C364 1_555 1_555
C345 C352 1_555 1_555
C345 C359 1_555 1_555
C346 C353 1_555 1_555
C347 C352 1_555 1_555
C348 C350 1_555 1_555
C349 C362 1_555 1_555
C349 C363 1_555 1_555
C354 C357 1_555 1_555
C356 C360 1_555 1_555
C356 C361 1_555 1_555
C358 C362 1_555 1_555
C360 C366 1_555 1_555
C363 C365 1_555 1_555
C365 C366 1_555 1_555
C21A S13A 1_555 1_555
C21A S14A 1_555 1_555
C24A S15A 1_555 1_555
C24A S16A 1_555 1_555

#END
