
#######################################################################
#
#                 Cambridge Crystallographic Data Centre
#                                CCDC 
#
#######################################################################
#
# If this CIF has been generated from an entry in the Cambridge 
# Structural Database, then it will include bibliographic, chemical, 
# crystal, experimental, refinement or atomic coordinate data resulting 
# from the CCDC's data processing and validation procedures.
#
#######################################################################

data_EBYBUA
_chemical_formula_moiety         'C19 H23 N1 O1'
_chemical_name_systematic        p-Ethoxybenzylidene-p-n-butylaniline
_symmetry_cell_setting           monoclinic
_symmetry_space_group_name_H-M   'P 21/c'
_symmetry_Int_Tables_number      14
_space_group_name_Hall           '-P 2ybc'
loop_
_symmetry_equiv_pos_site_id
_symmetry_equiv_pos_as_xyz
1 x,y,z
2 -x,1/2+y,1/2-z
3 -x,-y,-z
4 x,1/2-y,1/2+z
_cell_length_a                   7.943(1)
_cell_length_b                   5.623(4)
_cell_length_c                   37.376(19)
_cell_angle_alpha                90
_cell_angle_beta                 92.20(4)
_cell_angle_gamma                90
_cell_volume                     1668.11
_cell_formula_units_Z            4
loop_
_atom_site_label
_atom_site_type_symbol
_atom_site_fract_x
_atom_site_fract_y
_atom_site_fract_z
C1 C 1.02800 0.11700 0.36950
H1 H 1.12200 0.24000 0.36800
H2 H 0.90900 0.15000 0.38600
H3 H 1.12300 -0.03000 0.37800
C2 C 0.97700 0.05000 0.33160
H4 H 1.09000 0.02000 0.31600
H5 H 0.93100 -0.09000 0.33000
O1 O 0.87600 0.24100 0.31750
C3 C 0.81200 0.21800 0.28310
C4 C 0.71200 0.41100 0.27110
H6 H 0.67200 0.54000 0.28900
C5 C 0.64400 0.41300 0.23700
H7 H 0.55800 0.54000 0.23000
C6 C 0.84600 0.02800 0.26020
H8 H 0.95700 -0.09000 0.26700
C7 C 0.77400 0.03400 0.22590
H9 H 0.83000 -0.10000 0.20800
C8 C 0.67400 0.22200 0.21420
C9 C 0.59600 0.22000 0.17710
H10 H 0.62900 0.09000 0.16500
N1 N 0.52280 0.39700 0.16270
C10 C 0.44500 0.36800 0.12780
C11 C 0.34200 0.17800 0.11870
H11 H 0.30400 0.06000 0.13800
C12 C 0.26000 0.17500 0.08520
H12 H 0.18000 0.05000 0.07900
C13 C 0.38900 0.53700 0.07000
H13 H 0.42500 0.67000 0.05400
C14 C 0.47000 0.55400 0.10340
H14 H 0.54200 0.70000 0.11000
C15 C 0.28600 0.35600 0.05970
C16 C 0.19500 0.34200 0.02300
H15 H 0.05000 0.29000 0.02500
H16 H 0.18900 0.48000 0.01300
C17 C 0.27100 0.15500 -0.00090
H17 H 0.42400 0.19000 -0.00600
H18 H 0.26700 0.02000 0.00800
C18 C 0.18500 0.13900 -0.03810
H19 H 0.03500 0.13000 -0.03700
H20 H 0.22000 0.28000 -0.04800
C19 C 0.25000 -0.06600 -0.06030
H21 H 0.23000 -0.22000 -0.04800
H22 H 0.22000 -0.06000 -0.08400
loop_
_geom_bond_atom_site_label_1
_geom_bond_atom_site_label_2
_geom_bond_site_symmetry_1
_geom_bond_site_symmetry_2
C1 H1 1_555 1_555
H2 C1 1_555 1_555
H3 C1 1_555 1_555
C2 C1 1_555 1_555
H4 C2 1_555 1_555
H5 C2 1_555 1_555
O1 C2 1_555 1_555
C3 O1 1_555 1_555
C4 C3 1_555 1_555
H6 C4 1_555 1_555
C5 C4 1_555 1_555
H7 C5 1_555 1_555
C6 C3 1_555 1_555
H8 C6 1_555 1_555
C7 C6 1_555 1_555
H9 C7 1_555 1_555
C8 C5 1_555 1_555
C9 C8 1_555 1_555
H10 C9 1_555 1_555
N1 C9 1_555 1_555
C10 N1 1_555 1_555
C11 C10 1_555 1_555
H11 C11 1_555 1_555
C12 C11 1_555 1_555
H12 C12 1_555 1_555
C13 H13 1_555 1_555
C14 C10 1_555 1_555
H14 C14 1_555 1_555
C15 C12 1_555 1_555
C16 C15 1_555 1_555
H15 C16 1_555 1_555
H16 C16 1_555 1_555
C17 C16 1_555 1_555
H17 C17 1_555 1_555
H18 C17 1_555 1_555
C18 C17 1_555 1_555
H19 C18 1_555 1_555
H20 C18 1_555 1_555
C19 C18 1_555 1_555
H21 C19 1_555 1_555
H22 C19 1_555 1_555
C7 C8 1_555 1_555
C13 C14 1_555 1_555
C13 C15 1_555 1_555

#END
