
#######################################################################
#
#                 Cambridge Crystallographic Data Centre
#                                CCDC 
#
#######################################################################
#
# If this CIF has been generated from an entry in the Cambridge 
# Structural Database, then it will include bibliographic, chemical, 
# crystal, experimental, refinement or atomic coordinate data resulting 
# from the CCDC's data processing and validation procedures.
#
#######################################################################

data_ECABUI
_chemical_formula_moiety         'C20 H22 N2 O6 Si1'
_chemical_name_systematic        
'1-(dimethyl(phenyl)silyl)pent-3-en-1-yl 3,5-dinitrobenzoate'
_symmetry_cell_setting           triclinic
_symmetry_space_group_name_H-M   'P -1'
_symmetry_Int_Tables_number      2
_space_group_name_Hall           '-P 1'
loop_
_symmetry_equiv_pos_site_id
_symmetry_equiv_pos_as_xyz
1 x,y,z
2 -x,-y,-z
_cell_length_a                   7.5090(4)
_cell_length_b                   11.4202(7)
_cell_length_c                   13.2271(8)
_cell_angle_alpha                70.390(3)
_cell_angle_beta                 79.619(3)
_cell_angle_gamma                80.649(3)
_cell_volume                     1044.61
_exptl_crystal_colour            yellow
_exptl_crystal_description       platy
_cell_formula_units_Z            2
loop_
_atom_site_label
_atom_site_type_symbol
_atom_site_fract_x
_atom_site_fract_y
_atom_site_fract_z
Si1 Si 0.23665(13) 0.54001(9) 0.79565(8)
C1 C 0.3610(5) 0.4054(3) 0.7499(3)
C2 C -0.0088(5) 0.5610(4) 0.7807(3)
H1 H -0.0658 0.4870 0.8290
H2 H -0.0216 0.5719 0.7056
H3 H -0.0687 0.6351 0.7998
C3 C 0.4531(5) 0.3020(3) 0.8186(4)
H4 H 0.4564 0.2986 0.8910
C4 C 0.3578(5) 0.4077(4) 0.6441(3)
H5 H 0.2945 0.4774 0.5966
C5 C 0.2648(6) 0.5165(4) 0.9383(3)
H6 H 0.2083 0.4422 0.9862
H7 H 0.2062 0.5899 0.9588
H8 H 0.3949 0.5049 0.9451
C6 C 0.5404(6) 0.2037(4) 0.7822(4)
H9 H 0.6039 0.1341 0.8295
C7 C 0.4452(6) 0.3101(4) 0.6065(4)
H10 H 0.4438 0.3136 0.5338
C8 C 0.5351(6) 0.2067(4) 0.6773(4)
H11 H 0.5928 0.1384 0.6534
C9 C 0.3459(5) 0.6841(3) 0.7026(3)
H12 H 0.3299 0.6966 0.6261
O1 O 0.2526(3) 0.7932(2) 0.73440(19)
O2 O 0.2086(4) 0.9019(3) 0.5618(2)
C10 C 0.5497(5) 0.6754(3) 0.7105(3)
H13 H 0.5657 0.6527 0.7877
H14 H 0.6157 0.6074 0.6831
C11 C 0.6338(5) 0.7939(4) 0.6486(3)
H15 H 0.6491 0.8165 0.5718
C12 C 0.6890(5) 0.8705(4) 0.6901(4)
H16 H 0.7376 0.9430 0.6397
C13 C 0.6831(7) 0.8556(4) 0.8071(4)
H17 H 0.7333 0.9262 0.8139
H18 H 0.7555 0.7774 0.8417
H19 H 0.5567 0.8534 0.8424
N1 N -0.0809(4) 1.3315(3) 0.5809(3)
N2 N 0.1251(5) 1.1120(3) 0.9347(3)
O3 O -0.1384(4) 1.4213(2) 0.6131(2)
O4 O 0.2122(4) 1.0201(3) 0.9911(2)
O5 O 0.0564(4) 1.2027(3) 0.9631(2)
O6 O -0.0858(4) 1.3301(3) 0.4898(2)
C14 C 0.1582(5) 1.0041(3) 0.7975(3)
H20 H 0.2118 0.9311 0.8468
C15 C 0.0007(5) 1.2166(3) 0.6575(3)
C16 C 0.0561(5) 1.1133(3) 0.6235(3)
H21 H 0.0401 1.1152 0.5534
C17 C 0.1367(5) 1.0055(3) 0.6949(3)
C18 C 0.2027(5) 0.8949(3) 0.6551(3)
C19 C 0.0202(5) 1.2201(3) 0.7580(3)
H22 H -0.0189 1.2929 0.7790
C20 C 0.1000(5) 1.1116(3) 0.8267(3)
loop_
_geom_bond_atom_site_label_1
_geom_bond_atom_site_label_2
_geom_bond_site_symmetry_1
_geom_bond_site_symmetry_2
Si1 C1 1_555 1_555
C1 C3 1_555 1_555
C2 Si1 1_555 1_555
H1 C2 1_555 1_555
H2 C2 1_555 1_555
H3 C2 1_555 1_555
C3 H4 1_555 1_555
C4 C1 1_555 1_555
H5 C4 1_555 1_555
C5 Si1 1_555 1_555
H6 C5 1_555 1_555
H7 C5 1_555 1_555
H8 C5 1_555 1_555
C6 C3 1_555 1_555
H9 C6 1_555 1_555
C7 C4 1_555 1_555
H10 C7 1_555 1_555
C8 C6 1_555 1_555
H11 C8 1_555 1_555
C9 Si1 1_555 1_555
H12 C9 1_555 1_555
O1 C9 1_555 1_555
O2 C18 1_555 1_555
C10 C9 1_555 1_555
H13 C10 1_555 1_555
H14 C10 1_555 1_555
C11 C10 1_555 1_555
H15 C11 1_555 1_555
C12 C11 1_555 1_555
H16 C12 1_555 1_555
C13 C12 1_555 1_555
H17 C13 1_555 1_555
H18 C13 1_555 1_555
H19 C13 1_555 1_555
N1 O3 1_555 1_555
N2 O4 1_555 1_555
O5 N2 1_555 1_555
O6 N1 1_555 1_555
C14 H20 1_555 1_555
C15 N1 1_555 1_555
C16 C15 1_555 1_555
H21 C16 1_555 1_555
C17 C14 1_555 1_555
C18 O1 1_555 1_555
C19 C15 1_555 1_555
H22 C19 1_555 1_555
C20 N2 1_555 1_555
C7 C8 1_555 1_555
C14 C20 1_555 1_555
C16 C17 1_555 1_555
C17 C18 1_555 1_555
C19 C20 1_555 1_555

#END
