
#######################################################################
#
#                 Cambridge Crystallographic Data Centre
#                                CCDC 
#
#######################################################################
#
# If this CIF has been generated from an entry in the Cambridge 
# Structural Database, then it will include bibliographic, chemical, 
# crystal, experimental, refinement or atomic coordinate data resulting 
# from the CCDC's data processing and validation procedures.
#
#######################################################################

data_ECABUG
_chemical_formula_moiety         'C18 H15 N1 O3'
_chemical_name_systematic        
3-[(2-Methoxyphenyl)ethynyl]-4-phenyl-1,3-oxazolidin-2-one
_symmetry_cell_setting           orthorhombic
_symmetry_space_group_name_H-M   'P 21 21 21'
_symmetry_Int_Tables_number      19
_space_group_name_Hall           'P 2ac 2ab'
loop_
_symmetry_equiv_pos_site_id
_symmetry_equiv_pos_as_xyz
1 x,y,z
2 1/2-x,-y,1/2+z
3 -x,1/2+y,1/2-z
4 1/2+x,1/2-y,-z
_cell_length_a                   5.8632(13)
_cell_length_b                   14.750(3)
_cell_length_c                   17.243(4)
_cell_angle_alpha                90
_cell_angle_beta                 90
_cell_angle_gamma                90
_cell_volume                     1491.21
_exptl_crystal_colour            colorless
_exptl_crystal_description       needle
_cell_formula_units_Z            4
loop_
_atom_site_label
_atom_site_type_symbol
_atom_site_fract_x
_atom_site_fract_y
_atom_site_fract_z
O1 O 0.4587(6) 0.3297(2) 0.38924(19)
O2 O 0.7736(5) 0.25985(19) 0.43330(16)
O3 O 0.2107(6) 0.30931(19) 0.10008(19)
N1 N 0.7361(6) 0.2767(2) 0.30587(18)
C1 C 0.6380(8) 0.2924(3) 0.3769(2)
C2 C 0.9682(7) 0.2371(3) 0.3123(2)
H1 H 1.0858 0.2842 0.3006
C3 C 0.9698(8) 0.2147(3) 0.3998(2)
H2 H 0.9593 0.1484 0.4079
H3 H 1.1122 0.2369 0.4241
C4 C 1.0036(7) 0.1549(2) 0.2610(2)
C5 C 1.2037(8) 0.1460(3) 0.2198(2)
H4 H 1.3170 0.1920 0.2226
C6 C 1.2396(9) 0.0691(3) 0.1738(3)
H5 H 1.3777 0.0627 0.1456
C7 C 1.0756(9) 0.0032(3) 0.1695(3)
H6 H 1.0989 -0.0483 0.1374
C8 C 0.8763(9) 0.0113(3) 0.2118(3)
H7 H 0.7644 -0.0352 0.2094
C9 C 0.8392(8) 0.0869(3) 0.2575(3)
H8 H 0.7019 0.0925 0.2863
C10 C 0.6580(7) 0.3192(3) 0.2414(2)
C11 C 0.5824(7) 0.3586(3) 0.1869(2)
C12 C 0.4992(7) 0.4150(3) 0.1249(2)
C13 C 0.3052(8) 0.3916(3) 0.0815(2)
C14 C 0.2225(9) 0.4499(3) 0.0256(3)
H9 H 0.0895 0.4346 -0.0030
C15 C 0.3347(9) 0.5310(3) 0.0114(3)
H10 H 0.2760 0.5713 -0.0266
C16 C 0.5305(9) 0.5542(3) 0.0516(3)
H11 H 0.6082 0.6091 0.0401
C17 C 0.6115(8) 0.4971(3) 0.1082(3)
H12 H 0.7447 0.5132 0.1364
C18 C 0.0201(8) 0.2792(4) 0.0559(3)
H13 H -0.0230 0.2180 0.0725
H14 H 0.0607 0.2782 0.0008
H15 H -0.1084 0.3206 0.0640
loop_
_geom_bond_atom_site_label_1
_geom_bond_atom_site_label_2
_geom_bond_site_symmetry_1
_geom_bond_site_symmetry_2
O1 C1 1_555 1_555
O2 C1 1_555 1_555
O3 C13 1_555 1_555
N1 C1 1_555 1_555
C2 N1 1_555 1_555
H1 C2 1_555 1_555
C3 O2 1_555 1_555
H2 C3 1_555 1_555
H3 C3 1_555 1_555
C4 C2 1_555 1_555
C5 C4 1_555 1_555
H4 C5 1_555 1_555
C6 C5 1_555 1_555
H5 C6 1_555 1_555
C7 C6 1_555 1_555
H6 C7 1_555 1_555
C8 C7 1_555 1_555
H7 C8 1_555 1_555
C9 C4 1_555 1_555
H8 C9 1_555 1_555
C10 N1 1_555 1_555
C11 C10 1_555 1_555
C12 C11 1_555 1_555
C13 C12 1_555 1_555
C14 C13 1_555 1_555
H9 C14 1_555 1_555
C15 C14 1_555 1_555
H10 C15 1_555 1_555
C16 C15 1_555 1_555
H11 C16 1_555 1_555
C17 C12 1_555 1_555
H12 C17 1_555 1_555
C18 O3 1_555 1_555
H13 C18 1_555 1_555
H14 C18 1_555 1_555
H15 C18 1_555 1_555
C2 C3 1_555 1_555
C8 C9 1_555 1_555
C16 C17 1_555 1_555

#END
