
#######################################################################
#
#                 Cambridge Crystallographic Data Centre
#                                CCDC 
#
#######################################################################
#
# If this CIF has been generated from an entry in the Cambridge 
# Structural Database, then it will include bibliographic, chemical, 
# crystal, experimental, refinement or atomic coordinate data resulting 
# from the CCDC's data processing and validation procedures.
#
#######################################################################

data_ECACEQ
_chemical_formula_moiety         'C22 H14 O2,0.5(H2 O1)'
_chemical_name_systematic        
'1,2-bis(2-(3-Hydroxyphenyl)ethynyl)benzene hemihydrate clathrate'
_symmetry_cell_setting           monoclinic
_symmetry_space_group_name_H-M   'C 2/c'
_symmetry_Int_Tables_number      15
_space_group_name_Hall           '-C 2yn'
loop_
_symmetry_equiv_pos_site_id
_symmetry_equiv_pos_as_xyz
1 x,y,z
2 x,-y,1/2+z
3 1/2+x,1/2+y,z
4 1/2+x,1/2-y,1/2+z
5 -x,-y,-z
6 -x,y,1/2-z
7 1/2-x,1/2-y,-z
8 1/2-x,1/2+y,1/2-z
_cell_length_a                   37.207(3)
_cell_length_b                   5.6404(4)
_cell_length_c                   16.4275(13)
_cell_angle_alpha                90
_cell_angle_beta                 104.546(9)
_cell_angle_gamma                90
_cell_volume                     3337.01
_exptl_crystal_colour            colorless
_exptl_crystal_description       prism
_chemical_melting_point          '113-114 deg.C'
_cell_formula_units_Z            8
_exptl_crystal_recrystallization_method chloroform
loop_
_atom_site_label
_atom_site_type_symbol
_atom_site_fract_x
_atom_site_fract_y
_atom_site_fract_z
O1 O 0.48660(3) 0.4727(2) 0.36249(9)
H1 H 0.4798 0.3535 0.3318
C1 C 0.42065(4) 0.5373(3) 0.32179(9)
H2 H 0.4172 0.3949 0.2899
C2 C 0.45589(4) 0.6071(3) 0.36547(10)
C3 C 0.46116(4) 0.8133(3) 0.41311(11)
H3 H 0.4854 0.8586 0.4436
C4 C 0.43090(5) 0.9520(3) 0.41577(11)
H4 H 0.4345 1.0936 0.4481
C5 C 0.39538(4) 0.8876(3) 0.37190(10)
H5 H 0.3748 0.9850 0.3736
C6 C 0.39018(4) 0.6779(3) 0.32505(9)
C7 C 0.35362(4) 0.6099(3) 0.27852(9)
C8 C 0.32324(4) 0.5628(3) 0.23649(9)
C9 C 0.28652(4) 0.5129(3) 0.18697(9)
C10 C 0.25756(4) 0.6697(3) 0.18833(9)
H6 H 0.2627 0.8123 0.2199
C11 C 0.22155(4) 0.6192(3) 0.14409(9)
H7 H 0.2021 0.7272 0.1453
C12 C 0.21385(4) 0.4113(3) 0.09802(9)
H8 H 0.1890 0.3751 0.0689
C13 C 0.24214(4) 0.2562(3) 0.09413(9)
H9 H 0.2366 0.1150 0.0618
C14 C 0.27897(4) 0.3055(3) 0.13754(9)
C15 C 0.30827(4) 0.1508(3) 0.12891(9)
C16 C 0.33222(4) 0.0251(3) 0.11634(9)
C17 C 0.35949(4) -0.1311(3) 0.09804(9)
C18 C 0.34836(4) -0.3272(3) 0.04635(10)
H10 H 0.3227 -0.3557 0.0226
C19 C 0.37451(5) -0.4804(3) 0.02944(11)
H11 H 0.3667 -0.6134 -0.0061
C20 C 0.41210(4) -0.4419(3) 0.06390(11)
H12 H 0.4300 -0.5479 0.0524
C21 C 0.42307(4) -0.2472(3) 0.11521(10)
C22 C 0.39734(4) -0.0906(3) 0.13255(10)
H13 H 0.4053 0.0432 0.1676
O2 O 0.46026(3) -0.2074(3) 0.15010(10)
H14 H 0.4728 -0.3145 0.1347
O3 O 0.0000 0.6415(4) 0.2500
H15 H 0.0128(8) 0.556(5) 0.2758(19)
H15E H -0.0128(8) 0.556(5) 0.2242(19)
loop_
_geom_bond_atom_site_label_1
_geom_bond_atom_site_label_2
_geom_bond_site_symmetry_1
_geom_bond_site_symmetry_2
O1 H1 1_555 1_555
C1 H2 1_555 1_555
C2 O1 1_555 1_555
C3 C2 1_555 1_555
H3 C3 1_555 1_555
C4 C3 1_555 1_555
H4 C4 1_555 1_555
C5 C4 1_555 1_555
H5 C5 1_555 1_555
C6 C1 1_555 1_555
C7 C6 1_555 1_555
C8 C7 1_555 1_555
C9 C8 1_555 1_555
C10 C9 1_555 1_555
H6 C10 1_555 1_555
C11 C10 1_555 1_555
H7 C11 1_555 1_555
C12 C11 1_555 1_555
H8 C12 1_555 1_555
C13 C12 1_555 1_555
H9 C13 1_555 1_555
C14 C9 1_555 1_555
C15 C14 1_555 1_555
C16 C15 1_555 1_555
C17 C16 1_555 1_555
C18 C17 1_555 1_555
H10 C18 1_555 1_555
C19 C18 1_555 1_555
H11 C19 1_555 1_555
C20 C19 1_555 1_555
H12 C20 1_555 1_555
C21 C20 1_555 1_555
C22 C17 1_555 1_555
H13 C22 1_555 1_555
O2 C21 1_555 1_555
H14 O2 1_555 1_555
O3 H15 1_555 1_555
H15E O3 1_555 1_555
C1 C2 1_555 1_555
C5 C6 1_555 1_555
C13 C14 1_555 1_555
C21 C22 1_555 1_555

#END
