
#######################################################################
#
#                 Cambridge Crystallographic Data Centre
#                                CCDC 
#
#######################################################################
#
# If this CIF has been generated from an entry in the Cambridge 
# Structural Database, then it will include bibliographic, chemical, 
# crystal, experimental, refinement or atomic coordinate data resulting 
# from the CCDC's data processing and validation procedures.
#
#######################################################################

data_ECAKEB
_chemical_formula_moiety         'C19 H23 Br1 N1 O3 P1'
_chemical_name_systematic        
'diethyl (3-((4-bromophenyl)amino)-3-phenylprop-1-en-2-yl)phosphonate'
_symmetry_cell_setting           orthorhombic
_symmetry_space_group_name_H-M   'P 21 21 2'
_symmetry_Int_Tables_number      18
_space_group_name_Hall           'P 2 2ab'
loop_
_symmetry_equiv_pos_site_id
_symmetry_equiv_pos_as_xyz
1 x,y,z
2 1/2+x,1/2-y,-z
3 1/2-x,1/2+y,-z
4 -x,-y,z
_cell_length_a                   9.8916(7)
_cell_length_b                   26.4389(19)
_cell_length_c                   7.7778(6)
_cell_angle_alpha                90
_cell_angle_beta                 90
_cell_angle_gamma                90
_cell_volume                     2034.07
_exptl_crystal_colour            colorless
_exptl_crystal_description       block
_cell_formula_units_Z            4
loop_
_atom_site_label
_atom_site_type_symbol
_atom_site_fract_x
_atom_site_fract_y
_atom_site_fract_z
Br1 Br 0.91017(5) 1.12838(2) 0.39195(7)
P1 P 0.62768(12) 0.88397(4) 0.85683(12)
O1 O 0.6263(4) 0.82455(12) 0.8544(4)
O2 O 0.7825(3) 0.89609(15) 0.8494(4)
O3 O 0.5528(4) 0.90601(13) 1.0011(4)
C1 C 0.6487(4) 0.88626(14) 0.4904(4)
H1 H 0.7459 0.8814 0.5215
C2 C 0.8492(4) 1.02912(16) 0.5068(6)
H2 H 0.9065 1.0376 0.6004
C3 C 0.6306(6) 0.74968(17) 0.3430(6)
H3 H 0.6914 0.7225 0.3228
C4 C 0.7890(4) 0.98199(15) 0.5001(5)
H4 H 0.8046 0.9583 0.5896
C5 C 0.6842(4) 1.00478(16) 0.2323(5)
H5 H 0.6289 0.9964 0.1366
C6 C 0.4940(6) 0.80056(18) 0.8828(7)
H6 H 0.4248 0.8162 0.8078
H7 H 0.4656 0.8047 1.0040
C7 C 0.8712(6) 0.8902(3) 0.9901(7)
H8 H 0.8631 0.8556 1.0378
H9 H 0.8479 0.9147 1.0818
C8 C 0.4731(4) 0.93762(15) 0.6444(5)
H10 H 0.4433 0.9502 0.5365
H11 H 0.4301 0.9483 0.7473
C9 C 0.4562(4) 0.82914(15) 0.4053(6)
H12 H 0.3959 0.8564 0.4266
C10 C 0.6797(5) 0.79609(16) 0.3969(6)
H13 H 0.7743 0.8006 0.4111
C11 C 0.7047(4) 0.96904(14) 0.3614(5)
C12 C 0.7427(4) 1.05226(16) 0.2404(5)
H14 H 0.7257 1.0765 0.1530
C13 C 0.4939(6) 0.74273(16) 0.3187(6)
H15 H 0.4602 0.7109 0.2814
C14 C 0.5938(4) 0.83587(13) 0.4301(4)
C15 C 0.4055(5) 0.78267(16) 0.3492(5)
H16 H 0.3112 0.7784 0.3320
N1 N 0.6428(4) 0.92274(12) 0.3512(4)
H17 H 0.5980 0.9149 0.2572
C16 C 0.8261(4) 1.06393(15) 0.3771(6)
C17 C 0.5744(4) 0.90522(14) 0.6512(5)
C18 C 0.5096(9) 0.7452(2) 0.8401(8)
H18 H 0.5311 0.7415 0.7178
H19 H 0.4250 0.7275 0.8656
H20 H 0.5828 0.7308 0.9093
C19 C 1.0059(9) 0.8989(4) 0.9316(11)
H21 H 1.0188 0.8824 0.8199
H22 H 1.0701 0.8848 1.0149
H23 H 1.0214 0.9353 0.9197
loop_
_geom_bond_atom_site_label_1
_geom_bond_atom_site_label_2
_geom_bond_site_symmetry_1
_geom_bond_site_symmetry_2
Br1 C16 1_555 1_555
P1 O1 1_555 1_555
O1 C6 1_555 1_555
O2 P1 1_555 1_555
O3 P1 1_555 1_555
C1 H1 1_555 1_555
C2 H2 1_555 1_555
C3 H3 1_555 1_555
C4 C2 1_555 1_555
H4 C4 1_555 1_555
C5 H5 1_555 1_555
C6 H6 1_555 1_555
H7 C6 1_555 1_555
C7 O2 1_555 1_555
H8 C7 1_555 1_555
H9 C7 1_555 1_555
C8 H10 1_555 1_555
H11 C8 1_555 1_555
C9 H12 1_555 1_555
C10 C3 1_555 1_555
H13 C10 1_555 1_555
C11 C4 1_555 1_555
C12 C5 1_555 1_555
H14 C12 1_555 1_555
C13 C3 1_555 1_555
H15 C13 1_555 1_555
C14 C1 1_555 1_555
C15 C9 1_555 1_555
H16 C15 1_555 1_555
N1 C1 1_555 1_555
H17 N1 1_555 1_555
C16 C2 1_555 1_555
C17 P1 1_555 1_555
C18 C6 1_555 1_555
H18 C18 1_555 1_555
H19 C18 1_555 1_555
H20 C18 1_555 1_555
C19 C7 1_555 1_555
H21 C19 1_555 1_555
H22 C19 1_555 1_555
H23 C19 1_555 1_555
C1 C17 1_555 1_555
C5 C11 1_555 1_555
C8 C17 1_555 1_555
C9 C14 1_555 1_555
C10 C14 1_555 1_555
C11 N1 1_555 1_555
C12 C16 1_555 1_555
C13 C15 1_555 1_555

#END
