
#######################################################################
#
#                 Cambridge Crystallographic Data Centre
#                                CCDC 
#
#######################################################################
#
# If this CIF has been generated from an entry in the Cambridge 
# Structural Database, then it will include bibliographic, chemical, 
# crystal, experimental, refinement or atomic coordinate data resulting 
# from the CCDC's data processing and validation procedures.
#
#######################################################################

data_ECAKAX
_chemical_formula_moiety         'C17 H13 Br2 N3 O1,C4 H5 N1 O2'
_chemical_name_systematic        
'N-(7-(dibromomethyl)-5-methyl-1,8-naphthyridin-2-yl)benzamide pyrrolidine-2,5-dione'
_symmetry_cell_setting           monoclinic
_symmetry_space_group_name_H-M   'P 21/c'
_symmetry_Int_Tables_number      14
_space_group_name_Hall           '-P 2ybc'
loop_
_symmetry_equiv_pos_site_id
_symmetry_equiv_pos_as_xyz
1 x,y,z
2 -x,1/2+y,1/2-z
3 -x,-y,-z
4 x,1/2-y,1/2+z
_cell_length_a                   9.6931(19)
_cell_length_b                   15.699(3)
_cell_length_c                   14.614(3)
_cell_angle_alpha                90
_cell_angle_beta                 108.99(3)
_cell_angle_gamma                90
_cell_volume                     2102.81
_exptl_crystal_colour            white
_exptl_crystal_description       block
_cell_formula_units_Z            4
loop_
_atom_site_label
_atom_site_type_symbol
_atom_site_fract_x
_atom_site_fract_y
_atom_site_fract_z
Br1 Br 0.58390(8) 0.09771(5) 0.60551(6)
Br2 Br 0.59853(8) 0.16358(6) 0.40343(6)
N1 N 0.1482(5) 0.3823(3) 0.4170(4)
N2 N 0.3233(5) 0.2797(3) 0.4629(4)
C1 C -0.0753(6) 0.2634(4) 0.3453(5)
H1 H -0.1506 0.2244 0.3211
C2 C 0.1779(6) 0.2982(4) 0.4218(4)
C3 C 0.0696(6) 0.2340(4) 0.3875(4)
O1 O -0.2418(5) 0.5110(3) 0.2818(4)
C4 C 0.0100(6) 0.4067(4) 0.3782(5)
N3 N -0.0060(5) 0.4946(3) 0.3799(4)
H2 H 0.0691 0.5224 0.4148
C5 C -0.1117(7) 0.6382(4) 0.3444(4)
C6 C -0.2391(7) 0.6855(4) 0.3129(5)
H3 H -0.3286 0.6584 0.2872
C7 C 0.1146(6) 0.1482(4) 0.3980(5)
C8 C -0.1020(9) 0.8141(5) 0.3572(6)
H4 H -0.1000 0.8733 0.3614
C9 C -0.1274(7) 0.5432(4) 0.3325(5)
C10 C 0.3601(6) 0.1989(4) 0.4687(4)
C11 C 0.0213(7) 0.6805(4) 0.3830(5)
H5 H 0.1075 0.6494 0.4053
C12 C -0.2326(8) 0.7719(5) 0.3199(5)
H6 H -0.3187 0.8031 0.2989
C13 C 0.2609(7) 0.1317(4) 0.4380(5)
H7 H 0.2943 0.0758 0.4447
C14 C 0.0253(8) 0.7682(5) 0.3881(6)
H8 H 0.1143 0.7963 0.4125
C15 C 0.5246(6) 0.1862(4) 0.5102(5)
H9 H 0.5680 0.2398 0.5408
C16 C -0.1054(7) 0.3486(4) 0.3399(5)
H10 H -0.2005 0.3680 0.3116
C17 C 0.0061(7) 0.0758(5) 0.3690(6)
H11 H 0.0573 0.0224 0.3811
H12 H -0.0487 0.0803 0.3014
H13 H -0.0592 0.0786 0.4062
O2 O 0.2878(5) 0.5578(3) 0.5158(3)
O3 O 0.6209(5) 0.3572(3) 0.6728(4)
C18 C 0.3969(7) 0.5289(4) 0.5745(5)
N4 N 0.4396(5) 0.4441(3) 0.5798(4)
H14 H 0.3908 0.4057 0.5406
C19 C 0.5664(7) 0.4271(5) 0.6533(5)
C20 C 0.5070(6) 0.5760(4) 0.6530(5)
H15 H 0.4625 0.6011 0.6971
H16 H 0.5513 0.6209 0.6264
C21 C 0.6209(7) 0.5095(4) 0.7050(5)
H17 H 0.7159 0.5240 0.7006
H18 H 0.6286 0.5056 0.7727
loop_
_geom_bond_atom_site_label_1
_geom_bond_atom_site_label_2
_geom_bond_site_symmetry_1
_geom_bond_site_symmetry_2
Br1 C15 1_555 1_555
Br2 C15 1_555 1_555
N1 C2 1_555 1_555
N2 C2 1_555 1_555
C1 H1 1_555 1_555
C2 C3 1_555 1_555
C3 C1 1_555 1_555
O1 C9 1_555 1_555
C4 N1 1_555 1_555
N3 C4 1_555 1_555
H2 N3 1_555 1_555
C5 C6 1_555 1_555
C6 H3 1_555 1_555
C7 C3 1_555 1_555
C8 H4 1_555 1_555
C9 N3 1_555 1_555
C10 N2 1_555 1_555
C11 C5 1_555 1_555
H5 C11 1_555 1_555
C12 C6 1_555 1_555
H6 C12 1_555 1_555
C13 C7 1_555 1_555
H7 C13 1_555 1_555
C14 C8 1_555 1_555
H8 C14 1_555 1_555
C15 C10 1_555 1_555
H9 C15 1_555 1_555
C16 C1 1_555 1_555
H10 C16 1_555 1_555
C17 C7 1_555 1_555
H11 C17 1_555 1_555
H12 C17 1_555 1_555
H13 C17 1_555 1_555
O2 C18 1_555 1_555
O3 C19 1_555 1_555
C18 N4 1_555 1_555
N4 H14 1_555 1_555
C19 N4 1_555 1_555
C20 C18 1_555 1_555
H15 C20 1_555 1_555
H16 C20 1_555 1_555
C21 C19 1_555 1_555
H17 C21 1_555 1_555
H18 C21 1_555 1_555
C4 C16 1_555 1_555
C5 C9 1_555 1_555
C8 C12 1_555 1_555
C10 C13 1_555 1_555
C11 C14 1_555 1_555
C20 C21 1_555 1_555

#END
