
#######################################################################
#
#                 Cambridge Crystallographic Data Centre
#                                CCDC 
#
#######################################################################
#
# If this CIF has been generated from an entry in the Cambridge 
# Structural Database, then it will include bibliographic, chemical, 
# crystal, experimental, refinement or atomic coordinate data resulting 
# from the CCDC's data processing and validation procedures.
#
#######################################################################

data_ECAKOK
_chemical_formula_moiety         'C22 H33 N1 O3'
_chemical_name_systematic        
12-Ethyl-6,14-dimethyl-5-oxa-12-azaheptacyclo[8.7.2.1^6,9^.0^1,11^.0^2,9^.0^4,7^.0^14,18^]icosane-17,20-diol
_symmetry_cell_setting           orthorhombic
_symmetry_space_group_name_H-M   'P 21 21 21'
_symmetry_Int_Tables_number      19
_space_group_name_Hall           'P 2ac 2ab'
loop_
_symmetry_equiv_pos_site_id
_symmetry_equiv_pos_as_xyz
1 x,y,z
2 1/2-x,-y,1/2+z
3 -x,1/2+y,1/2-z
4 1/2+x,1/2-y,-z
_cell_length_a                   8.545(1)
_cell_length_b                   9.998(2)
_cell_length_c                   22.438(4)
_cell_angle_alpha                90
_cell_angle_beta                 90
_cell_angle_gamma                90
_cell_volume                     1916.94
_cell_formula_units_Z            4
loop_
_atom_site_label
_atom_site_type_symbol
_atom_site_fract_x
_atom_site_fract_y
_atom_site_fract_z
O1 O 0.2619(2) 0.59422(16) 0.83040(8)
O2 O 0.7310(2) 0.36317(17) 0.70197(9)
H1 H 0.7105 0.2968 0.6820
O3 O 0.1029(2) 0.67347(18) 0.72298(8)
H2 H 0.1661 0.7180 0.7420
N1 N 0.4876(3) 0.3291(2) 0.58052(9)
C1 C 0.6885(3) 0.4811(3) 0.66944(12)
H3 H 0.7237 0.5580 0.6930
C2 C 0.7777(3) 0.4846(3) 0.61107(13)
H4 H 0.8863 0.5062 0.6192
H5 H 0.7749 0.3963 0.5932
C3 C 0.7132(3) 0.5849(3) 0.56686(13)
H6 H 0.7668 0.5737 0.5291
H7 H 0.7353 0.6745 0.5812
C4 C 0.5369(3) 0.5711(3) 0.55672(12)
C5 C 0.4534(3) 0.5954(3) 0.61624(11)
H8 H 0.4707 0.6871 0.6302
C6 C 0.2753(3) 0.5642(3) 0.61177(12)
H9 H 0.2136 0.6335 0.6308
H10 H 0.2427 0.5558 0.5705
C7 C 0.2591(3) 0.4298(2) 0.64499(11)
H11 H 0.1741 0.3725 0.6306
C8 C 0.2560(3) 0.4569(2) 0.71225(11)
C9 C 0.4192(3) 0.5239(2) 0.72193(10)
H12 H 0.4020 0.6208 0.7230
C10 C 0.5100(3) 0.4927(2) 0.66337(11)
C11 C 0.4900(3) 0.4838(3) 0.78255(11)
H13 H 0.5418 0.3979 0.7789
H14 H 0.5677 0.5494 0.7944
C12 C 0.3641(3) 0.4754(2) 0.82951(12)
H15 H 0.4062 0.4539 0.8690
C13 C 0.2255(4) 0.3864(3) 0.81251(12)
H16 H 0.1897 0.3241 0.8434
C14 C 0.2420(3) 0.3287(2) 0.75080(11)
H17 H 0.1508 0.2765 0.7398
H18 H 0.3348 0.2734 0.7475
C15 C 0.1176(3) 0.5376(3) 0.73888(11)
H19 H 0.0212 0.4929 0.7260
C16 C 0.1313(3) 0.5158(3) 0.80655(12)
C17 C -0.0156(4) 0.5386(3) 0.84199(13)
H20 H 0.0052 0.5230 0.8835
H21 H -0.0956 0.4783 0.8286
H22 H -0.0502 0.6292 0.8366
C18 C 0.4874(4) 0.6751(3) 0.50988(13)
H23 H 0.5134 0.7631 0.5238
H24 H 0.3766 0.6692 0.5034
H25 H 0.5415 0.6579 0.4732
C19 C 0.4931(4) 0.4311(3) 0.53407(11)
H26 H 0.3915 0.4357 0.5149
H27 H 0.5687 0.4040 0.5042
C20 C 0.4258(3) 0.3689(2) 0.63804(11)
H28 H 0.4375 0.2945 0.6661
C21 C 0.4231(3) 0.2024(3) 0.55903(12)
H29 H 0.3261 0.2199 0.5379
H30 H 0.3989 0.1459 0.5929
C22 C 0.5339(4) 0.1289(3) 0.51810(14)
H31 H 0.5459 0.1783 0.4817
H32 H 0.4924 0.0418 0.5094
H33 H 0.6339 0.1198 0.5372
loop_
_geom_bond_atom_site_label_1
_geom_bond_atom_site_label_2
_geom_bond_site_symmetry_1
_geom_bond_site_symmetry_2
O1 C12 1_555 1_555
O2 H1 1_555 1_555
O3 H2 1_555 1_555
N1 C19 1_555 1_555
C1 O2 1_555 1_555
H3 C1 1_555 1_555
C2 C1 1_555 1_555
H4 C2 1_555 1_555
H5 C2 1_555 1_555
C3 C2 1_555 1_555
H6 C3 1_555 1_555
H7 C3 1_555 1_555
C4 C3 1_555 1_555
C5 C4 1_555 1_555
H8 C5 1_555 1_555
C6 C5 1_555 1_555
H9 C6 1_555 1_555
H10 C6 1_555 1_555
C7 C6 1_555 1_555
H11 C7 1_555 1_555
C8 C7 1_555 1_555
C9 C8 1_555 1_555
H12 C9 1_555 1_555
C10 C1 1_555 1_555
C11 C9 1_555 1_555
H13 C11 1_555 1_555
H14 C11 1_555 1_555
C12 C11 1_555 1_555
H15 C12 1_555 1_555
C13 C12 1_555 1_555
H16 C13 1_555 1_555
C14 C8 1_555 1_555
H17 C14 1_555 1_555
H18 C14 1_555 1_555
C15 O3 1_555 1_555
H19 C15 1_555 1_555
C16 O1 1_555 1_555
C17 C16 1_555 1_555
H20 C17 1_555 1_555
H21 C17 1_555 1_555
H22 C17 1_555 1_555
C18 C4 1_555 1_555
H23 C18 1_555 1_555
H24 C18 1_555 1_555
H25 C18 1_555 1_555
C19 C4 1_555 1_555
H26 C19 1_555 1_555
H27 C19 1_555 1_555
C20 N1 1_555 1_555
H28 C20 1_555 1_555
C21 N1 1_555 1_555
H29 C21 1_555 1_555
H30 C21 1_555 1_555
C22 C21 1_555 1_555
H31 C22 1_555 1_555
H32 C22 1_555 1_555
H33 C22 1_555 1_555
C5 C10 1_555 1_555
C7 C20 1_555 1_555
C8 C15 1_555 1_555
C9 C10 1_555 1_555
C10 C20 1_555 1_555
C13 C14 1_555 1_555
C13 C16 1_555 1_555
C15 C16 1_555 1_555

#END
