
#######################################################################
#
#                 Cambridge Crystallographic Data Centre
#                                CCDC 
#
#######################################################################
#
# If this CIF has been generated from an entry in the Cambridge 
# Structural Database, then it will include bibliographic, chemical, 
# crystal, experimental, refinement or atomic coordinate data resulting 
# from the CCDC's data processing and validation procedures.
#
#######################################################################

data_ECANUT
_chemical_compound_source        
'marine actinomycete Pseudonocardia sp. SCSIO 01299'
_chemical_name_common            deoxynyboquinone
_chemical_formula_moiety         'C15 H12 N2 O4'
_chemical_name_systematic        
1,4,6-Trimethylpyrido[3,2-g]quinoline-2,5,8,10(1H,9H)-tetrone
_chemical_properties_biological  
'Potent in vitro cytotoxic activities against three tumor cell lines of SF-268, MCF-7 and NCI-H460, with IC50 values of 22, 15, and 80 nM, respectively.'
_symmetry_cell_setting           triclinic
_symmetry_space_group_name_H-M   'P -1'
_symmetry_Int_Tables_number      2
_space_group_name_Hall           '-P 1'
loop_
_symmetry_equiv_pos_site_id
_symmetry_equiv_pos_as_xyz
1 x,y,z
2 -x,-y,-z
_cell_length_a                   4.8353(10)
_cell_length_b                   9.373(2)
_cell_length_c                   13.780(3)
_cell_angle_alpha                85.195(4)
_cell_angle_beta                 89.350(5)
_cell_angle_gamma                82.094(4)
_cell_volume                     616.417
_exptl_crystal_colour            red
_exptl_crystal_description       prismatic
_cell_formula_units_Z            2
loop_
_atom_site_label
_atom_site_type_symbol
_atom_site_fract_x
_atom_site_fract_y
_atom_site_fract_z
N1 N 0.4745(4) 0.5622(2) 0.19193(13)
N2 N -0.2228(4) 0.3948(2) 0.41413(14)
O1 O 0.2884(5) 0.0770(2) 0.21125(17)
O2 O 0.0644(5) 0.59610(19) 0.34018(14)
O3 O 0.8269(4) 0.6352(2) 0.09698(13)
O4 O -0.5658(4) 0.33346(18) 0.51797(13)
C1 C 0.2365(6) 0.1972(3) 0.23866(18)
C2 C 0.0291(5) 0.2225(2) 0.31695(17)
C3 C -0.0278(5) 0.3596(2) 0.34558(16)
C4 C 0.1208(5) 0.4813(2) 0.30629(17)
C5 C 0.3309(5) 0.4522(3) 0.22735(16)
C6 C 0.3802(5) 0.3166(3) 0.19386(16)
C7 C 0.5760(5) 0.2921(3) 0.11553(16)
C8 C 0.7194(5) 0.4011(3) 0.08409(17)
H1 H 0.8488 0.3849 0.0344
C9 C 0.6850(5) 0.5391(3) 0.12215(17)
C10 C -0.1176(5) 0.1125(2) 0.36342(18)
C11 C -0.3109(6) 0.1536(3) 0.43114(19)
H2 H -0.4061 0.0826 0.4617
C12 C -0.3799(5) 0.2970(3) 0.45914(17)
C13 C 0.6308(7) 0.1538(3) 0.0658(2)
H3 H 0.7608 0.1650 0.0134
H4 H 0.4588 0.1320 0.0403
H5 H 0.7075 0.0765 0.1119
C14 C -0.0671(7) -0.0431(3) 0.3412(2)
H6 H -0.1777 -0.0985 0.3840
H7 H 0.1270 -0.0797 0.3506
H8 H -0.1182 -0.0506 0.2749
C15 C 0.4165(6) 0.7116(3) 0.2208(2)
H9 H 0.2225 0.7474 0.2103
H10 H 0.5285 0.7719 0.1823
H11 H 0.4608 0.7126 0.2884
H12 H -0.260(5) 0.478(3) 0.4301(18)
loop_
_geom_bond_atom_site_label_1
_geom_bond_atom_site_label_2
_geom_bond_site_symmetry_1
_geom_bond_site_symmetry_2
N1 C5 1_555 1_555
N2 C3 1_555 1_555
O1 C1 1_555 1_555
O2 C4 1_555 1_555
O3 C9 1_555 1_555
O4 C12 1_555 1_555
C1 C2 1_555 1_555
C2 C3 1_555 1_555
C3 C4 1_555 1_555
C4 C5 1_555 1_555
C5 C6 1_555 1_555
C6 C1 1_555 1_555
C7 C6 1_555 1_555
C8 C7 1_555 1_555
H1 C8 1_555 1_555
C9 N1 1_555 1_555
C10 C2 1_555 1_555
C11 C10 1_555 1_555
H2 C11 1_555 1_555
C12 N2 1_555 1_555
C13 C7 1_555 1_555
H3 C13 1_555 1_555
H4 C13 1_555 1_555
H5 C13 1_555 1_555
C14 C10 1_555 1_555
H6 C14 1_555 1_555
H7 C14 1_555 1_555
H8 C14 1_555 1_555
C15 N1 1_555 1_555
H9 C15 1_555 1_555
H10 C15 1_555 1_555
H11 C15 1_555 1_555
H12 N2 1_555 1_555
C8 C9 1_555 1_555
C11 C12 1_555 1_555

#END
