
#######################################################################
#
#                 Cambridge Crystallographic Data Centre
#                                CCDC 
#
#######################################################################
#
# If this CIF has been generated from an entry in the Cambridge 
# Structural Database, then it will include bibliographic, chemical, 
# crystal, experimental, refinement or atomic coordinate data resulting 
# from the CCDC's data processing and validation procedures.
#
#######################################################################

data_ECAQAD01
_chemical_name_common            'quinine acesulfame'
_chemical_formula_moiety         'C20 H25 N2 O2 1+,C4 H4 N1 O4 S1 1-'
_chemical_name_systematic        
"9-hydroxy-6'-methoxycinchonan-1-ium 6-methyl-4-oxo-4H-1,2,3-oxathiazin-3-ide 2,2-dioxide"
_symmetry_cell_setting           orthorhombic
_symmetry_space_group_name_H-M   'P 21 21 21'
_symmetry_Int_Tables_number      19
_space_group_name_Hall           'P 2ac 2ab'
loop_
_symmetry_equiv_pos_site_id
_symmetry_equiv_pos_as_xyz
1 x,y,z
2 1/2-x,-y,1/2+z
3 -x,1/2+y,1/2-z
4 1/2+x,1/2-y,-z
_cell_length_a                   6.6336(3)
_cell_length_b                   15.8138(9)
_cell_length_c                   22.6531(13)
_cell_angle_alpha                90
_cell_angle_beta                 90
_cell_angle_gamma                90
_cell_volume                     2376.37
_exptl_crystal_colour            colorless
_exptl_crystal_description       block
_cell_formula_units_Z            4
loop_
_atom_site_label
_atom_site_type_symbol
_atom_site_fract_x
_atom_site_fract_y
_atom_site_fract_z
C1 C 0.2640(4) 0.28860(17) 0.29968(11)
C2 C 0.1560(5) 0.2526(2) 0.24828(12)
H1 H 0.2036 0.2789 0.2127
H2 H 0.0140 0.2626 0.2525
H3 H 0.1803 0.1928 0.2463
N1 N 0.4873(3) 0.33811(15) 0.40160(11)
O1 O 0.7591(3) 0.24792(12) 0.36269(9)
O2 O 0.6838(3) 0.37954(13) 0.31223(10)
O3 O 0.4593(3) 0.25819(12) 0.30368(8)
O4 O 0.2045(3) 0.39935(13) 0.43510(8)
S1 S 0.61334(9) 0.30981(4) 0.34640(3)
C3 C 0.2938(4) 0.36179(16) 0.39360(11)
C4 C 0.1872(4) 0.33925(17) 0.34031(11)
H4 H 0.0589 0.3613 0.3343
C5 C 0.6039(4) 0.47114(16) 0.62635(10)
H5 H 0.6644 0.4878 0.6641
C6 C 0.7068(4) 0.39118(17) 0.60344(12)
H6 H 0.7043 0.3476 0.6336
H7 H 0.8464 0.4032 0.5939
C7 C 0.5955(4) 0.36032(15) 0.54826(11)
H8 H 0.6913 0.3481 0.5171
H9 H 0.5214 0.3090 0.5571
C8 C 0.3775(4) 0.45079(16) 0.63556(10)
H10 H 0.3676 0.3977 0.6577
C9 C 0.2866(4) 0.43634(17) 0.57391(11)
H11 H 0.2060 0.3852 0.5741
H12 H 0.1995 0.4834 0.5637
C10 C 0.2620(5) 0.51675(19) 0.66800(12)
H13 H 0.2900 0.5731 0.6596
C11 C 0.1235(5) 0.5007(3) 0.70765(13)
C12 C 0.6324(4) 0.54190(15) 0.58126(10)
H14 H 0.7745 0.5554 0.5777
H15 H 0.5621 0.5923 0.5944
C13 C 0.5494(3) 0.51390(15) 0.52083(10)
H16 H 0.4422 0.5537 0.5101
C14 C 0.7040(3) 0.51437(15) 0.47027(10)
H17 H 0.6516 0.4817 0.4369
C15 C 0.7371(4) 0.60616(15) 0.45143(10)
C16 C 0.9037(4) 0.64957(16) 0.47056(11)
H18 H 1.0009 0.6220 0.4930
C17 C 0.9285(4) 0.73510(16) 0.45645(11)
H19 H 1.0451 0.7620 0.4694
C18 C 0.6302(4) 0.73797(15) 0.40597(10)
C19 C 0.4873(4) 0.78569(17) 0.37366(12)
H20 H 0.5081 0.8433 0.3683
C20 C 0.3217(4) 0.74896(17) 0.35057(12)
H21 H 0.2300 0.7813 0.3292
C21 C 0.2864(4) 0.66152(16) 0.35857(11)
C22 C 0.4179(3) 0.61273(16) 0.39130(10)
H22 H 0.3920 0.5555 0.3970
C23 C 0.5941(3) 0.65055(15) 0.41635(10)
C24 C 0.0709(4) 0.54603(17) 0.33571(12)
H23 H -0.0545 0.5347 0.3161
H24 H 0.0607 0.5298 0.3764
H25 H 0.1768 0.5143 0.3171
N2 N 0.4527(3) 0.42845(13) 0.52873(9)
H26 H 0.3968 0.4126 0.4937
N3 N 0.7975(3) 0.77978(14) 0.42606(9)
O5 O 0.8852(3) 0.47716(11) 0.49083(7)
H27 H 0.9419 0.4530 0.4634
O6 O 0.1148(3) 0.63337(12) 0.33194(8)
H28 H 0.099(5) 0.441(2) 0.7165(14)
H29 H 0.045(5) 0.541(2) 0.7275(14)
loop_
_geom_bond_atom_site_label_1
_geom_bond_atom_site_label_2
_geom_bond_site_symmetry_1
_geom_bond_site_symmetry_2
C1 C2 1_555 1_555
C2 H1 1_555 1_555
H2 C2 1_555 1_555
H3 C2 1_555 1_555
N1 S1 1_555 1_555
O1 S1 1_555 1_555
O2 S1 1_555 1_555
O3 C1 1_555 1_555
O4 C3 1_555 1_555
S1 O3 1_555 1_555
C3 N1 1_555 1_555
C4 C1 1_555 1_555
H4 C4 1_555 1_555
C5 H5 1_555 1_555
C6 C5 1_555 1_555
H6 C6 1_555 1_555
H7 C6 1_555 1_555
C7 C6 1_555 1_555
H8 C7 1_555 1_555
H9 C7 1_555 1_555
C8 C5 1_555 1_555
H10 C8 1_555 1_555
C9 C8 1_555 1_555
H11 C9 1_555 1_555
H12 C9 1_555 1_555
C10 C8 1_555 1_555
H13 C10 1_555 1_555
C11 C10 1_555 1_555
C12 C5 1_555 1_555
H14 C12 1_555 1_555
H15 C12 1_555 1_555
C13 C12 1_555 1_555
H16 C13 1_555 1_555
C14 C13 1_555 1_555
H17 C14 1_555 1_555
C15 C14 1_555 1_555
C16 C15 1_555 1_555
H18 C16 1_555 1_555
C17 C16 1_555 1_555
H19 C17 1_555 1_555
C18 C19 1_555 1_555
C19 H20 1_555 1_555
C20 C19 1_555 1_555
H21 C20 1_555 1_555
C21 C20 1_555 1_555
C22 C21 1_555 1_555
H22 C22 1_555 1_555
C23 C15 1_555 1_555
C24 H23 1_555 1_555
H24 C24 1_555 1_555
H25 C24 1_555 1_555
N2 C7 1_555 1_555
H26 N2 1_555 1_555
N3 C17 1_555 1_555
O5 C14 1_555 1_555
H27 O5 1_555 1_555
O6 C21 1_555 1_555
H28 C11 1_555 1_555
H29 C11 1_555 1_555
C3 C4 1_555 1_555
C9 N2 1_555 1_555
C13 N2 1_555 1_555
C18 C23 1_555 1_555
C18 N3 1_555 1_555
C22 C23 1_555 1_555
C24 O6 1_555 1_555

#END
