
#######################################################################
#
#                 Cambridge Crystallographic Data Centre
#                                CCDC 
#
#######################################################################
#
# If this CIF has been generated from an entry in the Cambridge 
# Structural Database, then it will include bibliographic, chemical, 
# crystal, experimental, refinement or atomic coordinate data resulting 
# from the CCDC's data processing and validation procedures.
#
#######################################################################

data_ECAXIS
_chemical_formula_moiety         'C50 H36 F18 N2 O4 S2'
_chemical_name_systematic        
2,8-bis(2,6-diisopropylphenyl)-5,11-bis(nonafluorobutyl)[1]benzothieno[4,5,6,7-lmn]thieno[3,2-f][3,8]phenanthroline-1,3,7,9(2H,8H)-tetrone
_symmetry_cell_setting           triclinic
_symmetry_space_group_name_H-M   'P -1'
_symmetry_Int_Tables_number      2
_space_group_name_Hall           '-P 1'
loop_
_symmetry_equiv_pos_site_id
_symmetry_equiv_pos_as_xyz
1 x,y,z
2 -x,-y,-z
_cell_length_a                   6.6539(13)
_cell_length_b                   13.569(3)
_cell_length_c                   14.640(3)
_cell_angle_alpha                71.22(3)
_cell_angle_beta                 78.76(3)
_cell_angle_gamma                84.06(3)
_cell_volume                     1226.24
_exptl_crystal_colour            red
_exptl_crystal_description       Plate
_cell_formula_units_Z            1
loop_
_atom_site_label
_atom_site_type_symbol
_atom_site_fract_x
_atom_site_fract_y
_atom_site_fract_z
S1 S 0.5580(4) 0.32112(19) 0.46292(17)
F1 F 0.1993(3) 0.3241(2) 0.38208(19)
F2 F 0.2247(4) 0.4770(2) 0.2727(2)
F3 F 0.5487(4) 0.25887(19) 0.2719(2)
F4 F 0.5327(4) 0.4093(2) 0.16173(17)
F5 F 0.1847(5) 0.2089(3) 0.2626(3)
F6 F 0.3874(4) 0.2566(3) 0.1220(2)
F7 F 0.0101(5) 0.3089(3) 0.1040(3)
F8 F 0.1793(8) 0.4468(3) 0.0833(4)
F9 F -0.0388(4) 0.3803(4) 0.2183(4)
O1 O 1.2324(4) 0.29216(18) 0.74018(19)
O2 O 0.7147(4) 0.21485(19) 0.61874(18)
N1 N 0.9731(4) 0.25261(18) 0.68089(19)
C1 C 0.9590(5) 0.1502(2) 0.7561(2)
C2 C 1.0893(6) 0.0693(3) 0.7370(3)
C3 C 1.0699(7) -0.0277(3) 0.8100(4)
H1 H 1.1529 -0.0843 0.8005
C4 C 0.9317(7) -0.0406(3) 0.8942(3)
H2 H 0.9207 -0.1059 0.9411
C5 C 0.8080(6) 0.0417(3) 0.9110(3)
H3 H 0.7169 0.0317 0.9698
C6 C 0.8175(5) 0.1397(2) 0.8411(2)
C7 C 1.2419(8) 0.0820(3) 0.6432(4)
H4 H 1.2695 0.1562 0.6147
C8 C 1.1477(11) 0.0514(6) 0.5708(5)
H5 H 1.1235 -0.0218 0.5953
H6 H 1.2396 0.0663 0.5092
H7 H 1.0201 0.0901 0.5619
C9 C 1.4450(8) 0.0236(4) 0.6586(5)
H8 H 1.4942 0.0389 0.7097
H9 H 1.5427 0.0447 0.5990
H10 H 1.4272 -0.0499 0.6767
C10 C 0.6819(6) 0.2304(3) 0.8614(3)
H11 H 0.6674 0.2819 0.7981
C11 C 0.4687(6) 0.1986(3) 0.9155(3)
H12 H 0.4114 0.1604 0.8825
H13 H 0.3833 0.2597 0.9171
H14 H 0.4764 0.1554 0.9812
C12 C 0.7822(7) 0.2831(3) 0.9178(4)
H15 H 0.7890 0.2361 0.9822
H16 H 0.7023 0.3448 0.9229
H17 H 0.9182 0.3016 0.8837
C13 C 1.1189(5) 0.3188(2) 0.6814(2)
C14 C 1.1263(4) 0.4229(2) 0.6066(2)
C15 C 0.9950(4) 0.4502(2) 0.53625(19)
C16 C 0.8545(4) 0.3788(2) 0.5382(2)
C17 C 0.8382(5) 0.2760(2) 0.6141(2)
C18 C 0.7290(4) 0.4062(2) 0.4677(2)
C19 C 0.7379(4) 0.5055(2) 0.3949(2)
C20 C 0.5985(16) 0.5109(7) 0.3331(7)
H18 H 0.5782 0.5687 0.2800
C21 C 0.4895(4) 0.4156(2) 0.3617(2)
C22 C 0.3342(5) 0.3895(3) 0.3140(3)
C23 C 0.4199(5) 0.3390(3) 0.2351(3)
C24 C 0.2731(6) 0.2928(4) 0.1913(3)
C25 C 0.1022(7) 0.3590(5) 0.1489(5)
S1A S 1.4420(4) 0.67888(19) 0.53708(17)
F1A F 1.8007(3) 0.6759(2) 0.61792(19)
F2A F 1.7753(4) 0.5230(2) 0.7273(2)
F3A F 1.4513(4) 0.74113(19) 0.7281(2)
F4A F 1.4673(4) 0.5907(2) 0.83827(17)
F5A F 1.8153(5) 0.7911(3) 0.7374(3)
F6A F 1.6126(4) 0.7434(3) 0.8780(2)
F7A F 1.9899(5) 0.6911(3) 0.8960(3)
F8A F 1.8207(8) 0.5532(3) 0.9167(4)
F9A F 2.0388(4) 0.6197(4) 0.7817(4)
O1A O 0.7676(4) 0.70784(18) 0.25982(19)
O2A O 1.2853(4) 0.78515(19) 0.38126(18)
N1A N 1.0269(4) 0.74739(18) 0.31911(19)
C1A C 1.0410(5) 0.8498(2) 0.2439(2)
C2A C 0.9107(6) 0.9307(3) 0.2630(3)
C3A C 0.9301(7) 1.0277(3) 0.1900(4)
H1A H 0.8471 1.0843 0.1995
C4A C 1.0683(7) 1.0406(3) 0.1058(3)
H2A H 1.0793 1.1059 0.0589
C5A C 1.1920(6) 0.9583(3) 0.0890(3)
H3A H 1.2831 0.9683 0.0302
C6A C 1.1825(5) 0.8603(2) 0.1589(2)
C7A C 0.7581(8) 0.9180(3) 0.3568(4)
H4A H 0.7305 0.8438 0.3853
C8A C 0.8523(11) 0.9486(6) 0.4292(5)
H5A H 0.8765 1.0218 0.4047
H6A H 0.7604 0.9337 0.4908
H7A H 0.9799 0.9099 0.4381
C9A C 0.5550(8) 0.9764(4) 0.3414(5)
H8A H 0.5058 0.9611 0.2903
H9A H 0.4573 0.9553 0.4010
H10A H 0.5728 1.0499 0.3233
C10A C 1.3181(6) 0.7696(3) 0.1386(3)
H11A H 1.3326 0.7181 0.2019
C11A C 1.5313(6) 0.8014(3) 0.0845(3)
H12A H 1.5886 0.8396 0.1175
H13A H 1.6167 0.7403 0.0829
H14A H 1.5236 0.8446 0.0188
C12A C 1.2178(7) 0.7169(3) 0.0822(4)
H15A H 1.2110 0.7639 0.0178
H16A H 1.2977 0.6552 0.0771
H17A H 1.0818 0.6984 0.1163
C13A C 0.8811(5) 0.6812(2) 0.3186(2)
C14A C 0.8737(4) 0.5771(2) 0.3934(2)
C15A C 1.0050(4) 0.5498(2) 0.46375(19)
C16A C 1.1455(4) 0.6212(2) 0.4618(2)
C17A C 1.1618(5) 0.7240(2) 0.3859(2)
C18A C 1.2710(4) 0.5938(2) 0.5323(2)
C19A C 1.2621(4) 0.4945(2) 0.6051(2)
C20A C 1.4015(16) 0.4891(7) 0.6669(7)
H18A H 1.4218 0.4313 0.7200
C21A C 1.5105(4) 0.5844(2) 0.6383(2)
C22A C 1.6658(5) 0.6105(3) 0.6860(3)
C23A C 1.5801(5) 0.6610(3) 0.7649(3)
C24A C 1.7269(6) 0.7072(4) 0.8087(3)
C25A C 1.8978(7) 0.6410(5) 0.8511(5)
S2? S 0.5778(7) 0.5357(3) 0.3074(3)
C26? C 0.570(2) 0.3545(9) 0.4422(10)
H19? H 0.5298 0.2872 0.4775
loop_
_geom_bond_atom_site_label_1
_geom_bond_atom_site_label_2
_geom_bond_site_symmetry_1
_geom_bond_site_symmetry_2
S1 C18 1_555 1_555
F1 C22 1_555 1_555
F2 C22 1_555 1_555
F3 C23 1_555 1_555
F4 C23 1_555 1_555
F5 C24 1_555 1_555
F6 C24 1_555 1_555
F7 C25 1_555 1_555
F8 C25 1_555 1_555
F9 C25 1_555 1_555
O1 C13 1_555 1_555
O2 C17 1_555 1_555
N1 C1 1_555 1_555
C1 C2 1_555 1_555
C2 C3 1_555 1_555
C3 H1 1_555 1_555
C4 C3 1_555 1_555
H2 C4 1_555 1_555
C5 C4 1_555 1_555
H3 C5 1_555 1_555
C6 C1 1_555 1_555
C7 C2 1_555 1_555
H4 C7 1_555 1_555
C8 C7 1_555 1_555
H5 C8 1_555 1_555
H6 C8 1_555 1_555
H7 C8 1_555 1_555
C9 C7 1_555 1_555
H8 C9 1_555 1_555
H9 C9 1_555 1_555
H10 C9 1_555 1_555
C10 C6 1_555 1_555
H11 C10 1_555 1_555
C11 C10 1_555 1_555
H12 C11 1_555 1_555
H13 C11 1_555 1_555
H14 C11 1_555 1_555
C12 C10 1_555 1_555
H15 C12 1_555 1_555
H16 C12 1_555 1_555
H17 C12 1_555 1_555
C13 N1 1_555 1_555
C14 C13 1_555 1_555
C15 C14 1_555 1_555
C16 C15 1_555 1_555
C17 N1 1_555 1_555
C18 C16 1_555 1_555
C19 C18 1_555 1_555
C20 C19 1_555 1_555
H18 C20 1_555 1_555
C21 S1 1_555 1_555
C22 C21 1_555 1_555
C23 C22 1_555 1_555
C24 C23 1_555 1_555
C25 C24 1_555 1_555
S1A C18A 1_555 1_555
F1A C22A 1_555 1_555
F2A C22A 1_555 1_555
F3A C23A 1_555 1_555
F4A C23A 1_555 1_555
F5A C24A 1_555 1_555
F6A C24A 1_555 1_555
F7A C25A 1_555 1_555
F8A C25A 1_555 1_555
F9A C25A 1_555 1_555
O1A C13A 1_555 1_555
O2A C17A 1_555 1_555
N1A C1A 1_555 1_555
C1A C2A 1_555 1_555
C2A C3A 1_555 1_555
C3A H1A 1_555 1_555
C4A C3A 1_555 1_555
H2A C4A 1_555 1_555
C5A C4A 1_555 1_555
H3A C5A 1_555 1_555
C6A C1A 1_555 1_555
C7A C2A 1_555 1_555
H4A C7A 1_555 1_555
C8A C7A 1_555 1_555
H5A C8A 1_555 1_555
H6A C8A 1_555 1_555
H7A C8A 1_555 1_555
C9A C7A 1_555 1_555
H8A C9A 1_555 1_555
H9A C9A 1_555 1_555
H10A C9A 1_555 1_555
C10A C6A 1_555 1_555
H11A C10A 1_555 1_555
C11A C10A 1_555 1_555
H12A C11A 1_555 1_555
H13A C11A 1_555 1_555
H14A C11A 1_555 1_555
C12A C10A 1_555 1_555
H15A C12A 1_555 1_555
H16A C12A 1_555 1_555
H17A C12A 1_555 1_555
C13A N1A 1_555 1_555
C14A C19 1_555 1_555
C15A C15 1_555 1_555
C16A C15A 1_555 1_555
C17A N1A 1_555 1_555
C18A C16A 1_555 1_555
C19A C14 1_555 1_555
C20A C19A 1_555 1_555
H18A C20A 1_555 1_555
C21A S1A 1_555 1_555
C22A C21A 1_555 1_555
C23A C22A 1_555 1_555
C24A C23A 1_555 1_555
C25A C24A 1_555 1_555
C5 C6 1_555 1_555
C16 C17 1_555 1_555
C20 C21 1_555 1_555
C5A C6A 1_555 1_555
C13A C14A 1_555 1_555
C14A C15A 1_555 1_555
C16A C17A 1_555 1_555
C18A C19A 1_555 1_555
C20A C21A 1_555 1_555

#END
