
#######################################################################
#
#                 Cambridge Crystallographic Data Centre
#                                CCDC 
#
#######################################################################
#
# If this CIF has been generated from an entry in the Cambridge 
# Structural Database, then it will include bibliographic, chemical, 
# crystal, experimental, refinement or atomic coordinate data resulting 
# from the CCDC's data processing and validation procedures.
#
#######################################################################

data_ECAYOZ
_chemical_name_common            
"5,5'-bi(2,8,14,20-tetramethyl-2,8,14,20-tetraaza-26-hydroxocalix[1]arene[3]pyridine) dihydrate"
_chemical_formula_moiety         'C50 H48 N14 O2,2(H2 O1)'
_chemical_name_systematic        
"2,2',8,8',14,14',20,20'-octamethyl-5,5'-bi(2,8,14,20,25,26,27-heptaazapentacyclo[19.3.1.1^3,7^.1^9,13^.1^15,19^]octacosane)-1(25),1'(25'),3(28),3'(28'),4,4',6,6',9(27),9'(27'),10,10',12,12',15(26),15'(26'),16,16',18,18',21,21',23,23'-tetracosaene-28,28'-diol dihydrate"
_symmetry_cell_setting           monoclinic
_symmetry_space_group_name_H-M   'P 21/c'
_symmetry_Int_Tables_number      14
_space_group_name_Hall           '-P 2ybc'
loop_
_symmetry_equiv_pos_site_id
_symmetry_equiv_pos_as_xyz
1 x,y,z
2 -x,1/2+y,1/2-z
3 -x,-y,-z
4 x,1/2-y,1/2+z
_cell_length_a                   9.842(2)
_cell_length_b                   21.609(4)
_cell_length_c                   25.234(5)
_cell_angle_alpha                90
_cell_angle_beta                 91.32(3)
_cell_angle_gamma                90
_cell_volume                     5365.24
_exptl_crystal_colour            colorless
_exptl_crystal_description       rod
_cell_formula_units_Z            4
loop_
_atom_site_label
_atom_site_type_symbol
_atom_site_fract_x
_atom_site_fract_y
_atom_site_fract_z
O1 O 0.5782(2) 0.27581(10) 0.77417(8)
H1 H 0.5795 0.2406 0.7863
O2 O 0.8147(2) 0.29743(11) 0.39799(9)
H2 H 0.8122 0.2638 0.3830
N1 N 0.5324(2) 0.38236(12) 0.71693(10)
N2 N 0.7535(3) 0.40759(12) 0.73932(10)
N3 N 0.9805(3) 0.42478(14) 0.75889(12)
N4 N 1.0546(3) 0.32278(14) 0.74942(12)
N5 N 1.1258(3) 0.21909(15) 0.74581(16)
N6 N 0.9015(3) 0.18951(13) 0.73814(11)
N7 N 0.6751(3) 0.16563(12) 0.72592(10)
N8 N 0.7137(3) 0.18213(13) 0.43713(11)
N9 N 0.4883(3) 0.20897(13) 0.42746(11)
N10 N 0.2681(3) 0.24285(15) 0.42035(14)
N11 N 0.3443(3) 0.34554(13) 0.41776(11)
N12 N 0.4226(3) 0.44734(13) 0.40948(11)
N13 N 0.6448(2) 0.42547(12) 0.43452(10)
N14 N 0.8575(3) 0.39762(12) 0.46431(10)
C1 C 0.6742(3) 0.27909(15) 0.61409(12)
C2 C 0.6202(3) 0.33003(15) 0.63993(12)
H3 H 0.6060 0.3665 0.6210
C3 C 0.5871(3) 0.32833(14) 0.69258(12)
C4 C 0.6076(3) 0.27387(15) 0.72187(12)
C5 C 0.6591(3) 0.22194(14) 0.69635(12)
C6 C 0.6915(3) 0.22499(15) 0.64344(12)
H4 H 0.7259 0.1900 0.6270
C7 C 0.3894(3) 0.38027(17) 0.73152(14)
H5 H 0.3410 0.3520 0.7085
H6 H 0.3504 0.4208 0.7280
H7 H 0.3829 0.3666 0.7676
C8 C 0.6206(3) 0.42102(15) 0.74443(12)
C9 C 0.5771(4) 0.47097(16) 0.77478(13)
H8 H 0.4852 0.4799 0.7778
C10 C 0.6747(4) 0.50649(17) 0.79999(15)
H9 H 0.6482 0.5402 0.8202
C11 C 0.8112(4) 0.49327(17) 0.79597(15)
H10 H 0.8775 0.5170 0.8132
C12 C 0.8449(3) 0.44262(16) 0.76477(14)
C13 C 1.0764(4) 0.4395(2) 0.80203(16)
H11 H 1.0941 0.4831 0.8023
H12 H 1.1598 0.4174 0.7970
H13 H 1.0384 0.4275 0.8352
C14 C 1.0086(3) 0.37406(16) 0.72552(14)
C15 C 0.9893(3) 0.37833(16) 0.67128(14)
H14 H 0.9554 0.4144 0.6559
C16 C 1.0210(4) 0.32801(18) 0.64052(16)
H15 H 1.0094 0.3297 0.6039
C17 C 1.0705(4) 0.27490(18) 0.66473(17)
H16 H 1.0941 0.2406 0.6447
C18 C 1.0838(3) 0.27413(17) 0.71876(17)
C19 C 1.2588(4) 0.2175(2) 0.7718(2)
H17 H 1.3149 0.1876 0.7546
H18 H 1.2494 0.2064 0.8083
H19 H 1.3003 0.2577 0.7696
C20 C 1.0283(4) 0.17499(16) 0.75563(14)
C21 C 1.0588(4) 0.11946(17) 0.78117(15)
H20 H 1.1469 0.1104 0.7928
C22 C 0.9541(4) 0.07839(18) 0.78862(16)
H21 H 0.9717 0.0411 0.8058
C23 C 0.8234(4) 0.09158(17) 0.77096(15)
H22 H 0.7523 0.0640 0.7761
C24 C 0.8024(3) 0.14815(15) 0.74497(13)
C25 C 0.5687(4) 0.11956(16) 0.71949(15)
H23 H 0.4907 0.1380 0.7023
H24 H 0.5440 0.1042 0.7537
H25 H 0.6010 0.0860 0.6983
C26 C 0.7123(3) 0.28255(15) 0.55742(12)
C27 C 0.7639(3) 0.33711(15) 0.53598(12)
H26 H 0.7743 0.3717 0.5576
C28 C 0.7995(3) 0.34087(15) 0.48389(12)
C29 C 0.7822(3) 0.28998(15) 0.44985(12)
C30 C 0.7319(3) 0.23515(14) 0.47077(12)
C31 C 0.6977(3) 0.23208(15) 0.52335(13)
H27 H 0.6638 0.1951 0.5365
C32 C 0.8186(4) 0.13433(17) 0.44085(16)
H28 H 0.9022 0.1523 0.4537
H29 H 0.8319 0.1167 0.4064
H30 H 0.7905 0.1025 0.4648
C33 C 0.5828(4) 0.16550(16) 0.42157(13)
C34 C 0.5533(4) 0.1073(2) 0.40030(17)
H31 H 0.6212 0.0781 0.3952
C35 C 0.4200(5) 0.0949(2) 0.3872(2)
H32 H 0.3971 0.0562 0.3735
C36 C 0.3196(4) 0.1381(2) 0.39374(18)
H33 H 0.2292 0.1295 0.3852
C37 C 0.3595(4) 0.19600(17) 0.41397(14)
C38 C 0.1273(5) 0.2387(3) 0.4027(3)
H34 H 0.1223 0.2197 0.3683
H35 H 0.0887 0.2795 0.4007
H36 H 0.0775 0.2142 0.4273
C39 C 0.3114(3) 0.29733(17) 0.44793(15)
C40 C 0.3165(4) 0.29852(17) 0.50235(16)
H37 H 0.2933 0.2638 0.5220
C41 C 0.3566(4) 0.35254(18) 0.52712(15)
H38 H 0.3605 0.3550 0.5639
C42 C 0.3910(3) 0.40295(17) 0.49681(13)
H39 H 0.4177 0.4400 0.5126
C43 C 0.3848(3) 0.39685(15) 0.44253(13)
C44 C 0.3293(4) 0.4667(2) 0.36715(17)
H40 H 0.3662 0.4558 0.3335
H41 H 0.3168 0.5107 0.3688
H42 H 0.2434 0.4464 0.3712
C45 C 0.5598(3) 0.46234(15) 0.40695(12)
C46 C 0.6043(3) 0.51272(15) 0.37743(13)
H43 H 0.5442 0.5368 0.3573
C47 C 0.7422(4) 0.52522(16) 0.37953(14)
H44 H 0.7754 0.5588 0.3608
C48 C 0.8316(3) 0.48901(16) 0.40879(13)
H45 H 0.9239 0.4982 0.4108
C49 C 0.7779(3) 0.43777(15) 0.43537(12)
C50 C 1.0055(3) 0.40059(18) 0.46071(17)
H46 H 1.0461 0.3702 0.4838
H47 H 1.0364 0.4410 0.4711
H48 H 1.0310 0.3925 0.4249
O3 O 0.4427(2) 0.67502(11) 0.66368(9)
H49 H 0.5152 0.6686 0.6476
H50 H 0.3779 0.6755 0.6414
O4 O 0.8413(3) 0.19974(12) 0.33084(9)
H51 H 0.7695 0.2020 0.3123
H52 H 0.9074 0.2083 0.3117
loop_
_geom_bond_atom_site_label_1
_geom_bond_atom_site_label_2
_geom_bond_site_symmetry_1
_geom_bond_site_symmetry_2
O1 H1 1_555 1_555
O2 H2 1_555 1_555
N1 C3 1_555 1_555
N2 C8 1_555 1_555
N3 C12 1_555 1_555
N4 C14 1_555 1_555
N5 C18 1_555 1_555
N6 C20 1_555 1_555
N7 C5 1_555 1_555
N8 C30 1_555 1_555
N9 C33 1_555 1_555
N10 C37 1_555 1_555
N11 C39 1_555 1_555
N12 C43 1_555 1_555
N13 C45 1_555 1_555
N14 C28 1_555 1_555
C1 C2 1_555 1_555
C2 H3 1_555 1_555
C3 C2 1_555 1_555
C4 O1 1_555 1_555
C5 C4 1_555 1_555
C6 C1 1_555 1_555
H4 C6 1_555 1_555
C7 N1 1_555 1_555
H5 C7 1_555 1_555
H6 C7 1_555 1_555
H7 C7 1_555 1_555
C8 N1 1_555 1_555
C9 C8 1_555 1_555
H8 C9 1_555 1_555
C10 C9 1_555 1_555
H9 C10 1_555 1_555
C11 C10 1_555 1_555
H10 C11 1_555 1_555
C12 N2 1_555 1_555
C13 N3 1_555 1_555
H11 C13 1_555 1_555
H12 C13 1_555 1_555
H13 C13 1_555 1_555
C14 N3 1_555 1_555
C15 C14 1_555 1_555
H14 C15 1_555 1_555
C16 C15 1_555 1_555
H15 C16 1_555 1_555
C17 C16 1_555 1_555
H16 C17 1_555 1_555
C18 N4 1_555 1_555
C19 N5 1_555 1_555
H17 C19 1_555 1_555
H18 C19 1_555 1_555
H19 C19 1_555 1_555
C20 N5 1_555 1_555
C21 C20 1_555 1_555
H20 C21 1_555 1_555
C22 C21 1_555 1_555
H21 C22 1_555 1_555
C23 C22 1_555 1_555
H22 C23 1_555 1_555
C24 N6 1_555 1_555
C25 N7 1_555 1_555
H23 C25 1_555 1_555
H24 C25 1_555 1_555
H25 C25 1_555 1_555
C26 C1 1_555 1_555
C27 C26 1_555 1_555
H26 C27 1_555 1_555
C28 C27 1_555 1_555
C29 O2 1_555 1_555
C30 C29 1_555 1_555
C31 C26 1_555 1_555
H27 C31 1_555 1_555
C32 N8 1_555 1_555
H28 C32 1_555 1_555
H29 C32 1_555 1_555
H30 C32 1_555 1_555
C33 N8 1_555 1_555
C34 C33 1_555 1_555
H31 C34 1_555 1_555
C35 C34 1_555 1_555
H32 C35 1_555 1_555
C36 C35 1_555 1_555
H33 C36 1_555 1_555
C37 N9 1_555 1_555
C38 N10 1_555 1_555
H34 C38 1_555 1_555
H35 C38 1_555 1_555
H36 C38 1_555 1_555
C39 N10 1_555 1_555
C40 C39 1_555 1_555
H37 C40 1_555 1_555
C41 C40 1_555 1_555
H38 C41 1_555 1_555
C42 C41 1_555 1_555
H39 C42 1_555 1_555
C43 N11 1_555 1_555
C44 N12 1_555 1_555
H40 C44 1_555 1_555
H41 C44 1_555 1_555
H42 C44 1_555 1_555
C45 N12 1_555 1_555
C46 C45 1_555 1_555
H43 C46 1_555 1_555
C47 C46 1_555 1_555
H44 C47 1_555 1_555
C48 C47 1_555 1_555
H45 C48 1_555 1_555
C49 N13 1_555 1_555
C50 N14 1_555 1_555
H46 C50 1_555 1_555
H47 C50 1_555 1_555
H48 C50 1_555 1_555
O3 H49 1_555 1_555
H50 O3 1_555 1_555
O4 H51 1_555 1_555
H52 O4 1_555 1_555
N7 C24 1_555 1_555
N14 C49 1_555 1_555
C3 C4 1_555 1_555
C5 C6 1_555 1_555
C11 C12 1_555 1_555
C17 C18 1_555 1_555
C23 C24 1_555 1_555
C28 C29 1_555 1_555
C30 C31 1_555 1_555
C36 C37 1_555 1_555
C42 C43 1_555 1_555
C48 C49 1_555 1_555

#END
