
#######################################################################
#
#                 Cambridge Crystallographic Data Centre
#                                CCDC 
#
#######################################################################
#
# If this CIF has been generated from an entry in the Cambridge 
# Structural Database, then it will include bibliographic, chemical, 
# crystal, experimental, refinement or atomic coordinate data resulting 
# from the CCDC's data processing and validation procedures.
#
#######################################################################

data_ECEBUL
_chemical_formula_moiety         'C23 H21 Cl1 F3 N1 O5'
_chemical_name_systematic        
'(2R,3S,4S,5S)-4-Ethyl 2-methyl 1-benzoyl-5-(4-chlorophenyl)-3-(trifluoromethyl)pyrrolidine-2,4-dicarboxylate'
_symmetry_cell_setting           orthorhombic
_symmetry_space_group_name_H-M   'P 21 21 21'
_symmetry_Int_Tables_number      19
_space_group_name_Hall           'P 2ac 2ab'
loop_
_symmetry_equiv_pos_site_id
_symmetry_equiv_pos_as_xyz
1 x,y,z
2 1/2-x,-y,1/2+z
3 -x,1/2+y,1/2-z
4 1/2+x,1/2-y,-z
_cell_length_a                   14.7950(17)
_cell_length_b                   15.6582(17)
_cell_length_c                   20.390(2)
_cell_angle_alpha                90
_cell_angle_beta                 90
_cell_angle_gamma                90
_cell_volume                     4723.61
_exptl_crystal_description       block
_chemical_melting_point          '160 deg.C'
_cell_formula_units_Z            8
loop_
_atom_site_label
_atom_site_type_symbol
_atom_site_fract_x
_atom_site_fract_y
_atom_site_fract_z
C1 C -0.0493(2) 0.63914(18) 1.11336(14)
C2 C 0.0387(3) 0.65836(19) 1.10263(15)
H1 H 0.0640 0.7072 1.1211
C3 C 0.0909(2) 0.60474(17) 1.06395(13)
H2 H 0.1517 0.6169 1.0573
C4 C 0.05311(17) 0.53350(14) 1.03530(11)
C5 C -0.03671(18) 0.51716(16) 1.04556(13)
H3 H -0.0633 0.4701 1.0255
C6 C -0.0886(2) 0.56933(19) 1.08508(14)
H4 H -0.1493 0.5571 1.0923
C7 C 0.10983(16) 0.48106(14) 0.98911(11)
H5 H 0.1738 0.4928 0.9976
C8 C 0.08854(17) 0.50144(15) 0.91654(11)
H6 H 0.0236 0.5115 0.9110
C9 C 0.1412(2) 0.5792(2) 0.89478(14)
C10 C 0.1289(4) 0.7294(3) 0.8789(3)
H7 H 0.1033 0.7712 0.9087
H8 H 0.1934 0.7261 0.8871
C11 C 0.1141(6) 0.7541(3) 0.8162(3)
H9 H 0.1369 0.7113 0.7868
H10 H 0.1447 0.8072 0.8081
H11 H 0.0505 0.7614 0.8091
C12 C 0.11603(17) 0.41943(16) 0.88131(11)
H12 H 0.1822 0.4172 0.8809
C13 C 0.0847(2) 0.4129(2) 0.81167(14)
C14 C 0.08297(16) 0.34897(15) 0.92729(11)
H13 H 0.1222 0.2988 0.9234
C15 C -0.01532(18) 0.32264(16) 0.91822(12)
C16 C -0.1121(2) 0.2221(2) 0.87049(16)
H14 H -0.1428 0.2118 0.9112
H15 H -0.1101 0.1703 0.8454
H16 H -0.1439 0.2651 0.8462
C17 C 0.08217(17) 0.33692(16) 1.04452(13)
C18 C 0.10534(18) 0.36663(15) 1.11119(12)
C19 C 0.18390(19) 0.40969(18) 1.12500(13)
H17 H 0.2218 0.4266 1.0910
C20 C 0.2068(2) 0.4279(2) 1.18901(15)
H18 H 0.2608 0.4558 1.1982
C21 C 0.1499(3) 0.4051(2) 1.23900(15)
H19 H 0.1654 0.4176 1.2822
C22 C 0.0706(3) 0.3641(2) 1.22565(16)
H20 H 0.0310 0.3504 1.2595
C23 C 0.0493(2) 0.34305(19) 1.16193(14)
H21 H -0.0034 0.3127 1.1531
Cl1 Cl -0.11462(9) 0.70515(6) 1.16254(5)
F1 F -0.00504(14) 0.41932(13) 0.80548(8)
F2 F 0.10772(16) 0.33936(14) 0.78422(8)
F3 F 0.11893(16) 0.47520(14) 0.77494(8)
N1 N 0.09466(13) 0.38806(12) 0.99150(9)
O1 O 0.22073(18) 0.57954(16) 0.88543(12)
O2 O 0.08765(19) 0.64623(15) 0.89075(14)
O3 O -0.07772(13) 0.36255(13) 0.93764(10)
O4 O -0.02118(12) 0.25082(11) 0.88358(9)
O5 O 0.05233(15) 0.26447(11) 1.03578(9)
C24 C 0.3285(2) 0.71625(18) 1.07166(16)
C25 C 0.3575(3) 0.7046(2) 1.00985(17)
H22 H 0.3460 0.7456 0.9779
C26 C 0.4050(2) 0.63075(19) 0.99390(15)
H23 H 0.4253 0.6227 0.9512
C27 C 0.42209(16) 0.56984(16) 1.04037(12)
C28 C 0.3895(2) 0.58389(19) 1.10242(13)
H24 H 0.3991 0.5428 1.1346
C29 C 0.3431(2) 0.6570(2) 1.11840(16)
H25 H 0.3221 0.6654 1.1609
C30 C 0.47510(16) 0.48979(15) 1.02648(12)
H26 H 0.4602 0.4478 1.0605
C31 C 0.54135(16) 0.42440(15) 0.92909(12)
H27 H 0.5349 0.3665 0.9114
C32 C 0.56598(19) 0.4864(2) 0.87456(15)
C33 C 0.6437(3) 0.4976(3) 0.77382(19)
H28 H 0.5937 0.5209 0.7498
H29 H 0.6800 0.4633 0.7450
H30 H 0.6798 0.5432 0.7913
C34 C 0.60815(15) 0.42432(16) 0.98644(13)
H31 H 0.5948 0.3737 1.0130
C35 C 0.70634(19) 0.4205(2) 0.96924(17)
C36 C 0.57826(16) 0.50185(16) 1.02624(13)
H32 H 0.5927 0.5536 1.0013
C37 C 0.6199(2) 0.50899(19) 1.09305(16)
C38 C 0.6284(3) 0.4510(3) 1.19948(17)
H33 H 0.6931 0.4409 1.1976
H34 H 0.6182 0.5065 1.2194
C39 C 0.5847(4) 0.3847(3) 1.23806(19)
H35 H 0.5208 0.3949 1.2392
H36 H 0.6083 0.3855 1.2819
H37 H 0.5963 0.3300 1.2185
C40 C 0.37806(17) 0.40757(16) 0.95452(13)
C41 C 0.36324(16) 0.35842(17) 0.89267(13)
C42 C 0.3293(2) 0.27687(19) 0.89871(16)
H38 H 0.3195 0.2533 0.9400
C43 C 0.3099(3) 0.2306(2) 0.8431(2)
H39 H 0.2863 0.1757 0.8469
C44 C 0.3252(3) 0.2646(3) 0.7827(2)
H40 H 0.3133 0.2324 0.7453
C45 C 0.3578(3) 0.3459(3) 0.77655(17)
H41 H 0.3664 0.3696 0.7352
C46 C 0.3778(2) 0.3926(2) 0.83190(14)
H42 H 0.4013 0.4474 0.8279
Cl2 Cl 0.26681(9) 0.80789(6) 1.09099(5)
F4 F 0.75672(11) 0.41092(12) 1.02346(10)
F5 F 0.73711(12) 0.48898(13) 0.93918(11)
F6 F 0.72425(11) 0.35378(12) 0.93114(10)
N2 N 0.45781(13) 0.45028(12) 0.96225(9)
O6 O 0.59029(14) 0.44904(14) 1.13369(10)
O7 O 0.67435(16) 0.56212(16) 1.10809(12)
O8 O 0.55037(16) 0.56112(13) 0.87412(11)
O9 O 0.61010(16) 0.44499(13) 0.82728(10)
O10 O 0.31981(12) 0.41024(13) 0.99674(9)
loop_
_geom_bond_atom_site_label_1
_geom_bond_atom_site_label_2
_geom_bond_site_symmetry_1
_geom_bond_site_symmetry_2
C1 C2 1_555 1_555
C2 H1 1_555 1_555
C3 C2 1_555 1_555
H2 C3 1_555 1_555
C4 C3 1_555 1_555
C5 C4 1_555 1_555
H3 C5 1_555 1_555
C6 C1 1_555 1_555
H4 C6 1_555 1_555
C7 C4 1_555 1_555
H5 C7 1_555 1_555
C8 C7 1_555 1_555
H6 C8 1_555 1_555
C9 C8 1_555 1_555
C10 H7 1_555 1_555
H8 C10 1_555 1_555
C11 C10 1_555 1_555
H9 C11 1_555 1_555
H10 C11 1_555 1_555
H11 C11 1_555 1_555
C12 C8 1_555 1_555
H12 C12 1_555 1_555
C13 C12 1_555 1_555
C14 C12 1_555 1_555
H13 C14 1_555 1_555
C15 C14 1_555 1_555
C16 H14 1_555 1_555
H15 C16 1_555 1_555
H16 C16 1_555 1_555
C17 C18 1_555 1_555
C18 C19 1_555 1_555
C19 H17 1_555 1_555
C20 C19 1_555 1_555
H18 C20 1_555 1_555
C21 C20 1_555 1_555
H19 C21 1_555 1_555
C22 C21 1_555 1_555
H20 C22 1_555 1_555
C23 C18 1_555 1_555
H21 C23 1_555 1_555
C24 C25 1_555 1_555
C25 H22 1_555 1_555
C26 C25 1_555 1_555
H23 C26 1_555 1_555
C27 C26 1_555 1_555
C28 C27 1_555 1_555
H24 C28 1_555 1_555
C29 C24 1_555 1_555
H25 C29 1_555 1_555
C30 C27 1_555 1_555
H26 C30 1_555 1_555
C31 H27 1_555 1_555
C32 C31 1_555 1_555
C33 H28 1_555 1_555
H29 C33 1_555 1_555
H30 C33 1_555 1_555
C34 C31 1_555 1_555
H31 C34 1_555 1_555
C35 C34 1_555 1_555
C36 C30 1_555 1_555
H32 C36 1_555 1_555
C37 C36 1_555 1_555
C38 H33 1_555 1_555
H34 C38 1_555 1_555
C39 C38 1_555 1_555
H35 C39 1_555 1_555
H36 C39 1_555 1_555
H37 C39 1_555 1_555
C40 C41 1_555 1_555
C41 C42 1_555 1_555
C42 H38 1_555 1_555
C43 C42 1_555 1_555
H39 C43 1_555 1_555
C44 C43 1_555 1_555
H40 C44 1_555 1_555
C45 C44 1_555 1_555
H41 C45 1_555 1_555
C46 C41 1_555 1_555
H42 C46 1_555 1_555
Cl1 C1 1_555 1_555
Cl2 C24 1_555 1_555
F1 C13 1_555 1_555
F2 C13 1_555 1_555
F3 C13 1_555 1_555
F4 C35 1_555 1_555
F5 C35 1_555 1_555
F6 C35 1_555 1_555
N1 C7 1_555 1_555
N2 C30 1_555 1_555
O1 C9 1_555 1_555
O2 C9 1_555 1_555
O3 C15 1_555 1_555
O4 C15 1_555 1_555
O5 C17 1_555 1_555
O6 C37 1_555 1_555
O7 C37 1_555 1_555
O8 C32 1_555 1_555
O9 C32 1_555 1_555
O10 C40 1_555 1_555
C5 C6 1_555 1_555
C10 O2 1_555 1_555
C14 N1 1_555 1_555
C16 O4 1_555 1_555
C17 N1 1_555 1_555
C22 C23 1_555 1_555
C28 C29 1_555 1_555
C31 N2 1_555 1_555
C33 O9 1_555 1_555
C34 C36 1_555 1_555
C38 O6 1_555 1_555
C40 N2 1_555 1_555
C45 C46 1_555 1_555

#END
