
#######################################################################
#
#                 Cambridge Crystallographic Data Centre
#                                CCDC 
#
#######################################################################
#
# If this CIF has been generated from an entry in the Cambridge 
# Structural Database, then it will include bibliographic, chemical, 
# crystal, experimental, refinement or atomic coordinate data resulting 
# from the CCDC's data processing and validation procedures.
#
#######################################################################

data_ECEFEZ
_chemical_formula_moiety         'C42 H78 N2 O2,H2 O1,C1 H1 Cl3'
_chemical_name_systematic        
'4,6-bis(octadecylamino)-m-quinone chloroform solvate monohydrate'
_symmetry_cell_setting           triclinic
_symmetry_space_group_name_H-M   'P -1'
_symmetry_Int_Tables_number      2
_space_group_name_Hall           '-P 1'
loop_
_symmetry_equiv_pos_site_id
_symmetry_equiv_pos_as_xyz
1 x,y,z
2 -x,-y,-z
_cell_length_a                   9.53790(10)
_cell_length_b                   15.4567(2)
_cell_length_c                   31.2770(4)
_cell_angle_alpha                80.4140(10)
_cell_angle_beta                 89.3420(10)
_cell_angle_gamma                87.0510(10)
_cell_volume                     4540.57
_exptl_crystal_colour            red
_exptl_crystal_description       plate
_cell_formula_units_Z            4
loop_
_atom_site_label
_atom_site_type_symbol
_atom_site_fract_x
_atom_site_fract_y
_atom_site_fract_z
O1 O -0.00044(18) 0.10533(12) 0.51546(5)
O4 O -0.06051(17) 0.41283(11) 0.50356(5)
N1 N 0.2118(2) 0.10220(15) 0.56702(7)
H5 H 0.184(3) 0.059(2) 0.5563(10)
N3 N 0.1567(2) 0.41418(16) 0.55417(7)
H7 H 0.121(3) 0.4557(17) 0.5423(9)
C2 C 0.1506(2) 0.18001(16) 0.55453(7)
C5 C 0.0273(3) 0.17852(17) 0.52370(8)
C7 C -0.0433(3) 0.25903(16) 0.50768(8)
H11 H -0.1224 0.2591 0.4895
C9 C -0.0032(2) 0.33794(17) 0.51719(8)
C11 C 0.1215(2) 0.33691(17) 0.54761(7)
C13 C 0.1893(3) 0.25841(16) 0.56622(8)
H13 H 0.2618 0.2582 0.5868
C15 C 0.3276(3) 0.08137(17) 0.59797(8)
H15 H 0.3877 0.1323 0.5957
H16 H 0.3858 0.0308 0.5908
C17 C 0.2723(3) 0.05905(17) 0.64438(8)
H19 H 0.2162 0.1103 0.6516
H20 H 0.2094 0.0096 0.6462
C19 C 0.3895(3) 0.03418(18) 0.67752(8)
H23 H 0.4507 0.0844 0.6763
H24 H 0.4473 -0.0159 0.6697
C21 C 0.3349(3) 0.00912(18) 0.72387(8)
H27 H 0.2707 0.0574 0.7307
H28 H 0.2797 -0.0439 0.7255
C23 C 0.4499(3) -0.00912(17) 0.75797(8)
H31 H 0.5050 0.0438 0.7564
H32 H 0.5141 -0.0574 0.7512
C25 C 0.3941(3) -0.03407(17) 0.80402(8)
H35 H 0.3274 0.0134 0.8104
H36 H 0.3417 -0.0882 0.8058
C27 C 0.5087(3) -0.04947(17) 0.83843(8)
H39 H 0.5617 0.0045 0.8365
H40 H 0.5749 -0.0972 0.8321
C29 C 0.4537(3) -0.07367(17) 0.88461(8)
H43 H 0.4028 -0.1285 0.8869
H44 H 0.3859 -0.0266 0.8908
C31 C 0.5694(3) -0.08676(17) 0.91877(8)
H47 H 0.6372 -0.1338 0.9125
H48 H 0.6203 -0.0319 0.9164
C33 C 0.5156(3) -0.11096(17) 0.96513(8)
H51 H 0.4658 -0.1662 0.9677
H52 H 0.4471 -0.0643 0.9713
C35 C 0.6326(3) -0.12277(17) 0.99896(8)
H55 H 0.7013 -0.1692 0.9926
H56 H 0.6820 -0.0674 0.9965
C37 C 0.5796(3) -0.14750(17) 1.04551(8)
H59 H 0.5107 -0.1012 1.0519
H60 H 0.5305 -0.2030 1.0481
C39 C 0.6967(3) -0.15892(17) 1.07907(8)
H63 H 0.7449 -0.1031 1.0768
H64 H 0.7663 -0.2045 1.0724
C41 C 0.6445(3) -0.18505(17) 1.12568(8)
H67 H 0.5745 -0.1396 1.1323
H68 H 0.5967 -0.2410 1.1280
C43 C 0.7614(3) -0.19603(17) 1.15927(8)
H71 H 0.8084 -0.1398 1.1572
H72 H 0.8321 -0.2409 1.1524
C45 C 0.7098(3) -0.22329(18) 1.20565(8)
H75 H 0.6635 -0.2797 1.2078
H76 H 0.6387 -0.1786 1.2125
C47 C 0.8272(3) -0.23374(19) 1.23941(8)
H79 H 0.8987 -0.2782 1.2326
H80 H 0.8732 -0.1772 1.2376
C49 C 0.7732(3) -0.2616(2) 1.28554(9)
H83 H 0.7049 -0.2167 1.2928
H84 H 0.8520 -0.2683 1.3059
H85 H 0.7281 -0.3177 1.2876
C51 C 0.2719(3) 0.42776(17) 0.58252(8)
H89 H 0.3600 0.4012 0.5723
H90 H 0.2531 0.3972 0.6123
C53 C 0.2913(3) 0.52328(17) 0.58377(8)
H93 H 0.2018 0.5510 0.5924
H94 H 0.3165 0.5534 0.5544
C55 C 0.4066(3) 0.53464(18) 0.61586(8)
H97 H 0.4881 0.4945 0.6118
H98 H 0.4379 0.5955 0.6091
C57 C 0.3599(3) 0.51625(18) 0.66342(8)
H101 H 0.2920 0.5639 0.6689
H102 H 0.3106 0.4606 0.6685
C59 C 0.4802(3) 0.50933(18) 0.69572(7)
H105 H 0.5312 0.5643 0.6902
H106 H 0.5467 0.4606 0.6909
C61 C 0.4320(2) 0.49351(17) 0.74297(7)
H109 H 0.3752 0.5458 0.7487
H110 H 0.3708 0.4429 0.7475
C63 C 0.5526(3) 0.47532(17) 0.77540(7)
H113 H 0.6107 0.4239 0.7691
H114 H 0.6125 0.5265 0.7712
C65 C 0.5053(3) 0.45743(17) 0.82267(7)
H117 H 0.4471 0.5088 0.8290
H118 H 0.4456 0.4062 0.8269
C67 C 0.6258(2) 0.43953(17) 0.85482(7)
H121 H 0.6847 0.4912 0.8509
H122 H 0.6848 0.3888 0.8483
C69 C 0.5784(2) 0.42038(17) 0.90193(7)
H125 H 0.5206 0.3682 0.9059
H126 H 0.5182 0.4708 0.9084
C71 C 0.6991(2) 0.40370(17) 0.93422(7)
H129 H 0.7599 0.3537 0.9276
H130 H 0.7563 0.4561 0.9304
C73 C 0.6520(2) 0.38349(17) 0.98138(7)
H133 H 0.5953 0.3308 0.9852
H134 H 0.5908 0.4333 0.9880
C75 C 0.7732(2) 0.36736(16) 1.01357(7)
H137 H 0.8344 0.3177 1.0069
H138 H 0.8297 0.4201 1.0097
C77 C 0.7264(2) 0.34698(17) 1.06074(7)
H141 H 0.6699 0.2942 1.0647
H142 H 0.6654 0.3967 1.0675
C79 C 0.8490(2) 0.33087(17) 1.09256(7)
H145 H 0.9097 0.2810 1.0857
H146 H 0.9057 0.3835 1.0884
C81 C 0.8044(3) 0.31084(17) 1.13990(7)
H149 H 0.7438 0.3605 1.1469
H150 H 0.7482 0.2579 1.1443
C83 C 0.9284(3) 0.29546(18) 1.17064(8)
H153 H 0.9848 0.3482 1.1660
H154 H 0.9886 0.2456 1.1636
C85 C 0.8853(3) 0.2758(2) 1.21825(8)
H157 H 0.8288 0.3259 1.2258
H158 H 0.9695 0.2655 1.2364
H159 H 0.8300 0.2233 1.2231
O2 O 1.55724(18) 0.09065(11) 0.50534(6)
O5 O 1.47066(18) 0.39548(12) 0.49688(5)
N2 N 1.3277(2) 0.08123(15) 0.46151(7)
H6 H 1.382(3) 0.0433(18) 0.4720(9)
N4 N 1.2594(2) 0.39394(15) 0.44632(6)
H8 H 1.297(3) 0.4400(18) 0.4544(8)
C3 C 1.3582(2) 0.16057(17) 0.46655(7)
C6 C 1.4899(2) 0.16267(17) 0.49373(8)
C8 C 1.5252(3) 0.24294(17) 0.50371(8)
H12 H 1.6050 0.2448 0.5214
C10 C 1.4478(2) 0.32090(17) 0.48881(8)
C12 C 1.3219(2) 0.31651(17) 0.45934(7)
C14 C 1.2828(2) 0.23732(16) 0.44924(7)
H14 H 1.2052 0.2355 0.4307
C16 C 1.2115(3) 0.05927(17) 0.43560(8)
H17 H 1.1310 0.1017 0.4371
H18 H 1.1810 -0.0001 0.4478
C18 C 1.2551(3) 0.06143(18) 0.38869(8)
H21 H 1.3324 0.0167 0.3874
H22 H 1.2916 0.1197 0.3773
C20 C 1.1359(3) 0.04430(18) 0.35962(8)
H25 H 1.0932 -0.0113 0.3722
H26 H 1.0626 0.0924 0.3583
C22 C 1.1880(3) 0.0384(2) 0.31402(8)
H29 H 1.2378 0.0922 0.3028
H30 H 1.2571 -0.0121 0.3157
C24 C 1.0753(3) 0.02778(19) 0.28169(8)
H33 H 0.9988 0.0731 0.2828
H34 H 1.0352 -0.0305 0.2901
C26 C 1.1312(3) 0.03588(19) 0.23566(8)
H37 H 1.2012 -0.0131 0.2342
H38 H 1.1804 0.0914 0.2287
C28 C 1.0195(3) 0.03489(18) 0.20133(8)
H41 H 0.9436 0.0793 0.2049
H42 H 0.9781 -0.0234 0.2061
C30 C 1.0759(3) 0.05380(17) 0.15501(8)
H45 H 1.1284 0.1082 0.1514
H46 H 1.1425 0.0051 0.1502
C32 C 0.9606(3) 0.06455(17) 0.12086(8)
H49 H 0.8907 0.1106 0.1269
H50 H 0.9122 0.0088 0.1232
C34 C 1.0156(3) 0.08927(17) 0.07461(8)
H53 H 1.0665 0.1441 0.0724
H54 H 1.0832 0.0423 0.0682
C36 C 0.8993(3) 0.10264(17) 0.04087(8)
H57 H 0.8308 0.1488 0.0477
H58 H 0.8495 0.0475 0.0428
C38 C 0.9525(3) 0.12898(17) -0.00544(7)
H61 H 1.0011 0.1846 -0.0075
H62 H 1.0219 0.0832 -0.0122
C40 C 0.8357(3) 0.14105(17) -0.03900(8)
H65 H 0.7664 0.1868 -0.0323
H66 H 0.7869 0.0854 -0.0368
C42 C 0.8877(3) 0.16720(17) -0.08539(8)
H69 H 0.9587 0.1222 -0.0920
H70 H 0.9342 0.2237 -0.0878
C44 C 0.7700(3) 0.17685(17) -0.11884(8)
H73 H 0.7230 0.1206 -0.1161
H74 H 0.6996 0.2222 -0.1123
C46 C 0.8204(3) 0.20210(18) -0.16540(8)
H77 H 0.8642 0.2595 -0.1685
H78 H 0.8933 0.1579 -0.1717
C48 C 0.7033(3) 0.2082(2) -0.19835(8)
H81 H 0.6308 0.2527 -0.1922
H82 H 0.6591 0.1509 -0.1951
C50 C 0.7535(4) 0.2328(2) -0.24496(9)
H86 H 0.7975 0.2894 -0.2485
H87 H 0.6732 0.2371 -0.2646
H88 H 0.8219 0.1875 -0.2518
C52 C 1.1397(2) 0.41259(17) 0.41718(7)
H91 H 1.0843 0.4645 0.4241
H92 H 1.0786 0.3620 0.4218
C54 C 1.1849(3) 0.43023(18) 0.36994(8)
H95 H 1.2340 0.3767 0.3625
H96 H 1.2521 0.4777 0.3658
C56 C 1.0610(3) 0.45676(18) 0.33939(8)
H99 H 0.9960 0.4081 0.3427
H100 H 1.0095 0.5086 0.3478
C58 C 1.1050(3) 0.47856(19) 0.29215(8)
H103 H 1.1678 0.5283 0.2888
H104 H 1.1593 0.4273 0.2841
C60 C 0.9826(2) 0.50249(18) 0.26107(8)
H107 H 0.9293 0.5544 0.2687
H108 H 0.9190 0.4532 0.2646
C62 C 1.0284(3) 0.52270(18) 0.21378(8)
H111 H 1.0883 0.5739 0.2100
H112 H 1.0860 0.4719 0.2067
C64 C 0.9066(3) 0.54240(17) 0.18203(7)
H115 H 0.8489 0.5933 0.1891
H116 H 0.8467 0.4912 0.1857
C66 C 0.9534(2) 0.56256(17) 0.13482(7)
H119 H 1.0109 0.6148 0.1310
H120 H 1.0138 0.5125 0.1281
C68 C 0.8326(2) 0.57958(17) 0.10264(7)
H123 H 0.7722 0.6296 0.1093
H124 H 0.7752 0.5273 0.1064
C70 C 0.8803(2) 0.59983(17) 0.05547(7)
H127 H 0.9415 0.5500 0.0489
H128 H 0.9369 0.6525 0.0517
C72 C 0.7590(2) 0.61597(16) 0.02326(7)
H131 H 0.7019 0.5635 0.0272
H132 H 0.6982 0.6661 0.0297
C74 C 0.8068(2) 0.63546(17) -0.02388(7)
H135 H 0.8677 0.5854 -0.0303
H136 H 0.8638 0.6880 -0.0279
C76 C 0.6855(2) 0.65149(17) -0.05608(7)
H139 H 0.6283 0.5991 -0.0521
H140 H 0.6248 0.7017 -0.0497
C78 C 0.7340(3) 0.67066(17) -0.10323(7)
H143 H 0.7946 0.6203 -0.1095
H144 H 0.7915 0.7229 -0.1072
C80 C 0.6135(3) 0.68705(17) -0.13575(8)
H147 H 0.5552 0.6351 -0.1315
H148 H 0.5537 0.7379 -0.1297
C82 C 0.6618(3) 0.70493(17) -0.18290(8)
H151 H 0.7202 0.7569 -0.1871
H152 H 0.7216 0.6541 -0.1890
C84 C 0.5421(3) 0.72123(19) -0.21515(8)
H155 H 0.4837 0.7731 -0.2097
H156 H 0.4823 0.6700 -0.2105
C86 C 0.5925(3) 0.7367(2) -0.26218(9)
H160 H 0.6485 0.7888 -0.2673
H161 H 0.5112 0.7458 -0.2816
H162 H 0.6501 0.6854 -0.2678
O3 O 0.3101(2) 0.56857(12) 0.45527(6)
H1 H 0.238(3) 0.572(2) 0.4701(10)
H2 H 0.380(4) 0.580(2) 0.4705(11)
O6 O 0.1962(2) 0.93409(13) 0.54316(6)
H3 H 0.269(3) 0.923(2) 0.5311(10)
H4 H 0.135(3) 0.921(2) 0.5294(10)
C1 C 0.7573(3) 0.19022(18) 0.37319(8)
H9 H 0.7913 0.1295 0.3865
Cl1 Cl 0.79066(9) 0.20481(6) 0.31722(2)
Cl2 Cl 0.57675(8) 0.20209(6) 0.38283(3)
Cl3 Cl 0.84770(10) 0.26548(6) 0.39649(3)
C4 C 0.7133(3) 0.2789(2) 0.61830(9)
H10 H 0.7019 0.3179 0.5895
Cl4 Cl 0.85080(10) 0.31604(7) 0.64556(3)
Cl5 Cl 0.55419(9) 0.28417(6) 0.64684(3)
Cl6 Cl 0.74915(13) 0.17162(6) 0.60924(3)
loop_
_geom_bond_atom_site_label_1
_geom_bond_atom_site_label_2
_geom_bond_site_symmetry_1
_geom_bond_site_symmetry_2
O1 C5 1_555 1_555
O2 C6 1_555 1_555
O3 H1 1_555 1_555
H2 O3 1_555 1_555
O4 C9 1_555 1_555
O5 C10 1_555 1_555
O6 H3 1_555 1_555
H4 O6 1_555 1_555
N1 H5 1_555 1_555
N2 H6 1_555 1_555
N3 H7 1_555 1_555
N4 H8 1_555 1_555
C1 H9 1_555 1_555
C2 N1 1_555 1_555
C3 N2 1_555 1_555
C4 H10 1_555 1_555
C5 C2 1_555 1_555
C6 C3 1_555 1_555
C7 C5 1_555 1_555
H11 C7 1_555 1_555
C8 C6 1_555 1_555
H12 C8 1_555 1_555
C9 C7 1_555 1_555
C10 C8 1_555 1_555
C11 N3 1_555 1_555
C12 N4 1_555 1_555
C13 C2 1_555 1_555
H13 C13 1_555 1_555
C14 C3 1_555 1_555
H14 C14 1_555 1_555
C15 N1 1_555 1_555
H15 C15 1_555 1_555
H16 C15 1_555 1_555
C16 N2 1_555 1_555
H17 C16 1_555 1_555
H18 C16 1_555 1_555
C17 C15 1_555 1_555
H19 C17 1_555 1_555
H20 C17 1_555 1_555
C18 C16 1_555 1_555
H21 C18 1_555 1_555
H22 C18 1_555 1_555
C19 C17 1_555 1_555
H23 C19 1_555 1_555
H24 C19 1_555 1_555
C20 C18 1_555 1_555
H25 C20 1_555 1_555
H26 C20 1_555 1_555
C21 C19 1_555 1_555
H27 C21 1_555 1_555
H28 C21 1_555 1_555
C22 C20 1_555 1_555
H29 C22 1_555 1_555
H30 C22 1_555 1_555
C23 C21 1_555 1_555
H31 C23 1_555 1_555
H32 C23 1_555 1_555
C24 C22 1_555 1_555
H33 C24 1_555 1_555
H34 C24 1_555 1_555
C25 C23 1_555 1_555
H35 C25 1_555 1_555
H36 C25 1_555 1_555
C26 C24 1_555 1_555
H37 C26 1_555 1_555
H38 C26 1_555 1_555
C27 C25 1_555 1_555
H39 C27 1_555 1_555
H40 C27 1_555 1_555
C28 C26 1_555 1_555
H41 C28 1_555 1_555
H42 C28 1_555 1_555
C29 C27 1_555 1_555
H43 C29 1_555 1_555
H44 C29 1_555 1_555
C30 C28 1_555 1_555
H45 C30 1_555 1_555
H46 C30 1_555 1_555
C31 C29 1_555 1_555
H47 C31 1_555 1_555
H48 C31 1_555 1_555
C32 C30 1_555 1_555
H49 C32 1_555 1_555
H50 C32 1_555 1_555
C33 C31 1_555 1_555
H51 C33 1_555 1_555
H52 C33 1_555 1_555
C34 C32 1_555 1_555
H53 C34 1_555 1_555
H54 C34 1_555 1_555
C35 C33 1_555 1_555
H55 C35 1_555 1_555
H56 C35 1_555 1_555
C36 C34 1_555 1_555
H57 C36 1_555 1_555
H58 C36 1_555 1_555
C37 C35 1_555 1_555
H59 C37 1_555 1_555
H60 C37 1_555 1_555
C38 C36 1_555 1_555
H61 C38 1_555 1_555
H62 C38 1_555 1_555
C39 C37 1_555 1_555
H63 C39 1_555 1_555
H64 C39 1_555 1_555
C40 C38 1_555 1_555
H65 C40 1_555 1_555
H66 C40 1_555 1_555
C41 C39 1_555 1_555
H67 C41 1_555 1_555
H68 C41 1_555 1_555
C42 C40 1_555 1_555
H69 C42 1_555 1_555
H70 C42 1_555 1_555
C43 C41 1_555 1_555
H71 C43 1_555 1_555
H72 C43 1_555 1_555
C44 C42 1_555 1_555
H73 C44 1_555 1_555
H74 C44 1_555 1_555
C45 C43 1_555 1_555
H75 C45 1_555 1_555
H76 C45 1_555 1_555
C46 C44 1_555 1_555
H77 C46 1_555 1_555
H78 C46 1_555 1_555
C47 C45 1_555 1_555
H79 C47 1_555 1_555
H80 C47 1_555 1_555
C48 C46 1_555 1_555
H81 C48 1_555 1_555
H82 C48 1_555 1_555
C49 C47 1_555 1_555
H83 C49 1_555 1_555
H84 C49 1_555 1_555
H85 C49 1_555 1_555
C50 C48 1_555 1_555
H86 C50 1_555 1_555
H87 C50 1_555 1_555
H88 C50 1_555 1_555
C51 N3 1_555 1_555
H89 C51 1_555 1_555
H90 C51 1_555 1_555
C52 N4 1_555 1_555
H91 C52 1_555 1_555
H92 C52 1_555 1_555
C53 C51 1_555 1_555
H93 C53 1_555 1_555
H94 C53 1_555 1_555
C54 C52 1_555 1_555
H95 C54 1_555 1_555
H96 C54 1_555 1_555
C55 C53 1_555 1_555
H97 C55 1_555 1_555
H98 C55 1_555 1_555
C56 C54 1_555 1_555
H99 C56 1_555 1_555
H100 C56 1_555 1_555
C57 C55 1_555 1_555
H101 C57 1_555 1_555
H102 C57 1_555 1_555
C58 C56 1_555 1_555
H103 C58 1_555 1_555
H104 C58 1_555 1_555
C59 C57 1_555 1_555
H105 C59 1_555 1_555
H106 C59 1_555 1_555
C60 C58 1_555 1_555
H107 C60 1_555 1_555
H108 C60 1_555 1_555
C61 C59 1_555 1_555
H109 C61 1_555 1_555
H110 C61 1_555 1_555
C62 C60 1_555 1_555
H111 C62 1_555 1_555
H112 C62 1_555 1_555
C63 C61 1_555 1_555
H113 C63 1_555 1_555
H114 C63 1_555 1_555
C64 C62 1_555 1_555
H115 C64 1_555 1_555
H116 C64 1_555 1_555
C65 C63 1_555 1_555
H117 C65 1_555 1_555
H118 C65 1_555 1_555
C66 C64 1_555 1_555
H119 C66 1_555 1_555
H120 C66 1_555 1_555
C67 C65 1_555 1_555
H121 C67 1_555 1_555
H122 C67 1_555 1_555
C68 C66 1_555 1_555
H123 C68 1_555 1_555
H124 C68 1_555 1_555
C69 C67 1_555 1_555
H125 C69 1_555 1_555
H126 C69 1_555 1_555
C70 C68 1_555 1_555
H127 C70 1_555 1_555
H128 C70 1_555 1_555
C71 C69 1_555 1_555
H129 C71 1_555 1_555
H130 C71 1_555 1_555
C72 C70 1_555 1_555
H131 C72 1_555 1_555
H132 C72 1_555 1_555
C73 C71 1_555 1_555
H133 C73 1_555 1_555
H134 C73 1_555 1_555
C74 C72 1_555 1_555
H135 C74 1_555 1_555
H136 C74 1_555 1_555
C75 C73 1_555 1_555
H137 C75 1_555 1_555
H138 C75 1_555 1_555
C76 C74 1_555 1_555
H139 C76 1_555 1_555
H140 C76 1_555 1_555
C77 C75 1_555 1_555
H141 C77 1_555 1_555
H142 C77 1_555 1_555
C78 C76 1_555 1_555
H143 C78 1_555 1_555
H144 C78 1_555 1_555
C79 C77 1_555 1_555
H145 C79 1_555 1_555
H146 C79 1_555 1_555
C80 C78 1_555 1_555
H147 C80 1_555 1_555
H148 C80 1_555 1_555
C81 C79 1_555 1_555
H149 C81 1_555 1_555
H150 C81 1_555 1_555
C82 C80 1_555 1_555
H151 C82 1_555 1_555
H152 C82 1_555 1_555
C83 C81 1_555 1_555
H153 C83 1_555 1_555
H154 C83 1_555 1_555
C84 C82 1_555 1_555
H155 C84 1_555 1_555
H156 C84 1_555 1_555
C85 C83 1_555 1_555
H157 C85 1_555 1_555
H158 C85 1_555 1_555
H159 C85 1_555 1_555
C86 C84 1_555 1_555
H160 C86 1_555 1_555
H161 C86 1_555 1_555
H162 C86 1_555 1_555
Cl1 C1 1_555 1_555
Cl2 C1 1_555 1_555
Cl3 C1 1_555 1_555
Cl4 C4 1_555 1_555
Cl5 C4 1_555 1_555
Cl6 C4 1_555 1_555
C9 C11 1_555 1_555
C10 C12 1_555 1_555
C11 C13 1_555 1_555
C12 C14 1_555 1_555

#END
