
#######################################################################
#
#                 Cambridge Crystallographic Data Centre
#                                CCDC 
#
#######################################################################
#
# If this CIF has been generated from an entry in the Cambridge 
# Structural Database, then it will include bibliographic, chemical, 
# crystal, experimental, refinement or atomic coordinate data resulting 
# from the CCDC's data processing and validation procedures.
#
#######################################################################

data_ECEFOH
_chemical_formula_moiety         'C26 H22 Cl2 N2 O2,C2 H6 O1 S1'
_chemical_name_systematic        
"(R*,R*)-N,N'-bis(2-Chlorophenyl)-1,2-bis(2-hydroxyphenyl)-1,2-ethylenediamine dimethylsulfoxide solvate"
_symmetry_cell_setting           monoclinic
_symmetry_space_group_name_H-M   'C 2/c'
_symmetry_Int_Tables_number      15
_space_group_name_Hall           '-C 2yn'
loop_
_symmetry_equiv_pos_site_id
_symmetry_equiv_pos_as_xyz
1 x,y,z
2 -x,y,1/2-z
3 1/2+x,1/2+y,z
4 1/2-x,1/2+y,1/2-z
5 -x,-y,-z
6 x,-y,1/2+z
7 1/2-x,1/2-y,-z
8 1/2+x,1/2-y,1/2+z
_cell_length_a                   14.169(1)
_cell_length_b                   16.597(1)
_cell_length_c                   12.729(1)
_cell_angle_alpha                90
_cell_angle_beta                 116.159(1)
_cell_angle_gamma                90
_cell_volume                     2686.79
_exptl_crystal_colour            white
_cell_formula_units_Z            4
loop_
_atom_site_label
_atom_site_type_symbol
_atom_site_fract_x
_atom_site_fract_y
_atom_site_fract_z
Cl1 Cl 0.0981(1) 0.3209(1) 0.1426(1)
O1 O -0.3610(2) 0.0904(1) -0.1189(2)
N1 N -0.1090(2) 0.2419(1) 0.0381(2)
C1 C 0.0653(2) 0.2368(2) 0.0515(2)
C2 C 0.1393(2) 0.2039(2) 0.0235(3)
C3 C 0.1147(3) 0.1381(2) -0.0479(3)
C4 C 0.0162(3) 0.1042(2) -0.0903(3)
C5 C -0.0583(2) 0.1366(2) -0.0603(3)
C6 C -0.0362(2) 0.2053(2) 0.0102(2)
C7 C -0.2173(2) 0.2146(1) -0.0059(2)
C8 C -0.2271(2) 0.1395(1) 0.0581(2)
C9 C -0.3013(2) 0.0803(1) -0.0008(2)
C10 C -0.3139(2) 0.0146(2) 0.0594(3)
C11 C -0.2516(2) 0.0067(2) 0.1778(3)
C12 C -0.1759(2) 0.0638(2) 0.2376(3)
C13 C -0.1643(2) 0.1296(2) 0.1765(2)
C7F C -0.2827(2) 0.2854(1) 0.0059(2)
N1F N -0.3910(2) 0.2581(1) -0.0381(2)
C6F C -0.4638(2) 0.2947(2) -0.0102(2)
C1F C -0.5653(2) 0.2632(2) -0.0515(2)
Cl1F Cl -0.5981(1) 0.1791(1) -0.1426(1)
C2F C -0.6393(2) 0.2961(2) -0.0235(3)
C3F C -0.6147(3) 0.3619(2) 0.0479(3)
C4F C -0.5162(3) 0.3958(2) 0.0903(3)
C5F C -0.4417(2) 0.3634(2) 0.0603(3)
C8F C -0.2729(2) 0.3605(1) -0.0581(2)
C9F C -0.1987(2) 0.4197(1) 0.0008(2)
O1F O -0.1390(2) 0.4096(1) 0.1189(2)
C10F C -0.1861(2) 0.4854(2) -0.0594(3)
C11F C -0.2484(2) 0.4933(2) -0.1778(3)
C12F C -0.3241(2) 0.4362(2) -0.2376(3)
C13F C -0.3357(2) 0.3704(2) -0.1765(2)
S1? S -0.4671(1) -0.1128(1) -0.1980(1)
O2? O -0.5000 -0.0264(2) -0.2500
C14? C -0.4178(3) -0.1613(2) -0.2785(5)
loop_
_geom_bond_atom_site_label_1
_geom_bond_atom_site_label_2
_geom_bond_site_symmetry_1
_geom_bond_site_symmetry_2
Cl1 C1 1_555 1_555
O1 C9 1_555 1_555
N1 C6 1_555 1_555
C1 C2 1_555 1_555
C2 C3 1_555 1_555
C3 C4 1_555 1_555
C4 C5 1_555 1_555
C5 C6 1_555 1_555
C6 C1 1_555 1_555
C7 N1 1_555 1_555
C8 C7 1_555 1_555
C9 C8 1_555 1_555
C10 C9 1_555 1_555
C11 C10 1_555 1_555
C12 C11 1_555 1_555
C13 C8 1_555 1_555
C7F C7 1_555 1_555
N1F C7F 1_555 1_555
C6F N1F 1_555 1_555
C1F C6F 1_555 1_555
Cl1F C1F 1_555 1_555
C2F C1F 1_555 1_555
C3F C2F 1_555 1_555
C4F C3F 1_555 1_555
C5F C6F 1_555 1_555
C8F C7F 1_555 1_555
C9F C8F 1_555 1_555
O1F C9F 1_555 1_555
C10F C9F 1_555 1_555
C11F C10F 1_555 1_555
C12F C11F 1_555 1_555
C13F C8F 1_555 1_555
C12 C13 1_555 1_555
C4F C5F 1_555 1_555
C12F C13F 1_555 1_555

#END
