
#######################################################################
#
#                 Cambridge Crystallographic Data Centre
#                                CCDC 
#
#######################################################################
#
# If this CIF has been generated from an entry in the Cambridge 
# Structural Database, then it will include bibliographic, chemical, 
# crystal, experimental, refinement or atomic coordinate data resulting 
# from the CCDC's data processing and validation procedures.
#
#######################################################################

data_ECEFUP
_chemical_formula_moiety         
'C36 H36 N24 O12,C34 H56 N4 O2 2+,6(H2 O1),2(Br1 1-)'
_chemical_name_systematic        
"(2)-[4,4'-(hexane-1,6-diyldicarbamoyl)bis(1-octylpyridinium)]-(cucurbit[6]uril)-pseudorotaxane dibromide hexahydrate"
_symmetry_cell_setting           triclinic
_symmetry_space_group_name_H-M   'P -1'
_symmetry_Int_Tables_number      2
_space_group_name_Hall           '-P 1'
loop_
_symmetry_equiv_pos_site_id
_symmetry_equiv_pos_as_xyz
1 x,y,z
2 -x,-y,-z
_cell_length_a                   15.2922(18)
_cell_length_b                   22.693(3)
_cell_length_c                   26.547(3)
_cell_angle_alpha                70.259(2)
_cell_angle_beta                 77.455(2)
_cell_angle_gamma                80.448(2)
_cell_volume                     8420.98
_exptl_crystal_colour            colorless
_exptl_crystal_description       block
_cell_formula_units_Z            4
loop_
_atom_site_label
_atom_site_type_symbol
_atom_site_fract_x
_atom_site_fract_y
_atom_site_fract_z
O1 O 1.3128(4) 0.1993(3) 0.2115(3)
O2 O 1.1878(4) 0.0854(3) 0.2130(2)
O3 O 1.0107(4) 0.1306(3) 0.1400(2)
O4 O 0.9536(5) 0.2942(3) 0.0604(3)
O5 O 1.0688(5) 0.4123(4) 0.0550(3)
O6 O 1.2448(5) 0.3640(4) 0.1301(3)
O7 O 1.0432(4) 0.2453(3) 0.4064(3)
O8 O 0.9254(5) 0.1312(3) 0.4084(3)
O9 O 0.7477(5) 0.1732(3) 0.3377(3)
O10 O 0.6807(4) 0.3364(3) 0.2569(3)
O11 O 0.8036(5) 0.4466(3) 0.2559(3)
O12 O 0.9868(5) 0.4013(3) 0.3336(3)
N1 N 1.2811(6) 0.2567(4) 0.2714(4)
N2 N 1.2571(5) 0.1569(4) 0.3019(3)
N3 N 1.1786(5) 0.0715(3) 0.3051(3)
N4 N 1.0649(5) 0.0474(3) 0.2773(3)
N5 N 0.9426(5) 0.0804(3) 0.2269(3)
N6 N 0.8633(6) 0.1539(4) 0.1716(3)
N7 N 0.8246(5) 0.2637(4) 0.1190(3)
N8 N 0.8401(5) 0.3633(4) 0.0861(3)
N9 N 0.9226(7) 0.4450(4) 0.0869(4)
N10 N 1.0354(7) 0.4731(4) 0.1134(4)
N11 N 1.1557(6) 0.4401(4) 0.1646(4)
N12 N 1.2344(6) 0.3627(4) 0.2191(4)
N13 N 1.1755(6) 0.2731(4) 0.3492(4)
N14 N 1.1554(6) 0.1725(4) 0.3817(3)
N15 N 1.0731(6) 0.0951(4) 0.3791(3)
N16 N 0.9617(5) 0.0668(4) 0.3558(3)
N17 N 0.8381(5) 0.0968(4) 0.3049(3)
N18 N 0.7582(5) 0.1714(3) 0.2504(3)
N19 N 0.7169(5) 0.2790(4) 0.1971(3)
N20 N 0.7376(5) 0.3797(4) 0.1656(3)
N21 N 0.8148(6) 0.4660(4) 0.1645(4)
N22 N 0.9299(7) 0.4838(4) 0.1950(4)
N23 N 1.0508(6) 0.4504(4) 0.2447(4)
N24 N 1.1393(7) 0.3821(5) 0.3003(4)
C1 C 1.2853(7) 0.2034(5) 0.2572(4)
C2 C 1.2648(6) 0.0922(4) 0.3016(4)
H1 H 1.3038 0.0887 0.2684
H2 H 1.2926 0.0648 0.3320
C3 C 1.1478(6) 0.0704(4) 0.2610(4)
C4 C 1.0175(6) 0.0354(4) 0.2418(4)
H3 H 0.9960 -0.0058 0.2592
H4 H 1.0594 0.0340 0.2090
C5 C 0.9448(6) 0.1232(4) 0.1754(4)
C6 C 0.8387(7) 0.1969(5) 0.1213(4)
H5 H 0.7839 0.1853 0.1161
H6 H 0.8858 0.1923 0.0914
C7 C 0.8809(8) 0.3065(5) 0.0853(4)
C8 C 0.8789(8) 0.4221(5) 0.0561(5)
H7 H 0.9221 0.4163 0.0251
H8 H 0.8315 0.4538 0.0423
C9 C 1.0144(8) 0.4415(6) 0.0846(5)
C10 C 1.1273(8) 0.4793(6) 0.1150(5)
H9 H 1.1668 0.4685 0.0848
H10 H 1.1328 0.5228 0.1106
C11 C 1.2159(7) 0.3861(5) 0.1674(6)
C12 C 1.3105(7) 0.3165(5) 0.2336(5)
H11 H 1.3478 0.3328 0.2500
H12 H 1.3467 0.3094 0.2009
C13 C 1.1147(8) 0.2307(5) 0.3824(4)
C14 C 1.1126(7) 0.1178(5) 0.4107(4)
H13 H 1.1564 0.0852 0.4277
H14 H 1.0664 0.1264 0.4395
C15 C 0.9811(8) 0.1022(5) 0.3834(4)
C16 C 0.8700(8) 0.0590(5) 0.3544(4)
H15 H 0.8663 0.0151 0.3593
H16 H 0.8303 0.0694 0.3847
C17 C 0.7794(7) 0.1494(5) 0.3020(4)
C18 C 0.6842(6) 0.2211(5) 0.2347(4)
H17 H 0.6454 0.2063 0.2180
H18 H 0.6486 0.2293 0.2670
C19 C 0.7083(6) 0.3316(5) 0.2112(4)
C20 C 0.7297(8) 0.4442(5) 0.1660(5)
H19 H 0.6885 0.4478 0.1984
H20 H 0.7037 0.4715 0.1348
C21 C 0.8429(8) 0.4637(4) 0.2105(6)
C22 C 0.9742(8) 0.4952(5) 0.2316(5)
H21 H 0.9318 0.4941 0.2649
H22 H 0.9939 0.5371 0.2160
C23 C 1.0514(9) 0.4099(5) 0.2973(5)
C24 C 1.1655(8) 0.3388(6) 0.3486(5)
H23 H 1.1208 0.3435 0.3795
H24 H 1.2223 0.3490 0.3526
C25 C 1.2633(7) 0.2442(6) 0.3297(4)
H25 H 1.313(7) 0.253(5) 0.344(4)
C26 C 1.2462(7) 0.1747(5) 0.3503(4)
H26 H 1.290(6) 0.149(4) 0.373(4)
C27 C 1.1152(7) 0.0477(4) 0.3548(4)
H27 H 1.143(6) 0.011(4) 0.381(3)
C28 C 1.0400(7) 0.0304(4) 0.3363(3)
H28 H 1.034(6) -0.015(4) 0.352(3)
C29 C 0.8529(7) 0.0791(4) 0.2571(4)
H29 H 0.833(6) 0.037(4) 0.266(4)
C30 C 0.7934(7) 0.1289(5) 0.2197(4)
H30 H 0.746(6) 0.111(4) 0.211(4)
C31 C 0.7363(7) 0.2925(5) 0.1392(4)
H31 H 0.687(6) 0.285(4) 0.125(4)
C32 C 0.7541(8) 0.3619(5) 0.1188(5)
H32 H 0.710(7) 0.386(5) 0.096(4)
C33 C 0.8819(8) 0.4900(4) 0.1150(5)
H33 H 0.856(7) 0.528(5) 0.090(4)
C34 C 0.9527(9) 0.5054(5) 0.1361(5)
H34 H 0.956(7) 0.551(5) 0.123(4)
C35 C 1.1402(9) 0.4571(5) 0.2119(6)
H35 H 1.158(7) 0.499(5) 0.204(4)
C36 C 1.1992(8) 0.4072(6) 0.2497(5)
H36 H 1.248(7) 0.426(5) 0.255(4)
O13 O 1.2787(6) 0.2542(4) 0.0359(3)
O14 O 0.7501(5) 0.2659(4) 0.4334(3)
N25 N 1.2211(5) 0.2063(3) 0.1202(3)
H37 H 1.2276 0.1728 0.1472
N26 N 0.7837(5) 0.3200(4) 0.3467(3)
H38 H 0.7671 0.3518 0.3208
N27 N 1.5209(4) 0.0859(3) 0.0819(3)
N28 N 0.4803(4) 0.4147(3) 0.4135(3)
C37 C 0.6410(6) 0.3460(4) 0.3979(3)
C38 C 0.6132(6) 0.3975(4) 0.3555(3)
H39 H 0.6495 0.4085 0.3214
C39 C 0.5332(6) 0.4307(4) 0.3648(3)
H40 H 0.5147 0.4653 0.3371
C40 C 0.5058(6) 0.3646(4) 0.4549(3)
H41 H 0.4687 0.3544 0.4888
C41 C 0.5834(6) 0.3304(4) 0.4471(3)
H42 H 0.5994 0.2954 0.4753
C42 C 0.7298(6) 0.3066(4) 0.3949(4)
C43 C 0.8701(6) 0.2832(5) 0.3354(4)
H43 H 0.8635 0.2387 0.3522
H44 H 0.9152 0.2937 0.3508
C44 C 0.9002(7) 0.2972(5) 0.2749(4)
H45 H 0.8553 0.2856 0.2602
H46 H 0.9036 0.3422 0.2583
C45 C 0.9888(6) 0.2638(5) 0.2595(4)
H47 H 0.9858 0.2189 0.2768
H48 H 1.0340 0.2762 0.2735
C46 C 1.0185(7) 0.2761(5) 0.1997(4)
H49 H 0.9711 0.2670 0.1852
H50 H 1.0262 0.3205 0.1828
C47 C 1.1021(7) 0.2396(5) 0.1845(4)
H51 H 1.1483 0.2481 0.2002
H52 H 1.0933 0.1954 0.2017
C48 C 1.1377(6) 0.2487(4) 0.1270(4)
H53 H 1.1505 0.2921 0.1091
H54 H 1.0929 0.2404 0.1101
C49 C 1.2851(6) 0.2134(4) 0.0788(4)
C50 C 1.3660(6) 0.1666(4) 0.0832(3)
C51 C 1.4233(6) 0.1685(4) 0.0361(4)
H55 H 1.4095 0.1973 0.0037
C52 C 1.5013(7) 0.1290(5) 0.0352(4)
H56 H 1.5407 0.1318 0.0026
C53 C 1.4652(6) 0.0818(4) 0.1279(4)
H57 H 1.4785 0.0509 0.1595
C54 C 1.3872(6) 0.1222(4) 0.1304(3)
H58 H 1.3496 0.1195 0.1636
C55 C 0.3931(5) 0.4555(4) 0.4217(3)
H59 H 0.3775 0.4533 0.4596
H60 H 0.4022 0.4988 0.4004
C56 C 0.3201(9) 0.4379(6) 0.4066(9)
H61 H 0.3140 0.3934 0.4245
H62 H 0.3305 0.4458 0.3676
C57 C 0.2311(7) 0.4786(6) 0.4246(9)
H63 H 0.2069 0.4590 0.4625
H64 H 0.2452 0.5204 0.4203
C58 C 0.1679(10) 0.4830(5) 0.3927(6)
H65 H 0.1481 0.4417 0.4015
H66 H 0.1967 0.4954 0.3549
C59 C 0.0875(8) 0.5284(6) 0.3995(5)
H67 H 0.1069 0.5698 0.3910
H68 H 0.0579 0.5159 0.4372
C60 C 0.0216(15) 0.5322(8) 0.3642(8)
H69 H 0.0538 0.5367 0.3276
H70 H -0.0058 0.4929 0.3773
C61 C -0.0499(13) 0.5842(9) 0.3623(8)
H71 H -0.0825 0.5775 0.3992
H72 H -0.0914 0.5796 0.3412
C62 C -0.0304(9) 0.6520(6) 0.3406(6)
H73 H 0.0314 0.6544 0.3415
H74 H -0.0690 0.6751 0.3626
H75 H -0.0409 0.6696 0.3038
C63 C 1.6042(6) 0.0419(5) 0.0819(4)
H76 H 1.5967 0.0067 0.1151
H77 H 1.6104 0.0254 0.0518
C64 C 1.6836(10) 0.0662(8) 0.0778(14)
H78 H 1.6825 0.0747 0.1113
H79 H 1.6852 0.1062 0.0488
C65 C 1.7698(9) 0.0250(6) 0.0667(9)
H80 H 1.7564 -0.0175 0.0734
H81 H 1.7984 0.0413 0.0290
C66 C 1.8297(11) 0.0251(5) 0.1026(5)
H82 H 1.8474 0.0672 0.0930
H83 H 1.7975 0.0141 0.1398
C67 C 1.9097(9) -0.0187(6) 0.0993(6)
H84 H 1.9442 -0.0057 0.0628
H85 H 1.8918 -0.0602 0.1061
C68 C 1.9697(16) -0.0229(8) 0.1398(8)
H86 H 1.9990 0.0156 0.1273
H87 H 1.9313 -0.0243 0.1744
C69 C 2.0355(10) -0.0734(8) 0.1487(9)
H88 H 2.0679 -0.0688 0.1746
H89 H 2.0777 -0.0676 0.1148
C70 C 2.0153(9) -0.1419(7) 0.1685(6)
H90 H 2.0013 -0.1561 0.2075
H91 H 2.0669 -0.1674 0.1566
H92 H 1.9648 -0.1453 0.1539
O15 O 0.4333(4) 0.2707(3) 0.5765(2)
O16 O 0.2672(4) 0.3623(3) 0.6584(2)
O17 O 0.3435(4) 0.4493(2) 0.7200(2)
O18 O 0.5787(4) 0.4423(3) 0.7016(2)
O19 O 0.7431(4) 0.3537(3) 0.6220(2)
O20 O 0.6629(4) 0.2662(3) 0.5660(2)
O21 O 0.4378(4) 0.0427(3) 0.7847(2)
O22 O 0.2707(4) 0.1309(3) 0.8646(2)
O23 O 0.3545(4) 0.2170(3) 0.9185(2)
O24 O 0.5822(4) 0.2140(3) 0.9108(2)
O25 O 0.7509(4) 0.1209(3) 0.8282(2)
O26 O 0.6738(4) 0.0349(2) 0.7672(2)
N29 N 0.4803(5) 0.1646(3) 0.6072(3)
N30 N 0.3446(5) 0.1997(3) 0.6446(3)
N31 N 0.2410(5) 0.2579(3) 0.6955(3)
N32 N 0.2043(4) 0.3205(3) 0.7477(3)
N33 N 0.2517(5) 0.3859(3) 0.7908(3)
N34 N 0.3688(5) 0.4160(3) 0.8074(3)
N35 N 0.5310(5) 0.4068(3) 0.7960(3)
N36 N 0.6712(5) 0.3758(3) 0.7614(3)
N37 N 0.7749(4) 0.3169(3) 0.7084(3)
N38 N 0.8180(5) 0.2557(3) 0.6569(3)
N39 N 0.7563(5) 0.1928(3) 0.6175(3)
N40 N 0.6413(5) 0.1611(3) 0.5999(3)
N41 N 0.4840(5) 0.0783(3) 0.6924(3)
N42 N 0.3469(5) 0.1081(3) 0.7257(3)
N43 N 0.2391(5) 0.1666(3) 0.7784(3)
N44 N 0.1996(5) 0.2287(3) 0.8298(3)
N45 N 0.2584(5) 0.2918(3) 0.8691(3)
N46 N 0.3746(5) 0.3223(3) 0.8873(3)
N47 N 0.5373(5) 0.3195(3) 0.8797(3)
N48 N 0.6689(5) 0.2834(3) 0.8425(3)
N49 N 0.7754(5) 0.2255(3) 0.7902(3)
N50 N 0.8133(4) 0.1628(3) 0.7383(3)
N51 N 0.7672(5) 0.0962(3) 0.6950(3)
N52 N 0.6461(5) 0.0680(3) 0.6802(3)
C71 C 0.4206(6) 0.2169(4) 0.6067(3)
C72 C 0.2637(6) 0.2411(4) 0.6470(3)
H93 H 0.2705 0.2791 0.6162
H94 H 0.2146 0.2211 0.6441
C73 C 0.2401(5) 0.3183(4) 0.6971(4)
C74 C 0.1871(6) 0.3792(4) 0.7607(3)
H95 H 0.1886 0.4141 0.7272
H96 H 0.1271 0.3815 0.7819
C75 C 0.3243(5) 0.4202(4) 0.7680(4)
C76 C 0.4495(6) 0.4469(4) 0.7984(4)
H97 H 0.4517 0.4814 0.7646
H98 H 0.4452 0.4647 0.8274
C77 C 0.5919(6) 0.4115(4) 0.7469(4)
C78 C 0.7494(6) 0.3759(3) 0.7208(4)
H99 H 0.7994 0.3856 0.7327
H100 H 0.7390 0.4092 0.6877
C79 C 0.7739(6) 0.3136(4) 0.6583(3)
C80 C 0.8242(6) 0.2337(4) 0.6122(3)
H101 H 0.8832 0.2109 0.6067
H102 H 0.8201 0.2698 0.5800
C81 C 0.6851(6) 0.2118(4) 0.5931(3)
C82 C 0.5664(6) 0.1658(4) 0.5734(4)
H103 H 0.5668 0.2046 0.5432
H104 H 0.5753 0.1313 0.5584
C83 C 0.4232(6) 0.0737(3) 0.7385(4)
C84 C 0.2634(5) 0.1090(4) 0.7647(4)
H105 H 0.2148 0.1020 0.7499
H106 H 0.2694 0.0744 0.7977
C85 C 0.2411(6) 0.1711(4) 0.8268(4)
C86 C 0.1934(6) 0.2500(4) 0.8753(3)
H107 H 0.2003 0.2137 0.9070
H108 H 0.1337 0.2713 0.8821
C87 C 0.3331(6) 0.2728(4) 0.8940(3)
C88 C 0.4495(7) 0.3195(5) 0.9138(3)
H109 H 0.4404 0.3553 0.9273
H110 H 0.4489 0.2817 0.9450
C89 C 0.5950(7) 0.2661(4) 0.8813(3)
C90 C 0.7510(6) 0.2413(4) 0.8399(4)
H111 H 0.7999 0.2609 0.8437
H112 H 0.7437 0.2029 0.8702
C91 C 0.7769(5) 0.1646(4) 0.7900(4)
C92 C 0.8294(6) 0.1047(4) 0.7246(4)
H113 H 0.8894 0.1027 0.7034
H114 H 0.8286 0.0697 0.7581
C93 C 0.6942(6) 0.0644(4) 0.7188(4)
C94 C 0.5674(5) 0.0371(4) 0.6920(3)
H115 H 0.5656 0.0050 0.7272
H116 H 0.5712 0.0160 0.6652
C95 C 0.4418(6) 0.1073(4) 0.6455(4)
H117 H 0.439(5) 0.077(4) 0.627(3)
C96 C 0.3470(6) 0.1319(4) 0.6684(3)
H118 H 0.300(5) 0.115(4) 0.658(3)
C97 C 0.1874(6) 0.2204(4) 0.7461(4)
H119 H 0.134(6) 0.208(4) 0.739(3)
C98 C 0.1621(6) 0.2640(4) 0.7813(4)
H120 H 0.097(6) 0.273(4) 0.790(3)
C99 C 0.2463(6) 0.3598(4) 0.8501(3)
H121 H 0.190(6) 0.376(4) 0.869(3)
C100 C 0.3262(6) 0.3799(4) 0.8619(3)
H122 H 0.308(5) 0.406(4) 0.886(3)
C101 C 0.5740(6) 0.3746(4) 0.8427(4)
H123 H 0.577(6) 0.404(4) 0.862(3)
C102 C 0.6700(7) 0.3511(4) 0.8196(3)
H124 H 0.717(6) 0.367(4) 0.831(3)
C103 C 0.8272(6) 0.2634(4) 0.7406(4)
H125 H 0.880(6) 0.276(4) 0.748(3)
C104 C 0.8554(6) 0.2203(4) 0.7054(3)
H126 H 0.921(6) 0.212(4) 0.697(3)
C105 C 0.7727(6) 0.1246(4) 0.6372(3)
H127 H 0.829(5) 0.110(4) 0.618(3)
C106 C 0.6911(6) 0.1026(4) 0.6256(4)
H128 H 0.710(6) 0.076(4) 0.602(3)
O27 O 0.5404(5) 0.0617(3) 0.9523(2)
O28 O 0.4525(4) 0.4360(3) 0.5333(2)
N53 N 0.5720(4) 0.0692(3) 0.8636(3)
H129 H 0.6001 0.0513 0.8399
N54 N 0.4406(4) 0.4249(3) 0.6225(3)
H130 H 0.4180 0.4416 0.6477
N55 N 0.7911(4) -0.1032(3) 0.9584(2)
N56 N 0.2038(4) 0.5976(3) 0.5491(3)
C107 C 0.6596(5) -0.0078(3) 0.9265(3)
C108 C 0.6534(6) -0.0459(4) 0.9804(3)
H131 H 0.6046 -0.0389 1.0062
C109 C 0.7186(6) -0.0932(4) 0.9949(3)
H132 H 0.7133 -0.1193 1.0308
C110 C 0.7956(6) -0.0691(4) 0.9069(3)
H133 H 0.8438 -0.0785 0.8817
C111 C 0.7332(6) -0.0210(3) 0.8892(3)
H134 H 0.7392 0.0029 0.8527
C112 C 0.5852(6) 0.0453(4) 0.9136(4)
C113 C 0.5089(6) 0.1271(4) 0.8463(3)
H135 H 0.5019 0.1513 0.8712
H136 H 0.4503 0.1156 0.8470
C114 C 0.5466(6) 0.1662(4) 0.7896(3)
H137 H 0.6052 0.1773 0.7896
H138 H 0.5552 0.1409 0.7655
C115 C 0.4875(6) 0.2254(4) 0.7678(4)
H139 H 0.4769 0.2502 0.7924
H140 H 0.4297 0.2145 0.7660
C116 C 0.5298(6) 0.2650(4) 0.7112(4)
H141 H 0.5884 0.2748 0.7126
H142 H 0.5384 0.2408 0.6862
C117 C 0.4712(5) 0.3255(4) 0.6904(4)
H143 H 0.4120 0.3149 0.6910
H144 H 0.4642 0.3493 0.7155
C118 C 0.5040(6) 0.3675(4) 0.6343(3)
H145 H 0.5637 0.3784 0.6322
H146 H 0.5074 0.3459 0.6079
C119 C 0.4179(5) 0.4508(4) 0.5744(3)
C120 C 0.3423(6) 0.5039(4) 0.5675(3)
C121 C 0.2707(6) 0.5080(4) 0.6088(3)
H147 H 0.2691 0.4788 0.6433
C122 C 0.2026(5) 0.5551(4) 0.5983(3)
H148 H 0.1545 0.5577 0.6259
C123 C 0.2735(6) 0.5964(4) 0.5087(4)
H149 H 0.2737 0.6269 0.4749
C124 C 0.3447(6) 0.5506(4) 0.5169(3)
H150 H 0.3939 0.5507 0.4892
C125 C 0.8635(7) -0.1540(5) 0.9775(4)
H151 H 0.8366 -0.1892 1.0057
H152 H 0.8953 -0.1688 0.9475
C126 C 0.9284(9) -0.1307(6) 0.9989(5)
H153 H 0.8978 -0.1181 1.0303
H154 H 0.9539 -0.0944 0.9714
C127 C 1.0034(8) -0.1838(6) 1.0151(4)
H155 H 0.9794 -0.2152 1.0483
H156 H 1.0213 -0.2038 0.9869
C128 C 1.0864(14) -0.1623(10) 1.0239(8)
H157 H 1.1085 -0.1305 0.9905
H158 H 1.0666 -0.1415 1.0515
C129 C 1.1634(13) -0.2074(12) 1.0397(8)
H159 H 1.1477 -0.2275 1.0785
H160 H 1.2123 -0.1826 1.0345
C130 C 1.2024(14) -0.2585(10) 1.0165(9)
H161 H 1.1563 -0.2868 1.0249
H162 H 1.2141 -0.2399 0.9772
C131 C 1.2800(12) -0.2950(14) 1.0314(9)
H163 H 1.2715 -0.3084 1.0708
H164 H 1.3281 -0.2677 1.0181
C132 C 1.312(2) -0.350(2) 1.0148(14)
H165 H 1.2709 -0.3816 1.0333
H166 H 1.3704 -0.3659 1.0238
H167 H 1.3147 -0.3391 0.9763
C133 C 0.1264(5) 0.6448(4) 0.5366(3)
H168 H 0.1477 0.6849 0.5136
H169 H 0.0910 0.6505 0.5700
C134 C 0.0673(7) 0.6233(5) 0.5074(5)
H170 H 0.0441 0.5837 0.5300
H171 H 0.1011 0.6182 0.4734
C135 C -0.0094(8) 0.6767(8) 0.4972(7)
H172 H -0.0250 0.6924 0.5281
H173 H 0.0120 0.7110 0.4656
C136 C -0.0923(11) 0.6575(9) 0.4883(11)
H174 H -0.1249 0.6326 0.5225
H175 H -0.0765 0.6326 0.4637
C137 C -0.1502(11) 0.7186(9) 0.4637(7)
H176 H -0.1116 0.7481 0.4363
H177 H -0.1927 0.7093 0.4457
C138 C -0.2020(11) 0.7496(8) 0.5055(7)
H178 H -0.1632 0.7756 0.5113
H179 H -0.2183 0.7171 0.5397
C139 C -0.2870(11) 0.7901(10) 0.4882(8)
H180 H -0.3365 0.7641 0.4992
H181 H -0.2777 0.8082 0.4489
C140 C -0.311(2) 0.8426(18) 0.5141(18)
H182 H -0.3480 0.8278 0.5490
H183 H -0.3424 0.8780 0.4912
H184 H -0.2563 0.8549 0.5184
Br1 Br 0.3933 0.4738 0.1612
Br2 Br 0.0821 0.1207 0.6725
Br3 Br 0.9343 0.3507 0.8203
Br4 Br 0.6231 0.0442 0.3122
O29 O 0.3597 0.0181 0.4324
H185 H 0.4240 0.0181 0.4324
H186 H 0.3349 0.0608 0.4136
O30 O 0.8967 0.1959 0.4941
H187 H 0.9610 0.1959 0.4941
H188 H 0.8895 0.1669 0.4753
O31 O 0.2161 0.3740 0.9868
H189 H 0.2804 0.3740 0.9868
H190 H 0.1913 0.4167 0.9680
O32 O 0.0202 0.1004 0.5629
H191 H 0.0845 0.1004 0.5629
H192 H -0.0046 0.1431 0.5441
O33 O 0.5238 0.1139 0.2404
H193 H 0.5881 0.1139 0.2404
H194 H 0.4990 0.1566 0.2216
O34 O 0.4451 0.4161 0.2596
H195 H 0.5094 0.4161 0.2596
H196 H 0.4203 0.4588 0.2408
O35 O 0.5198 0.3628 0.1561
H197 H 0.5841 0.3628 0.1561
H198 H 0.4950 0.4055 0.1373
O36 O 0.9631 0.6546 0.0514
H199 H 1.0274 0.6546 0.0514
H200 H 0.9383 0.6973 0.0326
O37 O 0.4700 0.1496 0.3224
H201 H 0.5343 0.1496 0.3224
H202 H 0.4452 0.1923 0.3036
O38 O 0.7411 0.1385 0.4645
H203 H 0.8054 0.1385 0.4645
H204 H 0.7163 0.1812 0.4457
O39 O 0.5907 0.5198 0.0651
H205 H 0.6550 0.5198 0.0651
H206 H 0.5659 0.5625 0.0463
O40 O 0.4096 0.7998 0.8779
H207 H 0.4739 0.7998 0.8779
H208 H 0.3848 0.8425 0.8591
loop_
_geom_bond_atom_site_label_1
_geom_bond_atom_site_label_2
_geom_bond_site_symmetry_1
_geom_bond_site_symmetry_2
O1 C1 1_555 1_555
O2 C3 1_555 1_555
O3 C5 1_555 1_555
O4 C7 1_555 1_555
O5 C9 1_555 1_555
O6 C11 1_555 1_555
O7 C13 1_555 1_555
O8 C15 1_555 1_555
O9 C17 1_555 1_555
O10 C19 1_555 1_555
O11 C21 1_555 1_555
O12 C23 1_555 1_555
N1 C1 1_555 1_555
N2 C1 1_555 1_555
N3 C2 1_555 1_555
N4 C3 1_555 1_555
N5 C4 1_555 1_555
N6 C5 1_555 1_555
N7 C6 1_555 1_555
N8 C7 1_555 1_555
N9 C8 1_555 1_555
N10 C9 1_555 1_555
N11 C10 1_555 1_555
N12 C11 1_555 1_555
N13 C13 1_555 1_555
N14 C13 1_555 1_555
N15 C14 1_555 1_555
N16 C15 1_555 1_555
N17 C16 1_555 1_555
N18 C17 1_555 1_555
N19 C18 1_555 1_555
N20 C19 1_555 1_555
N21 C20 1_555 1_555
N22 C21 1_555 1_555
N23 C22 1_555 1_555
N24 C23 1_555 1_555
C2 N2 1_555 1_555
H1 C2 1_555 1_555
H2 C2 1_555 1_555
C3 N3 1_555 1_555
C4 N4 1_555 1_555
H3 C4 1_555 1_555
H4 C4 1_555 1_555
C5 N5 1_555 1_555
C6 N6 1_555 1_555
H5 C6 1_555 1_555
H6 C6 1_555 1_555
C7 N7 1_555 1_555
C8 N8 1_555 1_555
H7 C8 1_555 1_555
H8 C8 1_555 1_555
C9 N9 1_555 1_555
C10 N10 1_555 1_555
H9 C10 1_555 1_555
H10 C10 1_555 1_555
C11 N11 1_555 1_555
C12 N1 1_555 1_555
H11 C12 1_555 1_555
H12 C12 1_555 1_555
C14 N14 1_555 1_555
H13 C14 1_555 1_555
H14 C14 1_555 1_555
C15 N15 1_555 1_555
C16 N16 1_555 1_555
H15 C16 1_555 1_555
H16 C16 1_555 1_555
C17 N17 1_555 1_555
C18 N18 1_555 1_555
H17 C18 1_555 1_555
H18 C18 1_555 1_555
C19 N19 1_555 1_555
C20 N20 1_555 1_555
H19 C20 1_555 1_555
H20 C20 1_555 1_555
C21 N21 1_555 1_555
C22 N22 1_555 1_555
H21 C22 1_555 1_555
H22 C22 1_555 1_555
C23 N23 1_555 1_555
C24 N13 1_555 1_555
H23 C24 1_555 1_555
H24 C24 1_555 1_555
C25 N1 1_555 1_555
H25 C25 1_555 1_555
C26 N2 1_555 1_555
H26 C26 1_555 1_555
C27 N3 1_555 1_555
H27 C27 1_555 1_555
C28 N4 1_555 1_555
H28 C28 1_555 1_555
C29 N5 1_555 1_555
H29 C29 1_555 1_555
C30 N6 1_555 1_555
H30 C30 1_555 1_555
C31 N7 1_555 1_555
H31 C31 1_555 1_555
C32 N8 1_555 1_555
H32 C32 1_555 1_555
C33 N9 1_555 1_555
H33 C33 1_555 1_555
C34 N10 1_555 1_555
H34 C34 1_555 1_555
C35 N11 1_555 1_555
H35 C35 1_555 1_555
C36 N12 1_555 1_555
H36 C36 1_555 1_555
O13 C49 1_555 1_555
O14 C42 1_555 1_555
N25 H37 1_555 1_555
N26 H38 1_555 1_555
N27 C52 1_555 1_555
N28 C39 1_555 1_555
C37 C38 1_555 1_555
C38 H39 1_555 1_555
C39 C38 1_555 1_555
H40 C39 1_555 1_555
C40 N28 1_555 1_555
H41 C40 1_555 1_555
C41 C37 1_555 1_555
H42 C41 1_555 1_555
C42 N26 1_555 1_555
C43 N26 1_555 1_555
H43 C43 1_555 1_555
H44 C43 1_555 1_555
C44 C43 1_555 1_555
H45 C44 1_555 1_555
H46 C44 1_555 1_555
C45 C44 1_555 1_555
H47 C45 1_555 1_555
H48 C45 1_555 1_555
C46 C45 1_555 1_555
H49 C46 1_555 1_555
H50 C46 1_555 1_555
C47 C46 1_555 1_555
H51 C47 1_555 1_555
H52 C47 1_555 1_555
C48 N25 1_555 1_555
H53 C48 1_555 1_555
H54 C48 1_555 1_555
C49 N25 1_555 1_555
C50 C49 1_555 1_555
C51 C50 1_555 1_555
H55 C51 1_555 1_555
C52 C51 1_555 1_555
H56 C52 1_555 1_555
C53 N27 1_555 1_555
H57 C53 1_555 1_555
C54 C50 1_555 1_555
H58 C54 1_555 1_555
C55 N28 1_555 1_555
H59 C55 1_555 1_555
H60 C55 1_555 1_555
C56 C55 1_555 1_555
H61 C56 1_555 1_555
H62 C56 1_555 1_555
C57 C56 1_555 1_555
H63 C57 1_555 1_555
H64 C57 1_555 1_555
C58 C57 1_555 1_555
H65 C58 1_555 1_555
H66 C58 1_555 1_555
C59 C58 1_555 1_555
H67 C59 1_555 1_555
H68 C59 1_555 1_555
C60 C59 1_555 1_555
H69 C60 1_555 1_555
H70 C60 1_555 1_555
C61 C60 1_555 1_555
H71 C61 1_555 1_555
H72 C61 1_555 1_555
C62 C61 1_555 1_555
H73 C62 1_555 1_555
H74 C62 1_555 1_555
H75 C62 1_555 1_555
C63 N27 1_555 1_555
H76 C63 1_555 1_555
H77 C63 1_555 1_555
C64 C63 1_555 1_555
H78 C64 1_555 1_555
H79 C64 1_555 1_555
C65 C64 1_555 1_555
H80 C65 1_555 1_555
H81 C65 1_555 1_555
C66 C65 1_555 1_555
H82 C66 1_555 1_555
H83 C66 1_555 1_555
C67 C66 1_555 1_555
H84 C67 1_555 1_555
H85 C67 1_555 1_555
C68 C67 1_555 1_555
H86 C68 1_555 1_555
H87 C68 1_555 1_555
C69 C68 1_555 1_555
H88 C69 1_555 1_555
H89 C69 1_555 1_555
C70 C69 1_555 1_555
H90 C70 1_555 1_555
H91 C70 1_555 1_555
H92 C70 1_555 1_555
O15 C71 1_555 1_555
O16 C73 1_555 1_555
O17 C75 1_555 1_555
O18 C77 1_555 1_555
O19 C79 1_555 1_555
O20 C81 1_555 1_555
O21 C83 1_555 1_555
O22 C85 1_555 1_555
O23 C87 1_555 1_555
O24 C89 1_555 1_555
O25 C91 1_555 1_555
O26 C93 1_555 1_555
N29 C71 1_555 1_555
N30 C71 1_555 1_555
N31 C72 1_555 1_555
N32 C73 1_555 1_555
N33 C74 1_555 1_555
N34 C75 1_555 1_555
N35 C76 1_555 1_555
N36 C77 1_555 1_555
N37 C78 1_555 1_555
N38 C79 1_555 1_555
N39 C80 1_555 1_555
N40 C81 1_555 1_555
N41 C83 1_555 1_555
N42 C83 1_555 1_555
N43 C84 1_555 1_555
N44 C85 1_555 1_555
N45 C86 1_555 1_555
N46 C87 1_555 1_555
N47 C88 1_555 1_555
N48 C89 1_555 1_555
N49 C90 1_555 1_555
N50 C91 1_555 1_555
N51 C92 1_555 1_555
N52 C93 1_555 1_555
C72 N30 1_555 1_555
H93 C72 1_555 1_555
H94 C72 1_555 1_555
C73 N31 1_555 1_555
C74 N32 1_555 1_555
H95 C74 1_555 1_555
H96 C74 1_555 1_555
C75 N33 1_555 1_555
C76 N34 1_555 1_555
H97 C76 1_555 1_555
H98 C76 1_555 1_555
C77 N35 1_555 1_555
C78 N36 1_555 1_555
H99 C78 1_555 1_555
H100 C78 1_555 1_555
C79 N37 1_555 1_555
C80 N38 1_555 1_555
H101 C80 1_555 1_555
H102 C80 1_555 1_555
C81 N39 1_555 1_555
C82 N29 1_555 1_555
H103 C82 1_555 1_555
H104 C82 1_555 1_555
C84 N42 1_555 1_555
H105 C84 1_555 1_555
H106 C84 1_555 1_555
C85 N43 1_555 1_555
C86 N44 1_555 1_555
H107 C86 1_555 1_555
H108 C86 1_555 1_555
C87 N45 1_555 1_555
C88 N46 1_555 1_555
H109 C88 1_555 1_555
H110 C88 1_555 1_555
C89 N47 1_555 1_555
C90 N48 1_555 1_555
H111 C90 1_555 1_555
H112 C90 1_555 1_555
C91 N49 1_555 1_555
C92 N50 1_555 1_555
H113 C92 1_555 1_555
H114 C92 1_555 1_555
C93 N51 1_555 1_555
C94 N41 1_555 1_555
H115 C94 1_555 1_555
H116 C94 1_555 1_555
C95 N29 1_555 1_555
H117 C95 1_555 1_555
C96 N30 1_555 1_555
H118 C96 1_555 1_555
C97 N31 1_555 1_555
H119 C97 1_555 1_555
C98 N32 1_555 1_555
H120 C98 1_555 1_555
C99 N33 1_555 1_555
H121 C99 1_555 1_555
C100 N34 1_555 1_555
H122 C100 1_555 1_555
C101 N35 1_555 1_555
H123 C101 1_555 1_555
C102 N36 1_555 1_555
H124 C102 1_555 1_555
C103 N37 1_555 1_555
H125 C103 1_555 1_555
C104 N38 1_555 1_555
H126 C104 1_555 1_555
C105 N39 1_555 1_555
H127 C105 1_555 1_555
C106 N40 1_555 1_555
H128 C106 1_555 1_555
O27 C112 1_555 1_555
O28 C119 1_555 1_555
N53 H129 1_555 1_555
N54 H130 1_555 1_555
N55 C109 1_555 1_555
N56 C122 1_555 1_555
C107 C108 1_555 1_555
C108 H131 1_555 1_555
C109 C108 1_555 1_555
H132 C109 1_555 1_555
C110 N55 1_555 1_555
H133 C110 1_555 1_555
C111 C107 1_555 1_555
H134 C111 1_555 1_555
C112 N53 1_555 1_555
C113 N53 1_555 1_555
H135 C113 1_555 1_555
H136 C113 1_555 1_555
C114 C113 1_555 1_555
H137 C114 1_555 1_555
H138 C114 1_555 1_555
C115 C114 1_555 1_555
H139 C115 1_555 1_555
H140 C115 1_555 1_555
C116 C115 1_555 1_555
H141 C116 1_555 1_555
H142 C116 1_555 1_555
C117 C116 1_555 1_555
H143 C117 1_555 1_555
H144 C117 1_555 1_555
C118 N54 1_555 1_555
H145 C118 1_555 1_555
H146 C118 1_555 1_555
C119 N54 1_555 1_555
C120 C119 1_555 1_555
C121 C120 1_555 1_555
H147 C121 1_555 1_555
C122 C121 1_555 1_555
H148 C122 1_555 1_555
C123 N56 1_555 1_555
H149 C123 1_555 1_555
C124 C120 1_555 1_555
H150 C124 1_555 1_555
C125 N55 1_555 1_555
H151 C125 1_555 1_555
H152 C125 1_555 1_555
C126 C125 1_555 1_555
H153 C126 1_555 1_555
H154 C126 1_555 1_555
C127 C126 1_555 1_555
H155 C127 1_555 1_555
H156 C127 1_555 1_555
C128 C127 1_555 1_555
H157 C128 1_555 1_555
H158 C128 1_555 1_555
C129 C128 1_555 1_555
H159 C129 1_555 1_555
H160 C129 1_555 1_555
C130 C129 1_555 1_555
H161 C130 1_555 1_555
H162 C130 1_555 1_555
C131 C130 1_555 1_555
H163 C131 1_555 1_555
H164 C131 1_555 1_555
C132 C131 1_555 1_555
H165 C132 1_555 1_555
H166 C132 1_555 1_555
H167 C132 1_555 1_555
C133 N56 1_555 1_555
H168 C133 1_555 1_555
H169 C133 1_555 1_555
C134 C133 1_555 1_555
H170 C134 1_555 1_555
H171 C134 1_555 1_555
C135 C134 1_555 1_555
H172 C135 1_555 1_555
H173 C135 1_555 1_555
C136 C135 1_555 1_555
H174 C136 1_555 1_555
H175 C136 1_555 1_555
C137 C136 1_555 1_555
H176 C137 1_555 1_555
H177 C137 1_555 1_555
C138 C137 1_555 1_555
H178 C138 1_555 1_555
H179 C138 1_555 1_555
C139 C138 1_555 1_555
H180 C139 1_555 1_555
H181 C139 1_555 1_555
C140 C139 1_555 1_555
H182 C140 1_555 1_555
H183 C140 1_555 1_555
H184 C140 1_555 1_555
O29 H185 1_555 1_555
H186 O29 1_555 1_555
O30 H187 1_555 1_555
H188 O30 1_555 1_555
O31 H189 1_555 1_555
H190 O31 1_555 1_555
O32 H191 1_555 1_555
H192 O32 1_555 1_555
O33 H193 1_555 1_555
H194 O33 1_555 1_555
O34 H195 1_555 1_555
H196 O34 1_555 1_555
O35 H197 1_555 1_555
H198 O35 1_555 1_555
O36 H199 1_555 1_555
H200 O36 1_555 1_555
O37 H201 1_555 1_555
H202 O37 1_555 1_555
O38 H203 1_555 1_555
H204 O38 1_555 1_555
O39 H205 1_555 1_555
H206 O39 1_555 1_555
O40 H207 1_555 1_555
H208 O40 1_555 1_555
N12 C12 1_555 1_555
N13 C25 1_555 1_555
N14 C26 1_555 1_555
N15 C27 1_555 1_555
N16 C28 1_555 1_555
N17 C29 1_555 1_555
N18 C30 1_555 1_555
N19 C31 1_555 1_555
N20 C32 1_555 1_555
N21 C33 1_555 1_555
N22 C34 1_555 1_555
N23 C35 1_555 1_555
N24 C24 1_555 1_555
N24 C36 1_555 1_555
C25 C26 1_555 1_555
C27 C28 1_555 1_555
C29 C30 1_555 1_555
C31 C32 1_555 1_555
C33 C34 1_555 1_555
C35 C36 1_555 1_555
C37 C42 1_555 1_555
C40 C41 1_555 1_555
C47 C48 1_555 1_555
C53 C54 1_555 1_555
N40 C82 1_555 1_555
N41 C95 1_555 1_555
N42 C96 1_555 1_555
N43 C97 1_555 1_555
N44 C98 1_555 1_555
N45 C99 1_555 1_555
N46 C100 1_555 1_555
N47 C101 1_555 1_555
N48 C102 1_555 1_555
N49 C103 1_555 1_555
N50 C104 1_555 1_555
N51 C105 1_555 1_555
N52 C94 1_555 1_555
N52 C106 1_555 1_555
C95 C96 1_555 1_555
C97 C98 1_555 1_555
C99 C100 1_555 1_555
C101 C102 1_555 1_555
C103 C104 1_555 1_555
C105 C106 1_555 1_555
C107 C112 1_555 1_555
C110 C111 1_555 1_555
C117 C118 1_555 1_555
C123 C124 1_555 1_555

#END
