
#######################################################################
#
#                 Cambridge Crystallographic Data Centre
#                                CCDC 
#
#######################################################################
#
# If this CIF has been generated from an entry in the Cambridge 
# Structural Database, then it will include bibliographic, chemical, 
# crystal, experimental, refinement or atomic coordinate data resulting 
# from the CCDC's data processing and validation procedures.
#
#######################################################################

data_ECEGIE
_chemical_formula_moiety         'C18 H17 N1 O3'
_chemical_name_systematic        
1-Benzyl-3-(1-hydroxyethylidene)-5-methoxy-1,3-dihydro-2H-indol-2-one
_symmetry_cell_setting           monoclinic
_symmetry_space_group_name_H-M   'P 21/n'
_symmetry_Int_Tables_number      14
_space_group_name_Hall           '-P 2yn'
loop_
_symmetry_equiv_pos_site_id
_symmetry_equiv_pos_as_xyz
1 x,y,z
2 1/2-x,1/2+y,1/2-z
3 -x,-y,-z
4 1/2+x,1/2-y,1/2+z
_cell_length_a                   8.486(4)
_cell_length_b                   11.448(5)
_cell_length_c                   15.685(7)
_cell_angle_alpha                90
_cell_angle_beta                 97.745(9)
_cell_angle_gamma                90
_cell_volume                     1509.86
_cell_formula_units_Z            4
loop_
_atom_site_label
_atom_site_type_symbol
_atom_site_fract_x
_atom_site_fract_y
_atom_site_fract_z
C1 C 0.3283(5) 0.5299(3) 0.7382(3)
H1 H 0.4221 0.4881 0.7525
C2 C 0.2332(8) 0.5081(4) 0.6609(3)
H2 H 0.2630 0.4517 0.6235
C3 C 0.0949(7) 0.5700(5) 0.6396(3)
H3 H 0.0305 0.5550 0.5880
C4 C 0.0522(5) 0.6529(4) 0.6938(3)
H4 H -0.0406 0.6957 0.6791
C5 C 0.1461(5) 0.6733(3) 0.7702(2)
H5 H 0.1150 0.7298 0.8072
C6 C 0.2848(4) 0.6130(3) 0.7940(2)
C7 C 0.3863(4) 0.6377(3) 0.8779(2)
H6 H 0.4811 0.5896 0.8820
H7 H 0.4196 0.7188 0.8788
C8 C 0.2716(4) 0.5032(3) 0.98308(19)
C9 C 0.2979(4) 0.3958(3) 0.9493(2)
H8 H 0.3439 0.3896 0.8989
C10 C 0.2553(4) 0.2967(3) 0.9910(2)
H9 H 0.2743 0.2232 0.9693
C11 C 0.1844(4) 0.3067(3) 1.0652(2)
C12 C 0.1581(4) 0.4159(3) 1.1000(2)
H10 H 0.1131 0.4219 1.1507
C13 C 0.1998(4) 0.5148(3) 1.05848(19)
C14 C 0.1888(4) 0.6395(3) 1.07418(19)
C15 C 0.2571(4) 0.6978(3) 1.0052(2)
C16 C 0.1578(6) 0.0999(3) 1.0781(3)
H11 H 0.0982 0.0940 1.0218
H12 H 0.1195 0.0430 1.1154
H13 H 0.2683 0.0857 1.0746
C17 C 0.1270(4) 0.7033(3) 1.1344(2)
C18 C 0.0545(5) 0.6583(3) 1.2084(2)
H14 H 0.1256 0.6715 1.2605
H15 H 0.0350 0.5761 1.2012
H16 H -0.0441 0.6981 1.2115
N1 N 0.3047(3) 0.6153(2) 0.95246(16)
O1 O 0.1395(3) 0.2125(2) 1.11132(16)
O2 O 0.2707(3) 0.8064(2) 0.99561(15)
O3 O 0.1307(4) 0.8203(2) 1.13119(17)
H17 H 0.1656 0.8411 1.0873
loop_
_geom_bond_atom_site_label_1
_geom_bond_atom_site_label_2
_geom_bond_site_symmetry_1
_geom_bond_site_symmetry_2
C1 H1 1_555 1_555
C2 C1 1_555 1_555
H2 C2 1_555 1_555
C3 C2 1_555 1_555
H3 C3 1_555 1_555
C4 C3 1_555 1_555
H4 C4 1_555 1_555
C5 C4 1_555 1_555
H5 C5 1_555 1_555
C6 C1 1_555 1_555
C7 C6 1_555 1_555
H6 C7 1_555 1_555
H7 C7 1_555 1_555
C8 C9 1_555 1_555
C9 H8 1_555 1_555
C10 C9 1_555 1_555
H9 C10 1_555 1_555
C11 C10 1_555 1_555
C12 C11 1_555 1_555
H10 C12 1_555 1_555
C13 C8 1_555 1_555
C14 C13 1_555 1_555
C15 C14 1_555 1_555
C16 H11 1_555 1_555
H12 C16 1_555 1_555
H13 C16 1_555 1_555
C17 C14 1_555 1_555
C18 C17 1_555 1_555
H14 C18 1_555 1_555
H15 C18 1_555 1_555
H16 C18 1_555 1_555
N1 C7 1_555 1_555
O1 C11 1_555 1_555
O2 C15 1_555 1_555
O3 C17 1_555 1_555
H17 O3 1_555 1_555
C5 C6 1_555 1_555
C8 N1 1_555 1_555
C12 C13 1_555 1_555
C15 N1 1_555 1_555
C16 O1 1_555 1_555

#END
