
#######################################################################
#
#                 Cambridge Crystallographic Data Centre
#                                CCDC 
#
#######################################################################
#
# If this CIF has been generated from an entry in the Cambridge 
# Structural Database, then it will include bibliographic, chemical, 
# crystal, experimental, refinement or atomic coordinate data resulting 
# from the CCDC's data processing and validation procedures.
#
#######################################################################

data_ECEGEA
_chemical_formula_moiety         'C17 H16 N2 O2'
_chemical_name_systematic        
'Ethyl 8-methyl-2-phenylimidazo[1,2-a]pyridine-3-carboxylate'
_symmetry_cell_setting           monoclinic
_symmetry_space_group_name_H-M   'P 21/c'
_symmetry_Int_Tables_number      14
_space_group_name_Hall           '-P 2ybc'
loop_
_symmetry_equiv_pos_site_id
_symmetry_equiv_pos_as_xyz
1 x,y,z
2 -x,1/2+y,1/2-z
3 -x,-y,-z
4 x,1/2-y,1/2+z
_cell_length_a                   10.386(6)
_cell_length_b                   7.023(4)
_cell_length_c                   21.231(10)
_cell_angle_alpha                90
_cell_angle_beta                 111.84(2)
_cell_angle_gamma                90
_cell_volume                     1437.46
_exptl_crystal_colour            colorless
_exptl_crystal_description       block
_cell_formula_units_Z            4
loop_
_atom_site_label
_atom_site_type_symbol
_atom_site_fract_x
_atom_site_fract_y
_atom_site_fract_z
C1 C -0.1146(2) 0.2030(3) 0.24756(11)
H1 H -0.1370 0.2092 0.2860
C2 C -0.2150(2) 0.2027(3) 0.18507(12)
H2 H -0.3075 0.2071 0.1805
C3 C -0.1818(2) 0.1957(3) 0.12698(12)
H3 H -0.2530 0.1966 0.0845
C4 C -0.0477(2) 0.1877(3) 0.13118(11)
C5 C 0.0561(2) 0.1854(3) 0.19635(10)
C6 C 0.24912(19) 0.1856(3) 0.28235(10)
C7 C 0.40217(19) 0.1816(3) 0.31570(10)
C8 C 0.4764(2) 0.0599(3) 0.29033(10)
H4 H 0.4294 -0.0205 0.2543
C9 C 0.6193(2) 0.0570(4) 0.31817(12)
H5 H 0.6679 -0.0278 0.3016
C10 C 0.6902(2) 0.1783(4) 0.37000(12)
H6 H 0.7867 0.1769 0.3883
C11 C 0.6179(2) 0.3021(4) 0.39475(12)
H7 H 0.6657 0.3852 0.4297
C12 C 0.4753(2) 0.3038(3) 0.36816(11)
H8 H 0.4274 0.3876 0.3855
C13 C 0.14591(19) 0.1938(3) 0.30955(10)
C14 C 0.1449(2) 0.1870(3) 0.37772(11)
C15 C 0.2810(3) 0.1802(4) 0.49466(11)
H9 H 0.2505 0.0586 0.5058
H10 H 0.2217 0.2791 0.5009
C16 C 0.4263(3) 0.2157(4) 0.53920(13)
H11 H 0.4828 0.1103 0.5364
H12 H 0.4323 0.2299 0.5852
H13 H 0.4585 0.3300 0.5250
C17 C -0.0051(2) 0.1826(4) 0.07116(11)
H14 H -0.0863 0.1803 0.0302
H15 H 0.0493 0.0705 0.0734
H16 H 0.0490 0.2937 0.0714
N1 N 0.02122(15) 0.1941(2) 0.25324(8)
N2 N 0.19351(16) 0.1788(2) 0.21374(8)
O1 O 0.04177(15) 0.1879(3) 0.39105(8)
O2 O 0.27185(14) 0.1789(2) 0.42520(7)
loop_
_geom_bond_atom_site_label_1
_geom_bond_atom_site_label_2
_geom_bond_site_symmetry_1
_geom_bond_site_symmetry_2
C1 H1 1_555 1_555
C2 C1 1_555 1_555
H2 C2 1_555 1_555
C3 C2 1_555 1_555
H3 C3 1_555 1_555
C4 C3 1_555 1_555
C5 C4 1_555 1_555
C6 C7 1_555 1_555
C7 C8 1_555 1_555
C8 H4 1_555 1_555
C9 C8 1_555 1_555
H5 C9 1_555 1_555
C10 C9 1_555 1_555
H6 C10 1_555 1_555
C11 C10 1_555 1_555
H7 C11 1_555 1_555
C12 C7 1_555 1_555
H8 C12 1_555 1_555
C13 C6 1_555 1_555
C14 C13 1_555 1_555
C15 H9 1_555 1_555
H10 C15 1_555 1_555
C16 C15 1_555 1_555
H11 C16 1_555 1_555
H12 C16 1_555 1_555
H13 C16 1_555 1_555
C17 C4 1_555 1_555
H14 C17 1_555 1_555
H15 C17 1_555 1_555
H16 C17 1_555 1_555
N1 C1 1_555 1_555
N2 C5 1_555 1_555
O1 C14 1_555 1_555
O2 C14 1_555 1_555
C5 N1 1_555 1_555
C6 N2 1_555 1_555
C11 C12 1_555 1_555
C13 N1 1_555 1_555
C15 O2 1_555 1_555

#END
