
#######################################################################
#
#                 Cambridge Crystallographic Data Centre
#                                CCDC 
#
#######################################################################
#
# If this CIF has been generated from an entry in the Cambridge 
# Structural Database, then it will include bibliographic, chemical, 
# crystal, experimental, refinement or atomic coordinate data resulting 
# from the CCDC's data processing and validation procedures.
#
#######################################################################

data_ECEHAY
_chemical_formula_moiety         'C16 H13 Br1 F1 N1 O2'
_chemical_name_systematic        
3-((2-bromophenyl)(hydroxy)methyl)-3-fluoro-1-methyl-1,3-dihydro-2H-indol-2-one
_symmetry_cell_setting           triclinic
_symmetry_space_group_name_H-M   'P 1'
_symmetry_Int_Tables_number      1
_space_group_name_Hall           'P 1'
loop_
_symmetry_equiv_pos_site_id
_symmetry_equiv_pos_as_xyz
1 x,y,z
_cell_length_a                   7.9939(5)
_cell_length_b                   8.0488(4)
_cell_length_c                   22.5543(13)
_cell_angle_alpha                96.579(2)
_cell_angle_beta                 96.368(2)
_cell_angle_gamma                90.008(2)
_cell_volume                     1432.6
_cell_formula_units_Z            4
loop_
_atom_site_label
_atom_site_type_symbol
_atom_site_fract_x
_atom_site_fract_y
_atom_site_fract_z
Br1 Br 0.29812(9) 0.36465(7) 0.91013(4)
C1 C 0.2385(8) 0.5945(7) 0.9131(3)
C2 C 0.1156(8) 0.6468(8) 0.9487(3)
H1 H 0.0651 0.5719 0.9699
C3 C 0.0683(8) 0.8116(9) 0.9525(3)
H2 H -0.0125 0.8489 0.9774
C4 C 0.1394(8) 0.9216(8) 0.9200(3)
H3 H 0.1071 1.0329 0.9230
C5 C 0.2589(8) 0.8666(7) 0.8828(3)
H4 H 0.3020 0.9400 0.8591
C6 C 0.3162(8) 0.7020(8) 0.8802(3)
C7 C 0.4514(9) 0.6488(8) 0.8390(3)
H5 H 0.4474 0.5267 0.8299
C8 C 0.6291(8) 0.7023(8) 0.8655(3)
C9 C 0.6667(8) 0.8860(7) 0.8804(3)
C10 C 0.6242(8) 1.0004(8) 0.9272(3)
H6 H 0.5600 0.9681 0.9560
C11 C 0.6806(10) 1.1641(9) 0.9295(4)
H7 H 0.6550 1.2422 0.9608
C12 C 0.7735(10) 1.2141(9) 0.8866(4)
H8 H 0.8041 1.3262 0.8883
C13 C 0.8229(9) 1.0988(8) 0.8405(3)
H9 H 0.8882 1.1299 0.8119
C14 C 0.7670(8) 0.9333(8) 0.8405(3)
C15 C 0.7473(9) 0.6530(8) 0.8174(3)
C16 C 0.9310(11) 0.8005(10) 0.7577(3)
H10 H 0.9935 0.6986 0.7545
H11 H 1.0074 0.8936 0.7692
H12 H 0.8687 0.8132 0.7196
F1 F 0.6712(5) 0.6156(4) 0.91511(16)
N1 N 0.8171(7) 0.7945(6) 0.8021(2)
O1 O 0.4222(6) 0.7212(6) 0.78404(19)
H13 H 0.3859 0.6492 0.7570
O2 O 0.7705(6) 0.5090(6) 0.7953(2)
Br2 Br 0.70574(10) 0.63235(8) 0.59657(4)
C17 C 0.6364(8) 0.4048(8) 0.5907(3)
C18 C 0.4892(9) 0.3576(9) 0.5532(3)
H14 H 0.4298 0.4358 0.5322
C19 C 0.4335(9) 0.1973(10) 0.5477(3)
H15 H 0.3360 0.1652 0.5226
C20 C 0.5209(9) 0.0804(9) 0.5794(3)
H16 H 0.4814 -0.0295 0.5757
C21 C 0.6673(9) 0.1278(8) 0.6166(3)
H17 H 0.7242 0.0501 0.6386
C22 C 0.7297(9) 0.2910(8) 0.6213(3)
C23 C 0.8887(8) 0.3369(8) 0.6634(3)
H18 H 0.8925 0.4586 0.6738
C24 C 1.0534(8) 0.2832(7) 0.6377(3)
C25 C 1.0834(8) 0.1018(8) 0.6220(3)
C26 C 1.0165(8) -0.0108(8) 0.5744(3)
H19 H 0.9351 0.0216 0.5454
C27 C 1.0753(9) -0.1763(9) 0.5711(3)
H20 H 1.0327 -0.2546 0.5395
C28 C 1.1951(10) -0.2225(9) 0.6144(4)
H21 H 1.2284 -0.3336 0.6120
C29 C 1.2676(10) -0.1129(8) 0.6608(3)
H22 H 1.3498 -0.1459 0.6894
C30 C 1.2114(9) 0.0528(8) 0.6628(3)
C31 C 1.1998(9) 0.3356(9) 0.6869(3)
C32 C 1.4220(10) 0.1893(9) 0.7468(3)
H23 H 1.4490 0.3010 0.7651
H24 H 1.5170 0.1431 0.7284
H25 H 1.3946 0.1215 0.7768
F2 F 1.0657(5) 0.3731(4) 0.58831(15)
N2 N 1.2788(7) 0.1928(7) 0.7014(2)
O3 O 0.8912(7) 0.2608(5) 0.71732(19)
H26 H 0.8570 0.3272 0.7435
O4 O 1.2326(6) 0.4773(6) 0.7092(2)
Br3 Br 0.16326(8) 0.54968(9) 0.40625(4)
C33 C 0.3935(8) 0.6184(8) 0.4104(3)
C34 C 0.4413(9) 0.7628(8) 0.4469(3)
H27 H 0.3630 0.8228 0.4679
C35 C 0.6065(9) 0.8187(8) 0.4522(3)
H28 H 0.6396 0.9171 0.4765
C36 C 0.7213(9) 0.7279(8) 0.4213(3)
H29 H 0.8327 0.7646 0.4250
C37 C 0.6721(9) 0.5817(8) 0.3847(3)
H30 H 0.7510 0.5215 0.3639
C38 C 0.5062(9) 0.5241(8) 0.3785(3)
C39 C 0.4574(8) 0.3658(8) 0.3362(3)
H31 H 0.3352 0.3647 0.3256
C40 C 0.5068(8) 0.2018(8) 0.3623(3)
C41 C 0.6900(8) 0.1727(8) 0.3797(3)
C42 C 0.8005(8) 0.2405(8) 0.4284(3)
H32 H 0.7649 0.3215 0.4569
C43 C 0.9645(9) 0.1848(8) 0.4335(3)
H33 H 1.0398 0.2283 0.4660
C44 C 1.0177(9) 0.0654(9) 0.3911(3)
H34 H 1.1299 0.0339 0.3945
C45 C 0.9073(9) -0.0095(9) 0.3430(3)
H35 H 0.9426 -0.0919 0.3149
C46 C 0.7449(8) 0.0445(8) 0.3396(3)
C47 C 0.4601(9) 0.0550(8) 0.3116(3)
C48 C 0.6160(10) -0.1694(9) 0.2556(3)
H36 H 0.5056 -0.2163 0.2430
H37 H 0.6859 -0.2511 0.2737
H38 H 0.6643 -0.1373 0.2215
F3 F 0.4115(5) 0.1897(5) 0.40929(16)
N3 N 0.6039(7) -0.0215(7) 0.2997(2)
O5 O 0.5362(6) 0.3647(6) 0.28267(19)
H39 H 0.4747 0.4093 0.2577
O6 O 0.3184(6) 0.0221(6) 0.2884(2)
Br4 Br 1.45004(8) 0.95623(9) 0.09883(4)
C49 C 1.2185(8) 1.0221(8) 0.0916(3)
C50 C 1.1805(9) 1.1509(7) 0.0566(3)
H40 H 1.2641 1.2023 0.0393
C51 C 1.0157(9) 1.2005(8) 0.0483(3)
H41 H 0.9865 1.2848 0.0243
C52 C 0.8929(9) 1.1256(8) 0.0754(3)
H42 H 0.7815 1.1587 0.0691
C53 C 0.9361(8) 1.0008(8) 0.1121(3)
H43 H 0.8533 0.9537 0.1311
C54 C 1.1022(8) 0.9448(8) 0.1209(3)
C55 C 1.1442(8) 0.8120(7) 0.1620(3)
H44 H 1.2661 0.8149 0.1735
C56 C 1.0920(8) 0.6321(8) 0.1358(3)
C57 C 0.9081(7) 0.5908(8) 0.1190(3)
C58 C 0.7946(8) 0.6257(8) 0.0710(3)
H45 H 0.8274 0.6900 0.0425
C59 C 0.6312(8) 0.5632(8) 0.0663(3)
H46 H 0.5545 0.5850 0.0341
C60 C 0.5809(9) 0.4686(9) 0.1090(4)
H47 H 0.4696 0.4321 0.1060
C61 C 0.6945(9) 0.4274(9) 0.1564(3)
H48 H 0.6618 0.3632 0.1850
C62 C 0.8573(8) 0.4862(7) 0.1591(3)
C63 C 1.1411(8) 0.5169(8) 0.1856(3)
C64 C 0.9905(10) 0.3290(9) 0.2436(3)
H49 H 1.1020 0.2935 0.2566
H50 H 0.9232 0.2336 0.2259
H51 H 0.9406 0.3826 0.2775
F4 F 1.1851(5) 0.5899(4) 0.08792(16)
N4 N 0.9994(7) 0.4471(7) 0.1991(2)
O7 O 1.0629(6) 0.8443(6) 0.21517(19)
H52 H 1.1279 0.8950 0.2418
O8 O 1.2823(6) 0.5001(6) 0.2090(2)
loop_
_geom_bond_atom_site_label_1
_geom_bond_atom_site_label_2
_geom_bond_site_symmetry_1
_geom_bond_site_symmetry_2
Br1 C1 1_555 1_555
C1 C2 1_555 1_555
C2 H1 1_555 1_555
C3 C2 1_555 1_555
H2 C3 1_555 1_555
C4 C3 1_555 1_555
H3 C4 1_555 1_555
C5 C4 1_555 1_555
H4 C5 1_555 1_555
C6 C1 1_555 1_555
C7 C6 1_555 1_555
H5 C7 1_555 1_555
C8 C7 1_555 1_555
C9 C8 1_555 1_555
C10 C9 1_555 1_555
H6 C10 1_555 1_555
C11 C10 1_555 1_555
H7 C11 1_555 1_555
C12 C11 1_555 1_555
H8 C12 1_555 1_555
C13 C12 1_555 1_555
H9 C13 1_555 1_555
C14 C9 1_555 1_555
C15 C8 1_555 1_555
C16 H10 1_555 1_555
H11 C16 1_555 1_555
H12 C16 1_555 1_555
F1 C8 1_555 1_555
N1 C14 1_555 1_555
O1 C7 1_555 1_555
H13 O1 1_555 1_555
O2 C15 1_555 1_555
Br2 C17 1_555 1_555
C17 C18 1_555 1_555
C18 H14 1_555 1_555
C19 C18 1_555 1_555
H15 C19 1_555 1_555
C20 C19 1_555 1_555
H16 C20 1_555 1_555
C21 C20 1_555 1_555
H17 C21 1_555 1_555
C22 C17 1_555 1_555
C23 C22 1_555 1_555
H18 C23 1_555 1_555
C24 C23 1_555 1_555
C25 C24 1_555 1_555
C26 C25 1_555 1_555
H19 C26 1_555 1_555
C27 C26 1_555 1_555
H20 C27 1_555 1_555
C28 C27 1_555 1_555
H21 C28 1_555 1_555
C29 C28 1_555 1_555
H22 C29 1_555 1_555
C30 C25 1_555 1_555
C31 C24 1_555 1_555
C32 H23 1_555 1_555
H24 C32 1_555 1_555
H25 C32 1_555 1_555
F2 C24 1_555 1_555
N2 C30 1_555 1_555
O3 C23 1_555 1_555
H26 O3 1_555 1_555
O4 C31 1_555 1_555
Br3 C33 1_555 1_555
C33 C34 1_555 1_555
C34 H27 1_555 1_555
C35 C34 1_555 1_555
H28 C35 1_555 1_555
C36 C35 1_555 1_555
H29 C36 1_555 1_555
C37 C36 1_555 1_555
H30 C37 1_555 1_555
C38 C33 1_555 1_555
C39 C38 1_555 1_555
H31 C39 1_555 1_555
C40 C39 1_555 1_555
C41 C40 1_555 1_555
C42 C41 1_555 1_555
H32 C42 1_555 1_555
C43 C42 1_555 1_555
H33 C43 1_555 1_555
C44 C43 1_555 1_555
H34 C44 1_555 1_555
C45 C44 1_555 1_555
H35 C45 1_555 1_555
C46 C41 1_555 1_555
C47 C40 1_555 1_555
C48 H36 1_555 1_555
H37 C48 1_555 1_555
H38 C48 1_555 1_555
F3 C40 1_555 1_555
N3 C46 1_555 1_555
O5 C39 1_555 1_555
H39 O5 1_555 1_555
O6 C47 1_555 1_555
Br4 C49 1_555 1_555
C49 C50 1_555 1_555
C50 H40 1_555 1_555
C51 C50 1_555 1_555
H41 C51 1_555 1_555
C52 C51 1_555 1_555
H42 C52 1_555 1_555
C53 C52 1_555 1_555
H43 C53 1_555 1_555
C54 C49 1_555 1_555
C55 C54 1_555 1_555
H44 C55 1_555 1_555
C56 C55 1_555 1_555
C57 C56 1_555 1_555
C58 C57 1_555 1_555
H45 C58 1_555 1_555
C59 C58 1_555 1_555
H46 C59 1_555 1_555
C60 C59 1_555 1_555
H47 C60 1_555 1_555
C61 C60 1_555 1_555
H48 C61 1_555 1_555
C62 C57 1_555 1_555
C63 C56 1_555 1_555
C64 H49 1_555 1_555
H50 C64 1_555 1_555
H51 C64 1_555 1_555
F4 C56 1_555 1_555
N4 C62 1_555 1_555
O7 C55 1_555 1_555
H52 O7 1_555 1_555
O8 C63 1_555 1_555
C5 C6 1_555 1_555
C13 C14 1_555 1_555
C15 N1 1_555 1_555
C16 N1 1_555 1_555
C21 C22 1_555 1_555
C29 C30 1_555 1_555
C31 N2 1_555 1_555
C32 N2 1_555 1_555
C37 C38 1_555 1_555
C45 C46 1_555 1_555
C47 N3 1_555 1_555
C48 N3 1_555 1_555
C53 C54 1_555 1_555
C61 C62 1_555 1_555
C63 N4 1_555 1_555
C64 N4 1_555 1_555

#END
