
#######################################################################
#
#                 Cambridge Crystallographic Data Centre
#                                CCDC 
#
#######################################################################
#
# If this CIF has been generated from an entry in the Cambridge 
# Structural Database, then it will include bibliographic, chemical, 
# crystal, experimental, refinement or atomic coordinate data resulting 
# from the CCDC's data processing and validation procedures.
#
#######################################################################

data_ECELUV
_chemical_formula_moiety         'C30 H19 N3 O1'
_chemical_name_systematic        
1-Methyl-3,5-diphenylnaphtho[1,8-fg]pyrazolo[3,4-c]isoquinolin-6(3H)-one
_symmetry_cell_setting           monoclinic
_symmetry_space_group_name_H-M   'P 21/n'
_symmetry_Int_Tables_number      14
_space_group_name_Hall           '-P 2yn'
loop_
_symmetry_equiv_pos_site_id
_symmetry_equiv_pos_as_xyz
1 x,y,z
2 1/2-x,1/2+y,1/2-z
3 -x,-y,-z
4 1/2+x,1/2-y,1/2+z
_cell_length_a                   9.2006(12)
_cell_length_b                   19.587(2)
_cell_length_c                   11.9092(15)
_cell_angle_alpha                90
_cell_angle_beta                 104.475(4)
_cell_angle_gamma                90
_cell_volume                     2078.06
_exptl_crystal_colour            yellow
_exptl_crystal_description       block
_chemical_melting_point          '260-262 deg.C'
_cell_formula_units_Z            4
loop_
_atom_site_label
_atom_site_type_symbol
_atom_site_fract_x
_atom_site_fract_y
_atom_site_fract_z
O1 O 0.4647(2) 0.56419(9) 0.31343(15)
N1 N 0.9565(2) 0.36305(10) 0.53954(17)
N2 N 0.9791(2) 0.36294(10) 0.65841(18)
N3 N 0.8359(2) 0.43466(10) 0.38013(17)
C1 C 1.0148(3) 0.30877(12) 0.4847(2)
C2 C 0.9490(3) 0.29099(13) 0.3715(2)
H1 H 0.8636 0.3144 0.3292
C3 C 1.0102(3) 0.23828(13) 0.3207(2)
H2 H 0.9660 0.2262 0.2433
C4 C 1.1342(3) 0.20352(14) 0.3817(3)
H3 H 1.1752 0.1680 0.3463
C5 C 1.1982(3) 0.22115(14) 0.4955(3)
H4 H 1.2825 0.1970 0.5379
C6 C 1.1397(3) 0.27395(13) 0.5479(3)
H5 H 1.1841 0.2860 0.6253
C7 C 0.9207(3) 0.42004(12) 0.6875(2)
C8 C 0.8566(3) 0.45988(12) 0.5858(2)
C9 C 0.8791(3) 0.42029(11) 0.4934(2)
C10 C 0.9187(3) 0.42860(13) 0.8120(2)
H6 H 0.9312 0.3844 0.8501
H7 H 0.8236 0.4483 0.8165
H8 H 1.0000 0.4586 0.8502
C11 C 0.7435(3) 0.48770(11) 0.3520(2)
C12 C 0.6956(3) 0.52792(11) 0.4372(2)
C13 C 0.7688(3) 0.51978(11) 0.5558(2)
C14 C 0.7088(3) 0.50487(12) 0.2263(2)
C15 C 0.6951(3) 0.57177(12) 0.1861(2)
H9 H 0.6974 0.6077 0.2387
C16 C 0.6781(3) 0.58623(13) 0.0703(2)
H10 H 0.6694 0.6318 0.0448
C17 C 0.6739(3) 0.53373(14) -0.0089(2)
H11 H 0.6621 0.5435 -0.0879
C18 C 0.6872(3) 0.46728(14) 0.0297(2)
H12 H 0.6846 0.4315 -0.0233
C19 C 0.7044(3) 0.45277(13) 0.1457(2)
H13 H 0.7133 0.4071 0.1707
C20 C 0.5581(3) 0.57059(12) 0.4060(2)
C21 C 0.5337(3) 0.61889(12) 0.4956(2)
C22 C 0.4179(3) 0.66577(13) 0.4665(2)
H14 H 0.3529 0.6653 0.3917
C23 C 0.3969(3) 0.71406(13) 0.5479(2)
H15 H 0.3167 0.7451 0.5278
C24 C 0.4916(3) 0.71628(13) 0.6558(2)
H16 H 0.4760 0.7488 0.7096
C25 C 0.6128(3) 0.67036(12) 0.6878(2)
C26 C 0.7194(3) 0.67481(13) 0.7956(2)
H17 H 0.7062 0.7071 0.8506
C27 C 0.8417(3) 0.63273(13) 0.8211(2)
H18 H 0.9145 0.6379 0.8917
C28 C 0.8591(3) 0.58171(12) 0.7424(2)
H19 H 0.9447 0.5536 0.7602
C29 C 0.7522(3) 0.57239(11) 0.6392(2)
C30 C 0.6312(3) 0.61968(12) 0.6070(2)
loop_
_geom_bond_atom_site_label_1
_geom_bond_atom_site_label_2
_geom_bond_site_symmetry_1
_geom_bond_site_symmetry_2
O1 C20 1_555 1_555
N1 N2 1_555 1_555
N2 C7 1_555 1_555
N3 C9 1_555 1_555
C1 N1 1_555 1_555
C2 C1 1_555 1_555
H1 C2 1_555 1_555
C3 C2 1_555 1_555
H2 C3 1_555 1_555
C4 C3 1_555 1_555
H3 C4 1_555 1_555
C5 C4 1_555 1_555
H4 C5 1_555 1_555
C6 C1 1_555 1_555
H5 C6 1_555 1_555
C7 C8 1_555 1_555
C8 C9 1_555 1_555
C9 N1 1_555 1_555
C10 C7 1_555 1_555
H6 C10 1_555 1_555
H7 C10 1_555 1_555
H8 C10 1_555 1_555
C11 N3 1_555 1_555
C12 C11 1_555 1_555
C13 C8 1_555 1_555
C14 C11 1_555 1_555
C15 C14 1_555 1_555
H9 C15 1_555 1_555
C16 C15 1_555 1_555
H10 C16 1_555 1_555
C17 C16 1_555 1_555
H11 C17 1_555 1_555
C18 C17 1_555 1_555
H12 C18 1_555 1_555
C19 C14 1_555 1_555
H13 C19 1_555 1_555
C20 C12 1_555 1_555
C21 C20 1_555 1_555
C22 C21 1_555 1_555
H14 C22 1_555 1_555
C23 C22 1_555 1_555
H15 C23 1_555 1_555
C24 C23 1_555 1_555
H16 C24 1_555 1_555
C25 C24 1_555 1_555
C26 C25 1_555 1_555
H17 C26 1_555 1_555
C27 C26 1_555 1_555
H18 C27 1_555 1_555
C28 C27 1_555 1_555
H19 C28 1_555 1_555
C29 C13 1_555 1_555
C30 C21 1_555 1_555
C5 C6 1_555 1_555
C12 C13 1_555 1_555
C18 C19 1_555 1_555
C25 C30 1_555 1_555
C28 C29 1_555 1_555
C29 C30 1_555 1_555

#END
