
#######################################################################
#
#                 Cambridge Crystallographic Data Centre
#                                CCDC 
#
#######################################################################
#
# If this CIF has been generated from an entry in the Cambridge 
# Structural Database, then it will include bibliographic, chemical, 
# crystal, experimental, refinement or atomic coordinate data resulting 
# from the CCDC's data processing and validation procedures.
#
#######################################################################

data_ECENAD
_chemical_formula_moiety         'C22 H10 S4'
_chemical_name_systematic        
"[1]Benzothieno[3,2-b][1]benzothieno[2',3':4,5]thieno[2,3-f][1]benzothiophene"
_symmetry_cell_setting           monoclinic
_symmetry_space_group_name_H-M   'P 21/c'
_symmetry_Int_Tables_number      14
_space_group_name_Hall           '-P 2ybc'
loop_
_symmetry_equiv_pos_site_id
_symmetry_equiv_pos_as_xyz
1 x,y,z
2 -x,1/2+y,1/2-z
3 -x,-y,-z
4 x,1/2-y,1/2+z
_cell_length_a                   18.30(2)
_cell_length_b                   3.974(5)
_cell_length_c                   11.70(2)
_cell_angle_alpha                90
_cell_angle_beta                 104.608(3)
_cell_angle_gamma                90
_cell_volume                     823.368
_exptl_crystal_colour            yellow
_exptl_crystal_description       platelet
_cell_formula_units_Z            2
loop_
_atom_site_label
_atom_site_type_symbol
_atom_site_fract_x
_atom_site_fract_y
_atom_site_fract_z
S1 S 0.27558(10) -0.2232(5) 0.7959(1)
S2 S 0.37491(10) 0.2314(5) 1.1234(1)
C1 C 0.2008(4) -0.090(2) 0.8574(6)
C2 C 0.1250(4) -0.133(2) 0.8070(7)
C3 C 0.0735(4) -0.014(2) 0.8666(7)
C4 C 0.0979(5) 0.129(2) 0.9748(7)
C5 C 0.1742(4) 0.174(2) 1.0287(6)
C6 C 0.2280(4) 0.059(2) 0.9698(5)
C7 C 0.3082(4) 0.072(2) 0.9998(5)
C8 C 0.4492(4) 0.109(2) 1.0620(5)
C9 C 0.4220(4) -0.050(2) 0.9483(5)
C10 C 0.3422(4) -0.063(2) 0.9188(5)
C11 C 0.4746(4) -0.159(2) 0.8871(5)
H1 H 0.1075 -0.2376 0.7296
H2 H 0.0198 -0.0398 0.8289
H3 H 0.0605 0.2037 1.0167
H4 H 0.1901 0.2776 1.1058
H5 H 0.4571 -0.2709 0.8125
S1B S 0.72442(10) 0.2232(5) 1.2041(1)
S2B S 0.62509(10) -0.2314(5) 0.8766(1)
C1B C 0.7992(4) 0.090(2) 1.1426(6)
C2B C 0.8750(4) 0.133(2) 1.1930(7)
C3B C 0.9265(4) 0.014(2) 1.1334(7)
C4B C 0.9021(5) -0.129(2) 1.0252(7)
C5B C 0.8258(4) -0.174(2) 0.9713(6)
C6B C 0.7720(4) -0.059(2) 1.0302(5)
C7B C 0.6918(4) -0.072(2) 1.0002(5)
C8B C 0.5508(4) -0.109(2) 0.9380(5)
C9B C 0.5780(4) 0.050(2) 1.0517(5)
C10B C 0.6578(4) 0.063(2) 1.0812(5)
C11B C 0.5254(4) 0.159(2) 1.1129(5)
H1B H 0.8925 0.2376 1.2704
H2B H 0.9802 0.0398 1.1711
H3B H 0.9395 -0.2037 0.9833
H4B H 0.8099 -0.2776 0.8942
H5B H 0.5429 0.2709 1.1875
loop_
_geom_bond_atom_site_label_1
_geom_bond_atom_site_label_2
_geom_bond_site_symmetry_1
_geom_bond_site_symmetry_2
S1 C1 1_555 1_555
S2 C7 1_555 1_555
C1 C2 1_555 1_555
C2 C3 1_555 1_555
C3 C4 1_555 1_555
C4 C5 1_555 1_555
C5 C6 1_555 1_555
C6 C1 1_555 1_555
C7 C6 1_555 1_555
C8 S2 1_555 1_555
C9 C8 1_555 1_555
C10 S1 1_555 1_555
C11 C9 1_555 1_555
H1 C2 1_555 1_555
H2 C3 1_555 1_555
H3 C4 1_555 1_555
H4 C5 1_555 1_555
H5 C11 1_555 1_555
S1B C1B 1_555 1_555
S2B C7B 1_555 1_555
C1B C2B 1_555 1_555
C2B C3B 1_555 1_555
C3B C4B 1_555 1_555
C4B C5B 1_555 1_555
C5B C6B 1_555 1_555
C6B C1B 1_555 1_555
C7B C6B 1_555 1_555
C8B C11 1_555 1_555
C9B C8B 1_555 1_555
C10B S1B 1_555 1_555
C11B C8 1_555 1_555
H1B C2B 1_555 1_555
H2B C3B 1_555 1_555
H3B C4B 1_555 1_555
H4B C5B 1_555 1_555
H5B C11B 1_555 1_555
C7 C10 1_555 1_555
C9 C10 1_555 1_555
S2B C8B 1_555 1_555
C7B C10B 1_555 1_555
C9B C10B 1_555 1_555
C9B C11B 1_555 1_555

#END
