
#######################################################################
#
#                 Cambridge Crystallographic Data Centre
#                                CCDC 
#
#######################################################################
#
# If this CIF has been generated from an entry in the Cambridge 
# Structural Database, then it will include bibliographic, chemical, 
# crystal, experimental, refinement or atomic coordinate data resulting 
# from the CCDC's data processing and validation procedures.
#
#######################################################################

data_ECERUB
_chemical_formula_moiety         'C28 H24 N2 O10,2(C3 H7 N1 O1)'
_chemical_name_systematic        
"Tetramethyl 5,5'-(1,4-phenylenebis(carbonylimino))diisophthalate N,N-dimethylformamide solvate"
_symmetry_cell_setting           monoclinic
_symmetry_space_group_name_H-M   'P 2/c'
_symmetry_Int_Tables_number      13
_space_group_name_Hall           '-P 2yc'
loop_
_symmetry_equiv_pos_site_id
_symmetry_equiv_pos_as_xyz
1 x,y,z
2 -x,y,1/2-z
3 -x,-y,-z
4 x,-y,1/2+z
_cell_length_a                   21.609(2)
_cell_length_b                   4.060(1)
_cell_length_c                   21.606(2)
_cell_angle_alpha                90
_cell_angle_beta                 112.805(1)
_cell_angle_gamma                90
_cell_volume                     1747.37
_exptl_crystal_colour            colorless
_exptl_crystal_description       needle
_cell_formula_units_Z            2
loop_
_atom_site_label
_atom_site_type_symbol
_atom_site_fract_x
_atom_site_fract_y
_atom_site_fract_z
O1 O 0.14181(14) -0.2050(10) -0.03937(14)
O2 O 0.42337(14) 0.5904(9) 0.25383(13)
O3 O 0.33096(15) 0.5258(10) 0.27762(14)
O4 O 0.35462(14) -0.1575(10) -0.02053(15)
O5 O 0.44250(15) 0.1242(10) 0.05429(14)
N1 N 0.17088(16) -0.1082(11) 0.07312(17)
H1 H 0.1557 -0.1146 0.1045
C1 C 0.1283(2) -0.2218(12) 0.0108(2)
C2 C 0.0623(2) -0.3575(13) 0.0077(2)
C3 C 0.0097(2) -0.3725(14) -0.0554(2)
H2 H 0.0156 -0.2896 -0.0929
C4 C 0.0519(2) -0.4881(14) 0.0623(2)
H3 H 0.0867 -0.4828 0.1045
C5 C 0.23747(19) 0.0191(12) 0.0912(2)
C6 C 0.2651(2) 0.1964(12) 0.15089(19)
H4 H 0.2393 0.2428 0.1756
C7 C 0.33129(19) 0.3043(12) 0.17354(19)
C8 C 0.36931(19) 0.2504(11) 0.13477(19)
H5 H 0.4130 0.3297 0.1491
C9 C 0.34126(19) 0.0773(12) 0.07455(19)
C10 C 0.2753(2) -0.0386(13) 0.0521(2)
H6 H 0.2566 -0.1528 0.0118
C11 C 0.3603(2) 0.4852(13) 0.2400(2)
C12 C 0.4571(2) 0.7511(12) 0.3173(2)
H7 H 0.4282 0.9163 0.3235
H8 H 0.4975 0.8527 0.3181
H9 H 0.4681 0.5917 0.3528
C13 C 0.3854(2) 0.0227(14) 0.0359(2)
C14 C 0.3951(2) -0.2207(14) -0.0598(2)
H10 H 0.4077 -0.0151 -0.0736
H11 H 0.3696 -0.3485 -0.0987
H12 H 0.4348 -0.3400 -0.0329
O1B O -0.14181(14) -0.7950(10) 0.03937(14)
O2B O -0.42337(14) -1.5904(9) -0.25383(13)
O3B O -0.33096(15) -1.5258(10) -0.27762(14)
O4B O -0.35462(14) -0.8425(10) 0.02053(15)
O5B O -0.44250(15) -1.1242(10) -0.05429(14)
N1B N -0.17088(16) -0.8918(11) -0.07312(17)
H1B H -0.1557 -0.8854 -0.1045
C1B C -0.1283(2) -0.7782(12) -0.0108(2)
C2B C -0.0623(2) -0.6425(13) -0.0077(2)
C3B C -0.0097(2) -0.6275(14) 0.0554(2)
H2B H -0.0156 -0.7104 0.0929
C4B C -0.0519(2) -0.5119(14) -0.0623(2)
H3B H -0.0867 -0.5172 -0.1045
C5B C -0.23747(19) -1.0191(12) -0.0912(2)
C6B C -0.2651(2) -1.1964(12) -0.15089(19)
H4B H -0.2393 -1.2428 -0.1756
C7B C -0.33129(19) -1.3043(12) -0.17354(19)
C8B C -0.36931(19) -1.2504(11) -0.13477(19)
H5B H -0.4130 -1.3297 -0.1491
C9B C -0.34126(19) -1.0773(12) -0.07455(19)
C10B C -0.2753(2) -0.9614(13) -0.0521(2)
H6B H -0.2566 -0.8472 -0.0118
C11B C -0.3603(2) -1.4852(13) -0.2400(2)
C12B C -0.4571(2) -1.7511(12) -0.3173(2)
H7B H -0.4282 -1.9163 -0.3235
H8B H -0.4975 -1.8527 -0.3181
H9B H -0.4681 -1.5917 -0.3528
C13B C -0.3854(2) -1.0227(14) -0.0359(2)
C14B C -0.3951(2) -0.7793(14) 0.0598(2)
H10B H -0.4077 -0.9849 0.0736
H11B H -0.3696 -0.6515 0.0987
H12B H -0.4348 -0.6600 0.0329
O6 O 0.14181(18) -0.0439(12) 0.19846(18)
N2 N 0.1623(2) -0.2510(11) 0.3042(2)
C15 C 0.1798(3) -0.1336(17) 0.2555(3)
H13 H 0.2256 -0.1170 0.2655
C16 C 0.2117(3) -0.3434(18) 0.3692(3)
H14 H 0.2555 -0.2795 0.3722
H15 H 0.2105 -0.5776 0.3747
H16 H 0.2018 -0.2345 0.4037
C17 C 0.0926(3) -0.293(2) 0.2930(4)
H17 H 0.0652 -0.1795 0.2526
H18 H 0.0845 -0.2037 0.3303
H19 H 0.0816 -0.5230 0.2885
loop_
_geom_bond_atom_site_label_1
_geom_bond_atom_site_label_2
_geom_bond_site_symmetry_1
_geom_bond_site_symmetry_2
O1 C1 1_555 1_555
O2 C11 1_555 1_555
O3 C11 1_555 1_555
O4 C13 1_555 1_555
O5 C13 1_555 1_555
O6 C15 1_555 1_555
N1 H1 1_555 1_555
N2 C15 1_555 1_555
C1 N1 1_555 1_555
C2 C1 1_555 1_555
C3 C2 1_555 1_555
H2 C3 1_555 1_555
C4 C2 1_555 1_555
H3 C4 1_555 1_555
C5 N1 1_555 1_555
C6 C5 1_555 1_555
H4 C6 1_555 1_555
C7 C6 1_555 1_555
C8 C7 1_555 1_555
H5 C8 1_555 1_555
C9 C8 1_555 1_555
C10 C5 1_555 1_555
H6 C10 1_555 1_555
C11 C7 1_555 1_555
C12 O2 1_555 1_555
H7 C12 1_555 1_555
H8 C12 1_555 1_555
H9 C12 1_555 1_555
C13 C9 1_555 1_555
C14 O4 1_555 1_555
H10 C14 1_555 1_555
H11 C14 1_555 1_555
H12 C14 1_555 1_555
C15 H13 1_555 1_555
C16 N2 1_555 1_555
H14 C16 1_555 1_555
H15 C16 1_555 1_555
H16 C16 1_555 1_555
C17 N2 1_555 1_555
H17 C17 1_555 1_555
H18 C17 1_555 1_555
H19 C17 1_555 1_555
O1B C1B 1_555 1_555
O2B C11B 1_555 1_555
O3B C11B 1_555 1_555
O4B C13B 1_555 1_555
O5B C13B 1_555 1_555
N1B H1B 1_555 1_555
C1B N1B 1_555 1_555
C2B C1B 1_555 1_555
C3B C4 1_555 1_555
H2B C3B 1_555 1_555
C4B C3 1_555 1_555
H3B C4B 1_555 1_555
C5B N1B 1_555 1_555
C6B C5B 1_555 1_555
H4B C6B 1_555 1_555
C7B C6B 1_555 1_555
C8B C7B 1_555 1_555
H5B C8B 1_555 1_555
C9B C8B 1_555 1_555
C10B C5B 1_555 1_555
H6B C10B 1_555 1_555
C11B C7B 1_555 1_555
C12B O2B 1_555 1_555
H7B C12B 1_555 1_555
H8B C12B 1_555 1_555
H9B C12B 1_555 1_555
C13B C9B 1_555 1_555
C14B O4B 1_555 1_555
H10B C14B 1_555 1_555
H11B C14B 1_555 1_555
H12B C14B 1_555 1_555
C9 C10 1_555 1_555
C2B C3B 1_555 1_555
C2B C4B 1_555 1_555
C9B C10B 1_555 1_555

#END
