
#######################################################################
#
#                 Cambridge Crystallographic Data Centre
#                                CCDC 
#
#######################################################################
#
# If this CIF has been generated from an entry in the Cambridge 
# Structural Database, then it will include bibliographic, chemical, 
# crystal, experimental, refinement or atomic coordinate data resulting 
# from the CCDC's data processing and validation procedures.
#
#######################################################################

data_ECEYIW
_chemical_formula_moiety         'C20 H20 Cl1 N1 O3'
_chemical_name_systematic        
't-Butyl 3-(4-chlorobenzyl)-2-oxoindoline-3-carboxylate'
_symmetry_cell_setting           orthorhombic
_symmetry_space_group_name_H-M   'P 21 21 21'
_symmetry_Int_Tables_number      19
_space_group_name_Hall           'P 2ac 2ab'
loop_
_symmetry_equiv_pos_site_id
_symmetry_equiv_pos_as_xyz
1 x,y,z
2 1/2+x,1/2-y,-z
3 -x,1/2+y,1/2-z
4 1/2-x,-y,1/2+z
_cell_length_a                   8.5303(8)
_cell_length_b                   12.086(2)
_cell_length_c                   18.332(2)
_cell_angle_alpha                90
_cell_angle_beta                 90
_cell_angle_gamma                90
_cell_volume                     1889.98
_exptl_crystal_colour            colorless
_exptl_crystal_description       chunk
_chemical_melting_point          '72 deg.C'
_cell_formula_units_Z            4
_exptl_crystal_recrystallization_method 'ethyl acetate/hexane'
loop_
_atom_site_label
_atom_site_type_symbol
_atom_site_fract_x
_atom_site_fract_y
_atom_site_fract_z
Cl1 Cl 0.9269(2) 0.2366(1) 0.85325(6)
O1 O 0.8146(4) 0.0452(4) 0.3753(2)
O2 O 0.8468(3) 0.2527(2) 0.4920(1)
O3 O 1.0648(3) 0.0343(3) 0.4076(1)
N1 N 0.6406(3) 0.1436(3) 0.5261(2)
C1 C 0.6143(4) 0.0289(3) 0.5379(2)
C2 C 0.8782(3) 0.0508(3) 0.5021(1)
C3 C 0.7912(4) 0.1615(3) 0.5063(2)
C4 C 1.0240(3) 0.0501(3) 0.5520(2)
C5 C 0.7506(4) -0.0291(3) 0.5242(2)
C6 C 0.9987(4) 0.0948(3) 0.6280(2)
C7 C 0.9180(4) 0.0386(3) 0.4219(2)
C8 C 0.4835(5) -0.1356(4) 0.5696(2)
C9 C 1.0744(4) 0.1909(3) 0.6492(2)
C10 C 0.7525(5) -0.1429(3) 0.5334(2)
C11 C 1.0541(5) 0.2355(4) 0.7185(2)
C12 C 0.8809(5) 0.0862(4) 0.7474(2)
C13 C 0.9030(4) 0.0423(4) 0.6780(2)
C14 C 0.4786(4) -0.0224(4) 0.5607(2)
C15 C 0.9558(5) 0.1823(4) 0.7663(2)
C16 C 0.6170(6) -0.1941(4) 0.5562(2)
C17 C 1.0847(8) -0.0570(6) 0.2890(3)
C18 C 1.1304(6) 0.0431(5) 0.3324(2)
C19 C 1.085(1) 0.1469(7) 0.2999(3)
C20 C 1.3032(7) 0.0389(9) 0.3500(4)
H1 H 0.3939 -0.1728 0.5850
H2 H 1.1404 0.2265 0.6164
H3 H 0.8429 -0.1837 0.5243
H4 H 1.1060 0.2999 0.7322
H5 H 0.8159 0.0506 0.7807
H6 H 0.8528 -0.0231 0.6651
H7 H 0.3876 0.0177 0.5698
H8 H 0.6165 -0.2704 0.5626
H9 H 1.1636 -0.1131 0.2943
H10 H 1.0751 -0.0373 0.2385
H11 H 0.9862 -0.0848 0.3064
H12 H 0.9880 0.1379 0.2744
H13 H 1.1651 0.1702 0.2662
H14 H 1.0734 0.2018 0.3373
H15 H 1.3411 0.1125 0.3588
H16 H 1.3590 0.0070 0.3097
H17 H 1.3193 -0.0055 0.3928
H18 H 1.0617 -0.0254 0.5559
H19 H 1.1057 0.0934 0.5288
H20 H 0.5540 0.2059 0.5219
loop_
_geom_bond_atom_site_label_1
_geom_bond_atom_site_label_2
_geom_bond_site_symmetry_1
_geom_bond_site_symmetry_2
Cl1 C15 1_555 1_555
O1 C7 1_555 1_555
O2 C3 1_555 1_555
O3 C7 1_555 1_555
N1 C1 1_555 1_555
C1 C5 1_555 1_555
C2 C3 1_555 1_555
C3 N1 1_555 1_555
C4 C2 1_555 1_555
C5 C2 1_555 1_555
C6 C4 1_555 1_555
C7 C2 1_555 1_555
C8 C14 1_555 1_555
C9 C6 1_555 1_555
C10 C5 1_555 1_555
C11 C9 1_555 1_555
C12 C13 1_555 1_555
C13 C6 1_555 1_555
C14 C1 1_555 1_555
C15 C11 1_555 1_555
C16 C8 1_555 1_555
C17 C18 1_555 1_555
C18 O3 1_555 1_555
C19 C18 1_555 1_555
C20 C18 1_555 1_555
H1 C8 1_555 1_555
H2 C9 1_555 1_555
H3 C10 1_555 1_555
H4 C11 1_555 1_555
H5 C12 1_555 1_555
H6 C13 1_555 1_555
H7 C14 1_555 1_555
H8 C16 1_555 1_555
H9 C17 1_555 1_555
H10 C17 1_555 1_555
H11 C17 1_555 1_555
H12 C19 1_555 1_555
H13 C19 1_555 1_555
H14 C19 1_555 1_555
H15 C20 1_555 1_555
H16 C20 1_555 1_555
H17 C20 1_555 1_555
H18 C4 1_555 1_555
H19 C4 1_555 1_555
H20 N1 1_555 1_555
C10 C16 1_555 1_555
C12 C15 1_555 1_555

#END
