
#######################################################################
#
#                 Cambridge Crystallographic Data Centre
#                                CCDC 
#
#######################################################################
#
# If this CIF has been generated from an entry in the Cambridge 
# Structural Database, then it will include bibliographic, chemical, 
# crystal, experimental, refinement or atomic coordinate data resulting 
# from the CCDC's data processing and validation procedures.
#
#######################################################################

data_ECEYER
_chemical_formula_moiety         '2(C4 H15 N3 2+),H6 B14 O26 4-'
_chemical_name_systematic        'bis(2-Ammonioethyl)amine tetradecaborate'
_symmetry_cell_setting           monoclinic
_symmetry_space_group_name_H-M   'P 21/n'
_symmetry_Int_Tables_number      14
_space_group_name_Hall           '-P 2yn'
loop_
_symmetry_equiv_pos_site_id
_symmetry_equiv_pos_as_xyz
1 x,y,z
2 1/2-x,1/2+y,1/2-z
3 -x,-y,-z
4 1/2+x,1/2-y,1/2+z
_cell_length_a                   9.435(6)
_cell_length_b                   8.752(6)
_cell_length_c                   19.599(12)
_cell_angle_alpha                90
_cell_angle_beta                 92.263(11)
_cell_angle_gamma                90
_cell_volume                     1617.13
_exptl_crystal_colour            colorless
_exptl_crystal_description       column
_cell_formula_units_Z            2
loop_
_atom_site_label
_atom_site_type_symbol
_atom_site_fract_x
_atom_site_fract_y
_atom_site_fract_z
N1 N -0.0879(5) 0.8163(5) 0.25016(19)
H1 H -0.1338 0.8868 0.2735
H2 H -0.1230 0.7244 0.2591
H3 H -0.0989 0.8355 0.2057
N2 N 0.1281(5) 0.6877(5) 0.1643(2)
H4 H 0.0985 0.5907 0.1582
N3 N 0.1305(4) 0.9099(5) 0.05316(19)
H5 H 0.1137 0.8527 0.0162
H6 H 0.1412 1.0070 0.0408
H7 H 0.0577 0.9024 0.0805
C1 C 0.0698(13) 0.8203(18) 0.2712(6)
H8 H 0.1065 0.9217 0.2625
H9 H 0.0805 0.8012 0.3199
C2 C 0.1503(7) 0.7136(10) 0.2367(3)
H10 H 0.1379 0.6160 0.2592
H11 H 0.2490 0.7420 0.2443
C3 C 0.2456(7) 0.7115(8) 0.1232(3)
H12 H 0.2435 0.6327 0.0884
H13 H 0.3308 0.6951 0.1516
C4 C 0.2603(8) 0.8566(9) 0.0894(4)
H14 H 0.3350 0.8484 0.0570
H15 H 0.2895 0.9327 0.1231
O1 O 0.8568(3) 0.9479(3) 0.12274(14)
O2 O 0.7057(3) 1.1711(3) 0.11943(16)
O3 O 0.6404(3) 0.9549(3) 0.05335(14)
O4 O 0.7056(3) 0.7312(3) 0.11713(14)
O5 O 0.7720(4) 0.5482(3) 0.03501(17)
O6 O 0.8341(3) 0.8065(3) 0.01780(14)
O7 O 0.9459(3) 1.1867(3) 0.08592(14)
O8 O 1.0261(4) 1.3601(4) 0.17110(15)
O9 O 0.8881(3) 1.1499(3) 0.20448(14)
O10 O 0.4929(4) 1.1739(4) 0.05802(18)
H16 H 0.4474 1.1235 0.0295
O11 O 0.6562(6) 0.4757(4) 0.1338(2)
H17 H 0.6736 0.3921 0.1172
O12 O 0.8897(4) 0.6157(4) -0.06235(16)
O13 O 0.9602(4) 1.3437(4) 0.28301(15)
H18 H 0.9184 1.2887 0.3095
B1 B 0.7597(5) 0.8635(5) 0.0793(2)
B2 B 0.8483(5) 1.1099(5) 0.1334(2)
B3 B 0.6133(6) 1.0974(6) 0.0772(3)
B4 B 0.7097(7) 0.5871(6) 0.0948(3)
B5 B 0.8318(6) 0.6616(6) -0.0026(3)
B6 B 1.0255(6) 1.3068(6) 0.1055(3)
B7 B 0.9540(6) 1.2810(6) 0.2203(3)
O1B O 1.1432(3) 1.0521(3) -0.12274(14)
O2B O 1.2943(3) 0.8289(3) -0.11943(16)
O3B O 1.3596(3) 1.0451(3) -0.05335(14)
O4B O 1.2944(3) 1.2688(3) -0.11713(14)
O5B O 1.2280(4) 1.4518(3) -0.03501(17)
O6B O 1.1659(3) 1.1935(3) -0.01780(14)
O7B O 1.0541(3) 0.8133(3) -0.08592(14)
O8B O 0.9739(4) 0.6399(4) -0.17110(15)
O9B O 1.1119(3) 0.8501(3) -0.20448(14)
O10B O 1.5071(4) 0.8261(4) -0.05802(18)
H16B H 1.5526 0.8765 -0.0295
O11B O 1.3438(6) 1.5243(4) -0.1338(2)
H17B H 1.3264 1.6079 -0.1172
O12B O 1.1103(4) 1.3843(4) 0.06235(16)
O13B O 1.0398(4) 0.6563(4) -0.28301(15)
H18B H 1.0816 0.7113 -0.3095
B1B B 1.2403(5) 1.1365(5) -0.0793(2)
B2B B 1.1517(5) 0.8901(5) -0.1334(2)
B3B B 1.3867(6) 0.9026(6) -0.0772(3)
B4B B 1.2903(7) 1.4129(6) -0.0948(3)
B5B B 1.1682(6) 1.3384(6) 0.0026(3)
B6B B 0.9745(6) 0.6932(6) -0.1055(3)
B7B B 1.0460(6) 0.7190(6) -0.2203(3)
H19? H 0.0574 0.7492 0.1489
N4? N 0.203(5) 0.808(3) 0.1894(11)
C5? C 0.0303(13) 0.721(2) 0.2740(6)
H20? H 0.0588 0.7548 0.3196
H21? H -0.0053 0.6174 0.2782
loop_
_geom_bond_atom_site_label_1
_geom_bond_atom_site_label_2
_geom_bond_site_symmetry_1
_geom_bond_site_symmetry_2
N1 H1 1_555 1_555
H2 N1 1_555 1_555
H3 N1 1_555 1_555
N2 H4 1_555 1_555
N3 H5 1_555 1_555
H6 N3 1_555 1_555
H7 N3 1_555 1_555
C1 N1 1_555 1_555
H8 C1 1_555 1_555
H9 C1 1_555 1_555
C2 N2 1_555 1_555
H10 C2 1_555 1_555
H11 C2 1_555 1_555
C3 N2 1_555 1_555
H12 C3 1_555 1_555
H13 C3 1_555 1_555
C4 N3 1_555 1_555
H14 C4 1_555 1_555
H15 C4 1_555 1_555
O1 B1 1_555 1_555
O2 B2 1_555 1_555
O3 B1 1_555 1_555
O4 B1 1_555 1_555
O5 B4 1_555 1_555
O6 B1 1_555 1_555
O7 B2 1_555 1_555
O8 B6 1_555 1_555
O9 B2 1_555 1_555
O10 H16 1_555 1_555
O11 H17 1_555 1_555
O12 B5 1_555 1_555
O13 H18 1_555 1_555
B2 O1 1_555 1_555
B3 O2 1_555 1_555
B4 O4 1_555 1_555
B5 O5 1_555 1_555
B6 O7 1_555 1_555
B7 O8 1_555 1_555
O1B B1B 1_555 1_555
O2B B2B 1_555 1_555
O3B B1B 1_555 1_555
O4B B1B 1_555 1_555
O5B B4B 1_555 1_555
O6B B1B 1_555 1_555
O7B B2B 1_555 1_555
O8B B6B 1_555 1_555
O9B B2B 1_555 1_555
O10B H16B 1_555 1_555
O11B H17B 1_555 1_555
O12B B6 1_555 1_555
O13B H18B 1_555 1_555
B2B O1B 1_555 1_555
B3B O2B 1_555 1_555
B4B O4B 1_555 1_555
B5B O5B 1_555 1_555
B6B O12 1_555 1_555
B7B O8B 1_555 1_555
C1 C2 1_555 1_555
C3 C4 1_555 1_555
O3 B3 1_555 1_555
O6 B5 1_555 1_555
O9 B7 1_555 1_555
O10 B3 1_555 1_555
O11 B4 1_555 1_555
O13 B7 1_555 1_555
O3B B3B 1_555 1_555
O6B B5B 1_555 1_555
O7B B6B 1_555 1_555
O9B B7B 1_555 1_555
O10B B3B 1_555 1_555
O11B B4B 1_555 1_555
O12B B5B 1_555 1_555
O13B B7B 1_555 1_555

#END
