
#######################################################################
#
#                 Cambridge Crystallographic Data Centre
#                                CCDC 
#
#######################################################################
#
# If this CIF has been generated from an entry in the Cambridge 
# Structural Database, then it will include bibliographic, chemical, 
# crystal, experimental, refinement or atomic coordinate data resulting 
# from the CCDC's data processing and validation procedures.
#
#######################################################################

data_ECEZUK
_chemical_formula_moiety         'C24 H16 N2'
_chemical_name_systematic        6,6'-bipyrido[2,1-a]isoindole
_symmetry_cell_setting           monoclinic
_symmetry_space_group_name_H-M   'C 2/c'
_symmetry_Int_Tables_number      15
_space_group_name_Hall           '-C 2yn'
loop_
_symmetry_equiv_pos_site_id
_symmetry_equiv_pos_as_xyz
1 x,y,z
2 -x,y,1/2-z
3 1/2+x,1/2+y,z
4 1/2-x,1/2+y,1/2-z
5 -x,-y,-z
6 x,-y,1/2+z
7 1/2-x,1/2-y,-z
8 1/2+x,1/2-y,1/2+z
_cell_length_a                   22.4597(12)
_cell_length_b                   7.2353(4)
_cell_length_c                   10.4680(7)
_cell_angle_alpha                90
_cell_angle_beta                 106.122(4)
_cell_angle_gamma                90
_cell_volume                     1634.18
_exptl_crystal_colour            orange
_exptl_crystal_description       plate
_cell_formula_units_Z            4
loop_
_atom_site_label
_atom_site_type_symbol
_atom_site_fract_x
_atom_site_fract_y
_atom_site_fract_z
N1 N 0.42930(10) 0.1197(3) 0.7627(2)
C1 C 0.46663(11) 0.2567(3) 0.7323(2)
C2 C 0.42675(10) 0.3907(3) 0.6610(2)
C3 C 0.43988(12) 0.5537(4) 0.6031(3)
H1 H 0.4816 0.5890 0.6123
C4 C 0.39259(13) 0.6613(4) 0.5338(3)
H2 H 0.4017 0.7724 0.4946
C5 C 0.33040(13) 0.6128(4) 0.5182(3)
H3 H 0.2980 0.6902 0.4686
C6 C 0.31652(12) 0.4536(4) 0.5748(3)
H4 H 0.2745 0.4208 0.5651
C7 C 0.36443(11) 0.3394(4) 0.6468(2)
C8 C 0.36606(11) 0.1669(4) 0.7105(2)
C9 C 0.32059(12) 0.0486(4) 0.7322(3)
H5 H 0.2780 0.0788 0.6975
C10 C 0.33752(13) -0.1099(4) 0.8032(3)
H6 H 0.3066 -0.1902 0.8177
C11 C 0.40064(13) -0.1554(4) 0.8552(3)
H7 H 0.4117 -0.2667 0.9042
C12 C 0.44584(13) -0.0435(4) 0.8367(2)
H8 H 0.4882 -0.0750 0.8733
N1A N 0.57070(10) 0.1197(3) 0.7373(2)
C1A C 0.53337(11) 0.2567(3) 0.7677(2)
C2A C 0.57325(10) 0.3907(3) 0.8390(2)
C3A C 0.56012(12) 0.5537(4) 0.8969(3)
H1A H 0.5184 0.5890 0.8877
C4A C 0.60741(13) 0.6613(4) 0.9662(3)
H2A H 0.5983 0.7724 1.0054
C5A C 0.66960(13) 0.6128(4) 0.9818(3)
H3A H 0.7020 0.6902 1.0314
C6A C 0.68348(12) 0.4536(4) 0.9252(3)
H4A H 0.7255 0.4208 0.9349
C7A C 0.63557(11) 0.3394(4) 0.8532(2)
C8A C 0.63394(11) 0.1669(4) 0.7895(2)
C9A C 0.67941(12) 0.0486(4) 0.7678(3)
H5A H 0.7220 0.0788 0.8025
C10A C 0.66248(13) -0.1099(4) 0.6968(3)
H6A H 0.6934 -0.1902 0.6823
C11A C 0.59936(13) -0.1554(4) 0.6448(3)
H7A H 0.5883 -0.2667 0.5958
C12A C 0.55416(13) -0.0435(4) 0.6633(2)
H8A H 0.5118 -0.0750 0.6267
loop_
_geom_bond_atom_site_label_1
_geom_bond_atom_site_label_2
_geom_bond_site_symmetry_1
_geom_bond_site_symmetry_2
N1 C1 1_555 1_555
C1 C2 1_555 1_555
C2 C3 1_555 1_555
C3 H1 1_555 1_555
C4 C3 1_555 1_555
H2 C4 1_555 1_555
C5 C4 1_555 1_555
H3 C5 1_555 1_555
C6 C5 1_555 1_555
H4 C6 1_555 1_555
C7 C2 1_555 1_555
C8 N1 1_555 1_555
C9 C8 1_555 1_555
H5 C9 1_555 1_555
C10 C9 1_555 1_555
H6 C10 1_555 1_555
C11 C10 1_555 1_555
H7 C11 1_555 1_555
C12 N1 1_555 1_555
H8 C12 1_555 1_555
N1A C1A 1_555 1_555
C1A C1 1_555 1_555
C2A C1A 1_555 1_555
C3A C2A 1_555 1_555
H1A C3A 1_555 1_555
C4A C3A 1_555 1_555
H2A C4A 1_555 1_555
C5A C4A 1_555 1_555
H3A C5A 1_555 1_555
C6A C5A 1_555 1_555
H4A C6A 1_555 1_555
C7A C2A 1_555 1_555
C8A N1A 1_555 1_555
C9A C8A 1_555 1_555
H5A C9A 1_555 1_555
C10A C9A 1_555 1_555
H6A C10A 1_555 1_555
C11A C10A 1_555 1_555
H7A C11A 1_555 1_555
C12A N1A 1_555 1_555
H8A C12A 1_555 1_555
C6 C7 1_555 1_555
C7 C8 1_555 1_555
C11 C12 1_555 1_555
C6A C7A 1_555 1_555
C7A C8A 1_555 1_555
C11A C12A 1_555 1_555

#END
