
#######################################################################
#
#                 Cambridge Crystallographic Data Centre
#                                CCDC 
#
#######################################################################
#
# If this CIF has been generated from an entry in the Cambridge 
# Structural Database, then it will include bibliographic, chemical, 
# crystal, experimental, refinement or atomic coordinate data resulting 
# from the CCDC's data processing and validation procedures.
#
#######################################################################

data_ECIBEA
_chemical_name_common            
'[6-(diphenylphosphanyl)pyrido[2,1-a]isoindole](trihydrido)boron'
_chemical_formula_moiety         'C24 H21 B1 N1 P1'
_chemical_name_systematic        
6-[(boranyl)(diphenyl)-phosphanyl]pyrido[2,1-a]isoindole
_symmetry_cell_setting           triclinic
_symmetry_space_group_name_H-M   'P -1'
_symmetry_Int_Tables_number      2
_space_group_name_Hall           '-P 1'
loop_
_symmetry_equiv_pos_site_id
_symmetry_equiv_pos_as_xyz
1 x,y,z
2 -x,-y,-z
_cell_length_a                   9.4552(2)
_cell_length_b                   10.4469(2)
_cell_length_c                   11.7119(2)
_cell_angle_alpha                90.9360(10)
_cell_angle_beta                 109.7210(10)
_cell_angle_gamma                114.8320(10)
_cell_volume                     971.271
_exptl_crystal_colour            colorless
_exptl_crystal_description       block
_cell_formula_units_Z            2
loop_
_atom_site_label
_atom_site_type_symbol
_atom_site_fract_x
_atom_site_fract_y
_atom_site_fract_z
P1 P 0.04832(4) 0.22643(4) 0.74400(3)
B1 B -0.1236(2) 0.06674(17) 0.61330(15)
H1 H -0.0994 0.0785 0.5380
H2 H -0.2337 0.0636 0.5977
H3 H -0.1250 -0.0229 0.6378
N1 N -0.03418(14) 0.44292(12) 0.66495(10)
C1 C 0.09390(16) 0.40142(14) 0.70937(12)
C2 C 0.24325(17) 0.51946(14) 0.71277(12)
C3 C 0.41356(17) 0.54524(15) 0.74796(13)
H4 H 0.4465 0.4736 0.7765
C4 C 0.52955(19) 0.67536(17) 0.74003(14)
H5 H 0.6437 0.6931 0.7647
C5 C 0.4853(2) 0.78378(17) 0.69649(15)
H6 H 0.5692 0.8722 0.6917
C6 C 0.3232(2) 0.76244(16) 0.66134(14)
H7 H 0.2930 0.8353 0.6321
C7 C 0.20117(18) 0.63047(15) 0.66908(12)
C8 C 0.02751(18) 0.58128(14) 0.63924(12)
C9 C -0.08165(19) 0.64335(16) 0.59542(13)
H8 H -0.0408 0.7370 0.5765
C10 C -0.2468(2) 0.56895(18) 0.58007(14)
H9 H -0.3214 0.6105 0.5508
C11 C -0.30555(19) 0.43040(18) 0.60790(14)
H10 H -0.4205 0.3788 0.5974
C12 C -0.20128(17) 0.36884(16) 0.64951(14)
H11 H -0.2432 0.2750 0.6679
C13 C 0.24760(17) 0.21977(14) 0.79150(13)
C14 C 0.28296(19) 0.16184(15) 0.70287(15)
H12 H 0.2026 0.1254 0.6205
C15 C 0.4359(2) 0.15757(17) 0.73529(18)
H13 H 0.4605 0.1185 0.6749
C16 C 0.5527(2) 0.20978(19) 0.85498(18)
H14 H 0.6578 0.2076 0.8763
C17 C 0.5173(2) 0.26514(19) 0.94376(17)
H15 H 0.5971 0.2993 1.0264
C18 C 0.36535(19) 0.27094(16) 0.91244(14)
H16 H 0.3414 0.3098 0.9734
C19 C -0.00154(16) 0.22146(15) 0.88101(12)
C20 C 0.0599(2) 0.34451(17) 0.96717(14)
H17 H 0.1287 0.4356 0.9543
C21 C 0.0206(2) 0.3343(2) 1.07181(15)
H18 H 0.0639 0.4183 1.1308
C22 C -0.0807(2) 0.2027(2) 1.09043(15)
H19 H -0.1077 0.1962 1.1619
C23 C -0.1430(2) 0.08074(18) 1.00541(15)
H20 H -0.2134 -0.0098 1.0182
C24 C -0.10326(18) 0.08941(16) 0.90117(14)
H21 H -0.1458 0.0047 0.8433
loop_
_geom_bond_atom_site_label_1
_geom_bond_atom_site_label_2
_geom_bond_site_symmetry_1
_geom_bond_site_symmetry_2
P1 B1 1_555 1_555
B1 H1 1_555 1_555
H2 B1 1_555 1_555
H3 B1 1_555 1_555
N1 C1 1_555 1_555
C1 P1 1_555 1_555
C2 C1 1_555 1_555
C3 C2 1_555 1_555
H4 C3 1_555 1_555
C4 C3 1_555 1_555
H5 C4 1_555 1_555
C5 C4 1_555 1_555
H6 C5 1_555 1_555
C6 C5 1_555 1_555
H7 C6 1_555 1_555
C7 C2 1_555 1_555
C8 N1 1_555 1_555
C9 C8 1_555 1_555
H8 C9 1_555 1_555
C10 C9 1_555 1_555
H9 C10 1_555 1_555
C11 C10 1_555 1_555
H10 C11 1_555 1_555
C12 N1 1_555 1_555
H11 C12 1_555 1_555
C13 P1 1_555 1_555
C14 C13 1_555 1_555
H12 C14 1_555 1_555
C15 C14 1_555 1_555
H13 C15 1_555 1_555
C16 C15 1_555 1_555
H14 C16 1_555 1_555
C17 C16 1_555 1_555
H15 C17 1_555 1_555
C18 C13 1_555 1_555
H16 C18 1_555 1_555
C19 P1 1_555 1_555
C20 C19 1_555 1_555
H17 C20 1_555 1_555
C21 C20 1_555 1_555
H18 C21 1_555 1_555
C22 C21 1_555 1_555
H19 C22 1_555 1_555
C23 C22 1_555 1_555
H20 C23 1_555 1_555
C24 C19 1_555 1_555
H21 C24 1_555 1_555
C6 C7 1_555 1_555
C7 C8 1_555 1_555
C11 C12 1_555 1_555
C17 C18 1_555 1_555
C23 C24 1_555 1_555

#END
