
#######################################################################
#
#                 Cambridge Crystallographic Data Centre
#                                CCDC 
#
#######################################################################
#
# If this CIF has been generated from an entry in the Cambridge 
# Structural Database, then it will include bibliographic, chemical, 
# crystal, experimental, refinement or atomic coordinate data resulting 
# from the CCDC's data processing and validation procedures.
#
#######################################################################

data_ECIFUT
_chemical_name_common            
2,13-bis(3-Chlorophenyl)tetrathia[22]annulene[2.1.2.1]
_chemical_formula_moiety         'C34 H20 Cl2 S4'
_chemical_name_systematic        
2,13-bis(3-Chlorophenyl)-23,24,25,26-tetrathiapentacyclo[18.2.1.1^3,6^.1^9,12^.1^14,17^]hexacosa-1,3,5,7,9,11,13,15,17,19,21-undecaene
_symmetry_cell_setting           orthorhombic
_symmetry_space_group_name_H-M   'F d d 2'
_symmetry_Int_Tables_number      43
_space_group_name_Hall           'F 2 -2d'
loop_
_symmetry_equiv_pos_site_id
_symmetry_equiv_pos_as_xyz
1 x,y,z
2 -x,-y,z
3 1/4+x,1/4-y,1/4+z
4 1/4-x,1/4+y,1/4+z
5 x,1/2+y,1/2+z
6 -x,1/2-y,1/2+z
7 1/4+x,3/4-y,3/4+z
8 1/4-x,3/4+y,3/4+z
9 1/2+x,y,1/2+z
10 1/2-x,-y,1/2+z
11 3/4+x,1/4-y,3/4+z
12 3/4-x,1/4+y,3/4+z
13 1/2+x,1/2+y,z
14 1/2-x,1/2-y,z
15 3/4+x,3/4-y,1/4+z
16 3/4-x,3/4+y,1/4+z
_cell_length_a                   60.299(6)
_cell_length_b                   19.5214(15)
_cell_length_c                   9.5973(8)
_cell_angle_alpha                90
_cell_angle_beta                 90
_cell_angle_gamma                90
_cell_volume                     11297.2
_exptl_crystal_colour            black
_exptl_crystal_description       block
_cell_formula_units_Z            16
_exptl_crystal_recrystallization_method dichloromethane/toluene
loop_
_atom_site_label
_atom_site_type_symbol
_atom_site_fract_x
_atom_site_fract_y
_atom_site_fract_z
S1 S 0.113642(14) 0.37324(5) 0.91723(11)
S2 S 0.184951(14) 0.33268(5) 0.90660(11)
S3 S 0.145561(15) 0.31985(5) 0.69777(11)
S4 S 0.152939(15) 0.39138(6) 1.12089(10)
Cl1 Cl 0.26458(2) 0.34249(9) 1.49820(19)
Cl2 Cl 0.03607(2) 0.42986(8) 0.35524(18)
C1 C 0.09336(6) 0.3904(2) 1.0407(5)
C2 C 0.07237(7) 0.3775(2) 0.9809(5)
H1 H 0.0589 0.3838 1.0307
C3 C 0.07289(6) 0.3555(2) 0.8470(5)
H2 H 0.0599 0.3451 0.7954
C4 C 0.09426(6) 0.34941(19) 0.7910(5)
C5 C 0.09968(6) 0.32730(18) 0.6566(5)
C6 C 0.08050(6) 0.3165(2) 0.5599(5)
C7 C 0.06835(6) 0.3715(2) 0.5097(5)
H3 H 0.0721 0.4169 0.5364
C8 C 0.05068(6) 0.3599(2) 0.4202(5)
C9 C 0.04460(7) 0.2954(3) 0.3802(6)
H4 H 0.0324 0.2883 0.3195
C10 C 0.05682(9) 0.2404(3) 0.4309(6)
H5 H 0.0529 0.1951 0.4045
C11 C 0.07447(8) 0.2503(2) 0.5183(6)
H6 H 0.0827 0.2120 0.5509
C12 C 0.12097(6) 0.31410(18) 0.6021(5)
C13 C 0.12608(7) 0.2938(2) 0.4658(5)
H7 H 0.1152 0.2883 0.3954
C14 C 0.14810(7) 0.2825(2) 0.4432(5)
H8 H 0.1537 0.2680 0.3554
C15 C 0.16194(7) 0.2936(2) 0.5582(5)
C16 C 0.18499(7) 0.2850(2) 0.5536(5)
H9 H 0.1898 0.2704 0.4642
C17 C 0.20254(6) 0.2921(2) 0.6447(5)
H10 H 0.2163 0.2811 0.6019
C18 C 0.20531(6) 0.31158(19) 0.7848(5)
C19 C 0.22626(6) 0.3210(2) 0.8462(6)
H11 H 0.2397 0.3100 0.7993
C20 C 0.22593(6) 0.3468(2) 0.9773(5)
H12 H 0.2390 0.3558 1.0291
C21 C 0.20435(6) 0.3593(2) 1.0305(5)
C22 C 0.19909(6) 0.3919(2) 1.1558(5)
C23 C 0.21852(6) 0.4165(2) 1.2416(5)
C24 C 0.23068(7) 0.3722(3) 1.3219(6)
H13 H 0.2268 0.3250 1.3275
C25 C 0.24914(7) 0.3985(3) 1.3968(5)
C26 C 0.25502(7) 0.4655(3) 1.3886(6)
H14 H 0.2677 0.4819 1.4373
C27 C 0.24256(8) 0.5091(3) 1.3097(6)
H15 H 0.2465 0.5561 1.3044
C28 C 0.22424(7) 0.4857(2) 1.2373(5)
H16 H 0.2155 0.5168 1.1844
C29 C 0.17796(6) 0.4090(2) 1.2067(5)
C30 C 0.17314(7) 0.4439(3) 1.3311(5)
H17 H 0.1843 0.4583 1.3944
C31 C 0.15105(8) 0.4553(3) 1.3535(5)
H18 H 0.1457 0.4781 1.4343
C32 C 0.13680(7) 0.4310(2) 1.2489(5)
C33 C 0.11373(7) 0.4355(2) 1.2577(5)
H19 H 0.1090 0.4571 1.3413
C34 C 0.09596(6) 0.4163(2) 1.1746(5)
H20 H 0.0821 0.4223 1.2206
loop_
_geom_bond_atom_site_label_1
_geom_bond_atom_site_label_2
_geom_bond_site_symmetry_1
_geom_bond_site_symmetry_2
S1 C1 1_555 1_555
S2 C18 1_555 1_555
S3 C12 1_555 1_555
S4 C29 1_555 1_555
Cl1 C25 1_555 1_555
Cl2 C8 1_555 1_555
C1 C2 1_555 1_555
C2 H1 1_555 1_555
C3 C2 1_555 1_555
H2 C3 1_555 1_555
C4 S1 1_555 1_555
C5 C4 1_555 1_555
C6 C5 1_555 1_555
C7 C6 1_555 1_555
H3 C7 1_555 1_555
C8 C7 1_555 1_555
C9 C8 1_555 1_555
H4 C9 1_555 1_555
C10 C9 1_555 1_555
H5 C10 1_555 1_555
C11 C6 1_555 1_555
H6 C11 1_555 1_555
C12 C5 1_555 1_555
C13 C12 1_555 1_555
H7 C13 1_555 1_555
C14 C13 1_555 1_555
H8 C14 1_555 1_555
C15 S3 1_555 1_555
C16 C15 1_555 1_555
H9 C16 1_555 1_555
C17 C16 1_555 1_555
H10 C17 1_555 1_555
C18 C17 1_555 1_555
C19 C18 1_555 1_555
H11 C19 1_555 1_555
C20 C19 1_555 1_555
H12 C20 1_555 1_555
C21 S2 1_555 1_555
C22 C21 1_555 1_555
C23 C22 1_555 1_555
C24 C23 1_555 1_555
H13 C24 1_555 1_555
C25 C24 1_555 1_555
C26 C25 1_555 1_555
H14 C26 1_555 1_555
C27 C26 1_555 1_555
H15 C27 1_555 1_555
C28 C23 1_555 1_555
H16 C28 1_555 1_555
C29 C22 1_555 1_555
C30 C29 1_555 1_555
H17 C30 1_555 1_555
C31 C30 1_555 1_555
H18 C31 1_555 1_555
C32 S4 1_555 1_555
C33 C32 1_555 1_555
H19 C33 1_555 1_555
C34 C1 1_555 1_555
H20 C34 1_555 1_555
C3 C4 1_555 1_555
C10 C11 1_555 1_555
C14 C15 1_555 1_555
C20 C21 1_555 1_555
C27 C28 1_555 1_555
C31 C32 1_555 1_555
C33 C34 1_555 1_555

#END
