
#######################################################################
#
#                 Cambridge Crystallographic Data Centre
#                                CCDC 
#
#######################################################################
#
# If this CIF has been generated from an entry in the Cambridge 
# Structural Database, then it will include bibliographic, chemical, 
# crystal, experimental, refinement or atomic coordinate data resulting 
# from the CCDC's data processing and validation procedures.
#
#######################################################################

data_ECIJOQ
_chemical_compound_source        'fruits of Tribulus terrestris'
_chemical_name_common            
'7-Hydroxy-3,3a-dihydro-5H-pyrrolo(1,2-a)(3,1)benzoxazin-1(2H)-one hemihydrate'
_chemical_formula_moiety         'C11 H11 N1 O3,0.5(H2 O1)'
_chemical_name_systematic        'Terresoxazine hemihydrate'
_chemical_properties_biological  
'used in Chinese folk medicine to treat eye trouble, oedema, abdominal distention and to promote blood circulation'
_symmetry_cell_setting           monoclinic
_symmetry_space_group_name_H-M   'C 2/c'
_symmetry_Int_Tables_number      15
_space_group_name_Hall           '-C 2yn'
loop_
_symmetry_equiv_pos_site_id
_symmetry_equiv_pos_as_xyz
1 x,y,z
2 -x,y,1/2-z
3 1/2+x,1/2+y,z
4 1/2-x,1/2+y,1/2-z
5 -x,-y,-z
6 x,-y,1/2+z
7 1/2-x,1/2-y,-z
8 1/2+x,1/2-y,1/2+z
_cell_length_a                   12.435(5)
_cell_length_b                   9.134(4)
_cell_length_c                   17.646(6)
_cell_angle_alpha                90
_cell_angle_beta                 92.72(3)
_cell_angle_gamma                90
_cell_volume                     2002
_exptl_crystal_colour            colorless
_exptl_crystal_description       prismatic
_chemical_melting_point          194-196deg.C
_cell_formula_units_Z            8
loop_
_atom_site_label
_atom_site_type_symbol
_atom_site_fract_x
_atom_site_fract_y
_atom_site_fract_z
O1 O 0.9707(2) 0.2595(2) 0.6177(1)
O2 O 0.7365(2) 0.5547(3) 0.4894(1)
O3 O 0.8556(2) 0.1028(3) 0.2597(1)
N1 N 0.8828(2) 0.4101(2) 0.5318(1)
C1 C 0.9224(2) 0.3741(3) 0.6020(2)
C2 C 0.9006(3) 0.4965(3) 0.6554(2)
C3 C 0.8261(3) 0.6006(3) 0.6106(2)
C4 C 0.8351(3) 0.5573(3) 0.5285(2)
C5 C 0.8810(2) 0.3264(3) 0.4639(1)
C6 C 0.8138(2) 0.3784(3) 0.4037(2)
C7 C 0.7494(3) 0.5166(4) 0.4109(2)
C8 C 0.9397(2) 0.1994(3) 0.4556(2)
C9 C 0.9335(2) 0.1235(3) 0.3877(2)
C10 C 0.8673(2) 0.1752(3) 0.3274(2)
C11 C 0.8094(2) 0.3025(4) 0.3362(2)
H1 H 0.9708 0.5398 0.6768
H2 H 0.8610 0.4502 0.7032
H3 H 0.8537 0.6984 0.6215
H4 H 0.7549 0.5971 0.6279
H5 H 0.8939 0.6221 0.4970
H6 H 0.7817 0.6101 0.3813
H7 H 0.6692 0.4917 0.3898
H8 H 0.9892 0.1729 0.5017
H9 H 0.9761 0.0293 0.3836
H10 H 0.7637 0.3353 0.2975
H11 H 0.9229 0.0500 0.2560
O4 O 1.0000 -0.1211(3) 0.2500
H12 H 1.0070 -0.1715 0.2897
H13 H 0.9930 -0.1715 0.2103
loop_
_geom_bond_atom_site_label_1
_geom_bond_atom_site_label_2
_geom_bond_site_symmetry_1
_geom_bond_site_symmetry_2
O1 C1 1_555 1_555
O2 C4 1_555 1_555
O3 C10 1_555 1_555
N1 C1 1_555 1_555
C1 C2 1_555 1_555
C2 C3 1_555 1_555
C3 C4 1_555 1_555
C4 N1 1_555 1_555
C5 N1 1_555 1_555
C6 C5 1_555 1_555
C7 O2 1_555 1_555
C8 C5 1_555 1_555
C9 C8 1_555 1_555
C10 C9 1_555 1_555
C11 C6 1_555 1_555
H1 C2 1_555 1_555
H2 C2 1_555 1_555
H3 C3 1_555 1_555
H4 C3 1_555 1_555
H5 C4 1_555 1_555
H6 C7 1_555 1_555
H7 C7 1_555 1_555
H8 C8 1_555 1_555
H9 C9 1_555 1_555
H10 C11 1_555 1_555
H11 O3 1_555 1_555
O4 H12 1_555 1_555
H13 O4 1_555 1_555
C6 C7 1_555 1_555
C10 C11 1_555 1_555

#END
