
#######################################################################
#
#                 Cambridge Crystallographic Data Centre
#                                CCDC 
#
#######################################################################
#
# If this CIF has been generated from an entry in the Cambridge 
# Structural Database, then it will include bibliographic, chemical, 
# crystal, experimental, refinement or atomic coordinate data resulting 
# from the CCDC's data processing and validation procedures.
#
#######################################################################

data_ECIJAD
_chemical_formula_moiety         'C24 H18 Br1 N1 O2 S1'
_chemical_name_systematic        
(S)-N-(5-(4-Bromophenyl)-1-phenylpenta-2,4-diyn-1-yl)-4-methylbenzenesulfonamide
_symmetry_cell_setting           monoclinic
_symmetry_space_group_name_H-M   'P 21/c'
_symmetry_Int_Tables_number      14
_space_group_name_Hall           '-P 2ybc'
loop_
_symmetry_equiv_pos_site_id
_symmetry_equiv_pos_as_xyz
1 x,y,z
2 -x,1/2+y,1/2-z
3 -x,-y,-z
4 x,1/2-y,1/2+z
_cell_length_a                   5.141(3)
_cell_length_b                   14.936(9)
_cell_length_c                   31.333(18)
_cell_angle_alpha                90
_cell_angle_beta                 91.688(7)
_cell_angle_gamma                90
_cell_volume                     2404.89
_exptl_crystal_colour            colorless
_exptl_crystal_description       needle
_chemical_melting_point          '83-87 deg.C'
_cell_formula_units_Z            4
_exptl_crystal_recrystallization_method 'ethyl acetate/petroleum ether'
loop_
_atom_site_label
_atom_site_type_symbol
_atom_site_fract_x
_atom_site_fract_y
_atom_site_fract_z
C1 C -0.6266(12) 0.1167(4) 0.53188(19)
C2 C -0.4343(15) 0.1725(5) 0.54441(19)
H1 H -0.3850 0.1767 0.5731
C3 C -0.3091(14) 0.2241(5) 0.5143(2)
H2 H -0.1773 0.2633 0.5230
C4 C -0.3793(11) 0.2174(4) 0.47175(17)
C5 C -0.5812(13) 0.1584(5) 0.46020(19)
H3 H -0.6302 0.1516 0.4316
C6 C -0.7061(15) 0.1111(5) 0.4906(2)
H4 H -0.8467 0.0748 0.4828
C7 C -0.2419(12) 0.2675(4) 0.44007(19)
C8 C -0.1224(13) 0.3108(4) 0.41561(18)
C9 C 0.0134(11) 0.3642(4) 0.38711(18)
C10 C 0.1276(10) 0.4120(4) 0.36396(17)
C11 C 0.2617(8) 0.4741(3) 0.33536(15)
H5 H 0.4489 0.4662 0.3409
C12 C 0.2014(9) 0.5715(3) 0.34319(15)
C13 C 0.0060(12) 0.5985(4) 0.3699(2)
H6 H -0.0893 0.5566 0.3849
C14 C -0.0449(16) 0.6901(5) 0.3740(3)
H7 H -0.1801 0.7085 0.3910
C15 C 0.0987(17) 0.7530(4) 0.3537(2)
H8 H 0.0638 0.8136 0.3571
C16 C 0.2918(16) 0.7256(4) 0.3288(2)
H9 H 0.3926 0.7678 0.3150
C17 C 0.3411(12) 0.6369(4) 0.32350(19)
H10 H 0.4748 0.6201 0.3058
C18 C 0.3569(7) 0.2765(3) 0.28306(13)
C19 C 0.5159(9) 0.2426(3) 0.31554(17)
H11 H 0.6535 0.2764 0.3267
C20 C 0.4684(10) 0.1578(4) 0.33118(17)
H12 H 0.5746 0.1360 0.3534
C21 C 0.2694(10) 0.1040(3) 0.31522(15)
C22 C 0.1165(10) 0.1393(3) 0.2823(2)
H13 H -0.0185 0.1048 0.2706
C23 C 0.1579(9) 0.2236(4) 0.26616(17)
H14 H 0.0519 0.2452 0.2439
C24 C 0.2190(14) 0.0129(4) 0.3326(2)
H15 H 0.0510 -0.0074 0.3225
H16 H 0.2232 0.0152 0.3632
H17 H 0.3503 -0.0277 0.3232
N1 N 0.2106(6) 0.4528(2) 0.29012(12)
H18 H 0.0409 0.4514 0.2836
O1 O 0.3035(6) 0.3893(2) 0.22052(10)
O2 O 0.6603(5) 0.4123(2) 0.27467(12)
S1 S 0.39771(17) 0.38594(8) 0.26386(4)
Br1 Br -0.79786(17) 0.04960(6) 0.57434(2)
loop_
_geom_bond_atom_site_label_1
_geom_bond_atom_site_label_2
_geom_bond_site_symmetry_1
_geom_bond_site_symmetry_2
C1 C2 1_555 1_555
C2 H1 1_555 1_555
C3 C2 1_555 1_555
H2 C3 1_555 1_555
C4 C3 1_555 1_555
C5 C4 1_555 1_555
H3 C5 1_555 1_555
C6 C1 1_555 1_555
H4 C6 1_555 1_555
C7 C4 1_555 1_555
C8 C7 1_555 1_555
C9 C8 1_555 1_555
C10 C9 1_555 1_555
C11 C10 1_555 1_555
H5 C11 1_555 1_555
C12 C11 1_555 1_555
C13 C12 1_555 1_555
H6 C13 1_555 1_555
C14 C13 1_555 1_555
H7 C14 1_555 1_555
C15 C14 1_555 1_555
H8 C15 1_555 1_555
C16 C15 1_555 1_555
H9 C16 1_555 1_555
C17 C12 1_555 1_555
H10 C17 1_555 1_555
C18 C19 1_555 1_555
C19 H11 1_555 1_555
C20 C19 1_555 1_555
H12 C20 1_555 1_555
C21 C20 1_555 1_555
C22 C21 1_555 1_555
H13 C22 1_555 1_555
C23 C18 1_555 1_555
H14 C23 1_555 1_555
C24 C21 1_555 1_555
H15 C24 1_555 1_555
H16 C24 1_555 1_555
H17 C24 1_555 1_555
N1 C11 1_555 1_555
H18 N1 1_555 1_555
O1 S1 1_555 1_555
O2 S1 1_555 1_555
S1 C18 1_555 1_555
Br1 C1 1_555 1_555
C5 C6 1_555 1_555
C16 C17 1_555 1_555
C22 C23 1_555 1_555
N1 S1 1_555 1_555

#END
