
#######################################################################
#
#                 Cambridge Crystallographic Data Centre
#                                CCDC 
#
#######################################################################
#
# If this CIF has been generated from an entry in the Cambridge 
# Structural Database, then it will include bibliographic, chemical, 
# crystal, experimental, refinement or atomic coordinate data resulting 
# from the CCDC's data processing and validation procedures.
#
#######################################################################

data_ECILOT
_chemical_formula_moiety         'C19 H18 O3'
_chemical_name_systematic        
(E)-3-(2-(Allyloxy)phenyl)-1-(2-hydroxy-5-methylphenyl)prop-2-en-1-one
_symmetry_cell_setting           monoclinic
_symmetry_space_group_name_H-M   'P 21/c'
_symmetry_Int_Tables_number      14
_space_group_name_Hall           '-P 2ybc'
loop_
_symmetry_equiv_pos_site_id
_symmetry_equiv_pos_as_xyz
1 x,y,z
2 -x,1/2+y,1/2-z
3 -x,-y,-z
4 x,1/2-y,1/2+z
_cell_length_a                   14.8086(16)
_cell_length_b                   8.8273(10)
_cell_length_c                   12.8851(14)
_cell_angle_alpha                90
_cell_angle_beta                 108.871(2)
_cell_angle_gamma                90
_cell_volume                     1593.81
_exptl_crystal_colour            yellow
_chemical_melting_point          '166-167 deg.C'
_cell_formula_units_Z            4
loop_
_atom_site_label
_atom_site_type_symbol
_atom_site_fract_x
_atom_site_fract_y
_atom_site_fract_z
C1 C 0.40345(10) 0.72982(16) 0.33872(11)
O1 O 0.25915(9) 0.63950(17) 0.21542(9)
C2 C 0.28976(10) 0.55712(17) 0.39645(12)
H1 H 0.3343 0.5475 0.4661
C3 C 0.46825(10) 0.74039(17) 0.44591(12)
H2 H 0.4548 0.6882 0.5019
O2 O 0.36667(10) 0.80923(17) 0.15043(9)
H3 H 0.3185 0.7603 0.1460
C4 C 0.20439(10) 0.49438(17) 0.37500(12)
H4 H 0.1629 0.5059 0.3038
C5 C 0.31474(10) 0.64164(17) 0.31146(11)
C6 C 0.16777(10) 0.40941(17) 0.44993(12)
O3 O 0.01749(8) 0.42319(16) 0.31572(10)
C7 C 0.07023(11) 0.37185(19) 0.41688(13)
C8 C 0.42494(12) 0.80992(18) 0.25502(13)
C9 C 0.50824(14) 0.8938(2) 0.28031(16)
H5 H 0.5228 0.9459 0.2250
C10 C 0.55093(11) 0.82498(18) 0.47153(14)
C11 C 0.22556(12) 0.3608(2) 0.55305(14)
H6 H 0.2900 0.3860 0.5769
C12 C 0.56926(13) 0.9009(2) 0.38549(17)
H7 H 0.6247 0.9581 0.4002
C13 C 0.03392(13) 0.2877(2) 0.48532(17)
H8 H -0.0306 0.2629 0.4632
C14 C 0.61785(12) 0.8377(2) 0.58716(15)
H9 H 0.5937 0.7788 0.6350
H10 H 0.6229 0.9419 0.6097
H11 H 0.6797 0.8006 0.5906
C15 C 0.18917(15) 0.2763(2) 0.62025(16)
H12 H 0.2289 0.2433 0.6882
C16 C -0.08214(12) 0.3877(3) 0.27356(18)
H13 H -0.1146 0.4215 0.3238
H14 H -0.0915 0.2793 0.2628
C17 C 0.09349(16) 0.2410(3) 0.58595(17)
H15 H 0.0688 0.1848 0.6316
C18 C -0.11965(14) 0.4697(3) 0.1662(2)
H16 H -0.1134 0.5746 0.1680
C19 C -0.15907(18) 0.4094(4) 0.0732(2)
H17 H -0.1668 0.3049 0.0674
H18 H -0.1802 0.4697 0.0108
loop_
_geom_bond_atom_site_label_1
_geom_bond_atom_site_label_2
_geom_bond_site_symmetry_1
_geom_bond_site_symmetry_2
C1 C3 1_555 1_555
O1 C5 1_555 1_555
C2 H1 1_555 1_555
C3 H2 1_555 1_555
O2 H3 1_555 1_555
C4 C2 1_555 1_555
H4 C4 1_555 1_555
C5 C1 1_555 1_555
C6 C4 1_555 1_555
O3 C7 1_555 1_555
C7 C6 1_555 1_555
C8 C1 1_555 1_555
C9 C8 1_555 1_555
H5 C9 1_555 1_555
C10 C3 1_555 1_555
C11 C6 1_555 1_555
H6 C11 1_555 1_555
C12 C9 1_555 1_555
H7 C12 1_555 1_555
C13 C7 1_555 1_555
H8 C13 1_555 1_555
C14 C10 1_555 1_555
H9 C14 1_555 1_555
H10 C14 1_555 1_555
H11 C14 1_555 1_555
C15 C11 1_555 1_555
H12 C15 1_555 1_555
C16 O3 1_555 1_555
H13 C16 1_555 1_555
H14 C16 1_555 1_555
C17 C13 1_555 1_555
H15 C17 1_555 1_555
C18 C16 1_555 1_555
H16 C18 1_555 1_555
C19 C18 1_555 1_555
H17 C19 1_555 1_555
H18 C19 1_555 1_555
C2 C5 1_555 1_555
O2 C8 1_555 1_555
C10 C12 1_555 1_555
C15 C17 1_555 1_555

#END
