
#######################################################################
#
#                 Cambridge Crystallographic Data Centre
#                                CCDC 
#
#######################################################################
#
# If this CIF has been generated from an entry in the Cambridge 
# Structural Database, then it will include bibliographic, chemical, 
# crystal, experimental, refinement or atomic coordinate data resulting 
# from the CCDC's data processing and validation procedures.
#
#######################################################################

data_ECIMUY
_chemical_formula_moiety         'C12 H15 N1 O1'
_chemical_name_systematic        (E)-N-(p-Tolyl)-N-(prop-1-enyl)ethanamide
_symmetry_cell_setting           monoclinic
_symmetry_space_group_name_H-M   'P 21/m'
_symmetry_Int_Tables_number      11
_space_group_name_Hall           '-P 2yb'
loop_
_symmetry_equiv_pos_site_id
_symmetry_equiv_pos_as_xyz
1 x,y,z
2 x,1/2-y,z
3 -x,-y,-z
4 -x,1/2+y,-z
_cell_length_a                   10.632(2)
_cell_length_b                   6.8540(10)
_cell_length_c                   16.068(3)
_cell_angle_alpha                90
_cell_angle_beta                 106.35(3)
_cell_angle_gamma                90
_cell_volume                     1123.55
_exptl_crystal_colour            colorless
_exptl_crystal_description       plate
_cell_formula_units_Z            4
loop_
_atom_site_label
_atom_site_type_symbol
_atom_site_fract_x
_atom_site_fract_y
_atom_site_fract_z
N1 N 0.0916(3) 0.2500 0.2320(3)
C1 C 0.2169(4) 0.2500 0.2153(3)
C2 C 0.2758(3) 0.0770(5) 0.2059(2)
H1 H 0.2365 -0.0408 0.2128
O1 O -0.0285(3) 0.2500 0.3277(2)
C3 C 0.4547(4) 0.2500 0.1750(3)
C4 C 0.3947(3) 0.0786(5) 0.1858(2)
H2 H 0.4344 -0.0392 0.1796
C5 C 0.0782(4) 0.2500 0.3135(4)
C6 C 0.5819(4) 0.2500 0.1506(4)
H3 H 0.5634 0.2500 0.0885
H4 H 0.6315 0.1356 0.1738
H5 H 0.6315 0.3644 0.1738
C7 C 0.2028(4) 0.2500 0.3876(3)
H6 H 0.2772 0.2500 0.3648
H7 H 0.2052 0.1356 0.4225
H8 H 0.2052 0.3644 0.4225
C8 C -0.0202(4) 0.2500 0.1598(4)
H9 H -0.1013 0.2500 0.1712
C9 C -0.1387(5) 0.2500 0.0032(4)
H10 H -0.1125 0.2500 -0.0493
H11 H -0.1900 0.3644 0.0050
H12 H -0.1900 0.1356 0.0050
C10 C -0.0213(4) 0.2500 0.0785(4)
H13 H 0.0596 0.2500 0.0669
C4A C 0.3947(3) 0.4214(5) 0.1858(2)
C2A C 0.2758(3) 0.4230(5) 0.2059(2)
H1A H 0.2365 0.5408 0.2128
H2A H 0.4344 0.5392 0.1796
C11 C 0.1989(4) 0.2500 0.6643(3)
N2 N 0.0911(3) 0.2500 0.7019(3)
C12 C 0.4207(3) 0.2500 0.6054(3)
C13 C 0.2526(3) 0.0762(4) 0.64933(19)
H14 H 0.2153 -0.0416 0.6587
C14 C 0.3636(2) 0.0790(5) 0.61995(19)
H15 H 0.4002 -0.0388 0.6098
O2 O -0.1255(3) 0.2500 0.6882(2)
C15 C 0.5418(4) 0.2500 0.5748(3)
H16 H 0.5171 0.2500 0.5125
H17 H 0.5928 0.1356 0.5961
H18 H 0.5928 0.3644 0.5961
C16 C 0.1220(5) 0.2500 0.7927(4)
H19 H 0.0518 0.2500 0.8166
C17 C -0.0617(4) 0.2500 0.5571(4)
H20 H 0.0205 0.2500 0.5434
H21 H -0.1107 0.3644 0.5331
H22 H -0.1107 0.1356 0.5331
C18 C -0.0370(4) 0.2500 0.6538(4)
C19 C 0.2393(6) 0.2500 0.8471(4)
H23 H 0.3098 0.2500 0.8236
C20 C 0.2702(6) 0.2500 0.9433(4)
H24 H 0.3636 0.2500 0.9682
H25 H 0.2335 0.1356 0.9619
H26 H 0.2335 0.3644 0.9619
C14A C 0.3636(2) 0.4210(5) 0.61995(19)
C13A C 0.2526(3) 0.4238(4) 0.64933(19)
H14A H 0.2153 0.5416 0.6587
H15A H 0.4002 0.5388 0.6098
loop_
_geom_bond_atom_site_label_1
_geom_bond_atom_site_label_2
_geom_bond_site_symmetry_1
_geom_bond_site_symmetry_2
N1 C1 1_555 1_555
C1 C2 1_555 1_555
C2 H1 1_555 1_555
O1 C5 1_555 1_555
C3 C4 1_555 1_555
C4 C2 1_555 1_555
H2 C4 1_555 1_555
C5 N1 1_555 1_555
C6 C3 1_555 1_555
H3 C6 1_555 1_555
H4 C6 1_555 1_555
H5 C6 1_555 1_555
C7 C5 1_555 1_555
H6 C7 1_555 1_555
H7 C7 1_555 1_555
H8 C7 1_555 1_555
C8 N1 1_555 1_555
H9 C8 1_555 1_555
C9 H10 1_555 1_555
H11 C9 1_555 1_555
H12 C9 1_555 1_555
C10 C8 1_555 1_555
H13 C10 1_555 1_555
C11 N2 1_555 1_555
N2 C16 1_555 1_555
C12 C14 1_555 1_555
C13 C11 1_555 1_555
H14 C13 1_555 1_555
C14 C13 1_555 1_555
H15 C14 1_555 1_555
O2 C18 1_555 1_555
C15 C12 1_555 1_555
H16 C15 1_555 1_555
H17 C15 1_555 1_555
H18 C15 1_555 1_555
C16 H19 1_555 1_555
C17 H20 1_555 1_555
H21 C17 1_555 1_555
H22 C17 1_555 1_555
C18 N2 1_555 1_555
C19 C16 1_555 1_555
H23 C19 1_555 1_555
C20 C19 1_555 1_555
H24 C20 1_555 1_555
H25 C20 1_555 1_555
H26 C20 1_555 1_555
C4A C3 1_555 1_555
C2A C1 1_555 1_555
H1A C2A 1_555 1_555
H2A C4A 1_555 1_555
C14A C12 1_555 1_555
C13A C11 1_555 1_555
H14A C13A 1_555 1_555
H15A C14A 1_555 1_555
C9 C10 1_555 1_555
C17 C18 1_555 1_555
C4A C2A 1_555 1_555
C14A C13A 1_555 1_555

#END
