
#######################################################################
#
#                 Cambridge Crystallographic Data Centre
#                                CCDC 
#
#######################################################################
#
# If this CIF has been generated from an entry in the Cambridge 
# Structural Database, then it will include bibliographic, chemical, 
# crystal, experimental, refinement or atomic coordinate data resulting 
# from the CCDC's data processing and validation procedures.
#
#######################################################################

data_ECISER
_chemical_formula_moiety         'C27 H22 O2'
_chemical_name_systematic        
1-[3-([1,1'-biphenyl]-4-yl)-3-oxoprop-1-en-1-yl]-1,3-dimethylnaphthalen-2(1H)-one
_symmetry_cell_setting           monoclinic
_symmetry_space_group_name_H-M   'P 21'
_symmetry_Int_Tables_number      4
_space_group_name_Hall           'P 2yb'
loop_
_symmetry_equiv_pos_site_id
_symmetry_equiv_pos_as_xyz
1 x,y,z
2 -x,1/2+y,-z
_cell_length_a                   6.7287(3)
_cell_length_b                   36.9509(16)
_cell_length_c                   8.6433(5)
_cell_angle_alpha                90
_cell_angle_beta                 105.177(6)
_cell_angle_gamma                90
_cell_volume                     2074.04
_exptl_crystal_colour            colorless
_exptl_crystal_description       block
_cell_formula_units_Z            4
loop_
_atom_site_label
_atom_site_type_symbol
_atom_site_fract_x
_atom_site_fract_y
_atom_site_fract_z
O1 O 0.2564(4) 0.37138(7) 0.7736(4)
O2 O 0.7235(7) 0.34865(12) 0.9246(4)
C1 C 0.2025(5) 0.43354(8) 0.8012(4)
C2 C -0.0040(5) 0.49097(8) 0.9100(3)
C3 C -0.1115(5) 0.52101(9) 0.9689(4)
C4 C 0.3074(5) 0.40192(9) 0.7487(4)
C5 C 0.0469(5) 0.42698(9) 0.8749(5)
H1 H 0.0092 0.4032 0.8887
C6 C 0.1515(6) 0.49738(9) 0.8346(4)
H2 H 0.1886 0.5211 0.8198
C7 C -0.0533(6) 0.45487(10) 0.9284(5)
H3 H -0.1567 0.4495 0.9782
C8 C 0.4699(7) 0.40832(10) 0.6687(5)
H4 H 0.4969 0.4322 0.6471
C9 C 0.6009(7) 0.33224(11) 0.8200(6)
C10 C 0.2521(6) 0.46939(10) 0.7809(4)
H5 H 0.3549 0.4746 0.7304
C11 C -0.2809(7) 0.51462(11) 1.0266(5)
H6 H -0.3289 0.4911 1.0285
C12 C 0.5775(6) 0.34248(10) 0.6450(5)
C13 C 0.2957(6) 0.29570(13) 0.5789(9)
C14 C -0.3812(8) 0.54269(14) 1.0820(7)
H7 H -0.4944 0.5376 1.1211
C15 C 0.5830(7) 0.38270(11) 0.6241(6)
H8 H 0.6794 0.3910 0.5725
C16 C 0.3946(6) 0.32565(11) 0.5279(5)
C17 C 0.3549(10) 0.28445(13) 0.7448(10)
H9 H 0.2915 0.2640 0.7731
C18 C 0.7744(6) 0.32643(13) 0.6070(7)
H10 H 0.8949 0.3359 0.6815
H11 H 0.7763 0.3330 0.4999
H12 H 0.7731 0.3006 0.6163
C19 C -0.3165(9) 0.57711(13) 1.0797(7)
H13 H -0.3861 0.5959 1.1143
C20 C -0.0467(8) 0.55657(11) 0.9695(7)
H14 H 0.0667 0.5621 0.9313
C21 C 0.4906(11) 0.30096(13) 0.8564(8)
C22 C -0.1476(10) 0.58385(14) 1.0259(9)
H15 H -0.0993 0.6075 1.0272
C23 C 0.1627(15) 0.3172(3) 0.2643(11)
H16 H 0.1138 0.3247 0.1585
C24 C 0.3302(11) 0.3371(2) 0.3725(7)
H17 H 0.3908 0.3570 0.3368
C25 C 0.1416(10) 0.2777(2) 0.4673(16)
H18 H 0.0802 0.2577 0.5005
C26 C 0.0781(14) 0.2879(4) 0.3154(18)
H19 H -0.0246 0.2749 0.2441
C27 C 0.539(2) 0.2892(3) 1.0275(12)
H20 H 0.6765 0.2796 1.0589
H21 H 0.4433 0.2708 1.0395
H22 H 0.5292 0.3095 1.0940
O3 O 0.3603(4) 0.61270(7) 0.5923(4)
C28 C 0.3318(5) 0.55282(9) 0.4981(4)
C29 C 0.5154(5) 0.49035(9) 0.4058(4)
C30 C 0.6148(6) 0.45900(9) 0.3503(4)
C31 C 0.2470(5) 0.58736(10) 0.5417(5)
O4 O 0.1625(8) 0.62906(12) 0.8720(5)
C32 C 0.5352(6) 0.54434(11) 0.5680(5)
H23 H 0.6136 0.5595 0.6465
C33 C 0.2181(6) 0.52848(11) 0.3865(5)
H24 H 0.0785 0.5327 0.3421
C34 C 0.0783(6) 0.67617(10) 0.4893(5)
C35 C 0.6242(5) 0.51381(10) 0.5235(5)
H25 H 0.7613 0.5088 0.5737
C36 C 0.3079(6) 0.49857(11) 0.3410(5)
H26 H 0.2281 0.4832 0.2643
C37 C 0.3390(7) 0.67898(12) 0.8130(6)
C38 C 0.3627(6) 0.70167(10) 0.7004(6)
H27 H 0.4620 0.7197 0.7296
C39 C 0.2436(5) 0.70014(9) 0.5348(5)
C40 C 0.5061(7) 0.43646(11) 0.2285(5)
H28 H 0.3669 0.4407 0.1828
C41 C 0.8051(8) 0.40007(12) 0.2411(5)
H29 H 0.8673 0.3804 0.2056
C42 C 0.0223(6) 0.58953(11) 0.5235(7)
H30 H -0.0557 0.5690 0.4858
C43 C 0.0100(6) 0.65493(11) 0.6165(6)
C44 C 0.8213(6) 0.45112(12) 0.4149(5)
H31 H 0.8989 0.4657 0.4960
C45 C -0.0763(6) 0.61828(12) 0.5565(7)
H32 H -0.2176 0.6156 0.5407
C46 C 0.2983(7) 0.72170(12) 0.4213(7)
H33 H 0.4078 0.7378 0.4526
C47 C 0.6013(8) 0.40791(12) 0.1745(5)
H34 H 0.5257 0.3936 0.0911
C48 C 0.9149(7) 0.42207(14) 0.3616(6)
H35 H 1.0535 0.4174 0.4078
C49 C 0.1761(7) 0.65153(12) 0.7748(6)
C50 C -0.0279(8) 0.67447(16) 0.3295(7)
H36 H -0.1393 0.6588 0.2969
C51 C 0.0306(11) 0.69601(19) 0.2163(7)
H37 H -0.0408 0.6943 0.1088
C52 C -0.1654(8) 0.67694(14) 0.6601(8)
H38 H -0.1116 0.6996 0.7078
H39 H -0.2194 0.6634 0.7347
H40 H -0.2734 0.6814 0.5647
C53 C 0.1903(10) 0.71937(16) 0.2614(8)
H41 H 0.2274 0.7338 0.1854
C54 C 0.4797(11) 0.67832(18) 0.9793(7)
H42 H 0.5773 0.6590 0.9879
H43 H 0.4001 0.6746 1.0554
H44 H 0.5516 0.7010 1.0012
loop_
_geom_bond_atom_site_label_1
_geom_bond_atom_site_label_2
_geom_bond_site_symmetry_1
_geom_bond_site_symmetry_2
O1 C4 1_555 1_555
O2 C9 1_555 1_555
C1 C4 1_555 1_555
C2 C3 1_555 1_555
C3 C11 1_555 1_555
C4 C8 1_555 1_555
C5 C1 1_555 1_555
H1 C5 1_555 1_555
C6 C2 1_555 1_555
H2 C6 1_555 1_555
C7 C2 1_555 1_555
H3 C7 1_555 1_555
C8 H4 1_555 1_555
C9 C12 1_555 1_555
C10 C1 1_555 1_555
H5 C10 1_555 1_555
C11 H6 1_555 1_555
C12 C15 1_555 1_555
C13 C16 1_555 1_555
C14 C11 1_555 1_555
H7 C14 1_555 1_555
C15 C8 1_555 1_555
H8 C15 1_555 1_555
C16 C12 1_555 1_555
C17 C13 1_555 1_555
H9 C17 1_555 1_555
C18 C12 1_555 1_555
H10 C18 1_555 1_555
H11 C18 1_555 1_555
H12 C18 1_555 1_555
C19 C14 1_555 1_555
H13 C19 1_555 1_555
C20 C3 1_555 1_555
H14 C20 1_555 1_555
C21 C9 1_555 1_555
C22 C19 1_555 1_555
H15 C22 1_555 1_555
C23 H16 1_555 1_555
C24 C16 1_555 1_555
H17 C24 1_555 1_555
C25 C13 1_555 1_555
H18 C25 1_555 1_555
C26 C23 1_555 1_555
H19 C26 1_555 1_555
C27 C21 1_555 1_555
H20 C27 1_555 1_555
H21 C27 1_555 1_555
H22 C27 1_555 1_555
O3 C31 1_555 1_555
C28 C31 1_555 1_555
C29 C30 1_555 1_555
C30 C40 1_555 1_555
C31 C42 1_555 1_555
O4 C49 1_555 1_555
C32 C28 1_555 1_555
H23 C32 1_555 1_555
C33 C28 1_555 1_555
H24 C33 1_555 1_555
C34 C39 1_555 1_555
C35 C29 1_555 1_555
H25 C35 1_555 1_555
C36 C29 1_555 1_555
H26 C36 1_555 1_555
C37 C38 1_555 1_555
C38 H27 1_555 1_555
C39 C38 1_555 1_555
C40 H28 1_555 1_555
C41 H29 1_555 1_555
C42 H30 1_555 1_555
C43 C34 1_555 1_555
C44 C30 1_555 1_555
H31 C44 1_555 1_555
C45 C42 1_555 1_555
H32 C45 1_555 1_555
C46 C39 1_555 1_555
H33 C46 1_555 1_555
C47 C40 1_555 1_555
H34 C47 1_555 1_555
C48 C41 1_555 1_555
H35 C48 1_555 1_555
C49 C37 1_555 1_555
C50 C34 1_555 1_555
H36 C50 1_555 1_555
C51 C50 1_555 1_555
H37 C51 1_555 1_555
C52 C43 1_555 1_555
H38 C52 1_555 1_555
H39 C52 1_555 1_555
H40 C52 1_555 1_555
C53 C46 1_555 1_555
H41 C53 1_555 1_555
C54 C37 1_555 1_555
H42 C54 1_555 1_555
H43 C54 1_555 1_555
H44 C54 1_555 1_555
C5 C7 1_555 1_555
C6 C10 1_555 1_555
C17 C21 1_555 1_555
C20 C22 1_555 1_555
C23 C24 1_555 1_555
C25 C26 1_555 1_555
C32 C35 1_555 1_555
C33 C36 1_555 1_555
C41 C47 1_555 1_555
C43 C45 1_555 1_555
C43 C49 1_555 1_555
C44 C48 1_555 1_555
C51 C53 1_555 1_555

#END
