
#######################################################################
#
#                 Cambridge Crystallographic Data Centre
#                                CCDC 
#
#######################################################################
#
# If this CIF has been generated from an entry in the Cambridge 
# Structural Database, then it will include bibliographic, chemical, 
# crystal, experimental, refinement or atomic coordinate data resulting 
# from the CCDC's data processing and validation procedures.
#
#######################################################################

data_ECISUE
_chemical_formula_moiety         'C6 H4 Se3 Te1 1+,C12 H4 N4 1-'
_chemical_name_systematic        
'Triselenatellurafulvalene tetracyanoquinodimethane'
_symmetry_cell_setting           monoclinic
_symmetry_space_group_name_H-M   'P 21/c'
_symmetry_Int_Tables_number      14
_space_group_name_Hall           '-P 2ybc'
loop_
_symmetry_equiv_pos_site_id
_symmetry_equiv_pos_as_xyz
1 x,y,z
2 x,1/2-y,1/2+z
3 -x,-y,-z
4 -x,1/2+y,1/2-z
_cell_length_a                   12.633(3)
_cell_length_b                   3.901(3)
_cell_length_c                   18.557(2)
_cell_angle_alpha                90
_cell_angle_beta                 104.24(1)
_cell_angle_gamma                90
_cell_volume                     886.414
_exptl_crystal_colour            black
_exptl_crystal_description       prismatic
_cell_formula_units_Z            2
loop_
_atom_site_label
_atom_site_type_symbol
_atom_site_fract_x
_atom_site_fract_y
_atom_site_fract_z
N1 N -0.6110(3) -0.079(1) -0.3107(2)
N2 N -0.2591(3) -0.107(1) -0.3130(2)
C4 C -0.3932(3) 0.3973(10) -0.4689(2)
C5 C -0.5859(3) 0.410(1) -0.4684(2)
C6 C -0.4773(3) 0.298(1) -0.4334(2)
C7 C -0.4548(3) 0.0974(10) -0.3693(2)
C8 C -0.5402(3) -0.001(1) -0.3353(2)
C9 C -0.3466(3) -0.016(1) -0.3360(2)
H3 H -0.3207 0.3218 -0.4429
H4 H -0.6411 0.3498 -0.4453
C5B C -0.4141(3) 0.590(1) -0.5316(2)
C6B C -0.5227(3) 0.702(1) -0.5666(2)
C4B C -0.6068(3) 0.6027(10) -0.5311(2)
H3B H -0.6793 0.6782 -0.5571
C7B C -0.5452(3) 0.9026(10) -0.6307(2)
C8B C -0.4598(3) 1.001(1) -0.6647(2)
N1B N -0.3890(3) 1.079(1) -0.6893(2)
C9B C -0.6534(3) 1.016(1) -0.6640(2)
N2B N -0.7409(3) 1.107(1) -0.6870(2)
H4B H -0.3589 0.6502 -0.5547
Se1 Se -0.15863(3) 0.1932(1) -0.09098(2)
Se2 Se 0.10376(3) 0.1958(1) -0.08162(2)
C1 C -0.0104(3) 0.073(1) -0.0339(2)
C2 C 0.0016(3) 0.359(1) -0.1683(2)
C3 C -0.1033(3) 0.359(1) -0.1721(2)
H1 H 0.0344 0.4307 -0.2042
H2 H -0.1498 0.4367 -0.2113
C1B C 0.0104(3) -0.073(1) 0.0339(2)
Se1B Se 0.15863(3) -0.1932(1) 0.09098(2)
C3B C 0.1033(3) -0.359(1) 0.1721(2)
C2B C -0.0016(3) -0.359(1) 0.1683(2)
Se2B Se -0.10376(3) -0.1958(1) 0.08162(2)
H1B H -0.0344 -0.4307 0.2042
H2B H 0.1498 -0.4367 0.2113
loop_
_geom_bond_atom_site_label_1
_geom_bond_atom_site_label_2
_geom_bond_site_symmetry_1
_geom_bond_site_symmetry_2
Se1 C1 1_555 1_555
Se2 C1 1_555 1_555
N1 C8 1_555 1_555
N2 C9 1_555 1_555
C1 C1B 1_555 1_555
C2 Se2 1_555 1_555
C3 Se1 1_555 1_555
C4 C6 1_555 1_555
C5 C6 1_555 1_555
C6 C7 1_555 1_555
C7 C8 1_555 1_555
C9 C7 1_555 1_555
H1 C2 1_555 1_555
H2 C3 1_555 1_555
H3 C4 1_555 1_555
H4 C5 1_555 1_555
C1B Se1B 1_555 1_555
Se1B C3B 1_555 1_555
C3B C2B 1_555 1_555
C2B Se2B 1_555 1_555
Se2B C1B 1_555 1_555
H1B C2B 1_555 1_555
H2B C3B 1_555 1_555
C5B C4 1_555 1_555
C6B C5B 1_555 1_555
C4B C5 1_555 1_555
H3B C4B 1_555 1_555
C7B C6B 1_555 1_555
C8B C7B 1_555 1_555
N1B C8B 1_555 1_555
C9B C7B 1_555 1_555
N2B C9B 1_555 1_555
H4B C5B 1_555 1_555
C2 C3 1_555 1_555
C6B C4B 1_555 1_555

#END
