
#######################################################################
#
#                 Cambridge Crystallographic Data Centre
#                                CCDC 
#
#######################################################################
#
# If this CIF has been generated from an entry in the Cambridge 
# Structural Database, then it will include bibliographic, chemical, 
# crystal, experimental, refinement or atomic coordinate data resulting 
# from the CCDC's data processing and validation procedures.
#
#######################################################################

data_ECITAL
_chemical_formula_moiety         'C6 H4 Se2 Te2 1+,C12 H4 N4 1-'
_chemical_name_systematic        
'Diselenaditellurafulvalene tetracyanoquinodimethane'
_symmetry_cell_setting           triclinic
_symmetry_space_group_name_H-M   'P -1'
_symmetry_Int_Tables_number      2
_space_group_name_Hall           '-P 1'
loop_
_symmetry_equiv_pos_site_id
_symmetry_equiv_pos_as_xyz
1 x,y,z
2 -x,-y,-z
_cell_length_a                   7.271(3)
_cell_length_b                   16.735(9)
_cell_length_c                   3.876(2)
_cell_angle_alpha                96.38(5)
_cell_angle_beta                 98.17(4)
_cell_angle_gamma                87.04(4)
_cell_volume                     463.646
_exptl_crystal_colour            black
_exptl_crystal_description       needle
_cell_formula_units_Z            1
loop_
_atom_site_label
_atom_site_type_symbol
_atom_site_fract_x
_atom_site_fract_y
_atom_site_fract_z
Te1 Te -0.2863(1) 0.38614(4) 0.2028(2)
Se1 Se -0.7490(2) 0.42156(7) 0.0536(3)
C1 C -0.509(1) 0.4623(5) 0.050(3)
C2 C -0.479(2) 0.3021(6) 0.231(3)
C3 C -0.654(2) 0.3200(7) 0.174(3)
H1 H -0.4387 0.2507 0.2923
H2 H -0.7400 0.2798 0.1911
C1A C -0.491(1) 0.5377(5) -0.050(3)
Te1A Te -0.7137(1) 0.61386(4) -0.2028(2)
C2A C -0.521(2) 0.6979(6) -0.231(3)
C3A C -0.346(2) 0.6800(7) -0.174(3)
Se1A Se -0.2510(2) 0.57844(7) -0.0536(3)
H2A H -0.2600 0.7202 -0.1911
H1A H -0.5613 0.7493 -0.2923
N1 N 0.951(1) 0.2484(5) 0.512(3)
N2 N 1.476(1) 0.1224(6) 0.540(3)
C4 C 0.884(1) 0.0666(6) 0.916(3)
C5 C 1.074(1) 0.0621(5) 0.848(2)
C6 C 1.184(1) -0.0066(6) 0.935(3)
C7 C 1.143(1) 0.1238(6) 0.690(3)
C8 C 1.031(1) 0.1930(6) 0.589(3)
C9 C 1.329(1) 0.1219(6) 0.608(3)
H3 H 0.8056 0.1113 0.8538
H4 H 1.3082 -0.0125 0.8876
C6A C 0.816(1) 0.0066(6) 1.065(3)
C5A C 0.926(1) -0.0621(5) 1.152(2)
C4A C 1.116(1) -0.0666(6) 1.084(3)
H3A H 1.1944 -0.1113 1.1462
C7A C 0.857(1) -0.1238(6) 1.310(3)
C8A C 0.969(1) -0.1930(6) 1.411(3)
N1A N 1.049(1) -0.2484(5) 1.488(3)
C9A C 0.671(1) -0.1219(6) 1.392(3)
N2A N 0.524(1) -0.1224(6) 1.460(3)
H4A H 0.6918 0.0125 1.1124
loop_
_geom_bond_atom_site_label_1
_geom_bond_atom_site_label_2
_geom_bond_site_symmetry_1
_geom_bond_site_symmetry_2
Te1 C1 1_555 1_555
Se1 C1 1_555 1_555
N1 C8 1_555 1_555
N2 C9 1_555 1_555
C1 C1A 1_555 1_555
C2 Te1 1_555 1_555
C3 Se1 1_555 1_555
C4 C5 1_555 1_555
C5 C6 1_555 1_555
C6 H4 1_555 1_555
C7 C5 1_555 1_555
C8 C7 1_555 1_555
C9 C7 1_555 1_555
H1 C2 1_555 1_555
H2 C3 1_555 1_555
H3 C4 1_555 1_555
C1A Te1A 1_555 1_555
Te1A C2A 1_555 1_555
C2A C3A 1_555 1_555
C3A Se1A 1_555 1_555
Se1A C1A 1_555 1_555
H2A C3A 1_555 1_555
H1A C2A 1_555 1_555
C6A C4 1_555 1_555
C5A C6A 1_555 1_555
C4A C6 1_555 1_555
H3A C4A 1_555 1_555
C7A C5A 1_555 1_555
C8A C7A 1_555 1_555
N1A C8A 1_555 1_555
C9A C7A 1_555 1_555
N2A C9A 1_555 1_555
H4A C6A 1_555 1_555
C2 C3 1_555 1_555
C5A C4A 1_555 1_555

#END
