
#######################################################################
#
#                 Cambridge Crystallographic Data Centre
#                                CCDC 
#
#######################################################################
#
# If this CIF has been generated from an entry in the Cambridge 
# Structural Database, then it will include bibliographic, chemical, 
# crystal, experimental, refinement or atomic coordinate data resulting 
# from the CCDC's data processing and validation procedures.
#
#######################################################################

data_ECOBIK
_chemical_formula_moiety         'C21 H32 O7'
_chemical_name_systematic        
4a,5-dimethyl-3-(1-((3,4,5-trihydroxy-6-(hydroxymethyl)tetrahydro-2H-pyran-2-yl)oxy)propan-2-ylidene)-4,4a,5,6,7,8-hexahydronaphthalen-2(3H)-one
_symmetry_cell_setting           orthorhombic
_symmetry_space_group_name_H-M   'P 21 21 21'
_symmetry_Int_Tables_number      19
_space_group_name_Hall           'P 2ac 2ab'
loop_
_symmetry_equiv_pos_site_id
_symmetry_equiv_pos_as_xyz
1 x,y,z
2 1/2-x,-y,1/2+z
3 1/2+x,1/2-y,-z
4 -x,1/2+y,1/2-z
_cell_length_a                   7.1264(5)
_cell_length_b                   7.6320(9)
_cell_length_c                   37.822(3)
_cell_angle_alpha                90
_cell_angle_beta                 90
_cell_angle_gamma                90
_cell_volume                     2057.09
_exptl_crystal_colour            colorless
_exptl_crystal_description       block
_cell_formula_units_Z            4
loop_
_atom_site_label
_atom_site_type_symbol
_atom_site_fract_x
_atom_site_fract_y
_atom_site_fract_z
O1 O 0.0432(2) 0.0072(2) 0.14104(5)
O2 O 0.6028(2) 0.1611(2) 0.15392(4)
O3 O 0.5536(2) 0.43500(19) 0.17515(4)
O4 O 0.8880(2) 0.1042(2) 0.20454(4)
H1 H 0.9266 0.0543 0.1868
O5 O 1.0311(2) 0.4203(2) 0.23454(4)
H2 H 1.0416 0.4776 0.2528
O6 O 0.7133(2) 0.6530(2) 0.25464(4)
H3 H 0.8018 0.7191 0.2583
O7 O 0.2629(4) 0.6995(4) 0.18502(8)
H4 H 0.2220 0.6115 0.1948
C1 C 0.2381(3) -0.3673(3) 0.06909(6)
C2 C 0.0690(3) -0.3941(3) 0.09282(6)
C3 C 0.0050(3) -0.2679(3) 0.11393(7)
H5 H -0.1067 -0.2874 0.1260
C4 C 0.1008(3) -0.0998(3) 0.11921(6)
C5 C 0.2699(3) -0.0700(3) 0.09785(6)
C6 C 0.2678(3) -0.1692(3) 0.06356(6)
H6 H 0.3858 -0.1504 0.0514
H7 H 0.1681 -0.1238 0.0487
C7 C 0.2033(3) -0.4541(3) 0.03260(6)
H8 H 0.1028 -0.3871 0.0212
C8 C 0.1338(4) -0.6423(3) 0.03546(8)
H9 H 0.1107 -0.6884 0.0120
H10 H 0.2300 -0.7139 0.0465
C9 C -0.0437(5) -0.6528(4) 0.05694(8)
H11 H -0.0817 -0.7744 0.0592
H12 H -0.1431 -0.5902 0.0448
C10 C -0.0166(4) -0.5747(4) 0.09355(8)
H13 H -0.1373 -0.5688 0.1054
H14 H 0.0636 -0.6517 0.1073
C11 C 0.4138(3) 0.0311(3) 0.10898(6)
C12 C 0.4124(3) 0.1248(3) 0.14404(6)
H15 H 0.3422 0.2332 0.1421
H16 H 0.3530 0.0520 0.1618
C13 C 0.6167(3) 0.2639(3) 0.18422(6)
H17 H 0.5400 0.2149 0.2033
C14 C 0.8198(3) 0.2738(3) 0.19523(6)
H18 H 0.8948 0.3211 0.1757
C15 C 0.8361(3) 0.3934(3) 0.22695(6)
H19 H 0.7784 0.3348 0.2473
C16 C 0.7385(3) 0.5681(3) 0.22149(6)
H20 H 0.8151 0.6423 0.2060
C17 C 0.5442(3) 0.5462(3) 0.20541(6)
H21 H 0.4599 0.4940 0.2230
C18 C 0.3713(5) -0.4458(5) 0.00798(8)
H22 H 0.4109 -0.3262 0.0054
H23 H 0.3371 -0.4919 -0.0147
H24 H 0.4722 -0.5139 0.0177
C19 C 0.4116(3) -0.4438(4) 0.08771(7)
H25 H 0.5221 -0.4157 0.0743
H26 H 0.3992 -0.5688 0.0894
H27 H 0.4219 -0.3947 0.1110
C20 C 0.5877(4) 0.0570(4) 0.08709(7)
H28 H 0.6808 -0.0273 0.0939
H29 H 0.6355 0.1731 0.0908
H30 H 0.5577 0.0417 0.0625
C21 C 0.4633(4) 0.7179(3) 0.19288(8)
H31 H 0.4806 0.8063 0.2110
H32 H 0.5292 0.7560 0.1718
O8? O 0.6220(10) 0.7892(10) 0.1635(2)
H33? H 0.5750 0.8660 0.1512
H34? H 0.4499 0.7998 0.2123
H35? H 0.3419 0.7007 0.1818
loop_
_geom_bond_atom_site_label_1
_geom_bond_atom_site_label_2
_geom_bond_site_symmetry_1
_geom_bond_site_symmetry_2
O1 C4 1_555 1_555
O2 C12 1_555 1_555
O3 C13 1_555 1_555
O4 H1 1_555 1_555
O5 H2 1_555 1_555
O6 H3 1_555 1_555
O7 H4 1_555 1_555
C1 C2 1_555 1_555
C2 C3 1_555 1_555
C3 H5 1_555 1_555
C4 C3 1_555 1_555
C5 C4 1_555 1_555
C6 C1 1_555 1_555
H6 C6 1_555 1_555
H7 C6 1_555 1_555
C7 C1 1_555 1_555
H8 C7 1_555 1_555
C8 C7 1_555 1_555
H9 C8 1_555 1_555
H10 C8 1_555 1_555
C9 C8 1_555 1_555
H11 C9 1_555 1_555
H12 C9 1_555 1_555
C10 C2 1_555 1_555
H13 C10 1_555 1_555
H14 C10 1_555 1_555
C11 C5 1_555 1_555
C12 C11 1_555 1_555
H15 C12 1_555 1_555
H16 C12 1_555 1_555
C13 O2 1_555 1_555
H17 C13 1_555 1_555
C14 O4 1_555 1_555
H18 C14 1_555 1_555
C15 O5 1_555 1_555
H19 C15 1_555 1_555
C16 O6 1_555 1_555
H20 C16 1_555 1_555
C17 O3 1_555 1_555
H21 C17 1_555 1_555
C18 C7 1_555 1_555
H22 C18 1_555 1_555
H23 C18 1_555 1_555
H24 C18 1_555 1_555
C19 C1 1_555 1_555
H25 C19 1_555 1_555
H26 C19 1_555 1_555
H27 C19 1_555 1_555
C20 C11 1_555 1_555
H28 C20 1_555 1_555
H29 C20 1_555 1_555
H30 C20 1_555 1_555
C21 O7 1_555 1_555
H31 C21 1_555 1_555
H32 C21 1_555 1_555
C5 C6 1_555 1_555
C9 C10 1_555 1_555
C13 C14 1_555 1_555
C14 C15 1_555 1_555
C15 C16 1_555 1_555
C16 C17 1_555 1_555
C17 C21 1_555 1_555

#END
