
#######################################################################
#
#                 Cambridge Crystallographic Data Centre
#                                CCDC 
#
#######################################################################
#
# If this CIF has been generated from an entry in the Cambridge 
# Structural Database, then it will include bibliographic, chemical, 
# crystal, experimental, refinement or atomic coordinate data resulting 
# from the CCDC's data processing and validation procedures.
#
#######################################################################

data_ECOCEE
_chemical_formula_moiety         'C40 H30 Si1'
_chemical_name_systematic        
anti-2,3-Benzo-1,4,5,6,7-pentaphenyl-7-silanorbornadiene
_symmetry_cell_setting           monoclinic
_symmetry_space_group_name_H-M   'P 21/n'
_symmetry_Int_Tables_number      14
_space_group_name_Hall           '-P 2yn'
loop_
_symmetry_equiv_pos_site_id
_symmetry_equiv_pos_as_xyz
1 x,y,z
2 1/2+x,1/2-y,1/2+z
3 -x,-y,-z
4 1/2-x,1/2+y,1/2-z
_cell_length_a                   17.703(2)
_cell_length_b                   16.239(2)
_cell_length_c                   20.269(2)
_cell_angle_alpha                90
_cell_angle_beta                 92.180(10)
_cell_angle_gamma                90
_cell_volume                     5822.69
_exptl_crystal_colour            colorless
_exptl_crystal_description       prism
_chemical_melting_point          '512 K(dec)'
_cell_formula_units_Z            8
loop_
_atom_site_label
_atom_site_type_symbol
_atom_site_fract_x
_atom_site_fract_y
_atom_site_fract_z
Si1 Si 0.24016(6) 0.82685(6) 0.08401(4)
C1 C 0.18775(18) 0.7267(2) 0.10044(14)
C2 C 0.1363(2) 0.7249(2) 0.03785(15)
C3 C 0.17599(18) 0.7520(2) -0.01661(15)
C4 C 0.25817(19) 0.7754(2) 0.00172(14)
C5 C 0.29228(18) 0.6952(2) 0.03234(15)
C6 C 0.25392(18) 0.6690(2) 0.08510(15)
C7 C 0.1538(2) 0.7252(2) 0.16798(15)
C8 C 0.0824(2) 0.7591(2) 0.17794(16)
C9 C 0.0534(2) 0.7637(3) 0.24063(17)
C10 C 0.0940(2) 0.7352(3) 0.29434(17)
C11 C 0.1651(2) 0.7045(2) 0.28610(16)
C12 C 0.1952(2) 0.7000(2) 0.22405(15)
C13 C 0.06278(19) 0.6981(2) 0.02930(16)
C14 C 0.0274(2) 0.6992(2) -0.03314(17)
C15 C 0.0657(2) 0.7266(2) -0.08681(18)
C16 C 0.1407(2) 0.7530(2) -0.07869(16)
C17 C 0.30014(18) 0.8193(2) -0.05143(14)
C18 C 0.3167(2) 0.7803(2) -0.11061(15)
C19 C 0.3537(2) 0.8216(2) -0.15999(16)
C20 C 0.3731(2) 0.9033(3) -0.15210(17)
C21 C 0.35758(19) 0.9435(2) -0.09346(17)
C22 C 0.32096(19) 0.9009(2) -0.04410(16)
C23 C 0.35680(19) 0.6530(2) 0.00263(14)
C24 C 0.3488(2) 0.5734(2) -0.02270(15)
C25 C 0.4083(3) 0.5365(3) -0.05302(17)
C26 C 0.4767(2) 0.5776(3) -0.05878(17)
C27 C 0.4857(2) 0.6555(3) -0.03411(17)
C28 C 0.4253(2) 0.6927(2) -0.00361(15)
C29 C 0.2648(2) 0.5884(2) 0.11865(14)
C30 C 0.3360(2) 0.5588(2) 0.13863(16)
C31 C 0.3434(3) 0.4829(3) 0.16981(19)
C32 C 0.2811(3) 0.4358(3) 0.18136(19)
C33 C 0.2118(3) 0.4637(2) 0.16159(18)
C34 C 0.2017(2) 0.5398(2) 0.13073(15)
C35 C 0.3220(2) 0.8562(2) 0.13927(15)
C36 C 0.3307(2) 0.9387(2) 0.15611(16)
C37 C 0.3912(2) 0.9679(3) 0.19439(18)
C38 C 0.4455(2) 0.9140(3) 0.21854(17)
C39 C 0.4385(2) 0.8313(3) 0.20388(15)
C40 C 0.3782(2) 0.8029(2) 0.16478(15)
H1 H 0.05330 0.77950 0.14110
H2 H 0.00470 0.78690 0.24610
H3 H 0.07340 0.73670 0.33690
H4 H 0.19430 0.68590 0.32350
H5 H 0.24500 0.67930 0.21970
H6 H 0.03620 0.67890 0.06610
H7 H -0.02340 0.68090 -0.03880
H8 H 0.04130 0.72760 -0.12930
H9 H 0.16730 0.77170 -0.11570
H10 H 0.30240 0.72450 -0.11720
H11 H 0.36560 0.79340 -0.19930
H12 H 0.39700 0.93200 -0.18650
H13 H 0.37180 0.99950 -0.08710
H14 H 0.31010 0.92870 -0.00440
H15 H 0.30230 0.54470 -0.01900
H16 H 0.40270 0.48240 -0.07020
H17 H 0.51720 0.55150 -0.07990
H18 H 0.53240 0.68370 -0.03770
H19 H 0.43130 0.74700 0.01340
H20 H 0.37980 0.59070 0.13090
H21 H 0.39210 0.46340 0.18330
H22 H 0.28640 0.38410 0.20300
H23 H 0.16880 0.43040 0.16900
H24 H 0.15240 0.55840 0.11800
H25 H 0.29340 0.97680 0.14060
H26 H 0.39530 1.02500 0.20400
H27 H 0.48720 0.93350 0.24490
H28 H 0.47540 0.79350 0.22080
H29 H 0.37480 0.74570 0.15500
Si2 Si 0.73492(5) 0.69565(6) 0.04155(4)
C41 C 0.75458(17) 0.8018(2) 0.00667(13)
C42 C 0.67222(18) 0.8320(2) 0.00214(14)
C43 C 0.63108(18) 0.8083(2) 0.05733(14)
C44 C 0.68193(18) 0.7568(2) 0.10524(13)
C45 C 0.74713(17) 0.81558(19) 0.12515(13)
C46 C 0.78710(18) 0.83730(19) 0.07302(14)
C47 C 0.79846(18) 0.8153(2) -0.05449(13)
C48 C 0.82203(18) 0.7493(2) -0.09158(14)
C49 C 0.8601(2) 0.7612(2) -0.14960(16)
C50 C 0.8727(2) 0.8393(3) -0.17276(16)
C51 C 0.84978(19) 0.9060(2) -0.13683(16)
C52 C 0.81305(19) 0.8942(2) -0.07824(15)
C53 C 0.63700(19) 0.8787(2) -0.04643(14)
C54 C 0.5634(2) 0.9047(2) -0.03965(16)
C55 C 0.52437(19) 0.8846(2) 0.01565(17)
C56 C 0.55819(19) 0.8360(2) 0.06461(16)
C57 C 0.64521(18) 0.7036(2) 0.15635(14)
C58 C 0.6860(2) 0.6789(2) 0.21411(15)
C59 C 0.6562(2) 0.6243(2) 0.25795(16)
C60 C 0.5846(2) 0.5927(2) 0.24654(16)
C61 C 0.5447(2) 0.6144(2) 0.18974(17)
C62 C 0.57466(19) 0.6693(2) 0.14530(15)
C63 C 0.75344(19) 0.8528(2) 0.19144(14)
C64 C 0.8230(2) 0.8647(2) 0.22505(15)
C65 C 0.8271(3) 0.9033(2) 0.28585(17)
C66 C 0.7618(3) 0.9305(3) 0.31313(18)
C67 C 0.6932(3) 0.9193(2) 0.28168(17)
C68 C 0.6885(2) 0.8804(2) 0.22159(15)
C69 C 0.85327(19) 0.8929(2) 0.07418(14)
C70 C 0.92417(19) 0.8623(2) 0.06225(15)
C71 C 0.9868(2) 0.9126(3) 0.06388(18)
C72 C 0.9787(3) 0.9948(3) 0.07733(18)
C73 C 0.9088(3) 1.0270(3) 0.08818(17)
C74 C 0.8461(2) 0.9765(2) 0.08732(15)
C75 C 0.81652(19) 0.6313(2) 0.06978(15)
C76 C 0.8327(2) 0.5617(2) 0.03233(17)
C77 C 0.8927(3) 0.5106(3) 0.0485(2)
C78 C 0.9392(2) 0.5276(3) 0.1026(2)
C79 C 0.9248(2) 0.5952(3) 0.14161(19)
C80 C 0.8642(2) 0.6465(2) 0.12489(16)
H30 H 0.81200 0.69480 -0.07720
H31 H 0.87740 0.71490 -0.17340
H32 H 0.89720 0.84710 -0.21320
H33 H 0.85910 0.96020 -0.15210
H34 H 0.79750 0.94070 -0.05380
H35 H 0.66330 0.89300 -0.08480
H36 H 0.53940 0.93680 -0.07350
H37 H 0.47420 0.90410 0.02020
H38 H 0.53150 0.82200 0.10280
H39 H 0.73520 0.70060 0.22290
H40 H 0.68510 0.60820 0.29630
H41 H 0.56320 0.55650 0.27750
H42 H 0.49590 0.59150 0.18080
H43 H 0.54590 0.68360 0.10640
H44 H 0.86800 0.84600 0.20590
H45 H 0.87450 0.91100 0.30850
H46 H 0.76450 0.95760 0.35470
H47 H 0.64860 0.93850 0.30130
H48 H 0.64050 0.87210 0.20020
H49 H 0.92990 0.80540 0.05280
H50 H 1.03520 0.89050 0.05570
H51 H 1.02190 1.02960 0.07910
H52 H 0.90350 1.08430 0.09630
H53 H 0.79780 0.99890 0.09580
H54 H 0.80140 0.54930 -0.00540
H55 H 0.90200 0.46360 0.02210
H56 H 0.98110 0.49280 0.11320
H57 H 0.95620 0.60650 0.17960
H58 H 0.85490 0.69310 0.15170
loop_
_geom_bond_atom_site_label_1
_geom_bond_atom_site_label_2
_geom_bond_site_symmetry_1
_geom_bond_site_symmetry_2
Si1 C1 1_555 1_555
C1 C2 1_555 1_555
C2 C3 1_555 1_555
C3 C4 1_555 1_555
C4 Si1 1_555 1_555
C5 C4 1_555 1_555
C6 C1 1_555 1_555
C7 C1 1_555 1_555
C8 C7 1_555 1_555
C9 C8 1_555 1_555
C10 C9 1_555 1_555
C11 C10 1_555 1_555
C12 C7 1_555 1_555
C13 C2 1_555 1_555
C14 C13 1_555 1_555
C15 C14 1_555 1_555
C16 C3 1_555 1_555
C17 C4 1_555 1_555
C18 C17 1_555 1_555
C19 C18 1_555 1_555
C20 C19 1_555 1_555
C21 C20 1_555 1_555
C22 C17 1_555 1_555
C23 C5 1_555 1_555
C24 C23 1_555 1_555
C25 C24 1_555 1_555
C26 C25 1_555 1_555
C27 C26 1_555 1_555
C28 C23 1_555 1_555
C29 C6 1_555 1_555
C30 C29 1_555 1_555
C31 C30 1_555 1_555
C32 C31 1_555 1_555
C33 C32 1_555 1_555
C34 C29 1_555 1_555
C35 Si1 1_555 1_555
C36 C35 1_555 1_555
C37 C36 1_555 1_555
C38 C37 1_555 1_555
C39 C38 1_555 1_555
C40 C35 1_555 1_555
Si2 C41 1_555 1_555
C41 C42 1_555 1_555
C42 C43 1_555 1_555
C43 C44 1_555 1_555
C44 Si2 1_555 1_555
C45 C44 1_555 1_555
C46 C41 1_555 1_555
C47 C41 1_555 1_555
C48 C47 1_555 1_555
C49 C48 1_555 1_555
C50 C49 1_555 1_555
C51 C50 1_555 1_555
C52 C47 1_555 1_555
C53 C42 1_555 1_555
C54 C53 1_555 1_555
C55 C54 1_555 1_555
C56 C43 1_555 1_555
C57 C44 1_555 1_555
C58 C57 1_555 1_555
C59 C58 1_555 1_555
C60 C59 1_555 1_555
C61 C60 1_555 1_555
C62 C57 1_555 1_555
C63 C45 1_555 1_555
C64 C63 1_555 1_555
C65 C64 1_555 1_555
C66 C65 1_555 1_555
C67 C66 1_555 1_555
C68 C63 1_555 1_555
C69 C46 1_555 1_555
C70 C69 1_555 1_555
C71 C70 1_555 1_555
C72 C71 1_555 1_555
C73 C72 1_555 1_555
C74 C69 1_555 1_555
C75 Si2 1_555 1_555
C76 C75 1_555 1_555
C77 C76 1_555 1_555
C78 C77 1_555 1_555
C79 C78 1_555 1_555
C80 C75 1_555 1_555
H1 C8 1_555 1_555
H2 C9 1_555 1_555
H3 C10 1_555 1_555
H4 C11 1_555 1_555
H5 C12 1_555 1_555
H6 C13 1_555 1_555
H7 C14 1_555 1_555
H8 C15 1_555 1_555
H9 C16 1_555 1_555
H10 C18 1_555 1_555
H11 C19 1_555 1_555
H12 C20 1_555 1_555
H13 C21 1_555 1_555
H14 C22 1_555 1_555
H15 C24 1_555 1_555
H16 C25 1_555 1_555
H17 C26 1_555 1_555
H18 C27 1_555 1_555
H19 C28 1_555 1_555
H20 C30 1_555 1_555
H21 C31 1_555 1_555
H22 C32 1_555 1_555
H23 C33 1_555 1_555
H24 C34 1_555 1_555
H25 C36 1_555 1_555
H26 C37 1_555 1_555
H27 C38 1_555 1_555
H28 C39 1_555 1_555
H29 C40 1_555 1_555
H30 C48 1_555 1_555
H31 C49 1_555 1_555
H32 C50 1_555 1_555
H33 C51 1_555 1_555
H34 C52 1_555 1_555
H35 C53 1_555 1_555
H36 C54 1_555 1_555
H37 C55 1_555 1_555
H38 C56 1_555 1_555
H39 C58 1_555 1_555
H40 C59 1_555 1_555
H41 C60 1_555 1_555
H42 C61 1_555 1_555
H43 C62 1_555 1_555
H44 C64 1_555 1_555
H45 C65 1_555 1_555
H46 C66 1_555 1_555
H47 C67 1_555 1_555
H48 C68 1_555 1_555
H49 C70 1_555 1_555
H50 C71 1_555 1_555
H51 C72 1_555 1_555
H52 C73 1_555 1_555
H53 C74 1_555 1_555
H54 C76 1_555 1_555
H55 C77 1_555 1_555
H56 C78 1_555 1_555
H57 C79 1_555 1_555
H58 C80 1_555 1_555
C5 C6 1_555 1_555
C11 C12 1_555 1_555
C15 C16 1_555 1_555
C21 C22 1_555 1_555
C27 C28 1_555 1_555
C33 C34 1_555 1_555
C39 C40 1_555 1_555
C45 C46 1_555 1_555
C51 C52 1_555 1_555
C55 C56 1_555 1_555
C61 C62 1_555 1_555
C67 C68 1_555 1_555
C73 C74 1_555 1_555
C79 C80 1_555 1_555

#END
