
#######################################################################
#
#                 Cambridge Crystallographic Data Centre
#                                CCDC 
#
#######################################################################
#
# If this CIF has been generated from an entry in the Cambridge 
# Structural Database, then it will include bibliographic, chemical, 
# crystal, experimental, refinement or atomic coordinate data resulting 
# from the CCDC's data processing and validation procedures.
#
#######################################################################

data_ECOKUE
_chemical_formula_moiety         'C24 H20 B1 1-,C12 H24 N7 1+,C2 H3 N1'
_chemical_name_systematic        
'N-((4-(bis(dimethylamino)methylene)-4H-1,2,3-triazol-5-yl)(dimethylamino)methylene)-N-methylmethanaminium tetraphenylborate acetonitrile solvate'
_symmetry_cell_setting           monoclinic
_symmetry_space_group_name_H-M   'P 21/n'
_symmetry_Int_Tables_number      14
_space_group_name_Hall           '-P 2yn'
loop_
_symmetry_equiv_pos_site_id
_symmetry_equiv_pos_as_xyz
1 x,y,z
2 1/2-x,1/2+y,1/2-z
3 -x,-y,-z
4 1/2+x,1/2-y,1/2+z
_cell_length_a                   13.977(3)
_cell_length_b                   12.414(2)
_cell_length_c                   20.983(4)
_cell_angle_alpha                90
_cell_angle_beta                 106.261(17)
_cell_angle_gamma                90
_cell_volume                     3495.13
_exptl_crystal_colour            colorless
_exptl_crystal_description       block
_cell_formula_units_Z            4
loop_
_atom_site_label
_atom_site_type_symbol
_atom_site_fract_x
_atom_site_fract_y
_atom_site_fract_z
N1 N 0.23350(10) 0.93849(12) 0.24534(7)
N2 N 0.28492(10) 1.00267(13) 0.21682(7)
N3 N 0.24409(10) 1.10180(12) 0.20631(7)
C1 C 0.16407(11) 1.09976(14) 0.22959(7)
C2 C 0.15646(11) 0.99658(14) 0.25432(7)
C3 C 0.10391(11) 1.19713(14) 0.22857(8)
C4 C 0.08315(12) 0.94804(14) 0.28297(8)
N4 N 0.06506(10) 1.24709(12) 0.17135(7)
N5 N 0.09013(10) 1.23083(12) 0.28547(7)
N6 N 0.11121(11) 0.87459(13) 0.33070(7)
N7 N -0.01265(10) 0.97759(12) 0.26199(7)
C5 C 0.05171(15) 1.19268(18) 0.10711(9)
H1 H 0.0711 1.1185 0.1146
H2 H 0.0923 1.2273 0.0831
H3 H -0.0170 1.1967 0.0818
C6 C 0.03603(15) 1.36126(16) 0.16418(10)
H4 H -0.0352 1.3669 0.1533
H5 H 0.0589 1.3931 0.1294
H6 H 0.0655 1.3983 0.2051
C7 C 0.16017(15) 1.20467(19) 0.34961(9)
H7 H 0.1291 1.1560 0.3733
H8 H 0.1790 1.2695 0.3750
H9 H 0.2184 1.1713 0.3427
C8 C 0.00506(16) 1.2954(2) 0.29061(11)
H10 H 0.0254 1.3691 0.2994
H11 H -0.0189 1.2684 0.3262
H12 H -0.0471 1.2912 0.2497
C9 C 0.21261(16) 0.8666(2) 0.37464(10)
H13 H 0.2467 0.8082 0.3604
H14 H 0.2101 0.8536 0.4193
H15 H 0.2475 0.9327 0.3731
C10 C 0.04741(18) 0.78332(19) 0.33642(12)
H16 H -0.0116 0.7839 0.2996
H17 H 0.0292 0.7892 0.3771
H18 H 0.0829 0.7172 0.3363
C11 C -0.07811(16) 0.9753(2) 0.30552(13)
H19 H -0.1216 0.9141 0.2947
H20 H -0.1171 1.0401 0.2995
H21 H -0.0385 0.9701 0.3509
C12 C -0.06161(13) 1.00863(18) 0.19361(10)
H22 H -0.0157 1.0008 0.1674
H23 H -0.0828 1.0823 0.1925
H24 H -0.1185 0.9632 0.1760
B1 B 0.20323(12) 1.34861(14) -0.11072(8)
C13 C 0.10819(11) 1.27242(12) -0.10871(7)
C14 C 0.10881(13) 1.19789(14) -0.05897(8)
H25 H 0.1683 1.1851 -0.0264
C15 C 0.02382(15) 1.14176(16) -0.05613(9)
H26 H 0.0274 1.0926 -0.0221
C16 C -0.06538(14) 1.15867(17) -0.10342(10)
H27 H -0.1222 1.1209 -0.1019
C17 C -0.06919(13) 1.23227(17) -0.15286(10)
H28 H -0.1292 1.2450 -0.1849
C18 C 0.01527(12) 1.28746(14) -0.15529(9)
H29 H 0.0104 1.3369 -0.1894
C19 C 0.19064(10) 1.46375(12) -0.07463(7)
C20 C 0.13542(12) 1.47204(13) -0.02864(8)
H30 H 0.1021 1.4113 -0.0201
C21 C 0.12805(13) 1.56689(15) 0.00483(8)
H31 H 0.0911 1.5681 0.0354
C22 C 0.17504(12) 1.65887(14) -0.00699(8)
H32 H 0.1697 1.7226 0.0150
C23 C 0.23040(12) 1.65491(14) -0.05230(8)
H33 H 0.2628 1.7164 -0.0609
C24 C 0.23759(12) 1.55930(13) -0.08483(8)
H34 H 0.2754 1.5586 -0.1149
C25 C 0.19966(10) 1.36454(12) -0.18977(7)
C26 C 0.15351(13) 1.45153(15) -0.22847(8)
H35 H 0.1262 1.5056 -0.2083
C27 C 0.14641(15) 1.46134(16) -0.29546(9)
H36 H 0.1154 1.5213 -0.3189
C28 C 0.18515(13) 1.38261(16) -0.32752(8)
H37 H 0.1809 1.3887 -0.3724
C29 C 0.23027(13) 1.29480(15) -0.29136(8)
H38 H 0.2565 1.2406 -0.3120
C30 C 0.23696(12) 1.28648(13) -0.22446(8)
H39 H 0.2678 1.2260 -0.2015
C31 C 0.31238(11) 1.29475(13) -0.07271(7)
C32 C 0.39498(12) 1.35659(15) -0.03988(9)
H40 H 0.3862 1.4302 -0.0353
C33 C 0.48927(13) 1.31358(17) -0.01383(10)
H41 H 0.5421 1.3585 0.0068
C34 C 0.50533(13) 1.20492(17) -0.01828(9)
H42 H 0.5685 1.1757 -0.0005
C35 C 0.42626(13) 1.14018(15) -0.04952(8)
H43 H 0.4358 1.0665 -0.0530
C36 C 0.33211(12) 1.18445(14) -0.07592(8)
H44 H 0.2799 1.1389 -0.0967
C37 C 0.3328(3) 1.0340(3) 0.07264(14)
H45 H 0.3975 1.0011 0.0851
H46 H 0.3062 1.0349 0.1102
H47 H 0.3382 1.1065 0.0581
C38 C 0.2675(3) 0.9735(2) 0.01958(18)
N8 N 0.2172(3) 0.9271(2) -0.0233(2)
loop_
_geom_bond_atom_site_label_1
_geom_bond_atom_site_label_2
_geom_bond_site_symmetry_1
_geom_bond_site_symmetry_2
N1 N2 1_555 1_555
N2 N3 1_555 1_555
N3 C1 1_555 1_555
C1 C2 1_555 1_555
C2 N1 1_555 1_555
C3 C1 1_555 1_555
C4 C2 1_555 1_555
N4 C3 1_555 1_555
N5 C3 1_555 1_555
N6 C4 1_555 1_555
N7 C4 1_555 1_555
C5 N4 1_555 1_555
H1 C5 1_555 1_555
H2 C5 1_555 1_555
H3 C5 1_555 1_555
C6 N4 1_555 1_555
H4 C6 1_555 1_555
H5 C6 1_555 1_555
H6 C6 1_555 1_555
C7 N5 1_555 1_555
H7 C7 1_555 1_555
H8 C7 1_555 1_555
H9 C7 1_555 1_555
C8 N5 1_555 1_555
H10 C8 1_555 1_555
H11 C8 1_555 1_555
H12 C8 1_555 1_555
C9 N6 1_555 1_555
H13 C9 1_555 1_555
H14 C9 1_555 1_555
H15 C9 1_555 1_555
C10 N6 1_555 1_555
H16 C10 1_555 1_555
H17 C10 1_555 1_555
H18 C10 1_555 1_555
C11 N7 1_555 1_555
H19 C11 1_555 1_555
H20 C11 1_555 1_555
H21 C11 1_555 1_555
C12 N7 1_555 1_555
H22 C12 1_555 1_555
H23 C12 1_555 1_555
H24 C12 1_555 1_555
B1 C13 1_555 1_555
C13 C14 1_555 1_555
C14 H25 1_555 1_555
C15 C14 1_555 1_555
H26 C15 1_555 1_555
C16 C15 1_555 1_555
H27 C16 1_555 1_555
C17 C16 1_555 1_555
H28 C17 1_555 1_555
C18 C13 1_555 1_555
H29 C18 1_555 1_555
C19 B1 1_555 1_555
C20 C19 1_555 1_555
H30 C20 1_555 1_555
C21 C20 1_555 1_555
H31 C21 1_555 1_555
C22 C21 1_555 1_555
H32 C22 1_555 1_555
C23 C22 1_555 1_555
H33 C23 1_555 1_555
C24 C19 1_555 1_555
H34 C24 1_555 1_555
C25 B1 1_555 1_555
C26 C25 1_555 1_555
H35 C26 1_555 1_555
C27 C26 1_555 1_555
H36 C27 1_555 1_555
C28 C27 1_555 1_555
H37 C28 1_555 1_555
C29 C28 1_555 1_555
H38 C29 1_555 1_555
C30 C25 1_555 1_555
H39 C30 1_555 1_555
C31 B1 1_555 1_555
C32 C31 1_555 1_555
H40 C32 1_555 1_555
C33 C32 1_555 1_555
H41 C33 1_555 1_555
C34 C33 1_555 1_555
H42 C34 1_555 1_555
C35 C34 1_555 1_555
H43 C35 1_555 1_555
C36 C31 1_555 1_555
H44 C36 1_555 1_555
C37 H45 1_555 1_555
H46 C37 1_555 1_555
H47 C37 1_555 1_555
C38 C37 1_555 1_555
N8 C38 1_555 1_555
C17 C18 1_555 1_555
C23 C24 1_555 1_555
C29 C30 1_555 1_555
C35 C36 1_555 1_555

#END
