
#######################################################################
#
#                 Cambridge Crystallographic Data Centre
#                                CCDC 
#
#######################################################################
#
# If this CIF has been generated from an entry in the Cambridge 
# Structural Database, then it will include bibliographic, chemical, 
# crystal, experimental, refinement or atomic coordinate data resulting 
# from the CCDC's data processing and validation procedures.
#
#######################################################################

data_ECOLAM
_chemical_name_common            
1,8,15,22-tetrakis[bis(4-t-butyphenyl)amino]phthalocyanine
_chemical_formula_moiety         'C112 H118 N12'
_chemical_name_systematic        
N^1^,N^1^,N^8^,N^8^,N^15^,N^15^,N^22^,N^22^-octakis(4-t-butylphenyl)-29H,31H-phthalocyanine-1,8,15,22-tetramine
_symmetry_cell_setting           triclinic
_symmetry_space_group_name_H-M   'P 1'
_symmetry_Int_Tables_number      1
_space_group_name_Hall           'P 1'
loop_
_symmetry_equiv_pos_site_id
_symmetry_equiv_pos_as_xyz
1 x,y,z
_cell_length_a                   12.571(5)
_cell_length_b                   12.909(5)
_cell_length_c                   16.141(6)
_cell_angle_alpha                81.308(6)
_cell_angle_beta                 81.867(6)
_cell_angle_gamma                78.237(6)
_cell_volume                     2518.26
_exptl_crystal_colour            darkblue
_exptl_crystal_description       prism
_cell_formula_units_Z            1
_chemical_properties_physical    ', Photo-sensitive'
loop_
_atom_site_label
_atom_site_type_symbol
_atom_site_fract_x
_atom_site_fract_y
_atom_site_fract_z
N1 N 0.9712(18) 0.9648(17) 0.6661(13)
N2 N 0.5429(16) 1.6492(16) 0.5245(12)
N3 N 0.7299(17) 1.1852(15) 0.9672(13)
N4 N 0.7195(18) 1.2663(17) 0.7679(13)
N5 N 0.8261(16) 1.2673(16) 0.4542(14)
N6 N 0.9470(15) 1.2117(16) 0.1815(12)
N7 N 1.1283(18) 0.7446(19) 0.6269(15)
N8 N 0.7379(17) 1.3226(17) 0.6112(15)
H1 H 0.7857 1.2701 0.5910
N9 N 0.9483(17) 1.1304(17) 0.3793(14)
N10 N 0.6984(17) 1.4355(16) 0.4787(15)
N11 N 0.8333(17) 1.1242(17) 0.6931(12)
N12 N 0.9415(17) 1.0709(19) 0.5297(13)
H2 H 0.8944 1.1258 0.5473
C1 C 0.545(3) 2.106(3) 0.492(3)
C2 C 1.2013(19) 1.327(2) 0.0106(13)
C3 C 1.220(2) 0.557(2) 0.6456(14)
H3 H 1.2849 0.5804 0.6518
C4 C 1.035(2) 1.2470(18) 0.1160(17)
C5 C 0.618(2) 1.490(2) 0.623(2)
C6 C 0.884(2) 1.220(2) 0.3816(18)
C7 C 0.9846(18) 0.9845(18) 0.5821(11)
C8 C 1.178(2) 0.779(2) 0.6874(16)
C9 C 1.179(2) 0.725(2) 0.7735(17)
H4 H 1.1421 0.6674 0.7929
C10 C 0.926(2) 1.1040(18) 0.1890(18)
C11 C 0.507(2) 1.024(3) 1.0590(15)
H5 H 0.4761 0.9688 1.0440
C12 C 0.544(3) 1.761(2) 0.5181(17)
C13 C 0.5007(17) 1.6353(19) 0.6774(16)
H6 H 0.4550 1.7036 0.6701
C14 C 0.789(2) 1.173(2) 0.7643(15)
C15 C 0.668(2) 1.3786(19) 0.9738(15)
H7 H 0.5945 1.3682 0.9882
C16 C 0.622(2) 1.435(2) 0.7041(14)
C17 C 0.774(2) 1.3826(18) 0.3375(17)
C18 C 0.979(2) 1.063(2) 0.4473(16)
C19 C 1.105(2) 0.906(3) 0.3756(16)
H8 H 1.0966 0.9398 0.3196
C20 C 0.810(2) 1.104(2) 0.9306(16)
C21 C 1.284(2) 0.899(2) 0.726(2)
H9 H 1.3235 0.9555 0.7095
C22 C 0.554(2) 1.591(2) 0.6058(15)
C23 C 0.825(2) 1.101(2) 0.8390(17)
C24 C 1.014(2) 1.020(2) 0.1656(16)
H10 H 1.0837 1.0318 0.1404
C25 C 0.935(2) 0.9360(19) 0.9488(17)
H11 H 0.9697 0.8802 0.9869
C26 C 0.760(2) 1.364(2) 0.4335(16)
C27 C 1.0773(18) 1.3311(18) 0.1385(14)
H12 H 1.0526 1.3602 0.1900
C28 C 0.718(2) 1.4652(19) 0.2870(15)
H13 H 0.6664 1.5197 0.3122
C29 C 0.600(2) 1.183(2) 1.1025(18)
H14 H 0.6294 1.2385 1.1188
C30 C 0.312(4) 1.599(3) 0.188(3)
H15 H 0.2721 1.5746 0.1495
H16 H 0.3835 1.6111 0.1592
H17 H 0.2704 1.6657 0.2070
C31 C 0.884(2) 0.889(2) 0.2132(14)
C32 C 0.593(3) 1.071(3) 0.9975(18)
H18 H 0.6132 1.0485 0.9433
C33 C 1.291(2) 1.376(3) -0.060(2)
C34 C 0.546(3) 1.980(2) 0.5037(17)
C35 C 0.815(2) 1.378(3) 0.1626(18)
H19 H 0.8291 1.3749 0.1036
C36 C 0.641(2) 1.149(2) 1.0219(14)
C37 C 1.166(2) 0.812(3) 0.386(2)
H20 H 1.2069 0.7811 0.3385
C38 C 1.284(3) 0.848(3) 0.812(2)
C39 C 1.0564(18) 0.910(2) 0.5304(13)
C40 C 0.524(2) 1.145(2) 1.1556(17)
H21 H 0.5040 1.1736 1.2075
C41 C 1.0676(19) 1.208(2) 0.0445(17)
H22 H 1.0363 1.1523 0.0305
C42 C 0.454(2) 1.945(2) 0.4911(18)
H23 H 0.3906 1.9959 0.4782
C43 C 1.173(3) 0.752(2) 0.472(2)
H24 H 1.2107 0.6803 0.4789
C44 C 1.448(4) 0.919(4) 0.831(3)
H25 H 1.4998 0.8591 0.8080
H26 H 1.4834 0.9484 0.8699
H27 H 1.4273 0.9742 0.7842
C45 C 0.822(4) 1.615(3) 0.919(2)
C46 C 0.384(3) 1.551(2) 0.3383(19)
C47 C 0.858(2) 0.7813(19) 0.228(2)
C48 C 0.648(2) 1.794(3) 0.5266(18)
H28 H 0.7144 1.7456 0.5365
C49 C 1.1556(19) 1.251(2) -0.0147(14)
H29 H 1.1787 1.2272 -0.0683
C50 C 0.7435(19) 1.291(2) 0.9595(13)
C51 C 0.794(3) 1.502(2) 0.933(2)
C52 C 0.8659(18) 1.0190(17) 0.9787(14)
H30 H 0.8548 1.0192 1.0381
C53 C 0.867(2) 1.419(2) 0.9145(15)
H31 H 0.9391 1.4303 0.8928
C54 C 0.636(3) 2.128(2) 0.420(3)
H32 H 0.7053 2.0808 0.4328
H33 H 0.6450 2.2025 0.4160
H34 H 0.6166 2.1145 0.3670
C55 C 0.5699(19) 1.481(2) 0.7726(17)
H35 H 0.5733 1.4453 0.8283
C56 C 0.438(2) 1.524(2) 0.482(2)
H36 H 0.4337 1.4857 0.5373
C57 C 0.800(3) 0.982(2) 0.233(2)
H37 H 0.7281 0.9710 0.2540
C58 C 0.399(3) 1.410(2) 0.242(3)
H38 H 0.4068 1.3517 0.2886
H39 H 0.4717 1.4245 0.2184
H40 H 0.3647 1.3887 0.1978
C59 C 0.863(3) 1.642(3) 0.822(2)
H41 H 0.9242 1.5861 0.8054
H42 H 0.8862 1.7109 0.8124
H43 H 0.8028 1.6447 0.7885
C60 C 1.232(2) 0.870(2) 0.6673(15)
H44 H 1.2305 0.9095 0.6128
C61 C 0.848(2) 1.318(2) 0.9240(18)
H45 H 0.9055 1.2623 0.9067
C62 C 0.511(2) 1.586(2) 0.7571(17)
H46 H 0.4772 1.6231 0.8034
C63 C 0.904(2) 1.011(2) 0.8084(13)
C64 C 1.050(2) 0.9611(19) 0.4422(19)
C65 C 0.822(2) 1.0856(19) 0.2229(14)
H47 H 0.7657 1.1431 0.2387
C66 C 0.387(2) 1.496(2) 0.415(2)
H48 H 0.3543 1.4339 0.4260
C67 C 1.224(2) 0.448(2) 0.6508(16)
H49 H 1.2913 0.4009 0.6590
C68 C 0.338(3) 0.942(4) 1.1649(19)
H50 H 0.3980 0.8849 1.1491
H51 H 0.3017 0.9758 1.1149
H52 H 0.2845 0.9122 1.2074
C69 C 1.035(3) 0.496(3) 0.620(2)
H53 H 0.9694 0.4792 0.6077
C70 C 0.871(2) 1.294(2) 0.2226(16)
C71 C 0.638(3) 1.911(2) 0.5179(17)
H54 H 0.7006 1.9389 0.5227
C72 C 0.578(4) 2.131(3) 0.575(3)
H55 H 0.5130 2.1410 0.6164
H56 H 0.6093 2.1954 0.5635
H57 H 0.6320 2.0706 0.5968
C73 C 0.499(2) 1.659(2) 0.3831(16)
H58 H 0.5434 1.7120 0.3686
C74 C 0.687(2) 1.415(2) 0.566(2)
C75 C 0.904(2) 1.034(2) 0.7151(15)
C76 C 0.431(2) 0.955(3) 1.2772(19)
H59 H 0.4669 0.9986 1.3052
H60 H 0.4848 0.8945 1.2584
H61 H 0.3729 0.9289 1.3169
C77 C 1.387(2) 1.286(2) -0.0842(19)
H62 H 1.4426 1.3161 -0.1235
H63 H 1.3598 1.2344 -0.1110
H64 H 1.4188 1.2494 -0.0331
C78 C 0.986(2) 0.916(2) 0.1833(17)
H65 H 1.0447 0.8586 0.1736
C79 C 0.735(2) 1.470(3) 0.1978(18)
H66 H 0.6988 1.5275 0.1620
C80 C 0.9570(19) 0.931(2) 0.8606(18)
H67 H 1.0074 0.8732 0.8388
C81 C 0.446(2) 1.638(3) 0.318(2)
H68 H 0.4505 1.6773 0.2635
C82 C 1.238(3) 1.432(3) -0.132(2)
H69 H 1.2059 1.3829 -0.1575
H70 H 1.2918 1.4620 -0.1743
H71 H 1.1799 1.4905 -0.1144
C83 C 0.684(3) 1.479(2) 0.9699(18)
H72 H 0.6278 1.5337 0.9900
C84 C 0.760(3) 0.772(2) 0.1756(19)
H73 H 0.6942 0.8231 0.1925
H74 H 0.7446 0.6997 0.1876
H75 H 0.7819 0.7884 0.1150
C85 C 0.494(2) 1.614(2) 0.4613(18)
C86 C 1.121(2) 0.8033(19) 0.5437(18)
C87 C 1.041(2) 0.598(2) 0.615(2)
H76 H 0.9797 0.6504 0.5989
C88 C 0.948(3) 0.690(3) 0.205(2)
H77 H 0.9200 0.6232 0.2167
H78 H 1.0087 0.6846 0.2392
H79 H 0.9752 0.7024 0.1453
C89 C 0.470(2) 1.063(2) 1.142(2)
C90 C 1.236(3) 0.7632(19) 0.8249(15)
H80 H 1.2421 0.7222 0.8786
C91 C 1.133(2) 0.631(2) 0.6329(15)
C92 C 1.361(3) 0.805(3) 0.950(2)
H81 H 1.3943 0.8339 0.9905
H82 H 1.4089 0.7387 0.9344
H83 H 1.2896 0.7899 0.9747
C93 C 0.696(2) 1.331(2) 0.6984(19)
C94 C 1.348(2) 1.454(3) -0.019(2)
H84 H 1.4016 1.4828 -0.0610
H85 H 1.3840 1.4135 0.0291
H86 H 1.2917 1.5127 0.0008
C95 C 0.381(2) 1.0236(18) 1.2003(14)
C96 C 0.452(2) 1.837(2) 0.4969(19)
H87 H 0.3881 1.8151 0.4866
C97 C 1.033(3) 0.267(3) 0.739(3)
H88 H 0.9593 0.3077 0.7309
H89 H 1.0573 0.2882 0.7882
H90 H 1.0306 0.1907 0.7493
C98 C 1.120(3) 0.292(2) 0.6526(18)
C99 C 0.916(3) 1.615(3) 0.968(3)
H91 H 0.9780 1.5590 0.9519
H92 H 0.8932 1.6006 1.0288
H93 H 0.9391 1.6843 0.9560
C100 C 0.441(3) 2.176(3) 0.475(2)
H94 H 0.4170 2.1571 0.4249
H95 H 0.4511 2.2504 0.4645
H96 H 0.3859 2.1671 0.5234
C101 C 1.085(4) 0.259(3) 0.574(2)
H97 H 1.1352 0.2777 0.5246
H98 H 1.0106 0.2956 0.5663
H99 H 1.0882 0.1814 0.5827
C102 C 1.126(3) 0.405(3) 0.6437(19)
C103 C 1.349(3) 0.880(2) 0.876(2)
C104 C 1.233(4) 0.219(3) 0.674(4)
H100 H 1.2522 0.2355 0.7269
H101 H 1.2906 0.2312 0.6285
H102 H 1.2258 0.1434 0.6812
C105 C 1.158(2) 1.368(2) 0.080(2)
H103 H 1.1836 1.4280 0.0915
C106 C 0.845(2) 1.2953(18) 0.3059(15)
C107 C 0.826(4) 0.750(2) 0.321(3)
H104 H 0.8781 0.7683 0.3538
H105 H 0.8276 0.6730 0.3317
H106 H 0.7525 0.7884 0.3374
C108 C 0.208(3) 1.499(3) 0.310(3)
H107 H 0.2074 1.4471 0.3607
H108 H 0.1715 1.4764 0.2675
H109 H 0.1693 1.5692 0.3235
C109 C 0.717(3) 1.700(2) 0.954(2)
H110 H 0.7358 1.7710 0.9480
H111 H 0.6952 1.6774 1.0137
H112 H 0.6556 1.7031 0.9216
C110 C 1.275(4) 0.988(3) 0.905(2)
H113 H 1.3116 1.0159 0.9438
H114 H 1.2039 0.9737 0.9325
H115 H 1.2632 1.0414 0.8548
C111 C 0.300(3) 1.108(2) 1.226(3)
H116 H 0.2646 1.1467 1.1764
H117 H 0.3328 1.1570 1.2504
H118 H 0.2448 1.0802 1.2675
C112 C 0.331(2) 1.506(3) 0.273(2)
loop_
_geom_bond_atom_site_label_1
_geom_bond_atom_site_label_2
_geom_bond_site_symmetry_1
_geom_bond_site_symmetry_2
N1 C7 1_555 1_555
N2 C12 1_555 1_555
N3 C20 1_555 1_555
N4 C14 1_555 1_555
N5 C6 1_555 1_555
N6 C4 1_555 1_555
N7 C8 1_555 1_555
N8 H1 1_555 1_555
N9 C6 1_555 1_555
N10 C26 1_555 1_555
N11 C14 1_555 1_555
N12 H2 1_555 1_555
C1 C34 1_555 1_555
C2 C33 1_555 1_555
C3 H3 1_555 1_555
C4 C27 1_555 1_555
C5 C16 1_555 1_555
C6 C106 1_555 1_555
C7 N12 1_555 1_555
C8 C9 1_555 1_555
C9 H4 1_555 1_555
C10 N6 1_555 1_555
C11 H5 1_555 1_555
C12 C48 1_555 1_555
C13 H6 1_555 1_555
C14 C23 1_555 1_555
C15 H7 1_555 1_555
C16 C55 1_555 1_555
C17 C26 1_555 1_555
C18 N9 1_555 1_555
C19 H8 1_555 1_555
C20 C23 1_555 1_555
C21 H9 1_555 1_555
C22 N2 1_555 1_555
C23 C63 1_555 1_555
C24 C10 1_555 1_555
H10 C24 1_555 1_555
C25 H11 1_555 1_555
C26 N5 1_555 1_555
C27 H12 1_555 1_555
C28 C17 1_555 1_555
H13 C28 1_555 1_555
C29 H14 1_555 1_555
C30 H15 1_555 1_555
H16 C30 1_555 1_555
H17 C30 1_555 1_555
C31 C47 1_555 1_555
C32 C11 1_555 1_555
H18 C32 1_555 1_555
C33 C77 1_555 1_555
C34 C42 1_555 1_555
C35 H19 1_555 1_555
C36 N3 1_555 1_555
C37 C19 1_555 1_555
H20 C37 1_555 1_555
C38 C21 1_555 1_555
C39 C7 1_555 1_555
C40 C29 1_555 1_555
H21 C40 1_555 1_555
C41 C4 1_555 1_555
H22 C41 1_555 1_555
C42 H23 1_555 1_555
C43 C37 1_555 1_555
H24 C43 1_555 1_555
C44 H25 1_555 1_555
H26 C44 1_555 1_555
H27 C44 1_555 1_555
C45 C51 1_555 1_555
C46 C66 1_555 1_555
C47 C84 1_555 1_555
C48 H28 1_555 1_555
C49 C2 1_555 1_555
H29 C49 1_555 1_555
C50 N3 1_555 1_555
C51 C53 1_555 1_555
C52 C20 1_555 1_555
H30 C52 1_555 1_555
C53 H31 1_555 1_555
C54 C1 1_555 1_555
H32 C54 1_555 1_555
H33 C54 1_555 1_555
H34 C54 1_555 1_555
C55 H35 1_555 1_555
C56 H36 1_555 1_555
C57 C31 1_555 1_555
H37 C57 1_555 1_555
C58 H38 1_555 1_555
H39 C58 1_555 1_555
H40 C58 1_555 1_555
C59 C45 1_555 1_555
H41 C59 1_555 1_555
H42 C59 1_555 1_555
H43 C59 1_555 1_555
C60 C8 1_555 1_555
H44 C60 1_555 1_555
C61 C50 1_555 1_555
H45 C61 1_555 1_555
C62 C13 1_555 1_555
H46 C62 1_555 1_555
C63 C75 1_555 1_555
C64 C18 1_555 1_555
C65 C10 1_555 1_555
H47 C65 1_555 1_555
C66 C56 1_555 1_555
H48 C66 1_555 1_555
C67 C3 1_555 1_555
H49 C67 1_555 1_555
C68 H50 1_555 1_555
H51 C68 1_555 1_555
H52 C68 1_555 1_555
C69 H53 1_555 1_555
C70 N6 1_555 1_555
C71 C34 1_555 1_555
H54 C71 1_555 1_555
C72 C1 1_555 1_555
H55 C72 1_555 1_555
H56 C72 1_555 1_555
H57 C72 1_555 1_555
C73 H58 1_555 1_555
C74 N8 1_555 1_555
C75 N1 1_555 1_555
C76 H59 1_555 1_555
H60 C76 1_555 1_555
H61 C76 1_555 1_555
C77 H62 1_555 1_555
H63 C77 1_555 1_555
H64 C77 1_555 1_555
C78 C24 1_555 1_555
H65 C78 1_555 1_555
C79 C28 1_555 1_555
H66 C79 1_555 1_555
C80 C25 1_555 1_555
H67 C80 1_555 1_555
C81 C46 1_555 1_555
H68 C81 1_555 1_555
C82 C33 1_555 1_555
H69 C82 1_555 1_555
H70 C82 1_555 1_555
H71 C82 1_555 1_555
C83 C15 1_555 1_555
H72 C83 1_555 1_555
C84 H73 1_555 1_555
H74 C84 1_555 1_555
H75 C84 1_555 1_555
C85 N2 1_555 1_555
C86 N7 1_555 1_555
C87 C69 1_555 1_555
H76 C87 1_555 1_555
C88 C47 1_555 1_555
H77 C88 1_555 1_555
H78 C88 1_555 1_555
H79 C88 1_555 1_555
C89 C11 1_555 1_555
C90 C9 1_555 1_555
H80 C90 1_555 1_555
C91 N7 1_555 1_555
C92 H81 1_555 1_555
H82 C92 1_555 1_555
H83 C92 1_555 1_555
C93 N4 1_555 1_555
C94 C33 1_555 1_555
H84 C94 1_555 1_555
H85 C94 1_555 1_555
H86 C94 1_555 1_555
C95 C68 1_555 1_555
C96 C12 1_555 1_555
H87 C96 1_555 1_555
C97 H88 1_555 1_555
H89 C97 1_555 1_555
H90 C97 1_555 1_555
C98 C97 1_555 1_555
C99 C45 1_555 1_555
H91 C99 1_555 1_555
H92 C99 1_555 1_555
H93 C99 1_555 1_555
C100 C1 1_555 1_555
H94 C100 1_555 1_555
H95 C100 1_555 1_555
H96 C100 1_555 1_555
C101 C98 1_555 1_555
H97 C101 1_555 1_555
H98 C101 1_555 1_555
H99 C101 1_555 1_555
C102 C67 1_555 1_555
C103 C38 1_555 1_555
C104 C98 1_555 1_555
H100 C104 1_555 1_555
H101 C104 1_555 1_555
H102 C104 1_555 1_555
C105 C2 1_555 1_555
H103 C105 1_555 1_555
C106 C17 1_555 1_555
C107 C47 1_555 1_555
H104 C107 1_555 1_555
H105 C107 1_555 1_555
H106 C107 1_555 1_555
C108 H107 1_555 1_555
H108 C108 1_555 1_555
H109 C108 1_555 1_555
C109 C45 1_555 1_555
H110 C109 1_555 1_555
H111 C109 1_555 1_555
H112 C109 1_555 1_555
C110 C103 1_555 1_555
H113 C110 1_555 1_555
H114 C110 1_555 1_555
H115 C110 1_555 1_555
C111 C95 1_555 1_555
H116 C111 1_555 1_555
H117 C111 1_555 1_555
H118 C111 1_555 1_555
C112 C30 1_555 1_555
N8 C93 1_555 1_555
N10 C74 1_555 1_555
N11 C75 1_555 1_555
N12 C18 1_555 1_555
C3 C91 1_555 1_555
C5 C22 1_555 1_555
C5 C74 1_555 1_555
C13 C22 1_555 1_555
C15 C50 1_555 1_555
C16 C93 1_555 1_555
C19 C64 1_555 1_555
C21 C60 1_555 1_555
C25 C52 1_555 1_555
C27 C105 1_555 1_555
C29 C36 1_555 1_555
C31 C78 1_555 1_555
C32 C36 1_555 1_555
C35 C70 1_555 1_555
C35 C79 1_555 1_555
C38 C90 1_555 1_555
C39 C64 1_555 1_555
C39 C86 1_555 1_555
C40 C89 1_555 1_555
C41 C49 1_555 1_555
C42 C96 1_555 1_555
C43 C86 1_555 1_555
C44 C103 1_555 1_555
C46 C112 1_555 1_555
C48 C71 1_555 1_555
C51 C83 1_555 1_555
C53 C61 1_555 1_555
C55 C62 1_555 1_555
C56 C85 1_555 1_555
C57 C65 1_555 1_555
C58 C112 1_555 1_555
C63 C80 1_555 1_555
C69 C102 1_555 1_555
C70 C106 1_555 1_555
C73 C81 1_555 1_555
C73 C85 1_555 1_555
C76 C95 1_555 1_555
C87 C91 1_555 1_555
C89 C95 1_555 1_555
C92 C103 1_555 1_555
C98 C102 1_555 1_555
C108 C112 1_555 1_555

#END
