
#######################################################################
#
#                 Cambridge Crystallographic Data Centre
#                                CCDC 
#
#######################################################################
#
# If this CIF has been generated from an entry in the Cambridge 
# Structural Database, then it will include bibliographic, chemical, 
# crystal, experimental, refinement or atomic coordinate data resulting 
# from the CCDC's data processing and validation procedures.
#
#######################################################################

data_ECONIT01
_chemical_formula_moiety         'C10 H8 S8,C10 H8 S8 1+,C2 H1 F8 O3 S2 1-'
_chemical_name_systematic        
'bis(bis(Ethylenedithio)tetrathiafulvalenium) 1-pentafluorothio-1,2,2-trifluoroethylsulfonate'
_symmetry_cell_setting           triclinic
_symmetry_space_group_name_H-M   'P -1'
_symmetry_Int_Tables_number      2
_space_group_name_Hall           '-P 1'
loop_
_symmetry_equiv_pos_site_id
_symmetry_equiv_pos_as_xyz
1 x,y,z
2 -x,-y,-z
_cell_length_a                   9.2233(5)
_cell_length_b                   11.5932(6)
_cell_length_c                   17.8088(9)
_cell_angle_alpha                93.863(1)
_cell_angle_beta                 94.543(1)
_cell_angle_gamma                103.071(1)
_cell_volume                     1841.94
_exptl_crystal_colour            black
_exptl_crystal_description       rod
_cell_formula_units_Z            2
loop_
_atom_site_label
_atom_site_type_symbol
_atom_site_fract_x
_atom_site_fract_y
_atom_site_fract_z
S1 S 0.82362(17) 0.12448(12) 0.46119(7)
S2 S 0.61804(17) -0.10938(13) 0.45932(8)
S3 S 0.97221(18) 0.08697(13) 0.62789(8)
S4 S 0.77379(16) -0.15073(12) 0.61877(7)
S5 S 0.7083(2) 0.17823(15) 0.31281(9)
S6 S 0.4548(2) -0.09508(16) 0.31309(11)
S7 S 1.0926(2) 0.08483(13) 0.78670(8)
S8 S 0.84893(18) -0.19823(13) 0.77481(8)
C1 C 0.7664(6) -0.0027(5) 0.5075(3)
C2 C 0.8305(6) -0.0202(5) 0.5763(3)
C3 C 0.6944(6) 0.0792(5) 0.3818(3)
C4 C 0.5989(6) -0.0281(5) 0.3822(3)
C5 C 0.9731(6) 0.0104(5) 0.7091(3)
C6 C 0.8809(6) -0.0994(5) 0.7054(3)
C7 C 0.5426(15) 0.1196(11) 0.2515(7)
H1 H 0.4594 0.1419 0.2740
H2 H 0.5527 0.1557 0.2041
C8 C 0.5066(16) -0.0129(11) 0.2353(7)
H3 H 0.5933 -0.0355 0.2168
H4 H 0.4256 -0.0353 0.1951
C11 C 1.0181(10) -0.0017(7) 0.8628(4)
H9 H 1.0838 0.0247 0.9090
H10 H 0.9207 0.0123 0.8714
C12 C 1.0032(10) -0.1364(7) 0.8441(5)
H11 H 0.9890 -0.1768 0.8898
H12 H 1.0947 -0.1490 0.8252
S9 S 0.96772(17) 0.59352(12) 0.62313(8)
S10 S 0.77241(17) 0.35516(12) 0.61321(7)
S11 S 0.81999(17) 0.63000(12) 0.45605(7)
S12 S 0.61661(18) 0.39570(13) 0.45418(8)
S13 S 1.10164(18) 0.58555(13) 0.77866(8)
S14 S 0.86305(18) 0.30093(14) 0.76510(8)
S15 S 0.7027(2) 0.68520(14) 0.30877(8)
S16 S 0.4544(2) 0.40862(17) 0.30688(11)
C15 C 0.8274(6) 0.4865(4) 0.5711(3)
C16 C 0.7627(6) 0.5025(5) 0.5016(3)
C17 C 0.9781(6) 0.5135(4) 0.7021(3)
C18 C 0.8848(6) 0.4031(4) 0.6979(3)
C19 C 0.6905(6) 0.5843(5) 0.3769(3)
C20 C 0.5958(6) 0.4769(5) 0.3768(3)
C21 C 1.0278(9) 0.4972(6) 0.8542(4)
H17 H 1.0934 0.5235 0.9005
H18 H 0.9302 0.5107 0.8630
C22 C 1.0136(9) 0.3659(7) 0.8360(4)
H19 H 0.9976 0.3257 0.8817
H20 H 1.1065 0.3538 0.8186
C27 C 0.5437(16) 0.6234(12) 0.2434(8)
H29 H 0.4562 0.6438 0.2624
H30 H 0.5581 0.6580 0.1956
C28 C 0.5162(15) 0.4884(11) 0.2301(7)
H31 H 0.6084 0.4688 0.2171
H32 H 0.4424 0.4617 0.1869
S17 S 0.66142(18) 0.20364(15) -0.01944(10)
F1 F 0.5421(5) 0.0897(3) -0.0518(2)
F2 F 0.7896(4) 0.3115(4) 0.0109(3)
F3 F 0.6398(8) 0.2618(7) -0.1014(4)
F4 F 0.6824(8) 0.1554(7) 0.0558(5)
F5 F 0.7780(8) 0.1460(6) -0.0546(4)
C29 C 0.5338(10) 0.2963(8) 0.0184(5)
H33 H 0.5595 0.3740 -0.0020
F6 F 0.5661(7) 0.3131(6) 0.0908(4)
C30 C 0.3646(9) 0.2421(7) -0.0047(5)
F7 F 0.3176(6) 0.1378(5) 0.0266(3)
F8 F 0.3342(7) 0.2116(5) -0.0782(3)
O1 O 0.1001(9) 0.2821(7) -0.0045(4)
O2 O 0.2701(11) 0.3816(9) 0.0942(6)
S18 S 0.24819(16) 0.34299(15) 0.01945(9)
O5 O 0.3051(5) 0.4385(4) -0.0247(4)
C9? C 0.5916(19) 0.0894(15) 0.2331(9)
H5? H 0.5690 0.1422 0.1961
H6? H 0.6478 0.0380 0.2095
C10? C 0.4464(19) 0.0136(14) 0.2532(9)
H7? H 0.3890 -0.0242 0.2065
H8? H 0.3904 0.0662 0.2757
C13? C 1.092(3) -0.029(2) 0.8488(14)
H13? H 1.1610 -0.0750 0.8322
H14? H 1.1322 0.0091 0.8986
C14? C 0.959(3) -0.108(2) 0.8571(15)
H15? H 0.8952 -0.0636 0.8805
H16? H 0.9815 -0.1628 0.8930
C23? C 1.109(3) 0.471(2) 0.8377(14)
H21? H 1.1660 0.4187 0.8151
H22? H 1.1629 0.5055 0.8860
C24? C 0.961(3) 0.399(2) 0.8510(14)
H23? H 0.8994 0.4520 0.8667
H24? H 0.9735 0.3500 0.8920
C25? C 0.5848(16) 0.5932(13) 0.2269(8)
H25? H 0.5618 0.6449 0.1893
H26? H 0.6407 0.5409 0.2040
C26? C 0.4425(15) 0.5203(12) 0.2492(7)
H27? H 0.3802 0.4846 0.2033
H28? H 0.3909 0.5736 0.2745
F9? F 0.6931(14) 0.2330(11) -0.0936(7)
F10? F 0.6303(15) 0.1307(13) 0.0616(8)
F11? F 0.7924(13) 0.1239(10) -0.0186(7)
C31? C 0.5088(16) 0.2766(13) -0.0180(8)
H34? H 0.5456 0.3613 -0.0242
F12? F 0.3991(13) 0.2159(10) -0.0886(6)
C32? C 0.4064(15) 0.2632(12) 0.0374(8)
F13? F 0.3467(11) 0.1565(9) 0.0556(6)
F14? F 0.5136(12) 0.3087(10) 0.1013(6)
O3? O 0.1220(15) 0.2458(12) -0.0196(7)
O4? O 0.239(2) 0.3468(15) 0.1042(10)
loop_
_geom_bond_atom_site_label_1
_geom_bond_atom_site_label_2
_geom_bond_site_symmetry_1
_geom_bond_site_symmetry_2
S1 C1 1_555 1_555
S2 C1 1_555 1_555
S3 C2 1_555 1_555
S4 C2 1_555 1_555
S5 C3 1_555 1_555
S6 C4 1_555 1_555
S7 C5 1_555 1_555
S8 C6 1_555 1_555
C1 C2 1_555 1_555
C3 S1 1_555 1_555
C4 S2 1_555 1_555
C5 S3 1_555 1_555
C6 S4 1_555 1_555
C7 S5 1_555 1_555
H1 C7 1_555 1_555
H2 C7 1_555 1_555
C8 S6 1_555 1_555
H3 C8 1_555 1_555
H4 C8 1_555 1_555
C11 S7 1_555 1_555
H9 C11 1_555 1_555
H10 C11 1_555 1_555
C12 S8 1_555 1_555
H11 C12 1_555 1_555
H12 C12 1_555 1_555
S9 C15 1_555 1_555
S10 C15 1_555 1_555
S11 C16 1_555 1_555
S12 C16 1_555 1_555
S13 C17 1_555 1_555
S14 C18 1_555 1_555
S15 C19 1_555 1_555
S16 C20 1_555 1_555
C15 C16 1_555 1_555
C17 S9 1_555 1_555
C18 S10 1_555 1_555
C19 S11 1_555 1_555
C20 S12 1_555 1_555
C21 S13 1_555 1_555
H17 C21 1_555 1_555
H18 C21 1_555 1_555
C22 S14 1_555 1_555
H19 C22 1_555 1_555
H20 C22 1_555 1_555
C27 S15 1_555 1_555
H29 C27 1_555 1_555
H30 C27 1_555 1_555
C28 S16 1_555 1_555
H31 C28 1_555 1_555
H32 C28 1_555 1_555
S17 F1 1_555 1_555
F2 S17 1_555 1_555
F3 S17 1_555 1_555
F4 S17 1_555 1_555
F5 S17 1_555 1_555
C29 S17 1_555 1_555
H33 C29 1_555 1_555
F6 C29 1_555 1_555
C30 C29 1_555 1_555
F7 C30 1_555 1_555
F8 C30 1_555 1_555
O1 S18 1_555 1_555
O2 S18 1_555 1_555
S18 C30 1_555 1_555
O5 S18 1_555 1_555
C3 C4 1_555 1_555
C5 C6 1_555 1_555
C7 C8 1_555 1_555
C11 C12 1_555 1_555
C17 C18 1_555 1_555
C19 C20 1_555 1_555
C21 C22 1_555 1_555
C27 C28 1_555 1_555

#END
