
#######################################################################
#
#                 Cambridge Crystallographic Data Centre
#                                CCDC 
#
#######################################################################
#
# If this CIF has been generated from an entry in the Cambridge 
# Structural Database, then it will include bibliographic, chemical, 
# crystal, experimental, refinement or atomic coordinate data resulting 
# from the CCDC's data processing and validation procedures.
#
#######################################################################

data_ECOQUK
_chemical_formula_moiety         'C23 H21 N1 O4 S1'
_chemical_name_systematic        
'Methyl (5-((4-methylphenyl)sulfonyl)-5,6-dihydrophenanthridin-6-yl)acetate'
_symmetry_cell_setting           triclinic
_symmetry_space_group_name_H-M   'P -1'
_symmetry_Int_Tables_number      2
_space_group_name_Hall           '-P 1'
loop_
_symmetry_equiv_pos_site_id
_symmetry_equiv_pos_as_xyz
1 x,y,z
2 -x,-y,-z
_cell_length_a                   9.2953(2)
_cell_length_b                   12.8537(3)
_cell_length_c                   17.3412(5)
_cell_angle_alpha                86.755(2)
_cell_angle_beta                 81.0610(10)
_cell_angle_gamma                84.455(2)
_cell_volume                     2035.34
_exptl_crystal_colour            colorless
_exptl_crystal_description       block
_cell_formula_units_Z            4
loop_
_atom_site_label
_atom_site_type_symbol
_atom_site_fract_x
_atom_site_fract_y
_atom_site_fract_z
S1 S 0.85467(8) 0.24844(6) 0.52382(4)
O1 O 0.54231(17) 0.56228(15) 0.61468(9)
O2 O 0.7340(2) 0.5716(2) 0.52221(11)
O3 O 0.9052(3) 0.3203(2) 0.46194(10)
O4 O 0.7410(3) 0.18504(19) 0.51493(15)
N1 N 0.79329(19) 0.31948(15) 0.60141(11)
C1 C 0.8786(2) 0.40733(17) 0.61396(11)
H1 H 0.9302 0.4318 0.5621
C2 C 0.9920(2) 0.37319(16) 0.66619(11)
C3 C 1.1202(2) 0.42203(18) 0.65852(12)
H2 H 1.1372 0.4769 0.6201
C4 C 1.2234(2) 0.39131(19) 0.70642(14)
H3 H 1.3112 0.4250 0.7011
C5 C 1.1987(2) 0.31124(18) 0.76231(13)
H4 H 1.2700 0.2896 0.7950
C6 C 1.0709(2) 0.26278(17) 0.77063(12)
H5 H 1.0548 0.2080 0.8093
C7 C 0.9649(2) 0.29321(15) 0.72301(11)
C8 C 0.8242(2) 0.24631(16) 0.73166(13)
C9 C 0.7694(3) 0.18887(19) 0.79918(17)
H6 H 0.8234 0.1799 0.8417
C10 C 0.6384(3) 0.1453(2) 0.8049(2)
H7 H 0.6046 0.1045 0.8503
C11 C 0.5566(3) 0.1604(2) 0.7455(3)
H8 H 0.4660 0.1304 0.7502
C12 C 0.6045(3) 0.2188(2) 0.6788(2)
H9 H 0.5461 0.2305 0.6383
C13 C 0.7402(2) 0.26078(17) 0.67139(15)
C14 C 0.7710(2) 0.49728(16) 0.64756(11)
H10 H 0.7042 0.4703 0.6928
H11 H 0.8259 0.5506 0.6663
C15 C 0.6828(2) 0.54716(18) 0.58738(13)
C16 C 0.4514(3) 0.6193(3) 0.56228(17)
H12 H 0.3494 0.6255 0.5877
H13 H 0.4594 0.5815 0.5141
H14 H 0.4844 0.6893 0.5498
C17 C 1.0049(3) 0.1658(2) 0.54798(14)
C18 C 0.9824(3) 0.0726(2) 0.5882(2)
H15 H 0.8869 0.0500 0.6004
C19 C 1.1011(3) 0.0118(2) 0.6107(2)
H16 H 1.0856 -0.0524 0.6392
C20 C 1.2408(3) 0.0417(2) 0.59295(16)
C21 C 1.2607(3) 0.1361(2) 0.55308(15)
H17 H 1.3562 0.1587 0.5409
C22 C 1.1424(3) 0.1991(2) 0.53023(14)
H18 H 1.1570 0.2642 0.5027
C23 C 1.3692(3) -0.0273(2) 0.6167(2)
H19 H 1.3342 -0.0907 0.6446
H20 H 1.4184 0.0107 0.6509
H21 H 1.4382 -0.0467 0.5700
S2 S 0.20597(6) 0.25483(4) 0.02211(3)
O5 O 0.27666(17) 0.56978(14) 0.03038(9)
O6 O 0.36867(15) 0.56191(12) 0.14210(8)
O7 O 0.33831(17) 0.18749(13) 0.01834(10)
O8 O 0.18286(19) 0.32585(13) -0.04196(8)
N2 N 0.19835(16) 0.32777(12) 0.09919(9)
C24 C 0.08067(19) 0.41501(15) 0.10856(11)
H22 H 0.0579 0.4402 0.0558
C25 C -0.05654(19) 0.37995(15) 0.15758(10)
C26 C -0.1937(2) 0.41914(17) 0.14221(12)
H23 H -0.2029 0.4678 0.0996
C27 C -0.3179(2) 0.38707(19) 0.18925(14)
H24 H -0.4122 0.4133 0.1786
C28 C -0.3039(2) 0.31732(19) 0.25125(14)
H25 H -0.3890 0.2956 0.2834
C29 C -0.1677(2) 0.27850(18) 0.26726(13)
H26 H -0.1596 0.2307 0.3105
C30 C -0.04140(19) 0.30897(15) 0.22023(11)
C31 C 0.1066(2) 0.26624(16) 0.23259(11)
C32 C 0.1359(2) 0.21739(18) 0.30325(12)
H27 H 0.0596 0.2151 0.3465
C33 C 0.2742(3) 0.1725(2) 0.31114(15)
H28 H 0.2918 0.1381 0.3592
C34 C 0.3869(2) 0.1774(2) 0.24940(15)
H29 H 0.4812 0.1446 0.2546
C35 C 0.3632(2) 0.22969(18) 0.18006(13)
H30 H 0.4421 0.2359 0.1385
C36 C 0.2233(2) 0.27328(15) 0.17130(11)
C37 C 0.1349(2) 0.50454(15) 0.14728(11)
H31 H 0.0548 0.5612 0.1563
H32 H 0.1606 0.4790 0.1988
C38 C 0.2658(2) 0.54828(15) 0.09892(11)
C39 C 0.4953(2) 0.6094(2) 0.10038(15)
H33 H 0.5652 0.6161 0.1363
H34 H 0.4645 0.6788 0.0791
H35 H 0.5418 0.5653 0.0575
C40 C 0.0568(2) 0.17809(16) 0.04273(12)
C41 C -0.0733(3) 0.21371(19) 0.01771(14)
H36 H -0.0801 0.2761 -0.0141
C42 C -0.1941(3) 0.1577(2) 0.03945(17)
H37 H -0.2840 0.1821 0.0221
C43 C -0.1864(3) 0.0674(2) 0.08571(18)
C44 C -0.0536(4) 0.0338(2) 0.11028(19)
H38 H -0.0471 -0.0281 0.1427
C45 C 0.0690(3) 0.08750(18) 0.08911(16)
H39 H 0.1592 0.0629 0.1059
C46 C -0.3178(4) 0.0062(3) 0.1101(2)
H40 H -0.4011 0.0403 0.0871
H41 H -0.3422 0.0038 0.1672
H42 H -0.2955 -0.0651 0.0918
loop_
_geom_bond_atom_site_label_1
_geom_bond_atom_site_label_2
_geom_bond_site_symmetry_1
_geom_bond_site_symmetry_2
S1 O3 1_555 1_555
S2 O7 1_555 1_555
O1 C15 1_555 1_555
O2 C15 1_555 1_555
O4 S1 1_555 1_555
O5 C38 1_555 1_555
O6 C38 1_555 1_555
O8 S2 1_555 1_555
N1 S1 1_555 1_555
N2 S2 1_555 1_555
C1 N1 1_555 1_555
H1 C1 1_555 1_555
C2 C1 1_555 1_555
C3 C2 1_555 1_555
H2 C3 1_555 1_555
C4 C3 1_555 1_555
H3 C4 1_555 1_555
C5 C4 1_555 1_555
H4 C5 1_555 1_555
C6 C5 1_555 1_555
H5 C6 1_555 1_555
C7 C2 1_555 1_555
C8 C7 1_555 1_555
C9 C8 1_555 1_555
H6 C9 1_555 1_555
C10 C9 1_555 1_555
H7 C10 1_555 1_555
C11 C10 1_555 1_555
H8 C11 1_555 1_555
C12 C11 1_555 1_555
H9 C12 1_555 1_555
C13 N1 1_555 1_555
C14 C1 1_555 1_555
H10 C14 1_555 1_555
H11 C14 1_555 1_555
C15 C14 1_555 1_555
C16 O1 1_555 1_555
H12 C16 1_555 1_555
H13 C16 1_555 1_555
H14 C16 1_555 1_555
C17 S1 1_555 1_555
C18 C17 1_555 1_555
H15 C18 1_555 1_555
C19 C18 1_555 1_555
H16 C19 1_555 1_555
C20 C19 1_555 1_555
C21 C20 1_555 1_555
H17 C21 1_555 1_555
C22 C17 1_555 1_555
H18 C22 1_555 1_555
C23 C20 1_555 1_555
H19 C23 1_555 1_555
H20 C23 1_555 1_555
H21 C23 1_555 1_555
C24 N2 1_555 1_555
H22 C24 1_555 1_555
C25 C24 1_555 1_555
C26 C25 1_555 1_555
H23 C26 1_555 1_555
C27 C26 1_555 1_555
H24 C27 1_555 1_555
C28 C27 1_555 1_555
H25 C28 1_555 1_555
C29 C28 1_555 1_555
H26 C29 1_555 1_555
C30 C25 1_555 1_555
C31 C30 1_555 1_555
C32 C31 1_555 1_555
H27 C32 1_555 1_555
C33 C32 1_555 1_555
H28 C33 1_555 1_555
C34 C33 1_555 1_555
H29 C34 1_555 1_555
C35 C34 1_555 1_555
H30 C35 1_555 1_555
C36 N2 1_555 1_555
C37 C24 1_555 1_555
H31 C37 1_555 1_555
H32 C37 1_555 1_555
C38 C37 1_555 1_555
C39 O6 1_555 1_555
H33 C39 1_555 1_555
H34 C39 1_555 1_555
H35 C39 1_555 1_555
C40 S2 1_555 1_555
C41 C40 1_555 1_555
H36 C41 1_555 1_555
C42 C41 1_555 1_555
H37 C42 1_555 1_555
C43 C42 1_555 1_555
C44 C43 1_555 1_555
H38 C44 1_555 1_555
C45 C40 1_555 1_555
H39 C45 1_555 1_555
C46 C43 1_555 1_555
H40 C46 1_555 1_555
H41 C46 1_555 1_555
H42 C46 1_555 1_555
C6 C7 1_555 1_555
C8 C13 1_555 1_555
C12 C13 1_555 1_555
C21 C22 1_555 1_555
C29 C30 1_555 1_555
C31 C36 1_555 1_555
C35 C36 1_555 1_555
C44 C45 1_555 1_555

#END
