
#######################################################################
#
#                 Cambridge Crystallographic Data Centre
#                                CCDC 
#
#######################################################################
#
# If this CIF has been generated from an entry in the Cambridge 
# Structural Database, then it will include bibliographic, chemical, 
# crystal, experimental, refinement or atomic coordinate data resulting 
# from the CCDC's data processing and validation procedures.
#
#######################################################################

data_ECORAR
_chemical_formula_moiety         'C31 H31 N4 1+,Cl1 1-,C1 H1 Cl3'
_chemical_name_systematic        
'3-(2,6-Diisopropylphenyl)-1-(4,6-diphenylpyrimidin-2-yl)-1H-imidazol-3-ium chloride chloroform solvate'
_symmetry_cell_setting           triclinic
_symmetry_space_group_name_H-M   'P -1'
_symmetry_Int_Tables_number      2
_space_group_name_Hall           '-P 1'
loop_
_symmetry_equiv_pos_site_id
_symmetry_equiv_pos_as_xyz
1 x,y,z
2 -x,-y,-z
_cell_length_a                   8.8369(7)
_cell_length_b                   10.8166(9)
_cell_length_c                   16.2952(13)
_cell_angle_alpha                97.1100(10)
_cell_angle_beta                 94.6140(10)
_cell_angle_gamma                92.0740(10)
_cell_volume                     1538.92
_exptl_crystal_colour            colorless
_exptl_crystal_description       block
_cell_formula_units_Z            2
loop_
_atom_site_label
_atom_site_type_symbol
_atom_site_fract_x
_atom_site_fract_y
_atom_site_fract_z
C1 C -0.22539(18) 0.02706(16) 0.10191(10)
C2 C -0.18531(19) 0.06136(17) -0.02771(10)
C3 C -0.29116(19) -0.03529(16) -0.05687(10)
H1 H -0.3137 -0.0591 -0.1148
C4 C -0.36399(18) -0.09692(16) 0.00064(10)
C5 C -0.10807(19) 0.13854(16) -0.08259(10)
C6 C 0.0190(2) 0.21397(17) -0.05035(11)
H2 H 0.0562 0.2144 0.0060
C7 C 0.0917(2) 0.28828(18) -0.09965(13)
H3 H 0.1800 0.3378 -0.0775
C8 C 0.0360(2) 0.29074(18) -0.18152(12)
H4 H 0.0846 0.3432 -0.2151
C9 C -0.0906(2) 0.21649(19) -0.21401(12)
H5 H -0.1286 0.2179 -0.2701
C10 C -0.1626(2) 0.13983(18) -0.16523(11)
H6 H -0.2488 0.0883 -0.1881
C11 C -0.47753(19) -0.20155(16) -0.02396(11)
C12 C -0.5278(2) -0.23776(17) -0.10701(11)
H7 H -0.4846 -0.1979 -0.1490
C13 C -0.6402(2) -0.33142(18) -0.12886(12)
H8 H -0.6747 -0.3547 -0.1856
C14 C -0.7022(2) -0.39113(19) -0.06817(13)
H9 H -0.7809 -0.4539 -0.0832
C15 C -0.6500(2) -0.35960(19) 0.01391(13)
H10 H -0.6903 -0.4028 0.0552
C16 C -0.5385(2) -0.26482(18) 0.03663(11)
H11 H -0.5036 -0.2429 0.0934
C17 C -0.27506(19) 0.04755(17) 0.25000(10)
H12 H -0.3783 0.0177 0.2429
C18 C -0.04845(19) 0.12035(17) 0.30665(11)
H13 H 0.0324 0.1492 0.3473
C19 C -0.04229(19) 0.10726(17) 0.22395(11)
H14 H 0.0428 0.1263 0.1949
C20 C -0.24671(18) 0.07955(17) 0.40392(10)
C21 C -0.23967(18) -0.03448(17) 0.43593(10)
C22 C -0.28192(19) -0.03525(18) 0.51697(11)
H15 H -0.2811 -0.1108 0.5411
C23 C -0.3246(2) 0.07226(19) 0.56201(11)
H16 H -0.3501 0.0704 0.6174
C24 C -0.3309(2) 0.18298(19) 0.52757(11)
H17 H -0.3610 0.2560 0.5596
C25 C -0.29369(19) 0.18902(17) 0.44658(10)
C26 C -0.1922(2) -0.15189(17) 0.38587(11)
H18 H -0.1362 -0.1261 0.3393
C27 C -0.3308(2) -0.2339(2) 0.34750(14)
H19 H -0.3876 -0.2612 0.3918
H20 H -0.2972 -0.3069 0.3131
H21 H -0.3963 -0.1860 0.3130
C28 C -0.0852(2) -0.2265(2) 0.43681(13)
H22 H 0.0005 -0.1719 0.4632
H23 H -0.0473 -0.2953 0.4003
H24 H -0.1402 -0.2602 0.4796
C29 C -0.3034(2) 0.31019(19) 0.40867(11)
H25 H -0.3007 0.2900 0.3473
C30 C -0.4512(3) 0.3730(2) 0.42487(14)
H26 H -0.5373 0.3140 0.4058
H27 H -0.4587 0.4459 0.3947
H28 H -0.4528 0.3997 0.4845
C31 C -0.1676(3) 0.3994(2) 0.44104(16)
H29 H -0.1689 0.4218 0.5011
H30 H -0.1737 0.4749 0.4136
H31 H -0.0731 0.3586 0.4292
N1 N -0.14738(16) 0.09123(14) 0.05445(8)
N2 N -0.33235(15) -0.06168(14) 0.08300(8)
N3 N -0.18430(15) 0.06055(14) 0.18927(8)
N4 N -0.19470(16) 0.08390(14) 0.32174(8)
Cl1 Cl 0.36021(5) 0.12773(4) 0.27871(3)
C32 C 0.2598(2) 0.42198(19) 0.24169(12)
H32 H 0.3158 0.3461 0.2525
Cl2 Cl 0.39276(6) 0.54688(5) 0.24099(4)
Cl3 Cl 0.13896(8) 0.45710(7) 0.32094(4)
Cl4 Cl 0.15346(6) 0.39074(5) 0.14509(3)
loop_
_geom_bond_atom_site_label_1
_geom_bond_atom_site_label_2
_geom_bond_site_symmetry_1
_geom_bond_site_symmetry_2
C1 N1 1_555 1_555
C2 C3 1_555 1_555
C3 H1 1_555 1_555
C4 C3 1_555 1_555
C5 C2 1_555 1_555
C6 C5 1_555 1_555
H2 C6 1_555 1_555
C7 C6 1_555 1_555
H3 C7 1_555 1_555
C8 C7 1_555 1_555
H4 C8 1_555 1_555
C9 C8 1_555 1_555
H5 C9 1_555 1_555
C10 C5 1_555 1_555
H6 C10 1_555 1_555
C11 C4 1_555 1_555
C12 C11 1_555 1_555
H7 C12 1_555 1_555
C13 C12 1_555 1_555
H8 C13 1_555 1_555
C14 C13 1_555 1_555
H9 C14 1_555 1_555
C15 C14 1_555 1_555
H10 C15 1_555 1_555
C16 C11 1_555 1_555
H11 C16 1_555 1_555
C17 H12 1_555 1_555
C18 H13 1_555 1_555
C19 C18 1_555 1_555
H14 C19 1_555 1_555
C20 C21 1_555 1_555
C21 C22 1_555 1_555
C22 H15 1_555 1_555
C23 C22 1_555 1_555
H16 C23 1_555 1_555
C24 C23 1_555 1_555
H17 C24 1_555 1_555
C25 C20 1_555 1_555
C26 C21 1_555 1_555
H18 C26 1_555 1_555
C27 C26 1_555 1_555
H19 C27 1_555 1_555
H20 C27 1_555 1_555
H21 C27 1_555 1_555
C28 C26 1_555 1_555
H22 C28 1_555 1_555
H23 C28 1_555 1_555
H24 C28 1_555 1_555
C29 C25 1_555 1_555
H25 C29 1_555 1_555
C30 C29 1_555 1_555
H26 C30 1_555 1_555
H27 C30 1_555 1_555
H28 C30 1_555 1_555
C31 C29 1_555 1_555
H29 C31 1_555 1_555
H30 C31 1_555 1_555
H31 C31 1_555 1_555
N1 C2 1_555 1_555
N2 C1 1_555 1_555
N3 C1 1_555 1_555
N4 C17 1_555 1_555
C32 H32 1_555 1_555
Cl2 C32 1_555 1_555
Cl3 C32 1_555 1_555
Cl4 C32 1_555 1_555
C4 N2 1_555 1_555
C9 C10 1_555 1_555
C15 C16 1_555 1_555
C17 N3 1_555 1_555
C18 N4 1_555 1_555
C19 N3 1_555 1_555
C20 N4 1_555 1_555
C24 C25 1_555 1_555

#END
