
#######################################################################
#
#                 Cambridge Crystallographic Data Centre
#                                CCDC 
#
#######################################################################
#
# If this CIF has been generated from an entry in the Cambridge 
# Structural Database, then it will include bibliographic, chemical, 
# crystal, experimental, refinement or atomic coordinate data resulting 
# from the CCDC's data processing and validation procedures.
#
#######################################################################

data_ECOSIB
_chemical_formula_moiety         'C19 H35 N1 P2'
_chemical_name_systematic        
2-{bis[bis(propan-2-yl)phosphanyl]methyl}-6-methylpyridine
_symmetry_cell_setting           monoclinic
_symmetry_space_group_name_H-M   'P 2/c'
_symmetry_Int_Tables_number      13
_space_group_name_Hall           '-P 2yc'
loop_
_symmetry_equiv_pos_site_id
_symmetry_equiv_pos_as_xyz
1 x,y,z
2 -x,y,1/2-z
3 -x,-y,-z
4 x,-y,1/2+z
_cell_length_a                   16.2905(5)
_cell_length_b                   6.7510(2)
_cell_length_c                   18.9112(6)
_cell_angle_alpha                90
_cell_angle_beta                 98.2024(11)
_cell_angle_gamma                90
_cell_volume                     2058.52
_exptl_crystal_colour            colorless
_exptl_crystal_description       prism
_cell_formula_units_Z            4
loop_
_atom_site_label
_atom_site_type_symbol
_atom_site_fract_x
_atom_site_fract_y
_atom_site_fract_z
C1 C 0.77919(8) 0.8830(2) 0.42774(6)
C2 C 0.78860(8) 1.0883(2) 0.42979(7)
H1 H 0.7535 1.1705 0.3978
C3 C 0.84985(9) 1.1701(2) 0.47916(8)
H2 H 0.8572 1.3096 0.4820
C4 C 0.90014(9) 1.0459(2) 0.52422(8)
H3 H 0.9432 1.0989 0.5581
C5 C 0.88726(8) 0.8429(2) 0.51961(7)
C6 C 0.71201(8) 0.79161(19) 0.37513(6)
H4 H 0.6660 0.8904 0.3657
C7 C 0.93883(10) 0.7011(3) 0.56840(8)
H5 H 0.9024 0.6169 0.5925
H6 H 0.9761 0.7757 0.6041
H7 H 0.9717 0.6182 0.5404
C8 C 0.63311(8) 0.6310(2) 0.49637(7)
H8 H 0.5758 0.5761 0.4944
C9 C 0.62598(10) 0.8512(2) 0.51338(8)
H9 H 0.5963 0.8669 0.5546
H10 H 0.5955 0.9193 0.4720
H11 H 0.6816 0.9085 0.5245
C10 C 0.68569(10) 0.5220(3) 0.55748(8)
H12 H 0.7424 0.5741 0.5635
H13 H 0.6866 0.3803 0.5465
H14 H 0.6619 0.5417 0.6017
C11 C 0.56638(8) 0.5504(2) 0.34873(7)
H15 H 0.5798 0.5473 0.2988
C12 C 0.52500(10) 0.3524(3) 0.36082(9)
H16 H 0.5089 0.3503 0.4088
H17 H 0.5640 0.2442 0.3563
H18 H 0.4756 0.3358 0.3251
C13 C 0.50540(9) 0.7204(3) 0.35190(9)
H19 H 0.4558 0.6973 0.3170
H20 H 0.5315 0.8451 0.3407
H21 H 0.4897 0.7280 0.4000
C14 C 0.85088(8) 0.6208(2) 0.31272(7)
H22 H 0.8488 0.5425 0.3573
C15 C 0.92280(9) 0.7664(2) 0.32984(8)
H23 H 0.9737 0.6933 0.3472
H24 H 0.9104 0.8593 0.3667
H25 H 0.9304 0.8399 0.2866
C16 C 0.87039(10) 0.4719(2) 0.25599(9)
H26 H 0.8771 0.5427 0.2119
H27 H 0.8247 0.3767 0.2462
H28 H 0.9218 0.4011 0.2736
C17 C 0.76112(9) 0.9705(2) 0.24781(7)
H29 H 0.8024 1.0457 0.2818
C18 C 0.67987(10) 1.0874(3) 0.23489(9)
H30 H 0.6889 1.2120 0.2106
H31 H 0.6610 1.1159 0.2808
H32 H 0.6377 1.0090 0.2050
C19 C 0.79489(11) 0.9447(3) 0.17675(8)
H33 H 0.7558 0.8658 0.1440
H34 H 0.8486 0.8767 0.1852
H35 H 0.8019 1.0750 0.1556
N1 N 0.82729(7) 0.76162(17) 0.47200(6)
P1 P 0.66772(2) 0.56127(5) 0.40902(2)
P2 P 0.74421(2) 0.72323(5) 0.28634(2)
loop_
_geom_bond_atom_site_label_1
_geom_bond_atom_site_label_2
_geom_bond_site_symmetry_1
_geom_bond_site_symmetry_2
C1 C2 1_555 1_555
C2 H1 1_555 1_555
C3 C2 1_555 1_555
H2 C3 1_555 1_555
C4 C3 1_555 1_555
H3 C4 1_555 1_555
C5 C4 1_555 1_555
C6 C1 1_555 1_555
H4 C6 1_555 1_555
C7 C5 1_555 1_555
H5 C7 1_555 1_555
H6 C7 1_555 1_555
H7 C7 1_555 1_555
C8 H8 1_555 1_555
C9 C8 1_555 1_555
H9 C9 1_555 1_555
H10 C9 1_555 1_555
H11 C9 1_555 1_555
C10 C8 1_555 1_555
H12 C10 1_555 1_555
H13 C10 1_555 1_555
H14 C10 1_555 1_555
C11 H15 1_555 1_555
C12 C11 1_555 1_555
H16 C12 1_555 1_555
H17 C12 1_555 1_555
H18 C12 1_555 1_555
C13 C11 1_555 1_555
H19 C13 1_555 1_555
H20 C13 1_555 1_555
H21 C13 1_555 1_555
C14 H22 1_555 1_555
C15 C14 1_555 1_555
H23 C15 1_555 1_555
H24 C15 1_555 1_555
H25 C15 1_555 1_555
C16 C14 1_555 1_555
H26 C16 1_555 1_555
H27 C16 1_555 1_555
H28 C16 1_555 1_555
C17 H29 1_555 1_555
C18 C17 1_555 1_555
H30 C18 1_555 1_555
H31 C18 1_555 1_555
H32 C18 1_555 1_555
C19 C17 1_555 1_555
H33 C19 1_555 1_555
H34 C19 1_555 1_555
H35 C19 1_555 1_555
N1 C1 1_555 1_555
P1 C6 1_555 1_555
P2 C6 1_555 1_555
C5 N1 1_555 1_555
C8 P1 1_555 1_555
C11 P1 1_555 1_555
C14 P2 1_555 1_555
C17 P2 1_555 1_555

#END
