
#######################################################################
#
#                 Cambridge Crystallographic Data Centre
#                                CCDC 
#
#######################################################################
#
# If this CIF has been generated from an entry in the Cambridge 
# Structural Database, then it will include bibliographic, chemical, 
# crystal, experimental, refinement or atomic coordinate data resulting 
# from the CCDC's data processing and validation procedures.
#
#######################################################################

data_ECOWEB
_chemical_formula_moiety         'C15 H13 N3 O1 S1'
_chemical_name_systematic        
N'-[(3-cyanophenyl)methylidene]-N-methyl-2-(thiophen-2-yl)acetohydrazide
_symmetry_cell_setting           triclinic
_symmetry_space_group_name_H-M   'P -1'
_symmetry_Int_Tables_number      2
_space_group_name_Hall           '-P 1'
loop_
_symmetry_equiv_pos_site_id
_symmetry_equiv_pos_as_xyz
1 x,y,z
2 -x,-y,-z
_cell_length_a                   9.3594(7)
_cell_length_b                   10.1143(7)
_cell_length_c                   15.8070(12)
_cell_angle_alpha                106.704(5)
_cell_angle_beta                 92.432(7)
_cell_angle_gamma                106.777(5)
_cell_volume                     1359.31
_exptl_crystal_colour            colorless
_exptl_crystal_description       plate
_cell_formula_units_Z            4
loop_
_atom_site_label
_atom_site_type_symbol
_atom_site_fract_x
_atom_site_fract_y
_atom_site_fract_z
C1 C 0.44883(17) 0.46449(16) 0.16930(10)
C2 C 0.44634(18) 0.57507(16) 0.24628(10)
H1 H 0.3740 0.5550 0.2851
C3 C 0.54885(18) 0.71367(16) 0.26619(10)
H2 H 0.5453 0.7879 0.3182
C4 C 0.65642(18) 0.74502(16) 0.21093(10)
H3 H 0.7269 0.8397 0.2250
C5 C 0.65933(17) 0.63477(16) 0.13419(10)
C6 C 0.55554(17) 0.49516(16) 0.11306(10)
H4 H 0.5579 0.4215 0.0604
C7 C 0.34349(17) 0.31634(16) 0.14643(10)
H5 H 0.3492 0.2430 0.0946
C8 C 0.15716(19) 0.03219(16) 0.09561(10)
H6 H 0.1446 0.0603 0.0421
H7 H 0.0780 -0.0588 0.0904
H8 H 0.2560 0.0183 0.1018
C9 C 0.04341(17) 0.11622(16) 0.23031(10)
C10 C 0.03819(17) 0.24178(16) 0.30984(10)
H9 H 0.0702 0.3332 0.2944
H10 H -0.0668 0.2255 0.3230
C11 C 0.13786(17) 0.25767(15) 0.39154(10)
C12 C 0.09228(19) 0.22118(17) 0.46509(10)
H11 H -0.0103 0.1799 0.4709
C13 C 0.2143(2) 0.25137(18) 0.53227(11)
H12 H 0.2019 0.2329 0.5876
C14 C 0.35045(19) 0.30956(17) 0.50833(11)
H13 H 0.4440 0.3371 0.5449
C15 C 0.77123(18) 0.66406(16) 0.07614(10)
N1 N 0.24352(14) 0.28688(13) 0.19727(8)
N2 N 0.14646(15) 0.14648(13) 0.17394(8)
N3 N 0.86018(16) 0.68439(14) 0.02951(9)
O1 O -0.04085(14) -0.00766(12) 0.21693(8)
S1 S 0.33237(4) 0.32713(4) 0.40385(3)
C16 C 0.12951(17) 0.59905(16) 0.81831(10)
C17 C 0.19830(17) 0.55084(16) 0.74397(10)
H14 H 0.1600 0.4524 0.7071
C18 C 0.32126(17) 0.64447(16) 0.72338(10)
H15 H 0.3666 0.6096 0.6726
C19 C 0.37944(18) 0.78915(17) 0.77615(10)
H16 H 0.4638 0.8534 0.7617
C20 C 0.31126(18) 0.83843(16) 0.85109(10)
C21 C 0.18679(17) 0.74391(16) 0.87227(10)
H17 H 0.1414 0.7782 0.9232
C22 C -0.00144(17) 0.50111(16) 0.84135(10)
H18 H -0.0419 0.5329 0.8948
C23 C -0.23822(18) 0.31465(17) 0.89282(10)
H19 H -0.1578 0.3386 0.9417
H20 H -0.3220 0.2317 0.8951
H21 H -0.2736 0.3987 0.8988
C24 C -0.24432(18) 0.14399(16) 0.74387(10)
C25 C -0.17210(19) 0.11278(16) 0.65922(10)
H22 H -0.0613 0.1532 0.6752
H23 H -0.1977 0.0061 0.6323
C26 C -0.21947(17) 0.17434(16) 0.59025(10)
C27 C -0.30906(18) 0.09509(18) 0.51024(11)
H24 H -0.3551 -0.0073 0.4928
C28 C -0.32632(19) 0.18168(19) 0.45580(11)
H25 H -0.3847 0.1437 0.3985
C29 C -0.24891(19) 0.32583(18) 0.49576(11)
H26 H -0.2465 0.3998 0.4694
C30 C 0.37254(18) 0.98796(17) 0.90659(11)
N4 N -0.05999(14) 0.37105(13) 0.78716(8)
N5 N -0.18037(15) 0.27735(13) 0.80764(8)
N6 N 0.42280(17) 1.10717(15) 0.95097(9)
O2 O -0.35504(14) 0.05496(12) 0.75548(8)
S2 S -0.15679(5) 0.35686(4) 0.59911(3)
loop_
_geom_bond_atom_site_label_1
_geom_bond_atom_site_label_2
_geom_bond_site_symmetry_1
_geom_bond_site_symmetry_2
C1 C2 1_555 1_555
C2 H1 1_555 1_555
C3 C2 1_555 1_555
H2 C3 1_555 1_555
C4 C3 1_555 1_555
H3 C4 1_555 1_555
C5 C4 1_555 1_555
C6 C1 1_555 1_555
H4 C6 1_555 1_555
C7 C1 1_555 1_555
H5 C7 1_555 1_555
C8 H6 1_555 1_555
H7 C8 1_555 1_555
H8 C8 1_555 1_555
C9 C10 1_555 1_555
C10 H9 1_555 1_555
H10 C10 1_555 1_555
C11 C10 1_555 1_555
C12 C11 1_555 1_555
H11 C12 1_555 1_555
C13 C12 1_555 1_555
H12 C13 1_555 1_555
C14 C13 1_555 1_555
H13 C14 1_555 1_555
C15 C5 1_555 1_555
N1 C7 1_555 1_555
N2 C8 1_555 1_555
N3 C15 1_555 1_555
O1 C9 1_555 1_555
S1 C11 1_555 1_555
C16 C17 1_555 1_555
C17 H14 1_555 1_555
C18 C17 1_555 1_555
H15 C18 1_555 1_555
C19 C18 1_555 1_555
H16 C19 1_555 1_555
C20 C19 1_555 1_555
C21 C16 1_555 1_555
H17 C21 1_555 1_555
C22 C16 1_555 1_555
H18 C22 1_555 1_555
C23 H19 1_555 1_555
H20 C23 1_555 1_555
H21 C23 1_555 1_555
C24 C25 1_555 1_555
C25 H22 1_555 1_555
H23 C25 1_555 1_555
C26 C25 1_555 1_555
C27 C26 1_555 1_555
H24 C27 1_555 1_555
C28 C27 1_555 1_555
H25 C28 1_555 1_555
C29 C28 1_555 1_555
H26 C29 1_555 1_555
C30 C20 1_555 1_555
N4 C22 1_555 1_555
N5 C23 1_555 1_555
N6 C30 1_555 1_555
O2 C24 1_555 1_555
S2 C26 1_555 1_555
C5 C6 1_555 1_555
C9 N2 1_555 1_555
C14 S1 1_555 1_555
N1 N2 1_555 1_555
C20 C21 1_555 1_555
C24 N5 1_555 1_555
C29 S2 1_555 1_555
N4 N5 1_555 1_555

#END
