
#######################################################################
#
#                 Cambridge Crystallographic Data Centre
#                                CCDC 
#
#######################################################################
#
# If this CIF has been generated from an entry in the Cambridge 
# Structural Database, then it will include bibliographic, chemical, 
# crystal, experimental, refinement or atomic coordinate data resulting 
# from the CCDC's data processing and validation procedures.
#
#######################################################################

data_ECUJOB
_chemical_formula_moiety         'C19 H25 N1 O4'
_chemical_name_systematic        
'(3S,6S,7aR)-6-Benzyl-3-t-butyl-1,6,7,7a-tetrahydro-5-oxopyrrolo(1,2-c)oxazole-7a-carboxylic acid methyl ester'
_symmetry_cell_setting           monoclinic
_symmetry_space_group_name_H-M   'P 21'
_symmetry_Int_Tables_number      4
_space_group_name_Hall           'P 2yb'
loop_
_symmetry_equiv_pos_site_id
_symmetry_equiv_pos_as_xyz
1 x,y,z
2 -x,1/2+y,-z
_cell_length_a                   12.6487(5)
_cell_length_b                   6.2593(2)
_cell_length_c                   13.2581(4)
_cell_angle_alpha                90.00
_cell_angle_beta                 118.275(2)
_cell_angle_gamma                90.00
_cell_volume                     924.428
_chemical_melting_point          '130-131 deg.C'
_cell_formula_units_Z            2
loop_
_atom_site_label
_atom_site_type_symbol
_atom_site_fract_x
_atom_site_fract_y
_atom_site_fract_z
C1 C 0.98554(19) 0.6898(4) 0.2618(2)
H1 H 0.9926 0.7610 0.3297
H2 H 1.0142 0.7846 0.2221
O1 O 0.86444(13) 0.6233(2) 0.18835(14)
C2 C 0.84385(16) 0.4366(4) 0.23631(16)
H3 H 0.8156 0.4777 0.2908
C3 C 0.74691(17) 0.3008(4) 0.14105(17)
C4 C 0.7907(3) 0.2136(6) 0.0606(2)
H4 H 0.7284 0.1294 0.0020
H5 H 0.8602 0.1260 0.1029
H6 H 0.8111 0.3301 0.0260
C5 C 0.6368(2) 0.4430(6) 0.0770(3)
H7 H 0.5742 0.3626 0.0166
H8 H 0.6577 0.5633 0.0451
H9 H 0.6094 0.4925 0.1292
C6 C 0.7145(2) 0.1144(5) 0.1956(2)
H10 H 0.6538 0.0283 0.1366
H11 H 0.6846 0.1687 0.2450
H12 H 0.7846 0.0290 0.2394
N1 N 0.96469(13) 0.3399(3) 0.30017(12)
C7 C 1.00652(16) 0.2525(3) 0.40672(14)
O2 O 0.94478(13) 0.1644(3) 0.44145(12)
C8 C 1.14129(16) 0.2840(3) 0.47388(14)
H13 H 1.1613 0.3343 0.5509
C9 C 1.20808(18) 0.0768(3) 0.48485(15)
H14 H 1.1737 -0.0333 0.5119
H15 H 1.1947 0.0348 0.4093
C10 C 1.34227(19) 0.0842(4) 0.56426(16)
C11 C 1.3968(2) 0.2428(6) 0.6442(2)
H16 H 1.3510 0.3551 0.6486
C12 C 1.5191(3) 0.2373(8) 0.7184(3)
H17 H 1.5538 0.3457 0.7722
C13 C 1.5886(3) 0.0797(8) 0.7145(3)
H18 H 1.6704 0.0771 0.7653
C14 C 1.5375(3) -0.0750(7) 0.6355(4)
H19 H 1.5849 -0.1852 0.6319
C15 C 1.4148(2) -0.0736(5) 0.5590(3)
H20 H 1.3820 -0.1804 0.5039
C16 C 1.16657(16) 0.4650(3) 0.41022(15)
H21 H 1.2368 0.4325 0.4015
H22 H 1.1801 0.5986 0.4516
C17 C 1.05317(16) 0.4798(3) 0.29170(15)
C18 C 1.08492(17) 0.4099(4) 0.19895(15)
C19 C 1.1435(3) 0.1182(6) 0.1240(2)
H23 H 1.1554 -0.0333 0.1344
H24 H 1.2175 0.1854 0.1381
H25 H 1.0833 0.1476 0.0469
O3 O 1.09761(17) 0.5297(3) 0.13594(15)
O4 O 1.10523(15) 0.2009(3) 0.20274(12)
loop_
_geom_bond_atom_site_label_1
_geom_bond_atom_site_label_2
_geom_bond_site_symmetry_1
_geom_bond_site_symmetry_2
C1 H1 1_555 1_555
H2 C1 1_555 1_555
O1 C1 1_555 1_555
C2 O1 1_555 1_555
H3 C2 1_555 1_555
C3 C2 1_555 1_555
C4 C3 1_555 1_555
H4 C4 1_555 1_555
H5 C4 1_555 1_555
H6 C4 1_555 1_555
C5 C3 1_555 1_555
H7 C5 1_555 1_555
H8 C5 1_555 1_555
H9 C5 1_555 1_555
C6 C3 1_555 1_555
H10 C6 1_555 1_555
H11 C6 1_555 1_555
H12 C6 1_555 1_555
N1 C2 1_555 1_555
C7 N1 1_555 1_555
O2 C7 1_555 1_555
C8 C7 1_555 1_555
H13 C8 1_555 1_555
C9 C8 1_555 1_555
H14 C9 1_555 1_555
H15 C9 1_555 1_555
C10 C9 1_555 1_555
C11 C10 1_555 1_555
H16 C11 1_555 1_555
C12 C11 1_555 1_555
H17 C12 1_555 1_555
C13 C12 1_555 1_555
H18 C13 1_555 1_555
C14 C13 1_555 1_555
H19 C14 1_555 1_555
C15 C10 1_555 1_555
H20 C15 1_555 1_555
C16 C8 1_555 1_555
H21 C16 1_555 1_555
H22 C16 1_555 1_555
C17 C1 1_555 1_555
C18 C17 1_555 1_555
C19 H23 1_555 1_555
H24 C19 1_555 1_555
H25 C19 1_555 1_555
O3 C18 1_555 1_555
O4 C18 1_555 1_555
N1 C17 1_555 1_555
C14 C15 1_555 1_555
C16 C17 1_555 1_555
C19 O4 1_555 1_555

#END
