
#######################################################################
#
#                 Cambridge Crystallographic Data Centre
#                                CCDC 
#
#######################################################################
#
# If this CIF has been generated from an entry in the Cambridge 
# Structural Database, then it will include bibliographic, chemical, 
# crystal, experimental, refinement or atomic coordinate data resulting 
# from the CCDC's data processing and validation procedures.
#
#######################################################################

data_ECUJIY
_chemical_formula_moiety         'C42 H30 N4 O8 P2'
_chemical_name_systematic        
'2,5-bis(diphenylphosphoryl)-3,6-bis((4-nitrophenyl)amino)cyclohexa-2,5-diene-1,4-dione unknown solvate'
_symmetry_cell_setting           monoclinic
_symmetry_space_group_name_H-M   'P 21/n'
_symmetry_Int_Tables_number      14
_space_group_name_Hall           '-P 2yn'
loop_
_symmetry_equiv_pos_site_id
_symmetry_equiv_pos_as_xyz
1 x,y,z
2 1/2-x,1/2+y,1/2-z
3 -x,-y,-z
4 1/2+x,1/2-y,1/2+z
_cell_length_a                   10.1237(3)
_cell_length_b                   17.6213(4)
_cell_length_c                   10.6801(3)
_cell_angle_alpha                90
_cell_angle_beta                 90.5914(10)
_cell_angle_gamma                90
_cell_volume                     1905.15
_exptl_crystal_colour            black
_exptl_crystal_description       parallelepiped
_cell_formula_units_Z            2
loop_
_atom_site_label
_atom_site_type_symbol
_atom_site_fract_x
_atom_site_fract_y
_atom_site_fract_z
P1 P 0.83621(4) 0.06393(2) 0.73700(4)
O1 O 0.79455(11) 0.08979(7) 0.46386(11)
O2 O 0.90553(12) 0.04310(7) 0.85747(11)
O3 O 0.67655(18) 0.33830(10) -0.00941(16)
O4 O 0.72107(16) 0.39465(8) 0.16523(18)
N1 N 0.96532(15) 0.06975(8) 0.26544(14)
H1 H 0.997(2) 0.0466(12) 0.209(2)
N2 N 0.72557(16) 0.33950(9) 0.09629(18)
C1 C 0.89606(16) 0.05382(9) 0.48492(15)
C2 C 0.92486(15) 0.02338(9) 0.60791(15)
C3 C 0.66830(16) 0.03181(10) 0.73556(16)
C4 C 0.61746(18) -0.01561(10) 0.64341(17)
H2 H 0.6714 -0.0310 0.5757
C5 C 0.48749(19) -0.04060(11) 0.65018(19)
H3 H 0.4525 -0.0730 0.5870
C6 C 0.40941(19) -0.01838(12) 0.7483(2)
H4 H 0.3205 -0.0354 0.7523
C7 C 0.45929(19) 0.02854(12) 0.8411(2)
H5 H 0.4049 0.0435 0.9087
C8 C 0.58862(18) 0.05364(11) 0.83550(18)
H6 H 0.6232 0.0857 0.8994
C9 C 0.83587(17) 0.16489(10) 0.71313(16)
C10 C 0.7307(2) 0.20332(11) 0.65717(18)
H7 H 0.6522 0.1768 0.6351
C11 C 0.7409(2) 0.28057(12) 0.6337(2)
H8 H 0.6692 0.3069 0.5955
C12 C 0.8550(2) 0.31927(12) 0.6658(2)
H9 H 0.8621 0.3720 0.6484
C13 C 0.9591(2) 0.28148(12) 0.7233(2)
H10 H 1.0369 0.3085 0.7462
C14 C 0.95021(19) 0.20454(11) 0.7476(2)
H11 H 1.0215 0.1788 0.7875
C15 C 0.98588(15) 0.03516(9) 0.37681(15)
C16 C 0.90525(16) 0.13921(9) 0.23162(15)
C17 C 0.85780(19) 0.14335(11) 0.10858(16)
H12 H 0.8650 0.1005 0.0551
C18 C 0.80049(19) 0.20926(11) 0.06419(17)
H13 H 0.7679 0.2121 -0.0194
C19 C 0.79136(18) 0.27068(10) 0.14297(18)
C20 C 0.84112(19) 0.26868(10) 0.26490(18)
H14 H 0.8351 0.3121 0.3173
C21 C 0.89933(18) 0.20292(10) 0.30868(17)
H15 H 0.9353 0.2011 0.3911
P1B P 1.16379(4) -0.06393(2) 0.26300(4)
O1B O 1.20545(11) -0.08979(7) 0.53614(11)
O2B O 1.09447(12) -0.04310(7) 0.14253(11)
O3B O 1.32345(18) -0.33830(10) 1.00941(16)
O4B O 1.27893(16) -0.39465(8) 0.83477(18)
N1B N 1.03468(15) -0.06975(8) 0.73456(14)
H1B H 1.003(2) -0.0466(12) 0.791(2)
N2B N 1.27443(16) -0.33950(9) 0.90371(18)
C1B C 1.10394(16) -0.05382(9) 0.51508(15)
C2B C 1.07514(15) -0.02338(9) 0.39209(15)
C3B C 1.33170(16) -0.03181(10) 0.26444(16)
C4B C 1.38254(18) 0.01561(10) 0.35659(17)
H2B H 1.3286 0.0310 0.4243
C5B C 1.51251(19) 0.04060(11) 0.34982(19)
H3B H 1.5475 0.0730 0.4130
C6B C 1.59059(19) 0.01838(12) 0.2517(2)
H4B H 1.6795 0.0354 0.2477
C7B C 1.54071(19) -0.02854(12) 0.1589(2)
H5B H 1.5951 -0.0435 0.0913
C8B C 1.41138(18) -0.05364(11) 0.16450(18)
H6B H 1.3768 -0.0857 0.1006
C9B C 1.16413(17) -0.16489(10) 0.28687(16)
C10B C 1.2693(2) -0.20332(11) 0.34283(18)
H7B H 1.3478 -0.1768 0.3649
C11B C 1.2591(2) -0.28057(12) 0.3663(2)
H8B H 1.3308 -0.3069 0.4045
C12B C 1.1450(2) -0.31927(12) 0.3342(2)
H9B H 1.1379 -0.3720 0.3516
C13B C 1.0409(2) -0.28148(12) 0.2767(2)
H10B H 0.9631 -0.3085 0.2538
C14B C 1.04979(19) -0.20454(11) 0.2524(2)
H11B H 0.9785 -0.1788 0.2125
C15B C 1.01412(15) -0.03516(9) 0.62319(15)
C16B C 1.09475(16) -0.13921(9) 0.76838(15)
C17B C 1.14220(19) -0.14335(11) 0.89142(16)
H12B H 1.1350 -0.1005 0.9449
C18B C 1.19951(19) -0.20926(11) 0.93581(17)
H13B H 1.2321 -0.2121 1.0194
C19B C 1.20864(18) -0.27068(10) 0.85703(18)
C20B C 1.15888(19) -0.26868(10) 0.73510(18)
H14B H 1.1649 -0.3121 0.6827
C21B C 1.10067(18) -0.20292(10) 0.69132(17)
H15B H 1.0647 -0.2011 0.6089
loop_
_geom_bond_atom_site_label_1
_geom_bond_atom_site_label_2
_geom_bond_site_symmetry_1
_geom_bond_site_symmetry_2
P1 O2 1_555 1_555
O1 C1 1_555 1_555
O3 N2 1_555 1_555
O4 N2 1_555 1_555
N1 H1 1_555 1_555
N2 C19 1_555 1_555
C1 C2 1_555 1_555
C2 P1 1_555 1_555
C3 P1 1_555 1_555
C4 C3 1_555 1_555
H2 C4 1_555 1_555
C5 C4 1_555 1_555
H3 C5 1_555 1_555
C6 C5 1_555 1_555
H4 C6 1_555 1_555
C7 C6 1_555 1_555
H5 C7 1_555 1_555
C8 C3 1_555 1_555
H6 C8 1_555 1_555
C9 P1 1_555 1_555
C10 C9 1_555 1_555
H7 C10 1_555 1_555
C11 C10 1_555 1_555
H8 C11 1_555 1_555
C12 C11 1_555 1_555
H9 C12 1_555 1_555
C13 C12 1_555 1_555
H10 C13 1_555 1_555
C14 C9 1_555 1_555
H11 C14 1_555 1_555
C15 N1 1_555 1_555
C16 N1 1_555 1_555
C17 C16 1_555 1_555
H12 C17 1_555 1_555
C18 C17 1_555 1_555
H13 C18 1_555 1_555
C19 C18 1_555 1_555
C20 C19 1_555 1_555
H14 C20 1_555 1_555
C21 C16 1_555 1_555
H15 C21 1_555 1_555
P1B O2B 1_555 1_555
O1B C1B 1_555 1_555
O3B N2B 1_555 1_555
O4B N2B 1_555 1_555
N1B H1B 1_555 1_555
N2B C19B 1_555 1_555
C1B C2B 1_555 1_555
C2B C15 1_555 1_555
C3B P1B 1_555 1_555
C4B C3B 1_555 1_555
H2B C4B 1_555 1_555
C5B C4B 1_555 1_555
H3B C5B 1_555 1_555
C6B C5B 1_555 1_555
H4B C6B 1_555 1_555
C7B C6B 1_555 1_555
H5B C7B 1_555 1_555
C8B C3B 1_555 1_555
H6B C8B 1_555 1_555
C9B P1B 1_555 1_555
C10B C9B 1_555 1_555
H7B C10B 1_555 1_555
C11B C10B 1_555 1_555
H8B C11B 1_555 1_555
C12B C11B 1_555 1_555
H9B C12B 1_555 1_555
C13B C12B 1_555 1_555
H10B C13B 1_555 1_555
C14B C9B 1_555 1_555
H11B C14B 1_555 1_555
C15B C2 1_555 1_555
C16B N1B 1_555 1_555
C17B C16B 1_555 1_555
H12B C17B 1_555 1_555
C18B C17B 1_555 1_555
H13B C18B 1_555 1_555
C19B C18B 1_555 1_555
C20B C19B 1_555 1_555
H14B C20B 1_555 1_555
C21B C16B 1_555 1_555
H15B C21B 1_555 1_555
C1 C15 1_555 1_555
C7 C8 1_555 1_555
C13 C14 1_555 1_555
C20 C21 1_555 1_555
P1B C2B 1_555 1_555
N1B C15B 1_555 1_555
C1B C15B 1_555 1_555
C7B C8B 1_555 1_555
C13B C14B 1_555 1_555
C20B C21B 1_555 1_555

#END
