
#######################################################################
#
#                 Cambridge Crystallographic Data Centre
#                                CCDC 
#
#######################################################################
#
# If this CIF has been generated from an entry in the Cambridge 
# Structural Database, then it will include bibliographic, chemical, 
# crystal, experimental, refinement or atomic coordinate data resulting 
# from the CCDC's data processing and validation procedures.
#
#######################################################################

data_ECUJAQ
_chemical_formula_moiety         'C30 H21 F2 N2 O3 P1'
_chemical_name_systematic        
3-(diphenylphosphoryl)-2,5-bis[(4-fluorophenyl)amino]cyclohexa-2,5-diene-1,4-dione
_symmetry_cell_setting           monoclinic
_symmetry_space_group_name_H-M   'P 21/c'
_symmetry_Int_Tables_number      14
_space_group_name_Hall           '-P 2ybc'
loop_
_symmetry_equiv_pos_site_id
_symmetry_equiv_pos_as_xyz
1 x,y,z
2 -x,1/2+y,1/2-z
3 -x,-y,-z
4 x,1/2-y,1/2+z
_cell_length_a                   11.1668(4)
_cell_length_b                   13.9562(5)
_cell_length_c                   15.9942(6)
_cell_angle_alpha                90
_cell_angle_beta                 91.702(4)
_cell_angle_gamma                90
_cell_volume                     2491.53
_exptl_crystal_colour            red
_exptl_crystal_description       parallelepiped
_cell_formula_units_Z            4
loop_
_atom_site_label
_atom_site_type_symbol
_atom_site_fract_x
_atom_site_fract_y
_atom_site_fract_z
P1 P 0.00964(4) 0.37753(3) 0.20940(3)
F1 F 0.58505(12) 0.73380(9) 0.38568(10)
F2 F 0.42628(11) -0.17037(9) 0.56043(8)
O1 O -0.00286(11) 0.19126(9) 0.29061(8)
O2 O 0.40960(12) 0.35931(10) 0.38259(10)
O3 O 0.05417(11) 0.47223(9) 0.17762(8)
N1 N 0.24545(14) 0.46484(11) 0.28674(11)
H1 H 0.191(2) 0.4869(15) 0.2491(14)
N2 N 0.14671(14) 0.09294(11) 0.38677(10)
H2 H 0.078(2) 0.0734(16) 0.3691(14)
C1 C 0.09140(15) 0.23251(12) 0.31046(11)
C2 C 0.11866(15) 0.32731(12) 0.28149(11)
C3 C 0.22173(15) 0.37448(12) 0.30990(11)
C4 C 0.31370(16) 0.32037(13) 0.36443(12)
C5 C 0.28634(16) 0.22515(13) 0.38963(12)
H3 H 0.3428 0.1912 0.4239
C6 C 0.18137(16) 0.18123(12) 0.36596(11)
C7 C -0.01078(17) 0.29075(13) 0.12661(11)
C8 C 0.08993(18) 0.24341(14) 0.09783(12)
H4 H 0.1661 0.2545 0.1241
C9 C 0.0797(2) 0.18027(16) 0.03117(13)
H5 H 0.1486 0.1478 0.0123
C10 C -0.0310(2) 0.16430(15) -0.00803(13)
H6 H -0.0382 0.1206 -0.0534
C11 C -0.1304(2) 0.21211(15) 0.01912(13)
H7 H -0.2059 0.2020 -0.0084
C12 C -0.12144(18) 0.27516(14) 0.08642(12)
H8 H -0.1907 0.3075 0.1049
C13 C -0.12837(15) 0.39551(12) 0.26333(11)
C14 C -0.21639(16) 0.32592(13) 0.27481(12)
H9 H -0.2059 0.2630 0.2537
C15 C -0.31924(17) 0.34901(14) 0.31718(12)
H10 H -0.3797 0.3020 0.3241
C16 C -0.33418(17) 0.44040(14) 0.34938(12)
H11 H -0.4049 0.4559 0.3780
C17 C -0.24600(17) 0.50911(14) 0.33977(12)
H12 H -0.2559 0.5713 0.3627
C18 C -0.14333(16) 0.48735(13) 0.29687(12)
H13 H -0.0832 0.5347 0.2902
C19 C 0.33704(16) 0.53032(13) 0.31525(13)
C20 C 0.40779(17) 0.57240(14) 0.25610(13)
H14 H 0.3994 0.5535 0.1992
C21 C 0.49107(18) 0.64212(15) 0.27936(15)
H15 H 0.5394 0.6719 0.2390
C22 C 0.50156(18) 0.66675(14) 0.36231(16)
C23 C 0.4334(2) 0.62645(15) 0.42239(15)
H16 H 0.4438 0.6446 0.4794
C24 C 0.34861(18) 0.55841(15) 0.39831(14)
H17 H 0.2983 0.5310 0.4388
C25 C 0.22055(16) 0.02609(12) 0.43205(11)
C26 C 0.32631(17) -0.00699(13) 0.39793(12)
H18 H 0.3501 0.0155 0.3449
C27 C 0.39663(17) -0.07289(14) 0.44186(13)
H19 H 0.4697 -0.0954 0.4201
C28 C 0.35768(18) -0.10485(13) 0.51781(13)
C29 C 0.25306(18) -0.07458(14) 0.55211(12)
H20 H 0.2285 -0.0990 0.6043
C30 C 0.18401(17) -0.00750(13) 0.50865(12)
H21 H 0.1118 0.0154 0.5314
loop_
_geom_bond_atom_site_label_1
_geom_bond_atom_site_label_2
_geom_bond_site_symmetry_1
_geom_bond_site_symmetry_2
P1 O3 1_555 1_555
F1 C22 1_555 1_555
F2 C28 1_555 1_555
O1 C1 1_555 1_555
O2 C4 1_555 1_555
N1 H1 1_555 1_555
N2 H2 1_555 1_555
C1 C2 1_555 1_555
C2 P1 1_555 1_555
C3 N1 1_555 1_555
C4 C3 1_555 1_555
C5 C4 1_555 1_555
H3 C5 1_555 1_555
C6 N2 1_555 1_555
C7 P1 1_555 1_555
C8 C7 1_555 1_555
H4 C8 1_555 1_555
C9 C8 1_555 1_555
H5 C9 1_555 1_555
C10 C9 1_555 1_555
H6 C10 1_555 1_555
C11 C10 1_555 1_555
H7 C11 1_555 1_555
C12 C7 1_555 1_555
H8 C12 1_555 1_555
C13 P1 1_555 1_555
C14 C13 1_555 1_555
H9 C14 1_555 1_555
C15 C14 1_555 1_555
H10 C15 1_555 1_555
C16 C15 1_555 1_555
H11 C16 1_555 1_555
C17 C16 1_555 1_555
H12 C17 1_555 1_555
C18 C13 1_555 1_555
H13 C18 1_555 1_555
C19 N1 1_555 1_555
C20 C19 1_555 1_555
H14 C20 1_555 1_555
C21 C20 1_555 1_555
H15 C21 1_555 1_555
C22 C21 1_555 1_555
C23 C22 1_555 1_555
H16 C23 1_555 1_555
C24 C19 1_555 1_555
H17 C24 1_555 1_555
C25 N2 1_555 1_555
C26 C25 1_555 1_555
H18 C26 1_555 1_555
C27 C26 1_555 1_555
H19 C27 1_555 1_555
C28 C27 1_555 1_555
C29 C28 1_555 1_555
H20 C29 1_555 1_555
C30 C25 1_555 1_555
H21 C30 1_555 1_555
C1 C6 1_555 1_555
C2 C3 1_555 1_555
C5 C6 1_555 1_555
C11 C12 1_555 1_555
C17 C18 1_555 1_555
C23 C24 1_555 1_555
C29 C30 1_555 1_555

#END
