
#######################################################################
#
#                 Cambridge Crystallographic Data Centre
#                                CCDC 
#
#######################################################################
#
# If this CIF has been generated from an entry in the Cambridge 
# Structural Database, then it will include bibliographic, chemical, 
# crystal, experimental, refinement or atomic coordinate data resulting 
# from the CCDC's data processing and validation procedures.
#
#######################################################################

data_ECUKOD
_chemical_formula_moiety         'C52 H44 Si3'
_chemical_name_systematic        
bis(2-(bis(phenylethynyl)(methyl)silyl)-2-phenylethenyl)-dimethylsilane
_symmetry_cell_setting           monoclinic
_symmetry_space_group_name_H-M   'P 21/c'
_symmetry_Int_Tables_number      14
_space_group_name_Hall           '-P 2ybc'
loop_
_symmetry_equiv_pos_site_id
_symmetry_equiv_pos_as_xyz
1 x,y,z
2 -x,1/2+y,1/2-z
3 -x,-y,-z
4 x,1/2-y,1/2+z
_cell_length_a                   10.246(3)
_cell_length_b                   21.702(5)
_cell_length_c                   20.875(5)
_cell_angle_alpha                90.00
_cell_angle_beta                 101.872(6)
_cell_angle_gamma                90.00
_cell_volume                     4542.45
_exptl_crystal_colour            colorless
_exptl_crystal_description       plate
_cell_formula_units_Z            4
_exptl_crystal_recrystallization_method dichloromethane/hexane
loop_
_atom_site_label
_atom_site_type_symbol
_atom_site_fract_x
_atom_site_fract_y
_atom_site_fract_z
Si1 Si -0.02599(7) 0.44023(3) 0.60560(4)
Si2 Si 0.12068(7) 0.63678(3) 0.67090(3)
Si3 Si -0.19585(8) 0.37041(3) 0.78105(4)
C1 C -0.1648(3) 0.43507(15) 0.53255(13)
H1 H -0.1329 0.4474 0.4938
H2 H -0.2368 0.4622 0.5384
H3 H -0.1972 0.3930 0.5274
C2 C 0.1211(3) 0.39885(14) 0.58822(18)
H4 H 0.0985 0.3559 0.5791
H5 H 0.1941 0.4017 0.6259
H6 H 0.1476 0.4173 0.5505
C3 C -0.0668(3) 0.40375(11) 0.68040(12)
H7 H 0.0017 0.3805 0.7063
C4 C -0.1812(2) 0.40660(11) 0.70171(12)
C5 C -0.2957(3) 0.44289(13) 0.66465(12)
C6 C -0.2944(3) 0.50661(15) 0.66644(15)
H8 H -0.2234 0.5270 0.6939
C7 C -0.3955(4) 0.5410(2) 0.6286(2)
H9 H -0.3928 0.5842 0.6302
C8 C -0.4995(4) 0.5113(3) 0.5887(2)
H10 H -0.5675 0.5343 0.5622
C9 C -0.5046(4) 0.4479(3) 0.58728(18)
H11 H -0.5768 0.4279 0.5602
C10 C -0.4040(3) 0.41358(18) 0.62550(15)
H12 H -0.4090 0.3703 0.6250
C11 C -0.0453(3) 0.32617(13) 0.81780(15)
H13 H -0.0547 0.3101 0.8600
H14 H 0.0322 0.3529 0.8236
H15 H -0.0340 0.2923 0.7891
C12 C -0.2202(3) 0.43216(13) 0.83681(14)
C13 C -0.2298(3) 0.47311(13) 0.87479(14)
C14 C -0.2419(3) 0.52108(12) 0.92058(13)
C15 C -0.1330(3) 0.55472(16) 0.95105(17)
H16 H -0.0490 0.5469 0.9413
C16 C -0.1462(5) 0.60001(18) 0.9960(2)
H17 H -0.0708 0.6223 1.0170
C17 C -0.2668(5) 0.61256(16) 1.00987(18)
H18 H -0.2750 0.6438 1.0400
C18 C -0.3753(4) 0.58014(17) 0.98048(18)
H19 H -0.4590 0.5888 0.9902
C19 C -0.3629(3) 0.53422(15) 0.93613(16)
H20 H -0.4387 0.5116 0.9163
C20 C -0.3422(3) 0.32113(13) 0.76796(14)
C21 C -0.4381(3) 0.28775(13) 0.75462(14)
C22 C -0.5510(3) 0.24681(14) 0.73883(13)
C23 C -0.6783(3) 0.26744(18) 0.74072(19)
H21 H -0.6915 0.3085 0.7521
C24 C -0.7849(4) 0.2280(2) 0.7260(2)
H22 H -0.8709 0.2423 0.7273
C25 C -0.7671(4) 0.1687(2) 0.7098(2)
H23 H -0.8409 0.1421 0.7005
C26 C -0.6435(4) 0.14677(18) 0.70662(18)
H24 H -0.6321 0.1056 0.6948
C27 C -0.5351(3) 0.18640(15) 0.72120(15)
H25 H -0.4497 0.1719 0.7190
C28 C 0.0107(2) 0.52420(11) 0.62092(12)
H26 H -0.0392 0.5512 0.5902
C29 C 0.0980(2) 0.55121(11) 0.66947(11)
C30 C 0.1819(2) 0.51450(11) 0.72337(13)
C31 C 0.1370(3) 0.50089(13) 0.77962(14)
H27 H 0.0527 0.5149 0.7843
C32 C 0.2150(4) 0.46665(16) 0.82946(16)
H28 H 0.1825 0.4575 0.8673
C33 C 0.3374(5) 0.44636(17) 0.8241(2)
H29 H 0.3897 0.4230 0.8578
C34 C 0.3834(4) 0.4602(2) 0.7695(2)
H30 H 0.4683 0.4465 0.7654
C35 C 0.3066(3) 0.49449(16) 0.71943(17)
H31 H 0.3409 0.5041 0.6822
C36 C 0.2690(3) 0.65902(14) 0.63914(14)
H32 H 0.2554 0.6484 0.5931
H33 H 0.3465 0.6373 0.6632
H34 H 0.2832 0.7031 0.6443
C37 C 0.1368(2) 0.66174(12) 0.75575(14)
C38 C 0.1482(2) 0.67108(12) 0.81363(14)
C39 C 0.1607(3) 0.67898(12) 0.88282(13)
C40 C 0.2145(3) 0.63185(14) 0.92473(15)
H35 H 0.2426 0.5952 0.9077
C41 C 0.2269(4) 0.63870(19) 0.99182(17)
H36 H 0.2637 0.6068 1.0203
C42 C 0.1856(4) 0.6919(2) 1.01646(18)
H37 H 0.1943 0.6963 1.0619
C43 C 0.1319(3) 0.73863(19) 0.97575(18)
H38 H 0.1031 0.7749 0.9932
C44 C 0.1201(3) 0.73260(15) 0.90890(15)
H39 H 0.0843 0.7651 0.8810
C45 C -0.0282(3) 0.67114(12) 0.62139(14)
C46 C -0.1314(3) 0.69001(12) 0.58872(14)
C47 C -0.2562(3) 0.71147(12) 0.55061(15)
C48 C -0.3642(4) 0.71795(19) 0.5798(2)
H40 H -0.3553 0.7094 0.6246
C49 C -0.4851(4) 0.7369(3) 0.5436(3)
H41 H -0.5584 0.7420 0.5637
C50 C -0.4985(4) 0.7485(2) 0.4786(3)
H42 H -0.5823 0.7600 0.4539
C51 C -0.3941(5) 0.74354(18) 0.44908(19)
H43 H -0.4041 0.7523 0.4042
C52 C -0.2711(4) 0.72537(16) 0.48572(16)
H44 H -0.1973 0.7226 0.4656
loop_
_geom_bond_atom_site_label_1
_geom_bond_atom_site_label_2
_geom_bond_site_symmetry_1
_geom_bond_site_symmetry_2
Si1 C1 1_555 1_555
Si2 C29 1_555 1_555
Si3 C4 1_555 1_555
C1 H1 1_555 1_555
H2 C1 1_555 1_555
H3 C1 1_555 1_555
C2 Si1 1_555 1_555
H4 C2 1_555 1_555
H5 C2 1_555 1_555
H6 C2 1_555 1_555
C3 Si1 1_555 1_555
H7 C3 1_555 1_555
C4 C3 1_555 1_555
C5 C4 1_555 1_555
C6 C5 1_555 1_555
H8 C6 1_555 1_555
C7 C6 1_555 1_555
H9 C7 1_555 1_555
C8 C7 1_555 1_555
H10 C8 1_555 1_555
C9 C8 1_555 1_555
H11 C9 1_555 1_555
C10 C5 1_555 1_555
H12 C10 1_555 1_555
C11 Si3 1_555 1_555
H13 C11 1_555 1_555
H14 C11 1_555 1_555
H15 C11 1_555 1_555
C12 Si3 1_555 1_555
C13 C12 1_555 1_555
C14 C13 1_555 1_555
C15 C14 1_555 1_555
H16 C15 1_555 1_555
C16 C15 1_555 1_555
H17 C16 1_555 1_555
C17 C16 1_555 1_555
H18 C17 1_555 1_555
C18 C17 1_555 1_555
H19 C18 1_555 1_555
C19 C14 1_555 1_555
H20 C19 1_555 1_555
C20 Si3 1_555 1_555
C21 C20 1_555 1_555
C22 C21 1_555 1_555
C23 C22 1_555 1_555
H21 C23 1_555 1_555
C24 C23 1_555 1_555
H22 C24 1_555 1_555
C25 C24 1_555 1_555
H23 C25 1_555 1_555
C26 C25 1_555 1_555
H24 C26 1_555 1_555
C27 C22 1_555 1_555
H25 C27 1_555 1_555
C28 Si1 1_555 1_555
H26 C28 1_555 1_555
C29 C28 1_555 1_555
C30 C29 1_555 1_555
C31 C30 1_555 1_555
H27 C31 1_555 1_555
C32 C31 1_555 1_555
H28 C32 1_555 1_555
C33 C32 1_555 1_555
H29 C33 1_555 1_555
C34 C33 1_555 1_555
H30 C34 1_555 1_555
C35 C30 1_555 1_555
H31 C35 1_555 1_555
C36 Si2 1_555 1_555
H32 C36 1_555 1_555
H33 C36 1_555 1_555
H34 C36 1_555 1_555
C37 Si2 1_555 1_555
C38 C37 1_555 1_555
C39 C38 1_555 1_555
C40 C39 1_555 1_555
H35 C40 1_555 1_555
C41 C40 1_555 1_555
H36 C41 1_555 1_555
C42 C41 1_555 1_555
H37 C42 1_555 1_555
C43 C42 1_555 1_555
H38 C43 1_555 1_555
C44 C39 1_555 1_555
H39 C44 1_555 1_555
C45 Si2 1_555 1_555
C46 C45 1_555 1_555
C47 C46 1_555 1_555
C48 C47 1_555 1_555
H40 C48 1_555 1_555
C49 C48 1_555 1_555
H41 C49 1_555 1_555
C50 C49 1_555 1_555
H42 C50 1_555 1_555
C51 C50 1_555 1_555
H43 C51 1_555 1_555
C52 C47 1_555 1_555
H44 C52 1_555 1_555
C9 C10 1_555 1_555
C18 C19 1_555 1_555
C26 C27 1_555 1_555
C34 C35 1_555 1_555
C43 C44 1_555 1_555
C51 C52 1_555 1_555

#END
