
#######################################################################
#
#                 Cambridge Crystallographic Data Centre
#                                CCDC 
#
#######################################################################
#
# If this CIF has been generated from an entry in the Cambridge 
# Structural Database, then it will include bibliographic, chemical, 
# crystal, experimental, refinement or atomic coordinate data resulting 
# from the CCDC's data processing and validation procedures.
#
#######################################################################

data_ECUKAR
_chemical_formula_moiety         'C72 H48 N3 O9 P3,H2 O1'
_chemical_name_systematic        
"4,6',16'-tris(diphenylphosphoryl)-3-(phenylamino)-5',15'-dihydro-5H-spiro[furan-2,8'-phenoxazino[3'',2'':4',5']furo[2',3':4,5]pyrano[2,3-b]phenoxazin]-5-one unknown solvate monohydrate"
_symmetry_cell_setting           triclinic
_symmetry_space_group_name_H-M   'P -1'
_symmetry_Int_Tables_number      2
_space_group_name_Hall           '-P 1'
loop_
_symmetry_equiv_pos_site_id
_symmetry_equiv_pos_as_xyz
1 x,y,z
2 -x,-y,-z
_cell_length_a                   11.0025(8)
_cell_length_b                   14.6989(10)
_cell_length_c                   21.3350(16)
_cell_angle_alpha                97.740(3)
_cell_angle_beta                 103.778(2)
_cell_angle_gamma                104.511(2)
_cell_volume                     3174.15
_exptl_crystal_description       parallelepiped
_cell_formula_units_Z            2
loop_
_atom_site_label
_atom_site_type_symbol
_atom_site_fract_x
_atom_site_fract_y
_atom_site_fract_z
P1 P 0.81579(5) 0.52201(4) 0.07021(3)
P2 P 0.82650(5) 0.83791(4) 0.32087(3)
P3 P 0.66947(5) 0.21599(4) 0.42672(3)
O1 O 0.76056(14) 0.52297(9) 0.19864(7)
O2 O 0.6507(2) 0.15218(12) 0.06375(9)
O3 O 0.67486(14) 0.31522(9) 0.30399(7)
O4 O 0.59722(13) 0.56997(10) 0.23218(7)
O5 O 0.52803(15) 0.70065(11) 0.23780(8)
O6 O 0.66081(16) 0.56585(11) 0.51448(7)
O7 O 0.82911(16) 0.48917(11) 0.00364(7)
O8 O 0.97118(16) 0.86299(12) 0.33956(10)
O9 O 0.67146(15) 0.20197(11) 0.49495(7)
N1 N 0.7625(2) 0.30433(15) 0.01106(10)
H1 H 0.798(3) 0.351(2) -0.0043(16)
N2 N 0.93725(17) 0.64808(13) 0.32509(9)
H2 H 0.994(3) 0.704(2) 0.3441(14)
N3 N 0.6517(2) 0.37989(14) 0.53097(9)
H3 H 0.660(3) 0.326(2) 0.5363(14)
C1 C 0.73383(19) 0.42918(14) 0.16656(10)
C2 C 0.7552(2) 0.41836(14) 0.10428(10)
C3 C 0.7355(2) 0.32413(16) 0.07033(11)
C4 C 0.7481(3) 0.21115(17) -0.01838(11)
C5 C 0.7870(4) 0.1902(2) -0.07415(14)
H4 H 0.8276 0.2407 -0.0926
C6 C 0.7665(5) 0.0955(2) -0.10319(17)
H5 H 0.7942 0.0816 -0.1414
C7 C 0.7067(4) 0.0211(2) -0.07756(16)
H6 H 0.6914 -0.0435 -0.0986
C8 C 0.6691(3) 0.04099(19) -0.02107(13)
H7 H 0.6286 -0.0096 -0.0027
C9 C 0.6914(3) 0.13523(17) 0.00797(12)
C10 C 0.6871(2) 0.24640(16) 0.09861(11)
C11 C 0.6715(2) 0.25915(15) 0.16037(11)
H8 H 0.6434 0.2051 0.1789
C12 C 0.6969(2) 0.35207(14) 0.19641(10)
C13 C 0.68824(19) 0.37829(14) 0.26176(10)
C14 C 0.69620(19) 0.46749(14) 0.29050(10)
C15 C 0.71680(19) 0.54704(14) 0.25470(9)
C16 C 0.6184(2) 0.66775(15) 0.25099(10)
C17 C 0.7541(2) 0.71302(14) 0.28790(10)
C18 C 0.81547(19) 0.64288(14) 0.29395(9)
C19 C 0.68500(18) 0.46486(14) 0.35552(9)
C20 C 0.68268(19) 0.53070(14) 0.40895(10)
H9 H 0.6901 0.5958 0.4063
C21 C 0.66946(19) 0.49898(14) 0.46468(10)
C22 C 0.6513(2) 0.53906(15) 0.57352(10)
C23 C 0.6474(2) 0.60808(17) 0.62242(11)
H10 H 0.6499 0.6708 0.6152
C24 C 0.6397(2) 0.58519(18) 0.68298(11)
H11 H 0.6365 0.6322 0.7173
C25 C 0.6367(2) 0.49358(18) 0.69287(11)
H12 H 0.6318 0.4780 0.7342
C26 C 0.6407(2) 0.42417(17) 0.64281(11)
H13 H 0.6387 0.3615 0.6500
C27 C 0.6478(2) 0.44671(15) 0.58227(10)
C28 C 0.66288(19) 0.40327(14) 0.47185(10)
C29 C 0.66702(19) 0.33618(14) 0.41913(10)
C30 C 0.67518(19) 0.37058(14) 0.36194(10)
C31 C 0.7107(2) 0.59762(16) 0.06868(10)
C32 C 0.5867(2) 0.56926(19) 0.07693(11)
H14 H 0.5536 0.5070 0.0849
C33 C 0.5105(3) 0.6322(2) 0.07355(13)
H15 H 0.4256 0.6131 0.0795
C34 C 0.5584(3) 0.7220(2) 0.06163(15)
H16 H 0.5069 0.7652 0.0602
C35 C 0.6804(3) 0.7498(2) 0.05174(17)
H17 H 0.7120 0.8115 0.0426
C36 C 0.7564(3) 0.68826(19) 0.05507(14)
H18 H 0.8404 0.7075 0.0481
C37 C 0.9718(2) 0.59178(15) 0.12674(10)
C38 C 0.9881(2) 0.67102(15) 0.17537(11)
H19 H 0.9147 0.6919 0.1793
C39 C 1.1115(2) 0.71941(17) 0.21810(11)
H20 H 1.1224 0.7733 0.2512
C40 C 1.2183(2) 0.6891(2) 0.21235(12)
H21 H 1.3025 0.7221 0.2417
C41 C 1.2029(2) 0.6112(2) 0.16414(13)
H22 H 1.2768 0.5909 0.1603
C42 C 1.0804(2) 0.56213(17) 0.12120(11)
H23 H 1.0704 0.5085 0.0881
C43 C 0.7524(5) 0.8968(5) 0.2566(4)
C44 C 0.8207(6) 0.9217(3) 0.2111(2)
H24 H 0.9018 0.9087 0.2135
C45 C 0.7681(10) 0.9657(5) 0.1625(3)
H25 H 0.8134 0.9825 0.1311
C46 C 0.6508(8) 0.9856(4) 0.1590(3)
H26 H 0.6168 1.0172 0.1259
C47 C 0.5822(7) 0.9592(3) 0.2044(3)
H27 H 0.5000 0.9708 0.2014
C48 C 0.6342(5) 0.9166(4) 0.2530(3)
H28 H 0.5891 0.9003 0.2846
C49 C 0.7663(2) 0.86840(15) 0.38975(10)
C50 C 0.8381(2) 0.95289(16) 0.43544(12)
H29 H 0.9136 0.9933 0.4284
C51 C 0.8006(3) 0.97877(18) 0.49121(13)
H30 H 0.8503 1.0366 0.5222
C52 C 0.6912(3) 0.9205(2) 0.50147(13)
H31 H 0.6651 0.9383 0.5396
C53 C 0.6196(3) 0.8370(2) 0.45698(15)
H32 H 0.5441 0.7970 0.4644
C54 C 0.6568(2) 0.81047(19) 0.40112(13)
H33 H 0.6068 0.7523 0.3705
C55 C 0.98146(19) 0.56606(14) 0.33702(10)
C56 C 0.9948(2) 0.54507(17) 0.39929(11)
H34 H 0.9827 0.5872 0.4335
C57 C 1.0260(2) 0.46244(19) 0.41118(14)
H35 H 1.0346 0.4473 0.4536
C58 C 1.0444(2) 0.40233(18) 0.36169(15)
H36 H 1.0619 0.3441 0.3695
C59 C 1.0377(2) 0.42568(17) 0.30047(14)
H37 H 1.0535 0.3847 0.2669
C60 C 1.0078(2) 0.50902(16) 0.28827(11)
H38 H 1.0055 0.5266 0.2468
C61 C 0.8135(2) 0.19676(14) 0.40756(11)
C62 C 0.9259(2) 0.21700(16) 0.46016(12)
H39 H 0.9255 0.2424 0.5034
C63 C 1.0386(2) 0.19996(17) 0.44923(14)
H40 H 1.1153 0.2138 0.4850
C64 C 1.0391(3) 0.16302(18) 0.38646(15)
H41 H 1.1161 0.1512 0.3791
C65 C 0.9280(3) 0.14315(17) 0.33427(14)
H42 H 0.9292 0.1178 0.2911
C66 C 0.8149(2) 0.15978(16) 0.34427(12)
H43 H 0.7387 0.1460 0.3081
C67 C 0.5277(2) 0.13257(15) 0.36758(11)
C68 C 0.5057(3) 0.03609(16) 0.37157(13)
H44 H 0.5704 0.0166 0.4001
C69 C 0.3898(3) -0.03130(18) 0.33406(15)
H45 H 0.3749 -0.0969 0.3369
C70 C 0.2961(3) -0.0033(2) 0.29260(15)
H46 H 0.2164 -0.0496 0.2671
C71 C 0.3173(3) 0.0916(2) 0.28778(16)
H47 H 0.2526 0.1105 0.2588
C72 C 0.4331(2) 0.15946(17) 0.32519(13)
H48 H 0.4476 0.2248 0.3217
O10 O 0.8178(2) 0.20066(14) 0.61810(9)
H54 H 0.769(3) 0.189(2) 0.5738(18)
H55 H 0.863(4) 0.156(3) 0.6212(19)
C73? C 0.7969(15) 0.8999(16) 0.2624(11)
C74? C 0.8895(15) 0.9278(10) 0.2292(6)
H49? H 0.9705 0.9137 0.2414
C75? C 0.864(2) 0.9774(11) 0.1770(7)
H50? H 0.9271 0.9962 0.1538
C76? C 0.753(3) 0.9962(13) 0.1620(9)
H51? H 0.7383 1.0295 0.1270
C77? C 0.6531(17) 0.9732(10) 0.1913(9)
H52? H 0.5750 0.9913 0.1794
C78? C 0.6803(17) 0.9176(12) 0.2430(8)
H53? H 0.6140 0.8936 0.2632
loop_
_geom_bond_atom_site_label_1
_geom_bond_atom_site_label_2
_geom_bond_site_symmetry_1
_geom_bond_site_symmetry_2
P1 O7 1_555 1_555
P2 O8 1_555 1_555
P3 O9 1_555 1_555
O1 C1 1_555 1_555
O2 C9 1_555 1_555
O3 C13 1_555 1_555
O4 C15 1_555 1_555
O5 C16 1_555 1_555
O6 C21 1_555 1_555
N1 H1 1_555 1_555
N2 H2 1_555 1_555
N3 H3 1_555 1_555
C1 C2 1_555 1_555
C2 P1 1_555 1_555
C3 N1 1_555 1_555
C4 N1 1_555 1_555
C5 C4 1_555 1_555
H4 C5 1_555 1_555
C6 C5 1_555 1_555
H5 C6 1_555 1_555
C7 C6 1_555 1_555
H6 C7 1_555 1_555
C8 C7 1_555 1_555
H7 C8 1_555 1_555
C9 C4 1_555 1_555
C10 O2 1_555 1_555
C11 C10 1_555 1_555
H8 C11 1_555 1_555
C12 C1 1_555 1_555
C13 C12 1_555 1_555
C14 C13 1_555 1_555
C15 O1 1_555 1_555
C16 O4 1_555 1_555
C17 P2 1_555 1_555
C18 N2 1_555 1_555
C19 C14 1_555 1_555
C20 C19 1_555 1_555
H9 C20 1_555 1_555
C21 C20 1_555 1_555
C22 O6 1_555 1_555
C23 C22 1_555 1_555
H10 C23 1_555 1_555
C24 C23 1_555 1_555
H11 C24 1_555 1_555
C25 C24 1_555 1_555
H12 C25 1_555 1_555
C26 C25 1_555 1_555
H13 C26 1_555 1_555
C27 N3 1_555 1_555
C28 N3 1_555 1_555
C29 P3 1_555 1_555
C30 O3 1_555 1_555
C31 P1 1_555 1_555
C32 C31 1_555 1_555
H14 C32 1_555 1_555
C33 C32 1_555 1_555
H15 C33 1_555 1_555
C34 C33 1_555 1_555
H16 C34 1_555 1_555
C35 C34 1_555 1_555
H17 C35 1_555 1_555
C36 C31 1_555 1_555
H18 C36 1_555 1_555
C37 P1 1_555 1_555
C38 C37 1_555 1_555
H19 C38 1_555 1_555
C39 C38 1_555 1_555
H20 C39 1_555 1_555
C40 C39 1_555 1_555
H21 C40 1_555 1_555
C41 C40 1_555 1_555
H22 C41 1_555 1_555
C42 C37 1_555 1_555
H23 C42 1_555 1_555
C43 P2 1_555 1_555
C44 C43 1_555 1_555
H24 C44 1_555 1_555
C45 C44 1_555 1_555
H25 C45 1_555 1_555
C46 C45 1_555 1_555
H26 C46 1_555 1_555
C47 C46 1_555 1_555
H27 C47 1_555 1_555
C48 C43 1_555 1_555
H28 C48 1_555 1_555
C49 P2 1_555 1_555
C50 C49 1_555 1_555
H29 C50 1_555 1_555
C51 C50 1_555 1_555
H30 C51 1_555 1_555
C52 C51 1_555 1_555
H31 C52 1_555 1_555
C53 C52 1_555 1_555
H32 C53 1_555 1_555
C54 C49 1_555 1_555
H33 C54 1_555 1_555
C55 N2 1_555 1_555
C56 C55 1_555 1_555
H34 C56 1_555 1_555
C57 C56 1_555 1_555
H35 C57 1_555 1_555
C58 C57 1_555 1_555
H36 C58 1_555 1_555
C59 C58 1_555 1_555
H37 C59 1_555 1_555
C60 C55 1_555 1_555
H38 C60 1_555 1_555
C61 P3 1_555 1_555
C62 C61 1_555 1_555
H39 C62 1_555 1_555
C63 C62 1_555 1_555
H40 C63 1_555 1_555
C64 C63 1_555 1_555
H41 C64 1_555 1_555
C65 C64 1_555 1_555
H42 C65 1_555 1_555
C66 C61 1_555 1_555
H43 C66 1_555 1_555
C67 P3 1_555 1_555
C68 C67 1_555 1_555
H44 C68 1_555 1_555
C69 C68 1_555 1_555
H45 C69 1_555 1_555
C70 C69 1_555 1_555
H46 C70 1_555 1_555
C71 C70 1_555 1_555
H47 C71 1_555 1_555
C72 C67 1_555 1_555
H48 C72 1_555 1_555
O10 H54 1_555 1_555
H55 O10 1_555 1_555
C2 C3 1_555 1_555
C3 C10 1_555 1_555
C8 C9 1_555 1_555
C11 C12 1_555 1_555
C14 C15 1_555 1_555
C15 C18 1_555 1_555
C16 C17 1_555 1_555
C17 C18 1_555 1_555
C19 C30 1_555 1_555
C21 C28 1_555 1_555
C22 C27 1_555 1_555
C26 C27 1_555 1_555
C28 C29 1_555 1_555
C29 C30 1_555 1_555
C35 C36 1_555 1_555
C41 C42 1_555 1_555
C47 C48 1_555 1_555
C53 C54 1_555 1_555
C59 C60 1_555 1_555
C65 C66 1_555 1_555
C71 C72 1_555 1_555

#END
