
#######################################################################
#
#                 Cambridge Crystallographic Data Centre
#                                CCDC 
#
#######################################################################
#
# If this CIF has been generated from an entry in the Cambridge 
# Structural Database, then it will include bibliographic, chemical, 
# crystal, experimental, refinement or atomic coordinate data resulting 
# from the CCDC's data processing and validation procedures.
#
#######################################################################

data_ECUKEV
_chemical_formula_moiety         'C28 H22 N1 O2 P1,C1 H2 Cl2,0.2(H2 O1)'
_chemical_name_systematic        
'3-(diphenylphosphoryl)-2-(phenylamino)naphthalen-1-ol dichloromethane solvate hydrate'
_symmetry_cell_setting           triclinic
_symmetry_space_group_name_H-M   'P -1'
_symmetry_Int_Tables_number      2
_space_group_name_Hall           '-P 1'
loop_
_symmetry_equiv_pos_site_id
_symmetry_equiv_pos_as_xyz
1 x,y,z
2 -x,-y,-z
_cell_length_a                   11.0249(6)
_cell_length_b                   11.6819(6)
_cell_length_c                   11.8857(6)
_cell_angle_alpha                98.6464(18)
_cell_angle_beta                 115.1334(17)
_cell_angle_gamma                107.8194(19)
_cell_volume                     1247.64
_exptl_crystal_colour            brown
_exptl_crystal_description       parallelepiped
_cell_formula_units_Z            2
loop_
_atom_site_label
_atom_site_type_symbol
_atom_site_fract_x
_atom_site_fract_y
_atom_site_fract_z
P1 P 0.58135(7) 0.42873(6) 0.27207(6)
O1 O 0.6408(2) 0.39932(17) 0.18503(17)
O2 O 0.3185(2) 0.67746(18) 0.01157(17)
H1 H 0.324(4) 0.642(4) -0.048(4)
N1 N 0.3719(2) 0.45787(19) 0.02834(19)
H2 H 0.424(4) 0.428(3) 0.016(3)
C1 C 0.5448(3) 0.5693(2) 0.2655(2)
C2 C 0.6146(3) 0.6756(2) 0.3736(2)
H3 H 0.6834 0.6760 0.4562
C3 C 0.5855(3) 0.7849(2) 0.3639(2)
C4 C 0.6576(3) 0.8964(3) 0.4737(3)
H4 H 0.7255 0.8981 0.5573
C5 C 0.6305(3) 1.0021(3) 0.4605(3)
H5 H 0.6808 1.0769 0.5345
C6 C 0.5281(3) 0.9999(3) 0.3373(3)
H6 H 0.5091 1.0731 0.3290
C7 C 0.4555(3) 0.8932(3) 0.2293(3)
H7 H 0.3866 0.8930 0.1470
C8 C 0.4826(3) 0.7834(2) 0.2396(2)
C9 C 0.4133(2) 0.6730(2) 0.1273(2)
C10 C 0.4411(2) 0.5666(2) 0.1399(2)
C11 C 0.2202(2) 0.3813(2) -0.0409(2)
C12 C 0.1272(3) 0.3965(2) 0.0042(2)
H8 H 0.1646 0.4639 0.0819
C13 C -0.0209(3) 0.3130(3) -0.0642(3)
H9 H -0.0840 0.3229 -0.0322
C14 C -0.0769(3) 0.2154(3) -0.1788(3)
H10 H -0.1776 0.1575 -0.2244
C15 C 0.0146(3) 0.2028(3) -0.2264(3)
H11 H -0.0242 0.1376 -0.3062
C16 C 0.1629(3) 0.2849(2) -0.1585(2)
H12 H 0.2253 0.2755 -0.1916
C17 C 0.4086(3) 0.3039(2) 0.2269(2)
C18 C 0.3169(3) 0.3261(2) 0.2714(2)
H13 H 0.3447 0.4087 0.3253
C19 C 0.1854(3) 0.2282(3) 0.2373(3)
H14 H 0.1226 0.2438 0.2670
C20 C 0.1459(3) 0.1074(3) 0.1595(3)
H15 H 0.0569 0.0397 0.1376
C21 C 0.2357(3) 0.0851(2) 0.1136(3)
H16 H 0.2072 0.0024 0.0594
C22 C 0.3670(3) 0.1827(2) 0.1464(2)
H17 H 0.4281 0.1673 0.1144
C23 C 0.7060(3) 0.4526(2) 0.4409(2)
C24 C 0.6635(3) 0.3802(2) 0.5122(2)
H18 H 0.5641 0.3214 0.4744
C25 C 0.7666(3) 0.3943(3) 0.6381(3)
H19 H 0.7375 0.3451 0.6863
C26 C 0.9112(3) 0.4796(3) 0.6938(3)
H20 H 0.9814 0.4885 0.7799
C27 C 0.9544(3) 0.5524(3) 0.6243(3)
H21 H 1.0538 0.6115 0.6631
C28 C 0.8523(3) 0.5385(3) 0.4983(3)
H22 H 0.8822 0.5879 0.4507
Cl1 Cl 0.73668(11) 0.11883(9) 0.14862(10)
Cl2 Cl 0.95509(12) 0.10083(11) 0.38809(11)
C29 C 0.7964(4) 0.0166(4) 0.2271(5)
H23 H 0.8207 -0.0353 0.1730
H24 H 0.7157 -0.0419 0.2345
O3 O 0.8119(9) 0.2163(8) 0.4157(8)
H25 H 0.8488 0.2390 0.3685
H26 H 0.8140 0.1506 0.4376
loop_
_geom_bond_atom_site_label_1
_geom_bond_atom_site_label_2
_geom_bond_site_symmetry_1
_geom_bond_site_symmetry_2
P1 O1 1_555 1_555
O2 H1 1_555 1_555
N1 H2 1_555 1_555
C1 P1 1_555 1_555
C2 C1 1_555 1_555
H3 C2 1_555 1_555
C3 C2 1_555 1_555
C4 C3 1_555 1_555
H4 C4 1_555 1_555
C5 C4 1_555 1_555
H5 C5 1_555 1_555
C6 C5 1_555 1_555
H6 C6 1_555 1_555
C7 C6 1_555 1_555
H7 C7 1_555 1_555
C8 C3 1_555 1_555
C9 O2 1_555 1_555
C10 N1 1_555 1_555
C11 N1 1_555 1_555
C12 C11 1_555 1_555
H8 C12 1_555 1_555
C13 C12 1_555 1_555
H9 C13 1_555 1_555
C14 C13 1_555 1_555
H10 C14 1_555 1_555
C15 C14 1_555 1_555
H11 C15 1_555 1_555
C16 C11 1_555 1_555
H12 C16 1_555 1_555
C17 P1 1_555 1_555
C18 C17 1_555 1_555
H13 C18 1_555 1_555
C19 C18 1_555 1_555
H14 C19 1_555 1_555
C20 C19 1_555 1_555
H15 C20 1_555 1_555
C21 C20 1_555 1_555
H16 C21 1_555 1_555
C22 C17 1_555 1_555
H17 C22 1_555 1_555
C23 P1 1_555 1_555
C24 C23 1_555 1_555
H18 C24 1_555 1_555
C25 C24 1_555 1_555
H19 C25 1_555 1_555
C26 C25 1_555 1_555
H20 C26 1_555 1_555
C27 C26 1_555 1_555
H21 C27 1_555 1_555
C28 C23 1_555 1_555
H22 C28 1_555 1_555
Cl1 C29 1_555 1_555
Cl2 C29 1_555 1_555
C29 H23 1_555 1_555
H24 C29 1_555 1_555
O3 H25 1_555 1_555
H26 O3 1_555 1_555
C1 C10 1_555 1_555
C7 C8 1_555 1_555
C8 C9 1_555 1_555
C9 C10 1_555 1_555
C15 C16 1_555 1_555
C21 C22 1_555 1_555
C27 C28 1_555 1_555

#END
