
#######################################################################
#
#                 Cambridge Crystallographic Data Centre
#                                CCDC 
#
#######################################################################
#
# If this CIF has been generated from an entry in the Cambridge 
# Structural Database, then it will include bibliographic, chemical, 
# crystal, experimental, refinement or atomic coordinate data resulting 
# from the CCDC's data processing and validation procedures.
#
#######################################################################

data_ECULOG
_chemical_formula_moiety         'C35 H43 N3 O7 S1,H2 O1'
_chemical_name_systematic        
'N-(3-(((7,7-dimethyl-2-oxobicyclo[2.2.1]heptan-1-yl)methyl)sulfonyl)-6-((4-methoxyphenyl)methyl)-7-oxo-1,3,4,4a,5,6,7,12a-octahydro-2H-pyrido[4,3-b][1,5]benzoxazocin-11-yl)cyclopropanecarboxamide monohydrate'
_symmetry_cell_setting           monoclinic
_symmetry_space_group_name_H-M   'P 21'
_symmetry_Int_Tables_number      4
_space_group_name_Hall           'P 2yb'
loop_
_symmetry_equiv_pos_site_id
_symmetry_equiv_pos_as_xyz
1 x,y,z
2 -x,1/2+y,-z
_cell_length_a                   11.4107(7)
_cell_length_b                   8.9301(5)
_cell_length_c                   17.3208(9)
_cell_angle_alpha                90
_cell_angle_beta                 107.359(3)
_cell_angle_gamma                90
_cell_volume                     1684.58
_exptl_crystal_colour            colorless
_exptl_crystal_description       needle
_cell_formula_units_Z            2
loop_
_atom_site_label
_atom_site_type_symbol
_atom_site_fract_x
_atom_site_fract_y
_atom_site_fract_z
S1 S 0.20171(9) 0.54800(11) 0.14290(6)
O1 O 0.1840(3) 0.6519(3) 0.07718(17)
O2 O 0.0969(3) 0.4744(3) 0.15466(17)
O3 O 0.1988(3) 0.1353(4) 0.1681(2)
O4 O 0.9445(3) 0.7611(5) 0.44898(19)
O5 O 0.4439(3) 0.8607(3) 0.60464(17)
O6 O 0.1900(3) 0.6163(4) 0.84444(16)
O7 O 0.5230(2) 0.7210(3) 0.39490(15)
N1 N 0.2696(3) 0.6404(3) 0.22560(18)
N2 N 0.3404(3) 0.6842(4) 0.51801(19)
N3 N 0.7498(3) 0.6742(4) 0.40272(19)
H1 H 0.6929 0.6416 0.3596
C1 C 0.3811(4) 0.8594(4) 0.2916(2)
H2 H 0.4507 0.9271 0.2934
H3 H 0.3054 0.9205 0.2785
C2 C 0.3696(4) 0.7433(4) 0.2255(2)
H4 H 0.3519 0.7933 0.1722
H5 H 0.4475 0.6872 0.2355
C3 C 0.2927(4) 0.5581(5) 0.3024(2)
H6 H 0.3691 0.4989 0.3125
H7 H 0.2241 0.4881 0.2990
C4 C 0.3048(4) 0.6689(4) 0.3718(2)
H8 H 0.2240 0.7204 0.3629
C5 C 0.3334(4) 0.5822(4) 0.4509(2)
H9 H 0.2685 0.5067 0.4474
H10 H 0.4125 0.5290 0.4605
C6 C 0.4434(4) 0.7599(4) 0.5554(2)
C7 C 0.5651(3) 0.7150(4) 0.5446(2)
C8 C 0.6578(4) 0.6934(4) 0.6181(2)
H11 H 0.6376 0.7027 0.6672
C9 C 0.7765(4) 0.6592(5) 0.6215(2)
H12 H 0.8362 0.6414 0.6721
C10 C 0.8088(4) 0.6510(5) 0.5506(2)
H13 H 0.8909 0.6281 0.5524
C11 C 0.7206(4) 0.6764(4) 0.4767(2)
C12 C 0.5976(4) 0.7047(4) 0.4730(2)
C13 C 0.4019(4) 0.7875(4) 0.3741(2)
H14 H 0.3996 0.8662 0.4147
C14 C 0.8579(4) 0.7180(5) 0.3930(3)
C15 C 0.8644(4) 0.7125(5) 0.3085(2)
H15 H 0.7857 0.6999 0.2640
C16 C 0.9636(4) 0.8068(5) 0.2915(3)
H16 H 0.9457 0.8531 0.2373
H17 H 1.0156 0.8680 0.3364
C17 C 0.9792(4) 0.6428(5) 0.2971(3)
H18 H 1.0408 0.6017 0.3455
H19 H 0.9708 0.5868 0.2465
C18 C 0.2251(4) 0.7360(5) 0.5302(2)
H20 H 0.1555 0.6886 0.4890
H21 H 0.2183 0.8456 0.5215
C19 C 0.2141(3) 0.7013(4) 0.6133(2)
C20 C 0.2817(4) 0.5885(4) 0.6620(2)
H22 H 0.3356 0.5285 0.6424
C21 C 0.2716(4) 0.5622(5) 0.7387(2)
H23 H 0.3192 0.4856 0.7715
C22 C 0.1921(4) 0.6476(5) 0.7674(2)
C23 C 0.1209(4) 0.7562(5) 0.7181(2)
H24 H 0.0640 0.8132 0.7363
C24 C 0.1331(4) 0.7813(5) 0.6418(2)
H25 H 0.0838 0.8560 0.6083
C25 C 0.1148(5) 0.7113(6) 0.8761(3)
H26 H 0.0282 0.6927 0.8471
H27 H 0.1346 0.8162 0.8690
H28 H 0.1300 0.6902 0.9337
C26 C 0.3099(4) 0.4100(5) 0.1348(3)
H29 H 0.3794 0.4613 0.1229
H30 H 0.3425 0.3603 0.1880
C27 C 0.2613(4) 0.2900(4) 0.0710(2)
C28 C 0.3592(4) 0.2148(5) 0.0370(3)
C29 C 0.2656(4) 0.1064(5) -0.0182(3)
H31 H 0.3017 0.0359 -0.0498
C30 C 0.1692(4) 0.2118(5) -0.0699(2)
H32 H 0.0901 0.1596 -0.0937
H33 H 0.1967 0.2568 -0.1137
C31 C 0.1587(4) 0.3308(5) -0.0077(2)
H34 H 0.0770 0.3267 0.0011
H35 H 0.1716 0.4326 -0.0263
C32 C 0.2069(5) 0.0300(6) 0.0398(3)
H36 H 0.1204 0.0026 0.0123
H37 H 0.2530 -0.0608 0.0641
C33 C 0.2155(4) 0.1502(5) 0.1028(3)
C34 C 0.4623(5) 0.1395(7) 0.1035(3)
H38 H 0.5099 0.2161 0.1401
H39 H 0.5162 0.0844 0.0788
H40 H 0.4265 0.0700 0.1340
C35 C 0.4172(5) 0.3231(7) -0.0092(3)
H41 H 0.3531 0.3862 -0.0446
H42 H 0.4584 0.2662 -0.0420
H43 H 0.4772 0.3864 0.0292
O8 O 0.6070(3) 0.4703(4) 0.25772(18)
H44 H 0.6711 0.4230 0.2528
H45 H 0.5875 0.4352 0.2991
H46? H 0.2036 0.7116 0.2288
loop_
_geom_bond_atom_site_label_1
_geom_bond_atom_site_label_2
_geom_bond_site_symmetry_1
_geom_bond_site_symmetry_2
S1 O1 1_555 1_555
O2 S1 1_555 1_555
O3 C33 1_555 1_555
O4 C14 1_555 1_555
O5 C6 1_555 1_555
O6 C22 1_555 1_555
O7 C12 1_555 1_555
N1 S1 1_555 1_555
N2 C5 1_555 1_555
N3 H1 1_555 1_555
C1 H2 1_555 1_555
H3 C1 1_555 1_555
C2 N1 1_555 1_555
H4 C2 1_555 1_555
H5 C2 1_555 1_555
C3 N1 1_555 1_555
H6 C3 1_555 1_555
H7 C3 1_555 1_555
C4 C3 1_555 1_555
H8 C4 1_555 1_555
C5 C4 1_555 1_555
H9 C5 1_555 1_555
H10 C5 1_555 1_555
C6 N2 1_555 1_555
C7 C6 1_555 1_555
C8 C7 1_555 1_555
H11 C8 1_555 1_555
C9 C8 1_555 1_555
H12 C9 1_555 1_555
C10 C9 1_555 1_555
H13 C10 1_555 1_555
C11 N3 1_555 1_555
C12 C7 1_555 1_555
C13 O7 1_555 1_555
H14 C13 1_555 1_555
C14 N3 1_555 1_555
C15 C14 1_555 1_555
H15 C15 1_555 1_555
C16 C15 1_555 1_555
H16 C16 1_555 1_555
H17 C16 1_555 1_555
C17 C15 1_555 1_555
H18 C17 1_555 1_555
H19 C17 1_555 1_555
C18 N2 1_555 1_555
H20 C18 1_555 1_555
H21 C18 1_555 1_555
C19 C18 1_555 1_555
C20 C19 1_555 1_555
H22 C20 1_555 1_555
C21 C20 1_555 1_555
H23 C21 1_555 1_555
C22 C21 1_555 1_555
C23 C22 1_555 1_555
H24 C23 1_555 1_555
C24 C19 1_555 1_555
H25 C24 1_555 1_555
C25 O6 1_555 1_555
H26 C25 1_555 1_555
H27 C25 1_555 1_555
H28 C25 1_555 1_555
C26 S1 1_555 1_555
H29 C26 1_555 1_555
H30 C26 1_555 1_555
C27 C26 1_555 1_555
C28 C27 1_555 1_555
C29 C28 1_555 1_555
H31 C29 1_555 1_555
C30 C29 1_555 1_555
H32 C30 1_555 1_555
H33 C30 1_555 1_555
C31 C27 1_555 1_555
H34 C31 1_555 1_555
H35 C31 1_555 1_555
C32 C29 1_555 1_555
H36 C32 1_555 1_555
H37 C32 1_555 1_555
C33 C27 1_555 1_555
C34 C28 1_555 1_555
H38 C34 1_555 1_555
H39 C34 1_555 1_555
H40 C34 1_555 1_555
C35 C28 1_555 1_555
H41 C35 1_555 1_555
H42 C35 1_555 1_555
H43 C35 1_555 1_555
O8 H44 1_555 1_555
H45 O8 1_555 1_555
C1 C2 1_555 1_555
C1 C13 1_555 1_555
C4 C13 1_555 1_555
C10 C11 1_555 1_555
C11 C12 1_555 1_555
C16 C17 1_555 1_555
C23 C24 1_555 1_555
C30 C31 1_555 1_555
C32 C33 1_555 1_555

#END
