
#######################################################################
#
#                 Cambridge Crystallographic Data Centre
#                                CCDC 
#
#######################################################################
#
# If this CIF has been generated from an entry in the Cambridge 
# Structural Database, then it will include bibliographic, chemical, 
# crystal, experimental, refinement or atomic coordinate data resulting 
# from the CCDC's data processing and validation procedures.
#
#######################################################################

data_ECULUM
_chemical_formula_moiety         'C31 H24 O2'
_chemical_name_systematic        
3,3a-bis(4-methylphenyl)-8b-phenyl-3a,8b-dihydro-1H-benzo[b]cyclopenta[d]furan-1-one
_symmetry_cell_setting           monoclinic
_symmetry_space_group_name_H-M   'P 21/n'
_symmetry_Int_Tables_number      14
_space_group_name_Hall           '-P 2yn'
loop_
_symmetry_equiv_pos_site_id
_symmetry_equiv_pos_as_xyz
1 x,y,z
2 1/2-x,1/2+y,1/2-z
3 -x,-y,-z
4 1/2+x,1/2-y,1/2+z
_cell_length_a                   9.6575(10)
_cell_length_b                   16.1093(16)
_cell_length_c                   15.3346(16)
_cell_angle_alpha                90
_cell_angle_beta                 103.579(2)
_cell_angle_gamma                90
_cell_volume                     2319
_exptl_crystal_colour            white
_exptl_crystal_description       needle
_cell_formula_units_Z            4
loop_
_atom_site_label
_atom_site_type_symbol
_atom_site_fract_x
_atom_site_fract_y
_atom_site_fract_z
C1 C 0.76282(15) 0.16994(9) 0.72727(10)
C2 C 0.68480(17) 0.16670(10) 0.79177(11)
H1 H 0.5897 0.1828 0.7792
C3 C 0.7536(2) 0.13859(11) 0.87561(12)
H2 H 0.7038 0.1352 0.9206
C4 C 0.8948(2) 0.11538(12) 0.89396(12)
H3 H 0.9391 0.0971 0.9512
C5 C 0.97183(18) 0.11885(11) 0.82818(11)
H4 H 1.0671 0.1030 0.8407
C6 C 0.90388(15) 0.14638(9) 0.74363(10)
C7 C 0.95685(14) 0.15410(9) 0.65867(10)
C8 C 1.0845(13) 0.2130(13) 0.6655(13)
C9 C 1.102(3) 0.2802(15) 0.7228(17)
H5 H 1.0372 0.2893 0.7578
C10 C 1.216(3) 0.3343(15) 0.7294(12)
H6 H 1.2216 0.3814 0.7650
C11 C 1.320(4) 0.319(2) 0.684(3)
H7 H 1.4006 0.3523 0.6916
C12 C 1.302(2) 0.2526(18) 0.626(2)
H8 H 1.3730 0.2395 0.5963
C13 C 1.179(4) 0.205(2) 0.6102(15)
H9 H 1.1598 0.1672 0.5628
C14 C 0.98328(16) 0.06551(10) 0.62805(11)
C15 C 0.86342(16) 0.04126(10) 0.55758(11)
H10 H 0.8541 -0.0110 0.5310
C16 C 0.76657(15) 0.10193(9) 0.53422(10)
C17 C 0.626(6) 0.100(4) 0.471(4)
C18 C 0.598(4) 0.033(3) 0.414(3)
H11 H 0.6664 -0.0087 0.4175
C19 C 0.470(6) 0.026(3) 0.352(5)
H12 H 0.4528 -0.0193 0.3135
C20 C 0.367(4) 0.086(3) 0.348(3)
C21 C 0.393(4) 0.152(2) 0.405(2)
H13 H 0.3203 0.1898 0.4062
C22 C 0.5264(19) 0.1628(17) 0.4601(13)
H14 H 0.5494 0.2127 0.4906
C23 C 0.2329(5) 0.0769(4) 0.2766(3)
H15 H 0.2382 0.0281 0.2416
H16 H 0.2205 0.1249 0.2384
H17 H 0.1535 0.0722 0.3041
C24 C 0.81371(14) 0.18035(8) 0.58866(9)
C25 C 0.82484(14) 0.25577(9) 0.53249(10)
C26 C 0.85990(15) 0.24832(10) 0.45060(11)
H18 H 0.8749 0.1959 0.4291
C27 C 0.87304(17) 0.31750(12) 0.40009(13)
H19 H 0.8956 0.3106 0.3448
C28 C 0.85371(17) 0.39603(12) 0.42933(15)
C29 C 0.8179(2) 0.40346(11) 0.51063(16)
H20 H 0.8030 0.4561 0.5316
C30 C 0.80348(19) 0.33466(10) 0.56225(12)
H21 H 0.7793 0.3417 0.6170
C31 C 0.8670(2) 0.47124(15) 0.37224(19)
H22 H 0.9616 0.4736 0.3626
H23 H 0.8484 0.5207 0.4025
H24 H 0.7994 0.4669 0.3155
O1 O 1.08722(13) 0.02371(8) 0.66139(9)
O2 O 0.70907(10) 0.19761(6) 0.64163(6)
C32? C 1.0846(18) 0.2091(15) 0.6657(14)
C33? C 1.114(4) 0.275(2) 0.724(2)
H25? H 1.0555 0.2844 0.7635
C34? C 1.228(3) 0.3272(16) 0.7272(13)
H26? H 1.2478 0.3700 0.7689
C35? C 1.313(4) 0.3152(19) 0.667(3)
C36? C 1.285(3) 0.250(2) 0.608(3)
H27? H 1.3367 0.2445 0.5642
C37? C 1.180(4) 0.193(3) 0.613(2)
H28? H 1.1741 0.1432 0.5816
C38? C 1.4435(5) 0.3690(3) 0.6771(4)
H29? H 1.5187 0.3373 0.6619
H30? H 1.4734 0.3879 0.7380
H31? H 1.4216 0.4159 0.6378
C39? C 0.633(5) 0.091(3) 0.463(3)
C40? C 0.606(3) 0.024(2) 0.406(3)
H32? H 0.6756 -0.0171 0.4102
C41? C 0.479(6) 0.015(3) 0.345(4)
H33? H 0.4624 -0.0318 0.3084
C42? C 0.375(5) 0.074(3) 0.335(3)
H34? H 0.2880 0.0682 0.2939
C43? C 0.402(4) 0.144(2) 0.389(2)
H35? H 0.3369 0.1872 0.3805
C44? C 0.524(2) 0.1487(17) 0.4565(15)
H36? H 0.5334 0.1913 0.4984
loop_
_geom_bond_atom_site_label_1
_geom_bond_atom_site_label_2
_geom_bond_site_symmetry_1
_geom_bond_site_symmetry_2
C1 C2 1_555 1_555
C2 H1 1_555 1_555
C3 C2 1_555 1_555
H2 C3 1_555 1_555
C4 C3 1_555 1_555
H3 C4 1_555 1_555
C5 C4 1_555 1_555
H4 C5 1_555 1_555
C6 C1 1_555 1_555
C7 C6 1_555 1_555
C8 C7 1_555 1_555
C9 C8 1_555 1_555
H5 C9 1_555 1_555
C10 C9 1_555 1_555
H6 C10 1_555 1_555
C11 C10 1_555 1_555
H7 C11 1_555 1_555
C12 C11 1_555 1_555
H8 C12 1_555 1_555
C13 C8 1_555 1_555
H9 C13 1_555 1_555
C14 C7 1_555 1_555
C15 C14 1_555 1_555
H10 C15 1_555 1_555
C16 C15 1_555 1_555
C17 C16 1_555 1_555
C18 C17 1_555 1_555
H11 C18 1_555 1_555
C19 C18 1_555 1_555
H12 C19 1_555 1_555
C20 C19 1_555 1_555
C21 C20 1_555 1_555
H13 C21 1_555 1_555
C22 C17 1_555 1_555
H14 C22 1_555 1_555
C23 C20 1_555 1_555
H15 C23 1_555 1_555
H16 C23 1_555 1_555
H17 C23 1_555 1_555
C24 C7 1_555 1_555
C25 C24 1_555 1_555
C26 C25 1_555 1_555
H18 C26 1_555 1_555
C27 C26 1_555 1_555
H19 C27 1_555 1_555
C28 C27 1_555 1_555
C29 C28 1_555 1_555
H20 C29 1_555 1_555
C30 C25 1_555 1_555
H21 C30 1_555 1_555
C31 C28 1_555 1_555
H22 C31 1_555 1_555
H23 C31 1_555 1_555
H24 C31 1_555 1_555
O1 C14 1_555 1_555
O2 C1 1_555 1_555
C5 C6 1_555 1_555
C12 C13 1_555 1_555
C16 C24 1_555 1_555
C21 C22 1_555 1_555
C24 O2 1_555 1_555
C29 C30 1_555 1_555

#END
