
#######################################################################
#
#                 Cambridge Crystallographic Data Centre
#                                CCDC 
#
#######################################################################
#
# If this CIF has been generated from an entry in the Cambridge 
# Structural Database, then it will include bibliographic, chemical, 
# crystal, experimental, refinement or atomic coordinate data resulting 
# from the CCDC's data processing and validation procedures.
#
#######################################################################

data_ECUMAT
_chemical_formula_moiety         'C24 H18 O2'
_chemical_name_systematic        
3a-methyl-3,8b-diphenyl-3a,8b-dihydro-1H-benzo[b]cyclopenta[d]furan-1-one
_symmetry_cell_setting           orthorhombic
_symmetry_space_group_name_H-M   'P b c a'
_symmetry_Int_Tables_number      61
_space_group_name_Hall           '-P 2ac 2ab'
loop_
_symmetry_equiv_pos_site_id
_symmetry_equiv_pos_as_xyz
1 x,y,z
2 1/2-x,-y,1/2+z
3 -x,1/2+y,1/2-z
4 1/2+x,1/2-y,-z
5 -x,-y,-z
6 1/2+x,y,1/2-z
7 x,1/2-y,1/2+z
8 1/2-x,1/2+y,z
_cell_length_a                   10.697(7)
_cell_length_b                   9.083(6)
_cell_length_c                   35.93(2)
_cell_angle_alpha                90
_cell_angle_beta                 90
_cell_angle_gamma                90
_cell_volume                     3490.99
_cell_formula_units_Z            8
loop_
_atom_site_label
_atom_site_type_symbol
_atom_site_fract_x
_atom_site_fract_y
_atom_site_fract_z
C1 C 0.70880(19) 0.3409(2) 0.44971(6)
H1 H 0.6461 0.3407 0.4318
C2 C 0.6859(3) 0.3993(3) 0.48443(8)
H2 H 0.6080 0.4394 0.4898
C3 C 0.7770(3) 0.3987(3) 0.51113(7)
H3 H 0.7602 0.4361 0.5347
C4 C 0.8916(2) 0.3438(2) 0.50323(6)
H4 H 0.9538 0.3451 0.5213
C5 C 0.91633(19) 0.2863(2) 0.46877(5)
H5 H 0.9955 0.2492 0.4637
C6 C 0.82535(16) 0.28254(18) 0.44150(5)
C7 C 0.84886(14) 0.22117(18) 0.40441(4)
C8 C 0.76334(16) 0.1712(2) 0.38089(5)
H6 H 0.6784 0.1668 0.3863
C9 C 0.81646(16) 0.12458(19) 0.34594(5)
C10 C 0.95924(14) 0.13760(17) 0.34891(4)
C11 C 0.97876(13) 0.21635(17) 0.38732(4)
C12 C 1.04012(16) 0.36554(18) 0.38650(5)
H7 H 1.0537 0.3991 0.4115
H8 H 0.9869 0.4339 0.3737
H9 H 1.1188 0.3587 0.3738
C13 C 1.06466(13) -0.01474(16) 0.39163(4)
C14 C 1.12129(15) -0.13807(18) 0.40604(5)
H10 H 1.1571 -0.1372 0.4296
C15 C 1.12305(17) -0.26310(19) 0.38425(5)
H11 H 1.1623 -0.3475 0.3931
C16 C 1.06827(18) -0.26533(19) 0.34987(5)
H12 H 1.0692 -0.3514 0.3358
C17 C 1.01167(17) -0.14051(18) 0.33586(5)
H13 H 0.9746 -0.1419 0.3124
C18 C 1.01076(14) -0.01388(17) 0.35696(4)
C19 C 1.01782(15) 0.21523(17) 0.31613(4)
C20 C 1.13506(17) 0.1771(2) 0.30327(5)
H14 H 1.1761 0.0965 0.3135
C21 C 1.1919(2) 0.2572(2) 0.27548(5)
H15 H 1.2707 0.2297 0.2670
C22 C 1.1337(2) 0.3763(2) 0.26026(5)
H16 H 1.1731 0.4312 0.2418
C23 C 1.0167(3) 0.4145(2) 0.27227(6)
H17 H 0.9763 0.4950 0.2617
C24 C 0.9584(2) 0.3346(2) 0.29984(5)
H18 H 0.8785 0.3610 0.3076
O1 O 0.76133(13) 0.07996(17) 0.31904(4)
O2 O 1.05792(10) 0.11830(11) 0.40940(3)
loop_
_geom_bond_atom_site_label_1
_geom_bond_atom_site_label_2
_geom_bond_site_symmetry_1
_geom_bond_site_symmetry_2
C1 H1 1_555 1_555
C2 C1 1_555 1_555
H2 C2 1_555 1_555
C3 C2 1_555 1_555
H3 C3 1_555 1_555
C4 C3 1_555 1_555
H4 C4 1_555 1_555
C5 C4 1_555 1_555
H5 C5 1_555 1_555
C6 C1 1_555 1_555
C7 C6 1_555 1_555
C8 C7 1_555 1_555
H6 C8 1_555 1_555
C9 C8 1_555 1_555
C10 C9 1_555 1_555
C11 C7 1_555 1_555
C12 C11 1_555 1_555
H7 C12 1_555 1_555
H8 C12 1_555 1_555
H9 C12 1_555 1_555
C13 C14 1_555 1_555
C14 H10 1_555 1_555
C15 C14 1_555 1_555
H11 C15 1_555 1_555
C16 C15 1_555 1_555
H12 C16 1_555 1_555
C17 C16 1_555 1_555
H13 C17 1_555 1_555
C18 C10 1_555 1_555
C19 C10 1_555 1_555
C20 C19 1_555 1_555
H14 C20 1_555 1_555
C21 C20 1_555 1_555
H15 C21 1_555 1_555
C22 C21 1_555 1_555
H16 C22 1_555 1_555
C23 C22 1_555 1_555
H17 C23 1_555 1_555
C24 C19 1_555 1_555
H18 C24 1_555 1_555
O1 C9 1_555 1_555
O2 C11 1_555 1_555
C5 C6 1_555 1_555
C10 C11 1_555 1_555
C13 C18 1_555 1_555
C13 O2 1_555 1_555
C17 C18 1_555 1_555
C23 C24 1_555 1_555

#END
