
#######################################################################
#
#                 Cambridge Crystallographic Data Centre
#                                CCDC 
#
#######################################################################
#
# If this CIF has been generated from an entry in the Cambridge 
# Structural Database, then it will include bibliographic, chemical, 
# crystal, experimental, refinement or atomic coordinate data resulting 
# from the CCDC's data processing and validation procedures.
#
#######################################################################

data_ECUMUN
_chemical_formula_moiety         'C22 H21 N1 O1'
_chemical_name_systematic        5-methyl-2,3,4-triphenyl-1,2-oxazolidine
_symmetry_cell_setting           triclinic
_symmetry_space_group_name_H-M   'P -1'
_symmetry_Int_Tables_number      2
_space_group_name_Hall           '-P 1'
loop_
_symmetry_equiv_pos_site_id
_symmetry_equiv_pos_as_xyz
1 x,y,z
2 -x,-y,-z
_cell_length_a                   8.4694(7)
_cell_length_b                   9.9145(8)
_cell_length_c                   11.0455(8)
_cell_angle_alpha                104.210(7)
_cell_angle_beta                 93.496(6)
_cell_angle_gamma                100.126(7)
_cell_volume                     879.82
_exptl_crystal_colour            colorless
_exptl_crystal_description       block
_cell_formula_units_Z            2
loop_
_atom_site_label
_atom_site_type_symbol
_atom_site_fract_x
_atom_site_fract_y
_atom_site_fract_z
O1 O 0.02310(15) 0.30909(15) 0.41623(12)
N1 N -0.14362(18) 0.29712(16) 0.44321(13)
C1 C -0.2454(2) 0.25463(19) 0.32893(17)
C2 C -0.4078(2) 0.2024(2) 0.32877(19)
H1 H -0.4477 0.1897 0.4026
C3 C -0.5108(3) 0.1690(3) 0.2196(2)
H2 H -0.6199 0.1341 0.2207
C4 C -0.4551(3) 0.1865(3) 0.1095(2)
H3 H -0.5255 0.1633 0.0362
C5 C -0.2937(3) 0.2389(3) 0.1089(2)
H4 H -0.2548 0.2514 0.0347
C6 C -0.1889(3) 0.2732(2) 0.21769(18)
H5 H -0.0801 0.3089 0.2163
C7 C -0.2722(2) 0.2640(2) 0.63128(17)
C8 C -0.3718(3) 0.1689(3) 0.6797(2)
H6 H -0.3743 0.0723 0.6492
C9 C -0.4671(3) 0.2137(4) 0.7718(2)
H7 H -0.5330 0.1477 0.8030
C10 C -0.4649(3) 0.3541(4) 0.8171(2)
H8 H -0.5286 0.3846 0.8800
C11 C -0.3682(3) 0.4520(3) 0.7698(2)
H9 H -0.3678 0.5483 0.8001
C12 C -0.2712(2) 0.4067(2) 0.67653(19)
H10 H -0.2058 0.4727 0.6449
C13 C 0.0445(2) 0.2178(2) 0.72214(17)
C14 C 0.0716(3) 0.3433(2) 0.81537(19)
H11 H 0.0660 0.4277 0.7943
C15 C 0.1069(3) 0.3453(3) 0.9401(2)
H12 H 0.1242 0.4307 1.0018
C16 C 0.1166(3) 0.2225(3) 0.9727(2)
H13 H 0.1405 0.2241 1.0564
C17 C 0.0908(3) 0.0976(3) 0.8818(2)
H14 H 0.0971 0.0137 0.9035
C18 C 0.0554(3) 0.0954(2) 0.7579(2)
H15 H 0.0383 0.0094 0.6969
C19 C -0.1663(2) 0.2086(2) 0.53365(16)
H16 H -0.2170 0.1112 0.4877
C20 C 0.0106(2) 0.2109(2) 0.58438(17)
H17 H 0.0379 0.1221 0.5374
C21 C 0.1077(2) 0.3286(2) 0.53746(19)
H18 H 0.1043 0.4220 0.5923
C22 C 0.2785(3) 0.3147(4) 0.5184(3)
H19 H 0.2791 0.2247 0.4611
H20 H 0.3367 0.3208 0.5975
H21 H 0.3289 0.3897 0.4843
loop_
_geom_bond_atom_site_label_1
_geom_bond_atom_site_label_2
_geom_bond_site_symmetry_1
_geom_bond_site_symmetry_2
O1 N1 1_555 1_555
N1 C1 1_555 1_555
C1 C2 1_555 1_555
C2 H1 1_555 1_555
C3 C2 1_555 1_555
H2 C3 1_555 1_555
C4 C3 1_555 1_555
H3 C4 1_555 1_555
C5 C4 1_555 1_555
H4 C5 1_555 1_555
C6 C1 1_555 1_555
H5 C6 1_555 1_555
C7 C8 1_555 1_555
C8 H6 1_555 1_555
C9 C8 1_555 1_555
H7 C9 1_555 1_555
C10 C9 1_555 1_555
H8 C10 1_555 1_555
C11 C10 1_555 1_555
H9 C11 1_555 1_555
C12 C7 1_555 1_555
H10 C12 1_555 1_555
C13 C14 1_555 1_555
C14 H11 1_555 1_555
C15 C14 1_555 1_555
H12 C15 1_555 1_555
C16 C15 1_555 1_555
H13 C16 1_555 1_555
C17 C16 1_555 1_555
H14 C17 1_555 1_555
C18 C13 1_555 1_555
H15 C18 1_555 1_555
C19 N1 1_555 1_555
H16 C19 1_555 1_555
C20 C13 1_555 1_555
H17 C20 1_555 1_555
C21 O1 1_555 1_555
H18 C21 1_555 1_555
C22 C21 1_555 1_555
H19 C22 1_555 1_555
H20 C22 1_555 1_555
H21 C22 1_555 1_555
C5 C6 1_555 1_555
C7 C19 1_555 1_555
C11 C12 1_555 1_555
C17 C18 1_555 1_555
C19 C20 1_555 1_555
C20 C21 1_555 1_555

#END
