
#######################################################################
#
#                 Cambridge Crystallographic Data Centre
#                                CCDC 
#
#######################################################################
#
# If this CIF has been generated from an entry in the Cambridge 
# Structural Database, then it will include bibliographic, chemical, 
# crystal, experimental, refinement or atomic coordinate data resulting 
# from the CCDC's data processing and validation procedures.
#
#######################################################################

data_ECUNIZ
_chemical_formula_moiety         'C46 H46 Br2'
_chemical_name_systematic        
5,6,8-Tri-t-butyl-2,3-bis(4-bromophenyl)-1,4-diphenylnaphthalene
_symmetry_cell_setting           monoclinic
_symmetry_space_group_name_H-M   'P 21/c'
_symmetry_Int_Tables_number      14
_space_group_name_Hall           '-P 2ybc'
loop_
_symmetry_equiv_pos_site_id
_symmetry_equiv_pos_as_xyz
1 x,y,z
2 x,1/2-y,1/2+z
3 -x,-y,-z
4 -x,1/2+y,1/2-z
_cell_length_a                   13.7798(4)
_cell_length_b                   10.6379(3)
_cell_length_c                   27.2058(9)
_cell_angle_alpha                90
_cell_angle_beta                 104.0340(10)
_cell_angle_gamma                90
_cell_volume                     3869.01
_exptl_crystal_colour            yellow
_exptl_crystal_description       prism
_chemical_melting_point          '204-205 deg.C'
_cell_formula_units_Z            4
_exptl_crystal_recrystallization_method ethanol
loop_
_atom_site_label
_atom_site_type_symbol
_atom_site_fract_x
_atom_site_fract_y
_atom_site_fract_z
Br1 Br 0.41391(3) 0.61525(5) 0.432687(14)
Br2 Br -0.11818(3) 0.27357(4) 0.323589(14)
C1 C 0.3458(2) 0.4313(2) 0.18120(10)
C2 C 0.2871(2) 0.4053(2) 0.21457(10)
C3 C 0.1931(2) 0.3443(3) 0.19643(10)
C4 C 0.1712(2) 0.2902(3) 0.14879(10)
C5 C 0.2360(2) 0.3084(3) 0.11500(10)
C6 C 0.2205(2) 0.2388(3) 0.06721(10)
C7 C 0.2371(2) 0.3083(3) 0.02690(11)
C8 C 0.2949(2) 0.4201(3) 0.03893(11)
H1 H 0.3043(2) 0.4679(3) 0.01096(11)
C9 C 0.3384(2) 0.4666(3) 0.08575(11)
C10 C 0.3102(2) 0.4035(2) 0.12774(10)
C11 C 0.4535(2) 0.4646(3) 0.20272(10)
C12 C 0.5245(2) 0.3764(3) 0.19647(11)
H2 H 0.5035(2) 0.3031(3) 0.17685(11)
C13 C 0.6250(2) 0.3945(3) 0.21850(13)
H3 H 0.6724(2) 0.3334(3) 0.21406(13)
C14 C 0.6568(2) 0.5008(3) 0.24689(12)
H4 H 0.7259(2) 0.5134(3) 0.26172(12)
C15 C 0.5873(2) 0.5888(3) 0.25361(11)
H5 H 0.6089(2) 0.6623(3) 0.27307(11)
C16 C 0.4864(2) 0.5707(3) 0.23216(10)
H6 H 0.4392(2) 0.6310(3) 0.23754(10)
C17 C 0.3171(2) 0.4492(3) 0.26872(10)
C18 C 0.3954(2) 0.3970(3) 0.30470(11)
H7 H 0.4303(2) 0.3269(3) 0.29582(11)
C19 C 0.4240(2) 0.4453(3) 0.35349(11)
H8 H 0.4779(2) 0.4086(3) 0.37777(11)
C20 C 0.3733(2) 0.5469(3) 0.36627(11)
C21 C 0.2943(2) 0.5997(3) 0.33173(11)
H9 H 0.2594(2) 0.6693(3) 0.34101(11)
C22 C 0.2662(2) 0.5505(3) 0.28334(11)
H10 H 0.2112(2) 0.5864(3) 0.25955(11)
C23 C 0.1206(2) 0.3336(3) 0.22937(10)
C24 C 0.1409(2) 0.2584(3) 0.27201(11)
H11 H 0.2042(2) 0.2183(3) 0.28222(11)
C25 C 0.0705(2) 0.2401(3) 0.30024(12)
H12 H 0.0849(2) 0.1871(3) 0.32919(12)
C26 C -0.0207(2) 0.3004(3) 0.28557(11)
C27 C -0.0424(2) 0.3786(3) 0.24416(12)
H13 H -0.1050(2) 0.4207(3) 0.23477(12)
C28 C 0.0287(2) 0.3950(3) 0.21630(11)
H14 H 0.0143(2) 0.4492(3) 0.18770(11)
C29 C 0.0705(2) 0.2317(3) 0.12862(10)
C30 C 0.0343(2) 0.1338(3) 0.15283(11)
H15 H 0.0756(2) 0.0984(3) 0.18273(11)
C31 C -0.0614(2) 0.0870(3) 0.13394(13)
H16 H -0.0852(2) 0.0200(3) 0.15092(13)
C32 C -0.1215(2) 0.1370(3) 0.09102(13)
H17 H -0.1868(2) 0.1042(3) 0.07804(13)
C33 C -0.0875(2) 0.2353(3) 0.06638(13)
H18 H -0.1296(2) 0.2704(3) 0.03665(13)
C34 C 0.0081(2) 0.2824(3) 0.08516(11)
H19 H 0.0313(2) 0.3499(3) 0.06819(11)
C35 C 0.2163(2) 0.0907(3) 0.06942(10)
C36 C 0.1153(2) 0.0214(3) 0.05211(12)
H20 H 0.1255(3) -0.0584(9) 0.0360(7)
H21 H 0.0683(5) 0.0737(9) 0.0278(6)
H22 H 0.0880(8) 0.0047(17) 0.0815(2)
C37 C 0.2644(2) 0.0484(3) 0.12389(11)
H23 H 0.2718(14) -0.0432(3) 0.1248(2)
H24 H 0.2218(8) 0.0739(17) 0.1462(2)
H25 H 0.3304(7) 0.0877(15) 0.1354(3)
C38 C 0.2891(2) 0.0406(3) 0.03882(12)
H26 H 0.2966(12) -0.0506(4) 0.0435(6)
H27 H 0.3545(5) 0.0811(15) 0.0508(6)
H28 H 0.2625(8) 0.0594(18) 0.0028(2)
C39 C 0.1930(2) 0.2910(3) -0.03129(12)
C40 C 0.2748(3) 0.2650(4) -0.05963(14)
H29 H 0.2448(5) 0.2628(26) -0.09617(15)
H30 H 0.3065(14) 0.1839(13) -0.0487(8)
H31 H 0.3252(11) 0.3318(14) -0.0521(8)
C41 C 0.1096(3) 0.1933(3) -0.04596(13)
H32 H 0.0811(12) 0.1963(16) -0.0826(2)
H33 H 0.0572(9) 0.2116(14) -0.0283(7)
H34 H 0.1370(4) 0.1093(4) -0.0364(8)
C42 C 0.1402(3) 0.4168(4) -0.05100(13)
H35 H 0.1025(16) 0.4065(8) -0.0863(3)
H36 H 0.1905(3) 0.4830(7) -0.0491(9)
H37 H 0.0943(15) 0.4404(13) -0.0301(6)
C43 C 0.3940(2) 0.5954(3) 0.08847(12)
C44 C 0.5089(2) 0.5846(3) 0.10634(13)
H38 H 0.5279(3) 0.5683(22) 0.1429(2)
H39 H 0.5397(2) 0.6633(8) 0.0991(8)
H40 H 0.5321(3) 0.5152(14) 0.0884(6)
C45 C 0.3510(2) 0.6872(3) 0.12107(13)
H41 H 0.3582(15) 0.6516(10) 0.1550(3)
H42 H 0.2800(5) 0.7017(16) 0.1054(5)
H43 H 0.3873(11) 0.7671(8) 0.1237(7)
C46 C 0.3757(3) 0.6579(3) 0.03556(13)
H44 H 0.4052(16) 0.7423(9) 0.0390(2)
H45 H 0.3036(3) 0.6641(21) 0.0206(4)
H46 H 0.4068(16) 0.6070(13) 0.0136(3)
loop_
_geom_bond_atom_site_label_1
_geom_bond_atom_site_label_2
_geom_bond_site_symmetry_1
_geom_bond_site_symmetry_2
Br1 C20 1_555 1_555
Br2 C26 1_555 1_555
C1 C2 1_555 1_555
C2 C3 1_555 1_555
C3 C4 1_555 1_555
C4 C5 1_555 1_555
C5 C6 1_555 1_555
C6 C7 1_555 1_555
C7 C8 1_555 1_555
C8 H1 1_555 1_555
C9 C8 1_555 1_555
C10 C1 1_555 1_555
C11 C1 1_555 1_555
C12 C11 1_555 1_555
H2 C12 1_555 1_555
C13 C12 1_555 1_555
H3 C13 1_555 1_555
C14 C13 1_555 1_555
H4 C14 1_555 1_555
C15 C14 1_555 1_555
H5 C15 1_555 1_555
C16 C11 1_555 1_555
H6 C16 1_555 1_555
C17 C2 1_555 1_555
C18 C17 1_555 1_555
H7 C18 1_555 1_555
C19 C18 1_555 1_555
H8 C19 1_555 1_555
C20 C19 1_555 1_555
C21 C20 1_555 1_555
H9 C21 1_555 1_555
C22 C17 1_555 1_555
H10 C22 1_555 1_555
C23 C3 1_555 1_555
C24 C23 1_555 1_555
H11 C24 1_555 1_555
C25 C24 1_555 1_555
H12 C25 1_555 1_555
C26 C25 1_555 1_555
C27 C26 1_555 1_555
H13 C27 1_555 1_555
C28 C23 1_555 1_555
H14 C28 1_555 1_555
C29 C4 1_555 1_555
C30 C29 1_555 1_555
H15 C30 1_555 1_555
C31 C30 1_555 1_555
H16 C31 1_555 1_555
C32 C31 1_555 1_555
H17 C32 1_555 1_555
C33 C32 1_555 1_555
H18 C33 1_555 1_555
C34 C29 1_555 1_555
H19 C34 1_555 1_555
C35 C6 1_555 1_555
C36 C35 1_555 1_555
H20 C36 1_555 1_555
H21 C36 1_555 1_555
H22 C36 1_555 1_555
C37 C35 1_555 1_555
H23 C37 1_555 1_555
H24 C37 1_555 1_555
H25 C37 1_555 1_555
C38 C35 1_555 1_555
H26 C38 1_555 1_555
H27 C38 1_555 1_555
H28 C38 1_555 1_555
C39 C7 1_555 1_555
C40 C39 1_555 1_555
H29 C40 1_555 1_555
H30 C40 1_555 1_555
H31 C40 1_555 1_555
C41 C39 1_555 1_555
H32 C41 1_555 1_555
H33 C41 1_555 1_555
H34 C41 1_555 1_555
C42 C39 1_555 1_555
H35 C42 1_555 1_555
H36 C42 1_555 1_555
H37 C42 1_555 1_555
C43 C9 1_555 1_555
C44 C43 1_555 1_555
H38 C44 1_555 1_555
H39 C44 1_555 1_555
H40 C44 1_555 1_555
C45 C43 1_555 1_555
H41 C45 1_555 1_555
H42 C45 1_555 1_555
H43 C45 1_555 1_555
C46 C43 1_555 1_555
H44 C46 1_555 1_555
H45 C46 1_555 1_555
H46 C46 1_555 1_555
C5 C10 1_555 1_555
C9 C10 1_555 1_555
C15 C16 1_555 1_555
C21 C22 1_555 1_555
C27 C28 1_555 1_555
C33 C34 1_555 1_555

#END
