
#######################################################################
#
#                 Cambridge Crystallographic Data Centre
#                                CCDC 
#
#######################################################################
#
# If this CIF has been generated from an entry in the Cambridge 
# Structural Database, then it will include bibliographic, chemical, 
# crystal, experimental, refinement or atomic coordinate data resulting 
# from the CCDC's data processing and validation procedures.
#
#######################################################################

data_ECUPAU
_chemical_formula_moiety         'C18 H15 Br1 N2 O4'
_chemical_name_systematic        
'Methyl 2-(3-(4-bromophenyl)-1,2,4-oxadiazol-5-ylmethoxy)phenylacetate'
_symmetry_cell_setting           monoclinic
_symmetry_space_group_name_H-M   'C 2/c'
_symmetry_Int_Tables_number      15
_space_group_name_Hall           '-C 2yn'
loop_
_symmetry_equiv_pos_site_id
_symmetry_equiv_pos_as_xyz
1 x,y,z
2 1/2+x,1/2+y,z
3 -x,y,1/2-z
4 1/2-x,1/2+y,1/2-z
5 -x,-y,-z
6 1/2-x,1/2-y,-z
7 x,-y,1/2+z
8 1/2+x,1/2-y,1/2+z
_cell_length_a                   20.011(4)
_cell_length_b                   9.643(2)
_cell_length_c                   18.089(4)
_cell_angle_alpha                90
_cell_angle_beta                 98.33(3)
_cell_angle_gamma                90
_cell_volume                     3453.74
_exptl_crystal_colour            colorless
_exptl_crystal_description       block
_cell_formula_units_Z            8
_exptl_crystal_recrystallization_method ethanol
loop_
_atom_site_label
_atom_site_type_symbol
_atom_site_fract_x
_atom_site_fract_y
_atom_site_fract_z
Br1 Br 0.89026(3) 0.26623(6) 0.69135(3)
O1 O 0.5825(2) 0.3266(4) 0.1358(2)
O2 O 0.6080(2) 0.5066(4) 0.0691(2)
O3 O 0.59382(18) 0.6607(3) 0.22824(18)
O4 O 0.71952(19) 0.5313(4) 0.27663(18)
N1 N 0.7039(2) 0.5999(4) 0.3885(2)
N2 N 0.7610(2) 0.4455(5) 0.3277(2)
C1 C 0.6431(3) 0.2578(6) 0.1209(4)
H1 H 0.6431 0.1638 0.1385
H2 H 0.6819 0.3056 0.1462
H3 H 0.6445 0.2579 0.0681
C2 C 0.5719(3) 0.4535(5) 0.1074(3)
C3 C 0.5084(3) 0.5158(5) 0.1273(3)
H4 H 0.5021 0.4847 0.1768
H5 H 0.4704 0.4827 0.0924
C4 C 0.5089(2) 0.6712(5) 0.1260(3)
C5 C 0.4654(3) 0.7466(6) 0.0741(3)
H6 H 0.4352 0.6998 0.0388
C6 C 0.4663(3) 0.8900(6) 0.0739(3)
H7 H 0.4375 0.9397 0.0385
C7 C 0.5104(3) 0.9576(6) 0.1270(3)
H8 H 0.5109 1.0540 0.1270
C8 C 0.5535(3) 0.8884(5) 0.1799(3)
H9 H 0.5825 0.9365 0.2158
C9 C 0.5528(3) 0.7440(5) 0.1787(3)
C10 C 0.6442(3) 0.7257(5) 0.2787(3)
H10 H 0.6236 0.7798 0.3146
H11 H 0.6704 0.7878 0.2519
C11 C 0.6884(3) 0.6184(5) 0.3177(3)
C12 C 0.7496(2) 0.4927(5) 0.3926(2)
C13 C 0.7837(2) 0.4353(5) 0.4633(3)
C14 C 0.7676(3) 0.4869(6) 0.5298(3)
H12 H 0.7356 0.5571 0.5292
C15 C 0.7988(3) 0.4346(6) 0.5971(3)
H13 H 0.7871 0.4680 0.6418
C16 C 0.8468(3) 0.3335(5) 0.5980(3)
C17 C 0.8634(3) 0.2821(5) 0.5328(3)
H14 H 0.8962 0.2137 0.5337
C18 C 0.8312(3) 0.3323(5) 0.4654(3)
H15 H 0.8418 0.2959 0.4209
loop_
_geom_bond_atom_site_label_1
_geom_bond_atom_site_label_2
_geom_bond_site_symmetry_1
_geom_bond_site_symmetry_2
Br1 C16 1_555 1_555
O1 C1 1_555 1_555
O2 C2 1_555 1_555
O3 C9 1_555 1_555
O4 N2 1_555 1_555
N1 C11 1_555 1_555
N2 C12 1_555 1_555
C1 H1 1_555 1_555
H2 C1 1_555 1_555
H3 C1 1_555 1_555
C2 O1 1_555 1_555
C3 C2 1_555 1_555
H4 C3 1_555 1_555
H5 C3 1_555 1_555
C4 C3 1_555 1_555
C5 C4 1_555 1_555
H6 C5 1_555 1_555
C6 C5 1_555 1_555
H7 C6 1_555 1_555
C7 C6 1_555 1_555
H8 C7 1_555 1_555
C8 C7 1_555 1_555
H9 C8 1_555 1_555
C9 C4 1_555 1_555
C10 O3 1_555 1_555
H10 C10 1_555 1_555
H11 C10 1_555 1_555
C11 O4 1_555 1_555
C12 N1 1_555 1_555
C13 C12 1_555 1_555
C14 C13 1_555 1_555
H12 C14 1_555 1_555
C15 C14 1_555 1_555
H13 C15 1_555 1_555
C16 C15 1_555 1_555
C17 C16 1_555 1_555
H14 C17 1_555 1_555
C18 C13 1_555 1_555
H15 C18 1_555 1_555
C8 C9 1_555 1_555
C10 C11 1_555 1_555
C17 C18 1_555 1_555

#END
