
#######################################################################
#
#                 Cambridge Crystallographic Data Centre
#                                CCDC 
#
#######################################################################
#
# If this CIF has been generated from an entry in the Cambridge 
# Structural Database, then it will include bibliographic, chemical, 
# crystal, experimental, refinement or atomic coordinate data resulting 
# from the CCDC's data processing and validation procedures.
#
#######################################################################

data_ECUQOI
_chemical_formula_moiety         'C2 F4 I2,C4 H8 O2'
_chemical_name_systematic        
'1,2-Di-iodo-1,1,2,2-tetrafluoroethane 1,4-dioxane'
_symmetry_cell_setting           rhombohedral
_symmetry_space_group_name_H-M   'R -3'
_symmetry_Int_Tables_number      148
_space_group_name_Hall           '-R 3'
loop_
_symmetry_equiv_pos_site_id
_symmetry_equiv_pos_as_xyz
1 x,y,z
2 -x+y,-x,z
3 -y,x-y,z
4 2/3+x,1/3+y,1/3+z
5 2/3-x+y,1/3-x,1/3+z
6 2/3-y,1/3+x-y,1/3+z
7 1/3+x,2/3+y,2/3+z
8 2/3+x-y,1/3+x,1/3-z
9 2/3+y,1/3-x+y,1/3-z
10 -x,-y,-z
11 x-y,x,-z
12 y,-x+y,-z
13 1/3-x,2/3-y,2/3-z
14 1/3+x-y,2/3+x,2/3-z
15 1/3+y,2/3-x+y,2/3-z
16 2/3-x,1/3-y,1/3-z
17 1/3-x+y,2/3-x,2/3+z
18 1/3-y,2/3+x-y,2/3+z
_cell_length_a                   8.9237(10)
_cell_length_b                   8.9237(10)
_cell_length_c                   13.4474(13)
_cell_angle_alpha                90
_cell_angle_beta                 90
_cell_angle_gamma                120.00
_cell_volume                     927.382
_exptl_crystal_colour            colorless
_exptl_crystal_description       prism
_cell_formula_units_Z            3
_exptl_crystal_recrystallization_method chloroform
loop_
_atom_site_label
_atom_site_type_symbol
_atom_site_fract_x
_atom_site_fract_y
_atom_site_fract_z
I1 I 0.0000 0.0000 0.31226(6)
C1 C 0.079(2) 0.051(4) 0.4657(11)
F1 F 0.223(6) 0.063(19) 0.506(4)
F2 F 0.155(11) -0.037(14) 0.498(2)
C1A C -0.028(4) -0.079(2) 0.4657(11)
C1B C -0.051(4) 0.028(4) 0.4657(11)
C1I C -0.079(2) -0.051(4) 0.5343(11)
I1I I 0.0000 0.0000 0.68774(6)
C1J C 0.028(4) 0.079(2) 0.5343(11)
C1K C 0.051(4) -0.028(4) 0.5343(11)
F1K F 0.063(19) -0.160(20) 0.494(4)
F1A F -0.160(20) -0.223(6) 0.506(4)
F1I F -0.223(6) -0.063(19) 0.494(4)
F1B F -0.063(19) 0.160(20) 0.506(4)
F1J F 0.160(20) 0.223(6) 0.494(4)
F2A F -0.192(18) -0.155(11) 0.498(2)
F2I F -0.155(11) 0.037(14) 0.502(2)
F2B F 0.037(14) 0.192(18) 0.498(2)
F2J F 0.192(18) 0.155(11) 0.502(2)
F2K F -0.037(14) -0.192(18) 0.502(2)
O1 O 0.0000 0.0000 0.1030(9)
C2 C -0.077(4) 0.081(4) 0.0385(9)
H1 H -0.105(10) 0.097(10) 0.062(5)
H2 H -0.090(8) -0.043(7) 0.073(4)
C2J C -0.158(6) -0.077(4) -0.0385(9)
O1J O 0.0000 0.0000 -0.1030(9)
C2K C 0.081(4) 0.158(6) -0.0385(9)
C2A C 0.158(6) 0.077(4) 0.0385(9)
H1K H 0.097(10) 0.202(14) -0.062(5)
H2K H -0.043(7) 0.047(11) -0.073(4)
C2I C 0.077(4) -0.081(4) -0.0385(9)
H1A H 0.202(14) 0.105(10) 0.062(5)
H2A H 0.047(11) 0.090(8) 0.073(4)
C2B C -0.081(4) -0.158(6) 0.0385(9)
H1I H 0.105(10) -0.097(10) -0.062(5)
H2I H 0.090(8) 0.043(7) -0.073(4)
H2J H -0.047(11) -0.090(8) -0.073(4)
H1B H -0.097(10) -0.202(14) 0.062(5)
H2B H 0.043(7) -0.047(11) 0.073(4)
H1J H -0.202(14) -0.105(10) -0.062(5)
loop_
_geom_bond_atom_site_label_1
_geom_bond_atom_site_label_2
_geom_bond_site_symmetry_1
_geom_bond_site_symmetry_2
I1 C1 1_555 1_555
C1 F1 1_555 1_555
F1 F2 1_555 1_555
F2 C1 1_555 1_555
O1 C2 1_555 1_555
C2 H1 1_555 1_555
H2 O1 1_555 1_555
C1A I1 1_555 1_555
C1B I1 1_555 1_555
C1I C1 1_555 1_555
I1I C1I 1_555 1_555
C1J C1 1_555 1_555
C1K C1 1_555 1_555
F1K C1 1_555 1_555
F1A C1A 1_555 1_555
F1I C1A 1_555 1_555
F1B C1B 1_555 1_555
F1J C1 1_555 1_555
F2A C1A 1_555 1_555
F2I C1B 1_555 1_555
F2B C1 1_555 1_555
F2J C1 1_555 1_555
F2K F2 1_555 1_555
C2J C2 1_555 1_555
O1J C2J 1_555 1_555
C2K C2 1_555 1_555
C2A O1 1_555 1_555
H1K C2K 1_555 1_555
H2K C2J 1_555 1_555
C2I O1J 1_555 1_555
H1A C2A 1_555 1_555
H2A O1 1_555 1_555
C2B O1 1_555 1_555
H1I C2I 1_555 1_555
H2I O1J 1_555 1_555
H2J C2J 1_555 1_555
H1B C2B 1_555 1_555
H2B O1 1_555 1_555
H1J C2J 1_555 1_555
C1 C1A 1_555 1_555
C1 C1B 1_555 1_555
F1 C1K 1_555 1_555
F1 C1J 1_555 1_555
F1 F2J 1_555 1_555
F2 C1A 1_555 1_555
F2 C1K 1_555 1_555
F2 F1K 1_555 1_555
F2 F2J 1_555 1_555
C2 H2 1_555 1_555
C2 H2A 1_555 1_555
H2 C2B 1_555 1_555
C1A C1J 1_555 1_555
C1A C1B 1_555 1_555
C1A C1I 1_555 1_555
C1A C1K 1_555 1_555
C1A F1K 1_555 1_555
C1A F2K 1_555 1_555
C1B C1K 1_555 1_555
C1B C1J 1_555 1_555
C1B C1I 1_555 1_555
C1B F1I 1_555 1_555
C1B F2B 1_555 1_555
C1B F1J 1_555 1_555
C1B F2A 1_555 1_555
C1I F1I 1_555 1_555
C1I C1K 1_555 1_555
C1I C1J 1_555 1_555
C1I F1A 1_555 1_555
C1I F2I 1_555 1_555
C1I F1B 1_555 1_555
C1I F2A 1_555 1_555
C1I F2K 1_555 1_555
I1I C1J 1_555 1_555
I1I C1K 1_555 1_555
C1J C1K 1_555 1_555
C1J F1J 1_555 1_555
C1J F1B 1_555 1_555
C1J F2J 1_555 1_555
C1J F2B 1_555 1_555
C1J F2I 1_555 1_555
C1K F1K 1_555 1_555
C1K F1A 1_555 1_555
C1K F2K 1_555 1_555
C1K F2J 1_555 1_555
F1K F2K 1_555 1_555
F1A F2A 1_555 1_555
F1A F2K 1_555 1_555
F1I F2I 1_555 1_555
F1I F2A 1_555 1_555
F1B F2B 1_555 1_555
F1B F2I 1_555 1_555
F1J F2J 1_555 1_555
F1J F2B 1_555 1_555
F2A F2I 1_555 1_555
F2A F2K 1_555 1_555
F2I F2B 1_555 1_555
F2B F2J 1_555 1_555
C2J C2B 1_555 1_555
O1J C2K 1_555 1_555
O1J H2J 1_555 1_555
O1J H2K 1_555 1_555
C2K H2K 1_555 1_555
C2K C2A 1_555 1_555
C2K H2I 1_555 1_555
C2A H2A 1_555 1_555
C2A C2I 1_555 1_555
C2A H2B 1_555 1_555
C2I H2I 1_555 1_555
C2I C2B 1_555 1_555
C2I H2J 1_555 1_555
C2B H2B 1_555 1_555

#END
