
#######################################################################
#
#                 Cambridge Crystallographic Data Centre
#                                CCDC 
#
#######################################################################
#
# If this CIF has been generated from an entry in the Cambridge 
# Structural Database, then it will include bibliographic, chemical, 
# crystal, experimental, refinement or atomic coordinate data resulting 
# from the CCDC's data processing and validation procedures.
#
#######################################################################

data_ECUTUR01
_chemical_formula_moiety         'C14 H10,C10 F8'
_chemical_name_systematic        'anthracene octafluoronaphthalene'
_symmetry_cell_setting           monoclinic
_symmetry_space_group_name_H-M   'P 21/n'
_symmetry_Int_Tables_number      14
_space_group_name_Hall           '-P 2yn'
loop_
_symmetry_equiv_pos_site_id
_symmetry_equiv_pos_as_xyz
1 x,y,z
2 1/2-x,1/2+y,1/2-z
3 -x,-y,-z
4 1/2+x,1/2-y,1/2+z
_cell_length_a                   6.893(7)
_cell_length_b                   18.277(18)
_cell_length_c                   7.515(8)
_cell_angle_alpha                90
_cell_angle_beta                 101.593(15)
_cell_angle_gamma                90
_cell_volume                     927.451
_exptl_crystal_colour            colorless
_exptl_crystal_description       prism
_cell_formula_units_Z            2
loop_
_atom_site_label
_atom_site_type_symbol
_atom_site_fract_x
_atom_site_fract_y
_atom_site_fract_z
C1 C 0.0629(3) 0.61218(14) 0.2644(3)
H1 H 0.1012 0.6010 0.3872
C2 C 0.0362(4) 0.68249(15) 0.2113(4)
H2 H 0.0569 0.7194 0.2982
C3 C -0.0218(4) 0.70075(14) 0.0284(4)
H3 H -0.0388 0.7497 -0.0051
C4 C -0.0535(3) 0.64866(14) -0.1004(4)
H4 H -0.0929 0.6619 -0.2218
C5 C -0.0276(3) 0.57353(12) -0.0532(3)
C6 C -0.0579(3) 0.51811(13) -0.1812(3)
H5 H -0.0965 0.5304 -0.3033
C7 C -0.0329(3) 0.44501(12) -0.1339(3)
C1B C -0.0629(3) 0.38782(14) -0.2644(3)
H1B H -0.1012 0.3990 -0.3872
C2B C -0.0362(4) 0.31751(15) -0.2113(4)
H2B H -0.0569 0.2806 -0.2982
C3B C 0.0218(4) 0.29925(14) -0.0284(4)
H3B H 0.0388 0.2503 0.0051
C4B C 0.0535(3) 0.35134(14) 0.1004(4)
H4B H 0.0929 0.3381 0.2218
C5B C 0.0276(3) 0.42647(12) 0.0532(3)
C6B C 0.0579(3) 0.48189(13) 0.1812(3)
H5B H 0.0965 0.4696 0.3033
C7B C 0.0329(3) 0.55499(12) 0.1339(3)
C8 C 0.4170(3) 0.48330(14) 0.7561(3)
C9 C 0.4270(3) 0.41006(14) 0.7455(3)
C10 C 0.4896(3) 0.36969(12) 0.9021(4)
C11 C 0.5399(3) 0.40271(13) 1.0640(3)
C12 C 0.5319(3) 0.47941(12) 1.0805(3)
F1 F 0.3505(2) 0.52037(8) 0.60109(18)
F2 F 0.3768(2) 0.37582(9) 0.5872(2)
F3 F 0.4967(2) 0.29685(7) 0.8900(2)
F4 F 0.5964(2) 0.36178(8) 1.2119(2)
C8B C 0.5830(3) 0.51670(14) 1.2439(3)
C9B C 0.5730(3) 0.58994(14) 1.2545(3)
C10B C 0.5104(3) 0.63031(12) 1.0979(4)
C11B C 0.4601(3) 0.59729(13) 0.9360(3)
C12B C 0.4681(3) 0.52059(12) 0.9195(3)
F1B F 0.6495(2) 0.47963(8) 1.39891(18)
F2B F 0.6232(2) 0.62418(9) 1.4128(2)
F3B F 0.5033(2) 0.70315(7) 1.1100(2)
F4B F 0.4036(2) 0.63822(8) 0.7881(2)
loop_
_geom_bond_atom_site_label_1
_geom_bond_atom_site_label_2
_geom_bond_site_symmetry_1
_geom_bond_site_symmetry_2
C1 H1 1_555 1_555
C2 C1 1_555 1_555
H2 C2 1_555 1_555
C3 C2 1_555 1_555
H3 C3 1_555 1_555
C4 C3 1_555 1_555
H4 C4 1_555 1_555
C5 C4 1_555 1_555
C6 C5 1_555 1_555
H5 C6 1_555 1_555
C7 C6 1_555 1_555
C8 C9 1_555 1_555
C9 C10 1_555 1_555
C10 C11 1_555 1_555
C11 C12 1_555 1_555
C12 C8B 1_555 1_555
F1 C8 1_555 1_555
F2 C9 1_555 1_555
F3 C10 1_555 1_555
F4 C11 1_555 1_555
C1B C7 1_555 1_555
H1B C1B 1_555 1_555
C2B C1B 1_555 1_555
H2B C2B 1_555 1_555
C3B C2B 1_555 1_555
H3B C3B 1_555 1_555
C4B C3B 1_555 1_555
H4B C4B 1_555 1_555
C5B C7 1_555 1_555
C6B C5B 1_555 1_555
H5B C6B 1_555 1_555
C7B C1 1_555 1_555
C8B C9B 1_555 1_555
C9B C10B 1_555 1_555
C10B C11B 1_555 1_555
C11B C12B 1_555 1_555
C12B C8 1_555 1_555
F1B C8B 1_555 1_555
F2B C9B 1_555 1_555
F3B C10B 1_555 1_555
F4B C11B 1_555 1_555
C5 C7B 1_555 1_555
C12 C12B 1_555 1_555
C4B C5B 1_555 1_555
C6B C7B 1_555 1_555

#END
