
#######################################################################
#
#                 Cambridge Crystallographic Data Centre
#                                CCDC 
#
#######################################################################
#
# If this CIF has been generated from an entry in the Cambridge 
# Structural Database, then it will include bibliographic, chemical, 
# crystal, experimental, refinement or atomic coordinate data resulting 
# from the CCDC's data processing and validation procedures.
#
#######################################################################

data_ECUVIH
_chemical_formula_moiety         'C10 F8,C16 H10'
_chemical_name_systematic        'Perfluoronaphthalene pyrene'
_symmetry_cell_setting           triclinic
_symmetry_space_group_name_H-M   'P -1'
_symmetry_Int_Tables_number      2
_space_group_name_Hall           '-P 1'
loop_
_symmetry_equiv_pos_site_id
_symmetry_equiv_pos_as_xyz
1 x,y,z
2 -x,-y,-z
_cell_length_a                   6.725(1)
_cell_length_b                   8.864(1)
_cell_length_c                   9.488(1)
_cell_angle_alpha                107.51(1)
_cell_angle_beta                 105.23(1)
_cell_angle_gamma                106.82(1)
_cell_volume                     476.902
_exptl_crystal_colour            colorless
_exptl_crystal_description       needle
_chemical_melting_point          '248-250 deg.C'
_cell_formula_units_Z            1
_exptl_crystal_recrystallization_method dichloromethane
loop_
_atom_site_label
_atom_site_type_symbol
_atom_site_fract_x
_atom_site_fract_y
_atom_site_fract_z
F1 F 0.3891(2) 0.14979(16) 0.51281(15)
F2 F 0.2314(2) 0.02898(16) 0.19297(16)
F3 F 0.2519(2) 0.24496(17) 0.04342(14)
F4 F 0.4302(2) 0.58963(17) 0.21227(15)
C1 C 0.4016(3) 0.2628(3) 0.4434(3)
C2 C 0.3216(4) 0.2002(3) 0.2822(3)
C3 C 0.3320(4) 0.3123(3) 0.2038(3)
C4 C 0.4211(3) 0.4856(3) 0.2916(3)
C5 C 0.4943(3) 0.4421(3) 0.5398(3)
C5A C 0.5057(3) 0.5579(3) 0.4602(3)
C1A C 0.5984(3) 0.7372(3) 0.5566(3)
F1A F 0.6109(2) 0.85021(16) 0.48719(15)
C2A C 0.6784(4) 0.7998(3) 0.7178(3)
F2A F 0.7686(2) 0.97102(16) 0.80703(16)
C3A C 0.6680(4) 0.6877(3) 0.7962(3)
F3A F 0.7481(2) 0.75504(17) 0.95658(14)
C4A C 0.5789(3) 0.5144(3) 0.7084(3)
F4A F 0.5698(2) 0.41037(17) 0.78773(15)
C6 C 0.7820(4) 0.3044(3) 0.0795(3)
H1 H 0.721(4) 0.249(3) -0.031(3)
C7 C 0.7809(4) 0.2024(3) 0.1654(3)
H2 H 0.719(4) 0.081(3) 0.113(3)
C8 C 0.8657(3) 0.2765(3) 0.3327(3)
C9 C 0.9554(3) 0.4598(3) 0.4147(3)
C10 C 0.9572(3) 0.5639(3) 0.3245(3)
C11 C 0.8684(4) 0.4828(3) 0.1574(3)
H3 H 0.869(4) 0.552(3) 0.095(3)
C12 C 0.8677(4) 0.1760(3) 0.4274(3)
H4 H 0.807(4) 0.055(3) 0.373(3)
C13 C 1.0497(4) 0.7490(3) 0.4115(3)
H5 H 1.050(4) 0.812(3) 0.351(3)
C9A C 1.0446(3) 0.5402(3) 0.5853(3)
C8A C 1.1343(3) 0.7235(3) 0.6673(3)
C7A C 1.2191(4) 0.7976(3) 0.8346(3)
C6A C 1.2180(4) 0.6956(3) 0.9205(3)
H1A H 1.279(4) 0.751(3) 1.031(3)
C11A C 1.1316(4) 0.5172(3) 0.8426(3)
C10A C 1.0428(3) 0.4361(3) 0.6755(3)
C13A C 0.9503(4) 0.2510(3) 0.5885(3)
H5A H 0.950(4) 0.188(3) 0.649(3)
H3A H 1.131(4) 0.448(3) 0.905(3)
H2A H 1.281(4) 0.919(3) 0.887(3)
C12A C 1.1323(4) 0.8240(3) 0.5726(3)
H4A H 1.193(4) 0.945(3) 0.627(3)
loop_
_geom_bond_atom_site_label_1
_geom_bond_atom_site_label_2
_geom_bond_site_symmetry_1
_geom_bond_site_symmetry_2
F1 C1 1_555 1_555
F2 C2 1_555 1_555
F3 C3 1_555 1_555
F4 C4 1_555 1_555
C1 C2 1_555 1_555
C2 C3 1_555 1_555
C3 C4 1_555 1_555
C4 C5A 1_555 1_555
C5 C1 1_555 1_555
C6 H1 1_555 1_555
C7 C6 1_555 1_555
H2 C7 1_555 1_555
C8 C7 1_555 1_555
C9 C8 1_555 1_555
C10 C9 1_555 1_555
C11 C6 1_555 1_555
H3 C11 1_555 1_555
C12 C8 1_555 1_555
H4 C12 1_555 1_555
C13 C10 1_555 1_555
H5 C13 1_555 1_555
C5A C5 1_555 1_555
C1A C5A 1_555 1_555
F1A C1A 1_555 1_555
C2A C1A 1_555 1_555
F2A C2A 1_555 1_555
C3A C2A 1_555 1_555
F3A C3A 1_555 1_555
C4A C5 1_555 1_555
F4A C4A 1_555 1_555
C9A C9 1_555 1_555
C8A C9A 1_555 1_555
C7A C8A 1_555 1_555
C6A C7A 1_555 1_555
H1A C6A 1_555 1_555
C11A C6A 1_555 1_555
C10A C9A 1_555 1_555
C13A C12 1_555 1_555
H5A C13A 1_555 1_555
H3A C11A 1_555 1_555
H2A C7A 1_555 1_555
C12A C13 1_555 1_555
H4A C12A 1_555 1_555
C10 C11 1_555 1_555
C3A C4A 1_555 1_555
C8A C12A 1_555 1_555
C11A C10A 1_555 1_555
C10A C13A 1_555 1_555

#END
