
#######################################################################
#
#                 Cambridge Crystallographic Data Centre
#                                CCDC 
#
#######################################################################
#
# If this CIF has been generated from an entry in the Cambridge 
# Structural Database, then it will include bibliographic, chemical, 
# crystal, experimental, refinement or atomic coordinate data resulting 
# from the CCDC's data processing and validation procedures.
#
#######################################################################

data_ECUVON
_chemical_formula_moiety         'C10 F8,C18 H12'
_chemical_name_systematic        'Perfluoronaphthalene triphenylene'
_symmetry_cell_setting           triclinic
_symmetry_space_group_name_H-M   'P -1'
_symmetry_Int_Tables_number      2
_space_group_name_Hall           '-P 1'
loop_
_symmetry_equiv_pos_site_id
_symmetry_equiv_pos_as_xyz
1 x,y,z
2 -x,-y,-z
_cell_length_a                   6.732(1)
_cell_length_b                   9.365(2)
_cell_length_c                   16.550(4)
_cell_angle_alpha                86.44(1)
_cell_angle_beta                 87.30(1)
_cell_angle_gamma                77.30(1)
_cell_volume                     1015.31
_exptl_crystal_colour            colorless
_exptl_crystal_description       prism
_chemical_melting_point          '205-208 deg.C'
_cell_formula_units_Z            2
_exptl_crystal_recrystallization_method dichloromethane
loop_
_atom_site_label
_atom_site_type_symbol
_atom_site_fract_x
_atom_site_fract_y
_atom_site_fract_z
C1 C 0.1283(3) 0.55149(18) 0.75611(12)
C2 C 0.1285(3) 0.54639(19) 0.83830(12)
C3 C 0.1713(3) 0.4119(2) 0.88258(11)
C4 C 0.2115(3) 0.28422(19) 0.84408(10)
C5 C 0.2583(2) 0.15363(18) 0.71596(10)
C6 C 0.2660(3) 0.1574(2) 0.63350(11)
C7 C 0.2269(3) 0.2915(2) 0.58948(10)
C8 C 0.1813(3) 0.4193(2) 0.62767(11)
C9 C 0.1728(2) 0.42163(18) 0.71321(10)
C10 C 0.2142(2) 0.28385(18) 0.75860(10)
F1 F 0.08688(16) 0.68374(11) 0.71582(7)
F2 F 0.08858(17) 0.67044(12) 0.87873(7)
F3 F 0.17545(17) 0.41032(13) 0.96389(6)
F4 F 0.25105(16) 0.15750(11) 0.88890(6)
F5 F 0.29542(16) 0.02217(10) 0.75653(6)
F6 F 0.31068(16) 0.03248(12) 0.59401(6)
F7 F 0.23653(17) 0.29267(14) 0.50795(6)
F8 F 0.14416(18) 0.54640(12) 0.58225(6)
C11 C 0.2965(3) 0.7396(2) 0.06281(11)
H1 H 0.322(3) 0.657(2) 0.0314(11)
C12 C 0.2599(3) 0.8751(2) 0.02325(12)
H2 H 0.263(3) 0.886(2) -0.0359(12)
C13 C 0.2150(3) 1.0008(2) 0.06779(12)
H3 H 0.192(3) 1.097(2) 0.0402(11)
C14 C 0.2067(3) 0.9879(2) 0.15073(11)
H4 H 0.173(3) 1.078(2) 0.1802(12)
C15 C 0.1946(3) 0.9618(2) 0.32896(11)
H5 H 0.164(3) 1.054(2) 0.3039(11)
C16 C 0.1932(3) 0.9499(2) 0.41209(11)
H6 H 0.161(3) 1.034(2) 0.4421(11)
C17 C 0.2372(3) 0.8128(2) 0.45248(11)
H7 H 0.237(3) 0.800(2) 0.5114(12)
C18 C 0.2819(3) 0.6885(2) 0.40865(11)
H8 H 0.308(3) 0.601(2) 0.4368(11)
C19 C 0.3795(3) 0.42258(19) 0.31533(12)
H9 H 0.383(3) 0.4146(19) 0.3748(11)
C20 C 0.4269(3) 0.2983(2) 0.27202(13)
H10 H 0.460(3) 0.204(2) 0.3012(12)
C21 C 0.4275(3) 0.3104(2) 0.18812(13)
H11 H 0.457(3) 0.227(2) 0.1571(12)
C22 C 0.3817(3) 0.4465(2) 0.14829(12)
H12 H 0.387(3) 0.452(2) 0.0923(12)
C23 C 0.2917(2) 0.72208(19) 0.14830(10)
C24 C 0.2457(2) 0.84947(18) 0.19327(10)
C25 C 0.2407(2) 0.83661(17) 0.28219(10)
C26 C 0.2851(2) 0.69667(18) 0.32315(10)
C27 C 0.3332(2) 0.56413(18) 0.27658(10)
C28 C 0.3352(2) 0.57641(18) 0.19097(10)
loop_
_geom_bond_atom_site_label_1
_geom_bond_atom_site_label_2
_geom_bond_site_symmetry_1
_geom_bond_site_symmetry_2
C1 C2 1_555 1_555
C2 C3 1_555 1_555
C3 C4 1_555 1_555
C4 C10 1_555 1_555
C5 C6 1_555 1_555
C6 C7 1_555 1_555
C7 C8 1_555 1_555
C8 C9 1_555 1_555
C9 C1 1_555 1_555
C10 C5 1_555 1_555
F1 C1 1_555 1_555
F2 C2 1_555 1_555
F3 C3 1_555 1_555
F4 C4 1_555 1_555
F5 C5 1_555 1_555
F6 C6 1_555 1_555
F7 C7 1_555 1_555
F8 C8 1_555 1_555
C11 H1 1_555 1_555
C12 C11 1_555 1_555
H2 C12 1_555 1_555
C13 C12 1_555 1_555
H3 C13 1_555 1_555
C14 C13 1_555 1_555
H4 C14 1_555 1_555
C15 H5 1_555 1_555
C16 C15 1_555 1_555
H6 C16 1_555 1_555
C17 C16 1_555 1_555
H7 C17 1_555 1_555
C18 C17 1_555 1_555
H8 C18 1_555 1_555
C19 H9 1_555 1_555
C20 C19 1_555 1_555
H10 C20 1_555 1_555
C21 C20 1_555 1_555
H11 C21 1_555 1_555
C22 C21 1_555 1_555
H12 C22 1_555 1_555
C23 C11 1_555 1_555
C24 C14 1_555 1_555
C25 C15 1_555 1_555
C26 C18 1_555 1_555
C27 C19 1_555 1_555
C28 C22 1_555 1_555
C9 C10 1_555 1_555
C23 C24 1_555 1_555
C23 C28 1_555 1_555
C24 C25 1_555 1_555
C25 C26 1_555 1_555
C26 C27 1_555 1_555
C27 C28 1_555 1_555

#END
