
#######################################################################
#
#                 Cambridge Crystallographic Data Centre
#                                CCDC 
#
#######################################################################
#
# If this CIF has been generated from an entry in the Cambridge 
# Structural Database, then it will include bibliographic, chemical, 
# crystal, experimental, refinement or atomic coordinate data resulting 
# from the CCDC's data processing and validation procedures.
#
#######################################################################

data_ECUWEH
_chemical_formula_moiety         'C18 H14 Cl1 N1 O3 S1'
_chemical_name_systematic        
2-(2-chloro-5-((4-methylphenyl)sulfonyl)phenoxy)pyridine
_symmetry_cell_setting           monoclinic
_symmetry_space_group_name_H-M   'P 21'
_symmetry_Int_Tables_number      4
_space_group_name_Hall           'P 2yb'
loop_
_symmetry_equiv_pos_site_id
_symmetry_equiv_pos_as_xyz
1 x,y,z
2 -x,1/2+y,-z
_cell_length_a                   10.085(2)
_cell_length_b                   7.2874(15)
_cell_length_c                   11.860(2)
_cell_angle_alpha                90
_cell_angle_beta                 107.96(3)
_cell_angle_gamma                90
_cell_volume                     829.159
_exptl_crystal_colour            colorless
_exptl_crystal_description       block
_cell_formula_units_Z            2
loop_
_atom_site_label
_atom_site_type_symbol
_atom_site_fract_x
_atom_site_fract_y
_atom_site_fract_z
S1 S 0.33720(6) 0.17477(9) 0.09604(6)
Cl1 Cl 0.69824(8) -0.38410(15) 0.46341(8)
C1 C 0.4688(3) -0.1543(4) 0.1617(2)
H1 H 0.4329 -0.1875 0.0823
C2 C 0.1699(2) 0.1642(4) 0.11420(19)
C3 C 0.6012(2) -0.2278(5) 0.3610(2)
N1 N 0.7716(3) 0.1702(5) 0.6678(2)
C4 C 0.4407(2) 0.0171(4) 0.1990(2)
C5 C 0.1509(3) 0.2382(4) 0.2151(2)
H2 H 0.2257 0.2874 0.2744
O1 O 0.3267(2) 0.1099(4) -0.02075(17)
C6 C 0.5506(3) -0.2757(4) 0.2433(2)
H3 H 0.5716 -0.3902 0.2185
C7 C 0.8250(2) 0.0904(5) 0.49084(19)
H4 H 0.8012 0.0339 0.4170
C8 C 0.7433(2) 0.0866(4) 0.5566(2)
C9 C -0.0943(3) 0.1646(5) 0.1408(2)
C10 C 0.4953(2) 0.0673(4) 0.3191(2)
H5 H 0.4779 0.1831 0.3443
C11 C 0.5736(2) -0.0553(5) 0.3971(2)
O2 O 0.62004(18) -0.0091(4) 0.51752(15)
C12 C -0.0713(3) 0.0940(4) 0.0395(2)
H6 H -0.1463 0.0469 -0.0206
C13 C 0.0583(3) 0.0920(4) 0.0255(2)
H7 H 0.0713 0.0427 -0.0427
C14 C 0.0179(3) 0.2380(5) 0.2264(2)
H8 H 0.0044 0.2890 0.2939
C15 C -0.2366(3) 0.1653(7) 0.1561(4)
H9 H -0.3022 0.1099 0.0881
H10 H -0.2643 0.2894 0.1642
H11 H -0.2344 0.0969 0.2259
C16 C 0.8961(4) 0.2586(5) 0.7097(3)
H12 H 0.9210 0.3138 0.7840
C17 C 0.9458(3) 0.1807(7) 0.5357(3)
H13 H 1.0067 0.1849 0.4907
O3 O 0.3915(2) 0.3543(4) 0.1323(2)
C18 C 0.9848(4) 0.2665(7) 0.6427(3)
H14 H 1.0692 0.3287 0.6696
loop_
_geom_bond_atom_site_label_1
_geom_bond_atom_site_label_2
_geom_bond_site_symmetry_1
_geom_bond_site_symmetry_2
S1 C2 1_555 1_555
Cl1 C3 1_555 1_555
C1 H1 1_555 1_555
C2 C5 1_555 1_555
C3 C6 1_555 1_555
N1 C8 1_555 1_555
C4 S1 1_555 1_555
C5 H2 1_555 1_555
O1 S1 1_555 1_555
C6 C1 1_555 1_555
H3 C6 1_555 1_555
C7 H4 1_555 1_555
C8 C7 1_555 1_555
C9 C12 1_555 1_555
C10 C4 1_555 1_555
H5 C10 1_555 1_555
C11 C3 1_555 1_555
O2 C8 1_555 1_555
C12 H6 1_555 1_555
C13 C2 1_555 1_555
H7 C13 1_555 1_555
C14 C5 1_555 1_555
H8 C14 1_555 1_555
C15 C9 1_555 1_555
H9 C15 1_555 1_555
H10 C15 1_555 1_555
H11 C15 1_555 1_555
C16 N1 1_555 1_555
H12 C16 1_555 1_555
C17 C7 1_555 1_555
H13 C17 1_555 1_555
O3 S1 1_555 1_555
C18 C16 1_555 1_555
H14 C18 1_555 1_555
C1 C4 1_555 1_555
C9 C14 1_555 1_555
C10 C11 1_555 1_555
C11 O2 1_555 1_555
C12 C13 1_555 1_555
C17 C18 1_555 1_555

#END
