
#######################################################################
#
#                 Cambridge Crystallographic Data Centre
#                                CCDC 
#
#######################################################################
#
# If this CIF has been generated from an entry in the Cambridge 
# Structural Database, then it will include bibliographic, chemical, 
# crystal, experimental, refinement or atomic coordinate data resulting 
# from the CCDC's data processing and validation procedures.
#
#######################################################################

data_ECUXIM
_chemical_formula_moiety         'C39 H40 N4 O6,4(H2 O1)'
_chemical_name_systematic        
"N-{12-[3-(9'-hydroxy-1-methoxy-2-oxo-1,2,3a',4',8',8a'-hexahydro-3'H,6'H-spiro[indole-3,7'-[3,6]methanooxepino[4,3-b]pyrrol]-2'-yl)but-2-en-1-ylidene]-6,7,8,9,10,11-hexahydro-6,9-(epoxymethano)-8,11a-methanocycloocta[b]indol-10-yl}-N-methylformamide tetrahydrate"
_symmetry_cell_setting           monoclinic
_symmetry_space_group_name_H-M   'P 21'
_symmetry_Int_Tables_number      4
_space_group_name_Hall           'P 2yb'
loop_
_symmetry_equiv_pos_site_id
_symmetry_equiv_pos_as_xyz
1 x,y,z
2 -x,1/2+y,-z
_cell_length_a                   12.6396(3)
_cell_length_b                   20.1301(4)
_cell_length_c                   14.1840(3)
_cell_angle_alpha                90
_cell_angle_beta                 91.5813(17)
_cell_angle_gamma                90
_cell_volume                     3607.55
_exptl_crystal_colour            colorless
_exptl_crystal_description       block
_cell_formula_units_Z            4
loop_
_atom_site_label
_atom_site_type_symbol
_atom_site_fract_x
_atom_site_fract_y
_atom_site_fract_z
O1 O 0.1873(3) 0.64545(18) 1.0427(3)
O2 O 0.3769(3) 0.56579(18) 0.8072(3)
O3 O 0.0613(3) 0.56404(19) 0.9209(3)
H1 H 0.038194 0.592402 0.884361
O4 O 0.4989(3) 0.6695(2) 0.7359(3)
O5 O -0.0845(3) 0.1873(2) 0.7176(3)
N1 N 0.3930(4) 0.4866(2) 0.9895(3)
N2 N 0.4505(4) 0.6695(2) 0.8214(3)
C1 C 0.3073(4) 0.4699(2) 0.9464(4)
N3 N -0.0606(4) 0.4055(3) 0.6363(4)
N4 N 0.1738(4) 0.1617(3) 0.6578(4)
C2 C 0.3882(4) 0.6178(2) 0.8509(3)
C3 C 0.3056(4) 0.4235(2) 0.8652(4)
O6 O -0.1107(5) 0.4064(3) 0.4810(4)
C4 C 0.4396(4) 0.7269(2) 0.8765(4)
C5 C 0.1996(4) 0.3522(3) 0.7537(4)
H2 H 0.255035 0.349660 0.712045
C6 C 0.2140(4) 0.3968(2) 0.8351(4)
H3 H 0.154095 0.407250 0.868623
C7 C 0.2094(4) 0.5037(2) 0.9821(3)
H4 H 0.151856 0.471668 0.989658
C8 C 0.1735(4) 0.5620(2) 0.9169(4)
H5 H 0.194484 0.553210 0.852103
C9 C 0.2353(5) 0.2003(3) 0.5950(4)
C10 C 0.1146(4) 0.3153(3) 0.7341(4)
C11 C 0.3508(4) 0.7619(3) 1.0143(4)
H6 H 0.306512 0.753797 1.064339
C12 C 0.3960(5) 0.8242(3) 1.0026(4)
H7 H 0.380636 0.857894 1.044875
C13 C 0.1938(5) 0.5928(3) 1.1113(4)
H8 H 0.122612 0.581070 1.129092
H9 H 0.230900 0.609302 1.167305
C14 C 0.2496(5) 0.5301(3) 1.0782(3)
H10 H 0.239049 0.495211 1.125291
C15 C 0.4040(4) 0.6058(2) 1.0317(4)
H11 H 0.478080 0.603196 1.016052
H12 H 0.399133 0.635269 1.085511
C16 C 0.1990(4) 0.2642(3) 0.5867(4)
C17 C 0.1004(5) 0.2001(3) 0.6854(4)
C18 C 0.2206(4) 0.6294(3) 0.9509(3)
H13 H 0.189209 0.663197 0.909002
C19 C 0.0205(5) 0.1829(3) 0.7590(4)
H14 H 0.033389 0.137680 0.782237
C20 C 0.4876(5) 0.7877(3) 0.8636(4)
H15 H 0.533181 0.795356 0.814325
C21 C 0.3727(4) 0.7118(2) 0.9500(4)
C22 C 0.3423(4) 0.6389(2) 0.9461(3)
C23 C 0.0226(5) 0.3037(3) 0.7991(4)
H16 H 0.025373 0.336089 0.850613
C24 C 0.3688(4) 0.5365(2) 1.0627(4)
H17 H 0.407167 0.524672 1.121306
C25 C 0.4635(5) 0.8374(3) 0.9293(4)
H18 H 0.493041 0.879501 0.923696
C26 C 0.3695(5) 0.2222(3) 0.4857(5)
H19 H 0.427476 0.208602 0.451632
C27 C 0.1028(4) 0.2713(3) 0.6470(4)
C28 C -0.1444(5) 0.2421(3) 0.7506(4)
H20 H -0.162147 0.234013 0.815669
H21 H -0.210185 0.244731 0.713851
C29 C 0.0365(5) 0.2324(3) 0.8396(4)
H22 H 0.106758 0.227401 0.867945
H23 H -0.015002 0.224470 0.887819
C30 C 0.4107(4) 0.4083(3) 0.8230(4)
H24 H 0.442007 0.448708 0.800984
H25 H 0.400514 0.378205 0.771021
H26 H 0.456661 0.388325 0.869910
C31 C -0.0787(5) 0.3318(3) 0.6427(4)
H27 H -0.147531 0.323066 0.611659
C32 C 0.3334(5) 0.2869(3) 0.4763(4)
H28 H 0.367576 0.316123 0.436478
C33 C 0.3209(5) 0.1769(3) 0.5450(5)
H29 H 0.344460 0.133319 0.550810
C34 C 0.0030(5) 0.2930(3) 0.5876(4)
H30 H 0.025651 0.320190 0.535426
H31 H -0.030633 0.253609 0.561184
C35 C -0.0819(6) 0.4346(4) 0.5531(5)
H32 H -0.073812 0.480458 0.550097
C36 C 0.2463(5) 0.3086(3) 0.5259(4)
H33 H 0.220504 0.351576 0.518421
C37 C -0.0876(5) 0.3085(3) 0.7447(4)
H34 H -0.130279 0.341303 0.777547
C38 C -0.0305(6) 0.4484(3) 0.7139(5)
H35 H -0.076136 0.440483 0.765671
H36 H -0.036589 0.493881 0.694314
H37 H 0.041443 0.439259 0.733308
C39 C 0.6005(7) 0.6396(6) 0.7458(6)
H38 H 0.631797 0.636355 0.685072
H39 H 0.593513 0.595944 0.772240
H40 H 0.644841 0.666223 0.786801
O7 O 0.4250(3) 0.7050(2) 0.2342(3)
O8 O 0.3515(3) 0.58393(19) 0.3054(3)
O9 O 0.1887(3) 0.63794(18) 0.5728(3)
O10 O -0.1795(3) 0.2468(2) 0.2133(3)
N5 N 0.3985(4) 0.6928(2) 0.3260(3)
N6 N 0.3829(4) 0.4885(2) 0.4660(3)
O11 O 0.0462(3) 0.5770(2) 0.4532(3)
H41 H 0.010321 0.555774 0.414690
O12 O -0.1530(4) 0.4073(3) -0.0820(3)
N7 N -0.0879(4) 0.4342(2) 0.0654(3)
C40 C 0.3588(4) 0.6330(2) 0.3561(3)
C41 C 0.2923(4) 0.4759(2) 0.4277(4)
N8 N 0.0532(4) 0.1735(3) 0.1683(4)
C42 C 0.2815(4) 0.4367(2) 0.3406(4)
C43 C 0.1841(4) 0.4144(2) 0.3119(4)
H42 H 0.126608 0.429655 0.345319
C44 C 0.1615(4) 0.3694(3) 0.2347(4)
H43 H 0.217155 0.357944 0.196454
C45 C 0.0664(4) 0.3430(2) 0.2140(4)
C46 C 0.2081(4) 0.6318(2) 0.4748(4)
H44 H 0.172210 0.669550 0.444191
C47 C 0.1988(4) 0.5048(2) 0.4807(4)
H45 H 0.142608 0.471704 0.487355
C48 C 0.0038(5) 0.2283(3) 0.1892(4)
C49 C 0.3279(4) 0.6427(2) 0.4602(3)
C50 C 0.2521(5) 0.5209(3) 0.5766(4)
H46 H 0.247563 0.481378 0.616672
C51 C 0.3685(5) 0.5302(3) 0.5501(4)
H47 H 0.414118 0.513225 0.601642
C52 C 0.2147(5) 0.2872(3) 0.0334(4)
H48 H 0.216500 0.332654 0.022061
C53 C 0.3527(5) 0.7166(2) 0.4751(4)
C54 C 0.2880(5) 0.2447(3) -0.0068(4)
H49 H 0.340296 0.262272 -0.044324
C55 C 0.0464(4) 0.2901(3) 0.1397(4)
C56 C 0.4055(7) 0.8504(3) 0.4605(5)
H50 H 0.421390 0.895448 0.456503
C57 C -0.1165(4) 0.3677(3) 0.0995(4)
H51 H -0.184695 0.356765 0.068839
C58 C 0.2007(5) 0.5786(3) 0.6275(4)
H52 H 0.131430 0.564631 0.647544
H53 H 0.243028 0.588749 0.683721
C59 C 0.4179(6) 0.8101(3) 0.3834(5)
H54 H 0.442972 0.826735 0.327045
C60 C 0.3916(4) 0.7439(3) 0.3931(4)
C61 C 0.1391(4) 0.2599(3) 0.0907(4)
C62 C 0.3996(5) 0.6027(2) 0.5298(4)
H55 H 0.470600 0.602583 0.505626
H56 H 0.402468 0.626401 0.589340
C63 C 0.1363(5) 0.1923(3) 0.1048(4)
C64 C 0.1552(4) 0.5694(3) 0.4334(4)
H57 H 0.164696 0.567587 0.365129
C65 C -0.1344(5) 0.3652(3) 0.2061(4)
H58 H -0.163580 0.408308 0.224112
C66 C -0.1128(5) 0.4473(3) -0.0260(4)
H59 H -0.098491 0.489752 -0.048305
C67 C -0.2173(5) 0.3130(3) 0.2271(4)
H60 H -0.238694 0.317888 0.291899
H61 H -0.279155 0.320309 0.186459
C68 C 0.3428(5) 0.7575(3) 0.5522(5)
H62 H 0.318802 0.740720 0.608845
C69 C 0.3811(5) 0.4234(3) 0.2892(4)
H63 H 0.411951 0.464795 0.270427
H64 H 0.365195 0.397020 0.234217
H65 H 0.430218 0.399939 0.329857
C70 C 0.3696(6) 0.8245(3) 0.5439(6)
H66 H 0.363053 0.852265 0.595824
C71 C -0.0371(5) 0.3158(3) 0.0646(4)
H67 H 0.000610 0.334946 0.012469
H68 H -0.076590 0.277937 0.040156
C72 C -0.0487(5) 0.2897(3) 0.3287(4)
H69 H -0.103647 0.296693 0.374033
H70 H 0.016472 0.278555 0.362800
C73 C -0.0805(5) 0.2329(3) 0.2603(4)
H71 H -0.085118 0.190952 0.294995
C74 C 0.2841(5) 0.1767(3) 0.0082(6)
H72 H 0.332963 0.149170 -0.020235
C75 C -0.0332(4) 0.3532(3) 0.2697(4)
H73 H -0.022860 0.391135 0.312292
C76 C -0.0423(6) 0.4860(3) 0.1258(5)
H74 H -0.092368 0.498449 0.172360
H75 H -0.025534 0.524014 0.088243
H76 H 0.021007 0.469599 0.156713
C77 C 0.5362(6) 0.6951(4) 0.2252(5)
H77 H 0.555578 0.704440 0.161569
H78 H 0.553626 0.649810 0.240269
H79 H 0.574149 0.724247 0.267627
C78 C 0.2084(5) 0.1493(3) 0.0651(6)
H80 H 0.205885 0.103818 0.076271
O13 O -0.3985(4) 0.5068(3) 0.4282(6)
O14 O -0.0985(6) 0.5089(5) 0.3517(5)
O15 O 0.7141(8) 0.5226(5) 0.6069(7)
O16 O 0.9037(11) 0.6147(7) 0.6118(7)
O17 O 0.7008(8) 0.4684(7) 0.7919(6)
O18 O -0.2780(16) 0.5440(9) 0.2722(13)
O19 O 0.6073(5) 0.5100(3) 0.9552(5)
O20 O 0.6534(12) 0.5039(9) 1.071(3)
loop_
_geom_bond_atom_site_label_1
_geom_bond_atom_site_label_2
_geom_bond_site_symmetry_1
_geom_bond_site_symmetry_2
O1 C13 1_555 1_555
O2 C2 1_555 1_555
O3 H1 1_555 1_555
O4 N2 1_555 1_555
O5 C19 1_555 1_555
N1 C1 1_555 1_555
N2 C2 1_555 1_555
C1 C3 1_555 1_555
N3 C31 1_555 1_555
N4 C9 1_555 1_555
C2 C22 1_555 1_555
C3 C6 1_555 1_555
O6 C35 1_555 1_555
C4 N2 1_555 1_555
C5 H2 1_555 1_555
C6 C5 1_555 1_555
H3 C6 1_555 1_555
C7 C1 1_555 1_555
H4 C7 1_555 1_555
C8 O3 1_555 1_555
H5 C8 1_555 1_555
C9 C16 1_555 1_555
C10 C5 1_555 1_555
C11 H6 1_555 1_555
C12 C11 1_555 1_555
H7 C12 1_555 1_555
C13 H8 1_555 1_555
H9 C13 1_555 1_555
C14 C7 1_555 1_555
H10 C14 1_555 1_555
C15 H11 1_555 1_555
H12 C15 1_555 1_555
C16 C27 1_555 1_555
C17 N4 1_555 1_555
C18 O1 1_555 1_555
H13 C18 1_555 1_555
C19 C17 1_555 1_555
H14 C19 1_555 1_555
C20 C4 1_555 1_555
H15 C20 1_555 1_555
C21 C4 1_555 1_555
C22 C15 1_555 1_555
C23 C10 1_555 1_555
H16 C23 1_555 1_555
C24 N1 1_555 1_555
H17 C24 1_555 1_555
C25 C12 1_555 1_555
H18 C25 1_555 1_555
C26 H19 1_555 1_555
C27 C10 1_555 1_555
C28 O5 1_555 1_555
H20 C28 1_555 1_555
H21 C28 1_555 1_555
C29 C19 1_555 1_555
H22 C29 1_555 1_555
H23 C29 1_555 1_555
C30 C3 1_555 1_555
H24 C30 1_555 1_555
H25 C30 1_555 1_555
H26 C30 1_555 1_555
C31 H27 1_555 1_555
C32 C26 1_555 1_555
H28 C32 1_555 1_555
C33 C9 1_555 1_555
H29 C33 1_555 1_555
C34 C27 1_555 1_555
H30 C34 1_555 1_555
H31 C34 1_555 1_555
C35 N3 1_555 1_555
H32 C35 1_555 1_555
C36 C16 1_555 1_555
H33 C36 1_555 1_555
C37 C23 1_555 1_555
H34 C37 1_555 1_555
C38 N3 1_555 1_555
H35 C38 1_555 1_555
H36 C38 1_555 1_555
H37 C38 1_555 1_555
C39 O4 1_555 1_555
H38 C39 1_555 1_555
H39 C39 1_555 1_555
H40 C39 1_555 1_555
O7 N5 1_555 1_555
O8 C40 1_555 1_555
O9 C46 1_555 1_555
O10 C67 1_555 1_555
N5 C40 1_555 1_555
N6 C41 1_555 1_555
O11 H41 1_555 1_555
O12 C66 1_555 1_555
N7 C57 1_555 1_555
C40 C49 1_555 1_555
C41 C42 1_555 1_555
N8 C48 1_555 1_555
C42 C43 1_555 1_555
C43 H42 1_555 1_555
C44 C43 1_555 1_555
H43 C44 1_555 1_555
C45 C44 1_555 1_555
C46 H44 1_555 1_555
C47 C41 1_555 1_555
H45 C47 1_555 1_555
C48 C55 1_555 1_555
C49 C46 1_555 1_555
C50 C47 1_555 1_555
H46 C50 1_555 1_555
C51 N6 1_555 1_555
H47 C51 1_555 1_555
C52 H48 1_555 1_555
C53 C49 1_555 1_555
C54 C52 1_555 1_555
H49 C54 1_555 1_555
C55 C45 1_555 1_555
C56 H50 1_555 1_555
C57 H51 1_555 1_555
C58 O9 1_555 1_555
H52 C58 1_555 1_555
H53 C58 1_555 1_555
C59 C56 1_555 1_555
H54 C59 1_555 1_555
C60 N5 1_555 1_555
C61 C52 1_555 1_555
C62 C49 1_555 1_555
H55 C62 1_555 1_555
H56 C62 1_555 1_555
C63 N8 1_555 1_555
C64 O11 1_555 1_555
H57 C64 1_555 1_555
C65 C57 1_555 1_555
H58 C65 1_555 1_555
C66 N7 1_555 1_555
H59 C66 1_555 1_555
C67 C65 1_555 1_555
H60 C67 1_555 1_555
H61 C67 1_555 1_555
C68 C53 1_555 1_555
H62 C68 1_555 1_555
C69 C42 1_555 1_555
H63 C69 1_555 1_555
H64 C69 1_555 1_555
H65 C69 1_555 1_555
C70 C56 1_555 1_555
H66 C70 1_555 1_555
C71 C55 1_555 1_555
H67 C71 1_555 1_555
H68 C71 1_555 1_555
C72 H69 1_555 1_555
H70 C72 1_555 1_555
C73 O10 1_555 1_555
H71 C73 1_555 1_555
C74 C54 1_555 1_555
H72 C74 1_555 1_555
C75 C45 1_555 1_555
H73 C75 1_555 1_555
C76 N7 1_555 1_555
H74 C76 1_555 1_555
H75 C76 1_555 1_555
H76 C76 1_555 1_555
C77 O7 1_555 1_555
H77 C77 1_555 1_555
H78 C77 1_555 1_555
H79 C77 1_555 1_555
C78 C63 1_555 1_555
H80 C78 1_555 1_555
C7 C8 1_555 1_555
C8 C18 1_555 1_555
C11 C21 1_555 1_555
C13 C14 1_555 1_555
C14 C24 1_555 1_555
C15 C24 1_555 1_555
C17 C27 1_555 1_555
C18 C22 1_555 1_555
C20 C25 1_555 1_555
C21 C22 1_555 1_555
C23 C29 1_555 1_555
C26 C33 1_555 1_555
C28 C37 1_555 1_555
C31 C34 1_555 1_555
C31 C37 1_555 1_555
C32 C36 1_555 1_555
C46 C64 1_555 1_555
C47 C64 1_555 1_555
C48 C73 1_555 1_555
C50 C51 1_555 1_555
C50 C58 1_555 1_555
C51 C62 1_555 1_555
C53 C60 1_555 1_555
C55 C61 1_555 1_555
C57 C71 1_555 1_555
C59 C60 1_555 1_555
C61 C63 1_555 1_555
C65 C75 1_555 1_555
C68 C70 1_555 1_555
C72 C73 1_555 1_555
C72 C75 1_555 1_555
C74 C78 1_555 1_555

#END
