
#######################################################################
#
#                 Cambridge Crystallographic Data Centre
#                                CCDC 
#
#######################################################################
#
# If this CIF has been generated from an entry in the Cambridge 
# Structural Database, then it will include bibliographic, chemical, 
# crystal, experimental, refinement or atomic coordinate data resulting 
# from the CCDC's data processing and validation procedures.
#
#######################################################################

data_ECUYIN
_chemical_formula_moiety         'C10 H19 B10 N1 O2'
_chemical_name_systematic        
3-(methoxycarbonyl)-2-methyl-1-(pyridin-2-yl)-1,2-dicarba-closo-dodecaborane(9)
_symmetry_cell_setting           triclinic
_symmetry_space_group_name_H-M   'P -1'
_symmetry_Int_Tables_number      2
_space_group_name_Hall           '-P 1'
loop_
_symmetry_equiv_pos_site_id
_symmetry_equiv_pos_as_xyz
1 x,y,z
2 -x,-y,-z
_cell_length_a                   7.7080(14)
_cell_length_b                   7.8648(14)
_cell_length_c                   14.246(3)
_cell_angle_alpha                105.133(2)
_cell_angle_beta                 90.390(3)
_cell_angle_gamma                110.375(3)
_cell_volume                     776.944
_exptl_crystal_colour            white
_exptl_crystal_description       block
_cell_formula_units_Z            2
loop_
_atom_site_label
_atom_site_type_symbol
_atom_site_fract_x
_atom_site_fract_y
_atom_site_fract_z
O1 O 0.65478(15) 0.38549(14) 0.86663(7)
O2 O 0.67596(19) 0.12825(17) 0.89988(10)
N1 N 0.57133(19) 0.37572(17) 0.57937(9)
C1 C 0.6204(2) 0.29254(19) 0.64022(10)
C2 C 0.8529(2) 0.61809(19) 0.76983(10)
C3 C 0.5083(2) 0.1173(2) 0.64932(11)
H1 H 0.545536 0.064121 0.693159
C4 C 0.8106(2) 0.39903(19) 0.69679(10)
C5 C 0.7008(2) 0.6990(2) 0.77532(11)
H2 H 0.677123 0.718606 0.713493
H3 H 0.739267 0.817354 0.825384
H4 H 0.589366 0.612374 0.790590
C6 C 0.5946(2) 0.2342(2) 0.90445(10)
C7 C 0.2879(2) 0.1073(2) 0.52802(11)
H5 H 0.175711 0.046399 0.487998
C8 C 0.3399(2) 0.0241(2) 0.59147(11)
H6 H 0.262257 -0.094089 0.595376
C9 C 0.4066(2) 0.2837(2) 0.52528(12)
H7 H 0.369984 0.341398 0.483631
C10 C 0.4187(2) 0.2225(2) 0.94977(12)
H8 H 0.375038 0.111123 0.971971
H9 H 0.326332 0.216636 0.902270
H10 H 0.441512 0.332264 1.004289
B1 B 1.0080(2) 0.3828(2) 0.64847(12)
B2 B 0.9994(2) 0.6640(2) 0.87134(12)
B3 B 0.9257(2) 0.2876(2) 0.74722(12)
B4 B 0.8225(2) 0.4361(2) 0.82464(12)
B5 B 0.9566(2) 0.5899(2) 0.66233(12)
B6 B 1.1839(2) 0.6082(2) 0.69785(12)
B7 B 1.0801(2) 0.7564(2) 0.77268(12)
B8 B 1.1649(2) 0.4212(2) 0.75033(12)
B9 B 1.0511(2) 0.4559(2) 0.85851(12)
B10 B 1.2101(3) 0.6538(2) 0.82704(12)
H11 H 1.301(3) 0.667(3) 0.6559(15)
H12 H 1.112(3) 0.912(3) 0.7791(15)
H13 H 0.974(3) 0.755(3) 0.9387(14)
H14 H 0.861(3) 0.137(3) 0.7334(13)
H15 H 1.270(3) 0.353(3) 0.7452(14)
H16 H 0.903(3) 0.629(3) 0.6073(16)
H17 H 1.071(3) 0.408(3) 0.9227(16)
H18 H 0.989(3) 0.293(3) 0.5716(14)
H19 H 1.343(3) 0.736(3) 0.8724(16)
loop_
_geom_bond_atom_site_label_1
_geom_bond_atom_site_label_2
_geom_bond_site_symmetry_1
_geom_bond_site_symmetry_2
O1 C6 1_555 1_555
O2 C6 1_555 1_555
N1 C1 1_555 1_555
C1 C3 1_555 1_555
C2 C4 1_555 1_555
C3 H1 1_555 1_555
C4 C1 1_555 1_555
C5 C2 1_555 1_555
H2 C5 1_555 1_555
H3 C5 1_555 1_555
H4 C5 1_555 1_555
C6 C10 1_555 1_555
C7 H5 1_555 1_555
C8 C3 1_555 1_555
H6 C8 1_555 1_555
C9 N1 1_555 1_555
H7 C9 1_555 1_555
C10 H8 1_555 1_555
H9 C10 1_555 1_555
H10 C10 1_555 1_555
B1 C4 1_555 1_555
B2 C2 1_555 1_555
B3 C4 1_555 1_555
B4 O1 1_555 1_555
B5 C2 1_555 1_555
B6 B1 1_555 1_555
B7 C2 1_555 1_555
B8 B1 1_555 1_555
B9 B2 1_555 1_555
B10 B2 1_555 1_555
H11 B6 1_555 1_555
H12 B7 1_555 1_555
H13 B2 1_555 1_555
H14 B3 1_555 1_555
H15 B8 1_555 1_555
H16 B5 1_555 1_555
H17 B9 1_555 1_555
H18 B1 1_555 1_555
H19 B10 1_555 1_555
C2 B4 1_555 1_555
C4 B4 1_555 1_555
C4 B5 1_555 1_555
C7 C8 1_555 1_555
C7 C9 1_555 1_555
B1 B3 1_555 1_555
B1 B5 1_555 1_555
B2 B4 1_555 1_555
B2 B7 1_555 1_555
B3 B4 1_555 1_555
B3 B8 1_555 1_555
B3 B9 1_555 1_555
B4 B9 1_555 1_555
B5 B6 1_555 1_555
B5 B7 1_555 1_555
B6 B7 1_555 1_555
B6 B8 1_555 1_555
B6 B10 1_555 1_555
B7 B10 1_555 1_555
B8 B9 1_555 1_555
B8 B10 1_555 1_555
B9 B10 1_555 1_555

#END
