
#######################################################################
#
#                 Cambridge Crystallographic Data Centre
#                                CCDC 
#
#######################################################################
#
# If this CIF has been generated from an entry in the Cambridge 
# Structural Database, then it will include bibliographic, chemical, 
# crystal, experimental, refinement or atomic coordinate data resulting 
# from the CCDC's data processing and validation procedures.
#
#######################################################################

data_ECUZAE
_chemical_formula_moiety         'C23 H42 N1 1+,Cl1 1-,2(H2 O1)'
_chemical_name_systematic        
'tetradecyl(dimethyl)benzylammonium chloride dihydrate'
_symmetry_cell_setting           monoclinic
_symmetry_space_group_name_H-M   'P 21/c'
_symmetry_Int_Tables_number      14
_space_group_name_Hall           '-P 2ybc'
loop_
_symmetry_equiv_pos_site_id
_symmetry_equiv_pos_as_xyz
1 x,y,z
2 -x,1/2+y,1/2-z
3 -x,-y,-z
4 x,1/2-y,1/2+z
_cell_length_a                   20.510(4)
_cell_length_b                   11.720(2)
_cell_length_c                   10.800(2)
_cell_angle_alpha                90.00
_cell_angle_beta                 90.60(3)
_cell_angle_gamma                90.00
_cell_volume                     2595.93
_chemical_melting_point          370.6deg.C(dec.)
_cell_formula_units_Z            4
loop_
_atom_site_label
_atom_site_type_symbol
_atom_site_fract_x
_atom_site_fract_y
_atom_site_fract_z
N1 N 0.10252(13) 0.4895(2) 0.1834(2)
C1 C 0.08726(16) 0.4012(3) 0.2840(3)
H1 H 0.0753 0.4413 0.3590
H2 H 0.0498 0.3567 0.2574
C2 C 0.14173(16) 0.3221(3) 0.3135(3)
C3 C 0.15456(16) 0.5697(3) 0.2314(3)
H3 H 0.1921 0.5246 0.2564
H4 H 0.1382 0.6070 0.3050
C4 C 0.1489(2) 0.2193(3) 0.2496(3)
H5 H 0.1187 0.2004 0.1881
C5 C 0.17744(18) 0.6615(3) 0.1420(3)
H6 H 0.1919 0.6262 0.0659
H7 H 0.1414 0.7121 0.1219
C6 C 0.04090(17) 0.5538(3) 0.1560(3)
H8 H 0.0489 0.6096 0.0929
H9 H 0.0265 0.5913 0.2298
H10 H 0.0079 0.5016 0.1278
C7 C 0.12435(18) 0.4304(3) 0.0676(3)
H11 H 0.1338 0.4863 0.0053
H12 H 0.0904 0.3808 0.0382
H13 H 0.1628 0.3865 0.0853
C8 C 0.2602(2) 0.8176(3) 0.1118(4)
H14 H 0.2256 0.8698 0.0880
H15 H 0.2746 0.7792 0.0373
C9 C 0.18650(18) 0.3448(3) 0.4080(3)
H16 H 0.1821 0.4107 0.4551
C10 C 0.23259(18) 0.7293(3) 0.1990(3)
H17 H 0.2671 0.6773 0.2240
H18 H 0.2170 0.7673 0.2727
C11 C 0.2439(2) 0.1726(3) 0.3652(4)
H19 H 0.2789 0.1239 0.3804
C12 C 0.1984(2) 0.1465(3) 0.2745(4)
H20 H 0.2018 0.0786 0.2305
C13 C 0.23720(19) 0.2713(3) 0.4329(4)
H21 H 0.2670 0.2884 0.4956
C14 C 0.5868(2) 1.4273(4) -0.1140(4)
H22 H 0.6017 1.3781 -0.1800
H23 H 0.5499 1.4706 -0.1456
C15 C 0.31679(18) 0.8865(3) 0.1640(4)
H24 H 0.3019 0.9290 0.2354
H25 H 0.3506 0.8345 0.1921
C16 C 0.4002(2) 1.0446(4) 0.1198(4)
H26 H 0.4350 0.9969 0.1527
H27 H 0.3840 1.0911 0.1871
C17 C 0.3457(2) 0.9691(3) 0.0717(4)
H28 H 0.3620 0.9256 0.0022
H29 H 0.3109 1.0178 0.0405
C18 C 0.4278(2) 1.1224(4) 0.0198(4)
H30 H 0.4424 1.0752 -0.0483
H31 H 0.3928 1.1704 -0.0115
C19 C 0.50888(19) 1.2731(4) -0.0435(4)
H32 H 0.5238 1.2243 -0.1100
H33 H 0.4729 1.3183 -0.0757
C20 C 0.6409(2) 1.5094(3) -0.0802(4)
H34 H 0.6258 1.5591 -0.0146
H35 H 0.6776 1.4663 -0.0479
C21 C 0.5640(2) 1.3533(4) -0.0071(4)
H36 H 0.6006 1.3086 0.0237
H37 H 0.5496 1.4022 0.0597
C22 C 0.6637(2) 1.5819(4) -0.1860(5)
H38 H 0.6980 1.6316 -0.1576
H39 H 0.6280 1.6268 -0.2172
H40 H 0.6798 1.5337 -0.2508
C23 C 0.4837(2) 1.1982(3) 0.0605(4)
H41 H 0.5191 1.1508 0.0913
H42 H 0.4695 1.2463 0.1280
Cl1 Cl -0.00501(5) 0.20034(7) 0.05328(8)
O1 O -0.08515(13) 0.0269(2) -0.1003(2)
H43 H -0.0987 -0.0417 -0.0733
H44 H -0.0925 0.0540 -0.1721
O2 O -0.10841(15) 0.3776(3) 0.1588(2)
H45 H -0.1511 0.3694 0.1406
H46 H -0.0949 0.4360 0.2068
loop_
_geom_bond_atom_site_label_1
_geom_bond_atom_site_label_2
_geom_bond_site_symmetry_1
_geom_bond_site_symmetry_2
N1 C1 1_555 1_555
C1 H1 1_555 1_555
H2 C1 1_555 1_555
C2 C1 1_555 1_555
C3 N1 1_555 1_555
H3 C3 1_555 1_555
H4 C3 1_555 1_555
C4 C2 1_555 1_555
H5 C4 1_555 1_555
C5 C3 1_555 1_555
H6 C5 1_555 1_555
H7 C5 1_555 1_555
C6 N1 1_555 1_555
H8 C6 1_555 1_555
H9 C6 1_555 1_555
H10 C6 1_555 1_555
C7 N1 1_555 1_555
H11 C7 1_555 1_555
H12 C7 1_555 1_555
H13 C7 1_555 1_555
C8 H14 1_555 1_555
H15 C8 1_555 1_555
C9 C2 1_555 1_555
H16 C9 1_555 1_555
C10 C5 1_555 1_555
H17 C10 1_555 1_555
H18 C10 1_555 1_555
C11 H19 1_555 1_555
C12 C4 1_555 1_555
H20 C12 1_555 1_555
C13 C9 1_555 1_555
H21 C13 1_555 1_555
C14 H22 1_555 1_555
H23 C14 1_555 1_555
C15 C8 1_555 1_555
H24 C15 1_555 1_555
H25 C15 1_555 1_555
C16 H26 1_555 1_555
H27 C16 1_555 1_555
C17 C15 1_555 1_555
H28 C17 1_555 1_555
H29 C17 1_555 1_555
C18 C16 1_555 1_555
H30 C18 1_555 1_555
H31 C18 1_555 1_555
C19 H32 1_555 1_555
H33 C19 1_555 1_555
C20 C14 1_555 1_555
H34 C20 1_555 1_555
H35 C20 1_555 1_555
C21 C14 1_555 1_555
H36 C21 1_555 1_555
H37 C21 1_555 1_555
C22 C20 1_555 1_555
H38 C22 1_555 1_555
H39 C22 1_555 1_555
H40 C22 1_555 1_555
C23 C18 1_555 1_555
H41 C23 1_555 1_555
H42 C23 1_555 1_555
O1 H43 1_555 1_555
H44 O1 1_555 1_555
O2 H45 1_555 1_555
H46 O2 1_555 1_555
C8 C10 1_555 1_555
C11 C12 1_555 1_555
C11 C13 1_555 1_555
C16 C17 1_555 1_555
C19 C21 1_555 1_555
C19 C23 1_555 1_555

#END
