
#######################################################################
#
#                 Cambridge Crystallographic Data Centre
#                                CCDC 
#
#######################################################################
#
# If this CIF has been generated from an entry in the Cambridge 
# Structural Database, then it will include bibliographic, chemical, 
# crystal, experimental, refinement or atomic coordinate data resulting 
# from the CCDC's data processing and validation procedures.
#
#######################################################################

data_EDACIY
_chemical_formula_moiety         'C15 H18 N2 O1 Si1'
_chemical_name_systematic        
N-(quinolin-8-yl)-3-(trimethylsilyl)prop-2-enamide
_symmetry_cell_setting           triclinic
_symmetry_space_group_name_H-M   'P -1'
_symmetry_Int_Tables_number      2
_space_group_name_Hall           '-P 1'
loop_
_symmetry_equiv_pos_site_id
_symmetry_equiv_pos_as_xyz
1 x,y,z
2 -x,-y,-z
_cell_length_a                   7.9568(3)
_cell_length_b                   13.6772(5)
_cell_length_c                   14.6028(6)
_cell_angle_alpha                69.8500(10)
_cell_angle_beta                 87.6710(10)
_cell_angle_gamma                77.1540(10)
_cell_volume                     1453.44
_exptl_crystal_colour            colorless
_exptl_crystal_description       block
_cell_formula_units_Z            4
loop_
_atom_site_label
_atom_site_type_symbol
_atom_site_fract_x
_atom_site_fract_y
_atom_site_fract_z
Si1 Si 1.24231(5) -0.05087(3) 0.31616(3)
C1 C 0.71899(17) 0.28849(10) 0.37417(9)
N1 N 0.75897(14) 0.17900(9) 0.38829(8)
H1 H 0.6754 0.1453 0.4104
O1 O 1.03652(12) 0.15230(7) 0.33935(7)
C2 C 0.54768(17) 0.32881(11) 0.39807(9)
N2 N 0.44279(15) 0.25841(9) 0.43170(8)
C3 C 0.49357(19) 0.43849(11) 0.38595(10)
C4 C 0.6104(2) 0.50622(12) 0.34953(11)
H2 H 0.5755 0.5801 0.3407
C5 C 0.3227(2) 0.47379(13) 0.41057(12)
H3 H 0.2807 0.5466 0.4042
C6 C 0.2185(2) 0.40319(14) 0.44344(12)
H4 H 0.1032 0.4261 0.4598
C7 C 0.28467(19) 0.29585(13) 0.45270(11)
H5 H 0.2107 0.2474 0.4755
C8 C 0.82981(19) 0.35615(11) 0.33970(10)
H6 H 0.9441 0.3294 0.3244
C9 C 0.7729(2) 0.46553(12) 0.32714(11)
H7 H 0.8497 0.5119 0.3025
C10 C 0.90781(17) 0.00250(11) 0.40138(10)
H8 H 0.8096 -0.0213 0.4322
C11 C 0.90926(16) 0.11767(10) 0.37246(9)
C12 C 1.03955(18) -0.06862(11) 0.38555(10)
H9 H 1.0295 -0.1407 0.4142
C13 C 1.40384(18) -0.00725(11) 0.37361(10)
H10 H 1.5055 -0.0024 0.3335
H11 H 1.4381 -0.0593 0.4390
H12 H 1.3527 0.0628 0.3785
C14 C 1.3415(2) -0.18915(12) 0.31674(12)
H13 H 1.2578 -0.2153 0.2892
H14 H 1.3742 -0.2368 0.3839
H15 H 1.4442 -0.1875 0.2774
C15 C 1.1875(2) 0.03842(12) 0.18667(10)
H16 H 1.2913 0.0351 0.1484
H17 H 1.1427 0.1120 0.1844
H18 H 1.0998 0.0150 0.1593
Si2 Si -0.17522(5) 0.82371(3) 0.14512(3)
O2 O 0.05131(12) 0.61324(8) 0.16391(8)
N3 N 0.33563(14) 0.58163(8) 0.12735(8)
H19 H 0.4218 0.6138 0.1088
N4 N 0.65520(14) 0.49815(9) 0.09614(8)
C16 C 0.37658(16) 0.47062(10) 0.14976(9)
C17 C 0.54957(16) 0.42841(10) 0.12978(9)
C18 C 0.60476(17) 0.31772(10) 0.14629(9)
C19 C 0.48646(19) 0.25106(11) 0.18241(10)
H20 H 0.5209 0.1769 0.1926
C20 C 0.32298(18) 0.29325(11) 0.20256(10)
H21 H 0.2457 0.2474 0.2280
C21 C 0.26594(17) 0.40349(11) 0.18647(10)
H22 H 0.1515 0.4311 0.2010
C22 C 0.77773(18) 0.28046(11) 0.12720(10)
H23 H 0.8206 0.2068 0.1370
C23 C 0.88360(18) 0.35048(12) 0.09452(10)
H24 H 1.0006 0.3264 0.0817
C24 C 0.81574(17) 0.45917(11) 0.08025(10)
H25 H 0.8905 0.5072 0.0578
C25 C 0.18019(16) 0.64593(10) 0.13054(10)
C26 C 0.17750(17) 0.76183(10) 0.08737(10)
H26 H 0.2786 0.7832 0.0585
C27 C 0.03845(18) 0.83681(10) 0.08773(10)
H27 H 0.0488 0.9081 0.0537
C28 C -0.3101(2) 0.76531(13) 0.08600(13)
H28 H -0.3133 0.8009 0.0150
H29 H -0.4276 0.7755 0.1096
H30 H -0.2605 0.6888 0.1023
C29 C -0.2900(2) 0.96591(13) 0.12323(17)
H31 H -0.3054 1.0051 0.0528
H32 H -0.2215 0.9994 0.1528
H33 H -0.4031 0.9675 0.1526
C30 C -0.1464(2) 0.75326(14) 0.27973(12)
H34 H -0.0586 0.6867 0.2934
H35 H -0.2560 0.7370 0.3064
H36 H -0.1095 0.7991 0.3101
loop_
_geom_bond_atom_site_label_1
_geom_bond_atom_site_label_2
_geom_bond_site_symmetry_1
_geom_bond_site_symmetry_2
Si1 C12 1_555 1_555
C1 N1 1_555 1_555
N1 H1 1_555 1_555
O1 C11 1_555 1_555
C2 C1 1_555 1_555
N2 C2 1_555 1_555
C3 C2 1_555 1_555
C4 C3 1_555 1_555
H2 C4 1_555 1_555
C5 C3 1_555 1_555
H3 C5 1_555 1_555
C6 C5 1_555 1_555
H4 C6 1_555 1_555
C7 N2 1_555 1_555
H5 C7 1_555 1_555
C8 C1 1_555 1_555
H6 C8 1_555 1_555
C9 C4 1_555 1_555
H7 C9 1_555 1_555
C10 H8 1_555 1_555
C11 N1 1_555 1_555
C12 C10 1_555 1_555
H9 C12 1_555 1_555
C13 Si1 1_555 1_555
H10 C13 1_555 1_555
H11 C13 1_555 1_555
H12 C13 1_555 1_555
C14 Si1 1_555 1_555
H13 C14 1_555 1_555
H14 C14 1_555 1_555
H15 C14 1_555 1_555
C15 Si1 1_555 1_555
H16 C15 1_555 1_555
H17 C15 1_555 1_555
H18 C15 1_555 1_555
Si2 C27 1_555 1_555
O2 C25 1_555 1_555
N3 H19 1_555 1_555
N4 C17 1_555 1_555
C16 N3 1_555 1_555
C17 C16 1_555 1_555
C18 C17 1_555 1_555
C19 C18 1_555 1_555
H20 C19 1_555 1_555
C20 C19 1_555 1_555
H21 C20 1_555 1_555
C21 C16 1_555 1_555
H22 C21 1_555 1_555
C22 C18 1_555 1_555
H23 C22 1_555 1_555
C23 C22 1_555 1_555
H24 C23 1_555 1_555
C24 N4 1_555 1_555
H25 C24 1_555 1_555
C25 N3 1_555 1_555
C26 C25 1_555 1_555
H26 C26 1_555 1_555
C27 C26 1_555 1_555
H27 C27 1_555 1_555
C28 Si2 1_555 1_555
H28 C28 1_555 1_555
H29 C28 1_555 1_555
H30 C28 1_555 1_555
C29 Si2 1_555 1_555
H31 C29 1_555 1_555
H32 C29 1_555 1_555
H33 C29 1_555 1_555
C30 Si2 1_555 1_555
H34 C30 1_555 1_555
H35 C30 1_555 1_555
H36 C30 1_555 1_555
C6 C7 1_555 1_555
C8 C9 1_555 1_555
C10 C11 1_555 1_555
C20 C21 1_555 1_555
C23 C24 1_555 1_555

#END
