
#######################################################################
#
#                 Cambridge Crystallographic Data Centre
#                                CCDC 
#
#######################################################################
#
# If this CIF has been generated from an entry in the Cambridge 
# Structural Database, then it will include bibliographic, chemical, 
# crystal, experimental, refinement or atomic coordinate data resulting 
# from the CCDC's data processing and validation procedures.
#
#######################################################################

data_EDAGIC
_chemical_formula_moiety         'C24 H23 Br1 N2 O2 S1'
_chemical_name_systematic        
6-benzyl-3-(4-bromophenyl)-1-[(4-methylphenyl)sulfonyl]-1,4,5,6-tetrahydropyridazine
_symmetry_cell_setting           monoclinic
_symmetry_space_group_name_H-M   'P 21/c'
_symmetry_Int_Tables_number      14
_space_group_name_Hall           '-P 2ybc'
loop_
_symmetry_equiv_pos_site_id
_symmetry_equiv_pos_as_xyz
1 x,y,z
2 -x,1/2+y,1/2-z
3 -x,-y,-z
4 x,1/2-y,1/2+z
_cell_length_a                   13.366(3)
_cell_length_b                   15.726(3)
_cell_length_c                   11.497(2)
_cell_angle_alpha                90
_cell_angle_beta                 110.678(3)
_cell_angle_gamma                90
_cell_volume                     2260.92
_exptl_crystal_colour            colorless
_exptl_crystal_description       block
_cell_formula_units_Z            4
loop_
_atom_site_label
_atom_site_type_symbol
_atom_site_fract_x
_atom_site_fract_y
_atom_site_fract_z
Br1 Br 0.80649(4) 0.63169(4) 0.59655(5)
C1 C 0.7186(3) 0.5628(2) 0.6551(3)
C2 C 0.6128(3) 0.5797(2) 0.6214(4)
H1 H 0.582714 0.624210 0.567041
C3 C 0.5500(3) 0.5310(2) 0.6675(3)
H2 H 0.477456 0.542971 0.644093
C4 C 0.5933(3) 0.46402(19) 0.7485(3)
C5 C 0.7006(3) 0.4468(2) 0.7785(3)
H3 H 0.731071 0.401681 0.831480
C6 C 0.7630(3) 0.4948(3) 0.7319(4)
H4 H 0.835023 0.481792 0.751884
C7 C 0.5273(3) 0.4142(2) 0.8029(3)
C8 C 0.4080(3) 0.4078(2) 0.7355(3)
H5 H 0.393545 0.399252 0.647459
H6 H 0.374469 0.460724 0.745113
C9 C 0.3603(3) 0.3353(2) 0.7847(3)
H7 H 0.283176 0.341744 0.756169
H8 H 0.376056 0.281905 0.752578
C10 C 0.4047(3) 0.3333(2) 0.9251(3)
H9 H 0.378595 0.281720 0.952945
C11 C 0.3720(3) 0.4106(2) 0.9860(3)
H10 H 0.413341 0.410600 1.074324
H11 H 0.388887 0.462333 0.950776
C12 C 0.2561(3) 0.4103(2) 0.9677(3)
C13 C 0.1876(3) 0.4700(3) 0.8945(4)
H12 H 0.213699 0.510727 0.853898
C14 C 0.0815(4) 0.4705(4) 0.8804(6)
H13 H 0.036439 0.512314 0.832598
C15 C 0.0421(4) 0.4092(4) 0.9368(6)
H14 H -0.030538 0.408064 0.924302
C16 C 0.1075(4) 0.3508(3) 1.0102(5)
H15 H 0.080471 0.309970 1.049568
C17 C 0.2146(4) 0.3515(3) 1.0270(4)
H16 H 0.259810 0.311493 1.079330
C18 C 0.7043(3) 0.2509(2) 1.0847(3)
C19 C 0.6901(3) 0.1909(3) 0.9941(4)
H17 H 0.621674 0.178877 0.938850
C20 C 0.7764(4) 0.1486(3) 0.9844(5)
H18 H 0.765425 0.107677 0.922714
C21 C 0.8782(4) 0.1649(3) 1.0632(5)
C22 C 0.8913(4) 0.2246(4) 1.1534(5)
H19 H 0.960043 0.236564 1.207881
C23 C 0.8057(3) 0.2679(3) 1.1667(4)
H20 H 0.816584 0.307761 1.229738
C24 C 0.9701(5) 0.1176(4) 1.0479(7)
H21 H 1.035746 0.136507 1.109465
H22 H 0.971953 0.128162 0.966458
H23 H 0.961357 0.057750 1.057936
N1 N 0.5780(2) 0.37787(16) 0.9064(2)
N2 N 0.5217(2) 0.32647(17) 0.9603(3)
O1 O 0.6346(2) 0.37631(16) 1.1790(2)
O2 O 0.5315(2) 0.24446(17) 1.1436(3)
S1 S 0.59521(7) 0.30267(6) 1.10450(8)
loop_
_geom_bond_atom_site_label_1
_geom_bond_atom_site_label_2
_geom_bond_site_symmetry_1
_geom_bond_site_symmetry_2
Br1 C1 1_555 1_555
C1 C2 1_555 1_555
C2 H1 1_555 1_555
C3 C2 1_555 1_555
H2 C3 1_555 1_555
C4 C3 1_555 1_555
C5 C4 1_555 1_555
H3 C5 1_555 1_555
C6 C1 1_555 1_555
H4 C6 1_555 1_555
C7 C4 1_555 1_555
C8 C7 1_555 1_555
H5 C8 1_555 1_555
H6 C8 1_555 1_555
C9 C8 1_555 1_555
H7 C9 1_555 1_555
H8 C9 1_555 1_555
C10 C9 1_555 1_555
H9 C10 1_555 1_555
C11 C10 1_555 1_555
H10 C11 1_555 1_555
H11 C11 1_555 1_555
C12 C11 1_555 1_555
C13 C12 1_555 1_555
H12 C13 1_555 1_555
C14 C13 1_555 1_555
H13 C14 1_555 1_555
C15 C14 1_555 1_555
H14 C15 1_555 1_555
C16 C15 1_555 1_555
H15 C16 1_555 1_555
C17 C12 1_555 1_555
H16 C17 1_555 1_555
C18 C19 1_555 1_555
C19 H17 1_555 1_555
C20 C19 1_555 1_555
H18 C20 1_555 1_555
C21 C20 1_555 1_555
C22 C21 1_555 1_555
H19 C22 1_555 1_555
C23 C18 1_555 1_555
H20 C23 1_555 1_555
C24 C21 1_555 1_555
H21 C24 1_555 1_555
H22 C24 1_555 1_555
H23 C24 1_555 1_555
N1 C7 1_555 1_555
N2 C10 1_555 1_555
O1 S1 1_555 1_555
O2 S1 1_555 1_555
S1 C18 1_555 1_555
C5 C6 1_555 1_555
C16 C17 1_555 1_555
C22 C23 1_555 1_555
N1 N2 1_555 1_555
N2 S1 1_555 1_555

#END
