
#######################################################################
#
#                 Cambridge Crystallographic Data Centre
#                                CCDC 
#
#######################################################################
#
# If this CIF has been generated from an entry in the Cambridge 
# Structural Database, then it will include bibliographic, chemical, 
# crystal, experimental, refinement or atomic coordinate data resulting 
# from the CCDC's data processing and validation procedures.
#
#######################################################################

data_EDAGUO
_chemical_formula_moiety         'C17 H18 N2 O2 S1'
_chemical_name_systematic        
4-methyl-N'-(1-phenylbut-3-en-1-ylidene)benzene-1-sulfonohydrazide
_symmetry_cell_setting           triclinic
_symmetry_space_group_name_H-M   'P -1'
_symmetry_Int_Tables_number      2
_space_group_name_Hall           '-P 1'
loop_
_symmetry_equiv_pos_site_id
_symmetry_equiv_pos_as_xyz
1 x,y,z
2 -x,-y,-z
_cell_length_a                   9.2443(7)
_cell_length_b                   9.2239(7)
_cell_length_c                   11.5114(9)
_cell_angle_alpha                99.4294(11)
_cell_angle_beta                 99.6133(12)
_cell_angle_gamma                116.1209(10)
_cell_volume                     837.119
_exptl_crystal_colour            colorless
_exptl_crystal_description       block
_cell_formula_units_Z            2
loop_
_atom_site_label
_atom_site_type_symbol
_atom_site_fract_x
_atom_site_fract_y
_atom_site_fract_z
C1 C 0.7278(4) 0.9164(5) 0.3786(4)
H1 H 0.7728 1.0088 0.4502
H2 H 0.6944 0.9492 0.3082
H3 H 0.8115 0.8844 0.3680
C2 C 0.5777(3) 0.7699(4) 0.3933(3)
C3 C 0.5077(3) 0.7909(3) 0.4871(2)
H4 H 0.5563 0.8954 0.5431
C4 C 0.3672(3) 0.6604(3) 0.4999(2)
H5 H 0.3200 0.6771 0.5627
C5 C 0.2976(2) 0.5046(3) 0.41788(19)
C6 C 0.3684(3) 0.4778(3) 0.3256(2)
H6 H 0.3233 0.3719 0.2724
C7 C 0.5079(3) 0.6121(4) 0.3139(3)
H7 H 0.5555 0.5957 0.2513
C8 C -0.1237(3) 0.3200(3) 0.12258(19)
C9 C -0.1131(3) 0.2660(3) -0.00398(19)
C10 C -0.1929(4) 0.2934(4) -0.1035(2)
H8 H -0.2559 0.3476 -0.0927
C11 C -0.1804(4) 0.2410(4) -0.2195(2)
H9 H -0.2338 0.2624 -0.2852
C12 C -0.0916(4) 0.1591(4) -0.2394(2)
H10 H -0.0858 0.1230 -0.3180
C13 C -0.0113(4) 0.1308(4) -0.1422(2)
H11 H 0.0494 0.0743 -0.1545
C14 C -0.0194(4) 0.1854(4) -0.0254(2)
H12 H 0.0388 0.1681 0.0401
C15 C -0.2410(3) 0.3893(4) 0.1423(2)
H13 H -0.1981 0.4663 0.2232
H14 H -0.2478 0.4506 0.0827
C16 C -0.4118(8) 0.2525(12) 0.1318(9)
H15 H -0.4202 0.1801 0.1809
C17 C -0.5515(8) 0.2263(12) 0.0584(9)
H16 H -0.5484 0.2959 0.0078
H17 H -0.6533 0.1381 0.0571
N1 N -0.0415(2) 0.3381(2) 0.32662(16)
H18 H -0.1164 0.3606 0.3467
N2 N -0.0346(2) 0.2960(2) 0.20606(15)
O1 O 0.1109(2) 0.1862(2) 0.38666(15)
O2 O 0.0811(2) 0.3831(2) 0.54197(13)
S1 S 0.11070(6) 0.33984(6) 0.42597(4)
H19? H -0.2215 0.4325 0.2294
H20? H -0.2161 0.4820 0.1057
C18? C -0.478(3) 0.137(3) 0.137(2)
H21? H -0.4055 0.1257 0.1972
H22? H -0.5901 0.0564 0.1094
C19? C -0.4218(15) 0.267(3) 0.093(2)
H23? H -0.4914 0.2811 0.0327
loop_
_geom_bond_atom_site_label_1
_geom_bond_atom_site_label_2
_geom_bond_site_symmetry_1
_geom_bond_site_symmetry_2
C1 H1 1_555 1_555
H2 C1 1_555 1_555
H3 C1 1_555 1_555
C2 C1 1_555 1_555
C3 C2 1_555 1_555
H4 C3 1_555 1_555
C4 C3 1_555 1_555
H5 C4 1_555 1_555
C5 C4 1_555 1_555
C6 C5 1_555 1_555
H6 C6 1_555 1_555
C7 C2 1_555 1_555
H7 C7 1_555 1_555
C8 C9 1_555 1_555
C9 C10 1_555 1_555
C10 H8 1_555 1_555
C11 C10 1_555 1_555
H9 C11 1_555 1_555
C12 C11 1_555 1_555
H10 C12 1_555 1_555
C13 C12 1_555 1_555
H11 C13 1_555 1_555
C14 C9 1_555 1_555
H12 C14 1_555 1_555
C15 C8 1_555 1_555
H13 C15 1_555 1_555
H14 C15 1_555 1_555
C16 C15 1_555 1_555
H15 C16 1_555 1_555
C17 C16 1_555 1_555
H16 C17 1_555 1_555
H17 C17 1_555 1_555
N1 H18 1_555 1_555
N2 C8 1_555 1_555
O1 S1 1_555 1_555
O2 S1 1_555 1_555
S1 C5 1_555 1_555
C6 C7 1_555 1_555
C13 C14 1_555 1_555
N1 N2 1_555 1_555
N1 S1 1_555 1_555

#END
