
#######################################################################
#
#                 Cambridge Crystallographic Data Centre
#                                CCDC 
#
#######################################################################
#
# If this CIF has been generated from an entry in the Cambridge 
# Structural Database, then it will include bibliographic, chemical, 
# crystal, experimental, refinement or atomic coordinate data resulting 
# from the CCDC's data processing and validation procedures.
#
#######################################################################

data_EDAHUP
_chemical_name_common            
((2'S,3S,3'S)-1,1-dioxido-3'-(trifluoromethyl)-2',3'-dihydro-2H-spiro[benzo[d]isothiazole-3,1'-inden]-2'-yl)(p-tolyl)methanone
_chemical_formula_moiety         'C24 H18 F3 N1 O3 S1'
_chemical_name_systematic        
2'-(4-methylbenzene-1-carbonyl)-3'-(trifluoromethyl)-2',3'-dihydrospiro[1,2-benzothiazole-3,1'-indene]-1,1(2H)-dione
_symmetry_cell_setting           monoclinic
_symmetry_space_group_name_H-M   'P 21/n'
_symmetry_Int_Tables_number      14
_space_group_name_Hall           '-P 2yn'
loop_
_symmetry_equiv_pos_site_id
_symmetry_equiv_pos_as_xyz
1 x,y,z
2 1/2-x,1/2+y,1/2-z
3 -x,-y,-z
4 1/2+x,1/2-y,1/2+z
_cell_length_a                   11.3446(4)
_cell_length_b                   15.1444(5)
_cell_length_c                   13.1535(4)
_cell_angle_alpha                90
_cell_angle_beta                 104.430(3)
_cell_angle_gamma                90
_cell_volume                     2188.57
_exptl_crystal_colour            colorless
_exptl_crystal_description       block
_cell_formula_units_Z            4
loop_
_atom_site_label
_atom_site_type_symbol
_atom_site_fract_x
_atom_site_fract_y
_atom_site_fract_z
S1 S 0.47351(5) 0.29698(4) 0.30948(4)
O1 O 0.65169(17) 0.50388(13) 0.52683(16)
F1 F 0.6831(2) 0.36036(17) 0.82783(14)
O2 O 0.3515(2) 0.27072(18) 0.26530(18)
F2 F 0.5599(3) 0.46513(18) 0.82677(15)
N1 N 0.4867(2) 0.34871(15) 0.41938(15)
H1 H 0.4617 0.4021 0.4218
F3 F 0.7150(2) 0.4846(2) 0.76508(16)
O3 O 0.5281(3) 0.34269(19) 0.2397(2)
C1 C 0.7969(2) 0.40467(17) 0.49571(18)
C2 C 0.5447(2) 0.29864(16) 0.51569(17)
C3 C 0.6344(2) 0.36028(16) 0.59472(16)
H2 H 0.6987 0.3240 0.6389
C4 C 0.6927(2) 0.42904(16) 0.53847(17)
C5 C 0.5557(2) 0.40012(18) 0.66372(17)
H3 H 0.5146 0.4526 0.6280
C6 C 0.4545(2) 0.27307(19) 0.57848(19)
C7 C 0.5989(2) 0.21877(17) 0.47590(18)
C8 C 0.8710(2) 0.3317(2) 0.5296(2)
H4 H 0.8528 0.2938 0.5791
C9 C 0.4609(2) 0.3298(2) 0.66158(19)
C10 C 0.5642(2) 0.20872(17) 0.36845(18)
C11 C 0.8267(3) 0.4599(2) 0.4205(2)
H5 H 0.7789 0.5092 0.3965
C12 C 1.0000(3) 0.3696(2) 0.4157(2)
C13 C 0.6281(3) 0.4274(2) 0.7705(2)
C14 C 0.9255(3) 0.4420(2) 0.3820(2)
H6 H 0.9433 0.4794 0.3318
C15 C 0.5984(3) 0.1375(2) 0.3165(2)
H7 H 0.5735 0.1325 0.2439
C16 C 0.3704(3) 0.2044(2) 0.5570(3)
H8 H 0.3654 0.1677 0.4994
C17 C 0.6718(3) 0.1542(2) 0.5358(2)
H9 H 0.6967 0.1590 0.6085
C18 C 0.9709(3) 0.3148(2) 0.4906(2)
H10 H 1.0196 0.2661 0.5149
C19 C 0.3833(3) 0.3168(3) 0.7284(3)
H11 H 0.3861 0.3543 0.7849
C20 C 0.2955(3) 0.1922(3) 0.6223(4)
H12 H 0.2387 0.1466 0.6095
C21 C 1.1080(3) 0.3524(3) 0.3723(3)
H13 H 1.0813 0.3275 0.3033
H14 H 1.1619 0.3117 0.4173
H15 H 1.1501 0.4068 0.3687
C22 C 0.3037(3) 0.2478(3) 0.7084(3)
H16 H 0.2535 0.2375 0.7533
C23 C 0.6709(4) 0.0742(2) 0.3770(3)
H17 H 0.6962 0.0253 0.3451
C24 C 0.7061(4) 0.0834(2) 0.4852(3)
H18 H 0.7546 0.0399 0.5249
loop_
_geom_bond_atom_site_label_1
_geom_bond_atom_site_label_2
_geom_bond_site_symmetry_1
_geom_bond_site_symmetry_2
S1 O2 1_555 1_555
O1 C4 1_555 1_555
F1 C13 1_555 1_555
F2 C13 1_555 1_555
N1 S1 1_555 1_555
H1 N1 1_555 1_555
F3 C13 1_555 1_555
O3 S1 1_555 1_555
C1 C4 1_555 1_555
C2 N1 1_555 1_555
C3 C2 1_555 1_555
H2 C3 1_555 1_555
C4 C3 1_555 1_555
C5 C3 1_555 1_555
H3 C5 1_555 1_555
C6 C2 1_555 1_555
C7 C2 1_555 1_555
C8 C1 1_555 1_555
H4 C8 1_555 1_555
C9 C5 1_555 1_555
C10 S1 1_555 1_555
C11 C1 1_555 1_555
H5 C11 1_555 1_555
C12 C14 1_555 1_555
C13 C5 1_555 1_555
C14 C11 1_555 1_555
H6 C14 1_555 1_555
C15 C10 1_555 1_555
H7 C15 1_555 1_555
C16 C6 1_555 1_555
H8 C16 1_555 1_555
C17 C7 1_555 1_555
H9 C17 1_555 1_555
C18 C8 1_555 1_555
H10 C18 1_555 1_555
C19 C9 1_555 1_555
H11 C19 1_555 1_555
C20 C16 1_555 1_555
H12 C20 1_555 1_555
C21 C12 1_555 1_555
H13 C21 1_555 1_555
H14 C21 1_555 1_555
H15 C21 1_555 1_555
C22 C19 1_555 1_555
H16 C22 1_555 1_555
C23 C15 1_555 1_555
H17 C23 1_555 1_555
C24 C17 1_555 1_555
H18 C24 1_555 1_555
C6 C9 1_555 1_555
C7 C10 1_555 1_555
C12 C18 1_555 1_555
C20 C22 1_555 1_555
C23 C24 1_555 1_555

#END
