
#######################################################################
#
#                 Cambridge Crystallographic Data Centre
#                                CCDC 
#
#######################################################################
#
# If this CIF has been generated from an entry in the Cambridge 
# Structural Database, then it will include bibliographic, chemical, 
# crystal, experimental, refinement or atomic coordinate data resulting 
# from the CCDC's data processing and validation procedures.
#
#######################################################################

data_EDAHOJ
_chemical_name_common            
2'-(4-methylbenzene-1-carbonyl)-3'-(trifluoromethyl)-2',3'-dihydrospiro[1,2-benzothiazole-3,1'-indene]-1,1(2H)-dione
_chemical_formula_moiety         'C24 H18 F3 N1 O3 S1'
_chemical_name_systematic        
((2'R,3S,3'R)-1,1-dioxido-3'-(trifluoromethyl)-2',3'-dihydro-2H-spiro[benzo[d]isothiazole-3,1'-inden]-2'-yl)(p-tolyl)methanone
_symmetry_cell_setting           triclinic
_symmetry_space_group_name_H-M   'P -1'
_symmetry_Int_Tables_number      2
_space_group_name_Hall           '-P 1'
loop_
_symmetry_equiv_pos_site_id
_symmetry_equiv_pos_as_xyz
1 x,y,z
2 -x,-y,-z
_cell_length_a                   8.0793(2)
_cell_length_b                   9.9652(3)
_cell_length_c                   13.6943(3)
_cell_angle_alpha                93.198(2)
_cell_angle_beta                 105.789(2)
_cell_angle_gamma                91.377(2)
_cell_volume                     1058.42
_exptl_crystal_colour            colorless
_exptl_crystal_description       block
_cell_formula_units_Z            2
loop_
_atom_site_label
_atom_site_type_symbol
_atom_site_fract_x
_atom_site_fract_y
_atom_site_fract_z
S1 S 0.36343(6) 0.44580(5) 0.60841(3)
F1 F 1.04862(18) 0.77184(16) 0.77090(12)
F2 F 1.18608(17) 0.61213(16) 0.85195(13)
F3 F 1.14660(19) 0.79298(18) 0.93355(13)
O1 O 0.9494(2) 0.36807(17) 0.88719(11)
N1 N 0.5424(2) 0.53469(16) 0.64254(11)
H1 H 0.5864 0.5691 0.5986
O2 O 0.3666(3) 0.35054(18) 0.52700(12)
O3 O 0.2143(2) 0.5256(2) 0.59137(15)
C1 C 0.6129(2) 0.69484(17) 0.79626(13)
C2 C 0.6259(2) 0.55381(17) 0.75177(12)
C3 C 0.5701(2) 0.41860(19) 0.89845(13)
H2 H 0.6599 0.4639 0.9473
C4 C 0.5336(2) 0.44834(16) 0.79708(13)
C5 C 0.8268(2) 0.53870(18) 0.77750(13)
H3 H 0.8644 0.5638 0.7185
C6 C 0.3985(2) 0.37888(17) 0.72695(13)
C7 C 0.7669(2) 0.74290(18) 0.86258(14)
C8 C 0.2962(2) 0.28003(19) 0.75233(15)
H4 H 0.2060 0.2350 0.7035
C9 C 0.9061(2) 0.64337(19) 0.86620(14)
H5 H 0.9296 0.5993 0.9305
C10 C 0.8822(2) 0.3952(2) 0.80038(14)
C11 C 0.4673(3) 0.7709(2) 0.77755(16)
H6 H 0.3646 0.7386 0.7320
C12 C 0.3347(3) 0.25191(19) 0.85345(15)
H7 H 0.2692 0.1865 0.8736
C13 C 0.4696(3) 0.3197(2) 0.92533(14)
H8 H 0.4934 0.2986 0.9929
C14 C 0.8449(3) 0.29057(19) 0.71551(16)
C15 C 0.7763(3) 0.8681(2) 0.91516(16)
H9 H 0.8787 0.9001 0.9613
C16 C 0.8413(3) 0.3168(2) 0.61725(16)
H10 H 0.8582 0.4048 0.6016
C17 C 0.6313(3) 0.9436(2) 0.89762(19)
H11 H 0.6358 1.0270 0.9325
C18 C 0.4791(3) 0.8960(2) 0.8285(2)
H12 H 0.3834 0.9491 0.8162
C19 C 1.0703(3) 0.7055(2) 0.85541(17)
C20 C 0.8129(4) 0.2145(3) 0.5416(2)
H13 H 0.8133 0.2342 0.4760
C21 C 0.8202(4) 0.1579(2) 0.7372(2)
H14 H 0.8253 0.1375 0.8034
C22 C 0.7840(4) 0.0829(3) 0.5621(2)
C23 C 0.7882(5) 0.0568(3) 0.6609(3)
H15 H 0.7690 -0.0310 0.6761
C24 C 0.7489(7) -0.0285(4) 0.4785(3)
H16 H 0.6284 -0.0339 0.4434
H17 H 0.7820 -0.1126 0.5076
H18 H 0.8141 -0.0099 0.4314
loop_
_geom_bond_atom_site_label_1
_geom_bond_atom_site_label_2
_geom_bond_site_symmetry_1
_geom_bond_site_symmetry_2
S1 N1 1_555 1_555
F1 C19 1_555 1_555
F2 C19 1_555 1_555
F3 C19 1_555 1_555
O1 C10 1_555 1_555
N1 H1 1_555 1_555
O2 S1 1_555 1_555
O3 S1 1_555 1_555
C1 C2 1_555 1_555
C2 N1 1_555 1_555
C3 H2 1_555 1_555
C4 C2 1_555 1_555
C5 C2 1_555 1_555
H3 C5 1_555 1_555
C6 S1 1_555 1_555
C7 C1 1_555 1_555
C8 C6 1_555 1_555
H4 C8 1_555 1_555
C9 C5 1_555 1_555
H5 C9 1_555 1_555
C10 C5 1_555 1_555
C11 C1 1_555 1_555
H6 C11 1_555 1_555
C12 C8 1_555 1_555
H7 C12 1_555 1_555
C13 C3 1_555 1_555
H8 C13 1_555 1_555
C14 C10 1_555 1_555
C15 C7 1_555 1_555
H9 C15 1_555 1_555
C16 C14 1_555 1_555
H10 C16 1_555 1_555
C17 C15 1_555 1_555
H11 C17 1_555 1_555
C18 C11 1_555 1_555
H12 C18 1_555 1_555
C19 C9 1_555 1_555
C20 C16 1_555 1_555
H13 C20 1_555 1_555
C21 C14 1_555 1_555
H14 C21 1_555 1_555
C22 C20 1_555 1_555
C23 C21 1_555 1_555
H15 C23 1_555 1_555
C24 C22 1_555 1_555
H16 C24 1_555 1_555
H17 C24 1_555 1_555
H18 C24 1_555 1_555
C3 C4 1_555 1_555
C4 C6 1_555 1_555
C7 C9 1_555 1_555
C12 C13 1_555 1_555
C17 C18 1_555 1_555
C22 C23 1_555 1_555

#END
