
#######################################################################
#
#                 Cambridge Crystallographic Data Centre
#                                CCDC 
#
#######################################################################
#
# If this CIF has been generated from an entry in the Cambridge 
# Structural Database, then it will include bibliographic, chemical, 
# crystal, experimental, refinement or atomic coordinate data resulting 
# from the CCDC's data processing and validation procedures.
#
#######################################################################

data_EDAHID
_chemical_formula_moiety         'C13 H14 F1 N1 O1'
_chemical_name_systematic        
5-fluoro-6-methyl-2-phenyl-4,5,6,6a-tetrahydro-3aH-cyclopenta[d][1,3]oxazole
_symmetry_cell_setting           orthorhombic
_symmetry_space_group_name_H-M   'P c a 21'
_symmetry_Int_Tables_number      29
_space_group_name_Hall           'P 2c -2ac'
loop_
_symmetry_equiv_pos_site_id
_symmetry_equiv_pos_as_xyz
1 x,y,z
2 -x,-y,1/2+z
3 1/2+x,-y,z
4 1/2-x,y,1/2+z
_cell_length_a                   11.246(2)
_cell_length_b                   17.285(4)
_cell_length_c                   11.864(2)
_cell_angle_alpha                90
_cell_angle_beta                 90
_cell_angle_gamma                90
_cell_volume                     2306.21
_exptl_crystal_colour            colorless
_cell_formula_units_Z            8
loop_
_atom_site_label
_atom_site_type_symbol
_atom_site_fract_x
_atom_site_fract_y
_atom_site_fract_z
F1 F 0.1336(4) 0.4988(2) -0.1638(4)
O1 O 0.1265(4) 0.5119(2) 0.1015(4)
N1 N -0.0112(4) 0.5908(3) 0.0180(5)
C1 C 0.0178(7) 0.3234(3) -0.0218(7)
H1 H 0.0528 0.2926 0.0393
H2 H 0.0296 0.2966 -0.0937
H3 H -0.0675 0.3301 -0.0080
C2 C 0.0790(5) 0.4038(3) -0.0263(5)
H4 H 0.1673 0.3988 -0.0201
C3 C 0.0434(5) 0.4428(4) -0.1380(6)
H5 H 0.0337 0.4042 -0.2001
C4 C -0.0702(5) 0.4858(3) -0.1153(5)
H6 H -0.1398 0.4518 -0.1274
H7 H -0.0772 0.5314 -0.1654
C5 C -0.0621(6) 0.5112(4) 0.0097(6)
H8 H -0.1410 0.5076 0.0482
C6 C 0.0301(5) 0.4575(4) 0.0644(6)
H9 H -0.0043 0.4281 0.1292
C7 C 0.0899(6) 0.5843(3) 0.0707(5)
C8 C 0.1643(5) 0.6493(3) 0.1103(5)
C9 C 0.1433(6) 0.7250(3) 0.0733(5)
H10 H 0.0859 0.7347 0.0163
C10 C 0.2063(6) 0.7853(4) 0.1201(8)
H11 H 0.1906 0.8366 0.0954
C11 C 0.2912(6) 0.7732(4) 0.2013(8)
H12 H 0.3333 0.8155 0.2334
C12 C 0.3142(6) 0.6980(4) 0.2355(6)
H13 H 0.3734 0.6891 0.2911
C13 C 0.2535(4) 0.6360(3) 0.1912(4)
H14 H 0.2715 0.5848 0.2150
F2 F 0.1843(3) 0.0224(2) 0.4911(3)
O2 O 0.0637(4) 0.0629(2) 0.2590(3)
N2 N 0.0026(4) 0.1451(3) 0.3965(4)
C14 C -0.0389(9) -0.1210(4) 0.3961(8)
H15 H 0.0058 -0.1635 0.4307
H16 H -0.0676 -0.1371 0.3217
H17 H -0.1067 -0.1076 0.4440
C15 C 0.0414(7) -0.0511(3) 0.3834(5)
H18 H 0.1147 -0.0659 0.3407
C16 C 0.0759(6) -0.0210(3) 0.5002(6)
H19 H 0.0823 -0.0637 0.5567
C17 C -0.0235(6) 0.0352(4) 0.5289(5)
H20 H 0.0052 0.0750 0.5824
H21 H -0.0910 0.0073 0.5641
C18 C -0.0629(6) 0.0731(4) 0.4182(5)
H22 H -0.1509 0.0810 0.4154
C19 C -0.0195(6) 0.0171(3) 0.3249(5)
H23 H -0.0874 -0.0009 0.2772
C20 C 0.0681(5) 0.1333(3) 0.3098(5)
C21 C 0.1495(5) 0.1892(3) 0.2558(4)
C22 C 0.1518(5) 0.2661(3) 0.2945(5)
H24 H 0.1021 0.2817 0.3552
C23 C 0.2271(5) 0.3188(3) 0.2433(6)
H25 H 0.2294 0.3708 0.2691
C24 C 0.3003(5) 0.2956(3) 0.1535(5)
H26 H 0.3512 0.3322 0.1183
C25 C 0.2989(5) 0.2200(3) 0.1160(5)
H27 H 0.3494 0.2045 0.0559
C26 C 0.2237(5) 0.1671(3) 0.1662(4)
H28 H 0.2221 0.1152 0.1399
loop_
_geom_bond_atom_site_label_1
_geom_bond_atom_site_label_2
_geom_bond_site_symmetry_1
_geom_bond_site_symmetry_2
F1 C3 1_555 1_555
O1 C6 1_555 1_555
N1 C5 1_555 1_555
C1 H1 1_555 1_555
H2 C1 1_555 1_555
H3 C1 1_555 1_555
C2 C1 1_555 1_555
H4 C2 1_555 1_555
C3 C2 1_555 1_555
H5 C3 1_555 1_555
C4 C3 1_555 1_555
H6 C4 1_555 1_555
H7 C4 1_555 1_555
C5 C4 1_555 1_555
H8 C5 1_555 1_555
C6 C2 1_555 1_555
H9 C6 1_555 1_555
C7 O1 1_555 1_555
C8 C7 1_555 1_555
C9 C8 1_555 1_555
H10 C9 1_555 1_555
C10 C9 1_555 1_555
H11 C10 1_555 1_555
C11 C10 1_555 1_555
H12 C11 1_555 1_555
C12 C11 1_555 1_555
H13 C12 1_555 1_555
C13 C8 1_555 1_555
H14 C13 1_555 1_555
F2 C16 1_555 1_555
O2 C19 1_555 1_555
N2 C18 1_555 1_555
C14 H15 1_555 1_555
H16 C14 1_555 1_555
H17 C14 1_555 1_555
C15 C14 1_555 1_555
H18 C15 1_555 1_555
C16 C15 1_555 1_555
H19 C16 1_555 1_555
C17 C16 1_555 1_555
H20 C17 1_555 1_555
H21 C17 1_555 1_555
C18 C17 1_555 1_555
H22 C18 1_555 1_555
C19 C15 1_555 1_555
H23 C19 1_555 1_555
C20 O2 1_555 1_555
C21 C20 1_555 1_555
C22 C21 1_555 1_555
H24 C22 1_555 1_555
C23 C22 1_555 1_555
H25 C23 1_555 1_555
C24 C23 1_555 1_555
H26 C24 1_555 1_555
C25 C24 1_555 1_555
H27 C25 1_555 1_555
C26 C21 1_555 1_555
H28 C26 1_555 1_555
N1 C7 1_555 1_555
C5 C6 1_555 1_555
C12 C13 1_555 1_555
N2 C20 1_555 1_555
C18 C19 1_555 1_555
C25 C26 1_555 1_555

#END
