
#######################################################################
#
#                 Cambridge Crystallographic Data Centre
#                                CCDC 
#
#######################################################################
#
# If this CIF has been generated from an entry in the Cambridge 
# Structural Database, then it will include bibliographic, chemical, 
# crystal, experimental, refinement or atomic coordinate data resulting 
# from the CCDC's data processing and validation procedures.
#
#######################################################################

data_EDAKAY
_chemical_formula_moiety         'C28 H23 F1 N4 O5 Se1'
_chemical_name_systematic        
(E)-1-(2,4-dinitrophenyl)-2-(1-(2-fluorophenyl)-2-(4-methoxyphenyl)-3-(phenylselanyl)propylidene)hydrazine
_symmetry_cell_setting           monoclinic
_symmetry_space_group_name_H-M   'P 21/c'
_symmetry_Int_Tables_number      14
_space_group_name_Hall           '-P 2ybc'
loop_
_symmetry_equiv_pos_site_id
_symmetry_equiv_pos_as_xyz
1 x,y,z
2 -x,1/2+y,1/2-z
3 -x,-y,-z
4 x,1/2-y,1/2+z
_cell_length_a                   13.0995(6)
_cell_length_b                   13.8051(5)
_cell_length_c                   15.6445(5)
_cell_angle_alpha                90
_cell_angle_beta                 112.120(5)
_cell_angle_gamma                90
_cell_volume                     2620.92
_exptl_crystal_colour            yellow
_exptl_crystal_description       prismatic
_cell_formula_units_Z            4
loop_
_atom_site_label
_atom_site_type_symbol
_atom_site_fract_x
_atom_site_fract_y
_atom_site_fract_z
Se1 Se 0.09661(3) 0.16442(3) 0.69895(2)
F1 F 0.2323(3) 0.3325(2) 0.4433(2)
N1 N 0.0883(2) 0.1128(2) 0.39911(17)
N2 N 0.0911(2) 0.1057(2) 0.31209(17)
H1 H 0.1533 0.1085 0.3055
N3 N 0.0965(3) 0.0947(2) 0.1276(2)
N4 N -0.3016(3) 0.0764(3) 0.0033(2)
O1 O 0.4616(2) -0.1553(2) 0.76533(19)
O2 O 0.1863(2) 0.0909(2) 0.1924(2)
O3 O 0.0892(2) 0.1021(3) 0.04748(18)
O4 O -0.2995(3) 0.0940(3) -0.0724(2)
O5 O -0.3857(2) 0.0574(3) 0.0152(2)
C1 C 0.0715(3) 0.1450(3) 0.5685(2)
H2 H 0.0371 0.0826 0.5475
H3 H 0.0239 0.1953 0.5310
C2 C 0.1851(3) 0.1492(3) 0.5614(2)
H4 H 0.2184 0.2118 0.5862
C3 C 0.1776(3) 0.1428(2) 0.4624(2)
C4 C 0.2778(3) 0.1717(3) 0.4453(2)
C5 C 0.3512(3) 0.1021(4) 0.4364(3)
H5 H 0.3397 0.0365 0.4429
C6 C 0.4419(4) 0.1337(4) 0.4176(3)
H6 H 0.4910 0.0882 0.4114
C7 C 0.4603(4) 0.2295(4) 0.4082(3)
H7 H 0.5212 0.2485 0.3953
C8 C 0.3902(4) 0.2976(4) 0.4174(3)
H8 H 0.4026 0.3631 0.4117
C9 C 0.3004(3) 0.2669(3) 0.4354(2)
C10 C 0.2627(3) 0.0701(3) 0.6173(2)
C11 C 0.2386(3) -0.0266(3) 0.5941(2)
H9 H 0.1753 -0.0423 0.5436
C12 C 0.3060(3) -0.0997(3) 0.6440(2)
H10 H 0.2877 -0.1640 0.6275
C13 C 0.4014(3) -0.0779(3) 0.7192(2)
C14 C 0.4274(3) 0.0180(3) 0.7422(2)
H11 H 0.4914 0.0339 0.7920
C15 C 0.3585(3) 0.0906(3) 0.6913(2)
H12 H 0.3773 0.1549 0.7073
C16 C 0.5574(5) -0.1363(5) 0.8451(3)
H13 H 0.6086 -0.0990 0.8281
H14 H 0.5910 -0.1965 0.8720
H15 H 0.5372 -0.1008 0.8891
C17 C -0.0495(3) 0.1630(2) 0.6970(3)
C18 C -0.1436(4) 0.1726(3) 0.6176(3)
H16 H -0.1381 0.1796 0.5603
C19 C -0.2455(4) 0.1716(3) 0.6248(4)
H17 H -0.3089 0.1772 0.5718
C20 C -0.2546(5) 0.1626(4) 0.7086(5)
H18 H -0.3238 0.1616 0.7123
C21 C -0.1620(5) 0.1551(4) 0.7870(4)
H19 H -0.1683 0.1503 0.8441
C22 C -0.0588(4) 0.1545(3) 0.7819(3)
H20 H 0.0040 0.1483 0.8353
C23 C -0.0024(3) 0.0946(2) 0.2373(2)
C24 C -0.0038(3) 0.0908(2) 0.1462(2)
C25 C -0.1008(3) 0.0845(2) 0.0705(2)
H21 H -0.1002 0.0835 0.0112
C26 C -0.1978(3) 0.0798(2) 0.0836(2)
C27 C -0.2007(3) 0.0812(3) 0.1716(2)
H22 H -0.2676 0.0765 0.1793
C28 C -0.1054(3) 0.0895(2) 0.2458(2)
H23 H -0.1081 0.0920 0.3044
loop_
_geom_bond_atom_site_label_1
_geom_bond_atom_site_label_2
_geom_bond_site_symmetry_1
_geom_bond_site_symmetry_2
Se1 C1 1_555 1_555
F1 C9 1_555 1_555
N1 N2 1_555 1_555
N2 H1 1_555 1_555
N3 O2 1_555 1_555
N4 O4 1_555 1_555
O1 C13 1_555 1_555
O3 N3 1_555 1_555
O5 N4 1_555 1_555
C1 H2 1_555 1_555
H3 C1 1_555 1_555
C2 C1 1_555 1_555
H4 C2 1_555 1_555
C3 N1 1_555 1_555
C4 C3 1_555 1_555
C5 C4 1_555 1_555
H5 C5 1_555 1_555
C6 C5 1_555 1_555
H6 C6 1_555 1_555
C7 C6 1_555 1_555
H7 C7 1_555 1_555
C8 C7 1_555 1_555
H8 C8 1_555 1_555
C9 C4 1_555 1_555
C10 C2 1_555 1_555
C11 C10 1_555 1_555
H9 C11 1_555 1_555
C12 C11 1_555 1_555
H10 C12 1_555 1_555
C13 C12 1_555 1_555
C14 C13 1_555 1_555
H11 C14 1_555 1_555
C15 C10 1_555 1_555
H12 C15 1_555 1_555
C16 O1 1_555 1_555
H13 C16 1_555 1_555
H14 C16 1_555 1_555
H15 C16 1_555 1_555
C17 Se1 1_555 1_555
C18 C17 1_555 1_555
H16 C18 1_555 1_555
C19 C18 1_555 1_555
H17 C19 1_555 1_555
C20 C19 1_555 1_555
H18 C20 1_555 1_555
C21 C20 1_555 1_555
H19 C21 1_555 1_555
C22 C17 1_555 1_555
H20 C22 1_555 1_555
C23 N2 1_555 1_555
C24 N3 1_555 1_555
C25 C24 1_555 1_555
H21 C25 1_555 1_555
C26 N4 1_555 1_555
C27 C26 1_555 1_555
H22 C27 1_555 1_555
C28 C23 1_555 1_555
H23 C28 1_555 1_555
C2 C3 1_555 1_555
C8 C9 1_555 1_555
C14 C15 1_555 1_555
C21 C22 1_555 1_555
C23 C24 1_555 1_555
C25 C26 1_555 1_555
C27 C28 1_555 1_555

#END
