
#######################################################################
#
#                 Cambridge Crystallographic Data Centre
#                                CCDC 
#
#######################################################################
#
# If this CIF has been generated from an entry in the Cambridge 
# Structural Database, then it will include bibliographic, chemical, 
# crystal, experimental, refinement or atomic coordinate data resulting 
# from the CCDC's data processing and validation procedures.
#
#######################################################################

data_EDAKEC
_chemical_formula_moiety         'C28 H24 N4 O5 Se1'
_chemical_name_systematic        
(E)-1-(2,4-dinitrophenyl)-2-(2-(4-methoxyphenyl)-1-phenyl-3-(phenylselanyl)propylidene)hydrazine
_symmetry_cell_setting           triclinic
_symmetry_space_group_name_H-M   'P -1'
_symmetry_Int_Tables_number      2
_space_group_name_Hall           '-P 1'
loop_
_symmetry_equiv_pos_site_id
_symmetry_equiv_pos_as_xyz
1 x,y,z
2 -x,-y,-z
_cell_length_a                   11.1051(8)
_cell_length_b                   11.6556(7)
_cell_length_c                   12.5568(9)
_cell_angle_alpha                65.997(6)
_cell_angle_beta                 65.067(7)
_cell_angle_gamma                67.782(6)
_cell_volume                     1303.82
_exptl_crystal_colour            yellow
_exptl_crystal_description       prismatic
_cell_formula_units_Z            2
loop_
_atom_site_label
_atom_site_type_symbol
_atom_site_fract_x
_atom_site_fract_y
_atom_site_fract_z
Se1 Se 0.24739(3) 0.18378(3) 0.70430(3)
N1 N 0.6735(2) 0.1621(2) 0.39882(19)
N2 N 0.8023(2) 0.1624(2) 0.31153(19)
H1 H 0.8123 0.2253 0.2445
N3 N 1.0756(2) 0.1639(2) 0.1312(2)
N4 N 1.2551(3) -0.2401(3) 0.4046(3)
O1 O 0.0749(2) 0.3764(2) 0.2127(2)
O2 O 0.9793(2) 0.2454(2) 0.09755(18)
O3 O 1.19549(19) 0.16199(19) 0.06960(18)
O4 O 1.3699(2) -0.2296(2) 0.3344(2)
O5 O 1.2334(2) -0.3328(2) 0.4963(2)
C1 C 0.4268(3) 0.1548(3) 0.5798(2)
H2 H 0.4984 0.1346 0.6143
H3 H 0.4398 0.0818 0.5541
C2 C 0.4365(2) 0.2752(3) 0.4698(2)
H4 H 0.4140 0.3484 0.5002
C3 C 0.5800(2) 0.2662(3) 0.3777(2)
C4 C 0.6015(2) 0.3807(2) 0.2674(2)
C5 C 0.6208(3) 0.3750(3) 0.1533(3)
H5 H 0.6148 0.3010 0.1463
C6 C 0.6487(3) 0.4781(3) 0.0496(3)
H6 H 0.6612 0.4736 -0.0268
C7 C 0.6579(3) 0.5867(3) 0.0595(3)
H7 H 0.6787 0.6555 -0.0105
C8 C 0.6367(3) 0.5947(3) 0.1718(3)
H8 H 0.6417 0.6695 0.1780
C9 C 0.6079(3) 0.4924(3) 0.2763(3)
H9 H 0.5929 0.4987 0.3526
C10 C 0.3355(2) 0.3069(2) 0.4031(2)
C11 C 0.3518(3) 0.2254(2) 0.3405(2)
H10 H 0.4236 0.1510 0.3411
C12 C 0.2648(3) 0.2516(3) 0.2777(2)
H11 H 0.2778 0.1952 0.2363
C13 C 0.1578(3) 0.3615(3) 0.2758(2)
C14 C 0.1390(3) 0.4454(3) 0.3357(3)
H12 H 0.0676 0.5202 0.3338
C15 C 0.2290(3) 0.4169(3) 0.4002(3)
H13 H 0.2165 0.4732 0.4415
C16 C -0.0252(3) 0.4968(3) 0.1912(4)
H14 H -0.0950 0.5047 0.2677
H15 H -0.0659 0.4994 0.1360
H16 H 0.0180 0.5672 0.1554
C17 C 0.2845(3) 0.0362(3) 0.8386(2)
C18 C 0.4027(3) 0.0008(3) 0.8695(3)
H17 H 0.4685 0.0483 0.8231
C19 C 0.4221(3) -0.1042(3) 0.9686(3)
H18 H 0.5022 -0.1282 0.9878
C20 C 0.3256(4) -0.1742(3) 1.0398(3)
H19 H 0.3401 -0.2455 1.1067
C21 C 0.2074(4) -0.1381(3) 1.0115(3)
H20 H 0.1403 -0.1838 1.0606
C22 C 0.1873(3) -0.0341(3) 0.9101(3)
H21 H 0.1079 -0.0117 0.8904
C23 C 0.9116(2) 0.0647(2) 0.3311(2)
C24 C 1.0466(2) 0.0632(2) 0.2482(2)
C25 C 1.1578(2) -0.0356(3) 0.2728(2)
H22 H 1.2457 -0.0340 0.2179
C26 C 1.1374(3) -0.1360(3) 0.3790(2)
C27 C 1.0065(3) -0.1400(3) 0.4617(3)
H23 H 0.9938 -0.2097 0.5326
C28 C 0.8973(3) -0.0417(3) 0.4384(2)
H24 H 0.8104 -0.0446 0.4949
loop_
_geom_bond_atom_site_label_1
_geom_bond_atom_site_label_2
_geom_bond_site_symmetry_1
_geom_bond_site_symmetry_2
Se1 C1 1_555 1_555
N1 N2 1_555 1_555
N2 H1 1_555 1_555
N3 O2 1_555 1_555
N4 O4 1_555 1_555
O1 C13 1_555 1_555
O3 N3 1_555 1_555
O5 N4 1_555 1_555
C1 H2 1_555 1_555
H3 C1 1_555 1_555
C2 C1 1_555 1_555
H4 C2 1_555 1_555
C3 N1 1_555 1_555
C4 C3 1_555 1_555
C5 C4 1_555 1_555
H5 C5 1_555 1_555
C6 C5 1_555 1_555
H6 C6 1_555 1_555
C7 C6 1_555 1_555
H7 C7 1_555 1_555
C8 C7 1_555 1_555
H8 C8 1_555 1_555
C9 C4 1_555 1_555
H9 C9 1_555 1_555
C10 C2 1_555 1_555
C11 C10 1_555 1_555
H10 C11 1_555 1_555
C12 C11 1_555 1_555
H11 C12 1_555 1_555
C13 C12 1_555 1_555
C14 C13 1_555 1_555
H12 C14 1_555 1_555
C15 C10 1_555 1_555
H13 C15 1_555 1_555
C16 O1 1_555 1_555
H14 C16 1_555 1_555
H15 C16 1_555 1_555
H16 C16 1_555 1_555
C17 Se1 1_555 1_555
C18 C17 1_555 1_555
H17 C18 1_555 1_555
C19 C18 1_555 1_555
H18 C19 1_555 1_555
C20 C19 1_555 1_555
H19 C20 1_555 1_555
C21 C20 1_555 1_555
H20 C21 1_555 1_555
C22 C17 1_555 1_555
H21 C22 1_555 1_555
C23 N2 1_555 1_555
C24 N3 1_555 1_555
C25 C24 1_555 1_555
H22 C25 1_555 1_555
C26 N4 1_555 1_555
C27 C26 1_555 1_555
H23 C27 1_555 1_555
C28 C23 1_555 1_555
H24 C28 1_555 1_555
C2 C3 1_555 1_555
C8 C9 1_555 1_555
C14 C15 1_555 1_555
C21 C22 1_555 1_555
C23 C24 1_555 1_555
C25 C26 1_555 1_555
C27 C28 1_555 1_555

#END
