
#######################################################################
#
#                 Cambridge Crystallographic Data Centre
#                                CCDC 
#
#######################################################################
#
# If this CIF has been generated from an entry in the Cambridge 
# Structural Database, then it will include bibliographic, chemical, 
# crystal, experimental, refinement or atomic coordinate data resulting 
# from the CCDC's data processing and validation procedures.
#
#######################################################################

data_EDALIG
_chemical_formula_moiety         'C25 H28 Cl1 N1 O6'
_chemical_name_systematic        
"(1S,2S,3S,4S,E)-1'-t-Butyl 3-ethyl 5'-chloro-2'-oxo-5-(2-oxoethylidene)spiro[bicyclo[2.2.2]octane-2,3'-indoline]-1',3-dicarboxylate"
_symmetry_cell_setting           triclinic
_symmetry_space_group_name_H-M   'P 1'
_symmetry_Int_Tables_number      1
_space_group_name_Hall           'P 1'
loop_
_symmetry_equiv_pos_site_id
_symmetry_equiv_pos_as_xyz
1 x,y,z
_cell_length_a                   7.61622(15)
_cell_length_b                   12.3664(3)
_cell_length_c                   13.3676(2)
_cell_angle_alpha                75.4211(17)
_cell_angle_beta                 89.7585(15)
_cell_angle_gamma                75.0582(18)
_cell_volume                     1174.81
_exptl_crystal_colour            colorless
_exptl_crystal_description       block
_cell_formula_units_Z            2
loop_
_atom_site_label
_atom_site_type_symbol
_atom_site_fract_x
_atom_site_fract_y
_atom_site_fract_z
Cl1 Cl -0.05268(10) -0.11635(6) 0.82944(5)
C1 C -0.2545(5) 0.2320(3) 0.7515(3)
H1 H -0.2466 0.1618 0.7313
H2 H -0.3566 0.2463 0.7931
H3 H -0.1447 0.2243 0.7908
O1 O -0.2651(3) 0.22526(19) 0.50263(19)
O2 O -0.1232(3) 0.31058(18) 0.59431(16)
O3 O 0.0139(3) 0.16314(17) 0.26959(16)
C2 C 0.0967(4) 0.1046(2) 0.4550(2)
N1 N -0.0639(3) 0.00264(19) 0.37433(18)
O4 O 0.4092(3) 0.1053(2) 0.86568(18)
C3 C 0.0265(4) 0.0174(2) 0.5337(2)
C4 C 0.0305(4) -0.0059(2) 0.6410(2)
H4 H 0.0862 0.0338 0.6759
O5 O -0.2369(4) -0.1068(2) 0.3313(2)
O6 O -0.1218(4) 0.0108(2) 0.20822(18)
C5 C 0.3910(4) 0.0612(2) 0.5617(2)
H5 H 0.3678 -0.0047 0.6117
H6 H 0.5217 0.0498 0.5601
C6 C -0.0506(4) -0.0901(2) 0.6949(2)
C7 C -0.1321(4) 0.2546(2) 0.5226(2)
C8 C 0.0390(3) 0.2328(2) 0.4643(2)
H7 H 0.0053 0.2814 0.3934
C9 C 0.2041(4) 0.2666(2) 0.5020(2)
H8 H 0.1644 0.3406 0.5204
C10 C 0.0139(3) 0.0980(2) 0.3528(2)
C11 C 0.3278(4) 0.2765(2) 0.4109(2)
H9 H 0.4387 0.2922 0.4317
H10 H 0.2662 0.3404 0.3534
C12 C 0.3755(4) 0.1620(3) 0.3765(2)
H11 H 0.3175 0.1751 0.3084
H12 H 0.5062 0.1357 0.3723
C13 C 0.3126(4) 0.1871(2) 0.6880(2)
H13 H 0.2557 0.2596 0.6975
C14 C 0.4060(4) 0.0958(3) 0.7779(2)
H14 H 0.4677 0.0249 0.7667
C15 C -0.0624(4) -0.0417(2) 0.4831(2)
C16 C -0.1419(4) -0.1267(2) 0.5380(2)
H15 H -0.1985 -0.1666 0.5037
C17 C 0.3048(3) 0.1720(2) 0.5934(2)
C18 C -0.1498(5) -0.0372(3) 0.3028(2)
C19 C -0.1343(4) -0.1502(2) 0.6453(2)
H16 H -0.1859 -0.2067 0.6838
C20 C 0.3100(4) 0.0701(2) 0.4545(2)
H17 H 0.3521 -0.0046 0.4376
C21 C -0.1373(6) -0.1424(3) 0.1226(3)
H18 H -0.1787 -0.1898 0.1814
H19 H -0.0067 -0.1615 0.1276
H20 H -0.1783 -0.1561 0.0602
C22 C -0.2145(6) -0.0143(3) 0.1204(3)
C23 C -0.4216(6) 0.0196(3) 0.1272(3)
H21 H -0.4799 0.0180 0.0643
H22 H -0.4602 0.0963 0.1371
H23 H -0.4545 -0.0342 0.1846
C24 C -0.1570(9) 0.0638(4) 0.0281(3)
H24 H -0.0267 0.0412 0.0267
H25 H -0.1961 0.1425 0.0330
H26 H -0.2112 0.0576 -0.0341
C25 C -0.2786(4) 0.3310(3) 0.6568(3)
H27 H -0.3892 0.3389 0.6168
H28 H -0.2898 0.4025 0.6770
C26 C 0.0485(4) 0.4379(2) 1.1381(2)
H29 H 0.1063 0.3652 1.1806
C27 C 0.4593(4) 0.7647(3) 0.8103(2)
H30 H 0.5023 0.8073 0.7524
C28 C 0.4634(4) 0.7899(2) 0.9042(2)
H31 H 0.5090 0.8510 0.9104
C29 C 0.3882(4) 0.6726(2) 0.8044(2)
C30 C 0.3143(4) 0.3920(2) 0.9313(2)
H32 H 0.3502 0.3409 0.8852
O7 O -0.0395(3) 0.5149(2) 1.28084(18)
C31 C -0.0386(4) 0.5273(3) 1.1886(2)
H33 H -0.0983 0.5997 1.1464
O8 O 0.3705(4) 0.6258(2) 0.55115(18)
O9 O 0.5175(5) 0.7401(3) 0.6038(2)
C32 C 0.4307(5) 0.6702(2) 0.6189(2)
C33 C 0.6044(5) 0.4118(3) 1.2142(3)
H34 H 0.6227 0.4775 1.1634
H35 H 0.6905 0.3921 1.2724
H36 H 0.4829 0.4303 1.2367
C34 C 0.6308(5) 0.3120(3) 1.1681(3)
H37 H 0.7411 0.3048 1.1309
H38 H 0.6447 0.2413 1.2227
O10 O 0.6155(3) 0.4065(2) 0.9603(2)
C35 C 0.4139(6) 0.6510(3) 0.4401(2)
C36 C 0.3583(9) 0.7794(3) 0.3907(3)
H39 H 0.3634 0.7932 0.3169
H40 H 0.4397 0.8153 0.4165
H41 H 0.2363 0.8117 0.4071
C37 C 0.6190(9) 0.6036(6) 0.4368(5)
H42 H 0.6535 0.5219 0.4691
H43 H 0.6813 0.6420 0.4733
H44 H 0.6512 0.6172 0.3661
C38 C 0.3121(13) 0.5863(7) 0.3962(4)
H45 H 0.3685 0.5047 0.4214
H46 H 0.3121 0.6085 0.3220
H47 H 0.1890 0.6031 0.4165
Cl2 Cl 0.41356(12) 0.75714(7) 1.10979(6)
O11 O 0.3229(3) 0.45306(17) 0.70269(17)
O12 O 0.4754(3) 0.32763(19) 1.09700(17)
C39 C 0.2500(4) 0.5176(2) 0.8596(2)
C40 C 0.3192(4) 0.5236(2) 0.7515(2)
C41 C 0.0525(4) 0.4515(2) 1.0359(2)
C42 C 0.3248(4) 0.6362(2) 0.9850(2)
H48 H 0.2801 0.5949 1.0430
N2 N 0.3752(3) 0.62611(19) 0.71826(18)
C43 C 0.4851(4) 0.3775(2) 0.9970(2)
C44 C 0.4000(4) 0.7252(3) 0.9901(2)
C45 C 0.0283(4) 0.3413(2) 0.9072(2)
H49 H -0.0786 0.3224 0.9387
H50 H 0.0919 0.2780 0.8789
C46 C 0.1536(4) 0.3568(2) 0.9891(2)
H51 H 0.1977 0.2841 1.0430
C47 C -0.0302(4) 0.4552(3) 0.8190(2)
H52 H 0.0217 0.4423 0.7552
H53 H -0.1618 0.4791 0.8075
C48 C 0.0355(4) 0.5500(2) 0.8488(2)
H54 H -0.0107 0.6236 0.7963
C49 C 0.3186(3) 0.6107(2) 0.8895(2)
C50 C -0.0392(4) 0.5610(2) 0.9534(2)
H55 H -0.0148 0.6278 0.9702
H56 H -0.1699 0.5715 0.9501
loop_
_geom_bond_atom_site_label_1
_geom_bond_atom_site_label_2
_geom_bond_site_symmetry_1
_geom_bond_site_symmetry_2
Cl1 C6 1_555 1_555
C1 H1 1_555 1_555
H2 C1 1_555 1_555
H3 C1 1_555 1_555
O1 C7 1_555 1_555
O2 C7 1_555 1_555
O3 C10 1_555 1_555
C2 C3 1_555 1_555
N1 C10 1_555 1_555
O4 C14 1_555 1_555
C3 C4 1_555 1_555
C4 H4 1_555 1_555
O5 C18 1_555 1_555
O6 C18 1_555 1_555
C5 H5 1_555 1_555
H6 C5 1_555 1_555
C6 C4 1_555 1_555
C7 C8 1_555 1_555
C8 C2 1_555 1_555
H7 C8 1_555 1_555
C9 C8 1_555 1_555
H8 C9 1_555 1_555
C10 C2 1_555 1_555
C11 C9 1_555 1_555
H9 C11 1_555 1_555
H10 C11 1_555 1_555
C12 C11 1_555 1_555
H11 C12 1_555 1_555
H12 C12 1_555 1_555
C13 H13 1_555 1_555
C14 C13 1_555 1_555
H14 C14 1_555 1_555
C15 N1 1_555 1_555
C16 C15 1_555 1_555
H15 C16 1_555 1_555
C17 C5 1_555 1_555
C18 N1 1_555 1_555
C19 C6 1_555 1_555
H16 C19 1_555 1_555
C20 C2 1_555 1_555
H17 C20 1_555 1_555
C21 H18 1_555 1_555
H19 C21 1_555 1_555
H20 C21 1_555 1_555
C22 O6 1_555 1_555
C23 C22 1_555 1_555
H21 C23 1_555 1_555
H22 C23 1_555 1_555
H23 C23 1_555 1_555
C24 C22 1_555 1_555
H24 C24 1_555 1_555
H25 C24 1_555 1_555
H26 C24 1_555 1_555
C25 C1 1_555 1_555
H27 C25 1_555 1_555
H28 C25 1_555 1_555
C26 H29 1_555 1_555
C27 H30 1_555 1_555
C28 C27 1_555 1_555
H31 C28 1_555 1_555
C29 C27 1_555 1_555
C30 H32 1_555 1_555
O7 C31 1_555 1_555
C31 C26 1_555 1_555
H33 C31 1_555 1_555
O8 C32 1_555 1_555
O9 C32 1_555 1_555
C32 N2 1_555 1_555
C33 H34 1_555 1_555
H35 C33 1_555 1_555
H36 C33 1_555 1_555
C34 C33 1_555 1_555
H37 C34 1_555 1_555
H38 C34 1_555 1_555
O10 C43 1_555 1_555
C35 O8 1_555 1_555
C36 C35 1_555 1_555
H39 C36 1_555 1_555
H40 C36 1_555 1_555
H41 C36 1_555 1_555
C37 C35 1_555 1_555
H42 C37 1_555 1_555
H43 C37 1_555 1_555
H44 C37 1_555 1_555
C38 C35 1_555 1_555
H45 C38 1_555 1_555
H46 C38 1_555 1_555
H47 C38 1_555 1_555
Cl2 C44 1_555 1_555
O11 C40 1_555 1_555
O12 C34 1_555 1_555
C39 C30 1_555 1_555
C40 C39 1_555 1_555
C41 C26 1_555 1_555
C42 H48 1_555 1_555
N2 C29 1_555 1_555
C43 C30 1_555 1_555
C44 C28 1_555 1_555
C45 H49 1_555 1_555
H50 C45 1_555 1_555
C46 C30 1_555 1_555
H51 C46 1_555 1_555
C47 C45 1_555 1_555
H52 C47 1_555 1_555
H53 C47 1_555 1_555
C48 C39 1_555 1_555
H54 C48 1_555 1_555
C49 C29 1_555 1_555
C50 C41 1_555 1_555
H55 C50 1_555 1_555
H56 C50 1_555 1_555
O2 C25 1_555 1_555
C3 C15 1_555 1_555
C5 C20 1_555 1_555
C9 C17 1_555 1_555
C12 C20 1_555 1_555
C13 C17 1_555 1_555
C16 C19 1_555 1_555
C21 C22 1_555 1_555
O12 C43 1_555 1_555
C39 C49 1_555 1_555
C40 N2 1_555 1_555
C41 C46 1_555 1_555
C42 C44 1_555 1_555
C42 C49 1_555 1_555
C45 C46 1_555 1_555
C47 C48 1_555 1_555
C48 C50 1_555 1_555

#END
