
#######################################################################
#
#                 Cambridge Crystallographic Data Centre
#                                CCDC 
#
#######################################################################
#
# If this CIF has been generated from an entry in the Cambridge 
# Structural Database, then it will include bibliographic, chemical, 
# crystal, experimental, refinement or atomic coordinate data resulting 
# from the CCDC's data processing and validation procedures.
#
#######################################################################

data_EDALOM
_chemical_formula_moiety         'C33 H41 Cl1 N2 O5 S1 Si1'
_chemical_name_systematic        
"(1R,2S,3S,4S)-Ethyl 6-(tert-butyldimethylsilyloxy)-6'-chloro-2'-oxo-5-((E)-2-((S)-ptolylsulfinylimino)ethyl)spiro[bicyclo[2.2.2]oct[5]ene-2,3'-indoline]-3-carboxylate"
_symmetry_cell_setting           orthorhombic
_symmetry_space_group_name_H-M   'P 21 21 21'
_symmetry_Int_Tables_number      19
_space_group_name_Hall           'P 2ac 2ab'
loop_
_symmetry_equiv_pos_site_id
_symmetry_equiv_pos_as_xyz
1 x,y,z
2 1/2-x,-y,1/2+z
3 1/2+x,1/2-y,-z
4 -x,1/2+y,1/2-z
_cell_length_a                   10.9824(4)
_cell_length_b                   15.9803(7)
_cell_length_c                   18.9154(8)
_cell_angle_alpha                90
_cell_angle_beta                 90
_cell_angle_gamma                90
_cell_volume                     3319.69
_exptl_crystal_colour            'light colorless'
_exptl_crystal_description       block
_cell_formula_units_Z            4
loop_
_atom_site_label
_atom_site_type_symbol
_atom_site_fract_x
_atom_site_fract_y
_atom_site_fract_z
Si1 Si -0.94960(4) 0.15236(3) -0.63118(3)
S1 S -1.00389(5) -0.22727(3) -0.61851(2)
Cl1 Cl -0.36570(5) 0.16930(4) -0.65514(3)
O1 O -0.49600(12) -0.02352(9) -0.88156(7)
O2 O -0.78009(13) 0.09008(10) -0.96481(7)
O3 O -0.81819(12) 0.12388(8) -0.66953(7)
O4 O -0.94761(16) -0.25315(9) -0.55028(7)
O5 O -0.53502(13) -0.08139(9) -0.77535(8)
N1 N -0.63327(15) 0.17916(10) -0.92235(8)
H1 H -0.6256 0.2117 -0.9596
C1 C -0.81305(16) 0.06889(11) -0.72511(9)
C2 C -0.74942(17) -0.05536(12) -0.65260(10)
H2 H -0.6660 -0.0773 -0.6596
H3 H -0.7451 -0.0126 -0.6148
C3 C -0.71514(17) 0.11530(12) -0.91711(9)
C4 C -0.54474(17) 0.12499(12) -0.74563(9)
H4 H -0.5713 0.0874 -0.7099
C5 C -0.78758(15) -0.01254(11) -0.71955(9)
C6 C -1.03717(19) 0.22142(14) -0.69169(11)
H5 H -1.0635 0.1893 -0.7331
H6 H -0.9855 0.2680 -0.7070
H7 H -1.1087 0.2434 -0.6669
C7 C -0.79098(16) -0.05618(11) -0.79081(9)
H8 H -0.7748 -0.1174 -0.7851
C8 C -0.8286(2) 0.28892(13) -0.56929(13)
H9 H -0.8787 0.3258 -0.5987
H10 H -0.7555 0.2725 -0.5956
H11 H -0.8047 0.3185 -0.5261
C9 C -0.56892(17) -0.04462(11) -0.82726(10)
C10 C -0.69792(16) -0.01691(11) -0.84190(10)
H12 H -0.7192 -0.0360 -0.8907
N2 N -0.92721(16) -0.14481(10) -0.65602(8)
C11 C -0.40575(18) 0.23385(13) -0.78499(11)
H13 H -0.3377 0.2688 -0.7754
C12 C -0.71024(15) 0.08087(11) -0.84041(9)
C13 C -0.46550(18) 0.23956(12) -0.84972(11)
H14 H -0.4402 0.2785 -0.8847
C14 C -0.56329(17) 0.18646(11) -0.86124(9)
C15 C -0.83105(16) 0.10103(11) -0.79951(9)
H15 H -0.8469 0.1627 -0.7992
C16 C -0.8237(2) 0.15417(15) -0.50270(11)
H16 H -0.7479 0.1401 -0.5273
H17 H -0.8686 0.1027 -0.4921
H18 H -0.8046 0.1835 -0.4585
C17 C -1.1635(2) -0.14900(16) -0.52773(11)
H19 H -1.1110 -0.1672 -0.4909
C18 C -1.0412(2) 0.05793(13) -0.60973(12)
H20 H -1.0009 0.0263 -0.5720
H21 H -1.0486 0.0227 -0.6519
H22 H -1.1225 0.0750 -0.5939
C19 C -1.2143(2) -0.14243(16) -0.65151(11)
H23 H -1.1966 -0.1565 -0.6992
C20 C -0.91795(17) -0.04184(12) -0.82404(10)
H24 H -0.9817 -0.0662 -0.7933
H25 H -0.9223 -0.0696 -0.8708
C21 C -0.82739(18) -0.12545(11) -0.62666(10)
H26 H -0.8012 -0.1567 -0.5867
C22 C -1.2674(2) -0.10414(16) -0.51229(12)
H27 H -1.2860 -0.0918 -0.4644
C23 C -1.1366(2) -0.16728(13) -0.59766(10)
C24 C -0.44521(18) 0.17766(13) -0.73478(10)
C25 C -0.90162(18) 0.21071(13) -0.54980(10)
C26 C -0.36893(18) -0.04857(14) -0.87563(13)
H28 H -0.3323 -0.0508 -0.9234
H29 H -0.3645 -0.1054 -0.8549
C27 C -1.3176(2) -0.09706(16) -0.63521(12)
H30 H -1.3702 -0.0796 -0.6722
C28 C -0.60340(16) 0.12942(11) -0.81029(9)
C29 C -0.29683(19) 0.01123(16) -0.83020(13)
H31 H -0.3253 0.0076 -0.7812
H32 H -0.3081 0.0685 -0.8476
H33 H -0.2103 -0.0035 -0.8323
C30 C -0.93924(16) 0.05368(12) -0.83252(10)
H34 H -0.9464 0.0681 -0.8833
H35 H -1.0158 0.0700 -0.8086
C31 C -1.4588(2) -0.0278(2) -0.54673(14)
H36 H -1.4385 0.0146 -0.5111
H37 H -1.5204 -0.0660 -0.5277
H38 H -1.4908 -0.0002 -0.5891
C32 C -1.3462(2) -0.07636(17) -0.56561(12)
C33 C -1.0168(2) 0.2370(2) -0.50962(14)
H39 H -1.0661 0.1874 -0.4992
H40 H -1.0641 0.2760 -0.5387
H41 H -0.9937 0.2645 -0.4653
loop_
_geom_bond_atom_site_label_1
_geom_bond_atom_site_label_2
_geom_bond_site_symmetry_1
_geom_bond_site_symmetry_2
Si1 O3 1_555 1_555
S1 O4 1_555 1_555
Cl1 C24 1_555 1_555
O1 C9 1_555 1_555
O2 C3 1_555 1_555
O3 C1 1_555 1_555
O5 C9 1_555 1_555
N1 H1 1_555 1_555
C1 C5 1_555 1_555
C2 H2 1_555 1_555
H3 C2 1_555 1_555
C3 N1 1_555 1_555
C4 H4 1_555 1_555
C5 C2 1_555 1_555
C6 Si1 1_555 1_555
H5 C6 1_555 1_555
H6 C6 1_555 1_555
H7 C6 1_555 1_555
C7 C5 1_555 1_555
H8 C7 1_555 1_555
C8 H9 1_555 1_555
H10 C8 1_555 1_555
H11 C8 1_555 1_555
C9 C10 1_555 1_555
C10 C7 1_555 1_555
H12 C10 1_555 1_555
N2 S1 1_555 1_555
C11 H13 1_555 1_555
C12 C3 1_555 1_555
C13 C11 1_555 1_555
H14 C13 1_555 1_555
C14 N1 1_555 1_555
C15 C1 1_555 1_555
H15 C15 1_555 1_555
C16 H16 1_555 1_555
H17 C16 1_555 1_555
H18 C16 1_555 1_555
C17 H19 1_555 1_555
C18 Si1 1_555 1_555
H20 C18 1_555 1_555
H21 C18 1_555 1_555
H22 C18 1_555 1_555
C19 H23 1_555 1_555
C20 C7 1_555 1_555
H24 C20 1_555 1_555
H25 C20 1_555 1_555
C21 C2 1_555 1_555
H26 C21 1_555 1_555
C22 C17 1_555 1_555
H27 C22 1_555 1_555
C23 S1 1_555 1_555
C24 C4 1_555 1_555
C25 Si1 1_555 1_555
C26 O1 1_555 1_555
H28 C26 1_555 1_555
H29 C26 1_555 1_555
C27 C19 1_555 1_555
H30 C27 1_555 1_555
C28 C4 1_555 1_555
C29 C26 1_555 1_555
H31 C29 1_555 1_555
H32 C29 1_555 1_555
H33 C29 1_555 1_555
C30 C15 1_555 1_555
H34 C30 1_555 1_555
H35 C30 1_555 1_555
C31 H36 1_555 1_555
H37 C31 1_555 1_555
H38 C31 1_555 1_555
C32 C22 1_555 1_555
C33 C25 1_555 1_555
H39 C33 1_555 1_555
H40 C33 1_555 1_555
H41 C33 1_555 1_555
C8 C25 1_555 1_555
C10 C12 1_555 1_555
N2 C21 1_555 1_555
C11 C24 1_555 1_555
C12 C15 1_555 1_555
C12 C28 1_555 1_555
C13 C14 1_555 1_555
C14 C28 1_555 1_555
C16 C25 1_555 1_555
C17 C23 1_555 1_555
C19 C23 1_555 1_555
C20 C30 1_555 1_555
C27 C32 1_555 1_555
C31 C32 1_555 1_555

#END
