
#######################################################################
#
#                 Cambridge Crystallographic Data Centre
#                                CCDC 
#
#######################################################################
#
# If this CIF has been generated from an entry in the Cambridge 
# Structural Database, then it will include bibliographic, chemical, 
# crystal, experimental, refinement or atomic coordinate data resulting 
# from the CCDC's data processing and validation procedures.
#
#######################################################################

data_EDALUT
_chemical_formula_moiety         'C20 H36 B1 P1'
_chemical_name_systematic        
trihydrido{[5-methyl-2-isopropylcyclohexyl](2-methylpropyl)phenylphosphine}boron
_symmetry_cell_setting           monoclinic
_symmetry_space_group_name_H-M   'P 21'
_symmetry_Int_Tables_number      4
_space_group_name_Hall           'P 2yb'
loop_
_symmetry_equiv_pos_site_id
_symmetry_equiv_pos_as_xyz
1 x,y,z
2 -x,1/2+y,-z
_cell_length_a                   17.0065(15)
_cell_length_b                   13.3265(12)
_cell_length_c                   18.6765(16)
_cell_angle_alpha                90
_cell_angle_beta                 94.4180(10)
_cell_angle_gamma                90
_cell_volume                     4220.21
_exptl_crystal_colour            colorless
_exptl_crystal_description       block
_cell_formula_units_Z            8
loop_
_atom_site_label
_atom_site_type_symbol
_atom_site_fract_x
_atom_site_fract_y
_atom_site_fract_z
P1 P 0.49815(8) 0.61411(10) 0.48317(7)
B1 B 0.5109(5) 0.7565(5) 0.4903(4)
H1 H 0.5472 0.7722 0.5307
H2 H 0.4609 0.7871 0.4965
H3 H 0.5312 0.7815 0.4472
C1 C 0.4378(3) 0.5744(4) 0.4041(3)
C2 C 0.4204(4) 0.4755(5) 0.3911(3)
H4 H 0.4390 0.4274 0.4243
C3 C 0.3763(4) 0.4457(5) 0.3305(4)
H5 H 0.3649 0.3780 0.3230
C4 C 0.3496(4) 0.5139(7) 0.2821(3)
H6 H 0.3208 0.4930 0.2404
C5 C 0.3640(3) 0.6127(7) 0.2927(3)
H7 H 0.3436 0.6597 0.2595
C6 C 0.4096(3) 0.6435(5) 0.3540(3)
H8 H 0.4210 0.7112 0.3609
C7 C 0.4491(3) 0.5617(4) 0.5593(2)
H9 H 0.4558 0.4887 0.5585
C8 C 0.3605(3) 0.5839(4) 0.5498(3)
H10 H 0.3528 0.6560 0.5497
H11 H 0.3399 0.5586 0.5034
C9 C 0.3131(3) 0.5380(5) 0.6078(3)
H12 H 0.3164 0.4648 0.6046
C10 C 0.2271(3) 0.5686(5) 0.5976(3)
H13 H 0.2232 0.6405 0.5974
H14 H 0.1992 0.5420 0.6362
H15 H 0.2043 0.5427 0.5527
C11 C 0.3486(3) 0.5704(5) 0.6813(3)
H16 H 0.3400 0.6418 0.6872
H17 H 0.3219 0.5356 0.7181
C12 C 0.4362(3) 0.5487(5) 0.6916(3)
H18 H 0.4445 0.4767 0.6897
H19 H 0.4563 0.5720 0.7387
C13 C 0.4827(3) 0.5998(4) 0.6339(2)
H20 H 0.4707 0.6717 0.6357
C14 C 0.5717(3) 0.5892(5) 0.6518(3)
H21 H 0.5973 0.6216 0.6126
C15 C 0.6021(3) 0.4816(5) 0.6561(3)
H22 H 0.6587 0.4819 0.6615
H23 H 0.5846 0.4464 0.6129
H24 H 0.5821 0.4485 0.6966
C16 C 0.5990(3) 0.6460(5) 0.7206(3)
H25 H 0.5798 0.6124 0.7612
H26 H 0.5787 0.7132 0.7179
H27 H 0.6556 0.6480 0.7257
C17 C 0.5867(3) 0.5421(4) 0.4750(3)
H28 H 0.6223 0.5555 0.5170
H29 H 0.5728 0.4715 0.4764
C18 C 0.6332(4) 0.5593(8) 0.4072(4)
H30 H 0.5951 0.5615 0.3651
C19 C 0.6756(6) 0.6555(10) 0.4115(6)
H31 H 0.7072 0.6593 0.4563
H32 H 0.6383 0.7097 0.4086
H33 H 0.7090 0.6604 0.3725
C20 C 0.6866(5) 0.4743(9) 0.3985(5)
H34 H 0.7105 0.4808 0.3538
H35 H 0.6573 0.4128 0.3987
H36 H 0.7270 0.4739 0.4374
P2 P 0.98316(8) 0.72136(11) 0.48008(8)
B2 B 0.9665(4) 0.5815(5) 0.5003(4)
H37 H 0.9740 0.5424 0.4581
H38 H 0.9138 0.5720 0.5140
H39 H 1.0035 0.5603 0.5387
C21 C 1.0764(3) 0.7460(4) 0.4432(3)
C22 C 1.1018(3) 0.8427(5) 0.4319(3)
H40 H 1.0702 0.8964 0.4435
C23 C 1.1730(4) 0.8615(5) 0.4037(3)
H41 H 1.1892 0.9271 0.3962
C24 C 1.2190(4) 0.7836(7) 0.3870(4)
H42 H 1.2674 0.7962 0.3687
C25 C 1.1959(4) 0.6869(7) 0.3965(4)
H43 H 1.2277 0.6340 0.3838
C26 C 1.1248(3) 0.6680(5) 0.4252(3)
H44 H 1.1094 0.6021 0.4326
C27 C 0.9854(3) 0.7970(4) 0.5623(3)
H45 H 0.9799 0.8676 0.5482
C28 C 1.0657(3) 0.7844(5) 0.6044(3)
H46 H 1.0725 0.7145 0.6181
H47 H 1.1069 0.8014 0.5734
C29 C 1.0749(4) 0.8483(5) 0.6707(4)
H48 H 1.0722 0.9186 0.6552
C30 C 1.1549(4) 0.8324(7) 0.7112(4)
H49 H 1.1591 0.8742 0.7532
H50 H 1.1959 0.8495 0.6808
H51 H 1.1603 0.7633 0.7253
C31 C 1.0081(5) 0.8305(6) 0.7174(4)
H52 H 1.0127 0.7633 0.7372
H53 H 1.0126 0.8774 0.7572
C32 C 0.9282(4) 0.8422(6) 0.6780(4)
H54 H 0.9212 0.9113 0.6624
H55 H 0.8878 0.8268 0.7101
C33 C 0.9188(3) 0.7720(5) 0.6118(3)
H56 H 0.9283 0.7035 0.6294
C34 C 0.8346(4) 0.7746(5) 0.5773(4)
H57 H 0.8353 0.7360 0.5328
C35 C 0.8046(4) 0.8796(6) 0.5551(4)
H58 H 0.7992 0.9195 0.5972
H59 H 0.7543 0.8740 0.5283
H60 H 0.8415 0.9110 0.5258
C36 C 0.7770(4) 0.7211(7) 0.6225(4)
H61 H 0.7911 0.6514 0.6268
H62 H 0.7246 0.7270 0.5998
H63 H 0.7789 0.7509 0.6693
C37 C 0.9146(3) 0.7810(5) 0.4129(3)
H64 H 0.8615 0.7655 0.4251
H65 H 0.9213 0.8530 0.4177
C38 C 0.9199(4) 0.7548(6) 0.3355(4)
H66 H 0.9754 0.7609 0.3253
C39 C 0.8945(6) 0.6527(7) 0.3164(4)
H67 H 0.9321 0.6055 0.3377
H68 H 0.8910 0.6452 0.2652
H69 H 0.8438 0.6403 0.3339
C40 C 0.8738(5) 0.8271(7) 0.2877(4)
H70 H 0.8188 0.8210 0.2951
H71 H 0.8820 0.8124 0.2385
H72 H 0.8911 0.8942 0.2989
P3 P 0.99568(8) 0.02761(11) -0.02458(8)
B3 B 0.9673(4) -0.1102(5) -0.0366(4)
H73 H 1.0055 -0.1514 -0.0100
H74 H 0.9658 -0.1275 -0.0866
H75 H 0.9162 -0.1211 -0.0194
C41 C 1.0923(3) 0.0517(4) -0.0550(3)
C42 C 1.1258(4) 0.1467(5) -0.0488(3)
H76 H 1.0977 0.1984 -0.0293
C43 C 1.2003(4) 0.1660(6) -0.0710(4)
H77 H 1.2221 0.2298 -0.0657
C44 C 1.2409(4) 0.0912(7) -0.1005(4)
H78 H 1.2909 0.1036 -0.1155
C45 C 1.2081(4) -0.0036(6) -0.1085(4)
H79 H 1.2357 -0.0547 -0.1294
C46 C 1.1345(3) -0.0222(5) -0.0854(3)
H80 H 1.1131 -0.0862 -0.0906
C47 C 1.0020(3) 0.0638(4) 0.0682(3)
H81 H 1.0025 0.1374 0.0692
C48 C 1.0794(3) 0.0292(5) 0.1074(3)
H82 H 1.0823 -0.0432 0.1031
H83 H 1.1224 0.0569 0.0824
C49 C 1.0936(4) 0.0555(5) 0.1851(3)
H84 H 1.0976 0.1287 0.1880
C50 C 1.1701(4) 0.0135(6) 0.2187(3)
H85 H 1.1677 -0.0584 0.2185
H86 H 1.1785 0.0371 0.2672
H87 H 1.2128 0.0353 0.1917
C51 C 1.0243(4) 0.0250(5) 0.2258(3)
H88 H 1.0315 0.0510 0.2744
H89 H 1.0223 -0.0476 0.2287
C52 C 0.9467(4) 0.0637(5) 0.1903(3)
H90 H 0.9467 0.1365 0.1922
H91 H 0.9038 0.0398 0.2171
C53 C 0.9326(3) 0.0300(5) 0.1118(3)
H92 H 0.9330 -0.0436 0.1120
C54 C 0.8495(3) 0.0623(5) 0.0806(3)
H93 H 0.8462 0.0455 0.0294
C55 C 0.8319(4) 0.1728(5) 0.0855(3)
H94 H 0.8245 0.1901 0.1344
H95 H 0.7848 0.1880 0.0558
H96 H 0.8752 0.2106 0.0693
C56 C 0.7847(3) 0.0017(6) 0.1140(3)
H97 H 0.7846 0.0177 0.1641
H98 H 0.7946 -0.0687 0.1085
H99 H 0.7343 0.0183 0.0902
C57 C 0.9356(3) 0.1187(4) -0.0755(2)
H100 H 0.8814 0.1090 -0.0642
H101 H 0.9515 0.1848 -0.0582
C58 C 0.9365(3) 0.1197(5) -0.1568(3)
H102 H 0.9884 0.0962 -0.1693
C59 C 0.9228(4) 0.2218(6) -0.1887(4)
H103 H 0.9170 0.2166 -0.2401
H104 H 0.9668 0.2643 -0.1746
H105 H 0.8757 0.2499 -0.1717
C60 C 0.8754(5) 0.0490(6) -0.1895(4)
H106 H 0.8759 -0.0117 -0.1618
H107 H 0.8868 0.0336 -0.2378
H108 H 0.8243 0.0797 -0.1897
P4 P 0.50247(8) 0.28750(10) 1.03431(7)
B4 B 0.5354(4) 0.1515(5) 1.0457(4)
H109 H 0.5269 0.1292 1.0934
H110 H 0.5905 0.1463 1.0382
H111 H 0.5056 0.1103 1.0114
C61 C 0.4035(3) 0.3073(4) 1.0608(2)
C62 C 0.3625(3) 0.2277(5) 1.0877(3)
H112 H 0.3850 0.1642 1.0912
C63 C 0.2879(4) 0.2438(7) 1.1092(4)
H113 H 0.2605 0.1905 1.1277
C64 C 0.2532(4) 0.3359(8) 1.1041(4)
H114 H 0.2026 0.3449 1.1188
C65 C 0.2936(4) 0.4168(6) 1.0770(4)
H115 H 0.2705 0.4800 1.0733
C66 C 0.3686(3) 0.4009(5) 1.0558(3)
H116 H 0.3962 0.4543 1.0377
C67 C 0.4998(3) 0.3293(4) 0.9411(3)
H117 H 0.4983 0.4028 0.9415
C68 C 0.4246(3) 0.2930(4) 0.8990(3)
H118 H 0.4234 0.2203 0.9007
H119 H 0.3796 0.3176 0.9226
C69 C 0.4161(3) 0.3257(5) 0.8213(3)
H120 H 0.4148 0.3992 0.8204
C70 C 0.3395(3) 0.2878(5) 0.7829(3)
H121 H 0.3351 0.3123 0.7344
H122 H 0.2956 0.3114 0.8075
H123 H 0.3395 0.2157 0.7825
C71 C 0.4881(3) 0.2920(5) 0.7842(3)
H124 H 0.4904 0.2193 0.7835
H125 H 0.4840 0.3156 0.7349
C72 C 0.5626(3) 0.3332(5) 0.8233(3)
H126 H 0.5606 0.4060 0.8226
H127 H 0.6078 0.3124 0.7983
C73 C 0.5732(3) 0.2974(4) 0.9010(3)
H128 H 0.5736 0.2239 0.8997
C74 C 0.6537(3) 0.3306(5) 0.9371(3)
H129 H 0.6549 0.3112 0.9878
C75 C 0.6671(3) 0.4438(5) 0.9346(3)
H130 H 0.6698 0.4646 0.8856
H131 H 0.7156 0.4602 0.9617
H132 H 0.6242 0.4777 0.9548
C76 C 0.7206(3) 0.2757(6) 0.9046(4)
H133 H 0.7106 0.2048 0.9050
H134 H 0.7693 0.2896 0.9323
H135 H 0.7242 0.2979 0.8561
C77 C 0.5580(3) 0.3815(4) 1.0887(3)
H136 H 0.6136 0.3734 1.0817
H137 H 0.5423 0.4475 1.0710
C78 C 0.5477(4) 0.3779(5) 1.1693(3)
H138 H 0.4938 0.3560 1.1764
C79 C 0.5602(5) 0.4821(6) 1.2020(3)
H139 H 0.5533 0.4793 1.2525
H140 H 0.5226 0.5279 1.1791
H141 H 0.6127 0.5046 1.1949
C80 C 0.6044(6) 0.3062(7) 1.2075(4)
H142 H 0.6562 0.3354 1.2117
H143 H 0.6055 0.2448 1.1808
H144 H 0.5879 0.2925 1.2546
loop_
_geom_bond_atom_site_label_1
_geom_bond_atom_site_label_2
_geom_bond_site_symmetry_1
_geom_bond_site_symmetry_2
P1 B1 1_555 1_555
B1 H1 1_555 1_555
H2 B1 1_555 1_555
H3 B1 1_555 1_555
C1 P1 1_555 1_555
C2 C1 1_555 1_555
H4 C2 1_555 1_555
C3 C2 1_555 1_555
H5 C3 1_555 1_555
C4 C3 1_555 1_555
H6 C4 1_555 1_555
C5 C4 1_555 1_555
H7 C5 1_555 1_555
C6 C1 1_555 1_555
H8 C6 1_555 1_555
C7 P1 1_555 1_555
H9 C7 1_555 1_555
C8 C7 1_555 1_555
H10 C8 1_555 1_555
H11 C8 1_555 1_555
C9 C8 1_555 1_555
H12 C9 1_555 1_555
C10 C9 1_555 1_555
H13 C10 1_555 1_555
H14 C10 1_555 1_555
H15 C10 1_555 1_555
C11 C9 1_555 1_555
H16 C11 1_555 1_555
H17 C11 1_555 1_555
C12 C11 1_555 1_555
H18 C12 1_555 1_555
H19 C12 1_555 1_555
C13 C7 1_555 1_555
H20 C13 1_555 1_555
C14 C13 1_555 1_555
H21 C14 1_555 1_555
C15 C14 1_555 1_555
H22 C15 1_555 1_555
H23 C15 1_555 1_555
H24 C15 1_555 1_555
C16 C14 1_555 1_555
H25 C16 1_555 1_555
H26 C16 1_555 1_555
H27 C16 1_555 1_555
C17 P1 1_555 1_555
H28 C17 1_555 1_555
H29 C17 1_555 1_555
C18 C17 1_555 1_555
H30 C18 1_555 1_555
C19 C18 1_555 1_555
H31 C19 1_555 1_555
H32 C19 1_555 1_555
H33 C19 1_555 1_555
C20 C18 1_555 1_555
H34 C20 1_555 1_555
H35 C20 1_555 1_555
H36 C20 1_555 1_555
P2 B2 1_555 1_555
B2 H37 1_555 1_555
H38 B2 1_555 1_555
H39 B2 1_555 1_555
C21 P2 1_555 1_555
C22 C21 1_555 1_555
H40 C22 1_555 1_555
C23 C22 1_555 1_555
H41 C23 1_555 1_555
C24 C23 1_555 1_555
H42 C24 1_555 1_555
C25 C24 1_555 1_555
H43 C25 1_555 1_555
C26 C21 1_555 1_555
H44 C26 1_555 1_555
C27 P2 1_555 1_555
H45 C27 1_555 1_555
C28 C27 1_555 1_555
H46 C28 1_555 1_555
H47 C28 1_555 1_555
C29 C28 1_555 1_555
H48 C29 1_555 1_555
C30 C29 1_555 1_555
H49 C30 1_555 1_555
H50 C30 1_555 1_555
H51 C30 1_555 1_555
C31 C29 1_555 1_555
H52 C31 1_555 1_555
H53 C31 1_555 1_555
C32 C31 1_555 1_555
H54 C32 1_555 1_555
H55 C32 1_555 1_555
C33 C27 1_555 1_555
H56 C33 1_555 1_555
C34 C33 1_555 1_555
H57 C34 1_555 1_555
C35 C34 1_555 1_555
H58 C35 1_555 1_555
H59 C35 1_555 1_555
H60 C35 1_555 1_555
C36 C34 1_555 1_555
H61 C36 1_555 1_555
H62 C36 1_555 1_555
H63 C36 1_555 1_555
C37 P2 1_555 1_555
H64 C37 1_555 1_555
H65 C37 1_555 1_555
C38 C37 1_555 1_555
H66 C38 1_555 1_555
C39 C38 1_555 1_555
H67 C39 1_555 1_555
H68 C39 1_555 1_555
H69 C39 1_555 1_555
C40 C38 1_555 1_555
H70 C40 1_555 1_555
H71 C40 1_555 1_555
H72 C40 1_555 1_555
P3 B3 1_555 1_555
B3 H73 1_555 1_555
H74 B3 1_555 1_555
H75 B3 1_555 1_555
C41 P3 1_555 1_555
C42 C41 1_555 1_555
H76 C42 1_555 1_555
C43 C42 1_555 1_555
H77 C43 1_555 1_555
C44 C43 1_555 1_555
H78 C44 1_555 1_555
C45 C44 1_555 1_555
H79 C45 1_555 1_555
C46 C41 1_555 1_555
H80 C46 1_555 1_555
C47 P3 1_555 1_555
H81 C47 1_555 1_555
C48 C47 1_555 1_555
H82 C48 1_555 1_555
H83 C48 1_555 1_555
C49 C48 1_555 1_555
H84 C49 1_555 1_555
C50 C49 1_555 1_555
H85 C50 1_555 1_555
H86 C50 1_555 1_555
H87 C50 1_555 1_555
C51 C49 1_555 1_555
H88 C51 1_555 1_555
H89 C51 1_555 1_555
C52 C51 1_555 1_555
H90 C52 1_555 1_555
H91 C52 1_555 1_555
C53 C47 1_555 1_555
H92 C53 1_555 1_555
C54 C53 1_555 1_555
H93 C54 1_555 1_555
C55 C54 1_555 1_555
H94 C55 1_555 1_555
H95 C55 1_555 1_555
H96 C55 1_555 1_555
C56 C54 1_555 1_555
H97 C56 1_555 1_555
H98 C56 1_555 1_555
H99 C56 1_555 1_555
C57 P3 1_555 1_555
H100 C57 1_555 1_555
H101 C57 1_555 1_555
C58 C57 1_555 1_555
H102 C58 1_555 1_555
C59 C58 1_555 1_555
H103 C59 1_555 1_555
H104 C59 1_555 1_555
H105 C59 1_555 1_555
C60 C58 1_555 1_555
H106 C60 1_555 1_555
H107 C60 1_555 1_555
H108 C60 1_555 1_555
P4 B4 1_555 1_555
B4 H109 1_555 1_555
H110 B4 1_555 1_555
H111 B4 1_555 1_555
C61 P4 1_555 1_555
C62 C61 1_555 1_555
H112 C62 1_555 1_555
C63 C62 1_555 1_555
H113 C63 1_555 1_555
C64 C63 1_555 1_555
H114 C64 1_555 1_555
C65 C64 1_555 1_555
H115 C65 1_555 1_555
C66 C61 1_555 1_555
H116 C66 1_555 1_555
C67 P4 1_555 1_555
H117 C67 1_555 1_555
C68 C67 1_555 1_555
H118 C68 1_555 1_555
H119 C68 1_555 1_555
C69 C68 1_555 1_555
H120 C69 1_555 1_555
C70 C69 1_555 1_555
H121 C70 1_555 1_555
H122 C70 1_555 1_555
H123 C70 1_555 1_555
C71 C69 1_555 1_555
H124 C71 1_555 1_555
H125 C71 1_555 1_555
C72 C71 1_555 1_555
H126 C72 1_555 1_555
H127 C72 1_555 1_555
C73 C67 1_555 1_555
H128 C73 1_555 1_555
C74 C73 1_555 1_555
H129 C74 1_555 1_555
C75 C74 1_555 1_555
H130 C75 1_555 1_555
H131 C75 1_555 1_555
H132 C75 1_555 1_555
C76 C74 1_555 1_555
H133 C76 1_555 1_555
H134 C76 1_555 1_555
H135 C76 1_555 1_555
C77 P4 1_555 1_555
H136 C77 1_555 1_555
H137 C77 1_555 1_555
C78 C77 1_555 1_555
H138 C78 1_555 1_555
C79 C78 1_555 1_555
H139 C79 1_555 1_555
H140 C79 1_555 1_555
H141 C79 1_555 1_555
C80 C78 1_555 1_555
H142 C80 1_555 1_555
H143 C80 1_555 1_555
H144 C80 1_555 1_555
C5 C6 1_555 1_555
C12 C13 1_555 1_555
C25 C26 1_555 1_555
C32 C33 1_555 1_555
C45 C46 1_555 1_555
C52 C53 1_555 1_555
C65 C66 1_555 1_555
C72 C73 1_555 1_555

#END
