
#######################################################################
#
#                 Cambridge Crystallographic Data Centre
#                                CCDC 
#
#######################################################################
#
# If this CIF has been generated from an entry in the Cambridge 
# Structural Database, then it will include bibliographic, chemical, 
# crystal, experimental, refinement or atomic coordinate data resulting 
# from the CCDC's data processing and validation procedures.
#
#######################################################################

data_EDANAA
_chemical_formula_moiety         'C36 H58 Br1 N4 3+,3(C1 H3 N1 O2),3(B1 F4 1-)'
_chemical_name_systematic        
"1,1'-bromoniumdiylbis[4-(pentamethylbenzyl)-1,4-diazoniabicyclo[2.2.2]octane] tris(tetrafluoroborate) nitromethane solvate"
_symmetry_cell_setting           monoclinic
_symmetry_space_group_name_H-M   'P 21/c'
_symmetry_Int_Tables_number      14
_space_group_name_Hall           '-P 2ybc'
loop_
_symmetry_equiv_pos_site_id
_symmetry_equiv_pos_as_xyz
1 x,y,z
2 -x,1/2+y,1/2-z
3 -x,-y,-z
4 x,1/2-y,1/2+z
_cell_length_a                   20.3479(11)
_cell_length_b                   14.1583(8)
_cell_length_c                   17.4224(10)
_cell_angle_alpha                90
_cell_angle_beta                 90.0810(10)
_cell_angle_gamma                90
_cell_volume                     5019.24
_exptl_crystal_colour            colorless
_exptl_crystal_description       block
_cell_formula_units_Z            4
loop_
_atom_site_label
_atom_site_type_symbol
_atom_site_fract_x
_atom_site_fract_y
_atom_site_fract_z
C1 C 0.8713(2) 0.3340(3) 0.5934(3)
H1 H 0.8888 0.3733 0.5511
H2 H 0.8761 0.3699 0.6419
C2 C 0.79829(19) 0.3124(3) 0.5788(2)
H3 H 0.7711 0.3413 0.6196
H4 H 0.7846 0.3396 0.5289
C3 C 0.9014(2) 0.1904(3) 0.5262(2)
H5 H 0.9275 0.1315 0.5289
H6 H 0.9176 0.2283 0.4824
C4 C 0.82935(19) 0.1663(3) 0.5139(2)
H7 H 0.8144 0.1924 0.4642
H8 H 0.8238 0.0969 0.5123
C5 C 0.8848(2) 0.1881(3) 0.6638(2)
H9 H 0.8915 0.2234 0.7122
H10 H 0.9098 0.1282 0.6672
C6 C 0.81205(18) 0.1666(3) 0.6532(2)
H11 H 0.8050 0.0974 0.6538
H12 H 0.7867 0.1945 0.6961
C7 C 0.71659(18) 0.1779(3) 0.5630(2)
H13 H 0.7041 0.2000 0.5111
H14 H 0.7142 0.1080 0.5627
C8 C 0.66659(18) 0.2149(3) 0.6198(2)
C9 C 0.63404(18) 0.3006(3) 0.6042(2)
C10 C 0.58643(18) 0.3345(3) 0.6558(2)
C11 C 0.56905(19) 0.2817(3) 0.7203(2)
C12 C 0.60188(19) 0.1973(3) 0.7361(2)
C13 C 0.64943(18) 0.1624(3) 0.6857(2)
C14 C 0.6457(2) 0.3568(3) 0.5315(2)
H15 H 0.6725 0.4125 0.5433
H16 H 0.6034 0.3770 0.5100
H17 H 0.6688 0.3173 0.4940
C15 C 0.5553(2) 0.4301(3) 0.6412(2)
H18 H 0.5192 0.4232 0.6043
H19 H 0.5884 0.4734 0.6204
H20 H 0.5382 0.4555 0.6895
C16 C 0.5142(2) 0.3144(3) 0.7726(2)
H21 H 0.5329 0.3480 0.8167
H22 H 0.4893 0.2595 0.7907
H23 H 0.4848 0.3568 0.7443
C17 C 0.5876(2) 0.1438(3) 0.8100(2)
H24 H 0.5558 0.0934 0.7996
H25 H 0.5694 0.1874 0.8482
H26 H 0.6284 0.1162 0.8298
C18 C 0.6785(2) 0.0662(3) 0.7039(2)
H27 H 0.7065 0.0710 0.7496
H28 H 0.7049 0.0445 0.6603
H29 H 0.6430 0.0211 0.7136
C19 C 1.1449(2) 0.3365(3) 0.5822(2)
H30 H 1.1206 0.3946 0.5685
H31 H 1.1456 0.2944 0.5369
C20 C 1.2156(2) 0.3616(3) 0.6060(2)
H32 H 1.2465 0.3430 0.5648
H33 H 1.2194 0.4306 0.6138
C21 C 1.14286(19) 0.1950(3) 0.6617(2)
H34 H 1.1323 0.1514 0.6189
H35 H 1.1254 0.1675 0.7097
C22 C 1.21775(19) 0.2071(3) 0.6682(2)
H36 H 1.2346 0.1700 0.7122
H37 H 1.2393 0.1838 0.6209
C23 C 1.11802(19) 0.3474(3) 0.7179(2)
H38 H 1.0899 0.3216 0.7592
H39 H 1.1036 0.4128 0.7068
C24 C 1.19024(19) 0.3474(3) 0.7436(2)
H40 H 1.2039 0.4124 0.7572
H41 H 1.1954 0.3070 0.7896
C25 C 1.30476(19) 0.3280(3) 0.7029(2)
H42 H 1.3123 0.3971 0.7042
H43 H 1.3110 0.3040 0.7558
C26 C 1.35654(18) 0.2840(3) 0.6523(2)
C27 C 1.38083(18) 0.3331(3) 0.5876(2)
C28 C 1.42778(19) 0.2908(3) 0.5401(2)
C29 C 1.45485(19) 0.2028(3) 0.5595(2)
C30 C 1.43162(18) 0.1548(3) 0.6245(2)
C31 C 1.38325(18) 0.1951(3) 0.6714(2)
C32 C 1.3608(2) 0.4337(3) 0.5685(3)
H44 H 1.4003 0.4727 0.5624
H45 H 1.3338 0.4592 0.6101
H46 H 1.3355 0.4341 0.5205
C33 C 1.4477(2) 0.3404(3) 0.4667(2)
H47 H 1.4090 0.3695 0.4431
H48 H 1.4668 0.2944 0.4311
H49 H 1.4803 0.3893 0.4784
C34 C 1.5099(2) 0.1615(3) 0.5123(2)
H50 H 1.5415 0.1302 0.5463
H51 H 1.5320 0.2121 0.4840
H52 H 1.4919 0.1153 0.4760
C35 C 1.4590(2) 0.0583(3) 0.6427(2)
H53 H 1.4640 0.0221 0.5951
H54 H 1.4289 0.0250 0.6772
H55 H 1.5020 0.0651 0.6677
C36 C 1.3641(2) 0.1425(3) 0.7441(2)
H56 H 1.3384 0.0864 0.7305
H57 H 1.3377 0.1840 0.7769
H58 H 1.4039 0.1233 0.7718
N1 N 0.90926(16) 0.2446(2) 0.59856(18)
N2 N 0.78819(15) 0.2068(2) 0.57806(17)
N3 N 1.11182(16) 0.2881(2) 0.64751(18)
N4 N 1.23303(16) 0.3104(2) 0.67953(17)
Br1 Br 1.010994(18) 0.26902(3) 0.62076(2)
C37 C 0.0337(3) 0.1343(6) 0.9049(5)
H59 H 0.0107 0.1135 0.9514
H60 H 0.0244 0.2013 0.8958
H61 H 0.0811 0.1254 0.9117
N5 N 0.0120(2) 0.0810(4) 0.8421(3)
O1 O -0.0013(3) 0.0048(4) 0.8421(6)
O2 O 0.0119(3) 0.1306(8) 0.7823(4)
C38 C 0.7231(2) 0.1153(4) 0.2827(3)
H62 H 0.7578 0.1633 0.2850
H63 H 0.6871 0.1381 0.2501
H64 H 0.7410 0.0568 0.2610
N6 N 0.6982(2) 0.0968(3) 0.3607(2)
O3 O 0.7189(4) 0.0282(4) 0.3935(3)
O4 O 0.6586(2) 0.1505(3) 0.3888(2)
C39 C 0.3071(2) 0.1372(3) 0.4706(3)
H65 H 0.2937 0.1992 0.4509
H66 H 0.3205 0.1432 0.5244
H67 H 0.2701 0.0932 0.4668
N7 N 0.36271(17) 0.1011(3) 0.4248(2)
O5 O 0.38102(17) 0.1462(2) 0.36888(18)
O6 O 0.38759(16) 0.0259(2) 0.44476(19)
B1 B 0.8244(3) 0.1304(4) 0.8619(3)
F1 F 0.76800(18) 0.1078(4) 0.8986(2)
F2 F 0.83341(13) 0.07075(18) 0.79925(13)
F3 F 0.8204(5) 0.2202(3) 0.8372(2)
F4 F 0.87426(18) 0.1213(4) 0.9119(2)
B2 B 0.2257(2) 0.0838(3) 0.8891(3)
F5 F 0.26687(17) 0.0146(2) 0.86132(18)
F6 F 0.18375(16) 0.0454(2) 0.94267(17)
F7 F 0.2632(2) 0.1511(3) 0.9259(2)
F8 F 0.19140(19) 0.1245(3) 0.83042(18)
B3 B 0.1255(3) 0.0946(4) 0.4396(3)
F9 F 0.1632(4) 0.0465(3) 0.3877(2)
F10 F 0.0795(2) 0.0305(4) 0.4624(3)
F11 F 0.1014(3) 0.1671(3) 0.4004(3)
F12 F 0.1601(2) 0.1129(6) 0.5000(2)
loop_
_geom_bond_atom_site_label_1
_geom_bond_atom_site_label_2
_geom_bond_site_symmetry_1
_geom_bond_site_symmetry_2
C1 H1 1_555 1_555
H2 C1 1_555 1_555
C2 C1 1_555 1_555
H3 C2 1_555 1_555
H4 C2 1_555 1_555
C3 H5 1_555 1_555
H6 C3 1_555 1_555
C4 C3 1_555 1_555
H7 C4 1_555 1_555
H8 C4 1_555 1_555
C5 H9 1_555 1_555
H10 C5 1_555 1_555
C6 C5 1_555 1_555
H11 C6 1_555 1_555
H12 C6 1_555 1_555
C7 H13 1_555 1_555
H14 C7 1_555 1_555
C8 C7 1_555 1_555
C9 C8 1_555 1_555
C10 C9 1_555 1_555
C11 C10 1_555 1_555
C12 C11 1_555 1_555
C13 C8 1_555 1_555
C14 C9 1_555 1_555
H15 C14 1_555 1_555
H16 C14 1_555 1_555
H17 C14 1_555 1_555
C15 C10 1_555 1_555
H18 C15 1_555 1_555
H19 C15 1_555 1_555
H20 C15 1_555 1_555
C16 C11 1_555 1_555
H21 C16 1_555 1_555
H22 C16 1_555 1_555
H23 C16 1_555 1_555
C17 C12 1_555 1_555
H24 C17 1_555 1_555
H25 C17 1_555 1_555
H26 C17 1_555 1_555
C18 C13 1_555 1_555
H27 C18 1_555 1_555
H28 C18 1_555 1_555
H29 C18 1_555 1_555
C19 H30 1_555 1_555
H31 C19 1_555 1_555
C20 C19 1_555 1_555
H32 C20 1_555 1_555
H33 C20 1_555 1_555
C21 H34 1_555 1_555
H35 C21 1_555 1_555
C22 C21 1_555 1_555
H36 C22 1_555 1_555
H37 C22 1_555 1_555
C23 H38 1_555 1_555
H39 C23 1_555 1_555
C24 C23 1_555 1_555
H40 C24 1_555 1_555
H41 C24 1_555 1_555
C25 H42 1_555 1_555
H43 C25 1_555 1_555
C26 C25 1_555 1_555
C27 C26 1_555 1_555
C28 C27 1_555 1_555
C29 C28 1_555 1_555
C30 C29 1_555 1_555
C31 C26 1_555 1_555
C32 C27 1_555 1_555
H44 C32 1_555 1_555
H45 C32 1_555 1_555
H46 C32 1_555 1_555
C33 C28 1_555 1_555
H47 C33 1_555 1_555
H48 C33 1_555 1_555
H49 C33 1_555 1_555
C34 C29 1_555 1_555
H50 C34 1_555 1_555
H51 C34 1_555 1_555
H52 C34 1_555 1_555
C35 C30 1_555 1_555
H53 C35 1_555 1_555
H54 C35 1_555 1_555
H55 C35 1_555 1_555
C36 C31 1_555 1_555
H56 C36 1_555 1_555
H57 C36 1_555 1_555
H58 C36 1_555 1_555
N1 C1 1_555 1_555
N2 C2 1_555 1_555
N3 C19 1_555 1_555
N4 C20 1_555 1_555
Br1 N1 1_555 1_555
C37 H59 1_555 1_555
H60 C37 1_555 1_555
H61 C37 1_555 1_555
N5 C37 1_555 1_555
O1 N5 1_555 1_555
O2 N5 1_555 1_555
C38 H62 1_555 1_555
H63 C38 1_555 1_555
H64 C38 1_555 1_555
N6 C38 1_555 1_555
O3 N6 1_555 1_555
O4 N6 1_555 1_555
C39 H65 1_555 1_555
H66 C39 1_555 1_555
H67 C39 1_555 1_555
N7 C39 1_555 1_555
O5 N7 1_555 1_555
O6 N7 1_555 1_555
B1 F1 1_555 1_555
F2 B1 1_555 1_555
F3 B1 1_555 1_555
F4 B1 1_555 1_555
B2 F5 1_555 1_555
F6 B2 1_555 1_555
F7 B2 1_555 1_555
F8 B2 1_555 1_555
B3 F9 1_555 1_555
F10 B3 1_555 1_555
F11 B3 1_555 1_555
F12 B3 1_555 1_555
C3 N1 1_555 1_555
C4 N2 1_555 1_555
C5 N1 1_555 1_555
C6 N2 1_555 1_555
C7 N2 1_555 1_555
C12 C13 1_555 1_555
C21 N3 1_555 1_555
C22 N4 1_555 1_555
C23 N3 1_555 1_555
C24 N4 1_555 1_555
C25 N4 1_555 1_555
C30 C31 1_555 1_555
N3 Br1 1_555 1_555

#END
