
#######################################################################
#
#                 Cambridge Crystallographic Data Centre
#                                CCDC 
#
#######################################################################
#
# If this CIF has been generated from an entry in the Cambridge 
# Structural Database, then it will include bibliographic, chemical, 
# crystal, experimental, refinement or atomic coordinate data resulting 
# from the CCDC's data processing and validation procedures.
#
#######################################################################

data_EDAPAD
_chemical_formula_moiety         'C14 H18 O2'
_chemical_name_systematic        
9-hydroxy-3,6-dimethyl-8-methylidene-1,6,7,7a-tetrahydro-3a,6-ethanoinden-5(4H)-one
_symmetry_cell_setting           triclinic
_symmetry_space_group_name_H-M   'P -1'
_symmetry_Int_Tables_number      2
_space_group_name_Hall           '-P 1'
loop_
_symmetry_equiv_pos_site_id
_symmetry_equiv_pos_as_xyz
1 x,y,z
2 -x,-y,-z
_cell_length_a                   9.1835(5)
_cell_length_b                   11.7720(6)
_cell_length_c                   11.8757(6)
_cell_angle_alpha                97.9911(14)
_cell_angle_beta                 97.2935(14)
_cell_angle_gamma                105.7604(15)
_cell_volume                     1205.18
_exptl_crystal_colour            colorless
_exptl_crystal_description       Block
_cell_formula_units_Z            4
loop_
_atom_site_label
_atom_site_type_symbol
_atom_site_fract_x
_atom_site_fract_y
_atom_site_fract_z
C1 C 0.4604(2) 0.1102(2) 0.32518(19)
H1 H 0.4357 0.1845 0.3397
H2 H 0.4095 0.0563 0.3714
H3 H 0.4269 0.0747 0.2450
C2 C 0.6297(2) 0.13343(14) 0.35548(13)
C3 C 0.7056(3) 0.08533(17) 0.42727(15)
H4 H 0.6581 0.0264 0.4664
C4 C 0.8758(3) 0.13515(16) 0.43939(14)
H5 H 0.9254 0.0721 0.4383
H6 H 0.9186 0.1937 0.5100
C5 C 0.89163(18) 0.19390(12) 0.33247(12)
H7 H 0.8882 0.1311 0.2678
C6 C 1.02854(19) 0.30076(15) 0.33165(15)
H8 H 1.1053 0.2735 0.2959
H9 H 1.0745 0.3408 0.4102
C7 C 0.97468(18) 0.39048(13) 0.26278(15)
C8 C 1.1091(2) 0.48505(19) 0.2376(2)
H10 H 1.1626 0.4475 0.1866
H11 H 1.1778 0.5251 0.3084
H12 H 1.0722 0.5425 0.2017
C9 C 0.88660(19) 0.44546(12) 0.34301(13)
O1 O 0.91612(16) 0.55234(9) 0.37780(12)
C10 C 0.7632(2) 0.35392(13) 0.37926(13)
H13 H 0.6673 0.3739 0.3665
H14 H 0.7895 0.3542 0.4610
C11 C 0.74272(17) 0.22840(11) 0.31049(11)
C12 C 0.71115(16) 0.23710(11) 0.18353(11)
H15 H 0.6272 0.2729 0.1706
O2 O 0.66784(14) 0.12050(9) 0.11484(9)
H16 H 0.608(2) 0.1187(17) 0.0522(17)
C13 C 0.85676(17) 0.31912(12) 0.15655(12)
C14 C 0.8763(3) 0.3261(2) 0.05022(18)
H17 H 0.972(3) 0.375(2) 0.0352(19)
H18 H 0.799(3) 0.274(2) -0.015(2)
C15 C 0.7559(3) 0.8058(2) -0.08157(19)
H19 H 0.7048 0.7223 -0.1112
H20 H 0.8400 0.8330 -0.1213
H21 H 0.6847 0.8513 -0.0934
C16 C 0.8150(2) 0.82258(16) 0.04392(16)
C17 C 0.9561(2) 0.87845(18) 0.1005(2)
H22 H 1.0359 0.9163 0.0651
C18 C 0.97448(19) 0.87462(17) 0.22708(18)
H23 H 1.0323 0.9523 0.2732
H24 H 1.0241 0.8150 0.2457
C19 C 0.80710(16) 0.83952(12) 0.24385(13)
H25 H 0.7776 0.9136 0.2570
C20 C 0.75903(17) 0.77044(13) 0.33841(14)
H26 H 0.7587 0.8259 0.4068
H27 H 0.8319 0.7272 0.3584
C21 C 0.59565(17) 0.68029(13) 0.29638(14)
C22 C 0.5317(2) 0.6291(2) 0.39613(18)
H28 H 0.5223 0.6928 0.4520
H29 H 0.5998 0.5901 0.4316
H30 H 0.4325 0.5719 0.3681
C23 C 0.61331(18) 0.58342(13) 0.20475(15)
O3 O 0.55528(16) 0.47731(10) 0.19963(13)
C24 C 0.7073(2) 0.63381(13) 0.11998(15)
H31 H 0.6609 0.5897 0.0427
H32 H 0.8097 0.6257 0.1372
C25 C 0.71709(17) 0.76734(12) 0.12577(13)
C26 C 0.54988(16) 0.77019(11) 0.11668(13)
H33 H 0.4880 0.7028 0.0563
O4 O 0.52241(14) 0.87570(9) 0.08586(10)
H34 H 0.591(2) 0.9379(18) 0.1221(17)
C27 C 0.49931(16) 0.74497(12) 0.23013(13)
C28 C 0.3863(2) 0.77907(17) 0.2681(2)
H35 H 0.341(2) 0.8295(19) 0.2258(18)
H36 H 0.362(2) 0.7666(18) 0.3507(19)
loop_
_geom_bond_atom_site_label_1
_geom_bond_atom_site_label_2
_geom_bond_site_symmetry_1
_geom_bond_site_symmetry_2
C1 H1 1_555 1_555
H2 C1 1_555 1_555
H3 C1 1_555 1_555
C2 C1 1_555 1_555
C3 C2 1_555 1_555
H4 C3 1_555 1_555
C4 C3 1_555 1_555
H5 C4 1_555 1_555
H6 C4 1_555 1_555
C5 C4 1_555 1_555
H7 C5 1_555 1_555
C6 C5 1_555 1_555
H8 C6 1_555 1_555
H9 C6 1_555 1_555
C7 C6 1_555 1_555
C8 C7 1_555 1_555
H10 C8 1_555 1_555
H11 C8 1_555 1_555
H12 C8 1_555 1_555
C9 C7 1_555 1_555
O1 C9 1_555 1_555
C10 C9 1_555 1_555
H13 C10 1_555 1_555
H14 C10 1_555 1_555
C11 C2 1_555 1_555
C12 C11 1_555 1_555
H15 C12 1_555 1_555
O2 C12 1_555 1_555
H16 O2 1_555 1_555
C13 C7 1_555 1_555
C14 C13 1_555 1_555
H17 C14 1_555 1_555
H18 C14 1_555 1_555
C15 H19 1_555 1_555
H20 C15 1_555 1_555
H21 C15 1_555 1_555
C16 C15 1_555 1_555
C17 C16 1_555 1_555
H22 C17 1_555 1_555
C18 C17 1_555 1_555
H23 C18 1_555 1_555
H24 C18 1_555 1_555
C19 C18 1_555 1_555
H25 C19 1_555 1_555
C20 C19 1_555 1_555
H26 C20 1_555 1_555
H27 C20 1_555 1_555
C21 C20 1_555 1_555
C22 C21 1_555 1_555
H28 C22 1_555 1_555
H29 C22 1_555 1_555
H30 C22 1_555 1_555
C23 C21 1_555 1_555
O3 C23 1_555 1_555
C24 C23 1_555 1_555
H31 C24 1_555 1_555
H32 C24 1_555 1_555
C25 C16 1_555 1_555
C26 C25 1_555 1_555
H33 C26 1_555 1_555
O4 C26 1_555 1_555
H34 O4 1_555 1_555
C27 C21 1_555 1_555
C28 C27 1_555 1_555
H35 C28 1_555 1_555
H36 C28 1_555 1_555
C5 C11 1_555 1_555
C10 C11 1_555 1_555
C12 C13 1_555 1_555
C19 C25 1_555 1_555
C24 C25 1_555 1_555
C26 C27 1_555 1_555

#END
