
#######################################################################
#
#                 Cambridge Crystallographic Data Centre
#                                CCDC 
#
#######################################################################
#
# If this CIF has been generated from an entry in the Cambridge 
# Structural Database, then it will include bibliographic, chemical, 
# crystal, experimental, refinement or atomic coordinate data resulting 
# from the CCDC's data processing and validation procedures.
#
#######################################################################

data_EDARUZ
_chemical_formula_moiety         'C16 H15 F2 N3 O1'
_chemical_name_systematic        
3-(difluoromethyl)-3-(5-methoxy-1-methyl-1H-indol-3-yl)pentanedinitrile
_symmetry_cell_setting           monoclinic
_symmetry_space_group_name_H-M   'P 21/c'
_symmetry_Int_Tables_number      14
_space_group_name_Hall           '-P 2ybc'
loop_
_symmetry_equiv_pos_site_id
_symmetry_equiv_pos_as_xyz
1 x,y,z
2 -x,1/2+y,1/2-z
3 -x,-y,-z
4 x,1/2-y,1/2+z
_cell_length_a                   17.687(3)
_cell_length_b                   10.7866(19)
_cell_length_c                   7.8181(13)
_cell_angle_alpha                90
_cell_angle_beta                 92.685(3)
_cell_angle_gamma                90
_cell_volume                     1489.92
_exptl_crystal_colour            colorless
_exptl_crystal_description       Strip
_cell_formula_units_Z            4
loop_
_atom_site_label
_atom_site_type_symbol
_atom_site_fract_x
_atom_site_fract_y
_atom_site_fract_z
F1 F 0.42560(8) 0.87657(14) -0.00375(18)
C1 C 0.21277(11) 1.02294(19) 0.1994(2)
C2 C 0.43845(11) 1.11364(18) 0.4225(3)
C3 C 0.36213(11) 0.87616(17) 0.3077(3)
H1 H 0.3344 0.8123 0.2439
H2 H 0.4141 0.8483 0.3241
F2 F 0.37977(10) 1.05300(16) -0.08828(18)
C4 C 0.28886(11) 1.06950(17) 0.2118(2)
N1 N 0.44561(13) 1.1436(2) 0.5618(3)
C5 C 0.16492(13) 1.1262(2) 0.2142(3)
C6 C 0.18030(12) 0.9053(2) 0.1746(3)
H3 H 0.2106 0.8356 0.1631
C7 C 0.43245(11) 1.07433(19) 0.2443(3)
H4 H 0.4768 1.0257 0.2199
H5 H 0.4322 1.1472 0.1716
O1 O 0.06363(10) 0.78602(19) 0.1443(3)
N2 N 0.30399(15) 0.8920(2) 0.6053(3)
C8 C 0.28337(12) 1.19538(19) 0.2294(3)
H6 H 0.3243 1.2494 0.2386
N3 N 0.20946(11) 1.23038(17) 0.2317(3)
C9 C 0.36098(10) 0.99691(17) 0.1988(2)
C10 C 0.05645(13) 0.9993(3) 0.1854(4)
H7 H 0.0042 0.9894 0.1817
C11 C 0.36605(12) 0.9551(2) 0.0124(3)
H8 H 0.3189 0.9143 -0.0269
C12 C 0.32999(13) 0.88904(19) 0.4743(3)
C13 C 0.18216(17) 1.3573(2) 0.2395(4)
H9 H 0.1524 1.3761 0.1369
H10 H 0.2245 1.4130 0.2497
H11 H 0.1516 1.3667 0.3370
C14 C 0.10250(14) 0.8950(2) 0.1677(3)
C15 C 0.08626(14) 1.1151(2) 0.2080(4)
H12 H 0.0553 1.1840 0.2188
C16 C 0.10619(18) 0.6768(3) 0.1250(5)
H13 H 0.1389 0.6866 0.0314
H14 H 0.0725 0.6083 0.1022
H15 H 0.1361 0.6611 0.2284
loop_
_geom_bond_atom_site_label_1
_geom_bond_atom_site_label_2
_geom_bond_site_symmetry_1
_geom_bond_site_symmetry_2
F1 C11 1_555 1_555
C1 C4 1_555 1_555
C2 N1 1_555 1_555
C3 H1 1_555 1_555
H2 C3 1_555 1_555
F2 C11 1_555 1_555
C4 C8 1_555 1_555
C5 C1 1_555 1_555
C6 C1 1_555 1_555
H3 C6 1_555 1_555
C7 C2 1_555 1_555
H4 C7 1_555 1_555
H5 C7 1_555 1_555
O1 C14 1_555 1_555
N2 C12 1_555 1_555
C8 H6 1_555 1_555
N3 C5 1_555 1_555
C9 C3 1_555 1_555
C10 H7 1_555 1_555
C11 C9 1_555 1_555
H8 C11 1_555 1_555
C12 C3 1_555 1_555
C13 N3 1_555 1_555
H9 C13 1_555 1_555
H10 C13 1_555 1_555
H11 C13 1_555 1_555
C14 C6 1_555 1_555
C15 C5 1_555 1_555
H12 C15 1_555 1_555
C16 O1 1_555 1_555
H13 C16 1_555 1_555
H14 C16 1_555 1_555
H15 C16 1_555 1_555
C4 C9 1_555 1_555
C7 C9 1_555 1_555
C8 N3 1_555 1_555
C10 C14 1_555 1_555
C10 C15 1_555 1_555

#END
