
#######################################################################
#
#                 Cambridge Crystallographic Data Centre
#                                CCDC 
#
#######################################################################
#
# If this CIF has been generated from an entry in the Cambridge 
# Structural Database, then it will include bibliographic, chemical, 
# crystal, experimental, refinement or atomic coordinate data resulting 
# from the CCDC's data processing and validation procedures.
#
#######################################################################

data_EDAREJ
_chemical_formula_moiety         'C22 H34 O7'
_chemical_name_systematic        
5-(6,10-dihydroxy-3-methoxy-1,6-dimethyloctahydro-1H-4a,7-methanocyclohepta[c]pyran-1-yl)-2-methoxy-3,3-dimethyl-2,3-dihydro-4H-pyran-4-one
_symmetry_cell_setting           monoclinic
_symmetry_space_group_name_H-M   'P 21'
_symmetry_Int_Tables_number      4
_space_group_name_Hall           'P 2yb'
loop_
_symmetry_equiv_pos_site_id
_symmetry_equiv_pos_as_xyz
1 x,y,z
2 -x,1/2+y,-z
_cell_length_a                   12.1637(3)
_cell_length_b                   6.9628(2)
_cell_length_c                   13.0151(4)
_cell_angle_alpha                90
_cell_angle_beta                 104.0500(10)
_cell_angle_gamma                90
_cell_volume                     1069.32
_exptl_crystal_colour            colorless
_exptl_crystal_description       block
_cell_formula_units_Z            2
loop_
_atom_site_label
_atom_site_type_symbol
_atom_site_fract_x
_atom_site_fract_y
_atom_site_fract_z
C1 C 0.71079(14) 0.5749(2) 0.41610(12)
C2 C 0.74261(15) 0.7304(3) 0.47671(13)
H1 H 0.7271 0.8495 0.4441
C3 C 0.84230(16) 0.5463(3) 0.62182(13)
H2 H 0.8662 0.5526 0.6993
C4 C 0.75615(15) 0.3881(3) 0.59009(13)
C5 C 0.72422(13) 0.3835(2) 0.46812(13)
C6 C 0.51255(13) 0.4287(2) 0.17074(12)
H3 H 0.4915 0.5434 0.1267
C7 C 0.59319(13) 0.3064(2) 0.12760(12)
H4 H 0.5573 0.2687 0.0555
H5 H 0.6108 0.1907 0.1699
C8 C 0.70241(13) 0.4149(2) 0.12905(12)
C9 C 0.75091(12) 0.4931(2) 0.24299(11)
H6 H 0.7760 0.3785 0.2860
C10 C 0.66342(13) 0.5916(2) 0.29653(12)
C11 C 0.85942(14) 0.6115(2) 0.25142(13)
H7 H 0.9238 0.5250 0.2678
H8 H 0.8674 0.7000 0.3103
C12 C 0.86421(14) 0.7272(3) 0.15172(13)
H9 H 0.8236 0.8470 0.1518
H10 H 0.9426 0.7582 0.1543
C13 C 0.81336(14) 0.6196(2) 0.04871(13)
H11 H 0.8186 0.6983 -0.0124
C14 C 0.68942(13) 0.5739(2) 0.04468(12)
H12 H 0.6492 0.6860 0.0628
C15 C 0.79338(13) 0.2869(2) 0.09782(12)
H13 H 0.7574 0.1841 0.0514
H14 H 0.8423 0.2302 0.1606
C16 C 0.86376(14) 0.4164(3) 0.04015(13)
C17 C 0.99122(14) 0.3970(3) 0.08183(15)
H15 H 1.0133 0.2666 0.0737
H16 H 1.0120 0.4314 0.1554
H17 H 1.0288 0.4808 0.0427
C18 C 0.80792(17) 0.1978(3) 0.63556(13)
H18 H 0.8731 0.1700 0.6087
H19 H 0.7530 0.0971 0.6152
H20 H 0.8303 0.2063 0.7114
C19 C 0.64830(17) 0.4325(3) 0.62810(15)
H21 H 0.6672 0.4416 0.7040
H22 H 0.5940 0.3314 0.6059
H23 H 0.6165 0.5520 0.5981
C20 C 0.63366(14) 0.8002(2) 0.26273(13)
H24 H 0.5935 0.8032 0.1895
H25 H 0.7020 0.8741 0.2723
H26 H 0.5868 0.8536 0.3052
C21 C 1.0275(2) 0.6306(4) 0.6092(2)
H27 H 1.0062 0.7509 0.5740
H28 H 1.0913 0.5784 0.5874
H29 H 1.0475 0.6506 0.6845
C22 C 0.32931(15) 0.4225(3) 0.20433(17)
H30 H 0.3569 0.4612 0.2768
H31 H 0.2639 0.3420 0.1979
H32 H 0.3090 0.5343 0.1606
O1 O 0.79534(12) 0.73001(18) 0.58127(9)
O2 O 0.93506(10) 0.50029(19) 0.58236(9)
O3 O 0.70861(11) 0.23059(17) 0.42097(9)
O4 O 0.41556(9) 0.31880(17) 0.17109(9)
O5 O 0.63170(10) 0.49179(18) -0.05527(8)
H33 H 0.6118 0.5778 -0.0989
O6 O 0.84294(11) 0.3634(2) -0.07002(10)
H34 H 0.7754 0.3772 -0.0984
O7 O 0.55942(9) 0.48196(16) 0.27690(8)
loop_
_geom_bond_atom_site_label_1
_geom_bond_atom_site_label_2
_geom_bond_site_symmetry_1
_geom_bond_site_symmetry_2
C1 C2 1_555 1_555
C2 H1 1_555 1_555
C3 H2 1_555 1_555
C4 C3 1_555 1_555
C5 C1 1_555 1_555
C6 H3 1_555 1_555
C7 C6 1_555 1_555
H4 C7 1_555 1_555
H5 C7 1_555 1_555
C8 C7 1_555 1_555
C9 C8 1_555 1_555
H6 C9 1_555 1_555
C10 C1 1_555 1_555
C11 C9 1_555 1_555
H7 C11 1_555 1_555
H8 C11 1_555 1_555
C12 C11 1_555 1_555
H9 C12 1_555 1_555
H10 C12 1_555 1_555
C13 C12 1_555 1_555
H11 C13 1_555 1_555
C14 C8 1_555 1_555
H12 C14 1_555 1_555
C15 C8 1_555 1_555
H13 C15 1_555 1_555
H14 C15 1_555 1_555
C16 C13 1_555 1_555
C17 C16 1_555 1_555
H15 C17 1_555 1_555
H16 C17 1_555 1_555
H17 C17 1_555 1_555
C18 C4 1_555 1_555
H18 C18 1_555 1_555
H19 C18 1_555 1_555
H20 C18 1_555 1_555
C19 C4 1_555 1_555
H21 C19 1_555 1_555
H22 C19 1_555 1_555
H23 C19 1_555 1_555
C20 C10 1_555 1_555
H24 C20 1_555 1_555
H25 C20 1_555 1_555
H26 C20 1_555 1_555
C21 H27 1_555 1_555
H28 C21 1_555 1_555
H29 C21 1_555 1_555
C22 H30 1_555 1_555
H31 C22 1_555 1_555
H32 C22 1_555 1_555
O1 C2 1_555 1_555
O2 C3 1_555 1_555
O3 C5 1_555 1_555
O4 C6 1_555 1_555
O5 C14 1_555 1_555
H33 O5 1_555 1_555
O6 C16 1_555 1_555
H34 O6 1_555 1_555
O7 C6 1_555 1_555
C3 O1 1_555 1_555
C4 C5 1_555 1_555
C9 C10 1_555 1_555
C10 O7 1_555 1_555
C13 C14 1_555 1_555
C15 C16 1_555 1_555
C21 O2 1_555 1_555
C22 O4 1_555 1_555

#END
