
#######################################################################
#
#                 Cambridge Crystallographic Data Centre
#                                CCDC 
#
#######################################################################
#
# If this CIF has been generated from an entry in the Cambridge 
# Structural Database, then it will include bibliographic, chemical, 
# crystal, experimental, refinement or atomic coordinate data resulting 
# from the CCDC's data processing and validation procedures.
#
#######################################################################

data_EDAVEK
_chemical_formula_moiety         'C15 H10 F6 N2 O2'
_chemical_name_systematic        
1,1,1,3,3,3-Hexafluoro-2-(4-nitrophenyl)-N-phenylisopropylamine
_symmetry_cell_setting           monoclinic
_symmetry_space_group_name_H-M   'C 2/c'
_symmetry_Int_Tables_number      15
_space_group_name_Hall           '-C 2yn'
loop_
_symmetry_equiv_pos_site_id
_symmetry_equiv_pos_as_xyz
1 x,y,z
2 x,-y,1/2+z
3 1/2+x,1/2+y,z
4 1/2+x,1/2-y,1/2+z
5 -x,-y,-z
6 -x,y,1/2-z
7 1/2-x,1/2-y,-z
8 1/2-x,1/2+y,1/2-z
_cell_length_a                   16.903(3)
_cell_length_b                   10.182(2)
_cell_length_c                   17.971(3)
_cell_angle_alpha                90
_cell_angle_beta                 104.900(10)
_cell_angle_gamma                90
_cell_volume                     2988.93
_exptl_crystal_colour            'pale yellow'
_chemical_melting_point          180-182deg.C
_cell_formula_units_Z            8
_exptl_crystal_recrystallization_method hexane
loop_
_atom_site_label
_atom_site_type_symbol
_atom_site_fract_x
_atom_site_fract_y
_atom_site_fract_z
C1 C 0.3495(2) 0.2893(3) 0.36500(19)
C2 C 0.2547(3) 0.2785(4) 0.3498(2)
C3 C 0.3877(3) 0.2369(4) 0.4466(2)
C4 C 0.37909(12) 0.43107(15) 0.36294(12)
C5 C 0.45588(11) 0.44937(17) 0.34983(13)
H1 H 0.4870 0.3771 0.3432
C6 C 0.48610(10) 0.5756(2) 0.34666(13)
H2 H 0.5375 0.5879 0.3379
C7 C 0.43954(12) 0.68359(16) 0.35660(14)
C8 C 0.36275(12) 0.66529(17) 0.36970(13)
H3 H 0.3316 0.7375 0.3763
C9 C 0.33252(10) 0.53903(19) 0.37287(13)
H4 H 0.2811 0.5268 0.3816
C10 C 0.36723(13) 0.2257(2) 0.23300(8)
C11 C 0.39275(14) 0.12231(17) 0.19429(11)
H5 H 0.4148 0.0471 0.2210
C12 C 0.38527(14) 0.13139(18) 0.11560(11)
H6 H 0.4023 0.0622 0.0897
C13 C 0.35227(15) 0.2438(2) 0.07563(9)
H7 H 0.3473 0.2499 0.0230
C14 C 0.32675(14) 0.34720(18) 0.11434(11)
H8 H 0.3047 0.4224 0.0876
C15 C 0.33423(13) 0.33813(17) 0.19302(11)
H9 H 0.3172 0.4073 0.2189
F1 F 0.22629(14) 0.3231(3) 0.40751(14)
F2 F 0.21566(12) 0.3449(2) 0.28749(13)
F3 F 0.23022(15) 0.1547(2) 0.33774(16)
F4 F 0.37300(14) 0.3145(2) 0.50066(12)
F5 F 0.46835(15) 0.2270(2) 0.46033(12)
F6 F 0.35961(17) 0.1182(2) 0.45739(13)
N1 N 0.37711(18) 0.2064(3) 0.31227(16)
H10 H 0.4028 0.1363 0.3315
N2 N 0.4705(3) 0.8162(4) 0.3508(2)
O1 O 0.4272(2) 0.9060(3) 0.3610(2)
O2 O 0.5363(3) 0.8262(3) 0.3361(2)
loop_
_geom_bond_atom_site_label_1
_geom_bond_atom_site_label_2
_geom_bond_site_symmetry_1
_geom_bond_site_symmetry_2
C1 C2 1_555 1_555
C2 F1 1_555 1_555
C3 C1 1_555 1_555
C4 C1 1_555 1_555
C5 C4 1_555 1_555
H1 C5 1_555 1_555
C6 C5 1_555 1_555
H2 C6 1_555 1_555
C7 C6 1_555 1_555
C8 C7 1_555 1_555
H3 C8 1_555 1_555
C9 C4 1_555 1_555
H4 C9 1_555 1_555
C10 C11 1_555 1_555
C11 H5 1_555 1_555
C12 C11 1_555 1_555
H6 C12 1_555 1_555
C13 C12 1_555 1_555
H7 C13 1_555 1_555
C14 C13 1_555 1_555
H8 C14 1_555 1_555
C15 C10 1_555 1_555
H9 C15 1_555 1_555
F2 C2 1_555 1_555
F3 C2 1_555 1_555
F4 C3 1_555 1_555
F5 C3 1_555 1_555
F6 C3 1_555 1_555
N1 C1 1_555 1_555
H10 N1 1_555 1_555
N2 C7 1_555 1_555
O1 N2 1_555 1_555
O2 N2 1_555 1_555
C8 C9 1_555 1_555
C10 N1 1_555 1_555
C14 C15 1_555 1_555

#END
