
#######################################################################
#
#                 Cambridge Crystallographic Data Centre
#                                CCDC 
#
#######################################################################
#
# If this CIF has been generated from an entry in the Cambridge 
# Structural Database, then it will include bibliographic, chemical, 
# crystal, experimental, refinement or atomic coordinate data resulting 
# from the CCDC's data processing and validation procedures.
#
#######################################################################

data_EDEBEX
_chemical_formula_moiety         'C18 H15 N1 O1'
_chemical_name_systematic        1-(2-methyl-4-phenylquinolin-3-yl)ethanone
_symmetry_cell_setting           orthorhombic
_symmetry_space_group_name_H-M   'P b c a'
_symmetry_Int_Tables_number      61
_space_group_name_Hall           '-P 2ac 2ab'
loop_
_symmetry_equiv_pos_site_id
_symmetry_equiv_pos_as_xyz
1 x,y,z
2 1/2-x,-y,1/2+z
3 1/2+x,1/2-y,-z
4 -x,1/2+y,1/2-z
5 -x,-y,-z
6 1/2+x,y,1/2-z
7 1/2-x,1/2+y,z
8 x,1/2-y,1/2+z
_cell_length_a                   17.0989(3)
_cell_length_b                   8.7447(2)
_cell_length_c                   18.0469(3)
_cell_angle_alpha                90
_cell_angle_beta                 90
_cell_angle_gamma                90
_cell_volume                     2698.46
_exptl_crystal_colour            colorless
_exptl_crystal_description       prism
_cell_formula_units_Z            8
loop_
_atom_site_label
_atom_site_type_symbol
_atom_site_fract_x
_atom_site_fract_y
_atom_site_fract_z
O1 O 0.54478(5) 0.37362(10) 0.70631(5)
N1 N 0.52718(5) 0.24493(11) 0.47585(5)
C1 C 0.36001(7) 0.19287(13) 0.71317(6)
H1 H 0.4097 0.1508 0.7251
C2 C 0.30266(8) 0.20532(15) 0.76763(7)
H2 H 0.3133 0.1712 0.8166
C3 C 0.23041(7) 0.26716(15) 0.75080(8)
H3 H 0.1920 0.2781 0.7885
C4 C 0.21401(7) 0.31323(14) 0.67891(8)
H4 H 0.1640 0.3538 0.6671
C5 C 0.27052(6) 0.30009(13) 0.62435(7)
H5 H 0.2589 0.3307 0.5751
C6 C 0.34467(6) 0.24200(12) 0.64122(6)
C7 C 0.40733(6) 0.24104(12) 0.58393(6)
C8 C 0.39766(6) 0.15898(12) 0.51604(6)
C9 C 0.33022(6) 0.07183(13) 0.49895(6)
H6 H 0.2886 0.0659 0.5337
C10 C 0.32447(7) -0.00404(14) 0.43264(7)
H7 H 0.2788 -0.0615 0.4216
C11 C 0.38591(7) 0.00271(14) 0.38081(7)
H8 H 0.3813 -0.0499 0.3350
C12 C 0.45222(7) 0.08444(13) 0.39593(6)
H9 H 0.4935 0.0878 0.3607
C13 C 0.45965(6) 0.16415(12) 0.46387(6)
C14 C 0.53542(6) 0.31876(12) 0.53898(6)
C15 C 0.47640(6) 0.31909(12) 0.59527(6)
C16 C 0.49122(6) 0.40948(13) 0.66543(6)
C17 C 0.44104(7) 0.54684(13) 0.67899(6)
H10 H 0.4575 0.5969 0.7250
H11 H 0.3863 0.5151 0.6833
H12 H 0.4465 0.6185 0.6376
C18 C 0.61000(6) 0.40816(14) 0.54824(7)
H13 H 0.6393 0.4074 0.5015
H14 H 0.6418 0.3615 0.5873
H15 H 0.5975 0.5139 0.5619
loop_
_geom_bond_atom_site_label_1
_geom_bond_atom_site_label_2
_geom_bond_site_symmetry_1
_geom_bond_site_symmetry_2
O1 C16 1_555 1_555
N1 C13 1_555 1_555
C1 H1 1_555 1_555
C2 C1 1_555 1_555
H2 C2 1_555 1_555
C3 C2 1_555 1_555
H3 C3 1_555 1_555
C4 C3 1_555 1_555
H4 C4 1_555 1_555
C5 C4 1_555 1_555
H5 C5 1_555 1_555
C6 C1 1_555 1_555
C7 C6 1_555 1_555
C8 C7 1_555 1_555
C9 C8 1_555 1_555
H6 C9 1_555 1_555
C10 C9 1_555 1_555
H7 C10 1_555 1_555
C11 C10 1_555 1_555
H8 C11 1_555 1_555
C12 C11 1_555 1_555
H9 C12 1_555 1_555
C13 C8 1_555 1_555
C14 N1 1_555 1_555
C15 C7 1_555 1_555
C16 C15 1_555 1_555
C17 C16 1_555 1_555
H10 C17 1_555 1_555
H11 C17 1_555 1_555
H12 C17 1_555 1_555
C18 C14 1_555 1_555
H13 C18 1_555 1_555
H14 C18 1_555 1_555
H15 C18 1_555 1_555
C5 C6 1_555 1_555
C12 C13 1_555 1_555
C14 C15 1_555 1_555

#END
