
#######################################################################
#
#                 Cambridge Crystallographic Data Centre
#                                CCDC 
#
#######################################################################
#
# If this CIF has been generated from an entry in the Cambridge 
# Structural Database, then it will include bibliographic, chemical, 
# crystal, experimental, refinement or atomic coordinate data resulting 
# from the CCDC's data processing and validation procedures.
#
#######################################################################

data_EDEDUM
_chemical_name_common            
2,2-dimethyl-3a,4,13,13a-tetrahydro[1,3]dioxolo[4,5-d][2,7]benzodioxecine-6,11-dione
_chemical_formula_moiety         'C15 H16 O6'
_chemical_name_systematic        'L-(+)-2,3-isopropylidene threitol phthalate'
_symmetry_cell_setting           monoclinic
_symmetry_space_group_name_H-M   'P 21'
_symmetry_Int_Tables_number      4
_space_group_name_Hall           'P 2yb'
loop_
_symmetry_equiv_pos_site_id
_symmetry_equiv_pos_as_xyz
1 x,y,z
2 -x,1/2+y,-z
_cell_length_a                   10.001(2)
_cell_length_b                   13.6823(12)
_cell_length_c                   10.6252(9)
_cell_angle_alpha                90
_cell_angle_beta                 98.297(9)
_cell_angle_gamma                90
_cell_volume                     1438.7
_cell_formula_units_Z            4
loop_
_atom_site_label
_atom_site_type_symbol
_atom_site_fract_x
_atom_site_fract_y
_atom_site_fract_z
O1 O 0.2266(1) 0.6327(1) 0.5722(1)
O2 O 0.0219(1) 0.5962(1) 0.9826(1)
O3 O 0.1998(1) 0.5640(1) 0.8818(1)
O4 O 0.1311(1) 0.3052(1) 0.8396(1)
O5 O 0.1231(1) 0.3229(1) 0.6255(1)
O6 O 0.0439(1) 0.5786(1) 0.6506(1)
C1 C 0.1316(1) 0.7284(1) 0.7257(1)
C2 C 0.1452(1) 0.8210(1) 0.6769(1)
C3 C 0.1236(1) 0.9016(1) 0.7483(1)
C4 C 0.0895(1) 0.8917(1) 0.8679(1)
C5 C 0.0774(1) 0.8007(1) 0.9188(1)
C6 C 0.1006(1) 0.7174(1) 0.8493(1)
C7 C 0.0992(1) 0.6205(1) 0.9109(1)
C8 C 0.1992(1) 0.4608(1) 0.9153(1)
C9 C 0.1085(1) 0.4068(1) 0.8125(1)
C10 C 0.1345(1) 0.2539(1) 0.7247(1)
C11 C 0.0154(2) 0.1874(2) 0.7002(1)
C12 C 0.2639(2) 0.2013(2) 0.7359(1)
C13 C 0.1446(1) 0.4182(1) 0.6785(1)
C14 C 0.0534(1) 0.4847(1) 0.5918(1)
C15 C 0.1436(1) 0.6430(1) 0.6424(1)
O7 O 0.4729(1) 0.0140(1) 0.0336(1)
O8 O 0.2816(1) -0.0363(1) 0.4498(1)
O9 O 0.4536(1) 0.0250(1) 0.3599(1)
O10 O 0.4528(1) 0.2885(1) 0.3809(1)
O11 O 0.3176(1) 0.3092(1) 0.1924(1)
O12 O 0.2952(1) 0.0489(1) 0.1311(1)
C16 C 0.3918(1) -0.0099(1) 0.1005(1)
C17 C 0.3844(1) -0.1092(1) 0.1566(1)
C18 C 0.3962(1) -0.1892(1) 0.0794(1)
C19 C 0.3831(1) -0.2832(1) 0.1251(1)
C20 C 0.3562(1) -0.2971(1) 0.2470(1)
C21 C 0.3467(1) -0.2173(1) 0.3262(1)
C22 C 0.3614(1) -0.1232(1) 0.2823(1)
C23 C 0.3575(1) -0.0415(1) 0.3723(1)
C24 C 0.4460(1) 0.1198(1) 0.4190(1)
C25 C 0.4429(1) 0.1961(1) 0.3177(1)
C26 C 0.3873(1) 0.3603(1) 0.2999(1)
C27 C 0.2852(2) 0.4110(1) 0.3727(1)
C28 C 0.4831(2) 0.4299(1) 0.2555(1)
C29 C 0.3128(1) 0.2076(1) 0.2245(1)
C30 C 0.3030(1) 0.1527(1) 0.1020(1)
loop_
_geom_bond_atom_site_label_1
_geom_bond_atom_site_label_2
_geom_bond_site_symmetry_1
_geom_bond_site_symmetry_2
O1 C15 1_555 1_555
O2 C7 1_555 1_555
O3 C7 1_555 1_555
O4 C9 1_555 1_555
O5 C10 1_555 1_555
O6 C14 1_555 1_555
O7 C16 1_555 1_555
O8 C23 1_555 1_555
O9 C23 1_555 1_555
O10 C25 1_555 1_555
O11 C26 1_555 1_555
O12 C16 1_555 1_555
C1 C2 1_555 1_555
C2 C3 1_555 1_555
C3 C4 1_555 1_555
C4 C5 1_555 1_555
C5 C6 1_555 1_555
C6 C1 1_555 1_555
C7 C6 1_555 1_555
C8 O3 1_555 1_555
C9 C8 1_555 1_555
C10 O4 1_555 1_555
C11 C10 1_555 1_555
C12 C10 1_555 1_555
C13 O5 1_555 1_555
C14 C13 1_555 1_555
C15 O6 1_555 1_555
C16 C17 1_555 1_555
C17 C18 1_555 1_555
C18 C19 1_555 1_555
C19 C20 1_555 1_555
C20 C21 1_555 1_555
C21 C22 1_555 1_555
C22 C17 1_555 1_555
C23 C22 1_555 1_555
C24 O9 1_555 1_555
C25 C24 1_555 1_555
C26 O10 1_555 1_555
C27 C26 1_555 1_555
C28 C26 1_555 1_555
C29 O11 1_555 1_555
C30 O12 1_555 1_555
C1 C15 1_555 1_555
C9 C13 1_555 1_555
C25 C29 1_555 1_555
C29 C30 1_555 1_555

#END
