
#######################################################################
#
#                 Cambridge Crystallographic Data Centre
#                                CCDC 
#
#######################################################################
#
# If this CIF has been generated from an entry in the Cambridge 
# Structural Database, then it will include bibliographic, chemical, 
# crystal, experimental, refinement or atomic coordinate data resulting 
# from the CCDC's data processing and validation procedures.
#
#######################################################################

data_EDEHIH
_chemical_formula_moiety         'C10 H4 F2 N8 O10'
_chemical_name_systematic        
5,6-bis(2-fluoro-2,2-dinitroethoxy)pyrazine-2,3-dicarbonitrile
_symmetry_cell_setting           monoclinic
_symmetry_space_group_name_H-M   'P 21/c'
_symmetry_Int_Tables_number      14
_space_group_name_Hall           '-P 2ybc'
loop_
_symmetry_equiv_pos_site_id
_symmetry_equiv_pos_as_xyz
1 x,y,z
2 -x,1/2+y,1/2-z
3 -x,-y,-z
4 x,1/2-y,1/2+z
_cell_length_a                   11.9753(15)
_cell_length_b                   11.3260(15)
_cell_length_c                   12.5731(17)
_cell_angle_alpha                90
_cell_angle_beta                 102.768(2)
_cell_angle_gamma                90
_cell_volume                     1663.15
_exptl_crystal_colour            colorless
_exptl_crystal_description       block
_cell_formula_units_Z            4
loop_
_atom_site_label
_atom_site_type_symbol
_atom_site_fract_x
_atom_site_fract_y
_atom_site_fract_z
F1 F 0.79783(15) 0.51868(13) 0.61233(12)
F2 F 0.6749(6) 0.0727(6) 0.4600(3)
O1 O 0.76453(13) 0.46832(13) 0.39712(13)
O2 O 0.69252(12) 0.25785(12) 0.32522(12)
O3 O 0.78284(19) 0.80473(17) 0.52691(18)
O4 O 0.8460(2) 0.72214(19) 0.68380(16)
O5 O 0.5881(2) 0.5650(2) 0.58447(17)
O6 O 0.58456(16) 0.63974(17) 0.42584(18)
O7 O 0.4784(5) 0.1318(5) 0.4729(5)
O8 O 0.4445(11) 0.1954(17) 0.3021(11)
O9 O 0.4596(5) -0.0496(5) 0.2711(4)
O10 O 0.6337(5) -0.1097(4) 0.3322(5)
N1 N 0.88590(15) 0.48087(15) 0.27878(15)
N2 N 0.80449(14) 0.25911(14) 0.19777(14)
N3 N 1.08496(18) 0.53500(19) 0.12674(16)
N4 N 0.95587(17) 0.21560(18) 0.00166(16)
N5 N 0.80034(18) 0.72151(19) 0.58804(19)
N6 N 0.63240(18) 0.60155(18) 0.51392(18)
N7 N 0.4953(5) 0.1453(5) 0.3812(5)
N8 N 0.5553(9) -0.0353(8) 0.3209(8)
C1 C 0.80929(17) 0.42327(18) 0.31705(18)
C2 C 0.76903(16) 0.30994(18) 0.27684(17)
C3 C 0.88426(17) 0.31856(18) 0.15742(16)
C4 C 0.92494(17) 0.42753(18) 0.19759(17)
C5 C 1.01308(19) 0.4883(2) 0.15710(17)
C6 C 0.92423(18) 0.26148(18) 0.07046(18)
C7 C 0.8070(2) 0.5824(2) 0.4366(2)
H1 H 0.7780 0.6444 0.3819
H2 H 0.8917 0.5837 0.4534
C8 C 0.7631(2) 0.60076(19) 0.53697(19)
C9 C 0.65162(18) 0.14460(18) 0.28169(18)
H3 H 0.7123 0.0837 0.2983
H4 H 0.6209 0.1481 0.2019
C10 C 0.6005(5) 0.0865(5) 0.3609(5)
F3? F 0.4710(8) 0.2026(11) 0.3265(8)
O11? O 0.5503(4) 0.1756(5) 0.5240(4)
O12? O 0.6909(6) 0.0679(7) 0.5040(4)
O13? O 0.4003(4) -0.0047(6) 0.3182(5)
O14? O 0.5694(9) -0.0740(7) 0.3081(8)
N9? N 0.6019(3) 0.1215(3) 0.4681(3)
N10? N 0.5000(6) 0.0019(5) 0.3183(5)
H5? H 0.7159 0.0968 0.2672
H6? H 0.5943 0.1547 0.2123
C11? C 0.5560(5) 0.1221(5) 0.3439(5)
loop_
_geom_bond_atom_site_label_1
_geom_bond_atom_site_label_2
_geom_bond_site_symmetry_1
_geom_bond_site_symmetry_2
F1 C8 1_555 1_555
F2 C10 1_555 1_555
O1 C1 1_555 1_555
O2 C2 1_555 1_555
O3 N5 1_555 1_555
O4 N5 1_555 1_555
O5 N6 1_555 1_555
O6 N6 1_555 1_555
O7 N7 1_555 1_555
O8 N7 1_555 1_555
O9 N8 1_555 1_555
O10 N8 1_555 1_555
N1 C1 1_555 1_555
N2 C2 1_555 1_555
N3 C5 1_555 1_555
N4 C6 1_555 1_555
N5 C8 1_555 1_555
N6 C8 1_555 1_555
N7 C10 1_555 1_555
N8 C10 1_555 1_555
C1 C2 1_555 1_555
C3 N2 1_555 1_555
C4 N1 1_555 1_555
C5 C4 1_555 1_555
C6 C3 1_555 1_555
C7 O1 1_555 1_555
H1 C7 1_555 1_555
H2 C7 1_555 1_555
C8 C7 1_555 1_555
C9 O2 1_555 1_555
H3 C9 1_555 1_555
H4 C9 1_555 1_555
C10 C9 1_555 1_555
C3 C4 1_555 1_555

#END
