
#######################################################################
#
#                 Cambridge Crystallographic Data Centre
#                                CCDC 
#
#######################################################################
#
# If this CIF has been generated from an entry in the Cambridge 
# Structural Database, then it will include bibliographic, chemical, 
# crystal, experimental, refinement or atomic coordinate data resulting 
# from the CCDC's data processing and validation procedures.
#
#######################################################################

data_EDEJEF
_chemical_formula_moiety         'C3 H7 N8 1+,C2 H3 N10 1-'
_chemical_name_systematic        
'3,6,7-triamino-7H-[1,2,4]triazolo[4,3-b][1,2,4]triazol-2-ium 5-(2-(1H-tetrazol-5-yl)hydrazinyl)tetrazol-1-ide'
_symmetry_cell_setting           triclinic
_symmetry_space_group_name_H-M   'P -1'
_symmetry_Int_Tables_number      2
_space_group_name_Hall           '-P 1'
loop_
_symmetry_equiv_pos_site_id
_symmetry_equiv_pos_as_xyz
1 x,y,z
2 -x,-y,-z
_cell_length_a                   6.8653(4)
_cell_length_b                   9.2714(8)
_cell_length_c                   10.3275(9)
_cell_angle_alpha                76.491(8)
_cell_angle_beta                 74.571(7)
_cell_angle_gamma                80.355(6)
_cell_volume                     612.225
_exptl_crystal_colour            colorless
_exptl_crystal_description       block
_cell_formula_units_Z            2
loop_
_atom_site_label
_atom_site_type_symbol
_atom_site_fract_x
_atom_site_fract_y
_atom_site_fract_z
N1 N 0.6269(3) 0.7878(2) 0.54232(19)
N2 N 0.6901(3) 0.6431(2) 0.35552(19)
C1 C 0.4376(3) 0.8431(2) 0.6137(2)
C2 C 0.5926(3) 0.7155(2) 0.4516(2)
N3 N 0.4194(3) 0.9314(2) 0.7007(2)
H1 H 0.3009 0.9686 0.7396
H2 H 0.5261 0.9517 0.7184
N4 N 0.1626(3) 0.6298(2) 0.3835(2)
H3 H 0.1512 0.5777 0.3276
H4 H 0.0554 0.6685 0.4344
C3 C 0.3437(3) 0.6502(2) 0.3913(2)
N5 N 0.3878(3) 0.7237(2) 0.47626(19)
N6 N 0.2830(3) 0.8041(2) 0.57859(19)
N7 N 0.8202(3) 0.8125(2) 0.5478(2)
H5 H 0.8305 0.9069 0.5266
N8 N 0.5263(3) 0.5990(2) 0.3206(2)
H6 H 0.553(5) 0.567(4) 0.244(3)
H7 H 0.827(4) 0.787(3) 0.634(3)
N9 N 0.9984(3) 0.2273(2) -0.0518(2)
N10 N 1.0044(3) 0.0609(2) -0.1967(2)
N11 N 0.8566(3) -0.0011(3) -0.2237(2)
N12 N 0.8658(3) 0.3114(2) 0.0381(2)
N13 N 0.8141(3) 0.5072(2) -0.15233(19)
N14 N 0.6794(3) 0.0417(2) -0.1532(2)
N15 N 0.6321(3) 0.6718(2) -0.0370(2)
N16 N 0.7095(3) 0.6455(2) -0.1593(2)
C4 C 0.7919(3) 0.4551(2) -0.0183(2)
C5 C 0.9066(3) 0.1449(2) -0.1075(2)
N17 N 0.7083(3) 0.1343(2) -0.0780(2)
N18 N 0.6822(3) 0.5511(2) 0.05732(19)
H8 H 0.598(5) 0.187(3) -0.022(3)
H9 H 0.904(4) 0.297(3) 0.115(3)
H10 H 1.105(5) 0.266(3) -0.109(3)
loop_
_geom_bond_atom_site_label_1
_geom_bond_atom_site_label_2
_geom_bond_site_symmetry_1
_geom_bond_site_symmetry_2
N1 C1 1_555 1_555
N2 C2 1_555 1_555
C1 N3 1_555 1_555
C2 N1 1_555 1_555
N3 H1 1_555 1_555
H2 N3 1_555 1_555
N4 H3 1_555 1_555
H4 N4 1_555 1_555
C3 N4 1_555 1_555
N5 C2 1_555 1_555
N6 C1 1_555 1_555
N7 N1 1_555 1_555
H5 N7 1_555 1_555
N8 N2 1_555 1_555
H6 N8 1_555 1_555
H7 N7 1_555 1_555
N9 N12 1_555 1_555
N10 N11 1_555 1_555
N11 N14 1_555 1_555
N12 C4 1_555 1_555
N13 N16 1_555 1_555
N14 N17 1_555 1_555
N15 N16 1_555 1_555
C4 N13 1_555 1_555
C5 N9 1_555 1_555
N17 C5 1_555 1_555
N18 N15 1_555 1_555
H8 N17 1_555 1_555
H9 N12 1_555 1_555
H10 N9 1_555 1_555
C3 N5 1_555 1_555
C3 N8 1_555 1_555
N5 N6 1_555 1_555
N10 C5 1_555 1_555
C4 N18 1_555 1_555

#END
