
#######################################################################
#
#                 Cambridge Crystallographic Data Centre
#                                CCDC 
#
#######################################################################
#
# If this CIF has been generated from an entry in the Cambridge 
# Structural Database, then it will include bibliographic, chemical, 
# crystal, experimental, refinement or atomic coordinate data resulting 
# from the CCDC's data processing and validation procedures.
#
#######################################################################

data_EDELIK
_chemical_formula_moiety         'C144 H164 N8 O16,3(C9 H12),C1 H1 Cl3'
_chemical_name_systematic        
'2,8,14,20-tetrahexyl-(4,24:12,16)-bis(5,8-bis(dibutylcarbamoyl)naphthalene-2,3-diolato)-(6,10:18,22)-bis(3,6-dihydroxypentacyclo[6.6.6.02,7.09,14.015,20]icosa-2,4,6,9,11,13,15,17,19-nonaene-4,5-diolato)resorcin(4)arene tetramesitylene clathrate chloroform solvate'
_symmetry_cell_setting           triclinic
_symmetry_space_group_name_H-M   'P -1'
_symmetry_Int_Tables_number      2
_space_group_name_Hall           '-P 1'
loop_
_symmetry_equiv_pos_site_id
_symmetry_equiv_pos_as_xyz
1 x,y,z
2 -x,-y,-z
_cell_length_a                   16.732(3)
_cell_length_b                   19.977(5)
_cell_length_c                   23.553(5)
_cell_angle_alpha                82.215(10)
_cell_angle_beta                 82.397(8)
_cell_angle_gamma                85.757(7)
_cell_volume                     7718.97
_exptl_crystal_colour            yellow
_exptl_crystal_description       plate
_cell_formula_units_Z            2
loop_
_atom_site_label
_atom_site_type_symbol
_atom_site_fract_x
_atom_site_fract_y
_atom_site_fract_z
O1 O 0.4950(2) 0.63078(17) 0.74676(14)
O2 O 0.4142(2) 0.75049(16) 0.91041(14)
O3 O 0.5392(2) 0.81809(18) 0.84546(15)
H1 H 0.5604 0.8371 0.8136
O4 O 0.2641(2) 0.95825(18) 0.93770(16)
H2 H 0.2606 0.9990 0.9233
O5 O 0.2790(2) 0.81942(17) 0.95586(13)
O6 O 0.0159(2) 0.88308(17) 0.89854(14)
O7 O 0.2166(2) 1.08279(19) 0.88618(16)
O8 O 0.0629(3) 1.0476(2) 0.63179(16)
O9 O -0.0482(2) 0.87743(17) 0.80107(14)
O10 O 0.0481(2) 0.78754(17) 0.62340(14)
O11 O 0.0399(2) 0.92612(19) 0.59889(15)
H3 H 0.0500 0.9657 0.6027
O12 O 0.3092(2) 0.77326(18) 0.51482(16)
H4 H 0.3491 0.7967 0.5027
O13 O 0.1809(2) 0.71171(17) 0.58049(14)
O14 O 0.4264(2) 0.61709(17) 0.65242(15)
O15 O 0.4596(2) 0.82151(19) 0.48325(16)
O16 O 0.6159(2) 0.86322(19) 0.73833(17)
N1 N 0.0638(3) 0.9877(2) 0.86464(17)
N2 N 0.0013(3) 0.9801(2) 0.76008(17)
N3 N 0.0935(3) 1.1172(2) 0.92905(19)
N4 N -0.0441(3) 1.1210(2) 0.65220(18)
N5 N 0.4882(3) 0.7094(2) 0.60099(19)
N6 N 0.5576(3) 0.7266(2) 0.70096(18)
N7 N 0.5585(3) 0.7406(3) 0.4663(2)
N8 N 0.7354(3) 0.8110(2) 0.7092(2)
C1 C 0.4352(3) 0.6483(3) 0.7910(2)
C2 C 0.4511(3) 0.6945(2) 0.8253(2)
H5 H 0.4996 0.7178 0.8168
C3 C 0.3961(3) 0.7074(3) 0.8728(2)
C4 C 0.4066(3) 0.8196(3) 0.8955(2)
C5 C 0.4712(3) 0.8550(3) 0.8640(2)
C6 C 0.4645(3) 0.9254(3) 0.8577(2)
C7 C 0.5325(3) 0.9712(3) 0.8318(2)
H6 H 0.5821 0.9459 0.8155
C8 C 0.4976(3) 1.0248(3) 0.7873(2)
C9 C 0.5300(4) 1.0402(3) 0.7301(2)
H7 H 0.5759 1.0151 0.7141
C10 C 0.4927(4) 1.0943(3) 0.6964(3)
H8 H 0.5148 1.1068 0.6574
C11 C 0.4248(4) 1.1291(3) 0.7192(3)
H9 H 0.4001 1.1649 0.6955
C12 C 0.3911(4) 1.1127(3) 0.7770(3)
H10 H 0.3440 1.1368 0.7925
C13 C 0.4289(4) 1.0601(3) 0.8108(2)
C14 C 0.4036(3) 1.0371(3) 0.8745(2)
H11 H 0.3539 1.0623 0.8908
C15 C 0.4774(3) 1.0447(3) 0.9041(2)
C16 C 0.4804(4) 1.0817(3) 0.9493(2)
H12 H 0.4334 1.1060 0.9646
C17 C 0.5529(4) 1.0830(3) 0.9722(2)
H13 H 0.5556 1.1082 1.0033
C18 C 0.6205(4) 1.0475(3) 0.9492(2)
H14 H 0.6700 1.0487 0.9647
C19 C 0.6181(3) 1.0104(3) 0.9047(2)
H15 H 0.6651 0.9855 0.8899
C20 C 0.5466(3) 1.0095(3) 0.8813(2)
C21 C 0.3953(3) 0.9605(3) 0.8804(2)
C22 C 0.3313(3) 0.9264(3) 0.9108(2)
C23 C 0.3366(3) 0.8557(3) 0.9187(2)
C24 C 0.2109(3) 0.8031(3) 0.9329(2)
C25 C 0.1494(3) 0.8528(3) 0.92345(19)
H16 H 0.1545 0.8982 0.9298
C26 C 0.0811(3) 0.8339(3) 0.9046(2)
C27 C 0.0282(3) 0.9354(3) 0.8557(2)
C28 C 0.0723(3) 1.0392(3) 0.8198(2)
C29 C 0.1107(3) 1.0964(3) 0.8283(2)
C30 C 0.1218(3) 1.1481(3) 0.7826(2)
H17 H 0.1493 1.1867 0.7869
C31 C 0.0924(4) 1.1434(3) 0.7300(2)
H18 H 0.1011 1.1789 0.6991
C32 C 0.0522(4) 1.0897(3) 0.7225(2)
C33 C 0.0420(3) 1.0347(3) 0.7673(2)
C34 C -0.0051(3) 0.9319(3) 0.8031(2)
C35 C 0.1437(4) 1.0986(3) 0.8840(2)
C36 C 0.1245(4) 1.1147(3) 0.9848(2)
H19 H 0.0927 1.1482 1.0073
H20 H 0.1813 1.1277 0.9778
C37 C 0.1205(4) 1.0447(3) 1.0202(2)
H21 H 0.0633 1.0346 1.0322
H22 H 0.1455 1.0102 0.9958
C38 C 0.1632(4) 1.0403(3) 1.0730(3)
H23 H 0.1383 1.0752 1.0970
H24 H 0.2203 1.0508 1.0607
C39 C 0.1610(4) 0.9724(3) 1.1094(3)
H25 H 0.1868 0.9376 1.0864
H26 H 0.1047 0.9621 1.1227
H27 H 0.1899 0.9734 1.1428
C40 C 0.0087(4) 1.1363(3) 0.9271(3)
H28 H -0.0219 1.1192 0.9646
H29 H -0.0107 1.1142 0.8968
C41 C -0.0095(5) 1.2120(4) 0.9151(3)
H30 H 0.0229 1.2297 0.8786
H31 H 0.0068 1.2341 0.9466
C42 C -0.0988(5) 1.2303(4) 0.9102(4)
H32 H -0.1164 1.2050 0.8811
H33 H -0.1309 1.2162 0.9478
C43 C -0.1157(7) 1.3042(5) 0.8934(5)
H34 H -0.0940 1.3165 0.8529
H35 H -0.0901 1.3299 0.9180
H36 H -0.1742 1.3146 0.8983
C44 C 0.0221(4) 1.0842(3) 0.6649(2)
C45 C -0.0966(4) 1.1581(3) 0.6938(2)
H37 H -0.1175 1.2012 0.6735
H38 H -0.0648 1.1690 0.7235
C46 C -0.1661(4) 1.1178(3) 0.7224(3)
H39 H -0.1445 1.0745 0.7420
H40 H -0.1973 1.1070 0.6923
C47 C -0.2229(5) 1.1532(4) 0.7663(3)
H41 H -0.1968 1.1514 0.8019
H42 H -0.2310 1.2014 0.7507
C48 C -0.3044(4) 1.1234(4) 0.7820(3)
H43 H -0.3313 1.1256 0.7472
H44 H -0.3376 1.1492 0.8100
H45 H -0.2974 1.0761 0.7990
C49 C -0.0723(4) 1.1173(3) 0.5964(2)
H46 H -0.1292 1.1046 0.6031
H47 H -0.0398 1.0813 0.5773
C50 C -0.0667(9) 1.1824(7) 0.5570(5)
H48 H -0.1112 1.1871 0.5353
C51 C -0.0296(9) 1.2282(7) 0.5434(6)
H49 H -0.0131 1.2399 0.5776
C52 C 0.0039(9) 1.2770(7) 0.4966(6)
H50 H -0.0016 1.2618 0.4595
H51 H 0.0612 1.2810 0.4996
H52 H -0.0252 1.3211 0.4991
C53 C -0.0091(3) 0.8240(3) 0.7723(2)
C54 C 0.0068(3) 0.8332(3) 0.7126(2)
H53 H -0.0041 0.8762 0.6916
C55 C 0.0384(3) 0.7801(3) 0.6836(2)
C56 C 0.1143(3) 0.8215(3) 0.5934(2)
C57 C 0.1094(3) 0.8914(3) 0.5805(2)
C58 C 0.1738(3) 0.9220(3) 0.5460(2)
C59 C 0.1810(3) 0.9981(3) 0.5272(2)
H54 H 0.1328 1.0261 0.5422
C60 C 0.2583(4) 1.0140(3) 0.5482(2)
C61 C 0.2663(4) 1.0584(3) 0.5882(2)
H55 H 0.2209 1.0848 0.6032
C62 C 0.3411(5) 1.0629(4) 0.6052(3)
H56 H 0.3472 1.0930 0.6321
C63 C 0.4084(5) 1.0239(4) 0.5833(3)
H57 H 0.4597 1.0283 0.5951
C64 C 0.4009(4) 0.9800(3) 0.5454(3)
H58 H 0.4464 0.9530 0.5313
C65 C 0.3260(4) 0.9750(3) 0.5274(2)
C66 C 0.3063(3) 0.9260(3) 0.4874(2)
H59 H 0.3545 0.8982 0.4723
C67 C 0.2642(3) 0.9671(3) 0.4404(2)
C68 C 0.2862(4) 0.9684(3) 0.3819(2)
H60 H 0.3321 0.9418 0.3676
C69 C 0.2407(4) 1.0088(3) 0.3438(2)
H61 H 0.2564 1.0106 0.3034
C70 C 0.1737(4) 1.0461(3) 0.3640(2)
H62 H 0.1426 1.0728 0.3374
C71 C 0.1505(3) 1.0453(3) 0.4233(2)
H63 H 0.1039 1.0712 0.4373
C72 C 0.1966(3) 1.0062(3) 0.4612(2)
C73 C 0.2410(3) 0.8835(3) 0.5248(2)
C74 C 0.2461(3) 0.8137(3) 0.5366(2)
C75 C 0.1809(4) 0.7825(3) 0.5719(2)
C76 C 0.2207(4) 0.6773(3) 0.6255(2)
C77 C 0.3028(4) 0.6682(3) 0.6180(2)
H64 H 0.3331 0.6872 0.5833
C78 C 0.3419(4) 0.6310(3) 0.6617(2)
C79 C 0.4734(3) 0.6703(3) 0.6496(2)
C80 C 0.5387(3) 0.7608(3) 0.6006(2)
C81 C 0.5591(4) 0.8028(3) 0.5481(2)
C82 C 0.6096(4) 0.8541(3) 0.5470(2)
H65 H 0.6228 0.8831 0.5121
C83 C 0.6421(4) 0.8641(3) 0.5973(2)
H66 H 0.6755 0.9008 0.5961
C84 C 0.6262(3) 0.8217(3) 0.6481(2)
C85 C 0.5733(3) 0.7697(3) 0.6505(2)
C86 C 0.5100(3) 0.6790(3) 0.6998(2)
C87 C 0.5224(4) 0.7891(3) 0.4964(2)
C88 C 0.5202(5) 0.7218(4) 0.4193(3)
H67 H 0.5617 0.7001 0.3926
H68 H 0.4981 0.7634 0.3975
C89 C 0.4528(5) 0.6740(4) 0.4393(3)
H69 H 0.4330 0.6608 0.4049
H70 H 0.4075 0.6988 0.4606
C90 C 0.4759(6) 0.6099(4) 0.4779(3)
H71 H 0.4943 0.6222 0.5132
H72 H 0.5211 0.5845 0.4573
C91 C 0.4020(7) 0.5637(5) 0.4955(4)
H73 H 0.3796 0.5560 0.4607
H74 H 0.3604 0.5861 0.5209
H75 H 0.4200 0.5202 0.5158
C92 C 0.6350(4) 0.7048(4) 0.4786(3)
H76 H 0.6333 0.6566 0.4733
H77 H 0.6423 0.7069 0.5193
C93 C 0.7061(5) 0.7350(4) 0.4396(3)
H78 H 0.7113 0.7819 0.4473
H79 H 0.6970 0.7367 0.3987
C94 C 0.7843(6) 0.6924(6) 0.4500(4)
H80 H 0.7776 0.6443 0.4470
H81 H 0.7984 0.6959 0.4889
C95 C 0.8513(8) 0.7206(7) 0.4032(5)
H82 H 0.8435 0.7072 0.3659
H83 H 0.9042 0.7023 0.4136
H84 H 0.8489 0.7700 0.4005
C96 C 0.6591(4) 0.8335(3) 0.7021(3)
C97 C 0.7665(4) 0.8254(3) 0.7614(2)
H85 H 0.7469 0.8717 0.7691
H86 H 0.8262 0.8245 0.7542
C98 C 0.7422(4) 0.7764(3) 0.8145(3)
H87 H 0.7741 0.7329 0.8119
H88 H 0.6844 0.7677 0.8164
C99 C 0.7562(4) 0.8044(4) 0.8690(3)
H89 H 0.8145 0.8117 0.8670
H90 H 0.7266 0.8491 0.8699
C100 C 0.7314(5) 0.7617(5) 0.9227(3)
H91 H 0.7637 0.7187 0.9240
H92 H 0.6741 0.7529 0.9248
H93 H 0.7395 0.7847 0.9555
C101 C 0.7920(4) 0.7778(3) 0.6660(3)
H94 H 0.8413 0.8036 0.6566
H95 H 0.7664 0.7800 0.6301
C102 C 0.8161(6) 0.7052(4) 0.6852(3)
H96 H 0.8606 0.6909 0.6564
H97 H 0.8389 0.7038 0.7221
C103 C 0.7584(6) 0.6563(5) 0.6933(4)
H98 H 0.7089 0.6729 0.7164
H99 H 0.7797 0.6143 0.7151
C104 C 0.7363(7) 0.6398(5) 0.6325(5)
H100 H 0.7853 0.6238 0.6095
H101 H 0.7130 0.6809 0.6117
H102 H 0.6969 0.6047 0.6394
C105 C 0.3457(4) 0.5644(3) 0.7607(2)
H103 H 0.3985 0.5465 0.7417
C106 C 0.3647(3) 0.6131(2) 0.8009(2)
C107 C 0.3118(4) 0.6274(3) 0.8490(2)
H104 H 0.2628 0.6048 0.8569
C108 C 0.3256(3) 0.6726(3) 0.8866(2)
C109 C 0.2694(3) 0.6819(3) 0.9400(2)
H105 H 0.3018 0.7006 0.9664
C110 C 0.2029(3) 0.7364(3) 0.9261(2)
C111 C 0.1323(3) 0.7209(3) 0.9051(2)
H106 H 0.1269 0.6757 0.8985
C112 C 0.0701(3) 0.7693(3) 0.8937(2)
C113 C -0.0070(3) 0.7527(3) 0.8710(2)
H107 H -0.0500 0.7875 0.8824
C114 C 0.0070(3) 0.7615(3) 0.8043(2)
C115 C 0.0372(3) 0.7090(3) 0.7735(2)
H108 H 0.0480 0.6659 0.7944
C116 C 0.0525(3) 0.7157(3) 0.7133(2)
C117 C 0.0829(3) 0.6565(3) 0.6811(2)
H109 H 0.0679 0.6685 0.6411
C118 C 0.1755(3) 0.6482(3) 0.6748(2)
C119 C 0.2161(4) 0.6123(3) 0.7179(2)
H110 H 0.1854 0.5931 0.7523
C120 C 0.3003(4) 0.6030(3) 0.7130(2)
C121 C 0.3004(4) 0.5027(3) 0.7929(2)
H111 H 0.2509 0.5192 0.8160
H112 H 0.2834 0.4767 0.7640
C122 C 0.3500(4) 0.4557(3) 0.8324(3)
H113 H 0.3593 0.4780 0.8658
H114 H 0.4030 0.4430 0.8114
C123 C 0.3007(6) 0.3922(4) 0.8530(4)
H115 H 0.2486 0.4056 0.8747
H116 H 0.2890 0.3721 0.8190
C124 C 0.3467(6) 0.3393(5) 0.8915(4)
H117 H 0.3995 0.3271 0.8700
H118 H 0.3571 0.3592 0.9258
C125 C 0.3013(10) 0.2758(7) 0.9110(7)
H119 H 0.2624 0.2834 0.9453
H120 H 0.2697 0.2681 0.8800
C126 C 0.3512(12) 0.2146(9) 0.9254(9)
H121 H 0.3796 0.1994 0.8899
H122 H 0.3170 0.1791 0.9460
H123 H 0.3907 0.2242 0.9500
C127 C 0.2372(3) 0.6161(3) 0.9731(2)
H124 H 0.1965 0.6270 1.0055
H125 H 0.2102 0.5928 0.9471
C128 C 0.3029(4) 0.5696(3) 0.9963(3)
H126 H 0.3308 0.5943 1.0210
H127 H 0.3428 0.5589 0.9634
C129 C 0.2773(4) 0.5028(3) 1.0315(3)
H128 H 0.2509 0.4771 1.0068
H129 H 0.3264 0.4757 1.0421
C130 C 0.2208(4) 0.5106(3) 1.0857(3)
H130 H 0.1675 0.5292 1.0750
H131 H 0.2420 0.5436 1.1069
C131 C 0.2097(5) 0.4441(4) 1.1253(3)
H132 H 0.1914 0.4105 1.1033
H133 H 0.2626 0.4269 1.1375
C132 C 0.1520(6) 0.4501(5) 1.1764(4)
H134 H 0.0992 0.4665 1.1648
H135 H 0.1705 0.4822 1.1992
H136 H 0.1474 0.4058 1.1998
C133 C -0.0374(3) 0.6840(3) 0.8976(2)
H137 H -0.0881 0.6774 0.8821
H138 H 0.0029 0.6482 0.8855
C134 C -0.0530(3) 0.6755(3) 0.9627(2)
H139 H -0.0926 0.7118 0.9747
H140 H -0.0021 0.6813 0.9782
C135 C -0.0849(4) 0.6070(3) 0.9892(2)
H141 H -0.1435 0.6081 0.9865
H142 H -0.0582 0.5717 0.9663
C136 C -0.0714(4) 0.5871(3) 1.0518(2)
H143 H -0.0997 0.6213 1.0753
H144 H -0.0130 0.5869 1.0550
C137 C -0.1019(4) 0.5173(3) 1.0762(3)
H145 H -0.1612 0.5188 1.0766
H146 H -0.0778 0.4839 1.0505
C138 C -0.0812(5) 0.4939(4) 1.1373(3)
H147 H -0.0235 0.4804 1.1357
H148 H -0.1129 0.4552 1.1544
H149 H -0.0939 0.5310 1.1609
C139 C 0.0409(4) 0.5916(3) 0.7064(2)
H150 H 0.0588 0.5754 0.7446
H151 H -0.0181 0.6022 0.7125
C140 C 0.0578(5) 0.5346(3) 0.6684(3)
H152 H 0.0375 0.5499 0.6309
H153 H 0.1169 0.5254 0.6607
C141 C 0.0202(6) 0.4707(4) 0.6941(4)
H154 H 0.0394 0.4568 0.7322
H155 H -0.0389 0.4804 0.7012
C142 C 0.0347(7) 0.4133(5) 0.6613(5)
H156 H 0.0936 0.4025 0.6547
H157 H 0.0157 0.4266 0.6231
C143 C -0.0091(10) 0.3455(6) 0.6920(7)
H158 H -0.0679 0.3562 0.7001
H159 H -0.0009 0.3107 0.6653
C144 C 0.0214(12) 0.3194(8) 0.7438(7)
H160 H 0.0787 0.3053 0.7355
H161 H -0.0087 0.2803 0.7622
H162 H 0.0155 0.3544 0.7697
C145 C 0.7758(6) 0.4000(5) 0.6621(5)
C146 C 0.7446(5) 0.3377(5) 0.6678(4)
H163 H 0.7239 0.3177 0.7053
C147 C 0.7416(5) 0.3018(4) 0.6208(4)
C148 C 0.7726(6) 0.3346(5) 0.5666(4)
H164 H 0.7705 0.3125 0.5336
C149 C 0.8056(7) 0.3962(6) 0.5584(5)
C150 C 0.8063(7) 0.4290(6) 0.6075(5)
H165 H 0.8282 0.4722 0.6031
C151 C 0.7739(9) 0.4373(6) 0.7152(4)
H166 H 0.7196 0.4581 0.7244
H167 H 0.8130 0.4726 0.7068
H168 H 0.7878 0.4051 0.7481
C152 C 0.7076(5) 0.2343(4) 0.6290(3)
H169 H 0.7494 0.1994 0.6391
H170 H 0.6884 0.2262 0.5931
H171 H 0.6624 0.2326 0.6601
C153 C 0.8348(10) 0.4310(7) 0.4989(5)
H172 H 0.8531 0.3969 0.4731
H173 H 0.8797 0.4589 0.5014
H174 H 0.7905 0.4598 0.4837
C154 C 0.3936(6) 0.6870(4) 0.0937(3)
C155 C 0.3901(6) 0.6270(4) 0.1304(3)
H175 H 0.3554 0.6253 0.1658
C156 C 0.4360(6) 0.5687(4) 0.1169(4)
C157 C 0.4856(5) 0.5717(4) 0.0655(4)
H176 H 0.5163 0.5320 0.0556
C158 C 0.4924(5) 0.6321(4) 0.0267(4)
C159 C 0.4446(5) 0.6880(4) 0.0431(3)
H177 H 0.4476 0.7293 0.0178
C160 C 0.3431(7) 0.7493(4) 0.1069(4)
H178 H 0.3053 0.7610 0.0782
H179 H 0.3781 0.7868 0.1057
H180 H 0.3127 0.7408 0.1455
C161 C 0.4310(6) 0.5028(4) 0.1586(4)
H181 H 0.4497 0.5096 0.1950
H182 H 0.4650 0.4670 0.1413
H183 H 0.3749 0.4897 0.1661
C162 C 0.5461(5) 0.6357(5) -0.0282(4)
H184 H 0.6021 0.6255 -0.0204
H185 H 0.5409 0.6813 -0.0492
H186 H 0.5310 0.6027 -0.0515
Cl2 Cl 0.2120(6) 0.9224(5) 0.7143(4)
Cl3 Cl 0.3958(5) 0.8730(4) 0.7147(4)
C164 C 0.299(3) 0.866(3) 0.730(5)
H188 H 0.3252 0.8420 0.7634
Cl6 Cl 0.3339(11) 0.8218(9) 0.6849(8)
C165 C 0.4647(6) 0.6189(7) 0.2870(8)
H189 H 0.4101 0.6199 0.2796
C166 C 0.5123(7) 0.6724(6) 0.2638(7)
C167 C 0.5921(7) 0.6710(6) 0.2746(6)
H190 H 0.6247 0.7076 0.2587
C168 C 0.6243(6) 0.6159(7) 0.3086(6)
C169 C 0.5767(8) 0.5623(6) 0.3319(6)
H191 H 0.5988 0.5247 0.3552
C170 C 0.4969(7) 0.5638(6) 0.3211(6)
C171 C 0.7116(8) 0.6127(9) 0.3263(7)
H192 H 0.7508 0.6192 0.2915
H193 H 0.7231 0.5686 0.3482
H194 H 0.7156 0.6485 0.3503
C172 C 0.4463(10) 0.5045(8) 0.3482(7)
H195 H 0.3974 0.5213 0.3709
H196 H 0.4778 0.4730 0.3735
H197 H 0.4311 0.4809 0.3177
C173 C 0.4639(11) 0.7366(8) 0.2270(7)
H198 H 0.4527 0.7231 0.1905
H199 H 0.4977 0.7757 0.2190
H200 H 0.4130 0.7488 0.2499
Cl1? Cl 0.2485(6) 0.7894(5) 0.7516(4)
C163? C 0.2948(11) 0.8580(12) 0.7046(18)
H187? H 0.2969 0.8467 0.6643
Cl4? Cl 0.2586(8) 0.9384(6) 0.7613(6)
Cl5? Cl 0.1942(8) 0.8512(7) 0.7588(5)
C174? C 0.6136(7) 0.5883(8) 0.3265(7)
C175? C 0.5556(9) 0.5410(7) 0.3447(6)
C176? C 0.4801(8) 0.5514(7) 0.3256(7)
C177? C 0.4624(7) 0.6092(8) 0.2883(9)
C178? C 0.5204(9) 0.6564(7) 0.2701(7)
C179? C 0.5960(7) 0.6460(7) 0.2892(7)
C180? C 0.6917(10) 0.5735(10) 0.3521(8)
C181? C 0.4144(12) 0.4980(9) 0.3382(9)
C182? C 0.4999(13) 0.7217(8) 0.2319(8)
C183? C 0.3200(14) 0.3993(9) 0.8772(9)
C184? C 0.2723(16) 0.3498(12) 0.8556(10)
C185? C 0.2397(15) 0.2834(11) 0.8971(12)
C186? C 0.3156(14) 0.2443(13) 0.8939(11)
C187? C -0.0191(11) 1.1586(7) 0.5445(6)
C188? C 0.0270(13) 1.1788(10) 0.5288(8)
C189? C 0.0508(14) 1.2448(11) 0.4838(9)
H201? H 0.5677 0.5015 0.3702
H202? H 0.4108 0.6163 0.2752
H203? H 0.6356 0.6783 0.2768
H204? H 0.7343 0.5989 0.3278
H205? H 0.7067 0.5249 0.3543
H206? H 0.6851 0.5871 0.3910
H207? H 0.3609 0.5211 0.3451
H208? H 0.4247 0.4665 0.3724
H209? H 0.4165 0.4730 0.3049
H210? H 0.4566 0.7143 0.2096
H211? H 0.5479 0.7353 0.2055
H212? H 0.4819 0.7575 0.2561
H213? H 0.3670 0.3746 0.8935
H214? H 0.2859 0.4193 0.9090
H215? H 0.3059 0.3336 0.8218
H216? H 0.2246 0.3754 0.8411
H217? H 0.2199 0.2930 0.9369
H218? H 0.1976 0.2621 0.8811
H219? H 0.3402 0.2470 0.8535
H220? H 0.3064 0.1969 0.9090
H221? H 0.3518 0.2622 0.9168
H222? H -0.1291 1.1355 0.5976
H223? H -0.0708 1.0694 0.5896
H224? H -0.0526 1.1659 0.5144
H225? H 0.0734 1.1549 0.5424
H226? H 0.0445 1.2364 0.4446
H227? H 0.1070 1.2542 0.4855
H228? H 0.0152 1.2837 0.4939
loop_
_geom_bond_atom_site_label_1
_geom_bond_atom_site_label_2
_geom_bond_site_symmetry_1
_geom_bond_site_symmetry_2
O1 C1 1_555 1_555
O2 C3 1_555 1_555
O3 H1 1_555 1_555
O4 H2 1_555 1_555
O5 C23 1_555 1_555
O6 C26 1_555 1_555
O7 C35 1_555 1_555
O8 C44 1_555 1_555
O9 C34 1_555 1_555
O10 C55 1_555 1_555
O11 H3 1_555 1_555
O12 H4 1_555 1_555
O13 C75 1_555 1_555
O14 C78 1_555 1_555
O15 C87 1_555 1_555
O16 C96 1_555 1_555
N1 C27 1_555 1_555
N2 C33 1_555 1_555
N3 C35 1_555 1_555
N4 C44 1_555 1_555
N5 C79 1_555 1_555
N6 C85 1_555 1_555
N7 C87 1_555 1_555
N8 C96 1_555 1_555
C1 C2 1_555 1_555
C2 H5 1_555 1_555
C3 C2 1_555 1_555
C4 O2 1_555 1_555
C5 O3 1_555 1_555
C6 C5 1_555 1_555
C7 C6 1_555 1_555
H6 C7 1_555 1_555
C8 C7 1_555 1_555
C9 C8 1_555 1_555
H7 C9 1_555 1_555
C10 C9 1_555 1_555
H8 C10 1_555 1_555
C11 C10 1_555 1_555
H9 C11 1_555 1_555
C12 C11 1_555 1_555
H10 C12 1_555 1_555
C13 C8 1_555 1_555
C14 C13 1_555 1_555
H11 C14 1_555 1_555
C15 C14 1_555 1_555
C16 C15 1_555 1_555
H12 C16 1_555 1_555
C17 C16 1_555 1_555
H13 C17 1_555 1_555
C18 C17 1_555 1_555
H14 C18 1_555 1_555
C19 C18 1_555 1_555
H15 C19 1_555 1_555
C20 C7 1_555 1_555
C21 C6 1_555 1_555
C22 O4 1_555 1_555
C23 C4 1_555 1_555
C24 O5 1_555 1_555
C25 C24 1_555 1_555
H16 C25 1_555 1_555
C26 C25 1_555 1_555
C27 O6 1_555 1_555
C28 N1 1_555 1_555
C29 C28 1_555 1_555
C30 C29 1_555 1_555
H17 C30 1_555 1_555
C31 C30 1_555 1_555
H18 C31 1_555 1_555
C32 C31 1_555 1_555
C33 C28 1_555 1_555
C34 N2 1_555 1_555
C35 C29 1_555 1_555
C36 N3 1_555 1_555
H19 C36 1_555 1_555
H20 C36 1_555 1_555
C37 C36 1_555 1_555
H21 C37 1_555 1_555
H22 C37 1_555 1_555
C38 C37 1_555 1_555
H23 C38 1_555 1_555
H24 C38 1_555 1_555
C39 C38 1_555 1_555
H25 C39 1_555 1_555
H26 C39 1_555 1_555
H27 C39 1_555 1_555
C40 N3 1_555 1_555
H28 C40 1_555 1_555
H29 C40 1_555 1_555
C41 C40 1_555 1_555
H30 C41 1_555 1_555
H31 C41 1_555 1_555
C42 C41 1_555 1_555
H32 C42 1_555 1_555
H33 C42 1_555 1_555
C43 C42 1_555 1_555
H34 C43 1_555 1_555
H35 C43 1_555 1_555
H36 C43 1_555 1_555
C44 C32 1_555 1_555
C45 N4 1_555 1_555
H37 C45 1_555 1_555
H38 C45 1_555 1_555
C46 C45 1_555 1_555
H39 C46 1_555 1_555
H40 C46 1_555 1_555
C47 C46 1_555 1_555
H41 C47 1_555 1_555
H42 C47 1_555 1_555
C48 C47 1_555 1_555
H43 C48 1_555 1_555
H44 C48 1_555 1_555
H45 C48 1_555 1_555
C49 N4 1_555 1_555
H46 C49 1_555 1_555
H47 C49 1_555 1_555
C50 C49 1_555 1_555
H48 C50 1_555 1_555
C51 C50 1_555 1_555
H49 C51 1_555 1_555
C52 C51 1_555 1_555
H50 C52 1_555 1_555
H51 C52 1_555 1_555
H52 C52 1_555 1_555
C53 O9 1_555 1_555
C54 C53 1_555 1_555
H53 C54 1_555 1_555
C55 C54 1_555 1_555
C56 O10 1_555 1_555
C57 O11 1_555 1_555
C58 C57 1_555 1_555
C59 C58 1_555 1_555
H54 C59 1_555 1_555
C60 C59 1_555 1_555
C61 C60 1_555 1_555
H55 C61 1_555 1_555
C62 C61 1_555 1_555
H56 C62 1_555 1_555
C63 C62 1_555 1_555
H57 C63 1_555 1_555
C64 C63 1_555 1_555
H58 C64 1_555 1_555
C65 C60 1_555 1_555
C66 C65 1_555 1_555
H59 C66 1_555 1_555
C67 C66 1_555 1_555
C68 C67 1_555 1_555
H60 C68 1_555 1_555
C69 C68 1_555 1_555
H61 C69 1_555 1_555
C70 C69 1_555 1_555
H62 C70 1_555 1_555
C71 C70 1_555 1_555
H63 C71 1_555 1_555
C72 C59 1_555 1_555
C73 C58 1_555 1_555
C74 O12 1_555 1_555
C75 C56 1_555 1_555
C76 O13 1_555 1_555
C77 C76 1_555 1_555
H64 C77 1_555 1_555
C78 C77 1_555 1_555
C79 O14 1_555 1_555
C80 N5 1_555 1_555
C81 C80 1_555 1_555
C82 C81 1_555 1_555
H65 C82 1_555 1_555
C83 C82 1_555 1_555
H66 C83 1_555 1_555
C84 C83 1_555 1_555
C85 C80 1_555 1_555
C86 O1 1_555 1_555
C87 C81 1_555 1_555
C88 N7 1_555 1_555
H67 C88 1_555 1_555
H68 C88 1_555 1_555
C89 C88 1_555 1_555
H69 C89 1_555 1_555
H70 C89 1_555 1_555
C90 C89 1_555 1_555
H71 C90 1_555 1_555
H72 C90 1_555 1_555
C91 C90 1_555 1_555
H73 C91 1_555 1_555
H74 C91 1_555 1_555
H75 C91 1_555 1_555
C92 N7 1_555 1_555
H76 C92 1_555 1_555
H77 C92 1_555 1_555
C93 C92 1_555 1_555
H78 C93 1_555 1_555
H79 C93 1_555 1_555
C94 C93 1_555 1_555
H80 C94 1_555 1_555
H81 C94 1_555 1_555
C95 C94 1_555 1_555
H82 C95 1_555 1_555
H83 C95 1_555 1_555
H84 C95 1_555 1_555
C96 C84 1_555 1_555
C97 N8 1_555 1_555
H85 C97 1_555 1_555
H86 C97 1_555 1_555
C98 C97 1_555 1_555
H87 C98 1_555 1_555
H88 C98 1_555 1_555
C99 C98 1_555 1_555
H89 C99 1_555 1_555
H90 C99 1_555 1_555
C100 C99 1_555 1_555
H91 C100 1_555 1_555
H92 C100 1_555 1_555
H93 C100 1_555 1_555
C101 N8 1_555 1_555
H94 C101 1_555 1_555
H95 C101 1_555 1_555
C102 C101 1_555 1_555
H96 C102 1_555 1_555
H97 C102 1_555 1_555
C103 C102 1_555 1_555
H98 C103 1_555 1_555
H99 C103 1_555 1_555
C104 C103 1_555 1_555
H100 C104 1_555 1_555
H101 C104 1_555 1_555
H102 C104 1_555 1_555
C105 H103 1_555 1_555
C106 C1 1_555 1_555
C107 C106 1_555 1_555
H104 C107 1_555 1_555
C108 C3 1_555 1_555
C109 C108 1_555 1_555
H105 C109 1_555 1_555
C110 C24 1_555 1_555
C111 C110 1_555 1_555
H106 C111 1_555 1_555
C112 C26 1_555 1_555
C113 C112 1_555 1_555
H107 C113 1_555 1_555
C114 C53 1_555 1_555
C115 C114 1_555 1_555
H108 C115 1_555 1_555
C116 C55 1_555 1_555
C117 C116 1_555 1_555
H109 C117 1_555 1_555
C118 C76 1_555 1_555
C119 C118 1_555 1_555
H110 C119 1_555 1_555
C120 C78 1_555 1_555
C121 C105 1_555 1_555
H111 C121 1_555 1_555
H112 C121 1_555 1_555
C122 C121 1_555 1_555
H113 C122 1_555 1_555
H114 C122 1_555 1_555
C123 C122 1_555 1_555
H115 C123 1_555 1_555
H116 C123 1_555 1_555
C124 C123 1_555 1_555
H117 C124 1_555 1_555
H118 C124 1_555 1_555
C125 C124 1_555 1_555
H119 C125 1_555 1_555
H120 C125 1_555 1_555
C126 C125 1_555 1_555
H121 C126 1_555 1_555
H122 C126 1_555 1_555
H123 C126 1_555 1_555
C127 C109 1_555 1_555
H124 C127 1_555 1_555
H125 C127 1_555 1_555
C128 C127 1_555 1_555
H126 C128 1_555 1_555
H127 C128 1_555 1_555
C129 C128 1_555 1_555
H128 C129 1_555 1_555
H129 C129 1_555 1_555
C130 C129 1_555 1_555
H130 C130 1_555 1_555
H131 C130 1_555 1_555
C131 C130 1_555 1_555
H132 C131 1_555 1_555
H133 C131 1_555 1_555
C132 C131 1_555 1_555
H134 C132 1_555 1_555
H135 C132 1_555 1_555
H136 C132 1_555 1_555
C133 C113 1_555 1_555
H137 C133 1_555 1_555
H138 C133 1_555 1_555
C134 C133 1_555 1_555
H139 C134 1_555 1_555
H140 C134 1_555 1_555
C135 C134 1_555 1_555
H141 C135 1_555 1_555
H142 C135 1_555 1_555
C136 C135 1_555 1_555
H143 C136 1_555 1_555
H144 C136 1_555 1_555
C137 C136 1_555 1_555
H145 C137 1_555 1_555
H146 C137 1_555 1_555
C138 C137 1_555 1_555
H147 C138 1_555 1_555
H148 C138 1_555 1_555
H149 C138 1_555 1_555
C139 C117 1_555 1_555
H150 C139 1_555 1_555
H151 C139 1_555 1_555
C140 C139 1_555 1_555
H152 C140 1_555 1_555
H153 C140 1_555 1_555
C141 C140 1_555 1_555
H154 C141 1_555 1_555
H155 C141 1_555 1_555
C142 C141 1_555 1_555
H156 C142 1_555 1_555
H157 C142 1_555 1_555
C143 C142 1_555 1_555
H158 C143 1_555 1_555
H159 C143 1_555 1_555
C144 C143 1_555 1_555
H160 C144 1_555 1_555
H161 C144 1_555 1_555
H162 C144 1_555 1_555
C145 C146 1_555 1_555
C146 H163 1_555 1_555
C147 C146 1_555 1_555
C148 C147 1_555 1_555
H164 C148 1_555 1_555
C149 C148 1_555 1_555
C150 C145 1_555 1_555
H165 C150 1_555 1_555
C151 C145 1_555 1_555
H166 C151 1_555 1_555
H167 C151 1_555 1_555
H168 C151 1_555 1_555
C152 C147 1_555 1_555
H169 C152 1_555 1_555
H170 C152 1_555 1_555
H171 C152 1_555 1_555
C153 C149 1_555 1_555
H172 C153 1_555 1_555
H173 C153 1_555 1_555
H174 C153 1_555 1_555
C154 C155 1_555 1_555
C155 H175 1_555 1_555
C156 C155 1_555 1_555
C157 C156 1_555 1_555
H176 C157 1_555 1_555
C158 C157 1_555 1_555
C159 C154 1_555 1_555
H177 C159 1_555 1_555
C160 C154 1_555 1_555
H178 C160 1_555 1_555
H179 C160 1_555 1_555
H180 C160 1_555 1_555
C161 C156 1_555 1_555
H181 C161 1_555 1_555
H182 C161 1_555 1_555
H183 C161 1_555 1_555
C162 C158 1_555 1_555
H184 C162 1_555 1_555
H185 C162 1_555 1_555
H186 C162 1_555 1_555
Cl2 C164 1_555 1_555
Cl3 C164 1_555 1_555
C164 H188 1_555 1_555
Cl6 C164 1_555 1_555
C165 H189 1_555 1_555
C166 C165 1_555 1_555
C167 C166 1_555 1_555
H190 C167 1_555 1_555
C168 C167 1_555 1_555
C169 C168 1_555 1_555
H191 C169 1_555 1_555
C170 C165 1_555 1_555
C171 C168 1_555 1_555
H192 C171 1_555 1_555
H193 C171 1_555 1_555
H194 C171 1_555 1_555
C172 C170 1_555 1_555
H195 C172 1_555 1_555
H196 C172 1_555 1_555
H197 C172 1_555 1_555
C173 C166 1_555 1_555
H198 C173 1_555 1_555
H199 C173 1_555 1_555
H200 C173 1_555 1_555
N6 C86 1_555 1_555
C4 C5 1_555 1_555
C12 C13 1_555 1_555
C14 C21 1_555 1_555
C15 C20 1_555 1_555
C19 C20 1_555 1_555
C21 C22 1_555 1_555
C22 C23 1_555 1_555
C27 C34 1_555 1_555
C32 C33 1_555 1_555
C56 C57 1_555 1_555
C64 C65 1_555 1_555
C66 C73 1_555 1_555
C67 C72 1_555 1_555
C71 C72 1_555 1_555
C73 C74 1_555 1_555
C74 C75 1_555 1_555
C79 C86 1_555 1_555
C84 C85 1_555 1_555
C105 C106 1_555 1_555
C105 C120 1_555 1_555
C107 C108 1_555 1_555
C109 C110 1_555 1_555
C111 C112 1_555 1_555
C113 C114 1_555 1_555
C115 C116 1_555 1_555
C117 C118 1_555 1_555
C119 C120 1_555 1_555
C149 C150 1_555 1_555
C158 C159 1_555 1_555
C169 C170 1_555 1_555

#END
