
#######################################################################
#
#                 Cambridge Crystallographic Data Centre
#                                CCDC 
#
#######################################################################
#
# If this CIF has been generated from an entry in the Cambridge 
# Structural Database, then it will include bibliographic, chemical, 
# crystal, experimental, refinement or atomic coordinate data resulting 
# from the CCDC's data processing and validation procedures.
#
#######################################################################

data_EDEMEG
_chemical_formula_moiety         'C22 H19 F1 N2'
_chemical_name_systematic        
3-(4-Fluorophenyl)-1-phenyl-5-(p-tolyl)-2-pyrazoline
_symmetry_cell_setting           monoclinic
_symmetry_space_group_name_H-M   'P 21/c'
_symmetry_Int_Tables_number      14
_space_group_name_Hall           '-P 2ybc'
loop_
_symmetry_equiv_pos_site_id
_symmetry_equiv_pos_as_xyz
1 x,y,z
2 -x,1/2+y,1/2-z
3 -x,-y,-z
4 x,1/2-y,1/2+z
_cell_length_a                   20.050(2)
_cell_length_b                   5.588(3)
_cell_length_c                   16.480(2)
_cell_angle_alpha                90
_cell_angle_beta                 108.913(19)
_cell_angle_gamma                90
_cell_volume                     1746.73
_exptl_crystal_colour            yellow
_exptl_crystal_description       block
_cell_formula_units_Z            4
_exptl_crystal_recrystallization_method ethanol
loop_
_atom_site_label
_atom_site_type_symbol
_atom_site_fract_x
_atom_site_fract_y
_atom_site_fract_z
F1 F 0.47935(9) 0.2677(5) 0.44618(15)
N1 N 0.67472(13) 0.4524(6) 0.21806(17)
N2 N 0.72962(13) 0.4153(6) 0.18606(18)
C1 C 0.57510(17) 0.4651(7) 0.3086(2)
H1 H 0.5744 0.5909 0.2714
C2 C 0.52539(17) 0.4577(7) 0.3500(2)
H2 H 0.4909 0.5754 0.3405
C3 C 0.52810(16) 0.2733(8) 0.4051(2)
C4 C 0.57658(18) 0.0955(8) 0.4198(2)
H3 H 0.5765 -0.0293 0.4571
C5 C 0.62618(17) 0.1041(7) 0.3778(2)
H4 H 0.6601 -0.0156 0.3875
C6 C 0.62597(15) 0.2896(7) 0.3213(2)
C7 C 0.67859(15) 0.2964(7) 0.2776(2)
C8 C 0.73981(17) 0.1281(7) 0.2917(2)
H5 H 0.7238 -0.0321 0.2721
H6 H 0.7682 0.1217 0.3518
C9 C 0.78135(16) 0.2389(7) 0.2373(2)
H7 H 0.7900 0.1168 0.1992
C10 C 0.85006(16) 0.3557(7) 0.2878(2)
C11 C 0.91418(18) 0.2616(7) 0.2897(2)
H8 H 0.9154 0.1203 0.2604
C12 C 0.97669(19) 0.3746(9) 0.3345(3)
H9 H 1.0192 0.3065 0.3351
C13 C 0.97758(19) 0.5875(8) 0.3786(2)
C14 C 0.91340(19) 0.6792(8) 0.3770(2)
H10 H 0.9122 0.8205 0.4063
C15 C 0.85109(19) 0.5671(8) 0.3333(2)
H11 H 0.8087 0.6336 0.3339
C16 C 1.04571(19) 0.7126(9) 0.4272(3)
H12 H 1.0464 0.8690 0.4033
H13 H 1.0849 0.6210 0.4227
H14 H 1.0492 0.7273 0.4865
C17 C 0.73954(16) 0.5733(7) 0.1260(2)
C18 C 0.79532(18) 0.5398(8) 0.0943(2)
H15 H 0.8257 0.4106 0.1129
C19 C 0.80556(19) 0.6973(9) 0.0355(2)
H16 H 0.8439 0.6755 0.0162
C20 C 0.76105(19) 0.8849(9) 0.0048(2)
H17 H 0.7683 0.9895 -0.0354
C21 C 0.70498(17) 0.9152(8) 0.0348(2)
H18 H 0.6739 1.0415 0.0140
C22 C 0.69399(16) 0.7640(7) 0.0945(2)
H19 H 0.6559 0.7888 0.1140
loop_
_geom_bond_atom_site_label_1
_geom_bond_atom_site_label_2
_geom_bond_site_symmetry_1
_geom_bond_site_symmetry_2
F1 C3 1_555 1_555
N1 N2 1_555 1_555
N2 C9 1_555 1_555
C1 H1 1_555 1_555
C2 C1 1_555 1_555
H2 C2 1_555 1_555
C3 C2 1_555 1_555
C4 C3 1_555 1_555
H3 C4 1_555 1_555
C5 C4 1_555 1_555
H4 C5 1_555 1_555
C6 C1 1_555 1_555
C7 N1 1_555 1_555
C8 C7 1_555 1_555
H5 C8 1_555 1_555
H6 C8 1_555 1_555
C9 C8 1_555 1_555
H7 C9 1_555 1_555
C10 C9 1_555 1_555
C11 C10 1_555 1_555
H8 C11 1_555 1_555
C12 C11 1_555 1_555
H9 C12 1_555 1_555
C13 C12 1_555 1_555
C14 C13 1_555 1_555
H10 C14 1_555 1_555
C15 C10 1_555 1_555
H11 C15 1_555 1_555
C16 C13 1_555 1_555
H12 C16 1_555 1_555
H13 C16 1_555 1_555
H14 C16 1_555 1_555
C17 N2 1_555 1_555
C18 C17 1_555 1_555
H15 C18 1_555 1_555
C19 C18 1_555 1_555
H16 C19 1_555 1_555
C20 C19 1_555 1_555
H17 C20 1_555 1_555
C21 C20 1_555 1_555
H18 C21 1_555 1_555
C22 C17 1_555 1_555
H19 C22 1_555 1_555
C5 C6 1_555 1_555
C6 C7 1_555 1_555
C14 C15 1_555 1_555
C21 C22 1_555 1_555

#END
