
#######################################################################
#
#                 Cambridge Crystallographic Data Centre
#                                CCDC 
#
#######################################################################
#
# If this CIF has been generated from an entry in the Cambridge 
# Structural Database, then it will include bibliographic, chemical, 
# crystal, experimental, refinement or atomic coordinate data resulting 
# from the CCDC's data processing and validation procedures.
#
#######################################################################

data_EDENOR
_chemical_compound_source        
'culture of the fungal strain S!1-1$, a species of Myrothecium'
_chemical_formula_moiety         'C29 H36 O8'
_chemical_name_systematic        'Roridin H'
_chemical_properties_biological  bioactive
_symmetry_cell_setting           monoclinic
_symmetry_space_group_name_H-M   'P 21'
_symmetry_Int_Tables_number      4
_space_group_name_Hall           'P 2yb'
loop_
_symmetry_equiv_pos_site_id
_symmetry_equiv_pos_as_xyz
1 x,y,z
2 -x,1/2+y,-z
_cell_length_a                   10.259(6)
_cell_length_b                   8.989(5)
_cell_length_c                   14.290(8)
_cell_angle_alpha                90
_cell_angle_beta                 96.410(7)
_cell_angle_gamma                90
_cell_volume                     1309.56
_exptl_crystal_colour            colorless
_exptl_crystal_description       prism
_cell_formula_units_Z            2
_exptl_crystal_recrystallization_method acetone
loop_
_atom_site_label
_atom_site_type_symbol
_atom_site_fract_x
_atom_site_fract_y
_atom_site_fract_z
C1 C 0.5453(3) 0.3762(3) 0.6923(2)
H1 H 0.6405 0.3773 0.7013
H2 H 0.5165 0.4447 0.6418
O1 O 0.4955(2) 0.4239(2) 0.77738(14)
C2 C 0.5125(3) 0.5676(4) 0.7996(2)
C3 C 0.4303(4) 0.6080(4) 0.8736(2)
H3 H 0.3609 0.5443 0.8814
C4 C 0.4437(4) 0.7245(4) 0.9306(2)
C5 C 0.3512(4) 0.7469(4) 1.0042(2)
H4 H 0.4028 0.7610 1.0647
H5 H 0.3003 0.6566 1.0083
C6 C 0.2570(4) 0.8766(5) 0.9873(3)
H6 H 0.3071 0.9697 0.9901
O2 O 0.1679(3) 0.8806(4) 1.05537(18)
C7 C 0.0537(4) 0.8063(5) 1.0137(3)
H7 H 0.0685 0.6986 1.0171
C8 C 0.0486(4) 0.8563(5) 0.9119(3)
H8 H 0.0105 0.9563 0.9061
C9 C -0.0257(4) 0.7571(5) 0.8415(3)
H9 H -0.1158 0.7491 0.8433
C10 C 0.0264(4) 0.6798(4) 0.7767(2)
H10 H 0.1159 0.6887 0.7727
C11 C -0.0495(3) 0.5820(5) 0.7119(2)
H11 H -0.1394 0.5805 0.7153
C12 C -0.0053(3) 0.4928(5) 0.6470(2)
H12 H -0.0666 0.4379 0.6085
C13 C 0.1339(3) 0.4763(4) 0.6332(2)
O3 O 0.1512(2) 0.3506(3) 0.58600(15)
C14 C 0.2858(3) 0.3108(4) 0.5746(2)
H13 H 0.3405 0.3999 0.5726
C15 C 0.3426(3) 0.2037(3) 0.6553(2)
C16 C 0.3089(3) 0.0526(4) 0.6096(2)
C17 C 0.3448(3) 0.0706(4) 0.5121(2)
H14 H 0.3056 -0.0084 0.4709
O4 O 0.4846(2) 0.0672(2) 0.51674(14)
C18 C 0.5468(3) 0.1918(3) 0.5675(2)
H15 H 0.5295 0.2816 0.5292
C19 C 0.6912(3) 0.1586(4) 0.5744(2)
H16 H 0.7318 0.1665 0.5196
C20 C 0.7645(3) 0.1194(4) 0.6515(3)
C21 C 0.7103(3) 0.1063(5) 0.7434(2)
H17 H 0.7409 0.1900 0.7828
H18 H 0.7443 0.0163 0.7747
C22 C 0.5609(3) 0.1021(4) 0.7350(2)
H19 H 0.5324 0.1199 0.7965
H20 H 0.5311 0.0037 0.7145
C23 C 0.4972(3) 0.2185(3) 0.66494(18)
O5 O 0.5840(4) 0.6482(3) 0.7619(2)
C24 C 0.5507(5) 0.8364(6) 0.9300(3)
H21 H 0.6065 0.8317 0.9885
H22 H 0.5132 0.9341 0.9222
H23 H 0.6012 0.8155 0.8789
O6 O 0.1828(3) 0.8649(4) 0.89813(17)
C25 C -0.0622(5) 0.8447(7) 1.0651(3)
H24 H -0.0418 0.8231 1.1309
H25 H -0.1367 0.7868 1.0401
H26 H -0.0821 0.9485 1.0571
O7 O 0.2216(3) 0.5599(3) 0.66110(19)
C26 C 0.2802(3) 0.2202(4) 0.7473(2)
H27 H 0.1910 0.1864 0.7380
H28 H 0.2822 0.3229 0.7659
H29 H 0.3284 0.1618 0.7956
O8 O 0.1813(2) -0.0075(3) 0.6160(2)
C27 C 0.9084(3) 0.0833(6) 0.6520(3)
H30 H 0.9217 -0.0214 0.6621
H31 H 0.9582 0.1377 0.7016
H32 H 0.9368 0.1108 0.5926
C28 C 0.2847(3) 0.2206(4) 0.4835(2)
H33 H 0.1957 0.2083 0.4537
H34 H 0.3359 0.2704 0.4397
C29 C 0.2946(4) -0.0883(4) 0.6567(3)
H35 H 0.3185 -0.1781 0.6250
H36 H 0.3121 -0.0906 0.7248
loop_
_geom_bond_atom_site_label_1
_geom_bond_atom_site_label_2
_geom_bond_site_symmetry_1
_geom_bond_site_symmetry_2
C1 H1 1_555 1_555
H2 C1 1_555 1_555
O1 C1 1_555 1_555
C2 O1 1_555 1_555
C3 C2 1_555 1_555
H3 C3 1_555 1_555
C4 C3 1_555 1_555
C5 C4 1_555 1_555
H4 C5 1_555 1_555
H5 C5 1_555 1_555
C6 C5 1_555 1_555
H6 C6 1_555 1_555
O2 C6 1_555 1_555
C7 O2 1_555 1_555
H7 C7 1_555 1_555
C8 C7 1_555 1_555
H8 C8 1_555 1_555
C9 C8 1_555 1_555
H9 C9 1_555 1_555
C10 C9 1_555 1_555
H10 C10 1_555 1_555
C11 C10 1_555 1_555
H11 C11 1_555 1_555
C12 C11 1_555 1_555
H12 C12 1_555 1_555
C13 C12 1_555 1_555
O3 C13 1_555 1_555
C14 O3 1_555 1_555
H13 C14 1_555 1_555
C15 C14 1_555 1_555
C16 C15 1_555 1_555
C17 C16 1_555 1_555
H14 C17 1_555 1_555
O4 C17 1_555 1_555
C18 O4 1_555 1_555
H15 C18 1_555 1_555
C19 C18 1_555 1_555
H16 C19 1_555 1_555
C20 C19 1_555 1_555
C21 C20 1_555 1_555
H17 C21 1_555 1_555
H18 C21 1_555 1_555
C22 C21 1_555 1_555
H19 C22 1_555 1_555
H20 C22 1_555 1_555
C23 C1 1_555 1_555
O5 C2 1_555 1_555
C24 C4 1_555 1_555
H21 C24 1_555 1_555
H22 C24 1_555 1_555
H23 C24 1_555 1_555
O6 C6 1_555 1_555
C25 C7 1_555 1_555
H24 C25 1_555 1_555
H25 C25 1_555 1_555
H26 C25 1_555 1_555
O7 C13 1_555 1_555
C26 C15 1_555 1_555
H27 C26 1_555 1_555
H28 C26 1_555 1_555
H29 C26 1_555 1_555
O8 C16 1_555 1_555
C27 C20 1_555 1_555
H30 C27 1_555 1_555
H31 C27 1_555 1_555
H32 C27 1_555 1_555
C28 C14 1_555 1_555
H33 C28 1_555 1_555
H34 C28 1_555 1_555
C29 C16 1_555 1_555
H35 C29 1_555 1_555
H36 C29 1_555 1_555
C8 O6 1_555 1_555
C15 C23 1_555 1_555
C17 C28 1_555 1_555
C18 C23 1_555 1_555
C22 C23 1_555 1_555
O8 C29 1_555 1_555

#END
