
#######################################################################
#
#                 Cambridge Crystallographic Data Centre
#                                CCDC 
#
#######################################################################
#
# If this CIF has been generated from an entry in the Cambridge 
# Structural Database, then it will include bibliographic, chemical, 
# crystal, experimental, refinement or atomic coordinate data resulting 
# from the CCDC's data processing and validation procedures.
#
#######################################################################

data_EDEPOT
_chemical_formula_moiety         'C17 H15 N1 O4'
_chemical_name_systematic        
2-(4-Nitrophenyl)-6-phenyl-tetrahydropyran-4-one
_symmetry_cell_setting           monoclinic
_symmetry_space_group_name_H-M   'P 21/c'
_symmetry_Int_Tables_number      14
_space_group_name_Hall           '-P 2ybc'
loop_
_symmetry_equiv_pos_site_id
_symmetry_equiv_pos_as_xyz
1 x,y,z
2 -x,1/2+y,1/2-z
3 -x,-y,-z
4 x,1/2-y,1/2+z
_cell_length_a                   9.2600(9)
_cell_length_b                   12.8916(13)
_cell_length_c                   12.7775(13)
_cell_angle_alpha                90
_cell_angle_beta                 107.687(2)
_cell_angle_gamma                90
_cell_volume                     1453.23
_exptl_crystal_colour            colorless
_exptl_crystal_description       block
_cell_formula_units_Z            4
_exptl_crystal_recrystallization_method isopropanol
loop_
_atom_site_label
_atom_site_type_symbol
_atom_site_fract_x
_atom_site_fract_y
_atom_site_fract_z
C1 C 0.3243(2) -0.05513(14) 0.50653(15)
C2 C 0.3514(2) -0.04291(16) 0.62812(15)
H1 H 0.4525 -0.0675 0.6669
H2 H 0.2796 -0.0859 0.6501
C3 C 0.33546(18) 0.06908(14) 0.66173(13)
H3 H 0.4217 0.1094 0.6547
C4 C 0.1998(2) 0.01033(14) 0.43415(14)
H4 H 0.1029 -0.0222 0.4271
H5 H 0.2120 0.0145 0.3615
C5 C 0.20058(18) 0.12006(12) 0.48042(12)
H6 H 0.2939 0.1552 0.4793
C6 C 0.06664(18) 0.18476(12) 0.41745(13)
C7 C 0.0284(2) 0.19518(16) 0.30406(14)
H7 H 0.0859 0.1618 0.2659
C8 C -0.0948(2) 0.25493(18) 0.24774(16)
H8 H -0.1205 0.2600 0.1717
C9 C -0.1792(2) 0.30658(17) 0.30196(17)
H9 H -0.2616 0.3467 0.2634
C10 C -0.1407(2) 0.29846(17) 0.41438(17)
H10 H -0.1968 0.3339 0.4522
C11 C -0.0194(2) 0.23804(14) 0.47138(14)
H11 H 0.0049 0.2330 0.5474
C12 C 0.32876(18) 0.07859(13) 0.77805(13)
C13 C 0.2117(2) 0.03365(16) 0.80840(15)
H12 H 0.1372 -0.0034 0.7566
C14 C 0.2036(2) 0.04282(16) 0.91396(16)
H13 H 0.1245 0.0128 0.9340
C15 C 0.3157(2) 0.09764(14) 0.98874(14)
C16 C 0.4319(2) 0.14434(16) 0.96140(15)
H14 H 0.5058 0.1817 1.0134
C17 C 0.4372(2) 0.13482(16) 0.85523(15)
H15 H 0.5149 0.1668 0.8353
N1 N 0.3074(3) 0.10890(15) 1.10141(14)
O1 O 0.39561(16) -0.11576(11) 0.46943(12)
O2 O 0.19867(12) 0.11280(9) 0.59157(8)
O3 O 0.2121(3) 0.05888(17) 1.12795(16)
O4 O 0.3959(3) 0.16859(16) 1.16297(13)
loop_
_geom_bond_atom_site_label_1
_geom_bond_atom_site_label_2
_geom_bond_site_symmetry_1
_geom_bond_site_symmetry_2
C1 C2 1_555 1_555
C2 H1 1_555 1_555
H2 C2 1_555 1_555
C3 C2 1_555 1_555
H3 C3 1_555 1_555
C4 C1 1_555 1_555
H4 C4 1_555 1_555
H5 C4 1_555 1_555
C5 C4 1_555 1_555
H6 C5 1_555 1_555
C6 C5 1_555 1_555
C7 C6 1_555 1_555
H7 C7 1_555 1_555
C8 C7 1_555 1_555
H8 C8 1_555 1_555
C9 C8 1_555 1_555
H9 C9 1_555 1_555
C10 C9 1_555 1_555
H10 C10 1_555 1_555
C11 C6 1_555 1_555
H11 C11 1_555 1_555
C12 C3 1_555 1_555
C13 C12 1_555 1_555
H12 C13 1_555 1_555
C14 C13 1_555 1_555
H13 C14 1_555 1_555
C15 C14 1_555 1_555
C16 C15 1_555 1_555
H14 C16 1_555 1_555
C17 C12 1_555 1_555
H15 C17 1_555 1_555
N1 C15 1_555 1_555
O1 C1 1_555 1_555
O2 C3 1_555 1_555
O3 N1 1_555 1_555
O4 N1 1_555 1_555
C5 O2 1_555 1_555
C10 C11 1_555 1_555
C16 C17 1_555 1_555

#END
