
#######################################################################
#
#                 Cambridge Crystallographic Data Centre
#                                CCDC 
#
#######################################################################
#
# If this CIF has been generated from an entry in the Cambridge 
# Structural Database, then it will include bibliographic, chemical, 
# crystal, experimental, refinement or atomic coordinate data resulting 
# from the CCDC's data processing and validation procedures.
#
#######################################################################

data_EDESUC
_chemical_formula_moiety         'C15 H28 Cl1 N5'
_chemical_name_systematic        
6-Chloro-2-diethylamino-4-((1,1,3,3-tetramethylbutyl)amino)-1,3,5-triazine
_symmetry_cell_setting           monoclinic
_symmetry_space_group_name_H-M   'C 2/c'
_symmetry_Int_Tables_number      15
_space_group_name_Hall           '-C 2yn'
loop_
_symmetry_equiv_pos_site_id
_symmetry_equiv_pos_as_xyz
1 x,y,z
2 1/2+x,1/2+y,z
3 -x,y,1/2-z
4 1/2-x,1/2+y,1/2-z
5 -x,-y,-z
6 1/2-x,1/2-y,-z
7 x,-y,1/2+z
8 1/2+x,1/2-y,1/2+z
_cell_length_a                   19.239(3)
_cell_length_b                   7.9613(12)
_cell_length_c                   24.105(4)
_cell_angle_alpha                90
_cell_angle_beta                 102.684(5)
_cell_angle_gamma                90
_cell_volume                     3602
_exptl_crystal_colour            colorless
_exptl_crystal_description       prism
_chemical_melting_point          '427-429 K'
_cell_formula_units_Z            8
_exptl_crystal_recrystallization_method methanol
loop_
_atom_site_label
_atom_site_type_symbol
_atom_site_fract_x
_atom_site_fract_y
_atom_site_fract_z
Cl1 Cl 0.61905(2) 0.77094(6) 0.160423(18)
N1 N 0.40684(7) 0.54339(18) 0.10629(6)
N2 N 0.50602(7) 0.69474(18) 0.08423(6)
N3 N 0.50886(7) 0.61285(18) 0.18027(6)
N4 N 0.41177(8) 0.48292(19) 0.20162(7)
N5 N 0.40728(8) 0.62277(19) 0.01429(6)
C1 C 0.44167(9) 0.5478(2) 0.16095(7)
C2 C 0.44069(9) 0.6192(2) 0.06958(7)
C3 C 0.53402(9) 0.6820(2) 0.13897(7)
C4 C 0.33961(9) 0.4098(2) 0.19432(7)
C5 C 0.32706(9) 0.2567(2) 0.15346(7)
H1 H 0.3246 0.3022 0.1149
H2 H 0.2788 0.2143 0.1538
C6 C 0.37619(9) 0.0995(2) 0.15906(7)
C7 C 0.38462(11) 0.0073(3) 0.21581(8)
H3 H 0.4065 -0.1027 0.2132
H4 H 0.3377 -0.0079 0.2247
H5 H 0.4150 0.0735 0.2459
C8 C 0.28372(9) 0.5440(2) 0.17013(9)
H6 H 0.2920 0.6445 0.1941
H7 H 0.2360 0.4999 0.1694
H8 H 0.2875 0.5730 0.1314
C9 C 0.33090(11) 0.3647(3) 0.25456(8)
H9 H 0.3712 0.2952 0.2735
H10 H 0.2864 0.3022 0.2520
H11 H 0.3296 0.4679 0.2765
C10 C 0.33932(11) -0.0216(2) 0.11220(8)
H12 H 0.3692 -0.1212 0.1121
H13 H 0.3321 0.0346 0.0752
H14 H 0.2931 -0.0555 0.1194
C11 C 0.45047(10) 0.1395(3) 0.14874(9)
H15 H 0.4762 0.2119 0.1793
H16 H 0.4456 0.1974 0.1122
H17 H 0.4771 0.0348 0.1481
C12 C 0.33647(9) 0.5470(3) -0.00460(8)
H18 H 0.3111 0.6037 -0.0398
H19 H 0.3087 0.5652 0.0249
C13 C 0.34036(10) 0.3595(3) -0.01590(8)
H20 H 0.3705 0.3402 -0.0432
H21 H 0.2923 0.3163 -0.0316
H22 H 0.3607 0.3012 0.0198
C14 C 0.43836(10) 0.7093(3) -0.02854(8)
H23 H 0.4250 0.6482 -0.0651
H24 H 0.4910 0.7075 -0.0162
C15 C 0.41314(12) 0.8903(3) -0.03733(10)
H25 H 0.3610 0.8926 -0.0490
H26 H 0.4337 0.9421 -0.0669
H27 H 0.4284 0.9527 -0.0017
H28 H 0.4351(11) 0.508(3) 0.2348(9)
loop_
_geom_bond_atom_site_label_1
_geom_bond_atom_site_label_2
_geom_bond_site_symmetry_1
_geom_bond_site_symmetry_2
Cl1 C3 1_555 1_555
N1 C1 1_555 1_555
N2 C2 1_555 1_555
N3 C1 1_555 1_555
N4 C1 1_555 1_555
N5 C2 1_555 1_555
C2 N1 1_555 1_555
C3 N2 1_555 1_555
C4 N4 1_555 1_555
C5 C4 1_555 1_555
H1 C5 1_555 1_555
H2 C5 1_555 1_555
C6 C5 1_555 1_555
C7 C6 1_555 1_555
H3 C7 1_555 1_555
H4 C7 1_555 1_555
H5 C7 1_555 1_555
C8 C4 1_555 1_555
H6 C8 1_555 1_555
H7 C8 1_555 1_555
H8 C8 1_555 1_555
C9 C4 1_555 1_555
H9 C9 1_555 1_555
H10 C9 1_555 1_555
H11 C9 1_555 1_555
C10 C6 1_555 1_555
H12 C10 1_555 1_555
H13 C10 1_555 1_555
H14 C10 1_555 1_555
C11 C6 1_555 1_555
H15 C11 1_555 1_555
H16 C11 1_555 1_555
H17 C11 1_555 1_555
C12 N5 1_555 1_555
H18 C12 1_555 1_555
H19 C12 1_555 1_555
C13 C12 1_555 1_555
H20 C13 1_555 1_555
H21 C13 1_555 1_555
H22 C13 1_555 1_555
C14 N5 1_555 1_555
H23 C14 1_555 1_555
H24 C14 1_555 1_555
C15 C14 1_555 1_555
H25 C15 1_555 1_555
H26 C15 1_555 1_555
H27 C15 1_555 1_555
H28 N4 1_555 1_555
N3 C3 1_555 1_555

#END
