
#######################################################################
#
#                 Cambridge Crystallographic Data Centre
#                                CCDC 
#
#######################################################################
#
# If this CIF has been generated from an entry in the Cambridge 
# Structural Database, then it will include bibliographic, chemical, 
# crystal, experimental, refinement or atomic coordinate data resulting 
# from the CCDC's data processing and validation procedures.
#
#######################################################################

data_EDESAI
_chemical_formula_moiety         'C20 H12 Br2 N2'
_chemical_name_systematic        2,3-bis(3-Bromophenyl)quinoxaline
_symmetry_cell_setting           monoclinic
_symmetry_space_group_name_H-M   'P 21/n'
_symmetry_Int_Tables_number      14
_space_group_name_Hall           '-P 2yn'
loop_
_symmetry_equiv_pos_site_id
_symmetry_equiv_pos_as_xyz
1 x,y,z
2 1/2-x,1/2+y,1/2-z
3 -x,-y,-z
4 1/2+x,1/2-y,1/2+z
_cell_length_a                   13.5822(17)
_cell_length_b                   7.6918(13)
_cell_length_c                   16.482(3)
_cell_angle_alpha                90
_cell_angle_beta                 104.752(9)
_cell_angle_gamma                90
_cell_volume                     1665.14
_exptl_crystal_colour            colorless
_exptl_crystal_description       plate
_chemical_melting_point          '461 K'
_cell_formula_units_Z            4
_exptl_crystal_recrystallization_method chloroform/ethanol
loop_
_atom_site_label
_atom_site_type_symbol
_atom_site_fract_x
_atom_site_fract_y
_atom_site_fract_z
Br1 Br 0.08495(3) 0.95152(7) 0.11599(3)
Br2 Br -0.18098(4) 1.54598(9) -0.17208(3)
N1 N -0.3517(2) 1.0631(4) 0.1736(2)
N2 N -0.4070(2) 1.2803(5) 0.0336(2)
C1 C -0.4787(3) 1.1927(5) 0.0618(3)
C2 C -0.0077(3) 1.0131(5) 0.1798(3)
C3 C -0.0427(3) 1.0550(6) 0.3121(3)
H1 H -0.0212 1.0561 0.3703
C4 C -0.2364(3) 1.3751(5) 0.0492(3)
C5 C -0.1655(3) 1.4680(5) 0.1092(3)
H2 H -0.1620 1.4532 0.1659
C6 C -0.1746(3) 1.0998(5) 0.1855(3)
C7 C -0.1739(3) 1.5134(6) -0.0578(3)
C8 C -0.4511(3) 1.0908(5) 0.1337(3)
C9 C -0.1065(3) 1.0592(5) 0.1387(3)
H3 H -0.1267 1.0629 0.0804
C10 C -0.5826(3) 1.2121(6) 0.0204(3)
H4 H -0.6017 1.2783 -0.0283
C11 C -0.2833(3) 1.1429(5) 0.1438(2)
C12 C -0.3111(3) 1.2620(5) 0.0751(2)
C13 C -0.6272(3) 1.0345(6) 0.1236(3)
H5 H -0.6779 0.9822 0.1438
C14 C -0.1039(3) 1.6059(6) 0.0012(3)
H6 H -0.0598 1.6832 -0.0150
C15 C -0.5277(3) 1.0109(6) 0.1654(3)
H7 H -0.5104 0.9435 0.2138
C16 C -0.1415(3) 1.0988(6) 0.2727(3)
H8 H -0.1866 1.1280 0.3046
C17 C -0.6542(3) 1.1349(7) 0.0514(3)
H9 H -0.7226 1.1492 0.0241
C18 C 0.0247(3) 1.0097(6) 0.2658(3)
H10 H 0.0910 0.9772 0.2924
C19 C -0.2412(3) 1.4004(6) -0.0348(3)
H11 H -0.2895 1.3415 -0.0757
C20 C -0.1001(3) 1.5823(6) 0.0844(3)
H12 H -0.0528 1.6441 0.1249
loop_
_geom_bond_atom_site_label_1
_geom_bond_atom_site_label_2
_geom_bond_site_symmetry_1
_geom_bond_site_symmetry_2
Br1 C2 1_555 1_555
Br2 C7 1_555 1_555
N1 C8 1_555 1_555
N2 C1 1_555 1_555
C1 C8 1_555 1_555
C2 C9 1_555 1_555
C3 H1 1_555 1_555
C4 C5 1_555 1_555
C5 H2 1_555 1_555
C6 C9 1_555 1_555
C7 C14 1_555 1_555
C8 C15 1_555 1_555
C9 H3 1_555 1_555
C10 C1 1_555 1_555
H4 C10 1_555 1_555
C11 N1 1_555 1_555
C12 N2 1_555 1_555
C13 H5 1_555 1_555
C14 H6 1_555 1_555
C15 C13 1_555 1_555
H7 C15 1_555 1_555
C16 C3 1_555 1_555
H8 C16 1_555 1_555
C17 C10 1_555 1_555
H9 C17 1_555 1_555
C18 C2 1_555 1_555
H10 C18 1_555 1_555
C19 C4 1_555 1_555
H11 C19 1_555 1_555
C20 C5 1_555 1_555
H12 C20 1_555 1_555
C3 C18 1_555 1_555
C4 C12 1_555 1_555
C6 C11 1_555 1_555
C6 C16 1_555 1_555
C7 C19 1_555 1_555
C11 C12 1_555 1_555
C13 C17 1_555 1_555
C14 C20 1_555 1_555

#END
