
#######################################################################
#
#                 Cambridge Crystallographic Data Centre
#                                CCDC 
#
#######################################################################
#
# If this CIF has been generated from an entry in the Cambridge 
# Structural Database, then it will include bibliographic, chemical, 
# crystal, experimental, refinement or atomic coordinate data resulting 
# from the CCDC's data processing and validation procedures.
#
#######################################################################

data_EDEVUF
_chemical_formula_moiety         'C10 H16 N4 2+,2(Cl1 O4 1-)'
_chemical_name_systematic        
"1,1'-(Butane-1,4-diyl)bis(imidazolium) diperchlorate"
_symmetry_cell_setting           triclinic
_symmetry_space_group_name_H-M   'P -1'
_symmetry_Int_Tables_number      2
_space_group_name_Hall           '-P 1'
loop_
_symmetry_equiv_pos_site_id
_symmetry_equiv_pos_as_xyz
1 x,y,z
2 -x,-y,-z
_cell_length_a                   5.5570(10)
_cell_length_b                   7.6280(14)
_cell_length_c                   9.6139(17)
_cell_angle_alpha                95.273(2)
_cell_angle_beta                 96.074(2)
_cell_angle_gamma                95.853(2)
_cell_volume                     400.943
_exptl_crystal_colour            yellow
_exptl_crystal_description       block
_cell_formula_units_Z            1
loop_
_atom_site_label
_atom_site_type_symbol
_atom_site_fract_x
_atom_site_fract_y
_atom_site_fract_z
Cl1 Cl 0.08600(9) 0.78746(6) 0.73164(5)
O1 O 0.0172(4) 0.8598(2) 0.86226(18)
O2 O -0.0516(4) 0.6196(2) 0.6882(2)
O3 O 0.0428(4) 0.9096(2) 0.62750(18)
O4 O 0.3407(3) 0.7663(3) 0.74746(18)
N1 N 0.5280(3) 0.7551(2) 0.21145(17)
N2 N 0.3307(4) 0.8272(3) 0.3850(2)
H1 H 0.2264 0.8723 0.4335
C1 C 0.5040(5) 0.7278(3) 0.4347(2)
H2 H 0.5315 0.6969 0.5259
C2 C 0.6280(4) 0.6827(3) 0.3267(2)
H3 H 0.7579 0.6149 0.3295
C3 C 0.3476(4) 0.8438(3) 0.2504(3)
H4 H 0.2504 0.9066 0.1929
C4 C 0.6119(5) 0.7460(3) 0.0705(2)
H5 H 0.7726 0.8112 0.0768
H6 H 0.5024 0.8024 0.0079
C5 C 0.6226(4) 0.5566(3) 0.0085(2)
H7 H 0.7381 0.5024 0.0690
H8 H 0.6820 0.5587 -0.0827
N1A N 0.4720(3) 0.2449(2) -0.21145(17)
N2A N 0.6693(4) 0.1728(3) -0.3850(2)
H1A H 0.7736 0.1277 -0.4335
C1A C 0.4960(5) 0.2722(3) -0.4347(2)
H2A H 0.4685 0.3031 -0.5259
C2A C 0.3720(4) 0.3173(3) -0.3267(2)
H3A H 0.2421 0.3851 -0.3295
C3A C 0.6524(4) 0.1562(3) -0.2504(3)
H4A H 0.7496 0.0934 -0.1929
C4A C 0.3881(5) 0.2540(3) -0.0705(2)
H5A H 0.2274 0.1888 -0.0768
H6A H 0.4976 0.1976 -0.0079
C5A C 0.3774(4) 0.4434(3) -0.0085(2)
H7A H 0.2619 0.4976 -0.0690
H8A H 0.3180 0.4413 0.0827
loop_
_geom_bond_atom_site_label_1
_geom_bond_atom_site_label_2
_geom_bond_site_symmetry_1
_geom_bond_site_symmetry_2
Cl1 O1 1_555 1_555
O2 Cl1 1_555 1_555
O3 Cl1 1_555 1_555
O4 Cl1 1_555 1_555
N1 C2 1_555 1_555
N2 H1 1_555 1_555
C1 N2 1_555 1_555
H2 C1 1_555 1_555
C2 C1 1_555 1_555
H3 C2 1_555 1_555
C3 N1 1_555 1_555
H4 C3 1_555 1_555
C4 N1 1_555 1_555
H5 C4 1_555 1_555
H6 C4 1_555 1_555
C5 C4 1_555 1_555
H7 C5 1_555 1_555
H8 C5 1_555 1_555
N1A C2A 1_555 1_555
N2A H1A 1_555 1_555
C1A N2A 1_555 1_555
H2A C1A 1_555 1_555
C2A C1A 1_555 1_555
H3A C2A 1_555 1_555
C3A N1A 1_555 1_555
H4A C3A 1_555 1_555
C4A N1A 1_555 1_555
H5A C4A 1_555 1_555
H6A C4A 1_555 1_555
C5A C5 1_555 1_555
H7A C5A 1_555 1_555
H8A C5A 1_555 1_555
N2 C3 1_555 1_555
N2A C3A 1_555 1_555
C4A C5A 1_555 1_555

#END
