
#######################################################################
#
#                 Cambridge Crystallographic Data Centre
#                                CCDC 
#
#######################################################################
#
# If this CIF has been generated from an entry in the Cambridge 
# Structural Database, then it will include bibliographic, chemical, 
# crystal, experimental, refinement or atomic coordinate data resulting 
# from the CCDC's data processing and validation procedures.
#
#######################################################################

data_EDEYIW
_chemical_formula_moiety         'C82 H132 N4 Na4 O8,2(C4 H8 O1)'
_chemical_name_systematic        
'bis(\m~4~-1,4-bis(2-oxy-3,5-di-t-butylbenzyl)imidazolidine)-tetrakis(tetrahydrofuran)-tetra-sodium tetrahydrofuran solvate'
_symmetry_cell_setting           triclinic
_symmetry_space_group_name_H-M   'P -1'
_symmetry_Int_Tables_number      2
_space_group_name_Hall           '-P 1'
loop_
_symmetry_equiv_pos_site_id
_symmetry_equiv_pos_as_xyz
1 x,y,z
2 -x,-y,-z
_cell_length_a                   10.4123(18)
_cell_length_b                   15.5300(18)
_cell_length_c                   15.9655(19)
_cell_angle_alpha                66.699(11)
_cell_angle_beta                 85.856(16)
_cell_angle_gamma                78.656(15)
_cell_volume                     2324.74
_exptl_crystal_colour            colorless
_exptl_crystal_description       block
_chemical_melting_point          '219-221 deg.C'
_cell_formula_units_Z            1
loop_
_atom_site_label
_atom_site_type_symbol
_atom_site_fract_x
_atom_site_fract_y
_atom_site_fract_z
Na1 Na 0.38663(12) 0.04893(8) 1.08551(8)
Na2 Na 0.18823(15) 0.11581(9) 1.21285(9)
O1 O 0.2590(2) 0.18746(15) 1.07521(14)
O2 O 0.3267(2) -0.01800(15) 1.23021(14)
O3 O 0.1883(5) 0.2173(2) 1.2843(2)
O4 O -0.0108(4) 0.0709(2) 1.2626(3)
N1 N 0.5706(2) 0.13728(17) 1.03111(15)
N2 N 0.2962(2) -0.07603(17) 1.05967(15)
C1 C 0.2786(3) 0.2691(2) 1.01156(19)
C2 C 0.1759(3) 0.3391(2) 0.9560(2)
C3 C 0.2072(3) 0.4239(2) 0.8909(2)
H1 H 0.1383 0.4701 0.8539
C4 C 0.3327(3) 0.4448(2) 0.8769(2)
C5 C 0.4310(3) 0.3759(2) 0.9322(2)
H2 H 0.5179 0.3880 0.9248
C6 C 0.4074(3) 0.2901(2) 0.9979(2)
C7 C 0.3064(3) -0.1061(2) 1.27332(19)
C8 C 0.3402(3) -0.1614(2) 1.36688(19)
C9 C 0.3092(3) -0.2514(2) 1.4068(2)
H3 H 0.3310 -0.2870 1.4694
C10 C 0.2484(3) -0.2940(2) 1.36217(19)
C11 C 0.2172(3) -0.2395(2) 1.27130(19)
H4 H 0.1763 -0.2657 1.2379
C12 C 0.2439(3) -0.1476(2) 1.22711(19)
C13 C 0.6316(3) 0.1660(2) 0.94163(19)
H5 H 0.6913 0.2107 0.9349
H6 H 0.5648 0.1966 0.8924
C14 C 0.6803(3) 0.0725(2) 1.0908(2)
H7 H 0.6477 0.0240 1.1454
H8 H 0.7313 0.1085 1.1109
C15 C 0.2364(3) -0.0259(2) 0.9670(2)
H9 H 0.1443 -0.0341 0.9681
H10 H 0.2387 0.0431 0.9433
C16 C 0.5187(3) 0.2189(2) 1.0574(2)
H11 H 0.5911 0.2526 1.0553
H12 H 0.4880 0.1940 1.1212
C17 C 0.1940(3) -0.0895(2) 1.13098(19)
H13 H 0.1481 -0.0259 1.1275
H14 H 0.1289 -0.1210 1.1175
C18 C 0.0336(3) 0.3239(2) 0.9687(2)
C19 C -0.0597(4) 0.4033(3) 0.8974(3)
H15 H -0.1484 0.3888 0.9075
H16 H -0.0306 0.4078 0.8362
H17 H -0.0600 0.4641 0.9027
C20 C -0.0154(4) 0.3231(3) 1.0616(3)
H18 H 0.0444 0.2754 1.1095
H19 H -0.1033 0.3070 1.0723
H20 H -0.0188 0.3862 1.0625
C21 C 0.0223(4) 0.2294(3) 0.9618(3)
H21 H 0.0769 0.1762 1.0092
H22 H 0.0521 0.2310 0.9016
H23 H -0.0692 0.2208 0.9703
C22 C 0.3629(4) 0.5390(2) 0.8049(2)
C23 C 0.4692(5) 0.5188(3) 0.7414(3)
H24 H 0.4391 0.4831 0.7104
H25 H 0.5486 0.4811 0.7768
H26 H 0.4885 0.5792 0.6960
C24 C 0.4067(5) 0.5961(3) 0.8532(3)
H27 H 0.4904 0.5622 0.8845
H28 H 0.3405 0.6035 0.8979
H29 H 0.4171 0.6591 0.8083
C25 C 0.2421(5) 0.6015(3) 0.7473(3)
H30 H 0.2659 0.6603 0.7019
H31 H 0.1735 0.6173 0.7869
H32 H 0.2097 0.5667 0.7161
C26 C 0.4030(3) -0.1197(3) 1.4236(2)
C27 C 0.4373(4) -0.1924(3) 1.5208(3)
H33 H 0.4976 -0.2485 1.5184
H34 H 0.4791 -0.1635 1.5535
H35 H 0.3572 -0.2118 1.5525
C28 C 0.5296(5) -0.0866(4) 1.3789(3)
H36 H 0.5110 -0.0410 1.3159
H37 H 0.5642 -0.0558 1.4132
H38 H 0.5944 -0.1417 1.3790
C29 C 0.3060(5) -0.0344(3) 1.4311(3)
H39 H 0.2246 -0.0553 1.4590
H40 H 0.3446 -0.0094 1.4690
H41 H 0.2870 0.0157 1.3701
C30 C 0.2151(3) -0.3926(2) 1.4141(2)
C31 C 0.3386(3) -0.4638(3) 1.4612(3)
H42 H 0.3708 -0.4444 1.5060
H43 H 0.3172 -0.5276 1.4921
H44 H 0.4064 -0.4647 1.4155
C32 C 0.1121(3) -0.3883(3) 1.4870(2)
H45 H 0.0325 -0.3437 1.4575
H46 H 0.0912 -0.4519 1.5209
H47 H 0.1468 -0.3666 1.5292
C33 C 0.1610(4) -0.4306(2) 1.3517(3)
H48 H 0.2263 -0.4347 1.3053
H49 H 0.1414 -0.4941 1.3879
H50 H 0.0808 -0.3874 1.3218
C34 C 0.2563(8) 0.2941(4) 1.2406(4)
H51 H 0.3516 0.2701 1.2404
H52 H 0.2256 0.3306 1.1767
C35 C 0.2289(10) 0.3518(5) 1.2908(6)
H53 H 0.1696 0.4120 1.2554
H54 H 0.3110 0.3677 1.3034
C36 C 0.1681(7) 0.3015(6) 1.3750(5)
H55 H 0.2277 0.2844 1.4269
H56 H 0.0863 0.3419 1.3837
C37 C 0.1404(9) 0.2189(4) 1.3698(4)
H57 H 0.0448 0.2199 1.3740
H58 H 0.1840 0.1615 1.4206
C38 C -0.1253(6) 0.1310(4) 1.2754(6)
H59 H -0.1598 0.1793 1.2156
H60 H -0.1040 0.1648 1.3123
C39 C -0.2213(5) 0.0750(4) 1.3207(4)
H61 H -0.2903 0.0818 1.2778
H62 H -0.2624 0.0927 1.3709
C40 C -0.1416(6) -0.0250(4) 1.3568(5)
H63 H -0.1107 -0.0430 1.4197
H64 H -0.1943 -0.0715 1.3568
C41 C -0.0353(5) -0.0223(4) 1.2972(5)
H65 H 0.0427 -0.0680 1.3301
H66 H -0.0568 -0.0393 1.2469
Na1A Na 0.61337(12) -0.04893(8) 0.91449(8)
Na2A Na 0.81177(15) -0.11581(9) 0.78715(9)
O1A O 0.7410(2) -0.18746(15) 0.92479(14)
O2A O 0.6733(2) 0.01800(15) 0.76979(14)
O3A O 0.8117(5) -0.2173(2) 0.7157(2)
O4A O 1.0108(4) -0.0709(2) 0.7374(3)
N1A N 0.4294(2) -0.13728(17) 0.96889(15)
N2A N 0.7038(2) 0.07603(17) 0.94033(15)
C1A C 0.7214(3) -0.2691(2) 0.98844(19)
C2A C 0.8241(3) -0.3391(2) 1.0440(2)
C3A C 0.7928(3) -0.4239(2) 1.1091(2)
H1A H 0.8617 -0.4701 1.1461
C4A C 0.6673(3) -0.4448(2) 1.1231(2)
C5A C 0.5690(3) -0.3759(2) 1.0678(2)
H2A H 0.4821 -0.3880 1.0752
C6A C 0.5926(3) -0.2901(2) 1.0021(2)
C7A C 0.6936(3) 0.1061(2) 0.72668(19)
C8A C 0.6598(3) 0.1614(2) 0.63312(19)
C9A C 0.6908(3) 0.2514(2) 0.5932(2)
H3A H 0.6690 0.2870 0.5306
C10A C 0.7516(3) 0.2940(2) 0.63783(19)
C11A C 0.7828(3) 0.2395(2) 0.72870(19)
H4A H 0.8237 0.2657 0.7621
C12A C 0.7561(3) 0.1476(2) 0.77289(19)
C13A C 0.3684(3) -0.1660(2) 1.05837(19)
H5A H 0.3087 -0.2107 1.0651
H6A H 0.4352 -0.1966 1.1076
C14A C 0.3197(3) -0.0725(2) 0.9092(2)
H7A H 0.3523 -0.0240 0.8546
H8A H 0.2687 -0.1085 0.8891
C15A C 0.7636(3) 0.0259(2) 1.0330(2)
H9A H 0.8557 0.0341 1.0319
H10A H 0.7613 -0.0431 1.0567
C16A C 0.4813(3) -0.2189(2) 0.9426(2)
H11A H 0.4089 -0.2526 0.9447
H12A H 0.5120 -0.1940 0.8788
C17A C 0.8060(3) 0.0895(2) 0.86902(19)
H13A H 0.8519 0.0259 0.8725
H14A H 0.8711 0.1210 0.8825
C18A C 0.9664(3) -0.3239(2) 1.0313(2)
C19A C 1.0597(4) -0.4033(3) 1.1026(3)
H15A H 1.1484 -0.3888 1.0925
H16A H 1.0306 -0.4078 1.1638
H17A H 1.0600 -0.4641 1.0973
C20A C 1.0154(4) -0.3231(3) 0.9384(3)
H18A H 0.9556 -0.2754 0.8905
H19A H 1.1033 -0.3070 0.9277
H20A H 1.0188 -0.3862 0.9375
C21A C 0.9777(4) -0.2294(3) 1.0382(3)
H21A H 0.9231 -0.1762 0.9908
H22A H 0.9479 -0.2310 1.0984
H23A H 1.0692 -0.2208 1.0297
C22A C 0.6371(4) -0.5390(2) 1.1951(2)
C23A C 0.5308(5) -0.5188(3) 1.2586(3)
H24A H 0.5609 -0.4831 1.2896
H25A H 0.4514 -0.4811 1.2232
H26A H 0.5115 -0.5792 1.3040
C24A C 0.5933(5) -0.5961(3) 1.1468(3)
H27A H 0.5096 -0.5622 1.1155
H28A H 0.6595 -0.6035 1.1021
H29A H 0.5829 -0.6591 1.1917
C25A C 0.7579(5) -0.6015(3) 1.2527(3)
H30A H 0.7341 -0.6603 1.2981
H31A H 0.8265 -0.6173 1.2131
H32A H 0.7903 -0.5667 1.2839
C26A C 0.5970(3) 0.1197(3) 0.5764(2)
C27A C 0.5627(4) 0.1924(3) 0.4792(3)
H33A H 0.5024 0.2485 0.4816
H34A H 0.5209 0.1635 0.4465
H35A H 0.6428 0.2118 0.4475
C28A C 0.4704(5) 0.0866(4) 0.6211(3)
H36A H 0.4890 0.0410 0.6841
H37A H 0.4358 0.0558 0.5868
H38A H 0.4056 0.1417 0.6210
C29A C 0.6940(5) 0.0344(3) 0.5689(3)
H39A H 0.7754 0.0553 0.5410
H40A H 0.6554 0.0094 0.5310
H41A H 0.7130 -0.0157 0.6299
C30A C 0.7849(3) 0.3926(2) 0.5859(2)
C31A C 0.6614(3) 0.4638(3) 0.5388(3)
H42A H 0.6292 0.4444 0.4940
H43A H 0.6828 0.5276 0.5079
H44A H 0.5936 0.4647 0.5845
C32A C 0.8879(3) 0.3883(3) 0.5130(2)
H45A H 0.9675 0.3437 0.5425
H46A H 0.9088 0.4519 0.4791
H47A H 0.8532 0.3666 0.4708
C33A C 0.8390(4) 0.4306(2) 0.6483(3)
H48A H 0.7737 0.4347 0.6947
H49A H 0.8586 0.4941 0.6121
H50A H 0.9192 0.3874 0.6782
C34A C 0.7437(8) -0.2941(4) 0.7594(4)
H51A H 0.6484 -0.2701 0.7596
H52A H 0.7744 -0.3306 0.8233
C35A C 0.7711(10) -0.3518(5) 0.7092(6)
H53A H 0.8304 -0.4120 0.7446
H54A H 0.6890 -0.3677 0.6966
C36A C 0.8319(7) -0.3015(6) 0.6250(5)
H55A H 0.7723 -0.2844 0.5731
H56A H 0.9137 -0.3419 0.6163
C37A C 0.8596(9) -0.2189(4) 0.6302(4)
H57A H 0.9552 -0.2199 0.6260
H58A H 0.8160 -0.1615 0.5794
C38A C 1.1253(6) -0.1310(4) 0.7246(6)
H59A H 1.1598 -0.1793 0.7844
H60A H 1.1040 -0.1648 0.6877
C39A C 1.2213(5) -0.0750(4) 0.6793(4)
H61A H 1.2903 -0.0818 0.7222
H62A H 1.2624 -0.0927 0.6291
C40A C 1.1416(6) 0.0250(4) 0.6432(5)
H63A H 1.1107 0.0430 0.5803
H64A H 1.1943 0.0715 0.6432
C41A C 1.0353(5) 0.0223(4) 0.7028(5)
H65A H 0.9573 0.0680 0.6699
H66A H 1.0568 0.0393 0.7531
O5 O 0.2482(2) 0.16129(18) 0.77126(18)
C42 C 0.1719(4) 0.2422(3) 0.7075(3)
H67 H 0.0799 0.2485 0.7283
H68 H 0.1738 0.2361 0.6480
C43 C 0.2236(5) 0.3261(3) 0.6976(4)
H69 H 0.1703 0.3607 0.7324
H70 H 0.2242 0.3698 0.6327
C44 C 0.3617(4) 0.2881(3) 0.7355(3)
H71 H 0.4264 0.2889 0.6867
H72 H 0.3854 0.3250 0.7685
C45 C 0.3526(4) 0.1888(3) 0.7987(3)
H73 H 0.4354 0.1451 0.7976
H74 H 0.3383 0.1856 0.8618
loop_
_geom_bond_atom_site_label_1
_geom_bond_atom_site_label_2
_geom_bond_site_symmetry_1
_geom_bond_site_symmetry_2
Na1 O1 1_555 1_555
Na2 O1 1_555 1_555
O1 C1 1_555 1_555
O2 Na1 1_555 1_555
O3 Na2 1_555 1_555
O4 Na2 1_555 1_555
O5 C42 1_555 1_555
N1 Na1 1_555 1_555
N2 Na1 1_555 1_555
C1 C2 1_555 1_555
C2 C3 1_555 1_555
C3 H1 1_555 1_555
C4 C3 1_555 1_555
C5 C4 1_555 1_555
H2 C5 1_555 1_555
C6 C1 1_555 1_555
C7 O2 1_555 1_555
C8 C7 1_555 1_555
C9 C8 1_555 1_555
H3 C9 1_555 1_555
C10 C9 1_555 1_555
C11 C10 1_555 1_555
H4 C11 1_555 1_555
C12 C7 1_555 1_555
C13 N1 1_555 1_555
H5 C13 1_555 1_555
H6 C13 1_555 1_555
C14 N1 1_555 1_555
H7 C14 1_555 1_555
H8 C14 1_555 1_555
C15 N2 1_555 1_555
H9 C15 1_555 1_555
H10 C15 1_555 1_555
C16 N1 1_555 1_555
H11 C16 1_555 1_555
H12 C16 1_555 1_555
C17 N2 1_555 1_555
H13 C17 1_555 1_555
H14 C17 1_555 1_555
C18 C2 1_555 1_555
C19 C18 1_555 1_555
H15 C19 1_555 1_555
H16 C19 1_555 1_555
H17 C19 1_555 1_555
C20 C18 1_555 1_555
H18 C20 1_555 1_555
H19 C20 1_555 1_555
H20 C20 1_555 1_555
C21 C18 1_555 1_555
H21 C21 1_555 1_555
H22 C21 1_555 1_555
H23 C21 1_555 1_555
C22 C4 1_555 1_555
C23 C22 1_555 1_555
H24 C23 1_555 1_555
H25 C23 1_555 1_555
H26 C23 1_555 1_555
C24 C22 1_555 1_555
H27 C24 1_555 1_555
H28 C24 1_555 1_555
H29 C24 1_555 1_555
C25 C22 1_555 1_555
H30 C25 1_555 1_555
H31 C25 1_555 1_555
H32 C25 1_555 1_555
C26 C8 1_555 1_555
C27 C26 1_555 1_555
H33 C27 1_555 1_555
H34 C27 1_555 1_555
H35 C27 1_555 1_555
C28 C26 1_555 1_555
H36 C28 1_555 1_555
H37 C28 1_555 1_555
H38 C28 1_555 1_555
C29 C26 1_555 1_555
H39 C29 1_555 1_555
H40 C29 1_555 1_555
H41 C29 1_555 1_555
C30 C10 1_555 1_555
C31 C30 1_555 1_555
H42 C31 1_555 1_555
H43 C31 1_555 1_555
H44 C31 1_555 1_555
C32 C30 1_555 1_555
H45 C32 1_555 1_555
H46 C32 1_555 1_555
H47 C32 1_555 1_555
C33 C30 1_555 1_555
H48 C33 1_555 1_555
H49 C33 1_555 1_555
H50 C33 1_555 1_555
C34 O3 1_555 1_555
H51 C34 1_555 1_555
H52 C34 1_555 1_555
C35 C34 1_555 1_555
H53 C35 1_555 1_555
H54 C35 1_555 1_555
C36 C35 1_555 1_555
H55 C36 1_555 1_555
H56 C36 1_555 1_555
C37 O3 1_555 1_555
H57 C37 1_555 1_555
H58 C37 1_555 1_555
C38 O4 1_555 1_555
H59 C38 1_555 1_555
H60 C38 1_555 1_555
C39 C38 1_555 1_555
H61 C39 1_555 1_555
H62 C39 1_555 1_555
C40 C39 1_555 1_555
H63 C40 1_555 1_555
H64 C40 1_555 1_555
C41 O4 1_555 1_555
H65 C41 1_555 1_555
H66 C41 1_555 1_555
C42 H67 1_555 1_555
H68 C42 1_555 1_555
C43 C42 1_555 1_555
H69 C43 1_555 1_555
H70 C43 1_555 1_555
C44 C43 1_555 1_555
H71 C44 1_555 1_555
H72 C44 1_555 1_555
C45 O5 1_555 1_555
H73 C45 1_555 1_555
H74 C45 1_555 1_555
Na1A O1A 1_555 1_555
Na2A O1A 1_555 1_555
O1A C1A 1_555 1_555
O2A Na1A 1_555 1_555
O3A Na2A 1_555 1_555
O4A Na2A 1_555 1_555
N1A Na1A 1_555 1_555
N2A C13 1_555 1_555
C1A C2A 1_555 1_555
C2A C3A 1_555 1_555
C3A H1A 1_555 1_555
C4A C3A 1_555 1_555
C5A C4A 1_555 1_555
H2A C5A 1_555 1_555
C6A C1A 1_555 1_555
C7A O2A 1_555 1_555
C8A C7A 1_555 1_555
C9A C8A 1_555 1_555
H3A C9A 1_555 1_555
C10A C9A 1_555 1_555
C11A C10A 1_555 1_555
H4A C11A 1_555 1_555
C12A C7A 1_555 1_555
C13A N2 1_555 1_555
H5A C13A 1_555 1_555
H6A C13A 1_555 1_555
C14A C15 1_555 1_555
H7A C14A 1_555 1_555
H8A C14A 1_555 1_555
C15A C14 1_555 1_555
H9A C15A 1_555 1_555
H10A C15A 1_555 1_555
C16A N1A 1_555 1_555
H11A C16A 1_555 1_555
H12A C16A 1_555 1_555
C17A N2A 1_555 1_555
H13A C17A 1_555 1_555
H14A C17A 1_555 1_555
C18A C2A 1_555 1_555
C19A C18A 1_555 1_555
H15A C19A 1_555 1_555
H16A C19A 1_555 1_555
H17A C19A 1_555 1_555
C20A C18A 1_555 1_555
H18A C20A 1_555 1_555
H19A C20A 1_555 1_555
H20A C20A 1_555 1_555
C21A C18A 1_555 1_555
H21A C21A 1_555 1_555
H22A C21A 1_555 1_555
H23A C21A 1_555 1_555
C22A C4A 1_555 1_555
C23A C22A 1_555 1_555
H24A C23A 1_555 1_555
H25A C23A 1_555 1_555
H26A C23A 1_555 1_555
C24A C22A 1_555 1_555
H27A C24A 1_555 1_555
H28A C24A 1_555 1_555
H29A C24A 1_555 1_555
C25A C22A 1_555 1_555
H30A C25A 1_555 1_555
H31A C25A 1_555 1_555
H32A C25A 1_555 1_555
C26A C8A 1_555 1_555
C27A C26A 1_555 1_555
H33A C27A 1_555 1_555
H34A C27A 1_555 1_555
H35A C27A 1_555 1_555
C28A C26A 1_555 1_555
H36A C28A 1_555 1_555
H37A C28A 1_555 1_555
H38A C28A 1_555 1_555
C29A C26A 1_555 1_555
H39A C29A 1_555 1_555
H40A C29A 1_555 1_555
H41A C29A 1_555 1_555
C30A C10A 1_555 1_555
C31A C30A 1_555 1_555
H42A C31A 1_555 1_555
H43A C31A 1_555 1_555
H44A C31A 1_555 1_555
C32A C30A 1_555 1_555
H45A C32A 1_555 1_555
H46A C32A 1_555 1_555
H47A C32A 1_555 1_555
C33A C30A 1_555 1_555
H48A C33A 1_555 1_555
H49A C33A 1_555 1_555
H50A C33A 1_555 1_555
C34A O3A 1_555 1_555
H51A C34A 1_555 1_555
H52A C34A 1_555 1_555
C35A C34A 1_555 1_555
H53A C35A 1_555 1_555
H54A C35A 1_555 1_555
C36A C35A 1_555 1_555
H55A C36A 1_555 1_555
H56A C36A 1_555 1_555
C37A O3A 1_555 1_555
H57A C37A 1_555 1_555
H58A C37A 1_555 1_555
C38A O4A 1_555 1_555
H59A C38A 1_555 1_555
H60A C38A 1_555 1_555
C39A C38A 1_555 1_555
H61A C39A 1_555 1_555
H62A C39A 1_555 1_555
C40A C39A 1_555 1_555
H63A C40A 1_555 1_555
H64A C40A 1_555 1_555
C41A O4A 1_555 1_555
H65A C41A 1_555 1_555
H66A C41A 1_555 1_555
Na2 O2 1_555 1_555
C5 C6 1_555 1_555
C6 C16 1_555 1_555
C11 C12 1_555 1_555
C12 C17 1_555 1_555
C36 C37 1_555 1_555
C40 C41 1_555 1_555
C44 C45 1_555 1_555
Na1A N2A 1_555 1_555
Na2A O2A 1_555 1_555
N1A C13A 1_555 1_555
N1A C14A 1_555 1_555
N2A C15A 1_555 1_555
C5A C6A 1_555 1_555
C6A C16A 1_555 1_555
C11A C12A 1_555 1_555
C12A C17A 1_555 1_555
C36A C37A 1_555 1_555
C40A C41A 1_555 1_555

#END
