
#######################################################################
#
#                 Cambridge Crystallographic Data Centre
#                                CCDC 
#
#######################################################################
#
# If this CIF has been generated from an entry in the Cambridge 
# Structural Database, then it will include bibliographic, chemical, 
# crystal, experimental, refinement or atomic coordinate data resulting 
# from the CCDC's data processing and validation procedures.
#
#######################################################################

data_EDIGAC
_chemical_formula_moiety         'C26 H23 B1 F2 N4 O1'
_chemical_name_systematic        
(2-{3-[(3,5-dimethyl-1H-pyrrol-2-yl)(3,5-dimethyl-2H-pyrrol-2-ylidene)methyl]imidazo[1,2-a]pyridin-2-yl}phenolato)(difluoro)boron
_symmetry_cell_setting           monoclinic
_symmetry_space_group_name_H-M   'P 21/n'
_symmetry_Int_Tables_number      14
_space_group_name_Hall           '-P 2yn'
loop_
_symmetry_equiv_pos_site_id
_symmetry_equiv_pos_as_xyz
1 x,y,z
2 1/2-x,1/2+y,1/2-z
3 -x,-y,-z
4 1/2+x,1/2-y,1/2+z
_cell_length_a                   11.377(2)
_cell_length_b                   16.028(3)
_cell_length_c                   13.544(3)
_cell_angle_alpha                90
_cell_angle_beta                 106.28(3)
_cell_angle_gamma                90
_cell_volume                     2370.73
_exptl_crystal_colour            'light red'
_exptl_crystal_description       block
_cell_formula_units_Z            4
_exptl_crystal_preparation       ', Luminescent'
loop_
_atom_site_label
_atom_site_type_symbol
_atom_site_fract_x
_atom_site_fract_y
_atom_site_fract_z
F1 F 0.3906(4) 0.5885(3) 0.6893(4)
F2 F 0.4001(4) 0.7260(3) 0.6518(4)
O1 O 1.1451(6) 0.8141(4) 0.6994(5)
H1 H 1.1472 0.7632 0.7064
N1 N 1.0649(6) 0.6647(4) 0.7120(6)
N2 N 0.9368(5) 0.5665(4) 0.7323(5)
N3 N 0.5731(5) 0.6640(3) 0.7745(4)
N4 N 0.5245(5) 0.6289(3) 0.5896(4)
C1 C 0.9035(7) 0.4875(5) 0.7550(6)
H2 H 0.8229 0.4766 0.7541
C2 C 0.9878(8) 0.4264(5) 0.7784(6)
H3 H 0.9652 0.3732 0.7933
C3 C 1.1092(9) 0.4425(6) 0.7806(8)
H4 H 1.1667 0.3997 0.7963
C4 C 1.1435(8) 0.5195(6) 0.7602(8)
H5 H 1.2246 0.5293 0.7617
C5 C 1.0581(7) 0.5855(5) 0.7366(7)
C6 C 0.9498(7) 0.6980(4) 0.6927(6)
C7 C 0.8665(6) 0.6377(4) 0.7050(5)
C8 C 0.9292(8) 0.7857(5) 0.6632(6)
C9 C 1.0268(9) 0.8397(5) 0.6665(6)
C10 C 1.0067(11) 0.9222(5) 0.6366(8)
H6 H 1.0732 0.9570 0.6401
C11 C 0.8911(11) 0.9531(5) 0.6021(8)
H7 H 0.8796 1.0093 0.5849
C12 C 0.7898(10) 0.9018(6) 0.5923(9)
H8 H 0.7107 0.9220 0.5649
C13 C 0.8106(9) 0.8188(5) 0.6248(8)
H9 H 0.7436 0.7844 0.6208
C14 C 0.7353(6) 0.6389(4) 0.6959(5)
C15 C 0.6975(6) 0.6547(4) 0.7843(5)
C16 C 0.7643(7) 0.6682(4) 0.8871(6)
C17 C 0.6791(8) 0.6841(5) 0.9385(6)
H10 H 0.6963 0.6945 1.0087
C18 C 0.5612(7) 0.6821(4) 0.8685(6)
C19 C 0.9003(7) 0.6631(6) 0.9373(7)
H11 H 0.9292 0.6085 0.9268
H12 H 0.9168 0.6735 1.0097
H13 H 0.9415 0.7041 0.9075
C20 C 0.4394(8) 0.6985(6) 0.8871(7)
H14 H 0.3893 0.7306 0.8311
H15 H 0.4511 0.7290 0.9501
H16 H 0.3997 0.6464 0.8919
C21 C 0.6501(7) 0.6252(4) 0.6010(6)
C22 C 0.6678(9) 0.6072(5) 0.5015(6)
C23 C 0.5500(9) 0.6012(5) 0.4380(6)
H17 H 0.5304 0.5897 0.3680
C24 C 0.4657(9) 0.6143(5) 0.4910(7)
C25 C 0.7838(10) 0.5966(6) 0.4723(7)
H18 H 0.8379 0.6422 0.4993
H19 H 0.7660 0.5955 0.3988
H20 H 0.8222 0.5451 0.5002
C26 C 0.3291(9) 0.6134(6) 0.4513(8)
H21 H 0.3013 0.5569 0.4369
H22 H 0.3041 0.6458 0.3893
H23 H 0.2944 0.6367 0.5020
B1 B 0.4662(7) 0.6526(5) 0.6755(7)
loop_
_geom_bond_atom_site_label_1
_geom_bond_atom_site_label_2
_geom_bond_site_symmetry_1
_geom_bond_site_symmetry_2
F1 B1 1_555 1_555
F2 B1 1_555 1_555
O1 H1 1_555 1_555
N1 C5 1_555 1_555
N2 C1 1_555 1_555
N3 C15 1_555 1_555
N4 C21 1_555 1_555
C1 H2 1_555 1_555
C2 C1 1_555 1_555
H3 C2 1_555 1_555
C3 C2 1_555 1_555
H4 C3 1_555 1_555
C4 C3 1_555 1_555
H5 C4 1_555 1_555
C5 N2 1_555 1_555
C6 N1 1_555 1_555
C7 N2 1_555 1_555
C8 C6 1_555 1_555
C9 O1 1_555 1_555
C10 C9 1_555 1_555
H6 C10 1_555 1_555
C11 C10 1_555 1_555
H7 C11 1_555 1_555
C12 C11 1_555 1_555
H8 C12 1_555 1_555
C13 C8 1_555 1_555
H9 C13 1_555 1_555
C14 C7 1_555 1_555
C15 C14 1_555 1_555
C16 C15 1_555 1_555
C17 C16 1_555 1_555
H10 C17 1_555 1_555
C18 N3 1_555 1_555
C19 C16 1_555 1_555
H11 C19 1_555 1_555
H12 C19 1_555 1_555
H13 C19 1_555 1_555
C20 C18 1_555 1_555
H14 C20 1_555 1_555
H15 C20 1_555 1_555
H16 C20 1_555 1_555
C21 C14 1_555 1_555
C22 C21 1_555 1_555
C23 C22 1_555 1_555
H17 C23 1_555 1_555
C24 N4 1_555 1_555
C25 C22 1_555 1_555
H18 C25 1_555 1_555
H19 C25 1_555 1_555
H20 C25 1_555 1_555
C26 C24 1_555 1_555
H21 C26 1_555 1_555
H22 C26 1_555 1_555
H23 C26 1_555 1_555
B1 N3 1_555 1_555
N4 B1 1_555 1_555
C4 C5 1_555 1_555
C6 C7 1_555 1_555
C8 C9 1_555 1_555
C12 C13 1_555 1_555
C17 C18 1_555 1_555
C23 C24 1_555 1_555

#END
