
#######################################################################
#
#                 Cambridge Crystallographic Data Centre
#                                CCDC 
#
#######################################################################
#
# If this CIF has been generated from an entry in the Cambridge 
# Structural Database, then it will include bibliographic, chemical, 
# crystal, experimental, refinement or atomic coordinate data resulting 
# from the CCDC's data processing and validation procedures.
#
#######################################################################

data_EDIKUX
_chemical_formula_moiety         'C26 H18 N4'
_chemical_name_systematic        4,4'-bis(N-7-Azaindolyl)biphenyl
_symmetry_cell_setting           monoclinic
_symmetry_space_group_name_H-M   'P 21/c'
_symmetry_Int_Tables_number      14
_space_group_name_Hall           '-P 2ybc'
loop_
_symmetry_equiv_pos_site_id
_symmetry_equiv_pos_as_xyz
1 x,y,z
2 -x,1/2+y,1/2-z
3 -x,-y,-z
4 x,1/2-y,1/2+z
_cell_length_a                   9.6984(19)
_cell_length_b                   8.1737(17)
_cell_length_c                   12.176(3)
_cell_angle_alpha                90
_cell_angle_beta                 101.537(5)
_cell_angle_gamma                90
_cell_volume                     945.712
_exptl_crystal_colour            colorless
_chemical_melting_point          219-220deg.C
_cell_formula_units_Z            2
_exptl_crystal_recrystallization_method dichloromethane/hexane
loop_
_atom_site_label
_atom_site_type_symbol
_atom_site_fract_x
_atom_site_fract_y
_atom_site_fract_z
C1 C 0.3363(2) 0.5576(3) -0.1041(2)
N1 N 0.2968(2) 0.4945(2) -0.4090(1)
C2 C 0.1890(2) 0.5889(3) -0.4685(2)
C3 C 0.2789(2) 0.5562(3) -0.2165(2)
C4 C 0.4694(2) 0.4980(2) -0.0607(2)
N2 N 0.1187(2) 0.7041(2) -0.4254(1)
C5 C 0.3536(2) 0.4963(2) -0.2922(2)
C6 C 0.5416(2) 0.4354(3) -0.1386(2)
C7 C 0.4860(2) 0.4336(3) -0.2516(2)
C8 C 0.3401(2) 0.3915(3) -0.4850(2)
C9 C 0.1680(2) 0.5427(3) -0.5821(2)
C10 C 0.0181(2) 0.7763(3) -0.5003(2)
C11 C 0.2659(3) 0.4161(3) -0.5889(2)
C12 C 0.0641(3) 0.6243(4) -0.6555(2)
C13 C -0.0121(3) 0.7408(3) -0.6136(2)
H1 H 0.2835 0.6004 -0.0550
H2 H 0.1884 0.5964 -0.2417
H3 H 0.6313 0.3928 -0.1135
H4 H 0.5379 0.3899 -0.3010
H5 H 0.4118 0.3148 -0.4666
H6 H -0.0356 0.8564 -0.4745
H7 H 0.2765 0.3605 -0.6533
H8 H 0.0462 0.6005 -0.7318
H9 H -0.0841 0.7962 -0.6611
C4B C 0.5306(2) 0.5020(2) 0.0607(2)
C1B C 0.6637(2) 0.4424(3) 0.1041(2)
C3B C 0.7211(2) 0.4438(3) 0.2165(2)
C5B C 0.6464(2) 0.5037(2) 0.2922(2)
N1B N 0.7032(2) 0.5055(2) 0.4090(1)
C2B C 0.8110(2) 0.4111(3) 0.4685(2)
N2B N 0.8813(2) 0.2959(2) 0.4254(1)
C10B C 0.9819(2) 0.2237(3) 0.5003(2)
C13B C 1.0121(3) 0.2592(3) 0.6136(2)
C12B C 0.9359(3) 0.3757(4) 0.6555(2)
C9B C 0.8320(2) 0.4573(3) 0.5821(2)
C11B C 0.7341(3) 0.5839(3) 0.5889(2)
C8B C 0.6599(2) 0.6085(3) 0.4850(2)
H5B H 0.5882 0.6852 0.4666
H7B H 0.7235 0.6395 0.6533
H8B H 0.9538 0.3995 0.7318
H9B H 1.0841 0.2038 0.6611
H6B H 1.0356 0.1436 0.4745
C7B C 0.5140(2) 0.5664(3) 0.2516(2)
C6B C 0.4584(2) 0.5646(3) 0.1386(2)
H3B H 0.3687 0.6072 0.1135
H4B H 0.4621 0.6101 0.3010
H2B H 0.8116 0.4036 0.2417
H1B H 0.7165 0.3996 0.0550
loop_
_geom_bond_atom_site_label_1
_geom_bond_atom_site_label_2
_geom_bond_site_symmetry_1
_geom_bond_site_symmetry_2
C1 C3 1_555 1_555
N1 C2 1_555 1_555
C2 N2 1_555 1_555
C3 C5 1_555 1_555
C4 C1 1_555 1_555
N2 C10 1_555 1_555
C5 N1 1_555 1_555
C6 C4 1_555 1_555
C7 C5 1_555 1_555
C8 N1 1_555 1_555
C9 C2 1_555 1_555
C10 C13 1_555 1_555
C11 C8 1_555 1_555
C12 C9 1_555 1_555
C13 C12 1_555 1_555
H1 C1 1_555 1_555
H2 C3 1_555 1_555
H3 C6 1_555 1_555
H4 C7 1_555 1_555
H5 C8 1_555 1_555
H6 C10 1_555 1_555
H7 C11 1_555 1_555
H8 C12 1_555 1_555
H9 C13 1_555 1_555
C4B C4 1_555 1_555
C1B C4B 1_555 1_555
C3B C1B 1_555 1_555
C5B C3B 1_555 1_555
N1B C5B 1_555 1_555
C2B N1B 1_555 1_555
N2B C2B 1_555 1_555
C10B N2B 1_555 1_555
C13B C10B 1_555 1_555
C12B C13B 1_555 1_555
C9B C2B 1_555 1_555
C11B C9B 1_555 1_555
C8B N1B 1_555 1_555
H5B C8B 1_555 1_555
H7B C11B 1_555 1_555
H8B C12B 1_555 1_555
H9B C13B 1_555 1_555
H6B C10B 1_555 1_555
C7B C5B 1_555 1_555
C6B C4B 1_555 1_555
H3B C6B 1_555 1_555
H4B C7B 1_555 1_555
H2B C3B 1_555 1_555
H1B C1B 1_555 1_555
C6 C7 1_555 1_555
C9 C11 1_555 1_555
C12B C9B 1_555 1_555
C11B C8B 1_555 1_555
C7B C6B 1_555 1_555

#END
