
#######################################################################
#
#                 Cambridge Crystallographic Data Centre
#                                CCDC 
#
#######################################################################
#
# If this CIF has been generated from an entry in the Cambridge 
# Structural Database, then it will include bibliographic, chemical, 
# crystal, experimental, refinement or atomic coordinate data resulting 
# from the CCDC's data processing and validation procedures.
#
#######################################################################

data_EDIKOR
_chemical_formula_moiety         'C20 H14 N4'
_chemical_name_systematic        1,3-bis(N-7-Azaindolyl)benzene
_symmetry_cell_setting           orthorhombic
_symmetry_space_group_name_H-M   'P 21 21 21'
_symmetry_Int_Tables_number      19
_space_group_name_Hall           'P 2ac 2ab'
loop_
_symmetry_equiv_pos_site_id
_symmetry_equiv_pos_as_xyz
1 x,y,z
2 1/2-x,-y,1/2+z
3 1/2+x,1/2-y,-z
4 -x,1/2+y,1/2-z
_cell_length_a                   7.3545(19)
_cell_length_b                   9.7061(18)
_cell_length_c                   21.074(4)
_cell_angle_alpha                90
_cell_angle_beta                 90
_cell_angle_gamma                90
_cell_volume                     1504.34
_exptl_crystal_colour            colorless
_chemical_melting_point          110deg.C
_cell_formula_units_Z            4
_exptl_crystal_recrystallization_method dichloromethane/hexanes
loop_
_atom_site_label
_atom_site_type_symbol
_atom_site_fract_x
_atom_site_fract_y
_atom_site_fract_z
N1 N 0.2558(7) 0.5895(6) 0.8465(2)
N2 N 0.5014(6) 0.7215(6) 0.8018(2)
N3 N 0.7297(7) 0.3322(6) 0.9444(3)
N4 N 0.7664(7) 0.5481(6) 0.9993(2)
C1 C 0.3319(7) 0.6628(7) 0.8004(3)
C2 C 0.7444(10) 0.1338(8) 1.0137(4)
C3 C 0.7547(7) 0.4054(7) 0.9973(3)
C4 C 0.7372(9) 0.8435(7) 0.8560(3)
C5 C 0.2528(9) 0.6968(7) 0.7413(3)
C6 C 0.6264(7) 0.7297(7) 0.8536(3)
C7 C 0.7259(9) 0.1958(7) 0.9547(4)
C8 C 0.7600(8) 0.6434(7) 0.9488(3)
C9 C 0.6351(7) 0.6283(7) 0.9001(3)
C10 C 0.7790(8) 0.3544(8) 1.0597(3)
C11 C 0.7720(9) 0.2136(9) 1.0669(4)
C12 C 0.8016(8) 0.5823(9) 1.0618(3)
C13 C 0.3796(10) 0.7774(9) 0.7075(4)
C14 C -0.0017(10) 0.5698(9) 0.7767(4)
C15 C 0.8086(9) 0.4716(10) 1.0985(3)
C16 C 0.0876(8) 0.5446(8) 0.8321(4)
C17 C 0.8742(8) 0.7549(8) 0.9511(4)
C18 C 0.0792(10) 0.6473(9) 0.7297(4)
C19 C 0.8617(9) 0.8555(8) 0.9037(4)
C20 C 0.5281(10) 0.7901(9) 0.7446(4)
H1 H 0.7382 0.0385 1.0174
H2 H 0.7275 0.9120 0.8254
H3 H 0.7097 0.1386 0.9198
H4 H 0.5587 0.5520 0.8986
H5 H 0.7856 0.1734 1.1067
H6 H 0.8183 0.6719 1.0763
H7 H 0.3638 0.8147 0.6673
H8 H -0.1178 0.5344 0.7705
H9 H 0.8292 0.4708 1.1421
H10 H 0.0274 0.4920 0.8625
H11 H 0.9588 0.7636 0.9836
H12 H 0.0195 0.6658 0.6918
H13 H 0.9389 0.9313 0.9047
H14 H 0.6330 0.8378 0.7335
loop_
_geom_bond_atom_site_label_1
_geom_bond_atom_site_label_2
_geom_bond_site_symmetry_1
_geom_bond_site_symmetry_2
N1 C1 1_555 1_555
N2 C1 1_555 1_555
N3 C3 1_555 1_555
N4 C3 1_555 1_555
C1 C5 1_555 1_555
C2 C7 1_555 1_555
C3 C10 1_555 1_555
C4 C6 1_555 1_555
C5 C13 1_555 1_555
C6 N2 1_555 1_555
C7 N3 1_555 1_555
C8 N4 1_555 1_555
C9 C6 1_555 1_555
C10 C11 1_555 1_555
C11 C2 1_555 1_555
C12 N4 1_555 1_555
C13 C20 1_555 1_555
C14 C16 1_555 1_555
C15 C10 1_555 1_555
C16 N1 1_555 1_555
C17 C8 1_555 1_555
C18 C5 1_555 1_555
C19 C4 1_555 1_555
C20 N2 1_555 1_555
H1 C2 1_555 1_555
H2 C4 1_555 1_555
H3 C7 1_555 1_555
H4 C9 1_555 1_555
H5 C11 1_555 1_555
H6 C12 1_555 1_555
H7 C13 1_555 1_555
H8 C14 1_555 1_555
H9 C15 1_555 1_555
H10 C16 1_555 1_555
H11 C17 1_555 1_555
H12 C18 1_555 1_555
H13 C19 1_555 1_555
H14 C20 1_555 1_555
C8 C9 1_555 1_555
C12 C15 1_555 1_555
C14 C18 1_555 1_555
C17 C19 1_555 1_555

#END
