
#######################################################################
#
#                 Cambridge Crystallographic Data Centre
#                                CCDC 
#
#######################################################################
#
# If this CIF has been generated from an entry in the Cambridge 
# Structural Database, then it will include bibliographic, chemical, 
# crystal, experimental, refinement or atomic coordinate data resulting 
# from the CCDC's data processing and validation procedures.
#
#######################################################################

data_EDILIN01
_chemical_name_common            p-C,C-diphenyldodecaborane
_chemical_formula_moiety         'C14 H20 B10'
_chemical_name_systematic        1,12-diphenyl-1,12-dicarba-closo-dodecaborane
_symmetry_cell_setting           monoclinic
_symmetry_space_group_name_H-M   'P 21/c'
_symmetry_Int_Tables_number      14
_space_group_name_Hall           '-P 2ybc'
loop_
_symmetry_equiv_pos_site_id
_symmetry_equiv_pos_as_xyz
1 x,y,z
2 -x,1/2+y,1/2-z
3 -x,-y,-z
4 x,1/2-y,1/2+z
_cell_length_a                   11.629(2)
_cell_length_b                   7.430(1)
_cell_length_c                   19.233(4)
_cell_angle_alpha                90
_cell_angle_beta                 93.45(1)
_cell_angle_gamma                90
_cell_volume                     1658.79
_exptl_crystal_colour            colorless
_exptl_crystal_description       block
_cell_formula_units_Z            4
loop_
_atom_site_label
_atom_site_type_symbol
_atom_site_fract_x
_atom_site_fract_y
_atom_site_fract_z
C1 C 0.0437(3) 0.5003(5) 0.42429(18)
C2 C 0.0859(3) 0.5046(5) 0.35129(18)
C3 C 0.0213(3) 0.4287(5) 0.29564(18)
H1 H -0.0498 0.3721 0.3036
C4 C 0.0595(3) 0.4346(5) 0.2287(2)
H2 H 0.0144 0.3828 0.1912
C5 C 0.1629(3) 0.5157(5) 0.2167(2)
H3 H 0.1897 0.5177 0.1712
C6 C 0.2270(3) 0.5938(5) 0.2710(2)
H4 H 0.2976 0.6513 0.2627
C7 C 0.1890(3) 0.5887(5) 0.3379(2)
H5 H 0.2337 0.6433 0.3750
B1 B 0.0758(4) 0.3177(6) 0.4766(2)
H6 H 0.125(3) 0.203(5) 0.4585(18)
B2 B 0.1427(3) 0.5289(6) 0.4936(2)
H7 H 0.236(3) 0.548(4) 0.4848(16)
B3 B 0.0413(3) 0.7005(6) 0.4688(2)
H8 H 0.069(3) 0.818(4) 0.4458(16)
B4 B -0.0887(3) 0.5950(6) 0.4374(2)
H9 H -0.142(3) 0.658(4) 0.3934(16)
B5 B -0.0675(4) 0.3574(6) 0.4430(2)
H10 H -0.106(3) 0.267(6) 0.404(2)
C1B C -0.0437(3) 0.4997(5) 0.57571(18)
C2B C -0.0859(3) 0.4954(5) 0.64871(18)
C3B C -0.0213(3) 0.5713(5) 0.70436(18)
H1B H 0.0498 0.6279 0.6964
C4B C -0.0595(3) 0.5654(5) 0.7713(2)
H2B H -0.0144 0.6172 0.8088
C5B C -0.1629(3) 0.4843(5) 0.7833(2)
H3B H -0.1897 0.4823 0.8288
C6B C -0.2270(3) 0.4062(5) 0.7290(2)
H4B H -0.2976 0.3487 0.7373
C7B C -0.1890(3) 0.4113(5) 0.6621(2)
H5B H -0.2337 0.3567 0.6250
B1B B -0.0758(4) 0.6823(6) 0.5234(2)
H6B H -0.125(3) 0.797(5) 0.5415(18)
B2B B -0.1427(3) 0.4711(6) 0.5064(2)
H7B H -0.236(3) 0.452(4) 0.5152(16)
B3B B -0.0413(3) 0.2995(6) 0.5312(2)
H8B H -0.069(3) 0.182(4) 0.5542(16)
B4B B 0.0887(3) 0.4050(6) 0.5626(2)
H9B H 0.142(3) 0.342(4) 0.6066(16)
B5B B 0.0675(4) 0.6426(6) 0.5570(2)
H10B H 0.106(3) 0.733(6) 0.596(2)
C8 C 0.4647(3) -0.0012(5) 0.41959(17)
C9 C 0.4283(3) 0.0010(5) 0.34258(18)
C10 C 0.5003(3) -0.0608(5) 0.29304(19)
H11 H 0.5740 -0.1064 0.3073
C11 C 0.4659(3) -0.0563(5) 0.22276(19)
H12 H 0.5160 -0.0989 0.1894
C12 C 0.3583(3) 0.0099(5) 0.2015(2)
H13 H 0.3347 0.0129 0.1535
C13 C 0.2861(3) 0.0721(5) 0.2500(2)
H14 H 0.2124 0.1172 0.2353
C14 C 0.3201(3) 0.0684(5) 0.32054(19)
H15 H 0.2698 0.1121 0.3537
B6 B 0.4241(3) 0.1798(6) 0.4688(2)
H16 H 0.371(3) 0.290(5) 0.4455(17)
B7 B 0.3597(4) -0.0358(6) 0.4775(2)
H17 H 0.269(3) -0.057(5) 0.4578(18)
B8 B 0.4654(3) -0.2018(6) 0.4646(2)
H18 H 0.446(3) -0.332(5) 0.4375(18)
B9 B 0.5963(3) -0.0902(6) 0.4482(2)
H19 H 0.658(3) -0.150(5) 0.4149(18)
B10 B 0.5711(4) 0.1464(6) 0.4506(2)
H20 H 0.612(3) 0.231(5) 0.4154(17)
C8B C 0.5353(3) 0.0012(5) 0.58041(17)
C9B C 0.5717(3) -0.0010(5) 0.65742(18)
C10B C 0.4997(3) 0.0608(5) 0.70696(19)
H11B H 0.4260 0.1064 0.6927
C11B C 0.5341(3) 0.0563(5) 0.77724(19)
H12B H 0.4840 0.0989 0.8106
C12B C 0.6417(3) -0.0099(5) 0.7985(2)
H13B H 0.6653 -0.0129 0.8465
C13B C 0.7139(3) -0.0721(5) 0.7500(2)
H14B H 0.7876 -0.1172 0.7647
C14B C 0.6799(3) -0.0684(5) 0.67946(19)
H15B H 0.7302 -0.1121 0.6463
B6B B 0.5759(3) -0.1798(6) 0.5312(2)
H16B H 0.629(3) -0.290(5) 0.5545(17)
B7B B 0.6403(4) 0.0358(6) 0.5225(2)
H17B H 0.731(3) 0.057(5) 0.5422(18)
B8B B 0.5346(3) 0.2018(6) 0.5354(2)
H18B H 0.554(3) 0.332(5) 0.5625(18)
B9B B 0.4037(3) 0.0902(6) 0.5518(2)
H19B H 0.342(3) 0.150(5) 0.5851(18)
B10B B 0.4289(4) -0.1464(6) 0.5494(2)
H20B H 0.388(3) -0.231(5) 0.5846(17)
loop_
_geom_bond_atom_site_label_1
_geom_bond_atom_site_label_2
_geom_bond_site_symmetry_1
_geom_bond_site_symmetry_2
C1 C2 1_555 1_555
C2 C3 1_555 1_555
C3 H1 1_555 1_555
C4 C3 1_555 1_555
H2 C4 1_555 1_555
C5 C4 1_555 1_555
H3 C5 1_555 1_555
C6 C5 1_555 1_555
H4 C6 1_555 1_555
C7 C2 1_555 1_555
H5 C7 1_555 1_555
B1 C1 1_555 1_555
H6 B1 1_555 1_555
B2 C1 1_555 1_555
H7 B2 1_555 1_555
B3 C1 1_555 1_555
H8 B3 1_555 1_555
B4 C1 1_555 1_555
H9 B4 1_555 1_555
B5 C1 1_555 1_555
H10 B5 1_555 1_555
C8 C9 1_555 1_555
C9 C10 1_555 1_555
C10 H11 1_555 1_555
C11 C10 1_555 1_555
H12 C11 1_555 1_555
C12 C11 1_555 1_555
H13 C12 1_555 1_555
C13 C12 1_555 1_555
H14 C13 1_555 1_555
C14 C9 1_555 1_555
H15 C14 1_555 1_555
B6 C8 1_555 1_555
H16 B6 1_555 1_555
B7 C8 1_555 1_555
H17 B7 1_555 1_555
B8 C8 1_555 1_555
H18 B8 1_555 1_555
B9 C8 1_555 1_555
H19 B9 1_555 1_555
B10 C8 1_555 1_555
H20 B10 1_555 1_555
C1B C2B 1_555 1_555
C2B C3B 1_555 1_555
C3B H1B 1_555 1_555
C4B C3B 1_555 1_555
H2B C4B 1_555 1_555
C5B C4B 1_555 1_555
H3B C5B 1_555 1_555
C6B C5B 1_555 1_555
H4B C6B 1_555 1_555
C7B C2B 1_555 1_555
H5B C7B 1_555 1_555
B1B B3 1_555 1_555
H6B B1B 1_555 1_555
B2B B4 1_555 1_555
H7B B2B 1_555 1_555
B3B B1 1_555 1_555
H8B B3B 1_555 1_555
B4B B1 1_555 1_555
H9B B4B 1_555 1_555
B5B B2 1_555 1_555
H10B B5B 1_555 1_555
C8B C9B 1_555 1_555
C9B C10B 1_555 1_555
C10B H11B 1_555 1_555
C11B C10B 1_555 1_555
H12B C11B 1_555 1_555
C12B C11B 1_555 1_555
H13B C12B 1_555 1_555
C13B C12B 1_555 1_555
H14B C13B 1_555 1_555
C14B C9B 1_555 1_555
H15B C14B 1_555 1_555
B6B B8 1_555 1_555
H16B B6B 1_555 1_555
B7B B9 1_555 1_555
H17B B7B 1_555 1_555
B8B B6 1_555 1_555
H18B B8B 1_555 1_555
B9B B6 1_555 1_555
H19B B9B 1_555 1_555
B10B B7 1_555 1_555
H20B B10B 1_555 1_555
C6 C7 1_555 1_555
B1 B2 1_555 1_555
B1 B5 1_555 1_555
B2 B3 1_555 1_555
B2 B4B 1_555 1_555
B3 B4 1_555 1_555
B3 B5B 1_555 1_555
B4 B5 1_555 1_555
B4 B1B 1_555 1_555
B5 B2B 1_555 1_555
B5 B3B 1_555 1_555
C13 C14 1_555 1_555
B6 B7 1_555 1_555
B6 B10 1_555 1_555
B7 B8 1_555 1_555
B7 B9B 1_555 1_555
B8 B9 1_555 1_555
B8 B10B 1_555 1_555
B9 B10 1_555 1_555
B9 B6B 1_555 1_555
B10 B7B 1_555 1_555
B10 B8B 1_555 1_555
C1B B1B 1_555 1_555
C1B B2B 1_555 1_555
C1B B3B 1_555 1_555
C1B B4B 1_555 1_555
C1B B5B 1_555 1_555
C6B C7B 1_555 1_555
B1B B2B 1_555 1_555
B1B B5B 1_555 1_555
B2B B3B 1_555 1_555
B3B B4B 1_555 1_555
B4B B5B 1_555 1_555
C8B B6B 1_555 1_555
C8B B7B 1_555 1_555
C8B B8B 1_555 1_555
C8B B9B 1_555 1_555
C8B B10B 1_555 1_555
C13B C14B 1_555 1_555
B6B B7B 1_555 1_555
B6B B10B 1_555 1_555
B7B B8B 1_555 1_555
B8B B9B 1_555 1_555
B9B B10B 1_555 1_555

#END
