
#######################################################################
#
#                 Cambridge Crystallographic Data Centre
#                                CCDC 
#
#######################################################################
#
# If this CIF has been generated from an entry in the Cambridge 
# Structural Database, then it will include bibliographic, chemical, 
# crystal, experimental, refinement or atomic coordinate data resulting 
# from the CCDC's data processing and validation procedures.
#
#######################################################################

data_EDIPAI
_chemical_formula_moiety         'C13 H20 O5'
_chemical_name_systematic        
2,2,2',2'-Tetramethyl-tetrahydro-4H-spiro[1,3-benzodioxole-5,4'-[1,3]dioxolan]-4-one
_symmetry_cell_setting           orthorhombic
_symmetry_space_group_name_H-M   'P 21 21 21'
_symmetry_Int_Tables_number      19
_space_group_name_Hall           'P 2ac 2ab'
loop_
_symmetry_equiv_pos_site_id
_symmetry_equiv_pos_as_xyz
1 x,y,z
2 1/2-x,-y,1/2+z
3 1/2+x,1/2-y,-z
4 -x,1/2+y,1/2-z
_cell_length_a                   8.4133(5)
_cell_length_b                   10.5740(7)
_cell_length_c                   15.0005(10)
_cell_angle_alpha                90
_cell_angle_beta                 90
_cell_angle_gamma                90
_cell_volume                     1334.48
_cell_formula_units_Z            4
loop_
_atom_site_label
_atom_site_type_symbol
_atom_site_fract_x
_atom_site_fract_y
_atom_site_fract_z
O1 O 0.4064(3) 0.2143(3) 0.3718(2)
C1 C 0.4827(4) 0.2968(3) 0.3116(2)
O2 O 0.6540(2) 0.1329(2) 0.3545(1)
C2 C 0.6307(3) 0.2232(3) 0.2833(2)
O3 O 0.7791(3) 0.4181(2) 0.2824(2)
C3 C 0.7808(4) 0.3038(3) 0.2759(2)
O4 O 1.0525(3) 0.3142(2) 0.2195(1)
C4 C 0.9334(4) 0.2327(3) 0.2538(2)
O5 O 0.9221(2) 0.2187(2) 0.1035(1)
C5 C 0.9103(4) 0.1368(3) 0.1790(2)
C6 C 0.6111(4) 0.1517(3) 0.1954(2)
C7 C 0.7536(3) 0.0660(3) 0.1777(2)
C8 C 0.4611(5) 0.0195(4) 0.4408(3)
C9 C 0.5854(6) 0.2178(5) 0.4991(3)
C10 C 0.5269(4) 0.1480(3) 0.4183(2)
C11 C 1.0490(4) 0.3045(3) 0.1228(2)
C12 C 1.2071(4) 0.2516(4) 0.0924(2)
C13 C 1.0101(4) 0.4318(3) 0.0820(2)
H1 H 0.5120(4) 0.3773(3) 0.3411(2)
H2 H 0.4138(4) 0.3154(3) 0.2598(2)
H3 H 0.9739(4) 0.1889(3) 0.3083(2)
H4 H 1.0005(4) 0.0752(3) 0.1787(2)
H5 H 0.5131(4) 0.1000(3) 0.1977(2)
H6 H 0.6000(4) 0.2130(3) 0.1459(2)
H7 H 0.7565(3) -0.0014(3) 0.2235(2)
H8 H 0.7403(3) 0.0250(3) 0.1189(2)
H9 H 0.5415(5) -0.0294(4) 0.4732(3)
H10 H 0.4327(5) -0.0250(4) 0.3857(3)
H11 H 0.3663(5) 0.0292(4) 0.4782(3)
H12 H 0.6682(6) 0.1679(5) 0.5287(3)
H13 H 0.4968(6) 0.2313(5) 0.5405(3)
H14 H 0.6292(6) 0.2997(5) 0.4810(3)
H15 H 1.2918(4) 0.3121(4) 0.1064(2)
H16 H 1.2042(4) 0.2368(4) 0.0280(2)
H17 H 1.2278(4) 0.1716(4) 0.1233(2)
H18 H 1.0962(4) 0.4915(3) 0.0947(2)
H19 H 0.9107(4) 0.4638(3) 0.1074(2)
H20 H 0.9983(4) 0.4226(3) 0.0173(2)
loop_
_geom_bond_atom_site_label_1
_geom_bond_atom_site_label_2
_geom_bond_site_symmetry_1
_geom_bond_site_symmetry_2
O1 C1 1_555 1_555
C1 C2 1_555 1_555
O2 C2 1_555 1_555
C2 C3 1_555 1_555
O3 C3 1_555 1_555
C3 C4 1_555 1_555
O4 C4 1_555 1_555
C4 C5 1_555 1_555
O5 C5 1_555 1_555
C5 C7 1_555 1_555
C6 C2 1_555 1_555
C7 C6 1_555 1_555
C8 C10 1_555 1_555
C9 C10 1_555 1_555
C10 O1 1_555 1_555
C11 O4 1_555 1_555
C12 C11 1_555 1_555
C13 C11 1_555 1_555
H1 C1 1_555 1_555
H2 C1 1_555 1_555
H3 C4 1_555 1_555
H4 C5 1_555 1_555
H5 C6 1_555 1_555
H6 C6 1_555 1_555
H7 C7 1_555 1_555
H8 C7 1_555 1_555
H9 C8 1_555 1_555
H10 C8 1_555 1_555
H11 C8 1_555 1_555
H12 C9 1_555 1_555
H13 C9 1_555 1_555
H14 C9 1_555 1_555
H15 C12 1_555 1_555
H16 C12 1_555 1_555
H17 C12 1_555 1_555
H18 C13 1_555 1_555
H19 C13 1_555 1_555
H20 C13 1_555 1_555
O2 C10 1_555 1_555
O5 C11 1_555 1_555

#END
