
#######################################################################
#
#                 Cambridge Crystallographic Data Centre
#                                CCDC 
#
#######################################################################
#
# If this CIF has been generated from an entry in the Cambridge 
# Structural Database, then it will include bibliographic, chemical, 
# crystal, experimental, refinement or atomic coordinate data resulting 
# from the CCDC's data processing and validation procedures.
#
#######################################################################

data_EDIPEM
_chemical_formula_moiety         'C15 H24 O5'
_chemical_name_systematic        
2,2,2',2',5',5'-Hexamethyl-tetrahydro-4H-spiro[1,3-benzodioxole-5,4'-[1,3]dioxolan]-4-one
_symmetry_cell_setting           monoclinic
_symmetry_space_group_name_H-M   'P 21'
_symmetry_Int_Tables_number      4
_space_group_name_Hall           'P 2yb'
loop_
_symmetry_equiv_pos_site_id
_symmetry_equiv_pos_as_xyz
1 x,y,z
2 -x,1/2+y,-z
_cell_length_a                   6.9357(2)
_cell_length_b                   13.4654(5)
_cell_length_c                   8.2758(2)
_cell_angle_alpha                90
_cell_angle_beta                 94.833(2)
_cell_angle_gamma                90
_cell_volume                     770.145
_cell_formula_units_Z            2
loop_
_atom_site_label
_atom_site_type_symbol
_atom_site_fract_x
_atom_site_fract_y
_atom_site_fract_z
O1 O 1.0355(3) 0.6619(1) 0.4769(2)
O2 O 0.8930(2) 0.5090(1) 0.4830(2)
O3 O 0.5787(3) 0.5769(1) 0.7641(2)
O4 O 0.4976(2) 0.3803(1) 0.7800(2)
O5 O 0.7786(2) 0.3660(1) 0.9439(2)
C1 C 0.8917(4) 0.6670(2) 0.5939(3)
C2 C 0.8753(3) 0.5561(2) 0.6368(3)
C3 C 0.6846(3) 0.5221(2) 0.6987(3)
C4 C 0.6545(3) 0.4096(2) 0.6914(3)
C5 C 0.8279(3) 0.3569(2) 0.7795(3)
C6 C 1.0250(3) 0.4020(2) 0.7626(4)
C7 C 0.9347(5) 0.5780(3) 0.2221(3)
C8 C 1.2244(4) 0.5231(2) 0.4037(4)
C9 C 1.0233(4) 0.5683(2) 0.3957(3)
C10 C 0.5744(4) 0.3514(2) 0.9405(3)
C11 C 0.4971(4) 0.4185(3) 1.0673(4)
C12 C 0.5255(5) 0.2427(2) 0.9639(4)
C13 C 1.0280(3) 0.5154(2) 0.7675(3)
C14 C 0.7019(4) 0.7092(2) 0.5132(4)
C15 C 0.9751(5) 0.7336(2) 0.7308(4)
H1 H 0.6341(3) 0.3866(2) 0.5764(3)
H2 H 0.8283(3) 0.2853(2) 0.7473(3)
H3 H 1.0714(3) 0.3798(2) 0.6587(4)
H4 H 1.1166(3) 0.3765(2) 0.8512(4)
H5 H 0.9289(5) 0.5125(3) 0.1705(3)
H6 H 1.0144(5) 0.6226(3) 0.1618(3)
H7 H 0.8037(5) 0.6053(3) 0.2221(3)
H8 H 1.2187(4) 0.4588(2) 0.3483(4)
H9 H 1.2730(4) 0.5139(2) 0.5173(4)
H10 H 1.3114(4) 0.5676(2) 0.3506(4)
H11 H 0.3569(4) 0.4096(3) 1.0670(4)
H12 H 0.5255(4) 0.4879(3) 1.0424(4)
H13 H 0.5591(4) 0.4015(3) 1.1745(4)
H14 H 0.3848(5) 0.2349(2) 0.9611(4)
H15 H 0.5852(5) 0.2199(2) 1.0689(4)
H16 H 0.5750(5) 0.2033(2) 0.8769(4)
H17 H 1.1581(3) 0.5399(2) 0.7465(3)
H18 H 0.9985(3) 0.5388(2) 0.8761(3)
H19 H 0.6520(4) 0.6649(2) 0.4255(4)
H20 H 0.7259(4) 0.7751(2) 0.4686(4)
H21 H 0.6068(4) 0.7147(2) 0.5938(4)
H22 H 1.0962(5) 0.7050(2) 0.7795(4)
H23 H 0.8823(5) 0.7392(2) 0.8133(4)
H24 H 1.0005(5) 0.7997(2) 0.6877(4)
loop_
_geom_bond_atom_site_label_1
_geom_bond_atom_site_label_2
_geom_bond_site_symmetry_1
_geom_bond_site_symmetry_2
O1 C1 1_555 1_555
O2 C2 1_555 1_555
O3 C3 1_555 1_555
O4 C4 1_555 1_555
O5 C5 1_555 1_555
C1 C2 1_555 1_555
C2 C3 1_555 1_555
C3 C4 1_555 1_555
C4 C5 1_555 1_555
C5 C6 1_555 1_555
C6 C13 1_555 1_555
C7 C9 1_555 1_555
C8 C9 1_555 1_555
C9 O1 1_555 1_555
C10 O4 1_555 1_555
C11 C10 1_555 1_555
C12 C10 1_555 1_555
C13 C2 1_555 1_555
C14 C1 1_555 1_555
C15 C1 1_555 1_555
H1 C4 1_555 1_555
H2 C5 1_555 1_555
H3 C6 1_555 1_555
H4 C6 1_555 1_555
H5 C7 1_555 1_555
H6 C7 1_555 1_555
H7 C7 1_555 1_555
H8 C8 1_555 1_555
H9 C8 1_555 1_555
H10 C8 1_555 1_555
H11 C11 1_555 1_555
H12 C11 1_555 1_555
H13 C11 1_555 1_555
H14 C12 1_555 1_555
H15 C12 1_555 1_555
H16 C12 1_555 1_555
H17 C13 1_555 1_555
H18 C13 1_555 1_555
H19 C14 1_555 1_555
H20 C14 1_555 1_555
H21 C14 1_555 1_555
H22 C15 1_555 1_555
H23 C15 1_555 1_555
H24 C15 1_555 1_555
O2 C9 1_555 1_555
O5 C10 1_555 1_555

#END
