
#######################################################################
#
#                 Cambridge Crystallographic Data Centre
#                                CCDC 
#
#######################################################################
#
# If this CIF has been generated from an entry in the Cambridge 
# Structural Database, then it will include bibliographic, chemical, 
# crystal, experimental, refinement or atomic coordinate data resulting 
# from the CCDC's data processing and validation procedures.
#
#######################################################################

data_EDITIV
_chemical_formula_moiety         'C28 H24 N2 O2'
_chemical_name_systematic        
N-(2-(Diethylamino)ethyl)perylene-3,4-dicarboximide
_symmetry_cell_setting           triclinic
_symmetry_space_group_name_H-M   'P -1'
_symmetry_Int_Tables_number      2
_space_group_name_Hall           '-P 1'
loop_
_symmetry_equiv_pos_site_id
_symmetry_equiv_pos_as_xyz
1 x,y,z
2 -x,-y,-z
_cell_length_a                   4.6959(7)
_cell_length_b                   14.281(2)
_cell_length_c                   15.472(2)
_cell_angle_alpha                93.424(4)
_cell_angle_beta                 92.917(4)
_cell_angle_gamma                94.217(4)
_cell_volume                     1031.34
_exptl_crystal_colour            red
_exptl_crystal_description       blade
_cell_formula_units_Z            2
_exptl_crystal_recrystallization_method ethanol/chloroform
_exptl_crystal_preparation       fluorescent
loop_
_atom_site_label
_atom_site_type_symbol
_atom_site_fract_x
_atom_site_fract_y
_atom_site_fract_z
C1 C -0.1103(5) 0.61474(14) 0.30700(14)
C2 C 0.0851(4) 0.54032(14) 0.31840(13)
C3 C 0.2122(4) 0.49760(14) 0.24722(13)
C4 C 0.1558(4) 0.52803(14) 0.16292(13)
C5 C -0.0292(5) 0.60530(14) 0.14993(14)
C6 C 0.1436(5) 0.51164(15) 0.40018(13)
H1 H 0.0624 0.5419 0.4483
C7 C 0.3196(4) 0.43910(15) 0.41378(13)
H2 H 0.3520 0.4197 0.4709
C8 C 0.4489(4) 0.39441(14) 0.34562(13)
C9 C 0.6371(4) 0.31816(14) 0.35875(13)
C10 C 0.6929(5) 0.28510(15) 0.44016(14)
H3 H 0.6013 0.3107 0.4885
C11 C 0.8805(5) 0.21513(15) 0.45233(15)
H4 H 0.9164 0.1944 0.5088
C12 C 1.0130(5) 0.17621(15) 0.38402(15)
H5 H 1.1417 0.1291 0.3934
C13 C 0.9601(5) 0.20548(14) 0.29925(14)
C14 C 1.0929(5) 0.16576(15) 0.22717(15)
H6 H 1.2205 0.1181 0.2355
C15 C 1.0403(5) 0.19493(15) 0.14593(15)
H7 H 1.1286 0.1667 0.0981
C16 C 0.8579(4) 0.26586(14) 0.13290(14)
H8 H 0.8270 0.2862 0.0760
C17 C 0.7197(4) 0.30783(14) 0.20047(14)
C18 C 0.5258(4) 0.38256(14) 0.18698(13)
C19 C 0.4576(5) 0.41300(14) 0.10519(14)
H9 H 0.5352 0.3837 0.0559
C20 C 0.2792(4) 0.48497(14) 0.09397(13)
H10 H 0.2413 0.5050 0.0373
C21 C 0.3973(4) 0.42451(14) 0.26007(13)
C22 C 0.7710(4) 0.27740(14) 0.28616(14)
C23 C -0.3582(5) 0.71554(14) 0.20973(14)
H11 H -0.5088 0.7113 0.2521
H12 H -0.4524 0.7073 0.1508
C24 C -0.1954(5) 0.81174(14) 0.22160(15)
H13 H -0.0837 0.8170 0.2779
H14 H -0.0593 0.8183 0.1751
C25 C -0.3328(5) 0.95465(15) 0.29466(15)
H15 H -0.4286 1.0127 0.2840
H16 H -0.1246 0.9718 0.3026
C26 C -0.4384(6) 0.91454(18) 0.37720(15)
H17 H -0.6473 0.9037 0.3720
H18 H -0.3823 0.9592 0.4268
H19 H -0.3537 0.8549 0.3860
C27 C -0.3766(6) 0.93618(17) 0.13792(15)
H20 H -0.1767 0.9601 0.1303
H21 H -0.4941 0.9909 0.1419
C28 C -0.4838(6) 0.87210(18) 0.05926(15)
H22 H -0.3543 0.8220 0.0509
H23 H -0.4901 0.9087 0.0077
H24 H -0.6761 0.8443 0.0684
N1 N -0.1651(4) 0.64047(11) 0.22195(11)
N2 N -0.3885(4) 0.88798(12) 0.21911(12)
O1 O -0.2262(3) 0.65378(10) 0.36741(9)
O2 O -0.0688(3) 0.63882(10) 0.07931(9)
loop_
_geom_bond_atom_site_label_1
_geom_bond_atom_site_label_2
_geom_bond_site_symmetry_1
_geom_bond_site_symmetry_2
C1 C2 1_555 1_555
C2 C3 1_555 1_555
C3 C4 1_555 1_555
C4 C5 1_555 1_555
C5 N1 1_555 1_555
C6 C2 1_555 1_555
H1 C6 1_555 1_555
C7 C6 1_555 1_555
H2 C7 1_555 1_555
C8 C7 1_555 1_555
C9 C8 1_555 1_555
C10 C9 1_555 1_555
H3 C10 1_555 1_555
C11 C10 1_555 1_555
H4 C11 1_555 1_555
C12 C11 1_555 1_555
H5 C12 1_555 1_555
C13 C12 1_555 1_555
C14 C13 1_555 1_555
H6 C14 1_555 1_555
C15 C14 1_555 1_555
H7 C15 1_555 1_555
C16 C15 1_555 1_555
H8 C16 1_555 1_555
C17 C16 1_555 1_555
C18 C17 1_555 1_555
C19 C18 1_555 1_555
H9 C19 1_555 1_555
C20 C4 1_555 1_555
H10 C20 1_555 1_555
C21 C3 1_555 1_555
C22 C9 1_555 1_555
C23 H11 1_555 1_555
H12 C23 1_555 1_555
C24 C23 1_555 1_555
H13 C24 1_555 1_555
H14 C24 1_555 1_555
C25 H15 1_555 1_555
H16 C25 1_555 1_555
C26 C25 1_555 1_555
H17 C26 1_555 1_555
H18 C26 1_555 1_555
H19 C26 1_555 1_555
C27 H20 1_555 1_555
H21 C27 1_555 1_555
C28 C27 1_555 1_555
H22 C28 1_555 1_555
H23 C28 1_555 1_555
H24 C28 1_555 1_555
N1 C1 1_555 1_555
N2 C24 1_555 1_555
O1 C1 1_555 1_555
O2 C5 1_555 1_555
C8 C21 1_555 1_555
C13 C22 1_555 1_555
C17 C22 1_555 1_555
C18 C21 1_555 1_555
C19 C20 1_555 1_555
C23 N1 1_555 1_555
C25 N2 1_555 1_555
C27 N2 1_555 1_555

#END
