
#######################################################################
#
#                 Cambridge Crystallographic Data Centre
#                                CCDC 
#
#######################################################################
#
# If this CIF has been generated from an entry in the Cambridge 
# Structural Database, then it will include bibliographic, chemical, 
# crystal, experimental, refinement or atomic coordinate data resulting 
# from the CCDC's data processing and validation procedures.
#
#######################################################################

data_EDIYUO
_chemical_formula_moiety         'C17 H16 Cl4 N2 P2'
_chemical_name_systematic        
2,3,4,5-tetrachloro-1-(1,2,3,4,7,8,9,10-octahydro-6H-[1,2,3]benzodiazaphospholo[2,1-a][1,2,3]benzodiazaphosphol-5-ium-6-yl)cyclopenta-2,4-dien-1-ide
_symmetry_cell_setting           monoclinic
_symmetry_space_group_name_H-M   'P 21/n'
_symmetry_Int_Tables_number      14
_space_group_name_Hall           '-P 2yn'
loop_
_symmetry_equiv_pos_site_id
_symmetry_equiv_pos_as_xyz
1 x,y,z
2 1/2-x,1/2+y,1/2-z
3 -x,-y,-z
4 1/2+x,1/2-y,1/2+z
_cell_length_a                   9.7375(4)
_cell_length_b                   10.9878(5)
_cell_length_c                   17.4875(6)
_cell_angle_alpha                90
_cell_angle_beta                 90.789(4)
_cell_angle_gamma                90
_cell_volume                     1870.87
_exptl_crystal_colour            yellow
_exptl_crystal_description       stick
_cell_formula_units_Z            4
loop_
_atom_site_label
_atom_site_type_symbol
_atom_site_fract_x
_atom_site_fract_y
_atom_site_fract_z
Cl1 Cl 0.51010(8) 0.93872(7) 0.59950(4)
Cl2 Cl 0.72707(9) 0.83002(8) 0.46373(4)
Cl3 Cl 0.95559(9) 0.63883(8) 0.54953(5)
Cl4 Cl 0.88500(8) 0.62603(7) 0.74041(4)
P1 P 0.58221(8) 0.80831(7) 0.76907(4)
P2 P 0.53734(9) 0.48532(8) 0.90015(5)
N1 N 0.5357(3) 0.6545(2) 0.79813(14)
N2 N 0.5885(3) 0.6222(2) 0.86797(14)
C1 C 0.6976(3) 0.8068(3) 0.85132(17)
C2 C 0.6806(3) 0.7114(3) 0.89717(17)
C3 C 0.7502(3) 0.6881(3) 0.97219(17)
H1 H 0.8168 0.6206 0.9671
H2 H 0.6815 0.6644 1.0107
C4 C 0.8253(4) 0.8043(3) 0.99823(18)
H3 H 0.7580 0.8631 1.0186
H4 H 0.8917 0.7842 1.0397
C5 C 0.9006(3) 0.8613(3) 0.93198(18)
H5 H 0.9649 0.8010 0.9104
H6 H 0.9553 0.9314 0.9509
C6 C 0.8013(3) 0.9047(3) 0.86878(18)
H7 H 0.7537 0.9795 0.8856
H8 H 0.8533 0.9242 0.8221
C7 C 0.4356(3) 0.4695(3) 0.81900(18)
C8 C 0.4487(3) 0.5695(3) 0.77052(17)
C9 C 0.3799(3) 0.5831(3) 0.69430(17)
H9 H 0.4479 0.5712 0.6534
H10 H 0.3418 0.6663 0.6893
C10 C 0.2636(3) 0.4892(3) 0.6852(2)
H11 H 0.2354 0.4839 0.6307
H12 H 0.1831 0.5162 0.7148
C11 C 0.3099(3) 0.3630(3) 0.71351(18)
H13 H 0.2364 0.3029 0.7028
H14 H 0.3927 0.3376 0.6854
C12 C 0.3422(3) 0.3646(3) 0.79883(18)
H15 H 0.2557 0.3719 0.8276
H16 H 0.3869 0.2871 0.8138
C13 C 0.6812(3) 0.7866(3) 0.68729(17)
C14 C 0.6418(3) 0.8348(3) 0.61493(18)
C15 C 0.7283(3) 0.7919(3) 0.55920(18)
C16 C 0.8263(3) 0.7155(3) 0.59569(18)
C17 C 0.7986(3) 0.7125(3) 0.67237(18)
loop_
_geom_bond_atom_site_label_1
_geom_bond_atom_site_label_2
_geom_bond_site_symmetry_1
_geom_bond_site_symmetry_2
Cl1 C14 1_555 1_555
Cl2 C15 1_555 1_555
Cl3 C16 1_555 1_555
Cl4 C17 1_555 1_555
P1 N1 1_555 1_555
P2 N2 1_555 1_555
N1 N2 1_555 1_555
N2 C2 1_555 1_555
C1 P1 1_555 1_555
C2 C1 1_555 1_555
C3 C2 1_555 1_555
H1 C3 1_555 1_555
H2 C3 1_555 1_555
C4 C3 1_555 1_555
H3 C4 1_555 1_555
H4 C4 1_555 1_555
C5 C4 1_555 1_555
H5 C5 1_555 1_555
H6 C5 1_555 1_555
C6 C1 1_555 1_555
H7 C6 1_555 1_555
H8 C6 1_555 1_555
C7 P2 1_555 1_555
C8 N1 1_555 1_555
C9 C8 1_555 1_555
H9 C9 1_555 1_555
H10 C9 1_555 1_555
C10 C9 1_555 1_555
H11 C10 1_555 1_555
H12 C10 1_555 1_555
C11 C10 1_555 1_555
H13 C11 1_555 1_555
H14 C11 1_555 1_555
C12 C7 1_555 1_555
H15 C12 1_555 1_555
H16 C12 1_555 1_555
C13 P1 1_555 1_555
C14 C13 1_555 1_555
C15 C14 1_555 1_555
C16 C15 1_555 1_555
C17 C13 1_555 1_555
C5 C6 1_555 1_555
C7 C8 1_555 1_555
C11 C12 1_555 1_555
C16 C17 1_555 1_555

#END
