
#######################################################################
#
#                 Cambridge Crystallographic Data Centre
#                                CCDC 
#
#######################################################################
#
# If this CIF has been generated from an entry in the Cambridge 
# Structural Database, then it will include bibliographic, chemical, 
# crystal, experimental, refinement or atomic coordinate data resulting 
# from the CCDC's data processing and validation procedures.
#
#######################################################################

data_EDIZUP
_chemical_formula_moiety         'C32 H32 B1 F10 N1,C1 H2 Cl2'
_chemical_name_systematic        
'bis(pentafluorophenyl)(2-phenylvinyl)(3-(2,2,6,6-tetramethylpiperidinium-1-yl)propyl)borate dichloromethane solvate'
_symmetry_cell_setting           monoclinic
_symmetry_space_group_name_H-M   'P 21/n'
_symmetry_Int_Tables_number      14
_space_group_name_Hall           '-P 2yn'
loop_
_symmetry_equiv_pos_site_id
_symmetry_equiv_pos_as_xyz
1 x,y,z
2 1/2-x,1/2+y,1/2-z
3 -x,-y,-z
4 1/2+x,1/2-y,1/2+z
_cell_length_a                   9.3502(2)
_cell_length_b                   23.8921(5)
_cell_length_c                   15.2930(5)
_cell_angle_alpha                90
_cell_angle_beta                 96.9830(10)
_cell_angle_gamma                90
_cell_volume                     3391.05
_exptl_crystal_colour            colorless
_exptl_crystal_description       prism
_cell_formula_units_Z            4
loop_
_atom_site_label
_atom_site_type_symbol
_atom_site_fract_x
_atom_site_fract_y
_atom_site_fract_z
N1 N 0.5468(3) 0.15201(12) 1.15458(18)
H1 H 0.602(3) 0.1818(13) 1.136(2)
B1 B 0.6372(4) 0.13184(16) 0.8317(2)
C1 C 0.5158(4) 0.11769(14) 1.0705(2)
H2 H 0.5516 0.0795 1.0817
H3 H 0.4113 0.1156 1.0540
C2 C 0.5844(4) 0.14214(15) 0.9949(2)
H4 H 0.6894 0.1406 1.0089
H5 H 0.5566 0.1816 0.9878
C3 C 0.5405(4) 0.11132(14) 0.9083(2)
H6 H 0.4384 0.1183 0.8887
H7 H 0.5532 0.0710 0.9177
C4 C 0.6300(4) 0.19989(15) 0.8262(2)
H8 H 0.7026 0.2185 0.8632
C5 C 0.5385(4) 0.23330(15) 0.7783(3)
H9 H 0.5542 0.2719 0.7863
C6 C 0.6532(4) 0.12323(14) 1.2266(2)
C7 C 0.6826(5) 0.16393(17) 1.3034(2)
H10 H 0.7423 0.1450 1.3517
H11 H 0.7383 0.1956 1.2847
C8 C 0.5500(5) 0.18613(19) 1.3376(3)
H12 H 0.5773 0.2123 1.3861
H13 H 0.4960 0.1552 1.3601
C9 C 0.4574(5) 0.21552(17) 1.2645(3)
H14 H 0.5107 0.2479 1.2460
H15 H 0.3713 0.2297 1.2878
C10 C 0.4096(4) 0.17968(16) 1.1834(3)
C11 C 0.5938(6) 0.06788(17) 1.2564(3)
H16 H 0.6675 0.0489 1.2958
H17 H 0.5656 0.0445 1.2054
H18 H 0.5107 0.0750 1.2869
C12 C 0.7922(5) 0.11341(19) 1.1864(3)
H19 H 0.8236 0.1483 1.1624
H20 H 0.7755 0.0858 1.1397
H21 H 0.8661 0.0999 1.2315
C13 C 0.2979(5) 0.1358(2) 1.2024(3)
H22 H 0.2068 0.1541 1.2078
H23 H 0.3311 0.1166 1.2570
H24 H 0.2851 0.1090 1.1545
C14 C 0.3483(5) 0.21775(17) 1.1085(3)
H25 H 0.4243 0.2414 1.0911
H26 H 0.2731 0.2410 1.1279
H27 H 0.3083 0.1952 1.0587
C15 C 0.8015(4) 0.10482(14) 0.8616(2)
F1 F 0.9304(2) 0.18835(9) 0.90447(16)
C16 C 0.9275(4) 0.13179(15) 0.8940(2)
F2 F 1.1744(2) 0.13593(11) 0.94982(18)
C17 C 1.0573(4) 0.10581(18) 0.9193(2)
F3 F 1.1942(2) 0.02254(11) 0.93790(18)
C18 C 1.0682(4) 0.04853(19) 0.9127(3)
F4 F 0.9536(3) -0.03703(10) 0.87670(18)
C19 C 0.9468(4) 0.01917(16) 0.8824(3)
F5 F 0.7069(2) 0.01398(8) 0.82863(15)
C20 C 0.8191(4) 0.04731(15) 0.8584(2)
C21 C 0.5901(4) 0.10794(13) 0.7306(2)
F6 F 0.7974(2) 0.15109(9) 0.68578(13)
C22 C 0.6747(4) 0.12084(14) 0.6651(2)
F7 F 0.7315(3) 0.12038(11) 0.51826(14)
C23 C 0.6426(4) 0.10600(17) 0.5776(2)
F8 F 0.4852(3) 0.06143(11) 0.46711(13)
C24 C 0.5199(5) 0.07621(17) 0.5523(2)
F9 F 0.3104(3) 0.03282(10) 0.58882(14)
C25 C 0.4320(4) 0.06188(15) 0.6141(2)
F10 F 0.3744(2) 0.06146(8) 0.75628(13)
C26 C 0.4685(4) 0.07742(13) 0.7003(2)
C27 C 0.4141(4) 0.21718(16) 0.7134(3)
C28 C 0.4079(5) 0.2327(2) 0.6253(3)
H28 H 0.4830 0.2538 0.6062
C29 C 0.2899(7) 0.2169(3) 0.5649(4)
H29 H 0.2869 0.2273 0.5054
C30 C 0.1800(7) 0.1869(2) 0.5915(4)
H30 H 0.1023 0.1760 0.5502
C31 C 0.1819(5) 0.1724(2) 0.6784(4)
H31 H 0.1047 0.1522 0.6969
C32 C 0.2978(5) 0.18775(17) 0.7387(3)
H32 H 0.2978 0.1780 0.7983
C34 C 0.8473(15) -0.0281(7) 0.6395(13)
H35 H 0.7647 -0.0150 0.5991
H36 H 0.8168 -0.0355 0.6975
Cl3 Cl 0.9846(14) 0.0171(5) 0.6457(10)
Cl4 Cl 0.9310(18) -0.0887(5) 0.5966(9)
C33? C 0.867(2) -0.0188(5) 0.6018(14)
H33? H 0.8595 -0.0081 0.5395
H34? H 0.7748 -0.0097 0.6226
Cl1? Cl 0.9945(5) 0.02112(19) 0.6576(3)
Cl2? Cl 0.8900(8) -0.0920(2) 0.6081(4)
loop_
_geom_bond_atom_site_label_1
_geom_bond_atom_site_label_2
_geom_bond_site_symmetry_1
_geom_bond_site_symmetry_2
N1 H1 1_555 1_555
B1 C3 1_555 1_555
C1 N1 1_555 1_555
H2 C1 1_555 1_555
H3 C1 1_555 1_555
C2 C1 1_555 1_555
H4 C2 1_555 1_555
H5 C2 1_555 1_555
C3 C2 1_555 1_555
H6 C3 1_555 1_555
H7 C3 1_555 1_555
C4 B1 1_555 1_555
H8 C4 1_555 1_555
C5 C4 1_555 1_555
H9 C5 1_555 1_555
C6 N1 1_555 1_555
C7 C6 1_555 1_555
H10 C7 1_555 1_555
H11 C7 1_555 1_555
C8 C7 1_555 1_555
H12 C8 1_555 1_555
H13 C8 1_555 1_555
C9 C8 1_555 1_555
H14 C9 1_555 1_555
H15 C9 1_555 1_555
C10 N1 1_555 1_555
C11 C6 1_555 1_555
H16 C11 1_555 1_555
H17 C11 1_555 1_555
H18 C11 1_555 1_555
C12 C6 1_555 1_555
H19 C12 1_555 1_555
H20 C12 1_555 1_555
H21 C12 1_555 1_555
C13 C10 1_555 1_555
H22 C13 1_555 1_555
H23 C13 1_555 1_555
H24 C13 1_555 1_555
C14 C10 1_555 1_555
H25 C14 1_555 1_555
H26 C14 1_555 1_555
H27 C14 1_555 1_555
C15 B1 1_555 1_555
F1 C16 1_555 1_555
C16 C15 1_555 1_555
F2 C17 1_555 1_555
C17 C16 1_555 1_555
F3 C18 1_555 1_555
C18 C17 1_555 1_555
F4 C19 1_555 1_555
C19 C18 1_555 1_555
F5 C20 1_555 1_555
C20 C15 1_555 1_555
C21 B1 1_555 1_555
F6 C22 1_555 1_555
C22 C21 1_555 1_555
F7 C23 1_555 1_555
C23 C22 1_555 1_555
F8 C24 1_555 1_555
C24 C23 1_555 1_555
F9 C25 1_555 1_555
C25 C24 1_555 1_555
F10 C26 1_555 1_555
C26 C21 1_555 1_555
C27 C5 1_555 1_555
C28 C27 1_555 1_555
H28 C28 1_555 1_555
C29 C28 1_555 1_555
H29 C29 1_555 1_555
C30 C29 1_555 1_555
H30 C30 1_555 1_555
C31 C30 1_555 1_555
H31 C31 1_555 1_555
C32 C27 1_555 1_555
H32 C32 1_555 1_555
C34 H35 1_555 1_555
H36 C34 1_555 1_555
Cl3 C34 1_555 1_555
Cl4 C34 1_555 1_555
C9 C10 1_555 1_555
C19 C20 1_555 1_555
C25 C26 1_555 1_555
C31 C32 1_555 1_555

#END
