
#######################################################################
#
#                 Cambridge Crystallographic Data Centre
#                                CCDC 
#
#######################################################################
#
# If this CIF has been generated from an entry in the Cambridge 
# Structural Database, then it will include bibliographic, chemical, 
# crystal, experimental, refinement or atomic coordinate data resulting 
# from the CCDC's data processing and validation procedures.
#
#######################################################################

data_EDOBIL
_chemical_formula_moiety         'C33 H34 B1 F10 N1,C1 H2 Cl2'
_chemical_name_systematic        
'bis(pentafluorophenyl)(1-phenylprop-1-en-2-yl)(3-(2,2,6,6-tetramethylpiperidinium-1-yl)propyl)borate dichloromethane solvate'
_symmetry_cell_setting           monoclinic
_symmetry_space_group_name_H-M   'P 21/c'
_symmetry_Int_Tables_number      14
_space_group_name_Hall           '-P 2ybc'
loop_
_symmetry_equiv_pos_site_id
_symmetry_equiv_pos_as_xyz
1 x,y,z
2 -x,1/2+y,1/2-z
3 -x,-y,-z
4 x,1/2-y,1/2+z
_cell_length_a                   11.7600(2)
_cell_length_b                   21.0213(4)
_cell_length_c                   13.4824(3)
_cell_angle_alpha                90
_cell_angle_beta                 91.5490(10)
_cell_angle_gamma                90
_cell_volume                     3331.77
_exptl_crystal_colour            colorless
_exptl_crystal_description       plate
_cell_formula_units_Z            4
loop_
_atom_site_label
_atom_site_type_symbol
_atom_site_fract_x
_atom_site_fract_y
_atom_site_fract_z
N1 N -0.2035(3) 0.34382(16) 0.9432(3)
H1 H -0.197(4) 0.372(2) 0.895(3)
B1 B 0.1750(4) 0.2837(2) 0.7759(3)
C1 C -0.0998(3) 0.30012(19) 0.9456(3)
H2 H -0.0655 0.2998 1.0134
H3 H -0.1244 0.2562 0.9294
C2 C -0.0104(3) 0.32086(19) 0.8726(3)
H4 H 0.0418 0.3517 0.9055
H5 H -0.0484 0.3426 0.8156
C3 C 0.0585(3) 0.26438(19) 0.8347(3)
H6 H 0.0091 0.2389 0.7893
H7 H 0.0802 0.2370 0.8919
C4 C 0.2481(3) 0.32620(19) 0.8560(3)
C5 C 0.2774(3) 0.3879(2) 0.8546(3)
H8 H 0.3171 0.4022 0.9128
C6 C 0.2778(4) 0.2924(2) 0.9537(3)
H9 H 0.3396 0.3152 0.9885
H10 H 0.3022 0.2487 0.9399
H11 H 0.2108 0.2914 0.9952
C7 C -0.3160(3) 0.30954(19) 0.9092(3)
C8 C -0.4080(3) 0.3602(2) 0.8984(3)
H12 H -0.3900 0.3881 0.8418
H13 H -0.4816 0.3391 0.8826
C9 C -0.4211(3) 0.4010(2) 0.9903(3)
H14 H -0.4424 0.3740 1.0470
H15 H -0.4822 0.4328 0.9785
C10 C -0.3094(4) 0.4347(2) 1.0142(3)
H16 H -0.3191 0.4617 1.0735
H17 H -0.2914 0.4630 0.9581
C11 C -0.2087(3) 0.38986(19) 1.0336(3)
C12 C -0.3476(4) 0.2567(2) 0.9816(4)
H18 H -0.4032 0.2281 0.9494
H19 H -0.3807 0.2756 1.0407
H20 H -0.2793 0.2326 1.0009
C13 C -0.2933(4) 0.2805(2) 0.8071(3)
H21 H -0.2556 0.3120 0.7658
H22 H -0.3656 0.2678 0.7751
H23 H -0.2443 0.2430 0.8154
C14 C -0.2177(4) 0.3545(2) 1.1318(3)
H24 H -0.2012 0.3838 1.1868
H25 H -0.1629 0.3194 1.1341
H26 H -0.2949 0.3375 1.1377
C15 C -0.0988(4) 0.4293(2) 1.0320(3)
H27 H -0.0907 0.4481 0.9660
H28 H -0.0335 0.4017 1.0471
H29 H -0.1022 0.4632 1.0817
C16 C 0.2425(3) 0.21608(18) 0.7471(3)
F1 F 0.07496(18) 0.17367(11) 0.66903(18)
C17 C 0.1867(3) 0.16688(19) 0.6974(3)
F2 F 0.1741(2) 0.06629(11) 0.6182(2)
C18 C 0.2352(3) 0.11040(19) 0.6679(3)
F3 F 0.3990(2) 0.04528(11) 0.6613(2)
C19 C 0.3486(4) 0.10044(19) 0.6877(3)
F4 F 0.52275(19) 0.13937(12) 0.7534(2)
C20 C 0.4101(3) 0.1471(2) 0.7350(3)
F5 F 0.42744(19) 0.24633(11) 0.80511(19)
C21 C 0.3573(3) 0.20271(18) 0.7619(3)
C22 C 0.1548(3) 0.31759(18) 0.6660(3)
F6 F -0.0470(2) 0.30504(12) 0.65105(18)
C23 C 0.0531(3) 0.32696(19) 0.6149(3)
F7 F -0.0619(2) 0.36599(13) 0.4815(2)
C24 C 0.0422(4) 0.3588(2) 0.5261(3)
F8 F 0.1259(3) 0.41203(13) 0.3934(2)
C25 C 0.1366(4) 0.3819(2) 0.4810(3)
F9 F 0.3348(2) 0.39118(13) 0.47962(19)
C26 C 0.2400(4) 0.3714(2) 0.5255(3)
F10 F 0.35395(19) 0.32914(11) 0.65121(18)
C27 C 0.2479(3) 0.33931(19) 0.6137(3)
C28 C 0.2585(4) 0.43749(19) 0.7782(3)
C29 C 0.1507(4) 0.4579(2) 0.7468(3)
H30 H 0.0856 0.4381 0.7732
C30 C 0.1362(4) 0.5060(2) 0.6784(3)
H31 H 0.0617 0.5191 0.6587
C31 C 0.2296(4) 0.5352(2) 0.6383(4)
H32 H 0.2198 0.5680 0.5903
C32 C 0.3374(4) 0.5163(2) 0.6687(4)
H33 H 0.4021 0.5362 0.6418
C33 C 0.3516(4) 0.4685(2) 0.7380(3)
H34 H 0.4263 0.4565 0.7588
C34 C 0.7043(7) 0.0312(3) 0.1269(5)
H35 H 0.6604 -0.0029 0.1591
H36 H 0.7343 0.0138 0.0645
Cl1 Cl 0.8179(4) 0.0535(3) 0.2052(5)
Cl2 Cl 0.6131(3) 0.0957(2) 0.0987(3)
C35? C 0.761(2) 0.061(2) 0.1134(18)
H37? H 0.7821 0.0262 0.0679
H38? H 0.7994 0.1005 0.0913
Cl3? Cl 0.807(2) 0.0424(12) 0.2343(13)
Cl4? Cl 0.6131(17) 0.0718(12) 0.1101(17)
loop_
_geom_bond_atom_site_label_1
_geom_bond_atom_site_label_2
_geom_bond_site_symmetry_1
_geom_bond_site_symmetry_2
N1 H1 1_555 1_555
B1 C3 1_555 1_555
C1 N1 1_555 1_555
H2 C1 1_555 1_555
H3 C1 1_555 1_555
C2 C1 1_555 1_555
H4 C2 1_555 1_555
H5 C2 1_555 1_555
C3 C2 1_555 1_555
H6 C3 1_555 1_555
H7 C3 1_555 1_555
C4 B1 1_555 1_555
C5 C4 1_555 1_555
H8 C5 1_555 1_555
C6 C4 1_555 1_555
H9 C6 1_555 1_555
H10 C6 1_555 1_555
H11 C6 1_555 1_555
C7 N1 1_555 1_555
C8 C7 1_555 1_555
H12 C8 1_555 1_555
H13 C8 1_555 1_555
C9 C8 1_555 1_555
H14 C9 1_555 1_555
H15 C9 1_555 1_555
C10 C9 1_555 1_555
H16 C10 1_555 1_555
H17 C10 1_555 1_555
C11 N1 1_555 1_555
C12 C7 1_555 1_555
H18 C12 1_555 1_555
H19 C12 1_555 1_555
H20 C12 1_555 1_555
C13 C7 1_555 1_555
H21 C13 1_555 1_555
H22 C13 1_555 1_555
H23 C13 1_555 1_555
C14 C11 1_555 1_555
H24 C14 1_555 1_555
H25 C14 1_555 1_555
H26 C14 1_555 1_555
C15 C11 1_555 1_555
H27 C15 1_555 1_555
H28 C15 1_555 1_555
H29 C15 1_555 1_555
C16 B1 1_555 1_555
F1 C17 1_555 1_555
C17 C16 1_555 1_555
F2 C18 1_555 1_555
C18 C17 1_555 1_555
F3 C19 1_555 1_555
C19 C18 1_555 1_555
F4 C20 1_555 1_555
C20 C19 1_555 1_555
F5 C21 1_555 1_555
C21 C16 1_555 1_555
C22 B1 1_555 1_555
F6 C23 1_555 1_555
C23 C22 1_555 1_555
F7 C24 1_555 1_555
C24 C23 1_555 1_555
F8 C25 1_555 1_555
C25 C24 1_555 1_555
F9 C26 1_555 1_555
C26 C25 1_555 1_555
F10 C27 1_555 1_555
C27 C22 1_555 1_555
C28 C5 1_555 1_555
C29 C28 1_555 1_555
H30 C29 1_555 1_555
C30 C29 1_555 1_555
H31 C30 1_555 1_555
C31 C30 1_555 1_555
H32 C31 1_555 1_555
C32 C31 1_555 1_555
H33 C32 1_555 1_555
C33 C28 1_555 1_555
H34 C33 1_555 1_555
C34 H35 1_555 1_555
H36 C34 1_555 1_555
Cl1 C34 1_555 1_555
Cl2 C34 1_555 1_555
C10 C11 1_555 1_555
C20 C21 1_555 1_555
C26 C27 1_555 1_555
C32 C33 1_555 1_555

#END
