
#######################################################################
#
#                 Cambridge Crystallographic Data Centre
#                                CCDC 
#
#######################################################################
#
# If this CIF has been generated from an entry in the Cambridge 
# Structural Database, then it will include bibliographic, chemical, 
# crystal, experimental, refinement or atomic coordinate data resulting 
# from the CCDC's data processing and validation procedures.
#
#######################################################################

data_EDOCUX
_chemical_formula_moiety         'C13 H8 B1 Cl1 F2 N4'
_chemical_name_systematic        
2-Chloro-13,13-difluoro-13H-12\l^5^,13\l^5^-pyrido[1',2':3,4][1,3,5,2]triazaborinino[1,6-a][1,8]naphthyridine
_symmetry_cell_setting           monoclinic
_symmetry_space_group_name_H-M   'P 21/c'
_symmetry_Int_Tables_number      14
_space_group_name_Hall           '-P 2ybc'
loop_
_symmetry_equiv_pos_site_id
_symmetry_equiv_pos_as_xyz
1 x,y,z
2 -x,1/2+y,1/2-z
3 -x,-y,-z
4 x,1/2-y,1/2+z
_cell_length_a                   10.0055(14)
_cell_length_b                   10.1414(16)
_cell_length_c                   11.8497(18)
_cell_angle_alpha                90
_cell_angle_beta                 92.192(7)
_cell_angle_gamma                90
_cell_volume                     1201.51
_exptl_crystal_colour            colorless
_exptl_crystal_description       prism
_cell_formula_units_Z            4
loop_
_atom_site_label
_atom_site_type_symbol
_atom_site_fract_x
_atom_site_fract_y
_atom_site_fract_z
Cl1 Cl 0.99301(3) 1.02135(3) 0.14064(2)
F1 F 0.59688(8) 0.86401(7) 0.27538(6)
F2 F 0.74831(8) 0.71786(7) 0.35266(6)
B1 B 0.65100(15) 0.81038(14) 0.37345(11)
N1 N 0.84991(11) 0.97807(10) 0.31415(9)
N2 N 0.70687(10) 0.91998(10) 0.45503(8)
N3 N 0.55657(11) 0.87053(10) 0.60033(8)
N4 N 0.53485(10) 0.73830(10) 0.43454(8)
C1 C 0.94369(13) 1.05620(12) 0.27722(10)
C2 C 1.00551(13) 1.15973(12) 0.33569(11)
H1 H 1.0721 1.2128 0.3031
C3 C 0.96426(13) 1.18062(12) 0.44356(11)
H2 H 1.0043 1.2487 0.4884
C4 C 0.86343(12) 1.10206(12) 0.48789(10)
C5 C 0.81261(13) 1.11840(12) 0.59805(10)
H3 H 0.8491 1.1841 0.6474
C6 C 0.71307(13) 1.04060(12) 0.63166(10)
H4 H 0.6796 1.0527 0.7049
C7 C 0.65567(12) 0.93929(12) 0.55965(10)
C8 C 0.80831(12) 1.00169(11) 0.41864(10)
C9 C 0.49670(12) 0.77201(12) 0.53966(10)
C10 C 0.39057(12) 0.70215(12) 0.58676(10)
H5 H 0.3629 0.7241 0.6602
C11 C 0.32717(13) 0.60309(13) 0.52770(10)
H6 H 0.2563 0.5559 0.5603
C12 C 0.36693(13) 0.57131(13) 0.41885(10)
H7 H 0.3230 0.5036 0.3763
C13 C 0.47061(13) 0.64040(12) 0.37550(10)
H8 H 0.4987 0.6194 0.3019
loop_
_geom_bond_atom_site_label_1
_geom_bond_atom_site_label_2
_geom_bond_site_symmetry_1
_geom_bond_site_symmetry_2
Cl1 C1 1_555 1_555
F1 B1 1_555 1_555
F2 B1 1_555 1_555
B1 N2 1_555 1_555
N1 C1 1_555 1_555
N2 C7 1_555 1_555
N3 C7 1_555 1_555
N4 B1 1_555 1_555
C1 C2 1_555 1_555
C2 H1 1_555 1_555
C3 C2 1_555 1_555
H2 C3 1_555 1_555
C4 C3 1_555 1_555
C5 C4 1_555 1_555
H3 C5 1_555 1_555
C6 C5 1_555 1_555
H4 C6 1_555 1_555
C7 C6 1_555 1_555
C8 N1 1_555 1_555
C9 N3 1_555 1_555
C10 C9 1_555 1_555
H5 C10 1_555 1_555
C11 C10 1_555 1_555
H6 C11 1_555 1_555
C12 C11 1_555 1_555
H7 C12 1_555 1_555
C13 N4 1_555 1_555
H8 C13 1_555 1_555
N2 C8 1_555 1_555
N4 C9 1_555 1_555
C4 C8 1_555 1_555
C12 C13 1_555 1_555

#END
