
#######################################################################
#
#                 Cambridge Crystallographic Data Centre
#                                CCDC 
#
#######################################################################
#
# If this CIF has been generated from an entry in the Cambridge 
# Structural Database, then it will include bibliographic, chemical, 
# crystal, experimental, refinement or atomic coordinate data resulting 
# from the CCDC's data processing and validation procedures.
#
#######################################################################

data_EDOGEJ
_chemical_formula_moiety         'C32 H64 B20 Si2'
_chemical_name_systematic        
1,1'-(2,2'-(Ethene-1,2-diyl)dibenzyl)-bis(2-(t-butyldimethylsilyl)-1,2-dicarba-closo-dodecaborane(10))
_symmetry_cell_setting           monoclinic
_symmetry_space_group_name_H-M   'P 21/n'
_symmetry_Int_Tables_number      14
_space_group_name_Hall           '-P 2yn'
loop_
_symmetry_equiv_pos_site_id
_symmetry_equiv_pos_as_xyz
1 x,y,z
2 1/2+x,1/2-y,1/2+z
3 -x,-y,-z
4 1/2-x,1/2+y,1/2-z
_cell_length_a                   10.731(2)
_cell_length_b                   16.232(2)
_cell_length_c                   13.294(3)
_cell_angle_alpha                90
_cell_angle_beta                 110.64(2)
_cell_angle_gamma                90
_cell_volume                     2166.99
_exptl_crystal_colour            colorless
_exptl_crystal_description       trapezoid
_cell_formula_units_Z            2
_exptl_crystal_recrystallization_method dichloromethane/ethanol
loop_
_atom_site_label
_atom_site_type_symbol
_atom_site_fract_x
_atom_site_fract_y
_atom_site_fract_z
Si1 Si 0.12452(3) 0.20518(2) 0.26570(3)
C1 C 0.34295(11) 0.17463(8) 0.15301(9)
C2 C 0.24657(12) 0.24030(8) 0.19386(9)
B1 B 0.41680(14) 0.23455(9) 0.26509(12)
H1 H 0.4498(14) 0.2045(9) 0.3399(12)
B2 B 0.49451(14) 0.21820(9) 0.16798(12)
H2 H 0.5764(14) 0.1771(9) 0.1869(12)
B3 B 0.36559(15) 0.21125(9) 0.03965(12)
H3 H 0.3710(16) 0.1656(10) -0.0188(13)
B4 B 0.21005(14) 0.22343(9) 0.05764(11)
H4 H 0.1275(15) 0.1861(10) 0.0167(12)
B5 B 0.33348(15) 0.33121(9) 0.23675(12)
H5 H 0.3177(14) 0.3663(9) 0.3026(12)
B6 B 0.48931(15) 0.31849(10) 0.21982(13)
H6 H 0.5797(17) 0.3459(11) 0.2735(13)
B7 B 0.45689(15) 0.30431(10) 0.07918(13)
H7 H 0.5270(16) 0.3225(10) 0.0418(13)
B8 B 0.27998(15) 0.30719(9) 0.01017(12)
H8 H 0.2322(16) 0.3286(11) -0.0713(13)
B9 B 0.20473(15) 0.32400(9) 0.10849(12)
H9 H 0.1118(14) 0.3509(9) 0.0945(11)
B10 B 0.35788(16) 0.37416(10) 0.12190(13)
H10 H 0.3636(16) 0.4415(11) 0.1146(13)
C3 C 0.07887(16) 0.30294(9) 0.31766(12)
H11 H 0.013(2) 0.2907(13) 0.3500(17)
H12 H 0.158(2) 0.3279(13) 0.3702(16)
H13 H 0.0445(17) 0.3446(11) 0.2621(15)
C4 C 0.21355(13) 0.13664(9) 0.38221(10)
H14 H 0.3048(19) 0.1532(12) 0.4211(15)
H15 H 0.2162(17) 0.0783(12) 0.3629(13)
H16 H 0.1664(18) 0.1392(12) 0.4340(15)
C5 C -0.03482(13) 0.15206(9) 0.17686(11)
C6 C -0.01576(15) 0.07028(10) 0.12537(13)
H17 H -0.1041(17) 0.0467(11) 0.0893(13)
H18 H 0.0366(18) 0.0282(12) 0.1792(15)
H19 H 0.0267(17) 0.0784(11) 0.0707(13)
C7 C -0.12200(15) 0.21054(11) 0.08939(13)
H20 H -0.0829(18) 0.2226(12) 0.0314(15)
H21 H -0.208(2) 0.1852(13) 0.0578(16)
H22 H -0.1369(18) 0.2653(12) 0.1201(15)
C8 C -0.11097(16) 0.13184(13) 0.25406(14)
H23 H -0.0572(19) 0.0919(13) 0.3106(16)
H24 H -0.194(2) 0.1065(12) 0.2146(15)
H25 H -0.1319(19) 0.1832(13) 0.2880(15)
C9 C 0.32638(12) 0.08153(8) 0.16759(10)
H26 H 0.2736(14) 0.0587(9) 0.0986(12)
H27 H 0.2758(14) 0.0740(9) 0.2164(12)
C10 C 0.45643(12) 0.03469(7) 0.21576(10)
C11 C 0.51210(14) 0.02756(8) 0.32748(10)
H28 H 0.4649(16) 0.0504(10) 0.3694(13)
C12 C 0.63363(14) -0.01121(8) 0.37737(11)
H29 H 0.6706(17) -0.0141(11) 0.4552(14)
C13 C 0.70180(13) -0.04410(8) 0.31511(11)
H30 H 0.7821(16) -0.0710(10) 0.3458(12)
C14 C 0.64683(13) -0.03907(8) 0.20384(11)
H31 H 0.6908(14) -0.0643(9) 0.1604(11)
C15 C 0.52356(12) -0.00027(7) 0.15169(10)
C16 C 0.46574(12) 0.00109(8) 0.03322(10)
H32 H 0.3709(16) 0.0031(10) 0.0020(12)
C16B C 0.53426(12) -0.00109(8) -0.03322(10)
C15B C 0.47644(12) 0.00027(7) -0.15169(10)
C10B C 0.54357(12) -0.03469(7) -0.21576(10)
C9B C 0.67362(12) -0.08153(8) -0.16759(10)
C1B C 0.65705(11) -0.17463(8) -0.15301(9)
C2B C 0.75343(12) -0.24030(8) -0.19386(9)
Si1B Si 0.87548(3) -0.20518(2) -0.26570(3)
C3B C 0.92113(16) -0.30294(9) -0.31766(12)
H11B H 0.987(2) -0.2907(13) -0.3500(17)
H12B H 0.842(2) -0.3279(13) -0.3702(16)
H13B H 0.9555(17) -0.3446(11) -0.2621(15)
C4B C 0.78645(13) -0.13664(9) -0.38221(10)
H14B H 0.6952(19) -0.1532(12) -0.4211(15)
H15B H 0.7838(17) -0.0783(12) -0.3629(13)
H16B H 0.8336(18) -0.1392(12) -0.4340(15)
C5B C 1.03482(13) -0.15206(9) -0.17686(11)
C6B C 1.01576(15) -0.07028(10) -0.12537(13)
H17B H 1.1041(17) -0.0467(11) -0.0893(13)
H18B H 0.9634(18) -0.0282(12) -0.1792(15)
H19B H 0.9733(17) -0.0784(11) -0.0707(13)
C7B C 1.12200(15) -0.21054(11) -0.08939(13)
H20B H 1.0829(18) -0.2226(12) -0.0314(15)
H21B H 1.208(2) -0.1852(13) -0.0578(16)
H22B H 1.1369(18) -0.2653(12) -0.1201(15)
C8B C 1.11097(16) -0.13184(13) -0.25406(14)
H23B H 1.0572(19) -0.0919(13) -0.3106(16)
H24B H 1.194(2) -0.1065(12) -0.2146(15)
H25B H 1.1319(19) -0.1832(13) -0.2880(15)
B1B B 0.58320(14) -0.23455(9) -0.26509(12)
B2B B 0.50549(14) -0.21820(9) -0.16798(12)
H1B H 0.5502(14) -0.2045(9) -0.3399(12)
B5B B 0.66652(15) -0.33121(9) -0.23675(12)
B4B B 0.78995(14) -0.22343(9) -0.05764(11)
B3B B 0.63441(15) -0.21125(9) -0.03965(12)
H2B H 0.4236(14) -0.1771(9) -0.1869(12)
B6B B 0.51069(15) -0.31849(10) -0.21982(13)
H5B H 0.6823(14) -0.3663(9) -0.3026(12)
B9B B 0.79527(15) -0.32400(9) -0.10849(12)
H3B H 0.6290(16) -0.1656(10) 0.0188(13)
B7B B 0.54311(15) -0.30431(10) -0.07918(13)
H6B H 0.4203(17) -0.3459(11) -0.2735(13)
B10B B 0.64212(16) -0.37416(10) -0.12190(13)
H7B H 0.4730(16) -0.3225(10) -0.0418(13)
B8B B 0.72002(15) -0.30719(9) -0.01017(12)
H4B H 0.8725(15) -0.1861(10) -0.0167(12)
H8B H 0.7678(16) -0.3286(11) 0.0713(13)
H9B H 0.8882(14) -0.3509(9) -0.0945(11)
H10B H 0.6364(16) -0.4415(11) -0.1146(13)
H26B H 0.7264(14) -0.0587(9) -0.0986(12)
H27B H 0.7242(14) -0.0740(9) -0.2164(12)
C11B C 0.48790(14) -0.02756(8) -0.32748(10)
H28B H 0.5351(16) -0.0504(10) -0.3694(13)
C12B C 0.36637(14) 0.01121(8) -0.37737(11)
H29B H 0.3294(17) 0.0141(11) -0.4552(14)
C13B C 0.29820(13) 0.04410(8) -0.31511(11)
H30B H 0.2179(16) 0.0710(10) -0.3458(12)
C14B C 0.35317(13) 0.03907(8) -0.20384(11)
H31B H 0.3092(14) 0.0643(9) -0.1604(11)
H32B H 0.6291(16) -0.0031(10) -0.0020(12)
loop_
_geom_bond_atom_site_label_1
_geom_bond_atom_site_label_2
_geom_bond_site_symmetry_1
_geom_bond_site_symmetry_2
Si1 C2 1_555 1_555
C1 C2 1_555 1_555
C2 B1 1_555 1_555
B1 C1 1_555 1_555
H1 B1 1_555 1_555
B2 C1 1_555 1_555
H2 B2 1_555 1_555
B3 C1 1_555 1_555
H3 B3 1_555 1_555
B4 C1 1_555 1_555
H4 B4 1_555 1_555
B5 C2 1_555 1_555
H5 B5 1_555 1_555
B6 B1 1_555 1_555
H6 B6 1_555 1_555
B7 B2 1_555 1_555
H7 B7 1_555 1_555
B8 B3 1_555 1_555
H8 B8 1_555 1_555
B9 C2 1_555 1_555
H9 B9 1_555 1_555
B10 B5 1_555 1_555
H10 B10 1_555 1_555
C3 Si1 1_555 1_555
H11 C3 1_555 1_555
H12 C3 1_555 1_555
H13 C3 1_555 1_555
C4 Si1 1_555 1_555
H14 C4 1_555 1_555
H15 C4 1_555 1_555
H16 C4 1_555 1_555
C5 Si1 1_555 1_555
C6 C5 1_555 1_555
H17 C6 1_555 1_555
H18 C6 1_555 1_555
H19 C6 1_555 1_555
C7 C5 1_555 1_555
H20 C7 1_555 1_555
H21 C7 1_555 1_555
H22 C7 1_555 1_555
C8 C5 1_555 1_555
H23 C8 1_555 1_555
H24 C8 1_555 1_555
H25 C8 1_555 1_555
C9 C1 1_555 1_555
H26 C9 1_555 1_555
H27 C9 1_555 1_555
C10 C9 1_555 1_555
C11 C10 1_555 1_555
H28 C11 1_555 1_555
C12 C11 1_555 1_555
H29 C12 1_555 1_555
C13 C12 1_555 1_555
H30 C13 1_555 1_555
C14 C13 1_555 1_555
H31 C14 1_555 1_555
C15 C10 1_555 1_555
C16 C15 1_555 1_555
H32 C16 1_555 1_555
C16B C16 1_555 1_555
C15B C16B 1_555 1_555
C10B C15B 1_555 1_555
C9B C10B 1_555 1_555
C1B C9B 1_555 1_555
C2B C1B 1_555 1_555
Si1B C2B 1_555 1_555
C3B Si1B 1_555 1_555
H11B C3B 1_555 1_555
H12B C3B 1_555 1_555
H13B C3B 1_555 1_555
C4B Si1B 1_555 1_555
H14B C4B 1_555 1_555
H15B C4B 1_555 1_555
H16B C4B 1_555 1_555
C5B Si1B 1_555 1_555
C6B C5B 1_555 1_555
H17B C6B 1_555 1_555
H18B C6B 1_555 1_555
H19B C6B 1_555 1_555
C7B C5B 1_555 1_555
H20B C7B 1_555 1_555
H21B C7B 1_555 1_555
H22B C7B 1_555 1_555
C8B C5B 1_555 1_555
H23B C8B 1_555 1_555
H24B C8B 1_555 1_555
H25B C8B 1_555 1_555
B1B C1B 1_555 1_555
B2B C1B 1_555 1_555
H1B B1B 1_555 1_555
B5B C2B 1_555 1_555
B4B C1B 1_555 1_555
B3B C1B 1_555 1_555
H2B B2B 1_555 1_555
B6B B1B 1_555 1_555
H5B B5B 1_555 1_555
B9B C2B 1_555 1_555
H3B B3B 1_555 1_555
B7B B2B 1_555 1_555
H6B B6B 1_555 1_555
B10B B5B 1_555 1_555
H7B B7B 1_555 1_555
B8B B4B 1_555 1_555
H4B B4B 1_555 1_555
H8B B8B 1_555 1_555
H9B B9B 1_555 1_555
H10B B10B 1_555 1_555
H26B C9B 1_555 1_555
H27B C9B 1_555 1_555
C11B C10B 1_555 1_555
H28B C11B 1_555 1_555
C12B C11B 1_555 1_555
H29B C12B 1_555 1_555
C13B C12B 1_555 1_555
H30B C13B 1_555 1_555
C14B C15B 1_555 1_555
H31B C14B 1_555 1_555
H32B C16B 1_555 1_555
C2 B4 1_555 1_555
B1 B5 1_555 1_555
B1 B2 1_555 1_555
B2 B6 1_555 1_555
B2 B3 1_555 1_555
B3 B4 1_555 1_555
B3 B7 1_555 1_555
B4 B9 1_555 1_555
B4 B8 1_555 1_555
B5 B6 1_555 1_555
B5 B9 1_555 1_555
B6 B10 1_555 1_555
B6 B7 1_555 1_555
B7 B10 1_555 1_555
B7 B8 1_555 1_555
B8 B9 1_555 1_555
B8 B10 1_555 1_555
B9 B10 1_555 1_555
C14 C15 1_555 1_555
C2B B1B 1_555 1_555
C2B B4B 1_555 1_555
B1B B5B 1_555 1_555
B1B B2B 1_555 1_555
B2B B6B 1_555 1_555
B2B B3B 1_555 1_555
B5B B9B 1_555 1_555
B5B B6B 1_555 1_555
B4B B9B 1_555 1_555
B4B B3B 1_555 1_555
B3B B7B 1_555 1_555
B3B B8B 1_555 1_555
B6B B10B 1_555 1_555
B6B B7B 1_555 1_555
B9B B8B 1_555 1_555
B9B B10B 1_555 1_555
B7B B8B 1_555 1_555
B7B B10B 1_555 1_555
B10B B8B 1_555 1_555
C13B C14B 1_555 1_555

#END
