
#######################################################################
#
#                 Cambridge Crystallographic Data Centre
#                                CCDC 
#
#######################################################################
#
# If this CIF has been generated from an entry in the Cambridge 
# Structural Database, then it will include bibliographic, chemical, 
# crystal, experimental, refinement or atomic coordinate data resulting 
# from the CCDC's data processing and validation procedures.
#
#######################################################################

data_EDOGIN
_chemical_name_common            Dihydronaphthocarborane
_chemical_formula_moiety         'C10 H18 B10'
_chemical_name_systematic        
1,2-(o-Xylylene)-1,2-dicarba-closo-dodecaborane(10)
_symmetry_cell_setting           monoclinic
_symmetry_space_group_name_H-M   'P 21/c'
_symmetry_Int_Tables_number      14
_space_group_name_Hall           '-P 2ybc'
loop_
_symmetry_equiv_pos_site_id
_symmetry_equiv_pos_as_xyz
1 x,y,z
2 -x,1/2+y,1/2-z
3 -x,-y,-z
4 x,1/2-y,1/2+z
_cell_length_a                   7.215(1)
_cell_length_b                   20.620(3)
_cell_length_c                   9.268(1)
_cell_angle_alpha                90
_cell_angle_beta                 90.48(1)
_cell_angle_gamma                90
_cell_volume                     1378.78
_exptl_crystal_colour            colorless
_exptl_crystal_description       prism
_cell_formula_units_Z            4
_exptl_crystal_recrystallization_method dichloromethane/methanol
loop_
_atom_site_label
_atom_site_type_symbol
_atom_site_fract_x
_atom_site_fract_y
_atom_site_fract_z
C1 C 0.19592(19) 0.66112(6) 0.66836(14)
C2 C 0.30481(19) 0.60267(6) 0.58207(15)
B1 B 0.1283(2) 0.58181(8) 0.69844(17)
H1 H -0.001(2) 0.5654(8) 0.6495(17)
B2 B 0.1475(2) 0.63857(8) 0.84235(17)
H2 H 0.019(2) 0.6571(8) 0.8863(17)
B3 B 0.3323(2) 0.69283(8) 0.80260(17)
H3 H 0.318(2) 0.7442(9) 0.8219(18)
B4 B 0.4296(2) 0.67019(8) 0.63539(18)
H4 H 0.461(2) 0.7044(8) 0.5534(17)
B5 B 0.3375(2) 0.53649(8) 0.69213(18)
H5 H 0.328(2) 0.4895(8) 0.6405(18)
B6 B 0.2411(2) 0.55904(8) 0.86119(18)
H6 H 0.175(2) 0.5234(8) 0.9326(18)
B7 B 0.3680(2) 0.62798(8) 0.92673(18)
H7 H 0.389(2) 0.6376(8) 1.041(2)
B8 B 0.5424(2) 0.64726(8) 0.79704(19)
H8 H 0.676(2) 0.6689(8) 0.8242(19)
B9 B 0.5225(2) 0.59105(8) 0.65244(18)
H9 H 0.629(2) 0.5773(8) 0.5788(19)
B10 B 0.4864(2) 0.56437(8) 0.83264(18)
H10 H 0.585(2) 0.5318(8) 0.8890(18)
C3 C 0.0643(2) 0.70379(7) 0.58171(16)
H11 H -0.042(2) 0.7131(8) 0.6441(18)
H12 H 0.130(2) 0.7445(8) 0.5582(18)
C4 C -0.0079(2) 0.67384(7) 0.44260(15)
C5 C -0.1749(2) 0.69815(7) 0.38588(16)
H13 H -0.240(2) 0.7315(8) 0.4379(18)
C6 C -0.2488(2) 0.67436(7) 0.25755(16)
H14 H -0.365(3) 0.6926(9) 0.220(2)
C7 C -0.1578(2) 0.62517(8) 0.18459(17)
H15 H -0.209(2) 0.6073(8) 0.0954(19)
C8 C 0.0074(2) 0.60050(7) 0.23972(16)
H16 H 0.074(2) 0.5656(8) 0.1905(18)
C9 C 0.08431(19) 0.62451(7) 0.36877(15)
C10 C 0.2666(2) 0.59581(7) 0.42033(15)
H17 H 0.367(2) 0.6168(8) 0.3695(18)
H18 H 0.273(2) 0.5482(9) 0.3979(18)
loop_
_geom_bond_atom_site_label_1
_geom_bond_atom_site_label_2
_geom_bond_site_symmetry_1
_geom_bond_site_symmetry_2
C1 C2 1_555 1_555
C2 B1 1_555 1_555
B1 C1 1_555 1_555
H1 B1 1_555 1_555
B2 C1 1_555 1_555
H2 B2 1_555 1_555
B3 C1 1_555 1_555
H3 B3 1_555 1_555
B4 C1 1_555 1_555
H4 B4 1_555 1_555
B5 C2 1_555 1_555
H5 B5 1_555 1_555
B6 B1 1_555 1_555
H6 B6 1_555 1_555
B7 B2 1_555 1_555
H7 B7 1_555 1_555
B8 B3 1_555 1_555
H8 B8 1_555 1_555
B9 C2 1_555 1_555
H9 B9 1_555 1_555
B10 B5 1_555 1_555
H10 B10 1_555 1_555
C3 C1 1_555 1_555
H11 C3 1_555 1_555
H12 C3 1_555 1_555
C4 C3 1_555 1_555
C5 C4 1_555 1_555
H13 C5 1_555 1_555
C6 C5 1_555 1_555
H14 C6 1_555 1_555
C7 C6 1_555 1_555
H15 C7 1_555 1_555
C8 C7 1_555 1_555
H16 C8 1_555 1_555
C9 C4 1_555 1_555
C10 C2 1_555 1_555
H17 C10 1_555 1_555
H18 C10 1_555 1_555
C2 B4 1_555 1_555
B1 B2 1_555 1_555
B1 B5 1_555 1_555
B2 B3 1_555 1_555
B2 B6 1_555 1_555
B3 B4 1_555 1_555
B3 B7 1_555 1_555
B4 B8 1_555 1_555
B4 B9 1_555 1_555
B5 B6 1_555 1_555
B5 B9 1_555 1_555
B6 B7 1_555 1_555
B6 B10 1_555 1_555
B7 B8 1_555 1_555
B7 B10 1_555 1_555
B8 B9 1_555 1_555
B8 B10 1_555 1_555
B9 B10 1_555 1_555
C8 C9 1_555 1_555
C9 C10 1_555 1_555

#END
