
#######################################################################
#
#                 Cambridge Crystallographic Data Centre
#                                CCDC 
#
#######################################################################
#
# If this CIF has been generated from an entry in the Cambridge 
# Structural Database, then it will include bibliographic, chemical, 
# crystal, experimental, refinement or atomic coordinate data resulting 
# from the CCDC's data processing and validation procedures.
#
#######################################################################

data_EDOGAF
_chemical_formula_moiety         'C32 H66 B20 Si2'
_chemical_name_systematic        
1,1'-(2,2'-(Ethane-1,2-diyl)dibenzyl)-bis(2-(t-butyldimethylsilyl)-1,2-dicarba-closo-dodecaborane(10))
_symmetry_cell_setting           monoclinic
_symmetry_space_group_name_H-M   'P 21/n'
_symmetry_Int_Tables_number      14
_space_group_name_Hall           '-P 2yn'
loop_
_symmetry_equiv_pos_site_id
_symmetry_equiv_pos_as_xyz
1 x,y,z
2 1/2+x,1/2-y,1/2+z
3 -x,-y,-z
4 1/2-x,1/2+y,1/2-z
_cell_length_a                   9.329(1)
_cell_length_b                   13.502(2)
_cell_length_c                   18.097(2)
_cell_angle_alpha                90
_cell_angle_beta                 104.505(5)
_cell_angle_gamma                90
_cell_volume                     2206.84
_exptl_crystal_colour            colorless
_exptl_crystal_description       'rectangular prism'
_cell_formula_units_Z            2
_exptl_crystal_recrystallization_method dichloromethane/ethanol
loop_
_atom_site_label
_atom_site_type_symbol
_atom_site_fract_x
_atom_site_fract_y
_atom_site_fract_z
C1 C 0.60575(16) 0.22770(11) 0.16793(8)
C2 C 0.49321(16) 0.27424(11) 0.21976(8)
B1 B 0.54146(19) 0.14905(13) 0.22761(10)
H1 H 0.458(2) 0.0957(14) 0.2021(10)
B2 B 0.72809(19) 0.14235(13) 0.21970(10)
H2 H 0.757(2) 0.0818(14) 0.1883(10)
B3 B 0.78573(19) 0.26522(13) 0.20505(10)
H3 H 0.853(2) 0.2781(14) 0.1660(10)
B4 B 0.63569(19) 0.34701(13) 0.20339(9)
H4 H 0.6080(19) 0.4053(13) 0.1624(10)
B5 B 0.5398(2) 0.22040(13) 0.30965(9)
H5 H 0.452(2) 0.2065(14) 0.3374(11)
B6 B 0.6888(2) 0.13785(14) 0.31103(10)
H6 H 0.7023(19) 0.0697(13) 0.3437(10)
B7 B 0.8407(2) 0.21070(13) 0.29749(10)
H7 H 0.959(2) 0.1915(14) 0.3239(11)
B8 B 0.78306(19) 0.33784(13) 0.28680(10)
H8 H 0.858(2) 0.4008(14) 0.3029(10)
B9 B 0.59709(19) 0.34317(13) 0.29485(9)
H9 H 0.5442(19) 0.4077(13) 0.3135(10)
B10 B 0.7242(2) 0.25895(14) 0.35311(10)
H10 H 0.758(2) 0.2702(14) 0.4150(11)
C3 C 0.53763(18) 0.21588(12) 0.08108(8)
H11 H 0.4935(19) 0.2809(13) 0.0616(10)
H12 H 0.459(2) 0.1681(14) 0.0754(10)
C4 C 0.64894(17) 0.18605(11) 0.03674(8)
C5 C 0.73265(19) 0.26036(13) 0.01314(9)
H13 H 0.716(2) 0.3295(16) 0.0256(11)
C6 C 0.8406(2) 0.23713(15) -0.02430(9)
H14 H 0.897(3) 0.2879(17) -0.0402(12)
C7 C 0.8672(2) 0.13940(16) -0.03889(9)
H15 H 0.942(2) 0.1203(16) -0.0619(12)
C8 C 0.78205(19) 0.06488(14) -0.01817(9)
H16 H 0.796(2) -0.0026(16) -0.0294(11)
C9 C 0.67006(17) 0.08684(12) 0.01877(8)
C10 C 0.57086(18) 0.00428(12) 0.03302(8)
H17 H 0.627(2) -0.0572(15) 0.0392(11)
H18 H 0.545(2) 0.0147(14) 0.0804(11)
Si1 Si 0.28498(5) 0.31017(3) 0.17833(2)
C11 C 0.2068(2) 0.31835(16) 0.26348(10)
H19 H 0.263(2) 0.3636(17) 0.3035(13)
H20 H 0.207(3) 0.2542(19) 0.2861(14)
H21 H 0.107(3) 0.3450(18) 0.2480(13)
C12 C 0.18811(19) 0.20835(13) 0.11495(11)
H22 H 0.082(3) 0.2167(17) 0.1078(13)
H23 H 0.221(3) 0.1447(17) 0.1343(12)
H24 H 0.203(2) 0.2042(15) 0.0626(13)
C13 C 0.25155(18) 0.43438(12) 0.12616(9)
C14 C 0.3218(2) 0.52147(13) 0.17795(12)
H25 H 0.432(2) 0.5194(15) 0.1937(11)
H26 H 0.293(2) 0.5212(16) 0.2269(13)
H27 H 0.292(2) 0.5862(16) 0.1488(11)
C15 C 0.3013(2) 0.43881(14) 0.05117(11)
H28 H 0.262(2) 0.3808(17) 0.0160(12)
H29 H 0.412(2) 0.4409(15) 0.0574(11)
H30 H 0.264(3) 0.4967(18) 0.0223(13)
C16 C 0.0810(2) 0.44930(14) 0.10572(12)
H31 H 0.059(2) 0.5087(17) 0.0792(12)
H32 H 0.025(2) 0.3954(17) 0.0703(12)
H33 H 0.043(2) 0.4516(16) 0.1519(13)
C10B C 0.42914(18) -0.00428(12) -0.03302(8)
C9B C 0.32994(17) -0.08684(12) -0.01877(8)
C4B C 0.35106(17) -0.18605(11) -0.03674(8)
C3B C 0.46237(18) -0.21588(12) -0.08108(8)
C1B C 0.39425(16) -0.22770(11) -0.16793(8)
C2B C 0.50679(16) -0.27424(11) -0.21976(8)
B1B B 0.45854(19) -0.14905(13) -0.22761(10)
B2B B 0.27191(19) -0.14235(13) -0.21970(10)
H1B H 0.542(2) -0.0957(14) -0.2021(10)
B5B B 0.4602(2) -0.22040(13) -0.30965(9)
B4B B 0.36431(19) -0.34701(13) -0.20339(9)
B3B B 0.21427(19) -0.26522(13) -0.20505(10)
H2B H 0.243(2) -0.0818(14) -0.1883(10)
B6B B 0.3112(2) -0.13785(14) -0.31103(10)
H5B H 0.548(2) -0.2065(14) -0.3374(11)
B9B B 0.40291(19) -0.34317(13) -0.29485(9)
Si1B Si 0.71502(5) -0.31017(3) -0.17833(2)
C11B C 0.7932(2) -0.31835(16) -0.26348(10)
H19B H 0.737(2) -0.3636(17) -0.3035(13)
H20B H 0.793(3) -0.2542(19) -0.2861(14)
H21B H 0.893(3) -0.3450(18) -0.2480(13)
C12B C 0.81189(19) -0.20835(13) -0.11495(11)
H22B H 0.918(3) -0.2167(17) -0.1078(13)
H23B H 0.779(3) -0.1447(17) -0.1343(12)
H24B H 0.797(2) -0.2042(15) -0.0626(13)
C13B C 0.74845(18) -0.43438(12) -0.12616(9)
C14B C 0.6782(2) -0.52147(13) -0.17795(12)
H25B H 0.568(2) -0.5194(15) -0.1937(11)
H26B H 0.707(2) -0.5212(16) -0.2269(13)
H27B H 0.708(2) -0.5862(16) -0.1488(11)
C15B C 0.6987(2) -0.43881(14) -0.05117(11)
H28B H 0.738(2) -0.3808(17) -0.0160(12)
H29B H 0.588(2) -0.4409(15) -0.0574(11)
H30B H 0.736(3) -0.4967(18) -0.0223(13)
C16B C 0.9190(2) -0.44930(14) -0.10572(12)
H31B H 0.941(2) -0.5087(17) -0.0792(12)
H32B H 0.975(2) -0.3954(17) -0.0703(12)
H33B H 0.957(2) -0.4516(16) -0.1519(13)
H3B H 0.147(2) -0.2781(14) -0.1660(10)
B7B B 0.1593(2) -0.21070(13) -0.29749(10)
H6B H 0.2977(19) -0.0697(13) -0.3437(10)
B10B B 0.2758(2) -0.25895(14) -0.35311(10)
H7B H 0.041(2) -0.1915(14) -0.3239(11)
B8B B 0.21694(19) -0.33784(13) -0.28680(10)
H4B H 0.3920(19) -0.4053(13) -0.1624(10)
H8B H 0.142(2) -0.4008(14) -0.3029(10)
H9B H 0.4558(19) -0.4077(13) -0.3135(10)
H10B H 0.242(2) -0.2702(14) -0.4150(11)
H11B H 0.5065(19) -0.2809(13) -0.0616(10)
H12B H 0.541(2) -0.1681(14) -0.0754(10)
C5B C 0.26735(19) -0.26036(13) -0.01314(9)
H13B H 0.284(2) -0.3295(16) -0.0256(11)
C6B C 0.1594(2) -0.23713(15) 0.02430(9)
H14B H 0.103(3) -0.2879(17) 0.0402(12)
C7B C 0.1328(2) -0.13940(16) 0.03889(9)
H15B H 0.058(2) -0.1203(16) 0.0619(12)
C8B C 0.21795(19) -0.06488(14) 0.01817(9)
H16B H 0.204(2) 0.0026(16) 0.0294(11)
H17B H 0.373(2) 0.0572(15) -0.0392(11)
H18B H 0.455(2) -0.0147(14) -0.0804(11)
loop_
_geom_bond_atom_site_label_1
_geom_bond_atom_site_label_2
_geom_bond_site_symmetry_1
_geom_bond_site_symmetry_2
C1 C2 1_555 1_555
C2 B1 1_555 1_555
B1 C1 1_555 1_555
H1 B1 1_555 1_555
B2 C1 1_555 1_555
H2 B2 1_555 1_555
B3 C1 1_555 1_555
H3 B3 1_555 1_555
B4 C1 1_555 1_555
H4 B4 1_555 1_555
B5 C2 1_555 1_555
H5 B5 1_555 1_555
B6 B1 1_555 1_555
H6 B6 1_555 1_555
B7 B2 1_555 1_555
H7 B7 1_555 1_555
B8 B3 1_555 1_555
H8 B8 1_555 1_555
B9 C2 1_555 1_555
H9 B9 1_555 1_555
B10 B5 1_555 1_555
H10 B10 1_555 1_555
C3 C1 1_555 1_555
H11 C3 1_555 1_555
H12 C3 1_555 1_555
C4 C3 1_555 1_555
C5 C4 1_555 1_555
H13 C5 1_555 1_555
C6 C5 1_555 1_555
H14 C6 1_555 1_555
C7 C6 1_555 1_555
H15 C7 1_555 1_555
C8 C7 1_555 1_555
H16 C8 1_555 1_555
C9 C4 1_555 1_555
C10 C9 1_555 1_555
H17 C10 1_555 1_555
H18 C10 1_555 1_555
Si1 C2 1_555 1_555
C11 Si1 1_555 1_555
H19 C11 1_555 1_555
H20 C11 1_555 1_555
H21 C11 1_555 1_555
C12 Si1 1_555 1_555
H22 C12 1_555 1_555
H23 C12 1_555 1_555
H24 C12 1_555 1_555
C13 Si1 1_555 1_555
C14 C13 1_555 1_555
H25 C14 1_555 1_555
H26 C14 1_555 1_555
H27 C14 1_555 1_555
C15 C13 1_555 1_555
H28 C15 1_555 1_555
H29 C15 1_555 1_555
H30 C15 1_555 1_555
C16 C13 1_555 1_555
H31 C16 1_555 1_555
H32 C16 1_555 1_555
H33 C16 1_555 1_555
C10B C10 1_555 1_555
C9B C10B 1_555 1_555
C4B C9B 1_555 1_555
C3B C4B 1_555 1_555
C1B C3B 1_555 1_555
C2B C1B 1_555 1_555
B1B C1B 1_555 1_555
B2B C1B 1_555 1_555
H1B B1B 1_555 1_555
B5B C2B 1_555 1_555
B4B C1B 1_555 1_555
B3B C1B 1_555 1_555
H2B B2B 1_555 1_555
B6B B1B 1_555 1_555
H5B B5B 1_555 1_555
B9B C2B 1_555 1_555
Si1B C2B 1_555 1_555
C11B Si1B 1_555 1_555
H19B C11B 1_555 1_555
H20B C11B 1_555 1_555
H21B C11B 1_555 1_555
C12B Si1B 1_555 1_555
H22B C12B 1_555 1_555
H23B C12B 1_555 1_555
H24B C12B 1_555 1_555
C13B Si1B 1_555 1_555
C14B C13B 1_555 1_555
H25B C14B 1_555 1_555
H26B C14B 1_555 1_555
H27B C14B 1_555 1_555
C15B C13B 1_555 1_555
H28B C15B 1_555 1_555
H29B C15B 1_555 1_555
H30B C15B 1_555 1_555
C16B C13B 1_555 1_555
H31B C16B 1_555 1_555
H32B C16B 1_555 1_555
H33B C16B 1_555 1_555
H3B B3B 1_555 1_555
B7B B2B 1_555 1_555
H6B B6B 1_555 1_555
B10B B5B 1_555 1_555
H7B B7B 1_555 1_555
B8B B4B 1_555 1_555
H4B B4B 1_555 1_555
H8B B8B 1_555 1_555
H9B B9B 1_555 1_555
H10B B10B 1_555 1_555
H11B C3B 1_555 1_555
H12B C3B 1_555 1_555
C5B C4B 1_555 1_555
H13B C5B 1_555 1_555
C6B C5B 1_555 1_555
H14B C6B 1_555 1_555
C7B C6B 1_555 1_555
H15B C7B 1_555 1_555
C8B C9B 1_555 1_555
H16B C8B 1_555 1_555
H17B C10B 1_555 1_555
H18B C10B 1_555 1_555
C2 B4 1_555 1_555
B1 B5 1_555 1_555
B1 B2 1_555 1_555
B2 B6 1_555 1_555
B2 B3 1_555 1_555
B3 B7 1_555 1_555
B3 B4 1_555 1_555
B4 B9 1_555 1_555
B4 B8 1_555 1_555
B5 B9 1_555 1_555
B5 B6 1_555 1_555
B6 B10 1_555 1_555
B6 B7 1_555 1_555
B7 B8 1_555 1_555
B7 B10 1_555 1_555
B8 B9 1_555 1_555
B8 B10 1_555 1_555
B9 B10 1_555 1_555
C8 C9 1_555 1_555
C2B B1B 1_555 1_555
C2B B4B 1_555 1_555
B1B B5B 1_555 1_555
B1B B2B 1_555 1_555
B2B B6B 1_555 1_555
B2B B3B 1_555 1_555
B5B B9B 1_555 1_555
B5B B6B 1_555 1_555
B4B B9B 1_555 1_555
B4B B3B 1_555 1_555
B3B B7B 1_555 1_555
B3B B8B 1_555 1_555
B6B B10B 1_555 1_555
B6B B7B 1_555 1_555
B9B B8B 1_555 1_555
B9B B10B 1_555 1_555
B7B B8B 1_555 1_555
B7B B10B 1_555 1_555
B10B B8B 1_555 1_555
C7B C8B 1_555 1_555

#END
