
#######################################################################
#
#                 Cambridge Crystallographic Data Centre
#                                CCDC 
#
#######################################################################
#
# If this CIF has been generated from an entry in the Cambridge 
# Structural Database, then it will include bibliographic, chemical, 
# crystal, experimental, refinement or atomic coordinate data resulting 
# from the CCDC's data processing and validation procedures.
#
#######################################################################

data_EDOSUO
_chemical_formula_moiety         'C37 H30 B1 F2 N5 O4,C1 H1 Cl3'
_chemical_name_systematic        
'difluoro[9-({5-[2-(4-nitrophenyl)ethenyl]-1H-pyrrol-2-yl}{5-[2-(4-nitrophenyl)ethenyl]-2H-pyrrol-2-ylidene}methyl)-2,3,6,7-tetrahydro-1H,5H-pyrido[3,2,1-ij]quinolinato]boron chloroform solvate'
_symmetry_cell_setting           triclinic
_symmetry_space_group_name_H-M   'P -1'
_symmetry_Int_Tables_number      2
_space_group_name_Hall           '-P 1'
loop_
_symmetry_equiv_pos_site_id
_symmetry_equiv_pos_as_xyz
1 x,y,z
2 -x,-y,-z
_cell_length_a                   10.9538(5)
_cell_length_b                   11.9070(6)
_cell_length_c                   15.6721(5)
_cell_angle_alpha                75.555(4)
_cell_angle_beta                 88.275(3)
_cell_angle_gamma                63.673(5)
_cell_volume                     1766.48
_exptl_crystal_colour            red
_exptl_crystal_description       plate
_cell_formula_units_Z            2
loop_
_atom_site_label
_atom_site_type_symbol
_atom_site_fract_x
_atom_site_fract_y
_atom_site_fract_z
F1 F 0.36142(11) 0.33900(11) 0.69107(7)
F2 F 0.26355(11) 0.24188(11) 0.62972(7)
O1 O 0.17075(14) 0.95057(13) 0.11720(8)
O2 O 0.36722(14) 0.78006(14) 0.14920(10)
O3 O 1.23425(14) -0.31582(15) 0.67562(10)
O4 O 1.13041(15) -0.16246(16) 0.55719(10)
N1 N 0.11756(15) 0.41192(14) 0.69490(9)
N2 N 0.28400(14) 0.19654(14) 0.78889(9)
N3 N 0.25067(16) 0.84432(16) 0.16582(10)
N4 N 1.13061(16) -0.22331(17) 0.63316(11)
N5 N -0.32009(15) 0.39843(15) 1.09748(10)
C1 C -0.10103(18) 0.52236(18) 0.72415(12)
H1 H -0.1811 0.5463 0.7524
C2 C -0.08572(19) 0.58503(18) 0.64173(12)
H2 H -0.1532 0.6595 0.6040
C3 C 0.05136(18) 0.51605(18) 0.62426(11)
C4 C 0.40297(18) 0.08713(17) 0.82271(12)
C5 C 0.38836(18) 0.03083(18) 0.90992(12)
H3 H 0.4540 -0.0450 0.9476
C6 C 0.25968(18) 0.10763(17) 0.92979(12)
H4 H 0.2230 0.0937 0.9835
C7 C 0.06340(18) 0.31986(17) 0.83961(11)
C8 C 0.19343(18) 0.21136(17) 0.85397(11)
C9 C 0.02610(18) 0.41498(17) 0.75877(11)
C10 C 0.11813(19) 0.54733(18) 0.54794(12)
H5 H 0.2105 0.4939 0.5462
C11 C 0.05163(19) 0.65106(19) 0.47929(12)
H6 H -0.0415 0.6994 0.4824
C12 C 0.10801(19) 0.69703(18) 0.40037(12)
C13 C 0.01916(19) 0.80621(19) 0.33573(12)
H7 H -0.0732 0.8468 0.3441
C14 C 0.0654(2) 0.85512(19) 0.25971(12)
H8 H 0.0053 0.9285 0.2173
C15 C 0.20203(19) 0.79379(18) 0.24747(12)
C16 C 0.2941(2) 0.6857(2) 0.30964(14)
H9 H 0.3862 0.6458 0.3004
C17 C 0.2464(2) 0.6382(2) 0.38579(14)
H10 H 0.3075 0.5655 0.4283
C18 C 0.51944(18) 0.04507(18) 0.77191(12)
H11 H 0.5094 0.0905 0.7129
C19 C 0.64107(19) -0.05553(18) 0.80480(12)
H12 H 0.6482 -0.1015 0.8634
C20 C 0.76362(18) -0.10024(18) 0.75780(12)
C21 C 0.88606(19) -0.20093(18) 0.80393(13)
H13 H 0.8868 -0.2396 0.8634
C22 C 1.00547(19) -0.24407(18) 0.76335(13)
H14 H 1.0857 -0.3124 0.7943
C23 C 1.00308(18) -0.18319(18) 0.67534(12)
C24 C 0.8849(2) -0.0834(2) 0.62708(13)
H15 H 0.8857 -0.0437 0.5680
C25 C 0.7659(2) -0.0442(2) 0.66813(13)
H16 H 0.6852 0.0211 0.6357
C26 C -0.03245(18) 0.33738(17) 0.90813(11)
C27 C -0.10209(17) 0.45793(17) 0.92700(11)
H17 H -0.0836 0.5256 0.8966
C28 C -0.19706(17) 0.48129(17) 0.98860(11)
C29 C -0.22811(17) 0.37941(17) 1.03443(11)
C30 C -0.15781(18) 0.25609(17) 1.01697(11)
C31 C -0.06161(18) 0.23732(17) 0.95631(11)
H18 H -0.0142 0.1551 0.9470
C32 C -0.26896(18) 0.61352(18) 1.00627(12)
H19 H -0.3435 0.6707 0.9606
H20 H -0.2053 0.6503 1.0037
C33 C -0.32499(19) 0.60585(18) 1.09617(13)
H21 H -0.2500 0.5650 1.1423
H22 H -0.3837 0.6928 1.1014
C34 C -0.40535(19) 0.52851(18) 1.10789(13)
H23 H -0.4381 0.5221 1.1663
H24 H -0.4842 0.5728 1.0644
C35 C -0.1921(2) 0.14742(19) 1.06287(12)
H25 H -0.1100 0.0653 1.0734
H26 H -0.2580 0.1445 1.0246
C36 C -0.2505(2) 0.16487(19) 1.14996(12)
H27 H -0.1793 0.1507 1.1926
H28 H -0.2846 0.1018 1.1730
C37 C -0.3656(2) 0.30081(19) 1.13639(13)
H29 H -0.4399 0.3117 1.0979
H30 H -0.3998 0.3128 1.1929
B1 B 0.2613(2) 0.2969(2) 0.69852(13)
Cl1 Cl 0.4338(4) 0.2413(3) 0.3142(2)
Cl2 Cl 0.6554(6) 0.0216(4) 0.4258(3)
Cl3 Cl 0.4703(5) 0.2334(4) 0.4954(3)
C38 C 0.5552(10) 0.1876(8) 0.4035(5)
H31 H 0.6144 0.2304 0.3878
Cl4? Cl 0.4381(6) 0.2875(7) 0.3225(4)
Cl5? Cl 0.6353(13) 0.0347(10) 0.4188(8)
Cl6? Cl 0.4657(7) 0.2256(11) 0.5073(5)
C39? C 0.5566(18) 0.1970(15) 0.4148(9)
H32? H 0.6259 0.2283 0.4125
Cl7? Cl 0.4512(8) 0.3635(8) 0.3294(5)
Cl8? Cl 0.6120(17) 0.0882(10) 0.3900(10)
Cl9? Cl 0.5036(15) 0.2466(19) 0.5144(8)
C40? C 0.5600(19) 0.2357(14) 0.4136(10)
H33? H 0.6432 0.2472 0.4142
loop_
_geom_bond_atom_site_label_1
_geom_bond_atom_site_label_2
_geom_bond_site_symmetry_1
_geom_bond_site_symmetry_2
F1 B1 1_555 1_555
F2 B1 1_555 1_555
O1 N3 1_555 1_555
O2 N3 1_555 1_555
O3 N4 1_555 1_555
O4 N4 1_555 1_555
N1 C3 1_555 1_555
N2 C4 1_555 1_555
N3 C15 1_555 1_555
N4 C23 1_555 1_555
N5 C29 1_555 1_555
C1 H1 1_555 1_555
C2 C1 1_555 1_555
H2 C2 1_555 1_555
C3 C2 1_555 1_555
C4 C5 1_555 1_555
C5 H3 1_555 1_555
C6 C5 1_555 1_555
H4 C6 1_555 1_555
C7 C8 1_555 1_555
C8 N2 1_555 1_555
C9 N1 1_555 1_555
C10 C3 1_555 1_555
H5 C10 1_555 1_555
C11 C10 1_555 1_555
H6 C11 1_555 1_555
C12 C11 1_555 1_555
C13 C12 1_555 1_555
H7 C13 1_555 1_555
C14 C13 1_555 1_555
H8 C14 1_555 1_555
C15 C14 1_555 1_555
C16 C15 1_555 1_555
H9 C16 1_555 1_555
C17 C12 1_555 1_555
H10 C17 1_555 1_555
C18 C4 1_555 1_555
H11 C18 1_555 1_555
C19 C18 1_555 1_555
H12 C19 1_555 1_555
C20 C19 1_555 1_555
C21 C20 1_555 1_555
H13 C21 1_555 1_555
C22 C21 1_555 1_555
H14 C22 1_555 1_555
C23 C22 1_555 1_555
C24 C23 1_555 1_555
H15 C24 1_555 1_555
C25 C20 1_555 1_555
H16 C25 1_555 1_555
C26 C7 1_555 1_555
C27 C26 1_555 1_555
H17 C27 1_555 1_555
C28 C27 1_555 1_555
C29 C28 1_555 1_555
C30 C29 1_555 1_555
C31 C26 1_555 1_555
H18 C31 1_555 1_555
C32 C28 1_555 1_555
H19 C32 1_555 1_555
H20 C32 1_555 1_555
C33 C32 1_555 1_555
H21 C33 1_555 1_555
H22 C33 1_555 1_555
C34 N5 1_555 1_555
H23 C34 1_555 1_555
H24 C34 1_555 1_555
C35 C30 1_555 1_555
H25 C35 1_555 1_555
H26 C35 1_555 1_555
C36 C35 1_555 1_555
H27 C36 1_555 1_555
H28 C36 1_555 1_555
C37 N5 1_555 1_555
H29 C37 1_555 1_555
H30 C37 1_555 1_555
B1 N1 1_555 1_555
Cl1 C38 1_555 1_555
Cl2 C38 1_555 1_555
Cl3 C38 1_555 1_555
C38 H31 1_555 1_555
N2 B1 1_555 1_555
C1 C9 1_555 1_555
C6 C8 1_555 1_555
C7 C9 1_555 1_555
C16 C17 1_555 1_555
C24 C25 1_555 1_555
C30 C31 1_555 1_555
C33 C34 1_555 1_555
C36 C37 1_555 1_555

#END
