
#######################################################################
#
#                 Cambridge Crystallographic Data Centre
#                                CCDC 
#
#######################################################################
#
# If this CIF has been generated from an entry in the Cambridge 
# Structural Database, then it will include bibliographic, chemical, 
# crystal, experimental, refinement or atomic coordinate data resulting 
# from the CCDC's data processing and validation procedures.
#
#######################################################################

data_EDOSUN
_chemical_formula_moiety         
'C100 H124 Li2 N8 O18 2+,2(Cl1 1-),1.72(C4 H10 O1)'
_chemical_name_systematic        
'bis(\m~2~-4,9,9,14,48,48-hexamethyl-20,23,26,29,32,35,38,41-octaoxa-53,54,55,56-tetraazanonacyclo[15.14.10.9^4,14^.1^3,30^.1^5,8^.1^10,13^.1^15,19^.1^44,47^.1^49,52^]hexapentaconta-1,3(42),5,7,10,12,15(43),16,18,30,44,46,49,51-tetradecaene)-diaqua-di-lithium dichloride diethyl ether solvate'
_symmetry_cell_setting           monoclinic
_symmetry_space_group_name_H-M   'P 21/n'
_symmetry_Int_Tables_number      14
_space_group_name_Hall           '-P 2yn'
loop_
_symmetry_equiv_pos_site_id
_symmetry_equiv_pos_as_xyz
1 x,y,z
2 1/2-x,1/2+y,1/2-z
3 -x,-y,-z
4 1/2+x,1/2-y,1/2+z
_cell_length_a                   13.3129(13)
_cell_length_b                   25.607(3)
_cell_length_c                   15.7279(16)
_cell_angle_alpha                90
_cell_angle_beta                 100.024(2)
_cell_angle_gamma                90
_cell_volume                     5279.85
_exptl_crystal_colour            colorless
_exptl_crystal_description       prism
_cell_formula_units_Z            2
loop_
_atom_site_label
_atom_site_type_symbol
_atom_site_fract_x
_atom_site_fract_y
_atom_site_fract_z
C1 C 0.2637(2) 0.80660(11) 0.34952(17)
C2 C 0.2327(2) 0.76809(12) 0.39936(18)
H1 H 0.2532 0.7642 0.4593
C3 C 0.1643(2) 0.73507(11) 0.34502(18)
H2 H 0.1306 0.7058 0.3626
C4 C 0.1562(2) 0.75316(10) 0.26293(17)
C5 C 0.0929(2) 0.73446(10) 0.17835(17)
C6 C 0.0129(2) 0.69497(11) 0.1988(2)
H3 H -0.0273 0.6824 0.1454
H4 H -0.0316 0.7119 0.2331
H5 H 0.0472 0.6658 0.2309
C7 C 0.0341(2) 0.78071(10) 0.12897(17)
C8 C 0.0058(2) 0.82281(11) 0.17432(18)
H6 H 0.0183 0.8223 0.2350
C9 C -0.0411(2) 0.86604(11) 0.13032(18)
C10 C -0.0623(2) 0.86686(10) 0.04111(18)
H7 H -0.0940 0.8960 0.0115
C11 C -0.0358(2) 0.82367(10) -0.00408(17)
C12 C 0.0109(2) 0.78041(10) 0.03866(17)
H8 H 0.0267 0.7512 0.0074
C13 C 0.1620(2) 0.70763(10) 0.12446(16)
C14 C 0.1791(2) 0.65586(10) 0.11008(18)
H9 H 0.1465 0.6275 0.1317
C15 C 0.2538(2) 0.65256(11) 0.05747(18)
H10 H 0.2801 0.6215 0.0381
C16 C 0.2820(2) 0.70207(10) 0.03918(17)
C17 C 0.3512(2) 0.72150(10) -0.02124(17)
C18 C 0.3870(3) 0.67487(12) -0.0698(2)
H11 H 0.4292 0.6873 -0.1100
H12 H 0.3281 0.6567 -0.1014
H13 H 0.4262 0.6511 -0.0288
C19 C 0.2892(2) 0.75856(12) -0.08904(19)
H14 H 0.2688 0.7893 -0.0602
H15 H 0.2291 0.7405 -0.1185
H16 H 0.3312 0.7690 -0.1307
C20 C 0.4451(2) 0.74996(10) 0.02525(17)
C21 C 0.5460(2) 0.74097(12) 0.0248(2)
H17 H 0.5732 0.7125 -0.0014
C22 C 0.6027(2) 0.78216(12) 0.0710(2)
H18 H 0.6740 0.7858 0.0806
C23 C 0.5357(2) 0.81531(10) 0.09866(17)
C24 C 0.5516(2) 0.86724(10) 0.14597(18)
C25 C 0.6642(2) 0.88337(12) 0.1539(2)
H19 H 0.7072 0.8570 0.1862
H20 H 0.6749 0.9166 0.1836
H21 H 0.6815 0.8866 0.0967
C26 C 0.48563(19) 0.91028(10) 0.09422(17)
C27 C 0.4563(2) 0.95385(10) 0.13617(18)
H22 H 0.4774 0.9577 0.1960
C28 C 0.3953(2) 0.99183(10) 0.08934(18)
C29 C 0.3639(2) 0.98722(11) 0.00134(18)
H23 H 0.3234 1.0132 -0.0300
C30 C 0.3934(2) 0.94332(10) -0.03989(17)
C31 C 0.4557(2) 0.90562(10) 0.00473(17)
H24 H 0.4779 0.8771 -0.0248
C32 C 0.5265(2) 0.86121(10) 0.23616(17)
C33 C 0.5883(2) 0.85440(11) 0.31443(19)
H25 H 0.6599 0.8529 0.3241
C34 C 0.5260(2) 0.85011(11) 0.37819(19)
H26 H 0.5489 0.8451 0.4376
C35 C 0.4263(2) 0.85450(10) 0.33808(17)
C36 C 0.3277(2) 0.85503(11) 0.37400(17)
C37 C 0.2645(3) 0.90373(12) 0.3402(2)
H27 H 0.2479 0.9023 0.2777
H28 H 0.3039 0.9350 0.3577
H29 H 0.2021 0.9044 0.3641
C38 C 0.3540(3) 0.85836(13) 0.47293(19)
H30 H 0.2916 0.8579 0.4969
H31 H 0.3907 0.8905 0.4894
H32 H 0.3962 0.8288 0.4949
C39 C 0.3032(2) 1.07259(12) 0.0957(2)
H33 H 0.2532 1.0575 0.0491
H34 H 0.3448 1.0978 0.0702
C40 C 0.2492(2) 1.09969(11) 0.1585(2)
H35 H 0.2960 1.1039 0.2135
H36 H 0.2284 1.1346 0.1366
C41 C 0.1791(3) 1.03807(15) 0.2455(3)
H37 H 0.1819 1.0586 0.2984
H38 H 0.2442 1.0197 0.2483
C42 C 0.0919(3) 0.99920(15) 0.2367(3)
H39 H 0.0972 0.9744 0.1903
H40 H 0.0950 0.9796 0.2906
C43 C -0.0890(3) 0.99512(12) 0.2151(2)
H41 H -0.1493 1.0178 0.2053
H42 H -0.0865 0.9779 0.2711
C44 C -0.1001(3) 0.95356(12) 0.1444(2)
H43 H -0.1722 0.9484 0.1197
H44 H -0.0639 0.9644 0.0981
C45 C 0.3779(3) 0.89764(14) -0.1746(2)
H45 H 0.3718 0.8653 -0.1425
H46 H 0.4485 0.9008 -0.1839
C46 C 0.3071(2) 0.89600(15) -0.2595(2)
H47 H 0.3073 0.9299 -0.2884
H48 H 0.3302 0.8694 -0.2966
C47 C -0.0259(3) 0.78691(11) -0.14384(18)
H49 H -0.0633 0.7550 -0.1349
H50 H 0.0473 0.7800 -0.1275
C48 C 0.1463(3) 0.85859(19) -0.3145(2)
H51 H 0.1608 0.8211 -0.3089
H52 H 0.1658 0.8702 -0.3686
C49 C 0.0376(4) 0.8658(2) -0.3213(3)
H53 H 0.0211 0.9025 -0.3345
H54 H 0.0026 0.8447 -0.3695
C50 C -0.0507(3) 0.80376(11) -0.23654(19)
H55 H -0.0280 0.7771 -0.2738
H56 H -0.1246 0.8082 -0.2537
O1 O 0.36683(16) 1.03233(8) 0.13840(13)
O2 O 0.16157(16) 1.07121(8) 0.17241(14)
O3 O -0.00011(17) 1.02642(8) 0.21803(15)
O4 O -0.05830(17) 0.90737(8) 0.18197(14)
O5 O 0.35228(16) 0.94088(8) -0.12703(12)
O6 O 0.20805(19) 0.88419(11) -0.24667(16)
O7 O -0.05578(15) 0.82889(7) -0.09296(12)
O8 O -0.00003(18) 0.85178(9) -0.24544(13)
Li1 Li 0.0101(4) 1.0970(2) 0.1529(3)
N1 N 0.21778(17) 0.79627(9) 0.26616(14)
H57 H 0.2266 0.8146 0.2214
N2 N 0.42797(17) 0.86059(9) 0.25175(14)
H58 H 0.3739 0.8637 0.2121
N3 N 0.43959(17) 0.79522(8) 0.07142(14)
H59 H 0.3834 0.8091 0.0819
N4 N 0.22594(17) 0.73537(8) 0.08149(14)
H60 H 0.2304 0.7693 0.0810
O9 O -0.12355(18) 1.09175(11) 0.08284(15)
C1B C -0.2637(2) 1.19340(11) -0.34952(17)
C2B C -0.2327(2) 1.23191(12) -0.39936(18)
H1B H -0.2532 1.2358 -0.4593
C3B C -0.1643(2) 1.26493(11) -0.34502(18)
H2B H -0.1306 1.2942 -0.3626
C4B C -0.1562(2) 1.24684(10) -0.26293(17)
C5B C -0.0929(2) 1.26554(10) -0.17835(17)
C6B C -0.0129(2) 1.30503(11) -0.1988(2)
H3B H 0.0273 1.3176 -0.1454
H4B H 0.0316 1.2881 -0.2331
H5B H -0.0472 1.3342 -0.2309
C7B C -0.0341(2) 1.21929(10) -0.12897(17)
C8B C -0.0058(2) 1.17719(11) -0.17432(18)
H6B H -0.0183 1.1777 -0.2350
C9B C 0.0411(2) 1.13396(11) -0.13032(18)
C10B C 0.0623(2) 1.13314(10) -0.04111(18)
H7B H 0.0940 1.1040 -0.0115
C11B C 0.0358(2) 1.17633(10) 0.00408(17)
C12B C -0.0109(2) 1.21959(10) -0.03866(17)
H8B H -0.0267 1.2488 -0.0074
C13B C -0.1620(2) 1.29237(10) -0.12446(16)
C14B C -0.1791(2) 1.34414(10) -0.11008(18)
H9B H -0.1465 1.3725 -0.1317
C15B C -0.2538(2) 1.34744(11) -0.05747(18)
H10B H -0.2801 1.3785 -0.0381
C16B C -0.2820(2) 1.29793(10) -0.03918(17)
C17B C -0.3512(2) 1.27850(10) 0.02124(17)
C18B C -0.3870(3) 1.32513(12) 0.0698(2)
H11B H -0.4292 1.3127 0.1100
H12B H -0.3281 1.3433 0.1014
H13B H -0.4262 1.3489 0.0288
C19B C -0.2892(2) 1.24144(12) 0.08904(19)
H14B H -0.2688 1.2107 0.0602
H15B H -0.2291 1.2595 0.1185
H16B H -0.3312 1.2310 0.1307
C20B C -0.4451(2) 1.25004(10) -0.02525(17)
C21B C -0.5460(2) 1.25903(12) -0.0248(2)
H17B H -0.5732 1.2875 0.0014
C22B C -0.6027(2) 1.21784(12) -0.0710(2)
H18B H -0.6740 1.2142 -0.0806
C23B C -0.5357(2) 1.18469(10) -0.09866(17)
C24B C -0.5516(2) 1.13276(10) -0.14597(18)
C25B C -0.6642(2) 1.11663(12) -0.1539(2)
H19B H -0.7072 1.1430 -0.1862
H20B H -0.6749 1.0834 -0.1836
H21B H -0.6815 1.1134 -0.0967
C26B C -0.48563(19) 1.08972(10) -0.09422(17)
C27B C -0.4563(2) 1.04615(10) -0.13617(18)
H22B H -0.4774 1.0423 -0.1960
C28B C -0.3953(2) 1.00817(10) -0.08934(18)
C29B C -0.3639(2) 1.01278(11) -0.00134(18)
H23B H -0.3234 0.9868 0.0300
C30B C -0.3934(2) 1.05668(10) 0.03989(17)
C31B C -0.4557(2) 1.09438(10) -0.00473(17)
H24B H -0.4779 1.1229 0.0248
C32B C -0.5265(2) 1.13879(10) -0.23616(17)
C33B C -0.5883(2) 1.14560(11) -0.31443(19)
H25B H -0.6599 1.1471 -0.3241
C34B C -0.5260(2) 1.14989(11) -0.37819(19)
H26B H -0.5489 1.1549 -0.4376
C35B C -0.4263(2) 1.14550(10) -0.33808(17)
C36B C -0.3277(2) 1.14497(11) -0.37400(17)
C37B C -0.2645(3) 1.09627(12) -0.3402(2)
H27B H -0.2479 1.0977 -0.2777
H28B H -0.3039 1.0650 -0.3577
H29B H -0.2021 1.0956 -0.3641
C38B C -0.3540(3) 1.14164(13) -0.47293(19)
H30B H -0.2916 1.1421 -0.4969
H31B H -0.3907 1.1095 -0.4894
H32B H -0.3962 1.1712 -0.4949
C39B C -0.3032(2) 0.92741(12) -0.0957(2)
H33B H -0.2532 0.9425 -0.0491
H34B H -0.3448 0.9022 -0.0702
C40B C -0.2492(2) 0.90031(11) -0.1585(2)
H35B H -0.2960 0.8961 -0.2135
H36B H -0.2284 0.8654 -0.1366
C41B C -0.1791(3) 0.96193(15) -0.2455(3)
H37B H -0.1819 0.9414 -0.2984
H38B H -0.2442 0.9803 -0.2483
C42B C -0.0919(3) 1.00080(15) -0.2367(3)
H39B H -0.0972 1.0256 -0.1903
H40B H -0.0950 1.0204 -0.2906
C43B C 0.0890(3) 1.00488(12) -0.2151(2)
H41B H 0.1493 0.9822 -0.2053
H42B H 0.0865 1.0221 -0.2711
C44B C 0.1001(3) 1.04644(12) -0.1444(2)
H43B H 0.1722 1.0516 -0.1197
H44B H 0.0639 1.0356 -0.0981
C45B C -0.3779(3) 1.10236(14) 0.1746(2)
H45B H -0.3718 1.1347 0.1425
H46B H -0.4485 1.0992 0.1839
C46B C -0.3071(2) 1.10400(15) 0.2595(2)
H47B H -0.3073 1.0701 0.2884
H48B H -0.3302 1.1306 0.2966
C47B C 0.0259(3) 1.21309(11) 0.14384(18)
H49B H 0.0633 1.2450 0.1349
H50B H -0.0473 1.2200 0.1275
C48B C -0.1463(3) 1.14141(19) 0.3145(2)
H51B H -0.1608 1.1789 0.3089
H52B H -0.1658 1.1298 0.3686
C49B C -0.0376(4) 1.1342(2) 0.3213(3)
H53B H -0.0211 1.0975 0.3345
H54B H -0.0026 1.1553 0.3695
C50B C 0.0507(3) 1.19624(11) 0.23654(19)
H55B H 0.0280 1.2229 0.2738
H56B H 0.1246 1.1918 0.2537
O1B O -0.36683(16) 0.96767(8) -0.13840(13)
O2B O -0.16157(16) 0.92879(8) -0.17241(14)
O3B O 0.00011(17) 0.97358(8) -0.21803(15)
O4B O 0.05830(17) 1.09263(8) -0.18197(14)
O5B O -0.35228(16) 1.05912(8) 0.12703(12)
O6B O -0.20805(19) 1.11581(11) 0.24667(16)
O7B O 0.05578(15) 1.17111(7) 0.09296(12)
O8B O 0.00003(18) 1.14822(9) 0.24544(13)
Li1B Li -0.0101(4) 0.9030(2) -0.1529(3)
N1B N -0.21778(17) 1.20373(9) -0.26616(14)
H57B H -0.2266 1.1854 -0.2214
N2B N -0.42797(17) 1.13941(9) -0.25175(14)
H58B H -0.3739 1.1363 -0.2121
N3B N -0.43959(17) 1.20478(8) -0.07142(14)
H59B H -0.3834 1.1909 -0.0819
N4B N -0.22594(17) 1.26463(8) -0.08149(14)
H60B H -0.2304 1.2307 -0.0810
O9B O 0.12355(18) 0.90825(11) -0.08284(15)
Cl1 Cl 0.23448(5) 0.86370(3) 0.09315(4)
C51 C 1.0091(4) 0.5310(2) 0.1341(3)
H61 H 1.0460 0.5326 0.0861
H62 H 1.0561 0.5225 0.1866
H63 H 0.9776 0.5645 0.1408
O10 O 0.8370(7) 0.5053(3) 0.0689(5)
C52 C 0.7625(10) 0.4838(4) 0.0691(8)
H64 H 0.7578 0.4794 0.1302
H65 H 0.7730 0.4488 0.0471
C53 C 0.9419(8) 0.4966(4) 0.1196(6)
H66 H 0.9325 0.4834 0.1762
H67 H 0.9715 0.4679 0.0911
C54 C 0.6563(13) 0.4998(5) 0.0251(8)
H68 H 0.6415 0.5347 0.0437
H69 H 0.6067 0.4755 0.0404
H70 H 0.6530 0.4996 -0.0370
C55? C 0.0734(11) 0.8239(5) -0.2911(11)
H71? H 0.1083 0.7966 -0.2535
H72? H 0.0360 0.8071 -0.3431
loop_
_geom_bond_atom_site_label_1
_geom_bond_atom_site_label_2
_geom_bond_site_symmetry_1
_geom_bond_site_symmetry_2
C1 C2 1_555 1_555
C2 H1 1_555 1_555
C3 C2 1_555 1_555
H2 C3 1_555 1_555
C4 C3 1_555 1_555
C5 C4 1_555 1_555
C6 C5 1_555 1_555
H3 C6 1_555 1_555
H4 C6 1_555 1_555
H5 C6 1_555 1_555
C7 C5 1_555 1_555
C8 C7 1_555 1_555
H6 C8 1_555 1_555
C9 C8 1_555 1_555
C10 C9 1_555 1_555
H7 C10 1_555 1_555
C11 C10 1_555 1_555
C12 C7 1_555 1_555
H8 C12 1_555 1_555
C13 C5 1_555 1_555
C14 C13 1_555 1_555
H9 C14 1_555 1_555
C15 C14 1_555 1_555
H10 C15 1_555 1_555
C16 C15 1_555 1_555
C17 C16 1_555 1_555
C18 C17 1_555 1_555
H11 C18 1_555 1_555
H12 C18 1_555 1_555
H13 C18 1_555 1_555
C19 C17 1_555 1_555
H14 C19 1_555 1_555
H15 C19 1_555 1_555
H16 C19 1_555 1_555
C20 C17 1_555 1_555
C21 C20 1_555 1_555
H17 C21 1_555 1_555
C22 C21 1_555 1_555
H18 C22 1_555 1_555
C23 C22 1_555 1_555
C24 C23 1_555 1_555
C25 C24 1_555 1_555
H19 C25 1_555 1_555
H20 C25 1_555 1_555
H21 C25 1_555 1_555
C26 C24 1_555 1_555
C27 C26 1_555 1_555
H22 C27 1_555 1_555
C28 C27 1_555 1_555
C29 C28 1_555 1_555
H23 C29 1_555 1_555
C30 C29 1_555 1_555
C31 C26 1_555 1_555
H24 C31 1_555 1_555
C32 C24 1_555 1_555
C33 C32 1_555 1_555
H25 C33 1_555 1_555
C34 C33 1_555 1_555
H26 C34 1_555 1_555
C35 C34 1_555 1_555
C36 C1 1_555 1_555
C37 C36 1_555 1_555
H27 C37 1_555 1_555
H28 C37 1_555 1_555
H29 C37 1_555 1_555
C38 C36 1_555 1_555
H30 C38 1_555 1_555
H31 C38 1_555 1_555
H32 C38 1_555 1_555
C39 H33 1_555 1_555
H34 C39 1_555 1_555
C40 C39 1_555 1_555
H35 C40 1_555 1_555
H36 C40 1_555 1_555
C41 H37 1_555 1_555
H38 C41 1_555 1_555
C42 C41 1_555 1_555
H39 C42 1_555 1_555
H40 C42 1_555 1_555
C43 H41 1_555 1_555
H42 C43 1_555 1_555
C44 C43 1_555 1_555
H43 C44 1_555 1_555
H44 C44 1_555 1_555
C45 H45 1_555 1_555
H46 C45 1_555 1_555
C46 C45 1_555 1_555
H47 C46 1_555 1_555
H48 C46 1_555 1_555
C47 H49 1_555 1_555
H50 C47 1_555 1_555
C48 H51 1_555 1_555
H52 C48 1_555 1_555
C49 C48 1_555 1_555
H53 C49 1_555 1_555
H54 C49 1_555 1_555
C50 C47 1_555 1_555
H55 C50 1_555 1_555
H56 C50 1_555 1_555
O1 C28 1_555 1_555
O2 C40 1_555 1_555
O3 C42 1_555 1_555
O4 C9 1_555 1_555
O5 C30 1_555 1_555
O6 C46 1_555 1_555
O7 C11 1_555 1_555
O8 C49 1_555 1_555
Li1 O2 1_555 1_555
N1 C1 1_555 1_555
H57 N1 1_555 1_555
N2 C32 1_555 1_555
H58 N2 1_555 1_555
N3 C20 1_555 1_555
H59 N3 1_555 1_555
N4 C13 1_555 1_555
H60 N4 1_555 1_555
O9 Li1 1_555 1_555
C51 H61 1_555 1_555
H62 C51 1_555 1_555
H63 C51 1_555 1_555
O10 C52 1_555 1_555
C52 H64 1_555 1_555
H65 C52 1_555 1_555
C53 C51 1_555 1_555
H66 C53 1_555 1_555
H67 C53 1_555 1_555
C54 C52 1_555 1_555
H68 C54 1_555 1_555
H69 C54 1_555 1_555
H70 C54 1_555 1_555
C1B C2B 1_555 1_555
C2B H1B 1_555 1_555
C3B C2B 1_555 1_555
H2B C3B 1_555 1_555
C4B C3B 1_555 1_555
C5B C4B 1_555 1_555
C6B C5B 1_555 1_555
H3B C6B 1_555 1_555
H4B C6B 1_555 1_555
H5B C6B 1_555 1_555
C7B C5B 1_555 1_555
C8B C7B 1_555 1_555
H6B C8B 1_555 1_555
C9B C8B 1_555 1_555
C10B C9B 1_555 1_555
H7B C10B 1_555 1_555
C11B C10B 1_555 1_555
C12B C7B 1_555 1_555
H8B C12B 1_555 1_555
C13B C5B 1_555 1_555
C14B C13B 1_555 1_555
H9B C14B 1_555 1_555
C15B C14B 1_555 1_555
H10B C15B 1_555 1_555
C16B C15B 1_555 1_555
C17B C16B 1_555 1_555
C18B C17B 1_555 1_555
H11B C18B 1_555 1_555
H12B C18B 1_555 1_555
H13B C18B 1_555 1_555
C19B C17B 1_555 1_555
H14B C19B 1_555 1_555
H15B C19B 1_555 1_555
H16B C19B 1_555 1_555
C20B C17B 1_555 1_555
C21B C20B 1_555 1_555
H17B C21B 1_555 1_555
C22B C21B 1_555 1_555
H18B C22B 1_555 1_555
C23B C22B 1_555 1_555
C24B C23B 1_555 1_555
C25B C24B 1_555 1_555
H19B C25B 1_555 1_555
H20B C25B 1_555 1_555
H21B C25B 1_555 1_555
C26B C24B 1_555 1_555
C27B C26B 1_555 1_555
H22B C27B 1_555 1_555
C28B C27B 1_555 1_555
C29B C28B 1_555 1_555
H23B C29B 1_555 1_555
C30B C29B 1_555 1_555
C31B C26B 1_555 1_555
H24B C31B 1_555 1_555
C32B C24B 1_555 1_555
C33B C32B 1_555 1_555
H25B C33B 1_555 1_555
C34B C33B 1_555 1_555
H26B C34B 1_555 1_555
C35B C34B 1_555 1_555
C36B C1B 1_555 1_555
C37B C36B 1_555 1_555
H27B C37B 1_555 1_555
H28B C37B 1_555 1_555
H29B C37B 1_555 1_555
C38B C36B 1_555 1_555
H30B C38B 1_555 1_555
H31B C38B 1_555 1_555
H32B C38B 1_555 1_555
C39B H33B 1_555 1_555
H34B C39B 1_555 1_555
C40B C39B 1_555 1_555
H35B C40B 1_555 1_555
H36B C40B 1_555 1_555
C41B H37B 1_555 1_555
H38B C41B 1_555 1_555
C42B C41B 1_555 1_555
H39B C42B 1_555 1_555
H40B C42B 1_555 1_555
C43B H41B 1_555 1_555
H42B C43B 1_555 1_555
C44B C43B 1_555 1_555
H43B C44B 1_555 1_555
H44B C44B 1_555 1_555
C45B H45B 1_555 1_555
H46B C45B 1_555 1_555
C46B C45B 1_555 1_555
H47B C46B 1_555 1_555
H48B C46B 1_555 1_555
C47B H49B 1_555 1_555
H50B C47B 1_555 1_555
C48B H51B 1_555 1_555
H52B C48B 1_555 1_555
C49B C48B 1_555 1_555
H53B C49B 1_555 1_555
H54B C49B 1_555 1_555
C50B C47B 1_555 1_555
H55B C50B 1_555 1_555
H56B C50B 1_555 1_555
O1B C28B 1_555 1_555
O2B C40B 1_555 1_555
O3B C42B 1_555 1_555
O4B C9B 1_555 1_555
O5B C30B 1_555 1_555
O6B C46B 1_555 1_555
O7B Li1 1_555 1_555
O8B Li1 1_555 1_555
Li1B O7 1_555 1_555
N1B C1B 1_555 1_555
H57B N1B 1_555 1_555
N2B C32B 1_555 1_555
H58B N2B 1_555 1_555
N3B C20B 1_555 1_555
H59B N3B 1_555 1_555
N4B C13B 1_555 1_555
H60B N4B 1_555 1_555
O9B Li1B 1_555 1_555
C4 N1 1_555 1_555
C11 C12 1_555 1_555
C16 N4 1_555 1_555
C23 N3 1_555 1_555
C30 C31 1_555 1_555
C35 C36 1_555 1_555
C35 N2 1_555 1_555
C39 O1 1_555 1_555
C41 O2 1_555 1_555
C43 O3 1_555 1_555
C44 O4 1_555 1_555
C45 O5 1_555 1_555
C47 O7 1_555 1_555
C48 O6 1_555 1_555
C50 O8 1_555 1_555
O3 Li1 1_555 1_555
O8 Li1B 1_555 1_555
O10 C53 1_555 1_555
C4B N1B 1_555 1_555
C11B C12B 1_555 1_555
C11B O7B 1_555 1_555
C16B N4B 1_555 1_555
C23B N3B 1_555 1_555
C30B C31B 1_555 1_555
C35B C36B 1_555 1_555
C35B N2B 1_555 1_555
C39B O1B 1_555 1_555
C41B O2B 1_555 1_555
C43B O3B 1_555 1_555
C44B O4B 1_555 1_555
C45B O5B 1_555 1_555
C47B O7B 1_555 1_555
C48B O6B 1_555 1_555
C49B O8B 1_555 1_555
C50B O8B 1_555 1_555
O2B Li1B 1_555 1_555
O3B Li1B 1_555 1_555

#END
