
#######################################################################
#
#                 Cambridge Crystallographic Data Centre
#                                CCDC 
#
#######################################################################
#
# If this CIF has been generated from an entry in the Cambridge 
# Structural Database, then it will include bibliographic, chemical, 
# crystal, experimental, refinement or atomic coordinate data resulting 
# from the CCDC's data processing and validation procedures.
#
#######################################################################

data_EDOWEA
_chemical_formula_moiety         'C32 H66 Li2 N4'
_chemical_name_systematic        
bis(\m~2~-butyl)-bis(1,2-dipiperidinoethane-N,N')-di-lithium
_symmetry_cell_setting           monoclinic
_symmetry_space_group_name_H-M   'P 21/n'
_symmetry_Int_Tables_number      14
_space_group_name_Hall           '-P 2yn'
loop_
_symmetry_equiv_pos_site_id
_symmetry_equiv_pos_as_xyz
1 x,y,z
2 1/2-x,1/2+y,1/2-z
3 -x,-y,-z
4 1/2+x,1/2-y,1/2+z
_cell_length_a                   9.8619(12)
_cell_length_b                   17.963(2)
_cell_length_c                   10.3655(12)
_cell_angle_alpha                90
_cell_angle_beta                 114.090(2)
_cell_angle_gamma                90
_cell_volume                     1676.31
_exptl_crystal_colour            colorless
_exptl_crystal_description       block
_cell_formula_units_Z            2
loop_
_atom_site_label
_atom_site_type_symbol
_atom_site_fract_x
_atom_site_fract_y
_atom_site_fract_z
C1 C 0.35437(12) -0.09250(7) 0.97206(13)
H1 H 0.3939(15) -0.0440(8) 1.0197(15)
H2 H 0.4282(15) -0.1140(8) 0.9409(15)
C2 C 0.32937(14) -0.14477(7) 1.07485(13)
H3 H 0.2551(15) -0.1226(8) 1.1067(15)
H4 H 0.4218(16) -0.1486(8) 1.1575(16)
C3 C 0.27034(15) -0.21988(7) 1.00488(14)
H5 H 0.3465(17) -0.2438(9) 0.9799(16)
H6 H 0.2451(16) -0.2509(9) 1.0688(17)
C4 C 0.13286(15) -0.20732(7) 0.86870(14)
H7 H 0.0970(16) -0.2545(9) 0.8127(15)
H8 H 0.0481(17) -0.1936(8) 0.8878(16)
C5 C 0.15915(14) -0.15022(7) 0.77360(13)
H9 H 0.2313(15) -0.1694(8) 0.7345(15)
H10 H 0.0716(16) -0.1408(8) 0.6963(16)
C6 C 0.24634(13) -0.02906(7) 0.74841(13)
H11 H 0.1648(16) -0.0311(8) 0.6563(16)
H12 H 0.3379(15) -0.0436(8) 0.7400(14)
C7 C 0.25766(13) 0.05244(7) 0.79038(13)
H13 H 0.3368(16) 0.0614(8) 0.8866(16)
H14 H 0.2905(15) 0.0821(8) 0.7248(15)
C8 C 0.00323(14) 0.08667(7) 0.64344(12)
H15 H -0.0156(14) 0.0348(8) 0.6092(15)
H16 H 0.0432(15) 0.1137(8) 0.5819(15)
C9 C -0.13764(14) 0.12417(7) 0.63616(14)
H17 H -0.2080(16) 0.1266(8) 0.5392(17)
H18 H -0.1828(16) 0.0961(8) 0.6902(16)
C10 C -0.10671(16) 0.20295(7) 0.69585(15)
H19 H -0.0715(16) 0.2340(9) 0.6358(16)
H20 H -0.2038(17) 0.2226(8) 0.6978(16)
C11 C 0.01611(15) 0.19980(7) 0.84460(14)
H21 H 0.0434(16) 0.2466(9) 0.8808(16)
H22 H -0.0200(16) 0.1716(8) 0.9068(16)
C12 C 0.15316(14) 0.16038(6) 0.84712(14)
H23 H 0.1979(16) 0.1887(8) 0.7915(15)
H24 H 0.2320(15) 0.1577(8) 0.9420(17)
C13 C 0.15202(12) 0.04790(6) 1.14727(12)
H25 H 0.1288(14) 0.1013(8) 1.1213(14)
H26 H 0.1131(14) 0.0422(7) 1.2203(15)
C14 C 0.32102(12) 0.04355(6) 1.22299(12)
H27 H 0.3626(14) 0.0536(7) 1.1493(14)
H28 H 0.3525(13) -0.0089(8) 1.2574(14)
C15 C 0.39631(13) 0.09677(6) 1.34808(12)
H29 H 0.5014(16) 0.0953(7) 1.3774(14)
H30 H 0.3699(14) 0.1476(8) 1.3141(15)
C16 C 0.35663(15) 0.08221(7) 1.47261(13)
H31 H 0.2475(18) 0.0907(9) 1.4465(17)
H32 H 0.4184(17) 0.1164(9) 1.5492(18)
H33 H 0.3778(16) 0.0272(9) 1.5040(17)
Li1 Li 0.0708(2) 0.00355(11) 0.9271(2)
N1 N 0.21587(10) -0.07884(5) 0.84701(10)
N2 N 0.11895(10) 0.08358(5) 0.78899(10)
C1B C -0.35437(12) 0.09250(7) 1.02794(13)
H1B H -0.3939(15) 0.0440(8) 0.9803(15)
H2B H -0.4282(15) 0.1140(8) 1.0591(15)
C2B C -0.32937(14) 0.14477(7) 0.92515(13)
H3B H -0.2551(15) 0.1226(8) 0.8933(15)
H4B H -0.4218(16) 0.1486(8) 0.8425(16)
C3B C -0.27034(15) 0.21988(7) 0.99512(14)
H5B H -0.3465(17) 0.2438(9) 1.0201(16)
H6B H -0.2451(16) 0.2509(9) 0.9312(17)
C4B C -0.13286(15) 0.20732(7) 1.13130(14)
H7B H -0.0970(16) 0.2545(9) 1.1873(15)
H8B H -0.0481(17) 0.1936(8) 1.1122(16)
C5B C -0.15915(14) 0.15022(7) 1.22640(13)
H9B H -0.2313(15) 0.1694(8) 1.2655(15)
H10B H -0.0716(16) 0.1408(8) 1.3037(16)
C6B C -0.24634(13) 0.02906(7) 1.25159(13)
H11B H -0.1648(16) 0.0311(8) 1.3437(16)
H12B H -0.3379(15) 0.0436(8) 1.2600(14)
C7B C -0.25766(13) -0.05244(7) 1.20962(13)
H13B H -0.3368(16) -0.0614(8) 1.1134(16)
H14B H -0.2905(15) -0.0821(8) 1.2752(15)
C8B C -0.00323(14) -0.08667(7) 1.35656(12)
H15B H 0.0156(14) -0.0348(8) 1.3908(15)
H16B H -0.0432(15) -0.1137(8) 1.4181(15)
C9B C 0.13764(14) -0.12417(7) 1.36384(14)
H17B H 0.2080(16) -0.1266(8) 1.4608(17)
H18B H 0.1828(16) -0.0961(8) 1.3098(16)
C10B C 0.10671(16) -0.20295(7) 1.30415(15)
H19B H 0.0715(16) -0.2340(9) 1.3642(16)
H20B H 0.2038(17) -0.2226(8) 1.3022(16)
C11B C -0.01611(15) -0.19980(7) 1.15540(14)
H21B H -0.0434(16) -0.2466(9) 1.1192(16)
H22B H 0.0200(16) -0.1716(8) 1.0932(16)
C12B C -0.15316(14) -0.16038(6) 1.15288(14)
H23B H -0.1979(16) -0.1887(8) 1.2085(15)
H24B H -0.2320(15) -0.1577(8) 1.0580(17)
C13B C -0.15202(12) -0.04790(6) 0.85273(12)
H25B H -0.1288(14) -0.1013(8) 0.8787(14)
H26B H -0.1131(14) -0.0422(7) 0.7797(15)
C14B C -0.32102(12) -0.04355(6) 0.77701(12)
H27B H -0.3626(14) -0.0536(7) 0.8507(14)
H28B H -0.3525(13) 0.0089(8) 0.7426(14)
C15B C -0.39631(13) -0.09677(6) 0.65192(12)
H29B H -0.5014(16) -0.0953(7) 0.6226(14)
H30B H -0.3699(14) -0.1476(8) 0.6859(15)
C16B C -0.35663(15) -0.08221(7) 0.52739(13)
H31B H -0.2475(18) -0.0907(9) 0.5535(17)
H32B H -0.4184(17) -0.1164(9) 0.4508(18)
H33B H -0.3778(16) -0.0272(9) 0.4960(17)
Li1B Li -0.0708(2) -0.00355(11) 1.0729(2)
N1B N -0.21587(10) 0.07884(5) 1.15299(10)
N2B N -0.11895(10) -0.08358(5) 1.21101(10)
loop_
_geom_bond_atom_site_label_1
_geom_bond_atom_site_label_2
_geom_bond_site_symmetry_1
_geom_bond_site_symmetry_2
C1 H1 1_555 1_555
H2 C1 1_555 1_555
C2 C1 1_555 1_555
H3 C2 1_555 1_555
H4 C2 1_555 1_555
C3 C2 1_555 1_555
H5 C3 1_555 1_555
H6 C3 1_555 1_555
C4 C3 1_555 1_555
H7 C4 1_555 1_555
H8 C4 1_555 1_555
C5 C4 1_555 1_555
H9 C5 1_555 1_555
H10 C5 1_555 1_555
C6 H11 1_555 1_555
H12 C6 1_555 1_555
C7 C6 1_555 1_555
H13 C7 1_555 1_555
H14 C7 1_555 1_555
C8 H15 1_555 1_555
H16 C8 1_555 1_555
C9 C8 1_555 1_555
H17 C9 1_555 1_555
H18 C9 1_555 1_555
C10 C9 1_555 1_555
H19 C10 1_555 1_555
H20 C10 1_555 1_555
C11 C10 1_555 1_555
H21 C11 1_555 1_555
H22 C11 1_555 1_555
C12 C11 1_555 1_555
H23 C12 1_555 1_555
H24 C12 1_555 1_555
C13 H25 1_555 1_555
H26 C13 1_555 1_555
C14 C13 1_555 1_555
H27 C14 1_555 1_555
H28 C14 1_555 1_555
C15 C14 1_555 1_555
H29 C15 1_555 1_555
H30 C15 1_555 1_555
C16 C15 1_555 1_555
H31 C16 1_555 1_555
H32 C16 1_555 1_555
H33 C16 1_555 1_555
Li1 C13 1_555 1_555
N1 C1 1_555 1_555
N2 C7 1_555 1_555
C1B H1B 1_555 1_555
H2B C1B 1_555 1_555
C2B C1B 1_555 1_555
H3B C2B 1_555 1_555
H4B C2B 1_555 1_555
C3B C2B 1_555 1_555
H5B C3B 1_555 1_555
H6B C3B 1_555 1_555
C4B C3B 1_555 1_555
H7B C4B 1_555 1_555
H8B C4B 1_555 1_555
C5B C4B 1_555 1_555
H9B C5B 1_555 1_555
H10B C5B 1_555 1_555
C6B H11B 1_555 1_555
H12B C6B 1_555 1_555
C7B C6B 1_555 1_555
H13B C7B 1_555 1_555
H14B C7B 1_555 1_555
C8B H15B 1_555 1_555
H16B C8B 1_555 1_555
C9B C8B 1_555 1_555
H17B C9B 1_555 1_555
H18B C9B 1_555 1_555
C10B C9B 1_555 1_555
H19B C10B 1_555 1_555
H20B C10B 1_555 1_555
C11B C10B 1_555 1_555
H21B C11B 1_555 1_555
H22B C11B 1_555 1_555
C12B C11B 1_555 1_555
H23B C12B 1_555 1_555
H24B C12B 1_555 1_555
C13B Li1 1_555 1_555
H25B C13B 1_555 1_555
H26B C13B 1_555 1_555
C14B C13B 1_555 1_555
H27B C14B 1_555 1_555
H28B C14B 1_555 1_555
C15B C14B 1_555 1_555
H29B C15B 1_555 1_555
H30B C15B 1_555 1_555
C16B C15B 1_555 1_555
H31B C16B 1_555 1_555
H32B C16B 1_555 1_555
H33B C16B 1_555 1_555
Li1B C13 1_555 1_555
N1B C1B 1_555 1_555
N2B C7B 1_555 1_555
C5 N1 1_555 1_555
C6 N1 1_555 1_555
C8 N2 1_555 1_555
C12 N2 1_555 1_555
Li1 N1 1_555 1_555
Li1 N2 1_555 1_555
C5B N1B 1_555 1_555
C6B N1B 1_555 1_555
C8B N2B 1_555 1_555
C12B N2B 1_555 1_555
C13B Li1B 1_555 1_555
Li1B N1B 1_555 1_555
Li1B N2B 1_555 1_555

#END
