
#######################################################################
#
#                 Cambridge Crystallographic Data Centre
#                                CCDC 
#
#######################################################################
#
# If this CIF has been generated from an entry in the Cambridge 
# Structural Database, then it will include bibliographic, chemical, 
# crystal, experimental, refinement or atomic coordinate data resulting 
# from the CCDC's data processing and validation procedures.
#
#######################################################################

data_EDOXUR
_chemical_formula_moiety         'C68 H72 O8'
_chemical_name_systematic        
4,10,16,22-tetrabenzyl-6,12,18,24-tetramethoxy-2,8,14,20-tetraethylcalix(4)arene
_symmetry_cell_setting           triclinic
_symmetry_space_group_name_H-M   'P -1'
_symmetry_Int_Tables_number      2
_space_group_name_Hall           '-P 1'
loop_
_symmetry_equiv_pos_site_id
_symmetry_equiv_pos_as_xyz
1 x,y,z
2 -x,-y,-z
_cell_length_a                   13.4989(4)
_cell_length_b                   17.6339(6)
_cell_length_c                   24.3822(7)
_cell_angle_alpha                82.9920(10)
_cell_angle_beta                 76.138(2)
_cell_angle_gamma                82.026(2)
_cell_volume                     5556.54
_exptl_crystal_colour            colorless
_exptl_crystal_description       block
_cell_formula_units_Z            4
_exptl_crystal_recrystallization_method dichloromethane/methanol
loop_
_atom_site_label
_atom_site_type_symbol
_atom_site_fract_x
_atom_site_fract_y
_atom_site_fract_z
C1 C 0.8763(2) 0.75271(17) 0.38449(12)
C3 C 0.8925(2) 0.78429(17) 0.43073(12)
H1 H 0.9601 0.7767 0.4371
C5 C 0.8173(2) 0.82604(17) 0.46811(12)
C7 C 0.7175(2) 0.83195(18) 0.46064(12)
C9 C 0.6961(2) 0.80311(18) 0.41463(13)
H3 H 0.6279 0.8091 0.4093
C11 C 0.7750(2) 0.76572(17) 0.37682(12)
C13 C 0.8371(2) 0.86504(17) 0.51650(12)
H5 H 0.8004 0.9182 0.5142
C15 C 0.7891(2) 0.82703(18) 0.57450(13)
C17 C 0.7663(2) 0.75076(18) 0.58217(12)
H7 H 0.7870 0.7212 0.5504
C19 C 0.7153(2) 0.71567(18) 0.63337(13)
C21 C 0.6847(2) 0.7612(2) 0.67891(13)
C23 C 0.7096(2) 0.83554(19) 0.67384(13)
H9 H 0.6911 0.8645 0.7059
C25 C 0.7613(3) 0.86787(19) 0.62240(14)
C27 C 0.6951(2) 0.63203(17) 0.64069(12)
H11 H 0.6293 0.6283 0.6698
C29 C 0.6792(2) 0.60549(18) 0.58683(12)
C31 C 0.7503(2) 0.55655(17) 0.55266(12)
H13 H 0.8139 0.5402 0.5631
C33 C 0.7355(2) 0.52969(18) 0.50425(12)
C35 C 0.6426(2) 0.55738(19) 0.48900(13)
C37 C 0.5684(2) 0.60627(18) 0.52132(13)
H15 H 0.5054 0.6235 0.5104
C39 C 0.5868(2) 0.63004(18) 0.56996(13)
C41 C 0.8122(2) 0.47290(17) 0.46874(12)
H17 H 0.7722 0.4331 0.4613
C43 C 0.8627(2) 0.51011(18) 0.41125(12)
C45 C 0.8894(2) 0.58506(18) 0.40394(12)
H19 H 0.8745 0.6132 0.4364
C47 C 0.9364(2) 0.62100(18) 0.35225(13)
C49 C 0.9610(2) 0.57782(19) 0.30568(13)
C51 C 0.9329(2) 0.50438(19) 0.31053(13)
H21 H 0.9486 0.4761 0.2782
C53 C 0.8820(2) 0.47196(19) 0.36248(13)
C55 C 0.9575(2) 0.70470(17) 0.34465(12)
H23 H 0.9508 0.7247 0.3054
C57 C 0.9500(2) 0.87488(19) 0.51042(13)
H25 H 0.9910 0.8238 0.5075
H26 H 0.9577 0.8954 0.5450
C59 C 0.9932(3) 0.9289(2) 0.45849(14)
H29 H 0.9944 0.9056 0.4238
H30 H 1.0631 0.9373 0.4592
H31 H 0.9495 0.9782 0.4593
C61 C 0.7798(2) 0.58198(17) 0.66577(13)
H35 H 0.8450 0.5813 0.6366
H36 H 0.7893 0.6067 0.6982
C63 C 0.7593(3) 0.49949(18) 0.68587(14)
H39 H 0.6952 0.4991 0.7150
H40 H 0.8162 0.4727 0.7018
H41 H 0.7534 0.4734 0.6537
C65 C 0.8910(2) 0.43040(17) 0.50113(12)
H45 H 0.9330 0.4681 0.5085
H46 H 0.8537 0.4080 0.5383
C67 C 0.9622(2) 0.36676(19) 0.47046(13)
H49 H 0.9215 0.3290 0.4629
H50 H 1.0087 0.3415 0.4942
H51 H 1.0025 0.3887 0.4345
C69 C 1.0692(2) 0.71115(18) 0.34672(13)
H55 H 1.0759 0.7006 0.3866
H56 H 1.1151 0.6712 0.3248
C71 C 1.1051(2) 0.79007(19) 0.32313(14)
H59 H 1.0992 0.8009 0.2836
H60 H 1.1768 0.7898 0.3250
H61 H 1.0621 0.8299 0.3457
C73 C 0.6629(2) 0.76264(19) 0.31481(13)
H65 H 0.6084 0.7410 0.3443
H66 H 0.6633 0.7446 0.2783
H67 H 0.6503 0.8189 0.3122
C75 C 0.8183(3) 0.96917(19) 0.65896(14)
H71 H 0.7618 0.9721 0.6927
H72 H 0.8411 1.0202 0.6469
H73 H 0.8756 0.9331 0.6679
C77 C 0.4143(2) 0.6905(2) 0.59668(15)
H77 H 0.4143 0.7210 0.5603
H78 H 0.3701 0.7188 0.6274
H79 H 0.3883 0.6413 0.5965
C79 C 0.8274(3) 0.37443(19) 0.32014(13)
H83 H 0.7797 0.4134 0.3046
H84 H 0.7966 0.3261 0.3307
H85 H 0.8916 0.3662 0.2915
C81 C 0.5380(2) 0.8655(2) 0.50017(13)
H89 H 0.5260 0.8113 0.5005
H90 H 0.5199 0.8949 0.4659
C83 C 0.4737(2) 0.89906(19) 0.55269(14)
C85 C 0.4957(3) 0.8743(2) 0.60523(14)
H93 H 0.5512 0.8355 0.6079
C87 C 0.4384(3) 0.9052(2) 0.65309(15)
H95 H 0.4536 0.8873 0.6888
C89 C 0.3582(3) 0.9624(2) 0.64985(15)
H97 H 0.3200 0.9847 0.6832
C91 C 0.3340(3) 0.9869(2) 0.59888(16)
H99 H 0.2778 1.0251 0.5966
C93 C 0.3931(3) 0.95505(19) 0.55004(15)
H101 H 0.3771 0.9725 0.5144
C95 C 0.5700(2) 0.77519(19) 0.77080(13)
H103 H 0.5437 0.8241 0.7518
H104 H 0.6123 0.7873 0.7959
C97 C 0.4825(3) 0.73446(19) 0.80490(14)
C99 C 0.4580(3) 0.7307(2) 0.86319(14)
H107 H 0.5012 0.7502 0.8824
C101 C 0.3710(3) 0.6985(2) 0.89429(16)
H109 H 0.3543 0.6969 0.9345
C103 C 0.3090(3) 0.6691(2) 0.86695(19)
H111 H 0.2491 0.6474 0.8881
C105 C 0.3342(3) 0.6712(2) 0.80863(19)
H113 H 0.2919 0.6505 0.7895
C107 C 0.4206(3) 0.7033(2) 0.77788(15)
H115 H 0.4378 0.7039 0.7377
C109 C 0.5499(2) 0.57000(19) 0.41426(13)
H117 H 0.5445 0.6261 0.4168
H118 H 0.4832 0.5517 0.4339
C111 C 0.5766(3) 0.55298(18) 0.35283(14)
C113 C 0.5113(3) 0.5180(2) 0.33093(14)
H121 H 0.4500 0.5018 0.3551
C115 C 0.5343(3) 0.5064(2) 0.27425(16)
H123 H 0.4896 0.4811 0.2598
C117 C 0.6199(3) 0.5306(2) 0.23870(15)
H125 H 0.6338 0.5238 0.1994
C119 C 0.6869(3) 0.5654(2) 0.25977(15)
H127 H 0.7474 0.5821 0.2351
C121 C 0.6652(3) 0.57590(19) 0.31732(15)
H129 H 0.7117 0.5989 0.3321
C123 C 1.0444(3) 0.57016(19) 0.20756(12)
H131 H 0.9841 0.5531 0.1981
H132 H 1.0907 0.5240 0.2163
C125 C 1.0997(2) 0.6194(2) 0.15806(13)
C127 C 1.1183(3) 0.6927(2) 0.16231(15)
H135 H 1.0971 0.7141 0.1978
C129 C 1.1686(3) 0.7358(3) 0.11445(18)
H137 H 1.1813 0.7866 0.1175
C131 C 1.1996(3) 0.7056(3) 0.06313(18)
H139 H 1.2331 0.7354 0.0306
C133 C 1.1818(3) 0.6322(3) 0.05911(17)
H141 H 1.2042 0.6109 0.0237
C135 C 1.1319(3) 0.5888(2) 0.10578(15)
H143 H 1.1195 0.5381 0.1023
O1 O 0.64308(16) 0.87001(12) 0.49982(8)
O3 O 0.76016(15) 0.73834(12) 0.32898(8)
O5 O 0.63137(17) 0.72645(12) 0.72897(9)
O7 O 0.78420(18) 0.94335(13) 0.61478(9)
O9 O 0.63053(16) 0.53066(12) 0.44021(8)
O11 O 0.51614(17) 0.67669(13) 0.60516(9)
O13 O 1.01195(16) 0.61343(12) 0.25524(8)
O15 O 0.84825(18) 0.39996(12) 0.36899(9)
C2 C 0.6238(2) 0.73158(16) 0.13108(12)
C4 C 0.6004(2) 0.70529(17) 0.08455(12)
H2 H 0.5306 0.7126 0.0818
C6 C 0.6717(2) 0.66933(18) 0.04203(12)
C8 C 0.7743(2) 0.66191(18) 0.04624(13)
C10 C 0.8017(2) 0.68691(18) 0.09187(12)
H4 H 0.8717 0.6809 0.0942
C12 C 0.7273(2) 0.72039(17) 0.13366(13)
C14 C 0.6454(2) 0.63827(18) -0.00772(12)
H6 H 0.6814 0.5848 -0.0100
C16 C 0.6881(2) 0.68317(18) -0.06344(12)
C18 C 0.7119(2) 0.75833(18) -0.06809(12)
H8 H 0.6951 0.7843 -0.0346
C20 C 0.7585(2) 0.79795(18) -0.11820(13)
C22 C 0.7843(2) 0.75719(19) -0.16637(12)
C24 C 0.7573(2) 0.68388(18) -0.16494(13)
H10 H 0.7720 0.6586 -0.1987
C26 C 0.7088(2) 0.64775(19) -0.11396(13)
C28 C 0.7786(2) 0.88112(17) -0.12278(12)
H12 H 0.8428 0.8867 -0.1529
C30 C 0.7989(2) 0.90368(17) -0.06843(12)
C32 C 0.7279(2) 0.94638(17) -0.02955(12)
H14 H 0.6616 0.9617 -0.0369
C34 C 0.7472(2) 0.96838(17) 0.01976(12)
C36 C 0.8447(2) 0.94304(18) 0.02976(13)
C38 C 0.9183(2) 0.90060(18) -0.00730(13)
H16 H 0.9842 0.8847 0.0004
C40 C 0.8954(2) 0.88127(18) -0.05599(13)
C42 C 0.6710(2) 1.01870(17) 0.06134(12)
H18 H 0.7116 1.0561 0.0714
C44 C 0.6239(2) 0.97451(19) 0.11673(12)
C46 C 0.6071(2) 0.89767(18) 0.12130(13)
H20 H 0.6278 0.8709 0.0882
C48 C 0.5615(2) 0.85815(18) 0.17176(12)
C50 C 0.5286(2) 0.89849(19) 0.22017(13)
C52 C 0.5440(2) 0.97520(19) 0.21765(13)
H22 H 0.5222 1.0022 0.2507
C54 C 0.5918(2) 1.01210(19) 0.16633(14)
C56 C 0.5451(2) 0.77328(18) 0.17602(12)
H24 H 0.5586 0.7500 0.2134
C58 C 0.5310(2) 0.63130(19) 0.00064(12)
H27 H 0.4917 0.6819 0.0089
H28 H 0.5185 0.6181 -0.0353
C60 C 0.4901(3) 0.5711(2) 0.04823(14)
H32 H 0.5311 0.5213 0.0416
H33 H 0.4183 0.5668 0.0489
H34 H 0.4949 0.5866 0.0847
C62 C 0.6912(2) 0.93295(18) -0.14421(13)
H37 H 0.6784 0.9105 -0.1768
H38 H 0.6278 0.9322 -0.1137
C64 C 0.7106(3) 1.01609(18) -0.16237(14)
H42 H 0.7277 1.0382 -0.1313
H43 H 0.6488 1.0455 -0.1718
H44 H 0.7679 1.0182 -0.1957
C66 C 0.5859(2) 1.06745(18) 0.03596(13)
H47 H 0.5491 1.0326 0.0211
H48 H 0.5358 1.0932 0.0667
C68 C 0.6238(3) 1.1283(2) -0.01137(14)
H52 H 0.6625 1.1622 0.0024
H53 H 0.5649 1.1587 -0.0234
H54 H 0.6685 1.1033 -0.0436
C70 C 0.4322(2) 0.76419(18) 0.17815(13)
H57 H 0.3871 0.8008 0.2036
H58 H 0.4192 0.7781 0.1397
C72 C 0.4037(3) 0.68321(19) 0.19874(14)
H62 H 0.4464 0.6468 0.1730
H63 H 0.3311 0.6816 0.1994
H64 H 0.4151 0.6693 0.2371
C74 C 0.8515(2) 0.72407(19) 0.18820(13)
H68 H 0.8696 0.6685 0.1863
H69 H 0.8557 0.7377 0.2253
H70 H 0.8993 0.7516 0.1582
C76 C 0.6746(3) 0.54507(19) -0.16025(13)
H74 H 0.6323 0.5824 -0.1808
H75 H 0.6437 0.4967 -0.1508
H76 H 0.7438 0.5358 -0.1842
C78 C 1.0692(2) 0.8251(2) -0.08977(15)
H80 H 1.0951 0.8742 -0.0891
H81 H 1.1113 0.7986 -0.1220
H82 H 1.0727 0.7930 -0.0544
C80 C 0.6947(2) 1.10149(19) 0.18176(14)
H86 H 0.6867 1.0862 0.2225
H87 H 0.7049 1.1561 0.1740
H88 H 0.7544 1.0706 0.1605
C82 C 0.9505(2) 0.6374(2) -0.00231(13)
H91 H 0.9765 0.6088 0.0299
H92 H 0.9573 0.6926 -0.0023
C84 C 1.0114(3) 0.6083(2) -0.05713(14)
C86 C 1.0874(3) 0.5479(2) -0.05811(14)
H94 H 1.1022 0.5240 -0.0235
C88 C 1.1429(3) 0.5213(2) -0.10918(15)
H96 H 1.1952 0.4792 -0.1093
C90 C 1.1225(3) 0.5556(2) -0.15936(15)
H98 H 1.1606 0.5380 -0.1944
C92 C 1.0462(3) 0.6159(2) -0.15820(15)
H100 H 1.0313 0.6397 -0.1929
C94 C 0.9905(3) 0.6425(2) -0.10777(14)
H102 H 0.9380 0.6843 -0.1078
C96 C 0.8952(2) 0.74776(19) -0.25935(13)
H105 H 0.8510 0.7400 -0.2848
H106 H 0.9181 0.6967 -0.2418
C98 C 0.9864(2) 0.78466(18) -0.29305(13)
C100 C 1.0507(3) 0.8139(2) -0.26635(16)
H108 H 1.0336 0.8145 -0.2263
C102 C 1.1400(3) 0.8423(2) -0.29809(18)
H110 H 1.1840 0.8621 -0.2796
C104 C 1.1649(3) 0.8418(2) -0.35620(18)
H112 H 1.2262 0.8611 -0.3778
C106 C 1.1010(3) 0.8135(2) -0.38279(16)
H114 H 1.1179 0.8131 -0.4229
C108 C 1.0118(3) 0.7853(2) -0.35100(14)
H116 H 0.9675 0.7661 -0.3697
C110 C 0.9506(2) 0.9276(2) 0.09833(13)
H119 H 1.0126 0.9501 0.0757
H120 H 0.9596 0.8720 0.0935
C112 C 0.9359(3) 0.93964(19) 0.15975(14)
C114 C 0.8551(3) 0.91215(19) 0.20014(15)
H122 H 0.8050 0.8889 0.1886
C116 C 0.8463(3) 0.9181(2) 0.25703(16)
H124 H 0.7917 0.8976 0.2845
C118 C 0.9167(3) 0.9538(2) 0.27392(16)
H126 H 0.9107 0.9584 0.3130
C120 C 0.9955(3) 0.9826(2) 0.23414(17)
H128 H 1.0438 1.0078 0.2457
C122 C 1.0054(3) 0.9754(2) 0.17746(15)
H130 H 1.0609 0.9953 0.1503
C124 C 0.4395(3) 0.8979(2) 0.31783(13)
H133 H 0.3895 0.9417 0.3091
H134 H 0.4951 0.9185 0.3296
C126 C 0.3870(2) 0.8434(2) 0.36504(13)
C128 C 0.3391(3) 0.8725(2) 0.41617(14)
H136 H 0.3388 0.9254 0.4201
C130 C 0.2917(3) 0.8254(3) 0.46151(16)
H138 H 0.2612 0.8459 0.4967
C132 C 0.2883(3) 0.7490(3) 0.45605(17)
H140 H 0.2544 0.7171 0.4871
C134 C 0.3345(3) 0.7193(2) 0.40511(17)
H142 H 0.3329 0.6666 0.4011
C136 C 0.3836(3) 0.7667(2) 0.35960(15)
H144 H 0.4150 0.7461 0.3245
O2 O 0.84519(16) 0.62691(12) 0.00349(8)
O4 O 0.74908(15) 0.74510(12) 0.18056(8)
O6 O 0.83727(16) 0.79477(12) -0.21579(8)
O8 O 0.68033(17) 0.57471(13) -0.10949(8)
O10 O 0.86145(16) 0.96438(12) 0.07942(8)
O12 O 0.96478(16) 0.83915(13) -0.09529(9)
O14 O 0.48099(16) 0.85741(12) 0.26904(8)
O16 O 0.60451(16) 1.08917(12) 0.16463(9)
loop_
_geom_bond_atom_site_label_1
_geom_bond_atom_site_label_2
_geom_bond_site_symmetry_1
_geom_bond_site_symmetry_2
C1 C3 1_555 1_555
C2 C4 1_555 1_555
C3 H1 1_555 1_555
C4 H2 1_555 1_555
C5 C3 1_555 1_555
C6 C4 1_555 1_555
C7 C5 1_555 1_555
C8 C6 1_555 1_555
C9 C7 1_555 1_555
H3 C9 1_555 1_555
C10 C8 1_555 1_555
H4 C10 1_555 1_555
C11 C1 1_555 1_555
C12 C2 1_555 1_555
C13 C5 1_555 1_555
H5 C13 1_555 1_555
C14 C6 1_555 1_555
H6 C14 1_555 1_555
C15 C13 1_555 1_555
C16 C14 1_555 1_555
C17 C15 1_555 1_555
H7 C17 1_555 1_555
C18 C16 1_555 1_555
H8 C18 1_555 1_555
C19 C17 1_555 1_555
C20 C18 1_555 1_555
C21 C19 1_555 1_555
C22 C20 1_555 1_555
C23 C21 1_555 1_555
H9 C23 1_555 1_555
C24 C22 1_555 1_555
H10 C24 1_555 1_555
C25 C15 1_555 1_555
C26 C16 1_555 1_555
C27 C19 1_555 1_555
H11 C27 1_555 1_555
C28 C20 1_555 1_555
H12 C28 1_555 1_555
C29 C27 1_555 1_555
C30 C28 1_555 1_555
C31 C29 1_555 1_555
H13 C31 1_555 1_555
C32 C30 1_555 1_555
H14 C32 1_555 1_555
C33 C31 1_555 1_555
C34 C32 1_555 1_555
C35 C33 1_555 1_555
C36 C34 1_555 1_555
C37 C35 1_555 1_555
H15 C37 1_555 1_555
C38 C36 1_555 1_555
H16 C38 1_555 1_555
C39 C29 1_555 1_555
C40 C30 1_555 1_555
C41 C33 1_555 1_555
H17 C41 1_555 1_555
C42 C34 1_555 1_555
H18 C42 1_555 1_555
C43 C41 1_555 1_555
C44 C42 1_555 1_555
C45 C43 1_555 1_555
H19 C45 1_555 1_555
C46 C44 1_555 1_555
H20 C46 1_555 1_555
C47 C45 1_555 1_555
C48 C46 1_555 1_555
C49 C47 1_555 1_555
C50 C48 1_555 1_555
C51 C49 1_555 1_555
H21 C51 1_555 1_555
C52 C50 1_555 1_555
H22 C52 1_555 1_555
C53 C43 1_555 1_555
C54 C44 1_555 1_555
C55 C1 1_555 1_555
H23 C55 1_555 1_555
C56 C2 1_555 1_555
H24 C56 1_555 1_555
C57 C13 1_555 1_555
H25 C57 1_555 1_555
H26 C57 1_555 1_555
C58 C14 1_555 1_555
H27 C58 1_555 1_555
H28 C58 1_555 1_555
C59 C57 1_555 1_555
H29 C59 1_555 1_555
H30 C59 1_555 1_555
H31 C59 1_555 1_555
C60 C58 1_555 1_555
H32 C60 1_555 1_555
H33 C60 1_555 1_555
H34 C60 1_555 1_555
C61 C27 1_555 1_555
H35 C61 1_555 1_555
H36 C61 1_555 1_555
C62 C28 1_555 1_555
H37 C62 1_555 1_555
H38 C62 1_555 1_555
C63 C61 1_555 1_555
H39 C63 1_555 1_555
H40 C63 1_555 1_555
H41 C63 1_555 1_555
C64 C62 1_555 1_555
H42 C64 1_555 1_555
H43 C64 1_555 1_555
H44 C64 1_555 1_555
C65 C41 1_555 1_555
H45 C65 1_555 1_555
H46 C65 1_555 1_555
C66 C42 1_555 1_555
H47 C66 1_555 1_555
H48 C66 1_555 1_555
C67 C65 1_555 1_555
H49 C67 1_555 1_555
H50 C67 1_555 1_555
H51 C67 1_555 1_555
C68 C66 1_555 1_555
H52 C68 1_555 1_555
H53 C68 1_555 1_555
H54 C68 1_555 1_555
C69 C55 1_555 1_555
H55 C69 1_555 1_555
H56 C69 1_555 1_555
C70 C56 1_555 1_555
H57 C70 1_555 1_555
H58 C70 1_555 1_555
C71 C69 1_555 1_555
H59 C71 1_555 1_555
H60 C71 1_555 1_555
H61 C71 1_555 1_555
C72 C70 1_555 1_555
H62 C72 1_555 1_555
H63 C72 1_555 1_555
H64 C72 1_555 1_555
C73 H65 1_555 1_555
H66 C73 1_555 1_555
H67 C73 1_555 1_555
C74 H68 1_555 1_555
H69 C74 1_555 1_555
H70 C74 1_555 1_555
C75 H71 1_555 1_555
H72 C75 1_555 1_555
H73 C75 1_555 1_555
C76 H74 1_555 1_555
H75 C76 1_555 1_555
H76 C76 1_555 1_555
C77 H77 1_555 1_555
H78 C77 1_555 1_555
H79 C77 1_555 1_555
C78 H80 1_555 1_555
H81 C78 1_555 1_555
H82 C78 1_555 1_555
C79 H83 1_555 1_555
H84 C79 1_555 1_555
H85 C79 1_555 1_555
C80 H86 1_555 1_555
H87 C80 1_555 1_555
H88 C80 1_555 1_555
C81 H89 1_555 1_555
H90 C81 1_555 1_555
C82 H91 1_555 1_555
H92 C82 1_555 1_555
C83 C81 1_555 1_555
C84 C82 1_555 1_555
C85 C83 1_555 1_555
H93 C85 1_555 1_555
C86 C84 1_555 1_555
H94 C86 1_555 1_555
C87 C85 1_555 1_555
H95 C87 1_555 1_555
C88 C86 1_555 1_555
H96 C88 1_555 1_555
C89 C87 1_555 1_555
H97 C89 1_555 1_555
C90 C88 1_555 1_555
H98 C90 1_555 1_555
C91 C89 1_555 1_555
H99 C91 1_555 1_555
C92 C90 1_555 1_555
H100 C92 1_555 1_555
C93 C83 1_555 1_555
H101 C93 1_555 1_555
C94 C84 1_555 1_555
H102 C94 1_555 1_555
C95 H103 1_555 1_555
H104 C95 1_555 1_555
C96 H105 1_555 1_555
H106 C96 1_555 1_555
C97 C95 1_555 1_555
C98 C96 1_555 1_555
C99 C97 1_555 1_555
H107 C99 1_555 1_555
C100 C98 1_555 1_555
H108 C100 1_555 1_555
C101 C99 1_555 1_555
H109 C101 1_555 1_555
C102 C100 1_555 1_555
H110 C102 1_555 1_555
C103 C101 1_555 1_555
H111 C103 1_555 1_555
C104 C102 1_555 1_555
H112 C104 1_555 1_555
C105 C103 1_555 1_555
H113 C105 1_555 1_555
C106 C104 1_555 1_555
H114 C106 1_555 1_555
C107 C97 1_555 1_555
H115 C107 1_555 1_555
C108 C98 1_555 1_555
H116 C108 1_555 1_555
C109 H117 1_555 1_555
H118 C109 1_555 1_555
C110 H119 1_555 1_555
H120 C110 1_555 1_555
C111 C109 1_555 1_555
C112 C110 1_555 1_555
C113 C111 1_555 1_555
H121 C113 1_555 1_555
C114 C112 1_555 1_555
H122 C114 1_555 1_555
C115 C113 1_555 1_555
H123 C115 1_555 1_555
C116 C114 1_555 1_555
H124 C116 1_555 1_555
C117 C115 1_555 1_555
H125 C117 1_555 1_555
C118 C116 1_555 1_555
H126 C118 1_555 1_555
C119 C117 1_555 1_555
H127 C119 1_555 1_555
C120 C118 1_555 1_555
H128 C120 1_555 1_555
C121 C111 1_555 1_555
H129 C121 1_555 1_555
C122 C112 1_555 1_555
H130 C122 1_555 1_555
C123 H131 1_555 1_555
H132 C123 1_555 1_555
C124 H133 1_555 1_555
H134 C124 1_555 1_555
C125 C123 1_555 1_555
C126 C124 1_555 1_555
C127 C125 1_555 1_555
H135 C127 1_555 1_555
C128 C126 1_555 1_555
H136 C128 1_555 1_555
C129 C127 1_555 1_555
H137 C129 1_555 1_555
C130 C128 1_555 1_555
H138 C130 1_555 1_555
C131 C129 1_555 1_555
H139 C131 1_555 1_555
C132 C130 1_555 1_555
H140 C132 1_555 1_555
C133 C131 1_555 1_555
H141 C133 1_555 1_555
C134 C132 1_555 1_555
H142 C134 1_555 1_555
C135 C125 1_555 1_555
H143 C135 1_555 1_555
C136 C126 1_555 1_555
H144 C136 1_555 1_555
O1 C7 1_555 1_555
O2 C8 1_555 1_555
O3 C11 1_555 1_555
O4 C12 1_555 1_555
O5 C21 1_555 1_555
O6 C22 1_555 1_555
O7 C25 1_555 1_555
O8 C26 1_555 1_555
O9 C35 1_555 1_555
O10 C36 1_555 1_555
O11 C39 1_555 1_555
O12 C40 1_555 1_555
O13 C49 1_555 1_555
O14 C50 1_555 1_555
O15 C53 1_555 1_555
O16 C54 1_555 1_555
C9 C11 1_555 1_555
C10 C12 1_555 1_555
C23 C25 1_555 1_555
C24 C26 1_555 1_555
C37 C39 1_555 1_555
C38 C40 1_555 1_555
C47 C55 1_555 1_555
C48 C56 1_555 1_555
C51 C53 1_555 1_555
C52 C54 1_555 1_555
C73 O3 1_555 1_555
C74 O4 1_555 1_555
C75 O7 1_555 1_555
C76 O8 1_555 1_555
C77 O11 1_555 1_555
C78 O12 1_555 1_555
C79 O15 1_555 1_555
C80 O16 1_555 1_555
C81 O1 1_555 1_555
C82 O2 1_555 1_555
C91 C93 1_555 1_555
C92 C94 1_555 1_555
C95 O5 1_555 1_555
C96 O6 1_555 1_555
C105 C107 1_555 1_555
C106 C108 1_555 1_555
C109 O9 1_555 1_555
C110 O10 1_555 1_555
C119 C121 1_555 1_555
C120 C122 1_555 1_555
C123 O13 1_555 1_555
C124 O14 1_555 1_555
C133 C135 1_555 1_555
C134 C136 1_555 1_555

#END
