
#######################################################################
#
#                 Cambridge Crystallographic Data Centre
#                                CCDC 
#
#######################################################################
#
# If this CIF has been generated from an entry in the Cambridge 
# Structural Database, then it will include bibliographic, chemical, 
# crystal, experimental, refinement or atomic coordinate data resulting 
# from the CCDC's data processing and validation procedures.
#
#######################################################################

data_EDUDAL
_chemical_formula_moiety         'C20 H19 Br1 Cl1 N1 O3 S1'
_chemical_name_systematic        
3-(4-bromophenyl)-4-chloro-1-((4-methylphenyl)sulfonyl)hexahydrocyclopenta[b]pyrrol-2(1H)-one
_symmetry_cell_setting           monoclinic
_symmetry_space_group_name_H-M   'P 21/n'
_symmetry_Int_Tables_number      14
_space_group_name_Hall           '-P 2yn'
loop_
_symmetry_equiv_pos_site_id
_symmetry_equiv_pos_as_xyz
1 x,y,z
2 1/2-x,1/2+y,1/2-z
3 -x,-y,-z
4 1/2+x,1/2-y,1/2+z
_cell_length_a                   9.7176(5)
_cell_length_b                   19.3988(10)
_cell_length_c                   11.1404(6)
_cell_angle_alpha                90
_cell_angle_beta                 114.419(2)
_cell_angle_gamma                90
_cell_volume                     1912.22
_exptl_crystal_colour            colorless
_exptl_crystal_description       prism
_cell_formula_units_Z            4
loop_
_atom_site_label
_atom_site_type_symbol
_atom_site_fract_x
_atom_site_fract_y
_atom_site_fract_z
C1 C 0.0766(3) 0.83659(12) 0.5321(2)
C2 C 0.0527(3) 0.90203(12) 0.4757(2)
H1 H -0.0430 0.9142 0.4089
C3 C 0.1696(3) 0.94872(13) 0.5181(2)
H2 H 0.1543 0.9932 0.4789
C4 C 0.3100(3) 0.93218(13) 0.6171(2)
C5 C 0.4371(3) 0.98387(15) 0.6640(3)
H3 H 0.4026 1.0271 0.6151
H4 H 0.5228 0.9656 0.6492
H5 H 0.4684 0.9925 0.7583
C6 C 0.3312(3) 0.86633(13) 0.6720(2)
H6 H 0.4263 0.8545 0.7401
C7 C 0.2170(3) 0.81807(12) 0.6293(2)
H7 H 0.2337 0.7729 0.6655
C8 C -0.0476(3) 0.74302(12) 0.7325(2)
H8 H 0.0642 0.7468 0.7617
C9 C -0.0966(3) 0.66680(13) 0.7240(3)
H9 H -0.1838 0.6573 0.6394
H10 H -0.0125 0.6356 0.7324
C10 C -0.1403(3) 0.65762(14) 0.8402(3)
H11 H -0.2161 0.6205 0.8223
H12 H -0.0506 0.6465 0.9220
C11 C -0.2058(3) 0.72653(14) 0.8515(2)
H13 H -0.2070 0.7320 0.9403
C12 C -0.0975(3) 0.77803(12) 0.8329(2)
H14 H -0.0070 0.7833 0.9185
C13 C -0.1560(3) 0.84969(12) 0.7787(2)
H15 H -0.2478 0.8612 0.7941
C14 C -0.0414(3) 0.90804(12) 0.8272(2)
C15 C -0.0920(3) 0.97573(13) 0.8164(2)
H16 H -0.1974 0.9844 0.7842
C16 C 0.0074(3) 1.03069(14) 0.8514(2)
H17 H -0.0290 1.0766 0.8437
C17 C 0.1604(3) 1.01783(13) 0.8977(2)
C18 C 0.2146(3) 0.95169(14) 0.9088(3)
H18 H 0.3201 0.9435 0.9403
C19 C 0.1137(3) 0.89675(13) 0.8736(3)
H19 H 0.1509 0.8509 0.8813
C20 C -0.1971(3) 0.84363(12) 0.6309(2)
N1 N -0.1296(2) 0.78354(9) 0.60961(18)
O1 O -0.19544(19) 0.80140(9) 0.36920(16)
O2 O -0.0183(2) 0.70916(9) 0.49415(18)
O3 O -0.2686(2) 0.88468(9) 0.54753(16)
S1 S -0.07408(7) 0.77786(3) 0.48634(6)
Cl1 Cl -0.39601(7) 0.73421(3) 0.72122(7)
Br1 Br 0.29759(3) 1.093363(15) 0.94495(3)
loop_
_geom_bond_atom_site_label_1
_geom_bond_atom_site_label_2
_geom_bond_site_symmetry_1
_geom_bond_site_symmetry_2
C1 C2 1_555 1_555
C2 H1 1_555 1_555
C3 C2 1_555 1_555
H2 C3 1_555 1_555
C4 C3 1_555 1_555
C5 C4 1_555 1_555
H3 C5 1_555 1_555
H4 C5 1_555 1_555
H5 C5 1_555 1_555
C6 C4 1_555 1_555
H6 C6 1_555 1_555
C7 C1 1_555 1_555
H7 C7 1_555 1_555
C8 H8 1_555 1_555
C9 C8 1_555 1_555
H9 C9 1_555 1_555
H10 C9 1_555 1_555
C10 C9 1_555 1_555
H11 C10 1_555 1_555
H12 C10 1_555 1_555
C11 C10 1_555 1_555
H13 C11 1_555 1_555
C12 C8 1_555 1_555
H14 C12 1_555 1_555
C13 C12 1_555 1_555
H15 C13 1_555 1_555
C14 C13 1_555 1_555
C15 C14 1_555 1_555
H16 C15 1_555 1_555
C16 C15 1_555 1_555
H17 C16 1_555 1_555
C17 C16 1_555 1_555
C18 C17 1_555 1_555
H18 C18 1_555 1_555
C19 C14 1_555 1_555
H19 C19 1_555 1_555
C20 C13 1_555 1_555
N1 C8 1_555 1_555
O1 S1 1_555 1_555
O2 S1 1_555 1_555
O3 C20 1_555 1_555
S1 C1 1_555 1_555
Cl1 C11 1_555 1_555
Br1 C17 1_555 1_555
C6 C7 1_555 1_555
C11 C12 1_555 1_555
C18 C19 1_555 1_555
C20 N1 1_555 1_555
N1 S1 1_555 1_555

#END
