
#######################################################################
#
#                 Cambridge Crystallographic Data Centre
#                                CCDC 
#
#######################################################################
#
# If this CIF has been generated from an entry in the Cambridge 
# Structural Database, then it will include bibliographic, chemical, 
# crystal, experimental, refinement or atomic coordinate data resulting 
# from the CCDC's data processing and validation procedures.
#
#######################################################################

data_EDUDOZ
_chemical_formula_moiety         'C15 H18 Cl1 N1 O3 S1'
_chemical_name_systematic        
4-chloro-3-methyl-1-((4-methylphenyl)sulfonyl)hexahydrocyclopenta[b]pyrrol-2(1H)-one
_symmetry_cell_setting           monoclinic
_symmetry_space_group_name_H-M   'P 21/n'
_symmetry_Int_Tables_number      14
_space_group_name_Hall           '-P 2yn'
loop_
_symmetry_equiv_pos_site_id
_symmetry_equiv_pos_as_xyz
1 x,y,z
2 1/2-x,1/2+y,1/2-z
3 -x,-y,-z
4 1/2+x,1/2-y,1/2+z
_cell_length_a                   8.036(2)
_cell_length_b                   17.700(4)
_cell_length_c                   10.630(3)
_cell_angle_alpha                90
_cell_angle_beta                 90.073(13)
_cell_angle_gamma                90
_cell_volume                     1511.98
_exptl_crystal_colour            colorless
_exptl_crystal_description       prism
_cell_formula_units_Z            4
loop_
_atom_site_label
_atom_site_type_symbol
_atom_site_fract_x
_atom_site_fract_y
_atom_site_fract_z
C1 C 0.1685(12) 0.0819(6) 0.1927(9)
C2 C 0.1388(15) 0.0117(6) 0.1453(9)
H1 H 0.0280 -0.0025 0.1252
C3 C 0.2659(16) -0.0390(6) 0.1260(9)
H2 H 0.2432 -0.0870 0.0897
C4 C 0.4307(13) -0.0196(6) 0.1603(8)
C5 C 0.5721(15) -0.0735(7) 0.1440(11)
H3 H 0.6721 -0.0527 0.1840
H4 H 0.5930 -0.0812 0.0541
H5 H 0.5440 -0.1219 0.1833
C6 C 0.4589(14) 0.0517(6) 0.2103(9)
H6 H 0.5689 0.0657 0.2333
C7 C 0.3301(13) 0.1031(6) 0.2276(9)
H7 H 0.3513 0.1516 0.2624
C8 C -0.1178(13) 0.0779(5) 0.4190(9)
C9 C -0.1899(12) 0.0988(5) 0.5473(9)
H8 H -0.1656 0.0581 0.6098
C10 C -0.0389(14) 0.2069(5) 0.4604(9)
H9 H -0.1137 0.2485 0.4311
C11 C -0.1022(13) 0.1711(6) 0.5845(9)
H10 H -0.1798 0.2060 0.6293
C12 C 0.0571(13) 0.1563(6) 0.6643(8)
H11 H 0.0636 0.1017 0.6877
C13 C 0.2029(13) 0.1771(6) 0.5804(9)
H12 H 0.2444 0.1322 0.5348
H13 H 0.2951 0.1986 0.6309
C14 C 0.1349(13) 0.2356(5) 0.4888(11)
H14 H 0.2032 0.2378 0.4114
H15 H 0.1314 0.2864 0.5277
C15 C -0.3818(13) 0.1095(6) 0.5326(11)
H16 H -0.4040 0.1496 0.4714
H17 H -0.4299 0.1233 0.6140
H18 H -0.4318 0.0622 0.5032
N1 N -0.0414(10) 0.1413(4) 0.3719(7)
O1 O 0.0644(9) 0.2228(4) 0.2035(6)
O2 O -0.1353(9) 0.1234(4) 0.1454(7)
O3 O -0.1339(9) 0.0189(4) 0.3651(6)
S1 S 0.0067(4) 0.14773(14) 0.2174(2)
Cl1 Cl 0.0562(4) 0.21445(18) 0.8056(3)
loop_
_geom_bond_atom_site_label_1
_geom_bond_atom_site_label_2
_geom_bond_site_symmetry_1
_geom_bond_site_symmetry_2
C1 C2 1_555 1_555
C2 H1 1_555 1_555
C3 C2 1_555 1_555
H2 C3 1_555 1_555
C4 C3 1_555 1_555
C5 C4 1_555 1_555
H3 C5 1_555 1_555
H4 C5 1_555 1_555
H5 C5 1_555 1_555
C6 C4 1_555 1_555
H6 C6 1_555 1_555
C7 C1 1_555 1_555
H7 C7 1_555 1_555
C8 C9 1_555 1_555
C9 H8 1_555 1_555
C10 H9 1_555 1_555
C11 C9 1_555 1_555
H10 C11 1_555 1_555
C12 C11 1_555 1_555
H11 C12 1_555 1_555
C13 C12 1_555 1_555
H12 C13 1_555 1_555
H13 C13 1_555 1_555
C14 C10 1_555 1_555
H14 C14 1_555 1_555
H15 C14 1_555 1_555
C15 C9 1_555 1_555
H16 C15 1_555 1_555
H17 C15 1_555 1_555
H18 C15 1_555 1_555
N1 C8 1_555 1_555
O1 S1 1_555 1_555
O2 S1 1_555 1_555
O3 C8 1_555 1_555
S1 C1 1_555 1_555
Cl1 C12 1_555 1_555
C6 C7 1_555 1_555
C10 C11 1_555 1_555
C10 N1 1_555 1_555
C13 C14 1_555 1_555
N1 S1 1_555 1_555

#END
