
#######################################################################
#
#                 Cambridge Crystallographic Data Centre
#                                CCDC 
#
#######################################################################
#
# If this CIF has been generated from an entry in the Cambridge 
# Structural Database, then it will include bibliographic, chemical, 
# crystal, experimental, refinement or atomic coordinate data resulting 
# from the CCDC's data processing and validation procedures.
#
#######################################################################

data_EDUDIT
_chemical_formula_moiety         'C21 H22 Cl1 N1 O3 S1'
_chemical_name_systematic        
4-chloro-3-(2-methylphenyl)-1-((4-methylphenyl)sulfonyl)hexahydrocyclopenta[b]pyrrol-2(1H)-one
_symmetry_cell_setting           monoclinic
_symmetry_space_group_name_H-M   'C 2/c'
_symmetry_Int_Tables_number      15
_space_group_name_Hall           '-C 2yn'
loop_
_symmetry_equiv_pos_site_id
_symmetry_equiv_pos_as_xyz
1 x,y,z
2 -x,y,1/2-z
3 1/2+x,1/2+y,z
4 1/2-x,1/2+y,1/2-z
5 -x,-y,-z
6 x,-y,1/2+z
7 1/2-x,1/2-y,-z
8 1/2+x,1/2-y,1/2+z
_cell_length_a                   16.1754(6)
_cell_length_b                   9.0372(4)
_cell_length_c                   27.3913(11)
_cell_angle_alpha                90
_cell_angle_beta                 106.0180(10)
_cell_angle_gamma                90
_cell_volume                     3848.61
_exptl_crystal_colour            colorless
_exptl_crystal_description       prism
_cell_formula_units_Z            8
loop_
_atom_site_label
_atom_site_type_symbol
_atom_site_fract_x
_atom_site_fract_y
_atom_site_fract_z
C1 C 0.11473(13) 0.8622(2) 0.05554(7)
C2 C 0.04597(14) 0.9012(3) 0.07392(8)
H1 H 0.0531 0.9716 0.1005
C3 C -0.03310(14) 0.8358(3) 0.05292(9)
H2 H -0.0802 0.8613 0.0657
C4 C -0.04555(13) 0.7334(2) 0.01345(8)
C5 C -0.13201(14) 0.6637(3) -0.00811(9)
H3 H -0.1293 0.5951 -0.0354
H4 H -0.1747 0.7408 -0.0218
H5 H -0.1486 0.6094 0.0187
C6 C 0.02471(14) 0.6981(2) -0.00415(8)
H6 H 0.0176 0.6287 -0.0310
C7 C 0.10467(13) 0.7608(2) 0.01626(7)
H7 H 0.1519 0.7351 0.0036
C8 C 0.24487(12) 0.8530(2) 0.17944(7)
C9 C 0.31278(11) 0.7689(2) 0.21878(7)
H8 H 0.2834 0.6819 0.2292
C10 C 0.35450(11) 0.8551(2) 0.26695(7)
C11 C 0.38282(12) 1.0022(2) 0.26704(8)
C12 C 0.37373(14) 1.0904(2) 0.21933(9)
C13 C 0.42197(13) 1.0682(2) 0.31394(9)
H9 H 0.4402 1.1683 0.3147
C14 C 0.43481(14) 0.9925(3) 0.35899(9)
H10 H 0.4617 1.0403 0.3902
C15 C 0.40855(13) 0.8469(2) 0.35872(8)
H11 H 0.4183 0.7933 0.3896
C16 C 0.36796(12) 0.7799(2) 0.31292(7)
H12 H 0.3488 0.6805 0.3128
C17 C 0.37622(11) 0.7067(2) 0.19055(7)
H13 H 0.4352 0.7487 0.2047
C18 C 0.37814(12) 0.5370(2) 0.19152(8)
H14 H 0.3682 0.4979 0.2236
C19 C 0.30588(14) 0.4923(2) 0.14559(9)
H15 H 0.2492 0.5014 0.1526
H16 H 0.3134 0.3892 0.1353
C20 C 0.31395(16) 0.6014(3) 0.10485(8)
H17 H 0.2587 0.6113 0.0782
H18 H 0.3589 0.5692 0.0889
C21 C 0.33899(12) 0.7476(2) 0.13341(7)
H19 H 0.3821 0.8030 0.1204
N1 N 0.26379(10) 0.84121(17) 0.13285(6)
O1 O 0.20444(11) 1.08811(16) 0.09945(6)
O2 O 0.26707(10) 0.92043(18) 0.04763(6)
O3 O 0.18333(8) 0.91693(15) 0.18631(5)
S1 S 0.21569(3) 0.94325(6) 0.081940(18)
Cl1 Cl 0.47935(3) 0.47182(6) 0.183509(19)
H20 H 0.3910 1.0389 0.1928
H21 H 0.4098 1.1816 0.2271
H22 H 0.3128 1.1178 0.2022
loop_
_geom_bond_atom_site_label_1
_geom_bond_atom_site_label_2
_geom_bond_site_symmetry_1
_geom_bond_site_symmetry_2
C1 C2 1_555 1_555
C2 H1 1_555 1_555
C3 C2 1_555 1_555
H2 C3 1_555 1_555
C4 C3 1_555 1_555
C5 C4 1_555 1_555
H3 C5 1_555 1_555
H4 C5 1_555 1_555
H5 C5 1_555 1_555
C6 C4 1_555 1_555
H6 C6 1_555 1_555
C7 C1 1_555 1_555
H7 C7 1_555 1_555
C8 C9 1_555 1_555
C9 H8 1_555 1_555
C10 C9 1_555 1_555
C11 C10 1_555 1_555
C12 C11 1_555 1_555
C13 C11 1_555 1_555
H9 C13 1_555 1_555
C14 C13 1_555 1_555
H10 C14 1_555 1_555
C15 C14 1_555 1_555
H11 C15 1_555 1_555
C16 C10 1_555 1_555
H12 C16 1_555 1_555
C17 C9 1_555 1_555
H13 C17 1_555 1_555
C18 C17 1_555 1_555
H14 C18 1_555 1_555
C19 C18 1_555 1_555
H15 C19 1_555 1_555
H16 C19 1_555 1_555
C20 C19 1_555 1_555
H17 C20 1_555 1_555
H18 C20 1_555 1_555
C21 C17 1_555 1_555
H19 C21 1_555 1_555
N1 C8 1_555 1_555
O1 S1 1_555 1_555
O2 S1 1_555 1_555
O3 C8 1_555 1_555
S1 C1 1_555 1_555
Cl1 C18 1_555 1_555
H20 C12 1_555 1_555
H21 C12 1_555 1_555
H22 C12 1_555 1_555
C6 C7 1_555 1_555
C15 C16 1_555 1_555
C20 C21 1_555 1_555
C21 N1 1_555 1_555
N1 S1 1_555 1_555

#END
