
#######################################################################
#
#                 Cambridge Crystallographic Data Centre
#                                CCDC 
#
#######################################################################
#
# If this CIF has been generated from an entry in the Cambridge 
# Structural Database, then it will include bibliographic, chemical, 
# crystal, experimental, refinement or atomic coordinate data resulting 
# from the CCDC's data processing and validation procedures.
#
#######################################################################

data_EDUGAO
_chemical_name_common            
"8,13,18,32-tetrakis(5-(1,3-bis(trimethylsilyl)benzyl))-5,6,10,11,15,16,20,21-octahydro-1,25,27,29-tetrahexyl-2,24:3,23-dimetheno-1H,25H,27H,29H,-bis[1,4]dioxonino[6,5-j:6',5'-j'] benzo[1,2-e:5,4-e']bis[1,4]benzodioxonin acetonitrile solvate"
_chemical_formula_moiety         'C108 H160 O8 Si8,C2 H3 N1'
_chemical_name_systematic        
"2,8,14,20-tetra-n-hexyl-5,10,15,20-tetrakis(3,5-bis(trimethylsilyl)phenyl)-4,24:6,10:12,16:18,22-O,O'- tetraethylenecalix[4]resorcinarene acetonitrile solvate"
_symmetry_cell_setting           triclinic
_symmetry_space_group_name_H-M   'P -1'
_symmetry_Int_Tables_number      2
_space_group_name_Hall           '-P 1'
loop_
_symmetry_equiv_pos_site_id
_symmetry_equiv_pos_as_xyz
1 x,y,z
2 -x,-y,-z
_cell_length_a                   18.880(2)
_cell_length_b                   19.434(2)
_cell_length_c                   20.295(3)
_cell_angle_alpha                117.570(8)
_cell_angle_beta                 90.620(9)
_cell_angle_gamma                112.046(8)
_cell_volume                     5961.97
_exptl_crystal_colour            colorless
_exptl_crystal_description       plate
_cell_formula_units_Z            2
_exptl_crystal_recrystallization_method acetonitrile
loop_
_atom_site_label
_atom_site_type_symbol
_atom_site_fract_x
_atom_site_fract_y
_atom_site_fract_z
Si2 Si 0.2985(8) 0.2085(7) 0.7026(7)
Si3 Si 0.5285(3) 0.4020(3) 0.5955(4)
Si4 Si 0.8866(7) 0.3967(7) 0.5761(7)
Si5 Si 0.9968(5) 0.1292(6) 0.4504(6)
Si6 Si 0.6664(3) 0.3928(3) 0.0434(3)
Si7 Si 0.7055(3) 0.5002(3) 0.3587(3)
Si8 Si -0.0818(7) -0.0134(9) 0.1002(7)
Si9 Si 0.1357(6) 0.3189(6) 0.3106(9)
O1 O 0.5212(6) 0.0746(6) 0.4895(6)
O2 O 0.6655(6) 0.0532(6) 0.4405(7)
O3 O 0.7612(6) 0.1083(6) 0.2427(6)
O4 O 0.6789(6) 0.1724(6) 0.1746(7)
O5 O 0.4286(6) 0.1604(7) 0.1021(7)
O6 O 0.2610(6) 0.0887(7) 0.0999(7)
O7 O 0.1597(6) 0.0110(7) 0.2827(7)
O8 O 0.2668(6) 0.0440(8) 0.4074(7)
C1 C 0.3280(12) 0.0191(13) 0.3919(14)
C2 C 0.3971(11) 0.0648(11) 0.4470(12)
C3 C 0.4573(11) 0.0358(12) 0.4336(12)
C4 C 0.4501(10) -0.0317(11) 0.3646(12)
C5 C 0.3815(11) -0.0725(10) 0.3078(11)
H1 H 0.3781 -0.1238 0.2527
C6 C 0.3167(10) -0.0515(11) 0.3172(12)
C7 C 0.4083(10) 0.1442(12) 0.5199(10)
C8 C 0.3653(10) 0.1410(11) 0.5750(11)
H2 H 0.3270 0.0797 0.5686
C9 C 0.3720(9) 0.2188(12) 0.6398(10)
C10 C 0.4237(10) 0.2957(11) 0.6469(11)
H3 H 0.4327 0.3553 0.6971
C11 C 0.4652(9) 0.2980(11) 0.5896(11)
C12 C 0.4589(9) 0.2220(12) 0.5298(11)
H4 H 0.4951 0.2236 0.4892
C13 C 0.3342(15) 0.3198(12) 0.7871(13)
H5 H 0.3980 0.3491 0.8035
H6 H 0.3099 0.3165 0.8346
H7 H 0.3153 0.3584 0.7723
C14 C 0.298(2) 0.135(2) 0.738(2)
H8 H 0.2864 0.0721 0.6892
H9 H 0.2534 0.1286 0.7703
H10 H 0.3556 0.1615 0.7740
C15 C 0.1998(12) 0.1727(17) 0.6479(15)
H11 H 0.2043 0.2103 0.6203
H12 H 0.1603 0.1819 0.6865
H13 H 0.1770 0.1049 0.6046
C16 C 0.5372(12) 0.4975(11) 0.6887(13)
H14 H 0.4792 0.4955 0.6943
H15 H 0.5747 0.5566 0.6897
H16 H 0.5628 0.4956 0.7359
C17 C 0.6286(10) 0.4099(11) 0.5869(12)
H17 H 0.6546 0.4072 0.6334
H18 H 0.6647 0.4705 0.5898
H19 H 0.6254 0.3566 0.5325
C18 C 0.4801(11) 0.3975(12) 0.5089(11)
H20 H 0.4815 0.3449 0.4566
H21 H 0.5120 0.4580 0.5100
H22 H 0.4195 0.3870 0.5109
C19 C 0.5924(9) 0.1423(10) 0.4944(10)
H23 H 0.5875 0.1464 0.4429
H24 H 0.6006 0.2037 0.5430
C20 C 0.6582(9) 0.1261(10) 0.5031(10)
H25 H 0.6589 0.1180 0.5528
H26 H 0.7107 0.1837 0.5166
C21 C 0.6537(10) 0.0460(10) 0.3707(12)
C22 C 0.7123(9) 0.0876(9) 0.3440(10)
C23 C 0.6984(9) 0.0710(9) 0.2714(10)
C24 C 0.6249(9) 0.0163(9) 0.2229(9)
C25 C 0.5663(9) -0.0232(9) 0.2504(10)
H27 H 0.5086 -0.0656 0.2133
C26 C 0.5772(9) -0.0116(9) 0.3226(10)
C27 C 0.790(2) 0.147(2) 0.400(3)
C28 C 0.812(2) 0.232(2) 0.455(3)
H28 H 0.7681 0.2552 0.4591
C29 C 0.883(2) 0.2897(18) 0.504(2)
C30 C 0.9378(14) 0.2579(16) 0.5018(15)
H29 H 0.9940 0.3003 0.5416
C31 C 0.9232(15) 0.1717(18) 0.4489(17)
C32 C 0.852(2) 0.118(2) 0.402(2)
H30 H 0.8390 0.0514 0.3653
C33 C 0.9913(12) 0.4660(18) 0.6271(18)
H31 H 1.0053 0.4499 0.6688
H32 H 1.0014 0.5333 0.6563
H33 H 1.0285 0.4556 0.5862
C34 C 0.823(2) 0.382(2) 0.6444(17)
H34 H 0.7618 0.3508 0.6161
H35 H 0.8367 0.4439 0.6943
H36 H 0.8354 0.3412 0.6621
C35 C 0.8334(15) 0.4342(17) 0.5302(16)
H37 H 0.8460 0.4194 0.4742
H38 H 0.8530 0.5033 0.5659
H39 H 0.7704 0.4015 0.5241
C36 C 0.975(3) 0.077(3) 0.511(2)
H40 H 0.9446 0.1063 0.5532
H41 H 1.0296 0.0866 0.5397
H42 H 0.9377 0.0087 0.4748
C37 C 1.0952(12) 0.2198(16) 0.4881(19)
H43 H 1.1140 0.2332 0.4431
H44 H 1.1366 0.2031 0.5082
H45 H 1.0933 0.2765 0.5353
C38 C 0.9794(19) 0.0307(15) 0.3617(15)
H46 H 0.9195 -0.0171 0.3488
H47 H 1.0205 0.0058 0.3680
H48 H 0.9877 0.0445 0.3153
C39 C 0.7820(9) 0.1977(10) 0.2648(10)
H49 H 0.8222 0.2147 0.2311
H50 H 0.8133 0.2384 0.3245
C40 C 0.7161(10) 0.2171(11) 0.2555(11)
H51 H 0.6733 0.1969 0.2860
H52 H 0.7369 0.2862 0.2796
C41 C 0.5956(10) 0.1282(10) 0.1516(10)
C42 C 0.5524(9) 0.1694(10) 0.1438(9)
C43 C 0.4742(11) 0.1233(11) 0.1158(10)
C44 C 0.4335(10) 0.0359(10) 0.0938(10)
C45 C 0.4795(9) -0.0019(10) 0.1033(10)
H53 H 0.4510 -0.0689 0.0872
C46 C 0.5614(10) 0.0422(11) 0.1328(10)
C47 C 0.5929(10) 0.2608(12) 0.1638(15)
C48 C 0.6039(9) 0.2790(11) 0.1023(12)
H54 H 0.5806 0.2277 0.0436
C49 C 0.6444(11) 0.3623(16) 0.1197(14)
C50 C 0.6724(10) 0.4273(13) 0.1941(16)
H55 H 0.7053 0.4923 0.2059
C51 C 0.6604(9) 0.4136(11) 0.2547(12)
C52 C 0.6225(10) 0.3277(14) 0.2403(13)
H56 H 0.6166 0.3143 0.2865
C53 C 0.6404(10) 0.2919(11) -0.0520(10)
H57 H 0.6749 0.2588 -0.0494
H58 H 0.6533 0.3090 -0.0961
H59 H 0.5782 0.2499 -0.0656
C54 C 0.6062(12) 0.4487(12) 0.0338(13)
H60 H 0.5441 0.4085 0.0239
H61 H 0.6168 0.4594 -0.0142
H62 H 0.6233 0.5103 0.0860
C55 C 0.7723(10) 0.4639(12) 0.0691(11)
H63 H 0.7844 0.5265 0.1182
H64 H 0.7895 0.4716 0.0210
H65 H 0.8055 0.4355 0.0835
C56 C 0.7126(11) 0.6056(11) 0.3716(13)
H66 H 0.7498 0.6231 0.3360
H67 H 0.7379 0.6556 0.4312
H68 H 0.6542 0.5988 0.3548
C57 C 0.8050(11) 0.5101(12) 0.3827(12)
H69 H 0.8005 0.4554 0.3880
H70 H 0.8377 0.5694 0.4365
H71 H 0.8355 0.5113 0.3376
C58 C 0.6417(13) 0.4691(12) 0.4202(11)
H72 H 0.5802 0.4418 0.3930
H73 H 0.6551 0.5258 0.4759
H74 H 0.6531 0.4216 0.4273
C59 C 0.3969(10) 0.2020(11) 0.1672(12)
H75 H 0.4314 0.2714 0.1969
H76 H 0.3996 0.1797 0.2072
C60 C 0.3140(10) 0.1797(11) 0.1382(11)
H77 H 0.2916 0.2140 0.1861
H78 H 0.3131 0.2028 0.0986
C61 C 0.2604(10) 0.0479(11) 0.1419(11)
C62 C 0.2104(10) 0.0514(11) 0.1932(12)
C63 C 0.2100(10) 0.0111(12) 0.2300(11)
C64 C 0.2539(10) -0.0377(10) 0.2211(10)
C65 C 0.2998(8) -0.0400(10) 0.1671(10)
H79 H 0.3334 -0.0769 0.1562
C66 C 0.3047(9) 0.0020(10) 0.1269(11)
C67 C 0.1513(18) 0.0852(19) 0.2026(19)
C68 C 0.0780(19) 0.0295(19) 0.154(3)
H80 H 0.0645 -0.0374 0.1169
C69 C 0.0185(13) 0.0605(16) 0.154(2)
C70 C 0.044(2) 0.148(2) 0.210(2)
H81 H -0.0009 0.1714 0.2161
C71 C 0.1118(16) 0.2052(16) 0.254(2)
C72 C 0.1695(16) 0.1749(18) 0.248(2)
H82 H 0.2291 0.2202 0.2794
C73 C -0.088(3) -0.1071(19) 0.0074(18)
H83 H -0.0402 -0.0856 -0.0178
H84 H -0.1440 -0.1338 -0.0315
H85 H -0.0849 -0.1562 0.0176
C74 C -0.1280(16) 0.043(2) 0.074(2)
H86 H -0.1287 0.0971 0.1255
H87 H -0.1879 -0.0013 0.0410
H88 H -0.0942 0.0673 0.0397
C75 C -0.1395(18) -0.041(2) 0.1663(17)
H89 H -0.1162 -0.0752 0.1843
H90 H -0.2009 -0.0828 0.1367
H91 H -0.1349 0.0172 0.2163
C76 C 0.187(2) 0.377(2) 0.260(2)
H92 H 0.2386 0.3661 0.2476
H93 H 0.2039 0.4457 0.2971
H94 H 0.1470 0.3532 0.2076
C77 C 0.2161(14) 0.3693(18) 0.3952(14)
H95 H 0.2013 0.3312 0.4233
H96 H 0.2233 0.4342 0.4350
H97 H 0.2706 0.3719 0.3768
C78 C 0.0426(15) 0.324(2) 0.339(2)
H98 H -0.0072 0.2624 0.3014
H99 H 0.0353 0.3748 0.3356
H100 H 0.0455 0.3364 0.3978
C79 C 0.1886(11) 0.0862(12) 0.3560(13)
H101 H 0.1496 0.0757 0.3930
H102 H 0.1878 0.1393 0.3509
C80 C 0.2694(11) 0.1108(11) 0.3923(11)
H103 H 0.3088 0.1169 0.3544
H104 H 0.2909 0.1723 0.4454
C81 C 0.5130(8) -0.0650(8) 0.3465(9)
H105 H 0.5403 -0.0553 0.3996
C82 C 0.4848(9) -0.1588(9) 0.2885(10)
H106 H 0.5354 -0.1734 0.2783
H107 H 0.4554 -0.1714 0.2349
C83 C 0.4279(9) -0.2190(9) 0.3131(10)
H108 H 0.4596 -0.2137 0.3617
H109 H 0.3815 -0.1988 0.3312
C84 C 0.3914(11) -0.3126(12) 0.2484(12)
H110 H 0.4236 -0.3216 0.2032
H111 H 0.3906 -0.3554 0.2693
C85 C 0.3082(18) -0.329(3) 0.220(2)
H112 H 0.3082 -0.2952 0.1900
H113 H 0.2790 -0.3103 0.2670
C86 C 0.269(4) -0.428(3) 0.165(4)
H114 H 0.2982 -0.4479 0.1187
H115 H 0.2657 -0.4629 0.1952
C87 C 0.187(4) -0.437(4) 0.138(4)
H116 H 0.1700 -0.4764 0.0758
H117 H 0.1899 -0.3741 0.1559
H118 H 0.1446 -0.4685 0.1625
C88 C 0.6114(9) -0.0013(9) 0.1395(9)
H119 H 0.6683 0.0291 0.1294
C89 C 0.5768(8) -0.0976(9) 0.0808(9)
H120 H 0.5260 -0.1316 0.0967
H121 H 0.5568 -0.1078 0.0251
C90 C 0.6354(9) -0.1348(9) 0.0751(10)
H122 H 0.6814 -0.1084 0.0502
H123 H 0.6625 -0.1155 0.1322
C91 C 0.5990(10) -0.2298(10) 0.0281(11)
H124 H 0.5700 -0.2494 -0.0285
H125 H 0.5545 -0.2565 0.0541
C92 C 0.6619(10) -0.2678(10) 0.0200(11)
H126 H 0.7048 -0.2428 -0.0082
H127 H 0.6929 -0.2449 0.0769
C93 C 0.6283(15) -0.3625(15) -0.0233(15)
H128 H 0.6740 -0.3826 -0.0187
H129 H 0.5825 -0.3879 0.0023
C94 C 0.5975(16) -0.3970(17) -0.0986(17)
H130 H 0.5700 -0.3593 -0.1046
H131 H 0.5538 -0.4631 -0.1216
H132 H 0.6441 -0.3963 -0.1299
C95 C 0.3483(9) -0.0121(9) 0.0639(10)
H133 H 0.3321 0.0140 0.0319
C96 C 0.3192(8) -0.1090(9) 0.0087(10)
H134 H 0.3543 -0.1191 -0.0342
H135 H 0.3274 -0.1391 0.0402
C97 C 0.2330(9) -0.1520(9) -0.0310(10)
H136 H 0.1989 -0.1329 0.0114
H137 H 0.2262 -0.1305 -0.0706
C98 C 0.2018(9) -0.2494(10) -0.0742(10)
H138 H 0.2099 -0.2708 -0.0348
H139 H 0.2351 -0.2686 -0.1175
C99 C 0.1146(10) -0.2929(12) -0.1126(12)
H140 H 0.0835 -0.2654 -0.0704
H141 H 0.1084 -0.2775 -0.1571
C100 C 0.0753(19) -0.3901(15) -0.148(2)
H142 H 0.0960 -0.4071 -0.1100
H143 H 0.0926 -0.4193 -0.2017
C101 C -0.014(3) -0.427(3) -0.163(3)
H144 H -0.0308 -0.4076 -0.1085
H145 H -0.0382 -0.4968 -0.1967
H146 H -0.0364 -0.4033 -0.1940
C102 C 0.2449(9) -0.0901(10) 0.2598(11)
H147 H 0.1976 -0.0868 0.2897
C103 C 0.2210(9) -0.1849(10) 0.2010(10)
H148 H 0.2681 -0.1898 0.1711
H149 H 0.2147 -0.2203 0.2311
C104 C 0.1464(10) -0.2267(12) 0.1434(11)
H150 H 0.1311 -0.2952 0.1093
H151 H 0.1572 -0.2007 0.1052
C105 C 0.0764(13) -0.2164(15) 0.1748(14)
H152 H 0.0910 -0.1482 0.2101
H153 H 0.0626 -0.2453 0.2107
C106 C -0.0020(18) -0.263(2) 0.1049(19)
H154 H 0.0096 -0.2327 0.0696
H155 H -0.0178 -0.3310 0.0688
C107 C -0.0735(16) -0.2475(19) 0.1485(17)
H156 H -0.0803 -0.2706 0.1888
H157 H -0.0607 -0.1795 0.1793
C108 C -0.1475(16) -0.2988(17) 0.0852(16)
H158 H -0.1419 -0.2704 0.0490
H159 H -0.1981 -0.2975 0.1103
H160 H -0.1555 -0.3651 0.0511
Si2A Si -0.2985(8) -0.2085(7) -0.7026(7)
Si3A Si -0.5285(3) -0.4020(3) -0.5955(4)
Si4A Si -0.8866(7) -0.3967(7) -0.5761(7)
Si5A Si -0.9968(5) -0.1292(6) -0.4504(6)
Si6A Si -0.6664(3) -0.3928(3) -0.0434(3)
Si7A Si -0.7055(3) -0.5002(3) -0.3587(3)
Si8A Si 0.0818(7) 0.0134(9) -0.1002(7)
Si9A Si -0.1357(6) -0.3189(6) -0.3106(9)
O1A O -0.5212(6) -0.0746(6) -0.4895(6)
O2A O -0.6655(6) -0.0532(6) -0.4405(7)
O3A O -0.7612(6) -0.1083(6) -0.2427(6)
O4A O -0.6789(6) -0.1724(6) -0.1746(7)
O5A O -0.4286(6) -0.1604(7) -0.1021(7)
O6A O -0.2610(6) -0.0887(7) -0.0999(7)
O7A O -0.1597(6) -0.0110(7) -0.2827(7)
O8A O -0.2668(6) -0.0440(8) -0.4074(7)
C1A C -0.3280(12) -0.0191(13) -0.3919(14)
C2A C -0.3971(11) -0.0648(11) -0.4470(12)
C3A C -0.4573(11) -0.0358(12) -0.4336(12)
C4A C -0.4501(10) 0.0317(11) -0.3646(12)
C5A C -0.3815(11) 0.0725(10) -0.3078(11)
H1A H -0.3781 0.1238 -0.2527
C6A C -0.3167(10) 0.0515(11) -0.3172(12)
C7A C -0.4083(10) -0.1442(12) -0.5199(10)
C8A C -0.3653(10) -0.1410(11) -0.5750(11)
H2A H -0.3270 -0.0797 -0.5686
C9A C -0.3720(9) -0.2188(12) -0.6398(10)
C10A C -0.4237(10) -0.2957(11) -0.6469(11)
H3A H -0.4327 -0.3553 -0.6971
C11A C -0.4652(9) -0.2980(11) -0.5896(11)
C12A C -0.4589(9) -0.2220(12) -0.5298(11)
H4A H -0.4951 -0.2236 -0.4892
C13A C -0.3342(15) -0.3198(12) -0.7871(13)
H5A H -0.3980 -0.3491 -0.8035
H6A H -0.3099 -0.3165 -0.8346
H7A H -0.3153 -0.3584 -0.7723
C14A C -0.298(2) -0.135(2) -0.738(2)
H8A H -0.2864 -0.0721 -0.6892
H9A H -0.2534 -0.1286 -0.7703
H10A H -0.3556 -0.1615 -0.7740
C15A C -0.1998(12) -0.1727(17) -0.6479(15)
H11A H -0.2043 -0.2103 -0.6203
H12A H -0.1603 -0.1819 -0.6865
H13A H -0.1770 -0.1049 -0.6046
C16A C -0.5372(12) -0.4975(11) -0.6887(13)
H14A H -0.4792 -0.4955 -0.6943
H15A H -0.5747 -0.5566 -0.6897
H16A H -0.5628 -0.4956 -0.7359
C17A C -0.6286(10) -0.4099(11) -0.5869(12)
H17A H -0.6546 -0.4072 -0.6334
H18A H -0.6647 -0.4705 -0.5898
H19A H -0.6254 -0.3566 -0.5325
C18A C -0.4801(11) -0.3975(12) -0.5089(11)
H20A H -0.4815 -0.3449 -0.4566
H21A H -0.5120 -0.4580 -0.5100
H22A H -0.4195 -0.3870 -0.5109
C19A C -0.5924(9) -0.1423(10) -0.4944(10)
H23A H -0.5875 -0.1464 -0.4429
H24A H -0.6006 -0.2037 -0.5430
C20A C -0.6582(9) -0.1261(10) -0.5031(10)
H25A H -0.6589 -0.1180 -0.5528
H26A H -0.7107 -0.1837 -0.5166
C21A C -0.6537(10) -0.0460(10) -0.3707(12)
C22A C -0.7123(9) -0.0876(9) -0.3440(10)
C23A C -0.6984(9) -0.0710(9) -0.2714(10)
C24A C -0.6249(9) -0.0163(9) -0.2229(9)
C25A C -0.5663(9) 0.0232(9) -0.2504(10)
H27A H -0.5086 0.0656 -0.2133
C26A C -0.5772(9) 0.0116(9) -0.3226(10)
C27A C -0.790(2) -0.147(2) -0.400(3)
C28A C -0.812(2) -0.232(2) -0.455(3)
H28A H -0.7681 -0.2552 -0.4591
C29A C -0.883(2) -0.2897(18) -0.504(2)
C30A C -0.9378(14) -0.2579(16) -0.5018(15)
H29A H -0.9940 -0.3003 -0.5416
C31A C -0.9232(15) -0.1717(18) -0.4489(17)
C32A C -0.852(2) -0.118(2) -0.402(2)
H30A H -0.8390 -0.0514 -0.3653
C33A C -0.9913(12) -0.4660(18) -0.6271(18)
H31A H -1.0053 -0.4499 -0.6688
H32A H -1.0014 -0.5333 -0.6563
H33A H -1.0285 -0.4556 -0.5862
C34A C -0.823(2) -0.382(2) -0.6444(17)
H34A H -0.7618 -0.3508 -0.6161
H35A H -0.8367 -0.4439 -0.6943
H36A H -0.8354 -0.3412 -0.6621
C35A C -0.8334(15) -0.4342(17) -0.5302(16)
H37A H -0.8460 -0.4194 -0.4742
H38A H -0.8530 -0.5033 -0.5659
H39A H -0.7704 -0.4015 -0.5241
C36A C -0.975(3) -0.077(3) -0.511(2)
H40A H -0.9446 -0.1063 -0.5532
H41A H -1.0296 -0.0866 -0.5397
H42A H -0.9377 -0.0087 -0.4748
C37A C -1.0952(12) -0.2198(16) -0.4881(19)
H43A H -1.1140 -0.2332 -0.4431
H44A H -1.1366 -0.2031 -0.5082
H45A H -1.0933 -0.2765 -0.5353
C38A C -0.9794(19) -0.0307(15) -0.3617(15)
H46A H -0.9195 0.0171 -0.3488
H47A H -1.0205 -0.0058 -0.3680
H48A H -0.9877 -0.0445 -0.3153
C39A C -0.7820(9) -0.1977(10) -0.2648(10)
H49A H -0.8222 -0.2147 -0.2311
H50A H -0.8133 -0.2384 -0.3245
C40A C -0.7161(10) -0.2171(11) -0.2555(11)
H51A H -0.6733 -0.1969 -0.2860
H52A H -0.7369 -0.2862 -0.2796
C41A C -0.5956(10) -0.1282(10) -0.1516(10)
C42A C -0.5524(9) -0.1694(10) -0.1438(9)
C43A C -0.4742(11) -0.1233(11) -0.1158(10)
C44A C -0.4335(10) -0.0359(10) -0.0938(10)
C45A C -0.4795(9) 0.0019(10) -0.1033(10)
H53A H -0.4510 0.0689 -0.0872
C46A C -0.5614(10) -0.0422(11) -0.1328(10)
C47A C -0.5929(10) -0.2608(12) -0.1638(15)
C48A C -0.6039(9) -0.2790(11) -0.1023(12)
H54A H -0.5806 -0.2277 -0.0436
C49A C -0.6444(11) -0.3623(16) -0.1197(14)
C50A C -0.6724(10) -0.4273(13) -0.1941(16)
H55A H -0.7053 -0.4923 -0.2059
C51A C -0.6604(9) -0.4136(11) -0.2547(12)
C52A C -0.6225(10) -0.3277(14) -0.2403(13)
H56A H -0.6166 -0.3143 -0.2865
C53A C -0.6404(10) -0.2919(11) 0.0520(10)
H57A H -0.6749 -0.2588 0.0494
H58A H -0.6533 -0.3090 0.0961
H59A H -0.5782 -0.2499 0.0656
C54A C -0.6062(12) -0.4487(12) -0.0338(13)
H60A H -0.5441 -0.4085 -0.0239
H61A H -0.6168 -0.4594 0.0142
H62A H -0.6233 -0.5103 -0.0860
C55A C -0.7723(10) -0.4639(12) -0.0691(11)
H63A H -0.7844 -0.5265 -0.1182
H64A H -0.7895 -0.4716 -0.0210
H65A H -0.8055 -0.4355 -0.0835
C56A C -0.7126(11) -0.6056(11) -0.3716(13)
H66A H -0.7498 -0.6231 -0.3360
H67A H -0.7379 -0.6556 -0.4312
H68A H -0.6542 -0.5988 -0.3548
C57A C -0.8050(11) -0.5101(12) -0.3827(12)
H69A H -0.8005 -0.4554 -0.3880
H70A H -0.8377 -0.5694 -0.4365
H71A H -0.8355 -0.5113 -0.3376
C58A C -0.6417(13) -0.4691(12) -0.4202(11)
H72A H -0.5802 -0.4418 -0.3930
H73A H -0.6551 -0.5258 -0.4759
H74A H -0.6531 -0.4216 -0.4273
C59A C -0.3969(10) -0.2020(11) -0.1672(12)
H75A H -0.4314 -0.2714 -0.1969
H76A H -0.3996 -0.1797 -0.2072
C60A C -0.3140(10) -0.1797(11) -0.1382(11)
H77A H -0.2916 -0.2140 -0.1861
H78A H -0.3131 -0.2028 -0.0986
C61A C -0.2604(10) -0.0479(11) -0.1419(11)
C62A C -0.2104(10) -0.0514(11) -0.1932(12)
C63A C -0.2100(10) -0.0111(12) -0.2300(11)
C64A C -0.2539(10) 0.0377(10) -0.2211(10)
C65A C -0.2998(8) 0.0400(10) -0.1671(10)
H79A H -0.3334 0.0769 -0.1562
C66A C -0.3047(9) -0.0020(10) -0.1269(11)
C67A C -0.1513(18) -0.0852(19) -0.2026(19)
C68A C -0.0780(19) -0.0295(19) -0.154(3)
H80A H -0.0645 0.0374 -0.1169
C69A C -0.0185(13) -0.0605(16) -0.154(2)
C70A C -0.044(2) -0.148(2) -0.210(2)
H81A H 0.0009 -0.1714 -0.2161
C71A C -0.1118(16) -0.2052(16) -0.254(2)
C72A C -0.1695(16) -0.1749(18) -0.248(2)
H82A H -0.2291 -0.2202 -0.2794
C73A C 0.088(3) 0.1071(19) -0.0074(18)
H83A H 0.0402 0.0856 0.0178
H84A H 0.1440 0.1338 0.0315
H85A H 0.0849 0.1562 -0.0176
C74A C 0.1280(16) -0.043(2) -0.074(2)
H86A H 0.1287 -0.0971 -0.1255
H87A H 0.1879 0.0013 -0.0410
H88A H 0.0942 -0.0673 -0.0397
C75A C 0.1395(18) 0.041(2) -0.1663(17)
H89A H 0.1162 0.0752 -0.1843
H90A H 0.2009 0.0828 -0.1367
H91A H 0.1349 -0.0172 -0.2163
C76A C -0.187(2) -0.377(2) -0.260(2)
H92A H -0.2386 -0.3661 -0.2476
H93A H -0.2039 -0.4457 -0.2971
H94A H -0.1470 -0.3532 -0.2076
C77A C -0.2161(14) -0.3693(18) -0.3952(14)
H95A H -0.2013 -0.3312 -0.4233
H96A H -0.2233 -0.4342 -0.4350
H97A H -0.2706 -0.3719 -0.3768
C78A C -0.0426(15) -0.324(2) -0.339(2)
H98A H 0.0072 -0.2624 -0.3014
H99A H -0.0353 -0.3748 -0.3356
H100A H -0.0455 -0.3364 -0.3978
C79A C -0.1886(11) -0.0862(12) -0.3560(13)
H101A H -0.1496 -0.0757 -0.3930
H102A H -0.1878 -0.1393 -0.3509
C80A C -0.2694(11) -0.1108(11) -0.3923(11)
H103A H -0.3088 -0.1169 -0.3544
H104A H -0.2909 -0.1723 -0.4454
C81A C -0.5130(8) 0.0650(8) -0.3465(9)
H105A H -0.5403 0.0553 -0.3996
C82A C -0.4848(9) 0.1588(9) -0.2885(10)
H106A H -0.5354 0.1734 -0.2783
H107A H -0.4554 0.1714 -0.2349
C83A C -0.4279(9) 0.2190(9) -0.3131(10)
H108A H -0.4596 0.2137 -0.3617
H109A H -0.3815 0.1988 -0.3312
C84A C -0.3914(11) 0.3126(12) -0.2484(12)
H110A H -0.4236 0.3216 -0.2032
H111A H -0.3906 0.3554 -0.2693
C85A C -0.3082(18) 0.329(3) -0.220(2)
H112A H -0.3082 0.2952 -0.1900
H113A H -0.2790 0.3103 -0.2670
C86A C -0.269(4) 0.428(3) -0.165(4)
H114A H -0.2982 0.4479 -0.1187
H115A H -0.2657 0.4629 -0.1952
C87A C -0.187(4) 0.437(4) -0.138(4)
H116A H -0.1700 0.4764 -0.0758
H117A H -0.1899 0.3741 -0.1559
H118A H -0.1446 0.4685 -0.1625
C88A C -0.6114(9) 0.0013(9) -0.1395(9)
H119A H -0.6683 -0.0291 -0.1294
C89A C -0.5768(8) 0.0976(9) -0.0808(9)
H120A H -0.5260 0.1316 -0.0967
H121A H -0.5568 0.1078 -0.0251
C90A C -0.6354(9) 0.1348(9) -0.0751(10)
H122A H -0.6814 0.1084 -0.0502
H123A H -0.6625 0.1155 -0.1322
C91A C -0.5990(10) 0.2298(10) -0.0281(11)
H124A H -0.5700 0.2494 0.0285
H125A H -0.5545 0.2565 -0.0541
C92A C -0.6619(10) 0.2678(10) -0.0200(11)
H126A H -0.7048 0.2428 0.0082
H127A H -0.6929 0.2449 -0.0769
C93A C -0.6283(15) 0.3625(15) 0.0233(15)
H128A H -0.6740 0.3826 0.0187
H129A H -0.5825 0.3879 -0.0023
C94A C -0.5975(16) 0.3970(17) 0.0986(17)
H130A H -0.5700 0.3593 0.1046
H131A H -0.5538 0.4631 0.1216
H132A H -0.6441 0.3963 0.1299
C95A C -0.3483(9) 0.0121(9) -0.0639(10)
H133A H -0.3321 -0.0140 -0.0319
C96A C -0.3192(8) 0.1090(9) -0.0087(10)
H134A H -0.3543 0.1191 0.0342
H135A H -0.3274 0.1391 -0.0402
C97A C -0.2330(9) 0.1520(9) 0.0310(10)
H136A H -0.1989 0.1329 -0.0114
H137A H -0.2262 0.1305 0.0706
C98A C -0.2018(9) 0.2494(10) 0.0742(10)
H138A H -0.2099 0.2708 0.0348
H139A H -0.2351 0.2686 0.1175
C99A C -0.1146(10) 0.2929(12) 0.1126(12)
H140A H -0.0835 0.2654 0.0704
H141A H -0.1084 0.2775 0.1571
C100A C -0.0753(19) 0.3901(15) 0.148(2)
H142A H -0.0960 0.4071 0.1100
H143A H -0.0926 0.4193 0.2017
C101A C 0.014(3) 0.427(3) 0.163(3)
H144A H 0.0308 0.4076 0.1085
H145A H 0.0382 0.4968 0.1967
H146A H 0.0364 0.4033 0.1940
C102A C -0.2449(9) 0.0901(10) -0.2598(11)
H147A H -0.1976 0.0868 -0.2897
C103A C -0.2210(9) 0.1849(10) -0.2010(10)
H148A H -0.2681 0.1898 -0.1711
H149A H -0.2147 0.2203 -0.2311
C104A C -0.1464(10) 0.2267(12) -0.1434(11)
H150A H -0.1311 0.2952 -0.1093
H151A H -0.1572 0.2007 -0.1052
C105A C -0.0764(13) 0.2164(15) -0.1748(14)
H152A H -0.0910 0.1482 -0.2101
H153A H -0.0626 0.2453 -0.2107
C106A C 0.0020(18) 0.263(2) -0.1049(19)
H154A H -0.0096 0.2327 -0.0696
H155A H 0.0178 0.3310 -0.0688
C107A C 0.0735(16) 0.2475(19) -0.1485(17)
H156A H 0.0803 0.2706 -0.1888
H157A H 0.0607 0.1795 -0.1793
C108A C 0.1475(16) 0.2988(17) -0.0852(16)
H158A H 0.1419 0.2704 -0.0490
H159A H 0.1981 0.2975 -0.1103
H160A H 0.1555 0.3651 -0.0511
N1 N 0.6007(10) 0.2522(10) 0.3894(10)
C143 C 0.5406(12) 0.1966(13) 0.3489(12)
C144 C 0.4700(10) 0.1277(10) 0.3002(10)
H236 H 0.4796 0.0940 0.2434
H237 H 0.4271 0.1518 0.2973
H238 H 0.4481 0.0836 0.3220
Si1? Si 0.3305(15) 0.2302(16) 0.7257(17)
Si10? Si 0.9056(9) 0.4090(10) 0.5583(10)
Si11? Si 1.0144(9) 0.1582(9) 0.4223(9)
Si12? Si -0.0920(11) -0.0381(15) 0.0848(13)
Si13? Si 0.1272(16) 0.3163(15) 0.2512(18)
C109? C 0.060(2) -0.294(4) -0.060(2)
H161? H 0.0677 -0.2289 -0.0196
H162? H 0.0701 -0.3229 -0.0280
C110? C -0.024(2) -0.348(5) -0.112(4)
H163? H -0.0229 -0.3461 -0.1645
H164? H -0.0637 -0.3227 -0.0824
H165? H -0.0440 -0.4148 -0.1252
C111? C 0.118(4) -0.425(5) -0.223(5)
H166? H 0.0970 -0.4137 -0.2658
H167? H 0.1015 -0.4930 -0.2470
H168? H 0.1816 -0.3893 -0.2045
C112? C 0.683(5) -0.399(5) -0.070(5)
H169? H 0.7234 -0.3520 -0.0829
H170? H 0.6472 -0.4580 -0.1234
H171? H 0.7155 -0.4131 -0.0374
C113? C 0.401(3) 0.309(3) 0.821(2)
H172? H 0.4233 0.2753 0.8399
H173? H 0.3700 0.3389 0.8627
H174? H 0.4490 0.3582 0.8169
C114? C 0.275(3) 0.119(2) 0.712(3)
H175? H 0.2294 0.0795 0.6597
H176? H 0.2486 0.1238 0.7603
H177? H 0.3156 0.0901 0.7078
C115? C 0.256(2) 0.272(3) 0.724(3)
H178? H 0.2818 0.3411 0.7628
H179? H 0.2051 0.2406 0.7408
H180? H 0.2386 0.2584 0.6660
C116? C 0.791(2) 0.148(3) 0.391(3)
C117? C 0.855(3) 0.128(2) 0.387(2)
H181? H 0.8475 0.0638 0.3466
C118? C 0.928(2) 0.190(3) 0.434(3)
C119? C 0.937(2) 0.273(3) 0.486(2)
H182? H 0.9942 0.3213 0.5224
C120? C 0.874(3) 0.293(2) 0.490(3)
C121? C 0.801(2) 0.231(3) 0.443(4)
H183? H 0.7514 0.2469 0.4459
C122? C 1.0073(17) 0.483(3) 0.568(3)
H184? H 1.0488 0.4662 0.5878
H185? H 1.0181 0.5490 0.6094
H186? H 1.0148 0.4778 0.5130
C123? C 0.869(4) 0.438(4) 0.650(3)
H187? H 0.8055 0.4132 0.6362
H188? H 0.8950 0.5078 0.6861
H189? H 0.8861 0.4101 0.6793
C124? C 0.883(5) 0.455(5) 0.502(4)
H190? H 0.9096 0.4378 0.4526
H191? H 0.9077 0.5243 0.5377
H192? H 0.8201 0.4284 0.4832
C125? C 1.065(3) 0.174(4) 0.511(2)
H193? H 1.1022 0.2418 0.5496
H194? H 1.1005 0.1380 0.4969
H195? H 1.0211 0.1504 0.5398
C126? C 1.094(3) 0.244(3) 0.411(4)
H196? H 1.0751 0.2399 0.3580
H197? H 1.1473 0.2343 0.4099
H198? H 1.1054 0.3070 0.4590
C127? C 0.993(3) 0.055(2) 0.333(2)
H199? H 1.0204 0.0204 0.3439
H200? H 1.0157 0.0691 0.2892
H201? H 0.9295 0.0166 0.3135
C128? C 0.149(2) 0.086(2) 0.183(3)
C129? C 0.1645(15) 0.173(2) 0.217(2)
H202? H 0.2235 0.2215 0.2466
C130? C 0.1040(18) 0.1962(16) 0.214(2)
C131? C 0.0280(16) 0.133(2) 0.177(3)
H203? H -0.0190 0.1517 0.1745
C132? C 0.0124(19) 0.047(2) 0.142(3)
C133? C 0.073(3) 0.0234(17) 0.145(3)
H204? H 0.0607 -0.0437 0.1182
C134? C -0.088(4) -0.131(4) -0.001(3)
H205? H -0.1463 -0.1829 -0.0286
H206? H -0.0496 -0.1530 0.0161
H207? H -0.0640 -0.1103 -0.0412
C135? C -0.151(3) 0.003(4) 0.054(4)
H208? H -0.1130 0.0664 0.0626
H209? H -0.1952 0.0091 0.0880
H210? H -0.1798 -0.0406 -0.0059
C136? C -0.142(2) -0.085(3) 0.144(3)
H211? H -0.1592 -0.1544 0.1130
H212? H -0.1942 -0.0737 0.1538
H213? H -0.1020 -0.0555 0.1980
C137? C 0.111(4) 0.317(4) 0.160(3)
H214? H 0.1657 0.3597 0.1560
H215? H 0.0659 0.3385 0.1595
H216? H 0.0926 0.2518 0.1119
C138? C 0.214(3) 0.389(4) 0.334(3)
H217? H 0.1935 0.4130 0.3865
H218? H 0.2510 0.4436 0.3276
H219? H 0.2465 0.3545 0.3352
C139? C 0.040(2) 0.332(3) 0.287(3)
H220? H -0.0110 0.2702 0.2610
H221? H 0.0286 0.3744 0.2714
H222? H 0.0520 0.3610 0.3486
H223? H 0.4353 -0.3378 0.2414
H224? H 0.3749 -0.3150 0.1955
C140? C 0.319(3) -0.371(3) 0.262(3)
H225? H 0.2724 -0.3506 0.2612
H226? H 0.3334 -0.3618 0.3181
C141? C 0.289(4) -0.466(2) 0.202(4)
H227? H 0.2405 -0.5047 0.2172
H228? H 0.3355 -0.4869 0.1990
C142? C 0.261(6) -0.476(6) 0.126(4)
H229? H 0.3078 -0.4318 0.1148
H230? H 0.2101 -0.4615 0.1281
H231? H 0.2444 -0.5418 0.0802
H232? H 0.5733 -0.3870 -0.0620
H233? H 0.6150 -0.3861 0.0166
H234? H 0.1053 -0.2599 -0.1407
H235? H 0.0997 -0.3590 -0.1567
loop_
_geom_bond_atom_site_label_1
_geom_bond_atom_site_label_2
_geom_bond_site_symmetry_1
_geom_bond_site_symmetry_2
Si2 C9 1_555 1_555
Si3 C11 1_555 1_555
Si4 C29 1_555 1_555
Si5 C31 1_555 1_555
Si6 C49 1_555 1_555
Si7 C51 1_555 1_555
Si8 C69 1_555 1_555
Si9 C71 1_555 1_555
O1 C3 1_555 1_555
O2 C20 1_555 1_555
O3 C23 1_555 1_555
O4 C40 1_555 1_555
O5 C43 1_555 1_555
O6 C60 1_555 1_555
O7 C63 1_555 1_555
O8 C1 1_555 1_555
C1 C2 1_555 1_555
C2 C3 1_555 1_555
C3 C4 1_555 1_555
C4 C5 1_555 1_555
C5 H1 1_555 1_555
C6 C1 1_555 1_555
C7 C2 1_555 1_555
C8 C7 1_555 1_555
H2 C8 1_555 1_555
C9 C8 1_555 1_555
C10 C9 1_555 1_555
H3 C10 1_555 1_555
C11 C10 1_555 1_555
C12 C7 1_555 1_555
H4 C12 1_555 1_555
C13 Si2 1_555 1_555
H5 C13 1_555 1_555
H6 C13 1_555 1_555
H7 C13 1_555 1_555
C14 Si2 1_555 1_555
H8 C14 1_555 1_555
H9 C14 1_555 1_555
H10 C14 1_555 1_555
C15 Si2 1_555 1_555
H11 C15 1_555 1_555
H12 C15 1_555 1_555
H13 C15 1_555 1_555
C16 Si3 1_555 1_555
H14 C16 1_555 1_555
H15 C16 1_555 1_555
H16 C16 1_555 1_555
C17 Si3 1_555 1_555
H17 C17 1_555 1_555
H18 C17 1_555 1_555
H19 C17 1_555 1_555
C18 Si3 1_555 1_555
H20 C18 1_555 1_555
H21 C18 1_555 1_555
H22 C18 1_555 1_555
C19 O1 1_555 1_555
H23 C19 1_555 1_555
H24 C19 1_555 1_555
C20 C19 1_555 1_555
H25 C20 1_555 1_555
H26 C20 1_555 1_555
C21 O2 1_555 1_555
C22 C21 1_555 1_555
C23 C22 1_555 1_555
C24 C23 1_555 1_555
C25 C24 1_555 1_555
H27 C25 1_555 1_555
C26 C21 1_555 1_555
C27 C22 1_555 1_555
C28 C27 1_555 1_555
H28 C28 1_555 1_555
C29 C28 1_555 1_555
C30 C29 1_555 1_555
H29 C30 1_555 1_555
C31 C30 1_555 1_555
C32 C27 1_555 1_555
H30 C32 1_555 1_555
C33 Si4 1_555 1_555
H31 C33 1_555 1_555
H32 C33 1_555 1_555
H33 C33 1_555 1_555
C34 Si4 1_555 1_555
H34 C34 1_555 1_555
H35 C34 1_555 1_555
H36 C34 1_555 1_555
C35 Si4 1_555 1_555
H37 C35 1_555 1_555
H38 C35 1_555 1_555
H39 C35 1_555 1_555
C36 Si5 1_555 1_555
H40 C36 1_555 1_555
H41 C36 1_555 1_555
H42 C36 1_555 1_555
C37 Si5 1_555 1_555
H43 C37 1_555 1_555
H44 C37 1_555 1_555
H45 C37 1_555 1_555
C38 Si5 1_555 1_555
H46 C38 1_555 1_555
H47 C38 1_555 1_555
H48 C38 1_555 1_555
C39 O3 1_555 1_555
H49 C39 1_555 1_555
H50 C39 1_555 1_555
C40 C39 1_555 1_555
H51 C40 1_555 1_555
H52 C40 1_555 1_555
C41 O4 1_555 1_555
C42 C41 1_555 1_555
C43 C42 1_555 1_555
C44 C43 1_555 1_555
C45 C44 1_555 1_555
H53 C45 1_555 1_555
C46 C41 1_555 1_555
C47 C42 1_555 1_555
C48 C47 1_555 1_555
H54 C48 1_555 1_555
C49 C48 1_555 1_555
C50 C49 1_555 1_555
H55 C50 1_555 1_555
C51 C50 1_555 1_555
C52 C47 1_555 1_555
H56 C52 1_555 1_555
C53 Si6 1_555 1_555
H57 C53 1_555 1_555
H58 C53 1_555 1_555
H59 C53 1_555 1_555
C54 Si6 1_555 1_555
H60 C54 1_555 1_555
H61 C54 1_555 1_555
H62 C54 1_555 1_555
C55 Si6 1_555 1_555
H63 C55 1_555 1_555
H64 C55 1_555 1_555
H65 C55 1_555 1_555
C56 Si7 1_555 1_555
H66 C56 1_555 1_555
H67 C56 1_555 1_555
H68 C56 1_555 1_555
C57 Si7 1_555 1_555
H69 C57 1_555 1_555
H70 C57 1_555 1_555
H71 C57 1_555 1_555
C58 Si7 1_555 1_555
H72 C58 1_555 1_555
H73 C58 1_555 1_555
H74 C58 1_555 1_555
C59 O5 1_555 1_555
H75 C59 1_555 1_555
H76 C59 1_555 1_555
C60 C59 1_555 1_555
H77 C60 1_555 1_555
H78 C60 1_555 1_555
C61 O6 1_555 1_555
C62 C61 1_555 1_555
C63 C62 1_555 1_555
C64 C63 1_555 1_555
C65 C64 1_555 1_555
H79 C65 1_555 1_555
C66 C61 1_555 1_555
C67 C62 1_555 1_555
C68 C67 1_555 1_555
H80 C68 1_555 1_555
C69 C68 1_555 1_555
C70 C69 1_555 1_555
H81 C70 1_555 1_555
C71 C70 1_555 1_555
C72 C67 1_555 1_555
H82 C72 1_555 1_555
C73 Si8 1_555 1_555
H83 C73 1_555 1_555
H84 C73 1_555 1_555
H85 C73 1_555 1_555
C74 Si8 1_555 1_555
H86 C74 1_555 1_555
H87 C74 1_555 1_555
H88 C74 1_555 1_555
C75 Si8 1_555 1_555
H89 C75 1_555 1_555
H90 C75 1_555 1_555
H91 C75 1_555 1_555
C76 Si9 1_555 1_555
H92 C76 1_555 1_555
H93 C76 1_555 1_555
H94 C76 1_555 1_555
C77 Si9 1_555 1_555
H95 C77 1_555 1_555
H96 C77 1_555 1_555
H97 C77 1_555 1_555
C78 Si9 1_555 1_555
H98 C78 1_555 1_555
H99 C78 1_555 1_555
H100 C78 1_555 1_555
C79 O7 1_555 1_555
H101 C79 1_555 1_555
H102 C79 1_555 1_555
C80 O8 1_555 1_555
H103 C80 1_555 1_555
H104 C80 1_555 1_555
C81 C4 1_555 1_555
H105 C81 1_555 1_555
C82 C81 1_555 1_555
H106 C82 1_555 1_555
H107 C82 1_555 1_555
C83 C82 1_555 1_555
H108 C83 1_555 1_555
H109 C83 1_555 1_555
C84 C83 1_555 1_555
H110 C84 1_555 1_555
H111 C84 1_555 1_555
C85 C84 1_555 1_555
H112 C85 1_555 1_555
H113 C85 1_555 1_555
C86 C85 1_555 1_555
H114 C86 1_555 1_555
H115 C86 1_555 1_555
C87 C86 1_555 1_555
H116 C87 1_555 1_555
H117 C87 1_555 1_555
H118 C87 1_555 1_555
C88 C24 1_555 1_555
H119 C88 1_555 1_555
C89 C88 1_555 1_555
H120 C89 1_555 1_555
H121 C89 1_555 1_555
C90 C89 1_555 1_555
H122 C90 1_555 1_555
H123 C90 1_555 1_555
C91 C90 1_555 1_555
H124 C91 1_555 1_555
H125 C91 1_555 1_555
C92 C91 1_555 1_555
H126 C92 1_555 1_555
H127 C92 1_555 1_555
C93 C92 1_555 1_555
H128 C93 1_555 1_555
H129 C93 1_555 1_555
C94 C93 1_555 1_555
H130 C94 1_555 1_555
H131 C94 1_555 1_555
H132 C94 1_555 1_555
C95 C44 1_555 1_555
H133 C95 1_555 1_555
C96 C95 1_555 1_555
H134 C96 1_555 1_555
H135 C96 1_555 1_555
C97 C96 1_555 1_555
H136 C97 1_555 1_555
H137 C97 1_555 1_555
C98 C97 1_555 1_555
H138 C98 1_555 1_555
H139 C98 1_555 1_555
C99 C98 1_555 1_555
H140 C99 1_555 1_555
H141 C99 1_555 1_555
C100 C99 1_555 1_555
H142 C100 1_555 1_555
H143 C100 1_555 1_555
C101 C100 1_555 1_555
H144 C101 1_555 1_555
H145 C101 1_555 1_555
H146 C101 1_555 1_555
C102 C6 1_555 1_555
H147 C102 1_555 1_555
C103 C102 1_555 1_555
H148 C103 1_555 1_555
H149 C103 1_555 1_555
C104 C103 1_555 1_555
H150 C104 1_555 1_555
H151 C104 1_555 1_555
C105 C104 1_555 1_555
H152 C105 1_555 1_555
H153 C105 1_555 1_555
C106 C105 1_555 1_555
H154 C106 1_555 1_555
H155 C106 1_555 1_555
C107 C106 1_555 1_555
H156 C107 1_555 1_555
H157 C107 1_555 1_555
C108 C107 1_555 1_555
H158 C108 1_555 1_555
H159 C108 1_555 1_555
H160 C108 1_555 1_555
N1 C143 1_555 1_555
C143 C144 1_555 1_555
C144 H236 1_555 1_555
H237 C144 1_555 1_555
H238 C144 1_555 1_555
Si2A C9A 1_555 1_555
Si3A C11A 1_555 1_555
Si4A C29A 1_555 1_555
Si5A C31A 1_555 1_555
Si6A C49A 1_555 1_555
Si7A C51A 1_555 1_555
Si8A C69A 1_555 1_555
Si9A C71A 1_555 1_555
O1A C3A 1_555 1_555
O2A C20A 1_555 1_555
O3A C23A 1_555 1_555
O4A C40A 1_555 1_555
O5A C43A 1_555 1_555
O6A C60A 1_555 1_555
O7A C63A 1_555 1_555
O8A C1A 1_555 1_555
C1A C2A 1_555 1_555
C2A C3A 1_555 1_555
C3A C4A 1_555 1_555
C4A C5A 1_555 1_555
C5A H1A 1_555 1_555
C6A C1A 1_555 1_555
C7A C2A 1_555 1_555
C8A C7A 1_555 1_555
H2A C8A 1_555 1_555
C9A C8A 1_555 1_555
C10A C9A 1_555 1_555
H3A C10A 1_555 1_555
C11A C10A 1_555 1_555
C12A C7A 1_555 1_555
H4A C12A 1_555 1_555
C13A Si2A 1_555 1_555
H5A C13A 1_555 1_555
H6A C13A 1_555 1_555
H7A C13A 1_555 1_555
C14A Si2A 1_555 1_555
H8A C14A 1_555 1_555
H9A C14A 1_555 1_555
H10A C14A 1_555 1_555
C15A Si2A 1_555 1_555
H11A C15A 1_555 1_555
H12A C15A 1_555 1_555
H13A C15A 1_555 1_555
C16A Si3A 1_555 1_555
H14A C16A 1_555 1_555
H15A C16A 1_555 1_555
H16A C16A 1_555 1_555
C17A Si3A 1_555 1_555
H17A C17A 1_555 1_555
H18A C17A 1_555 1_555
H19A C17A 1_555 1_555
C18A Si3A 1_555 1_555
H20A C18A 1_555 1_555
H21A C18A 1_555 1_555
H22A C18A 1_555 1_555
C19A O1A 1_555 1_555
H23A C19A 1_555 1_555
H24A C19A 1_555 1_555
C20A C19A 1_555 1_555
H25A C20A 1_555 1_555
H26A C20A 1_555 1_555
C21A O2A 1_555 1_555
C22A C21A 1_555 1_555
C23A C22A 1_555 1_555
C24A C23A 1_555 1_555
C25A C24A 1_555 1_555
H27A C25A 1_555 1_555
C26A C21A 1_555 1_555
C27A C22A 1_555 1_555
C28A C27A 1_555 1_555
H28A C28A 1_555 1_555
C29A C28A 1_555 1_555
C30A C29A 1_555 1_555
H29A C30A 1_555 1_555
C31A C30A 1_555 1_555
C32A C27A 1_555 1_555
H30A C32A 1_555 1_555
C33A Si4A 1_555 1_555
H31A C33A 1_555 1_555
H32A C33A 1_555 1_555
H33A C33A 1_555 1_555
C34A Si4A 1_555 1_555
H34A C34A 1_555 1_555
H35A C34A 1_555 1_555
H36A C34A 1_555 1_555
C35A Si4A 1_555 1_555
H37A C35A 1_555 1_555
H38A C35A 1_555 1_555
H39A C35A 1_555 1_555
C36A Si5A 1_555 1_555
H40A C36A 1_555 1_555
H41A C36A 1_555 1_555
H42A C36A 1_555 1_555
C37A Si5A 1_555 1_555
H43A C37A 1_555 1_555
H44A C37A 1_555 1_555
H45A C37A 1_555 1_555
C38A Si5A 1_555 1_555
H46A C38A 1_555 1_555
H47A C38A 1_555 1_555
H48A C38A 1_555 1_555
C39A O3A 1_555 1_555
H49A C39A 1_555 1_555
H50A C39A 1_555 1_555
C40A C39A 1_555 1_555
H51A C40A 1_555 1_555
H52A C40A 1_555 1_555
C41A O4A 1_555 1_555
C42A C41A 1_555 1_555
C43A C42A 1_555 1_555
C44A C43A 1_555 1_555
C45A C44A 1_555 1_555
H53A C45A 1_555 1_555
C46A C41A 1_555 1_555
C47A C42A 1_555 1_555
C48A C47A 1_555 1_555
H54A C48A 1_555 1_555
C49A C48A 1_555 1_555
C50A C49A 1_555 1_555
H55A C50A 1_555 1_555
C51A C50A 1_555 1_555
C52A C47A 1_555 1_555
H56A C52A 1_555 1_555
C53A Si6A 1_555 1_555
H57A C53A 1_555 1_555
H58A C53A 1_555 1_555
H59A C53A 1_555 1_555
C54A Si6A 1_555 1_555
H60A C54A 1_555 1_555
H61A C54A 1_555 1_555
H62A C54A 1_555 1_555
C55A Si6A 1_555 1_555
H63A C55A 1_555 1_555
H64A C55A 1_555 1_555
H65A C55A 1_555 1_555
C56A Si7A 1_555 1_555
H66A C56A 1_555 1_555
H67A C56A 1_555 1_555
H68A C56A 1_555 1_555
C57A Si7A 1_555 1_555
H69A C57A 1_555 1_555
H70A C57A 1_555 1_555
H71A C57A 1_555 1_555
C58A Si7A 1_555 1_555
H72A C58A 1_555 1_555
H73A C58A 1_555 1_555
H74A C58A 1_555 1_555
C59A O5A 1_555 1_555
H75A C59A 1_555 1_555
H76A C59A 1_555 1_555
C60A C59A 1_555 1_555
H77A C60A 1_555 1_555
H78A C60A 1_555 1_555
C61A O6A 1_555 1_555
C62A C61A 1_555 1_555
C63A C62A 1_555 1_555
C64A C63A 1_555 1_555
C65A C64A 1_555 1_555
H79A C65A 1_555 1_555
C66A C61A 1_555 1_555
C67A C62A 1_555 1_555
C68A C67A 1_555 1_555
H80A C68A 1_555 1_555
C69A C68A 1_555 1_555
C70A C69A 1_555 1_555
H81A C70A 1_555 1_555
C71A C70A 1_555 1_555
C72A C67A 1_555 1_555
H82A C72A 1_555 1_555
C73A Si8A 1_555 1_555
H83A C73A 1_555 1_555
H84A C73A 1_555 1_555
H85A C73A 1_555 1_555
C74A Si8A 1_555 1_555
H86A C74A 1_555 1_555
H87A C74A 1_555 1_555
H88A C74A 1_555 1_555
C75A Si8A 1_555 1_555
H89A C75A 1_555 1_555
H90A C75A 1_555 1_555
H91A C75A 1_555 1_555
C76A Si9A 1_555 1_555
H92A C76A 1_555 1_555
H93A C76A 1_555 1_555
H94A C76A 1_555 1_555
C77A Si9A 1_555 1_555
H95A C77A 1_555 1_555
H96A C77A 1_555 1_555
H97A C77A 1_555 1_555
C78A Si9A 1_555 1_555
H98A C78A 1_555 1_555
H99A C78A 1_555 1_555
H100A C78A 1_555 1_555
C79A O7A 1_555 1_555
H101A C79A 1_555 1_555
H102A C79A 1_555 1_555
C80A O8A 1_555 1_555
H103A C80A 1_555 1_555
H104A C80A 1_555 1_555
C81A C4A 1_555 1_555
H105A C81A 1_555 1_555
C82A C81A 1_555 1_555
H106A C82A 1_555 1_555
H107A C82A 1_555 1_555
C83A C82A 1_555 1_555
H108A C83A 1_555 1_555
H109A C83A 1_555 1_555
C84A C83A 1_555 1_555
H110A C84A 1_555 1_555
H111A C84A 1_555 1_555
C85A C84A 1_555 1_555
H112A C85A 1_555 1_555
H113A C85A 1_555 1_555
C86A C85A 1_555 1_555
H114A C86A 1_555 1_555
H115A C86A 1_555 1_555
C87A C86A 1_555 1_555
H116A C87A 1_555 1_555
H117A C87A 1_555 1_555
H118A C87A 1_555 1_555
C88A C24A 1_555 1_555
H119A C88A 1_555 1_555
C89A C88A 1_555 1_555
H120A C89A 1_555 1_555
H121A C89A 1_555 1_555
C90A C89A 1_555 1_555
H122A C90A 1_555 1_555
H123A C90A 1_555 1_555
C91A C90A 1_555 1_555
H124A C91A 1_555 1_555
H125A C91A 1_555 1_555
C92A C91A 1_555 1_555
H126A C92A 1_555 1_555
H127A C92A 1_555 1_555
C93A C92A 1_555 1_555
H128A C93A 1_555 1_555
H129A C93A 1_555 1_555
C94A C93A 1_555 1_555
H130A C94A 1_555 1_555
H131A C94A 1_555 1_555
H132A C94A 1_555 1_555
C95A C44A 1_555 1_555
H133A C95A 1_555 1_555
C96A C95A 1_555 1_555
H134A C96A 1_555 1_555
H135A C96A 1_555 1_555
C97A C96A 1_555 1_555
H136A C97A 1_555 1_555
H137A C97A 1_555 1_555
C98A C97A 1_555 1_555
H138A C98A 1_555 1_555
H139A C98A 1_555 1_555
C99A C98A 1_555 1_555
H140A C99A 1_555 1_555
H141A C99A 1_555 1_555
C100A C99A 1_555 1_555
H142A C100A 1_555 1_555
H143A C100A 1_555 1_555
C101A C100A 1_555 1_555
H144A C101A 1_555 1_555
H145A C101A 1_555 1_555
H146A C101A 1_555 1_555
C102A C6A 1_555 1_555
H147A C102A 1_555 1_555
C103A C102A 1_555 1_555
H148A C103A 1_555 1_555
H149A C103A 1_555 1_555
C104A C103A 1_555 1_555
H150A C104A 1_555 1_555
H151A C104A 1_555 1_555
C105A C104A 1_555 1_555
H152A C105A 1_555 1_555
H153A C105A 1_555 1_555
C106A C105A 1_555 1_555
H154A C106A 1_555 1_555
H155A C106A 1_555 1_555
C107A C106A 1_555 1_555
H156A C107A 1_555 1_555
H157A C107A 1_555 1_555
C108A C107A 1_555 1_555
H158A C108A 1_555 1_555
H159A C108A 1_555 1_555
H160A C108A 1_555 1_555
C5 C6 1_555 1_555
C11 C12 1_555 1_555
C25 C26 1_555 1_555
C26 C81 1_555 1_555
C31 C32 1_555 1_555
C45 C46 1_555 1_555
C46 C88 1_555 1_555
C51 C52 1_555 1_555
C64 C102 1_555 1_555
C65 C66 1_555 1_555
C66 C95 1_555 1_555
C71 C72 1_555 1_555
C79 C80 1_555 1_555
C5A C6A 1_555 1_555
C11A C12A 1_555 1_555
C25A C26A 1_555 1_555
C26A C81A 1_555 1_555
C31A C32A 1_555 1_555
C45A C46A 1_555 1_555
C46A C88A 1_555 1_555
C51A C52A 1_555 1_555
C64A C102A 1_555 1_555
C65A C66A 1_555 1_555
C66A C95A 1_555 1_555
C71A C72A 1_555 1_555
C79A C80A 1_555 1_555

#END
