
#######################################################################
#
#                 Cambridge Crystallographic Data Centre
#                                CCDC 
#
#######################################################################
#
# If this CIF has been generated from an entry in the Cambridge 
# Structural Database, then it will include bibliographic, chemical, 
# crystal, experimental, refinement or atomic coordinate data resulting 
# from the CCDC's data processing and validation procedures.
#
#######################################################################

data_EDUHUJ
_chemical_formula_moiety         'C18 H12 N5 O6,0.25(C6 H14),0.25(C7 H8)'
_chemical_name_systematic        
'diphenyl-(2,4,6-trinitrophenyl)iminoazanium radical n-hexane toluene solvate'
_symmetry_cell_setting           triclinic
_symmetry_space_group_name_H-M   'P -1'
_symmetry_Int_Tables_number      2
_space_group_name_Hall           '-P 1'
loop_
_symmetry_equiv_pos_site_id
_symmetry_equiv_pos_as_xyz
1 x,y,z
2 -x,-y,-z
_cell_length_a                   7.3978(3)
_cell_length_b                   13.4780(6)
_cell_length_c                   21.6898(12)
_cell_angle_alpha                77.443(4)
_cell_angle_beta                 82.520(4)
_cell_angle_gamma                77.041(4)
_cell_volume                     2049.59
_exptl_crystal_colour            'metallic dark purple'
_exptl_crystal_description       plate
_cell_formula_units_Z            4
loop_
_atom_site_label
_atom_site_type_symbol
_atom_site_fract_x
_atom_site_fract_y
_atom_site_fract_z
N6 N 0.23170(18) 0.36419(9) 0.88876(6)
N7 N 0.23104(18) 0.27952(10) 0.93427(6)
C19 C 0.3337(2) 0.18714(11) 0.92225(7)
C20 C 0.5116(2) 0.16417(11) 0.88876(7)
C21 C 0.5989(2) 0.06459(12) 0.88230(8)
C22 C 0.5142(2) -0.01712(11) 0.91093(7)
C23 C 0.3450(2) -0.00226(11) 0.94671(7)
C24 C 0.2603(2) 0.09809(11) 0.95066(7)
N8 N 0.62097(19) 0.24426(11) 0.86353(7)
O7 O 0.60727(18) 0.31395(9) 0.89292(7)
O8 O 0.72360(19) 0.23541(11) 0.81502(7)
N9 N 0.6038(2) -0.12224(10) 0.90302(7)
O9 O 0.73247(19) -0.13186(10) 0.86167(7)
O10 O 0.5450(2) -0.19459(9) 0.93795(6)
N10 N 0.07262(19) 0.11429(10) 0.98348(7)
O11 O -0.05717(17) 0.16320(10) 0.95268(6)
O12 O 0.05677(18) 0.07456(10) 1.03955(6)
C25 C 0.2032(2) 0.45961(12) 0.90945(8)
C26 C 0.1106(2) 0.55107(12) 0.87305(9)
C27 C 0.0847(3) 0.64336(13) 0.89446(10)
C28 C 0.1517(3) 0.64522(14) 0.95070(10)
C29 C 0.2424(3) 0.55383(16) 0.98684(10)
C30 C 0.2684(3) 0.46021(13) 0.96686(9)
C31 C 0.2418(2) 0.35905(11) 0.82314(8)
C32 C 0.1534(2) 0.28917(13) 0.80578(8)
C33 C 0.1718(3) 0.27985(15) 0.74301(9)
C34 C 0.2741(3) 0.33971(16) 0.69779(9)
C35 C 0.3581(3) 0.41023(15) 0.71541(9)
C36 C 0.3429(2) 0.42016(13) 0.77818(9)
H13 H 0.7160 0.0527 0.8609
H14 H 0.2905 -0.0566 0.9659
H15 H 0.0663 0.5498 0.8351
H16 H 0.0240 0.7061 0.8699
H17 H 0.1361 0.7079 0.9649
H18 H 0.2859 0.5541 1.0254
H19 H 0.3300 0.3985 0.9904
H20 H 0.0841 0.2499 0.8359
H21 H 0.1153 0.2331 0.7308
H22 H 0.2860 0.3329 0.6555
H23 H 0.4247 0.4506 0.6844
H24 H 0.3987 0.4670 0.7903
C37 C 0.1553(5) 0.6531(3) 0.38108(16)
C38 C 0.1389(4) 0.6002(2) 0.44932(14)
C39 C 0.0137(4) 0.5221(2) 0.46541(13)
H25 H 0.2499 0.6990 0.3734
H26 H 0.0317 0.6961 0.3714
H27 H 0.1898 0.6003 0.3539
H28 H 0.0960 0.6529 0.4779
H29 H 0.2677 0.5587 0.4597
H30 H -0.1122 0.5585 0.4521
H31 H 0.0542 0.4658 0.4414
C37A C -0.1553(5) 0.3469(3) 0.61892(16)
C38A C -0.1389(4) 0.3998(2) 0.55068(14)
C39A C -0.0137(4) 0.4779(2) 0.53459(13)
H25A H -0.2499 0.3010 0.6266
H26A H -0.0317 0.3039 0.6286
H27A H -0.1898 0.3997 0.6461
H28A H -0.0960 0.3471 0.5221
H29A H -0.2677 0.4413 0.5403
H30A H 0.1122 0.4415 0.5479
H31A H -0.0542 0.5342 0.5586
N1 N 0.31789(19) 0.23525(10) 0.35069(7)
N2 N 0.2977(2) 0.13762(11) 0.35622(7)
C1 C 0.1844(2) 0.11849(12) 0.31750(7)
C2 C 0.0143(2) 0.18088(12) 0.29514(8)
C3 C -0.0871(2) 0.15225(12) 0.25552(8)
C4 C -0.0288(2) 0.05575(13) 0.23927(8)
C5 C 0.1289(2) -0.01311(12) 0.26259(8)
C6 C 0.2305(2) 0.02023(12) 0.29958(8)
N3 N -0.0751(2) 0.27613(11) 0.31857(7)
O1 O -0.04998(18) 0.28165(10) 0.37227(6)
O2 O -0.1778(2) 0.34345(10) 0.28356(7)
N4 N -0.1322(2) 0.02787(12) 0.19510(7)
O3 O -0.2685(2) 0.09125(12) 0.17463(8)
O4 O -0.0755(2) -0.05697(11) 0.17976(7)
N5 N 0.4075(2) -0.04945(11) 0.31829(7)
O5 O 0.5498(2) -0.01510(13) 0.30534(9)
O6 O 0.4017(2) -0.13775(11) 0.34482(9)
C7 C 0.3666(2) 0.26088(13) 0.40537(8)
C8 C 0.4836(2) 0.33131(14) 0.39965(9)
C9 C 0.5327(3) 0.35240(16) 0.45406(10)
C10 C 0.4681(3) 0.30463(19) 0.51342(10)
C11 C 0.3524(3) 0.23449(19) 0.51855(10)
C12 C 0.3002(3) 0.21220(16) 0.46494(9)
C13 C 0.3192(2) 0.30597(12) 0.29077(8)
C14 C 0.4060(2) 0.26933(14) 0.23698(8)
C15 C 0.4120(3) 0.33876(17) 0.17966(9)
C16 C 0.3330(3) 0.44266(16) 0.17635(9)
C17 C 0.2442(3) 0.47848(14) 0.22995(10)
C18 C 0.2364(2) 0.41054(13) 0.28753(9)
H1 H -0.1962 0.1976 0.2402
H2 H 0.1673 -0.0801 0.2526
H3 H 0.5284 0.3622 0.3592
H4 H 0.6101 0.4006 0.4507
H5 H 0.5022 0.3185 0.5508
H6 H 0.3113 0.2012 0.5593
H7 H 0.2232 0.1648 0.4675
H8 H 0.4601 0.1985 0.2394
H9 H 0.4716 0.3140 0.1432
H10 H 0.3362 0.4888 0.1381
H11 H 0.1894 0.5479 0.2273
H12 H 0.1755 0.4328 0.3242
C40? C 0.2223(13) 0.9607(9) 0.5651(6)
C41? C 0.0764(5) 0.9784(3) 0.51748(19)
C42? C -0.0801(8) 1.0547(5) 0.5185(3)
C43? C -0.2062(6) 1.0708(4) 0.4743(3)
C44? C -0.1750(9) 1.0105(6) 0.4292(3)
C45? C -0.0196(8) 0.9336(4) 0.4286(2)
C46? C 0.1084(8) 0.9188(5) 0.4720(3)
H32? H 0.2507 0.8885 0.5847
H33? H 0.3337 0.9819 0.5437
H34? H 0.1741 1.0020 0.5972
H35? H -0.0982 1.0961 0.5491
H36? H -0.3129 1.1241 0.4744
H37? H -0.2614 1.0204 0.3990
H38? H 0.0003 0.8912 0.3983
H39? H 0.2182 0.8669 0.4697
loop_
_geom_bond_atom_site_label_1
_geom_bond_atom_site_label_2
_geom_bond_site_symmetry_1
_geom_bond_site_symmetry_2
N1 N2 1_555 1_555
N2 C1 1_555 1_555
C1 C2 1_555 1_555
C2 C3 1_555 1_555
C3 C4 1_555 1_555
C4 C5 1_555 1_555
C5 C6 1_555 1_555
C6 C1 1_555 1_555
N3 C2 1_555 1_555
O1 N3 1_555 1_555
O2 N3 1_555 1_555
N4 C4 1_555 1_555
O3 N4 1_555 1_555
O4 N4 1_555 1_555
N5 C6 1_555 1_555
O5 N5 1_555 1_555
O6 N5 1_555 1_555
C7 N1 1_555 1_555
C8 C7 1_555 1_555
C9 C8 1_555 1_555
C10 C9 1_555 1_555
C11 C10 1_555 1_555
C12 C7 1_555 1_555
C13 N1 1_555 1_555
C14 C13 1_555 1_555
C15 C14 1_555 1_555
C16 C15 1_555 1_555
C17 C16 1_555 1_555
C18 C13 1_555 1_555
H1 C3 1_555 1_555
H2 C5 1_555 1_555
H3 C8 1_555 1_555
H4 C9 1_555 1_555
H5 C10 1_555 1_555
H6 C11 1_555 1_555
H7 C12 1_555 1_555
H8 C14 1_555 1_555
H9 C15 1_555 1_555
H10 C16 1_555 1_555
H11 C17 1_555 1_555
H12 C18 1_555 1_555
N6 N7 1_555 1_555
N7 C19 1_555 1_555
C19 C20 1_555 1_555
C20 C21 1_555 1_555
C21 C22 1_555 1_555
C22 C23 1_555 1_555
C23 C24 1_555 1_555
C24 C19 1_555 1_555
N8 C20 1_555 1_555
O7 N8 1_555 1_555
O8 N8 1_555 1_555
N9 C22 1_555 1_555
O9 N9 1_555 1_555
O10 N9 1_555 1_555
N10 C24 1_555 1_555
O11 N10 1_555 1_555
O12 N10 1_555 1_555
C25 N6 1_555 1_555
C26 C25 1_555 1_555
C27 C26 1_555 1_555
C28 C27 1_555 1_555
C29 C28 1_555 1_555
C30 C25 1_555 1_555
C31 N6 1_555 1_555
C32 C31 1_555 1_555
C33 C32 1_555 1_555
C34 C33 1_555 1_555
C35 C34 1_555 1_555
C36 C31 1_555 1_555
H13 C21 1_555 1_555
H14 C23 1_555 1_555
H15 C26 1_555 1_555
H16 C27 1_555 1_555
H17 C28 1_555 1_555
H18 C29 1_555 1_555
H19 C30 1_555 1_555
H20 C32 1_555 1_555
H21 C33 1_555 1_555
H22 C34 1_555 1_555
H23 C35 1_555 1_555
H24 C36 1_555 1_555
C37 C38 1_555 1_555
C38 C39 1_555 1_555
C39 H30 1_555 1_555
H25 C37 1_555 1_555
H26 C37 1_555 1_555
H27 C37 1_555 1_555
H28 C38 1_555 1_555
H29 C38 1_555 1_555
H31 C39 1_555 1_555
C37A C38A 1_555 1_555
C38A C39A 1_555 1_555
C39A C39 1_555 1_555
H25A C37A 1_555 1_555
H26A C37A 1_555 1_555
H27A C37A 1_555 1_555
H28A C38A 1_555 1_555
H29A C38A 1_555 1_555
H30A C39A 1_555 1_555
H31A C39A 1_555 1_555
C11 C12 1_555 1_555
C17 C18 1_555 1_555
C29 C30 1_555 1_555
C35 C36 1_555 1_555

#END
