
#######################################################################
#
#                 Cambridge Crystallographic Data Centre
#                                CCDC 
#
#######################################################################
#
# If this CIF has been generated from an entry in the Cambridge 
# Structural Database, then it will include bibliographic, chemical, 
# crystal, experimental, refinement or atomic coordinate data resulting 
# from the CCDC's data processing and validation procedures.
#
#######################################################################

data_EDUJAR
_chemical_formula_moiety         'C76 H88 N8 O8,3(C1 H2 Cl2)'
_chemical_name_systematic        
"2,8,14,20-tetra-n-hexyl-5,11,17,23-tetrakis(pyrimidin-5-yl)-4,24:6,10:12,16:18,22-O,O'-tetraethylenecalix(4)resorcinarene dichloromethane solvate"
_symmetry_cell_setting           triclinic
_symmetry_space_group_name_H-M   'P -1'
_symmetry_Int_Tables_number      2
_space_group_name_Hall           '-P 1'
loop_
_symmetry_equiv_pos_site_id
_symmetry_equiv_pos_as_xyz
1 x,y,z
2 -x,-y,-z
_cell_length_a                   12.4360(6)
_cell_length_b                   12.8010(6)
_cell_length_c                   24.3206(13)
_cell_angle_alpha                92.036(2)
_cell_angle_beta                 91.980(3)
_cell_angle_gamma                104.669(2)
_cell_volume                     3739.31
_exptl_crystal_colour            colorless
_exptl_crystal_description       rod
_cell_formula_units_Z            2
loop_
_atom_site_label
_atom_site_type_symbol
_atom_site_fract_x
_atom_site_fract_y
_atom_site_fract_z
Cl1 Cl 1.21392(9) 0.34786(8) 0.44608(4)
Cl2 Cl 1.06089(11) 0.47935(10) 0.42110(6)
C1 C 1.1934(4) 0.4799(3) 0.44909(17)
H1 H 1.2016 0.5107 0.4918
H2 H 1.2571 0.5334 0.4262
Cl3 Cl 0.99098(9) 0.07950(9) 0.44938(5)
Cl4 Cl 0.90029(12) 0.12564(16) 0.34342(5)
C2 C 0.9219(4) 0.1629(4) 0.41384(17)
H3 H 0.8419 0.1581 0.4319
H4 H 0.9712 0.2465 0.4188
Cl5 Cl 1.20707(11) 0.75070(9) 0.21406(5)
Cl6 Cl 1.09120(14) 0.68779(12) 0.10739(6)
C3 C 1.1886(4) 0.6625(4) 0.1552(2)
H5 H 1.2681 0.6719 0.1359
H6 H 1.1611 0.5793 0.1676
O1 O 1.2439(2) 0.02647(18) 0.31789(10)
O2 O 1.2907(2) 0.23378(19) 0.25526(10)
O3 O 1.0433(2) 0.45418(19) 0.21100(10)
O4 O 0.8197(2) 0.41243(18) 0.25479(10)
O5 O 0.54063(19) 0.13729(19) 0.33314(10)
O6 O 0.47824(19) -0.09095(18) 0.35786(10)
O7 O 0.75356(19) -0.28979(19) 0.38224(10)
O8 O 0.9753(2) -0.30170(18) 0.35622(10)
N1 N 1.2580(3) -0.1149(2) 0.47792(12)
N2 N 1.2746(3) -0.2731(3) 0.42812(13)
N3 N 1.3551(3) 0.5764(3) 0.32010(14)
N4 N 1.4044(3) 0.5857(3) 0.22632(15)
N5 N 0.7247(3) 0.4450(2) 0.42586(12)
N6 N 0.5687(3) 0.4763(2) 0.37553(13)
N7 N 0.6225(3) -0.1722(3) 0.52711(12)
N8 N 0.4908(3) -0.3338(3) 0.49285(13)
C4 C 0.9777(3) -0.1108(3) 0.24821(14)
H7 H 0.9266 -0.1011 0.2129
C5 C 1.0817(3) -0.0388(3) 0.25729(14)
C6 C 1.1343(3) 0.0407(3) 0.21493(14)
H8 H 1.2241 0.0572 0.2223
C7 C 1.1051(3) 0.1488(3) 0.22056(14)
C8 C 1.0020(3) 0.1609(3) 0.20195(14)
H9 H 0.9379 0.0892 0.1892
C9 C 0.9774(3) 0.2608(3) 0.19901(14)
C10 C 0.8674(3) 0.2702(3) 0.17385(14)
H10 H 0.8746 0.3558 0.1685
C11 C 0.7763(3) 0.2318(3) 0.21448(14)
C12 C 0.7103(3) 0.1258(3) 0.21417(14)
H11 H 0.7220 0.0682 0.1829
C13 C 0.6294(3) 0.0912(3) 0.25302(14)
C14 C 0.5541(3) -0.0242(3) 0.25182(14)
H12 H 0.4777 -0.0191 0.2712
C15 C 0.6052(3) -0.0978(3) 0.28643(14)
C16 C 0.6857(3) -0.1449(3) 0.26508(14)
H13 H 0.7110 -0.1282 0.2236
C17 C 0.7347(3) -0.2128(2) 0.29540(14)
C18 C 0.8203(3) -0.2683(3) 0.27237(13)
H14 H 0.8161 -0.3397 0.2961
C19 C 0.9368(3) -0.1949(3) 0.28277(14)
C20 C 1.0058(3) -0.2089(3) 0.32630(13)
C21 C 1.1090(3) -0.1348(3) 0.33892(14)
C22 C 1.1430(3) -0.0475(3) 0.30509(14)
C23 C 1.2306(3) 0.1297(3) 0.33868(14)
H15 H 1.2447 0.1363 0.3833
H16 H 1.1458 0.1348 0.3293
C24 C 1.3115(3) 0.2219(3) 0.31319(15)
H17 H 1.3101 0.2969 0.3354
H18 H 1.3950 0.2105 0.3190
C25 C 1.1854(3) 0.2415(3) 0.23952(14)
C26 C 1.1647(3) 0.3435(3) 0.23802(14)
C27 C 1.0609(3) 0.3523(3) 0.21748(14)
C28 C 1.0137(3) 0.5080(3) 0.25916(15)
H19 H 0.9909 0.5808 0.2467
H20 H 1.0866 0.5331 0.2873
C29 C 0.9191(3) 0.4398(3) 0.28949(14)
H21 H 0.9402 0.3661 0.3019
H22 H 0.9055 0.4842 0.3266
C30 C 0.7591(3) 0.3049(3) 0.25489(14)
C31 C 0.6812(3) 0.2736(3) 0.29437(14)
C32 C 0.6181(3) 0.1674(3) 0.29320(14)
C33 C 0.5821(3) 0.0953(3) 0.38104(14)
H23 H 0.5999 0.1568 0.4146
H24 H 0.6590 0.0733 0.3721
C34 C 0.4968(3) -0.0019(3) 0.39759(15)
H25 H 0.5236 -0.0272 0.4370
H26 H 0.4185 0.0199 0.4033
C35 C 0.5710(3) -0.1218(3) 0.33962(14)
C36 C 0.6225(3) -0.1844(3) 0.37225(14)
C37 C 0.7044(3) -0.2278(2) 0.34950(14)
C38 C 0.8508(3) -0.2283(3) 0.41395(14)
H27 H 0.8302 -0.2176 0.4566
H28 H 0.8804 -0.1487 0.3973
C39 C 0.9403(3) -0.2890(3) 0.41116(14)
H29 H 1.0120 -0.2459 0.4372
H30 H 0.9090 -0.3687 0.4275
C40 C 1.1087(3) -0.0082(3) 0.15563(14)
H31 H 1.1310 -0.0853 0.1528
H32 H 1.0197 -0.0238 0.1458
C41 C 1.1727(3) 0.0670(3) 0.11367(14)
H33 H 1.1452 0.1414 0.1143
H34 H 1.2611 0.0881 0.1257
C42 C 1.1564(3) 0.0166(3) 0.05537(15)
H35 H 1.0678 -0.0171 0.0459
H36 H 1.1969 -0.0495 0.0531
C43 C 1.2034(4) 0.0978(3) 0.01246(15)
H37 H 1.1575 0.1599 0.0122
H38 H 1.2900 0.1371 0.0242
C44 C 1.1973(4) 0.0464(3) -0.04538(15)
H39 H 1.2511 -0.0089 -0.0462
H40 H 1.1124 -0.0010 -0.0551
C45 C 1.2316(5) 0.1281(4) -0.08929(18)
H41 H 1.2282 0.0858 -0.1292
H42 H 1.3161 0.1766 -0.0796
H43 H 1.1750 0.1806 -0.0905
C46 C 0.8402(3) 0.2125(3) 0.11658(14)
H44 H 0.7655 0.2304 0.0988
H45 H 0.8222 0.1255 0.1212
C47 C 0.9351(4) 0.2459(3) 0.07651(16)
H46 H 1.0070 0.2208 0.0928
H47 H 0.9088 0.2015 0.0372
C48 C 0.9715(4) 0.3645(4) 0.06592(19)
H48 H 0.9941 0.4103 0.1051
H49 H 0.9021 0.3894 0.0466
C49 C 1.0717(4) 0.3913(4) 0.02833(18)
H50 H 1.0583 0.3295 -0.0050
H51 H 1.0748 0.4684 0.0099
C50 C 1.1819(4) 0.3981(4) 0.05731(18)
H52 H 1.1773 0.3237 0.0787
H53 H 1.1995 0.4648 0.0881
C51 C 1.2776(4) 0.4151(4) 0.0176(2)
H54 H 1.2604 0.3487 -0.0134
H55 H 1.3551 0.4175 0.0405
H56 H 1.2851 0.4912 -0.0025
C52 C 0.5201(3) -0.0717(3) 0.19273(14)
H57 H 0.5949 -0.0739 0.1711
H58 H 0.4699 -0.1546 0.1947
C53 C 0.4550(4) -0.0075(3) 0.16049(17)
H59 H 0.4899 0.0784 0.1704
H60 H 0.3691 -0.0285 0.1729
C54 C 0.4566(4) -0.0285(4) 0.09848(18)
H61 H 0.4116 0.0229 0.0778
H62 H 0.5425 -0.0051 0.0861
C55 C 0.4060(4) -0.1441(4) 0.07925(18)
H63 H 0.3199 -0.1673 0.0913
H64 H 0.4505 -0.1955 0.1002
C56 C 0.4082(5) -0.1652(4) 0.01710(19)
H65 H 0.3598 -0.1174 -0.0040
H66 H 0.4938 -0.1389 0.0044
C57 C 0.3617(6) -0.2833(5) 0.0000(2)
H67 H 0.3692 -0.2949 -0.0441
H68 H 0.2743 -0.3084 0.0099
H69 H 0.4081 -0.3317 0.0221
C58 C 0.7980(3) -0.3076(3) 0.21178(14)
H70 H 0.7950 -0.2388 0.1871
H71 H 0.8673 -0.3384 0.1984
C59 C 0.6904(3) -0.3954(3) 0.20075(14)
H72 H 0.6197 -0.3617 0.2081
H73 H 0.6876 -0.4599 0.2291
C60 C 0.6811(3) -0.4423(3) 0.14126(16)
H74 H 0.6936 -0.3759 0.1134
H75 H 0.7478 -0.4823 0.1356
C61 C 0.5711(3) -0.5223(3) 0.12521(16)
H76 H 0.5044 -0.4821 0.1305
H77 H 0.5708 -0.5457 0.0817
C62 C 0.5467(4) -0.6233(3) 0.15783(18)
H78 H 0.5350 -0.6015 0.2005
H79 H 0.6182 -0.6580 0.1572
C63 C 0.4424(4) -0.7095(3) 0.1354(2)
H80 H 0.4572 -0.7390 0.0945
H81 H 0.3716 -0.6738 0.1330
H82 H 0.4246 -0.7766 0.1629
C64 C 1.1796(3) -0.1534(3) 0.38583(14)
C65 C 1.2034(3) -0.0889(3) 0.43430(15)
H83 H 1.1767 -0.0149 0.4367
C66 C 1.2890(3) -0.2074(3) 0.47256(15)
H84 H 1.3300 -0.2309 0.5082
C67 C 1.2202(3) -0.2457(3) 0.38504(15)
H85 H 1.2069 -0.2970 0.3479
C68 C 1.2547(3) 0.4428(3) 0.25351(15)
C69 C 1.2746(3) 0.4869(3) 0.30622(16)
H86 H 1.2229 0.4476 0.3381
C70 C 1.4153(3) 0.6204(3) 0.27898(19)
H87 H 1.4806 0.6926 0.2894
C71 C 1.3238(3) 0.4965(3) 0.21444(16)
H88 H 1.3116 0.4644 0.1724
C72 C 0.6667(3) 0.3527(3) 0.33817(14)
C73 C 0.7357(3) 0.3755(3) 0.38512(14)
H89 H 0.8019 0.3353 0.3893
C74 C 0.6403(3) 0.4904(3) 0.41880(15)
H90 H 0.6286 0.5446 0.4518
C75 C 0.5830(3) 0.4075(3) 0.33490(15)
H91 H 0.5279 0.3944 0.2986
C76 C 0.5909(3) -0.2105(3) 0.42968(14)
C77 C 0.6434(3) -0.1457(3) 0.47494(15)
H92 H 0.7036 -0.0708 0.4678
C78 C 0.5477(3) -0.2662(3) 0.53247(15)
H93 H 0.5315 -0.2902 0.5741
C79 C 0.5129(3) -0.3050(3) 0.44102(15)
H94 H 0.4686 -0.3570 0.4072
H95? H 0.5031 0.5176 0.3732
loop_
_geom_bond_atom_site_label_1
_geom_bond_atom_site_label_2
_geom_bond_site_symmetry_1
_geom_bond_site_symmetry_2
Cl1 C1 1_555 1_555
Cl2 C1 1_555 1_555
C1 H1 1_555 1_555
H2 C1 1_555 1_555
Cl3 C2 1_555 1_555
Cl4 C2 1_555 1_555
C2 H3 1_555 1_555
H4 C2 1_555 1_555
Cl5 C3 1_555 1_555
Cl6 C3 1_555 1_555
C3 H5 1_555 1_555
H6 C3 1_555 1_555
O1 C22 1_555 1_555
O2 C24 1_555 1_555
O3 C27 1_555 1_555
O4 C29 1_555 1_555
O5 C32 1_555 1_555
O6 C34 1_555 1_555
O7 C37 1_555 1_555
O8 C20 1_555 1_555
N1 C65 1_555 1_555
N2 C66 1_555 1_555
N3 C69 1_555 1_555
N4 C70 1_555 1_555
N5 C73 1_555 1_555
N6 C74 1_555 1_555
N7 C77 1_555 1_555
N8 C78 1_555 1_555
C4 H7 1_555 1_555
C5 C4 1_555 1_555
C6 C5 1_555 1_555
H8 C6 1_555 1_555
C7 C6 1_555 1_555
C8 C7 1_555 1_555
H9 C8 1_555 1_555
C9 C8 1_555 1_555
C10 C9 1_555 1_555
H10 C10 1_555 1_555
C11 C10 1_555 1_555
C12 C11 1_555 1_555
H11 C12 1_555 1_555
C13 C12 1_555 1_555
C14 C13 1_555 1_555
H12 C14 1_555 1_555
C15 C14 1_555 1_555
C16 C15 1_555 1_555
H13 C16 1_555 1_555
C17 C16 1_555 1_555
C18 C17 1_555 1_555
H14 C18 1_555 1_555
C19 C4 1_555 1_555
C20 C19 1_555 1_555
C21 C20 1_555 1_555
C22 C5 1_555 1_555
C23 O1 1_555 1_555
H15 C23 1_555 1_555
H16 C23 1_555 1_555
C24 C23 1_555 1_555
H17 C24 1_555 1_555
H18 C24 1_555 1_555
C25 O2 1_555 1_555
C26 C25 1_555 1_555
C27 C9 1_555 1_555
C28 O3 1_555 1_555
H19 C28 1_555 1_555
H20 C28 1_555 1_555
C29 C28 1_555 1_555
H21 C29 1_555 1_555
H22 C29 1_555 1_555
C30 O4 1_555 1_555
C31 C30 1_555 1_555
C32 C13 1_555 1_555
C33 O5 1_555 1_555
H23 C33 1_555 1_555
H24 C33 1_555 1_555
C34 C33 1_555 1_555
H25 C34 1_555 1_555
H26 C34 1_555 1_555
C35 O6 1_555 1_555
C36 C35 1_555 1_555
C37 C17 1_555 1_555
C38 O7 1_555 1_555
H27 C38 1_555 1_555
H28 C38 1_555 1_555
C39 O8 1_555 1_555
H29 C39 1_555 1_555
H30 C39 1_555 1_555
C40 C6 1_555 1_555
H31 C40 1_555 1_555
H32 C40 1_555 1_555
C41 C40 1_555 1_555
H33 C41 1_555 1_555
H34 C41 1_555 1_555
C42 C41 1_555 1_555
H35 C42 1_555 1_555
H36 C42 1_555 1_555
C43 C42 1_555 1_555
H37 C43 1_555 1_555
H38 C43 1_555 1_555
C44 C43 1_555 1_555
H39 C44 1_555 1_555
H40 C44 1_555 1_555
C45 C44 1_555 1_555
H41 C45 1_555 1_555
H42 C45 1_555 1_555
H43 C45 1_555 1_555
C46 C10 1_555 1_555
H44 C46 1_555 1_555
H45 C46 1_555 1_555
C47 C46 1_555 1_555
H46 C47 1_555 1_555
H47 C47 1_555 1_555
C48 C47 1_555 1_555
H48 C48 1_555 1_555
H49 C48 1_555 1_555
C49 C48 1_555 1_555
H50 C49 1_555 1_555
H51 C49 1_555 1_555
C50 C49 1_555 1_555
H52 C50 1_555 1_555
H53 C50 1_555 1_555
C51 C50 1_555 1_555
H54 C51 1_555 1_555
H55 C51 1_555 1_555
H56 C51 1_555 1_555
C52 C14 1_555 1_555
H57 C52 1_555 1_555
H58 C52 1_555 1_555
C53 C52 1_555 1_555
H59 C53 1_555 1_555
H60 C53 1_555 1_555
C54 C53 1_555 1_555
H61 C54 1_555 1_555
H62 C54 1_555 1_555
C55 C54 1_555 1_555
H63 C55 1_555 1_555
H64 C55 1_555 1_555
C56 C55 1_555 1_555
H65 C56 1_555 1_555
H66 C56 1_555 1_555
C57 C56 1_555 1_555
H67 C57 1_555 1_555
H68 C57 1_555 1_555
H69 C57 1_555 1_555
C58 C18 1_555 1_555
H70 C58 1_555 1_555
H71 C58 1_555 1_555
C59 C58 1_555 1_555
H72 C59 1_555 1_555
H73 C59 1_555 1_555
C60 C59 1_555 1_555
H74 C60 1_555 1_555
H75 C60 1_555 1_555
C61 C60 1_555 1_555
H76 C61 1_555 1_555
H77 C61 1_555 1_555
C62 C61 1_555 1_555
H78 C62 1_555 1_555
H79 C62 1_555 1_555
C63 C62 1_555 1_555
H80 C63 1_555 1_555
H81 C63 1_555 1_555
H82 C63 1_555 1_555
C64 C21 1_555 1_555
C65 C64 1_555 1_555
H83 C65 1_555 1_555
C66 N1 1_555 1_555
H84 C66 1_555 1_555
C67 N2 1_555 1_555
H85 C67 1_555 1_555
C68 C26 1_555 1_555
C69 C68 1_555 1_555
H86 C69 1_555 1_555
C70 N3 1_555 1_555
H87 C70 1_555 1_555
C71 N4 1_555 1_555
H88 C71 1_555 1_555
C72 C31 1_555 1_555
C73 C72 1_555 1_555
H89 C73 1_555 1_555
C74 N5 1_555 1_555
H90 C74 1_555 1_555
C75 N6 1_555 1_555
H91 C75 1_555 1_555
C76 C36 1_555 1_555
C77 C76 1_555 1_555
H92 C77 1_555 1_555
C78 N7 1_555 1_555
H93 C78 1_555 1_555
C79 N8 1_555 1_555
H94 C79 1_555 1_555
C7 C25 1_555 1_555
C11 C30 1_555 1_555
C15 C35 1_555 1_555
C18 C19 1_555 1_555
C21 C22 1_555 1_555
C26 C27 1_555 1_555
C31 C32 1_555 1_555
C36 C37 1_555 1_555
C38 C39 1_555 1_555
C64 C67 1_555 1_555
C68 C71 1_555 1_555
C72 C75 1_555 1_555
C76 C79 1_555 1_555

#END
