
#######################################################################
#
#                 Cambridge Crystallographic Data Centre
#                                CCDC 
#
#######################################################################
#
# If this CIF has been generated from an entry in the Cambridge 
# Structural Database, then it will include bibliographic, chemical, 
# crystal, experimental, refinement or atomic coordinate data resulting 
# from the CCDC's data processing and validation procedures.
#
#######################################################################

data_EDULAT
_chemical_formula_moiety         'C86 H114 N4 O8 S4'
_chemical_name_systematic        
3,3'-((4,8-bis((2-ethylhexyl)oxy)benzo[1,2-b:4,5-b']difuran-2,6-diyl)bis(thiene-5,2-diyl))bis(2,5-bis(2-ethylhexyl)-6-(thiophen-2-yl)-2,5-dihydropyrrolo[3,4-c]pyrrole-1,4-dione)
_symmetry_cell_setting           monoclinic
_symmetry_space_group_name_H-M   'C 2/c'
_symmetry_Int_Tables_number      15
_space_group_name_Hall           '-C 2yn'
loop_
_symmetry_equiv_pos_site_id
_symmetry_equiv_pos_as_xyz
1 x,y,z
2 -x,y,1/2-z
3 1/2+x,1/2+y,z
4 1/2-x,1/2+y,1/2-z
5 -x,-y,-z
6 x,-y,1/2+z
7 1/2-x,1/2-y,-z
8 1/2+x,1/2-y,1/2+z
_cell_length_a                   33.795(15)
_cell_length_b                   5.449(3)
_cell_length_c                   45.61(2)
_cell_angle_alpha                90
_cell_angle_beta                 111.75
_cell_angle_gamma                90
_cell_volume                     7801.1
_exptl_crystal_colour            blue
_exptl_crystal_description       needle
_cell_formula_units_Z            4
_exptl_crystal_recrystallization_method 'anhydrous chloroform'
loop_
_atom_site_label
_atom_site_type_symbol
_atom_site_fract_x
_atom_site_fract_y
_atom_site_fract_z
S1 S 0.58767(16) 0.7121(9) 0.08724(11)
S2 S 0.81180(18) -0.1310(11) 0.22511(15)
O1 O 0.5772(4) 1.279(2) 0.0297(3)
O2 O 0.7554(4) 0.590(2) 0.1321(3)
O3 O 0.6452(4) -0.038(2) 0.1733(3)
O4 O 0.5687(5) 1.725(3) -0.0113(4)
N1 N 0.6335(4) 0.288(2) 0.1401(3)
N2 N 0.7684(4) 0.259(2) 0.1656(3)
C1 C 0.5399(6) 1.407(3) 0.0135(4)
C2 C 0.5070(4) 1.305(3) 0.0204(4)
C3 C 0.5238(5) 1.115(3) 0.0425(4)
H1 H 0.5093 1.0135 0.0522
C4 C 0.5656(5) 1.113(4) 0.0466(5)
C5 C 0.5993(6) 0.961(3) 0.0677(5)
C6 C 0.6412(6) 0.981(3) 0.0740(4)
H2 H 0.6534 1.1051 0.0654
C7 C 0.6655(6) 0.795(3) 0.0953(4)
H3 H 0.6956 0.7797 0.1019
C8 C 0.6410(5) 0.644(3) 0.1047(4)
C9 C 0.6578(6) 0.434(3) 0.1279(4)
C10 C 0.6997(5) 0.368(3) 0.1410(4)
C11 C 0.7414(6) 0.428(4) 0.1431(5)
C12 C 0.7450(6) 0.104(3) 0.1763(4)
C13 C 0.7007(5) 0.166(3) 0.1611(4)
C14 C 0.6602(6) 0.118(4) 0.1606(5)
C15 C 0.7594(6) -0.092(3) 0.1996(5)
C16 C 0.7366(6) -0.275(3) 0.2049(4)
H4 H 0.7069 -0.2911 0.1932
C17 C 0.7586(6) -0.437(3) 0.2280(5)
H5 H 0.7462 -0.5748 0.2342
C18 C 0.8005(6) -0.377(4) 0.2411(5)
H6 H 0.8209 -0.4671 0.2576
C19 C 0.5891(5) 0.291(3) 0.1332(4)
H7 H 0.5805 0.1265 0.1379
H8 H 0.5744 0.3198 0.1103
C20 C 0.5735(5) 0.484(3) 0.1512(3)
H9 H 0.5811 0.6496 0.1455
C21 C 0.5247(5) 0.467(4) 0.1394(6)
H10 H 0.5148 0.6077 0.1485
H11 H 0.5137 0.4914 0.1163
C22 C 0.5030(17) 0.236(7) 0.1458(14)
H12 H 0.5141 0.0906 0.1388
H13 H 0.4722 0.2474 0.1342
H14 H 0.5089 0.2233 0.1685
C23 C 0.5950(7) 0.453(4) 0.1871(4)
H15 H 0.6263 0.4479 0.1932
H16 H 0.5858 0.2964 0.1936
C24 C 0.5826(10) 0.668(5) 0.2036(7)
H17 H 0.5869 0.8196 0.1931
H18 H 0.5516 0.6542 0.1986
C25 C 0.6032(16) 0.716(10) 0.2392(8)
H19 H 0.6342 0.7439 0.2456
H20 H 0.5987 0.5741 0.2513
C26 C 0.5809(13) 0.946(8) 0.2451(11)
H21 H 0.5627 1.0166 0.2248
H22 H 0.6024 1.0671 0.2569
H23 H 0.5635 0.9019 0.2574
C27 C 0.8128(6) 0.268(3) 0.1741(5)
H24 H 0.8267 0.2567 0.1974
H25 H 0.8208 0.4268 0.1674
C28 C 0.8290(7) 0.058(4) 0.1590(5)
H26 H 0.8193 -0.1031 0.1645
C29 C 0.8112(9) 0.092(5) 0.1230(5)
H27 H 0.7797 0.0849 0.1151
H28 H 0.8194 0.2564 0.1179
C30 C 0.8274(9) -0.104(5) 0.1059(8)
H29 H 0.8061 -0.1304 0.0847
H30 H 0.8324 -0.2577 0.1178
H31 H 0.8541 -0.0477 0.1043
C31 C 0.8780(8) 0.071(8) 0.1735(9)
H32 H 0.8871 -0.0484 0.1608
H33 H 0.8844 0.2345 0.1668
C32 C 0.9116(18) 0.042(17) 0.2069(10)
H34 H 0.9046 -0.1203 0.2136
H35 H 0.9026 0.1632 0.2193
C33 C 0.9605(19) 0.050(15) 0.222(2)
H36 H 0.9681 0.1819 0.2103
H37 H 0.9658 0.1206 0.2433
C34 C 0.997(3) -0.14(2) 0.228(3)
H38 H 1.0227 -0.0506 0.2290
H39 H 0.9888 -0.2594 0.2116
C35 C 0.5935(11) 1.558(5) -0.0255(10)
H40 H 0.5734 1.4772 -0.0446
H41 H 0.6082 1.4288 -0.0100
C36 C 0.6266(8) 1.705(7) -0.0341(7)
H42 H 0.6390 1.5908 -0.0456
C37 C 0.6633(13) 1.795(7) -0.0046(11)
H43 H 0.6833 1.8920 -0.0113
H44 H 0.6518 1.9040 0.0076
C38 C 0.6877(15) 1.584(9) 0.0166(10)
H45 H 0.7177 1.6307 0.0273
H46 H 0.6859 1.4372 0.0037
H47 H 0.6752 1.5488 0.0324
C39 C 0.6048(16) 1.915(10) -0.0568(12)
H48 H 0.5802 1.8394 -0.0737
H49 H 0.5927 2.0238 -0.0449
C40 C 0.6254(17) 2.087(13) -0.0738(14)
H50 H 0.6464 1.9941 -0.0798
H51 H 0.6408 2.2199 -0.0592
C41 C 0.592(3) 2.200(11) -0.1034(15)
H52 H 0.6055 2.3189 -0.1130
H53 H 0.5703 2.2893 -0.0974
C42 C 0.569(4) 2.00(2) -0.128(2)
H54 H 0.5660 1.8518 -0.1168
H55 H 0.5861 1.9641 -0.1406
H56 H 0.5410 2.0598 -0.1415
C43 C 0.5341(5) 1.602(3) -0.0073(5)
S1D S 0.41233(16) 2.2879(9) -0.08724(11)
S2D S 0.18820(18) 3.1310(11) -0.22511(15)
O1D O 0.4228(4) 1.721(2) -0.0297(3)
O2D O 0.2446(4) 2.410(2) -0.1321(3)
O3D O 0.3548(4) 3.038(2) -0.1733(3)
O4D O 0.4313(5) 1.275(3) 0.0113(4)
N1D N 0.3665(4) 2.712(2) -0.1401(3)
N2D N 0.2316(4) 2.741(2) -0.1656(3)
C1D C 0.4601(6) 1.593(3) -0.0135(4)
C2D C 0.4930(4) 1.695(3) -0.0204(4)
C3D C 0.4762(5) 1.885(3) -0.0425(4)
H1D H 0.4907 1.9865 -0.0522
C4D C 0.4344(5) 1.887(4) -0.0466(5)
C5D C 0.4007(6) 2.039(3) -0.0677(5)
C6D C 0.3588(6) 2.019(3) -0.0740(4)
H2D H 0.3466 1.8949 -0.0654
C7D C 0.3345(6) 2.205(3) -0.0953(4)
H3D H 0.3044 2.2203 -0.1019
C8D C 0.3590(5) 2.356(3) -0.1047(4)
C9D C 0.3422(6) 2.566(3) -0.1279(4)
C10D C 0.3003(5) 2.632(3) -0.1410(4)
C11D C 0.2586(6) 2.572(4) -0.1431(5)
C12D C 0.2550(6) 2.896(3) -0.1763(4)
C13D C 0.2993(5) 2.834(3) -0.1611(4)
C14D C 0.3398(6) 2.882(4) -0.1606(5)
C15D C 0.2406(6) 3.092(3) -0.1996(5)
C16D C 0.2634(6) 3.275(3) -0.2049(4)
H4D H 0.2931 3.2911 -0.1932
C17D C 0.2414(6) 3.437(3) -0.2280(5)
H5D H 0.2538 3.5748 -0.2342
C18D C 0.1995(6) 3.377(4) -0.2411(5)
H6D H 0.1791 3.4671 -0.2576
C19D C 0.4109(5) 2.709(3) -0.1332(4)
H7D H 0.4195 2.8735 -0.1379
H8D H 0.4256 2.6802 -0.1103
C20D C 0.4265(5) 2.516(3) -0.1512(3)
H9D H 0.4189 2.3504 -0.1455
C21D C 0.4753(5) 2.533(4) -0.1394(6)
H10D H 0.4852 2.3923 -0.1485
H11D H 0.4863 2.5086 -0.1163
C22D C 0.4970(17) 2.764(7) -0.1458(14)
H12D H 0.4859 2.9094 -0.1388
H13D H 0.5278 2.7526 -0.1342
H14D H 0.4911 2.7767 -0.1685
C23D C 0.4050(7) 2.547(4) -0.1871(4)
H15D H 0.3737 2.5521 -0.1932
H16D H 0.4142 2.7036 -0.1936
C24D C 0.4174(10) 2.332(5) -0.2036(7)
H17D H 0.4131 2.1804 -0.1931
H18D H 0.4484 2.3458 -0.1986
C25D C 0.3968(16) 2.284(10) -0.2392(8)
H19D H 0.3658 2.2561 -0.2456
H20D H 0.4013 2.4259 -0.2513
C26D C 0.4191(13) 2.054(8) -0.2451(11)
H21D H 0.4373 1.9834 -0.2248
H22D H 0.3976 1.9329 -0.2569
H23D H 0.4365 2.0981 -0.2574
C27D C 0.1872(6) 2.732(3) -0.1741(5)
H24D H 0.1733 2.7433 -0.1974
H25D H 0.1792 2.5732 -0.1674
C28D C 0.1710(7) 2.942(4) -0.1590(5)
H26D H 0.1807 3.1031 -0.1645
C29D C 0.1888(9) 2.908(5) -0.1230(5)
H27D H 0.2203 2.9151 -0.1151
H28D H 0.1806 2.7436 -0.1179
C30D C 0.1726(9) 3.104(5) -0.1059(8)
H29D H 0.1939 3.1304 -0.0847
H30D H 0.1676 3.2577 -0.1178
H31D H 0.1459 3.0477 -0.1043
C31D C 0.1220(8) 2.929(8) -0.1735(9)
H32D H 0.1129 3.0484 -0.1608
H33D H 0.1156 2.7655 -0.1668
C32D C 0.0884(18) 2.958(17) -0.2069(10)
H34D H 0.0954 3.1203 -0.2136
H35D H 0.0974 2.8368 -0.2193
C33D C 0.0395(19) 2.950(15) -0.222(2)
H36D H 0.0319 2.8181 -0.2103
H37D H 0.0342 2.8794 -0.2433
C34D C 0.003(3) 3.14(2) -0.228(3)
H38D H -0.0227 3.0506 -0.2290
H39D H 0.0112 3.2594 -0.2116
C35D C 0.4065(11) 1.442(5) 0.0255(10)
H40D H 0.4266 1.5228 0.0446
H41D H 0.3918 1.5712 0.0100
C36D C 0.3734(8) 1.295(7) 0.0341(7)
H42D H 0.3610 1.4092 0.0456
C37D C 0.3367(13) 1.205(7) 0.0046(11)
H43D H 0.3167 1.1080 0.0113
H44D H 0.3482 1.0960 -0.0076
C38D C 0.3123(15) 1.416(9) -0.0166(10)
H45D H 0.2823 1.3693 -0.0273
H46D H 0.3141 1.5628 -0.0037
H47D H 0.3248 1.4512 -0.0324
C39D C 0.3952(16) 1.085(10) 0.0568(12)
H48D H 0.4198 1.1606 0.0737
H49D H 0.4073 0.9762 0.0449
C40D C 0.3746(17) 0.913(13) 0.0738(14)
H50D H 0.3536 1.0059 0.0798
H51D H 0.3592 0.7801 0.0592
C41D C 0.408(3) 0.800(11) 0.1034(15)
H52D H 0.3945 0.6811 0.1130
H53D H 0.4297 0.7107 0.0974
C42D C 0.431(4) 1.00(2) 0.128(2)
H54D H 0.4340 1.1482 0.1168
H55D H 0.4139 1.0359 0.1406
H56D H 0.4590 0.9402 0.1415
C43D C 0.4659(5) 1.398(3) 0.0073(5)
H57? H 0.5172 0.2977 0.1435
H58? H 0.5150 0.5784 0.1525
C44? C 0.499(2) 0.527(12) 0.1046(8)
H59? H 0.4880 0.6947 0.1029
H60? H 0.4752 0.4117 0.0963
H61? H 0.5175 0.5124 0.0925
H62? H 0.5942 0.8017 0.1944
H63? H 0.6050 0.6441 0.2248
C45? C 0.5524(16) 0.83(2) 0.214(2)
H64? H 0.5384 0.9534 0.1978
H65? H 0.5301 0.7241 0.2171
H66? H 0.5669 1.0931 0.2490
H67? H 0.6083 0.9923 0.2438
H68? H 0.5859 0.8294 0.2625
H69? H 0.8867 0.0401 0.1964
H70? H 0.8889 -0.0675 0.1646
C46? C 0.9018(16) 0.303(10) 0.1698(19)
H71? H 0.8919 0.4303 0.1810
H72? H 0.8878 0.3432 0.1471
C47? C 0.9487(19) 0.372(16) 0.177(2)
H73? H 0.9628 0.2101 0.1790
H74? H 0.9482 0.4422 0.1571
C48? C 0.982(2) 0.527(15) 0.202(2)
H75? H 0.9686 0.6684 0.2079
H76? H 1.0035 0.5850 0.1939
H77? H 0.9966 0.4273 0.2212
C49? C 0.6107(11) 1.78(2) -0.0160(14)
H78? H 0.6268 1.9060 -0.0009
H79? H 0.6283 1.6273 -0.0116
C50? C 0.603(2) 1.86(2) -0.0498(17)
H80? H 0.5838 1.7391 -0.0645
C51? C 0.578(3) 2.109(16) -0.057(3)
H81? H 0.5848 2.2035 -0.0373
H82? H 0.5879 2.2073 -0.0715
C52? C 0.530(3) 2.07(2) -0.072(4)
H83? H 0.5153 2.1823 -0.0632
H84? H 0.5231 1.8996 -0.0688
H85? H 0.5204 2.0992 -0.0952
C53? C 0.644(3) 1.88(3) -0.056(2)
H86? H 0.6628 1.7587 -0.0407
H87? H 0.6362 1.7905 -0.0770
C54? C 0.675(3) 2.08(2) -0.058(4)
H88? H 0.6888 2.1513 -0.0372
H89? H 0.6588 2.2050 -0.0731
C55? C 0.709(3) 1.97(2) -0.069(3)
H90? H 0.7115 1.7909 -0.0657
H91? H 0.7007 1.9990 -0.0923
C56? C 0.753(2) 2.090(19) -0.052(3)
H92? H 0.7643 2.1530 -0.0671
H93? H 0.7724 1.9674 -0.0382
H94? H 0.7495 2.2253 -0.0387
H95? H 1.0024 -0.2169 0.2488
loop_
_geom_bond_atom_site_label_1
_geom_bond_atom_site_label_2
_geom_bond_site_symmetry_1
_geom_bond_site_symmetry_2
S1 C5 1_555 1_555
S2 C15 1_555 1_555
O1 C1 1_555 1_555
O2 C11 1_555 1_555
O3 C14 1_555 1_555
O4 C35 1_555 1_555
N1 C9 1_555 1_555
N2 C11 1_555 1_555
C1 C2 1_555 1_555
C2 C3 1_555 1_555
C3 H1 1_555 1_555
C4 O1 1_555 1_555
C5 C4 1_555 1_555
C6 C5 1_555 1_555
H2 C6 1_555 1_555
C7 C6 1_555 1_555
H3 C7 1_555 1_555
C8 S1 1_555 1_555
C9 C8 1_555 1_555
C10 C9 1_555 1_555
C11 C10 1_555 1_555
C12 N2 1_555 1_555
C13 C10 1_555 1_555
C14 N1 1_555 1_555
C15 C12 1_555 1_555
C16 C15 1_555 1_555
H4 C16 1_555 1_555
C17 C16 1_555 1_555
H5 C17 1_555 1_555
C18 S2 1_555 1_555
H6 C18 1_555 1_555
C19 N1 1_555 1_555
H7 C19 1_555 1_555
H8 C19 1_555 1_555
C20 C19 1_555 1_555
H9 C20 1_555 1_555
C21 C20 1_555 1_555
H10 C21 1_555 1_555
H11 C21 1_555 1_555
C22 C21 1_555 1_555
H12 C22 1_555 1_555
H13 C22 1_555 1_555
H14 C22 1_555 1_555
C23 C20 1_555 1_555
H15 C23 1_555 1_555
H16 C23 1_555 1_555
C24 C23 1_555 1_555
H17 C24 1_555 1_555
H18 C24 1_555 1_555
C25 C24 1_555 1_555
H19 C25 1_555 1_555
H20 C25 1_555 1_555
C26 C25 1_555 1_555
H21 C26 1_555 1_555
H22 C26 1_555 1_555
H23 C26 1_555 1_555
C27 N2 1_555 1_555
H24 C27 1_555 1_555
H25 C27 1_555 1_555
C28 C27 1_555 1_555
H26 C28 1_555 1_555
C29 C28 1_555 1_555
H27 C29 1_555 1_555
H28 C29 1_555 1_555
C30 C29 1_555 1_555
H29 C30 1_555 1_555
H30 C30 1_555 1_555
H31 C30 1_555 1_555
C31 C28 1_555 1_555
H32 C31 1_555 1_555
H33 C31 1_555 1_555
C32 C31 1_555 1_555
H34 C32 1_555 1_555
H35 C32 1_555 1_555
C33 C32 1_555 1_555
H36 C33 1_555 1_555
H37 C33 1_555 1_555
C34 C33 1_555 1_555
H38 C34 1_555 1_555
H39 C34 1_555 1_555
C35 H40 1_555 1_555
H41 C35 1_555 1_555
C36 C35 1_555 1_555
H42 C36 1_555 1_555
C37 C36 1_555 1_555
H43 C37 1_555 1_555
H44 C37 1_555 1_555
C38 C37 1_555 1_555
H45 C38 1_555 1_555
H46 C38 1_555 1_555
H47 C38 1_555 1_555
C39 C36 1_555 1_555
H48 C39 1_555 1_555
H49 C39 1_555 1_555
C40 C39 1_555 1_555
H50 C40 1_555 1_555
H51 C40 1_555 1_555
C41 C40 1_555 1_555
H52 C41 1_555 1_555
H53 C41 1_555 1_555
C42 C41 1_555 1_555
H54 C42 1_555 1_555
H55 C42 1_555 1_555
H56 C42 1_555 1_555
C43 O4 1_555 1_555
S1D C5D 1_555 1_555
S2D C15D 1_555 1_555
O1D C1D 1_555 1_555
O2D C11D 1_555 1_555
O3D C14D 1_555 1_555
O4D C35D 1_555 1_555
N1D C9D 1_555 1_555
N2D C11D 1_555 1_555
C1D C2D 1_555 1_555
C2D C43 1_555 1_555
C3D C2D 1_555 1_555
H1D C3D 1_555 1_555
C4D O1D 1_555 1_555
C5D C4D 1_555 1_555
C6D C5D 1_555 1_555
H2D C6D 1_555 1_555
C7D C6D 1_555 1_555
H3D C7D 1_555 1_555
C8D S1D 1_555 1_555
C9D C8D 1_555 1_555
C10D C9D 1_555 1_555
C11D C10D 1_555 1_555
C12D N2D 1_555 1_555
C13D C10D 1_555 1_555
C14D N1D 1_555 1_555
C15D C12D 1_555 1_555
C16D C15D 1_555 1_555
H4D C16D 1_555 1_555
C17D C16D 1_555 1_555
H5D C17D 1_555 1_555
C18D S2D 1_555 1_555
H6D C18D 1_555 1_555
C19D N1D 1_555 1_555
H7D C19D 1_555 1_555
H8D C19D 1_555 1_555
C20D C19D 1_555 1_555
H9D C20D 1_555 1_555
C21D C20D 1_555 1_555
H10D C21D 1_555 1_555
H11D C21D 1_555 1_555
C22D C21D 1_555 1_555
H12D C22D 1_555 1_555
H13D C22D 1_555 1_555
H14D C22D 1_555 1_555
C23D C20D 1_555 1_555
H15D C23D 1_555 1_555
H16D C23D 1_555 1_555
C24D C23D 1_555 1_555
H17D C24D 1_555 1_555
H18D C24D 1_555 1_555
C25D C24D 1_555 1_555
H19D C25D 1_555 1_555
H20D C25D 1_555 1_555
C26D C25D 1_555 1_555
H21D C26D 1_555 1_555
H22D C26D 1_555 1_555
H23D C26D 1_555 1_555
C27D N2D 1_555 1_555
H24D C27D 1_555 1_555
H25D C27D 1_555 1_555
C28D C27D 1_555 1_555
H26D C28D 1_555 1_555
C29D C28D 1_555 1_555
H27D C29D 1_555 1_555
H28D C29D 1_555 1_555
C30D C29D 1_555 1_555
H29D C30D 1_555 1_555
H30D C30D 1_555 1_555
H31D C30D 1_555 1_555
C31D C28D 1_555 1_555
H32D C31D 1_555 1_555
H33D C31D 1_555 1_555
C32D C31D 1_555 1_555
H34D C32D 1_555 1_555
H35D C32D 1_555 1_555
C33D C32D 1_555 1_555
H36D C33D 1_555 1_555
H37D C33D 1_555 1_555
C34D C33D 1_555 1_555
H38D C34D 1_555 1_555
H39D C34D 1_555 1_555
C35D H40D 1_555 1_555
H41D C35D 1_555 1_555
C36D C35D 1_555 1_555
H42D C36D 1_555 1_555
C37D C36D 1_555 1_555
H43D C37D 1_555 1_555
H44D C37D 1_555 1_555
C38D C37D 1_555 1_555
H45D C38D 1_555 1_555
H46D C38D 1_555 1_555
H47D C38D 1_555 1_555
C39D C36D 1_555 1_555
H48D C39D 1_555 1_555
H49D C39D 1_555 1_555
C40D C39D 1_555 1_555
H50D C40D 1_555 1_555
H51D C40D 1_555 1_555
C41D C40D 1_555 1_555
H52D C41D 1_555 1_555
H53D C41D 1_555 1_555
C42D C41D 1_555 1_555
H54D C42D 1_555 1_555
H55D C42D 1_555 1_555
H56D C42D 1_555 1_555
C43D C2 1_555 1_555
C1 C43 1_555 1_555
C3 C4 1_555 1_555
C7 C8 1_555 1_555
C12 C13 1_555 1_555
C13 C14 1_555 1_555
C17 C18 1_555 1_555
O4D C43D 1_555 1_555
C1D C43D 1_555 1_555
C3D C4D 1_555 1_555
C7D C8D 1_555 1_555
C12D C13D 1_555 1_555
C13D C14D 1_555 1_555
C17D C18D 1_555 1_555

#END
