
#######################################################################
#
#                 Cambridge Crystallographic Data Centre
#                                CCDC 
#
#######################################################################
#
# If this CIF has been generated from an entry in the Cambridge 
# Structural Database, then it will include bibliographic, chemical, 
# crystal, experimental, refinement or atomic coordinate data resulting 
# from the CCDC's data processing and validation procedures.
#
#######################################################################

data_EDUMOI
_chemical_formula_moiety         'C7 H11 N2 1+,C8 H7 O2 1-,H2 O1'
_chemical_name_systematic        
'4-(dimethylamino)pyridinium 4-methylbenzoate monohydrate'
_symmetry_cell_setting           monoclinic
_symmetry_space_group_name_H-M   'C c'
_symmetry_Int_Tables_number      9
_space_group_name_Hall           'C -2yc'
loop_
_symmetry_equiv_pos_site_id
_symmetry_equiv_pos_as_xyz
1 x,y,z
2 x,-y,1/2+z
3 1/2+x,1/2+y,z
4 1/2+x,1/2-y,1/2+z
_cell_length_a                   6.6469(8)
_cell_length_b                   12.9935(15)
_cell_length_c                   16.782(2)
_cell_angle_alpha                90
_cell_angle_beta                 94.544(7)
_cell_angle_gamma                90
_cell_volume                     1444.85
_cell_formula_units_Z            4
loop_
_atom_site_label
_atom_site_type_symbol
_atom_site_fract_x
_atom_site_fract_y
_atom_site_fract_z
O1 O 0.8988(2) 0.65086(13) 0.57375(8)
H1 H 0.795(4) 0.6634(17) 0.5438(14)
H2 H 1.001(5) 0.6504(19) 0.5382(18)
H3 H 0.359(3) 0.6306(15) 0.6200(13)
C1 C 0.4761(3) 0.60131(12) 0.83368(10)
N1 N 0.3874(2) 0.62120(11) 0.66950(9)
N2 N 0.5188(2) 0.59359(11) 0.91262(8)
C2 C 0.2780(3) 0.62198(13) 0.79978(10)
H4 H 0.1732 0.6294 0.8329
C3 C 0.2399(3) 0.63103(13) 0.71940(11)
H5 H 0.1089 0.6443 0.6984
C4 C 0.6259(3) 0.59034(13) 0.77883(10)
H6 H 0.7583 0.5757 0.7974
C5 C 0.5771(3) 0.60112(13) 0.69918(10)
H7 H 0.6779 0.5944 0.6641
C6 C 0.3641(4) 0.60999(16) 0.96813(11)
H8 H 0.2921 0.6724 0.9544
H9 H 0.4265 0.6154 1.0215
H10 H 0.2718 0.5530 0.9651
C7 C 0.7234(3) 0.56878(16) 0.94557(12)
H11 H 0.7689 0.5075 0.9206
H12 H 0.7233 0.5578 1.0021
H13 H 0.8122 0.6248 0.9356
C8 C 0.2888(2) 0.65439(12) 0.37421(9)
O2 O 0.27429(18) 0.64655(11) 0.51463(7)
C9 C 0.1155(3) 0.63612(12) 0.21635(10)
C10 C 0.3212(3) 0.65288(13) 0.23204(10)
H14 H 0.4029 0.6582 0.1897
C11 C 0.4063(2) 0.66184(12) 0.30960(10)
H15 H 0.5445 0.6730 0.3187
O3 O 0.56991(18) 0.67914(11) 0.46733(8)
C12 C 0.0828(2) 0.63864(13) 0.35898(9)
H16 H 0.0011 0.6340 0.4013
C13 C 0.3862(2) 0.66104(12) 0.45833(9)
C14 C -0.0023(2) 0.62975(13) 0.28094(10)
H17 H -0.1406 0.6194 0.2718
C15 C 0.0211(3) 0.62482(16) 0.13230(11)
H18 H 0.0765 0.6755 0.0987
H19 H -0.1222 0.6344 0.1319
H20 H 0.0487 0.5573 0.1127
loop_
_geom_bond_atom_site_label_1
_geom_bond_atom_site_label_2
_geom_bond_site_symmetry_1
_geom_bond_site_symmetry_2
O1 H1 1_555 1_555
H2 O1 1_555 1_555
H3 N1 1_555 1_555
C1 N2 1_555 1_555
N1 C3 1_555 1_555
N2 C6 1_555 1_555
C2 C1 1_555 1_555
H4 C2 1_555 1_555
C3 C2 1_555 1_555
H5 C3 1_555 1_555
C4 C1 1_555 1_555
H6 C4 1_555 1_555
C5 N1 1_555 1_555
H7 C5 1_555 1_555
C6 H8 1_555 1_555
H9 C6 1_555 1_555
H10 C6 1_555 1_555
C7 N2 1_555 1_555
H11 C7 1_555 1_555
H12 C7 1_555 1_555
H13 C7 1_555 1_555
C8 C11 1_555 1_555
O2 C13 1_555 1_555
C9 C10 1_555 1_555
C10 H14 1_555 1_555
C11 C10 1_555 1_555
H15 C11 1_555 1_555
O3 C13 1_555 1_555
C12 C8 1_555 1_555
H16 C12 1_555 1_555
C13 C8 1_555 1_555
C14 C9 1_555 1_555
H17 C14 1_555 1_555
C15 C9 1_555 1_555
H18 C15 1_555 1_555
H19 C15 1_555 1_555
H20 C15 1_555 1_555
C4 C5 1_555 1_555
C12 C14 1_555 1_555

#END
