
#######################################################################
#
#                 Cambridge Crystallographic Data Centre
#                                CCDC 
#
#######################################################################
#
# If this CIF has been generated from an entry in the Cambridge 
# Structural Database, then it will include bibliographic, chemical, 
# crystal, experimental, refinement or atomic coordinate data resulting 
# from the CCDC's data processing and validation procedures.
#
#######################################################################

data_EDUPAU01
_chemical_formula_moiety         'C6 H7 1+,C6 H16 B11 Br6 1-'
_chemical_name_systematic        
'Benzenium 2,3,4,5,6-pentamethyl-7,8,9,10,11,12-hexabromo-1-carba-closo-dodecaborate(1)'
_symmetry_cell_setting           orthorhombic
_symmetry_space_group_name_H-M   'P n m a'
_symmetry_Int_Tables_number      62
_space_group_name_Hall           '-P 2ac 2n'
loop_
_symmetry_equiv_pos_site_id
_symmetry_equiv_pos_as_xyz
1 x,y,z
2 1/2+x,y,1/2-z
3 x,1/2-y,z
4 1/2-x,1/2+y,1/2+z
5 -x,-y,-z
6 1/2-x,-y,1/2+z
7 -x,1/2+y,-z
8 1/2+x,1/2-y,1/2-z
_cell_length_a                   14.1517(10)
_cell_length_b                   17.1870(13)
_cell_length_c                   10.4898(8)
_cell_angle_alpha                90
_cell_angle_beta                 90
_cell_angle_gamma                90
_cell_volume                     2551.38
_exptl_crystal_colour            greenish-yellow
_exptl_crystal_description       needle
_cell_formula_units_Z            4
loop_
_atom_site_label
_atom_site_type_symbol
_atom_site_fract_x
_atom_site_fract_y
_atom_site_fract_z
C1 C 0.0000(2) 0.2500 0.6152(3)
H1 H -0.0711 0.2500 0.6598
C2 C -0.0724(2) 0.34910(16) 0.4144(3)
H2 H -0.1283 0.3436 0.4670
H3 H -0.0850 0.3284 0.3300
H4 H -0.0557 0.4037 0.4077
C3 C 0.0260(2) 0.41083(15) 0.6927(3)
H5 H -0.0299 0.4296 0.6489
H6 H 0.0748 0.4505 0.6903
H7 H 0.0103 0.3992 0.7807
C4 C 0.0813(3) 0.2500 0.8673(4)
H8 H 0.1108 0.2039 0.9029
H9 H 0.0145 0.2500 0.8882
H10 H 0.1108 0.2961 0.9029
B1 B 0.0123(2) 0.30261(15) 0.4771(3)
B2 B 0.06307(19) 0.33479(15) 0.6250(3)
B3 B 0.0938(3) 0.2500 0.7171(3)
B4 B 0.18167(19) 0.30177(15) 0.6320(2)
B5 B 0.13263(19) 0.33375(14) 0.4845(2)
B6 B 0.1025(3) 0.2500 0.3939(3)
B7 B 0.2074(3) 0.2500 0.4884(4)
Br1 Br 0.16997(2) 0.431348(15) 0.40229(3)
Br2 Br 0.33383(3) 0.2500 0.41353(4)
Br3 Br 0.27707(2) 0.362134(16) 0.72402(3)
Br4 Br 0.10893(3) 0.2500 0.20778(3)
B1B B 0.0123(2) 0.19739(15) 0.4771(3)
B2B B 0.06307(19) 0.16521(15) 0.6250(3)
C3B C 0.0260(2) 0.08917(15) 0.6927(3)
H5B H -0.0299 0.0704 0.6489
H6B H 0.0748 0.0495 0.6903
H7B H 0.0103 0.1008 0.7807
C2B C -0.0724(2) 0.15090(16) 0.4144(3)
H2B H -0.1283 0.1564 0.4670
H3B H -0.0850 0.1716 0.3300
H4B H -0.0557 0.0963 0.4077
B5B B 0.13263(19) 0.16625(14) 0.4845(2)
B4B B 0.18167(19) 0.19823(15) 0.6320(2)
Br3B Br 0.27707(2) 0.137866(16) 0.72402(3)
Br1B Br 0.16997(2) 0.068652(15) 0.40229(3)
C5 C 0.4273(3) 0.4549(2) 0.4563(4)
H12 H 0.4010 0.4091 0.4993
C6 C 0.5192(3) 0.4372(2) 0.4228(3)
H14 H 0.5316 0.3946 0.3693
C7 C 0.4091(3) 0.5190(2) 0.5333(4)
H15 H 0.3465 0.5318 0.5547
C7D C 0.5909(3) 0.4810(2) 0.4667(4)
C5D C 0.5727(3) 0.5451(2) 0.5437(4)
H12D H 0.5990 0.5909 0.5007
C6D C 0.4808(3) 0.5628(2) 0.5772(3)
H14D H 0.4684 0.6054 0.6307
H15D H 0.6535 0.4682 0.4453
H11? H 0.3772 0.4236 0.4272
H13? H 0.3914 0.4618 0.3772
loop_
_geom_bond_atom_site_label_1
_geom_bond_atom_site_label_2
_geom_bond_site_symmetry_1
_geom_bond_site_symmetry_2
C1 H1 1_555 1_555
C2 H2 1_555 1_555
H3 C2 1_555 1_555
H4 C2 1_555 1_555
C3 H5 1_555 1_555
H6 C3 1_555 1_555
H7 C3 1_555 1_555
C4 H8 1_555 1_555
H9 C4 1_555 1_555
H10 C4 1_555 1_555
B1 C1 1_555 1_555
B2 C1 1_555 1_555
B3 C1 1_555 1_555
B4 B2 1_555 1_555
B5 B1 1_555 1_555
B6 B1 1_555 1_555
B7 B4 1_555 1_555
Br1 B5 1_555 1_555
Br2 B7 1_555 1_555
Br3 B4 1_555 1_555
Br4 B6 1_555 1_555
C5 H12 1_555 1_555
C6 C5 1_555 1_555
H14 C6 1_555 1_555
C7 C5 1_555 1_555
H15 C7 1_555 1_555
B1B C1 1_555 1_555
B2B C1 1_555 1_555
C3B B2B 1_555 1_555
H5B C3B 1_555 1_555
H6B C3B 1_555 1_555
H7B C3B 1_555 1_555
C2B B1B 1_555 1_555
H2B C2B 1_555 1_555
H3B C2B 1_555 1_555
H4B C2B 1_555 1_555
B5B B6 1_555 1_555
B4B B3 1_555 1_555
Br3B B4B 1_555 1_555
Br1B B5B 1_555 1_555
C7D C6 1_555 1_555
C5D C7D 1_555 1_555
H12D C5D 1_555 1_555
C6D C7 1_555 1_555
H14D C6D 1_555 1_555
H15D C7D 1_555 1_555
C2 B1 1_555 1_555
C3 B2 1_555 1_555
C4 B3 1_555 1_555
B1 B1B 1_555 1_555
B1 B2 1_555 1_555
B2 B3 1_555 1_555
B2 B5 1_555 1_555
B3 B4 1_555 1_555
B3 B2B 1_555 1_555
B4 B4B 1_555 1_555
B4 B5 1_555 1_555
B5 B6 1_555 1_555
B5 B7 1_555 1_555
B6 B1B 1_555 1_555
B6 B7 1_555 1_555
B7 B4B 1_555 1_555
B7 B5B 1_555 1_555
B1B B5B 1_555 1_555
B1B B2B 1_555 1_555
B2B B5B 1_555 1_555
B2B B4B 1_555 1_555
B5B B4B 1_555 1_555
C5D C6D 1_555 1_555

#END
