
#######################################################################
#
#                 Cambridge Crystallographic Data Centre
#                                CCDC 
#
#######################################################################
#
# If this CIF has been generated from an entry in the Cambridge 
# Structural Database, then it will include bibliographic, chemical, 
# crystal, experimental, refinement or atomic coordinate data resulting 
# from the CCDC's data processing and validation procedures.
#
#######################################################################

data_EDUXEH
_chemical_formula_moiety         'C17 H17 N3 O3 S1'
_chemical_name_systematic        
N-(1,5-Dimethyl-3-oxo-2-phenyl-2,3-dihydro-1H-pyrazol-4-yl)benzenesulfonamide
_symmetry_cell_setting           triclinic
_symmetry_space_group_name_H-M   'P -1'
_symmetry_Int_Tables_number      2
_space_group_name_Hall           '-P 1'
loop_
_symmetry_equiv_pos_site_id
_symmetry_equiv_pos_as_xyz
1 x,y,z
2 -x,-y,-z
_cell_length_a                   9.085(3)
_cell_length_b                   9.799(3)
_cell_length_c                   9.809(4)
_cell_angle_alpha                70.333(4)
_cell_angle_beta                 76.301(2)
_cell_angle_gamma                87.991(5)
_cell_volume                     797.952
_exptl_crystal_colour            colorless
_exptl_crystal_description       block
_cell_formula_units_Z            2
_exptl_crystal_recrystallization_method 'dichloromethane/absolute ethanol'
loop_
_atom_site_label
_atom_site_type_symbol
_atom_site_fract_x
_atom_site_fract_y
_atom_site_fract_z
C1 C 0.6807(2) 0.4957(2) 0.6995(2)
C2 C 0.7550(3) 0.5468(3) 0.5516(3)
H1 H 0.8501 0.5146 0.5192
C3 C 0.6865(3) 0.6467(3) 0.4512(3)
H2 H 0.7363 0.6826 0.3508
C4 C 0.5465(3) 0.6932(3) 0.4983(3)
H3 H 0.5021 0.7615 0.4302
C5 C 0.4707(3) 0.6393(3) 0.6459(3)
H4 H 0.3738 0.6688 0.6768
C6 C 0.5384(3) 0.5413(2) 0.7487(3)
H5 H 0.4889 0.5066 0.8492
C7 C 0.8830(2) 0.4196(2) 0.8417(2)
C8 C 0.8730(2) 0.3155(2) 0.9876(2)
C9 C 0.7415(2) 0.2332(2) 1.0308(2)
C10 C 0.6867(3) 0.1048(2) 1.1652(3)
H6 H 0.6986 0.0187 1.1385
H7 H 0.5815 0.1132 1.2074
H8 H 0.7445 0.0992 1.2371
C11 C 0.5614(3) 0.1922(2) 0.8902(3)
H9 H 0.6226 0.1302 0.8445
H10 H 0.5046 0.2516 0.8229
H11 H 0.4927 0.1340 0.9804
C12 C 1.1464(2) 0.0924(2) 1.2053(2)
C13 C 1.0703(3) -0.0376(2) 1.2324(3)
H12 H 1.0193 -0.0476 1.1643
C14 C 1.0708(3) -0.1510(3) 1.3601(3)
H13 H 1.0183 -0.2380 1.3799
C15 C 1.1490(4) -0.1368(3) 1.4594(3)
H14 H 1.1499 -0.2147 1.5455
C16 C 1.2256(4) -0.0086(4) 1.4322(3)
H15 H 1.2785 -0.0002 1.4996
C17 C 1.2245(3) 0.1080(3) 1.3052(3)
H16 H 1.2753 0.1955 1.2869
N1 N 0.7521(2) 0.39254(18) 0.80364(19)
N2 N 0.6594(2) 0.28519(18) 0.9251(2)
N3 N 0.9785(2) 0.3078(2) 1.0760(2)
H17 H 0.981(3) 0.384(3) 1.117(3)
O1 O 0.98010(17) 0.51793(16) 0.76107(17)
O2 O 1.1496(2) 0.18380(19) 0.92410(18)
O3 O 1.25871(18) 0.34497(18) 1.0265(2)
S1 S 1.14382(6) 0.24086(5) 1.04167(5)
loop_
_geom_bond_atom_site_label_1
_geom_bond_atom_site_label_2
_geom_bond_site_symmetry_1
_geom_bond_site_symmetry_2
C1 C2 1_555 1_555
C2 H1 1_555 1_555
C3 C2 1_555 1_555
H2 C3 1_555 1_555
C4 C3 1_555 1_555
H3 C4 1_555 1_555
C5 C4 1_555 1_555
H4 C5 1_555 1_555
C6 C1 1_555 1_555
H5 C6 1_555 1_555
C7 C8 1_555 1_555
C8 C9 1_555 1_555
C9 C10 1_555 1_555
C10 H6 1_555 1_555
H7 C10 1_555 1_555
H8 C10 1_555 1_555
C11 H9 1_555 1_555
H10 C11 1_555 1_555
H11 C11 1_555 1_555
C12 C13 1_555 1_555
C13 H12 1_555 1_555
C14 C13 1_555 1_555
H13 C14 1_555 1_555
C15 C14 1_555 1_555
H14 C15 1_555 1_555
C16 C15 1_555 1_555
H15 C16 1_555 1_555
C17 C12 1_555 1_555
H16 C17 1_555 1_555
N1 C1 1_555 1_555
N2 C9 1_555 1_555
N3 C8 1_555 1_555
H17 N3 1_555 1_555
O1 C7 1_555 1_555
O2 S1 1_555 1_555
O3 S1 1_555 1_555
S1 C12 1_555 1_555
C5 C6 1_555 1_555
C7 N1 1_555 1_555
C11 N2 1_555 1_555
C16 C17 1_555 1_555
N1 N2 1_555 1_555
N3 S1 1_555 1_555

#END
