
#######################################################################
#
#                 Cambridge Crystallographic Data Centre
#                                CCDC 
#
#######################################################################
#
# If this CIF has been generated from an entry in the Cambridge 
# Structural Database, then it will include bibliographic, chemical, 
# crystal, experimental, refinement or atomic coordinate data resulting 
# from the CCDC's data processing and validation procedures.
#
#######################################################################

data_EDUXIL
_chemical_formula_moiety         'C9 H7 N3 O1'
_chemical_name_systematic        1-(Pyrazin-2-yl)pyridin-2(1H)-one
_symmetry_cell_setting           orthorhombic
_symmetry_space_group_name_H-M   'P 21 21 21'
_symmetry_Int_Tables_number      19
_space_group_name_Hall           'P 2ac 2ab'
loop_
_symmetry_equiv_pos_site_id
_symmetry_equiv_pos_as_xyz
1 x,y,z
2 1/2-x,-y,1/2+z
3 -x,1/2+y,1/2-z
4 1/2+x,1/2-y,-z
_cell_length_a                   3.7885(12)
_cell_length_b                   13.939(4)
_cell_length_c                   15.191(5)
_cell_angle_alpha                90
_cell_angle_beta                 90
_cell_angle_gamma                90
_cell_volume                     802.205
_exptl_crystal_colour            yellow
_exptl_crystal_description       prism
_cell_formula_units_Z            4
_exptl_crystal_recrystallization_method 'ethyl acetate'
loop_
_atom_site_label
_atom_site_type_symbol
_atom_site_fract_x
_atom_site_fract_y
_atom_site_fract_z
C1 C 0.0141(7) 0.39124(17) 0.78163(15)
C2 C 0.1437(7) 0.47805(14) 0.91863(13)
N1 N 0.1543(6) 0.39158(12) 0.86787(11)
C3 C 0.2634(8) 0.56411(14) 0.88484(16)
H1 H 0.3520 0.5661 0.8278
C4 C 0.0273(8) 0.29989(18) 0.73926(16)
H2 H -0.0532 0.2949 0.6816
N2 N 0.0239(6) 0.46918(14) 0.99967(12)
O1 O -0.1113(6) 0.46495(12) 0.75031(11)
N3 N 0.2542(7) 0.64396(13) 0.93230(14)
C5 C 0.2798(8) 0.30965(15) 0.90766(15)
H3 H 0.3655 0.3132 0.9649
C6 C 0.1289(9) 0.63572(18) 1.01391(17)
H4 H 0.1149 0.6902 1.0491
C7 C 0.1513(9) 0.22094(18) 0.77935(18)
H5 H 0.1511 0.1627 0.7494
C8 C 0.2815(8) 0.22503(16) 0.86602(17)
H6 H 0.3668 0.1702 0.8937
C9 C 0.0197(8) 0.54941(17) 1.04775(17)
H7 H -0.0593 0.5467 1.1057
loop_
_geom_bond_atom_site_label_1
_geom_bond_atom_site_label_2
_geom_bond_site_symmetry_1
_geom_bond_site_symmetry_2
C1 N1 1_555 1_555
C2 N1 1_555 1_555
N1 C5 1_555 1_555
C3 C2 1_555 1_555
H1 C3 1_555 1_555
C4 C1 1_555 1_555
H2 C4 1_555 1_555
N2 C2 1_555 1_555
O1 C1 1_555 1_555
N3 C3 1_555 1_555
C5 H3 1_555 1_555
C6 N3 1_555 1_555
H4 C6 1_555 1_555
C7 C4 1_555 1_555
H5 C7 1_555 1_555
C8 C5 1_555 1_555
H6 C8 1_555 1_555
C9 N2 1_555 1_555
H7 C9 1_555 1_555
C6 C9 1_555 1_555
C7 C8 1_555 1_555

#END
