
#######################################################################
#
#                 Cambridge Crystallographic Data Centre
#                                CCDC 
#
#######################################################################
#
# If this CIF has been generated from an entry in the Cambridge 
# Structural Database, then it will include bibliographic, chemical, 
# crystal, experimental, refinement or atomic coordinate data resulting 
# from the CCDC's data processing and validation procedures.
#
#######################################################################

data_EFABOD
_chemical_formula_moiety         'C18 H12 N2 O4'
_chemical_name_systematic        'meso-1,2-Dicyanethane-1,2-diyl dibenzoate'
_symmetry_cell_setting           triclinic
_symmetry_space_group_name_H-M   'P -1'
_symmetry_Int_Tables_number      2
_space_group_name_Hall           '-P 1'
loop_
_symmetry_equiv_pos_site_id
_symmetry_equiv_pos_as_xyz
1 x,y,z
2 -x,-y,-z
_cell_length_a                   5.7840(14)
_cell_length_b                   7.3241(18)
_cell_length_c                   10.229(3)
_cell_angle_alpha                106.26(2)
_cell_angle_beta                 105.30(2)
_cell_angle_gamma                96.55(2)
_cell_volume                     392.898
_exptl_crystal_colour            colorless
_exptl_crystal_description       plate
_cell_formula_units_Z            1
loop_
_atom_site_label
_atom_site_type_symbol
_atom_site_fract_x
_atom_site_fract_y
_atom_site_fract_z
N1 N 0.7067(4) 0.3356(4) -0.0651(2)
C1 C 0.6776(4) 0.2093(4) -0.0243(2)
C2 C 0.6353(3) 0.0443(3) 0.02731(18)
H1 H 0.7299 -0.0526 -0.0042
O1 O 0.6942(2) 0.10852(19) 0.17988(12)
C3 C 0.9385(4) 0.1618(3) 0.25485(18)
O2 O 1.0897(3) 0.1597(2) 0.19460(14)
C4 C 0.9803(3) 0.2197(2) 0.41001(17)
C5 C 1.2117(4) 0.3173(3) 0.4994(2)
H2 H 1.3350 0.3450 0.4609
C6 C 1.2594(4) 0.3735(3) 0.6457(2)
H3 H 1.4145 0.4408 0.7060
C7 C 1.0797(5) 0.3305(3) 0.7026(2)
H4 H 1.1132 0.3679 0.8014
C8 C 0.8507(4) 0.2327(3) 0.6147(2)
H5 H 0.7290 0.2033 0.6539
C9 C 0.8002(4) 0.1778(3) 0.4680(2)
H6 H 0.6440 0.1123 0.4083
N1A N 0.2933(4) -0.3356(4) 0.0651(2)
C1A C 0.3224(4) -0.2093(4) 0.0243(2)
C2A C 0.3647(3) -0.0443(3) -0.02731(18)
H1A H 0.2701 0.0526 0.0042
O1A O 0.3058(2) -0.10852(19) -0.17988(12)
C3A C 0.0615(4) -0.1618(3) -0.25485(18)
O2A O -0.0897(3) -0.1597(2) -0.19460(14)
C4A C 0.0197(3) -0.2197(2) -0.41001(17)
C5A C -0.2117(4) -0.3173(3) -0.4994(2)
H2A H -0.3350 -0.3450 -0.4609
C6A C -0.2594(4) -0.3735(3) -0.6457(2)
H3A H -0.4145 -0.4408 -0.7060
C7A C -0.0797(5) -0.3305(3) -0.7026(2)
H4A H -0.1132 -0.3679 -0.8014
C8A C 0.1493(4) -0.2327(3) -0.6147(2)
H5A H 0.2710 -0.2033 -0.6539
C9A C 0.1998(4) -0.1778(3) -0.4680(2)
H6A H 0.3560 -0.1123 -0.4083
loop_
_geom_bond_atom_site_label_1
_geom_bond_atom_site_label_2
_geom_bond_site_symmetry_1
_geom_bond_site_symmetry_2
N1 C1 1_555 1_555
C1 C2 1_555 1_555
C2 H1 1_555 1_555
O1 C2 1_555 1_555
C3 O1 1_555 1_555
O2 C3 1_555 1_555
C4 C3 1_555 1_555
C5 C4 1_555 1_555
H2 C5 1_555 1_555
C6 C5 1_555 1_555
H3 C6 1_555 1_555
C7 C6 1_555 1_555
H4 C7 1_555 1_555
C8 C7 1_555 1_555
H5 C8 1_555 1_555
C9 C4 1_555 1_555
H6 C9 1_555 1_555
N1A C1A 1_555 1_555
C1A C2A 1_555 1_555
C2A C2 1_555 1_555
H1A C2A 1_555 1_555
O1A C2A 1_555 1_555
C3A O1A 1_555 1_555
O2A C3A 1_555 1_555
C4A C3A 1_555 1_555
C5A C4A 1_555 1_555
H2A C5A 1_555 1_555
C6A C5A 1_555 1_555
H3A C6A 1_555 1_555
C7A C6A 1_555 1_555
H4A C7A 1_555 1_555
C8A C7A 1_555 1_555
H5A C8A 1_555 1_555
C9A C4A 1_555 1_555
H6A C9A 1_555 1_555
C8 C9 1_555 1_555
C8A C9A 1_555 1_555

#END
