
#######################################################################
#
#                 Cambridge Crystallographic Data Centre
#                                CCDC 
#
#######################################################################
#
# If this CIF has been generated from an entry in the Cambridge 
# Structural Database, then it will include bibliographic, chemical, 
# crystal, experimental, refinement or atomic coordinate data resulting 
# from the CCDC's data processing and validation procedures.
#
#######################################################################

data_EFADUM01
_chemical_name_common            
'ethyl (Z)-chloro((4-methoxyphenyl)hydrazono)acetate'
_chemical_formula_moiety         'C11 H13 Cl1 N2 O3'
_chemical_name_systematic        
'ethyl (Z)-2-chloro-2-(2-(4-methoxyphenyl)hydrazin-1-ylidene)acetate'
_symmetry_cell_setting           monoclinic
_symmetry_space_group_name_H-M   'P 21'
_symmetry_Int_Tables_number      4
_space_group_name_Hall           'P 2yb'
loop_
_symmetry_equiv_pos_site_id
_symmetry_equiv_pos_as_xyz
1 x,y,z
2 -x,1/2+y,-z
_cell_length_a                   4.7454(3)
_cell_length_b                   9.8938(7)
_cell_length_c                   13.3001(7)
_cell_angle_alpha                90
_cell_angle_beta                 91.605(5)
_cell_angle_gamma                90
_cell_volume                     624.195
_exptl_crystal_colour            colorless
_cell_formula_units_Z            2
_exptl_crystal_recrystallization_method methanol
loop_
_atom_site_label
_atom_site_type_symbol
_atom_site_fract_x
_atom_site_fract_y
_atom_site_fract_z
Cl1 Cl 0.4617(4) 0.5322(2) 0.04253(11)
N1 N 0.5901(9) 0.5070(4) -0.1497(3)
O1 O 0.2230(9) 0.3143(4) -0.1869(3)
O2 O 1.3616(10) 0.7786(6) -0.4694(3)
C1 C 1.2648(12) 0.8019(6) -0.2908(5)
H1 H 1.3929 0.8723 -0.2823
C2 C 1.2244(11) 0.7425(6) -0.3839(4)
C3 C 0.9267(10) 0.6517(5) -0.2216(4)
N2 N 0.7757(9) 0.6060(5) -0.1377(3)
H2 H 0.8043 0.6422 -0.0796
C4 C 1.0367(12) 0.6373(7) -0.3943(4)
H3 H 1.0111 0.5962 -0.4568
C5 C 0.2353(12) 0.3557(6) -0.0924(4)
C6 C 1.1134(12) 0.7559(6) -0.2101(4)
H4 H 1.1391 0.7965 -0.1475
C7 C 0.8866(11) 0.5919(6) -0.3147(4)
H5 H 0.7586 0.5214 -0.3233
O3 O 0.0904(9) 0.3126(5) -0.0270(3)
C8 C 0.4422(12) 0.4649(6) -0.0787(4)
C9 C 1.5379(16) 0.8927(9) -0.4655(6)
H6 H 1.6231 0.9049 -0.5294
H7 H 1.6824 0.8798 -0.4144
H8 H 1.4286 0.9712 -0.4498
C10 C 0.019(2) 0.1830(10) -0.3151(7)
H9 H -0.0194 0.2648 -0.3518
H10 H -0.1228 0.1170 -0.3318
H11 H 0.2007 0.1489 -0.3326
C11 C 0.0177(16) 0.2104(8) -0.2101(5)
H12 H 0.0637 0.1289 -0.1725
H13 H -0.1682 0.2403 -0.1913
loop_
_geom_bond_atom_site_label_1
_geom_bond_atom_site_label_2
_geom_bond_site_symmetry_1
_geom_bond_site_symmetry_2
Cl1 C8 1_555 1_555
N1 N2 1_555 1_555
O1 C5 1_555 1_555
O2 C2 1_555 1_555
C1 H1 1_555 1_555
C2 C1 1_555 1_555
C3 N2 1_555 1_555
N2 H2 1_555 1_555
C4 C2 1_555 1_555
H3 C4 1_555 1_555
C5 O3 1_555 1_555
C6 C1 1_555 1_555
H4 C6 1_555 1_555
C7 C3 1_555 1_555
H5 C7 1_555 1_555
C8 N1 1_555 1_555
C9 O2 1_555 1_555
H6 C9 1_555 1_555
H7 C9 1_555 1_555
H8 C9 1_555 1_555
C10 H9 1_555 1_555
H10 C10 1_555 1_555
H11 C10 1_555 1_555
C11 O1 1_555 1_555
H12 C11 1_555 1_555
H13 C11 1_555 1_555
C3 C6 1_555 1_555
C4 C7 1_555 1_555
C5 C8 1_555 1_555
C10 C11 1_555 1_555

#END
