
#######################################################################
#
#                 Cambridge Crystallographic Data Centre
#                                CCDC 
#
#######################################################################
#
# If this CIF has been generated from an entry in the Cambridge 
# Structural Database, then it will include bibliographic, chemical, 
# crystal, experimental, refinement or atomic coordinate data resulting 
# from the CCDC's data processing and validation procedures.
#
#######################################################################

data_EFAJAY
_chemical_formula_moiety         'C17 H22 Cl1 N1 O1,0.5(H2 O1)'
_chemical_name_systematic        
'2-[(Adamantan-1-yl)aminomethyl]-4-chlorophenol hemihydrate'
_symmetry_cell_setting           monoclinic
_symmetry_space_group_name_H-M   'C 2/c'
_symmetry_Int_Tables_number      15
_space_group_name_Hall           '-C 2yn'
loop_
_symmetry_equiv_pos_site_id
_symmetry_equiv_pos_as_xyz
1 x,y,z
2 -x,y,1/2-z
3 1/2+x,1/2+y,z
4 1/2-x,1/2+y,1/2-z
5 -x,-y,-z
6 x,-y,1/2+z
7 1/2-x,1/2-y,-z
8 1/2+x,1/2-y,1/2+z
_cell_length_a                   25.469(16)
_cell_length_b                   6.365(4)
_cell_length_c                   18.306(11)
_cell_angle_alpha                90
_cell_angle_beta                 91.815(12)
_cell_angle_gamma                90
_cell_volume                     2966.1
_exptl_crystal_colour            yellow
_exptl_crystal_description       block
_cell_formula_units_Z            8
_exptl_crystal_recrystallization_method water/ethanol
loop_
_atom_site_label
_atom_site_type_symbol
_atom_site_fract_x
_atom_site_fract_y
_atom_site_fract_z
C1 C 0.68802(17) 0.9819(7) 0.1855(2)
H1 H 0.6718 1.0857 0.2164
H2 H 0.7254 1.0115 0.1847
C2 C 0.67926(18) 0.7615(7) 0.2166(2)
H3 H 0.6948 0.7526 0.2662
C3 C 0.61919(16) 0.7207(7) 0.2187(2)
H4 H 0.6128 0.5828 0.2392
H5 H 0.6030 0.8246 0.2495
C4 C 0.59505(16) 0.7331(6) 0.1410(2)
C5 C 0.60470(15) 0.9535(6) 0.1103(2)
H6 H 0.5884 1.0577 0.1410
H7 H 0.5890 0.9646 0.0615
C6 C 0.66397(17) 0.9950(7) 0.1079(2)
H8 H 0.6700 1.1354 0.0879
C7 C 0.68971(16) 0.8294(6) 0.0594(2)
H9 H 0.6748 0.8377 0.0101
H10 H 0.7271 0.8560 0.0575
C8 C 0.70416(16) 0.5981(7) 0.1683(3)
H11 H 0.6985 0.4590 0.1882
H12 H 0.7417 0.6221 0.1671
C9 C 0.68029(16) 0.6101(6) 0.0909(2)
H13 H 0.6967 0.5042 0.0601
C10 C 0.62049(16) 0.5697(7) 0.0927(2)
H14 H 0.6052 0.5776 0.0435
H15 H 0.6140 0.4301 0.1117
C11 C 0.50199(15) 0.7241(6) 0.0828(2)
H16 H 0.4970 0.8739 0.0758
H17 H 0.5173 0.6669 0.0393
C12 C 0.45058(16) 0.6210(6) 0.0955(2)
C13 C 0.44999(15) 0.4119(6) 0.1226(2)
C14 C 0.40219(17) 0.3142(7) 0.1333(2)
H18 H 0.4017 0.1768 0.1506
C15 C 0.35494(16) 0.4183(7) 0.1187(2)
H19 H 0.3230 0.3522 0.1263
C16 C 0.35647(16) 0.6241(7) 0.0923(2)
C17 C 0.40353(16) 0.7250(6) 0.0811(2)
H20 H 0.4037 0.8626 0.0640
Cl1 Cl 0.29758(4) 0.75941(17) 0.07489(6)
H21 H 0.5251(19) 0.367(15) 0.133(6)
H22 H 0.5178(18) 0.748(7) 0.181(2)
N1 N 0.53801(14) 0.6858(6) 0.14802(19)
O1 O 0.49570(13) 0.3128(5) 0.13804(18)
O2 O 0.5000 1.0204(8) 0.2500
H23 H 0.491(2) 1.097(7) 0.286(2)
H23A H 0.509(2) 1.097(7) 0.214(2)
loop_
_geom_bond_atom_site_label_1
_geom_bond_atom_site_label_2
_geom_bond_site_symmetry_1
_geom_bond_site_symmetry_2
C1 H1 1_555 1_555
H2 C1 1_555 1_555
C2 C1 1_555 1_555
H3 C2 1_555 1_555
C3 C2 1_555 1_555
H4 C3 1_555 1_555
H5 C3 1_555 1_555
C4 C3 1_555 1_555
C5 C4 1_555 1_555
H6 C5 1_555 1_555
H7 C5 1_555 1_555
C6 C1 1_555 1_555
H8 C6 1_555 1_555
C7 C6 1_555 1_555
H9 C7 1_555 1_555
H10 C7 1_555 1_555
C8 C2 1_555 1_555
H11 C8 1_555 1_555
H12 C8 1_555 1_555
C9 C7 1_555 1_555
H13 C9 1_555 1_555
C10 C4 1_555 1_555
H14 C10 1_555 1_555
H15 C10 1_555 1_555
C11 H16 1_555 1_555
H17 C11 1_555 1_555
C12 C11 1_555 1_555
C13 C12 1_555 1_555
C14 C13 1_555 1_555
H18 C14 1_555 1_555
C15 C14 1_555 1_555
H19 C15 1_555 1_555
C16 C15 1_555 1_555
C17 C12 1_555 1_555
H20 C17 1_555 1_555
Cl1 C16 1_555 1_555
H21 O1 1_555 1_555
H22 N1 1_555 1_555
N1 C4 1_555 1_555
O1 C13 1_555 1_555
O2 H23 1_555 1_555
H23A O2 1_555 1_555
C5 C6 1_555 1_555
C8 C9 1_555 1_555
C9 C10 1_555 1_555
C11 N1 1_555 1_555
C16 C17 1_555 1_555

#END
