
#######################################################################
#
#                 Cambridge Crystallographic Data Centre
#                                CCDC 
#
#######################################################################
#
# If this CIF has been generated from an entry in the Cambridge 
# Structural Database, then it will include bibliographic, chemical, 
# crystal, experimental, refinement or atomic coordinate data resulting 
# from the CCDC's data processing and validation procedures.
#
#######################################################################

data_EFALAA
_chemical_formula_moiety         'C18 H40 N4 P1 1+,2(H2 O1),Cl1 1-'
_chemical_name_systematic        
'2,8,9-tris(2-Methylpropyl)-2,5,8,9-tetra-aza-1\l^5^-phosphatricyclo[3.3.3.0^1,5^]undecan-5-ium chloride dihydrate'
_symmetry_cell_setting           triclinic
_symmetry_space_group_name_H-M   'P -1'
_symmetry_Int_Tables_number      2
_space_group_name_Hall           '-P 1'
loop_
_symmetry_equiv_pos_site_id
_symmetry_equiv_pos_as_xyz
1 x,y,z
2 -x,-y,-z
_cell_length_a                   10.0945(19)
_cell_length_b                   15.759(3)
_cell_length_c                   16.122(3)
_cell_angle_alpha                106.720(8)
_cell_angle_beta                 92.259(8)
_cell_angle_gamma                90.616(8)
_cell_volume                     2453.68
_exptl_crystal_colour            colorless
_exptl_crystal_description       block
_cell_formula_units_Z            4
loop_
_atom_site_label
_atom_site_type_symbol
_atom_site_fract_x
_atom_site_fract_y
_atom_site_fract_z
P1 P 0.47871(8) 0.18003(5) 0.25193(4)
H1 H 0.5165 0.1643 0.1863
N1 N 0.4185(3) 0.07779(17) 0.23900(15)
N2 N 0.3761(3) 0.25637(18) 0.23615(16)
N3 N 0.6278(3) 0.2097(2) 0.29888(15)
N4 N 0.4135(3) 0.20879(19) 0.37035(15)
C1 C 0.4487(3) 0.00250(19) 0.16562(18)
H2 H 0.4929 -0.0415 0.1875
H3 H 0.5104 0.0224 0.1301
C2 C 0.3291(3) -0.0414(2) 0.10863(19)
H4 H 0.2676 -0.0616 0.1449
C3 C 0.2569(4) 0.0221(3) 0.0690(3)
H5 H 0.3168 0.0452 0.0357
H6 H 0.2238 0.0700 0.1143
H7 H 0.1841 -0.0086 0.0320
C4 C 0.3732(4) -0.1225(2) 0.0384(2)
H8 H 0.4321 -0.1041 0.0012
H9 H 0.2969 -0.1526 0.0048
H10 H 0.4183 -0.1620 0.0650
C5 C 0.3569(3) 0.2767(2) 0.15394(19)
H11 H 0.2631 0.2706 0.1373
H12 H 0.4027 0.2331 0.1100
C6 C 0.4048(4) 0.3687(2) 0.1538(2)
H13 H 0.3522 0.4127 0.1940
C7 C 0.5489(4) 0.3849(3) 0.1837(3)
H14 H 0.6015 0.3402 0.1469
H15 H 0.5595 0.3824 0.2424
H16 H 0.5771 0.4423 0.1808
C8 C 0.3807(5) 0.3789(3) 0.0633(3)
H17 H 0.4367 0.3394 0.0237
H18 H 0.4008 0.4389 0.0643
H19 H 0.2895 0.3647 0.0449
C9 C 0.7437(3) 0.2225(3) 0.2514(2)
H20 H 0.7708 0.2845 0.2715
H21 H 0.7171 0.2094 0.1905
C10 C 0.8623(4) 0.1676(3) 0.2595(3)
H22 H 0.8966 0.1865 0.3198
C11 C 0.8185(6) 0.0707(3) 0.2372(4)
H23 H 0.7853 0.0509 0.1781
H24 H 0.7498 0.0643 0.2747
H25 H 0.8927 0.0357 0.2449
C12 C 0.9706(5) 0.1782(5) 0.2028(4)
H26 H 0.9395 0.1579 0.1432
H27 H 1.0452 0.1441 0.2118
H28 H 0.9970 0.2396 0.2169
C13 C 0.3519(12) 0.0572(11) 0.3116(10)
H29 H 0.2566 0.0625 0.3054
H30 H 0.3710 -0.0026 0.3128
C14 C 0.4050(11) 0.1221(5) 0.3914(4)
H31 H 0.4919 0.1051 0.4079
H32 H 0.3464 0.1263 0.4386
C15 C 0.2888(16) 0.2973(9) 0.3003(10)
H33 H 0.2020 0.3007 0.2735
H34 H 0.3206 0.3572 0.3293
C16 C 0.2774(8) 0.2474(6) 0.3645(4)
H35 H 0.2101 0.2007 0.3454
H36 H 0.2546 0.2864 0.4203
C17 C 0.6527(14) 0.2340(12) 0.3908(10)
H37 H 0.7204 0.2805 0.4096
H38 H 0.6792 0.1835 0.4100
C18 C 0.5063(9) 0.2696(7) 0.4264(4)
H39 H 0.4984 0.2691 0.4860
H40 H 0.4926 0.3293 0.4229
P2 P 0.00164(8) 0.67818(5) 0.25974(4)
H41 H 0.0358 0.6634 0.1932
N5 N 0.1546(3) 0.67602(17) 0.30179(15)
N6 N -0.0976(3) 0.58841(17) 0.23778(14)
N7 N -0.0637(3) 0.77358(17) 0.25760(15)
N8 N -0.0565(3) 0.70466(19) 0.37922(15)
C19 C -0.1248(5) 0.8303(3) 0.3349(3)
H42 H -0.2028 0.8582 0.3186
H43 H -0.0625 0.8761 0.3677
C20 C -0.1624(5) 0.7683(3) 0.3881(3)
H44 H -0.1703 0.8014 0.4484
H45 H -0.2464 0.7380 0.3663
C21 C -0.0232(3) 0.8174(2) 0.1939(2)
H46 H 0.0653 0.7987 0.1768
H47 H -0.0184 0.8808 0.2217
C22 C -0.1139(4) 0.7998(3) 0.1120(2)
H48 H -0.1135 0.7358 0.0837
C23 C -0.0542(5) 0.8441(3) 0.0499(3)
H49 H -0.1088 0.8311 -0.0025
H50 H 0.0333 0.8223 0.0367
H51 H -0.0491 0.9071 0.0762
C24 C -0.2533(4) 0.8234(3) 0.1279(3)
H52 H -0.2581 0.8856 0.1570
H53 H -0.2894 0.7902 0.1635
H54 H -0.3034 0.8098 0.0737
C25 C 0.1787(4) 0.6952(3) 0.3955(2)
H55 H 0.2580 0.7322 0.4142
H56 H 0.1907 0.6407 0.4111
C26 C 0.0604(5) 0.7423(3) 0.4373(2)
H57 H 0.0507 0.7333 0.4938
H58 H 0.0696 0.8054 0.4446
C27 C 0.2650(3) 0.6351(2) 0.2489(2)
H59 H 0.2335 0.6145 0.1887
H60 H 0.2924 0.5836 0.2662
C28 C 0.3857(4) 0.6966(2) 0.2560(2)
H61 H 0.4206 0.7135 0.3162
C29 C 0.4924(4) 0.6446(3) 0.1989(4)
H62 H 0.4651 0.6338 0.1389
H63 H 0.5048 0.5891 0.2112
H64 H 0.5743 0.6783 0.2106
C30 C 0.3497(4) 0.7796(3) 0.2337(3)
H65 H 0.4271 0.8173 0.2404
H66 H 0.2835 0.8100 0.2716
H67 H 0.3155 0.7647 0.1747
C31 C -0.1721(4) 0.5683(3) 0.3062(2)
H68 H -0.1743 0.5050 0.2991
H69 H -0.2625 0.5884 0.3051
C32 C -0.0976(5) 0.6183(3) 0.3917(2)
H70 H -0.1551 0.6273 0.4402
H71 H -0.0208 0.5858 0.4023
C33 C -0.1421(3) 0.5396(2) 0.14950(18)
H72 H -0.1010 0.5667 0.1098
H73 H -0.2372 0.5460 0.1436
C34 C -0.1124(4) 0.4416(2) 0.1222(2)
H74 H -0.1614 0.4146 0.1597
C35 C -0.1675(5) 0.4001(3) 0.0296(3)
H75 H -0.2618 0.4071 0.0273
H76 H -0.1480 0.3381 0.0116
H77 H -0.1274 0.4288 -0.0085
C36 C 0.0313(5) 0.4249(3) 0.1354(4)
H78 H 0.0831 0.4526 0.1013
H79 H 0.0456 0.3622 0.1178
H80 H 0.0576 0.4491 0.1956
Cl1 Cl 0.74844(12) 0.48539(9) 0.49895(10)
Cl2 Cl 0.24967(11) 0.95105(8) 0.49482(9)
O1 O 0.0445(6) 0.0588(3) 0.4090(3)
H81 H -0.033(6) 0.050(4) 0.422(4)
H82 H 0.086(8) 0.016(6) 0.430(5)
O2 O 0.4520(7) 0.1069(3) 0.5950(3)
H83 H 0.530(7) 0.088(4) 0.584(4)
H84 H 0.403(8) 0.066(6) 0.570(5)
O3 O -0.0019(6) 0.6098(3) 0.6065(3)
H85 H 0.076(5) 0.593(3) 0.591(3)
H86 H -0.072(4) 0.578(3) 0.588(3)
O4 O 0.5064(6) 0.5514(4) 0.3944(3)
H87 H 0.551(6) 0.506(4) 0.414(4)
H88 H 0.448(5) 0.541(3) 0.415(3)
C37? C 0.352(3) 0.0518(19) 0.3059(18)
C38? C 0.3107(14) 0.1463(8) 0.3741(7)
C39? C 0.311(2) 0.3230(14) 0.3157(14)
C40? C 0.3783(11) 0.3057(7) 0.3948(5)
C41? C 0.638(3) 0.2444(19) 0.3975(16)
C42? C 0.5336(13) 0.1961(11) 0.4291(6)
H89? H 0.4104 0.0193 0.3342
H90? H 0.2736 0.0152 0.2821
H91? H 0.2252 0.1649 0.3570
H92? H 0.3065 0.1408 0.4324
H93? H 0.3266 0.3838 0.3156
H94? H 0.2160 0.3117 0.3142
H95? H 0.4577 0.3427 0.4125
H96? H 0.3191 0.3191 0.4426
H97? H 0.7253 0.2328 0.4193
H98? H 0.6244 0.3077 0.4165
H99? H 0.5190 0.2230 0.4901
H100? H 0.5538 0.1341 0.4192
loop_
_geom_bond_atom_site_label_1
_geom_bond_atom_site_label_2
_geom_bond_site_symmetry_1
_geom_bond_site_symmetry_2
P1 H1 1_555 1_555
N1 P1 1_555 1_555
N2 P1 1_555 1_555
N3 P1 1_555 1_555
N4 P1 1_555 1_555
C1 N1 1_555 1_555
H2 C1 1_555 1_555
H3 C1 1_555 1_555
C2 C1 1_555 1_555
H4 C2 1_555 1_555
C3 C2 1_555 1_555
H5 C3 1_555 1_555
H6 C3 1_555 1_555
H7 C3 1_555 1_555
C4 C2 1_555 1_555
H8 C4 1_555 1_555
H9 C4 1_555 1_555
H10 C4 1_555 1_555
C5 N2 1_555 1_555
H11 C5 1_555 1_555
H12 C5 1_555 1_555
C6 C5 1_555 1_555
H13 C6 1_555 1_555
C7 C6 1_555 1_555
H14 C7 1_555 1_555
H15 C7 1_555 1_555
H16 C7 1_555 1_555
C8 C6 1_555 1_555
H17 C8 1_555 1_555
H18 C8 1_555 1_555
H19 C8 1_555 1_555
C9 N3 1_555 1_555
H20 C9 1_555 1_555
H21 C9 1_555 1_555
C10 C9 1_555 1_555
H22 C10 1_555 1_555
C11 C10 1_555 1_555
H23 C11 1_555 1_555
H24 C11 1_555 1_555
H25 C11 1_555 1_555
C12 C10 1_555 1_555
H26 C12 1_555 1_555
H27 C12 1_555 1_555
H28 C12 1_555 1_555
C13 N1 1_555 1_555
H29 C13 1_555 1_555
H30 C13 1_555 1_555
C14 N4 1_555 1_555
H31 C14 1_555 1_555
H32 C14 1_555 1_555
C15 N2 1_555 1_555
H33 C15 1_555 1_555
H34 C15 1_555 1_555
C16 N4 1_555 1_555
H35 C16 1_555 1_555
H36 C16 1_555 1_555
C17 N3 1_555 1_555
H37 C17 1_555 1_555
H38 C17 1_555 1_555
C18 N4 1_555 1_555
H39 C18 1_555 1_555
H40 C18 1_555 1_555
P2 H41 1_555 1_555
N5 P2 1_555 1_555
N6 P2 1_555 1_555
N7 P2 1_555 1_555
N8 P2 1_555 1_555
C19 N7 1_555 1_555
H42 C19 1_555 1_555
H43 C19 1_555 1_555
C20 N8 1_555 1_555
H44 C20 1_555 1_555
H45 C20 1_555 1_555
C21 N7 1_555 1_555
H46 C21 1_555 1_555
H47 C21 1_555 1_555
C22 C21 1_555 1_555
H48 C22 1_555 1_555
C23 C22 1_555 1_555
H49 C23 1_555 1_555
H50 C23 1_555 1_555
H51 C23 1_555 1_555
C24 C22 1_555 1_555
H52 C24 1_555 1_555
H53 C24 1_555 1_555
H54 C24 1_555 1_555
C25 N5 1_555 1_555
H55 C25 1_555 1_555
H56 C25 1_555 1_555
C26 N8 1_555 1_555
H57 C26 1_555 1_555
H58 C26 1_555 1_555
C27 N5 1_555 1_555
H59 C27 1_555 1_555
H60 C27 1_555 1_555
C28 C27 1_555 1_555
H61 C28 1_555 1_555
C29 C28 1_555 1_555
H62 C29 1_555 1_555
H63 C29 1_555 1_555
H64 C29 1_555 1_555
C30 C28 1_555 1_555
H65 C30 1_555 1_555
H66 C30 1_555 1_555
H67 C30 1_555 1_555
C31 N6 1_555 1_555
H68 C31 1_555 1_555
H69 C31 1_555 1_555
C32 N8 1_555 1_555
H70 C32 1_555 1_555
H71 C32 1_555 1_555
C33 N6 1_555 1_555
H72 C33 1_555 1_555
H73 C33 1_555 1_555
C34 C33 1_555 1_555
H74 C34 1_555 1_555
C35 C34 1_555 1_555
H75 C35 1_555 1_555
H76 C35 1_555 1_555
H77 C35 1_555 1_555
C36 C34 1_555 1_555
H78 C36 1_555 1_555
H79 C36 1_555 1_555
H80 C36 1_555 1_555
O1 H81 1_555 1_555
H82 O1 1_555 1_555
O2 H83 1_555 1_555
H84 O2 1_555 1_555
O3 H85 1_555 1_555
H86 O3 1_555 1_555
O4 H87 1_555 1_555
H88 O4 1_555 1_555
C13 C14 1_555 1_555
C15 C16 1_555 1_555
C17 C18 1_555 1_555
C19 C20 1_555 1_555
C25 C26 1_555 1_555
C31 C32 1_555 1_555

#END
