
#######################################################################
#
#                 Cambridge Crystallographic Data Centre
#                                CCDC 
#
#######################################################################
#
# If this CIF has been generated from an entry in the Cambridge 
# Structural Database, then it will include bibliographic, chemical, 
# crystal, experimental, refinement or atomic coordinate data resulting 
# from the CCDC's data processing and validation procedures.
#
#######################################################################

data_EFASUZ
_chemical_formula_moiety         'C22 H18 N2 O6'
_chemical_name_systematic        
syn-2a'-acetoxy-1,7'-diacetyl-7',7a'-dihydro-2-oxo-spiro(1H-indole-3(2H),2'(2a'H)oxeto(2,3-b)indole)
_symmetry_cell_setting           triclinic
_symmetry_space_group_name_H-M   'P -1'
_symmetry_Int_Tables_number      2
_space_group_name_Hall           '-P 1'
loop_
_symmetry_equiv_pos_site_id
_symmetry_equiv_pos_as_xyz
1 x,y,z
2 -x,-y,-z
_cell_length_a                   8.9350(4)
_cell_length_b                   9.1189(3)
_cell_length_c                   13.4690(6)
_cell_angle_alpha                75.8970(10)
_cell_angle_beta                 89.8310(10)
_cell_angle_gamma                62.2010(10)
_cell_volume                     933.636
_exptl_crystal_colour            colorless
_exptl_crystal_description       block
_chemical_melting_point          466K
_cell_formula_units_Z            2
_exptl_crystal_recrystallization_method 'acetone-petroleum ether'
loop_
_atom_site_label
_atom_site_type_symbol
_atom_site_fract_x
_atom_site_fract_y
_atom_site_fract_z
O1 O 0.1379(4) 0.7573(3) 1.08829(19)
O2 O 0.8978(3) 0.7172(3) 0.54551(17)
O3 O 0.2881(2) 1.0966(2) 0.69147(15)
O4 O 0.0809(3) 1.0288(3) 0.73625(17)
O5 O 0.3895(3) 0.9935(3) 0.91094(16)
O6 O 0.6206(3) 0.7322(3) 0.81079(15)
N1 N 0.6700(3) 0.8093(3) 0.63396(18)
N2 N 0.2905(3) 0.7927(3) 0.95855(18)
C1 C 0.3036(4) 0.6539(4) 0.9193(2)
C2 C 0.2490(4) 0.5349(4) 0.9572(2)
H1 H 0.1890 0.5400 1.0139
C3 C 0.2872(4) 0.4061(4) 0.9074(2)
H2 H 0.2525 0.3237 0.9319
C4 C 0.3750(4) 0.3980(4) 0.8227(3)
H3 H 0.3981 0.3115 0.7907
C5 C 0.4288(4) 0.5192(4) 0.7852(2)
H4 H 0.4888 0.5140 0.7285
C6 C 0.3918(4) 0.6479(4) 0.8335(2)
C7 C 0.4389(4) 0.7880(3) 0.8115(2)
C8 C 0.3714(4) 0.8752(4) 0.8985(2)
C9 C 0.5905(4) 0.8711(4) 0.7195(2)
H5 H 0.6096 0.9623 0.7329
C10 C 0.5508(4) 0.7916(4) 0.5736(2)
C11 C 0.5790(4) 0.7196(4) 0.4914(2)
H6 H 0.6854 0.6743 0.4684
C12 C 0.4408(4) 0.7178(4) 0.4446(2)
H7 H 0.4561 0.6707 0.3891
C13 C 0.2816(4) 0.7841(4) 0.4783(2)
H8 H 0.1922 0.7811 0.4454
C14 C 0.2553(4) 0.8552(4) 0.5617(2)
H9 H 0.1487 0.9010 0.5843
C15 C 0.3922(4) 0.8562(3) 0.6102(2)
C16 C 0.4024(4) 0.9181(3) 0.7024(2)
C17 C 0.8376(4) 0.7622(4) 0.6211(2)
C18 C 0.9392(4) 0.7675(4) 0.7075(3)
H10 H 0.9137 0.7184 0.7725
H11 H 0.9102 0.8848 0.7021
H12 H 1.0587 0.7025 0.7031
C19 C 0.1236(4) 1.1386(4) 0.7090(2)
C20 C 0.0160(4) 1.3268(4) 0.6926(2)
H13 H 0.0785 1.3708 0.7222
H14 H -0.0854 1.3487 0.7249
H15 H -0.0149 1.3827 0.6199
C21 C 0.2090(4) 0.8345(4) 1.0465(2)
C22 C 0.2167(5) 0.9747(5) 1.0823(3)
H16 H 0.1550 1.0825 1.0304
H17 H 0.3336 0.9483 1.0943
H18 H 0.1666 0.9829 1.1452
loop_
_geom_bond_atom_site_label_1
_geom_bond_atom_site_label_2
_geom_bond_site_symmetry_1
_geom_bond_site_symmetry_2
O1 C21 1_555 1_555
O2 C17 1_555 1_555
O3 C16 1_555 1_555
O4 C19 1_555 1_555
O5 C8 1_555 1_555
O6 C7 1_555 1_555
N1 C9 1_555 1_555
N2 C1 1_555 1_555
C1 C2 1_555 1_555
C2 H1 1_555 1_555
C3 C2 1_555 1_555
H2 C3 1_555 1_555
C4 C3 1_555 1_555
H3 C4 1_555 1_555
C5 C4 1_555 1_555
H4 C5 1_555 1_555
C6 C1 1_555 1_555
C7 C6 1_555 1_555
C8 N2 1_555 1_555
C9 O6 1_555 1_555
H5 C9 1_555 1_555
C10 N1 1_555 1_555
C11 C10 1_555 1_555
H6 C11 1_555 1_555
C12 C11 1_555 1_555
H7 C12 1_555 1_555
C13 C12 1_555 1_555
H8 C13 1_555 1_555
C14 C13 1_555 1_555
H9 C14 1_555 1_555
C15 C10 1_555 1_555
C16 C7 1_555 1_555
C17 N1 1_555 1_555
C18 C17 1_555 1_555
H10 C18 1_555 1_555
H11 C18 1_555 1_555
H12 C18 1_555 1_555
C19 O3 1_555 1_555
C20 C19 1_555 1_555
H13 C20 1_555 1_555
H14 C20 1_555 1_555
H15 C20 1_555 1_555
C21 N2 1_555 1_555
C22 C21 1_555 1_555
H16 C22 1_555 1_555
H17 C22 1_555 1_555
H18 C22 1_555 1_555
C5 C6 1_555 1_555
C7 C8 1_555 1_555
C9 C16 1_555 1_555
C14 C15 1_555 1_555
C15 C16 1_555 1_555

#END
