
#######################################################################
#
#                 Cambridge Crystallographic Data Centre
#                                CCDC 
#
#######################################################################
#
# If this CIF has been generated from an entry in the Cambridge 
# Structural Database, then it will include bibliographic, chemical, 
# crystal, experimental, refinement or atomic coordinate data resulting 
# from the CCDC's data processing and validation procedures.
#
#######################################################################

data_EFATAG
_chemical_formula_moiety         'C22 H18 N2 O6'
_chemical_name_systematic        
anti-2a'-acetoxy-1,7'-diacetyl-7',7a'-dihydro-2-oxo-spiro(1H-indole-3(2H),2'(2a'H)oxeto(2,3-b)indole)
_symmetry_cell_setting           orthorhombic
_symmetry_space_group_name_H-M   'P n a 21'
_symmetry_Int_Tables_number      33
_space_group_name_Hall           'P 2c -2n'
loop_
_symmetry_equiv_pos_site_id
_symmetry_equiv_pos_as_xyz
1 x,y,z
2 -x,-y,1/2+z
3 1/2+x,1/2-y,z
4 1/2-x,1/2+y,1/2+z
_cell_length_a                   14.5310(2)
_cell_length_b                   8.76760(10)
_cell_length_c                   30.06790(10)
_cell_angle_alpha                90
_cell_angle_beta                 90
_cell_angle_gamma                90
_cell_volume                     3830.71
_exptl_crystal_colour            colorless
_exptl_crystal_description       block
_chemical_melting_point          476K
_cell_formula_units_Z            8
_exptl_crystal_recrystallization_method 'acetone-petroleum ether'
loop_
_atom_site_label
_atom_site_type_symbol
_atom_site_fract_x
_atom_site_fract_y
_atom_site_fract_z
O1 O 0.7304(3) 0.6188(4) 0.14474(12)
O2 O 0.7143(2) 0.6640(4) 0.46003(11)
O3 O 0.81028(19) 0.2835(4) 0.32003(11)
O4 O 0.8687(2) 0.3511(4) 0.25386(11)
O5 O 0.7188(3) 0.7506(4) 0.27846(18)
O6 O 0.63362(18) 0.5079(4) 0.32948(10)
N1 N 0.7295(2) 0.5437(4) 0.39408(12)
N2 N 0.7076(2) 0.5785(4) 0.21867(12)
C1 C 0.6739(3) 0.4266(5) 0.21550(14)
C2 C 0.6525(3) 0.3414(6) 0.17825(16)
H1 H 0.6616 0.3799 0.1498
C3 C 0.6169(3) 0.1970(7) 0.18490(18)
H2 H 0.6026 0.1377 0.1602
C4 C 0.6018(3) 0.1378(6) 0.22639(16)
H3 H 0.5766 0.0409 0.2295
C5 C 0.6245(3) 0.2233(6) 0.26400(19)
H4 H 0.6157 0.1842 0.2924
C6 C 0.6603(3) 0.3668(5) 0.25788(14)
C7 C 0.6925(3) 0.4793(5) 0.29180(15)
C8 C 0.7088(3) 0.6241(6) 0.26397(15)
C9 C 0.6984(3) 0.4401(5) 0.36058(13)
H5 H 0.6797 0.3400 0.3719
C10 C 0.8103(3) 0.6195(5) 0.37807(15)
C11 C 0.8587(4) 0.7380(6) 0.3974(2)
H6 H 0.8416 0.7782 0.4249
C12 C 0.9334(4) 0.7939(7) 0.3743(2)
H7 H 0.9661 0.8749 0.3866
C13 C 0.9615(4) 0.7368(6) 0.3346(3)
H8 H 1.0125 0.7783 0.3203
C14 C 0.9139(3) 0.6163(5) 0.31553(17)
H9 H 0.9325 0.5758 0.2884
C15 C 0.8380(3) 0.5571(5) 0.33765(14)
C16 C 0.7722(3) 0.4340(5) 0.32429(14)
C17 C 0.6873(3) 0.5665(6) 0.43408(16)
C18 C 0.6062(3) 0.4671(6) 0.44511(16)
H10 H 0.5692 0.4531 0.4190
H11 H 0.5700 0.5150 0.4679
H12 H 0.6275 0.3698 0.4555
C19 C 0.8589(3) 0.2562(5) 0.2826(2)
C20 C 0.8977(4) 0.0982(6) 0.2829(2)
H13 H 0.8794 0.0471 0.3098
H14 H 0.9636 0.1031 0.2816
H15 H 0.8749 0.0428 0.2577
C21 C 0.7357(3) 0.6703(7) 0.1820(2)
C22 C 0.7711(5) 0.8254(7) 0.1917(2)
H16 H 0.7220 0.8876 0.2031
H17 H 0.7949 0.8701 0.1650
H18 H 0.8192 0.8188 0.2135
O7 O 0.5337(3) 1.1281(4) 0.67895(12)
O8 O 0.5442(3) 1.1664(4) 0.36560(11)
O9 O 0.44771(19) 0.7850(4) 0.50565(11)
O10 O 0.3893(2) 0.8503(4) 0.57205(11)
O11 O 0.5423(3) 1.2516(4) 0.54575(16)
O12 O 0.62566(18) 1.0055(4) 0.49494(10)
N3 N 0.5274(2) 1.0434(4) 0.43059(11)
N4 N 0.5526(2) 1.0838(4) 0.60538(12)
C23 C 0.5861(3) 0.9297(5) 0.60915(15)
C24 C 0.6071(3) 0.8478(6) 0.64700(17)
H19 H 0.5978 0.8881 0.6753
C25 C 0.6430(3) 0.7019(7) 0.64092(17)
H20 H 0.6576 0.6438 0.6658
C26 C 0.6577(3) 0.6407(6) 0.59931(17)
H21 H 0.6830 0.5438 0.5964
C27 C 0.6345(3) 0.7242(6) 0.56168(19)
H22 H 0.6431 0.6835 0.5334
C28 C 0.5987(3) 0.8679(5) 0.56695(14)
C29 C 0.5669(3) 0.9804(5) 0.53342(13)
C30 C 0.5511(3) 1.1245(5) 0.56037(16)
C31 C 0.5594(3) 0.9381(5) 0.46465(14)
H23 H 0.5770 0.8375 0.4533
C32 C 0.4477(3) 1.1196(5) 0.44709(15)
C33 C 0.3995(4) 1.2400(5) 0.4274(2)
H24 H 0.4169 1.2800 0.4000
C34 C 0.3242(4) 1.2972(7) 0.4506(2)
H25 H 0.2910 1.3779 0.4386
C35 C 0.2973(4) 1.2370(6) 0.4914(3)
H26 H 0.2468 1.2776 0.5062
C36 C 0.3454(3) 1.1171(5) 0.50984(16)
H27 H 0.3274 1.0763 0.5370
C37 C 0.4205(3) 1.0583(5) 0.48757(14)
C38 C 0.4865(3) 0.9341(5) 0.50064(14)
C39 C 0.5714(3) 1.0663(6) 0.39114(15)
C40 C 0.6518(3) 0.9683(6) 0.38024(17)
H28 H 0.6774 0.9277 0.4072
H29 H 0.6975 1.0279 0.3651
H30 H 0.6323 0.8860 0.3614
C41 C 0.3977(3) 0.7564(5) 0.5435(2)
C42 C 0.3605(4) 0.5996(6) 0.54192(18)
H31 H 0.4098 0.5288 0.5370
H32 H 0.3167 0.5918 0.5181
H33 H 0.3307 0.5765 0.5696
C43 C 0.5279(3) 1.1763(6) 0.64151(18)
C44 C 0.4918(4) 1.3324(6) 0.6317(2)
H34 H 0.4390 1.3246 0.6126
H35 H 0.5387 1.3914 0.6172
H36 H 0.4744 1.3814 0.6590
loop_
_geom_bond_atom_site_label_1
_geom_bond_atom_site_label_2
_geom_bond_site_symmetry_1
_geom_bond_site_symmetry_2
O1 C21 1_555 1_555
O2 C17 1_555 1_555
O3 C16 1_555 1_555
O4 C19 1_555 1_555
O5 C8 1_555 1_555
O6 C7 1_555 1_555
N1 C9 1_555 1_555
N2 C1 1_555 1_555
C1 C2 1_555 1_555
C2 H1 1_555 1_555
C3 C2 1_555 1_555
H2 C3 1_555 1_555
C4 C3 1_555 1_555
H3 C4 1_555 1_555
C5 C4 1_555 1_555
H4 C5 1_555 1_555
C6 C1 1_555 1_555
C7 C6 1_555 1_555
C8 N2 1_555 1_555
C9 O6 1_555 1_555
H5 C9 1_555 1_555
C10 N1 1_555 1_555
C11 C10 1_555 1_555
H6 C11 1_555 1_555
C12 C11 1_555 1_555
H7 C12 1_555 1_555
C13 C12 1_555 1_555
H8 C13 1_555 1_555
C14 C13 1_555 1_555
H9 C14 1_555 1_555
C15 C10 1_555 1_555
C16 C7 1_555 1_555
C17 N1 1_555 1_555
C18 C17 1_555 1_555
H10 C18 1_555 1_555
H11 C18 1_555 1_555
H12 C18 1_555 1_555
C19 O3 1_555 1_555
C20 C19 1_555 1_555
H13 C20 1_555 1_555
H14 C20 1_555 1_555
H15 C20 1_555 1_555
C21 N2 1_555 1_555
C22 C21 1_555 1_555
H16 C22 1_555 1_555
H17 C22 1_555 1_555
H18 C22 1_555 1_555
O7 C43 1_555 1_555
O8 C39 1_555 1_555
O9 C38 1_555 1_555
O10 C41 1_555 1_555
O11 C30 1_555 1_555
O12 C29 1_555 1_555
N3 C31 1_555 1_555
N4 C23 1_555 1_555
C23 C24 1_555 1_555
C24 H19 1_555 1_555
C25 C24 1_555 1_555
H20 C25 1_555 1_555
C26 C25 1_555 1_555
H21 C26 1_555 1_555
C27 C26 1_555 1_555
H22 C27 1_555 1_555
C28 C23 1_555 1_555
C29 C28 1_555 1_555
C30 N4 1_555 1_555
C31 O12 1_555 1_555
H23 C31 1_555 1_555
C32 N3 1_555 1_555
C33 C32 1_555 1_555
H24 C33 1_555 1_555
C34 C33 1_555 1_555
H25 C34 1_555 1_555
C35 C34 1_555 1_555
H26 C35 1_555 1_555
C36 C35 1_555 1_555
H27 C36 1_555 1_555
C37 C32 1_555 1_555
C38 C29 1_555 1_555
C39 N3 1_555 1_555
C40 C39 1_555 1_555
H28 C40 1_555 1_555
H29 C40 1_555 1_555
H30 C40 1_555 1_555
C41 O9 1_555 1_555
C42 C41 1_555 1_555
H31 C42 1_555 1_555
H32 C42 1_555 1_555
H33 C42 1_555 1_555
C43 N4 1_555 1_555
C44 C43 1_555 1_555
H34 C44 1_555 1_555
H35 C44 1_555 1_555
H36 C44 1_555 1_555
C5 C6 1_555 1_555
C7 C8 1_555 1_555
C9 C16 1_555 1_555
C14 C15 1_555 1_555
C15 C16 1_555 1_555
C27 C28 1_555 1_555
C29 C30 1_555 1_555
C31 C38 1_555 1_555
C36 C37 1_555 1_555
C37 C38 1_555 1_555

#END
