
#######################################################################
#
#                 Cambridge Crystallographic Data Centre
#                                CCDC 
#
#######################################################################
#
# If this CIF has been generated from an entry in the Cambridge 
# Structural Database, then it will include bibliographic, chemical, 
# crystal, experimental, refinement or atomic coordinate data resulting 
# from the CCDC's data processing and validation procedures.
#
#######################################################################

data_EFAVEO
_chemical_formula_moiety         'C34 H40 P1 1+,Cl1 1-,2(C1 H1 Cl3)'
_chemical_name_systematic        
'Dicyclohexylbis(naphthalen-1-ylmethyl)phosphonium chloride chloroform solvate'
_symmetry_cell_setting           triclinic
_symmetry_space_group_name_H-M   'P -1'
_symmetry_Int_Tables_number      2
_space_group_name_Hall           '-P 1'
loop_
_symmetry_equiv_pos_site_id
_symmetry_equiv_pos_as_xyz
1 x,y,z
2 -x,-y,-z
_cell_length_a                   12.3079(2)
_cell_length_b                   12.7150(2)
_cell_length_c                   14.0310(3)
_cell_angle_alpha                77.7850(10)
_cell_angle_beta                 64.2420(10)
_cell_angle_gamma                64.7380(10)
_cell_volume                     1787.56
_exptl_crystal_colour            colorless
_exptl_crystal_description       prism
_cell_formula_units_Z            2
_exptl_crystal_recrystallization_method chloroform/heptane
loop_
_atom_site_label
_atom_site_type_symbol
_atom_site_fract_x
_atom_site_fract_y
_atom_site_fract_z
C1 C 0.44144(12) 0.61109(11) 0.90253(10)
H1 H 0.5159 0.5375 0.8745
H2 H 0.4173 0.6098 0.9798
C2 C 0.32732(12) 0.61845(11) 0.88257(10)
C3 C 0.20342(12) 0.68760(12) 0.94598(10)
H3 H 0.1905 0.7182 1.0079
C4 C 0.09523(13) 0.71393(12) 0.92063(11)
H4 H 0.0107 0.7627 0.9648
C5 C 0.11233(13) 0.66932(12) 0.83288(11)
H5 H 0.0402 0.6910 0.8138
C6 C 0.23635(12) 0.59097(11) 0.76938(10)
C7 C 0.25333(14) 0.54077(12) 0.68056(11)
H6 H 0.1804 0.5593 0.6634
C8 C 0.37273(14) 0.46629(13) 0.61920(11)
H7 H 0.3829 0.4344 0.5590
C9 C 0.48129(14) 0.43644(12) 0.64492(11)
H8 H 0.5639 0.3830 0.6028
C10 C 0.46889(13) 0.48361(11) 0.72995(10)
H9 H 0.5431 0.4629 0.7460
C11 C 0.34605(12) 0.56336(11) 0.79468(10)
C12 C 0.36962(12) 0.85580(11) 0.92346(10)
H10 H 0.2826 0.8574 0.9382
H11 H 0.3797 0.8409 0.9919
C13 C 0.37027(12) 0.97536(11) 0.88234(10)
C14 C 0.46891(13) 1.00426(12) 0.87525(11)
H12 H 0.5370 0.9478 0.8953
C15 C 0.47188(15) 1.11567(13) 0.83897(12)
H13 H 0.5414 1.1335 0.8347
C16 C 0.37468(15) 1.19780(13) 0.80997(12)
H14 H 0.3778 1.2722 0.7843
C17 C 0.26942(14) 1.17314(12) 0.81783(10)
C18 C 0.16649(17) 1.25885(13) 0.78941(12)
H15 H 0.1702 1.3329 0.7627
C19 C 0.06345(16) 1.23673(14) 0.79980(13)
H16 H -0.0040 1.2950 0.7800
C20 C 0.05607(15) 1.12812(14) 0.83962(13)
H17 H -0.0173 1.1137 0.8480
C21 C 0.15393(14) 1.04247(12) 0.86660(11)
H18 H 0.1476 0.9692 0.8930
C22 C 0.26485(13) 1.06140(11) 0.85580(10)
C23 C 0.65067(12) 0.69625(11) 0.84201(10)
H19 H 0.6741 0.7663 0.8160
C24 C 0.64789(13) 0.66496(12) 0.95505(10)
H20 H 0.5826 0.7314 1.0013
H21 H 0.6218 0.5974 0.9838
C25 C 0.78219(13) 0.63550(13) 0.95501(11)
H22 H 0.8033 0.7061 0.9346
H23 H 0.7800 0.6102 1.0274
C26 C 0.88789(13) 0.53957(12) 0.87858(11)
H24 H 0.8724 0.4664 0.9036
H25 H 0.9739 0.5262 0.8771
C27 C 0.88938(12) 0.57150(12) 0.76716(11)
H26 H 0.9569 0.5066 0.7197
H27 H 0.9118 0.6411 0.7398
C28 C 0.75650(12) 0.59640(11) 0.76726(10)
H28 H 0.7359 0.5256 0.7910
H29 H 0.7586 0.6182 0.6946
C29 C 0.50206(12) 0.75688(11) 0.70404(9)
H30 H 0.5433 0.6776 0.6747
C30 C 0.58989(13) 0.82273(12) 0.62941(10)
H31 H 0.5469 0.9060 0.6468
H32 H 0.6741 0.7900 0.6379
C31 C 0.61324(13) 0.80974(13) 0.51507(10)
H33 H 0.6667 0.8541 0.4666
H34 H 0.6629 0.7268 0.4968
C32 C 0.48614(14) 0.85304(13) 0.49863(11)
H35 H 0.5059 0.8339 0.4266
H36 H 0.4445 0.9388 0.5038
C33 C 0.39099(13) 0.79931(12) 0.57971(10)
H37 H 0.4259 0.7153 0.5669
H38 H 0.3065 0.8366 0.5714
C34 C 0.36958(12) 0.81527(11) 0.69249(10)
H39 H 0.3083 0.7794 0.7442
H40 H 0.3314 0.8992 0.7068
P1 P 0.49134(3) 0.73346(3) 0.84032(2)
C35 C 0.89295(14) 0.32618(14) 0.56997(11)
H41 H 0.8467 0.3208 0.6485
Cl2 Cl 0.83623(5) 0.47307(4) 0.52736(3)
Cl3 Cl 1.06121(4) 0.27508(5) 0.53884(4)
Cl4 Cl 0.86009(4) 0.24063(4) 0.51101(4)
C36 C 0.14817(15) -0.01492(14) 0.26931(12)
H42 H 0.1925 -0.1015 0.2645
Cl5 Cl 0.19955(5) 0.03165(5) 0.34606(4)
Cl6 Cl 0.19249(5) 0.04763(4) 0.14031(3)
Cl7 Cl -0.02108(4) 0.02160(5) 0.32916(4)
Cl1 Cl 0.71624(3) 0.29319(3) 0.82907(2)
loop_
_geom_bond_atom_site_label_1
_geom_bond_atom_site_label_2
_geom_bond_site_symmetry_1
_geom_bond_site_symmetry_2
C1 H1 1_555 1_555
H2 C1 1_555 1_555
C2 C1 1_555 1_555
C3 C2 1_555 1_555
H3 C3 1_555 1_555
C4 C3 1_555 1_555
H4 C4 1_555 1_555
C5 C4 1_555 1_555
H5 C5 1_555 1_555
C6 C5 1_555 1_555
C7 C6 1_555 1_555
H6 C7 1_555 1_555
C8 C7 1_555 1_555
H7 C8 1_555 1_555
C9 C8 1_555 1_555
H8 C9 1_555 1_555
C10 C9 1_555 1_555
H9 C10 1_555 1_555
C11 C2 1_555 1_555
C12 H10 1_555 1_555
H11 C12 1_555 1_555
C13 C12 1_555 1_555
C14 C13 1_555 1_555
H12 C14 1_555 1_555
C15 C14 1_555 1_555
H13 C15 1_555 1_555
C16 C15 1_555 1_555
H14 C16 1_555 1_555
C17 C16 1_555 1_555
C18 C17 1_555 1_555
H15 C18 1_555 1_555
C19 C18 1_555 1_555
H16 C19 1_555 1_555
C20 C19 1_555 1_555
H17 C20 1_555 1_555
C21 C20 1_555 1_555
H18 C21 1_555 1_555
C22 C13 1_555 1_555
C23 H19 1_555 1_555
C24 C23 1_555 1_555
H20 C24 1_555 1_555
H21 C24 1_555 1_555
C25 C24 1_555 1_555
H22 C25 1_555 1_555
H23 C25 1_555 1_555
C26 C25 1_555 1_555
H24 C26 1_555 1_555
H25 C26 1_555 1_555
C27 C26 1_555 1_555
H26 C27 1_555 1_555
H27 C27 1_555 1_555
C28 C23 1_555 1_555
H28 C28 1_555 1_555
H29 C28 1_555 1_555
C29 H30 1_555 1_555
C30 C29 1_555 1_555
H31 C30 1_555 1_555
H32 C30 1_555 1_555
C31 C30 1_555 1_555
H33 C31 1_555 1_555
H34 C31 1_555 1_555
C32 C31 1_555 1_555
H35 C32 1_555 1_555
H36 C32 1_555 1_555
C33 C32 1_555 1_555
H37 C33 1_555 1_555
H38 C33 1_555 1_555
C34 C29 1_555 1_555
H39 C34 1_555 1_555
H40 C34 1_555 1_555
C35 H41 1_555 1_555
C36 H42 1_555 1_555
Cl2 C35 1_555 1_555
Cl3 C35 1_555 1_555
Cl4 C35 1_555 1_555
Cl5 C36 1_555 1_555
Cl6 C36 1_555 1_555
Cl7 C36 1_555 1_555
P1 C1 1_555 1_555
C6 C11 1_555 1_555
C10 C11 1_555 1_555
C12 P1 1_555 1_555
C17 C22 1_555 1_555
C21 C22 1_555 1_555
C23 P1 1_555 1_555
C27 C28 1_555 1_555
C29 P1 1_555 1_555
C33 C34 1_555 1_555

#END
