
#######################################################################
#
#                 Cambridge Crystallographic Data Centre
#                                CCDC 
#
#######################################################################
#
# If this CIF has been generated from an entry in the Cambridge 
# Structural Database, then it will include bibliographic, chemical, 
# crystal, experimental, refinement or atomic coordinate data resulting 
# from the CCDC's data processing and validation procedures.
#
#######################################################################

data_EFAXUE
_chemical_formula_moiety         'C7 H5 F3 N2 O2'
_chemical_name_systematic        2-Trifluoromethyl-4-nitroaniline
_symmetry_cell_setting           orthorhombic
_symmetry_space_group_name_H-M   'P n m a'
_symmetry_Int_Tables_number      62
_space_group_name_Hall           '-P 2ac 2n'
loop_
_symmetry_equiv_pos_site_id
_symmetry_equiv_pos_as_xyz
1 x,y,z
2 x,1/2-y,z
3 1/2-x,1/2+y,1/2+z
4 1/2+x,y,1/2-z
5 -x,-y,-z
6 -x,1/2+y,-z
7 1/2+x,1/2-y,1/2-z
8 1/2-x,-y,1/2+z
_cell_length_a                   9.0274(4)
_cell_length_b                   6.5933(4)
_cell_length_c                   13.1170(8)
_cell_angle_alpha                90
_cell_angle_beta                 90
_cell_angle_gamma                90
_cell_volume                     780.729
_exptl_crystal_colour            red
_exptl_crystal_description       block
_cell_formula_units_Z            4
_exptl_crystal_recrystallization_method ethanol
loop_
_atom_site_label
_atom_site_type_symbol
_atom_site_fract_x
_atom_site_fract_y
_atom_site_fract_z
N1 N -0.02222(19) 0.2500 0.01210(14)
C1 C 0.1272(2) 0.2500 0.01781(15)
C2 C 0.2192(2) 0.2500 -0.07008(15)
C3 C 0.3712(2) 0.2500 -0.06062(15)
C4 C 0.4351(2) 0.2500 0.03545(15)
C5 C 0.3483(2) 0.2500 0.12311(15)
C6 C 0.1968(2) 0.2500 0.11432(16)
C7 C 0.1532(2) 0.2500 -0.17425(15)
F1 F 0.06499(11) 0.41227(17) -0.19085(7)
F2 F 0.25374(15) 0.2500 -0.24767(9)
N2 N 0.59518(19) 0.2500 0.04274(13)
O1 O 0.66780(16) 0.2500 -0.03648(11)
O2 O 0.65362(17) 0.2500 0.12830(11)
H1 H -0.0756 0.2500 0.0683
H2 H -0.0662 0.2500 -0.0478
H3 H 0.4320 0.2500 -0.1197
H4 H 0.3935 0.2500 0.1885
H5 H 0.1376 0.2500 0.1742
F1A F 0.06499(11) 0.08773(17) -0.19085(7)
loop_
_geom_bond_atom_site_label_1
_geom_bond_atom_site_label_2
_geom_bond_site_symmetry_1
_geom_bond_site_symmetry_2
N1 C1 1_555 1_555
C1 C2 1_555 1_555
C2 C3 1_555 1_555
C3 C4 1_555 1_555
C4 C5 1_555 1_555
C5 C6 1_555 1_555
C6 C1 1_555 1_555
C7 C2 1_555 1_555
F1 C7 1_555 1_555
F2 C7 1_555 1_555
N2 C4 1_555 1_555
O1 N2 1_555 1_555
O2 N2 1_555 1_555
H1 N1 1_555 1_555
H2 N1 1_555 1_555
H3 C3 1_555 1_555
H4 C5 1_555 1_555
H5 C6 1_555 1_555
F1A C7 1_555 1_555

#END
