
#######################################################################
#
#                 Cambridge Crystallographic Data Centre
#                                CCDC 
#
#######################################################################
#
# If this CIF has been generated from an entry in the Cambridge 
# Structural Database, then it will include bibliographic, chemical, 
# crystal, experimental, refinement or atomic coordinate data resulting 
# from the CCDC's data processing and validation procedures.
#
#######################################################################

data_EFAYAL
_chemical_formula_moiety         'C7 H5 F3 N2 O2'
_chemical_name_systematic        3-Trifluoromethyl-4-nitroaniline
_symmetry_cell_setting           monoclinic
_symmetry_space_group_name_H-M   'P 21/c'
_symmetry_Int_Tables_number      14
_space_group_name_Hall           '-P 2ybc'
loop_
_symmetry_equiv_pos_site_id
_symmetry_equiv_pos_as_xyz
1 x,y,z
2 x,1/2-y,1/2+z
3 -x,-y,-z
4 -x,1/2+y,1/2-z
_cell_length_a                   7.1048(2)
_cell_length_b                   15.3832(5)
_cell_length_c                   14.3091(6)
_cell_angle_alpha                90
_cell_angle_beta                 91.9102(12)
_cell_angle_gamma                90
_cell_volume                     1563.04
_exptl_crystal_colour            yellow
_exptl_crystal_description       plate
_cell_formula_units_Z            8
_exptl_crystal_recrystallization_method ethanol
loop_
_atom_site_label
_atom_site_type_symbol
_atom_site_fract_x
_atom_site_fract_y
_atom_site_fract_z
N1 N -0.6318(2) 0.44448(11) 0.07857(11)
C1 C -0.5772(2) 0.38575(12) 0.14419(12)
C2 C -0.5337(2) 0.41245(12) 0.23643(12)
C3 C -0.4776(2) 0.35482(11) 0.30538(11)
C4 C -0.4639(2) 0.26582(11) 0.28128(12)
C5 C -0.5097(2) 0.23876(12) 0.19038(12)
C6 C -0.5656(2) 0.29701(12) 0.12290(12)
C7 C -0.4507(2) 0.39216(12) 0.40263(13)
F1 F -0.51135(15) 0.47424(7) 0.40579(7)
F2 F -0.27187(14) 0.39329(7) 0.43395(7)
F3 F -0.55087(16) 0.34846(8) 0.46541(7)
N2 N -0.4002(2) 0.19935(10) 0.34611(11)
O1 O -0.31463(19) 0.22002(9) 0.41879(9)
O2 O -0.4301(2) 0.12258(9) 0.32571(10)
H1 H -0.6609 0.4273 0.0212
H2 H -0.6383 0.5000 0.0931
H3 H -0.5433 0.4724 0.2516
H4 H -0.5020 0.1788 0.1751
H5 H -0.5967 0.2773 0.0614
N3 N -0.1232(2) 0.10727(10) 0.57317(11)
C8 C -0.0653(2) 0.16737(12) 0.63724(12)
C9 C -0.0513(2) 0.25579(12) 0.61228(12)
C10 C 0.0046(2) 0.31808(12) 0.67648(12)
C11 C 0.0481(2) 0.29196(12) 0.76917(12)
C12 C 0.0405(2) 0.20458(12) 0.79359(13)
C13 C -0.0158(2) 0.14327(12) 0.72908(12)
C14 C 0.0342(2) 0.40838(12) 0.63987(13)
F4 F 0.05603(16) 0.40859(7) 0.54741(8)
F5 F 0.18993(14) 0.44588(7) 0.67764(8)
F6 F -0.11002(15) 0.46208(7) 0.65539(9)
N4 N 0.0947(2) 0.35281(11) 0.84365(11)
O3 O 0.0298(2) 0.42728(10) 0.83940(10)
O4 O 0.19263(19) 0.32704(10) 0.91097(10)
H6 H -0.1301 0.0521 0.5891
H7 H -0.1538 0.1234 0.5157
H8 H -0.0813 0.2728 0.5497
H9 H 0.0746 0.1872 0.8556
H10 H -0.0213 0.0839 0.7469
loop_
_geom_bond_atom_site_label_1
_geom_bond_atom_site_label_2
_geom_bond_site_symmetry_1
_geom_bond_site_symmetry_2
N1 C1 1_555 1_555
C1 C2 1_555 1_555
C2 C3 1_555 1_555
C3 C4 1_555 1_555
C4 C5 1_555 1_555
C5 C6 1_555 1_555
C6 C1 1_555 1_555
C7 C3 1_555 1_555
F1 C7 1_555 1_555
F2 C7 1_555 1_555
F3 C7 1_555 1_555
N2 C4 1_555 1_555
O1 N2 1_555 1_555
O2 N2 1_555 1_555
N3 C8 1_555 1_555
C8 C9 1_555 1_555
C9 C10 1_555 1_555
C10 C11 1_555 1_555
C11 C12 1_555 1_555
C12 C13 1_555 1_555
C13 C8 1_555 1_555
C14 C10 1_555 1_555
F4 C14 1_555 1_555
F5 C14 1_555 1_555
F6 C14 1_555 1_555
N4 C11 1_555 1_555
O3 N4 1_555 1_555
O4 N4 1_555 1_555
H1 N1 1_555 1_555
H2 N1 1_555 1_555
H3 C2 1_555 1_555
H4 C5 1_555 1_555
H5 C6 1_555 1_555
H6 N3 1_555 1_555
H7 N3 1_555 1_555
H8 C9 1_555 1_555
H9 C12 1_555 1_555
H10 C13 1_555 1_555

#END
