
#######################################################################
#
#                 Cambridge Crystallographic Data Centre
#                                CCDC 
#
#######################################################################
#
# If this CIF has been generated from an entry in the Cambridge 
# Structural Database, then it will include bibliographic, chemical, 
# crystal, experimental, refinement or atomic coordinate data resulting 
# from the CCDC's data processing and validation procedures.
#
#######################################################################

data_EFAYUI
_chemical_formula_moiety         'C23 H26 N2 O1'
_chemical_name_systematic        
(2E,5E)-2,5-bis[4-(dimethylamino)benzylidene]cyclopentanone
_symmetry_cell_setting           orthorhombic
_symmetry_space_group_name_H-M   'P 21 21 21'
_symmetry_Int_Tables_number      19
_space_group_name_Hall           'P 2ac 2ab'
loop_
_symmetry_equiv_pos_site_id
_symmetry_equiv_pos_as_xyz
1 x,y,z
2 1/2-x,-y,1/2+z
3 -x,1/2+y,1/2-z
4 1/2+x,1/2-y,-z
_cell_length_a                   5.8397(12)
_cell_length_b                   7.8165(16)
_cell_length_c                   39.872(7)
_cell_angle_alpha                90
_cell_angle_beta                 90
_cell_angle_gamma                90
_cell_volume                     1820
_exptl_crystal_colour            yellow
_exptl_crystal_description       plate
_cell_formula_units_Z            4
_exptl_crystal_recrystallization_method dichloromethane/hexane
loop_
_atom_site_label
_atom_site_type_symbol
_atom_site_fract_x
_atom_site_fract_y
_atom_site_fract_z
O1 O 0.7341(10) 0.0697(8) 0.87146(13)
N1 N 0.9854(13) 0.6246(11) 1.05223(17)
N2 N 1.4360(11) 0.1569(9) 0.68391(17)
C1 C 0.9543(13) 0.5508(12) 1.0213(2)
C2 C 0.7521(14) 0.4589(12) 1.0140(2)
H1 H 0.6333 0.4529 1.0302
C3 C 0.7252(13) 0.3772(12) 0.98343(19)
H2 H 0.5871 0.3170 0.9791
C4 C 0.8949(13) 0.3808(12) 0.9588(2)
C5 C 1.0965(13) 0.4753(12) 0.9656(2)
H3 H 1.2134 0.4828 0.9491
C6 C 1.1244(14) 0.5573(12) 0.99643(19)
H4 H 1.2615 0.6189 1.0007
C7 C 0.8594(14) 0.2872(11) 0.9278(2)
H5 H 0.7229 0.2211 0.9274
C8 C 0.9840(15) 0.2770(12) 0.8996(2)
C9 C 0.9065(14) 0.1654(12) 0.8715(2)
C10 C 1.0600(14) 0.1915(12) 0.8426(2)
C11 C 1.2535(16) 0.3104(11) 0.85310(19)
H6 H 1.2594 0.4117 0.8382
H7 H 1.4025 0.2503 0.8519
C12 C 1.2014(14) 0.3647(11) 0.88953(19)
H8 H 1.3281 0.3302 0.9046
H9 H 1.1829 0.4904 0.8909
C13 C 1.0174(15) 0.1219(12) 0.8129(2)
H10 H 0.8844 0.0519 0.8125
C14 C 1.1315(14) 0.1312(11) 0.78134(19)
C15 C 1.0407(16) 0.0538(12) 0.75287(19)
H11 H 0.9034 -0.0101 0.7554
C16 C 1.1329(14) 0.0626(11) 0.7219(2)
H12 H 1.0564 0.0086 0.7037
C17 C 1.3425(14) 0.1510(11) 0.7157(2)
C18 C 1.4409(15) 0.2274(12) 0.7440(2)
H13 H 1.5792 0.2898 0.7413
C19 C 1.3474(15) 0.2164(12) 0.7753(2)
H14 H 1.4265 0.2662 0.7937
C20 C 0.8244(15) 0.6047(12) 1.0796(2)
H15 H 0.7359 0.4994 1.0764
H16 H 0.7202 0.7029 1.0801
H17 H 0.9081 0.5981 1.1009
C21 C 1.1924(16) 0.7075(13) 1.06104(19)
H18 H 1.2477 0.7745 1.0419
H19 H 1.3074 0.6216 1.0671
H20 H 1.1653 0.7836 1.0802
C22 C 1.3026(16) 0.1076(13) 0.65478(19)
H21 H 1.2368 -0.0062 0.6584
H22 H 1.4018 0.1052 0.6350
H23 H 1.1791 0.1906 0.6513
C23 C 1.6200(14) 0.2794(12) 0.6780(2)
H24 H 1.7345 0.2694 0.6959
H25 H 1.5571 0.3956 0.6779
H26 H 1.6921 0.2554 0.6563
loop_
_geom_bond_atom_site_label_1
_geom_bond_atom_site_label_2
_geom_bond_site_symmetry_1
_geom_bond_site_symmetry_2
O1 C9 1_555 1_555
N1 C1 1_555 1_555
N2 C17 1_555 1_555
C1 C2 1_555 1_555
C2 H1 1_555 1_555
C3 C2 1_555 1_555
H2 C3 1_555 1_555
C4 C3 1_555 1_555
C5 C4 1_555 1_555
H3 C5 1_555 1_555
C6 C1 1_555 1_555
H4 C6 1_555 1_555
C7 C4 1_555 1_555
H5 C7 1_555 1_555
C8 C7 1_555 1_555
C9 C8 1_555 1_555
C10 C9 1_555 1_555
C11 C10 1_555 1_555
H6 C11 1_555 1_555
H7 C11 1_555 1_555
C12 C8 1_555 1_555
H8 C12 1_555 1_555
H9 C12 1_555 1_555
C13 C10 1_555 1_555
H10 C13 1_555 1_555
C14 C13 1_555 1_555
C15 C14 1_555 1_555
H11 C15 1_555 1_555
C16 C15 1_555 1_555
H12 C16 1_555 1_555
C17 C16 1_555 1_555
C18 C17 1_555 1_555
H13 C18 1_555 1_555
C19 C14 1_555 1_555
H14 C19 1_555 1_555
C20 N1 1_555 1_555
H15 C20 1_555 1_555
H16 C20 1_555 1_555
H17 C20 1_555 1_555
C21 N1 1_555 1_555
H18 C21 1_555 1_555
H19 C21 1_555 1_555
H20 C21 1_555 1_555
C22 N2 1_555 1_555
H21 C22 1_555 1_555
H22 C22 1_555 1_555
H23 C22 1_555 1_555
C23 N2 1_555 1_555
H24 C23 1_555 1_555
H25 C23 1_555 1_555
H26 C23 1_555 1_555
C5 C6 1_555 1_555
C11 C12 1_555 1_555
C18 C19 1_555 1_555

#END
