
#######################################################################
#
#                 Cambridge Crystallographic Data Centre
#                                CCDC 
#
#######################################################################
#
# If this CIF has been generated from an entry in the Cambridge 
# Structural Database, then it will include bibliographic, chemical, 
# crystal, experimental, refinement or atomic coordinate data resulting 
# from the CCDC's data processing and validation procedures.
#
#######################################################################

data_EFAZOD
_chemical_name_common            '20(S)-Phyllostacins A'
_chemical_formula_moiety         'C20 H26 O6'
_chemical_name_systematic        
9,11-dihydroxy-7,7-dimethyl-17-methylene-3,10-dioxapentacyclo[14.2.1.0^1,13^.0^4,12^.0^8,12^]nonadecane-2,18-dione
_symmetry_cell_setting           monoclinic
_symmetry_space_group_name_H-M   'C 2'
_symmetry_Int_Tables_number      5
_space_group_name_Hall           'C 2y'
loop_
_symmetry_equiv_pos_site_id
_symmetry_equiv_pos_as_xyz
1 x,y,z
2 -x,y,-z
3 1/2+x,1/2+y,z
4 1/2-x,1/2+y,-z
_cell_length_a                   19.1103(4)
_cell_length_b                   10.4972(2)
_cell_length_c                   8.8536(2)
_cell_angle_alpha                90
_cell_angle_beta                 103.3620(10)
_cell_angle_gamma                90
_cell_volume                     1727.99
_exptl_crystal_colour            colorless
_exptl_crystal_description       needles
_cell_formula_units_Z            4
loop_
_atom_site_label
_atom_site_type_symbol
_atom_site_fract_x
_atom_site_fract_y
_atom_site_fract_z
O1 O 0.28146(16) 0.8508(3) 1.0366(3)
O2 O 0.2693(2) 0.7262(4) 0.5762(5)
O3 O 0.20962(19) 0.8807(5) 0.4101(4)
H1 H 0.2160 0.9281 0.3380
O4 O 0.19084(17) 0.7688(3) 1.1175(3)
O5 O 0.08071(18) 0.7095(3) 0.8134(4)
O6 O 0.2292(2) 0.6621(4) 0.7944(5)
H2 H 0.1864 0.6771 0.7485
C1 C 0.3043(2) 0.9318(4) 0.9226(4)
H3 H 0.2872 1.0202 0.9359
C2 C 0.3851(2) 0.9345(5) 0.9612(5)
H4 H 0.4042 0.8466 0.9634
H5 H 0.4033 0.9732 1.0647
C3 C 0.4097(2) 1.0124(4) 0.8380(5)
H6 H 0.4627 1.0197 0.8668
H7 H 0.3895 1.0994 0.8362
C4 C 0.3868(2) 0.9546(4) 0.6744(5)
C5 C 0.3029(2) 0.9407(4) 0.6313(4)
H8 H 0.2813 1.0258 0.5975
C6 C 0.2756(2) 0.8445(5) 0.5010(5)
H9 H 0.3113 0.8361 0.4350
C7 C 0.2117(2) 0.8306(4) 1.0198(5)
C8 C 0.1593(2) 0.8953(4) 0.8870(4)
C9 C 0.1861(2) 0.9239(4) 0.7332(4)
H10 H 0.1584 0.8673 0.6496
C10 C 0.2671(2) 0.8873(4) 0.7587(4)
C11 C 0.1691(2) 1.0616(4) 0.6815(5)
H11 H 0.1759 1.0718 0.5747
H12 H 0.2037 1.1187 0.7501
C12 C 0.0925(2) 1.1033(5) 0.6843(5)
H13 H 0.0593 1.0744 0.5874
H14 H 0.0908 1.1975 0.6864
C13 C 0.0660(2) 1.0506(5) 0.8248(5)
H15 H 0.0338 1.1126 0.8617
C14 C 0.1329(2) 1.0190(4) 0.9526(4)
H16 H 0.1204 1.0036 1.0535
H17 H 0.1693 1.0876 0.9646
C15 C 0.0881(2) 0.8223(4) 0.8328(5)
C16 C 0.0306(2) 0.9212(5) 0.7902(5)
C17 C -0.0373(3) 0.8948(6) 0.7223(6)
H18 H -0.0516 0.8091 0.6981
H19 H -0.0716 0.9616 0.6978
C18 C 0.4061(2) 1.0482(6) 0.5580(5)
H20 H 0.3785 1.1270 0.5572
H21 H 0.3946 1.0102 0.4542
H22 H 0.4577 1.0675 0.5882
C19 C 0.4295(2) 0.8311(5) 0.6695(6)
H23 H 0.4142 0.7919 0.5667
H24 H 0.4206 0.7720 0.7486
H25 H 0.4810 0.8509 0.6900
C20 C 0.2750(3) 0.7424(5) 0.7369(6)
H26 H 0.3253 0.7191 0.7908
loop_
_geom_bond_atom_site_label_1
_geom_bond_atom_site_label_2
_geom_bond_site_symmetry_1
_geom_bond_site_symmetry_2
O1 C1 1_555 1_555
O2 C6 1_555 1_555
O3 H1 1_555 1_555
O4 C7 1_555 1_555
O5 C15 1_555 1_555
O6 H2 1_555 1_555
C1 H3 1_555 1_555
C2 C1 1_555 1_555
H4 C2 1_555 1_555
H5 C2 1_555 1_555
C3 C2 1_555 1_555
H6 C3 1_555 1_555
H7 C3 1_555 1_555
C4 C3 1_555 1_555
C5 C4 1_555 1_555
H8 C5 1_555 1_555
C6 O3 1_555 1_555
H9 C6 1_555 1_555
C7 O1 1_555 1_555
C8 C7 1_555 1_555
C9 C8 1_555 1_555
H10 C9 1_555 1_555
C10 C1 1_555 1_555
C11 C9 1_555 1_555
H11 C11 1_555 1_555
H12 C11 1_555 1_555
C12 C11 1_555 1_555
H13 C12 1_555 1_555
H14 C12 1_555 1_555
C13 C12 1_555 1_555
H15 C13 1_555 1_555
C14 C8 1_555 1_555
H16 C14 1_555 1_555
H17 C14 1_555 1_555
C15 C8 1_555 1_555
C16 C13 1_555 1_555
C17 C16 1_555 1_555
H18 C17 1_555 1_555
H19 C17 1_555 1_555
C18 C4 1_555 1_555
H20 C18 1_555 1_555
H21 C18 1_555 1_555
H22 C18 1_555 1_555
C19 C4 1_555 1_555
H23 C19 1_555 1_555
H24 C19 1_555 1_555
H25 C19 1_555 1_555
C20 O2 1_555 1_555
H26 C20 1_555 1_555
O6 C20 1_555 1_555
C5 C6 1_555 1_555
C5 C10 1_555 1_555
C9 C10 1_555 1_555
C10 C20 1_555 1_555
C13 C14 1_555 1_555
C15 C16 1_555 1_555

#END
