
#######################################################################
#
#                 Cambridge Crystallographic Data Centre
#                                CCDC 
#
#######################################################################
#
# If this CIF has been generated from an entry in the Cambridge 
# Structural Database, then it will include bibliographic, chemical, 
# crystal, experimental, refinement or atomic coordinate data resulting 
# from the CCDC's data processing and validation procedures.
#
#######################################################################

data_EFEDIC
_chemical_formula_moiety         'C28 H36 N4 O4 S4'
_chemical_name_systematic        
7,16-bis(Benzothiazole-2-thione-3ylmethyl)-1,4,10,13-tetraoxa-7,16-diazacyclo-octadecane
_symmetry_cell_setting           monoclinic
_symmetry_space_group_name_H-M   'P 21/n'
_symmetry_Int_Tables_number      14
_space_group_name_Hall           '-P 2yn'
loop_
_symmetry_equiv_pos_site_id
_symmetry_equiv_pos_as_xyz
1 x,y,z
2 1/2-x,1/2+y,1/2-z
3 -x,-y,-z
4 1/2+x,1/2-y,1/2+z
_cell_length_a                   9.4652(12)
_cell_length_b                   12.3873(14)
_cell_length_c                   12.6349(14)
_cell_angle_alpha                90
_cell_angle_beta                 98.398(10)
_cell_angle_gamma                90
_cell_volume                     1465.54
_exptl_crystal_colour            'light yellow'
_chemical_melting_point          '152-154 deg.C'
_cell_formula_units_Z            2
loop_
_atom_site_label
_atom_site_type_symbol
_atom_site_fract_x
_atom_site_fract_y
_atom_site_fract_z
C1 C 0.0947(3) 0.4671(2) 0.2580(2)
S1 S 0.1780(1) 0.5366(1) 0.3605(1)
S2 S 0.1529(1) 0.3392(1) 0.2267(1)
C2 C 0.0191(2) 0.3272(2) 0.1171(2)
C3 C -0.0075(3) 0.2420(2) 0.0468(2)
C4 C -0.1207(3) 0.2502(2) -0.0347(2)
C5 C -0.2043(3) 0.3433(2) -0.0459(2)
C6 C -0.1788(3) 0.4289(2) 0.0248(2)
C7 C -0.0659(2) 0.4197(2) 0.1076(2)
N1 N -0.0219(2) 0.4960(2) 0.1878(2)
C8 C -0.0963(3) 0.5991(2) 0.1941(2)
N2 N -0.2421(2) 0.5811(2) 0.2130(2)
C9 C -0.3268(3) 0.6815(2) 0.1986(2)
C10 C -0.3514(3) 0.7245(2) 0.0861(2)
O1 O -0.4111(2) 0.6417(1) 0.0158(1)
C11 C -0.4705(3) 0.6786(2) -0.0871(2)
C12 C -0.5012(3) 0.5797(2) -0.1552(2)
O2 O -0.5791(2) 0.6108(1) -0.2556(1)
C13 C -0.6105(3) 0.5227(2) -0.3269(2)
C14 C -0.2487(3) 0.5322(2) 0.3185(2)
H1 H 0.0496(3) 0.1805(2) 0.0542(2)
H2 H -0.1415(3) 0.1934(2) -0.0824(2)
H3 H -0.2790(3) 0.3480(2) -0.1023(2)
H4 H -0.2356(3) 0.4905(2) 0.0170(2)
H5 H -0.0461(3) 0.6423(2) 0.2518(2)
H6 H -0.0968(3) 0.6387(2) 0.1278(2)
H7 H -0.2785(3) 0.7365(2) 0.2452(2)
H8 H -0.4188(3) 0.6684(2) 0.2214(2)
H9 H -0.4160(3) 0.7857(2) 0.0818(2)
H10 H -0.2617(3) 0.7486(2) 0.0657(2)
H11 H -0.4037(3) 0.7253(2) -0.1165(2)
H12 H -0.5577(3) 0.7187(2) -0.0836(2)
H13 H -0.4125(3) 0.5452(2) -0.1660(2)
H14 H -0.5566(3) 0.5287(2) -0.1199(2)
H15 H -0.5344(3) 0.4699(2) -0.3129(2)
H16 H -0.6121(3) 0.5484(2) -0.3996(2)
H17 H -0.2317(3) 0.5885(2) 0.3780(2)
H18 H -0.1727(3) 0.4774(2) 0.3181(2)
C14B C -0.7513(3) 0.4678(2) -0.3185(2)
N2B N -0.7579(2) 0.4189(2) -0.2130(2)
C8B C -0.9037(3) 0.4009(2) -0.1941(2)
N1B N -0.9781(2) 0.5040(2) -0.1878(2)
C1B C -1.0947(3) 0.5329(2) -0.2580(2)
S1B S -1.1780(1) 0.4634(1) -0.3605(1)
S2B S -1.1529(1) 0.6608(1) -0.2267(1)
C2B C -1.0191(2) 0.6728(2) -0.1171(2)
C3B C -0.9925(3) 0.7580(2) -0.0468(2)
C4B C -0.8793(3) 0.7498(2) 0.0347(2)
C5B C -0.7957(3) 0.6567(2) 0.0459(2)
C6B C -0.8212(3) 0.5711(2) -0.0248(2)
C7B C -0.9341(2) 0.5803(2) -0.1076(2)
H4B H -0.7644(3) 0.5095(2) -0.0170(2)
H3B H -0.7210(3) 0.6520(2) 0.1023(2)
H2B H -0.8585(3) 0.8066(2) 0.0824(2)
H1B H -1.0496(3) 0.8195(2) -0.0542(2)
H5B H -0.9539(3) 0.3577(2) -0.2518(2)
H6B H -0.9032(3) 0.3613(2) -0.1278(2)
C9B C -0.6732(3) 0.3185(2) -0.1986(2)
C10B C -0.6486(3) 0.2755(2) -0.0861(2)
O1B O -0.5889(2) 0.3583(1) -0.0158(1)
C11B C -0.5295(3) 0.3214(2) 0.0871(2)
C12B C -0.4988(3) 0.4203(2) 0.1552(2)
O2B O -0.4209(2) 0.3892(1) 0.2556(1)
C13B C -0.3895(3) 0.4773(2) 0.3269(2)
H15B H -0.4656(3) 0.5301(2) 0.3129(2)
H16B H -0.3879(3) 0.4516(2) 0.3996(2)
H13B H -0.5875(3) 0.4548(2) 0.1660(2)
H14B H -0.4434(3) 0.4713(2) 0.1199(2)
H11B H -0.5963(3) 0.2747(2) 0.1165(2)
H12B H -0.4423(3) 0.2813(2) 0.0836(2)
H9B H -0.5840(3) 0.2143(2) -0.0818(2)
H10B H -0.7383(3) 0.2514(2) -0.0657(2)
H7B H -0.7215(3) 0.2635(2) -0.2452(2)
H8B H -0.5812(3) 0.3316(2) -0.2214(2)
H17B H -0.7683(3) 0.4115(2) -0.3780(2)
H18B H -0.8273(3) 0.5226(2) -0.3181(2)
loop_
_geom_bond_atom_site_label_1
_geom_bond_atom_site_label_2
_geom_bond_site_symmetry_1
_geom_bond_site_symmetry_2
C1 S1 1_555 1_555
S2 C1 1_555 1_555
C2 S2 1_555 1_555
C3 C2 1_555 1_555
C4 C3 1_555 1_555
C5 C4 1_555 1_555
C6 C5 1_555 1_555
C7 C2 1_555 1_555
N1 C1 1_555 1_555
C8 N1 1_555 1_555
N2 C8 1_555 1_555
C9 N2 1_555 1_555
C10 C9 1_555 1_555
O1 C10 1_555 1_555
C11 O1 1_555 1_555
C12 C11 1_555 1_555
O2 C12 1_555 1_555
C13 O2 1_555 1_555
C14 N2 1_555 1_555
H1 C3 1_555 1_555
H2 C4 1_555 1_555
H3 C5 1_555 1_555
H4 C6 1_555 1_555
H5 C8 1_555 1_555
H6 C8 1_555 1_555
H7 C9 1_555 1_555
H8 C9 1_555 1_555
H9 C10 1_555 1_555
H10 C10 1_555 1_555
H11 C11 1_555 1_555
H12 C11 1_555 1_555
H13 C12 1_555 1_555
H14 C12 1_555 1_555
H15 C13 1_555 1_555
H16 C13 1_555 1_555
H17 C14 1_555 1_555
H18 C14 1_555 1_555
C14B C13 1_555 1_555
N2B C14B 1_555 1_555
C8B N2B 1_555 1_555
N1B C8B 1_555 1_555
C1B N1B 1_555 1_555
S1B C1B 1_555 1_555
S2B C1B 1_555 1_555
C2B S2B 1_555 1_555
C3B C2B 1_555 1_555
C4B C3B 1_555 1_555
C5B C4B 1_555 1_555
C6B C5B 1_555 1_555
C7B N1B 1_555 1_555
H4B C6B 1_555 1_555
H3B C5B 1_555 1_555
H2B C4B 1_555 1_555
H1B C3B 1_555 1_555
H5B C8B 1_555 1_555
H6B C8B 1_555 1_555
C9B N2B 1_555 1_555
C10B C9B 1_555 1_555
O1B C10B 1_555 1_555
C11B O1B 1_555 1_555
C12B C11B 1_555 1_555
O2B C12B 1_555 1_555
C13B C14 1_555 1_555
H15B C13B 1_555 1_555
H16B C13B 1_555 1_555
H13B C12B 1_555 1_555
H14B C12B 1_555 1_555
H11B C11B 1_555 1_555
H12B C11B 1_555 1_555
H9B C10B 1_555 1_555
H10B C10B 1_555 1_555
H7B C9B 1_555 1_555
H8B C9B 1_555 1_555
H17B C14B 1_555 1_555
H18B C14B 1_555 1_555
C6 C7 1_555 1_555
C7 N1 1_555 1_555
C2B C7B 1_555 1_555
C6B C7B 1_555 1_555
O2B C13B 1_555 1_555

#END
