
#######################################################################
#
#                 Cambridge Crystallographic Data Centre
#                                CCDC 
#
#######################################################################
#
# If this CIF has been generated from an entry in the Cambridge 
# Structural Database, then it will include bibliographic, chemical, 
# crystal, experimental, refinement or atomic coordinate data resulting 
# from the CCDC's data processing and validation procedures.
#
#######################################################################

data_EFEHUU
_chemical_formula_moiety         'C21 H23 N1 O3 S1'
_chemical_name_systematic        
7-((4-methylphenyl)sulfonyl)-6-phenyl-1-oxa-7-azaspiro[4.5]dec-3-ene
_symmetry_cell_setting           monoclinic
_symmetry_space_group_name_H-M   'P 21'
_symmetry_Int_Tables_number      4
_space_group_name_Hall           'P 2yb'
loop_
_symmetry_equiv_pos_site_id
_symmetry_equiv_pos_as_xyz
1 x,y,z
2 -x,1/2+y,-z
_cell_length_a                   9.789(3)
_cell_length_b                   9.327(3)
_cell_length_c                   11.044(3)
_cell_angle_alpha                90
_cell_angle_beta                 114.811(7)
_cell_angle_gamma                90
_cell_volume                     915.267
_exptl_crystal_colour            colorless
_exptl_crystal_description       plate
_cell_formula_units_Z            2
loop_
_atom_site_label
_atom_site_type_symbol
_atom_site_fract_x
_atom_site_fract_y
_atom_site_fract_z
C1 C 1.2309(4) 0.5583(5) 0.2439(4)
H1 H 1.1943 0.5889 0.3110
H2 H 1.2425 0.6440 0.1962
C2 C 1.3770(4) 0.4783(6) 0.3090(4)
H3 H 1.4700 0.5195 0.3678
C3 C 1.3572(4) 0.3430(5) 0.2726(4)
H4 H 1.4342 0.2723 0.3002
C4 C 1.1937(4) 0.3160(4) 0.1802(4)
C5 C 1.1671(4) 0.2427(5) 0.0483(4)
H5 H 1.2172 0.2984 0.0021
H6 H 1.0579 0.2406 -0.0099
C6 C 1.2288(4) 0.0894(5) 0.0719(4)
H7 H 1.2044 0.0426 -0.0152
H8 H 1.3397 0.0926 0.1210
C7 C 1.1638(4) 0.0010(5) 0.1506(4)
H9 H 1.0568 -0.0208 0.0939
H10 H 1.2190 -0.0909 0.1776
C8 C 1.1164(4) 0.2298(4) 0.2554(4)
H11 H 1.1563 0.2710 0.3475
C9 C 0.9451(4) 0.2474(4) 0.1975(4)
C10 C 0.8412(4) 0.1678(5) 0.0925(4)
H12 H 0.8758 0.0982 0.0490
C11 C 0.6875(4) 0.1889(5) 0.0506(4)
H13 H 0.6182 0.1322 -0.0199
C12 C 0.6341(4) 0.2924(5) 0.1107(4)
H14 H 0.5290 0.3075 0.0812
C13 C 0.7366(4) 0.3730(5) 0.2143(4)
H15 H 0.7018 0.4438 0.2565
C14 C 0.8892(4) 0.3510(5) 0.2566(4)
H16 H 0.9580 0.4075 0.3275
C15 C 0.9999(4) -0.0478(4) 0.3781(4)
C16 C 0.9251(4) -0.1683(5) 0.3046(4)
H17 H 0.9752 -0.2328 0.2702
C17 C 0.7783(4) -0.1918(5) 0.2830(4)
H18 H 0.7275 -0.2734 0.2328
C18 C 0.7014(4) -0.1007(5) 0.3320(4)
C19 C 0.5429(5) -0.1326(6) 0.3133(5)
H19 H 0.4841 -0.1668 0.2221
H20 H 0.4969 -0.0452 0.3285
H21 H 0.5447 -0.2066 0.3769
C20 C 0.7763(4) 0.0209(5) 0.4036(4)
H22 H 0.7250 0.0859 0.4362
C21 C 0.9256(4) 0.0472(5) 0.4274(4)
H23 H 0.9763 0.1292 0.4769
N1 N 1.1759(3) 0.0807(4) 0.2709(3)
O1 O 1.1293(3) 0.4571(3) 0.1523(3)
O2 O 1.2586(3) -0.1444(3) 0.4027(3)
O3 O 1.2496(3) 0.0846(3) 0.5150(3)
S1 S 1.18531(9) -0.00965(11) 0.40188(9)
loop_
_geom_bond_atom_site_label_1
_geom_bond_atom_site_label_2
_geom_bond_site_symmetry_1
_geom_bond_site_symmetry_2
C1 H1 1_555 1_555
H2 C1 1_555 1_555
C2 C1 1_555 1_555
H3 C2 1_555 1_555
C3 C2 1_555 1_555
H4 C3 1_555 1_555
C4 C3 1_555 1_555
C5 C4 1_555 1_555
H5 C5 1_555 1_555
H6 C5 1_555 1_555
C6 C5 1_555 1_555
H7 C6 1_555 1_555
H8 C6 1_555 1_555
C7 C6 1_555 1_555
H9 C7 1_555 1_555
H10 C7 1_555 1_555
C8 C4 1_555 1_555
H11 C8 1_555 1_555
C9 C8 1_555 1_555
C10 C9 1_555 1_555
H12 C10 1_555 1_555
C11 C10 1_555 1_555
H13 C11 1_555 1_555
C12 C11 1_555 1_555
H14 C12 1_555 1_555
C13 C12 1_555 1_555
H15 C13 1_555 1_555
C14 C9 1_555 1_555
H16 C14 1_555 1_555
C15 C16 1_555 1_555
C16 H17 1_555 1_555
C17 C16 1_555 1_555
H18 C17 1_555 1_555
C18 C17 1_555 1_555
C19 C18 1_555 1_555
H19 C19 1_555 1_555
H20 C19 1_555 1_555
H21 C19 1_555 1_555
C20 C18 1_555 1_555
H22 C20 1_555 1_555
C21 C15 1_555 1_555
H23 C21 1_555 1_555
N1 C7 1_555 1_555
O1 C1 1_555 1_555
O2 S1 1_555 1_555
O3 S1 1_555 1_555
S1 C15 1_555 1_555
C4 O1 1_555 1_555
C8 N1 1_555 1_555
C13 C14 1_555 1_555
C20 C21 1_555 1_555
N1 S1 1_555 1_555

#END
