
#######################################################################
#
#                 Cambridge Crystallographic Data Centre
#                                CCDC 
#
#######################################################################
#
# If this CIF has been generated from an entry in the Cambridge 
# Structural Database, then it will include bibliographic, chemical, 
# crystal, experimental, refinement or atomic coordinate data resulting 
# from the CCDC's data processing and validation procedures.
#
#######################################################################

data_EFEJEF
_chemical_formula_moiety         'C16 H18 O3'
_chemical_name_systematic        
1-Hydroxy-2-(4-methoxybenzoyl)-5-methylbicyclo(3.2.0)hept-2-ene
_symmetry_cell_setting           monoclinic
_symmetry_space_group_name_H-M   'P 21/c'
_symmetry_Int_Tables_number      14
_space_group_name_Hall           '-P 2ybc'
loop_
_symmetry_equiv_pos_site_id
_symmetry_equiv_pos_as_xyz
1 x,y,z
2 -x,1/2+y,1/2-z
3 -x,-y,-z
4 x,1/2-y,1/2+z
_cell_length_a                   13.7982(3)
_cell_length_b                   9.9351(2)
_cell_length_c                   10.1855(2)
_cell_angle_alpha                90
_cell_angle_beta                 92.8550(10)
_cell_angle_gamma                90
_cell_volume                     1394.56
_exptl_crystal_colour            colorless
_exptl_crystal_description       brick
_cell_formula_units_Z            4
loop_
_atom_site_label
_atom_site_type_symbol
_atom_site_fract_x
_atom_site_fract_y
_atom_site_fract_z
O1 O 0.75217(9) 1.13980(15) 0.31789(14)
H1 H 0.7373 1.1980 0.2605
O2 O 0.69686(10) 1.16718(14) 0.62658(13)
O3 O 0.98922(9) 0.80934(15) 0.96775(13)
C1 C 0.69237(12) 0.98973(17) 0.47529(15)
C2 C 0.67899(14) 0.85746(18) 0.45367(18)
H2 H 0.6919 0.7904 0.5187
C3 C 0.64164(15) 0.82660(19) 0.31629(19)
H3 H 0.5832 0.7687 0.3163
H4 H 0.6918 0.7813 0.2659
C4 C 0.61735(12) 0.96465(17) 0.25972(17)
C5 C 0.51842(13) 1.0242(2) 0.3022(2)
H5 H 0.4716 1.0424 0.2275
H6 H 0.4878 0.9708 0.3709
C6 C 0.57193(13) 1.15213(19) 0.35580(19)
H7 H 0.5684 1.2296 0.2946
H8 H 0.5539 1.1790 0.4449
C7 C 0.66787(11) 1.07215(16) 0.35368(16)
C8 C 0.63230(16) 0.9842(2) 0.11465(19)
H9 H 0.5889 0.9239 0.0633
H10 H 0.6998 0.9637 0.0966
H11 H 0.6178 1.0778 0.0903
C9 C 0.72529(12) 1.05309(17) 0.60097(16)
C10 C 0.79244(12) 0.98018(17) 0.69447(16)
C11 C 0.79501(13) 1.01541(18) 0.82829(17)
H12 H 0.7511 1.0810 0.8583
C12 C 0.85778(13) 0.88394(18) 0.65334(17)
H13 H 0.8564 0.8589 0.5633
C13 C 0.86073(13) 0.95545(19) 0.91615(17)
H14 H 0.8614 0.9791 1.0066
C14 C 0.92642(12) 0.86002(19) 0.87310(17)
C15 C 0.92510(13) 0.82355(19) 0.74135(18)
H15 H 0.9694 0.7584 0.7117
C16 C 1.05975(16) 0.7141(3) 0.9283(2)
H16 H 1.1006 0.6865 1.0051
H17 H 1.1003 0.7554 0.8631
H18 H 1.0267 0.6351 0.8897
loop_
_geom_bond_atom_site_label_1
_geom_bond_atom_site_label_2
_geom_bond_site_symmetry_1
_geom_bond_site_symmetry_2
O1 H1 1_555 1_555
O2 C9 1_555 1_555
O3 C14 1_555 1_555
C1 C2 1_555 1_555
C2 H2 1_555 1_555
C3 C2 1_555 1_555
H3 C3 1_555 1_555
H4 C3 1_555 1_555
C4 C3 1_555 1_555
C5 C4 1_555 1_555
H5 C5 1_555 1_555
H6 C5 1_555 1_555
C6 C5 1_555 1_555
H7 C6 1_555 1_555
H8 C6 1_555 1_555
C7 O1 1_555 1_555
C8 C4 1_555 1_555
H9 C8 1_555 1_555
H10 C8 1_555 1_555
H11 C8 1_555 1_555
C9 C1 1_555 1_555
C10 C9 1_555 1_555
C11 C10 1_555 1_555
H12 C11 1_555 1_555
C12 C10 1_555 1_555
H13 C12 1_555 1_555
C13 C11 1_555 1_555
H14 C13 1_555 1_555
C14 C13 1_555 1_555
C15 C12 1_555 1_555
H15 C15 1_555 1_555
C16 O3 1_555 1_555
H16 C16 1_555 1_555
H17 C16 1_555 1_555
H18 C16 1_555 1_555
C1 C7 1_555 1_555
C4 C7 1_555 1_555
C6 C7 1_555 1_555
C14 C15 1_555 1_555

#END
