
#######################################################################
#
#                 Cambridge Crystallographic Data Centre
#                                CCDC 
#
#######################################################################
#
# If this CIF has been generated from an entry in the Cambridge 
# Structural Database, then it will include bibliographic, chemical, 
# crystal, experimental, refinement or atomic coordinate data resulting 
# from the CCDC's data processing and validation procedures.
#
#######################################################################

data_EFEJIK
_chemical_formula_moiety         'C21 H22 F3 N1 O3,0.5(C4 H8 O2)'
_chemical_name_systematic        
'2-(6-phenyl-1-oxa-7-azaspiro[4.5]dec-3-yl)-4-(trifluoromethoxy)phenol ethyl acetate solvate'
_symmetry_cell_setting           triclinic
_symmetry_space_group_name_H-M   'P -1'
_symmetry_Int_Tables_number      2
_space_group_name_Hall           '-P 1'
loop_
_symmetry_equiv_pos_site_id
_symmetry_equiv_pos_as_xyz
1 x,y,z
2 -x,-y,-z
_cell_length_a                   12.6844(10)
_cell_length_b                   13.0079(9)
_cell_length_c                   13.5817(10)
_cell_angle_alpha                83.347(3)
_cell_angle_beta                 80.714(2)
_cell_angle_gamma                83.780(2)
_cell_volume                     2187.48
_exptl_crystal_colour            colorless
_exptl_crystal_description       block
_cell_formula_units_Z            4
loop_
_atom_site_label
_atom_site_type_symbol
_atom_site_fract_x
_atom_site_fract_y
_atom_site_fract_z
C1 C 1.06914(14) 0.91493(14) 0.85056(14)
H1 H 1.0876 0.9503 0.7823
H2 H 1.0770 0.9627 0.9001
C2 C 0.95406(14) 0.88344(14) 0.86638(14)
H3 H 0.9284 0.8713 0.9400
C3 C 0.97257(15) 0.77815(14) 0.82178(14)
H4 H 0.9175 0.7316 0.8544
H5 H 0.9704 0.7878 0.7487
C4 C 1.08436(14) 0.73365(14) 0.84339(14)
C5 C 1.07999(14) 0.65393(14) 0.93766(13)
H6 H 1.0443 0.5937 0.9231
C6 C 1.25453(15) 0.56685(15) 0.87129(14)
H7 H 1.2230 0.5036 0.8602
H8 H 1.3277 0.5455 0.8871
C7 C 1.26221(15) 0.63996(15) 0.77547(14)
H9 H 1.2996 0.6021 0.7188
H10 H 1.3047 0.6977 0.7819
C8 C 1.15053(15) 0.68390(15) 0.75408(14)
H11 H 1.1577 0.7365 0.6952
H12 H 1.1124 0.6272 0.7374
C9 C 0.87650(14) 0.96305(14) 0.81993(14)
C10 C 0.79232(14) 1.01544(14) 0.88063(14)
C11 C 0.72337(15) 1.09251(15) 0.83768(15)
H13 H 0.6665 1.1275 0.8793
C12 C 0.73727(15) 1.11838(15) 0.73476(15)
H14 H 0.6912 1.1716 0.7055
C13 C 0.81898(15) 1.06557(15) 0.67574(14)
C14 C 0.77924(17) 1.05808(17) 0.51330(15)
C15 C 0.88799(14) 0.98936(15) 0.71647(14)
H15 H 0.9438 0.9544 0.6738
C16 C 1.01576(14) 0.69418(14) 1.03134(13)
C17 C 0.91432(15) 0.66232(15) 1.06730(14)
H16 H 0.8843 0.6177 1.0308
C18 C 0.85660(16) 0.69456(16) 1.15515(15)
H17 H 0.7875 0.6717 1.1788
C19 C 0.89854(16) 0.75973(16) 1.20889(15)
H18 H 0.8588 0.7813 1.2697
C20 C 0.99903(16) 0.79371(15) 1.17380(15)
H19 H 1.0279 0.8394 1.2100
C21 C 1.05706(15) 0.76102(14) 1.08611(14)
H20 H 1.1260 0.7842 1.0626
F1 F 0.82022(11) 1.07956(12) 0.41898(9)
F2 F 0.67817(10) 1.10129(13) 0.52615(10)
F3 F 0.77175(12) 0.95644(11) 0.53075(10)
N1 N 1.18900(12) 0.61345(12) 0.95809(12)
H21 H 1.2236(18) 0.6687(18) 0.9697(16)
O1 O 1.13745(10) 0.82078(9) 0.86360(10)
O2 O 0.78153(11) 0.98816(11) 0.98078(10)
H22 H 0.7351 1.0298 1.0103
O3 O 0.83983(11) 1.09382(11) 0.57068(10)
C22 C 0.55775(14) 0.67899(15) 0.74254(15)
H23 H 0.5809 0.6739 0.6700
H24 H 0.5280 0.6133 0.7730
C23 C 0.65275(14) 0.69871(14) 0.79285(14)
H25 H 0.6368 0.6769 0.8664
C24 C 0.64853(14) 0.81803(14) 0.77625(15)
H26 H 0.6760 0.8461 0.8310
H27 H 0.6917 0.8408 0.7115
C25 C 0.52944(14) 0.85430(14) 0.77596(14)
C26 C 0.47233(14) 0.88942(14) 0.87801(14)
H28 H 0.5062 0.9519 0.8899
C27 C 0.33987(15) 1.00385(15) 0.79473(14)
H29 H 0.3699 1.0674 0.8074
H30 H 0.2619 1.0206 0.7946
C28 C 0.39167(16) 0.97248(16) 0.69267(15)
H31 H 0.3823 1.0315 0.6409
H32 H 0.3564 0.9138 0.6761
C29 C 0.51098(16) 0.94035(15) 0.69270(15)
H33 H 0.5429 0.9159 0.6271
H34 H 0.5474 1.0014 0.7018
C30 C 0.75612(14) 0.64065(14) 0.75022(14)
C31 C 0.80527(14) 0.55910(14) 0.80926(14)
C32 C 0.89928(15) 0.50255(15) 0.76824(15)
H35 H 0.9319 0.4471 0.8082
C33 C 0.94506(15) 0.52710(15) 0.66944(14)
H36 H 1.0087 0.4889 0.6413
C34 C 0.89640(15) 0.60780(15) 0.61316(14)
C35 C 1.00764(16) 0.70451(17) 0.49158(15)
C36 C 0.80303(14) 0.66354(15) 0.65144(14)
H37 H 0.7706 0.7178 0.6101
C37 C 0.48568(14) 0.80843(14) 0.96562(14)
C38 C 0.42981(15) 0.71968(15) 0.98219(15)
H38 H 0.3827 0.7095 0.9371
C39 C 0.44156(16) 0.64652(16) 1.06263(15)
H39 H 0.4029 0.5866 1.0724
C40 C 0.50976(17) 0.66027(17) 1.12932(15)
H40 H 0.5174 0.6106 1.1854
C41 C 0.56651(16) 0.74710(16) 1.11331(16)
H41 H 0.6140 0.7564 1.1583
C42 C 0.55504(15) 0.82072(15) 1.03255(15)
H42 H 0.5947 0.8800 1.0226
F4 F 1.09558(11) 0.67792(14) 0.53310(10)
F5 F 0.96657(14) 0.79386(11) 0.52584(13)
F6 F 1.03780(10) 0.72001(11) 0.39462(9)
N2 N 0.35689(12) 0.92135(13) 0.87666(12)
H43 H 0.3240(18) 0.8642(18) 0.8674(16)
O4 O 0.47916(10) 0.76505(10) 0.75807(10)
O5 O 0.75853(11) 0.53946(11) 0.90544(10)
H44 H 0.7944 0.4900 0.9339
O6 O 0.93933(11) 0.63092(11) 0.51070(10)
C43 C 0.3269(2) 0.5754(2) 0.39974(19)
H45 H 0.2873 0.5357 0.3633
H46 H 0.4010 0.5773 0.3656
H47 H 0.2925 0.6464 0.4019
C44 C 0.3269(2) 0.52459(19) 0.50428(19)
H48 H 0.3654 0.5648 0.5423
H49 H 0.2523 0.5212 0.5392
C45 C 0.3883(2) 0.3627(2) 0.58395(19)
C46 C 0.4424(3) 0.2569(2) 0.5665(3)
H50 H 0.3915 0.2144 0.5468
H51 H 0.4671 0.2238 0.6283
H52 H 0.5039 0.2631 0.5131
O7 O 0.38008(14) 0.42073(13) 0.49745(12)
O8 O 0.35662(15) 0.39340(16) 0.66490(13)
loop_
_geom_bond_atom_site_label_1
_geom_bond_atom_site_label_2
_geom_bond_site_symmetry_1
_geom_bond_site_symmetry_2
C1 H1 1_555 1_555
H2 C1 1_555 1_555
C2 C1 1_555 1_555
H3 C2 1_555 1_555
C3 C2 1_555 1_555
H4 C3 1_555 1_555
H5 C3 1_555 1_555
C4 C3 1_555 1_555
C5 C4 1_555 1_555
H6 C5 1_555 1_555
C6 H7 1_555 1_555
H8 C6 1_555 1_555
C7 C6 1_555 1_555
H9 C7 1_555 1_555
H10 C7 1_555 1_555
C8 C4 1_555 1_555
H11 C8 1_555 1_555
H12 C8 1_555 1_555
C9 C2 1_555 1_555
C10 C9 1_555 1_555
C11 C10 1_555 1_555
H13 C11 1_555 1_555
C12 C11 1_555 1_555
H14 C12 1_555 1_555
C13 C12 1_555 1_555
C14 F1 1_555 1_555
C15 C9 1_555 1_555
H15 C15 1_555 1_555
C16 C5 1_555 1_555
C17 C16 1_555 1_555
H16 C17 1_555 1_555
C18 C17 1_555 1_555
H17 C18 1_555 1_555
C19 C18 1_555 1_555
H18 C19 1_555 1_555
C20 C19 1_555 1_555
H19 C20 1_555 1_555
C21 C16 1_555 1_555
H20 C21 1_555 1_555
F2 C14 1_555 1_555
F3 C14 1_555 1_555
N1 C5 1_555 1_555
H21 N1 1_555 1_555
O1 C1 1_555 1_555
O2 C10 1_555 1_555
H22 O2 1_555 1_555
O3 C13 1_555 1_555
C22 H23 1_555 1_555
H24 C22 1_555 1_555
C23 C22 1_555 1_555
H25 C23 1_555 1_555
C24 C23 1_555 1_555
H26 C24 1_555 1_555
H27 C24 1_555 1_555
C25 C24 1_555 1_555
C26 C25 1_555 1_555
H28 C26 1_555 1_555
C27 H29 1_555 1_555
H30 C27 1_555 1_555
C28 C27 1_555 1_555
H31 C28 1_555 1_555
H32 C28 1_555 1_555
C29 C25 1_555 1_555
H33 C29 1_555 1_555
H34 C29 1_555 1_555
C30 C23 1_555 1_555
C31 C30 1_555 1_555
C32 C31 1_555 1_555
H35 C32 1_555 1_555
C33 C32 1_555 1_555
H36 C33 1_555 1_555
C34 C33 1_555 1_555
C35 F4 1_555 1_555
C36 C30 1_555 1_555
H37 C36 1_555 1_555
C37 C26 1_555 1_555
C38 C37 1_555 1_555
H38 C38 1_555 1_555
C39 C38 1_555 1_555
H39 C39 1_555 1_555
C40 C39 1_555 1_555
H40 C40 1_555 1_555
C41 C40 1_555 1_555
H41 C41 1_555 1_555
C42 C37 1_555 1_555
H42 C42 1_555 1_555
F5 C35 1_555 1_555
F6 C35 1_555 1_555
N2 C26 1_555 1_555
H43 N2 1_555 1_555
O4 C22 1_555 1_555
O5 C31 1_555 1_555
H44 O5 1_555 1_555
O6 C34 1_555 1_555
C43 H45 1_555 1_555
H46 C43 1_555 1_555
H47 C43 1_555 1_555
C44 C43 1_555 1_555
H48 C44 1_555 1_555
H49 C44 1_555 1_555
C45 C46 1_555 1_555
C46 H50 1_555 1_555
H51 C46 1_555 1_555
H52 C46 1_555 1_555
O7 C44 1_555 1_555
O8 C45 1_555 1_555
C4 O1 1_555 1_555
C6 N1 1_555 1_555
C7 C8 1_555 1_555
C13 C15 1_555 1_555
C14 O3 1_555 1_555
C20 C21 1_555 1_555
C25 O4 1_555 1_555
C27 N2 1_555 1_555
C28 C29 1_555 1_555
C34 C36 1_555 1_555
C35 O6 1_555 1_555
C41 C42 1_555 1_555
C45 O7 1_555 1_555

#END
