
#######################################################################
#
#                 Cambridge Crystallographic Data Centre
#                                CCDC 
#
#######################################################################
#
# If this CIF has been generated from an entry in the Cambridge 
# Structural Database, then it will include bibliographic, chemical, 
# crystal, experimental, refinement or atomic coordinate data resulting 
# from the CCDC's data processing and validation procedures.
#
#######################################################################

data_EFEJEG
_chemical_formula_moiety         'C18 H17 N1 O4 S1'
_chemical_name_systematic        
6-hydroxy-1-((4-methylphenyl)sulfonyl)-2-phenyl-1,6-dihydropyridin-3(2H)-one
_symmetry_cell_setting           monoclinic
_symmetry_space_group_name_H-M   'P 21/n'
_symmetry_Int_Tables_number      14
_space_group_name_Hall           '-P 2yn'
loop_
_symmetry_equiv_pos_site_id
_symmetry_equiv_pos_as_xyz
1 x,y,z
2 1/2-x,1/2+y,1/2-z
3 -x,-y,-z
4 1/2+x,1/2-y,1/2+z
_cell_length_a                   8.3044(14)
_cell_length_b                   10.7213(19)
_cell_length_c                   17.956(3)
_cell_angle_alpha                90
_cell_angle_beta                 91.819(5)
_cell_angle_gamma                90
_cell_volume                     1597.89
_exptl_crystal_colour            colorless
_exptl_crystal_description       plate
_cell_formula_units_Z            4
loop_
_atom_site_label
_atom_site_type_symbol
_atom_site_fract_x
_atom_site_fract_y
_atom_site_fract_z
C1 C 0.6259(6) 0.7907(4) 0.8244(2)
H1 H 0.6219 0.8561 0.8600
C2 C 0.5847(6) 0.8140(5) 0.7494(3)
H2 H 0.5509 0.8951 0.7344
C3 C 0.5930(6) 0.7195(5) 0.6973(3)
H3 H 0.5673 0.7359 0.6463
C4 C 0.6388(6) 0.6013(5) 0.7197(3)
H4 H 0.6445 0.5360 0.6840
C5 C 0.6765(6) 0.5775(4) 0.7939(2)
H5 H 0.7055 0.4955 0.8092
C6 C 0.6722(5) 0.6729(4) 0.8464(2)
C7 C 0.7202(5) 0.6425(4) 0.9274(2)
H6 H 0.6558 0.5680 0.9419
C8 C 0.8969(5) 0.6050(4) 0.9337(2)
C9 C 1.0121(5) 0.6945(4) 0.9662(2)
H7 H 1.1234 0.6739 0.9674
C10 C 0.9679(5) 0.8022(4) 0.9937(2)
H8 H 1.0502 0.8588 1.0094
C11 C 0.7982(5) 0.8416(3) 1.0019(2)
H9 H 0.7830 0.8622 1.0555
C12 C 0.5752(5) 0.6927(3) 1.1183(2)
C13 C 0.6657(6) 0.5863(4) 1.1287(2)
H10 H 0.6975 0.5388 1.0870
C14 C 0.7102(6) 0.5490(4) 1.1998(2)
H11 H 0.7722 0.4752 1.2068
C15 C 0.6660(6) 0.6173(4) 1.2614(2)
C16 C 0.7157(7) 0.5762(5) 1.3390(2)
H12 H 0.7810 0.6416 1.3632
H13 H 0.7790 0.4993 1.3363
H14 H 0.6194 0.5610 1.3678
C17 C 0.5726(6) 0.7236(4) 1.2498(2)
H15 H 0.5394 0.7707 1.2914
C18 C 0.5276(6) 0.7616(4) 1.1788(2)
H16 H 0.4644 0.8347 1.1715
N1 N 0.6834(4) 0.7433(3) 0.98079(17)
O1 O 0.9393(4) 0.5051(3) 0.90871(17)
O2 O 0.7797(4) 0.9533(2) 0.96019(17)
H17 H 0.6998 0.9931 0.9752
O3 O 0.4154(3) 0.6472(3) 0.99281(16)
O4 O 0.4612(4) 0.8664(3) 1.03186(17)
S1 S 0.51789(13) 0.74014(8) 1.02701(6)
loop_
_geom_bond_atom_site_label_1
_geom_bond_atom_site_label_2
_geom_bond_site_symmetry_1
_geom_bond_site_symmetry_2
C1 H1 1_555 1_555
C2 C1 1_555 1_555
H2 C2 1_555 1_555
C3 C2 1_555 1_555
H3 C3 1_555 1_555
C4 C3 1_555 1_555
H4 C4 1_555 1_555
C5 C4 1_555 1_555
H5 C5 1_555 1_555
C6 C1 1_555 1_555
C7 C6 1_555 1_555
H6 C7 1_555 1_555
C8 C7 1_555 1_555
C9 C8 1_555 1_555
H7 C9 1_555 1_555
C10 C9 1_555 1_555
H8 C10 1_555 1_555
C11 C10 1_555 1_555
H9 C11 1_555 1_555
C12 C13 1_555 1_555
C13 H10 1_555 1_555
C14 C13 1_555 1_555
H11 C14 1_555 1_555
C15 C14 1_555 1_555
C16 C15 1_555 1_555
H12 C16 1_555 1_555
H13 C16 1_555 1_555
H14 C16 1_555 1_555
C17 C15 1_555 1_555
H15 C17 1_555 1_555
C18 C12 1_555 1_555
H16 C18 1_555 1_555
N1 C7 1_555 1_555
O1 C8 1_555 1_555
O2 C11 1_555 1_555
H17 O2 1_555 1_555
O3 S1 1_555 1_555
O4 S1 1_555 1_555
S1 C12 1_555 1_555
C5 C6 1_555 1_555
C11 N1 1_555 1_555
C17 C18 1_555 1_555
N1 S1 1_555 1_555

#END
