
#######################################################################
#
#                 Cambridge Crystallographic Data Centre
#                                CCDC 
#
#######################################################################
#
# If this CIF has been generated from an entry in the Cambridge 
# Structural Database, then it will include bibliographic, chemical, 
# crystal, experimental, refinement or atomic coordinate data resulting 
# from the CCDC's data processing and validation procedures.
#
#######################################################################

data_EFEKUX
_chemical_compound_source        'Salvia scapiformis, whole plant'
_chemical_name_common            'Scapiformolactone A'
_chemical_formula_moiety         'C22 H32 O7'
_chemical_name_systematic        
'8-isopropyl-5-methyl-4,11-dioxo-10-oxabicyclo[7.2.1]dodec-1-en-7-yl 3-acetoxy-2-methylbutanoate'
_chemical_properties_biological  
'Displayed inhibitory activities against LPS-induced murine B cell proliferation, exerted weak cytotoxicity in some human cancer cell lines'
_symmetry_cell_setting           monoclinic
_symmetry_space_group_name_H-M   'P 21'
_symmetry_Int_Tables_number      4
_space_group_name_Hall           'P 2yb'
loop_
_symmetry_equiv_pos_site_id
_symmetry_equiv_pos_as_xyz
1 x,y,z
2 -x,1/2+y,-z
_cell_length_a                   9.8603(3)
_cell_length_b                   9.7544(4)
_cell_length_c                   11.3228(4)
_cell_angle_alpha                90
_cell_angle_beta                 92.286(2)
_cell_angle_gamma                90
_cell_volume                     1088.18
_cell_formula_units_Z            2
loop_
_atom_site_label
_atom_site_type_symbol
_atom_site_fract_x
_atom_site_fract_y
_atom_site_fract_z
C1 C 0.2877(3) 0.1139(4) 0.2110(3)
C2 C 0.2310(3) 0.1200(4) 0.0836(3)
H1 H 0.2281 0.0258 0.0510
H2 H 0.1365 0.1543 0.0838
C3 C 0.3105(3) 0.2091(4) 0.0031(3)
H3 H 0.3872 0.1684 -0.0311
C4 C 0.2849(3) 0.3391(4) -0.0253(3)
C5 C 0.1756(3) 0.4357(4) 0.0091(3)
H4 H 0.1314 0.4045 0.0813
H5 H 0.1059 0.4473 -0.0555
C6 C 0.2571(3) 0.5690(4) 0.0315(3)
H6 H 0.1991 0.6490 0.0073
C7 C 0.3162(3) 0.5937(4) 0.1569(3)
H7 H 0.3790 0.6738 0.1514
C8 C 0.4045(3) 0.4720(4) 0.2002(3)
H8 H 0.4513 0.4338 0.1306
C9 C 0.3311(3) 0.3544(4) 0.2595(3)
H9 H 0.2377 0.3484 0.2245
H10 H 0.3240 0.3765 0.3444
C10 C 0.3998(3) 0.2119(4) 0.2490(3)
H11 H 0.4658 0.2168 0.1844
C11 C 0.2054(3) 0.6372(4) 0.2436(3)
H12 H 0.1545 0.5530 0.2660
C12 C 0.1036(3) 0.7389(4) 0.1883(3)
H13 H 0.0457 0.7747 0.2495
H14 H 0.0472 0.6924 0.1273
H15 H 0.1526 0.8148 0.1526
C13 C 0.2714(3) 0.6981(4) 0.3565(3)
H16 H 0.3253 0.7786 0.3363
H17 H 0.3306 0.6295 0.3952
H18 H 0.2007 0.7253 0.4102
C14 C 0.4764(4) 0.1683(4) 0.3619(3)
H19 H 0.4140 0.1660 0.4271
H20 H 0.5496 0.2339 0.3803
H21 H 0.5152 0.0769 0.3511
C15 C 0.3874(3) 0.4242(4) -0.0826(3)
C16 C 0.6397(3) 0.5034(4) 0.2608(3)
C17 C 0.7313(3) 0.5522(4) 0.3612(3)
H22 H 0.6889 0.5274 0.4371
C18 C 0.8679(3) 0.4808(4) 0.3574(3)
H23 H 0.9119 0.5030 0.2817
C19 C 0.9639(3) 0.5138(4) 0.4613(3)
H24 H 0.9197 0.4929 0.5352
H25 H 0.9876 0.6113 0.4596
H26 H 1.0465 0.4585 0.4563
C20 C 0.7439(3) 0.7085(4) 0.3555(4)
H27 H 0.7899 0.7344 0.2836
H28 H 0.7967 0.7414 0.4249
H29 H 0.6532 0.7497 0.3541
C21 C 0.8983(3) 0.2516(4) 0.2856(3)
C22 C 0.8463(4) 0.1088(4) 0.2928(3)
H30 H 0.7669 0.0981 0.2387
H31 H 0.8204 0.0896 0.3738
H32 H 0.9173 0.0446 0.2706
O1 O 0.2351(2) 0.0380(3) 0.2814(2)
O2 O 0.4806(2) 0.3917(3) -0.1441(2)
O3 O 0.3695(2) 0.5573(2) -0.0504(2)
O4 O 0.5088(2) 0.5212(2) 0.28593(19)
O5 O 0.6769(2) 0.4560(3) 0.1687(2)
O6 O 0.9841(3) 0.2903(3) 0.2197(3)
O7 O 0.8373(2) 0.3340(3) 0.3622(2)
loop_
_geom_bond_atom_site_label_1
_geom_bond_atom_site_label_2
_geom_bond_site_symmetry_1
_geom_bond_site_symmetry_2
C1 C2 1_555 1_555
C2 H1 1_555 1_555
H2 C2 1_555 1_555
C3 C2 1_555 1_555
H3 C3 1_555 1_555
C4 C3 1_555 1_555
C5 C4 1_555 1_555
H4 C5 1_555 1_555
H5 C5 1_555 1_555
C6 C5 1_555 1_555
H6 C6 1_555 1_555
C7 C6 1_555 1_555
H7 C7 1_555 1_555
C8 C7 1_555 1_555
H8 C8 1_555 1_555
C9 C8 1_555 1_555
H9 C9 1_555 1_555
H10 C9 1_555 1_555
C10 C1 1_555 1_555
H11 C10 1_555 1_555
C11 C7 1_555 1_555
H12 C11 1_555 1_555
C12 C11 1_555 1_555
H13 C12 1_555 1_555
H14 C12 1_555 1_555
H15 C12 1_555 1_555
C13 C11 1_555 1_555
H16 C13 1_555 1_555
H17 C13 1_555 1_555
H18 C13 1_555 1_555
C14 C10 1_555 1_555
H19 C14 1_555 1_555
H20 C14 1_555 1_555
H21 C14 1_555 1_555
C15 C4 1_555 1_555
C16 C17 1_555 1_555
C17 H22 1_555 1_555
C18 C17 1_555 1_555
H23 C18 1_555 1_555
C19 C18 1_555 1_555
H24 C19 1_555 1_555
H25 C19 1_555 1_555
H26 C19 1_555 1_555
C20 C17 1_555 1_555
H27 C20 1_555 1_555
H28 C20 1_555 1_555
H29 C20 1_555 1_555
C21 C22 1_555 1_555
C22 H30 1_555 1_555
H31 C22 1_555 1_555
H32 C22 1_555 1_555
O1 C1 1_555 1_555
O2 C15 1_555 1_555
O3 C6 1_555 1_555
O4 C8 1_555 1_555
O5 C16 1_555 1_555
O6 C21 1_555 1_555
O7 C18 1_555 1_555
C9 C10 1_555 1_555
C15 O3 1_555 1_555
C16 O4 1_555 1_555
C21 O7 1_555 1_555

#END
