
#######################################################################
#
#                 Cambridge Crystallographic Data Centre
#                                CCDC 
#
#######################################################################
#
# If this CIF has been generated from an entry in the Cambridge 
# Structural Database, then it will include bibliographic, chemical, 
# crystal, experimental, refinement or atomic coordinate data resulting 
# from the CCDC's data processing and validation procedures.
#
#######################################################################

data_EFEMUZ
_chemical_formula_moiety         'C28 H22 N2 O1'
_chemical_name_systematic        
2-(4-(Diphenylamino)phenyl)-3-(4-methoxyphenyl)acrylonitrile
_symmetry_cell_setting           monoclinic
_symmetry_space_group_name_H-M   'P 21/c'
_symmetry_Int_Tables_number      14
_space_group_name_Hall           '-P 2ybc'
loop_
_symmetry_equiv_pos_site_id
_symmetry_equiv_pos_as_xyz
1 x,y,z
2 -x,1/2+y,1/2-z
3 -x,-y,-z
4 x,1/2-y,1/2+z
_cell_length_a                   22.475(3)
_cell_length_b                   8.7817(10)
_cell_length_c                   10.7156(13)
_cell_angle_alpha                90
_cell_angle_beta                 96.981(2)
_cell_angle_gamma                90
_cell_volume                     2099.25
_exptl_crystal_colour            colorless
_exptl_crystal_description       plate
_cell_formula_units_Z            4
loop_
_atom_site_label
_atom_site_type_symbol
_atom_site_fract_x
_atom_site_fract_y
_atom_site_fract_z
N1 N 0.16386(6) 0.50600(16) 0.10122(13)
N2 N 0.42341(6) 0.89331(18) -0.07431(15)
O1 O 0.70745(5) 0.63023(13) 0.18287(11)
C1 C 0.22482(7) 0.54974(19) 0.09678(15)
C2 C 0.23908(7) 0.68132(19) 0.03611(15)
H1 H 0.2080 0.7468 -0.0001
C3 C 0.29860(7) 0.71832(19) 0.02772(15)
H2 H 0.3076 0.8083 -0.0156
C4 C 0.34553(6) 0.62614(18) 0.08159(14)
C5 C 0.33017(7) 0.49556(19) 0.14525(16)
H3 H 0.3611 0.4315 0.1841
C6 C 0.27118(7) 0.45762(19) 0.15296(16)
H4 H 0.2620 0.3682 0.1968
C7 C 0.40929(7) 0.66550(18) 0.07239(14)
C8 C 0.41831(7) 0.79127(19) -0.00976(15)
C9 C 0.45564(7) 0.59154(19) 0.13726(15)
H5 H 0.4437 0.5117 0.1886
C10 C 0.52050(7) 0.60941(19) 0.14453(15)
C11 C 0.55155(7) 0.71780(19) 0.08097(16)
H6 H 0.5297 0.7893 0.0269
C12 C 0.61338(7) 0.72187(19) 0.09604(16)
H7 H 0.6336 0.7966 0.0528
C13 C 0.64642(7) 0.61740(19) 0.17410(15)
C14 C 0.61688(7) 0.5090(2) 0.23777(17)
H8 H 0.6389 0.4373 0.2914
C15 C 0.55470(7) 0.5068(2) 0.22199(17)
H9 H 0.5347 0.4322 0.2658
C16 C 0.74192(7) 0.5324(2) 0.27010(17)
H10 H 0.7304 0.5485 0.3544
H11 H 0.7846 0.5553 0.2706
H12 H 0.7344 0.4261 0.2452
C17 C 0.14621(7) 0.35502(19) 0.06762(15)
C18 C 0.17285(7) 0.2783(2) -0.02524(15)
H13 H 0.2028 0.3274 -0.0661
C19 C 0.15574(8) 0.1304(2) -0.05801(16)
H14 H 0.1748 0.0783 -0.1200
C20 C 0.11143(8) 0.0578(2) -0.00183(18)
H15 H 0.0993 -0.0427 -0.0262
C21 C 0.08491(8) 0.1330(2) 0.09021(17)
H16 H 0.0543 0.0839 0.1291
C22 C 0.10251(7) 0.27958(19) 0.12643(15)
H17 H 0.0847 0.3289 0.1916
C23 C 0.12470(7) 0.61039(18) 0.14970(15)
C24 C 0.06322(7) 0.6128(2) 0.10439(15)
H18 H 0.0480 0.5465 0.0380
C25 C 0.02477(7) 0.7111(2) 0.15602(17)
H19 H -0.0168 0.7099 0.1262
C26 C 0.04619(7) 0.8107(2) 0.25040(17)
H20 H 0.0195 0.8771 0.2862
C27 C 0.10699(7) 0.8131(2) 0.29258(16)
H21 H 0.1222 0.8836 0.3557
C28 C 0.14575(7) 0.71303(19) 0.24314(15)
H22 H 0.1872 0.7148 0.2737
loop_
_geom_bond_atom_site_label_1
_geom_bond_atom_site_label_2
_geom_bond_site_symmetry_1
_geom_bond_site_symmetry_2
N1 C1 1_555 1_555
N2 C8 1_555 1_555
O1 C13 1_555 1_555
C1 C2 1_555 1_555
C2 H1 1_555 1_555
C3 C2 1_555 1_555
H2 C3 1_555 1_555
C4 C3 1_555 1_555
C5 C4 1_555 1_555
H3 C5 1_555 1_555
C6 C1 1_555 1_555
H4 C6 1_555 1_555
C7 C4 1_555 1_555
C8 C7 1_555 1_555
C9 C7 1_555 1_555
H5 C9 1_555 1_555
C10 C9 1_555 1_555
C11 C10 1_555 1_555
H6 C11 1_555 1_555
C12 C11 1_555 1_555
H7 C12 1_555 1_555
C13 C12 1_555 1_555
C14 C13 1_555 1_555
H8 C14 1_555 1_555
C15 C10 1_555 1_555
H9 C15 1_555 1_555
C16 O1 1_555 1_555
H10 C16 1_555 1_555
H11 C16 1_555 1_555
H12 C16 1_555 1_555
C17 N1 1_555 1_555
C18 C17 1_555 1_555
H13 C18 1_555 1_555
C19 C18 1_555 1_555
H14 C19 1_555 1_555
C20 C19 1_555 1_555
H15 C20 1_555 1_555
C21 C20 1_555 1_555
H16 C21 1_555 1_555
C22 C17 1_555 1_555
H17 C22 1_555 1_555
C23 N1 1_555 1_555
C24 C23 1_555 1_555
H18 C24 1_555 1_555
C25 C24 1_555 1_555
H19 C25 1_555 1_555
C26 C25 1_555 1_555
H20 C26 1_555 1_555
C27 C26 1_555 1_555
H21 C27 1_555 1_555
C28 C23 1_555 1_555
H22 C28 1_555 1_555
C5 C6 1_555 1_555
C14 C15 1_555 1_555
C21 C22 1_555 1_555
C27 C28 1_555 1_555

#END
