
#######################################################################
#
#                 Cambridge Crystallographic Data Centre
#                                CCDC 
#
#######################################################################
#
# If this CIF has been generated from an entry in the Cambridge 
# Structural Database, then it will include bibliographic, chemical, 
# crystal, experimental, refinement or atomic coordinate data resulting 
# from the CCDC's data processing and validation procedures.
#
#######################################################################

data_EFENOU
_chemical_formula_moiety         'C33 H21 F1'
_chemical_name_systematic        
9-(9H-fluoren-9-yl)-10-(4-fluorophenyl)anthracene
_symmetry_cell_setting           orthorhombic
_symmetry_space_group_name_H-M   'P b c a'
_symmetry_Int_Tables_number      61
_space_group_name_Hall           '-P 2ac 2ab'
loop_
_symmetry_equiv_pos_site_id
_symmetry_equiv_pos_as_xyz
1 x,y,z
2 1/2-x,-y,1/2+z
3 -x,1/2+y,1/2-z
4 1/2+x,1/2-y,-z
5 -x,-y,-z
6 1/2+x,y,1/2-z
7 x,1/2-y,1/2+z
8 1/2-x,1/2+y,z
_cell_length_a                   11.236(3)
_cell_length_b                   11.286(3)
_cell_length_c                   36.667(9)
_cell_angle_alpha                90
_cell_angle_beta                 90
_cell_angle_gamma                90
_cell_volume                     4649.72
_cell_formula_units_Z            8
loop_
_atom_site_label
_atom_site_type_symbol
_atom_site_fract_x
_atom_site_fract_y
_atom_site_fract_z
C1 C -0.3525(2) 0.2010(3) 0.03460(9)
C2 C -0.2665(3) 0.2772(3) 0.02494(6)
H1 H -0.2796 0.3325 0.0066
C3 C -0.15764(19) 0.2721(2) 0.04279(5)
H2 H -0.0971 0.3240 0.0362
C4 C -0.13834(15) 0.19083(16) 0.07025(5)
C5 C -0.22985(18) 0.1160(2) 0.07942(7)
H3 H -0.2190 0.0615 0.0981
C6 C -0.3383(2) 0.1202(3) 0.06133(9)
H4 H -0.3996 0.0686 0.0675
C7 C -0.02345(14) 0.18633(14) 0.09060(4)
C8 C -0.00618(13) 0.26209(14) 0.12054(4)
C9 C -0.09280(15) 0.34844(17) 0.13054(5)
H5 H -0.1630 0.3537 0.1172
C10 C -0.07536(15) 0.42296(18) 0.15897(5)
H6 H -0.1329 0.4791 0.1648
C11 C 0.02949(14) 0.41579(16) 0.17972(5)
H7 H 0.0409 0.4670 0.1993
C12 C 0.11377(14) 0.33489(14) 0.17137(4)
H8 H 0.1828 0.3320 0.1853
C13 C 0.10033(13) 0.25385(14) 0.14184(4)
C14 C 0.18715(13) 0.16838(14) 0.13327(4)
C15 C 0.17327(13) 0.09752(14) 0.10198(4)
C16 C 0.26135(16) 0.01504(16) 0.08981(5)
H9 H 0.3324 0.0090 0.1027
C17 C 0.24499(18) -0.05445(19) 0.06024(5)
H10 H 0.3045 -0.1069 0.0531
C18 C 0.13837(18) -0.04798(19) 0.04014(5)
H11 H 0.1270 -0.0971 0.0201
C19 C 0.05281(16) 0.02932(17) 0.04995(5)
H12 H -0.0170 0.0327 0.0363
C20 C 0.06602(14) 0.10610(15) 0.08060(4)
C21 C 0.29426(13) 0.14950(14) 0.15791(4)
H13 H 0.3283 0.0733 0.1505
C22 C 0.27429(14) 0.13965(14) 0.19865(4)
C23 C 0.19009(17) 0.07492(19) 0.21730(6)
H14 H 0.1324 0.0318 0.2049
C24 C 0.1935(2) 0.0758(3) 0.25509(7)
H15 H 0.1373 0.0328 0.2682
C25 C 0.2789(3) 0.1393(3) 0.27354(6)
H16 H 0.2787 0.1396 0.2989
C26 C 0.3638(2) 0.2019(2) 0.25521(6)
H17 H 0.4224 0.2431 0.2678
C27 C 0.36111(15) 0.20307(16) 0.21735(5)
C28 C 0.43643(14) 0.26365(16) 0.19070(5)
C29 C 0.53439(17) 0.3385(2) 0.19503(8)
H18 H 0.5639 0.3565 0.2181
C30 C 0.58636(19) 0.3850(2) 0.16384(11)
H19 H 0.6505 0.4365 0.1662
C31 C 0.54559(19) 0.3571(3) 0.12976(9)
H20 H 0.5838 0.3881 0.1094
C32 C 0.44903(16) 0.28391(19) 0.12519(6)
H21 H 0.4207 0.2663 0.1020
C33 C 0.39525(13) 0.23732(16) 0.15563(5)
F1 F -0.45836(15) 0.2060(2) 0.01691(6)
loop_
_geom_bond_atom_site_label_1
_geom_bond_atom_site_label_2
_geom_bond_site_symmetry_1
_geom_bond_site_symmetry_2
C1 C2 1_555 1_555
C2 H1 1_555 1_555
C3 C2 1_555 1_555
H2 C3 1_555 1_555
C4 C3 1_555 1_555
C5 C4 1_555 1_555
H3 C5 1_555 1_555
C6 C1 1_555 1_555
H4 C6 1_555 1_555
C7 C4 1_555 1_555
C8 C7 1_555 1_555
C9 C8 1_555 1_555
H5 C9 1_555 1_555
C10 C9 1_555 1_555
H6 C10 1_555 1_555
C11 C10 1_555 1_555
H7 C11 1_555 1_555
C12 C11 1_555 1_555
H8 C12 1_555 1_555
C13 C8 1_555 1_555
C14 C13 1_555 1_555
C15 C14 1_555 1_555
C16 C15 1_555 1_555
H9 C16 1_555 1_555
C17 C16 1_555 1_555
H10 C17 1_555 1_555
C18 C17 1_555 1_555
H11 C18 1_555 1_555
C19 C18 1_555 1_555
H12 C19 1_555 1_555
C20 C7 1_555 1_555
C21 C14 1_555 1_555
H13 C21 1_555 1_555
C22 C21 1_555 1_555
C23 C22 1_555 1_555
H14 C23 1_555 1_555
C24 C23 1_555 1_555
H15 C24 1_555 1_555
C25 C24 1_555 1_555
H16 C25 1_555 1_555
C26 C25 1_555 1_555
H17 C26 1_555 1_555
C27 C22 1_555 1_555
C28 C27 1_555 1_555
C29 C28 1_555 1_555
H18 C29 1_555 1_555
C30 C29 1_555 1_555
H19 C30 1_555 1_555
C31 C30 1_555 1_555
H20 C31 1_555 1_555
C32 C31 1_555 1_555
H21 C32 1_555 1_555
C33 C21 1_555 1_555
F1 C1 1_555 1_555
C5 C6 1_555 1_555
C12 C13 1_555 1_555
C15 C20 1_555 1_555
C19 C20 1_555 1_555
C26 C27 1_555 1_555
C28 C33 1_555 1_555
C32 C33 1_555 1_555

#END
