
#######################################################################
#
#                 Cambridge Crystallographic Data Centre
#                                CCDC 
#
#######################################################################
#
# If this CIF has been generated from an entry in the Cambridge 
# Structural Database, then it will include bibliographic, chemical, 
# crystal, experimental, refinement or atomic coordinate data resulting 
# from the CCDC's data processing and validation procedures.
#
#######################################################################

data_EFENUA
_chemical_compound_source        'Inula wissmanniana, whole plant'
_chemical_name_common            
'(7R)-14(10   1)-abeoeudesma-1,3,5(10),11(13)-tetraen-12-oic acid'
_chemical_formula_moiety         'C15 H18 O2'
_chemical_name_systematic        
'2-(5,8-dimethyl-1,2,3,4-tetrahydronaphthalen-2-yl)acrylic acid'
_chemical_properties_biological  
'Exhibited weak inhibition against lipopolysaccharide-induced nitric oxide production in RAW264.7 macrophages,  and weak cytotoxicity in HepG2, PC-3, and MGC-803 tumor cells'
_symmetry_cell_setting           monoclinic
_symmetry_space_group_name_H-M   'P 21'
_symmetry_Int_Tables_number      4
_space_group_name_Hall           'P 2yb'
loop_
_symmetry_equiv_pos_site_id
_symmetry_equiv_pos_as_xyz
1 x,y,z
2 -x,1/2+y,-z
_cell_length_a                   8.3226(2)
_cell_length_b                   11.6396(3)
_cell_length_c                   25.9362(7)
_cell_angle_alpha                90
_cell_angle_beta                 97.028(2)
_cell_angle_gamma                90
_cell_volume                     2493.61
_exptl_crystal_colour            colorless
_exptl_crystal_description       block
_cell_formula_units_Z            8
loop_
_atom_site_label
_atom_site_type_symbol
_atom_site_fract_x
_atom_site_fract_y
_atom_site_fract_z
O1 O 0.62393(18) 0.65817(15) 0.64474(5)
H1 H 0.5391 0.6519 0.6237
O2 O 0.44800(17) 0.63746(15) 0.70255(5)
C1 C 0.6382(2) 0.5724(2) 0.94812(8)
C2 C 0.5913(3) 0.4628(2) 0.96091(9)
H2 H 0.5718 0.4467 0.9955
C3 C 0.5725(3) 0.3767(2) 0.92415(9)
H3 H 0.5414 0.3021 0.9340
C4 C 0.5980(3) 0.3967(2) 0.87297(9)
C5 C 0.6469(2) 0.5074(2) 0.85926(8)
C6 C 0.6734(3) 0.5302(2) 0.80331(8)
H4 H 0.5843 0.4939 0.7801
H5 H 0.7757 0.4928 0.7966
C7 C 0.6814(2) 0.65745(19) 0.78933(8)
H6 H 0.5713 0.6909 0.7906
C8 C 0.7973(3) 0.7168(2) 0.83101(8)
H7 H 0.8130 0.7978 0.8211
H8 H 0.9038 0.6779 0.8345
C9 C 0.7268(3) 0.7122(2) 0.88274(8)
H9 H 0.8103 0.7386 0.9107
H10 H 0.6345 0.7662 0.8812
C10 C 0.6700(2) 0.5945(2) 0.89652(8)
C11 C 0.7232(3) 0.67235(19) 0.73451(8)
C12 C 0.5869(3) 0.65411(19) 0.69268(8)
C13 C 0.8677(3) 0.6988(2) 0.72206(9)
H11 H 0.8840 0.7060 0.6866
H12 H 0.9555 0.7106 0.7486
C14 C 0.6522(3) 0.6655(3) 0.98859(9)
H13 H 0.6113 0.6370 1.0201
H14 H 0.5885 0.7323 0.9753
H15 H 0.7660 0.6878 0.9968
C15 C 0.5735(4) 0.3016(2) 0.83338(10)
H16 H 0.5398 0.2315 0.8500
H17 H 0.6751 0.2873 0.8190
H18 H 0.4895 0.3242 0.8054
O3 O 0.81641(18) 0.12928(17) 0.36532(6)
H19 H 0.7301 0.1235 0.3450
O4 O 0.64273(18) 0.15045(16) 0.42377(5)
C16 C 0.8581(3) 0.2743(3) 0.66513(9)
C17 C 0.7952(3) 0.1930(3) 0.69587(9)
H20 H 0.7719 0.2137 0.7296
C18 C 0.7661(3) 0.0831(3) 0.67844(10)
H21 H 0.7236 0.0287 0.7005
C19 C 0.7974(3) 0.0487(2) 0.62881(9)
C20 C 0.8583(2) 0.1319(2) 0.59687(8)
C21 C 0.8824(3) 0.09798(19) 0.54167(8)
H22 H 0.7917 0.0479 0.5272
H23 H 0.9837 0.0532 0.5425
C22 C 0.8909(2) 0.20227(19) 0.50601(8)
H24 H 0.7831 0.2413 0.5026
C23 C 1.0162(3) 0.2860(2) 0.53258(8)
H25 H 1.1210 0.2461 0.5413
H26 H 1.0326 0.3501 0.5087
C24 C 0.9586(3) 0.3330(2) 0.58171(9)
H27 H 1.0505 0.3718 0.6025
H28 H 0.8741 0.3915 0.5719
C25 C 0.8909(3) 0.2431(2) 0.61516(8)
C26 C 0.9248(3) 0.16731(19) 0.45225(8)
C27 C 0.7820(3) 0.1469(2) 0.41283(8)
C28 C 1.0736(3) 0.1540(2) 0.43893(9)
H29 H 1.0877 0.1317 0.4045
H30 H 1.1654 0.1668 0.4638
C29 C 0.8847(4) 0.3971(3) 0.68349(11)
H31 H 0.8154 0.4486 0.6606
H32 H 0.9984 0.4181 0.6827
H33 H 0.8574 0.4042 0.7190
C30 C 0.7674(3) -0.0728(3) 0.61130(12)
H34 H 0.7318 -0.1180 0.6397
H35 H 0.8675 -0.1057 0.6013
H36 H 0.6832 -0.0743 0.5814
O5 O 0.7696(2) 0.00666(16) -0.13741(6)
H37 H 0.6845 0.0116 -0.1583
O6 O 0.5934(2) 0.01931(19) -0.07957(6)
C31 C 0.7925(3) 0.0899(3) 0.16606(9)
C32 C 0.8145(3) 0.0014(3) 0.20211(10)
H38 H 0.7894 0.0142 0.2364
C33 C 0.8722(4) -0.1050(3) 0.18925(10)
H39 H 0.8861 -0.1638 0.2148
C34 C 0.9101(3) -0.1271(3) 0.13970(10)
C35 C 0.8854(3) -0.0398(2) 0.10187(9)
C36 C 0.9240(3) -0.0627(2) 0.04721(9)
H40 H 1.0416 -0.0519 0.0462
H41 H 0.8976 -0.1436 0.0380
C37 C 0.8321(3) 0.0150(2) 0.00729(9)
H42 H 0.7140 -0.0005 0.0076
C38 C 0.8632(3) 0.1394(2) 0.02361(9)
H43 H 0.8083 0.1910 -0.0034
H44 H 0.9808 0.1553 0.0266
C39 C 0.8011(3) 0.1642(2) 0.07564(9)
H45 H 0.8549 0.2344 0.0908
H46 H 0.6835 0.1802 0.0692
C40 C 0.8286(3) 0.0683(2) 0.11484(9)
C41 C 0.8707(3) -0.0052(2) -0.04761(9)
C42 C 0.7327(3) 0.0089(2) -0.08936(8)
C43 C 1.0153(3) -0.0326(3) -0.06001(10)
H47 H 1.0306 -0.0432 -0.0954
H48 H 1.1039 -0.0417 -0.0335
C44 C 0.7379(3) 0.2052(3) 0.18094(10)
H49 H 0.7071 0.2021 0.2162
H50 H 0.6445 0.2291 0.1566
H51 H 0.8262 0.2606 0.1799
C45 C 0.9749(4) -0.2432(3) 0.12660(12)
H52 H 0.9951 -0.2895 0.1583
H53 H 1.0763 -0.2332 0.1115
H54 H 0.8955 -0.2822 0.1015
O7 O 0.3291(2) 0.0150(2) 0.85299(6)
H55 H 0.4156 0.0127 0.8734
O8 O 0.5001(2) 0.00647(17) 0.79389(6)
C46 C 0.3924(3) 0.0777(3) 0.55716(10)
C47 C 0.4469(3) 0.1838(3) 0.54299(9)
H56 H 0.4780 0.1946 0.5093
C48 C 0.4562(3) 0.2748(2) 0.57775(10)
H57 H 0.4937 0.3475 0.5676
C49 C 0.4115(3) 0.2607(2) 0.62707(10)
C50 C 0.3587(3) 0.1554(2) 0.64225(9)
C51 C 0.3161(3) 0.1420(2) 0.69787(9)
H58 H 0.4167 0.1484 0.7223
H59 H 0.2443 0.2062 0.7053
C52 C 0.2330(3) 0.0291(2) 0.70808(9)
H60 H 0.1210 0.0337 0.6892
C53 C 0.3168(3) -0.0702(2) 0.68388(10)
H61 H 0.4327 -0.0719 0.6981
H62 H 0.2671 -0.1438 0.6927
C54 C 0.3011(3) -0.0561(2) 0.62512(10)
H63 H 0.1874 -0.0708 0.6105
H64 H 0.3698 -0.1142 0.6105
C55 C 0.3504(3) 0.0631(2) 0.60859(9)
C56 C 0.2146(3) 0.0129(2) 0.76496(9)
C57 C 0.3625(3) 0.0118(2) 0.80476(9)
C58 C 0.0707(3) -0.0039(3) 0.78057(11)
H65 H 0.0621 -0.0164 0.8163
H66 H -0.0238 -0.0035 0.7560
C59 C 0.3763(4) -0.0188(3) 0.51875(11)
H67 H 0.4122 0.0071 0.4861
H68 H 0.2628 -0.0430 0.5124
H69 H 0.4434 -0.0836 0.5326
C60 C 0.4251(4) 0.3625(2) 0.66377(11)
H70 H 0.4681 0.4288 0.6466
H71 H 0.4982 0.3433 0.6951
H72 H 0.3179 0.3814 0.6733
loop_
_geom_bond_atom_site_label_1
_geom_bond_atom_site_label_2
_geom_bond_site_symmetry_1
_geom_bond_site_symmetry_2
O1 H1 1_555 1_555
O2 C12 1_555 1_555
C1 C2 1_555 1_555
C2 H2 1_555 1_555
C3 C2 1_555 1_555
H3 C3 1_555 1_555
C4 C3 1_555 1_555
C5 C4 1_555 1_555
C6 C5 1_555 1_555
H4 C6 1_555 1_555
H5 C6 1_555 1_555
C7 C6 1_555 1_555
H6 C7 1_555 1_555
C8 C7 1_555 1_555
H7 C8 1_555 1_555
H8 C8 1_555 1_555
C9 C8 1_555 1_555
H9 C9 1_555 1_555
H10 C9 1_555 1_555
C10 C1 1_555 1_555
C11 C7 1_555 1_555
C12 O1 1_555 1_555
C13 C11 1_555 1_555
H11 C13 1_555 1_555
H12 C13 1_555 1_555
C14 C1 1_555 1_555
H13 C14 1_555 1_555
H14 C14 1_555 1_555
H15 C14 1_555 1_555
C15 C4 1_555 1_555
H16 C15 1_555 1_555
H17 C15 1_555 1_555
H18 C15 1_555 1_555
O3 H19 1_555 1_555
O4 C27 1_555 1_555
C16 C17 1_555 1_555
C17 H20 1_555 1_555
C18 C17 1_555 1_555
H21 C18 1_555 1_555
C19 C18 1_555 1_555
C20 C19 1_555 1_555
C21 C20 1_555 1_555
H22 C21 1_555 1_555
H23 C21 1_555 1_555
C22 C21 1_555 1_555
H24 C22 1_555 1_555
C23 C22 1_555 1_555
H25 C23 1_555 1_555
H26 C23 1_555 1_555
C24 C23 1_555 1_555
H27 C24 1_555 1_555
H28 C24 1_555 1_555
C25 C16 1_555 1_555
C26 C22 1_555 1_555
C27 O3 1_555 1_555
C28 C26 1_555 1_555
H29 C28 1_555 1_555
H30 C28 1_555 1_555
C29 C16 1_555 1_555
H31 C29 1_555 1_555
H32 C29 1_555 1_555
H33 C29 1_555 1_555
C30 C19 1_555 1_555
H34 C30 1_555 1_555
H35 C30 1_555 1_555
H36 C30 1_555 1_555
O5 H37 1_555 1_555
O6 C42 1_555 1_555
C31 C32 1_555 1_555
C32 H38 1_555 1_555
C33 C32 1_555 1_555
H39 C33 1_555 1_555
C34 C33 1_555 1_555
C35 C34 1_555 1_555
C36 C35 1_555 1_555
H40 C36 1_555 1_555
H41 C36 1_555 1_555
C37 C36 1_555 1_555
H42 C37 1_555 1_555
C38 C37 1_555 1_555
H43 C38 1_555 1_555
H44 C38 1_555 1_555
C39 C38 1_555 1_555
H45 C39 1_555 1_555
H46 C39 1_555 1_555
C40 C31 1_555 1_555
C41 C37 1_555 1_555
C42 O5 1_555 1_555
C43 C41 1_555 1_555
H47 C43 1_555 1_555
H48 C43 1_555 1_555
C44 C31 1_555 1_555
H49 C44 1_555 1_555
H50 C44 1_555 1_555
H51 C44 1_555 1_555
C45 C34 1_555 1_555
H52 C45 1_555 1_555
H53 C45 1_555 1_555
H54 C45 1_555 1_555
O7 H55 1_555 1_555
O8 C57 1_555 1_555
C46 C47 1_555 1_555
C47 H56 1_555 1_555
C48 C47 1_555 1_555
H57 C48 1_555 1_555
C49 C48 1_555 1_555
C50 C49 1_555 1_555
C51 C50 1_555 1_555
H58 C51 1_555 1_555
H59 C51 1_555 1_555
C52 C51 1_555 1_555
H60 C52 1_555 1_555
C53 C52 1_555 1_555
H61 C53 1_555 1_555
H62 C53 1_555 1_555
C54 C53 1_555 1_555
H63 C54 1_555 1_555
H64 C54 1_555 1_555
C55 C46 1_555 1_555
C56 C52 1_555 1_555
C57 O7 1_555 1_555
C58 C56 1_555 1_555
H65 C58 1_555 1_555
H66 C58 1_555 1_555
C59 C46 1_555 1_555
H67 C59 1_555 1_555
H68 C59 1_555 1_555
H69 C59 1_555 1_555
C60 C49 1_555 1_555
H70 C60 1_555 1_555
H71 C60 1_555 1_555
H72 C60 1_555 1_555
C5 C10 1_555 1_555
C9 C10 1_555 1_555
C11 C12 1_555 1_555
C20 C25 1_555 1_555
C24 C25 1_555 1_555
C26 C27 1_555 1_555
C35 C40 1_555 1_555
C39 C40 1_555 1_555
C41 C42 1_555 1_555
C50 C55 1_555 1_555
C54 C55 1_555 1_555
C56 C57 1_555 1_555

#END
