
#######################################################################
#
#                 Cambridge Crystallographic Data Centre
#                                CCDC 
#
#######################################################################
#
# If this CIF has been generated from an entry in the Cambridge 
# Structural Database, then it will include bibliographic, chemical, 
# crystal, experimental, refinement or atomic coordinate data resulting 
# from the CCDC's data processing and validation procedures.
#
#######################################################################

data_EFEPUB
_chemical_formula_moiety         'C18 H21 N1 O3 S1'
_chemical_name_systematic        
(Z)-4a-Methyl-2-p-toluenesulfonyl-1,2,6,7-tetrahydro-4aH-cyclohepta(c)pyridin-5(9aH)-one
_symmetry_cell_setting           monoclinic
_symmetry_space_group_name_H-M   'P 21/n'
_symmetry_Int_Tables_number      14
_space_group_name_Hall           '-P 2yn'
loop_
_symmetry_equiv_pos_site_id
_symmetry_equiv_pos_as_xyz
1 x,y,z
2 1/2-x,1/2+y,1/2-z
3 -x,-y,-z
4 1/2+x,1/2-y,1/2+z
_cell_length_a                   11.3868(4)
_cell_length_b                   6.1113(3)
_cell_length_c                   24.1245(8)
_cell_angle_alpha                90
_cell_angle_beta                 90.597(2)
_cell_angle_gamma                90
_cell_volume                     1678.69
_exptl_crystal_colour            yellow
_exptl_crystal_description       block
_cell_formula_units_Z            4
loop_
_atom_site_label
_atom_site_type_symbol
_atom_site_fract_x
_atom_site_fract_y
_atom_site_fract_z
S1 S 0.76070(6) 0.62732(11) 0.12574(2)
O1 O 0.73805(17) 0.3983(3) 0.12716(7)
O2 O 0.87370(14) 0.7112(3) 0.14076(7)
O3 O 0.69888(16) 0.6242(4) -0.13747(7)
N1 N 0.73732(17) 0.7029(3) 0.06145(7)
C1 C 0.6562(2) 0.7632(4) 0.16630(8)
C2 C 0.5460(2) 0.6713(4) 0.17407(9)
H1 H 0.5277 0.5356 0.1588
C3 C 0.4638(2) 0.7842(5) 0.20473(9)
H2 H 0.3900 0.7228 0.2100
C4 C 0.4890(2) 0.9862(4) 0.22771(8)
C5 C 0.3987(2) 1.1137(5) 0.25968(10)
H3 H 0.3631 1.2211 0.2358
H4 H 0.4361 1.1854 0.2905
H5 H 0.3395 1.0156 0.2730
C6 C 0.5997(2) 1.0721(4) 0.21976(9)
H6 H 0.6185 1.2070 0.2353
C7 C 0.6830(2) 0.9631(4) 0.18929(9)
H7 H 0.7569 1.0243 0.1843
C8 C 0.6634(2) 0.5833(4) 0.02536(10)
H8 H 0.6260 0.4592 0.0388
C9 C 0.64531(19) 0.6403(4) -0.02663(10)
H9 H 0.5948 0.5546 -0.0480
C10 C 0.70091(19) 0.8343(4) -0.05354(9)
C11 C 0.7428(2) 0.7725(5) -0.11216(9)
C12 C 0.8385(2) 0.9106(5) -0.13646(10)
H10 H 0.8372 1.0556 -0.1202
H11 H 0.8264 0.9250 -0.1762
C13 C 0.9567(2) 0.8014(5) -0.12458(11)
H12 H 0.9627 0.6718 -0.1476
H13 H 1.0186 0.9009 -0.1355
C14 C 0.9772(2) 0.7374(4) -0.06617(10)
H14 H 1.0442 0.6537 -0.0597
C15 C 0.91441(19) 0.7819(4) -0.02187(9)
H15 H 0.9419 0.7206 0.0111
C16 C 0.80499(18) 0.9172(4) -0.01707(8)
H16 H 0.8237 1.0667 -0.0287
C17 C 0.7666(2) 0.9252(4) 0.04365(8)
H17 H 0.8296 0.9834 0.0667
H18 H 0.6987 1.0198 0.0473
C18 C 0.6095(2) 1.0194(5) -0.06361(12)
H19 H 0.5439 0.9623 -0.0843
H20 H 0.6453 1.1358 -0.0842
H21 H 0.5830 1.0744 -0.0286
loop_
_geom_bond_atom_site_label_1
_geom_bond_atom_site_label_2
_geom_bond_site_symmetry_1
_geom_bond_site_symmetry_2
S1 O1 1_555 1_555
O2 S1 1_555 1_555
O3 C11 1_555 1_555
N1 S1 1_555 1_555
C1 S1 1_555 1_555
C2 C1 1_555 1_555
H1 C2 1_555 1_555
C3 C2 1_555 1_555
H2 C3 1_555 1_555
C4 C3 1_555 1_555
C5 C4 1_555 1_555
H3 C5 1_555 1_555
H4 C5 1_555 1_555
H5 C5 1_555 1_555
C6 C4 1_555 1_555
H6 C6 1_555 1_555
C7 C1 1_555 1_555
H7 C7 1_555 1_555
C8 N1 1_555 1_555
H8 C8 1_555 1_555
C9 C8 1_555 1_555
H9 C9 1_555 1_555
C10 C9 1_555 1_555
C11 C10 1_555 1_555
C12 C11 1_555 1_555
H10 C12 1_555 1_555
H11 C12 1_555 1_555
C13 C12 1_555 1_555
H12 C13 1_555 1_555
H13 C13 1_555 1_555
C14 C13 1_555 1_555
H14 C14 1_555 1_555
C15 C14 1_555 1_555
H15 C15 1_555 1_555
C16 C10 1_555 1_555
H16 C16 1_555 1_555
C17 N1 1_555 1_555
H17 C17 1_555 1_555
H18 C17 1_555 1_555
C18 C10 1_555 1_555
H19 C18 1_555 1_555
H20 C18 1_555 1_555
H21 C18 1_555 1_555
C6 C7 1_555 1_555
C15 C16 1_555 1_555
C16 C17 1_555 1_555

#END
