
#######################################################################
#
#                 Cambridge Crystallographic Data Centre
#                                CCDC 
#
#######################################################################
#
# If this CIF has been generated from an entry in the Cambridge 
# Structural Database, then it will include bibliographic, chemical, 
# crystal, experimental, refinement or atomic coordinate data resulting 
# from the CCDC's data processing and validation procedures.
#
#######################################################################

data_EFEPUC
_chemical_compound_source        'Inula wissmanniana, whole plant'
_chemical_name_common            
(4E,6R,7S,9S,10R)-9-angeloyloxygermacra-4,11(13)-dien-12,6-olide
_chemical_formula_moiety         'C20 H28 O4'
_chemical_name_systematic        
'6,10-dimethyl-3-methylene-2-oxo-2,3,3a,4,5,6,7,8,9,11a-decahydrocyclodeca[b]furan-5-yl 2-methylbut-2-enoate'
_chemical_properties_biological  
'Exhibited moderate inhibition against lipopolysaccharide-induced nitric oxide production in RAW264.7  macrophages (IC50 value 5.09  M) and strong cytotoxicity in HepG2, PC-3, and MGC-803 tumor cells'
_symmetry_cell_setting           orthorhombic
_symmetry_space_group_name_H-M   'P 21 21 21'
_symmetry_Int_Tables_number      19
_space_group_name_Hall           'P 2ac 2ab'
loop_
_symmetry_equiv_pos_site_id
_symmetry_equiv_pos_as_xyz
1 x,y,z
2 1/2+x,1/2-y,-z
3 -x,1/2+y,1/2-z
4 1/2-x,-y,1/2+z
_cell_length_a                   11.9746(5)
_cell_length_b                   12.3428(5)
_cell_length_c                   12.4853(5)
_cell_angle_alpha                90
_cell_angle_beta                 90
_cell_angle_gamma                90
_cell_volume                     1845.33
_exptl_crystal_colour            colorless
_exptl_crystal_description       block
_cell_formula_units_Z            4
loop_
_atom_site_label
_atom_site_type_symbol
_atom_site_fract_x
_atom_site_fract_y
_atom_site_fract_z
O1 O 0.86721(8) 0.53715(7) 0.74058(7)
O2 O 0.73713(9) 0.51241(10) 0.86657(9)
O3 O 0.97681(8) 0.11586(7) 0.50321(7)
O4 O 0.87253(8) 0.02723(8) 0.62438(8)
C1 C 1.06668(12) 0.30692(11) 0.40945(11)
H1 H 1.1019 0.3086 0.4794
H2 H 1.0968 0.2450 0.3713
C2 C 1.10072(12) 0.40983(12) 0.34887(11)
H3 H 1.0695 0.4058 0.2773
H4 H 1.1814 0.4097 0.3416
C3 C 1.06542(13) 0.51976(12) 0.39875(11)
H5 H 1.1173 0.5756 0.3760
H6 H 0.9918 0.5392 0.3727
C4 C 1.06330(11) 0.51521(10) 0.51975(10)
C5 C 0.96402(11) 0.51437(10) 0.56826(11)
H7 H 0.9045 0.5456 0.5316
C6 C 0.94028(10) 0.46810(10) 0.67541(10)
H8 H 1.0104 0.4544 0.7136
C7 C 0.87452(10) 0.36134(10) 0.66253(10)
H9 H 0.8216 0.3720 0.6036
C8 C 0.94746(11) 0.26333(10) 0.63291(10)
H10 H 1.0253 0.2852 0.6320
H11 H 0.9388 0.2076 0.6871
C9 C 0.91606(11) 0.21664(10) 0.52327(10)
H12 H 0.8360 0.2002 0.5238
C10 C 0.94067(11) 0.28810(10) 0.42569(10)
H13 H 0.9063 0.3589 0.4388
C11 C 0.80786(11) 0.35965(11) 0.76432(11)
C12 C 0.79716(11) 0.47469(12) 0.79907(11)
C13 C 0.76308(14) 0.27883(14) 0.81813(13)
H14 H 0.7229 0.2925 0.8804
H15 H 0.7716 0.2081 0.7938
C14 C 0.88650(14) 0.24089(13) 0.32521(11)
H16 H 0.9137 0.1687 0.3137
H17 H 0.9049 0.2852 0.2645
H18 H 0.8069 0.2391 0.3343
C15 C 1.17401(11) 0.50238(13) 0.57540(12)
H19 H 1.1628 0.5031 0.6515
H20 H 1.2224 0.5610 0.5555
H21 H 1.2074 0.4348 0.5546
C16 C 1.09615(14) -0.05108(15) 0.43103(14)
H22 H 1.1324 -0.1184 0.4145
H23 H 1.1492 -0.0022 0.4625
H24 H 1.0668 -0.0198 0.3665
C17 C 0.94249(11) 0.02602(11) 0.55390(10)
C18 C 1.00037(13) -0.07157(12) 0.51029(12)
C19 C 0.96812(15) -0.17100(12) 0.53662(15)
H25 H 1.0088 -0.2266 0.5050
C20 C 0.87792(16) -0.20626(13) 0.60817(14)
H26 H 0.8388 -0.1440 0.6349
H27 H 0.9090 -0.2462 0.6671
H28 H 0.8270 -0.2517 0.5693
loop_
_geom_bond_atom_site_label_1
_geom_bond_atom_site_label_2
_geom_bond_site_symmetry_1
_geom_bond_site_symmetry_2
O1 C6 1_555 1_555
O2 C12 1_555 1_555
O3 C9 1_555 1_555
O4 C17 1_555 1_555
C1 H1 1_555 1_555
H2 C1 1_555 1_555
C2 C1 1_555 1_555
H3 C2 1_555 1_555
H4 C2 1_555 1_555
C3 C2 1_555 1_555
H5 C3 1_555 1_555
H6 C3 1_555 1_555
C4 C3 1_555 1_555
C5 C4 1_555 1_555
H7 C5 1_555 1_555
C6 C5 1_555 1_555
H8 C6 1_555 1_555
C7 C6 1_555 1_555
H9 C7 1_555 1_555
C8 C7 1_555 1_555
H10 C8 1_555 1_555
H11 C8 1_555 1_555
C9 C8 1_555 1_555
H12 C9 1_555 1_555
C10 C1 1_555 1_555
H13 C10 1_555 1_555
C11 C7 1_555 1_555
C12 O1 1_555 1_555
C13 C11 1_555 1_555
H14 C13 1_555 1_555
H15 C13 1_555 1_555
C14 C10 1_555 1_555
H16 C14 1_555 1_555
H17 C14 1_555 1_555
H18 C14 1_555 1_555
C15 C4 1_555 1_555
H19 C15 1_555 1_555
H20 C15 1_555 1_555
H21 C15 1_555 1_555
C16 H22 1_555 1_555
H23 C16 1_555 1_555
H24 C16 1_555 1_555
C17 O3 1_555 1_555
C18 C16 1_555 1_555
C19 C18 1_555 1_555
H25 C19 1_555 1_555
C20 C19 1_555 1_555
H26 C20 1_555 1_555
H27 C20 1_555 1_555
H28 C20 1_555 1_555
C9 C10 1_555 1_555
C11 C12 1_555 1_555
C17 C18 1_555 1_555

#END
