
#######################################################################
#
#                 Cambridge Crystallographic Data Centre
#                                CCDC 
#
#######################################################################
#
# If this CIF has been generated from an entry in the Cambridge 
# Structural Database, then it will include bibliographic, chemical, 
# crystal, experimental, refinement or atomic coordinate data resulting 
# from the CCDC's data processing and validation procedures.
#
#######################################################################

data_EFERUE
_chemical_formula_moiety         'C36 H30 N4 O2'
_chemical_name_systematic        
1,1''-dibenzyl-2,2''-dioxo-1,1'',2,2'',5',6',7',7a'-octahydro-1'H-dispiro[indole-3,2'-pyrrolizine-3',3''-indole]-1'-carbonitrile
_symmetry_cell_setting           monoclinic
_symmetry_space_group_name_H-M   'P 21/c'
_symmetry_Int_Tables_number      14
_space_group_name_Hall           '-P 2ybc'
loop_
_symmetry_equiv_pos_site_id
_symmetry_equiv_pos_as_xyz
1 x,y,z
2 -x,1/2+y,1/2-z
3 -x,-y,-z
4 x,1/2-y,1/2+z
_cell_length_a                   8.9103(6)
_cell_length_b                   19.7805(13)
_cell_length_c                   16.4772(11)
_cell_angle_alpha                90
_cell_angle_beta                 100.8970(10)
_cell_angle_gamma                90
_cell_volume                     2851.74
_exptl_crystal_colour            yellow
_exptl_crystal_description       prismatic
_cell_formula_units_Z            4
loop_
_atom_site_label
_atom_site_type_symbol
_atom_site_fract_x
_atom_site_fract_y
_atom_site_fract_z
N1 N -0.0961(2) 0.77626(10) 0.08263(10)
N2 N 0.15930(18) 0.73534(9) 0.35244(9)
N3 N 0.02618(18) 0.61345(10) 0.11293(10)
N4 N -0.1844(4) 0.54695(16) 0.34451(19)
O1 O -0.25529(17) 0.68883(9) 0.09919(9)
O2 O 0.29509(16) 0.65223(8) 0.30238(9)
C1 C -0.1288(2) 0.71364(13) 0.10946(12)
C2 C 0.0227(2) 0.68005(11) 0.15164(11)
C3 C 0.1397(2) 0.73168(12) 0.13511(12)
C4 C 0.0624(3) 0.78739(12) 0.09760(12)
C5 C 0.1366(3) 0.84505(14) 0.07777(15)
H1 H 0.0827 0.8825 0.0537
C6 C 0.2956(3) 0.84405(16) 0.09574(16)
H2 H 0.3496 0.8819 0.0839
C7 C 0.3740(3) 0.78863(15) 0.13033(15)
H3 H 0.4802 0.7889 0.1404
C8 C 0.2981(2) 0.73229(13) 0.15061(13)
H4 H 0.3527 0.6950 0.1745
C9 C 0.1761(2) 0.68247(11) 0.30269(12)
C10 C 0.0203(2) 0.66638(11) 0.24867(12)
C11 C -0.0844(2) 0.71148(11) 0.28744(12)
C12 C 0.0049(2) 0.75218(11) 0.34657(12)
C13 C -0.0563(3) 0.79885(12) 0.39314(14)
H5 H 0.0054 0.8266 0.4310
C14 C -0.2145(3) 0.80237(15) 0.38075(17)
H6 H -0.2601 0.8335 0.4108
C15 C -0.3049(3) 0.76107(17) 0.32527(16)
H7 H -0.4107 0.7640 0.3191
C16 C -0.2415(2) 0.71507(14) 0.27823(14)
H8 H -0.3037 0.6870 0.2410
C17 C 0.1753(3) 0.58094(13) 0.11291(15)
H9 H 0.2449 0.5884 0.1649
H10 H 0.2214 0.5980 0.0682
C18 C 0.1353(3) 0.50661(14) 0.10074(16)
H11 H 0.2186 0.4785 0.1286
H12 H 0.1144 0.4952 0.0424
C19 C -0.0064(3) 0.49641(13) 0.13814(16)
H13 H 0.0172 0.4694 0.1880
H14 H -0.0861 0.4739 0.0992
C20 C -0.0570(3) 0.56742(12) 0.15773(13)
H15 H -0.1676 0.5729 0.1398
C21 C -0.0057(3) 0.58901(12) 0.24909(13)
H16 H 0.0943 0.5682 0.2689
C22 C -0.1053(4) 0.56628(14) 0.30341(17)
C23 C -0.2088(3) 0.82035(13) 0.03316(14)
H17 H -0.3005 0.7943 0.0129
H18 H -0.1688 0.8359 -0.0144
C24 C -0.2510(2) 0.88101(13) 0.07943(13)
C25 C -0.2864(4) 0.94120(17) 0.04076(19)
H19 H -0.2760 0.9463 -0.0140
C26 C -0.3380(4) 0.99526(17) 0.0818(2)
H20 H -0.3583 1.0365 0.0550
C27 C -0.3589(3) 0.98834(16) 0.1601(2)
H21 H -0.3975 1.0238 0.1870
C28 C -0.3228(3) 0.92939(16) 0.19853(18)
H22 H -0.3362 0.9243 0.2528
C29 C -0.2664(3) 0.87598(13) 0.15992(15)
H23 H -0.2385 0.8362 0.1890
C30 C 0.2836(3) 0.76157(12) 0.41397(12)
H24 H 0.3693 0.7306 0.4189
H25 H 0.2512 0.7626 0.4669
C31 C 0.3369(2) 0.83068(11) 0.39610(12)
C32 C 0.2911(3) 0.86307(12) 0.32127(14)
H26 H 0.2220 0.8419 0.2797
C33 C 0.3459(3) 0.92584(14) 0.30745(19)
H27 H 0.3140 0.9470 0.2567
C34 C 0.4473(3) 0.95734(14) 0.3680(2)
H28 H 0.4832 1.0003 0.3591
C35 C 0.4961(3) 0.92536(16) 0.4420(2)
H29 H 0.5670 0.9464 0.4828
C36 C 0.4414(2) 0.86262(13) 0.45665(15)
H30 H 0.4746 0.8416 0.5073
loop_
_geom_bond_atom_site_label_1
_geom_bond_atom_site_label_2
_geom_bond_site_symmetry_1
_geom_bond_site_symmetry_2
N1 C1 1_555 1_555
N2 C9 1_555 1_555
N3 C2 1_555 1_555
N4 C22 1_555 1_555
O1 C1 1_555 1_555
O2 C9 1_555 1_555
C1 C2 1_555 1_555
C2 C3 1_555 1_555
C3 C4 1_555 1_555
C4 N1 1_555 1_555
C5 C4 1_555 1_555
H1 C5 1_555 1_555
C6 C5 1_555 1_555
H2 C6 1_555 1_555
C7 C6 1_555 1_555
H3 C7 1_555 1_555
C8 C3 1_555 1_555
H4 C8 1_555 1_555
C9 C10 1_555 1_555
C10 C2 1_555 1_555
C11 C10 1_555 1_555
C12 N2 1_555 1_555
C13 C12 1_555 1_555
H5 C13 1_555 1_555
C14 C13 1_555 1_555
H6 C14 1_555 1_555
C15 C14 1_555 1_555
H7 C15 1_555 1_555
C16 C11 1_555 1_555
H8 C16 1_555 1_555
C17 N3 1_555 1_555
H9 C17 1_555 1_555
H10 C17 1_555 1_555
C18 C17 1_555 1_555
H11 C18 1_555 1_555
H12 C18 1_555 1_555
C19 C18 1_555 1_555
H13 C19 1_555 1_555
H14 C19 1_555 1_555
C20 N3 1_555 1_555
H15 C20 1_555 1_555
C21 C10 1_555 1_555
H16 C21 1_555 1_555
C22 C21 1_555 1_555
C23 N1 1_555 1_555
H17 C23 1_555 1_555
H18 C23 1_555 1_555
C24 C23 1_555 1_555
C25 C24 1_555 1_555
H19 C25 1_555 1_555
C26 C25 1_555 1_555
H20 C26 1_555 1_555
C27 C26 1_555 1_555
H21 C27 1_555 1_555
C28 C27 1_555 1_555
H22 C28 1_555 1_555
C29 C24 1_555 1_555
H23 C29 1_555 1_555
C30 N2 1_555 1_555
H24 C30 1_555 1_555
H25 C30 1_555 1_555
C31 C30 1_555 1_555
C32 C31 1_555 1_555
H26 C32 1_555 1_555
C33 C32 1_555 1_555
H27 C33 1_555 1_555
C34 C33 1_555 1_555
H28 C34 1_555 1_555
C35 C34 1_555 1_555
H29 C35 1_555 1_555
C36 C31 1_555 1_555
H30 C36 1_555 1_555
C7 C8 1_555 1_555
C11 C12 1_555 1_555
C15 C16 1_555 1_555
C19 C20 1_555 1_555
C20 C21 1_555 1_555
C28 C29 1_555 1_555
C35 C36 1_555 1_555

#END
