
#######################################################################
#
#                 Cambridge Crystallographic Data Centre
#                                CCDC 
#
#######################################################################
#
# If this CIF has been generated from an entry in the Cambridge 
# Structural Database, then it will include bibliographic, chemical, 
# crystal, experimental, refinement or atomic coordinate data resulting 
# from the CCDC's data processing and validation procedures.
#
#######################################################################

data_EFERIR
_chemical_formula_moiety         'C38 H44 N4 O5,3(C1 H4 O1)'
_chemical_name_systematic        
'5,10,10,15,20,20-Hexamethyl-5,15-((furan-2,5-diyl)-bis(carbonyloxypropyl))calix(4)pyrrole methanol solvate'
_symmetry_cell_setting           monoclinic
_symmetry_space_group_name_H-M   'P 21/n'
_symmetry_Int_Tables_number      14
_space_group_name_Hall           '-P 2yn'
loop_
_symmetry_equiv_pos_site_id
_symmetry_equiv_pos_as_xyz
1 x,y,z
2 1/2-x,1/2+y,1/2-z
3 -x,-y,-z
4 1/2+x,1/2-y,1/2+z
_cell_length_a                   21.1499(3)
_cell_length_b                   10.2616(2)
_cell_length_c                   35.8526(7)
_cell_angle_alpha                90
_cell_angle_beta                 92.105(1)
_cell_angle_gamma                90
_cell_volume                     7775.9
_exptl_crystal_colour            colorless
_exptl_crystal_description       prisms
_cell_formula_units_Z            8
_exptl_crystal_recrystallization_method methanol
loop_
_atom_site_label
_atom_site_type_symbol
_atom_site_fract_x
_atom_site_fract_y
_atom_site_fract_z
O6 O 0.29467(7) 0.17224(14) 0.53079(4)
H45 H 0.3329 0.1634 0.5256
C81 C 0.28008(12) 0.3085(2) 0.53398(7)
H100 H 0.2475 0.3314 0.5158
H101 H 0.3171 0.3603 0.5303
H102 H 0.2659 0.3255 0.5586
O7 O 0.53011(8) 0.46039(15) 0.68964(4)
H46 H 0.5404 0.4524 0.6673
C82 C 0.51539(12) 0.3342(2) 0.70460(8)
H103 H 0.5534 0.2868 0.7108
H104 H 0.4895 0.2859 0.6869
H105 H 0.4914 0.3472 0.7265
O8 O 0.09767(7) -0.03254(16) 0.54595(5)
H47 H 0.1309 -0.0738 0.5416
C83 C 0.04485(12) -0.1168(3) 0.54137(8)
H106 H 0.0455 -0.1584 0.5174
H107 H 0.0066 -0.0674 0.5432
H108 H 0.0458 -0.1817 0.5607
O9 O 0.44233(8) 0.53852(16) 0.60900(4)
O10 O 0.43455(9) 0.5087(2) 0.54686(5)
O11 O 0.57150(8) 0.52939(16) 0.60739(4)
N5 N 0.56315(9) 0.43000(18) 0.80026(5)
H48 H 0.5499 0.5110 0.8022
N6 N 0.41114(8) 0.46079(18) 0.77401(5)
H49 H 0.4328 0.5326 0.7786
N7 N 0.44790(8) 0.68531(17) 0.71393(5)
H50 H 0.4709 0.6205 0.7058
N8 N 0.59541(8) 0.65421(18) 0.73924(5)
H51 H 0.5773 0.5971 0.7240
C39 C 0.61921(11) 0.3933(2) 0.78506(6)
C40 C 0.62218(12) 0.2609(2) 0.78746(7)
H52 H 0.6556 0.2076 0.7792
C41 C 0.56659(12) 0.2164(2) 0.80443(7)
H53 H 0.5564 0.1282 0.8095
C42 C 0.53038(11) 0.3216(2) 0.81215(6)
C43 C 0.46501(11) 0.3312(2) 0.82730(6)
C44 C 0.41670(10) 0.3468(2) 0.79477(6)
C45 C 0.37524(11) 0.2596(2) 0.77863(7)
H54 H 0.3683 0.1730 0.7869
C46 C 0.34441(12) 0.3203(2) 0.74748(7)
H55 H 0.3137 0.2811 0.7311
C47 C 0.36655(10) 0.4452(2) 0.74513(6)
C48 C 0.34915(10) 0.5496(2) 0.71670(6)
C49 C 0.38556(11) 0.6747(2) 0.72327(6)
C50 C 0.36750(11) 0.7966(2) 0.73484(6)
H56 H 0.3269 0.8201 0.7431
C51 C 0.41991(12) 0.8802(2) 0.73218(6)
H57 H 0.4207 0.9702 0.7385
C52 C 0.46950(11) 0.8107(2) 0.71901(6)
C53 C 0.53657(11) 0.8486(2) 0.71077(6)
C54 C 0.58273(11) 0.7860(2) 0.73903(6)
C55 C 0.61891(12) 0.8387(2) 0.76726(7)
H58 H 0.6199 0.9279 0.7743
C56 C 0.65493(12) 0.7370(3) 0.78429(7)
H59 H 0.6844 0.7463 0.8047
C57 C 0.64013(11) 0.6244(2) 0.76648(7)
C58 C 0.66691(10) 0.4888(2) 0.77048(6)
C59 C 0.46067(11) 0.4436(2) 0.85525(6)
H60 H 0.4929 0.4321 0.8753
H61 H 0.4186 0.4440 0.8658
H62 H 0.4678 0.5264 0.8425
C60 C 0.45138(12) 0.2033(2) 0.84782(7)
H63 H 0.4534 0.1302 0.8303
H64 H 0.4091 0.2072 0.8580
H65 H 0.4830 0.1908 0.8682
C61 C 0.72431(11) 0.4937(3) 0.79840(7)
H66 H 0.7558 0.5550 0.7893
H67 H 0.7432 0.4068 0.8007
H68 H 0.7104 0.5225 0.8228
C62 C 0.54280(12) 0.9968(2) 0.71356(7)
H69 H 0.5311 1.0254 0.7385
H70 H 0.5146 1.0379 0.6947
H71 H 0.5866 1.0222 0.7093
C63 C 0.55271(12) 0.8077(2) 0.67105(6)
H72 H 0.5970 0.8287 0.6667
H73 H 0.5253 0.8545 0.6530
H74 H 0.5461 0.7136 0.6681
C64 C 0.27809(10) 0.5772(2) 0.71829(7)
H75 H 0.2681 0.6053 0.7435
H76 H 0.2543 0.4977 0.7119
H77 H 0.2664 0.6461 0.7004
C65 C 0.36441(11) 0.4980(2) 0.67759(6)
H78 H 0.4095 0.4716 0.6779
H79 H 0.3387 0.4190 0.6725
C66 C 0.35250(11) 0.5940(2) 0.64586(6)
H80 H 0.3067 0.6142 0.6440
H81 H 0.3752 0.6761 0.6520
C67 C 0.37306(12) 0.5459(3) 0.60838(7)
H82 H 0.3547 0.4588 0.6031
H83 H 0.3579 0.6063 0.5885
C68 C 0.46668(14) 0.5202(3) 0.57550(7)
C69 C 0.53544(13) 0.5167(2) 0.57515(7)
C70 C 0.57251(14) 0.5037(2) 0.54566(7)
H84 H 0.5588 0.4945 0.5203
C71 C 0.63522(14) 0.5063(2) 0.55965(8)
H85 H 0.6722 0.4983 0.5456
C72 C 0.63287(13) 0.5225(2) 0.59705(8)
C73 C 0.6843(2) 0.5461(4) 0.62641(12)
O12 O 0.73901(14) 0.5345(3) 0.61908(8)
O13 O 0.66408(11) 0.5858(3) 0.65990(6)
C74 C 0.71285(16) 0.6248(3) 0.68798(10)
H86 H 0.6950 0.6905 0.7049
H87 H 0.7487 0.6656 0.6753
C75 C 0.7366(2) 0.5109(4) 0.71045(12)
H88 H 0.7702 0.5422 0.7282
H89 H 0.7563 0.4486 0.6933
C79 C 0.68819(11) 0.4377(2) 0.73240(7)
H94 H 0.7049 0.3485 0.7366
H95 H 0.6497 0.4291 0.7160
O16 O 0.48865(9) 0.69706(16) 0.80287(4)
H96 H 0.5040 0.7362 0.7847
C80 C 0.45824(14) 0.7885(3) 0.82608(7)
H97 H 0.4446 0.7444 0.8480
H98 H 0.4225 0.8260 0.8127
H99 H 0.4868 0.8579 0.8329
O1 O 0.37677(8) 0.12383(15) 0.45143(4)
O2 O 0.46906(8) 0.18686(16) 0.42743(5)
O3 O 0.43307(7) 0.10963(14) 0.52143(4)
O4 O 0.48956(8) 0.08130(16) 0.61619(5)
O5 O 0.40011(7) 0.00943(15) 0.58668(4)
N1 N 0.15071(8) 0.19982(18) 0.59236(5)
H1 H 0.1397 0.1268 0.5810
N2 N 0.11843(8) 0.22611(19) 0.50106(5)
H2 H 0.1161 0.1477 0.5109
N3 N 0.21238(8) -0.01423(18) 0.48801(5)
H3 H 0.2381 0.0410 0.4996
N4 N 0.24384(8) -0.03738(18) 0.57672(5)
H4 H 0.2565 0.0278 0.5629
C1 C 0.19833(10) 0.2113(2) 0.61951(6)
C2 C 0.20071(11) 0.3385(2) 0.62974(6)
H5 H 0.2293 0.3754 0.6479
C3 C 0.15349(11) 0.4071(2) 0.60885(6)
H6 H 0.1446 0.4975 0.6106
C4 C 0.12288(10) 0.3199(2) 0.58556(6)
C5 C 0.07086(11) 0.3422(2) 0.55596(7)
C6 C 0.09709(11) 0.3400(2) 0.51741(7)
C7 C 0.10928(11) 0.4382(3) 0.49322(7)
H7 H 0.0998 0.5276 0.4970
C8 C 0.13821(12) 0.3863(2) 0.46166(7)
H8 H 0.1513 0.4343 0.4406
C9 C 0.14413(11) 0.2550(2) 0.46670(6)
C10 C 0.17210(11) 0.1519(2) 0.44168(6)
C11 C 0.17086(10) 0.0181(2) 0.45900(6)
C12 C 0.13898(12) -0.0930(3) 0.44945(7)
H9 H 0.1068 -0.1007 0.4304
C13 C 0.16191(12) -0.1945(2) 0.47277(7)
H10 H 0.1477 -0.2824 0.4722
C14 C 0.20806(11) -0.1448(2) 0.49629(6)
C15 C 0.25195(11) -0.2083(2) 0.52554(6)
C16 C 0.23712(10) -0.1646(2) 0.56449(6)
C17 C 0.21588(11) -0.2337(2) 0.59404(7)
H11 H 0.2065 -0.3242 0.5941
C18 C 0.21015(11) -0.1480(2) 0.62465(7)
H12 H 0.1963 -0.1708 0.6487
C19 C 0.22810(10) -0.0265(2) 0.61350(6)
C20 C 0.23746(10) 0.0981(2) 0.63526(6)
C21 C 0.01748(11) 0.2412(2) 0.55953(7)
H13 H -0.0167 0.2605 0.5412
H14 H 0.0011 0.2451 0.5847
H15 H 0.0341 0.1537 0.5549
C22 C 0.04230(12) 0.4786(2) 0.56264(7)
H16 H 0.0752 0.5450 0.5603
H17 H 0.0255 0.4822 0.5877
H18 H 0.0081 0.4950 0.5441
C23 C 0.13417(12) 0.1502(3) 0.40385(6)
H19 H 0.1504 0.0809 0.3880
H20 H 0.1387 0.2344 0.3914
H21 H 0.0894 0.1341 0.4082
C24 C 0.24355(12) -0.3562(2) 0.52289(7)
H22 H 0.2731 -0.3989 0.5407
H23 H 0.2521 -0.3852 0.4975
H24 H 0.2001 -0.3793 0.5288
C25 C 0.32087(11) -0.1759(2) 0.51723(7)
H25 H 0.3273 -0.0815 0.5188
H26 H 0.3301 -0.2060 0.4921
H27 H 0.3492 -0.2196 0.5355
C26 C 0.21833(12) 0.0754(2) 0.67584(6)
H28 H 0.1737 0.0497 0.6760
H29 H 0.2245 0.1559 0.6902
H30 H 0.2446 0.0061 0.6871
C27 C 0.24194(11) 0.1904(2) 0.43515(6)
H31 H 0.2421 0.2727 0.4208
H32 H 0.2633 0.2075 0.4597
C28 C 0.28046(11) 0.0884(3) 0.41445(7)
H33 H 0.2761 0.0030 0.4270
H34 H 0.2627 0.0796 0.3886
C29 C 0.34971(11) 0.1221(3) 0.41303(6)
H35 H 0.3718 0.0565 0.3980
H36 H 0.3549 0.2085 0.4013
C30 C 0.43795(12) 0.1586(2) 0.45362(7)
C31 C 0.46496(11) 0.1605(2) 0.49195(7)
C32 C 0.52179(12) 0.2061(2) 0.50398(7)
H37 H 0.5524 0.2468 0.4891
C33 C 0.52768(12) 0.1823(2) 0.54294(7)
H38 H 0.5628 0.2036 0.5591
C34 C 0.47342(11) 0.1234(2) 0.55244(7)
C35 C 0.45551(11) 0.0706(2) 0.58853(7)
C36 C 0.38029(11) -0.0530(2) 0.62106(7)
H39 H 0.4163 -0.1028 0.6322
H40 H 0.3458 -0.1155 0.6149
C37 C 0.35759(11) 0.0431(3) 0.64944(7)
H41 H 0.3946 0.0921 0.6597
H42 H 0.3397 -0.0063 0.6703
C38 C 0.30826(10) 0.1403(2) 0.63511(6)
H43 H 0.3182 0.1634 0.6092
H44 H 0.3130 0.2207 0.6502
C76? C 0.6893(5) 0.5049(13) 0.6151(3)
O14? O 0.7402(4) 0.4809(8) 0.6030(2)
O15? O 0.6828(3) 0.5215(7) 0.65229(19)
C77? C 0.7415(4) 0.5148(9) 0.6758(2)
H90? H 0.7739 0.5723 0.6651
H91? H 0.7580 0.4245 0.6757
C78? C 0.7305(7) 0.5556(13) 0.7154(3)
H92? H 0.7073 0.6393 0.7160
H93? H 0.7711 0.5652 0.7297
loop_
_geom_bond_atom_site_label_1
_geom_bond_atom_site_label_2
_geom_bond_site_symmetry_1
_geom_bond_site_symmetry_2
O1 C29 1_555 1_555
O2 C30 1_555 1_555
O3 C31 1_555 1_555
O4 C35 1_555 1_555
O5 C35 1_555 1_555
N1 H1 1_555 1_555
N2 H2 1_555 1_555
N3 H3 1_555 1_555
N4 H4 1_555 1_555
C1 N1 1_555 1_555
C2 C1 1_555 1_555
H5 C2 1_555 1_555
C3 C2 1_555 1_555
H6 C3 1_555 1_555
C4 N1 1_555 1_555
C5 C4 1_555 1_555
C6 N2 1_555 1_555
C7 C6 1_555 1_555
H7 C7 1_555 1_555
C8 C7 1_555 1_555
H8 C8 1_555 1_555
C9 N2 1_555 1_555
C10 C9 1_555 1_555
C11 N3 1_555 1_555
C12 C11 1_555 1_555
H9 C12 1_555 1_555
C13 C12 1_555 1_555
H10 C13 1_555 1_555
C14 N3 1_555 1_555
C15 C14 1_555 1_555
C16 N4 1_555 1_555
C17 C16 1_555 1_555
H11 C17 1_555 1_555
C18 C17 1_555 1_555
H12 C18 1_555 1_555
C19 N4 1_555 1_555
C20 C1 1_555 1_555
C21 C5 1_555 1_555
H13 C21 1_555 1_555
H14 C21 1_555 1_555
H15 C21 1_555 1_555
C22 C5 1_555 1_555
H16 C22 1_555 1_555
H17 C22 1_555 1_555
H18 C22 1_555 1_555
C23 C10 1_555 1_555
H19 C23 1_555 1_555
H20 C23 1_555 1_555
H21 C23 1_555 1_555
C24 C15 1_555 1_555
H22 C24 1_555 1_555
H23 C24 1_555 1_555
H24 C24 1_555 1_555
C25 C15 1_555 1_555
H25 C25 1_555 1_555
H26 C25 1_555 1_555
H27 C25 1_555 1_555
C26 C20 1_555 1_555
H28 C26 1_555 1_555
H29 C26 1_555 1_555
H30 C26 1_555 1_555
C27 C10 1_555 1_555
H31 C27 1_555 1_555
H32 C27 1_555 1_555
C28 C27 1_555 1_555
H33 C28 1_555 1_555
H34 C28 1_555 1_555
C29 C28 1_555 1_555
H35 C29 1_555 1_555
H36 C29 1_555 1_555
C30 O1 1_555 1_555
C31 C30 1_555 1_555
C32 C31 1_555 1_555
H37 C32 1_555 1_555
C33 C32 1_555 1_555
H38 C33 1_555 1_555
C34 O3 1_555 1_555
C35 C34 1_555 1_555
C36 O5 1_555 1_555
H39 C36 1_555 1_555
H40 C36 1_555 1_555
C37 C36 1_555 1_555
H41 C37 1_555 1_555
H42 C37 1_555 1_555
C38 C20 1_555 1_555
H43 C38 1_555 1_555
H44 C38 1_555 1_555
O6 H45 1_555 1_555
O7 H46 1_555 1_555
O8 H47 1_555 1_555
O9 C67 1_555 1_555
O10 C68 1_555 1_555
O11 C69 1_555 1_555
N5 H48 1_555 1_555
N6 H49 1_555 1_555
N7 H50 1_555 1_555
N8 H51 1_555 1_555
C39 N5 1_555 1_555
C40 C39 1_555 1_555
H52 C40 1_555 1_555
C41 C40 1_555 1_555
H53 C41 1_555 1_555
C42 N5 1_555 1_555
C43 C42 1_555 1_555
C44 N6 1_555 1_555
C45 C44 1_555 1_555
H54 C45 1_555 1_555
C46 C45 1_555 1_555
H55 C46 1_555 1_555
C47 N6 1_555 1_555
C48 C47 1_555 1_555
C49 N7 1_555 1_555
C50 C49 1_555 1_555
H56 C50 1_555 1_555
C51 C50 1_555 1_555
H57 C51 1_555 1_555
C52 N7 1_555 1_555
C53 C52 1_555 1_555
C54 N8 1_555 1_555
C55 C54 1_555 1_555
H58 C55 1_555 1_555
C56 C55 1_555 1_555
H59 C56 1_555 1_555
C57 N8 1_555 1_555
C58 C39 1_555 1_555
C59 C43 1_555 1_555
H60 C59 1_555 1_555
H61 C59 1_555 1_555
H62 C59 1_555 1_555
C60 C43 1_555 1_555
H63 C60 1_555 1_555
H64 C60 1_555 1_555
H65 C60 1_555 1_555
C61 C58 1_555 1_555
H66 C61 1_555 1_555
H67 C61 1_555 1_555
H68 C61 1_555 1_555
C62 C53 1_555 1_555
H69 C62 1_555 1_555
H70 C62 1_555 1_555
H71 C62 1_555 1_555
C63 C53 1_555 1_555
H72 C63 1_555 1_555
H73 C63 1_555 1_555
H74 C63 1_555 1_555
C64 C48 1_555 1_555
H75 C64 1_555 1_555
H76 C64 1_555 1_555
H77 C64 1_555 1_555
C65 C48 1_555 1_555
H78 C65 1_555 1_555
H79 C65 1_555 1_555
C66 C65 1_555 1_555
H80 C66 1_555 1_555
H81 C66 1_555 1_555
C67 C66 1_555 1_555
H82 C67 1_555 1_555
H83 C67 1_555 1_555
C68 O9 1_555 1_555
C69 C68 1_555 1_555
C70 C69 1_555 1_555
H84 C70 1_555 1_555
C71 C70 1_555 1_555
H85 C71 1_555 1_555
C72 O11 1_555 1_555
C73 C72 1_555 1_555
O12 C73 1_555 1_555
O13 C73 1_555 1_555
C74 O13 1_555 1_555
H86 C74 1_555 1_555
H87 C74 1_555 1_555
C75 C74 1_555 1_555
H88 C75 1_555 1_555
H89 C75 1_555 1_555
C79 C58 1_555 1_555
H94 C79 1_555 1_555
H95 C79 1_555 1_555
O16 H96 1_555 1_555
C80 O16 1_555 1_555
H97 C80 1_555 1_555
H98 C80 1_555 1_555
H99 C80 1_555 1_555
C81 O6 1_555 1_555
H100 C81 1_555 1_555
H101 C81 1_555 1_555
H102 C81 1_555 1_555
C82 O7 1_555 1_555
H103 C82 1_555 1_555
H104 C82 1_555 1_555
H105 C82 1_555 1_555
C83 O8 1_555 1_555
H106 C83 1_555 1_555
H107 C83 1_555 1_555
H108 C83 1_555 1_555
C3 C4 1_555 1_555
C5 C6 1_555 1_555
C8 C9 1_555 1_555
C10 C11 1_555 1_555
C13 C14 1_555 1_555
C15 C16 1_555 1_555
C18 C19 1_555 1_555
C19 C20 1_555 1_555
C33 C34 1_555 1_555
C37 C38 1_555 1_555
C41 C42 1_555 1_555
C43 C44 1_555 1_555
C46 C47 1_555 1_555
C48 C49 1_555 1_555
C51 C52 1_555 1_555
C53 C54 1_555 1_555
C56 C57 1_555 1_555
C57 C58 1_555 1_555
C71 C72 1_555 1_555
C75 C79 1_555 1_555

#END
