
#######################################################################
#
#                 Cambridge Crystallographic Data Centre
#                                CCDC 
#
#######################################################################
#
# If this CIF has been generated from an entry in the Cambridge 
# Structural Database, then it will include bibliographic, chemical, 
# crystal, experimental, refinement or atomic coordinate data resulting 
# from the CCDC's data processing and validation procedures.
#
#######################################################################

data_EFETEQ
_chemical_name_common            1,3-bis(1-phenylethyl)urea
_chemical_formula_moiety         'C17 H20 N2 O1'
_chemical_name_systematic        '(S,S) N,N-bis[(S)-1-phenylethyl]urea'
_symmetry_cell_setting           orthorhombic
_symmetry_space_group_name_H-M   'P 2 21 21'
_symmetry_Int_Tables_number      18
_space_group_name_Hall           'P 2bc 2'
loop_
_symmetry_equiv_pos_site_id
_symmetry_equiv_pos_as_xyz
1 x,y,z
2 -x,1/2-y,1/2+z
3 x,-y,-z
4 -x,1/2+y,1/2-z
_cell_length_a                   4.6445(3)
_cell_length_b                   9.7005(7)
_cell_length_c                   16.3497(12)
_cell_angle_alpha                90
_cell_angle_beta                 90
_cell_angle_gamma                90
_cell_volume                     736.619
_exptl_crystal_colour            colorless
_exptl_crystal_description       block
_chemical_melting_point          '381 K'
_cell_formula_units_Z            2
_exptl_crystal_recrystallization_method 'Ethyl acetate and hexane'
loop_
_atom_site_label
_atom_site_type_symbol
_atom_site_fract_x
_atom_site_fract_y
_atom_site_fract_z
O1 O 0.7296(3) 1.0000 1.0000
N1 N 0.3048(2) 1.08922(13) 1.04498(8)
H1 H 0.125(4) 1.0888(17) 1.0376(9)
C1 C 0.3291(3) 1.19833(14) 1.18130(8)
C2 C 0.4422(4) 1.29502(18) 1.23532(9)
H2 H 0.5810 1.3594 1.2163
C3 C 0.3559(4) 1.2988(2) 1.31592(10)
H3 H 0.4368 1.3652 1.3519
C4 C 0.1550(4) 1.2078(2) 1.34463(10)
H4 H 0.0941 1.2115 1.4001
C5 C 0.0423(4) 1.1110(2) 1.29231(11)
H5 H -0.0966 1.0472 1.3119
C6 C 0.1296(4) 1.10531(16) 1.21060(9)
H6 H 0.0515 1.0373 1.1752
C7 C 0.4290(3) 1.20038(13) 1.09272(8)
H7 H 0.6427 1.1878 1.0926
C8 C 0.3638(5) 1.33862(16) 1.05209(10)
H8 H 0.1562 1.3563 1.0542
H9 H 0.4273 1.3361 0.9949
H10 H 0.4662 1.4122 1.0811
C9 C 0.4620(4) 1.0000 1.0000
N1B N 0.3048(2) 0.91078(13) 0.95502(8)
H1B H 0.125(4) 0.9112(17) 0.9624(9)
C1B C 0.3291(3) 0.80167(14) 0.81870(8)
C2B C 0.4422(4) 0.70498(18) 0.76468(9)
H2B H 0.5810 0.6406 0.7837
C3B C 0.3559(4) 0.7012(2) 0.68408(10)
H3B H 0.4368 0.6348 0.6481
C4B C 0.1550(4) 0.7922(2) 0.65537(10)
H4B H 0.0941 0.7885 0.5999
C5B C 0.0423(4) 0.8890(2) 0.70769(11)
H5B H -0.0966 0.9528 0.6881
C6B C 0.1296(4) 0.89469(16) 0.78940(9)
H6B H 0.0515 0.9627 0.8248
C7B C 0.4290(3) 0.79962(13) 0.90728(8)
H7B H 0.6427 0.8122 0.9074
C8B C 0.3638(5) 0.66138(16) 0.94791(10)
H8B H 0.1562 0.6437 0.9458
H9B H 0.4273 0.6639 1.0051
H10B H 0.4662 0.5878 0.9189
loop_
_geom_bond_atom_site_label_1
_geom_bond_atom_site_label_2
_geom_bond_site_symmetry_1
_geom_bond_site_symmetry_2
O1 C9 1_555 1_555
N1 H1 1_555 1_555
C1 C2 1_555 1_555
C2 H2 1_555 1_555
C3 C2 1_555 1_555
H3 C3 1_555 1_555
C4 C3 1_555 1_555
H4 C4 1_555 1_555
C5 C4 1_555 1_555
H5 C5 1_555 1_555
C6 C1 1_555 1_555
H6 C6 1_555 1_555
C7 N1 1_555 1_555
H7 C7 1_555 1_555
C8 C7 1_555 1_555
H8 C8 1_555 1_555
H9 C8 1_555 1_555
H10 C8 1_555 1_555
C9 N1 1_555 1_555
N1B C9 1_555 1_555
H1B N1B 1_555 1_555
C1B C2B 1_555 1_555
C2B H2B 1_555 1_555
C3B C2B 1_555 1_555
H3B C3B 1_555 1_555
C4B C3B 1_555 1_555
H4B C4B 1_555 1_555
C5B C4B 1_555 1_555
H5B C5B 1_555 1_555
C6B C1B 1_555 1_555
H6B C6B 1_555 1_555
C7B N1B 1_555 1_555
H7B C7B 1_555 1_555
C8B C7B 1_555 1_555
H8B C8B 1_555 1_555
H9B C8B 1_555 1_555
H10B C8B 1_555 1_555
C1 C7 1_555 1_555
C5 C6 1_555 1_555
C1B C7B 1_555 1_555
C5B C6B 1_555 1_555

#END
