
#######################################################################
#
#                 Cambridge Crystallographic Data Centre
#                                CCDC 
#
#######################################################################
#
# If this CIF has been generated from an entry in the Cambridge 
# Structural Database, then it will include bibliographic, chemical, 
# crystal, experimental, refinement or atomic coordinate data resulting 
# from the CCDC's data processing and validation procedures.
#
#######################################################################

data_EFETEQ02
_chemical_formula_moiety         'C17 H20 N2 O1'
_chemical_name_systematic        1,3-bis(1-phenylethyl)urea
_symmetry_cell_setting           orthorhombic
_symmetry_space_group_name_H-M   'P 21 21 2'
_symmetry_Int_Tables_number      18
_space_group_name_Hall           'P 2 2ab'
loop_
_symmetry_equiv_pos_site_id
_symmetry_equiv_pos_as_xyz
1 x,y,z
2 -x,-y,z
3 1/2+x,1/2-y,-z
4 1/2-x,1/2+y,-z
_cell_length_a                   9.6546(2)
_cell_length_b                   16.3307(3)
_cell_length_c                   4.61810(10)
_cell_angle_alpha                90
_cell_angle_beta                 90
_cell_angle_gamma                90
_cell_volume                     728.119
_exptl_crystal_colour            colorless
_exptl_crystal_description       Block
_cell_formula_units_Z            2
loop_
_atom_site_label
_atom_site_type_symbol
_atom_site_fract_x
_atom_site_fract_y
_atom_site_fract_z
O1 O 0.5000 0.5000 0.7316(3)
N1 N 0.41165(12) 0.45392(7) 0.3037(3)
H1 H 0.4229 0.4524 0.1147
C1 C 0.29910(14) 0.40679(8) 0.4301(3)
H2 H 0.3125 0.4066 0.6448
C2 C 0.29926(14) 0.31798(9) 0.3285(3)
C3 C 0.39246(16) 0.28807(9) 0.1273(4)
H3 H 0.4613 0.3233 0.0491
C4 C 0.38600(19) 0.20638(10) 0.0383(4)
H4 H 0.4498 0.1865 -0.1016
C5 C 0.28718(19) 0.15428(9) 0.1527(4)
H5 H 0.2826 0.0988 0.0911
C6 C 0.19555(18) 0.18340(10) 0.3565(4)
H6 H 0.1283 0.1477 0.4377
C7 C 0.20079(17) 0.26459(9) 0.4439(4)
H7 H 0.1367 0.2841 0.5839
C8 C 0.16034(16) 0.44839(9) 0.3675(4)
H8 H 0.1632 0.5051 0.4366
H9 H 0.0860 0.4188 0.4672
H10 H 0.1429 0.4479 0.1584
C9 C 0.5000 0.5000 0.4623(4)
N1A N 0.58835(12) 0.54608(7) 0.3037(3)
H1A H 0.5771 0.5476 0.1147
C1A C 0.70090(14) 0.59321(8) 0.4301(3)
H2A H 0.6875 0.5934 0.6448
C2A C 0.70074(14) 0.68202(9) 0.3285(3)
C3A C 0.60754(16) 0.71193(9) 0.1273(4)
H3A H 0.5387 0.6767 0.0491
C4A C 0.61400(19) 0.79362(10) 0.0383(4)
H4A H 0.5502 0.8135 -0.1016
C5A C 0.71282(19) 0.84572(9) 0.1527(4)
H5A H 0.7174 0.9012 0.0911
C6A C 0.80445(18) 0.81660(10) 0.3565(4)
H6A H 0.8717 0.8523 0.4377
C7A C 0.79921(17) 0.73541(9) 0.4439(4)
H7A H 0.8633 0.7159 0.5839
C8A C 0.83966(16) 0.55161(9) 0.3675(4)
H8A H 0.8368 0.4949 0.4366
H9A H 0.9140 0.5812 0.4672
H10A H 0.8571 0.5521 0.1584
loop_
_geom_bond_atom_site_label_1
_geom_bond_atom_site_label_2
_geom_bond_site_symmetry_1
_geom_bond_site_symmetry_2
O1 C9 1_555 1_555
N1 H1 1_555 1_555
C1 N1 1_555 1_555
H2 C1 1_555 1_555
C2 C1 1_555 1_555
C3 C2 1_555 1_555
H3 C3 1_555 1_555
C4 C3 1_555 1_555
H4 C4 1_555 1_555
C5 C4 1_555 1_555
H5 C5 1_555 1_555
C6 C5 1_555 1_555
H6 C6 1_555 1_555
C7 C2 1_555 1_555
H7 C7 1_555 1_555
C8 C1 1_555 1_555
H8 C8 1_555 1_555
H9 C8 1_555 1_555
H10 C8 1_555 1_555
C9 N1 1_555 1_555
N1A C9 1_555 1_555
H1A N1A 1_555 1_555
C1A N1A 1_555 1_555
H2A C1A 1_555 1_555
C2A C1A 1_555 1_555
C3A C2A 1_555 1_555
H3A C3A 1_555 1_555
C4A C3A 1_555 1_555
H4A C4A 1_555 1_555
C5A C4A 1_555 1_555
H5A C5A 1_555 1_555
C6A C5A 1_555 1_555
H6A C6A 1_555 1_555
C7A C2A 1_555 1_555
H7A C7A 1_555 1_555
C8A C1A 1_555 1_555
H8A C8A 1_555 1_555
H9A C8A 1_555 1_555
H10A C8A 1_555 1_555
C6 C7 1_555 1_555
C6A C7A 1_555 1_555

#END
