
#######################################################################
#
#                 Cambridge Crystallographic Data Centre
#                                CCDC 
#
#######################################################################
#
# If this CIF has been generated from an entry in the Cambridge 
# Structural Database, then it will include bibliographic, chemical, 
# crystal, experimental, refinement or atomic coordinate data resulting 
# from the CCDC's data processing and validation procedures.
#
#######################################################################

data_EFEWIX
_chemical_formula_moiety         'C17 H13 F3 O1'
_chemical_name_systematic        4,4-diphenyl-3-(trifluoromethyl)but-3-enal
_symmetry_cell_setting           orthorhombic
_symmetry_space_group_name_H-M   'P 21 21 21'
_symmetry_Int_Tables_number      19
_space_group_name_Hall           'P 2ac 2ab'
loop_
_symmetry_equiv_pos_site_id
_symmetry_equiv_pos_as_xyz
1 x,y,z
2 1/2-x,-y,1/2+z
3 1/2+x,1/2-y,-z
4 -x,1/2+y,1/2-z
_cell_length_a                   9.3939(4)
_cell_length_b                   9.8640(3)
_cell_length_c                   15.5311(7)
_cell_angle_alpha                90
_cell_angle_beta                 90
_cell_angle_gamma                90
_cell_volume                     1439.13
_exptl_crystal_colour            'light colorless'
_exptl_crystal_description       block
_cell_formula_units_Z            4
loop_
_atom_site_label
_atom_site_type_symbol
_atom_site_fract_x
_atom_site_fract_y
_atom_site_fract_z
F1 F -0.6780(3) -0.6699(3) -0.37815(15)
F2 F -0.6043(3) -0.6437(2) -0.50680(16)
F3 F -0.8214(3) -0.6120(2) -0.47638(17)
O1 O -0.5697(3) -0.9587(3) -0.34379(18)
C1 C -0.8626(4) -1.0910(4) -0.6195(2)
H1 H -0.9206 -1.0285 -0.6474
C2 C -0.8847(5) -1.2282(4) -0.6320(3)
H2 H -0.9576 -1.2574 -0.6680
C3 C -0.7994(5) -1.3215(4) -0.5914(3)
H3 H -0.8139 -1.4137 -0.6003
C4 C -0.6935(5) -1.2787(4) -0.5379(3)
H4 H -0.6369 -1.3420 -0.5097
C5 C -0.6695(4) -1.1416(4) -0.5251(2)
H5 H -0.5960 -1.1136 -0.4893
C6 C -0.7547(4) -1.0456(4) -0.56566(19)
C7 C -0.7282(3) -0.8975(3) -0.5539(2)
C8 C -0.6889(4) -0.8265(3) -0.6358(2)
C9 C -0.7750(5) -0.7268(4) -0.6707(2)
H6 H -0.8560 -0.6984 -0.6413
C10 C -0.7406(6) -0.6691(5) -0.7497(3)
H7 H -0.7995 -0.6030 -0.7733
C11 C -0.6208(7) -0.7086(5) -0.7930(3)
H8 H -0.5984 -0.6695 -0.8458
C12 C -0.5341(5) -0.8057(5) -0.7585(3)
H9 H -0.4519 -0.8319 -0.7875
C13 C -0.5688(4) -0.8651(4) -0.6804(2)
H10 H -0.5100 -0.9321 -0.6578
C14 C -0.7434(3) -0.8391(4) -0.4767(2)
C15 C -0.7108(4) -0.6935(4) -0.4605(2)
C16 C -0.8024(4) -0.9130(4) -0.3994(2)
H11 H -0.8691 -0.8535 -0.3704
H12 H -0.8553 -0.9912 -0.4197
C17 C -0.6955(5) -0.9599(4) -0.3356(2)
H13 H -0.7307 -0.9938 -0.2840
loop_
_geom_bond_atom_site_label_1
_geom_bond_atom_site_label_2
_geom_bond_site_symmetry_1
_geom_bond_site_symmetry_2
F1 C15 1_555 1_555
F2 C15 1_555 1_555
F3 C15 1_555 1_555
O1 C17 1_555 1_555
C1 H1 1_555 1_555
C2 C1 1_555 1_555
H2 C2 1_555 1_555
C3 C2 1_555 1_555
H3 C3 1_555 1_555
C4 C3 1_555 1_555
H4 C4 1_555 1_555
C5 C4 1_555 1_555
H5 C5 1_555 1_555
C6 C1 1_555 1_555
C7 C6 1_555 1_555
C8 C7 1_555 1_555
C9 C8 1_555 1_555
H6 C9 1_555 1_555
C10 C9 1_555 1_555
H7 C10 1_555 1_555
C11 C10 1_555 1_555
H8 C11 1_555 1_555
C12 C11 1_555 1_555
H9 C12 1_555 1_555
C13 C8 1_555 1_555
H10 C13 1_555 1_555
C14 C7 1_555 1_555
C15 C14 1_555 1_555
C16 C14 1_555 1_555
H11 C16 1_555 1_555
H12 C16 1_555 1_555
C17 C16 1_555 1_555
H13 C17 1_555 1_555
C5 C6 1_555 1_555
C12 C13 1_555 1_555

#END
