
#######################################################################
#
#                 Cambridge Crystallographic Data Centre
#                                CCDC 
#
#######################################################################
#
# If this CIF has been generated from an entry in the Cambridge 
# Structural Database, then it will include bibliographic, chemical, 
# crystal, experimental, refinement or atomic coordinate data resulting 
# from the CCDC's data processing and validation procedures.
#
#######################################################################

data_EFICOM
_chemical_formula_moiety         'C12 H17 N1 O2'
_chemical_name_systematic        
(5aR*,6S*,9aS*)-9a-Methyl-2-oxodecahydrobenzo(b)oxepine-6-carbonitrile
_symmetry_cell_setting           orthorhombic
_symmetry_space_group_name_H-M   'P n a 21'
_symmetry_Int_Tables_number      33
_space_group_name_Hall           'P 2c -2n'
loop_
_symmetry_equiv_pos_site_id
_symmetry_equiv_pos_as_xyz
1 x,y,z
2 -x,-y,1/2+z
3 1/2+x,1/2-y,z
4 1/2-x,1/2+y,1/2+z
_cell_length_a                   13.3271(15)
_cell_length_b                   8.3365(9)
_cell_length_c                   20.517(2)
_cell_angle_alpha                90
_cell_angle_beta                 90
_cell_angle_gamma                90
_cell_volume                     2279.47
_exptl_crystal_colour            colorless
_exptl_crystal_description       needle
_cell_formula_units_Z            8
loop_
_atom_site_label
_atom_site_type_symbol
_atom_site_fract_x
_atom_site_fract_y
_atom_site_fract_z
O1 O 0.4208(3) 0.7531(3) 1.06208(15)
O2 O 0.42221(17) 0.9400(2) 0.98901(10)
C2 C 0.4789(2) 0.9529(3) 0.87367(13)
H1 H 0.4710 1.0233 0.8357
C5 C 0.4593(3) 0.7833(4) 0.84885(18)
H4 H 0.3920 0.7796 0.8309
H5 H 0.5056 0.7614 0.8135
C6 C 0.4124(3) 0.7841(4) 1.00492(18)
C9 C 0.5877(2) 0.9764(4) 0.89683(15)
H8 H 0.5973 0.9121 0.9363
C10 C 0.4050(2) 1.0157(3) 0.92494(14)
C11 C 0.4693(2) 0.6502(3) 0.89903(18)
H9 H 0.5364 0.6538 0.9173
H10 H 0.4616 0.5478 0.8771
C16 C 0.2955(2) 1.0006(4) 0.90554(18)
H18 H 0.2814 0.8916 0.8936
H19 H 0.2820 1.0698 0.8692
H20 H 0.2537 1.0309 0.9416
C18 C 0.6592(3) 0.9184(5) 0.84690(19)
C19 C 0.3933(2) 0.6591(4) 0.95483(16)
H23 H 0.3274 0.6778 0.9363
H24 H 0.3916 0.5555 0.9763
C20 C 0.4299(3) 1.1913(4) 0.93948(18)
H25 H 0.4193 1.2543 0.9003
H26 H 0.3842 1.2307 0.9726
C21 C 0.5364(4) 1.2152(5) 0.9626(2)
H27 H 0.5457 1.1605 1.0039
H28 H 0.5486 1.3286 0.9695
N2 N 0.7146(3) 0.8752(5) 0.80818(19)
C24 C 0.6114(3) 1.1509(5) 0.9134(2)
H33 H 0.6786 1.1582 0.9313
H34 H 0.6089 1.2154 0.8741
O3 O 0.17500(16) 0.5676(2) 0.08779(10)
O4 O 0.1699(3) 0.7601(2) 0.01672(15)
C1 C 0.1627(3) 0.7234(4) 0.07340(19)
C3 C 0.1593(2) 0.4872(4) 0.15102(15)
C4 C 0.2119(3) 0.7159(4) 0.22945(19)
H2 H 0.1444 0.7180 0.2471
H3 H 0.2577 0.7370 0.2652
C7 C 0.2326(2) 0.5476(3) 0.20380(13)
H6 H 0.2245 0.4752 0.2411
C8 C 0.3419(2) 0.5268(3) 0.18057(15)
H7 H 0.3516 0.5935 0.1418
C12 C 0.2216(2) 0.8511(3) 0.18036(16)
H11 H 0.2882 0.8473 0.1614
H12 H 0.2152 0.9525 0.2032
C13 C 0.1443(3) 0.8462(3) 0.12547(15)
H13 H 0.0788 0.8261 0.1445
H14 H 0.1420 0.9512 0.1051
C14 C 0.4124(3) 0.5814(4) 0.23092(18)
C15 C 0.0492(2) 0.4986(4) 0.17111(17)
H15 H 0.0337 0.6071 0.1831
H16 H 0.0372 0.4291 0.2076
H17 H 0.0074 0.4666 0.1353
C17 C 0.1838(3) 0.3134(4) 0.13410(17)
H21 H 0.1722 0.2468 0.1721
H22 H 0.1389 0.2773 0.0999
C22 C 0.3657(3) 0.3517(4) 0.1621(2)
H29 H 0.4332 0.3450 0.1448
H30 H 0.3622 0.2847 0.2007
C23 C 0.2914(4) 0.2915(5) 0.1116(2)
H31 H 0.3014 0.3495 0.0712
H32 H 0.3037 0.1787 0.1033
N1 N 0.4680(3) 0.6210(5) 0.27009(18)
loop_
_geom_bond_atom_site_label_1
_geom_bond_atom_site_label_2
_geom_bond_site_symmetry_1
_geom_bond_site_symmetry_2
O1 C6 1_555 1_555
O2 C6 1_555 1_555
O3 C1 1_555 1_555
O4 C1 1_555 1_555
C1 C13 1_555 1_555
C2 H1 1_555 1_555
C3 O3 1_555 1_555
C4 H2 1_555 1_555
H3 C4 1_555 1_555
C5 C2 1_555 1_555
H4 C5 1_555 1_555
H5 C5 1_555 1_555
C6 C19 1_555 1_555
C7 C3 1_555 1_555
H6 C7 1_555 1_555
C8 C7 1_555 1_555
H7 C8 1_555 1_555
C9 C2 1_555 1_555
H8 C9 1_555 1_555
C10 O2 1_555 1_555
C11 C5 1_555 1_555
H9 C11 1_555 1_555
H10 C11 1_555 1_555
C12 C4 1_555 1_555
H11 C12 1_555 1_555
H12 C12 1_555 1_555
C13 C12 1_555 1_555
H13 C13 1_555 1_555
H14 C13 1_555 1_555
C14 C8 1_555 1_555
C15 C3 1_555 1_555
H15 C15 1_555 1_555
H16 C15 1_555 1_555
H17 C15 1_555 1_555
C16 C10 1_555 1_555
H18 C16 1_555 1_555
H19 C16 1_555 1_555
H20 C16 1_555 1_555
C17 C3 1_555 1_555
H21 C17 1_555 1_555
H22 C17 1_555 1_555
C18 C9 1_555 1_555
C19 C11 1_555 1_555
H23 C19 1_555 1_555
H24 C19 1_555 1_555
C20 C10 1_555 1_555
H25 C20 1_555 1_555
H26 C20 1_555 1_555
C21 C20 1_555 1_555
H27 C21 1_555 1_555
H28 C21 1_555 1_555
C22 C8 1_555 1_555
H29 C22 1_555 1_555
H30 C22 1_555 1_555
C23 C17 1_555 1_555
H31 C23 1_555 1_555
H32 C23 1_555 1_555
N1 C14 1_555 1_555
N2 C18 1_555 1_555
C24 C9 1_555 1_555
H33 C24 1_555 1_555
H34 C24 1_555 1_555
C2 C10 1_555 1_555
C4 C7 1_555 1_555
C21 C24 1_555 1_555
C22 C23 1_555 1_555

#END
