
#######################################################################
#
#                 Cambridge Crystallographic Data Centre
#                                CCDC 
#
#######################################################################
#
# If this CIF has been generated from an entry in the Cambridge 
# Structural Database, then it will include bibliographic, chemical, 
# crystal, experimental, refinement or atomic coordinate data resulting 
# from the CCDC's data processing and validation procedures.
#
#######################################################################

data_EFICEC
_chemical_formula_moiety         'C21 H24 N2 O4'
_chemical_name_systematic        
'7a-Cyano-octahydro-4-methyl-1-(prop-1-en-2-yl)-1H-inden-4-yl 4-nitrobenzoate'
_symmetry_cell_setting           triclinic
_symmetry_space_group_name_H-M   'P -1'
_symmetry_Int_Tables_number      2
_space_group_name_Hall           '-P 1'
loop_
_symmetry_equiv_pos_site_id
_symmetry_equiv_pos_as_xyz
1 x,y,z
2 -x,-y,-z
_cell_length_a                   7.1608(2)
_cell_length_b                   9.4129(2)
_cell_length_c                   15.5648(3)
_cell_angle_alpha                101.5940(10)
_cell_angle_beta                 99.0660(10)
_cell_angle_gamma                94.4820(10)
_cell_volume                     1008.32
_exptl_crystal_colour            colorless
_exptl_crystal_description       plate
_chemical_melting_point          '376-378 K'
_cell_formula_units_Z            2
loop_
_atom_site_label
_atom_site_type_symbol
_atom_site_fract_x
_atom_site_fract_y
_atom_site_fract_z
O1 O 0.27262(19) 0.66855(16) 0.30083(9)
C1 C 0.1813(3) 0.8986(2) 0.35596(14)
C2 C 0.3947(3) 0.5483(3) 0.29897(14)
O2 O 0.4962(2) 0.8400(2) 0.38990(12)
C3 C 0.2246(3) 0.4185(2) 0.13913(13)
C4 C 0.2712(3) 0.4163(3) 0.23848(14)
H1 H 0.3476 0.3348 0.2411
C5 C 0.2139(4) 1.0243(3) 0.42172(16)
H2 H 0.3308 1.0473 0.4600
C6 C 0.3353(3) 0.8013(3) 0.35126(14)
C7 C 0.0084(3) 0.8659(3) 0.29881(16)
H3 H -0.0148 0.7804 0.2549
C8 C -0.1305(4) 0.9592(3) 0.30637(19)
H4 H -0.2456 0.9395 0.2667
C9 C -0.0948(4) 1.0808(3) 0.37338(17)
C10 C 0.0977(3) 0.5306(3) 0.12375(14)
C11 C 0.0740(4) 1.1166(3) 0.43121(17)
H5 H 0.0945 1.2009 0.4760
C12 C 0.4047(3) 0.4511(3) 0.10270(16)
H6 H 0.3712 0.4626 0.0418
H7 H 0.4810 0.3704 0.1026
N1 N -0.2461(4) 1.1795(3) 0.3827(2)
C13 C 0.0978(3) 0.2681(3) 0.10079(16)
H8 H 0.0133 0.2753 0.0462
O3 O -0.3799(4) 1.1627(3) 0.3225(2)
C14 C 0.0808(4) 0.3646(3) 0.26004(17)
H9 H 0.0099 0.4464 0.2768
H10 H 0.0991 0.3135 0.3084
N2 N -0.0057(4) 0.6122(3) 0.10726(14)
C15 C 0.5676(3) 0.5803(3) 0.25738(17)
H11 H 0.6382 0.6716 0.2915
H12 H 0.6498 0.5039 0.2616
C16 C 0.2131(4) 0.1417(3) 0.07850(19)
O4 O -0.2249(5) 1.2719(4) 0.4496(2)
C17 C 0.5188(4) 0.5906(3) 0.16033(19)
H13 H 0.6355 0.6089 0.1380
H14 H 0.4457 0.6722 0.1562
C18 C 0.4458(4) 0.5236(3) 0.39298(16)
H15 H 0.5324 0.6043 0.4289
H16 H 0.5049 0.4352 0.3912
H17 H 0.3324 0.5156 0.4182
C19 C -0.0235(4) 0.2617(3) 0.17390(19)
H18 H -0.1478 0.2918 0.1563
H19 H -0.0409 0.1628 0.1828
C20 C 0.2519(5) 0.1094(4) -0.0131(2)
H20 H 0.3368 0.1878 -0.0213
H21 H 0.1348 0.0992 -0.0546
H22 H 0.3096 0.0202 -0.0232
C21 C 0.2729(5) 0.0627(4) 0.1363(3)
H23 H 0.3411 -0.0153 0.1195
H24 H 0.2467 0.0849 0.1939
loop_
_geom_bond_atom_site_label_1
_geom_bond_atom_site_label_2
_geom_bond_site_symmetry_1
_geom_bond_site_symmetry_2
O1 C2 1_555 1_555
C1 C5 1_555 1_555
C2 C4 1_555 1_555
O2 C6 1_555 1_555
C3 C4 1_555 1_555
C4 H1 1_555 1_555
C5 H2 1_555 1_555
C6 O1 1_555 1_555
C7 C1 1_555 1_555
H3 C7 1_555 1_555
C8 C7 1_555 1_555
H4 C8 1_555 1_555
C9 C8 1_555 1_555
C10 C3 1_555 1_555
C11 C5 1_555 1_555
H5 C11 1_555 1_555
C12 C3 1_555 1_555
H6 C12 1_555 1_555
H7 C12 1_555 1_555
N1 C9 1_555 1_555
C13 C3 1_555 1_555
H8 C13 1_555 1_555
O3 N1 1_555 1_555
C14 C4 1_555 1_555
H9 C14 1_555 1_555
H10 C14 1_555 1_555
N2 C10 1_555 1_555
C15 C2 1_555 1_555
H11 C15 1_555 1_555
H12 C15 1_555 1_555
C16 C13 1_555 1_555
O4 N1 1_555 1_555
C17 C12 1_555 1_555
H13 C17 1_555 1_555
H14 C17 1_555 1_555
C18 C2 1_555 1_555
H15 C18 1_555 1_555
H16 C18 1_555 1_555
H17 C18 1_555 1_555
C19 C13 1_555 1_555
H18 C19 1_555 1_555
H19 C19 1_555 1_555
C20 C16 1_555 1_555
H20 C20 1_555 1_555
H21 C20 1_555 1_555
H22 C20 1_555 1_555
C21 C16 1_555 1_555
H23 C21 1_555 1_555
H24 C21 1_555 1_555
C1 C6 1_555 1_555
C9 C11 1_555 1_555
C14 C19 1_555 1_555
C15 C17 1_555 1_555

#END
