
#######################################################################
#
#                 Cambridge Crystallographic Data Centre
#                                CCDC 
#
#######################################################################
#
# If this CIF has been generated from an entry in the Cambridge 
# Structural Database, then it will include bibliographic, chemical, 
# crystal, experimental, refinement or atomic coordinate data resulting 
# from the CCDC's data processing and validation procedures.
#
#######################################################################

data_EFIHOS
_chemical_name_common            
'meso-5,20-diphenyl-10,15-ditolyl-24-thia-9,10-anthriporphyrin dichloromethane solvate'
_chemical_formula_moiety         'C56 H38 N2 S1,C1 H2 Cl2'
_chemical_name_systematic        
'7,12-bis(4-methylphenyl)-2,17-diphenyl-32-thia-31,33-diazaheptacyclo[16.6.6.1^3,6^.1^8,11^.1^13,16^.0^19,24^.0^25,30^]tritriaconta-1(24),2,4,6(33),7,9,11,13(31),14,16,18,20,22,25(30),26,28-hexadecaene dichloromethane solvate'
_symmetry_cell_setting           triclinic
_symmetry_space_group_name_H-M   'P -1'
_symmetry_Int_Tables_number      2
_space_group_name_Hall           '-P 1'
loop_
_symmetry_equiv_pos_site_id
_symmetry_equiv_pos_as_xyz
1 x,y,z
2 -x,-y,-z
_cell_length_a                   9.9886(2)
_cell_length_b                   13.3240(3)
_cell_length_c                   16.9907(4)
_cell_angle_alpha                91.846(2)
_cell_angle_beta                 100.777(2)
_cell_angle_gamma                102.672(2)
_cell_volume                     2160.93
_exptl_crystal_colour            green
_exptl_crystal_description       blocks
_cell_formula_units_Z            2
loop_
_atom_site_label
_atom_site_type_symbol
_atom_site_fract_x
_atom_site_fract_y
_atom_site_fract_z
S1 S 0.63954(5) 0.17565(3) 0.28569(3)
N1 N 0.75247(17) 0.12305(13) 0.14989(10)
N2 N 0.75368(18) 0.37090(13) 0.37312(10)
C1 C 0.9314(2) 0.45534(14) 0.27304(11)
C2 C 1.0523(2) 0.41878(15) 0.26835(11)
C3 C 1.0510(2) 0.34714(15) 0.20329(11)
C4 C 0.9274(2) 0.31281(14) 0.14391(11)
C5 C 0.91542(19) 0.22830(15) 0.08188(11)
C6 C 0.8182(2) 0.13850(15) 0.08427(11)
C7 C 0.7567(2) 0.05282(15) 0.02284(11)
H1 H 0.7824 0.0440 -0.0276
C8 C 0.6558(2) -0.01131(15) 0.05232(11)
H2 H 0.5956 -0.0735 0.0263
C9 C 0.6579(2) 0.03446(15) 0.13251(11)
C10 C 0.5701(2) -0.00913(15) 0.18702(11)
C11 C 0.5629(2) 0.04362(15) 0.25767(11)
C12 C 0.4927(2) -0.00136(16) 0.31894(12)
H3 H 0.4498 -0.0727 0.3169
C13 C 0.4930(2) 0.06665(16) 0.37954(12)
H4 H 0.4501 0.0470 0.4238
C14 C 0.5632(2) 0.17118(15) 0.37199(11)
C15 C 0.5715(2) 0.25499(15) 0.42405(11)
C16 C 0.6590(2) 0.35517(15) 0.41936(11)
C17 C 0.6587(2) 0.45086(16) 0.46451(11)
H5 H 0.5984 0.4591 0.5001
C18 C 0.7609(2) 0.52478(15) 0.44547(12)
H6 H 0.7879 0.5951 0.4657
C19 C 0.8218(2) 0.47520(15) 0.38752(11)
C20 C 0.9226(2) 0.51736(15) 0.34530(11)
C21 C 0.8118(2) 0.42743(14) 0.21021(11)
C22 C 0.8107(2) 0.35590(15) 0.14517(11)
C23 C 1.1759(2) 0.44638(17) 0.33017(12)
H7 H 1.1781 0.4924 0.3746
C24 C 1.2906(2) 0.40772(19) 0.32641(13)
H8 H 1.3724 0.4287 0.3673
C25 C 1.2889(2) 0.33666(17) 0.26209(13)
H9 H 1.3689 0.3098 0.2601
C26 C 1.1724(2) 0.30710(16) 0.20318(12)
H10 H 1.1717 0.2585 0.1608
C27 C 0.6886(2) 0.32995(16) 0.08187(12)
H11 H 0.6870 0.2835 0.0379
C28 C 0.5751(2) 0.37047(18) 0.08345(13)
H12 H 0.4954 0.3520 0.0410
C29 C 0.5761(2) 0.44033(17) 0.14855(13)
H13 H 0.4963 0.4677 0.1499
C30 C 0.6908(2) 0.46837(15) 0.20911(12)
H14 H 0.6903 0.5163 0.2516
C31 C 0.99910(19) 0.24711(15) 0.01896(11)
C32 C 1.0439(2) 0.34911(16) -0.00155(11)
H15 H 1.0223 0.4043 0.0267
C33 C 1.1190(2) 0.37010(17) -0.06244(12)
H16 H 1.1492 0.4393 -0.0752
C34 C 1.1500(2) 0.28993(18) -0.10470(13)
H17 H 1.1987 0.3039 -0.1475
C35 C 1.1091(2) 0.18879(18) -0.08397(13)
H18 H 1.1307 0.1339 -0.1125
C36 C 1.0372(2) 0.16836(16) -0.02176(12)
H19 H 1.0134 0.0997 -0.0066
C37 C 0.4847(2) -0.11633(15) 0.16722(11)
C38 C 0.5463(2) -0.19588(16) 0.14792(12)
H20 H 0.6426 -0.1804 0.1448
C39 C 0.4695(2) -0.29714(16) 0.13323(12)
H21 H 0.5143 -0.3500 0.1211
C40 C 0.3270(2) -0.32268(15) 0.13601(11)
C41 C 0.2640(2) -0.24247(16) 0.15194(11)
H22 H 0.1666 -0.2574 0.1521
C42 C 0.3416(2) -0.14106(15) 0.16752(11)
H23 H 0.2965 -0.0879 0.1785
C43 C 0.2457(2) -0.43312(16) 0.12364(15)
H24 H 0.2638 -0.4660 0.0755
H25 H 0.1455 -0.4354 0.1169
H26 H 0.2749 -0.4699 0.1705
C44 C 0.4874(2) 0.24343(15) 0.48821(12)
C45 C 0.3432(2) 0.20050(16) 0.47051(12)
H27 H 0.2983 0.1767 0.4167
C46 C 0.2647(2) 0.19210(17) 0.53048(12)
H28 H 0.1669 0.1627 0.5171
C47 C 0.3275(2) 0.22624(16) 0.61009(12)
C48 C 0.4710(2) 0.26889(16) 0.62799(11)
H29 H 0.5156 0.2925 0.6818
C49 C 0.5502(2) 0.27741(16) 0.56819(12)
H30 H 0.6480 0.3066 0.5818
C50 C 0.2413(2) 0.2180(2) 0.67427(13)
H31 H 0.2545 0.1590 0.7053
H32 H 0.1422 0.2083 0.6493
H33 H 0.2711 0.2814 0.7101
C51 C 1.0104(2) 0.62259(15) 0.36644(12)
C52 C 1.0487(2) 0.66573(16) 0.44664(12)
H34 H 1.0255 0.6242 0.4887
C53 C 1.1200(2) 0.76799(17) 0.46478(13)
H35 H 1.1442 0.7962 0.5190
C54 C 1.1562(2) 0.82941(17) 0.40390(14)
H36 H 1.2018 0.9001 0.4161
C55 C 1.1252(2) 0.78661(17) 0.32498(14)
H37 H 1.1523 0.8278 0.2835
C56 C 1.0546(2) 0.68366(16) 0.30650(12)
H38 H 1.0364 0.6547 0.2527
C57 C -0.0036(3) 0.1162(2) 0.30718(17)
H39 H 0.0645 0.1807 0.3306
H40 H -0.0838 0.1351 0.2721
Cl1 Cl 0.07677(12) 0.04308(7) 0.24915(7)
Cl2 Cl -0.06265(9) 0.04563(5) 0.38499(4)
loop_
_geom_bond_atom_site_label_1
_geom_bond_atom_site_label_2
_geom_bond_site_symmetry_1
_geom_bond_site_symmetry_2
S1 C11 1_555 1_555
N1 C6 1_555 1_555
N2 C16 1_555 1_555
C1 C2 1_555 1_555
C2 C3 1_555 1_555
C3 C4 1_555 1_555
C4 C5 1_555 1_555
C5 C6 1_555 1_555
C6 C7 1_555 1_555
C7 H1 1_555 1_555
C8 C7 1_555 1_555
H2 C8 1_555 1_555
C9 N1 1_555 1_555
C10 C9 1_555 1_555
C11 C10 1_555 1_555
C12 C11 1_555 1_555
H3 C12 1_555 1_555
C13 C12 1_555 1_555
H4 C13 1_555 1_555
C14 S1 1_555 1_555
C15 C14 1_555 1_555
C16 C15 1_555 1_555
C17 C16 1_555 1_555
H5 C17 1_555 1_555
C18 C17 1_555 1_555
H6 C18 1_555 1_555
C19 N2 1_555 1_555
C20 C1 1_555 1_555
C21 C1 1_555 1_555
C22 C4 1_555 1_555
C23 C2 1_555 1_555
H7 C23 1_555 1_555
C24 C23 1_555 1_555
H8 C24 1_555 1_555
C25 C24 1_555 1_555
H9 C25 1_555 1_555
C26 C3 1_555 1_555
H10 C26 1_555 1_555
C27 C22 1_555 1_555
H11 C27 1_555 1_555
C28 C27 1_555 1_555
H12 C28 1_555 1_555
C29 C28 1_555 1_555
H13 C29 1_555 1_555
C30 C21 1_555 1_555
H14 C30 1_555 1_555
C31 C5 1_555 1_555
C32 C31 1_555 1_555
H15 C32 1_555 1_555
C33 C32 1_555 1_555
H16 C33 1_555 1_555
C34 C33 1_555 1_555
H17 C34 1_555 1_555
C35 C34 1_555 1_555
H18 C35 1_555 1_555
C36 C31 1_555 1_555
H19 C36 1_555 1_555
C37 C10 1_555 1_555
C38 C37 1_555 1_555
H20 C38 1_555 1_555
C39 C38 1_555 1_555
H21 C39 1_555 1_555
C40 C39 1_555 1_555
C41 C40 1_555 1_555
H22 C41 1_555 1_555
C42 C37 1_555 1_555
H23 C42 1_555 1_555
C43 C40 1_555 1_555
H24 C43 1_555 1_555
H25 C43 1_555 1_555
H26 C43 1_555 1_555
C44 C15 1_555 1_555
C45 C44 1_555 1_555
H27 C45 1_555 1_555
C46 C45 1_555 1_555
H28 C46 1_555 1_555
C47 C46 1_555 1_555
C48 C47 1_555 1_555
H29 C48 1_555 1_555
C49 C44 1_555 1_555
H30 C49 1_555 1_555
C50 C47 1_555 1_555
H31 C50 1_555 1_555
H32 C50 1_555 1_555
H33 C50 1_555 1_555
C51 C20 1_555 1_555
C52 C51 1_555 1_555
H34 C52 1_555 1_555
C53 C52 1_555 1_555
H35 C53 1_555 1_555
C54 C53 1_555 1_555
H36 C54 1_555 1_555
C55 C54 1_555 1_555
H37 C55 1_555 1_555
C56 C51 1_555 1_555
H38 C56 1_555 1_555
C57 H39 1_555 1_555
H40 C57 1_555 1_555
Cl1 C57 1_555 1_555
Cl2 C57 1_555 1_555
C8 C9 1_555 1_555
C13 C14 1_555 1_555
C18 C19 1_555 1_555
C19 C20 1_555 1_555
C21 C22 1_555 1_555
C25 C26 1_555 1_555
C29 C30 1_555 1_555
C35 C36 1_555 1_555
C41 C42 1_555 1_555
C48 C49 1_555 1_555
C55 C56 1_555 1_555

#END
