
#######################################################################
#
#                 Cambridge Crystallographic Data Centre
#                                CCDC 
#
#######################################################################
#
# If this CIF has been generated from an entry in the Cambridge 
# Structural Database, then it will include bibliographic, chemical, 
# crystal, experimental, refinement or atomic coordinate data resulting 
# from the CCDC's data processing and validation procedures.
#
#######################################################################

data_EFIJOT
_chemical_formula_moiety         'C12 H14 O2'
_chemical_name_systematic        (3-(4-methoxyphenyl)cyclobut-2-enyl)methanol
_symmetry_cell_setting           monoclinic
_symmetry_space_group_name_H-M   'P 21/c'
_symmetry_Int_Tables_number      14
_space_group_name_Hall           '-P 2ybc'
loop_
_symmetry_equiv_pos_site_id
_symmetry_equiv_pos_as_xyz
1 x,y,z
2 -x,1/2+y,1/2-z
3 -x,-y,-z
4 x,1/2-y,1/2+z
_cell_length_a                   46.33(2)
_cell_length_b                   5.461(3)
_cell_length_c                   8.220(4)
_cell_angle_alpha                90
_cell_angle_beta                 92.926(11)
_cell_angle_gamma                90
_cell_volume                     2077.02
_exptl_crystal_colour            colorless
_exptl_crystal_description       prismatic
_chemical_melting_point          '90-92 deg.C'
_cell_formula_units_Z            8
loop_
_atom_site_label
_atom_site_type_symbol
_atom_site_fract_x
_atom_site_fract_y
_atom_site_fract_z
O1 O 0.46605(4) 0.4611(4) 0.0944(2)
O2 O 0.26476(5) 0.2642(5) 0.2647(3)
H1 H 0.2549 0.3447 0.3253
C1 C 0.32736(7) 0.6822(6) 0.1881(4)
H3 H 0.3265 0.8230 0.1244
C2 C 0.30519(6) 0.5363(6) 0.2787(4)
H4 H 0.2978 0.6266 0.3708
C3 C 0.33077(6) 0.3724(5) 0.3285(3)
H5 H 0.3355 0.3725 0.4448
H6 H 0.3289 0.2064 0.2875
C4 C 0.34944(6) 0.5208(5) 0.2384(3)
C5 C 0.37997(6) 0.5047(5) 0.2062(3)
C6 C 0.39280(6) 0.6732(5) 0.1076(3)
H7 H 0.3818 0.8014 0.0632
C7 C 0.42135(7) 0.6558(5) 0.0737(3)
H8 H 0.4295 0.7717 0.0071
C8 C 0.43795(6) 0.4667(5) 0.1382(3)
C9 C 0.42592(6) 0.2974(5) 0.2382(3)
H9 H 0.4371 0.1704 0.2832
C10 C 0.39719(6) 0.3182(5) 0.2709(3)
H10 H 0.3891 0.2032 0.3385
C11 C 0.28152(7) 0.4247(7) 0.1714(4)
H11 H 0.2693 0.5528 0.1240
H12 H 0.2898 0.3346 0.0835
C12 C 0.48302(7) 0.2583(7) 0.1459(4)
H13 H 0.4839 0.2494 0.2627
H14 H 0.5022 0.2766 0.1086
H15 H 0.4745 0.1109 0.1014
O3 O 0.03375(4) 0.4944(4) 0.5846(3)
O4 O 0.23977(5) 0.4961(5) 0.5149(2)
H2 H 0.2398 0.3713 0.4595
C13 C 0.16569(6) 0.6597(6) 0.3285(4)
H16 H 0.1611 0.7936 0.2623
C14 C 0.19321(6) 0.5183(5) 0.3694(3)
H17 H 0.1997 0.4281 0.2748
C15 C 0.17461(6) 0.3598(5) 0.4744(4)
H18 H 0.1727 0.1918 0.4370
H19 H 0.1802 0.3661 0.5896
C16 C 0.14997(6) 0.5115(5) 0.4286(3)
C17 C 0.12012(6) 0.5039(4) 0.4714(3)
C18 C 0.10997(6) 0.3228(5) 0.5711(3)
H20 H 0.1228 0.2042 0.6119
C19 C 0.08164(6) 0.3115(5) 0.6123(3)
H21 H 0.0755 0.1868 0.6793
C20 C 0.06242(6) 0.4867(5) 0.5533(3)
C21 C 0.07204(6) 0.6710(5) 0.4536(3)
H22 H 0.0592 0.7895 0.4130
C22 C 0.10008(6) 0.6791(5) 0.4152(3)
H23 H 0.1062 0.8055 0.3494
C23 C 0.21750(6) 0.6525(6) 0.4554(4)
H24 H 0.2254 0.7697 0.3810
H25 H 0.2101 0.7432 0.5457
C24 C 0.02251(7) 0.2958(6) 0.6705(4)
H26 H 0.0267 0.1458 0.6157
H27 H 0.0020 0.3142 0.6754
H28 H 0.0312 0.2922 0.7790
loop_
_geom_bond_atom_site_label_1
_geom_bond_atom_site_label_2
_geom_bond_site_symmetry_1
_geom_bond_site_symmetry_2
O1 C8 1_555 1_555
O2 H1 1_555 1_555
O3 C20 1_555 1_555
O4 H2 1_555 1_555
C1 H3 1_555 1_555
C2 C1 1_555 1_555
H4 C2 1_555 1_555
C3 C2 1_555 1_555
H5 C3 1_555 1_555
H6 C3 1_555 1_555
C4 C1 1_555 1_555
C5 C4 1_555 1_555
C6 C5 1_555 1_555
H7 C6 1_555 1_555
C7 C6 1_555 1_555
H8 C7 1_555 1_555
C8 C7 1_555 1_555
C9 C8 1_555 1_555
H9 C9 1_555 1_555
C10 C5 1_555 1_555
H10 C10 1_555 1_555
C11 O2 1_555 1_555
H11 C11 1_555 1_555
H12 C11 1_555 1_555
C12 O1 1_555 1_555
H13 C12 1_555 1_555
H14 C12 1_555 1_555
H15 C12 1_555 1_555
C13 H16 1_555 1_555
C14 C13 1_555 1_555
H17 C14 1_555 1_555
C15 C14 1_555 1_555
H18 C15 1_555 1_555
H19 C15 1_555 1_555
C16 C13 1_555 1_555
C17 C16 1_555 1_555
C18 C17 1_555 1_555
H20 C18 1_555 1_555
C19 C18 1_555 1_555
H21 C19 1_555 1_555
C20 C19 1_555 1_555
C21 C20 1_555 1_555
H22 C21 1_555 1_555
C22 C17 1_555 1_555
H23 C22 1_555 1_555
C23 O4 1_555 1_555
H24 C23 1_555 1_555
H25 C23 1_555 1_555
C24 O3 1_555 1_555
H26 C24 1_555 1_555
H27 C24 1_555 1_555
H28 C24 1_555 1_555
C2 C11 1_555 1_555
C3 C4 1_555 1_555
C9 C10 1_555 1_555
C14 C23 1_555 1_555
C15 C16 1_555 1_555
C21 C22 1_555 1_555

#END
