
#######################################################################
#
#                 Cambridge Crystallographic Data Centre
#                                CCDC 
#
#######################################################################
#
# If this CIF has been generated from an entry in the Cambridge 
# Structural Database, then it will include bibliographic, chemical, 
# crystal, experimental, refinement or atomic coordinate data resulting 
# from the CCDC's data processing and validation procedures.
#
#######################################################################

data_EFIQEP
_chemical_formula_moiety         'C20 H8 S2'
_chemical_name_systematic        
dibenzo-1,8-dithiacyclotetradeca-2,6,9,13-tetrayne
_symmetry_cell_setting           orthorhombic
_symmetry_space_group_name_H-M   'P n m a'
_symmetry_Int_Tables_number      62
_space_group_name_Hall           '-P 2ac 2n'
loop_
_symmetry_equiv_pos_site_id
_symmetry_equiv_pos_as_xyz
1 x,y,z
2 1/2+x,y,1/2-z
3 x,1/2-y,z
4 1/2-x,1/2+y,1/2+z
5 -x,-y,-z
6 1/2-x,-y,1/2+z
7 -x,1/2+y,-z
8 1/2+x,1/2-y,1/2-z
_cell_length_a                   23.025(5)
_cell_length_b                   16.194(3)
_cell_length_c                   3.9742(8)
_cell_angle_alpha                90
_cell_angle_beta                 90
_cell_angle_gamma                90
_cell_volume                     1481.85
_exptl_crystal_colour            colorless
_exptl_crystal_description       block
_chemical_melting_point          273deg.C(dec.)
_cell_formula_units_Z            4
_exptl_crystal_recrystallization_method dichloromethane/hexane
loop_
_atom_site_label
_atom_site_type_symbol
_atom_site_fract_x
_atom_site_fract_y
_atom_site_fract_z
S1 S 0.02301(4) 0.2500 0.4801(2)
S2 S 0.25030(3) 0.2500 1.2689(2)
C1 C 0.05505(8) 0.16828(11) 0.6635(5)
C2 C 0.07408(8) 0.10495(11) 0.7720(5)
C3 C 0.09802(8) 0.02983(10) 0.8985(5)
C4 C 0.06839(9) -0.04494(12) 0.8609(6)
H1 H 0.0297(11) -0.0449(13) 0.735(6)
C5 C 0.09209(10) -0.11713(13) 0.9818(6)
H2 H 0.0701(12) -0.1667(15) 0.956(7)
C6 C 0.14540(10) -0.11672(13) 1.1400(6)
H3 H 0.1607(10) -0.1672(14) 1.229(6)
C7 C 0.17532(9) -0.04398(13) 1.1815(6)
H4 H 0.2121(11) -0.0423(14) 1.304(6)
C8 C 0.15221(8) 0.03028(11) 1.0622(5)
C9 C 0.18279(8) 0.10582(12) 1.1144(5)
C10 C 0.20834(8) 0.16870(12) 1.1697(5)
C10B C 0.20834(8) 0.33130(12) 1.1697(5)
C9B C 0.18279(8) 0.39418(12) 1.1144(5)
C8B C 0.15221(8) 0.46972(11) 1.0622(5)
C3B C 0.09802(8) 0.47017(10) 0.8985(5)
C2B C 0.07408(8) 0.39505(11) 0.7720(5)
C1B C 0.05505(8) 0.33172(11) 0.6635(5)
C4B C 0.06839(9) 0.54494(12) 0.8609(6)
H1B H 0.0297(11) 0.5449(13) 0.735(6)
C5B C 0.09209(10) 0.61713(13) 0.9818(6)
H2B H 0.0701(12) 0.6667(15) 0.956(7)
C6B C 0.14540(10) 0.61672(13) 1.1400(6)
H3B H 0.1607(10) 0.6672(14) 1.229(6)
C7B C 0.17532(9) 0.54398(13) 1.1815(6)
H4B H 0.2121(11) 0.5423(14) 1.304(6)
loop_
_geom_bond_atom_site_label_1
_geom_bond_atom_site_label_2
_geom_bond_site_symmetry_1
_geom_bond_site_symmetry_2
S1 C1 1_555 1_555
S2 C10 1_555 1_555
C1 C2 1_555 1_555
C2 C3 1_555 1_555
C3 C4 1_555 1_555
C4 H1 1_555 1_555
C5 C4 1_555 1_555
H2 C5 1_555 1_555
C6 C5 1_555 1_555
H3 C6 1_555 1_555
C7 C6 1_555 1_555
H4 C7 1_555 1_555
C8 C3 1_555 1_555
C9 C8 1_555 1_555
C10 C9 1_555 1_555
C10B S2 1_555 1_555
C9B C10B 1_555 1_555
C8B C9B 1_555 1_555
C3B C8B 1_555 1_555
C2B C3B 1_555 1_555
C1B S1 1_555 1_555
C4B C3B 1_555 1_555
H1B C4B 1_555 1_555
C5B C4B 1_555 1_555
H2B C5B 1_555 1_555
C6B C5B 1_555 1_555
H3B C6B 1_555 1_555
C7B C8B 1_555 1_555
H4B C7B 1_555 1_555
C7 C8 1_555 1_555
C2B C1B 1_555 1_555
C6B C7B 1_555 1_555

#END
