
#######################################################################
#
#                 Cambridge Crystallographic Data Centre
#                                CCDC 
#
#######################################################################
#
# If this CIF has been generated from an entry in the Cambridge 
# Structural Database, then it will include bibliographic, chemical, 
# crystal, experimental, refinement or atomic coordinate data resulting 
# from the CCDC's data processing and validation procedures.
#
#######################################################################

data_EFIROA
_chemical_formula_moiety         'C24 H25 N1 O2 S1 Se1'
_chemical_name_systematic        
2-[1-methyl-1-(phenylselanyl)ethyl]-1-[(4-methylphenyl)sulfonyl]indoline
_symmetry_cell_setting           monoclinic
_symmetry_space_group_name_H-M   'P 21/n'
_symmetry_Int_Tables_number      14
_space_group_name_Hall           '-P 2yn'
loop_
_symmetry_equiv_pos_site_id
_symmetry_equiv_pos_as_xyz
1 x,y,z
2 1/2+x,1/2-y,1/2+z
3 -x,-y,-z
4 1/2-x,1/2+y,1/2-z
_cell_length_a                   10.121(2)
_cell_length_b                   12.368(3)
_cell_length_c                   18.031(6)
_cell_angle_alpha                90
_cell_angle_beta                 97.40(2)
_cell_angle_gamma                90
_cell_volume                     2238.26
_exptl_crystal_colour            colorless
_exptl_crystal_description       spherical
_chemical_melting_point          122-122.5deg.C
_cell_formula_units_Z            4
_exptl_crystal_recrystallization_method dichloromethane/hexane
loop_
_atom_site_label
_atom_site_type_symbol
_atom_site_fract_x
_atom_site_fract_y
_atom_site_fract_z
Se1 Se 0.20238(3) 0.33969(3) 0.16655(2)
S1 S 0.65808(7) 0.15622(6) 0.10580(4)
O1 O 0.7194(2) 0.0858(2) 0.0577(1)
O2 O 0.6460(2) 0.1246(2) 0.1803(1)
N1 N 0.5047(2) 0.1793(2) 0.0643(1)
C1 C 0.4293(2) 0.2667(2) 0.0992(1)
C2 C 0.4159(3) 0.3581(2) 0.0408(2)
C3 C 0.4411(2) 0.3031(2) -0.0307(1)
C4 C 0.4211(3) 0.3387(2) -0.1032(2)
C5 C 0.4507(3) 0.2697(3) -0.1594(2)
C6 C 0.4968(3) 0.1667(3) -0.1431(2)
C7 C 0.5179(3) 0.1304(2) -0.0705(2)
C8 C 0.4914(2) 0.2006(2) -0.0150(1)
C9 C 0.7410(2) 0.2813(2) 0.1093(1)
C10 C 0.7862(3) 0.3232(2) 0.0464(2)
C11 C 0.8470(3) 0.4238(3) 0.0491(2)
C12 C 0.8660(3) 0.4815(2) 0.1159(2)
C13 C 0.8191(3) 0.4386(2) 0.1780(2)
C14 C 0.7572(3) 0.3395(2) 0.1758(1)
C15 C 0.9355(3) 0.5898(3) 0.1198(2)
C16 C 0.2974(3) 0.2204(2) 0.1205(1)
C17 C 0.2016(3) 0.1838(3) 0.0529(2)
C18 C 0.3230(3) 0.1284(2) 0.1760(2)
C19 C 0.3351(3) 0.3787(2) 0.2487(2)
C20 C 0.3323(3) 0.3329(3) 0.3178(2)
C21 C 0.4243(4) 0.3628(3) 0.3774(2)
C22 C 0.5205(4) 0.4373(3) 0.3675(2)
C23 C 0.5239(3) 0.4823(2) 0.2986(2)
C24 C 0.4311(3) 0.4547(2) 0.2397(2)
H1 H 0.4819 0.2917 0.1433
H2 H 0.3291 0.3887 0.0359
H3 H 0.4801 0.4131 0.0543
H4 H 0.3876 0.4092 -0.1148
H5 H 0.4390 0.2939 -0.2098
H6 H 0.5143 0.1201 -0.1825
H7 H 0.5498 0.0593 -0.0590
H8 H 0.7757 0.2831 0.0011
H9 H 0.8758 0.4533 0.0053
H10 H 0.8297 0.4785 0.2234
H11 H 0.7258 0.3111 0.2193
H12 H 0.9520 0.6129 0.1704
H13 H 1.0176 0.5834 0.0999
H14 H 0.8805 0.6413 0.0915
H15 H 0.1232 0.1553 0.0693
H16 H 0.1790 0.2438 0.0209
H17 H 0.2430 0.1296 0.0266
H18 H 0.3143 0.1540 0.2248
H19 H 0.2602 0.0723 0.1630
H20 H 0.4106 0.1013 0.1750
H21 H 0.2666 0.2803 0.3245
H22 H 0.4209 0.3317 0.4253
H23 H 0.5845 0.4576 0.4084
H24 H 0.5914 0.5332 0.2915
H25 H 0.4329 0.4882 0.1924
loop_
_geom_bond_atom_site_label_1
_geom_bond_atom_site_label_2
_geom_bond_site_symmetry_1
_geom_bond_site_symmetry_2
Se1 C16 1_555 1_555
S1 O1 1_555 1_555
O2 S1 1_555 1_555
N1 S1 1_555 1_555
C1 N1 1_555 1_555
C2 C1 1_555 1_555
C3 C2 1_555 1_555
C4 C3 1_555 1_555
C5 C4 1_555 1_555
C6 C5 1_555 1_555
C7 C6 1_555 1_555
C8 N1 1_555 1_555
C9 S1 1_555 1_555
C10 C9 1_555 1_555
C11 C10 1_555 1_555
C12 C11 1_555 1_555
C13 C12 1_555 1_555
C14 C9 1_555 1_555
C15 C12 1_555 1_555
C16 C1 1_555 1_555
C17 C16 1_555 1_555
C18 C16 1_555 1_555
C19 Se1 1_555 1_555
C20 C19 1_555 1_555
C21 C20 1_555 1_555
C22 C21 1_555 1_555
C23 C22 1_555 1_555
C24 C19 1_555 1_555
H1 C1 1_555 1_555
H2 C2 1_555 1_555
H3 C2 1_555 1_555
H4 C4 1_555 1_555
H5 C5 1_555 1_555
H6 C6 1_555 1_555
H7 C7 1_555 1_555
H8 C10 1_555 1_555
H9 C11 1_555 1_555
H10 C13 1_555 1_555
H11 C14 1_555 1_555
H12 C15 1_555 1_555
H13 C15 1_555 1_555
H14 C15 1_555 1_555
H15 C17 1_555 1_555
H16 C17 1_555 1_555
H17 C17 1_555 1_555
H18 C18 1_555 1_555
H19 C18 1_555 1_555
H20 C18 1_555 1_555
H21 C20 1_555 1_555
H22 C21 1_555 1_555
H23 C22 1_555 1_555
H24 C23 1_555 1_555
H25 C24 1_555 1_555
C3 C8 1_555 1_555
C7 C8 1_555 1_555
C13 C14 1_555 1_555
C23 C24 1_555 1_555

#END
