
#######################################################################
#
#                 Cambridge Crystallographic Data Centre
#                                CCDC 
#
#######################################################################
#
# If this CIF has been generated from an entry in the Cambridge 
# Structural Database, then it will include bibliographic, chemical, 
# crystal, experimental, refinement or atomic coordinate data resulting 
# from the CCDC's data processing and validation procedures.
#
#######################################################################

data_EFOCUY
_chemical_formula_moiety         'C13 H12 N2 O6 S2'
_chemical_name_systematic        
'(3-oxido-2-(((phenylsulfonyl)acetyl)amino)-1,3-thiazol-4-yl)acetic acid'
_chemical_properties_biological  'PHD2 inhibitor'
_symmetry_cell_setting           monoclinic
_symmetry_space_group_name_H-M   'C c'
_symmetry_Int_Tables_number      9
_space_group_name_Hall           'C -2yc'
loop_
_symmetry_equiv_pos_site_id
_symmetry_equiv_pos_as_xyz
1 x,y,z
2 x,-y,1/2+z
3 1/2+x,1/2+y,z
4 1/2+x,1/2-y,1/2+z
_cell_length_a                   9.4989(11)
_cell_length_b                   15.6533(18)
_cell_length_c                   10.1228(12)
_cell_angle_alpha                90
_cell_angle_beta                 93.878(2)
_cell_angle_gamma                90
_cell_volume                     1501.7
_exptl_crystal_colour            colorless
_exptl_crystal_description       needle
_cell_formula_units_Z            4
loop_
_atom_site_label
_atom_site_type_symbol
_atom_site_fract_x
_atom_site_fract_y
_atom_site_fract_z
S1 S 0.39324(7) 0.23016(4) 0.77605(7)
S2 S 0.75446(7) -0.03349(4) 0.65173(7)
O1 O 0.2803(2) 0.02045(11) 0.9325(2)
O2 O 0.3591(2) 0.10773(12) 1.2018(2)
O3 O 0.1448(2) 0.06743(15) 1.2573(2)
H1 H 0.203(5) 0.041(3) 1.305(5)
O4 O 0.5462(2) 0.14948(13) 0.5878(2)
O5 O 0.7231(2) -0.05343(14) 0.7856(2)
O6 O 0.8106(2) -0.09960(13) 0.5726(2)
N1 N 0.3019(3) 0.10198(14) 0.8952(2)
N2 N 0.4477(3) 0.05966(16) 0.7301(2)
H2 H 0.428(3) 0.0119(19) 0.746(3)
C1 C 0.2854(3) 0.24500(18) 0.9050(3)
H3 H 0.265(4) 0.300(2) 0.929(4)
C2 C 0.2460(3) 0.17193(17) 0.9595(3)
C3 C 0.1549(3) 0.15597(19) 1.0699(3)
H4 H 0.073(3) 0.1237(18) 1.042(3)
H5 H 0.131(3) 0.212(2) 1.105(3)
C4 C 0.2311(3) 0.10759(17) 1.1826(3)
C5 C 0.3834(3) 0.12171(16) 0.7986(3)
C6 C 0.5271(3) 0.07700(18) 0.6257(3)
C7 C 0.5928(3) 0.0006(2) 0.5645(3)
H6 H 0.617(3) 0.013(2) 0.483(3)
H7 H 0.534(3) -0.0512(17) 0.570(3)
C8 C 0.8662(3) 0.05695(17) 0.6545(3)
C9 C 0.8551(4) 0.1168(2) 0.7545(3)
H8 H 0.790(4) 0.108(2) 0.821(4)
C10 C 0.9395(4) 0.1894(2) 0.7532(4)
H9 H 0.943(4) 0.228(3) 0.821(4)
C11 C 1.0333(4) 0.1993(2) 0.6568(4)
H10 H 1.078(4) 0.240(2) 0.664(4)
C12 C 1.0455(4) 0.1388(2) 0.5604(4)
H11 H 1.106(4) 0.144(2) 0.501(4)
C13 C 0.9612(3) 0.0666(2) 0.5572(4)
H12 H 0.966(4) 0.026(2) 0.490(4)
loop_
_geom_bond_atom_site_label_1
_geom_bond_atom_site_label_2
_geom_bond_site_symmetry_1
_geom_bond_site_symmetry_2
S1 C1 1_555 1_555
S2 O5 1_555 1_555
O1 N1 1_555 1_555
O2 C4 1_555 1_555
O3 H1 1_555 1_555
O4 C6 1_555 1_555
O6 S2 1_555 1_555
N1 C2 1_555 1_555
N2 H2 1_555 1_555
C1 H3 1_555 1_555
C2 C1 1_555 1_555
C3 C2 1_555 1_555
H4 C3 1_555 1_555
H5 C3 1_555 1_555
C4 O3 1_555 1_555
C5 S1 1_555 1_555
C6 N2 1_555 1_555
C7 S2 1_555 1_555
H6 C7 1_555 1_555
H7 C7 1_555 1_555
C8 S2 1_555 1_555
C9 C8 1_555 1_555
H8 C9 1_555 1_555
C10 C9 1_555 1_555
H9 C10 1_555 1_555
C11 C10 1_555 1_555
H10 C11 1_555 1_555
C12 C11 1_555 1_555
H11 C12 1_555 1_555
C13 C8 1_555 1_555
H12 C13 1_555 1_555
N1 C5 1_555 1_555
N2 C5 1_555 1_555
C3 C4 1_555 1_555
C6 C7 1_555 1_555
C12 C13 1_555 1_555

#END
