
#######################################################################
#
#                 Cambridge Crystallographic Data Centre
#                                CCDC 
#
#######################################################################
#
# If this CIF has been generated from an entry in the Cambridge 
# Structural Database, then it will include bibliographic, chemical, 
# crystal, experimental, refinement or atomic coordinate data resulting 
# from the CCDC's data processing and validation procedures.
#
#######################################################################

data_EFODUA
_chemical_formula_moiety         'C36 H30 N6 O2'
_chemical_name_systematic        
(3,7-dimethyl-1,9-diphenyl-3,4,5,6,7,10-hexahydrodipyrazolo[3,4-d:4',3'-g][1,3]diazocine-5,10-diyl)bis(phenylmethanone)
_symmetry_cell_setting           monoclinic
_symmetry_space_group_name_H-M   'C 2/c'
_symmetry_Int_Tables_number      15
_space_group_name_Hall           '-C 2yn'
loop_
_symmetry_equiv_pos_site_id
_symmetry_equiv_pos_as_xyz
1 x,y,z
2 -x,y,1/2-z
3 1/2+x,1/2+y,z
4 1/2-x,1/2+y,1/2-z
5 -x,-y,-z
6 x,-y,1/2+z
7 1/2-x,1/2-y,-z
8 1/2+x,1/2-y,1/2+z
_cell_length_a                   32.018(3)
_cell_length_b                   9.2309(5)
_cell_length_c                   21.6503(14)
_cell_angle_alpha                90
_cell_angle_beta                 110.711(2)
_cell_angle_gamma                90
_cell_volume                     5985.33
_cell_formula_units_Z            8
loop_
_atom_site_label
_atom_site_type_symbol
_atom_site_fract_x
_atom_site_fract_y
_atom_site_fract_z
N1 N 0.25707(7) 0.5806(2) 0.16577(12)
H1 H 0.2368 0.5173 0.1630
N2 N 0.29793(8) 0.5028(3) 0.09689(12)
H2 H 0.2927 0.4731 0.0572
N3 N 0.34669(8) 0.3088(3) 0.14398(13)
N4 N 0.38189(8) 0.2697(3) 0.19933(14)
N5 N 0.25422(8) 0.7113(3) 0.25907(13)
N6 N 0.28037(8) 0.7905(3) 0.31140(13)
O1 O 0.21658(7) 0.5267(3) 0.00902(12)
O2 O 0.34222(6) 0.8636(2) 0.16485(11)
C1 C 0.33301(10) 0.4467(3) 0.14791(17)
C2 C 0.35953(9) 0.5015(3) 0.20856(15)
C3 C 0.36101(9) 0.6551(3) 0.23470(14)
H3 H 0.3872 0.6577 0.2756
C4 C 0.32208(9) 0.6959(3) 0.25485(15)
C5 C 0.27818(10) 0.6545(3) 0.22439(15)
C6 C 0.26979(9) 0.6118(3) 0.10974(15)
H4 H 0.2855 0.7049 0.1170
C7 C 0.22727(10) 0.6242(4) 0.04878(17)
C8 C 0.19942(10) 0.7557(4) 0.04334(16)
C9 C 0.15699(11) 0.7570(4) -0.00363(17)
H5 H 0.1469 0.6772 -0.0311
C10 C 0.12941(12) 0.8752(5) -0.0103(2)
H6 H 0.1009 0.8751 -0.0422
C11 C 0.14400(13) 0.9924(4) 0.0301(2)
H7 H 0.1252 1.0714 0.0263
C12 C 0.18639(13) 0.9934(4) 0.07631(19)
H8 H 0.1967 1.0744 0.1030
C13 C 0.21372(11) 0.8748(4) 0.08327(18)
H9 H 0.2422 0.8752 0.1154
C14 C 0.37010(10) 0.7703(3) 0.18972(15)
C15 C 0.41356(10) 0.7765(3) 0.17972(15)
C16 C 0.43933(11) 0.6578(3) 0.17913(17)
H10 H 0.4303 0.5665 0.1876
C17 C 0.47821(11) 0.6715(4) 0.16623(19)
H11 H 0.4950 0.5897 0.1658
C18 C 0.49203(11) 0.8021(5) 0.15420(19)
H12 H 0.5181 0.8110 0.1449
C19 C 0.46732(12) 0.9219(4) 0.1557(2)
H13 H 0.4771 1.0127 0.1481
C20 C 0.42853(11) 0.9106(4) 0.16810(19)
H14 H 0.4121 0.9934 0.1687
C21 C 0.38890(9) 0.3863(3) 0.23809(16)
C22 C 0.42569(10) 0.3784(3) 0.30223(18)
C23 C 0.46594(11) 0.3143(3) 0.30681(19)
H15 H 0.4698 0.2789 0.2689
C24 C 0.50049(12) 0.3026(4) 0.3673(3)
H16 H 0.5275 0.2610 0.3695
C25 C 0.49509(15) 0.3516(4) 0.4233(2)
H17 H 0.5182 0.3426 0.4638
C26 C 0.45541(14) 0.4145(4) 0.4199(2)
H18 H 0.4517 0.4473 0.4582
C27 C 0.42091(11) 0.4292(4) 0.3595(2)
H19 H 0.3944 0.4735 0.3575
C28 C 0.32144(10) 0.7832(3) 0.30800(15)
C29 C 0.35807(10) 0.8604(3) 0.35860(17)
C30 C 0.39023(10) 0.9361(3) 0.34249(18)
H20 H 0.3891 0.9373 0.2990
C31 C 0.42414(11) 1.0102(4) 0.3905(2)
H21 H 0.4457 1.0597 0.3792
C32 C 0.42576(13) 1.0101(4) 0.4546(2)
H22 H 0.4487 1.0587 0.4869
C33 C 0.39373(13) 0.9387(4) 0.47129(19)
H23 H 0.3948 0.9393 0.5148
C34 C 0.35988(11) 0.8658(3) 0.42330(18)
H24 H 0.3379 0.8195 0.4348
C35 C 0.32657(10) 0.2047(3) 0.09199(16)
H25 H 0.2950 0.2008 0.0828
H26 H 0.3394 0.1108 0.1058
H27 H 0.3320 0.2334 0.0529
C36 C 0.20674(9) 0.6967(4) 0.24560(17)
H28 H 0.1919 0.6702 0.2002
H29 H 0.1950 0.7872 0.2541
H30 H 0.2018 0.6230 0.2736
loop_
_geom_bond_atom_site_label_1
_geom_bond_atom_site_label_2
_geom_bond_site_symmetry_1
_geom_bond_site_symmetry_2
N1 H1 1_555 1_555
N2 H2 1_555 1_555
N3 N4 1_555 1_555
N4 C21 1_555 1_555
N5 N6 1_555 1_555
N6 C28 1_555 1_555
O1 C7 1_555 1_555
O2 C14 1_555 1_555
C1 N2 1_555 1_555
C2 C1 1_555 1_555
C3 C2 1_555 1_555
H3 C3 1_555 1_555
C4 C3 1_555 1_555
C5 N1 1_555 1_555
C6 N1 1_555 1_555
H4 C6 1_555 1_555
C7 C6 1_555 1_555
C8 C7 1_555 1_555
C9 C8 1_555 1_555
H5 C9 1_555 1_555
C10 C9 1_555 1_555
H6 C10 1_555 1_555
C11 C10 1_555 1_555
H7 C11 1_555 1_555
C12 C11 1_555 1_555
H8 C12 1_555 1_555
C13 C8 1_555 1_555
H9 C13 1_555 1_555
C14 C3 1_555 1_555
C15 C14 1_555 1_555
C16 C15 1_555 1_555
H10 C16 1_555 1_555
C17 C16 1_555 1_555
H11 C17 1_555 1_555
C18 C17 1_555 1_555
H12 C18 1_555 1_555
C19 C18 1_555 1_555
H13 C19 1_555 1_555
C20 C15 1_555 1_555
H14 C20 1_555 1_555
C21 C2 1_555 1_555
C22 C21 1_555 1_555
C23 C22 1_555 1_555
H15 C23 1_555 1_555
C24 C23 1_555 1_555
H16 C24 1_555 1_555
C25 C24 1_555 1_555
H17 C25 1_555 1_555
C26 C25 1_555 1_555
H18 C26 1_555 1_555
C27 C22 1_555 1_555
H19 C27 1_555 1_555
C28 C4 1_555 1_555
C29 C28 1_555 1_555
C30 C29 1_555 1_555
H20 C30 1_555 1_555
C31 C30 1_555 1_555
H21 C31 1_555 1_555
C32 C31 1_555 1_555
H22 C32 1_555 1_555
C33 C32 1_555 1_555
H23 C33 1_555 1_555
C34 C29 1_555 1_555
H24 C34 1_555 1_555
C35 N3 1_555 1_555
H25 C35 1_555 1_555
H26 C35 1_555 1_555
H27 C35 1_555 1_555
C36 N5 1_555 1_555
H28 C36 1_555 1_555
H29 C36 1_555 1_555
H30 C36 1_555 1_555
N2 C6 1_555 1_555
N3 C1 1_555 1_555
N5 C5 1_555 1_555
C4 C5 1_555 1_555
C12 C13 1_555 1_555
C19 C20 1_555 1_555
C26 C27 1_555 1_555
C33 C34 1_555 1_555

#END
