
#######################################################################
#
#                 Cambridge Crystallographic Data Centre
#                                CCDC 
#
#######################################################################
#
# If this CIF has been generated from an entry in the Cambridge 
# Structural Database, then it will include bibliographic, chemical, 
# crystal, experimental, refinement or atomic coordinate data resulting 
# from the CCDC's data processing and validation procedures.
#
#######################################################################

data_EFOVOM
_chemical_formula_moiety         'C13 H18 O3'
_chemical_name_systematic        
4-((2,3-dimethylbut-3-en-2-yl)oxy)-3-methoxyphenol
_symmetry_cell_setting           monoclinic
_symmetry_space_group_name_H-M   'P 21/c'
_symmetry_Int_Tables_number      14
_space_group_name_Hall           '-P 2ybc'
loop_
_symmetry_equiv_pos_site_id
_symmetry_equiv_pos_as_xyz
1 x,y,z
2 -x,1/2+y,1/2-z
3 -x,-y,-z
4 x,1/2-y,1/2+z
_cell_length_a                   7.0639(16)
_cell_length_b                   12.459(3)
_cell_length_c                   14.360(3)
_cell_angle_alpha                90
_cell_angle_beta                 99.692(2)
_cell_angle_gamma                90
_cell_volume                     1245.77
_exptl_crystal_colour            colorless
_exptl_crystal_description       plate
_cell_formula_units_Z            4
loop_
_atom_site_label
_atom_site_type_symbol
_atom_site_fract_x
_atom_site_fract_y
_atom_site_fract_z
C1 C 0.03673(18) 0.32167(10) 0.24702(8)
H1 H -0.0009 0.2742 0.2905
C2 C 0.17440(16) 0.49179(10) 0.21178(8)
C3 C 0.14633(18) 0.46325(10) 0.11774(8)
H2 H 0.1817 0.5108 0.0738
C4 C 0.01289(17) 0.29442(10) 0.15200(9)
C5 C 0.06684(18) 0.36560(10) 0.08761(9)
H3 H 0.0496 0.3477 0.0239
C6 C 0.11728(17) 0.42037(10) 0.27693(8)
C7 C 0.45508(18) 0.61024(11) 0.25451(10)
C8 C 0.5106(2) 0.61951(13) 0.15752(11)
C9 C 0.4806(2) 0.71693(14) 0.30611(14)
H4 H 0.3961 0.7692 0.2721
H5 H 0.6112 0.7405 0.3104
H6 H 0.4506 0.7085 0.3685
C10 C 0.0963(3) 0.38482(15) 0.43783(10)
H7 H -0.0395 0.3713 0.4251
H8 H 0.1299 0.4173 0.4990
H9 H 0.1644 0.3183 0.4366
C11 C 0.5582(2) 0.52181(16) 0.31502(13)
H10 H 0.5111 0.5184 0.3739
H11 H 0.6936 0.5365 0.3270
H12 H 0.5355 0.4545 0.2826
C12 C 0.4133(3) 0.70553(18) 0.09476(15)
H13 H 0.4725 0.7734 0.1129
H14 H 0.2799 0.7084 0.1006
H15 H 0.4246 0.6902 0.0304
C13 C 0.6398(3) 0.55614(19) 0.12901(16)
H16 H 0.6710 0.5649 0.0691
H17 H 0.6993 0.5028 0.1689
O1 O 0.24415(12) 0.59230(7) 0.24269(6)
O2 O -0.05875(16) 0.19759(8) 0.11900(7)
H18 H -0.0979 0.1649 0.1615
O3 O 0.14614(16) 0.45471(8) 0.36832(6)
loop_
_geom_bond_atom_site_label_1
_geom_bond_atom_site_label_2
_geom_bond_site_symmetry_1
_geom_bond_site_symmetry_2
C1 H1 1_555 1_555
C2 C3 1_555 1_555
C3 H2 1_555 1_555
C4 C1 1_555 1_555
C5 C3 1_555 1_555
H3 C5 1_555 1_555
C6 C1 1_555 1_555
C7 C8 1_555 1_555
C8 C12 1_555 1_555
C9 C7 1_555 1_555
H4 C9 1_555 1_555
H5 C9 1_555 1_555
H6 C9 1_555 1_555
C10 H7 1_555 1_555
H8 C10 1_555 1_555
H9 C10 1_555 1_555
C11 C7 1_555 1_555
H10 C11 1_555 1_555
H11 C11 1_555 1_555
H12 C11 1_555 1_555
C12 H13 1_555 1_555
H14 C12 1_555 1_555
H15 C12 1_555 1_555
C13 C8 1_555 1_555
H16 C13 1_555 1_555
H17 C13 1_555 1_555
O1 C2 1_555 1_555
O2 C4 1_555 1_555
H18 O2 1_555 1_555
O3 C6 1_555 1_555
C2 C6 1_555 1_555
C4 C5 1_555 1_555
C7 O1 1_555 1_555
C10 O3 1_555 1_555

#END
