
#######################################################################
#
#                 Cambridge Crystallographic Data Centre
#                                CCDC 
#
#######################################################################
#
# If this CIF has been generated from an entry in the Cambridge 
# Structural Database, then it will include bibliographic, chemical, 
# crystal, experimental, refinement or atomic coordinate data resulting 
# from the CCDC's data processing and validation procedures.
#
#######################################################################

data_EFUKAT
_chemical_formula_moiety         'C30 H34 O6'
_chemical_name_systematic        
6,8-Dihydroxy-9-isobutyl-2,2,4,4-tetramethyl-7-(3-phenylpropanoyl)-4,9-dihydro-1H-xanthene-1,3(2H)-dione
_symmetry_cell_setting           monoclinic
_symmetry_space_group_name_H-M   'C 2/c'
_symmetry_Int_Tables_number      15
_space_group_name_Hall           '-C 2yn'
loop_
_symmetry_equiv_pos_site_id
_symmetry_equiv_pos_as_xyz
1 x,y,z
2 -x,y,1/2-z
3 1/2+x,1/2+y,z
4 1/2-x,1/2+y,1/2-z
5 -x,-y,-z
6 x,-y,1/2+z
7 1/2-x,1/2-y,-z
8 1/2+x,1/2-y,1/2+z
_cell_length_a                   38.493(13)
_cell_length_b                   10.095(4)
_cell_length_c                   13.726(5)
_cell_angle_alpha                90
_cell_angle_beta                 100.998(7)
_cell_angle_gamma                90
_cell_volume                     5235.78
_cell_formula_units_Z            8
loop_
_atom_site_label
_atom_site_type_symbol
_atom_site_fract_x
_atom_site_fract_y
_atom_site_fract_z
C1 C 0.55314(19) 0.3934(7) 0.6924(5)
C2 C 0.5447(3) 0.5126(9) 0.7297(7)
H1 H 0.5283 0.5666 0.6895
C3 C 0.5590(3) 0.5557(10) 0.8220(8)
H2 H 0.5526 0.6380 0.8435
C4 C 0.5824(3) 0.4795(11) 0.8829(7)
H3 H 0.5928 0.5090 0.9460
C5 C 0.5907(3) 0.3577(12) 0.8499(7)
H4 H 0.6059 0.3015 0.8917
C6 C 0.5763(2) 0.3181(10) 0.7531(7)
H5 H 0.5830 0.2370 0.7303
C7 C 0.5366(2) 0.3428(8) 0.5931(5)
H6 H 0.5549 0.3064 0.5612
H7 H 0.5257 0.4162 0.5528
C8 C 0.50834(19) 0.2353(8) 0.5962(5)
H8 H 0.5196 0.1605 0.6340
H9 H 0.4908 0.2705 0.6316
C9 C 0.48981(18) 0.1866(7) 0.4979(5)
C10 C 0.45997(16) 0.0966(6) 0.4873(4)
C11 C 0.44894(18) 0.0297(7) 0.5654(4)
C12 C 0.41868(18) -0.0436(7) 0.5513(4)
H10 H 0.4126 -0.0902 0.6040
C13 C 0.39728(17) -0.0487(7) 0.4593(4)
C14 C 0.40587(17) 0.0150(7) 0.3759(4)
C15 C 0.43854(18) 0.0764(7) 0.3914(4)
C16 C 0.38157(17) 0.0103(7) 0.2766(5)
H11 H 0.3955 -0.0218 0.2285
C17 C 0.35215(17) -0.0888(7) 0.2780(4)
C18 C 0.34558(18) -0.1399(7) 0.3632(5)
C19 C 0.3315(2) -0.1311(8) 0.1835(5)
C20 C 0.2981(2) -0.2138(9) 0.1779(6)
C21 C 0.2938(2) -0.2728(10) 0.2773(6)
C22 C 0.3151(2) -0.2312(8) 0.3748(6)
C23 C 0.36634(18) 0.1479(7) 0.2396(5)
H12 H 0.3862 0.2062 0.2374
H13 H 0.3537 0.1371 0.1719
C24 C 0.3420(3) 0.2181(9) 0.2965(7)
H14 H 0.3258 0.1516 0.3142
C25 C 0.3205(3) 0.3206(12) 0.2395(9)
H15 H 0.3340 0.4011 0.2424
H16 H 0.2997 0.3356 0.2670
H17 H 0.3138 0.2927 0.1717
C26 C 0.3619(4) 0.2770(13) 0.3920(8)
H18 H 0.3795 0.3372 0.3778
H19 H 0.3730 0.2075 0.4345
H20 H 0.3456 0.3239 0.4246
C27 C 0.2674(3) -0.1211(14) 0.1449(9)
H21 H 0.2479 -0.1696 0.1075
H22 H 0.2744 -0.0525 0.1040
H23 H 0.2605 -0.0821 0.2020
C28 C 0.2989(3) -0.3278(11) 0.1065(7)
H24 H 0.3187 -0.3841 0.1312
H25 H 0.3011 -0.2936 0.0427
H26 H 0.2774 -0.3778 0.1004
C29 C 0.2903(3) -0.1556(13) 0.4305(8)
H27 H 0.2856 -0.0691 0.4019
H28 H 0.3013 -0.1471 0.4991
H29 H 0.2684 -0.2033 0.4254
C30 C 0.3292(3) -0.3503(10) 0.4371(7)
H30 H 0.3099 -0.4078 0.4436
H31 H 0.3409 -0.3212 0.5016
H32 H 0.3457 -0.3972 0.4055
O1 O 0.49948(12) 0.2318(5) 0.4218(3)
O2 O 0.44870(12) 0.1273(5) 0.3098(3)
H33 H 0.4663 0.1738 0.3268
O3 O 0.47029(13) 0.0340(5) 0.6582(3)
H34 H 0.4622 -0.0152 0.6959
O4 O 0.36599(13) -0.1134(5) 0.4548(3)
O5 O 0.34075(15) -0.1003(6) 0.1070(4)
O6 O 0.2714(2) -0.3563(8) 0.2747(5)
loop_
_geom_bond_atom_site_label_1
_geom_bond_atom_site_label_2
_geom_bond_site_symmetry_1
_geom_bond_site_symmetry_2
C1 C2 1_555 1_555
C2 H1 1_555 1_555
C3 C2 1_555 1_555
H2 C3 1_555 1_555
C4 C3 1_555 1_555
H3 C4 1_555 1_555
C5 C4 1_555 1_555
H4 C5 1_555 1_555
C6 C1 1_555 1_555
H5 C6 1_555 1_555
C7 C1 1_555 1_555
H6 C7 1_555 1_555
H7 C7 1_555 1_555
C8 C7 1_555 1_555
H8 C8 1_555 1_555
H9 C8 1_555 1_555
C9 C8 1_555 1_555
C10 C9 1_555 1_555
C11 C10 1_555 1_555
C12 C11 1_555 1_555
H10 C12 1_555 1_555
C13 C12 1_555 1_555
C14 C13 1_555 1_555
C15 C10 1_555 1_555
C16 C14 1_555 1_555
H11 C16 1_555 1_555
C17 C16 1_555 1_555
C18 C17 1_555 1_555
C19 C17 1_555 1_555
C20 C19 1_555 1_555
C21 C20 1_555 1_555
C22 C18 1_555 1_555
C23 C16 1_555 1_555
H12 C23 1_555 1_555
H13 C23 1_555 1_555
C24 C23 1_555 1_555
H14 C24 1_555 1_555
C25 C24 1_555 1_555
H15 C25 1_555 1_555
H16 C25 1_555 1_555
H17 C25 1_555 1_555
C26 C24 1_555 1_555
H18 C26 1_555 1_555
H19 C26 1_555 1_555
H20 C26 1_555 1_555
C27 C20 1_555 1_555
H21 C27 1_555 1_555
H22 C27 1_555 1_555
H23 C27 1_555 1_555
C28 C20 1_555 1_555
H24 C28 1_555 1_555
H25 C28 1_555 1_555
H26 C28 1_555 1_555
C29 C22 1_555 1_555
H27 C29 1_555 1_555
H28 C29 1_555 1_555
H29 C29 1_555 1_555
C30 C22 1_555 1_555
H30 C30 1_555 1_555
H31 C30 1_555 1_555
H32 C30 1_555 1_555
O1 C9 1_555 1_555
O2 C15 1_555 1_555
H33 O2 1_555 1_555
O3 C11 1_555 1_555
H34 O3 1_555 1_555
O4 C13 1_555 1_555
O5 C19 1_555 1_555
O6 C21 1_555 1_555
C5 C6 1_555 1_555
C14 C15 1_555 1_555
C18 O4 1_555 1_555
C21 C22 1_555 1_555

#END
