
#######################################################################
#
#                 Cambridge Crystallographic Data Centre
#                                CCDC 
#
#######################################################################
#
# If this CIF has been generated from an entry in the Cambridge 
# Structural Database, then it will include bibliographic, chemical, 
# crystal, experimental, refinement or atomic coordinate data resulting 
# from the CCDC's data processing and validation procedures.
#
#######################################################################

data_EFUTOQ
_chemical_formula_moiety         'C18 H40 Mg1 N2 Si2'
_chemical_name_systematic        
(2,3-dimethyl-1,4-bis(trimethylsilyl)buta-1,3-diene-1,4-diyl)-(N,N,N',N'-tetramethylethane-1,2-diamine)-magnesium
_symmetry_cell_setting           orthorhombic
_symmetry_space_group_name_H-M   'P b c a'
_symmetry_Int_Tables_number      61
_space_group_name_Hall           '-P 2ac 2ab'
loop_
_symmetry_equiv_pos_site_id
_symmetry_equiv_pos_as_xyz
1 x,y,z
2 1/2+x,1/2-y,-z
3 -x,1/2+y,1/2-z
4 1/2-x,-y,1/2+z
5 -x,-y,-z
6 1/2-x,1/2+y,z
7 x,1/2-y,1/2+z
8 1/2+x,y,1/2-z
_cell_length_a                   15.856(3)
_cell_length_b                   12.068(2)
_cell_length_c                   24.181(5)
_cell_angle_alpha                90
_cell_angle_beta                 90
_cell_angle_gamma                90
_cell_volume                     4627.04
_exptl_crystal_colour            yellow
_exptl_crystal_description       block
_cell_formula_units_Z            8
loop_
_atom_site_label
_atom_site_type_symbol
_atom_site_fract_x
_atom_site_fract_y
_atom_site_fract_z
Si1 Si 0.71077(9) 0.34096(11) 0.47128(6)
Si2 Si 0.69347(9) 0.36549(11) 0.75176(6)
Mg1 Mg 0.79233(10) 0.36026(12) 0.61354(7)
N1 N 0.8873(3) 0.2296(3) 0.61151(18)
N2 N 0.9034(3) 0.4708(3) 0.61819(18)
C1 C 0.7024(3) 0.3580(4) 0.5482(2)
C2 C 0.6295(3) 0.3520(4) 0.5775(2)
C3 C 0.6254(3) 0.3631(4) 0.6413(2)
C4 C 0.6953(3) 0.3628(4) 0.6741(2)
C5 C 0.8210(3) 0.3653(4) 0.4448(2)
C6 C 0.6863(3) 0.1933(4) 0.4497(2)
C7 C 0.6449(3) 0.4390(4) 0.4283(2)
C8 C 0.5445(3) 0.3339(4) 0.5489(2)
C9 C 0.5362(3) 0.3713(4) 0.6650(2)
C10 C 0.6328(3) 0.2456(4) 0.7820(2)
C11 C 0.6524(4) 0.4986(4) 0.7830(2)
C12 C 0.8012(3) 0.3489(5) 0.7826(2)
C13 C 0.8971(3) 0.5564(4) 0.6625(2)
C14 C 0.9155(4) 0.5271(4) 0.5640(2)
C15 C 0.9740(3) 0.3944(4) 0.6308(2)
C16 C 0.9666(3) 0.2872(4) 0.5977(2)
C17 C 0.8950(4) 0.1745(4) 0.6662(2)
C18 C 0.8703(3) 0.1427(4) 0.5685(2)
H1 H 0.8372(8) 0.4424(8) 0.4518(11)
H2 H 0.8602(4) 0.3156(18) 0.4639(9)
H3 H 0.8228(5) 0.351(2) 0.4050(3)
H4 H 0.7228(14) 0.1420(4) 0.4701(10)
H5 H 0.6272(6) 0.1765(9) 0.4579(12)
H6 H 0.6964(19) 0.1849(8) 0.4099(3)
H7 H 0.5852(4) 0.4289(19) 0.4375(10)
H8 H 0.6616(14) 0.5155(4) 0.4363(10)
H9 H 0.6537(16) 0.4233(18) 0.3890(2)
H10 H 0.5539(3) 0.313(2) 0.5101(4)
H11 H 0.5137(8) 0.2743(17) 0.5676(8)
H12 H 0.5113(8) 0.4023(8) 0.5505(11)
H13 H 0.5393(3) 0.392(2) 0.7041(4)
H14 H 0.5044(7) 0.4276(18) 0.6446(8)
H15 H 0.5079(7) 0.2995(8) 0.6615(12)
H16 H 0.5749(7) 0.2466(16) 0.7679(10)
H17 H 0.6601(12) 0.1758(4) 0.7715(11)
H18 H 0.6320(17) 0.2520(15) 0.8224(2)
H19 H 0.6881(13) 0.5606(6) 0.7713(11)
H20 H 0.5944(8) 0.5113(15) 0.7706(11)
H21 H 0.653(2) 0.4929(11) 0.8235(2)
H22 H 0.8229(9) 0.2749(11) 0.7740(12)
H23 H 0.8391(6) 0.4051(17) 0.7672(10)
H24 H 0.7978(5) 0.358(3) 0.8228(3)
H25 H 0.8491(13) 0.6052(17) 0.6549(7)
H26 H 0.889(2) 0.5200(4) 0.6983(3)
H27 H 0.9492(9) 0.6002(18) 0.6633(9)
H28 H 0.919(2) 0.4714(5) 0.5347(3)
H29 H 0.8675(11) 0.576(2) 0.5568(7)
H30 H 0.9676(12) 0.571(2) 0.5650(5)
H31 H 1.0281(3) 0.4311(4) 0.6219(2)
H32 H 0.9739(3) 0.3769(4) 0.6708(2)
H33 H 1.0151(3) 0.2385(4) 0.6062(2)
H34 H 0.9678(3) 0.3043(4) 0.5577(2)
H35 H 0.907(2) 0.2302(5) 0.6946(3)
H36 H 0.8420(8) 0.137(2) 0.6750(6)
H37 H 0.9409(14) 0.120(2) 0.6649(5)
H38 H 0.8182(11) 0.1031(18) 0.5779(7)
H39 H 0.864(2) 0.1781(5) 0.5323(3)
H40 H 0.9174(10) 0.0903(15) 0.5674(9)
loop_
_geom_bond_atom_site_label_1
_geom_bond_atom_site_label_2
_geom_bond_site_symmetry_1
_geom_bond_site_symmetry_2
Si1 C1 1_555 1_555
Si2 C4 1_555 1_555
Mg1 N1 1_555 1_555
N1 C16 1_555 1_555
N2 Mg1 1_555 1_555
C1 Mg1 1_555 1_555
C2 C1 1_555 1_555
C3 C2 1_555 1_555
C4 Mg1 1_555 1_555
C5 Si1 1_555 1_555
C6 Si1 1_555 1_555
C7 Si1 1_555 1_555
C8 C2 1_555 1_555
C9 C3 1_555 1_555
C10 Si2 1_555 1_555
C11 Si2 1_555 1_555
C12 Si2 1_555 1_555
C13 N2 1_555 1_555
C14 N2 1_555 1_555
C15 N2 1_555 1_555
C16 C15 1_555 1_555
C17 N1 1_555 1_555
C18 N1 1_555 1_555
H1 C5 1_555 1_555
H2 C5 1_555 1_555
H3 C5 1_555 1_555
H4 C6 1_555 1_555
H5 C6 1_555 1_555
H6 C6 1_555 1_555
H7 C7 1_555 1_555
H8 C7 1_555 1_555
H9 C7 1_555 1_555
H10 C8 1_555 1_555
H11 C8 1_555 1_555
H12 C8 1_555 1_555
H13 C9 1_555 1_555
H14 C9 1_555 1_555
H15 C9 1_555 1_555
H16 C10 1_555 1_555
H17 C10 1_555 1_555
H18 C10 1_555 1_555
H19 C11 1_555 1_555
H20 C11 1_555 1_555
H21 C11 1_555 1_555
H22 C12 1_555 1_555
H23 C12 1_555 1_555
H24 C12 1_555 1_555
H25 C13 1_555 1_555
H26 C13 1_555 1_555
H27 C13 1_555 1_555
H28 C14 1_555 1_555
H29 C14 1_555 1_555
H30 C14 1_555 1_555
H31 C15 1_555 1_555
H32 C15 1_555 1_555
H33 C16 1_555 1_555
H34 C16 1_555 1_555
H35 C17 1_555 1_555
H36 C17 1_555 1_555
H37 C17 1_555 1_555
H38 C18 1_555 1_555
H39 C18 1_555 1_555
H40 C18 1_555 1_555
C3 C4 1_555 1_555

#END
