
#######################################################################
#
#                 Cambridge Crystallographic Data Centre
#                                CCDC 
#
#######################################################################
#
# If this CIF has been generated from an entry in the Cambridge 
# Structural Database, then it will include bibliographic, chemical, 
# crystal, experimental, refinement or atomic coordinate data resulting 
# from the CCDC's data processing and validation procedures.
#
#######################################################################

data_EFUTIK
_chemical_formula_moiety         'C28 H44 Mg1 N2 Si2'
_chemical_name_systematic        
(2,3-diphenyl-1,4-bis(trimethylsilyl)buta-1,3-diene-1,4-diyl)-(N,N,N',N'-tetramethylethane-1,2-diamine)-magnesium
_symmetry_cell_setting           monoclinic
_symmetry_space_group_name_H-M   'P 21/n'
_symmetry_Int_Tables_number      14
_space_group_name_Hall           '-P 2yn'
loop_
_symmetry_equiv_pos_site_id
_symmetry_equiv_pos_as_xyz
1 x,y,z
2 1/2-x,1/2+y,1/2-z
3 -x,-y,-z
4 1/2+x,1/2-y,1/2+z
_cell_length_a                   11.403(2)
_cell_length_b                   13.498(3)
_cell_length_c                   19.508(4)
_cell_angle_alpha                90
_cell_angle_beta                 90.00(3)
_cell_angle_gamma                90
_cell_volume                     3002.63
_exptl_crystal_colour            yellow
_exptl_crystal_description       block
_cell_formula_units_Z            4
loop_
_atom_site_label
_atom_site_type_symbol
_atom_site_fract_x
_atom_site_fract_y
_atom_site_fract_z
Si1 Si 0.84001(9) 0.18028(8) 1.04125(5)
Mg1 Mg 0.97048(9) 0.33573(8) 0.90792(5)
Si2 Si 0.84555(9) 0.49269(8) 0.77367(5)
C1 C 0.7401(3) 0.3014(2) 0.93761(14)
C2 C 0.6222(3) 0.2610(2) 0.95756(14)
C3 C 0.6221(3) 0.3998(2) 0.84900(14)
C4 C 0.7408(3) 0.3741(2) 0.87757(14)
C5 C 0.8402(3) 0.4119(2) 0.85003(16)
C6 C 0.5580(3) 0.3017(3) 1.01038(17)
H1 H 0.5827 0.3626 1.0300
C7 C 0.8386(3) 0.2715(2) 0.97104(15)
N1 N 1.1423(2) 0.3912(2) 0.94381(15)
C8 C 0.5582(3) 0.4796(3) 0.87285(17)
H2 H 0.5856 0.5151 0.9117
C9 C 0.5781(3) 0.1758(3) 0.9276(2)
H3 H 0.6175 0.1481 0.8892
C10 C 0.5752(3) 0.3474(3) 0.79480(17)
H4 H 0.6157 0.2907 0.7781
C11 C 1.2291(3) 0.3329(3) 0.9052(2)
H5 H 1.3034 0.3315 0.9314
H6 H 1.2447 0.3667 0.8611
C12 C 0.4197(3) 0.1701(3) 1.0073(2)
H7 H 0.3527 0.1377 1.0254
C13 C 0.4583(3) 0.2560(3) 1.03558(19)
H8 H 0.4167 0.2849 1.0728
N2 N 1.0785(3) 0.2288(3) 0.85256(17)
C14 C 0.4707(3) 0.3752(4) 0.76412(19)
H9 H 0.4400 0.3373 0.7273
C15 C 0.4551(3) 0.5090(3) 0.84149(19)
H10 H 0.4140 0.5655 0.8579
C16 C 0.4121(3) 0.4568(3) 0.78663(18)
H11 H 0.3419 0.4774 0.7646
C17 C 0.9917(3) 0.1605(4) 1.0723(2)
H12 H 1.0423 0.1423 1.0337
H13 H 0.9923 0.1071 1.1064
H14 H 1.0208 0.2216 1.0934
C18 C 1.1609(4) 0.3730(5) 1.0180(2)
H15 H 1.1029 0.4105 1.0445
H16 H 1.2400 0.3943 1.0309
H17 H 1.1521 0.3021 1.0276
C19 C 0.4783(4) 0.1303(3) 0.9522(2)
H18 H 0.4501 0.0715 0.9311
C20 C 1.1611(4) 0.4962(3) 0.9291(3)
H19 H 1.1522 0.5079 0.8798
H20 H 1.2404 0.5151 0.9434
H21 H 1.1035 0.5360 0.9542
C21 C 0.7429(4) 0.5998(4) 0.7711(3)
H22 H 0.6619 0.5758 0.7733
H23 H 0.7545 0.6368 0.7285
H24 H 0.7581 0.6433 0.8103
C22 C 0.9947(4) 0.5505(4) 0.7664(3)
H25 H 1.0104 0.5903 0.8074
H26 H 0.9974 0.5929 0.7257
H27 H 1.0541 0.4983 0.7624
C23 C 1.1930(4) 0.2299(4) 0.8908(3)
H28 H 1.1844 0.1933 0.9345
H29 H 1.2541 0.1965 0.8632
C24 C 0.8240(7) 0.4201(5) 0.6931(2)
H30 H 0.8637 0.3560 0.6972
H31 H 0.8569 0.4569 0.6543
H32 H 0.7400 0.4095 0.6855
C25 C 1.0354(6) 0.1272(4) 0.8639(2)
H33 H 1.0242 0.1161 0.9132
H34 H 1.0928 0.0796 0.8462
H35 H 0.9605 0.1184 0.8401
C26 C 0.7576(5) 0.2150(6) 1.1191(3)
H36 H 0.7804 0.2818 1.1335
H37 H 0.7753 0.1678 1.1559
H38 H 0.6733 0.2137 1.1092
C27 C 1.0752(6) 0.2455(4) 0.7792(3)
H39 H 0.9940 0.2418 0.7631
H40 H 1.1223 0.1948 0.7560
H41 H 1.1072 0.3112 0.7690
C28 C 0.7868(7) 0.0547(4) 1.0141(4)
H42 H 0.7044 0.0593 1.0000
H43 H 0.7939 0.0084 1.0526
H44 H 0.8342 0.0309 0.9756
loop_
_geom_bond_atom_site_label_1
_geom_bond_atom_site_label_2
_geom_bond_site_symmetry_1
_geom_bond_site_symmetry_2
Si1 C7 1_555 1_555
Mg1 C5 1_555 1_555
Si2 C5 1_555 1_555
C1 C2 1_555 1_555
C2 C6 1_555 1_555
C3 C4 1_555 1_555
C4 C1 1_555 1_555
C5 C4 1_555 1_555
C6 H1 1_555 1_555
C7 Mg1 1_555 1_555
N1 Mg1 1_555 1_555
C8 C3 1_555 1_555
H2 C8 1_555 1_555
C9 C2 1_555 1_555
H3 C9 1_555 1_555
C10 C3 1_555 1_555
H4 C10 1_555 1_555
C11 N1 1_555 1_555
H5 C11 1_555 1_555
H6 C11 1_555 1_555
C12 H7 1_555 1_555
C13 C6 1_555 1_555
H8 C13 1_555 1_555
N2 Mg1 1_555 1_555
C14 C10 1_555 1_555
H9 C14 1_555 1_555
C15 C8 1_555 1_555
H10 C15 1_555 1_555
C16 C14 1_555 1_555
H11 C16 1_555 1_555
C17 Si1 1_555 1_555
H12 C17 1_555 1_555
H13 C17 1_555 1_555
H14 C17 1_555 1_555
C18 N1 1_555 1_555
H15 C18 1_555 1_555
H16 C18 1_555 1_555
H17 C18 1_555 1_555
C19 C9 1_555 1_555
H18 C19 1_555 1_555
C20 N1 1_555 1_555
H19 C20 1_555 1_555
H20 C20 1_555 1_555
H21 C20 1_555 1_555
C21 Si2 1_555 1_555
H22 C21 1_555 1_555
H23 C21 1_555 1_555
H24 C21 1_555 1_555
C22 Si2 1_555 1_555
H25 C22 1_555 1_555
H26 C22 1_555 1_555
H27 C22 1_555 1_555
C23 C11 1_555 1_555
H28 C23 1_555 1_555
H29 C23 1_555 1_555
C24 Si2 1_555 1_555
H30 C24 1_555 1_555
H31 C24 1_555 1_555
H32 C24 1_555 1_555
C25 N2 1_555 1_555
H33 C25 1_555 1_555
H34 C25 1_555 1_555
H35 C25 1_555 1_555
C26 Si1 1_555 1_555
H36 C26 1_555 1_555
H37 C26 1_555 1_555
H38 C26 1_555 1_555
C27 N2 1_555 1_555
H39 C27 1_555 1_555
H40 C27 1_555 1_555
H41 C27 1_555 1_555
C28 Si1 1_555 1_555
H42 C28 1_555 1_555
H43 C28 1_555 1_555
H44 C28 1_555 1_555
C1 C7 1_555 1_555
C12 C13 1_555 1_555
C12 C19 1_555 1_555
N2 C23 1_555 1_555
C15 C16 1_555 1_555

#END
