
#######################################################################
#
#                 Cambridge Crystallographic Data Centre
#                                CCDC 
#
#######################################################################
#
# If this CIF has been generated from an entry in the Cambridge 
# Structural Database, then it will include bibliographic, chemical, 
# crystal, experimental, refinement or atomic coordinate data resulting 
# from the CCDC's data processing and validation procedures.
#
#######################################################################

data_EFUWUZ
_chemical_formula_moiety         'C15 H10 O4 S1'
_chemical_name_systematic        
'S-(2-furylmethyl) 2-oxo-2H-chromene-3-carbothioate'
_symmetry_cell_setting           monoclinic
_symmetry_space_group_name_H-M   'P 21/n'
_symmetry_Int_Tables_number      14
_space_group_name_Hall           '-P 2yn'
loop_
_symmetry_equiv_pos_site_id
_symmetry_equiv_pos_as_xyz
1 x,y,z
2 1/2-x,1/2+y,1/2-z
3 -x,-y,-z
4 1/2+x,1/2-y,1/2+z
_cell_length_a                   8.4897(9)
_cell_length_b                   5.3343(5)
_cell_length_c                   28.708(7)
_cell_angle_alpha                90
_cell_angle_beta                 91.517(13)
_cell_angle_gamma                90
_cell_volume                     1299.63
_exptl_crystal_colour            colorless
_exptl_crystal_description       plate
_cell_formula_units_Z            4
loop_
_atom_site_label
_atom_site_type_symbol
_atom_site_fract_x
_atom_site_fract_y
_atom_site_fract_z
S1 S 0.31496(12) 0.77222(19) 0.13817(3)
O1 O 0.1523(3) 1.1552(5) 0.09207(8)
O2 O 0.1376(3) 1.2328(4) 0.01696(8)
O3 O 0.4420(3) 0.5306(5) 0.06947(8)
O4 O 0.5661(4) 0.7929(7) 0.22338(9)
C1 C 0.1735(4) 1.1811(6) -0.02865(12)
C2 C 0.1103(4) 1.3379(7) -0.06262(13)
H1 H 0.0468 1.4725 -0.0547
C3 C 0.1433(5) 1.2902(7) -0.10836(14)
H2 H 0.1001 1.3921 -0.1317
C4 C 0.2403(4) 1.0924(8) -0.12023(13)
H3 H 0.2629 1.0638 -0.1513
C5 C 0.3030(4) 0.9387(7) -0.08619(12)
H4 H 0.3676 0.8058 -0.0943
C6 C 0.2700(4) 0.9810(6) -0.03912(11)
C7 C 0.3276(4) 0.8286(6) -0.00156(11)
H5 H 0.3915 0.6921 -0.0080
C8 C 0.2919(4) 0.8768(6) 0.04308(12)
C9 C 0.1922(4) 1.0899(7) 0.05416(13)
C10 C 0.3588(4) 0.7075(6) 0.07987(12)
C11 C 0.4326(5) 0.5292(7) 0.16667(12)
H6 H 0.3770 0.3704 0.1650
H7 H 0.5318 0.5103 0.1510
C12 C 0.4627(5) 0.5993(8) 0.21612(13)
C13 C 0.4093(5) 0.5262(9) 0.25675(14)
H8 H 0.3371 0.3981 0.2614
C14 C 0.4808(5) 0.6760(9) 0.29185(15)
H9 H 0.4649 0.6662 0.3237
C15 C 0.5739(7) 0.8315(11) 0.27059(16)
H10 H 0.6366 0.9517 0.2855
loop_
_geom_bond_atom_site_label_1
_geom_bond_atom_site_label_2
_geom_bond_site_symmetry_1
_geom_bond_site_symmetry_2
S1 C10 1_555 1_555
O1 C9 1_555 1_555
O2 C1 1_555 1_555
O3 C10 1_555 1_555
O4 C12 1_555 1_555
C1 C2 1_555 1_555
C2 H1 1_555 1_555
C3 C2 1_555 1_555
H2 C3 1_555 1_555
C4 C3 1_555 1_555
H3 C4 1_555 1_555
C5 C4 1_555 1_555
H4 C5 1_555 1_555
C6 C1 1_555 1_555
C7 C6 1_555 1_555
H5 C7 1_555 1_555
C8 C7 1_555 1_555
C9 O2 1_555 1_555
C10 C8 1_555 1_555
C11 S1 1_555 1_555
H6 C11 1_555 1_555
H7 C11 1_555 1_555
C12 C11 1_555 1_555
C13 C12 1_555 1_555
H8 C13 1_555 1_555
C14 C13 1_555 1_555
H9 C14 1_555 1_555
C15 O4 1_555 1_555
H10 C15 1_555 1_555
C5 C6 1_555 1_555
C8 C9 1_555 1_555
C14 C15 1_555 1_555

#END
