
#######################################################################
#
#                 Cambridge Crystallographic Data Centre
#                                CCDC 
#
#######################################################################
#
# If this CIF has been generated from an entry in the Cambridge 
# Structural Database, then it will include bibliographic, chemical, 
# crystal, experimental, refinement or atomic coordinate data resulting 
# from the CCDC's data processing and validation procedures.
#
#######################################################################

data_EFUWEJ
_chemical_formula_moiety         'C26 H54 Mg2 O2 Si2'
_chemical_name_systematic        
(\m-2,3-dimethyl-1,4-bis(trimethylsilyl)buta-1,3-diene-1,4-diyl)-bis(tetrahydrofuran)-diisopropyl-di-magnesium
_symmetry_cell_setting           orthorhombic
_symmetry_space_group_name_H-M   'P b c a'
_symmetry_Int_Tables_number      61
_space_group_name_Hall           '-P 2ac 2ab'
loop_
_symmetry_equiv_pos_site_id
_symmetry_equiv_pos_as_xyz
1 x,y,z
2 1/2-x,-y,1/2+z
3 1/2+x,1/2-y,-z
4 -x,1/2+y,1/2-z
5 -x,-y,-z
6 1/2+x,y,1/2-z
7 1/2-x,1/2+y,z
8 x,1/2-y,1/2+z
_cell_length_a                   15.7668(3)
_cell_length_b                   19.7588(4)
_cell_length_c                   20.4547(4)
_cell_angle_alpha                90
_cell_angle_beta                 90
_cell_angle_gamma                90
_cell_volume                     6372.32
_exptl_crystal_colour            'metallic light red'
_cell_formula_units_Z            8
loop_
_atom_site_label
_atom_site_type_symbol
_atom_site_fract_x
_atom_site_fract_y
_atom_site_fract_z
Si1 Si 0.60799(5) 0.22515(4) 0.32599(4)
Si2 Si 0.81366(6) -0.02254(4) 0.47306(4)
Mg1 Mg 0.72988(6) 0.06369(5) 0.32641(5)
Mg2 Mg 0.78043(6) 0.15605(5) 0.42675(5)
O1 O 0.74760(14) 0.19700(12) 0.51575(10)
O2 O 0.63461(15) -0.00339(11) 0.30018(11)
C1 C 0.65822(19) 0.15565(15) 0.37253(14)
C2 C 0.61525(19) 0.10856(16) 0.40794(14)
C3 C 0.66436(19) 0.05595(16) 0.44839(15)
C4 C 0.7454(2) 0.04087(15) 0.43201(14)
C5 C 0.5189(2) 0.10192(19) 0.41056(18)
H1 H 0.4978 0.1213 0.4516
H2 H 0.5031 0.0540 0.4082
H3 H 0.4937 0.1262 0.3736
C6 C 0.6158(2) 0.0238(2) 0.50493(18)
H4 H 0.6558 0.0097 0.5390
H5 H 0.5846 -0.0158 0.4890
H6 H 0.5758 0.0567 0.5231
C7 C 0.8169(2) 0.06768(18) 0.24554(16)
H7 H 0.8740 0.0759 0.2651
C8 C 0.8238(3) 0.0006(2) 0.2091(2)
H8 H 0.8389 -0.0353 0.2400
H9 H 0.8677 0.0042 0.1754
H10 H 0.7692 -0.0100 0.1886
C9 C 0.8023(3) 0.1253(2) 0.1973(2)
H11 H 0.7464 0.1202 0.1770
H12 H 0.8462 0.1241 0.1635
H13 H 0.8049 0.1686 0.2206
C10 C 0.9046(2) 0.19331(17) 0.40214(15)
H14 H 0.9064 0.1918 0.3533
C11 C 0.9214(2) 0.26733(18) 0.4190(2)
H15 H 0.8753 0.2954 0.4016
H16 H 0.9753 0.2816 0.3995
H17 H 0.9242 0.2726 0.4666
C12 C 0.9811(2) 0.15147(19) 0.4235(2)
H18 H 0.9849 0.1515 0.4713
H19 H 1.0329 0.1712 0.4051
H20 H 0.9747 0.1049 0.4078
C13 C 0.5604(2) 0.19580(18) 0.24677(17)
H21 H 0.6035 0.1718 0.2212
H22 H 0.5399 0.2350 0.2220
H23 H 0.5128 0.1652 0.2558
C14 C 0.5228(2) 0.27045(18) 0.37315(19)
H24 H 0.4716 0.2424 0.3745
H25 H 0.5099 0.3136 0.3517
H26 H 0.5426 0.2790 0.4178
C15 C 0.6923(2) 0.28934(17) 0.30797(17)
H27 H 0.7134 0.3085 0.3491
H28 H 0.6684 0.3256 0.2809
H29 H 0.7391 0.2676 0.2845
C16 C 0.7613(3) -0.10369(19) 0.4993(2)
H30 H 0.7261 -0.1210 0.4635
H31 H 0.7256 -0.0951 0.5377
H32 H 0.8048 -0.1372 0.5104
C17 C 0.8651(2) 0.0154(2) 0.54731(17)
H33 H 0.9028 -0.0180 0.5675
H34 H 0.8212 0.0288 0.5787
H35 H 0.8980 0.0553 0.5345
C18 C 0.8970(2) -0.04767(18) 0.41269(18)
H36 H 0.9274 -0.0073 0.3977
H37 H 0.8703 -0.0700 0.3752
H38 H 0.9371 -0.0789 0.4335
C19 C 0.8115(2) 0.21142(19) 0.56487(16)
H39 H 0.8253 0.2603 0.5656
H40 H 0.8640 0.1855 0.5562
C20 C 0.7718(3) 0.1897(3) 0.6287(2)
H41 H 0.7817 0.1410 0.6372
H42 H 0.7941 0.2165 0.6658
C21 C 0.6807(3) 0.2038(3) 0.6174(2)
H43 H 0.6455 0.1687 0.6387
H44 H 0.6654 0.2483 0.6363
C22 C 0.6653(2) 0.2040(2) 0.54661(17)
H45 H 0.6279 0.1659 0.5342
H46 H 0.6379 0.2469 0.5331
C23 C 0.5787(3) 0.00631(18) 0.24494(18)
H47 H 0.6081 0.0306 0.2093
H48 H 0.5279 0.0325 0.2579
C24 C 0.5544(3) -0.0639(2) 0.2236(2)
H49 H 0.4967 -0.0645 0.2044
H50 H 0.5951 -0.0819 0.1912
C25 C 0.5573(3) -0.1038(2) 0.2854(2)
H51 H 0.5708 -0.1518 0.2764
H52 H 0.5024 -0.1013 0.3087
C26 C 0.6260(3) -0.0714(2) 0.3244(2)
H53 H 0.6108 -0.0710 0.3714
H54 H 0.6798 -0.0965 0.3190
loop_
_geom_bond_atom_site_label_1
_geom_bond_atom_site_label_2
_geom_bond_site_symmetry_1
_geom_bond_site_symmetry_2
Si1 C1 1_555 1_555
Si2 C4 1_555 1_555
Mg1 O2 1_555 1_555
Mg2 O1 1_555 1_555
O1 C19 1_555 1_555
O2 C23 1_555 1_555
C1 Mg1 1_555 1_555
C2 C1 1_555 1_555
C3 C2 1_555 1_555
C4 Mg1 1_555 1_555
C5 C2 1_555 1_555
H1 C5 1_555 1_555
H2 C5 1_555 1_555
H3 C5 1_555 1_555
C6 C3 1_555 1_555
H4 C6 1_555 1_555
H5 C6 1_555 1_555
H6 C6 1_555 1_555
C7 Mg1 1_555 1_555
H7 C7 1_555 1_555
C8 C7 1_555 1_555
H8 C8 1_555 1_555
H9 C8 1_555 1_555
H10 C8 1_555 1_555
C9 C7 1_555 1_555
H11 C9 1_555 1_555
H12 C9 1_555 1_555
H13 C9 1_555 1_555
C10 Mg2 1_555 1_555
H14 C10 1_555 1_555
C11 C10 1_555 1_555
H15 C11 1_555 1_555
H16 C11 1_555 1_555
H17 C11 1_555 1_555
C12 C10 1_555 1_555
H18 C12 1_555 1_555
H19 C12 1_555 1_555
H20 C12 1_555 1_555
C13 Si1 1_555 1_555
H21 C13 1_555 1_555
H22 C13 1_555 1_555
H23 C13 1_555 1_555
C14 Si1 1_555 1_555
H24 C14 1_555 1_555
H25 C14 1_555 1_555
H26 C14 1_555 1_555
C15 Si1 1_555 1_555
H27 C15 1_555 1_555
H28 C15 1_555 1_555
H29 C15 1_555 1_555
C16 Si2 1_555 1_555
H30 C16 1_555 1_555
H31 C16 1_555 1_555
H32 C16 1_555 1_555
C17 Si2 1_555 1_555
H33 C17 1_555 1_555
H34 C17 1_555 1_555
H35 C17 1_555 1_555
C18 Si2 1_555 1_555
H36 C18 1_555 1_555
H37 C18 1_555 1_555
H38 C18 1_555 1_555
C19 H39 1_555 1_555
H40 C19 1_555 1_555
C20 C19 1_555 1_555
H41 C20 1_555 1_555
H42 C20 1_555 1_555
C21 C20 1_555 1_555
H43 C21 1_555 1_555
H44 C21 1_555 1_555
C22 O1 1_555 1_555
H45 C22 1_555 1_555
H46 C22 1_555 1_555
C23 H47 1_555 1_555
H48 C23 1_555 1_555
C24 C23 1_555 1_555
H49 C24 1_555 1_555
H50 C24 1_555 1_555
C25 C24 1_555 1_555
H51 C25 1_555 1_555
H52 C25 1_555 1_555
C26 O2 1_555 1_555
H53 C26 1_555 1_555
H54 C26 1_555 1_555
Mg2 C1 1_555 1_555
Mg2 C4 1_555 1_555
C3 C4 1_555 1_555
C21 C22 1_555 1_555
C25 C26 1_555 1_555

#END
