
#######################################################################
#
#                 Cambridge Crystallographic Data Centre
#                                CCDC 
#
#######################################################################
#
# If this CIF has been generated from an entry in the Cambridge 
# Structural Database, then it will include bibliographic, chemical, 
# crystal, experimental, refinement or atomic coordinate data resulting 
# from the CCDC's data processing and validation procedures.
#
#######################################################################

data_EFUXOT
_chemical_formula_moiety         'C6 H4 N3 O2 1+,C7 H7 O3 S1 1-'
_chemical_name_systematic        'o-Nitrobenzenediazonium p-tosylate'
_symmetry_cell_setting           triclinic
_symmetry_space_group_name_H-M   'P -1'
_symmetry_Int_Tables_number      2
_space_group_name_Hall           '-P 1'
loop_
_symmetry_equiv_pos_site_id
_symmetry_equiv_pos_as_xyz
1 x,y,z
2 -x,-y,-z
_cell_length_a                   7.5090(15)
_cell_length_b                   7.5460(15)
_cell_length_c                   13.672(3)
_cell_angle_alpha                78.64(3)
_cell_angle_beta                 75.67(3)
_cell_angle_gamma                75.60(3)
_cell_volume                     719.401
_exptl_crystal_colour            colorless
_exptl_crystal_description       block
_chemical_melting_point          155deg.C
_cell_formula_units_Z            2
_exptl_crystal_recrystallization_method 'acetic acid/diethyl ether'
loop_
_atom_site_label
_atom_site_type_symbol
_atom_site_fract_x
_atom_site_fract_y
_atom_site_fract_z
S1 S 0.27816(5) 0.45109(5) 0.34868(2)
O3 O 0.13433(16) 0.57989(15) 0.30097(8)
O4 O 0.2019(2) 0.31597(17) 0.42900(9)
O5 O 0.39832(17) 0.54397(19) 0.38021(10)
C7 C 0.7471(3) 0.0360(3) 0.00023(14)
C8 C 0.6388(2) 0.1361(3) 0.08960(12)
C9 C 0.6197(3) 0.3258(3) 0.08203(12)
C10 C 0.5119(2) 0.4219(2) 0.16142(12)
C11 C 0.4253(2) 0.3249(2) 0.25072(11)
C12 C 0.4473(2) 0.1343(2) 0.26076(12)
C13 C 0.5532(3) 0.0410(2) 0.17983(13)
H5 H 0.668(4) 0.043(4) -0.045(2)
H6 H 0.817(4) -0.077(4) 0.022(2)
H7 H 0.835(4) 0.116(4) -0.049(2)
H8 H 0.680(3) 0.393(3) 0.0194(16)
H9 H 0.497(3) 0.557(3) 0.1523(14)
H10 H 0.393(3) 0.063(3) 0.3243(15)
H11 H 0.565(3) -0.095(3) 0.1901(16)
O1 O 0.9129(2) 0.5710(2) -0.09508(9)
O2 O 1.14230(19) 0.37217(17) -0.17092(9)
N1 N 1.0405(2) 0.5267(2) -0.16643(10)
N2 N 1.24354(19) 0.44291(18) -0.36611(10)
N3 N 1.2998(2) 0.3035(2) -0.38661(11)
C1 C 1.1795(2) 0.6274(2) -0.34884(11)
C2 C 1.2163(2) 0.7611(2) -0.43198(11)
C3 C 1.1487(3) 0.9447(2) -0.41758(12)
C4 C 1.0438(3) 0.9906(2) -0.32374(13)
C5 C 1.0080(2) 0.8534(2) -0.24142(12)
C6 C 1.0765(2) 0.6710(2) -0.25311(11)
H1 H 1.279(3) 0.727(3) -0.4943(17)
H2 H 1.166(3) 1.036(3) -0.4700(17)
H3 H 1.001(4) 1.114(4) -0.3140(18)
H4 H 0.938(3) 0.880(3) -0.1729(16)
loop_
_geom_bond_atom_site_label_1
_geom_bond_atom_site_label_2
_geom_bond_site_symmetry_1
_geom_bond_site_symmetry_2
S1 O3 1_555 1_555
O1 N1 1_555 1_555
O2 N1 1_555 1_555
O4 S1 1_555 1_555
O5 S1 1_555 1_555
N1 C6 1_555 1_555
N2 N3 1_555 1_555
C1 N2 1_555 1_555
C2 C1 1_555 1_555
C3 C2 1_555 1_555
C4 C3 1_555 1_555
C5 C4 1_555 1_555
C6 C1 1_555 1_555
C7 C8 1_555 1_555
C8 C9 1_555 1_555
C9 C10 1_555 1_555
C10 C11 1_555 1_555
C11 S1 1_555 1_555
C12 C11 1_555 1_555
C13 C8 1_555 1_555
H1 C2 1_555 1_555
H2 C3 1_555 1_555
H3 C4 1_555 1_555
H4 C5 1_555 1_555
H5 C7 1_555 1_555
H6 C7 1_555 1_555
H7 C7 1_555 1_555
H8 C9 1_555 1_555
H9 C10 1_555 1_555
H10 C12 1_555 1_555
H11 C13 1_555 1_555
C5 C6 1_555 1_555
C12 C13 1_555 1_555

#END
