
#######################################################################
#
#                 Cambridge Crystallographic Data Centre
#                                CCDC 
#
#######################################################################
#
# If this CIF has been generated from an entry in the Cambridge 
# Structural Database, then it will include bibliographic, chemical, 
# crystal, experimental, refinement or atomic coordinate data resulting 
# from the CCDC's data processing and validation procedures.
#
#######################################################################

data_EFUZOW
_chemical_formula_moiety         'C10 H10 N1 1+,C7 H6 N1 O2 1-'
_chemical_name_systematic        '2-methylquinolinium 4-aminobenzoate'
_symmetry_cell_setting           triclinic
_symmetry_space_group_name_H-M   'P -1'
_symmetry_Int_Tables_number      2
_space_group_name_Hall           '-P 1'
loop_
_symmetry_equiv_pos_site_id
_symmetry_equiv_pos_as_xyz
1 x,y,z
2 -x,-y,-z
_cell_length_a                   7.3794(6)
_cell_length_b                   18.9851(16)
_cell_length_c                   23.371(2)
_cell_angle_alpha                113.482(2)
_cell_angle_beta                 91.9990(10)
_cell_angle_gamma                90.3610(10)
_cell_volume                     3000.53
_exptl_crystal_colour            colorless
_exptl_crystal_description       block
_cell_formula_units_Z            8
loop_
_atom_site_label
_atom_site_type_symbol
_atom_site_fract_x
_atom_site_fract_y
_atom_site_fract_z
N1 N 0.8051(9) 0.1104(4) 1.0183(3)
H1 H 0.8216 0.1546 1.0485
C1 C 0.8165(12) 0.1049(5) 0.9618(5)
C2 C 0.7859(15) 0.0329(7) 0.9124(5)
H2 H 0.7918 0.0285 0.8714
C3 C 0.7477(14) -0.0307(6) 0.9236(5)
H3 H 0.7326 -0.0783 0.8904
C4 C 0.7316(11) -0.0249(5) 0.9836(4)
C5 C 0.7674(11) 0.0476(5) 1.0318(4)
C6 C 0.7524(14) 0.0565(6) 1.0937(5)
H4 H 0.7721 0.1042 1.1264
C7 C 0.7068(16) -0.0082(7) 1.1053(5)
H5 H 0.6958 -0.0033 1.1462
C8 C 0.6781(16) -0.0788(7) 1.0571(6)
H6 H 0.6518 -0.1214 1.0657
C9 C 0.6875(12) -0.0867(6) 0.9986(5)
H7 H 0.6642 -0.1347 0.9667
C10 C 0.8550(16) 0.1756(6) 0.9506(5)
H8 H 0.7432 0.1952 0.9413
H9 H 0.9329 0.1633 0.9161
H10 H 0.9135 0.2138 0.9873
N2 N 0.2745(8) 0.0887(4) 0.4848(3)
H11 H 0.3005 0.1043 0.4561
C11 C 0.2341(11) 0.1398(5) 0.5399(4)
C12 C 0.1816(11) 0.1166(5) 0.5867(4)
H12 H 0.1487 0.1529 0.6252
C13 C 0.1787(11) 0.0399(5) 0.5757(4)
H13 H 0.1462 0.0239 0.6068
C14 C 0.2256(10) -0.0142(5) 0.5167(4)
C15 C 0.2766(10) 0.0116(5) 0.4713(4)
C16 C 0.3231(11) -0.0396(5) 0.4128(4)
H14 H 0.3579 -0.0219 0.3829
C17 C 0.3172(12) -0.1180(6) 0.3993(4)
H15 H 0.3447 -0.1530 0.3597
C18 C 0.2704(14) -0.1443(6) 0.4446(5)
H16 H 0.2694 -0.1967 0.4355
C19 C 0.2270(12) -0.0947(6) 0.5010(5)
H17 H 0.1968 -0.1132 0.5309
C20 C 0.2370(14) 0.2231(5) 0.5502(4)
H18 H 0.3560 0.2377 0.5430
H19 H 0.2063 0.2538 0.5923
H20 H 0.1504 0.2310 0.5218
N3 N 0.7770(8) 0.4086(4) 0.5151(3)
H21 H 0.8108 0.3929 0.5436
C21 C 0.7209(11) 0.3582(5) 0.4600(4)
C22 C 0.6617(12) 0.3830(6) 0.4135(4)
H22 H 0.6226 0.3472 0.3744
C23 C 0.6612(11) 0.4584(6) 0.4252(4)
H23 H 0.6227 0.4742 0.3939
C24 C 0.7179(11) 0.5131(5) 0.4836(4)
C25 C 0.7826(11) 0.4860(5) 0.5283(4)
C26 C 0.8448(11) 0.5398(6) 0.5882(4)
H24 H 0.8841 0.5229 0.6188
C27 C 0.8461(13) 0.6139(7) 0.6001(5)
H25 H 0.8906 0.6486 0.6389
C28 C 0.7819(14) 0.6421(6) 0.5557(6)
H26 H 0.7808 0.6948 0.5663
C29 C 0.7226(12) 0.5936(6) 0.4986(5)
H27 H 0.6850 0.6123 0.4690
C30 C 0.7165(14) 0.2748(5) 0.4493(4)
H28 H 0.8284 0.2519 0.4321
H29 H 0.6173 0.2491 0.4208
H30 H 0.7009 0.2702 0.4883
N4 N 0.2379(9) 0.3901(4) 0.9809(4)
H31 H 0.2170 0.3454 0.9515
C31 C 0.2727(13) 0.3931(6) 1.0363(5)
C32 C 0.3100(15) 0.4658(7) 1.0859(5)
H32 H 0.3358 0.4694 1.1262
C33 C 0.3073(15) 0.5309(6) 1.0732(5)
H33 H 0.3332 0.5787 1.1052
C34 C 0.2666(12) 0.5259(6) 1.0137(5)
C35 C 0.2316(12) 0.4522(6) 0.9648(5)
C36 C 0.1943(14) 0.4443(6) 0.9054(5)
H34 H 0.1768 0.3955 0.8740
C37 C 0.1818(16) 0.5085(8) 0.8908(6)
H35 H 0.1475 0.5036 0.8507
C38 C 0.2225(15) 0.5803(7) 0.9383(6)
H36 H 0.2263 0.6232 0.9285
C39 C 0.2560(13) 0.5893(6) 0.9973(6)
H37 H 0.2728 0.6386 1.0281
C40 C 0.2779(16) 0.3228(6) 1.0487(5)
H38 H 0.1994 0.2841 1.0189
H39 H 0.2381 0.3341 1.0901
H40 H 0.3998 0.3046 1.0454
N5 N 0.2182(9) 0.2335(4) 0.1674(3)
H41 H 0.3214 0.2382 0.1531
H42 H 0.1197 0.2414 0.1503
O1 O 0.3384(8) 0.1316(3) 0.3946(3)
O2 O 0.0441(8) 0.1312(4) 0.3889(3)
C41 C 0.1890(14) 0.1409(5) 0.3696(4)
C42 C 0.1960(11) 0.1653(4) 0.3166(4)
C43 C 0.3601(11) 0.1774(5) 0.2942(4)
H43 H 0.4675 0.1698 0.3127
C44 C 0.3684(12) 0.2005(5) 0.2451(4)
H44 H 0.4804 0.2074 0.2308
C45 C 0.2106(12) 0.2133(4) 0.2173(4)
C46 C 0.0453(12) 0.2007(5) 0.2408(4)
H45 H -0.0637 0.2080 0.2229
C47 C 0.0435(11) 0.1785(4) 0.2882(4)
H46 H -0.0683 0.1717 0.3027
N6 N 0.7736(8) 0.5674(4) 0.3339(3)
H47 H 0.8784 0.5885 0.3479
H48 H 0.6770 0.5909 0.3502
O3 O 0.8606(8) 0.2447(3) 0.1096(3)
O4 O 0.5667(8) 0.2409(3) 0.1183(3)
C48 C 0.7135(13) 0.2747(5) 0.1356(4)
C49 C 0.7327(12) 0.3512(5) 0.1884(4)
C50 C 0.8986(10) 0.3884(5) 0.2109(4)
H49 H 1.0039 0.3646 0.1926
C51 C 0.9116(10) 0.4583(5) 0.2588(4)
H50 H 1.0256 0.4806 0.2736
C52 C 0.7605(11) 0.4968(5) 0.2856(4)
C53 C 0.5936(12) 0.4608(5) 0.2639(4)
H51 H 0.4887 0.4848 0.2824
C54 C 0.5817(11) 0.3903(5) 0.2157(4)
H52 H 0.4678 0.3680 0.2010
N7 N 0.1913(9) 0.7332(4) 0.1665(3)
H53 H 0.2836 0.7349 0.1456
H54 H 0.0856 0.7440 0.1560
O5 O 0.4304(8) 0.6311(4) 0.3861(3)
O6 O 0.1378(7) 0.6330(3) 0.3943(3)
C55 C 0.2830(12) 0.6434(4) 0.3679(4)
C56 C 0.2541(12) 0.6656(4) 0.3153(4)
C57 C 0.0883(12) 0.6838(5) 0.2965(4)
H55 H -0.0132 0.6801 0.3177
C58 C 0.0651(11) 0.7065(5) 0.2490(4)
H56 H -0.0504 0.7177 0.2383
C59 C 0.2122(11) 0.7134(4) 0.2162(4)
C60 C 0.3789(12) 0.6961(5) 0.2335(4)
H57 H 0.4803 0.6990 0.2119
C61 C 0.3967(11) 0.6741(5) 0.2837(4)
H58 H 0.5122 0.6648 0.2960
N8 N 0.6915(9) 1.0687(4) 0.3351(3)
H59 H 0.7941 1.0892 0.3525
H60 H 0.5925 1.0919 0.3490
O7 O 0.8140(7) 0.7432(3) 0.1134(2)
O8 O 0.5180(8) 0.7475(3) 0.1054(3)
C62 C 0.6612(15) 0.7780(5) 0.1316(4)
C63 C 0.6746(11) 0.8535(4) 0.1864(4)
C64 C 0.5180(12) 0.8906(5) 0.2075(4)
H61 H 0.4076 0.8677 0.1886
C65 C 0.5204(11) 0.9632(5) 0.2577(4)
H62 H 0.4120 0.9871 0.2726
C66 C 0.6857(11) 0.9990(5) 0.2850(4)
C67 C 0.8411(12) 0.9611(5) 0.2621(4)
H63 H 0.9529 0.9838 0.2796
C68 C 0.8344(12) 0.8884(5) 0.2127(4)
H64 H 0.9420 0.8639 0.1977
loop_
_geom_bond_atom_site_label_1
_geom_bond_atom_site_label_2
_geom_bond_site_symmetry_1
_geom_bond_site_symmetry_2
N1 H1 1_555 1_555
C1 N1 1_555 1_555
C2 C1 1_555 1_555
H2 C2 1_555 1_555
C3 C2 1_555 1_555
H3 C3 1_555 1_555
C4 C3 1_555 1_555
C5 N1 1_555 1_555
C6 C5 1_555 1_555
H4 C6 1_555 1_555
C7 C6 1_555 1_555
H5 C7 1_555 1_555
C8 C7 1_555 1_555
H6 C8 1_555 1_555
C9 C4 1_555 1_555
H7 C9 1_555 1_555
C10 C1 1_555 1_555
H8 C10 1_555 1_555
H9 C10 1_555 1_555
H10 C10 1_555 1_555
N2 H11 1_555 1_555
C11 N2 1_555 1_555
C12 C11 1_555 1_555
H12 C12 1_555 1_555
C13 C12 1_555 1_555
H13 C13 1_555 1_555
C14 C13 1_555 1_555
C15 N2 1_555 1_555
C16 C15 1_555 1_555
H14 C16 1_555 1_555
C17 C16 1_555 1_555
H15 C17 1_555 1_555
C18 C17 1_555 1_555
H16 C18 1_555 1_555
C19 C14 1_555 1_555
H17 C19 1_555 1_555
C20 C11 1_555 1_555
H18 C20 1_555 1_555
H19 C20 1_555 1_555
H20 C20 1_555 1_555
N3 H21 1_555 1_555
C21 N3 1_555 1_555
C22 C21 1_555 1_555
H22 C22 1_555 1_555
C23 C22 1_555 1_555
H23 C23 1_555 1_555
C24 C23 1_555 1_555
C25 N3 1_555 1_555
C26 C25 1_555 1_555
H24 C26 1_555 1_555
C27 C26 1_555 1_555
H25 C27 1_555 1_555
C28 C27 1_555 1_555
H26 C28 1_555 1_555
C29 C24 1_555 1_555
H27 C29 1_555 1_555
C30 C21 1_555 1_555
H28 C30 1_555 1_555
H29 C30 1_555 1_555
H30 C30 1_555 1_555
N4 H31 1_555 1_555
C31 N4 1_555 1_555
C32 C31 1_555 1_555
H32 C32 1_555 1_555
C33 C32 1_555 1_555
H33 C33 1_555 1_555
C34 C33 1_555 1_555
C35 N4 1_555 1_555
C36 C35 1_555 1_555
H34 C36 1_555 1_555
C37 C36 1_555 1_555
H35 C37 1_555 1_555
C38 C37 1_555 1_555
H36 C38 1_555 1_555
C39 C34 1_555 1_555
H37 C39 1_555 1_555
C40 C31 1_555 1_555
H38 C40 1_555 1_555
H39 C40 1_555 1_555
H40 C40 1_555 1_555
N5 H41 1_555 1_555
H42 N5 1_555 1_555
O1 C41 1_555 1_555
O2 C41 1_555 1_555
C41 C42 1_555 1_555
C42 C43 1_555 1_555
C43 H43 1_555 1_555
C44 C43 1_555 1_555
H44 C44 1_555 1_555
C45 N5 1_555 1_555
C46 C45 1_555 1_555
H45 C46 1_555 1_555
C47 C42 1_555 1_555
H46 C47 1_555 1_555
N6 H47 1_555 1_555
H48 N6 1_555 1_555
O3 C48 1_555 1_555
O4 C48 1_555 1_555
C48 C49 1_555 1_555
C49 C50 1_555 1_555
C50 H49 1_555 1_555
C51 C50 1_555 1_555
H50 C51 1_555 1_555
C52 N6 1_555 1_555
C53 C52 1_555 1_555
H51 C53 1_555 1_555
C54 C49 1_555 1_555
H52 C54 1_555 1_555
N7 H53 1_555 1_555
H54 N7 1_555 1_555
O5 C55 1_555 1_555
O6 C55 1_555 1_555
C55 C56 1_555 1_555
C56 C57 1_555 1_555
C57 H55 1_555 1_555
C58 C57 1_555 1_555
H56 C58 1_555 1_555
C59 N7 1_555 1_555
C60 C59 1_555 1_555
H57 C60 1_555 1_555
C61 C56 1_555 1_555
H58 C61 1_555 1_555
N8 H59 1_555 1_555
H60 N8 1_555 1_555
O7 C62 1_555 1_555
O8 C62 1_555 1_555
C62 C63 1_555 1_555
C63 C64 1_555 1_555
C64 H61 1_555 1_555
C65 C64 1_555 1_555
H62 C65 1_555 1_555
C66 N8 1_555 1_555
C67 C66 1_555 1_555
H63 C67 1_555 1_555
C68 C63 1_555 1_555
H64 C68 1_555 1_555
C4 C5 1_555 1_555
C8 C9 1_555 1_555
C14 C15 1_555 1_555
C18 C19 1_555 1_555
C24 C25 1_555 1_555
C28 C29 1_555 1_555
C34 C35 1_555 1_555
C38 C39 1_555 1_555
C44 C45 1_555 1_555
C46 C47 1_555 1_555
C51 C52 1_555 1_555
C53 C54 1_555 1_555
C58 C59 1_555 1_555
C60 C61 1_555 1_555
C65 C66 1_555 1_555
C67 C68 1_555 1_555

#END
