
#######################################################################
#
#                 Cambridge Crystallographic Data Centre
#                                CCDC 
#
#######################################################################
#
# If this CIF has been generated from an entry in the Cambridge 
# Structural Database, then it will include bibliographic, chemical, 
# crystal, experimental, refinement or atomic coordinate data resulting 
# from the CCDC's data processing and validation procedures.
#
#######################################################################

data_EGABOF
_chemical_formula_moiety         'C10 H10 N1 1+,C7 H3 N2 O7 1-'
_chemical_name_systematic        
'2-methylquinolinium 2-hydroxy-3,5-dinitrobenzoate'
_symmetry_cell_setting           monoclinic
_symmetry_space_group_name_H-M   'P 21'
_symmetry_Int_Tables_number      4
_space_group_name_Hall           'P 2yb'
loop_
_symmetry_equiv_pos_site_id
_symmetry_equiv_pos_as_xyz
1 x,y,z
2 -x,1/2+y,-z
_cell_length_a                   7.3108(7)
_cell_length_b                   7.3198(8)
_cell_length_c                   15.0077(14)
_cell_angle_alpha                90
_cell_angle_beta                 101.5640(10)
_cell_angle_gamma                90
_cell_volume                     786.814
_exptl_crystal_colour            colorless
_exptl_crystal_description       block
_cell_formula_units_Z            2
loop_
_atom_site_label
_atom_site_type_symbol
_atom_site_fract_x
_atom_site_fract_y
_atom_site_fract_z
N1 N 0.7947(13) 0.7386(18) 0.9064(7)
H1 H 0.8467 0.7609 0.9620
C1 C 0.5505(17) 0.606(2) 0.9678(9)
H2 H 0.6151 0.4983 0.9941
H3 H 0.4195 0.5798 0.9501
H4 H 0.5691 0.7027 1.0118
C2 C 0.6243(18) 0.6619(19) 0.8868(10)
C3 C 0.5389(18) 0.6331(19) 0.8000(9)
H5 H 0.4221 0.5776 0.7878
C4 C 0.619(2) 0.683(2) 0.7304(10)
H6 H 0.5558 0.6674 0.6707
C5 C 0.7970(14) 0.758(2) 0.7480(8)
C6 C 0.889(2) 0.7829(19) 0.8345(8)
C7 C 1.0699(18) 0.863(2) 0.8615(11)
H7 H 1.1266 0.8810 0.9221
C8 C 1.1536(16) 0.910(2) 0.7902(10)
H8 H 1.2717 0.9627 0.8021
C9 C 1.064(2) 0.880(2) 0.7014(10)
H9 H 1.1250 0.9116 0.6548
C10 C 0.8954(19) 0.808(2) 0.6803(8)
H10 H 0.8406 0.7897 0.6195
N2 N 0.5039(13) 0.647(2) 0.4163(8)
N3 N -0.0911(16) 0.9340(16) 0.4055(8)
O1 O -0.0628(14) 0.8173(14) 0.0782(5)
O2 O 0.2210(13) 0.7184(16) 0.0831(6)
O3 O 0.4324(14) 0.6552(16) 0.2249(8)
H11 H 0.3955 0.6645 0.1698
O4 O 0.5929(19) 0.542(2) 0.3839(10)
O5 O 0.5483(12) 0.695(2) 0.4945(8)
O6 O -0.0468(14) 0.9506(19) 0.4872(8)
O7 O -0.2450(14) 0.9718(17) 0.3640(7)
C11 C 0.094(2) 0.765(2) 0.1184(10)
C12 C 0.1327(16) 0.779(2) 0.2197(8)
C13 C 0.2975(16) 0.715(2) 0.2683(9)
C14 C 0.3365(16) 0.720(2) 0.3647(9)
C15 C 0.2159(14) 0.792(2) 0.4095(8)
H12 H 0.2419 0.7995 0.4726
C16 C 0.0470(14) 0.8556(19) 0.3576(7)
C17 C 0.0034(16) 0.8439(18) 0.2671(9)
H13 H -0.1142 0.8797 0.2360
loop_
_geom_bond_atom_site_label_1
_geom_bond_atom_site_label_2
_geom_bond_site_symmetry_1
_geom_bond_site_symmetry_2
N1 H1 1_555 1_555
C1 H2 1_555 1_555
H3 C1 1_555 1_555
H4 C1 1_555 1_555
C2 N1 1_555 1_555
C3 C2 1_555 1_555
H5 C3 1_555 1_555
C4 C3 1_555 1_555
H6 C4 1_555 1_555
C5 C4 1_555 1_555
C6 N1 1_555 1_555
C7 C6 1_555 1_555
H7 C7 1_555 1_555
C8 C7 1_555 1_555
H8 C8 1_555 1_555
C9 C8 1_555 1_555
H9 C9 1_555 1_555
C10 C5 1_555 1_555
H10 C10 1_555 1_555
N2 O4 1_555 1_555
N3 O6 1_555 1_555
O1 C11 1_555 1_555
O2 C11 1_555 1_555
O3 H11 1_555 1_555
O5 N2 1_555 1_555
O7 N3 1_555 1_555
C11 C12 1_555 1_555
C12 C13 1_555 1_555
C13 O3 1_555 1_555
C14 N2 1_555 1_555
C15 C14 1_555 1_555
H12 C15 1_555 1_555
C16 N3 1_555 1_555
C17 C12 1_555 1_555
H13 C17 1_555 1_555
C1 C2 1_555 1_555
C5 C6 1_555 1_555
C9 C10 1_555 1_555
C13 C14 1_555 1_555
C15 C16 1_555 1_555
C16 C17 1_555 1_555

#END
