
#######################################################################
#
#                 Cambridge Crystallographic Data Centre
#                                CCDC 
#
#######################################################################
#
# If this CIF has been generated from an entry in the Cambridge 
# Structural Database, then it will include bibliographic, chemical, 
# crystal, experimental, refinement or atomic coordinate data resulting 
# from the CCDC's data processing and validation procedures.
#
#######################################################################

data_EGABIZ
_chemical_formula_moiety         'C10 H10 N1 1+,C10 H9 N1,C4 H5 O5 1-'
_chemical_name_systematic        
'2-methylquinolinium 2-methylquinoline hydrogen L-malate'
_symmetry_cell_setting           monoclinic
_symmetry_space_group_name_H-M   'P 21'
_symmetry_Int_Tables_number      4
_space_group_name_Hall           'P 2yb'
loop_
_symmetry_equiv_pos_site_id
_symmetry_equiv_pos_as_xyz
1 x,y,z
2 -x,1/2+y,-z
_cell_length_a                   7.3530(6)
_cell_length_b                   26.510(2)
_cell_length_c                   10.8301(9)
_cell_angle_alpha                90
_cell_angle_beta                 102.951(2)
_cell_angle_gamma                90
_cell_volume                     2057.39
_exptl_crystal_colour            yellow
_exptl_crystal_description       block
_cell_formula_units_Z            4
loop_
_atom_site_label
_atom_site_type_symbol
_atom_site_fract_x
_atom_site_fract_y
_atom_site_fract_z
N1 N 0.1096(10) 0.0289(3) 0.8519(6)
C1 C 0.0914(15) -0.0614(3) 0.8166(9)
H1 H -0.0181 -0.0763 0.8356
H2 H 0.1907 -0.0857 0.8307
H3 H 0.0646 -0.0508 0.7297
C2 C 0.1491(12) -0.0166(4) 0.9009(9)
C3 C 0.2389(13) -0.0237(4) 1.0293(9)
H4 H 0.2662 -0.0560 1.0615
C4 C 0.2846(12) 0.0170(4) 1.1048(9)
H5 H 0.3384 0.0124 1.1903
C5 C 0.2522(12) 0.0664(4) 1.0561(8)
C6 C 0.1638(12) 0.0700(3) 0.9266(8)
C7 C 0.1295(14) 0.1180(3) 0.8718(9)
H6 H 0.0683 0.1211 0.7872
C8 C 0.1854(16) 0.1598(4) 0.9421(10)
H7 H 0.1668 0.1916 0.9049
C9 C 0.2721(15) 0.1551(4) 1.0720(10)
H8 H 0.3114 0.1838 1.1200
C10 C 0.2978(14) 0.1100(4) 1.1258(9)
H9 H 0.3476 0.1077 1.2125
N2 N 0.7660(11) 0.0560(3) 1.0732(7)
H10 H 0.8219 0.0523 1.1514
C11 C 0.7813(17) 0.1451(4) 1.1156(10)
H11 H 0.7756 0.1353 1.1999
H12 H 0.6952 0.1722 1.0879
H13 H 0.9055 0.1561 1.1150
C12 C 0.7323(13) 0.1022(4) 1.0303(9)
C13 C 0.6451(14) 0.1087(4) 0.8993(9)
H14 H 0.6174 0.1408 0.8658
C14 C 0.6039(13) 0.0677(4) 0.8255(9)
H15 H 0.5506 0.0721 0.7398
C15 C 0.6387(13) 0.0181(4) 0.8733(9)
C16 C 0.7183(12) 0.0130(4) 1.0021(8)
C17 C 0.7520(14) -0.0346(4) 1.0568(9)
H16 H 0.8111 -0.0378 1.1418
C18 C 0.6990(16) -0.0756(4) 0.9863(12)
H17 H 0.7144 -0.1073 1.0239
C19 C 0.6212(16) -0.0714(5) 0.8579(13)
H18 H 0.5905 -0.1004 0.8097
C20 C 0.5891(14) -0.0257(4) 0.8012(9)
H19 H 0.5346 -0.0235 0.7152
N3 N 0.8499(10) 0.3039(3) 0.6497(6)
C21 C 0.8910(15) 0.3930(4) 0.6814(10)
H20 H 0.8122 0.3978 0.7401
H21 H 0.8865 0.4226 0.6295
H22 H 1.0170 0.3874 0.7273
C22 C 0.8254(12) 0.3491(4) 0.6004(9)
C23 C 0.7316(14) 0.3562(4) 0.4703(9)
H23 H 0.7137 0.3884 0.4360
C24 C 0.6695(13) 0.3153(4) 0.3979(8)
H24 H 0.6139 0.3195 0.3125
C25 C 0.6880(12) 0.2669(4) 0.4503(8)
C26 C 0.7861(11) 0.2625(4) 0.5790(8)
C27 C 0.8047(13) 0.2149(3) 0.6331(9)
H25 H 0.8684 0.2115 0.7171
C28 C 0.7328(14) 0.1727(4) 0.5672(10)
H26 H 0.7479 0.1412 0.6061
C29 C 0.6364(13) 0.1773(4) 0.4410(9)
H27 H 0.5837 0.1489 0.3963
C30 C 0.6196(13) 0.2227(4) 0.3839(9)
H28 H 0.5614 0.2249 0.2985
N4 N 0.1817(10) 0.2839(3) 0.4308(6)
H29 H 0.1281 0.2882 0.3524
C31 C 0.1230(14) 0.1946(4) 0.3916(9)
H30 H -0.0079 0.1909 0.3882
H31 H 0.1869 0.1641 0.4235
H32 H 0.1413 0.2013 0.3081
C32 C 0.1986(13) 0.2374(4) 0.4770(8)
C33 C 0.2850(13) 0.2299(4) 0.6038(9)
H33 H 0.2999 0.1973 0.6365
C34 C 0.3472(13) 0.2694(4) 0.6795(8)
H34 H 0.3994 0.2638 0.7649
C35 C 0.3348(12) 0.3191(4) 0.6321(8)
C36 C 0.2456(11) 0.3254(3) 0.5024(7)
C37 C 0.2265(13) 0.3730(4) 0.4487(9)
H35 H 0.1682 0.3768 0.3637
C38 C 0.2919(14) 0.4140(4) 0.5189(10)
H36 H 0.2782 0.4459 0.4823
C39 C 0.3823(15) 0.4082(4) 0.6496(11)
H37 H 0.4291 0.4363 0.6977
C40 C 0.3996(13) 0.3622(4) 0.7027(9)
H38 H 0.4557 0.3590 0.7883
O1 O -0.0457(9) 0.0484(3) 0.3027(5)
O2 O -0.3171(9) 0.0447(3) 0.3601(5)
O3 O 0.3334(10) 0.0902(3) 0.5053(7)
O4 O 0.4159(9) 0.0136(3) 0.4608(6)
H39 H 0.4719 0.0276 0.4128
O5 O -0.1470(8) 0.0374(2) 0.6044(5)
H40 H -0.0813 0.0344 0.6760
C41 C -0.1478(13) 0.0467(3) 0.3871(8)
C42 C -0.0367(11) 0.0511(4) 0.5211(7)
H41 H -0.0050 0.0868 0.5363
C43 C 0.1475(11) 0.0219(3) 0.5399(7)
H42 H 0.1900 0.0147 0.6295
H43 H 0.1220 -0.0102 0.4964
C44 C 0.3010(13) 0.0463(4) 0.4963(8)
O6 O 1.0064(9) 0.2988(3) 0.2002(5)
O7 O 1.2710(9) 0.2924(3) 0.1421(6)
O8 O 0.5379(9) 0.2650(3) 0.0274(5)
H44 H 0.4534 0.2786 0.0533
O9 O 0.6358(10) 0.3434(3) 0.0223(6)
O10 O 1.1067(8) 0.2943(2) -0.1023(5)
H45 H 1.0440 0.2961 -0.1751
C45 C 1.1057(12) 0.2977(3) 0.1187(7)
C46 C 0.9935(12) 0.3064(4) -0.0161(7)
H46 H 0.9630 0.3423 -0.0253
C47 C 0.8144(12) 0.2775(3) -0.0436(7)
H47 H 0.8396 0.2438 -0.0091
H48 H 0.7731 0.2742 -0.1348
C48 C 0.6557(12) 0.2994(4) 0.0067(7)
loop_
_geom_bond_atom_site_label_1
_geom_bond_atom_site_label_2
_geom_bond_site_symmetry_1
_geom_bond_site_symmetry_2
N1 C2 1_555 1_555
C1 H1 1_555 1_555
H2 C1 1_555 1_555
H3 C1 1_555 1_555
C2 C1 1_555 1_555
C3 C2 1_555 1_555
H4 C3 1_555 1_555
C4 C3 1_555 1_555
H5 C4 1_555 1_555
C5 C4 1_555 1_555
C6 N1 1_555 1_555
C7 C6 1_555 1_555
H6 C7 1_555 1_555
C8 C7 1_555 1_555
H7 C8 1_555 1_555
C9 C8 1_555 1_555
H8 C9 1_555 1_555
C10 C5 1_555 1_555
H9 C10 1_555 1_555
N2 H10 1_555 1_555
C11 H11 1_555 1_555
H12 C11 1_555 1_555
H13 C11 1_555 1_555
C12 N2 1_555 1_555
C13 C12 1_555 1_555
H14 C13 1_555 1_555
C14 C13 1_555 1_555
H15 C14 1_555 1_555
C15 C14 1_555 1_555
C16 N2 1_555 1_555
C17 C16 1_555 1_555
H16 C17 1_555 1_555
C18 C17 1_555 1_555
H17 C18 1_555 1_555
C19 C18 1_555 1_555
H18 C19 1_555 1_555
C20 C15 1_555 1_555
H19 C20 1_555 1_555
N3 C22 1_555 1_555
C21 H20 1_555 1_555
H21 C21 1_555 1_555
H22 C21 1_555 1_555
C22 C21 1_555 1_555
C23 C22 1_555 1_555
H23 C23 1_555 1_555
C24 C23 1_555 1_555
H24 C24 1_555 1_555
C25 C24 1_555 1_555
C26 N3 1_555 1_555
C27 C26 1_555 1_555
H25 C27 1_555 1_555
C28 C27 1_555 1_555
H26 C28 1_555 1_555
C29 C28 1_555 1_555
H27 C29 1_555 1_555
C30 C25 1_555 1_555
H28 C30 1_555 1_555
N4 H29 1_555 1_555
C31 H30 1_555 1_555
H31 C31 1_555 1_555
H32 C31 1_555 1_555
C32 N4 1_555 1_555
C33 C32 1_555 1_555
H33 C33 1_555 1_555
C34 C33 1_555 1_555
H34 C34 1_555 1_555
C35 C34 1_555 1_555
C36 N4 1_555 1_555
C37 C36 1_555 1_555
H35 C37 1_555 1_555
C38 C37 1_555 1_555
H36 C38 1_555 1_555
C39 C38 1_555 1_555
H37 C39 1_555 1_555
C40 C35 1_555 1_555
H38 C40 1_555 1_555
O1 C41 1_555 1_555
O2 C41 1_555 1_555
O3 C44 1_555 1_555
O4 H39 1_555 1_555
O5 H40 1_555 1_555
C41 C42 1_555 1_555
C42 O5 1_555 1_555
H41 C42 1_555 1_555
C43 C42 1_555 1_555
H42 C43 1_555 1_555
H43 C43 1_555 1_555
C44 O4 1_555 1_555
O6 C45 1_555 1_555
O7 C45 1_555 1_555
O8 H44 1_555 1_555
O9 C48 1_555 1_555
O10 H45 1_555 1_555
C45 C46 1_555 1_555
C46 O10 1_555 1_555
H46 C46 1_555 1_555
C47 C46 1_555 1_555
H47 C47 1_555 1_555
H48 C47 1_555 1_555
C48 O8 1_555 1_555
C5 C6 1_555 1_555
C9 C10 1_555 1_555
C11 C12 1_555 1_555
C15 C16 1_555 1_555
C19 C20 1_555 1_555
C25 C26 1_555 1_555
C29 C30 1_555 1_555
C31 C32 1_555 1_555
C35 C36 1_555 1_555
C39 C40 1_555 1_555
C43 C44 1_555 1_555
C47 C48 1_555 1_555

#END
