
#######################################################################
#
#                 Cambridge Crystallographic Data Centre
#                                CCDC 
#
#######################################################################
#
# If this CIF has been generated from an entry in the Cambridge 
# Structural Database, then it will include bibliographic, chemical, 
# crystal, experimental, refinement or atomic coordinate data resulting 
# from the CCDC's data processing and validation procedures.
#
#######################################################################

data_EGADEX
_chemical_formula_moiety         'C28 H34 N2 O4'
_chemical_name_systematic        
'7-((4-methoxybenzoyl)hydrazono)abi\h-8(14),9(11),12-trien-18-oic acid'
_symmetry_cell_setting           orthorhombic
_symmetry_space_group_name_H-M   'P 21 21 2'
_symmetry_Int_Tables_number      18
_space_group_name_Hall           'P 2 2ab'
loop_
_symmetry_equiv_pos_site_id
_symmetry_equiv_pos_as_xyz
1 x,y,z
2 -x,-y,z
3 1/2+x,1/2-y,-z
4 1/2-x,1/2+y,-z
_cell_length_a                   19.802(2)
_cell_length_b                   21.962(3)
_cell_length_c                   6.4622(8)
_cell_angle_alpha                90
_cell_angle_beta                 90
_cell_angle_gamma                90
_cell_volume                     2810.36
_cell_formula_units_Z            4
loop_
_atom_site_label
_atom_site_type_symbol
_atom_site_fract_x
_atom_site_fract_y
_atom_site_fract_z
C1 C 0.3650(4) 0.2083(3) 0.1277(12)
C2 C 0.3618(4) 0.2620(3) 0.0186(12)
H1 H 0.3985 0.2719 -0.0646
C3 C 0.3090(5) 0.3019(3) 0.0229(15)
C4 C 0.2572(5) 0.2884(4) 0.1558(16)
H2 H 0.2213 0.3153 0.1704
C5 C 0.2583(5) 0.2363(4) 0.2651(17)
H3 H 0.2217 0.2273 0.3499
C6 C 0.3125(4) 0.1951(4) 0.2566(12)
C7 C 0.3133(6) 0.1381(4) 0.4031(13)
C8 C 0.2424(5) 0.1142(4) 0.4576(17)
H4 H 0.2186 0.1445 0.5392
H5 H 0.2169 0.1074 0.3315
C9 C 0.2469(7) 0.0574(6) 0.574(2)
H6 H 0.2016 0.0437 0.6085
H7 H 0.2705 0.0650 0.7033
C10 C 0.2837(6) 0.0063(4) 0.4556(17)
H8 H 0.2860 -0.0298 0.5415
H9 H 0.2583 -0.0038 0.3318
C11 C 0.3524(6) 0.0251(4) 0.3975(12)
C12 C 0.3543(4) 0.0881(3) 0.2868(11)
H10 H 0.3304 0.0819 0.1558
C13 C 0.4244(4) 0.1086(3) 0.2259(13)
H11 H 0.4516 0.1142 0.3495
H12 H 0.4456 0.0774 0.1420
C14 C 0.4222(4) 0.1660(3) 0.1091(12)
C15 C 0.5745(5) 0.1502(3) -0.1921(15)
C16 C 0.5715(4) 0.1978(3) -0.3601(19)
C17 C 0.5295(6) 0.2486(6) -0.353(3)
H13 H 0.4996 0.2550 -0.2437
C18 C 0.5346(8) 0.2913(6) -0.525(3)
H14 H 0.5050 0.3242 -0.5300
C19 C 0.5774(8) 0.2853(7) -0.666(3)
C20 C 0.6211(7) 0.2350(4) -0.6687(14)
H15 H 0.6522 0.2298 -0.7751
C21 C 0.6165(7) 0.1940(4) -0.5110(16)
H16 H 0.6467 0.1616 -0.5093
C22 C 0.3076(9) 0.3617(5) -0.098(2)
H17 H 0.2598 0.3688 -0.1296
C23 C 0.3276(8) 0.4137(4) 0.044(2)
H18 H 0.3706 0.4049 0.1061
H19 H 0.2942 0.4184 0.1507
H20 H 0.3308 0.4507 -0.0343
C24 C 0.3418(8) 0.3606(5) -0.301(2)
H21 H 0.3090 0.3544 -0.4081
H22 H 0.3740 0.3279 -0.3032
H23 H 0.3647 0.3986 -0.3229
C25 C 0.3515(6) 0.1626(4) 0.6004(12)
H24 H 0.3416 0.1368 0.7166
H25 H 0.3368 0.2034 0.6298
H26 H 0.3992 0.1625 0.5750
C26 C 0.4045(5) 0.0215(4) 0.5887(12)
H27 H 0.3812 0.0312 0.7148
H28 H 0.4405 0.0501 0.5674
H29 H 0.4227 -0.0189 0.5978
C27 C 0.3822(6) -0.0232(4) 0.2440(13)
C28 C 0.6341(7) 0.3330(7) -0.962(3)
H30 H 0.6763 0.3278 -0.8915
H31 H 0.6343 0.3712 -1.0349
H32 H 0.6279 0.3004 -1.0594
N1 N 0.4701(4) 0.1818(2) -0.0199(12)
N2 N 0.5251(4) 0.1447(3) -0.0369(14)
H33 H 0.5299 0.1162 0.0530
O1 O 0.4292(3) -0.0553(3) 0.2748(12)
O2 O 0.3433(4) -0.0244(2) 0.0709(11)
H34 H 0.3085 -0.0434 0.0946
O3 O 0.6218(3) 0.1154(2) -0.1772(9)
O4 O 0.5767(5) 0.3326(4) -0.8064(16)
loop_
_geom_bond_atom_site_label_1
_geom_bond_atom_site_label_2
_geom_bond_site_symmetry_1
_geom_bond_site_symmetry_2
C1 C2 1_555 1_555
C2 H1 1_555 1_555
C3 C2 1_555 1_555
C4 C3 1_555 1_555
H2 C4 1_555 1_555
C5 C4 1_555 1_555
H3 C5 1_555 1_555
C6 C1 1_555 1_555
C7 C6 1_555 1_555
C8 C7 1_555 1_555
H4 C8 1_555 1_555
H5 C8 1_555 1_555
C9 C8 1_555 1_555
H6 C9 1_555 1_555
H7 C9 1_555 1_555
C10 C9 1_555 1_555
H8 C10 1_555 1_555
H9 C10 1_555 1_555
C11 C10 1_555 1_555
C12 C7 1_555 1_555
H10 C12 1_555 1_555
C13 C12 1_555 1_555
H11 C13 1_555 1_555
H12 C13 1_555 1_555
C14 C1 1_555 1_555
C15 C16 1_555 1_555
C16 C17 1_555 1_555
C17 H13 1_555 1_555
C18 C17 1_555 1_555
H14 C18 1_555 1_555
C19 C18 1_555 1_555
C20 C19 1_555 1_555
H15 C20 1_555 1_555
C21 C16 1_555 1_555
H16 C21 1_555 1_555
C22 C3 1_555 1_555
H17 C22 1_555 1_555
C23 C22 1_555 1_555
H18 C23 1_555 1_555
H19 C23 1_555 1_555
H20 C23 1_555 1_555
C24 C22 1_555 1_555
H21 C24 1_555 1_555
H22 C24 1_555 1_555
H23 C24 1_555 1_555
C25 C7 1_555 1_555
H24 C25 1_555 1_555
H25 C25 1_555 1_555
H26 C25 1_555 1_555
C26 C11 1_555 1_555
H27 C26 1_555 1_555
H28 C26 1_555 1_555
H29 C26 1_555 1_555
C27 C11 1_555 1_555
C28 H30 1_555 1_555
H31 C28 1_555 1_555
H32 C28 1_555 1_555
N1 C14 1_555 1_555
N2 C15 1_555 1_555
H33 N2 1_555 1_555
O1 C27 1_555 1_555
O2 C27 1_555 1_555
H34 O2 1_555 1_555
O3 C15 1_555 1_555
O4 C19 1_555 1_555
C5 C6 1_555 1_555
C11 C12 1_555 1_555
C13 C14 1_555 1_555
C20 C21 1_555 1_555
C28 O4 1_555 1_555
N1 N2 1_555 1_555

#END
