
#######################################################################
#
#                 Cambridge Crystallographic Data Centre
#                                CCDC 
#
#######################################################################
#
# If this CIF has been generated from an entry in the Cambridge 
# Structural Database, then it will include bibliographic, chemical, 
# crystal, experimental, refinement or atomic coordinate data resulting 
# from the CCDC's data processing and validation procedures.
#
#######################################################################

data_EGAFID
_chemical_formula_moiety         'C26 H19 N1 O1'
_chemical_name_systematic        
(9-methyl-2-phenyl-9H-carbazol-3-yl)(phenyl)methanone
_symmetry_cell_setting           triclinic
_symmetry_space_group_name_H-M   'P -1'
_symmetry_Int_Tables_number      2
_space_group_name_Hall           '-P 1'
loop_
_symmetry_equiv_pos_site_id
_symmetry_equiv_pos_as_xyz
1 x,y,z
2 -x,-y,-z
_cell_length_a                   8.8997(14)
_cell_length_b                   9.2955(15)
_cell_length_c                   11.9387(19)
_cell_angle_alpha                79.341(3)
_cell_angle_beta                 78.262(3)
_cell_angle_gamma                83.259(3)
_cell_volume                     947.046
_exptl_crystal_colour            colorless
_exptl_crystal_description       prismatic
_cell_formula_units_Z            2
loop_
_atom_site_label
_atom_site_type_symbol
_atom_site_fract_x
_atom_site_fract_y
_atom_site_fract_z
N1 N 0.39692(14) 0.25784(14) 0.56252(10)
O1 O 1.03764(13) 0.48567(12) 0.30788(10)
C1 C 0.40718(16) 0.29748(15) 0.66694(12)
C2 C 0.30085(18) 0.28700(17) 0.77071(13)
H1 H 0.2038 0.2555 0.7761
C3 C 0.3442(2) 0.32477(18) 0.86468(13)
H2 H 0.2762 0.3158 0.9354
C4 C 0.4874(2) 0.37620(18) 0.85682(13)
H3 H 0.5126 0.4020 0.9219
C5 C 0.59233(18) 0.38936(16) 0.75376(12)
H4 H 0.6877 0.4241 0.7486
C6 C 0.55202(16) 0.34939(14) 0.65742(11)
C7 C 0.63371(16) 0.33957(14) 0.54102(11)
C8 C 0.53469(15) 0.27992(14) 0.48669(11)
C9 C 0.58093(16) 0.24901(15) 0.37437(11)
H5 H 0.5135 0.2110 0.3395
C10 C 0.72901(15) 0.27568(14) 0.31504(11)
C11 C 0.82811(16) 0.33855(14) 0.36861(11)
C12 C 0.77888(16) 0.37147(14) 0.48039(11)
H6 H 0.8437 0.4148 0.5140
C13 C 0.77714(15) 0.24302(15) 0.19465(11)
C14 C 0.74561(18) 0.11134(16) 0.16809(13)
H7 H 0.6959 0.0426 0.2264
C15 C 0.7874(2) 0.08145(19) 0.05568(14)
H8 H 0.7662 -0.0073 0.0394
C16 C 0.8598(2) 0.1820(2) -0.03138(14)
H9 H 0.8880 0.1616 -0.1065
C17 C 0.8904(2) 0.31319(19) -0.00709(13)
H10 H 0.9385 0.3822 -0.0661
C18 C 0.84996(17) 0.34296(16) 0.10523(12)
H11 H 0.8721 0.4318 0.1208
C19 C 0.99017(16) 0.36608(15) 0.31385(11)
C20 C 1.09878(15) 0.24117(15) 0.27554(11)
C21 C 1.07258(18) 0.09669(16) 0.32396(14)
H12 H 0.9821 0.0754 0.3763
C22 C 1.1815(2) -0.01576(18) 0.29423(16)
H13 H 1.1645 -0.1125 0.3277
C23 C 1.3144(2) 0.0143(2) 0.21577(16)
H14 H 1.3870 -0.0618 0.1962
C24 C 1.34004(19) 0.1570(2) 0.16610(14)
H15 H 1.4292 0.1773 0.1119
C25 C 1.23359(17) 0.27048(17) 0.19654(12)
H16 H 1.2524 0.3670 0.1639
C26 C 0.2638(2) 0.2047(2) 0.53699(15)
H17 H 0.2498 0.2492 0.4602
H18 H 0.1742 0.2296 0.5921
H19 H 0.2787 0.0999 0.5417
loop_
_geom_bond_atom_site_label_1
_geom_bond_atom_site_label_2
_geom_bond_site_symmetry_1
_geom_bond_site_symmetry_2
N1 C1 1_555 1_555
O1 C19 1_555 1_555
C1 C2 1_555 1_555
C2 H1 1_555 1_555
C3 C2 1_555 1_555
H2 C3 1_555 1_555
C4 C3 1_555 1_555
H3 C4 1_555 1_555
C5 C4 1_555 1_555
H4 C5 1_555 1_555
C6 C1 1_555 1_555
C7 C6 1_555 1_555
C8 N1 1_555 1_555
C9 C8 1_555 1_555
H5 C9 1_555 1_555
C10 C9 1_555 1_555
C11 C10 1_555 1_555
C12 C7 1_555 1_555
H6 C12 1_555 1_555
C13 C10 1_555 1_555
C14 C13 1_555 1_555
H7 C14 1_555 1_555
C15 C14 1_555 1_555
H8 C15 1_555 1_555
C16 C15 1_555 1_555
H9 C16 1_555 1_555
C17 C16 1_555 1_555
H10 C17 1_555 1_555
C18 C13 1_555 1_555
H11 C18 1_555 1_555
C19 C11 1_555 1_555
C20 C19 1_555 1_555
C21 C20 1_555 1_555
H12 C21 1_555 1_555
C22 C21 1_555 1_555
H13 C22 1_555 1_555
C23 C22 1_555 1_555
H14 C23 1_555 1_555
C24 C23 1_555 1_555
H15 C24 1_555 1_555
C25 C20 1_555 1_555
H16 C25 1_555 1_555
C26 N1 1_555 1_555
H17 C26 1_555 1_555
H18 C26 1_555 1_555
H19 C26 1_555 1_555
C5 C6 1_555 1_555
C7 C8 1_555 1_555
C11 C12 1_555 1_555
C17 C18 1_555 1_555
C24 C25 1_555 1_555

#END
