
#######################################################################
#
#                 Cambridge Crystallographic Data Centre
#                                CCDC 
#
#######################################################################
#
# If this CIF has been generated from an entry in the Cambridge 
# Structural Database, then it will include bibliographic, chemical, 
# crystal, experimental, refinement or atomic coordinate data resulting 
# from the CCDC's data processing and validation procedures.
#
#######################################################################

data_EGAFEZ
_chemical_formula_moiety         'C28 H21 N1 O2'
_chemical_name_systematic        
(7,9-dimethyl-9H-carbazole-1,3-diyl)bis(phenylmethanone)
_symmetry_cell_setting           monoclinic
_symmetry_space_group_name_H-M   'P 21/n'
_symmetry_Int_Tables_number      14
_space_group_name_Hall           '-P 2yn'
loop_
_symmetry_equiv_pos_site_id
_symmetry_equiv_pos_as_xyz
1 x,y,z
2 1/2-x,1/2+y,1/2-z
3 -x,-y,-z
4 1/2+x,1/2-y,1/2+z
_cell_length_a                   13.6381(14)
_cell_length_b                   10.0676(11)
_cell_length_c                   15.0801(15)
_cell_angle_alpha                90
_cell_angle_beta                 91.542(2)
_cell_angle_gamma                90
_cell_volume                     2069.79
_exptl_crystal_colour            colorless
_exptl_crystal_description       prismatic
_cell_formula_units_Z            4
loop_
_atom_site_label
_atom_site_type_symbol
_atom_site_fract_x
_atom_site_fract_y
_atom_site_fract_z
N1 N 0.91069(9) 0.76251(12) -0.06214(8)
O1 O 1.06345(9) 0.68774(11) 0.08896(8)
O2 O 0.84577(11) 1.29757(12) 0.13704(8)
C1 C 0.93517(11) 0.84409(15) 0.09586(10)
C2 C 0.91660(11) 0.95425(14) 0.14832(10)
H1 H 0.9346 0.9505 0.2082
C3 C 0.87250(11) 1.06976(15) 0.11619(10)
C4 C 0.84833(11) 1.07867(15) 0.02612(10)
H2 H 0.8214 1.1566 0.0030
C5 C 0.86428(10) 0.97218(14) -0.02872(9)
C6 C 0.90552(10) 0.85232(14) 0.00565(9)
C7 C 0.88040(11) 0.82370(15) -0.14098(10)
C8 C 0.85012(10) 0.95343(14) -0.12280(10)
C9 C 0.82066(11) 1.03525(16) -0.19246(10)
H3 H 0.7992 1.1213 -0.1817
C10 C 0.82361(12) 0.98728(18) -0.27764(10)
H4 H 0.8043 1.0424 -0.3244
C11 C 0.85462(12) 0.85871(19) -0.29612(10)
C12 C 0.88212(12) 0.77477(17) -0.22693(10)
H5 H 0.9013 0.6878 -0.2379
C13 C 1.00036(11) 0.73809(15) 0.13378(10)
C14 C 0.99197(11) 0.69988(14) 0.22850(10)
C15 C 1.07323(12) 0.64488(17) 0.27223(11)
H6 H 1.1307 0.6313 0.2417
C16 C 1.06941(13) 0.61045(19) 0.36010(12)
H7 H 1.1243 0.5742 0.3889
C17 C 0.98478(14) 0.6294(2) 0.40553(12)
H8 H 0.9827 0.6067 0.4652
C18 C 0.90317(13) 0.68170(19) 0.36335(12)
H9 H 0.8458 0.6940 0.3942
C19 C 0.90669(12) 0.71595(17) 0.27505(11)
H10 H 0.8511 0.7503 0.2463
C20 C 0.85565(11) 1.18872(16) 0.17175(11)
C21 C 0.84577(11) 1.17892(16) 0.26996(10)
C22 C 0.80788(12) 1.06792(17) 0.31138(11)
H11 H 0.7936 0.9919 0.2785
C23 C 0.79139(15) 1.0698(2) 0.40098(12)
H12 H 0.7665 0.9949 0.4286
C24 C 0.81161(16) 1.1823(2) 0.44975(13)
H13 H 0.8012 1.1830 0.5104
C25 C 0.84709(15) 1.2933(2) 0.40906(13)
H14 H 0.8594 1.3698 0.4420
C26 C 0.86461(12) 1.29216(18) 0.31990(11)
H15 H 0.8892 1.3677 0.2928
C27 C 0.93259(13) 0.62096(16) -0.05692(11)
H16 H 1.0018 0.6075 -0.0629
H17 H 0.8976 0.5751 -0.1037
H18 H 0.9128 0.5871 -0.0006
C28 C 0.86006(18) 0.8123(2) -0.39098(12)
H19 H 0.9119 0.8587 -0.4197
H20 H 0.7988 0.8302 -0.4216
H21 H 0.8729 0.7186 -0.3920
loop_
_geom_bond_atom_site_label_1
_geom_bond_atom_site_label_2
_geom_bond_site_symmetry_1
_geom_bond_site_symmetry_2
N1 C6 1_555 1_555
O1 C13 1_555 1_555
O2 C20 1_555 1_555
C1 C2 1_555 1_555
C2 H1 1_555 1_555
C3 C2 1_555 1_555
C4 C3 1_555 1_555
H2 C4 1_555 1_555
C5 C4 1_555 1_555
C6 C1 1_555 1_555
C7 N1 1_555 1_555
C8 C5 1_555 1_555
C9 C8 1_555 1_555
H3 C9 1_555 1_555
C10 C9 1_555 1_555
H4 C10 1_555 1_555
C11 C10 1_555 1_555
C12 C7 1_555 1_555
H5 C12 1_555 1_555
C13 C1 1_555 1_555
C14 C13 1_555 1_555
C15 C14 1_555 1_555
H6 C15 1_555 1_555
C16 C15 1_555 1_555
H7 C16 1_555 1_555
C17 C16 1_555 1_555
H8 C17 1_555 1_555
C18 C17 1_555 1_555
H9 C18 1_555 1_555
C19 C14 1_555 1_555
H10 C19 1_555 1_555
C20 C3 1_555 1_555
C21 C20 1_555 1_555
C22 C21 1_555 1_555
H11 C22 1_555 1_555
C23 C22 1_555 1_555
H12 C23 1_555 1_555
C24 C23 1_555 1_555
H13 C24 1_555 1_555
C25 C24 1_555 1_555
H14 C25 1_555 1_555
C26 C21 1_555 1_555
H15 C26 1_555 1_555
C27 N1 1_555 1_555
H16 C27 1_555 1_555
H17 C27 1_555 1_555
H18 C27 1_555 1_555
C28 C11 1_555 1_555
H19 C28 1_555 1_555
H20 C28 1_555 1_555
H21 C28 1_555 1_555
C5 C6 1_555 1_555
C7 C8 1_555 1_555
C11 C12 1_555 1_555
C18 C19 1_555 1_555
C25 C26 1_555 1_555

#END
