
#######################################################################
#
#                 Cambridge Crystallographic Data Centre
#                                CCDC 
#
#######################################################################
#
# If this CIF has been generated from an entry in the Cambridge 
# Structural Database, then it will include bibliographic, chemical, 
# crystal, experimental, refinement or atomic coordinate data resulting 
# from the CCDC's data processing and validation procedures.
#
#######################################################################

data_EGAHIF01
_chemical_formula_moiety         'C14 H16 N2 O6,2(H2 O1)'
_chemical_name_systematic        
"2,2'-[benzene-1,4-diylbis(carbonylimino)]dipropanoic acid dihydrate"
_symmetry_cell_setting           orthorhombic
_symmetry_space_group_name_H-M   'P 21 21 21'
_symmetry_Int_Tables_number      19
_space_group_name_Hall           'P 2ac 2ab'
loop_
_symmetry_equiv_pos_site_id
_symmetry_equiv_pos_as_xyz
1 x,y,z
2 1/2-x,-y,1/2+z
3 -x,1/2+y,1/2-z
4 1/2+x,1/2-y,-z
_cell_length_a                   7.7373(5)
_cell_length_b                   8.2071(5)
_cell_length_c                   26.4789(18)
_cell_angle_alpha                90
_cell_angle_beta                 90
_cell_angle_gamma                90
_cell_volume                     1681.43
_exptl_crystal_colour            colorless
_exptl_crystal_description       block
_cell_formula_units_Z            4
loop_
_atom_site_label
_atom_site_type_symbol
_atom_site_fract_x
_atom_site_fract_y
_atom_site_fract_z
O1 O 1.4593(2) 0.5279(2) 0.25682(8)
H1 H 1.008(4) 0.238(4) 0.2667(10)
C1 C 1.3088(3) 0.4941(3) 0.26427(7)
N1 N 1.0865(2) 0.2849(2) 0.28128(7)
O2 O 1.19498(19) 0.5991(2) 0.28165(6)
H2 H 1.247(2) 0.687(4) 0.2909(11)
C2 C 1.2396(3) 0.3255(3) 0.25211(8)
H3 H 1.329649 0.246326 0.260712
N2 N 0.5225(2) -0.0199(3) 0.48576(7)
O3 O 1.22783(19) 0.3148(2) 0.35411(5)
H4 H 0.600(4) 0.024(3) 0.5009(10)
C3 C 1.2003(4) 0.3075(3) 0.19609(9)
H5 H 1.301545 0.334026 0.176816
H6 H 1.107954 0.379865 0.186981
H7 H 1.166627 0.197166 0.189126
O4 O 0.3818(2) -0.0540(2) 0.41210(6)
H8 H -0.001(5) -0.001(5) 0.5439(14)
C4 C 1.0948(2) 0.2755(3) 0.33160(8)
O5 O 0.2180(2) 0.1423(2) 0.50731(7)
C5 C 0.9391(3) 0.2126(3) 0.35860(8)
O6 O 0.1030(2) -0.0774(2) 0.54213(8)
C6 C 0.9671(3) 0.1150(3) 0.40071(7)
H9 H 1.079165 0.095437 0.411900
C7 C 0.6597(3) 0.0740(3) 0.40954(7)
C8 C 0.8284(3) 0.0472(3) 0.42593(7)
H10 H 0.847896 -0.017323 0.454240
C9 C 0.6311(3) 0.1731(3) 0.36771(8)
H11 H 0.518866 0.192392 0.356610
C10 C 0.7696(3) 0.2432(3) 0.34257(8)
H12 H 0.749972 0.310842 0.314977
C11 C 0.5091(3) -0.0048(3) 0.43537(7)
C12 C 0.3930(3) -0.0999(3) 0.51604(8)
H13 H 0.362221 -0.202875 0.499592
C13 C 0.2303(3) 0.0034(3) 0.52073(8)
C14 C 0.4661(3) -0.1383(4) 0.56829(9)
H14 H 0.566008 -0.206824 0.564871
H15 H 0.380044 -0.193568 0.588012
H16 H 0.498205 -0.038739 0.584834
H17 H 1.382(5) 0.924(5) 0.2911(15)
H18 H 1.338(6) 0.905(6) 0.3411(18)
O7 O 1.3024(3) 0.8813(2) 0.31026(8)
O8 O -0.1733(2) 0.1028(2) 0.55098(7)
H19 H -0.187(6) 0.198(6) 0.5359(17)
H20 H -0.201(5) 0.124(5) 0.5821(15)
loop_
_geom_bond_atom_site_label_1
_geom_bond_atom_site_label_2
_geom_bond_site_symmetry_1
_geom_bond_site_symmetry_2
O1 C1 1_555 1_555
H1 N1 1_555 1_555
C1 O2 1_555 1_555
N1 C2 1_555 1_555
O2 H2 1_555 1_555
C2 C1 1_555 1_555
H3 C2 1_555 1_555
N2 H4 1_555 1_555
O3 C4 1_555 1_555
C3 C2 1_555 1_555
H5 C3 1_555 1_555
H6 C3 1_555 1_555
H7 C3 1_555 1_555
O4 C11 1_555 1_555
H8 O6 1_555 1_555
C4 N1 1_555 1_555
O5 C13 1_555 1_555
C5 C4 1_555 1_555
O6 C13 1_555 1_555
C6 C5 1_555 1_555
H9 C6 1_555 1_555
C7 C8 1_555 1_555
C8 C6 1_555 1_555
H10 C8 1_555 1_555
C9 C7 1_555 1_555
H11 C9 1_555 1_555
C10 C5 1_555 1_555
H12 C10 1_555 1_555
C11 N2 1_555 1_555
C12 N2 1_555 1_555
H13 C12 1_555 1_555
C13 C12 1_555 1_555
C14 C12 1_555 1_555
H14 C14 1_555 1_555
H15 C14 1_555 1_555
H16 C14 1_555 1_555
H17 O7 1_555 1_555
H18 O7 1_555 1_555
O8 H19 1_555 1_555
H20 O8 1_555 1_555
C7 C11 1_555 1_555
C9 C10 1_555 1_555

#END
