
#######################################################################
#
#                 Cambridge Crystallographic Data Centre
#                                CCDC 
#
#######################################################################
#
# If this CIF has been generated from an entry in the Cambridge 
# Structural Database, then it will include bibliographic, chemical, 
# crystal, experimental, refinement or atomic coordinate data resulting 
# from the CCDC's data processing and validation procedures.
#
#######################################################################

data_EGATIP
_chemical_name_common            
5,17-Di-(N-t-butyl-N-hydroxyamino)-11,23-di-bromo-25,26,27,28-tetramethoxycalix(4)arene
_chemical_formula_moiety         'C40 H48 Br2 N2 O6'
_chemical_name_systematic        
5,17-bis(N-p-t-butyl-N-hydroxyamino)-11,23-dibromo-25,26,27,28-tetramethoxycalix(4)arene
_symmetry_cell_setting           monoclinic
_symmetry_space_group_name_H-M   'C 2/c'
_symmetry_Int_Tables_number      15
_space_group_name_Hall           '-C 2yn'
loop_
_symmetry_equiv_pos_site_id
_symmetry_equiv_pos_as_xyz
1 x,y,z
2 -x,y,1/2-z
3 1/2+x,1/2+y,z
4 1/2-x,1/2+y,1/2-z
5 -x,-y,-z
6 x,-y,1/2+z
7 1/2-x,1/2-y,-z
8 1/2+x,1/2-y,1/2+z
_cell_length_a                   32.255(7)
_cell_length_b                   14.394(3)
_cell_length_c                   21.753(5)
_cell_angle_alpha                90
_cell_angle_beta                 110.210(9)
_cell_angle_gamma                90
_cell_volume                     9477.65
_exptl_crystal_colour            colorless
_exptl_crystal_description       plate
_chemical_melting_point          '503-504 K'
_cell_formula_units_Z            8
_exptl_crystal_recrystallization_method benzene
loop_
_atom_site_label
_atom_site_type_symbol
_atom_site_fract_x
_atom_site_fract_y
_atom_site_fract_z
Br1 Br 0.21768(4) 0.56649(8) 0.10776(5)
Br2 Br 0.34483(4) 0.44894(11) 0.63410(6)
O1 O 0.0748(2) 0.5624(5) 0.2271(3)
O2 O 0.1928(2) 0.3212(4) 0.2589(3)
O3 O 0.0602(2) 0.4701(5) 0.3880(3)
O4 O 0.23186(17) 0.5139(4) 0.3535(3)
O5 O 0.21432(19) 0.7477(4) 0.3046(3)
O6 O 0.1348(2) 0.5695(5) 0.5001(3)
N1 N 0.0976(2) 0.4110(5) 0.4239(3)
N2 N 0.1076(2) 0.6273(5) 0.4453(3)
C1 C 0.1220(3) 0.7321(6) 0.2366(4)
C2 C 0.1305(3) 0.6455(7) 0.2015(4)
C3 C 0.1630(3) 0.6456(7) 0.1717(4)
C4 C 0.1731(3) 0.5649(8) 0.1476(4)
C5 C 0.1552(3) 0.4814(7) 0.1536(4)
C6 C 0.1217(3) 0.4795(7) 0.1829(4)
C7 C 0.1092(3) 0.5629(8) 0.2025(4)
C8 C 0.0322(3) 0.5719(10) 0.1803(5)
C9 C 0.1046(3) 0.3859(7) 0.1977(4)
C10 C 0.1251(3) 0.3683(6) 0.2719(4)
C11 C 0.1008(3) 0.3867(6) 0.3130(4)
C12 C 0.1206(3) 0.3854(6) 0.3799(4)
C13 C 0.1656(3) 0.3659(6) 0.4070(4)
C14 C 0.1907(3) 0.3426(6) 0.3687(4)
C15 C 0.1690(3) 0.3421(6) 0.3005(5)
C16 C 0.1935(4) 0.2237(7) 0.2460(5)
C17 C 0.0771(3) 0.3306(8) 0.4485(5)
C18 C 0.0417(4) 0.2833(8) 0.3947(5)
C19 C 0.1139(4) 0.2639(8) 0.4845(5)
C20 C 0.0581(3) 0.3734(8) 0.4986(5)
C21 C 0.2402(3) 0.3290(6) 0.3982(4)
C22 C 0.2624(3) 0.4084(6) 0.4411(4)
C23 C 0.2885(3) 0.3949(8) 0.5072(5)
C24 C 0.3060(3) 0.4704(9) 0.5458(4)
C25 C 0.2974(3) 0.5608(7) 0.5241(4)
C26 C 0.2715(3) 0.5751(7) 0.4588(4)
C27 C 0.2563(3) 0.4991(6) 0.4184(4)
C28 C 0.2581(3) 0.5174(7) 0.3123(4)
C29 C 0.2582(3) 0.6717(6) 0.4327(4)
C30 C 0.2090(3) 0.6845(6) 0.4038(4)
C31 C 0.1826(3) 0.6559(5) 0.4396(4)
C32 C 0.1371(3) 0.6590(6) 0.4119(4)
C33 C 0.1172(3) 0.6854(6) 0.3471(4)
C34 C 0.1431(3) 0.7147(6) 0.3100(4)
C35 C 0.1886(3) 0.7169(6) 0.3408(4)
C36 C 0.2276(3) 0.8426(7) 0.3176(5)
C37 C 0.0902(3) 0.7013(7) 0.4781(4)
C38 C 0.0624(3) 0.7703(7) 0.4264(5)
C39 C 0.1272(3) 0.7523(7) 0.5310(5)
C40 C 0.0596(3) 0.6538(8) 0.5086(5)
loop_
_geom_bond_atom_site_label_1
_geom_bond_atom_site_label_2
_geom_bond_site_symmetry_1
_geom_bond_site_symmetry_2
Br1 C4 1_555 1_555
Br2 C24 1_555 1_555
O1 C7 1_555 1_555
O2 C15 1_555 1_555
O3 N1 1_555 1_555
O4 C27 1_555 1_555
O5 C35 1_555 1_555
O6 N2 1_555 1_555
N1 C12 1_555 1_555
N2 C32 1_555 1_555
C1 C2 1_555 1_555
C2 C3 1_555 1_555
C3 C4 1_555 1_555
C4 C5 1_555 1_555
C5 C6 1_555 1_555
C6 C7 1_555 1_555
C7 C2 1_555 1_555
C8 O1 1_555 1_555
C9 C6 1_555 1_555
C10 C9 1_555 1_555
C11 C10 1_555 1_555
C12 C11 1_555 1_555
C13 C12 1_555 1_555
C14 C13 1_555 1_555
C15 C10 1_555 1_555
C16 O2 1_555 1_555
C17 N1 1_555 1_555
C18 C17 1_555 1_555
C19 C17 1_555 1_555
C20 C17 1_555 1_555
C21 C14 1_555 1_555
C22 C21 1_555 1_555
C23 C22 1_555 1_555
C24 C23 1_555 1_555
C25 C24 1_555 1_555
C26 C25 1_555 1_555
C27 C22 1_555 1_555
C28 O4 1_555 1_555
C29 C26 1_555 1_555
C30 C29 1_555 1_555
C31 C30 1_555 1_555
C32 C31 1_555 1_555
C33 C32 1_555 1_555
C34 C1 1_555 1_555
C35 C30 1_555 1_555
C36 O5 1_555 1_555
C37 N2 1_555 1_555
C38 C37 1_555 1_555
C39 C37 1_555 1_555
C40 C37 1_555 1_555
C14 C15 1_555 1_555
C26 C27 1_555 1_555
C33 C34 1_555 1_555
C34 C35 1_555 1_555

#END
