
#######################################################################
#
#                 Cambridge Crystallographic Data Centre
#                                CCDC 
#
#######################################################################
#
# If this CIF has been generated from an entry in the Cambridge 
# Structural Database, then it will include bibliographic, chemical, 
# crystal, experimental, refinement or atomic coordinate data resulting 
# from the CCDC's data processing and validation procedures.
#
#######################################################################

data_EGEKEI
_chemical_formula_moiety         'C23 H31 B1 Cl1 N3'
_chemical_name_systematic        
5-t-butyl-3-chloro-4-(2,6-diisopropylphenyl)-2-phenyl-3,4-dihydro-2H-1,2,4,3-triazaborole
_symmetry_cell_setting           orthorhombic
_symmetry_space_group_name_H-M   'P b c a'
_symmetry_Int_Tables_number      61
_space_group_name_Hall           '-P 2ac 2ab'
loop_
_symmetry_equiv_pos_site_id
_symmetry_equiv_pos_as_xyz
1 x,y,z
2 1/2-x,-y,1/2+z
3 -x,1/2+y,1/2-z
4 1/2+x,1/2-y,-z
5 -x,-y,-z
6 1/2+x,y,1/2-z
7 x,1/2-y,1/2+z
8 1/2-x,1/2+y,z
_cell_length_a                   9.7748(16)
_cell_length_b                   18.042(4)
_cell_length_c                   24.277(5)
_cell_angle_alpha                90
_cell_angle_beta                 90
_cell_angle_gamma                90
_cell_volume                     4281.42
_exptl_crystal_colour            colorless
_exptl_crystal_description       needle
_cell_formula_units_Z            8
loop_
_atom_site_label
_atom_site_type_symbol
_atom_site_fract_x
_atom_site_fract_y
_atom_site_fract_z
B1 B 0.7003(4) 0.2930(2) 0.65668(17)
C1 C 0.5619(3) 0.3854(2) 0.68530(14)
C2 C 0.4686(4) 0.4523(2) 0.68861(15)
C3 C 0.5424(4) 0.5223(2) 0.66828(16)
H1 H 0.6263 0.5296 0.6897
H2 H 0.4823 0.5654 0.673
H3 H 0.5655 0.5167 0.6292
C4 C 0.3386(4) 0.4392(2) 0.65416(16)
H4 H 0.3633 0.4349 0.6152
H5 H 0.2757 0.481 0.6591
H6 H 0.2939 0.3934 0.6663
C5 C 0.4262(4) 0.4635(2) 0.74871(16)
H7 H 0.377 0.4196 0.7617
H8 H 0.3666 0.5071 0.7515
H9 H 0.508 0.4712 0.7714
C6 C 0.7201(4) 0.2416(2) 0.75706(15)
C7 C 0.8296(4) 0.1938(2) 0.74929(18)
H10 H 0.8767 0.1932 0.715
C8 C 0.8702(4) 0.1474(2) 0.79125(18)
H11 H 0.9459 0.1152 0.7858
C9 C 0.8026(4) 0.1468(2) 0.84104(17)
H12 H 0.8307 0.1143 0.8697
C10 C 0.6934(4) 0.1942(2) 0.84854(16)
H13 H 0.6458 0.1939 0.8827
C11 C 0.6520(4) 0.2421(2) 0.80720(15)
H14 H 0.5776 0.275 0.8131
C12 C 0.6233(3) 0.3836(2) 0.58207(14)
C13 C 0.7276(3) 0.4328(2) 0.56555(14)
C14 C 0.8390(3) 0.4597(2) 0.60508(15)
H15 H 0.808 0.4496 0.6436
C15 C 0.8668(4) 0.5426(2) 0.59971(18)
H16 H 0.9108 0.5526 0.5642
H17 H 0.9271 0.5586 0.6297
H18 H 0.7802 0.5698 0.6018
C16 C 0.9714(4) 0.4164(3) 0.59496(19)
H19 H 1.0036 0.4257 0.5574
H20 H 0.9539 0.3633 0.5997
H21 H 1.0412 0.4324 0.6213
C17 C 0.7312(4) 0.4556(2) 0.51109(15)
H22 H 0.8004 0.489 0.4993
C18 C 0.6352(4) 0.4305(2) 0.47364(15)
H23 H 0.6384 0.447 0.4365
C19 C 0.5349(4) 0.3814(2) 0.49008(15)
H24 H 0.4698 0.3644 0.4639
C20 C 0.5268(3) 0.3564(2) 0.54402(15)
C21 C 0.4173(4) 0.3002(2) 0.55923(16)
H25 H 0.4129 0.2967 0.6003
C22 C 0.4553(4) 0.2235(2) 0.53629(17)
H26 H 0.4667 0.2268 0.4963
H27 H 0.3822 0.1882 0.5449
H28 H 0.541 0.2068 0.5531
C23 C 0.2760(4) 0.3226(2) 0.53797(17)
H29 H 0.2553 0.3733 0.5499
H30 H 0.2069 0.2886 0.5527
H31 H 0.2752 0.3203 0.4976
Cl1 Cl 0.79664(11) 0.23427(6) 0.61566(4)
N1 N 0.6777(3) 0.29000(17) 0.71401(12)
N2 N 0.5909(3) 0.34826(17) 0.72921(12)
N3 N 0.6244(3) 0.35575(16) 0.63797(12)
loop_
_geom_bond_atom_site_label_1
_geom_bond_atom_site_label_2
_geom_bond_site_symmetry_1
_geom_bond_site_symmetry_2
B1 Cl1 1_555 1_555
C1 C2 1_555 1_555
C2 C3 1_555 1_555
C3 H1 1_555 1_555
H2 C3 1_555 1_555
H3 C3 1_555 1_555
C4 C2 1_555 1_555
H4 C4 1_555 1_555
H5 C4 1_555 1_555
H6 C4 1_555 1_555
C5 C2 1_555 1_555
H7 C5 1_555 1_555
H8 C5 1_555 1_555
H9 C5 1_555 1_555
C6 C7 1_555 1_555
C7 H10 1_555 1_555
C8 C7 1_555 1_555
H11 C8 1_555 1_555
C9 C8 1_555 1_555
H12 C9 1_555 1_555
C10 C9 1_555 1_555
H13 C10 1_555 1_555
C11 C6 1_555 1_555
H14 C11 1_555 1_555
C12 C13 1_555 1_555
C13 C14 1_555 1_555
C14 H15 1_555 1_555
C15 C14 1_555 1_555
H16 C15 1_555 1_555
H17 C15 1_555 1_555
H18 C15 1_555 1_555
C16 C14 1_555 1_555
H19 C16 1_555 1_555
H20 C16 1_555 1_555
H21 C16 1_555 1_555
C17 C13 1_555 1_555
H22 C17 1_555 1_555
C18 C17 1_555 1_555
H23 C18 1_555 1_555
C19 C18 1_555 1_555
H24 C19 1_555 1_555
C20 C12 1_555 1_555
C21 C20 1_555 1_555
H25 C21 1_555 1_555
C22 C21 1_555 1_555
H26 C22 1_555 1_555
H27 C22 1_555 1_555
H28 C22 1_555 1_555
C23 C21 1_555 1_555
H29 C23 1_555 1_555
H30 C23 1_555 1_555
H31 C23 1_555 1_555
N1 B1 1_555 1_555
N2 C1 1_555 1_555
N3 B1 1_555 1_555
C1 N3 1_555 1_555
C6 N1 1_555 1_555
C10 C11 1_555 1_555
C12 N3 1_555 1_555
C19 C20 1_555 1_555
N1 N2 1_555 1_555

#END
