
#######################################################################
#
#                 Cambridge Crystallographic Data Centre
#                                CCDC 
#
#######################################################################
#
# If this CIF has been generated from an entry in the Cambridge 
# Structural Database, then it will include bibliographic, chemical, 
# crystal, experimental, refinement or atomic coordinate data resulting 
# from the CCDC's data processing and validation procedures.
#
#######################################################################

data_EGEKIM
_chemical_formula_moiety         'C23 H32 B1 N3 O1'
_chemical_name_systematic        
5-t-butyl-4-(2,6-diisopropylphenyl)-2-phenyl-2,4-dihydro-3H-1,2,4,3-triazaborol-3-ol
_symmetry_cell_setting           monoclinic
_symmetry_space_group_name_H-M   'C c'
_symmetry_Int_Tables_number      9
_space_group_name_Hall           'C -2yc'
loop_
_symmetry_equiv_pos_site_id
_symmetry_equiv_pos_as_xyz
1 x,y,z
2 x,-y,1/2+z
3 1/2+x,1/2+y,z
4 1/2+x,1/2-y,1/2+z
_cell_length_a                   18.898(4)
_cell_length_b                   13.4431(19)
_cell_length_c                   17.569(3)
_cell_angle_alpha                90
_cell_angle_beta                 100.681(5)
_cell_angle_gamma                90
_cell_volume                     4386.03
_exptl_crystal_colour            colorless
_exptl_crystal_description       block
_cell_formula_units_Z            8
loop_
_atom_site_label
_atom_site_type_symbol
_atom_site_fract_x
_atom_site_fract_y
_atom_site_fract_z
B1 B 0.7560(4) 0.2421(4) 0.6433(3)
C1 C 0.6220(3) 0.2647(4) 0.5940(3)
C2 C 0.5808(3) 0.1953(4) 0.6272(3)
C3 C 0.6071(3) 0.1516(4) 0.7072(3)
H1 H 0.6457 0.1962 0.7351
C4 C 0.6403(4) 0.0487(4) 0.7010(4)
H2 H 0.6563 0.0213 0.753
H3 H 0.6816 0.0546 0.6748
H4 H 0.6043 0.0045 0.6712
C5 C 0.5483(4) 0.1448(5) 0.7555(4)
H5 H 0.527 0.2107 0.7592
H6 H 0.5691 0.1209 0.8076
H7 H 0.511 0.0983 0.731
C6 C 0.5158(3) 0.1644(4) 0.5824(3)
H8 H 0.4868 0.1179 0.6034
C7 C 0.4925(4) 0.2000(4) 0.5080(4)
H9 H 0.4477 0.1785 0.4788
C8 C 0.5345(3) 0.2664(4) 0.4763(3)
H10 H 0.5185 0.2894 0.4249
C9 C 0.5996(3) 0.3006(4) 0.5180(3)
C10 C 0.6472(3) 0.3690(4) 0.4805(3)
H11 H 0.6802 0.4045 0.523
C11 C 0.6042(4) 0.4475(4) 0.4290(4)
H12 H 0.6372 0.4962 0.4131
H13 H 0.5714 0.4813 0.4578
H14 H 0.5762 0.4155 0.383
C12 C 0.6943(3) 0.3096(4) 0.4341(3)
H15 H 0.7239 0.262 0.4684
H16 H 0.7256 0.3553 0.4121
H17 H 0.6634 0.2735 0.3921
C13 C 0.7044(3) 0.3787(4) 0.6874(3)
C14 C 0.6506(3) 0.4573(4) 0.7022(3)
C15 C 0.6912(3) 0.5355(4) 0.7577(4)
H18 H 0.7114 0.5039 0.8073
H19 H 0.6579 0.5884 0.7663
H20 H 0.7303 0.5639 0.7349
C16 C 0.6169(4) 0.5110(4) 0.6278(3)
H21 H 0.655 0.5352 0.6017
H22 H 0.5882 0.5674 0.6404
H23 H 0.5857 0.4649 0.5937
C17 C 0.5914(3) 0.4099(4) 0.7384(3)
H24 H 0.5635 0.3637 0.7014
H25 H 0.5595 0.4619 0.7519
H26 H 0.6132 0.3737 0.7853
C18 C 0.8813(3) 0.2920(4) 0.7218(3)
C19 C 0.9220(3) 0.3743(4) 0.7499(3)
H27 H 0.8991 0.4363 0.7545
C20 C 0.9962(3) 0.3664(5) 0.7713(3)
H28 H 1.0239 0.4231 0.7905
C21 C 1.0300(3) 0.2770(5) 0.7647(3)
H29 H 1.0809 0.2719 0.7793
C22 C 0.9898(3) 0.1950(5) 0.7370(3)
H30 H 1.0131 0.1333 0.7322
C23 C 0.9158(3) 0.2016(4) 0.7161(3)
H31 H 0.8884 0.1443 0.6978
N1 N 0.6898(3) 0.2964(3) 0.6380(2)
N2 N 0.7706(3) 0.3820(3) 0.7228(3)
N3 N 0.8061(2) 0.2990(3) 0.6979(2)
O1 O 0.7711(2) 0.1589(3) 0.6062(2)
H32 H 0.7429 0.1338 0.5702
B2 B 0.7737(4) 0.3007(4) -0.0484(4)
C24 C 0.7272(3) 0.1310(4) -0.0120(3)
C25 C 0.7606(3) 0.0497(4) -0.0403(3)
C26 C 0.8377(4) 0.0546(4) -0.0535(4)
H33 H 0.8619 0.1118 -0.0227
C27 C 0.8806(4) -0.0400(5) -0.0259(5)
H34 H 0.8729 -0.0577 0.026
H35 H 0.932 -0.028 -0.0246
H36 H 0.8642 -0.0947 -0.0618
C28 C 0.8400(4) 0.0738(5) -0.1383(4)
H37 H 0.817 0.0184 -0.1698
H38 H 0.8903 0.0797 -0.1449
H39 H 0.8144 0.1357 -0.155
C29 C 0.7197(4) -0.0355(4) -0.0602(3)
H40 H 0.7409 -0.0912 -0.0806
C30 C 0.6488(4) -0.0408(4) -0.0511(3)
H41 H 0.6223 -0.1005 -0.0636
C31 C 0.6160(3) 0.0407(4) -0.0236(3)
H42 H 0.5671 0.0363 -0.0178
C32 C 0.6540(3) 0.1290(4) -0.0045(3)
C33 C 0.6158(3) 0.2209(4) 0.0192(3)
H43 H 0.653 0.2678 0.0467
C34 C 0.5630(4) 0.1971(4) 0.0729(4)
H44 H 0.5419 0.259 0.088
H45 H 0.5886 0.1632 0.1193
H46 H 0.5247 0.1539 0.0459
C35 C 0.5752(4) 0.2728(5) -0.0541(4)
H47 H 0.5366 0.2293 -0.0802
H48 H 0.6088 0.2867 -0.0892
H49 H 0.5545 0.3353 -0.0398
C36 C 0.8009(3) 0.2559(4) 0.0795(3)
C37 C 0.8129(4) 0.1981(4) 0.1561(3)
C38 C 0.8540(4) 0.1019(5) 0.1476(4)
H50 H 0.898 0.1174 0.1281
H51 H 0.8236 0.0575 0.1111
H52 H 0.8665 0.0691 0.1981
C39 C 0.7416(4) 0.1731(5) 0.1810(4)
H53 H 0.7513 0.1413 0.2321
H54 H 0.7138 0.1277 0.1433
H55 H 0.714 0.2344 0.1837
C40 C 0.8575(4) 0.2623(5) 0.2184(3)
H56 H 0.9035 0.2787 0.2033
H57 H 0.8664 0.2259 0.2676
H58 H 0.8312 0.3238 0.2245
C41 C 0.8381(3) 0.4713(4) -0.0164(3)
C42 C 0.8463(3) 0.5465(4) 0.0394(3)
H59 H 0.8347 0.5341 0.0889
C43 C 0.8715(3) 0.6395(4) 0.0224(3)
H60 H 0.8776 0.6907 0.0604
C44 C 0.8876(3) 0.6574(4) -0.0503(4)
H61 H 0.904 0.7212 -0.0624
C45 C 0.8800(3) 0.5827(4) -0.1048(3)
H62 H 0.8917 0.595 -0.1542
C46 C 0.8555(3) 0.4902(4) -0.0882(3)
H63 H 0.8505 0.4391 -0.1262
N4 N 0.7669(3) 0.2221(3) 0.0068(3)
N5 N 0.8272(3) 0.3454(3) 0.0776(3)
N6 N 0.8123(3) 0.3755(3) 0.0001(3)
O2 O 0.7456(2) 0.2947(3) -0.1245(2)
H64 H 0.7692 0.3342 -0.1431
loop_
_geom_bond_atom_site_label_1
_geom_bond_atom_site_label_2
_geom_bond_site_symmetry_1
_geom_bond_site_symmetry_2
B1 N1 1_555 1_555
C1 C2 1_555 1_555
C2 C3 1_555 1_555
C3 H1 1_555 1_555
C4 C3 1_555 1_555
H2 C4 1_555 1_555
H3 C4 1_555 1_555
H4 C4 1_555 1_555
C5 C3 1_555 1_555
H5 C5 1_555 1_555
H6 C5 1_555 1_555
H7 C5 1_555 1_555
C6 C2 1_555 1_555
H8 C6 1_555 1_555
C7 C6 1_555 1_555
H9 C7 1_555 1_555
C8 C7 1_555 1_555
H10 C8 1_555 1_555
C9 C1 1_555 1_555
C10 C9 1_555 1_555
H11 C10 1_555 1_555
C11 C10 1_555 1_555
H12 C11 1_555 1_555
H13 C11 1_555 1_555
H14 C11 1_555 1_555
C12 C10 1_555 1_555
H15 C12 1_555 1_555
H16 C12 1_555 1_555
H17 C12 1_555 1_555
C13 C14 1_555 1_555
C14 C15 1_555 1_555
C15 H18 1_555 1_555
H19 C15 1_555 1_555
H20 C15 1_555 1_555
C16 C14 1_555 1_555
H21 C16 1_555 1_555
H22 C16 1_555 1_555
H23 C16 1_555 1_555
C17 C14 1_555 1_555
H24 C17 1_555 1_555
H25 C17 1_555 1_555
H26 C17 1_555 1_555
C18 C19 1_555 1_555
C19 H27 1_555 1_555
C20 C19 1_555 1_555
H28 C20 1_555 1_555
C21 C20 1_555 1_555
H29 C21 1_555 1_555
C22 C21 1_555 1_555
H30 C22 1_555 1_555
C23 C18 1_555 1_555
H31 C23 1_555 1_555
N1 C1 1_555 1_555
N2 C13 1_555 1_555
N3 B1 1_555 1_555
O1 B1 1_555 1_555
H32 O1 1_555 1_555
B2 N4 1_555 1_555
C24 C25 1_555 1_555
C25 C26 1_555 1_555
C26 H33 1_555 1_555
C27 C26 1_555 1_555
H34 C27 1_555 1_555
H35 C27 1_555 1_555
H36 C27 1_555 1_555
C28 C26 1_555 1_555
H37 C28 1_555 1_555
H38 C28 1_555 1_555
H39 C28 1_555 1_555
C29 C25 1_555 1_555
H40 C29 1_555 1_555
C30 C29 1_555 1_555
H41 C30 1_555 1_555
C31 C30 1_555 1_555
H42 C31 1_555 1_555
C32 C24 1_555 1_555
C33 C32 1_555 1_555
H43 C33 1_555 1_555
C34 C33 1_555 1_555
H44 C34 1_555 1_555
H45 C34 1_555 1_555
H46 C34 1_555 1_555
C35 C33 1_555 1_555
H47 C35 1_555 1_555
H48 C35 1_555 1_555
H49 C35 1_555 1_555
C36 C37 1_555 1_555
C37 C38 1_555 1_555
C38 H50 1_555 1_555
H51 C38 1_555 1_555
H52 C38 1_555 1_555
C39 C37 1_555 1_555
H53 C39 1_555 1_555
H54 C39 1_555 1_555
H55 C39 1_555 1_555
C40 C37 1_555 1_555
H56 C40 1_555 1_555
H57 C40 1_555 1_555
H58 C40 1_555 1_555
C41 C42 1_555 1_555
C42 H59 1_555 1_555
C43 C42 1_555 1_555
H60 C43 1_555 1_555
C44 C43 1_555 1_555
H61 C44 1_555 1_555
C45 C44 1_555 1_555
H62 C45 1_555 1_555
C46 C41 1_555 1_555
H63 C46 1_555 1_555
N4 C24 1_555 1_555
N5 C36 1_555 1_555
N6 B2 1_555 1_555
O2 B2 1_555 1_555
H64 O2 1_555 1_555
C8 C9 1_555 1_555
C13 N1 1_555 1_555
C18 N3 1_555 1_555
C22 C23 1_555 1_555
N2 N3 1_555 1_555
C31 C32 1_555 1_555
C36 N4 1_555 1_555
C41 N6 1_555 1_555
C45 C46 1_555 1_555
N5 N6 1_555 1_555

#END
