
#######################################################################
#
#                 Cambridge Crystallographic Data Centre
#                                CCDC 
#
#######################################################################
#
# If this CIF has been generated from an entry in the Cambridge 
# Structural Database, then it will include bibliographic, chemical, 
# crystal, experimental, refinement or atomic coordinate data resulting 
# from the CCDC's data processing and validation procedures.
#
#######################################################################

data_EGEPAJ
_chemical_formula_moiety         'C7 H8 Cl1 N3 O4 S2,2(C12 H10 N2)'
_chemical_name_systematic        
"6-Chloro-3,4-dihydro-2H-1,2,4-benzothiadiazine-7-sulfonamide 1,1-dioxide 4,4'-ethene-1,2-diyldipyridine"
_symmetry_cell_setting           monoclinic
_symmetry_space_group_name_H-M   'P 21/c'
_symmetry_Int_Tables_number      14
_space_group_name_Hall           '-P 2ybc'
loop_
_symmetry_equiv_pos_site_id
_symmetry_equiv_pos_as_xyz
1 x,y,z
2 -x,1/2+y,1/2-z
3 -x,-y,-z
4 x,1/2-y,1/2+z
_cell_length_a                   11.2718(14)
_cell_length_b                   26.189(3)
_cell_length_c                   21.160(3)
_cell_angle_alpha                90
_cell_angle_beta                 93.349(9)
_cell_angle_gamma                90
_cell_volume                     6235.7
_exptl_crystal_colour            colorless
_exptl_crystal_description       block
_cell_formula_units_Z            8
loop_
_atom_site_label
_atom_site_type_symbol
_atom_site_fract_x
_atom_site_fract_y
_atom_site_fract_z
Cl1 Cl 0.13907(8) 0.08042(3) 0.96473(5)
S1 S 0.20682(7) 0.09721(3) 0.81611(4)
S2 S 0.47220(6) 0.25978(3) 0.89487(4)
O1 O 0.23110(19) 0.04488(8) 0.83142(12)
O2 O 0.59315(16) 0.24278(8) 0.90568(10)
O3 O 0.4361(2) 0.28061(8) 0.83482(10)
O4 O 0.2608(2) 0.11796(8) 0.76223(10)
N1 N 0.3741(2) 0.23983(9) 1.02214(11)
H1 H 0.3458 0.2367 1.0588
N2 N 0.4462(2) 0.30158(8) 0.94883(11)
C1 C 0.2586(2) 0.13667(10) 0.87942(14)
C2 C 0.3342(2) 0.17643(10) 0.86691(14)
H2 H 0.3574 0.1809 0.8258
C3 C 0.3768(2) 0.21004(10) 0.91407(13)
C4 C 0.3394(2) 0.20571(10) 0.97573(13)
C5 C 0.4568(3) 0.28102(11) 1.01205(14)
H3 H 0.4434 0.3082 1.0420
H4 H 0.5372 0.2686 1.0206
N3 N 0.0670(2) 0.10426(10) 0.81271(15)
C6 C 0.2253(2) 0.13052(10) 0.94319(14)
C7 C 0.2636(2) 0.16489(10) 0.98856(14)
H5 H 0.2386 0.1611 1.0294
H6 H 0.379(2) 0.3169(10) 0.9359(12)
H7 H 0.020(2) 0.0819(8) 0.8073(11)
H8 H 0.044(2) 0.1306(10) 0.7975(13)
Cl2 Cl 0.64033(8) 0.40626(3) 0.01019(6)
S3 S 0.77270(7) 0.40249(3) 0.15257(4)
S4 S 1.00351(7) 0.23298(3) 0.07999(4)
O5 O 0.8495(2) 0.38633(8) 0.20513(11)
O6 O 0.78593(19) 0.45340(7) 0.12920(12)
O7 O 1.12240(17) 0.24982(8) 0.07122(10)
O8 O 0.9772(2) 0.21254(8) 0.13998(10)
C8 C 0.9055(2) 0.28296(10) 0.05943(13)
N4 N 0.8706(2) 0.24893(10) -0.04595(12)
N5 N 0.9682(2) 0.19024(8) 0.02644(11)
C9 C 0.7993(2) 0.35843(10) 0.09230(15)
C10 C 0.8800(2) 0.31908(10) 0.10443(14)
H9 H 0.9186 0.3169 0.1444
C11 C 0.8470(2) 0.28387(10) -0.00131(13)
C12 C 0.9633(3) 0.21104(11) -0.03781(14)
H10 H 1.0392 0.2264 -0.0460
H11 H 0.9484 0.1836 -0.0681
N6 N 0.6367(2) 0.39578(9) 0.16802(16)
C13 C 0.7418(2) 0.35885(10) 0.03130(15)
C14 C 0.7644(3) 0.32317(11) -0.01374(15)
H12 H 0.7243 0.3250 -0.0533
H13 H 0.907(2) 0.1749(10) 0.0357(12)
H14 H 0.840(2) 0.2460(9) -0.0739(11)
H15 H 0.588(2) 0.4194(10) 0.1582(12)
H16 H 0.621(3) 0.3655(11) 0.1848(14)
N7 N 0.2569(2) 0.85092(10) 0.93981(14)
C15 C 0.2432(4) 0.88826(15) 0.8979(2)
H17 H 0.1731 0.8889 0.8725
C16 C 0.3255(3) 0.92628(14) 0.8893(2)
H18 H 0.3113 0.9512 0.8584
C17 C 0.4290(3) 0.92659(12) 0.92706(16)
C18 C 0.5223(3) 0.96694(13) 0.92273(19)
H19 H 0.5935 0.9603 0.9457
C19 C 0.5192(3) 1.00658(13) 0.89405(19)
H20 H 0.4491 1.0130 0.8700
C20 C 0.6119(3) 1.04662(12) 0.89185(17)
C21 C 0.7217(3) 1.04480(14) 0.92568(19)
H21 H 0.7431 1.0173 0.9517
C22 C 0.7984(3) 1.08624(14) 0.91878(19)
H22 H 0.8722 1.0850 0.9408
C23 C 0.3584(3) 0.85201(12) 0.97386(16)
H23 H 0.3721 0.8263 1.0037
C24 C 0.4442(3) 0.88746(12) 0.96886(17)
H24 H 0.5142 0.8851 0.9942
C25 C 0.5875(3) 1.08820(13) 0.85467(19)
H25 H 0.5155 1.0906 0.8310
C26 C 0.6695(3) 1.12604(14) 0.85251(19)
H26 H 0.6498 1.1539 0.8267
N8 N 0.7745(2) 1.12700(11) 0.88356(15)
N9 N 0.5122(2) 0.51199(9) 0.83346(13)
N10 N 0.9896(2) 0.21904(10) 0.78921(13)
C27 C 0.8712(3) 0.22058(12) 0.78713(15)
H27 H 0.8299 0.1899 0.7828
C28 C 0.8063(3) 0.26506(12) 0.79107(15)
H28 H 0.7237 0.2637 0.7903
C29 C 0.8635(3) 0.31153(11) 0.79615(14)
C30 C 0.8020(3) 0.36186(13) 0.80106(16)
H29 H 0.8489 0.3908 0.7975
C31 C 0.6937(3) 0.36932(13) 0.80947(16)
H30 H 0.6458 0.3405 0.8114
C32 C 0.6346(3) 0.41988(12) 0.81666(14)
C33 C 0.5304(3) 0.42184(12) 0.84642(17)
H31 H 0.4975 0.3920 0.8615
C34 C 0.4739(3) 0.46764(12) 0.85428(18)
H32 H 0.4041 0.4675 0.8756
C35 C 1.0427(3) 0.26361(12) 0.79485(17)
H33 H 1.1253 0.2640 0.7969
C36 C 0.9848(3) 0.30990(12) 0.79798(16)
H34 H 1.0285 0.3400 0.8014
C37 C 0.6757(3) 0.46597(12) 0.79399(16)
H35 H 0.7459 0.4669 0.7730
C38 C 0.6134(3) 0.51008(13) 0.80238(17)
H36 H 0.6423 0.5402 0.7859
N11 N 0.5436(2) 0.20952(10) 0.67835(13)
C39 C 0.4284(3) 0.20960(14) 0.68915(15)
H37 H 0.3918 0.1784 0.6959
C40 C 0.3590(3) 0.25376(13) 0.69090(15)
H38 H 0.2783 0.2513 0.6973
C41 C 0.41070(9) 0.301402(19) 0.68298(14)
C42 C 0.35821(4) 0.35350(2) 0.68629(16)
H39 H 0.4102 0.3811 0.6896
C43 C 0.25366(4) 0.362393(18) 0.68502(15)
H40 H 0.2022 0.3347 0.6813
C44 C 0.19935(10) 0.41410(2) 0.68883(16)
N12 N 0.0709(3) 0.50636(12) 0.69608(16)
C45 C 0.2505(3) 0.45920(14) 0.70950(15)
H41 H 0.3310 0.4600 0.7217
C46 C 0.1841(3) 0.50310(14) 0.71237(16)
H42 H 0.2227 0.5326 0.7270
C47 C 0.5905(3) 0.25507(12) 0.66982(16)
H43 H 0.6711 0.2567 0.6626
C48 C 0.5284(3) 0.30044(13) 0.67086(16)
H44 H 0.5674 0.3309 0.6632
C49 C 0.0809(3) 0.41624(15) 0.67379(19)
H45 H 0.0399 0.3868 0.6610
C50 C 0.0204(4) 0.46260(15) 0.67752(19)
H46 H -0.0606 0.4629 0.6663
N13 N 1.2156(2) 0.34483(9) 0.91241(12)
C51 C 1.1293(3) 0.34556(13) 0.95232(17)
H47 H 1.1257 0.3191 0.9814
C52 C 1.0445(3) 0.38344(13) 0.95303(16)
H48 H 0.9850 0.3820 0.9816
C53 C 1.04876(7) 0.42355(2) 0.91100(13)
C54 C 0.84376(9) 0.53832(2) 0.91904(12)
C55 C 0.8609(3) 0.58098(15) 0.88476(18)
H49 H 0.9231 0.5826 0.8578
C56 C 0.7864(3) 0.62175(16) 0.88983(19)
H50 H 0.8018 0.6507 0.8661
N14 N 0.6937(3) 0.62349(11) 0.92589(16)
C57 C 1.2182(3) 0.38275(12) 0.87032(17)
H51 H 1.2766 0.3822 0.8411
C58 C 0.6777(4) 0.58255(15) 0.9602(2)
H52 H 0.6150 0.5825 0.9870
C59 C 0.7489(3) 0.53958(14) 0.9589(2)
H53 H 0.7338 0.5116 0.9843
C60 C 1.1387(3) 0.42244(12) 0.86817(16)
H54 H 1.1446 0.4484 0.8385
C61 C 0.90122(5) 0.48785(2) 0.93200(4)
H55 H 0.8759 0.4680 0.9650
C62 C 0.98047(5) 0.47185(2) 0.90055(4)
H56 H 1.0004 0.4919 0.8665
loop_
_geom_bond_atom_site_label_1
_geom_bond_atom_site_label_2
_geom_bond_site_symmetry_1
_geom_bond_site_symmetry_2
Cl1 C6 1_555 1_555
S1 O1 1_555 1_555
S2 O2 1_555 1_555
O3 S2 1_555 1_555
O4 S1 1_555 1_555
N1 H1 1_555 1_555
N2 S2 1_555 1_555
C1 S1 1_555 1_555
C2 C1 1_555 1_555
H2 C2 1_555 1_555
C3 S2 1_555 1_555
C4 N1 1_555 1_555
C5 N1 1_555 1_555
H3 C5 1_555 1_555
H4 C5 1_555 1_555
N3 S1 1_555 1_555
C6 C1 1_555 1_555
C7 C4 1_555 1_555
H5 C7 1_555 1_555
H6 N2 1_555 1_555
H7 N3 1_555 1_555
H8 N3 1_555 1_555
Cl2 C13 1_555 1_555
S3 O5 1_555 1_555
S4 O7 1_555 1_555
O6 S3 1_555 1_555
O8 S4 1_555 1_555
C8 S4 1_555 1_555
N4 C11 1_555 1_555
N5 S4 1_555 1_555
C9 S3 1_555 1_555
C10 C8 1_555 1_555
H9 C10 1_555 1_555
C11 C8 1_555 1_555
C12 N4 1_555 1_555
H10 C12 1_555 1_555
H11 C12 1_555 1_555
N6 S3 1_555 1_555
C13 C9 1_555 1_555
C14 C11 1_555 1_555
H12 C14 1_555 1_555
H13 N5 1_555 1_555
H14 N4 1_555 1_555
H15 N6 1_555 1_555
H16 N6 1_555 1_555
N7 C15 1_555 1_555
C15 H17 1_555 1_555
C16 C15 1_555 1_555
H18 C16 1_555 1_555
C17 C16 1_555 1_555
C18 C17 1_555 1_555
H19 C18 1_555 1_555
C19 C18 1_555 1_555
H20 C19 1_555 1_555
C20 C19 1_555 1_555
C21 C20 1_555 1_555
H21 C21 1_555 1_555
C22 C21 1_555 1_555
H22 C22 1_555 1_555
C23 N7 1_555 1_555
H23 C23 1_555 1_555
C24 C17 1_555 1_555
H24 C24 1_555 1_555
C25 C20 1_555 1_555
H25 C25 1_555 1_555
C26 C25 1_555 1_555
H26 C26 1_555 1_555
N8 C22 1_555 1_555
N9 C34 1_555 1_555
N10 C27 1_555 1_555
C27 H27 1_555 1_555
C28 C27 1_555 1_555
H28 C28 1_555 1_555
C29 C28 1_555 1_555
C30 C29 1_555 1_555
H29 C30 1_555 1_555
C31 C30 1_555 1_555
H30 C31 1_555 1_555
C32 C31 1_555 1_555
C33 C32 1_555 1_555
H31 C33 1_555 1_555
C34 C33 1_555 1_555
H32 C34 1_555 1_555
C35 N10 1_555 1_555
H33 C35 1_555 1_555
C36 C29 1_555 1_555
H34 C36 1_555 1_555
C37 C32 1_555 1_555
H35 C37 1_555 1_555
C38 N9 1_555 1_555
H36 C38 1_555 1_555
N11 C39 1_555 1_555
C39 H37 1_555 1_555
C40 C39 1_555 1_555
H38 C40 1_555 1_555
C41 C40 1_555 1_555
C42 C41 1_555 1_555
H39 C42 1_555 1_555
C43 C42 1_555 1_555
H40 C43 1_555 1_555
C44 C43 1_555 1_555
N12 C46 1_555 1_555
C45 C44 1_555 1_555
H41 C45 1_555 1_555
C46 C45 1_555 1_555
H42 C46 1_555 1_555
C47 N11 1_555 1_555
H43 C47 1_555 1_555
C48 C41 1_555 1_555
H44 C48 1_555 1_555
C49 C44 1_555 1_555
H45 C49 1_555 1_555
C50 N12 1_555 1_555
H46 C50 1_555 1_555
N13 C51 1_555 1_555
C51 H47 1_555 1_555
C52 C51 1_555 1_555
H48 C52 1_555 1_555
C53 C52 1_555 1_555
C54 C55 1_555 1_555
C55 H49 1_555 1_555
C56 C55 1_555 1_555
H50 C56 1_555 1_555
N14 C56 1_555 1_555
C57 N13 1_555 1_555
H51 C57 1_555 1_555
C58 N14 1_555 1_555
H52 C58 1_555 1_555
C59 C54 1_555 1_555
H53 C59 1_555 1_555
C60 C53 1_555 1_555
H54 C60 1_555 1_555
C61 C54 1_555 1_555
H55 C61 1_555 1_555
C62 C53 1_555 1_555
H56 C62 1_555 1_555
N2 C5 1_555 1_555
C2 C3 1_555 1_555
C3 C4 1_555 1_555
C6 C7 1_555 1_555
N5 C12 1_555 1_555
C9 C10 1_555 1_555
C13 C14 1_555 1_555
C23 C24 1_555 1_555
C26 N8 1_555 1_555
C35 C36 1_555 1_555
C37 C38 1_555 1_555
C47 C48 1_555 1_555
C49 C50 1_555 1_555
C57 C60 1_555 1_555
C58 C59 1_555 1_555
C61 C62 1_555 1_555

#END
