
#######################################################################
#
#                 Cambridge Crystallographic Data Centre
#                                CCDC 
#
#######################################################################
#
# If this CIF has been generated from an entry in the Cambridge 
# Structural Database, then it will include bibliographic, chemical, 
# crystal, experimental, refinement or atomic coordinate data resulting 
# from the CCDC's data processing and validation procedures.
#
#######################################################################

data_EGEQEO
_chemical_formula_moiety         'C8 H3 Cl1 F6 N4 O2,H2 O1'
_chemical_name_systematic        
"N,N'-(6-Chloropyrimidine-2,4-diyl)bis(2,2,2-trifluoroacetamide) monohydrate"
_symmetry_cell_setting           monoclinic
_symmetry_space_group_name_H-M   'P 21/n'
_symmetry_Int_Tables_number      14
_space_group_name_Hall           '-P 2yn'
loop_
_symmetry_equiv_pos_site_id
_symmetry_equiv_pos_as_xyz
1 x,y,z
2 1/2-x,1/2+y,1/2-z
3 -x,-y,-z
4 1/2+x,1/2-y,1/2+z
_cell_length_a                   5.0503(2)
_cell_length_b                   18.9742(7)
_cell_length_c                   13.6338(5)
_cell_angle_alpha                90
_cell_angle_beta                 97.537(2)
_cell_angle_gamma                90
_cell_volume                     1295.18
_exptl_crystal_colour            colorless
_exptl_crystal_description       needle
_cell_formula_units_Z            4
loop_
_atom_site_label
_atom_site_type_symbol
_atom_site_fract_x
_atom_site_fract_y
_atom_site_fract_z
Cl1 Cl 0.53843(15) 0.06916(3) 0.70237(4)
O1 O 0.0064(3) 0.28444(10) 0.33782(11)
O2 O 0.9960(3) 0.04739(10) 0.39107(12)
N1 N 0.3862(3) 0.19264(9) 0.42667(12)
N2 N 0.3012(3) 0.16651(9) 0.59130(11)
N3 N 0.0749(3) 0.25597(9) 0.50321(12)
H1 H 0.012(4) 0.2630(12) 0.5559(17)
N4 N 0.6853(3) 0.13308(10) 0.34805(12)
H2 H 0.629(4) 0.1580(11) 0.3061(16)
C1 C 0.2639(4) 0.20179(10) 0.50554(14)
C2 C 0.4830(4) 0.11598(11) 0.59439(13)
C3 C 0.6257(4) 0.09927(11) 0.51785(14)
H3 H 0.744(4) 0.0620(11) 0.5244(16)
C4 C 0.5665(4) 0.14025(11) 0.43405(13)
C5 C -0.0279(4) 0.29333(11) 0.42240(15)
C6 C -0.2025(5) 0.35570(13) 0.44662(16)
C7 C 0.8784(4) 0.08677(12) 0.33207(15)
F1 F -0.3935(3) 0.36778(10) 0.37356(13)
F2 F -0.0617(5) 0.41308(10) 0.45940(18)
F3 F -0.3174(4) 0.34455(11) 0.52650(13)
C8 C 0.9423(4) 0.08777(13) 0.22418(15)
F4 F 0.8231(8) 0.1335(2) 0.1732(3)
F5 F 0.8778(8) 0.0246(2) 0.1834(2)
F6 F 1.2000(6) 0.0927(2) 0.2251(2)
O3 O -0.0502(3) 0.25343(9) 0.70999(11)
H4 H 0.0710 0.2153 0.7094
H5 H -0.1810 0.2441 0.7522
F7? F 0.9181(8) 0.15489(17) 0.1830(2)
F8? F 0.7633(7) 0.0545(2) 0.1665(2)
F9? F 1.1738(7) 0.0663(2) 0.2146(3)
loop_
_geom_bond_atom_site_label_1
_geom_bond_atom_site_label_2
_geom_bond_site_symmetry_1
_geom_bond_site_symmetry_2
Cl1 C2 1_555 1_555
O1 C5 1_555 1_555
O2 C7 1_555 1_555
N1 C1 1_555 1_555
N2 C1 1_555 1_555
N3 H1 1_555 1_555
N4 H2 1_555 1_555
C1 N3 1_555 1_555
C2 N2 1_555 1_555
C3 C2 1_555 1_555
H3 C3 1_555 1_555
C4 N1 1_555 1_555
C5 N3 1_555 1_555
C6 C5 1_555 1_555
C7 N4 1_555 1_555
F1 C6 1_555 1_555
F2 C6 1_555 1_555
F3 C6 1_555 1_555
C8 C7 1_555 1_555
F4 C8 1_555 1_555
F5 C8 1_555 1_555
F6 C8 1_555 1_555
O3 H4 1_555 1_555
H5 O3 1_555 1_555
N4 C4 1_555 1_555
C3 C4 1_555 1_555

#END
