
#######################################################################
#
#                 Cambridge Crystallographic Data Centre
#                                CCDC 
#
#######################################################################
#
# If this CIF has been generated from an entry in the Cambridge 
# Structural Database, then it will include bibliographic, chemical, 
# crystal, experimental, refinement or atomic coordinate data resulting 
# from the CCDC's data processing and validation procedures.
#
#######################################################################

data_EGEQOX
_chemical_name_common            
bis(1,3-bis(2,6-di-isopropylphenyl)imidazol-2-ylidene)-di-silicon
_chemical_formula_moiety         'C54 H72 N4 Si2'
_chemical_name_systematic        
bis(1,3-bis(2,6-diisopropylphenyl)imidazol-2-ylidene)-di-silicon(0)
_symmetry_cell_setting           monoclinic
_symmetry_space_group_name_H-M   'P 21/n'
_symmetry_Int_Tables_number      14
_space_group_name_Hall           '-P 2yn'
loop_
_symmetry_equiv_pos_site_id
_symmetry_equiv_pos_as_xyz
1 x,y,z
2 1/2-x,1/2+y,1/2-z
3 -x,-y,-z
4 1/2+x,1/2-y,1/2+z
_cell_length_a                   13.019(4)
_cell_length_b                   14.335(4)
_cell_length_c                   14.790(4)
_cell_angle_alpha                90
_cell_angle_beta                 111.576(4)
_cell_angle_gamma                90
_cell_volume                     2566.81
_exptl_crystal_colour            'dark red'
_exptl_crystal_description       plate
_cell_formula_units_Z            2
loop_
_atom_site_label
_atom_site_type_symbol
_atom_site_fract_x
_atom_site_fract_y
_atom_site_fract_z
Si1 Si 0.01343(4) 0.02746(3) 0.07400(3)
N1 N -0.19386(10) -0.04984(9) 0.08312(9)
N2 N -0.06054(10) -0.14889(8) 0.13793(9)
C1 C -0.08477(11) -0.06234(10) 0.09644(10)
C2 C -0.23507(14) -0.12752(12) 0.11417(13)
H1 H -0.3069 -0.1356 0.1117
C3 C -0.15252(14) -0.18847(12) 0.14819(13)
H2 H -0.1561 -0.2470 0.1741
C4 C 0.04948(12) -0.18840(10) 0.18078(11)
C5 C 0.11270(13) -0.16406(12) 0.27706(12)
C6 C 0.21559(15) -0.20669(14) 0.31898(14)
H3 H 0.2592 -0.1930 0.3831
C7 C 0.25411(15) -0.26839(13) 0.26800(16)
H4 H 0.3234 -0.2954 0.2974
C8 C 0.19030(15) -0.29037(13) 0.17335(15)
H5 H 0.2178 -0.3316 0.1392
C9 C 0.08525(13) -0.25212(11) 0.12742(12)
C10 C 0.01246(16) -0.28537(12) 0.02704(13)
H6 H -0.0473 -0.2400 0.0001
C11 C 0.0731(2) -0.2933(2) -0.04294(18)
H7 H 0.1047 -0.2340 -0.0481
H8 H 0.0221 -0.3119 -0.1058
H9 H 0.1307 -0.3390 -0.0192
C12 C -0.0397(2) -0.37911(15) 0.03604(18)
H10 H -0.0776 -0.3729 0.0804
H11 H 0.0171 -0.4255 0.0599
H12 H -0.0912 -0.3977 -0.0266
C13 C 0.07289(16) -0.09607(14) 0.33598(13)
H13 H 0.0011 -0.0721 0.2928
C14 C 0.1482(2) -0.01361(17) 0.3715(2)
H14 H 0.1581 0.0165 0.3173
H15 H 0.2185 -0.0342 0.4166
H16 H 0.1161 0.0296 0.4032
C15 C 0.0545(3) -0.1447(2) 0.4201(2)
H17 H 0.0058 -0.1969 0.3959
H18 H 0.0220 -0.1017 0.4516
H19 H 0.1240 -0.1663 0.4658
C16 C -0.25355(12) 0.03726(11) 0.05512(12)
C17 C -0.24105(14) 0.10337(14) 0.12823(13)
C18 C -0.30211(17) 0.18478(15) 0.10130(16)
H20 H -0.2964 0.2298 0.1482
C19 C -0.37099(18) 0.20031(15) 0.00666(16)
H21 H -0.4108 0.2557 -0.0099
C20 C -0.38133(16) 0.13451(14) -0.06363(14)
H22 H -0.4281 0.1462 -0.1273
C21 C -0.32320(13) 0.05067(11) -0.04153(12)
C22 C -0.33787(14) -0.02155(12) -0.11994(13)
H23 H -0.2750 -0.0645 -0.0963
C23 C -0.3379(2) 0.02167(16) -0.21361(14)
H24 H -0.2711 0.0566 -0.2005
H25 H -0.4003 0.0625 -0.2398
H26 H -0.3422 -0.0268 -0.2597
C24 C -0.4422(2) -0.07822(19) -0.1383(2)
H27 H -0.4404 -0.1051 -0.0782
H28 H -0.4465 -0.1271 -0.1839
H29 H -0.5055 -0.0384 -0.1642
C25 C -0.16580(18) 0.08708(17) 0.23335(15)
H30 H -0.1124 0.0389 0.2333
C26 C -0.1002(2) 0.1737(2) 0.28107(19)
H31 H -0.0582 0.1950 0.2437
H32 H -0.0511 0.1586 0.3458
H33 H -0.1501 0.2219 0.2838
C27 C -0.2310(3) 0.0496(2) 0.29306(18)
H34 H -0.1817 0.0393 0.3589
H35 H -0.2658 -0.0082 0.2655
H36 H -0.2863 0.0941 0.2923
Si1B Si -0.01343(4) -0.02746(3) -0.07400(3)
N1B N 0.19386(10) 0.04984(9) -0.08312(9)
N2B N 0.06054(10) 0.14889(8) -0.13793(9)
C1B C 0.08477(11) 0.06234(10) -0.09644(10)
C2B C 0.23507(14) 0.12752(12) -0.11417(13)
H1B H 0.3069 0.1356 -0.1117
C3B C 0.15252(14) 0.18847(12) -0.14819(13)
H2B H 0.1561 0.2470 -0.1741
C4B C -0.04948(12) 0.18840(10) -0.18078(11)
C5B C -0.11270(13) 0.16406(12) -0.27706(12)
C6B C -0.21559(15) 0.20669(14) -0.31898(14)
H3B H -0.2592 0.1930 -0.3831
C7B C -0.25411(15) 0.26839(13) -0.26800(16)
H4B H -0.3234 0.2954 -0.2974
C8B C -0.19030(15) 0.29037(13) -0.17335(15)
H5B H -0.2178 0.3316 -0.1392
C9B C -0.08525(13) 0.25212(11) -0.12742(12)
C10B C -0.01246(16) 0.28537(12) -0.02704(13)
H6B H 0.0473 0.2400 -0.0001
C11B C -0.0731(2) 0.2933(2) 0.04294(18)
H7B H -0.1047 0.2340 0.0481
H8B H -0.0221 0.3119 0.1058
H9B H -0.1307 0.3390 0.0192
C12B C 0.0397(2) 0.37911(15) -0.03604(18)
H10B H 0.0776 0.3729 -0.0804
H11B H -0.0171 0.4255 -0.0599
H12B H 0.0912 0.3977 0.0266
C13B C -0.07289(16) 0.09607(14) -0.33598(13)
H13B H -0.0011 0.0721 -0.2928
C14B C -0.1482(2) 0.01361(17) -0.3715(2)
H14B H -0.1581 -0.0165 -0.3173
H15B H -0.2185 0.0342 -0.4166
H16B H -0.1161 -0.0296 -0.4032
C15B C -0.0545(3) 0.1447(2) -0.4201(2)
H17B H -0.0058 0.1969 -0.3959
H18B H -0.0220 0.1017 -0.4516
H19B H -0.1240 0.1663 -0.4658
C16B C 0.25355(12) -0.03726(11) -0.05512(12)
C17B C 0.24105(14) -0.10337(14) -0.12823(13)
C18B C 0.30211(17) -0.18478(15) -0.10130(16)
H20B H 0.2964 -0.2298 -0.1482
C19B C 0.37099(18) -0.20031(15) -0.00666(16)
H21B H 0.4108 -0.2557 0.0099
C20B C 0.38133(16) -0.13451(14) 0.06363(14)
H22B H 0.4281 -0.1462 0.1273
C21B C 0.32320(13) -0.05067(11) 0.04153(12)
C22B C 0.33787(14) 0.02155(12) 0.11994(13)
H23B H 0.2750 0.0645 0.0963
C23B C 0.3379(2) -0.02167(16) 0.21361(14)
H24B H 0.2711 -0.0566 0.2005
H25B H 0.4003 -0.0625 0.2398
H26B H 0.3422 0.0268 0.2597
C24B C 0.4422(2) 0.07822(19) 0.1383(2)
H27B H 0.4404 0.1051 0.0782
H28B H 0.4465 0.1271 0.1839
H29B H 0.5055 0.0384 0.1642
C25B C 0.16580(18) -0.08708(17) -0.23335(15)
H30B H 0.1124 -0.0389 -0.2333
C26B C 0.1002(2) -0.1737(2) -0.28107(19)
H31B H 0.0582 -0.1950 -0.2437
H32B H 0.0511 -0.1586 -0.3458
H33B H 0.1501 -0.2219 -0.2838
C27B C 0.2310(3) -0.0496(2) -0.29306(18)
H34B H 0.1817 -0.0393 -0.3589
H35B H 0.2658 0.0082 -0.2655
H36B H 0.2863 -0.0941 -0.2923
loop_
_geom_bond_atom_site_label_1
_geom_bond_atom_site_label_2
_geom_bond_site_symmetry_1
_geom_bond_site_symmetry_2
Si1 C1 1_555 1_555
N1 C1 1_555 1_555
N2 C1 1_555 1_555
C2 N1 1_555 1_555
H1 C2 1_555 1_555
C3 N2 1_555 1_555
H2 C3 1_555 1_555
C4 N2 1_555 1_555
C5 C4 1_555 1_555
C6 C5 1_555 1_555
H3 C6 1_555 1_555
C7 C6 1_555 1_555
H4 C7 1_555 1_555
C8 C7 1_555 1_555
H5 C8 1_555 1_555
C9 C4 1_555 1_555
C10 C9 1_555 1_555
H6 C10 1_555 1_555
C11 C10 1_555 1_555
H7 C11 1_555 1_555
H8 C11 1_555 1_555
H9 C11 1_555 1_555
C12 C10 1_555 1_555
H10 C12 1_555 1_555
H11 C12 1_555 1_555
H12 C12 1_555 1_555
C13 C5 1_555 1_555
H13 C13 1_555 1_555
C14 C13 1_555 1_555
H14 C14 1_555 1_555
H15 C14 1_555 1_555
H16 C14 1_555 1_555
C15 C13 1_555 1_555
H17 C15 1_555 1_555
H18 C15 1_555 1_555
H19 C15 1_555 1_555
C16 N1 1_555 1_555
C17 C16 1_555 1_555
C18 C17 1_555 1_555
H20 C18 1_555 1_555
C19 C18 1_555 1_555
H21 C19 1_555 1_555
C20 C19 1_555 1_555
H22 C20 1_555 1_555
C21 C16 1_555 1_555
C22 C21 1_555 1_555
H23 C22 1_555 1_555
C23 C22 1_555 1_555
H24 C23 1_555 1_555
H25 C23 1_555 1_555
H26 C23 1_555 1_555
C24 C22 1_555 1_555
H27 C24 1_555 1_555
H28 C24 1_555 1_555
H29 C24 1_555 1_555
C25 C17 1_555 1_555
H30 C25 1_555 1_555
C26 C25 1_555 1_555
H31 C26 1_555 1_555
H32 C26 1_555 1_555
H33 C26 1_555 1_555
C27 C25 1_555 1_555
H34 C27 1_555 1_555
H35 C27 1_555 1_555
H36 C27 1_555 1_555
Si1B Si1 1_555 1_555
N1B C1B 1_555 1_555
N2B C1B 1_555 1_555
C1B Si1B 1_555 1_555
C2B N1B 1_555 1_555
H1B C2B 1_555 1_555
C3B N2B 1_555 1_555
H2B C3B 1_555 1_555
C4B N2B 1_555 1_555
C5B C4B 1_555 1_555
C6B C5B 1_555 1_555
H3B C6B 1_555 1_555
C7B C6B 1_555 1_555
H4B C7B 1_555 1_555
C8B C7B 1_555 1_555
H5B C8B 1_555 1_555
C9B C4B 1_555 1_555
C10B C9B 1_555 1_555
H6B C10B 1_555 1_555
C11B C10B 1_555 1_555
H7B C11B 1_555 1_555
H8B C11B 1_555 1_555
H9B C11B 1_555 1_555
C12B C10B 1_555 1_555
H10B C12B 1_555 1_555
H11B C12B 1_555 1_555
H12B C12B 1_555 1_555
C13B C5B 1_555 1_555
H13B C13B 1_555 1_555
C14B C13B 1_555 1_555
H14B C14B 1_555 1_555
H15B C14B 1_555 1_555
H16B C14B 1_555 1_555
C15B C13B 1_555 1_555
H17B C15B 1_555 1_555
H18B C15B 1_555 1_555
H19B C15B 1_555 1_555
C16B N1B 1_555 1_555
C17B C16B 1_555 1_555
C18B C17B 1_555 1_555
H20B C18B 1_555 1_555
C19B C18B 1_555 1_555
H21B C19B 1_555 1_555
C20B C19B 1_555 1_555
H22B C20B 1_555 1_555
C21B C16B 1_555 1_555
C22B C21B 1_555 1_555
H23B C22B 1_555 1_555
C23B C22B 1_555 1_555
H24B C23B 1_555 1_555
H25B C23B 1_555 1_555
H26B C23B 1_555 1_555
C24B C22B 1_555 1_555
H27B C24B 1_555 1_555
H28B C24B 1_555 1_555
H29B C24B 1_555 1_555
C25B C17B 1_555 1_555
H30B C25B 1_555 1_555
C26B C25B 1_555 1_555
H31B C26B 1_555 1_555
H32B C26B 1_555 1_555
H33B C26B 1_555 1_555
C27B C25B 1_555 1_555
H34B C27B 1_555 1_555
H35B C27B 1_555 1_555
H36B C27B 1_555 1_555
C2 C3 1_555 1_555
C8 C9 1_555 1_555
C20 C21 1_555 1_555
C2B C3B 1_555 1_555
C8B C9B 1_555 1_555
C20B C21B 1_555 1_555

#END
