
#######################################################################
#
#                 Cambridge Crystallographic Data Centre
#                                CCDC 
#
#######################################################################
#
# If this CIF has been generated from an entry in the Cambridge 
# Structural Database, then it will include bibliographic, chemical, 
# crystal, experimental, refinement or atomic coordinate data resulting 
# from the CCDC's data processing and validation procedures.
#
#######################################################################

data_EGEQEN
_chemical_formula_moiety         'C27 H36 Cl4 N2 Si1'
_chemical_name_systematic        
tetrachloro-(1,3-bis(2,6-diisopropylphenyl)imidazol-2-ylidene)-silicon
_symmetry_cell_setting           tetragonal
_symmetry_space_group_name_H-M   'P 42/n'
_symmetry_Int_Tables_number      86
_space_group_name_Hall           '-P 4bc'
loop_
_symmetry_equiv_pos_site_id
_symmetry_equiv_pos_as_xyz
1 x,y,z
2 -y,1/2+x,1/2+z
3 1/2+y,-x,1/2+z
4 1/2-x,1/2-y,z
5 -x,-y,-z
6 y,1/2-x,1/2-z
7 1/2-y,x,1/2-z
8 1/2+x,1/2+y,-z
_cell_length_a                   13.5937(14)
_cell_length_b                   13.5937(14)
_cell_length_c                   16.582(3)
_cell_angle_alpha                90
_cell_angle_beta                 90
_cell_angle_gamma                90
_cell_volume                     3064.17
_exptl_crystal_colour            colorless
_exptl_crystal_description       plate
_cell_formula_units_Z            4
loop_
_atom_site_label
_atom_site_type_symbol
_atom_site_fract_x
_atom_site_fract_y
_atom_site_fract_z
Si1 Si 0.2500 0.7500 0.00660(3)
Cl1 Cl 0.28625(4) 0.62525(4) 0.07168(3)
Cl2 Cl 0.09529(3) 0.70548(4) 0.00308(3)
N1 N 0.28930(9) 0.68108(10) -0.15901(7)
C1 C 0.2500 0.7500 -0.10965(12)
C2 C 0.27397(14) 0.70706(15) -0.23851(10)
H1 H 0.2934 0.6714 -0.2837
C3 C 0.34323(11) 0.59297(11) -0.13527(9)
C4 C 0.28997(13) 0.50839(13) -0.11574(10)
C5 C 0.34493(17) 0.42663(14) -0.09254(12)
H2 H 0.3125 0.3691 -0.0780
C6 C 0.44563(17) 0.42909(15) -0.09074(13)
H3 H 0.4805 0.3739 -0.0740
C7 C 0.49546(14) 0.51223(14) -0.11347(12)
H4 H 0.5639 0.5120 -0.1129
C8 C 0.44603(12) 0.59679(12) -0.13741(10)
C9 C 0.50400(14) 0.68432(15) -0.16942(13)
H5 H 0.4609 0.7421 -0.1682
C10 C 0.59583(16) 0.7077(2) -0.11983(18)
H6 H 0.5773 0.7206 -0.0650
H7 H 0.6279 0.7646 -0.1419
H8 H 0.6400 0.6527 -0.1215
C11 C 0.5320(2) 0.6643(2) -0.25785(16)
H9 H 0.4738 0.6495 -0.2883
H10 H 0.5764 0.6094 -0.2603
H11 H 0.5634 0.7214 -0.2801
C12 C 0.17919(16) 0.50190(18) -0.12402(16)
H12 H 0.1528 0.5689 -0.1215
C13 C 0.1542(2) 0.4595(3) -0.2075(2)
H13 H 0.1841 0.4994 -0.2486
H14 H 0.0841 0.4593 -0.2148
H15 H 0.1787 0.3935 -0.2114
C14 C 0.1302(2) 0.4421(2) -0.0575(2)
H16 H 0.1458 0.4704 -0.0060
H17 H 0.1537 0.3755 -0.0594
H18 H 0.0602 0.4427 -0.0651
Cl1C Cl 0.21375(4) 0.87475(4) 0.07168(3)
Cl2C Cl 0.40471(3) 0.79452(4) 0.00308(3)
N1C N 0.21070(9) 0.81892(10) -0.15901(7)
C2C C 0.22603(14) 0.79294(15) -0.23851(10)
H1C H 0.2066 0.8286 -0.2837
C3C C 0.15677(11) 0.90703(11) -0.13527(9)
C4C C 0.21003(13) 0.99161(13) -0.11574(10)
C5C C 0.15507(17) 1.07337(14) -0.09254(12)
H2C H 0.1875 1.1309 -0.0780
C6C C 0.05437(17) 1.07091(15) -0.09074(13)
H3C H 0.0195 1.1261 -0.0740
C7C C 0.00454(14) 0.98777(14) -0.11347(12)
H4C H -0.0639 0.9880 -0.1129
C8C C 0.05397(12) 0.90321(12) -0.13741(10)
C9C C -0.00400(14) 0.81568(15) -0.16942(13)
H5C H 0.0391 0.7579 -0.1682
C10C C -0.09583(16) 0.7923(2) -0.11983(18)
H6C H -0.0773 0.7794 -0.0650
H7C H -0.1279 0.7354 -0.1419
H8C H -0.1400 0.8473 -0.1215
C11C C -0.0320(2) 0.8357(2) -0.25785(16)
H9C H 0.0262 0.8505 -0.2883
H10C H -0.0764 0.8906 -0.2603
H11C H -0.0634 0.7786 -0.2801
C12C C 0.32081(16) 0.99810(18) -0.12402(16)
H12C H 0.3472 0.9311 -0.1215
C13C C 0.3458(2) 1.0405(3) -0.2075(2)
H13C H 0.3159 1.0006 -0.2486
H14C H 0.4159 1.0407 -0.2148
H15C H 0.3213 1.1065 -0.2114
C14C C 0.3698(2) 1.0579(2) -0.0575(2)
H16C H 0.3542 1.0296 -0.0060
H17C H 0.3463 1.1245 -0.0594
H18C H 0.4398 1.0573 -0.0651
loop_
_geom_bond_atom_site_label_1
_geom_bond_atom_site_label_2
_geom_bond_site_symmetry_1
_geom_bond_site_symmetry_2
Si1 Cl1 1_555 1_555
Cl2 Si1 1_555 1_555
N1 C1 1_555 1_555
C1 Si1 1_555 1_555
C2 N1 1_555 1_555
H1 C2 1_555 1_555
C3 N1 1_555 1_555
C4 C3 1_555 1_555
C5 C4 1_555 1_555
H2 C5 1_555 1_555
C6 C5 1_555 1_555
H3 C6 1_555 1_555
C7 C6 1_555 1_555
H4 C7 1_555 1_555
C8 C3 1_555 1_555
C9 C8 1_555 1_555
H5 C9 1_555 1_555
C10 C9 1_555 1_555
H6 C10 1_555 1_555
H7 C10 1_555 1_555
H8 C10 1_555 1_555
C11 C9 1_555 1_555
H9 C11 1_555 1_555
H10 C11 1_555 1_555
H11 C11 1_555 1_555
C12 C4 1_555 1_555
H12 C12 1_555 1_555
C13 C12 1_555 1_555
H13 C13 1_555 1_555
H14 C13 1_555 1_555
H15 C13 1_555 1_555
C14 C12 1_555 1_555
H16 C14 1_555 1_555
H17 C14 1_555 1_555
H18 C14 1_555 1_555
Cl1C Si1 1_555 1_555
Cl2C Si1 1_555 1_555
N1C C1 1_555 1_555
C2C C2 1_555 1_555
H1C C2C 1_555 1_555
C3C N1C 1_555 1_555
C4C C3C 1_555 1_555
C5C C4C 1_555 1_555
H2C C5C 1_555 1_555
C6C C5C 1_555 1_555
H3C C6C 1_555 1_555
C7C C6C 1_555 1_555
H4C C7C 1_555 1_555
C8C C3C 1_555 1_555
C9C C8C 1_555 1_555
H5C C9C 1_555 1_555
C10C C9C 1_555 1_555
H6C C10C 1_555 1_555
H7C C10C 1_555 1_555
H8C C10C 1_555 1_555
C11C C9C 1_555 1_555
H9C C11C 1_555 1_555
H10C C11C 1_555 1_555
H11C C11C 1_555 1_555
C12C C4C 1_555 1_555
H12C C12C 1_555 1_555
C13C C12C 1_555 1_555
H13C C13C 1_555 1_555
H14C C13C 1_555 1_555
H15C C13C 1_555 1_555
C14C C12C 1_555 1_555
H16C C14C 1_555 1_555
H17C C14C 1_555 1_555
H18C C14C 1_555 1_555
C7 C8 1_555 1_555
N1C C2C 1_555 1_555
C7C C8C 1_555 1_555

#END
