
#######################################################################
#
#                 Cambridge Crystallographic Data Centre
#                                CCDC 
#
#######################################################################
#
# If this CIF has been generated from an entry in the Cambridge 
# Structural Database, then it will include bibliographic, chemical, 
# crystal, experimental, refinement or atomic coordinate data resulting 
# from the CCDC's data processing and validation procedures.
#
#######################################################################

data_EGERAJ
_chemical_formula_moiety         'C25 H31 N1 O2'
_chemical_name_systematic        
1'-Benzyl-2-(n-butyl)-7'-methyl-5'-oxo-spiro(cyclohexane-1,2'-pyrano(4,3-b)pyridine)
_symmetry_cell_setting           monoclinic
_symmetry_space_group_name_H-M   'P 21/c'
_symmetry_Int_Tables_number      14
_space_group_name_Hall           '-P 2ybc'
loop_
_symmetry_equiv_pos_site_id
_symmetry_equiv_pos_as_xyz
1 x,y,z
2 -x,1/2+y,1/2-z
3 -x,-y,-z
4 x,1/2-y,1/2+z
_cell_length_a                   7.814(1)
_cell_length_b                   30.532(4)
_cell_length_c                   8.942(1)
_cell_angle_alpha                90
_cell_angle_beta                 97.096(3)
_cell_angle_gamma                90
_cell_volume                     2117.02
_exptl_crystal_colour            yellow
_exptl_crystal_description       plate
_cell_formula_units_Z            4
loop_
_atom_site_label
_atom_site_type_symbol
_atom_site_fract_x
_atom_site_fract_y
_atom_site_fract_z
O1 O 0.1578(3) 0.0953(1) 0.2236(2)
O2 O 0.3676(3) 0.1329(1) 0.3559(2)
N1 N 0.3678(3) 0.1164(1) -0.1729(2)
C1 C 0.3092(4) 0.1200(1) 0.2301(3)
C2 C 0.3793(4) 0.1269(1) 0.0939(3)
C3 C 0.3005(4) 0.1096(1) -0.0415(3)
C4 C 0.1476(4) 0.0840(1) -0.0384(3)
C5 C 0.0822(4) 0.0780(1) 0.0924(3)
C6 C -0.0767(4) 0.0532(1) 0.1110(4)
C7 C 0.5399(4) 0.1494(1) 0.0935(3)
C8 C 0.6061(4) 0.1574(1) -0.0335(3)
C9 C 0.5182(3) 0.1463(1) -0.1875(3)
C10 C 0.4497(3) 0.1885(1) -0.2731(3)
C11 C 0.5994(4) 0.2165(1) -0.3143(3)
C12 C 0.7149(4) 0.1909(1) -0.4087(3)
C13 C 0.7892(4) 0.1515(1) -0.3231(3)
C14 C 0.6464(4) 0.1223(1) -0.2778(3)
C15 C 0.3287(4) 0.2147(1) -0.1869(3)
C16 C 0.2115(4) 0.2460(1) -0.2819(3)
C17 C 0.0958(4) 0.2731(1) -0.1977(3)
C18 C -0.0268(4) 0.3023(1) -0.2961(4)
C19 C 0.2807(4) 0.0964(1) -0.3119(3)
C20 C 0.3141(3) 0.0477(1) -0.3269(3)
C21 C 0.2312(4) 0.0262(1) -0.4514(3)
C22 C 0.2627(4) -0.0177(1) -0.4738(3)
C23 C 0.3762(4) -0.0407(1) -0.3736(4)
C24 C 0.4584(4) -0.0195(1) -0.2492(3)
C25 C 0.4276(4) 0.0245(1) -0.2253(3)
H1 H 0.0925 0.0712 -0.1285
H2 H -0.0964 0.0538 0.2172
H3 H -0.0637 0.0227 0.0792
H4 H -0.1751 0.0666 0.0491
H8 H 0.6005 0.1590 0.1864
H9 H 0.7163 0.1709 -0.0264
H10 H 0.3818 0.1789 -0.3697
H11 H 0.5529 0.2426 -0.3715
H12 H 0.6688 0.2269 -0.2209
H13 H 0.6470 0.1814 -0.5040
H14 H 0.8096 0.2100 -0.4342
H15 H 0.8642 0.1612 -0.2317
H16 H 0.8609 0.1347 -0.3867
H17 H 0.6994 0.0977 -0.2163
H18 H 0.5818 0.1097 -0.3700
H19 H 0.2565 0.1941 -0.1368
H20 H 0.3986 0.2317 -0.1071
H21 H 0.2838 0.2659 -0.3349
H22 H 0.1389 0.2289 -0.3596
H23 H 0.1681 0.2916 -0.1240
H24 H 0.0277 0.2533 -0.1402
H25 H -0.0998 0.3184 -0.2332
H26 H -0.0994 0.2844 -0.3694
H27 H 0.0392 0.3232 -0.3495
H28 H 0.3188 0.1117 -0.3996
H29 H 0.1549 0.1011 -0.3152
H30 H 0.1522 0.0417 -0.5218
H31 H 0.2051 -0.0321 -0.5597
H32 H 0.3977 -0.0709 -0.3900
H33 H 0.5368 -0.0351 -0.1791
H34 H 0.4847 0.0388 -0.1388
H5? H -0.1271 0.0416 0.0132
H6? H -0.1598 0.0726 0.1511
H7? H -0.0484 0.0288 0.1812
loop_
_geom_bond_atom_site_label_1
_geom_bond_atom_site_label_2
_geom_bond_site_symmetry_1
_geom_bond_site_symmetry_2
O1 C1 1_555 1_555
O2 C1 1_555 1_555
N1 C3 1_555 1_555
C1 C2 1_555 1_555
C2 C3 1_555 1_555
C3 C4 1_555 1_555
C4 C5 1_555 1_555
C5 O1 1_555 1_555
C6 C5 1_555 1_555
C7 C2 1_555 1_555
C8 C7 1_555 1_555
C9 N1 1_555 1_555
C10 C9 1_555 1_555
C11 C10 1_555 1_555
C12 C11 1_555 1_555
C13 C12 1_555 1_555
C14 C9 1_555 1_555
C15 C10 1_555 1_555
C16 C15 1_555 1_555
C17 C16 1_555 1_555
C18 C17 1_555 1_555
C19 N1 1_555 1_555
C20 C19 1_555 1_555
C21 C20 1_555 1_555
C22 C21 1_555 1_555
C23 C22 1_555 1_555
C24 C23 1_555 1_555
C25 C20 1_555 1_555
H1 C4 1_555 1_555
H2 C6 1_555 1_555
H3 C6 1_555 1_555
H4 C6 1_555 1_555
H8 C7 1_555 1_555
H9 C8 1_555 1_555
H10 C10 1_555 1_555
H11 C11 1_555 1_555
H12 C11 1_555 1_555
H13 C12 1_555 1_555
H14 C12 1_555 1_555
H15 C13 1_555 1_555
H16 C13 1_555 1_555
H17 C14 1_555 1_555
H18 C14 1_555 1_555
H19 C15 1_555 1_555
H20 C15 1_555 1_555
H21 C16 1_555 1_555
H22 C16 1_555 1_555
H23 C17 1_555 1_555
H24 C17 1_555 1_555
H25 C18 1_555 1_555
H26 C18 1_555 1_555
H27 C18 1_555 1_555
H28 C19 1_555 1_555
H29 C19 1_555 1_555
H30 C21 1_555 1_555
H31 C22 1_555 1_555
H32 C23 1_555 1_555
H33 C24 1_555 1_555
H34 C25 1_555 1_555
C8 C9 1_555 1_555
C13 C14 1_555 1_555
C24 C25 1_555 1_555

#END
