
#######################################################################
#
#                 Cambridge Crystallographic Data Centre
#                                CCDC 
#
#######################################################################
#
# If this CIF has been generated from an entry in the Cambridge 
# Structural Database, then it will include bibliographic, chemical, 
# crystal, experimental, refinement or atomic coordinate data resulting 
# from the CCDC's data processing and validation procedures.
#
#######################################################################

data_EGETOZ
_chemical_formula_moiety         'C39 H27 N6 P1'
_chemical_name_systematic        tris(4-(7-Azaindol-1-yl)phenyl)phosphine
_symmetry_cell_setting           monoclinic
_symmetry_space_group_name_H-M   'P 21/c'
_symmetry_Int_Tables_number      14
_space_group_name_Hall           '-P 2ybc'
loop_
_symmetry_equiv_pos_site_id
_symmetry_equiv_pos_as_xyz
1 x,y,z
2 -x,1/2+y,1/2-z
3 -x,-y,-z
4 x,1/2-y,1/2+z
_cell_length_a                   13.784(3)
_cell_length_b                   24.096(5)
_cell_length_c                   9.2284(18)
_cell_angle_alpha                90
_cell_angle_beta                 93.043(5)
_cell_angle_gamma                90
_cell_volume                     3060.79
_exptl_crystal_colour            colorless
_chemical_melting_point          '224-225 deg.C'
_cell_formula_units_Z            4
_exptl_crystal_recrystallization_method dichloromethane/hexane
loop_
_atom_site_label
_atom_site_type_symbol
_atom_site_fract_x
_atom_site_fract_y
_atom_site_fract_z
P1 P 0.0223(1) 0.3294(1) 0.0034(1)
N1 N -0.2401(3) 0.1510(2) -0.2607(5)
N2 N -0.1928(3) 0.0694(2) -0.1237(5)
N3 N 0.3958(3) 0.2977(2) -0.3044(4)
N4 N 0.4754(3) 0.3852(2) -0.2601(5)
N5 N -0.1367(3) 0.5419(2) -0.2615(4)
N6 N -0.3024(4) 0.5366(2) -0.1927(4)
C1 C -0.0619(3) 0.2786(2) -0.0788(5)
C2 C -0.1344(4) 0.2886(2) -0.1791(6)
C3 C -0.1958(4) 0.2472(3) -0.2357(6)
C4 C -0.1806(4) 0.1928(2) -0.1954(6)
C5 C -0.1102(4) 0.1825(2) -0.0905(6)
C6 C -0.0517(3) 0.2244(2) -0.0343(5)
C7 C -0.3052(5) 0.1583(3) -0.3778(7)
C8 C -0.3520(4) 0.1116(3) -0.4135(7)
C9 C -0.3177(4) 0.0694(3) -0.3201(7)
C10 C -0.3338(4) 0.0131(3) -0.3024(7)
C11 C -0.2803(5) -0.0139(2) -0.1952(7)
C12 C -0.2127(4) 0.0155(3) -0.1100(6)
C13 C -0.2458(4) 0.0942(3) -0.2265(6)
C14 C 0.1320(3) 0.3171(2) -0.0946(5)
C15 C 0.1419(3) 0.2772(2) -0.2041(5)
C16 C 0.2284(4) 0.2717(2) -0.2702(5)
C17 C 0.3073(4) 0.3047(2) -0.2319(5)
C18 C 0.2998(3) 0.3441(2) -0.1251(5)
C19 C 0.2123(4) 0.3496(2) -0.0598(5)
C20 C 0.4184(4) 0.2517(2) -0.3859(5)
C21 C 0.5044(4) 0.2594(2) -0.4490(6)
C22 C 0.5390(4) 0.3124(2) -0.4087(6)
C23 C 0.6198(4) 0.3438(3) -0.4356(6)
C24 C 0.6269(5) 0.3948(3) -0.3760(8)
C25 C 0.5541(5) 0.4146(2) -0.2911(7)
C26 C 0.4709(4) 0.3361(3) -0.3158(5)
C27 C -0.0217(3) 0.3936(2) -0.0825(5)
C28 C 0.0030(3) 0.4128(2) -0.2161(5)
C29 C -0.0354(3) 0.4608(2) -0.2767(5)
C30 C -0.0988(3) 0.4924(2) -0.2003(6)
C31 C -0.1245(3) 0.4745(2) -0.0670(5)
C32 C -0.0849(3) 0.4263(2) -0.0092(5)
C33 C -0.0855(4) 0.5785(2) -0.3451(5)
C34 C -0.1443(5) 0.6190(2) -0.3972(5)
C35 C -0.2375(5) 0.6095(2) -0.3475(6)
C36 C -0.3281(5) 0.6349(2) -0.3593(6)
C37 C -0.4039(4) 0.6117(3) -0.2928(6)
C38 C -0.3875(4) 0.5638(2) -0.2108(6)
C39 C -0.2323(5) 0.5609(2) -0.2628(5)
H1 H -0.1439 0.3247 -0.2119
H2 H -0.2471 0.2564 -0.3008
H3 H -0.1014 0.1465 -0.0559
H4 H -0.0035 0.2157 0.0363
H5 H -0.3152 0.1918 -0.4261
H6 H -0.3997 0.1077 -0.4880
H7 H -0.3795 -0.0058 -0.3615
H8 H -0.2894 -0.0516 -0.1797
H9 H -0.1782 -0.0039 -0.0371
H10 H 0.0896 0.2544 -0.2318
H11 H 0.2338 0.2451 -0.3423
H12 H 0.3525 0.3666 -0.0974
H13 H 0.2074 0.3766 0.0114
H14 H 0.3802 0.2200 -0.3961
H15 H 0.5347 0.2342 -0.5080
H16 H 0.6679 0.3302 -0.4930
H17 H 0.6807 0.4168 -0.3918
H18 H 0.5604 0.4504 -0.2538
H19 H 0.0472 0.3926 -0.2675
H20 H -0.0187 0.4718 -0.3687
H21 H -0.1686 0.4947 -0.0155
H22 H -0.1015 0.4154 0.0830
H23 H -0.0198 0.5755 -0.3624
H24 H -0.1266 0.6482 -0.4560
H25 H -0.3368 0.6675 -0.4122
H26 H -0.4655 0.6275 -0.3020
H27 H -0.4401 0.5493 -0.1643
loop_
_geom_bond_atom_site_label_1
_geom_bond_atom_site_label_2
_geom_bond_site_symmetry_1
_geom_bond_site_symmetry_2
P1 C1 1_555 1_555
N1 C4 1_555 1_555
N2 C12 1_555 1_555
N3 C17 1_555 1_555
N4 C25 1_555 1_555
N5 C30 1_555 1_555
N6 C38 1_555 1_555
C1 C2 1_555 1_555
C2 C3 1_555 1_555
C3 C4 1_555 1_555
C4 C5 1_555 1_555
C5 C6 1_555 1_555
C6 C1 1_555 1_555
C7 N1 1_555 1_555
C8 C7 1_555 1_555
C9 C8 1_555 1_555
C10 C9 1_555 1_555
C11 C10 1_555 1_555
C12 C11 1_555 1_555
C13 N1 1_555 1_555
C14 P1 1_555 1_555
C15 C14 1_555 1_555
C16 C15 1_555 1_555
C17 C16 1_555 1_555
C18 C17 1_555 1_555
C19 C14 1_555 1_555
C20 N3 1_555 1_555
C21 C20 1_555 1_555
C22 C21 1_555 1_555
C23 C22 1_555 1_555
C24 C23 1_555 1_555
C25 C24 1_555 1_555
C26 N3 1_555 1_555
C27 P1 1_555 1_555
C28 C27 1_555 1_555
C29 C28 1_555 1_555
C30 C29 1_555 1_555
C31 C30 1_555 1_555
C32 C27 1_555 1_555
C33 N5 1_555 1_555
C34 C33 1_555 1_555
C35 C34 1_555 1_555
C36 C35 1_555 1_555
C37 C36 1_555 1_555
C38 C37 1_555 1_555
C39 N5 1_555 1_555
H1 C2 1_555 1_555
H2 C3 1_555 1_555
H3 C5 1_555 1_555
H4 C6 1_555 1_555
H5 C7 1_555 1_555
H6 C8 1_555 1_555
H7 C10 1_555 1_555
H8 C11 1_555 1_555
H9 C12 1_555 1_555
H10 C15 1_555 1_555
H11 C16 1_555 1_555
H12 C18 1_555 1_555
H13 C19 1_555 1_555
H14 C20 1_555 1_555
H15 C21 1_555 1_555
H16 C23 1_555 1_555
H17 C24 1_555 1_555
H18 C25 1_555 1_555
H19 C28 1_555 1_555
H20 C29 1_555 1_555
H21 C31 1_555 1_555
H22 C32 1_555 1_555
H23 C33 1_555 1_555
H24 C34 1_555 1_555
H25 C36 1_555 1_555
H26 C37 1_555 1_555
H27 C38 1_555 1_555
N2 C13 1_555 1_555
N4 C26 1_555 1_555
N6 C39 1_555 1_555
C9 C13 1_555 1_555
C18 C19 1_555 1_555
C22 C26 1_555 1_555
C31 C32 1_555 1_555
C35 C39 1_555 1_555

#END
