
#######################################################################
#
#                 Cambridge Crystallographic Data Centre
#                                CCDC 
#
#######################################################################
#
# If this CIF has been generated from an entry in the Cambridge 
# Structural Database, then it will include bibliographic, chemical, 
# crystal, experimental, refinement or atomic coordinate data resulting 
# from the CCDC's data processing and validation procedures.
#
#######################################################################

data_EGEXIZ
_chemical_formula_moiety         'C46 H30 O4'
_chemical_name_systematic        
2,2',2'',2'''-(Benzene-1,2,4,5-tetrayltetraethene-2,1-diyl)tetrakis(1-benzofuran)
_symmetry_cell_setting           orthorhombic
_symmetry_space_group_name_H-M   'P b c n'
_symmetry_Int_Tables_number      60
_space_group_name_Hall           '-P 2n 2ab'
loop_
_symmetry_equiv_pos_site_id
_symmetry_equiv_pos_as_xyz
1 x,y,z
2 1/2-x,1/2-y,1/2+z
3 1/2+x,1/2-y,-z
4 -x,y,1/2-z
5 -x,-y,-z
6 1/2+x,1/2+y,1/2-z
7 1/2-x,1/2+y,z
8 x,-y,1/2+z
_cell_length_a                   33.8575(16)
_cell_length_b                   12.0256(6)
_cell_length_c                   8.0009(5)
_cell_angle_alpha                90
_cell_angle_beta                 90
_cell_angle_gamma                90
_cell_volume                     3257.62
_cell_formula_units_Z            4
loop_
_atom_site_label
_atom_site_type_symbol
_atom_site_fract_x
_atom_site_fract_y
_atom_site_fract_z
O1 O 0.34824(6) 0.00077(18) 0.1715(3)
O2 O 0.40378(7) 0.3899(2) 0.5649(4)
C1 C 0.36483(9) -0.0967(3) 0.2298(5)
C2 C 0.31547(9) -0.0302(3) 0.0817(4)
C3 C 0.42222(9) 0.0000(3) 0.3533(4)
H1 H 0.4115 0.0682 0.3225
C4 C 0.31143(10) -0.1453(3) 0.0829(5)
C5 C 0.46112(9) 0.0010(3) 0.4324(4)
C6 C 0.41830(10) 0.5703(3) 0.6219(4)
C7 C 0.47781(9) 0.1004(2) 0.4997(4)
C8 C 0.40091(9) -0.0907(3) 0.3218(4)
H2 H 0.4106 -0.1573 0.3643
C9 C 0.48403(9) -0.0942(3) 0.4368(4)
H3 H 0.4731 -0.1591 0.3938
C10 C 0.44404(10) 0.4009(3) 0.5791(4)
C11 C 0.45450(9) 0.2035(3) 0.5148(4)
H4 H 0.4276 0.1980 0.4930
C12 C 0.38830(11) 0.4938(3) 0.5924(5)
C13 C 0.34321(10) -0.1857(3) 0.1818(6)
H5 H 0.3482 -0.2597 0.2086
C14 C 0.28979(10) 0.0417(4) 0.0011(5)
H6 H 0.2932 0.1185 0.0039
C15 C 0.46799(10) 0.3030(3) 0.5564(5)
H7 H 0.4951 0.3103 0.5723
C16 C 0.40871(13) 0.6810(3) 0.6510(5)
H8 H 0.4283 0.7342 0.6668
C17 C 0.45394(10) 0.5072(3) 0.6127(5)
H9 H 0.4794 0.5345 0.6273
C18 C 0.27956(13) -0.1921(4) -0.0049(7)
H10 H 0.2759 -0.2687 -0.0083
C19 C 0.25399(12) -0.1220(5) -0.0856(6)
H11 H 0.2327 -0.1520 -0.1436
C20 C 0.36931(14) 0.7093(3) 0.6558(6)
H12 H 0.3622 0.7825 0.6785
C21 C 0.25891(11) -0.0073(5) -0.0832(5)
H13 H 0.2409 0.0373 -0.1400
C22 C 0.34882(13) 0.5218(4) 0.5939(8)
H14 H 0.3292 0.4696 0.5732
C23 C 0.34011(13) 0.6314(4) 0.6275(7)
H15 H 0.3138 0.6536 0.6313
O1D O 0.65176(6) -0.00077(18) 0.8285(3)
O2D O 0.59622(7) -0.3899(2) 0.4351(4)
C1D C 0.63517(9) 0.0967(3) 0.7702(5)
C2D C 0.68453(9) 0.0302(3) 0.9183(4)
C3D C 0.57778(9) 0.0000(3) 0.6467(4)
H1D H 0.5885 -0.0682 0.6775
C4D C 0.68857(10) 0.1453(3) 0.9171(5)
C5D C 0.53888(9) -0.0010(3) 0.5676(4)
C6D C 0.58170(10) -0.5703(3) 0.3781(4)
C7D C 0.52219(9) -0.1004(2) 0.5003(4)
C8D C 0.59909(9) 0.0907(3) 0.6782(4)
H2D H 0.5894 0.1573 0.6357
C9D C 0.51597(9) 0.0942(3) 0.5632(4)
H3D H 0.5269 0.1591 0.6062
C10D C 0.55596(10) -0.4009(3) 0.4209(4)
C11D C 0.54550(9) -0.2035(3) 0.4852(4)
H4D H 0.5724 -0.1980 0.5070
C12D C 0.61170(11) -0.4938(3) 0.4076(5)
C13D C 0.65679(10) 0.1857(3) 0.8182(6)
H5D H 0.6518 0.2597 0.7914
C14D C 0.71021(10) -0.0417(4) 0.9989(5)
H6D H 0.7068 -0.1185 0.9961
C15D C 0.53201(10) -0.3030(3) 0.4436(5)
H7D H 0.5049 -0.3103 0.4277
C16D C 0.59129(13) -0.6810(3) 0.3490(5)
H8D H 0.5717 -0.7342 0.3332
C17D C 0.54606(10) -0.5072(3) 0.3873(5)
H9D H 0.5206 -0.5345 0.3727
C18D C 0.72044(13) 0.1921(4) 1.0049(7)
H10D H 0.7241 0.2687 1.0083
C19D C 0.74601(12) 0.1220(5) 1.0856(6)
H11D H 0.7673 0.1520 1.1436
C20D C 0.63069(14) -0.7093(3) 0.3442(6)
H12D H 0.6378 -0.7825 0.3215
C21D C 0.74109(11) 0.0073(5) 1.0832(5)
H13D H 0.7591 -0.0373 1.1400
C22D C 0.65118(13) -0.5218(4) 0.4061(8)
H14D H 0.6708 -0.4696 0.4268
C23D C 0.65989(13) -0.6314(4) 0.3725(7)
H15D H 0.6862 -0.6536 0.3687
loop_
_geom_bond_atom_site_label_1
_geom_bond_atom_site_label_2
_geom_bond_site_symmetry_1
_geom_bond_site_symmetry_2
O1 C1 1_555 1_555
O2 C10 1_555 1_555
C1 C8 1_555 1_555
C2 O1 1_555 1_555
C3 H1 1_555 1_555
C4 C2 1_555 1_555
C5 C3 1_555 1_555
C6 C12 1_555 1_555
C7 C5 1_555 1_555
C8 C3 1_555 1_555
H2 C8 1_555 1_555
C9 C5 1_555 1_555
H3 C9 1_555 1_555
C10 C15 1_555 1_555
C11 C7 1_555 1_555
H4 C11 1_555 1_555
C12 O2 1_555 1_555
C13 C1 1_555 1_555
H5 C13 1_555 1_555
C14 C2 1_555 1_555
H6 C14 1_555 1_555
C15 C11 1_555 1_555
H7 C15 1_555 1_555
C16 C6 1_555 1_555
H8 C16 1_555 1_555
C17 C6 1_555 1_555
H9 C17 1_555 1_555
C18 C4 1_555 1_555
H10 C18 1_555 1_555
C19 C18 1_555 1_555
H11 C19 1_555 1_555
C20 C16 1_555 1_555
H12 C20 1_555 1_555
C21 C14 1_555 1_555
H13 C21 1_555 1_555
C22 C12 1_555 1_555
H14 C22 1_555 1_555
C23 C20 1_555 1_555
H15 C23 1_555 1_555
O1D C1D 1_555 1_555
O2D C10D 1_555 1_555
C1D C8D 1_555 1_555
C2D O1D 1_555 1_555
C3D H1D 1_555 1_555
C4D C2D 1_555 1_555
C5D C3D 1_555 1_555
C6D C12D 1_555 1_555
C7D C9 1_555 1_555
C8D C3D 1_555 1_555
H2D C8D 1_555 1_555
C9D C7 1_555 1_555
H3D C9D 1_555 1_555
C10D C15D 1_555 1_555
C11D C7D 1_555 1_555
H4D C11D 1_555 1_555
C12D O2D 1_555 1_555
C13D C1D 1_555 1_555
H5D C13D 1_555 1_555
C14D C2D 1_555 1_555
H6D C14D 1_555 1_555
C15D C11D 1_555 1_555
H7D C15D 1_555 1_555
C16D C6D 1_555 1_555
H8D C16D 1_555 1_555
C17D C6D 1_555 1_555
H9D C17D 1_555 1_555
C18D C4D 1_555 1_555
H10D C18D 1_555 1_555
C19D C18D 1_555 1_555
H11D C19D 1_555 1_555
C20D C16D 1_555 1_555
H12D C20D 1_555 1_555
C21D C14D 1_555 1_555
H13D C21D 1_555 1_555
C22D C12D 1_555 1_555
H14D C22D 1_555 1_555
C23D C20D 1_555 1_555
H15D C23D 1_555 1_555
C4 C13 1_555 1_555
C10 C17 1_555 1_555
C19 C21 1_555 1_555
C22 C23 1_555 1_555
C4D C13D 1_555 1_555
C5D C7D 1_555 1_555
C5D C9D 1_555 1_555
C10D C17D 1_555 1_555
C19D C21D 1_555 1_555
C22D C23D 1_555 1_555

#END
