
#######################################################################
#
#                 Cambridge Crystallographic Data Centre
#                                CCDC 
#
#######################################################################
#
# If this CIF has been generated from an entry in the Cambridge 
# Structural Database, then it will include bibliographic, chemical, 
# crystal, experimental, refinement or atomic coordinate data resulting 
# from the CCDC's data processing and validation procedures.
#
#######################################################################

data_EGIGAE
_chemical_formula_moiety         'C40 H32 N2 O8 S1'
_chemical_name_systematic        
4-Benzyl-3-(2-(8-((4-benzyl-2-oxo-1,3-oxazolidin-3-yl)carbonyl)-2,2-dioxido-1,3-dihydronaphtho[2,3-c]thiophen-4-yl)benzoyl)-1,3-oxazolidin-2-one
_symmetry_cell_setting           monoclinic
_symmetry_space_group_name_H-M   'P 21'
_symmetry_Int_Tables_number      4
_space_group_name_Hall           'P 2yb'
loop_
_symmetry_equiv_pos_site_id
_symmetry_equiv_pos_as_xyz
1 x,y,z
2 -x,1/2+y,-z
_cell_length_a                   10.603(2)
_cell_length_b                   14.746(3)
_cell_length_c                   10.890(2)
_cell_angle_alpha                90
_cell_angle_beta                 92.786(6)
_cell_angle_gamma                90
_cell_volume                     1700.66
_cell_formula_units_Z            2
loop_
_atom_site_label
_atom_site_type_symbol
_atom_site_fract_x
_atom_site_fract_y
_atom_site_fract_z
S1 S 0.58324(12) 0.49830(9) 0.29897(11)
C1 C 0.4314(4) 0.3433(3) -0.2175(4)
C2 C 0.3283(4) 0.3429(3) -0.0213(4)
C3 C 0.4279(4) 0.3743(3) -0.0946(4)
C4 C 0.4102(4) 0.4344(3) 0.1495(4)
C5 C 0.3224(4) 0.3736(3) 0.1029(4)
C6 C 0.2377(4) 0.2824(3) -0.0757(4)
H1 H 0.1725 0.2610 -0.0295
C7 C 0.5192(4) 0.4350(3) -0.0417(4)
H2 H 0.5858 0.4544 -0.0875
O1 O 0.3088(3) 0.1263(2) 0.1170(3)
O2 O 0.5233(3) 0.4531(2) -0.3444(3)
O3 O 0.3735(3) 0.2838(2) 0.4308(3)
C8 C 0.2173(4) 0.3390(3) 0.1784(4)
N1 N 0.6394(3) 0.3279(2) -0.3106(3)
C9 C 0.6594(5) 0.2401(3) -0.2729(4)
C10 C 0.5322(4) 0.3797(3) -0.2958(4)
C11 C 0.2131(4) 0.2500(3) 0.2188(4)
O4 O 0.5626(4) 0.2185(2) 0.4265(3)
C12 C 0.5096(4) 0.4647(3) 0.0751(4)
O5 O 0.6516(3) 0.4147(2) 0.3216(3)
C13 C 0.7442(4) 0.3624(3) -0.3818(4)
H3 H 0.7115 0.3888 -0.4595
C14 C 0.3422(4) 0.2859(3) -0.2667(4)
H4 H 0.3458 0.2669 -0.3479
O6 O 0.7657(3) 0.2090(2) -0.3216(3)
O7 O 0.5988(3) 0.1940(2) -0.2063(3)
N2 N 0.4305(4) 0.1952(2) 0.2646(3)
O8 O 0.6073(3) 0.5727(2) 0.3820(3)
C15 C 0.2448(4) 0.2554(3) -0.1947(4)
H5 H 0.1841 0.2161 -0.2287
C16 C 0.4457(6) 0.2379(4) 0.3790(5)
C17 C 0.6007(5) 0.2022(4) 0.1235(5)
H6 H 0.5410 0.1981 0.0533
H7 H 0.6072 0.2656 0.1466
C18 C 0.9052(5) 0.5288(3) -0.4784(5)
H8 H 0.8230 0.5487 -0.4958
C19 C 0.9296(4) 0.4677(3) -0.3853(4)
C20 C 0.1174(4) 0.3957(3) 0.2017(4)
H9 H 0.1196 0.4560 0.1766
C21 C 0.7279(5) 0.1710(4) 0.0841(5)
C22 C 0.6008(4) 0.5288(3) 0.1425(4)
H10 H 0.5777 0.5916 0.1276
H11 H 0.6867 0.5191 0.1186
C23 C 1.0023(6) 0.5609(3) -0.5464(5)
H12 H 0.9849 0.6031 -0.6083
C24 C 0.1083(5) 0.2178(4) 0.2755(4)
H13 H 0.1046 0.1573 0.2992
C25 C 0.0131(5) 0.3636(4) 0.2625(4)
H14 H -0.0533 0.4023 0.2793
C26 C 0.3175(5) 0.1853(3) 0.1952(4)
C27 C 0.4194(4) 0.4730(3) 0.2769(4)
H15 H 0.3929 0.4291 0.3367
H16 H 0.3684 0.5273 0.2826
C28 C 0.0102(5) 0.2748(5) 0.2969(5)
H17 H -0.0597 0.2526 0.3356
C29 C 0.8119(4) 0.2748(3) -0.4052(5)
H18 H 0.7950 0.2553 -0.4895
H19 H 0.9023 0.2826 -0.3914
C30 C 0.6240(6) 0.1548(4) 0.3501(5)
H20 H 0.6276 0.0956 0.3889
H21 H 0.7095 0.1745 0.3365
C31 C 0.8249(4) 0.4307(3) -0.3106(4)
H22 H 0.8613 0.4022 -0.2369
H23 H 0.7720 0.4805 -0.2856
C32 C 1.1477(5) 0.4692(4) -0.4347(6)
H24 H 1.2292 0.4469 -0.4210
C33 C 1.0518(5) 0.4393(3) -0.3643(5)
H25 H 1.0705 0.3987 -0.3006
C34 C 0.5472(5) 0.1503(3) 0.2293(4)
H26 H 0.5304 0.0872 0.2058
C35 C 0.9603(6) 0.1220(6) -0.0037(6)
H27 H 1.0374 0.1058 -0.0345
C36 C 0.7755(5) 0.0856(4) 0.1036(5)
H28 H 0.7283 0.0432 0.1448
C37 C 1.1223(6) 0.5319(4) -0.5247(6)
H29 H 1.1869 0.5545 -0.5707
C38 C 0.9129(6) 0.2049(7) -0.0237(6)
H30 H 0.9589 0.2463 -0.0679
C39 C 0.7995(5) 0.2310(4) 0.0182(5)
H31 H 0.7698 0.2894 0.0027
C40 C 0.8936(6) 0.0610(5) 0.0631(6)
H32 H 0.9267 0.0039 0.0810
loop_
_geom_bond_atom_site_label_1
_geom_bond_atom_site_label_2
_geom_bond_site_symmetry_1
_geom_bond_site_symmetry_2
S1 O5 1_555 1_555
C1 C3 1_555 1_555
C2 C3 1_555 1_555
C3 C7 1_555 1_555
C4 C5 1_555 1_555
C5 C2 1_555 1_555
C6 C2 1_555 1_555
H1 C6 1_555 1_555
C7 H2 1_555 1_555
O1 C26 1_555 1_555
O2 C10 1_555 1_555
O3 C16 1_555 1_555
C8 C5 1_555 1_555
N1 C9 1_555 1_555
C9 O6 1_555 1_555
C10 C1 1_555 1_555
C11 C8 1_555 1_555
O4 C16 1_555 1_555
C12 C4 1_555 1_555
C13 N1 1_555 1_555
H3 C13 1_555 1_555
C14 C1 1_555 1_555
H4 C14 1_555 1_555
O6 C29 1_555 1_555
O7 C9 1_555 1_555
N2 C16 1_555 1_555
O8 S1 1_555 1_555
C15 C6 1_555 1_555
H5 C15 1_555 1_555
C17 H6 1_555 1_555
H7 C17 1_555 1_555
C18 H8 1_555 1_555
C19 C18 1_555 1_555
C20 C8 1_555 1_555
H9 C20 1_555 1_555
C21 C17 1_555 1_555
C22 S1 1_555 1_555
H10 C22 1_555 1_555
H11 C22 1_555 1_555
C23 C18 1_555 1_555
H12 C23 1_555 1_555
C24 C11 1_555 1_555
H13 C24 1_555 1_555
C25 C20 1_555 1_555
H14 C25 1_555 1_555
C26 C11 1_555 1_555
C27 S1 1_555 1_555
H15 C27 1_555 1_555
H16 C27 1_555 1_555
C28 C24 1_555 1_555
H17 C28 1_555 1_555
C29 C13 1_555 1_555
H18 C29 1_555 1_555
H19 C29 1_555 1_555
C30 O4 1_555 1_555
H20 C30 1_555 1_555
H21 C30 1_555 1_555
C31 C13 1_555 1_555
H22 C31 1_555 1_555
H23 C31 1_555 1_555
C32 H24 1_555 1_555
C33 C19 1_555 1_555
H25 C33 1_555 1_555
C34 N2 1_555 1_555
H26 C34 1_555 1_555
C35 H27 1_555 1_555
C36 C21 1_555 1_555
H28 C36 1_555 1_555
C37 C23 1_555 1_555
H29 C37 1_555 1_555
C38 C35 1_555 1_555
H30 C38 1_555 1_555
C39 C21 1_555 1_555
H31 C39 1_555 1_555
C40 C35 1_555 1_555
H32 C40 1_555 1_555
C4 C27 1_555 1_555
C7 C12 1_555 1_555
N1 C10 1_555 1_555
C12 C22 1_555 1_555
C14 C15 1_555 1_555
N2 C26 1_555 1_555
C17 C34 1_555 1_555
C19 C31 1_555 1_555
C25 C28 1_555 1_555
C30 C34 1_555 1_555
C32 C33 1_555 1_555
C32 C37 1_555 1_555
C36 C40 1_555 1_555
C38 C39 1_555 1_555

#END
