
#######################################################################
#
#                 Cambridge Crystallographic Data Centre
#                                CCDC 
#
#######################################################################
#
# If this CIF has been generated from an entry in the Cambridge 
# Structural Database, then it will include bibliographic, chemical, 
# crystal, experimental, refinement or atomic coordinate data resulting 
# from the CCDC's data processing and validation procedures.
#
#######################################################################

data_EGIHAD
_chemical_formula_moiety         'C14 H28 N2 O3'
_chemical_name_systematic        
3-(((2,2-Dimethylpropanoyl)amino)oxy)-N-isobutyl-2,2-dimethylpropanamide
_symmetry_cell_setting           monoclinic
_symmetry_space_group_name_H-M   'P 21/n'
_symmetry_Int_Tables_number      14
_space_group_name_Hall           '-P 2yn'
loop_
_symmetry_equiv_pos_site_id
_symmetry_equiv_pos_as_xyz
1 x,y,z
2 1/2-x,1/2+y,1/2-z
3 -x,-y,-z
4 1/2+x,1/2-y,1/2+z
_cell_length_a                   11.294(2)
_cell_length_b                   18.588(4)
_cell_length_c                   16.301(3)
_cell_angle_alpha                90
_cell_angle_beta                 91.20(3)
_cell_angle_gamma                90
_cell_volume                     3421.37
_exptl_crystal_colour            colorless
_exptl_crystal_description       prism
_cell_formula_units_Z            8
loop_
_atom_site_label
_atom_site_type_symbol
_atom_site_fract_x
_atom_site_fract_y
_atom_site_fract_z
O1 O 0.32727(18) 0.20623(14) 0.25083(16)
O2 O 0.18541(17) 0.10293(11) 0.29745(14)
O3 O -0.10794(19) 0.23633(13) 0.31641(15)
N1 N 0.3004(2) 0.08882(19) 0.2702(2)
N2 N 0.0883(3) 0.24565(16) 0.30017(18)
C1 C 0.3679(3) 0.1456(2) 0.2536(2)
C2 C 0.4975(3) 0.1294(2) 0.2353(3)
C3 C -0.0126(3) 0.2096(2) 0.29426(19)
C4 C -0.0143(3) 0.13380(18) 0.2580(2)
C5 C 0.1056(3) 0.10788(17) 0.2286(2)
H1 H 0.0972 0.0612 0.2026
H2 H 0.1363 0.1414 0.1887
C6 C 0.0993(3) 0.3176(2) 0.3337(3)
H3 H 0.0206 0.3360 0.3441
H4 H 0.1344 0.3484 0.2928
C7 C 0.1706(7) 0.3224(3) 0.4097(4)
H5 H 0.2464 0.3001 0.3962
C8 C 0.4991(11) 0.0637(10) 0.1777(9)
H6 H 0.4549 0.0745 0.1283
H7 H 0.4641 0.0232 0.2045
H8 H 0.5794 0.0525 0.1643
C9 C 0.5583(9) 0.1104(10) 0.3100(8)
H9 H 0.6397 0.1002 0.2988
H10 H 0.5220 0.0686 0.3332
H11 H 0.5541 0.1497 0.3480
C10 C 0.5418(12) 0.1950(8) 0.1887(17)
H12 H 0.4968 0.2003 0.1385
H13 H 0.6239 0.1888 0.1766
H14 H 0.5324 0.2373 0.2218
C11 C -0.0969(3) 0.1351(2) 0.1823(2)
H15 H -0.0997 0.0881 0.1579
H16 H -0.0678 0.1691 0.1432
H17 H -0.1751 0.1489 0.1983
C12 C -0.0617(3) 0.0822(2) 0.3236(2)
H18 H -0.0644 0.0342 0.3020
H19 H -0.1399 0.0969 0.3384
H20 H -0.0103 0.0835 0.3712
C13 C 0.1206(14) 0.2744(7) 0.4754(6)
H21 H 0.1690 0.2779 0.5244
H22 H 0.1196 0.2255 0.4565
H23 H 0.0413 0.2894 0.4871
C14 C 0.2003(13) 0.4038(9) 0.4214(8)
H24 H 0.2502 0.4098 0.4693
H25 H 0.1282 0.4304 0.4280
H26 H 0.2406 0.4212 0.3741
H27 H 0.153(3) 0.2186(18) 0.286(2)
H28 H 0.325(3) 0.0484(19) 0.283(2)
O4 O 0.0977(2) 0.20936(12) 0.02895(15)
O5 O 0.24383(17) 0.31217(11) -0.01436(14)
O6 O 0.1490(2) 0.45211(14) 0.17344(16)
N3 N 0.2480(2) 0.24309(15) -0.04912(19)
N4 N 0.0869(2) 0.35008(18) 0.11538(19)
C15 C 0.1657(3) 0.19604(18) -0.0268(2)
C16 C 0.1640(3) 0.12423(19) -0.0714(2)
C17 C 0.1711(3) 0.3979(2) 0.1322(2)
C18 C 0.2965(3) 0.38546(17) 0.1028(2)
C19 C 0.3143(3) 0.31348(17) 0.0602(2)
H29 H 0.3972 0.3071 0.0478
H30 H 0.2905 0.2746 0.0960
C20 C -0.0354(3) 0.35847(19) 0.1392(2)
H31 H -0.0385 0.3951 0.1815
H32 H -0.0615 0.3136 0.1633
C21 C -0.1189(4) 0.3781(4) 0.0732(3)
H33 H -0.0889 0.4274 0.0687
C22 C 0.204(2) 0.0685(6) -0.0127(7)
H34 H 0.2028 0.0225 -0.0393
H35 H 0.1511 0.0675 0.0329
H36 H 0.2824 0.0793 0.0066
C23 C 0.0285(8) 0.1084(8) -0.0933(12)
H37 H 0.0221 0.0637 -0.1224
H38 H -0.0028 0.1466 -0.1270
H39 H -0.0155 0.1055 -0.0437
C24 C 0.2262(18) 0.1195(7) -0.1496(10)
H40 H 0.2172 0.0719 -0.1718
H41 H 0.3088 0.1296 -0.1404
H42 H 0.1932 0.1539 -0.1876
C25 C 0.3795(3) 0.3860(2) 0.1787(2)
H43 H 0.4595 0.3779 0.1620
H44 H 0.3566 0.3486 0.2157
H45 H 0.3745 0.4317 0.2057
C26 C 0.3283(3) 0.44756(18) 0.0457(2)
H46 H 0.4070 0.4406 0.0260
H47 H 0.3247 0.4922 0.0753
H48 H 0.2733 0.4489 0.0001
C27 C -0.1170(12) 0.3628(9) -0.0049(9)
H49 H -0.1879 0.3806 -0.0314
H50 H -0.1125 0.3116 -0.0119
H51 H -0.0492 0.3850 -0.0289
C28 C -0.2439(19) 0.4008(13) 0.1029(15)
H52 H -0.2419 0.4059 0.1616
H53 H -0.3008 0.3647 0.0874
H54 H -0.2659 0.4459 0.0782
H55 H 0.293(3) 0.2406(19) -0.098(2)
H56 H 0.101(3) 0.314(2) 0.082(2)
H57? H 0.2379 0.3412 0.3794
C29? C 0.5282(18) 0.1599(15) 0.1575(16)
H58? H 0.4857 0.2041 0.1491
H59? H 0.5077 0.1267 0.1144
H60? H 0.6118 0.1692 0.1571
C30? C 0.5385(11) 0.0557(8) 0.237(2)
H61? H 0.6195 0.0540 0.2200
H62? H 0.4905 0.0274 0.1996
H63? H 0.5327 0.0368 0.2912
C31? C 0.5713(11) 0.1744(16) 0.2966(17)
H64? H 0.5554 0.2245 0.2877
H65? H 0.6540 0.1651 0.2888
H66? H 0.5508 0.1616 0.3515
C32? C 0.2362(13) 0.2835(8) 0.4498(9)
H67? H 0.2697 0.3101 0.4951
H68? H 0.2986 0.2664 0.4157
H69? H 0.1921 0.2433 0.4701
C33? C 0.1530(19) 0.3993(11) 0.4538(10)
H70? H 0.1001 0.4285 0.4211
H71? H 0.2282 0.4231 0.4595
H72? H 0.1202 0.3922 0.5071
H73? H -0.1153 0.3340 0.0405
C34? C 0.0891(16) 0.0731(6) -0.0281(11)
H74? H 0.0872 0.0282 -0.0573
H75? H 0.0102 0.0921 -0.0251
H76? H 0.1207 0.0656 0.0263
C35? C 0.123(3) 0.1392(7) -0.1574(10)
H77? H 0.1198 0.0951 -0.1880
H78? H 0.1765 0.1719 -0.1828
H79? H 0.0450 0.1603 -0.1568
C36? C 0.2921(9) 0.0923(6) -0.0743(19)
H80? H 0.2902 0.0474 -0.1033
H81? H 0.3218 0.0846 -0.0194
H82? H 0.3429 0.1254 -0.1020
C37? C -0.0851(11) 0.4278(8) 0.0134(10)
H83? H -0.1484 0.4337 -0.0262
H84? H -0.0158 0.4105 -0.0135
H85? H -0.0678 0.4732 0.0390
C38? C -0.2451(15) 0.3692(12) 0.1079(11)
H86? H -0.2440 0.3322 0.1491
H87? H -0.2993 0.3561 0.0643
H88? H -0.2698 0.4138 0.1319
loop_
_geom_bond_atom_site_label_1
_geom_bond_atom_site_label_2
_geom_bond_site_symmetry_1
_geom_bond_site_symmetry_2
O1 C1 1_555 1_555
O2 N1 1_555 1_555
O3 C3 1_555 1_555
N1 C1 1_555 1_555
N2 C3 1_555 1_555
C1 C2 1_555 1_555
C2 C8 1_555 1_555
C3 C4 1_555 1_555
C4 C5 1_555 1_555
C5 O2 1_555 1_555
H1 C5 1_555 1_555
H2 C5 1_555 1_555
C6 N2 1_555 1_555
H3 C6 1_555 1_555
H4 C6 1_555 1_555
C7 C6 1_555 1_555
H5 C7 1_555 1_555
C8 H6 1_555 1_555
H7 C8 1_555 1_555
H8 C8 1_555 1_555
C9 C2 1_555 1_555
H9 C9 1_555 1_555
H10 C9 1_555 1_555
H11 C9 1_555 1_555
C10 C2 1_555 1_555
H12 C10 1_555 1_555
H13 C10 1_555 1_555
H14 C10 1_555 1_555
C11 C4 1_555 1_555
H15 C11 1_555 1_555
H16 C11 1_555 1_555
H17 C11 1_555 1_555
C12 C4 1_555 1_555
H18 C12 1_555 1_555
H19 C12 1_555 1_555
H20 C12 1_555 1_555
C13 C7 1_555 1_555
H21 C13 1_555 1_555
H22 C13 1_555 1_555
H23 C13 1_555 1_555
C14 C7 1_555 1_555
H24 C14 1_555 1_555
H25 C14 1_555 1_555
H26 C14 1_555 1_555
H27 N2 1_555 1_555
H28 N1 1_555 1_555
O4 C15 1_555 1_555
O5 N3 1_555 1_555
O6 C17 1_555 1_555
N3 C15 1_555 1_555
N4 C17 1_555 1_555
C15 C16 1_555 1_555
C16 C22 1_555 1_555
C17 C18 1_555 1_555
C18 C19 1_555 1_555
C19 O5 1_555 1_555
H29 C19 1_555 1_555
H30 C19 1_555 1_555
C20 N4 1_555 1_555
H31 C20 1_555 1_555
H32 C20 1_555 1_555
C21 C20 1_555 1_555
H33 C21 1_555 1_555
C22 H34 1_555 1_555
H35 C22 1_555 1_555
H36 C22 1_555 1_555
C23 C16 1_555 1_555
H37 C23 1_555 1_555
H38 C23 1_555 1_555
H39 C23 1_555 1_555
C24 C16 1_555 1_555
H40 C24 1_555 1_555
H41 C24 1_555 1_555
H42 C24 1_555 1_555
C25 C18 1_555 1_555
H43 C25 1_555 1_555
H44 C25 1_555 1_555
H45 C25 1_555 1_555
C26 C18 1_555 1_555
H46 C26 1_555 1_555
H47 C26 1_555 1_555
H48 C26 1_555 1_555
C27 C21 1_555 1_555
H49 C27 1_555 1_555
H50 C27 1_555 1_555
H51 C27 1_555 1_555
C28 C21 1_555 1_555
H52 C28 1_555 1_555
H53 C28 1_555 1_555
H54 C28 1_555 1_555
H55 N3 1_555 1_555
H56 N4 1_555 1_555

#END
