
#######################################################################
#
#                 Cambridge Crystallographic Data Centre
#                                CCDC 
#
#######################################################################
#
# If this CIF has been generated from an entry in the Cambridge 
# Structural Database, then it will include bibliographic, chemical, 
# crystal, experimental, refinement or atomic coordinate data resulting 
# from the CCDC's data processing and validation procedures.
#
#######################################################################

data_EGIHEH
_chemical_formula_moiety         'C21 H39 N3 O5'
_chemical_name_systematic        
N-Cyclohexyl-N'-(3-(((2,2-dimethylpropanoyl)amino)oxy)-2,2-dimethylpropanoyl)-2-methylalaninamide
_symmetry_cell_setting           monoclinic
_symmetry_space_group_name_H-M   'P 21'
_symmetry_Int_Tables_number      4
_space_group_name_Hall           'P 2yb'
loop_
_symmetry_equiv_pos_site_id
_symmetry_equiv_pos_as_xyz
1 x,y,z
2 -x,1/2+y,-z
_cell_length_a                   5.7650(12)
_cell_length_b                   19.431(4)
_cell_length_c                   10.821(2)
_cell_angle_alpha                90
_cell_angle_beta                 99.26(3)
_cell_angle_gamma                90
_cell_volume                     1196.37
_exptl_crystal_colour            colorless
_exptl_crystal_description       prism
_cell_formula_units_Z            2
loop_
_atom_site_label
_atom_site_type_symbol
_atom_site_fract_x
_atom_site_fract_y
_atom_site_fract_z
O1 O -0.4003(4) 0.55958(11) 0.8483(2)
O2 O 0.1199(3) 0.40671(9) 0.87715(18)
O3 O -0.1079(4) 0.32277(13) 0.7074(2)
O4 O 0.2704(3) 0.20314(9) 0.97121(16)
O5 O 0.5132(4) 0.30608(11) 1.0832(2)
N1 N -0.3261(5) 0.46327(14) 0.7512(2)
N2 N 0.1949(4) 0.33922(12) 0.8631(2)
N3 N 0.4545(4) 0.19240(13) 1.0720(2)
C1 C -0.2971(5) 0.50415(13) 0.8498(3)
C2 C -0.1356(5) 0.48237(14) 0.9707(2)
C3 C -0.0395(5) 0.40972(15) 0.9670(3)
H1 H 0.0423 0.3970 1.0493
H2 H -0.1678 0.3776 0.9436
C4 C 0.0642(6) 0.53447(16) 0.9954(3)
H3 H 0.0002 0.5800 0.9976
H4 H 0.1581 0.5317 0.9299
H5 H 0.1602 0.5245 1.0744
C5 C -0.2842(7) 0.4833(2) 1.0773(3)
H6 H -0.3490 0.5285 1.0836
H7 H -0.1866 0.4717 1.1550
H8 H -0.4095 0.4505 1.0597
C6 C -0.4665(6) 0.48251(16) 0.6314(3)
H9 H -0.5852 0.5159 0.6480
C7 C -0.5914(9) 0.4213(2) 0.5696(4)
H10 H -0.6983 0.4032 0.6223
H11 H -0.4779 0.3857 0.5598
C8 C -0.7285(9) 0.4397(3) 0.4423(4)
H12 H -0.7957 0.3981 0.4019
H13 H -0.8572 0.4700 0.4538
C9 C -0.5840(10) 0.4738(3) 0.3595(4)
H14 H -0.6849 0.4892 0.2841
H15 H -0.4733 0.4408 0.3352
C10 C -0.4534(15) 0.5334(4) 0.4208(5)
H16 H -0.5631 0.5703 0.4292
H17 H -0.3437 0.5498 0.3683
C11 C -0.3206(10) 0.5155(3) 0.5482(4)
H18 H -0.1925 0.4847 0.5379
H19 H -0.2526 0.5572 0.5879
C12 C 0.0678(5) 0.30089(15) 0.7747(2)
C13 C 0.1645(5) 0.22882(15) 0.7533(2)
C14 C 0.3602(5) 0.20551(14) 0.8556(2)
H20 H 0.4156 0.1603 0.8359
H21 H 0.4911 0.2374 0.8624
C15 C 0.2679(6) 0.23240(19) 0.6316(3)
H22 H 0.1482 0.2467 0.5643
H23 H 0.3255 0.1878 0.6131
H24 H 0.3949 0.2649 0.6410
C16 C -0.0379(5) 0.17759(19) 0.7409(3)
H25 H -0.1616 0.1927 0.6764
H26 H -0.0962 0.1747 0.8190
H27 H 0.0166 0.1331 0.7196
C17 C 0.5550(5) 0.24888(14) 1.1291(3)
C18 C 0.7262(5) 0.23741(15) 1.2502(3)
C19 C 0.5905(10) 0.2341(7) 1.3532(4)
H28 H 0.4761 0.1979 1.3374
H29 H 0.5121 0.2772 1.3597
H30 H 0.6943 0.2249 1.4301
C20 C 0.8658(10) 0.1697(3) 1.2489(6)
H31 H 0.9541 0.1706 1.1809
H32 H 0.7587 0.1315 1.2383
H33 H 0.9714 0.1649 1.3266
C21 C 0.9034(13) 0.2946(3) 1.2644(6)
H34 H 0.9919 0.2929 1.1965
H35 H 1.0080 0.2894 1.3424
H36 H 0.8238 0.3380 1.2634
H37 H 0.454(7) 0.152(2) 1.098(4)
H38 H -0.259(5) 0.4306(18) 0.749(3)
H39 H 0.294(6) 0.3247(19) 0.931(3)
loop_
_geom_bond_atom_site_label_1
_geom_bond_atom_site_label_2
_geom_bond_site_symmetry_1
_geom_bond_site_symmetry_2
O1 C1 1_555 1_555
O2 N2 1_555 1_555
O3 C12 1_555 1_555
O4 N3 1_555 1_555
O5 C17 1_555 1_555
N1 C1 1_555 1_555
N2 C12 1_555 1_555
N3 C17 1_555 1_555
C1 C2 1_555 1_555
C2 C3 1_555 1_555
C3 O2 1_555 1_555
H1 C3 1_555 1_555
H2 C3 1_555 1_555
C4 C2 1_555 1_555
H3 C4 1_555 1_555
H4 C4 1_555 1_555
H5 C4 1_555 1_555
C5 C2 1_555 1_555
H6 C5 1_555 1_555
H7 C5 1_555 1_555
H8 C5 1_555 1_555
C6 N1 1_555 1_555
H9 C6 1_555 1_555
C7 C6 1_555 1_555
H10 C7 1_555 1_555
H11 C7 1_555 1_555
C8 C7 1_555 1_555
H12 C8 1_555 1_555
H13 C8 1_555 1_555
C9 C8 1_555 1_555
H14 C9 1_555 1_555
H15 C9 1_555 1_555
C10 C9 1_555 1_555
H16 C10 1_555 1_555
H17 C10 1_555 1_555
C11 C6 1_555 1_555
H18 C11 1_555 1_555
H19 C11 1_555 1_555
C12 C13 1_555 1_555
C13 C14 1_555 1_555
C14 O4 1_555 1_555
H20 C14 1_555 1_555
H21 C14 1_555 1_555
C15 C13 1_555 1_555
H22 C15 1_555 1_555
H23 C15 1_555 1_555
H24 C15 1_555 1_555
C16 C13 1_555 1_555
H25 C16 1_555 1_555
H26 C16 1_555 1_555
H27 C16 1_555 1_555
C17 C18 1_555 1_555
C18 C19 1_555 1_555
C19 H28 1_555 1_555
H29 C19 1_555 1_555
H30 C19 1_555 1_555
C20 C18 1_555 1_555
H31 C20 1_555 1_555
H32 C20 1_555 1_555
H33 C20 1_555 1_555
C21 C18 1_555 1_555
H34 C21 1_555 1_555
H35 C21 1_555 1_555
H36 C21 1_555 1_555
H37 N3 1_555 1_555
H38 N1 1_555 1_555
H39 N2 1_555 1_555
C10 C11 1_555 1_555

#END
