
#######################################################################
#
#                 Cambridge Crystallographic Data Centre
#                                CCDC 
#
#######################################################################
#
# If this CIF has been generated from an entry in the Cambridge 
# Structural Database, then it will include bibliographic, chemical, 
# crystal, experimental, refinement or atomic coordinate data resulting 
# from the CCDC's data processing and validation procedures.
#
#######################################################################

data_EGIJAG
_chemical_formula_moiety         'C66 H16 F30 N6,2(C2 H6 O1 S1)'
_chemical_name_systematic        
'meso-5,10,15,20,25,30-hexakis(Pentafluorophenyl)-(28)hexaphyrin(1.1.1.1.1.1) dimethylsulfoxide solvate'
_symmetry_cell_setting           monoclinic
_symmetry_space_group_name_H-M   'P 21/c'
_symmetry_Int_Tables_number      14
_space_group_name_Hall           '-P 2ybc'
loop_
_symmetry_equiv_pos_site_id
_symmetry_equiv_pos_as_xyz
1 x,y,z
2 -x,1/2+y,1/2-z
3 -x,-y,-z
4 x,1/2-y,1/2+z
_cell_length_a                   13.7892(19)
_cell_length_b                   12.9847(17)
_cell_length_c                   18.106(3)
_cell_angle_alpha                90
_cell_angle_beta                 99.097(2)
_cell_angle_gamma                90
_cell_volume                     3201.08
_exptl_crystal_colour            violet
_exptl_crystal_description       prism
_cell_formula_units_Z            2
_exptl_crystal_recrystallization_method DMSO/methanol/water
loop_
_atom_site_label
_atom_site_type_symbol
_atom_site_fract_x
_atom_site_fract_y
_atom_site_fract_z
C1 C 0.26507(17) 0.86058(18) 0.19189(13)
C2 C 0.17004(17) 0.90009(19) 0.20204(13)
H1 H 0.1295 0.8730 0.2352
C3 C 0.14893(17) 0.98129(19) 0.15689(13)
H2 H 0.0912 1.0221 0.1532
C4 C 0.22817(16) 0.99691(18) 0.11456(13)
C5 C 0.23252(17) 1.07233(18) 0.06224(13)
C6 C 0.30353(16) 1.08055(18) 0.01191(12)
C7 C 0.36772(17) 1.01094(18) -0.01343(13)
H3 H 0.3804 0.9426 0.0041
C8 C 0.41025(17) 1.05973(18) -0.06944(13)
H4 H 0.4571 1.0305 -0.0965
C9 C 0.37168(16) 1.15852(18) -0.07823(13)
C10 C 0.37547(16) 1.23851(18) -0.13272(13)
C11 C 0.44813(17) 1.25741(18) -0.17472(13)
C12 C 0.44370(18) 1.33511(18) -0.23250(13)
H5 H 0.3909 1.3812 -0.2481
C13 C 0.52855(18) 1.32955(19) -0.25983(13)
H6 H 0.5474 1.3707 -0.2985
C14 C 0.58600(17) 1.24803(18) -0.21852(13)
C15 C 0.31840(17) 0.78230(18) 0.23037(13)
C16 C 0.15607(17) 1.15445(19) 0.05560(13)
C17 C 0.08570(18) 1.16725(19) -0.00749(14)
C18 C 0.01939(18) 1.2471(2) -0.01519(15)
C19 C 0.0227(2) 1.3187(2) 0.04098(15)
C20 C 0.0913(3) 1.3091(3) 0.10373(16)
C21 C 0.1561(2) 1.2280(2) 0.11021(15)
C22 C 0.28503(16) 1.30328(18) -0.14624(12)
C23 C 0.19510(17) 1.25879(18) -0.17423(13)
C24 C 0.10920(18) 1.3140(2) -0.18462(14)
C25 C 0.11084(17) 1.4165(2) -0.16423(14)
C26 C 0.19875(18) 1.46242(19) -0.13604(14)
C27 C 0.28409(17) 1.40708(19) -0.12843(13)
C28 C 0.27425(17) 0.72980(18) 0.29039(13)
C29 C 0.30505(18) 0.75203(19) 0.36481(14)
C30 C 0.2598(2) 0.7116(2) 0.42122(14)
C31 C 0.18186(19) 0.6458(2) 0.40311(15)
C32 C 0.15109(18) 0.6183(2) 0.32999(15)
C33 C 0.19721(17) 0.6599(2) 0.27484(14)
F1 F 0.16611(11) 0.63171(12) 0.20388(8)
F2 F 0.07667(11) 0.55209(13) 0.31354(9)
F3 F 0.13591(12) 0.60855(12) 0.45753(9)
F4 F 0.29081(14) 0.73697(12) 0.49275(8)
F5 F 0.38051(11) 0.81724(12) 0.38418(8)
F6 F 0.36820(10) 1.45477(11) -0.10033(8)
F7 F 0.19933(11) 1.56206(11) -0.11576(9)
F8 F 0.02804(11) 1.47152(12) -0.17289(9)
F9 F 0.02497(10) 1.26963(12) -0.21623(10)
F10 F 0.19196(10) 1.15897(11) -0.19338(8)
F11 F 0.22507(15) 1.22360(15) 0.17182(9)
F12 F 0.0985(2) 1.3808(2) 0.15738(12)
F13 F -0.04061(14) 1.39730(15) 0.03278(10)
F14 F -0.04849(12) 1.25578(14) -0.07612(10)
F15 F 0.08144(13) 1.09976(13) -0.06402(10)
N1 N 0.29612(14) 0.92032(15) 0.13745(10)
H7 H 0.3513 0.9112 0.1197
N2 N 0.30732(14) 1.16946(15) -0.02808(10)
H8 H 0.2734 1.2256 -0.0225
N3 N 0.53747(14) 1.20479(15) -0.16803(10)
C1B C 0.73493(17) 1.13942(18) -0.19189(13)
C2B C 0.82996(17) 1.09991(19) -0.20204(13)
H1B H 0.8705 1.1270 -0.2352
C3B C 0.85107(17) 1.01871(19) -0.15689(13)
H2B H 0.9088 0.9779 -0.1532
C4B C 0.77183(16) 1.00309(18) -0.11456(13)
C5B C 0.76748(17) 0.92767(18) -0.06224(13)
C6B C 0.69647(16) 0.91945(18) -0.01191(12)
C7B C 0.63228(17) 0.98906(18) 0.01343(13)
H3B H 0.6196 1.0574 -0.0041
C8B C 0.58975(17) 0.94027(18) 0.06944(13)
H4B H 0.5429 0.9695 0.0965
C9B C 0.62832(16) 0.84148(18) 0.07823(13)
C10B C 0.62453(16) 0.76149(18) 0.13272(13)
C11B C 0.55187(17) 0.74259(18) 0.17472(13)
C12B C 0.55630(18) 0.66489(18) 0.23250(13)
H5B H 0.6091 0.6188 0.2481
C13B C 0.47145(18) 0.67045(19) 0.25983(13)
H6B H 0.4526 0.6293 0.2985
C14B C 0.41400(17) 0.75197(18) 0.21852(13)
C15B C 0.68160(17) 1.21770(18) -0.23037(13)
C16B C 0.84393(17) 0.84555(19) -0.05560(13)
C17B C 0.91430(18) 0.83275(19) 0.00749(14)
C18B C 0.98061(18) 0.7529(2) 0.01519(15)
C19B C 0.9773(2) 0.6813(2) -0.04098(15)
C20B C 0.9087(3) 0.6909(3) -0.10373(16)
C21B C 0.8439(2) 0.7720(2) -0.11021(15)
C22B C 0.71497(16) 0.69672(18) 0.14624(12)
C23B C 0.80490(17) 0.74121(18) 0.17423(13)
C24B C 0.89080(18) 0.6860(2) 0.18462(14)
C25B C 0.88916(17) 0.5835(2) 0.16423(14)
C26B C 0.80125(18) 0.53758(19) 0.13604(14)
C27B C 0.71591(17) 0.59292(19) 0.12843(13)
C28B C 0.72575(17) 1.27020(18) -0.29039(13)
C29B C 0.69495(18) 1.24797(19) -0.36481(14)
C30B C 0.7402(2) 1.2884(2) -0.42122(14)
C31B C 0.81814(19) 1.3542(2) -0.40311(15)
C32B C 0.84891(18) 1.3817(2) -0.32999(15)
C33B C 0.80279(17) 1.3401(2) -0.27484(14)
F1B F 0.83389(11) 1.36829(12) -0.20388(8)
F2B F 0.92333(11) 1.44791(13) -0.31354(9)
F3B F 0.86409(12) 1.39145(12) -0.45753(9)
F4B F 0.70919(14) 1.26303(12) -0.49275(8)
F5B F 0.61949(11) 1.18276(12) -0.38418(8)
F6B F 0.63180(10) 0.54523(11) 0.10033(8)
F7B F 0.80067(11) 0.43794(11) 0.11576(9)
F8B F 0.97196(11) 0.52848(12) 0.17289(9)
F9B F 0.97503(10) 0.73037(12) 0.21623(10)
F10B F 0.80804(10) 0.84103(11) 0.19338(8)
F11B F 0.77493(15) 0.77640(15) -0.17182(9)
F12B F 0.9015(2) 0.6192(2) -0.15738(12)
F13B F 1.04061(14) 0.60270(15) -0.03278(10)
F14B F 1.04849(12) 0.74422(14) 0.07612(10)
F15B F 0.91856(13) 0.90024(13) 0.06402(10)
N1B N 0.70388(14) 1.07968(15) -0.13745(10)
H7B H 0.6487 1.0888 -0.1197
N2B N 0.69268(14) 0.83054(15) 0.02808(10)
H8B H 0.7266 0.7744 0.0225
N3B N 0.46253(14) 0.79521(15) 0.16803(10)
O1 O 0.28670(15) 0.36720(14) 0.03658(10)
S1 S 0.37990(7) 0.42117(6) 0.07283(5)
C34 C 0.3547(3) 0.5548(2) 0.06467(19)
H9 H 0.3509 0.5758 0.0123
H10 H 0.4074 0.5932 0.0956
H11 H 0.2921 0.5694 0.0816
C35 C 0.3824(4) 0.4123(3) 0.1706(2)
H12 H 0.3193 0.4355 0.1831
H13 H 0.4353 0.4559 0.1963
H14 H 0.3941 0.3407 0.1866
loop_
_geom_bond_atom_site_label_1
_geom_bond_atom_site_label_2
_geom_bond_site_symmetry_1
_geom_bond_site_symmetry_2
C1 C2 1_555 1_555
C2 H1 1_555 1_555
C3 C2 1_555 1_555
H2 C3 1_555 1_555
C4 C3 1_555 1_555
C5 C4 1_555 1_555
C6 C5 1_555 1_555
C7 C6 1_555 1_555
H3 C7 1_555 1_555
C8 C7 1_555 1_555
H4 C8 1_555 1_555
C9 C8 1_555 1_555
C10 C9 1_555 1_555
C11 C10 1_555 1_555
C12 C11 1_555 1_555
H5 C12 1_555 1_555
C13 C12 1_555 1_555
H6 C13 1_555 1_555
C14 C13 1_555 1_555
C15 C1 1_555 1_555
C16 C5 1_555 1_555
C17 C16 1_555 1_555
C18 C17 1_555 1_555
C19 C18 1_555 1_555
C20 C19 1_555 1_555
C21 C16 1_555 1_555
C22 C10 1_555 1_555
C23 C22 1_555 1_555
C24 C23 1_555 1_555
C25 C24 1_555 1_555
C26 C25 1_555 1_555
C27 C22 1_555 1_555
C28 C15 1_555 1_555
C29 C28 1_555 1_555
C30 C29 1_555 1_555
C31 C30 1_555 1_555
C32 C31 1_555 1_555
C33 C28 1_555 1_555
F1 C33 1_555 1_555
F2 C32 1_555 1_555
F3 C31 1_555 1_555
F4 C30 1_555 1_555
F5 C29 1_555 1_555
F6 C27 1_555 1_555
F7 C26 1_555 1_555
F8 C25 1_555 1_555
F9 C24 1_555 1_555
F10 C23 1_555 1_555
F11 C21 1_555 1_555
F12 C20 1_555 1_555
F13 C19 1_555 1_555
F14 C18 1_555 1_555
F15 C17 1_555 1_555
N1 C1 1_555 1_555
H7 N1 1_555 1_555
N2 C6 1_555 1_555
H8 N2 1_555 1_555
N3 C11 1_555 1_555
O1 S1 1_555 1_555
S1 C34 1_555 1_555
C34 H9 1_555 1_555
H10 C34 1_555 1_555
H11 C34 1_555 1_555
C35 S1 1_555 1_555
H12 C35 1_555 1_555
H13 C35 1_555 1_555
H14 C35 1_555 1_555
C1B C2B 1_555 1_555
C2B H1B 1_555 1_555
C3B C2B 1_555 1_555
H2B C3B 1_555 1_555
C4B C3B 1_555 1_555
C5B C4B 1_555 1_555
C6B C5B 1_555 1_555
C7B C6B 1_555 1_555
H3B C7B 1_555 1_555
C8B C7B 1_555 1_555
H4B C8B 1_555 1_555
C9B C8B 1_555 1_555
C10B C9B 1_555 1_555
C11B C10B 1_555 1_555
C12B C11B 1_555 1_555
H5B C12B 1_555 1_555
C13B C12B 1_555 1_555
H6B C13B 1_555 1_555
C14B C15 1_555 1_555
C15B C14 1_555 1_555
C16B C5B 1_555 1_555
C17B C16B 1_555 1_555
C18B C17B 1_555 1_555
C19B C18B 1_555 1_555
C20B C19B 1_555 1_555
C21B C16B 1_555 1_555
C22B C10B 1_555 1_555
C23B C22B 1_555 1_555
C24B C23B 1_555 1_555
C25B C24B 1_555 1_555
C26B C25B 1_555 1_555
C27B C22B 1_555 1_555
C28B C15B 1_555 1_555
C29B C28B 1_555 1_555
C30B C29B 1_555 1_555
C31B C30B 1_555 1_555
C32B C31B 1_555 1_555
C33B C28B 1_555 1_555
F1B C33B 1_555 1_555
F2B C32B 1_555 1_555
F3B C31B 1_555 1_555
F4B C30B 1_555 1_555
F5B C29B 1_555 1_555
F6B C27B 1_555 1_555
F7B C26B 1_555 1_555
F8B C25B 1_555 1_555
F9B C24B 1_555 1_555
F10B C23B 1_555 1_555
F11B C21B 1_555 1_555
F12B C20B 1_555 1_555
F13B C19B 1_555 1_555
F14B C18B 1_555 1_555
F15B C17B 1_555 1_555
N1B C1B 1_555 1_555
H7B N1B 1_555 1_555
N2B C6B 1_555 1_555
H8B N2B 1_555 1_555
N3B C11B 1_555 1_555
C4 N1 1_555 1_555
C9 N2 1_555 1_555
C14 N3 1_555 1_555
C20 C21 1_555 1_555
C26 C27 1_555 1_555
C32 C33 1_555 1_555
C1B C15B 1_555 1_555
C4B N1B 1_555 1_555
C9B N2B 1_555 1_555
C13B C14B 1_555 1_555
C14B N3B 1_555 1_555
C20B C21B 1_555 1_555
C26B C27B 1_555 1_555
C32B C33B 1_555 1_555

#END
