
#######################################################################
#
#                 Cambridge Crystallographic Data Centre
#                                CCDC 
#
#######################################################################
#
# If this CIF has been generated from an entry in the Cambridge 
# Structural Database, then it will include bibliographic, chemical, 
# crystal, experimental, refinement or atomic coordinate data resulting 
# from the CCDC's data processing and validation procedures.
#
#######################################################################

data_EGIKAI
_chemical_formula_moiety         'C42 H36 F2 N2 O5 S2'
_chemical_name_systematic        
'1-(4-((9-(4-Fluorobenzylidene)-2,7-bis(phenylsulfonyl)-2,7-diazaspiro[4.5]dec-4-ylidene)(4-fluorophenyl)methyl)phenyl)ethanone unknown solvate'
_symmetry_cell_setting           triclinic
_symmetry_space_group_name_H-M   'P -1'
_symmetry_Int_Tables_number      2
_space_group_name_Hall           '-P 1'
loop_
_symmetry_equiv_pos_site_id
_symmetry_equiv_pos_as_xyz
1 x,y,z
2 -x,-y,-z
_cell_length_a                   13.2055(12)
_cell_length_b                   13.6518(12)
_cell_length_c                   14.0510(13)
_cell_angle_alpha                71.7390(10)
_cell_angle_beta                 63.8790(10)
_cell_angle_gamma                63.4280(10)
_cell_volume                     2012.66
_exptl_crystal_colour            colorless
_exptl_crystal_description       block
_cell_formula_units_Z            2
loop_
_atom_site_label
_atom_site_type_symbol
_atom_site_fract_x
_atom_site_fract_y
_atom_site_fract_z
C1 C 0.0117(4) 0.1671(3) 0.5498(3)
H1 H 0.0295 0.0880 0.5642
H2 H -0.0753 0.2055 0.5698
F1 F -0.3959(5) 0.0778(6) 0.9700(3)
N1 N 0.0738(3) 0.2014(3) 0.4360(3)
O1 O 0.1166(3) 0.2207(3) 0.2448(2)
S1 S 0.09696(9) 0.14394(8) 0.34073(8)
C2 C 0.0604(3) 0.1983(3) 0.6095(3)
F2 F 0.9033(3) 0.2124(3) 0.1020(3)
N2 N 0.2679(3) 0.3657(2) 0.4703(3)
O2 O 0.0015(2) 0.1034(2) 0.3776(2)
S2 S 0.25452(9) 0.49367(7) 0.45638(9)
C3 C 0.1658(3) 0.2346(3) 0.5290(3)
O3 O 0.1374(3) 0.5614(2) 0.4509(3)
C4 C 0.1443(3) 0.2652(3) 0.4242(3)
H3 H 0.0996 0.3439 0.4115
H4 H 0.2205 0.2459 0.3648
O4 O 0.3591(3) 0.5061(2) 0.3695(3)
C5 C 0.2886(3) 0.1380(3) 0.5191(3)
H5 H 0.2949 0.1087 0.5895
H6 H 0.2922 0.0792 0.4915
O5 O 0.1214(8) 0.3967(7) 1.0082(5)
C6 C 0.3947(3) 0.1747(3) 0.4453(3)
C7 C 0.3870(3) 0.2785(3) 0.4665(3)
H7 H 0.3974 0.2652 0.5342
H8 H 0.4510 0.3024 0.4104
C8 C 0.1670(3) 0.3345(3) 0.5563(3)
H9 H 0.0908 0.3961 0.5615
H10 H 0.1780 0.3155 0.6245
C9 C 0.2335(4) 0.0279(3) 0.3249(3)
C10 C 0.2353(4) -0.0678(3) 0.3950(4)
H11 H 0.1651 -0.0728 0.4512
C11 C 0.3441(5) -0.1577(4) 0.3809(5)
H12 H 0.3474 -0.2234 0.4283
C12 C 0.4456(5) -0.1496(5) 0.2978(6)
H13 H 0.5179 -0.2101 0.2890
C13 C 0.4437(5) -0.0560(5) 0.2282(5)
H14 H 0.5141 -0.0526 0.1714
C14 C 0.3362(4) 0.0366(4) 0.2406(4)
H15 H 0.3342 0.1022 0.1934
C15 C 0.0095(3) 0.1974(3) 0.7153(3)
C16 C -0.0988(4) 0.1640(3) 0.7788(3)
C17 C -0.0856(5) 0.0563(4) 0.8297(4)
H16 H -0.0081 0.0035 0.8206
C18 C -0.1819(8) 0.0261(6) 0.8921(6)
H17 H -0.1707 -0.0465 0.9258
C19 C -0.2912(8) 0.0995(8) 0.9048(4)
C20 C -0.3148(5) 0.2084(7) 0.8547(5)
H18 H -0.3933 0.2585 0.8634
C21 C -0.2139(4) 0.2389(4) 0.7904(4)
H19 H -0.2253 0.3110 0.7550
C22 C 0.0547(3) 0.2221(3) 0.7807(3)
C23 C 0.1556(4) 0.1474(4) 0.8050(4)
H20 H 0.1947 0.0782 0.7828
C24 C 0.1994(5) 0.1751(7) 0.8628(5)
H21 H 0.2692 0.1244 0.8763
C25 C 0.1437(6) 0.2741(7) 0.9003(4)
C26 C 0.0399(6) 0.3446(5) 0.8805(4)
H22 H -0.0019 0.4117 0.9072
C27 C -0.0056(4) 0.3206(4) 0.8229(4)
H23 H -0.0771 0.3707 0.8122
C28 C 0.1862(10) 0.3056(11) 0.9618(5)
C29 C 0.2996(8) 0.2274(13) 0.9727(7)
H24 H 0.3228 0.2554 1.0116
H25 H 0.3608 0.2167 0.9029
H26 H 0.2909 0.1581 1.0108
C30 C 0.2587(4) 0.5105(3) 0.5733(4)
C31 C 0.1526(4) 0.5610(4) 0.6544(4)
H27 H 0.0781 0.5860 0.6468
C32 C 0.1577(5) 0.5737(4) 0.7437(5)
H28 H 0.0868 0.6089 0.7963
C33 C 0.2676(6) 0.5348(5) 0.7573(5)
H29 H 0.2701 0.5440 0.8190
C34 C 0.3714(5) 0.4834(4) 0.6813(5)
H30 H 0.4448 0.4559 0.6915
C35 C 0.3681(4) 0.4718(4) 0.5877(4)
H31 H 0.4396 0.4379 0.5348
C36 C 0.4859(3) 0.1179(3) 0.3689(3)
H32 H 0.4798 0.0569 0.3587
C37 C 0.5971(3) 0.1423(3) 0.2980(3)
C38 C 0.6671(4) 0.1548(3) 0.3401(4)
H33 H 0.6436 0.1479 0.4141
C39 C 0.7698(4) 0.1772(4) 0.2757(4)
H34 H 0.8170 0.1838 0.3049
C40 C 0.8011(4) 0.1896(4) 0.1674(4)
C41 C 0.7367(5) 0.1763(5) 0.1213(4)
H35 H 0.7616 0.1832 0.0472
C42 C 0.6341(4) 0.1525(4) 0.1873(4)
H36 H 0.5891 0.1431 0.1575
loop_
_geom_bond_atom_site_label_1
_geom_bond_atom_site_label_2
_geom_bond_site_symmetry_1
_geom_bond_site_symmetry_2
C1 H1 1_555 1_555
H2 C1 1_555 1_555
F1 C19 1_555 1_555
N1 C1 1_555 1_555
O1 S1 1_555 1_555
S1 N1 1_555 1_555
C2 C1 1_555 1_555
F2 C40 1_555 1_555
N2 S2 1_555 1_555
O2 S1 1_555 1_555
S2 O3 1_555 1_555
C3 C2 1_555 1_555
C4 N1 1_555 1_555
H3 C4 1_555 1_555
H4 C4 1_555 1_555
O4 S2 1_555 1_555
C5 C3 1_555 1_555
H5 C5 1_555 1_555
H6 C5 1_555 1_555
O5 C28 1_555 1_555
C6 C5 1_555 1_555
C7 N2 1_555 1_555
H7 C7 1_555 1_555
H8 C7 1_555 1_555
C8 N2 1_555 1_555
H9 C8 1_555 1_555
H10 C8 1_555 1_555
C9 S1 1_555 1_555
C10 C9 1_555 1_555
H11 C10 1_555 1_555
C11 C10 1_555 1_555
H12 C11 1_555 1_555
C12 C11 1_555 1_555
H13 C12 1_555 1_555
C13 C12 1_555 1_555
H14 C13 1_555 1_555
C14 C9 1_555 1_555
H15 C14 1_555 1_555
C15 C2 1_555 1_555
C16 C15 1_555 1_555
C17 C16 1_555 1_555
H16 C17 1_555 1_555
C18 C17 1_555 1_555
H17 C18 1_555 1_555
C19 C18 1_555 1_555
C20 C19 1_555 1_555
H18 C20 1_555 1_555
C21 C16 1_555 1_555
H19 C21 1_555 1_555
C22 C15 1_555 1_555
C23 C22 1_555 1_555
H20 C23 1_555 1_555
C24 C23 1_555 1_555
H21 C24 1_555 1_555
C25 C24 1_555 1_555
C26 C25 1_555 1_555
H22 C26 1_555 1_555
C27 C22 1_555 1_555
H23 C27 1_555 1_555
C28 C25 1_555 1_555
C29 C28 1_555 1_555
H24 C29 1_555 1_555
H25 C29 1_555 1_555
H26 C29 1_555 1_555
C30 S2 1_555 1_555
C31 C30 1_555 1_555
H27 C31 1_555 1_555
C32 C31 1_555 1_555
H28 C32 1_555 1_555
C33 C32 1_555 1_555
H29 C33 1_555 1_555
C34 C33 1_555 1_555
H30 C34 1_555 1_555
C35 C30 1_555 1_555
H31 C35 1_555 1_555
C36 C6 1_555 1_555
H32 C36 1_555 1_555
C37 C36 1_555 1_555
C38 C37 1_555 1_555
H33 C38 1_555 1_555
C39 C38 1_555 1_555
H34 C39 1_555 1_555
C40 C39 1_555 1_555
C41 C40 1_555 1_555
H35 C41 1_555 1_555
C42 C37 1_555 1_555
H36 C42 1_555 1_555
C3 C4 1_555 1_555
C3 C8 1_555 1_555
C6 C7 1_555 1_555
C13 C14 1_555 1_555
C20 C21 1_555 1_555
C26 C27 1_555 1_555
C34 C35 1_555 1_555
C41 C42 1_555 1_555

#END
