
#######################################################################
#
#                 Cambridge Crystallographic Data Centre
#                                CCDC 
#
#######################################################################
#
# If this CIF has been generated from an entry in the Cambridge 
# Structural Database, then it will include bibliographic, chemical, 
# crystal, experimental, refinement or atomic coordinate data resulting 
# from the CCDC's data processing and validation procedures.
#
#######################################################################

data_EGIQAO
_chemical_formula_moiety         'C7 H7 N1 O2,C7 H6 O3'
_chemical_name_systematic        '4-hydroxybenzoic acid 2-hydroxybenzamide'
_symmetry_cell_setting           monoclinic
_symmetry_space_group_name_H-M   'P 21'
_symmetry_Int_Tables_number      4
_space_group_name_Hall           'P 2yb'
loop_
_symmetry_equiv_pos_site_id
_symmetry_equiv_pos_as_xyz
1 x,y,z
2 -x,1/2+y,-z
_cell_length_a                   8.0717(16)
_cell_length_b                   6.9533(14)
_cell_length_c                   11.519(2)
_cell_angle_alpha                90
_cell_angle_beta                 91.51(3)
_cell_angle_gamma                90
_cell_volume                     646.279
_cell_formula_units_Z            2
loop_
_atom_site_label
_atom_site_type_symbol
_atom_site_fract_x
_atom_site_fract_y
_atom_site_fract_z
O1 O 0.6600(3) 1.2500(3) 0.71765(19)
O2 O 0.8076(3) 0.9865(4) 0.60993(19)
H1 H 0.7572 1.0878 0.6180
N1 N 0.6187(3) 1.2391(4) 0.9087(2)
H2 H 0.5668 1.3470 0.9057
H3 H 0.6316 1.1800 0.9739
C1 C 0.7700(4) 0.9801(5) 0.8171(3)
C2 C 0.6795(4) 1.1629(5) 0.8118(3)
C3 C 0.7989(4) 0.8783(5) 0.9200(3)
H4 H 0.7605 0.9278 0.9893
C4 C 0.8296(4) 0.9002(5) 0.7148(3)
C5 C 0.9154(4) 0.7262(5) 0.7169(3)
H5 H 0.9555 0.6747 0.6486
C6 C 0.9404(4) 0.6315(6) 0.8203(4)
H6 H 0.9972 0.5151 0.8219
C7 C 0.8826(5) 0.7072(6) 0.9212(3)
H7 H 0.9002 0.6418 0.9908
O3 O 0.4991(3) 0.0664(4) 0.3291(2)
O4 O 0.5796(3) 0.0960(3) 0.14699(18)
O5 O 0.8601(3) 0.8623(3) 0.3825(2)
H8 H 0.8391 0.8896 0.4498
C8 C 0.6472(4) 0.3439(5) 0.2838(3)
C9 C 0.7101(4) 0.5760(5) 0.4334(3)
H9 H 0.7053 0.6139 0.5106
C10 C 0.7231(4) 0.4628(5) 0.2052(3)
H10 H 0.7274 0.4255 0.1279
C11 C 0.6408(4) 0.4040(5) 0.3981(3)
H11 H 0.5887 0.3269 0.4521
C12 C 0.7869(4) 0.6919(5) 0.3535(3)
C13 C 0.7923(4) 0.6346(5) 0.2390(3)
H12 H 0.8428 0.7125 0.1847
C14 C 0.5748(4) 0.1593(5) 0.2464(3)
H13 H 0.451(6) -0.048(8) 0.308(5)
loop_
_geom_bond_atom_site_label_1
_geom_bond_atom_site_label_2
_geom_bond_site_symmetry_1
_geom_bond_site_symmetry_2
O1 C2 1_555 1_555
O2 H1 1_555 1_555
N1 H2 1_555 1_555
H3 N1 1_555 1_555
C1 C2 1_555 1_555
C2 N1 1_555 1_555
C3 C1 1_555 1_555
H4 C3 1_555 1_555
C4 O2 1_555 1_555
C5 C4 1_555 1_555
H5 C5 1_555 1_555
C6 C5 1_555 1_555
H6 C6 1_555 1_555
C7 C3 1_555 1_555
H7 C7 1_555 1_555
O3 C14 1_555 1_555
O4 C14 1_555 1_555
O5 H8 1_555 1_555
C8 C10 1_555 1_555
C9 H9 1_555 1_555
C10 H10 1_555 1_555
C11 C8 1_555 1_555
H11 C11 1_555 1_555
C12 O5 1_555 1_555
C13 C10 1_555 1_555
H12 C13 1_555 1_555
C14 C8 1_555 1_555
H13 O3 1_555 1_555
C1 C4 1_555 1_555
C6 C7 1_555 1_555
C9 C11 1_555 1_555
C9 C12 1_555 1_555
C12 C13 1_555 1_555

#END
