
#######################################################################
#
#                 Cambridge Crystallographic Data Centre
#                                CCDC 
#
#######################################################################
#
# If this CIF has been generated from an entry in the Cambridge 
# Structural Database, then it will include bibliographic, chemical, 
# crystal, experimental, refinement or atomic coordinate data resulting 
# from the CCDC's data processing and validation procedures.
#
#######################################################################

data_EGIWOI
_chemical_formula_moiety         'C31 H26 N2 O2 S1'
_chemical_name_systematic        
2-(1H-indol-3-yl(phenyl)methyl)-3-methyl-1-((4-methylphenyl)sulfonyl)-1H-indole
_symmetry_cell_setting           tetragonal
_symmetry_space_group_name_H-M   'I 41/a'
_symmetry_Int_Tables_number      88
_space_group_name_Hall           '-I 4ad'
loop_
_symmetry_equiv_pos_site_id
_symmetry_equiv_pos_as_xyz
1 x,y,z
2 1/2-x,-y,1/2+z
3 3/4-y,1/4+x,1/4+z
4 3/4+y,3/4-x,3/4+z
5 1/2+x,1/2+y,1/2+z
6 -x,1/2-y,z
7 1/4-y,3/4+x,3/4+z
8 1/4+y,1/4-x,1/4+z
9 -x,-y,-z
10 1/2+x,y,1/2-z
11 1/4+y,3/4-x,3/4-z
12 1/4-y,1/4+x,1/4-z
13 1/2-x,1/2-y,1/2-z
14 x,1/2+y,-z
15 3/4+y,1/4-x,1/4-z
16 3/4-y,3/4+x,3/4-z
_cell_length_a                   33.4913(9)
_cell_length_b                   33.4913(9)
_cell_length_c                   9.3388(5)
_cell_angle_alpha                90
_cell_angle_beta                 90
_cell_angle_gamma                90
_cell_volume                     10475
_cell_formula_units_Z            16
loop_
_atom_site_label
_atom_site_type_symbol
_atom_site_fract_x
_atom_site_fract_y
_atom_site_fract_z
S1 S 0.858113(18) 0.348708(18) 0.00838(6)
N1 N 0.88202(6) 0.36325(6) 0.5965(2)
H1 H 0.8691 0.3552 0.6734
N2 N 0.83448(6) 0.38781(6) 0.0794(2)
O1 O 0.84077(5) 0.34342(5) -0.13035(17)
O2 O 0.89989(5) 0.35583(5) 0.01984(19)
C1 C 0.86565(8) 0.38408(7) 0.4850(3)
H2 H 0.8385 0.3922 0.4791
C2 C 0.89378(7) 0.39137(7) 0.3841(3)
C3 C 0.93021(7) 0.37406(7) 0.4349(3)
C4 C 0.96900(8) 0.37197(8) 0.3815(3)
H3 H 0.9754 0.3832 0.2909
C5 C 0.99797(9) 0.35338(9) 0.4624(3)
H4 H 1.0245 0.3519 0.4270
C6 C 0.98892(9) 0.33668(8) 0.5960(3)
H5 H 1.0095 0.3240 0.6492
C7 C 0.95105(8) 0.33814(8) 0.6518(3)
H6 H 0.9450 0.3269 0.7426
C8 C 0.92187(8) 0.35688(7) 0.5695(3)
C9 C 0.88985(7) 0.41578(7) 0.2470(3)
H7 H 0.9069 0.4024 0.1733
C10 C 0.90549(7) 0.45860(7) 0.2630(3)
C11 C 0.92798(8) 0.47047(8) 0.3814(3)
H8 H 0.9328 0.4520 0.4565
C12 C 0.94337(9) 0.50880(8) 0.3910(3)
H9 H 0.9585 0.5164 0.4725
C13 C 0.93670(8) 0.53576(8) 0.2828(3)
H10 H 0.9470 0.5621 0.2899
C14 C 0.91485(8) 0.52448(8) 0.1633(3)
H11 H 0.9104 0.5431 0.0881
C15 C 0.89951(7) 0.48625(7) 0.1535(3)
H12 H 0.8847 0.4787 0.0710
C16 C 0.84732(7) 0.41457(7) 0.1916(2)
C17 C 0.81562(7) 0.43670(7) 0.2341(3)
C18 C 0.78128(7) 0.42428(7) 0.1534(2)
C19 C 0.74184(8) 0.43802(8) 0.1516(3)
H13 H 0.7337 0.4591 0.2131
C20 C 0.71487(8) 0.42051(9) 0.0594(3)
H14 H 0.6880 0.4297 0.0573
C21 C 0.72658(8) 0.38965(9) -0.0302(3)
H15 H 0.7073 0.3775 -0.0907
C22 C 0.76558(8) 0.37621(8) -0.0336(3)
H16 H 0.7736 0.3556 -0.0974
C23 C 0.79278(7) 0.39386(7) 0.0598(2)
C24 C 0.81476(8) 0.46946(8) 0.3436(3)
H17 H 0.8370 0.4660 0.4106
H18 H 0.7895 0.4685 0.3962
H19 H 0.8172 0.4954 0.2955
C25 C 0.84528(7) 0.30739(7) 0.1134(3)
C26 C 0.86898(8) 0.29742(8) 0.2301(3)
H20 H 0.8921 0.3126 0.2521
C27 C 0.85836(8) 0.26512(8) 0.3136(3)
H21 H 0.8746 0.2581 0.3930
C28 C 0.82461(8) 0.24257(7) 0.2847(3)
C29 C 0.80148(8) 0.25267(7) 0.1662(3)
H22 H 0.7784 0.2373 0.1439
C30 C 0.81171(7) 0.28493(7) 0.0802(3)
H23 H 0.7958 0.2916 -0.0008
C31 C 0.81286(9) 0.20834(8) 0.3811(3)
H24 H 0.7852 0.2005 0.3609
H25 H 0.8151 0.2167 0.4814
H26 H 0.8306 0.1856 0.3636
loop_
_geom_bond_atom_site_label_1
_geom_bond_atom_site_label_2
_geom_bond_site_symmetry_1
_geom_bond_site_symmetry_2
S1 N2 1_555 1_555
N1 H1 1_555 1_555
N2 C16 1_555 1_555
O1 S1 1_555 1_555
O2 S1 1_555 1_555
C1 N1 1_555 1_555
H2 C1 1_555 1_555
C2 C1 1_555 1_555
C3 C2 1_555 1_555
C4 C3 1_555 1_555
H3 C4 1_555 1_555
C5 C4 1_555 1_555
H4 C5 1_555 1_555
C6 C5 1_555 1_555
H5 C6 1_555 1_555
C7 C6 1_555 1_555
H6 C7 1_555 1_555
C8 N1 1_555 1_555
C9 C2 1_555 1_555
H7 C9 1_555 1_555
C10 C9 1_555 1_555
C11 C10 1_555 1_555
H8 C11 1_555 1_555
C12 C11 1_555 1_555
H9 C12 1_555 1_555
C13 C12 1_555 1_555
H10 C13 1_555 1_555
C14 C13 1_555 1_555
H11 C14 1_555 1_555
C15 C10 1_555 1_555
H12 C15 1_555 1_555
C16 C9 1_555 1_555
C17 C16 1_555 1_555
C18 C17 1_555 1_555
C19 C18 1_555 1_555
H13 C19 1_555 1_555
C20 C19 1_555 1_555
H14 C20 1_555 1_555
C21 C20 1_555 1_555
H15 C21 1_555 1_555
C22 C21 1_555 1_555
H16 C22 1_555 1_555
C23 N2 1_555 1_555
C24 C17 1_555 1_555
H17 C24 1_555 1_555
H18 C24 1_555 1_555
H19 C24 1_555 1_555
C25 S1 1_555 1_555
C26 C25 1_555 1_555
H20 C26 1_555 1_555
C27 C26 1_555 1_555
H21 C27 1_555 1_555
C28 C27 1_555 1_555
C29 C28 1_555 1_555
H22 C29 1_555 1_555
C30 C25 1_555 1_555
H23 C30 1_555 1_555
C31 C28 1_555 1_555
H24 C31 1_555 1_555
H25 C31 1_555 1_555
H26 C31 1_555 1_555
C3 C8 1_555 1_555
C7 C8 1_555 1_555
C14 C15 1_555 1_555
C18 C23 1_555 1_555
C22 C23 1_555 1_555
C29 C30 1_555 1_555

#END
