
#######################################################################
#
#                 Cambridge Crystallographic Data Centre
#                                CCDC 
#
#######################################################################
#
# If this CIF has been generated from an entry in the Cambridge 
# Structural Database, then it will include bibliographic, chemical, 
# crystal, experimental, refinement or atomic coordinate data resulting 
# from the CCDC's data processing and validation procedures.
#
#######################################################################

data_EGIXUO
_chemical_formula_moiety         'C20 H28 O2'
_chemical_name_systematic        Ottensinin
_symmetry_cell_setting           triclinic
_symmetry_space_group_name_H-M   'P 1'
_symmetry_Int_Tables_number      1
_space_group_name_Hall           'P 1'
loop_
_symmetry_equiv_pos_site_id
_symmetry_equiv_pos_as_xyz
1 x,y,z
_cell_length_a                   6.3335(6)
_cell_length_b                   7.2872(7)
_cell_length_c                   20.5729(18)
_cell_angle_alpha                91.2787(10)
_cell_angle_beta                 97.7238(11)
_cell_angle_gamma                114.4076(10)
_cell_volume                     853.613
_exptl_crystal_colour            brown
_exptl_crystal_description       Block
_chemical_melting_point          '128-129 deg.C'
_cell_formula_units_Z            2
loop_
_atom_site_label
_atom_site_type_symbol
_atom_site_fract_x
_atom_site_fract_y
_atom_site_fract_z
O1 O -0.0361(3) 0.3708(3) 0.33755(10)
O2 O 0.5299(3) 0.3981(3) 0.46311(10)
C1 C 0.4058(5) 0.4604(3) 0.65879(13)
H1 H 0.2598 0.3360 0.6454
H2 H 0.5310 0.4467 0.6378
C2 C 0.4737(5) 0.4785(4) 0.73301(13)
H3 H 0.3439 0.4821 0.7542
H4 H 0.4984 0.3582 0.7463
C3 C 0.6954(5) 0.6676(4) 0.75656(13)
H5 H 0.8277 0.6560 0.7389
H6 H 0.7302 0.6760 0.8052
C4 C 0.6810(4) 0.8639(4) 0.73607(12)
C5 C 0.5927(4) 0.8389(3) 0.66064(12)
H7 H 0.7205 0.8258 0.6400
C6 C 0.5767(5) 1.0284(4) 0.63454(12)
H8 H 0.4469 1.0473 0.6513
H9 H 0.7245 1.1481 0.6512
C7 C 0.5341(5) 1.0134(4) 0.55949(13)
H10 H 0.5122 1.1330 0.5441
H11 H 0.6716 1.0102 0.5424
C8 C 0.3175(5) 0.8229(4) 0.53417(12)
C9 C 0.3428(4) 0.6356(3) 0.55643(11)
H12 H 0.4960 0.6461 0.5453
C10 C 0.3670(4) 0.6433(3) 0.63339(11)
C11 C 0.1528(4) 0.4350(4) 0.52070(12)
H13 H 0.1717 0.3212 0.5421
H14 H -0.0036 0.4269 0.5263
C12 C 0.1591(4) 0.4094(3) 0.44832(12)
C13 C 0.3567(4) 0.3902(3) 0.42524(12)
C14 C 0.3321(5) 0.3584(4) 0.35475(13)
H15 H 0.4537 0.3429 0.3361
C15 C 0.1442(6) 0.3501(4) 0.31533(14)
H16 H 0.1362 0.3285 0.2692
C16 C -0.0220(5) 0.3970(4) 0.40385(14)
H17 H -0.1509 0.4074 0.4199
C17 C 0.1263(6) 0.8280(4) 0.50185(15)
H18 H 0.1216 0.9543 0.4938
H19 H -0.0071 0.7055 0.4866
C18 C 0.9323(5) 1.0322(4) 0.75006(15)
H20 H 0.9274 1.1638 0.7449
H21 H 1.0261 1.0105 0.7190
H22 H 1.0033 1.0294 0.7952
C19 C 0.5341(5) 0.9216(4) 0.77882(13)
H23 H 0.3829 0.8057 0.7785
H24 H 0.5074 1.0355 0.7613
H25 H 0.6181 0.9606 0.8241
C20 C 0.1416(4) 0.6385(4) 0.65408(13)
H26 H 0.0054 0.5272 0.6285
H27 H 0.1316 0.7669 0.6460
H28 H 0.1434 0.6183 0.7011
O3 O 0.2959(4) 0.8785(3) 0.35241(9)
O4 O 0.7474(3) 0.9033(3) 0.22739(9)
C21 C 0.4234(4) 0.8450(3) 0.03411(12)
H29 H 0.4227 0.9751 0.0487
H30 H 0.5692 0.8411 0.0570
C22 C 0.4254(5) 0.8363(4) -0.03948(13)
H31 H 0.5678 0.9501 -0.0493
H32 H 0.2866 0.8518 -0.0624
C23 C 0.4221(5) 0.6383(4) -0.06521(13)
H33 H 0.5702 0.6313 -0.0460
H34 H 0.4164 0.6368 -0.1136
C24 C 0.2146(4) 0.4502(4) -0.04951(12)
C25 C 0.2047(4) 0.4677(3) 0.02519(12)
H35 H 0.3540 0.4648 0.0471
C26 C 0.0100(5) 0.2825(4) 0.04739(13)
H36 H -0.1448 0.2781 0.0288
H37 H 0.0178 0.1581 0.0300
C27 C 0.0317(5) 0.2872(4) 0.12213(13)
H38 H -0.1029 0.1718 0.1348
H39 H 0.1780 0.2764 0.1409
C28 C 0.0355(4) 0.4832(4) 0.14818(12)
C29 C 0.2407(4) 0.6650(3) 0.13122(11)
H40 H 0.3831 0.6389 0.1442
C30 C 0.2110(4) 0.6706(3) 0.05440(12)
C31 C 0.2880(4) 0.8655(4) 0.16961(12)
H41 H 0.4077 0.9782 0.1507
H42 H 0.1418 0.8862 0.1638
C32 C 0.3714(4) 0.8735(3) 0.24194(12)
C33 C 0.6064(4) 0.8897(4) 0.26523(12)
C34 C 0.6617(5) 0.8935(4) 0.33591(13)
H43 H 0.8101 0.8995 0.3547
C35 C 0.5102(5) 0.8887(5) 0.37485(14)
H44 H 0.5548 0.8927 0.4210
C36 C 0.2353(5) 0.8715(4) 0.28640(14)
H45 H 0.0840 0.8646 0.2705
C37 C -0.1379(5) 0.4873(4) 0.17605(14)
H46 H -0.2691 0.3647 0.1800
H47 H -0.1320 0.6128 0.1922
C38 C 0.2648(5) 0.2670(4) -0.06626(14)
H48 H 0.3069 0.2735 -0.1105
H49 H 0.1243 0.1421 -0.0647
H50 H 0.3950 0.2687 -0.0342
C39 C -0.0107(5) 0.4238(4) -0.09485(13)
H51 H -0.0326 0.5490 -0.0916
H52 H -0.1453 0.3125 -0.0815
H53 H 0.0016 0.3930 -0.1404
C40 C -0.0126(5) 0.7003(4) 0.03152(13)
H54 H -0.0164 0.8076 0.0603
H55 H -0.1506 0.5739 0.0335
H56 H -0.0136 0.7384 -0.0139
loop_
_geom_bond_atom_site_label_1
_geom_bond_atom_site_label_2
_geom_bond_site_symmetry_1
_geom_bond_site_symmetry_2
O1 C15 1_555 1_555
O2 C13 1_555 1_555
C1 H1 1_555 1_555
H2 C1 1_555 1_555
C2 C1 1_555 1_555
H3 C2 1_555 1_555
H4 C2 1_555 1_555
C3 C2 1_555 1_555
H5 C3 1_555 1_555
H6 C3 1_555 1_555
C4 C3 1_555 1_555
C5 C4 1_555 1_555
H7 C5 1_555 1_555
C6 C5 1_555 1_555
H8 C6 1_555 1_555
H9 C6 1_555 1_555
C7 C6 1_555 1_555
H10 C7 1_555 1_555
H11 C7 1_555 1_555
C8 C7 1_555 1_555
C9 C8 1_555 1_555
H12 C9 1_555 1_555
C10 C1 1_555 1_555
C11 C9 1_555 1_555
H13 C11 1_555 1_555
H14 C11 1_555 1_555
C12 C11 1_555 1_555
C13 C12 1_555 1_555
C14 C13 1_555 1_555
H15 C14 1_555 1_555
C15 C14 1_555 1_555
H16 C15 1_555 1_555
C16 O1 1_555 1_555
H17 C16 1_555 1_555
C17 C8 1_555 1_555
H18 C17 1_555 1_555
H19 C17 1_555 1_555
C18 C4 1_555 1_555
H20 C18 1_555 1_555
H21 C18 1_555 1_555
H22 C18 1_555 1_555
C19 C4 1_555 1_555
H23 C19 1_555 1_555
H24 C19 1_555 1_555
H25 C19 1_555 1_555
C20 C10 1_555 1_555
H26 C20 1_555 1_555
H27 C20 1_555 1_555
H28 C20 1_555 1_555
O3 C35 1_555 1_555
O4 C33 1_555 1_555
C21 H29 1_555 1_555
H30 C21 1_555 1_555
C22 C21 1_555 1_555
H31 C22 1_555 1_555
H32 C22 1_555 1_555
C23 C22 1_555 1_555
H33 C23 1_555 1_555
H34 C23 1_555 1_555
C24 C23 1_555 1_555
C25 C24 1_555 1_555
H35 C25 1_555 1_555
C26 C25 1_555 1_555
H36 C26 1_555 1_555
H37 C26 1_555 1_555
C27 C26 1_555 1_555
H38 C27 1_555 1_555
H39 C27 1_555 1_555
C28 C27 1_555 1_555
C29 C28 1_555 1_555
H40 C29 1_555 1_555
C30 C21 1_555 1_555
C31 C29 1_555 1_555
H41 C31 1_555 1_555
H42 C31 1_555 1_555
C32 C31 1_555 1_555
C33 C32 1_555 1_555
C34 C33 1_555 1_555
H43 C34 1_555 1_555
C35 C34 1_555 1_555
H44 C35 1_555 1_555
C36 O3 1_555 1_555
H45 C36 1_555 1_555
C37 C28 1_555 1_555
H46 C37 1_555 1_555
H47 C37 1_555 1_555
C38 C24 1_555 1_555
H48 C38 1_555 1_555
H49 C38 1_555 1_555
H50 C38 1_555 1_555
C39 C24 1_555 1_555
H51 C39 1_555 1_555
H52 C39 1_555 1_555
H53 C39 1_555 1_555
C40 C30 1_555 1_555
H54 C40 1_555 1_555
H55 C40 1_555 1_555
H56 C40 1_555 1_555
C5 C10 1_555 1_555
C9 C10 1_555 1_555
C12 C16 1_555 1_555
C25 C30 1_555 1_555
C29 C30 1_555 1_555
C32 C36 1_555 1_555

#END
