
#######################################################################
#
#                 Cambridge Crystallographic Data Centre
#                                CCDC 
#
#######################################################################
#
# If this CIF has been generated from an entry in the Cambridge 
# Structural Database, then it will include bibliographic, chemical, 
# crystal, experimental, refinement or atomic coordinate data resulting 
# from the CCDC's data processing and validation procedures.
#
#######################################################################

data_EGIYIC
_chemical_formula_moiety         'C16 H11 Br1 O2'
_chemical_name_systematic        
7-Bromo-5-phenyl-5,8-dihydro-1,4-naphthoquinone
_chemical_properties_biological  
'antiinflammatory, antitumour, antiparasitic and antimicrobial activity'
_symmetry_cell_setting           monoclinic
_symmetry_space_group_name_H-M   'P 21/c'
_symmetry_Int_Tables_number      14
_space_group_name_Hall           '-P 2ybc'
loop_
_symmetry_equiv_pos_site_id
_symmetry_equiv_pos_as_xyz
1 x,y,z
2 x,1/2-y,1/2+z
3 -x,-y,-z
4 -x,1/2+y,1/2-z
_cell_length_a                   10.007(2)
_cell_length_b                   8.746(3)
_cell_length_c                   14.737(2)
_cell_angle_alpha                90
_cell_angle_beta                 95.07(1)
_cell_angle_gamma                90
_cell_volume                     1284.75
_exptl_crystal_colour            colorless
_exptl_crystal_description       prismatic
_cell_formula_units_Z            4
loop_
_atom_site_label
_atom_site_type_symbol
_atom_site_fract_x
_atom_site_fract_y
_atom_site_fract_z
Br1 Br 0.22323(3) 0.10505(4) 0.33765(2)
O1 O 0.0111(2) 0.6757(2) 0.3642(2)
O2 O -0.3671(2) 0.3440(3) 0.4959(2)
C1 C -0.0826(3) 0.5971(3) 0.3855(2)
C2 C -0.2049(3) 0.6676(3) 0.4144(3)
C3 C -0.2991(3) 0.5856(3) 0.4480(2)
C4 C -0.2858(3) 0.4186(3) 0.4573(2)
C5 C -0.1700(3) 0.3435(3) 0.4190(2)
C6 C -0.1660(3) 0.1704(3) 0.4248(2)
C7 C -0.0330(3) 0.1083(3) 0.4007(2)
C8 C 0.0580(3) 0.1926(3) 0.3669(2)
C9 C 0.0470(3) 0.3608(3) 0.3473(2)
C10 C -0.0749(3) 0.4268(3) 0.3848(2)
C11 C -0.2805(3) 0.0944(3) 0.3655(2)
C12 C -0.3766(3) 0.0094(3) 0.4046(2)
C13 C -0.4743(3) -0.0700(3) 0.3514(2)
C14 C -0.4767(3) -0.0612(4) 0.2580(3)
C15 C -0.3838(3) 0.0269(4) 0.2178(2)
C16 C -0.2848(3) 0.1033(3) 0.2714(2)
H1 H -0.2059 0.7664 0.4047
H2 H -0.3801 0.6237 0.4695
H3 H -0.1808 0.1535 0.4874
H4 H -0.0168 0.0062 0.4082
H5 H 0.0460 0.3794 0.2859
H6 H 0.1270 0.4189 0.3752
H7 H -0.3788 0.0033 0.4661
H8 H -0.5381 -0.1321 0.3811
H9 H -0.5343 -0.1171 0.2249
H10 H -0.3855 0.0338 0.1568
H11 H -0.2279 0.1615 0.2402
loop_
_geom_bond_atom_site_label_1
_geom_bond_atom_site_label_2
_geom_bond_site_symmetry_1
_geom_bond_site_symmetry_2
Br1 C8 1_555 1_555
O1 C1 1_555 1_555
O2 C4 1_555 1_555
C1 C2 1_555 1_555
C2 C3 1_555 1_555
C3 C4 1_555 1_555
C4 C5 1_555 1_555
C5 C6 1_555 1_555
C6 C7 1_555 1_555
C7 C8 1_555 1_555
C8 C9 1_555 1_555
C9 C10 1_555 1_555
C10 C1 1_555 1_555
C11 C6 1_555 1_555
C12 C11 1_555 1_555
C13 C12 1_555 1_555
C14 C13 1_555 1_555
C15 C14 1_555 1_555
C16 C11 1_555 1_555
H1 C2 1_555 1_555
H2 C3 1_555 1_555
H3 C6 1_555 1_555
H4 C7 1_555 1_555
H5 C9 1_555 1_555
H6 C9 1_555 1_555
H7 C12 1_555 1_555
H8 C13 1_555 1_555
H9 C14 1_555 1_555
H10 C15 1_555 1_555
H11 C16 1_555 1_555
C5 C10 1_555 1_555
C15 C16 1_555 1_555

#END
