
#######################################################################
#
#                 Cambridge Crystallographic Data Centre
#                                CCDC 
#
#######################################################################
#
# If this CIF has been generated from an entry in the Cambridge 
# Structural Database, then it will include bibliographic, chemical, 
# crystal, experimental, refinement or atomic coordinate data resulting 
# from the CCDC's data processing and validation procedures.
#
#######################################################################

data_EGOMAP
_chemical_formula_moiety         'C25 H22 N2 O2,0.5(C1 H4 O1)'
_chemical_name_systematic        
'3-(5-Methyl-1-p-tolyl-1H-indol-2-yl)-4-phenyl-1,3-oxazolidin-2-one methanol solvate'
_symmetry_cell_setting           hexagonal
_symmetry_space_group_name_H-M   'P 61'
_symmetry_Int_Tables_number      169
_space_group_name_Hall           'P 61'
loop_
_symmetry_equiv_pos_site_id
_symmetry_equiv_pos_as_xyz
1 x,y,z
2 -y,x-y,1/3+z
3 -x+y,-x,2/3+z
4 -x,-y,1/2+z
5 y,-x+y,5/6+z
6 x-y,x,1/6+z
_cell_length_a                   19.314(3)
_cell_length_b                   19.314(3)
_cell_length_c                   10.066(2)
_cell_angle_alpha                90
_cell_angle_beta                 90
_cell_angle_gamma                120
_cell_volume                     3251.86
_cell_formula_units_Z            6
loop_
_atom_site_label
_atom_site_type_symbol
_atom_site_fract_x
_atom_site_fract_y
_atom_site_fract_z
N1 N 0.86134(9) 0.35998(9) 0.39172(16)
N2 N 0.90437(9) 0.26152(9) 0.39718(15)
O1 O 0.91629(10) 0.42466(11) 0.19337(16)
O2 O 0.79912(10) 0.40791(10) 0.27049(16)
C1 C 0.86504(12) 0.39987(12) 0.2780(2)
C2 C 0.75179(12) 0.37746(13) 0.3891(2)
H1 H 0.6951 0.3403 0.3662
H2 H 0.7548 0.4218 0.4429
C3 C 0.78674(11) 0.33329(11) 0.4668(2)
H3 H 0.7512 0.2742 0.4570
C4 C 0.80308(10) 0.35502(11) 0.61210(19)
C5 C 0.85272(13) 0.43430(12) 0.6498(2)
H4 H 0.8748 0.4748 0.5837
C6 C 0.87031(14) 0.45488(14) 0.7826(2)
H5 H 0.9042 0.5091 0.8073
C7 C 0.83836(14) 0.39612(17) 0.8786(2)
H6 H 0.8505 0.4097 0.9697
C8 C 0.78878(15) 0.31771(16) 0.8421(2)
H7 H 0.7665 0.2775 0.9087
C9 C 0.77089(13) 0.29662(13) 0.7095(2)
H8 H 0.7367 0.2423 0.6856
C10 C 0.91795(10) 0.33814(11) 0.42728(19)
C11 C 0.98594(11) 0.37924(12) 0.50165(19)
H9 H 1.0074 0.4319 0.5359
C12 C 1.01822(11) 0.32759(12) 0.51765(19)
C13 C 0.96663(10) 0.25479(11) 0.45305(18)
C14 C 0.98134(11) 0.19119(12) 0.4491(2)
H10 H 0.9457 0.1424 0.4059
C15 C 1.05044(12) 0.20223(14) 0.5111(2)
H11 H 1.0617 0.1597 0.5106
C16 C 1.10484(12) 0.27501(14) 0.5751(2)
C17 C 1.08790(11) 0.33665(13) 0.5791(2)
H12 H 1.1233 0.3852 0.6232
C18 C 1.18066(15) 0.28509(19) 0.6359(3)
H13 H 1.2235 0.3407 0.6259
H14 H 1.1959 0.2497 0.5908
H15 H 1.1719 0.2714 0.7305
C19 C 0.83890(10) 0.20170(11) 0.32211(18)
C20 C 0.82760(12) 0.21601(12) 0.1909(2)
H16 H 0.8635 0.2654 0.1496
C21 C 0.76242(12) 0.15644(11) 0.1200(2)
H17 H 0.7543 0.1663 0.0305
C22 C 0.70925(11) 0.08307(11) 0.17765(19)
C23 C 0.72288(12) 0.07046(12) 0.3083(2)
H18 H 0.6876 0.0207 0.3493
C24 C 0.78677(11) 0.12870(11) 0.3811(2)
H19 H 0.7948 0.1186 0.4705
C25 C 0.63848(12) 0.02077(12) 0.1003(2)
H20 H 0.6195 -0.0319 0.1406
H21 H 0.6545 0.0200 0.0082
H22 H 0.5955 0.0337 0.1020
O3 O -0.0694(5) -0.1636(6) 0.4470(10)
H23 H -0.0341 -0.1165 0.4745
C26 C -0.1459(6) -0.1637(7) 0.4349(10)
H24 H -0.1775 -0.1998 0.3654
H25 H -0.1743 -0.1810 0.5175
H26 H -0.1359 -0.1109 0.4143
O4? O 0.0091(9) -0.1019(10) 0.5655(19)
H27? H -0.0176 -0.1019 0.4987
C27? C 0.0248(17) -0.0351(12) 0.651(2)
H28? H 0.0728 -0.0188 0.7013
H29? H 0.0309 0.0087 0.5976
H30? H -0.0194 -0.0511 0.7109
O5? O 0.0189(12) -0.0696(12) 0.5080(19)
H31? H 0.0109 -0.0781 0.4250
C28? C -0.0076(16) -0.0159(14) 0.548(3)
H32? H 0.0387 0.0320 0.5790
H33? H -0.0322 -0.0030 0.4771
H34? H -0.0449 -0.0395 0.6202
loop_
_geom_bond_atom_site_label_1
_geom_bond_atom_site_label_2
_geom_bond_site_symmetry_1
_geom_bond_site_symmetry_2
N1 C1 1_555 1_555
N2 C10 1_555 1_555
O1 C1 1_555 1_555
O2 C1 1_555 1_555
C2 O2 1_555 1_555
H1 C2 1_555 1_555
H2 C2 1_555 1_555
C3 N1 1_555 1_555
H3 C3 1_555 1_555
C4 C3 1_555 1_555
C5 C4 1_555 1_555
H4 C5 1_555 1_555
C6 C5 1_555 1_555
H5 C6 1_555 1_555
C7 C6 1_555 1_555
H6 C7 1_555 1_555
C8 C7 1_555 1_555
H7 C8 1_555 1_555
C9 C4 1_555 1_555
H8 C9 1_555 1_555
C10 N1 1_555 1_555
C11 C10 1_555 1_555
H9 C11 1_555 1_555
C12 C11 1_555 1_555
C13 N2 1_555 1_555
C14 C13 1_555 1_555
H10 C14 1_555 1_555
C15 C14 1_555 1_555
H11 C15 1_555 1_555
C16 C15 1_555 1_555
C17 C12 1_555 1_555
H12 C17 1_555 1_555
C18 C16 1_555 1_555
H13 C18 1_555 1_555
H14 C18 1_555 1_555
H15 C18 1_555 1_555
C19 N2 1_555 1_555
C20 C19 1_555 1_555
H16 C20 1_555 1_555
C21 C20 1_555 1_555
H17 C21 1_555 1_555
C22 C21 1_555 1_555
C23 C22 1_555 1_555
H18 C23 1_555 1_555
C24 C19 1_555 1_555
H19 C24 1_555 1_555
C25 C22 1_555 1_555
H20 C25 1_555 1_555
H21 C25 1_555 1_555
H22 C25 1_555 1_555
O3 H23 1_555 1_555
C26 O3 1_555 1_555
H24 C26 1_555 1_555
H25 C26 1_555 1_555
H26 C26 1_555 1_555
C2 C3 1_555 1_555
C8 C9 1_555 1_555
C12 C13 1_555 1_555
C16 C17 1_555 1_555
C23 C24 1_555 1_555

#END
