
#######################################################################
#
#                 Cambridge Crystallographic Data Centre
#                                CCDC 
#
#######################################################################
#
# If this CIF has been generated from an entry in the Cambridge 
# Structural Database, then it will include bibliographic, chemical, 
# crystal, experimental, refinement or atomic coordinate data resulting 
# from the CCDC's data processing and validation procedures.
#
#######################################################################

data_EGOVUT
_chemical_formula_moiety         'C12 H16 O4'
_chemical_name_systematic        
'4-(2-Methyl-5-oxotetrahydrofuran-2-yl)cyclohex-1-ene-1-carboxylic acid'
_symmetry_cell_setting           monoclinic
_symmetry_space_group_name_H-M   'P 21'
_symmetry_Int_Tables_number      4
_space_group_name_Hall           'P 2yb'
loop_
_symmetry_equiv_pos_site_id
_symmetry_equiv_pos_as_xyz
1 x,y,z
2 -x,1/2+y,-z
_cell_length_a                   7.1943(4)
_cell_length_b                   10.5565(7)
_cell_length_c                   14.8114(9)
_cell_angle_alpha                90
_cell_angle_beta                 95.021(2)
_cell_angle_gamma                90
_cell_volume                     1120.56
_exptl_crystal_colour            colorless
_exptl_crystal_description       piece
_cell_formula_units_Z            4
loop_
_atom_site_label
_atom_site_type_symbol
_atom_site_fract_x
_atom_site_fract_y
_atom_site_fract_z
O1 O -0.0394(3) 0.8275(2) 0.94888(13)
O2 O -0.0112(2) 0.72130(15) 0.82136(11)
O3 O 0.6481(2) 0.44472(16) 0.53603(11)
H1 H 0.7467 0.4528 0.5101
O4 O 0.6148(2) 0.64852(17) 0.49785(12)
C1 C -0.0234(3) 0.7279(2) 0.91220(16)
C2 C -0.0105(3) 0.5894(2) 0.78914(16)
C3 C 0.1510(3) 0.5799(2) 0.72799(15)
H2 H 0.2690 0.5949 0.7675
C4 C 0.1433(3) 0.6796(2) 0.65310(16)
H3 H 0.0219 0.6738 0.6163
H4 H 0.1529 0.7650 0.6806
C5 C 0.2986(3) 0.6613(2) 0.59301(15)
H5 H 0.3280 0.7290 0.5545
C6 C 0.3969(3) 0.5552(2) 0.59102(15)
C7 C 0.5619(3) 0.5536(2) 0.53643(14)
C8 C 0.0246(3) 0.5084(2) 0.87586(16)
H6 H -0.0611 0.4349 0.8740
H7 H 0.1548 0.4771 0.8827
C9 C -0.0119(4) 0.5965(3) 0.95282(18)
H8 H -0.1303 0.5741 0.9782
H9 H 0.0908 0.5915 1.0018
C10 C -0.2029(3) 0.5654(3) 0.74067(16)
H10 H -0.2981 0.5755 0.7836
H11 H -0.2083 0.4790 0.7163
H12 H -0.2262 0.6261 0.6909
C11 C 0.3542(3) 0.4370(2) 0.64305(16)
H13 H 0.4555 0.4220 0.6916
H14 H 0.3490 0.3632 0.6017
C12 C 0.1677(3) 0.4494(2) 0.68525(16)
H15 H 0.0635 0.4367 0.6379
H16 H 0.1591 0.3832 0.7321
O5 O -0.0731(2) 0.66789(18) 0.41745(13)
H17 H -0.1763 0.6597 0.4393
O6 O 0.4948(2) 0.56875(17) 0.07129(11)
O7 O 0.4843(2) 0.5570(2) -0.07889(13)
O8 O -0.0505(2) 0.46135(16) 0.44879(12)
C13 C 0.0067(3) 0.5561(2) 0.41253(15)
C14 C 0.1678(3) 0.5496(2) 0.35681(15)
C15 C 0.2221(3) 0.6501(2) 0.31218(17)
H18 H 0.1647 0.7294 0.3220
C16 C 0.3707(3) 0.6444(2) 0.24664(18)
H19 H 0.4895 0.6779 0.2760
H20 H 0.3335 0.6975 0.1930
C17 C 0.3982(3) 0.5074(2) 0.21680(15)
H21 H 0.2777 0.4791 0.1842
C18 C 0.5495(3) 0.4896(2) 0.15145(16)
C19 C 0.5129(3) 0.5054(3) -0.00634(17)
C20 C 0.2554(3) 0.4206(2) 0.35143(16)
H22 H 0.1642 0.3618 0.3199
H23 H 0.2869 0.3879 0.4135
C21 C 0.4325(3) 0.4239(2) 0.30090(16)
H24 H 0.5378 0.4583 0.3411
H25 H 0.4655 0.3371 0.2828
C22 C 0.5481(3) 0.3534(2) 0.11330(16)
H26 H 0.6511 0.3026 0.1437
H27 H 0.4281 0.3107 0.1213
C23 C 0.5745(3) 0.3712(2) 0.01298(17)
H28 H 0.7068 0.3593 0.0013
H29 H 0.4967 0.3106 -0.0248
C24 C 0.7442(3) 0.5315(3) 0.18835(17)
H30 H 0.8333 0.5124 0.1438
H31 H 0.7806 0.4862 0.2449
H32 H 0.7440 0.6229 0.2001
loop_
_geom_bond_atom_site_label_1
_geom_bond_atom_site_label_2
_geom_bond_site_symmetry_1
_geom_bond_site_symmetry_2
O1 C1 1_555 1_555
O2 C1 1_555 1_555
O3 H1 1_555 1_555
O4 C7 1_555 1_555
C1 C9 1_555 1_555
C2 O2 1_555 1_555
C3 C2 1_555 1_555
H2 C3 1_555 1_555
C4 C3 1_555 1_555
H3 C4 1_555 1_555
H4 C4 1_555 1_555
C5 C4 1_555 1_555
H5 C5 1_555 1_555
C6 C5 1_555 1_555
C7 O3 1_555 1_555
C8 C2 1_555 1_555
H6 C8 1_555 1_555
H7 C8 1_555 1_555
C9 C8 1_555 1_555
H8 C9 1_555 1_555
H9 C9 1_555 1_555
C10 C2 1_555 1_555
H10 C10 1_555 1_555
H11 C10 1_555 1_555
H12 C10 1_555 1_555
C11 C6 1_555 1_555
H13 C11 1_555 1_555
H14 C11 1_555 1_555
C12 C3 1_555 1_555
H15 C12 1_555 1_555
H16 C12 1_555 1_555
O5 H17 1_555 1_555
O6 C18 1_555 1_555
O7 C19 1_555 1_555
O8 C13 1_555 1_555
C13 O5 1_555 1_555
C14 C13 1_555 1_555
C15 C14 1_555 1_555
H18 C15 1_555 1_555
C16 C15 1_555 1_555
H19 C16 1_555 1_555
H20 C16 1_555 1_555
C17 C16 1_555 1_555
H21 C17 1_555 1_555
C18 C17 1_555 1_555
C19 O6 1_555 1_555
C20 C14 1_555 1_555
H22 C20 1_555 1_555
H23 C20 1_555 1_555
C21 C17 1_555 1_555
H24 C21 1_555 1_555
H25 C21 1_555 1_555
C22 C18 1_555 1_555
H26 C22 1_555 1_555
H27 C22 1_555 1_555
C23 C19 1_555 1_555
H28 C23 1_555 1_555
H29 C23 1_555 1_555
C24 C18 1_555 1_555
H30 C24 1_555 1_555
H31 C24 1_555 1_555
H32 C24 1_555 1_555
C6 C7 1_555 1_555
C11 C12 1_555 1_555
C20 C21 1_555 1_555
C22 C23 1_555 1_555

#END
