
#######################################################################
#
#                 Cambridge Crystallographic Data Centre
#                                CCDC 
#
#######################################################################
#
# If this CIF has been generated from an entry in the Cambridge 
# Structural Database, then it will include bibliographic, chemical, 
# crystal, experimental, refinement or atomic coordinate data resulting 
# from the CCDC's data processing and validation procedures.
#
#######################################################################

data_EGOWED
_chemical_formula_moiety         'C17 H16 B1 P1'
_chemical_name_systematic        
1-boranyl-1-phenyl-1-phospha-1,2-dihydro-acenaphthylene
_symmetry_cell_setting           orthorhombic
_symmetry_space_group_name_H-M   'P 21 21 21'
_symmetry_Int_Tables_number      19
_space_group_name_Hall           'P 2ac 2ab'
loop_
_symmetry_equiv_pos_site_id
_symmetry_equiv_pos_as_xyz
1 x,y,z
2 1/2-x,-y,1/2+z
3 -x,1/2+y,1/2-z
4 1/2+x,1/2-y,-z
_cell_length_a                   9.9633(10)
_cell_length_b                   12.6914(12)
_cell_length_c                   23.225(2)
_cell_angle_alpha                90
_cell_angle_beta                 90
_cell_angle_gamma                90
_cell_volume                     2936.76
_exptl_crystal_colour            colorless
_exptl_crystal_description       plate
_cell_formula_units_Z            8
_exptl_crystal_recrystallization_method 'dichloromethane/petroleum ether'
loop_
_atom_site_label
_atom_site_type_symbol
_atom_site_fract_x
_atom_site_fract_y
_atom_site_fract_z
P1 P 0.70010(7) 0.70475(6) 0.82209(3)
B1 B 0.8223(4) 0.7635(3) 0.76742(14)
C1 C 0.6277(3) 0.5762(2) 0.79954(14)
H1 H 0.6647 0.5544 0.7623
H2 H 0.6480 0.5216 0.8281
C3 C 0.4784(3) 0.5928(2) 0.79501(11)
C5 C 0.3861(3) 0.5219(2) 0.77637(12)
H5 H 0.4128 0.4544 0.7644
C7 C 0.2494(4) 0.5512(3) 0.77526(13)
H7 H 0.1861 0.5025 0.7614
C9 C 0.2052(3) 0.6481(3) 0.79371(13)
H9 H 0.1130 0.6640 0.7938
C11 C 0.2994(3) 0.7233(2) 0.81237(11)
C13 C 0.2677(3) 0.8277(3) 0.83018(12)
H11 H 0.1775 0.8494 0.8314
C15 C 0.3660(3) 0.8964(2) 0.84550(12)
H13 H 0.3425 0.9652 0.8565
C17 C 0.5040(3) 0.8664(2) 0.84530(11)
H15 H 0.5709 0.9147 0.8562
C19 C 0.5374(3) 0.7663(2) 0.82902(10)
C21 C 0.4372(3) 0.6950(2) 0.81268(10)
C23 C 0.7678(3) 0.6891(2) 0.89399(11)
C25 C 0.9030(3) 0.7136(2) 0.90382(12)
H17 H 0.9562 0.7399 0.8737
C27 C 0.9579(3) 0.6990(3) 0.95756(14)
H19 H 1.0489 0.7149 0.9639
C29 C 0.8802(4) 0.6611(3) 1.00230(14)
H21 H 0.9182 0.6517 1.0390
C31 C 0.7469(4) 0.6373(3) 0.99305(13)
H23 H 0.6940 0.6118 1.0236
C33 C 0.6903(3) 0.6506(2) 0.93904(12)
H25 H 0.5997 0.6336 0.9329
H28 H 0.763(3) 0.778(2) 0.7290(12)
H29 H 0.890(3) 0.700(3) 0.7594(13)
H31 H 0.871(3) 0.840(2) 0.7869(12)
P2 P 0.58901(8) 0.26169(6) 0.94013(3)
B2 B 0.5094(5) 0.1421(4) 0.9032(2)
C2 C 0.6393(3) 0.2456(2) 1.01610(12)
H3 H 0.6106 0.1767 1.0306
H4 H 0.7370 0.2509 1.0199
C4 C 0.5716(3) 0.3328(2) 1.04941(11)
C6 C 0.5830(3) 0.3543(3) 1.10680(13)
H6 H 0.6413 0.3145 1.1300
C8 C 0.5065(4) 0.4368(3) 1.13089(15)
H8 H 0.5149 0.4508 1.1705
C10 C 0.4208(4) 0.4969(3) 1.09890(14)
H10 H 0.3707 0.5508 1.1165
C12 C 0.4076(3) 0.4780(2) 1.03908(13)
C14 C 0.3242(3) 0.5345(2) 1.00098(16)
H12 H 0.2715 0.5900 1.0154
C16 C 0.3181(3) 0.5110(2) 0.94410(16)
H14 H 0.2620 0.5508 0.9199
C18 C 0.3949(3) 0.4272(2) 0.92043(13)
H16 H 0.3892 0.4109 0.8810
C20 C 0.4774(3) 0.3706(2) 0.95594(12)
C22 C 0.4850(3) 0.3953(2) 1.01508(12)
C24 C 0.7324(3) 0.3174(2) 0.90331(12)
C26 C 0.7617(3) 0.2887(3) 0.84734(13)
H18 H 0.7073 0.2397 0.8279
C28 C 0.8725(3) 0.3329(3) 0.81986(15)
H20 H 0.8925 0.3136 0.7818
C30 C 0.9520(3) 0.4037(3) 0.84750(16)
H22 H 1.0263 0.4330 0.8284
C32 C 0.9243(3) 0.4328(2) 0.90358(15)
H24 H 0.9799 0.4813 0.9227
C34 C 0.8145(3) 0.3902(2) 0.93130(13)
H26 H 0.7949 0.4104 0.9693
H27 H 0.431(4) 0.111(3) 0.9314(14)
H30 H 0.473(3) 0.171(2) 0.8588(13)
H32 H 0.584(4) 0.091(3) 0.9000(17)
loop_
_geom_bond_atom_site_label_1
_geom_bond_atom_site_label_2
_geom_bond_site_symmetry_1
_geom_bond_site_symmetry_2
P1 B1 1_555 1_555
P2 B2 1_555 1_555
B1 H28 1_555 1_555
B2 H27 1_555 1_555
C1 P1 1_555 1_555
H1 C1 1_555 1_555
H2 C1 1_555 1_555
C2 P2 1_555 1_555
H3 C2 1_555 1_555
H4 C2 1_555 1_555
C3 C1 1_555 1_555
C4 C2 1_555 1_555
C5 C3 1_555 1_555
H5 C5 1_555 1_555
C6 C4 1_555 1_555
H6 C6 1_555 1_555
C7 C5 1_555 1_555
H7 C7 1_555 1_555
C8 C6 1_555 1_555
H8 C8 1_555 1_555
C9 C7 1_555 1_555
H9 C9 1_555 1_555
C10 C8 1_555 1_555
H10 C10 1_555 1_555
C11 C9 1_555 1_555
C12 C10 1_555 1_555
C13 C11 1_555 1_555
H11 C13 1_555 1_555
C14 C12 1_555 1_555
H12 C14 1_555 1_555
C15 C13 1_555 1_555
H13 C15 1_555 1_555
C16 C14 1_555 1_555
H14 C16 1_555 1_555
C17 C15 1_555 1_555
H15 C17 1_555 1_555
C18 C16 1_555 1_555
H16 C18 1_555 1_555
C19 P1 1_555 1_555
C20 P2 1_555 1_555
C21 C3 1_555 1_555
C22 C4 1_555 1_555
C23 P1 1_555 1_555
C24 P2 1_555 1_555
C25 C23 1_555 1_555
H17 C25 1_555 1_555
C26 C24 1_555 1_555
H18 C26 1_555 1_555
C27 C25 1_555 1_555
H19 C27 1_555 1_555
C28 C26 1_555 1_555
H20 C28 1_555 1_555
C29 C27 1_555 1_555
H21 C29 1_555 1_555
C30 C28 1_555 1_555
H22 C30 1_555 1_555
C31 C29 1_555 1_555
H23 C31 1_555 1_555
C32 C30 1_555 1_555
H24 C32 1_555 1_555
C33 C23 1_555 1_555
H25 C33 1_555 1_555
C34 C24 1_555 1_555
H26 C34 1_555 1_555
H29 B1 1_555 1_555
H30 B2 1_555 1_555
H31 B1 1_555 1_555
H32 B2 1_555 1_555
C11 C21 1_555 1_555
C12 C22 1_555 1_555
C17 C19 1_555 1_555
C18 C20 1_555 1_555
C19 C21 1_555 1_555
C20 C22 1_555 1_555
C31 C33 1_555 1_555
C32 C34 1_555 1_555

#END
