
#######################################################################
#
#                 Cambridge Crystallographic Data Centre
#                                CCDC 
#
#######################################################################
#
# If this CIF has been generated from an entry in the Cambridge 
# Structural Database, then it will include bibliographic, chemical, 
# crystal, experimental, refinement or atomic coordinate data resulting 
# from the CCDC's data processing and validation procedures.
#
#######################################################################

data_EGOZUX
_chemical_formula_moiety         'C13 H15 N1 O1'
_chemical_name_systematic        
1,2,5,10,11,11a-hexahydro-3H-pyrrolo[1,2-b][2]benzazepin-3-one
_symmetry_cell_setting           monoclinic
_symmetry_space_group_name_H-M   'C 2/c'
_symmetry_Int_Tables_number      15
_space_group_name_Hall           '-C 2yn'
loop_
_symmetry_equiv_pos_site_id
_symmetry_equiv_pos_as_xyz
1 x,y,z
2 -x,y,1/2-z
3 1/2+x,1/2+y,z
4 1/2-x,1/2+y,1/2-z
5 -x,-y,-z
6 x,-y,1/2+z
7 1/2-x,1/2-y,-z
8 1/2+x,1/2-y,1/2+z
_cell_length_a                   14.0539(10)
_cell_length_b                   11.3580(8)
_cell_length_c                   13.4342(10)
_cell_angle_alpha                90
_cell_angle_beta                 101.523(7)
_cell_angle_gamma                90
_cell_volume                     2101.2
_exptl_crystal_colour            'light yellow'
_exptl_crystal_description       block
_cell_formula_units_Z            8
loop_
_atom_site_label
_atom_site_type_symbol
_atom_site_fract_x
_atom_site_fract_y
_atom_site_fract_z
O1 O 0.76752(10) 0.43604(11) 0.10268(10)
N1 N 0.72902(9) 0.27535(11) 0.18859(10)
C1 C 0.76051(10) 0.15457(14) 0.21389(12)
H1 H 0.7640 0.1413 0.2866
C2 C 0.69257(10) 0.06420(13) 0.15344(11)
H2 H 0.7188 -0.0139 0.1706
H3 H 0.6907 0.0767 0.0816
C3 C 0.58846(10) 0.06885(13) 0.17228(11)
H4 H 0.5574 -0.0062 0.1525
H5 H 0.5915 0.0784 0.2446
C4 C 0.52541(10) 0.16552(13) 0.11700(10)
C5 C 0.44004(11) 0.13762(15) 0.04879(12)
H6 H 0.4227 0.0590 0.0378
C6 C 0.38053(12) 0.22380(18) -0.00296(13)
H7 H 0.3239 0.2027 -0.0480
C7 C 0.40480(12) 0.34079(17) 0.01197(13)
H8 H 0.3652 0.3991 -0.0230
C8 C 0.48916(11) 0.37018(15) 0.07991(12)
H9 H 0.5059 0.4491 0.0903
C9 C 0.54934(10) 0.28457(13) 0.13282(10)
C10 C 0.63829(10) 0.32093(14) 0.20926(12)
H10 H 0.6417 0.4062 0.2111
H11 H 0.6313 0.2942 0.2760
C11 C 0.78476(11) 0.33641(15) 0.13626(11)
C12 C 0.87044(13) 0.26010(18) 0.12718(16)
H12 H 0.8674 0.2372 0.0570
H13 H 0.9308 0.3018 0.1513
C13 C 0.86368(13) 0.15367(18) 0.19198(18)
H14 H 0.9116 0.1579 0.2548
H15 H 0.8747 0.0823 0.1563
loop_
_geom_bond_atom_site_label_1
_geom_bond_atom_site_label_2
_geom_bond_site_symmetry_1
_geom_bond_site_symmetry_2
O1 C11 1_555 1_555
N1 C1 1_555 1_555
C1 H1 1_555 1_555
C2 C1 1_555 1_555
H2 C2 1_555 1_555
H3 C2 1_555 1_555
C3 C2 1_555 1_555
H4 C3 1_555 1_555
H5 C3 1_555 1_555
C4 C3 1_555 1_555
C5 C4 1_555 1_555
H6 C5 1_555 1_555
C6 C5 1_555 1_555
H7 C6 1_555 1_555
C7 C6 1_555 1_555
H8 C7 1_555 1_555
C8 C7 1_555 1_555
H9 C8 1_555 1_555
C9 C4 1_555 1_555
C10 N1 1_555 1_555
H10 C10 1_555 1_555
H11 C10 1_555 1_555
C11 N1 1_555 1_555
C12 C11 1_555 1_555
H12 C12 1_555 1_555
H13 C12 1_555 1_555
C13 C1 1_555 1_555
H14 C13 1_555 1_555
H15 C13 1_555 1_555
C8 C9 1_555 1_555
C9 C10 1_555 1_555
C12 C13 1_555 1_555

#END
