
#######################################################################
#
#                 Cambridge Crystallographic Data Centre
#                                CCDC 
#
#######################################################################
#
# If this CIF has been generated from an entry in the Cambridge 
# Structural Database, then it will include bibliographic, chemical, 
# crystal, experimental, refinement or atomic coordinate data resulting 
# from the CCDC's data processing and validation procedures.
#
#######################################################################

data_EGOZUW
_chemical_name_common            
2-(1,3-benzodioxol-5-yl)-3-((6-hydroxy-2,2-dimethyltetrahydrofuro(2,3-d)(1,3)dioxol-5-yl)methyl)-1,3-thiazolidin-4-one
_chemical_formula_moiety         'C18 H21 N1 O7 S1'
_chemical_name_systematic        
(2R)-2-(benzo(d)(1,3)dioxol-5-yl)-3-(5-deoxy-1,2-O-isopropylidene-\a-D-xylofuranose-5-C-yl)thiazolidin-4-one
_chemical_properties_biological  'weak antitumour activities'
_symmetry_cell_setting           monoclinic
_symmetry_space_group_name_H-M   'P 21'
_symmetry_Int_Tables_number      4
_space_group_name_Hall           'P 2yb'
loop_
_symmetry_equiv_pos_site_id
_symmetry_equiv_pos_as_xyz
1 x,y,z
2 -x,1/2+y,-z
_cell_length_a                   9.7052(19)
_cell_length_b                   19.931(4)
_cell_length_c                   10.277(2)
_cell_angle_alpha                90.00
_cell_angle_beta                 104.82(3)
_cell_angle_gamma                90.00
_cell_volume                     1921.79
_chemical_melting_point          '138-140 deg.C'
_cell_formula_units_Z            4
_exptl_crystal_recrystallization_method dichloromethane
loop_
_atom_site_label
_atom_site_type_symbol
_atom_site_fract_x
_atom_site_fract_y
_atom_site_fract_z
C1 C -0.0877(7) -0.0741(4) -0.9748(6)
H1 H -0.1760 -0.0602 -1.0371
H2 H -0.0119 -0.0450 -0.9869
C2 C -0.0793(5) -0.1785(3) -0.8924(6)
C3 C -0.1044(5) -0.1350(3) -0.7964(5)
C4 C -0.1239(5) -0.1566(3) -0.6758(5)
H3 H -0.1388 -0.1268 -0.6111
C5 C -0.1203(5) -0.2267(3) -0.6550(5)
C6 C -0.0987(5) -0.2706(3) -0.7527(6)
H4 H -0.0984 -0.3166 -0.7373
C7 C -0.0770(5) -0.2465(3) -0.8754(5)
H5 H -0.0618 -0.2756 -0.9412
C8 C -0.1495(6) -0.2547(3) -0.5270(5)
H6 H -0.1343 -0.3033 -0.5247
C9 C -0.1744(7) -0.2013(3) -0.2969(5)
H7 H -0.1656 -0.2304 -0.2196
H8 H -0.1704 -0.1551 -0.2663
C10 C -0.3143(8) -0.2140(3) -0.3979(6)
C11 C -0.4174(5) -0.2693(2) -0.6153(4)
H9 H -0.4886 -0.2840 -0.5704
H10 H -0.3859 -0.3085 -0.6559
C12 C -0.4859(5) -0.2197(2) -0.7265(4)
H11 H -0.4132 -0.2029 -0.7691
C13 C -0.5685(5) -0.1599(2) -0.6888(5)
H12 H -0.5053 -0.1226 -0.6509
C14 C -0.6671(5) -0.1425(2) -0.8263(5)
H13 H -0.7571 -0.1226 -0.8190
C15 C -0.6893(5) -0.2099(3) -0.9030(5)
H14 H -0.7880 -0.2255 -0.9193
C16 C -0.6175(6) -0.1270(3) -1.0335(5)
C17 C -0.4815(6) -0.1219(3) -1.0772(6)
H15 H -0.4963 -0.1396 -1.1666
H16 H -0.4082 -0.1473 -1.0166
H17 H -0.4530 -0.0758 -1.0761
C18 C -0.7422(6) -0.0923(3) -1.1297(5)
H18 H -0.8256 -0.0964 -1.0963
H19 H -0.7597 -0.1130 -1.2168
H20 H -0.7202 -0.0458 -1.1369
N1 N -0.2943(5) -0.24103(18) -0.5138(4)
O1 O -0.1005(4) -0.06936(19) -0.8391(4)
O2 O -0.0566(4) -0.1423(2) -1.0005(4)
O3 O -0.4319(5) -0.2019(2) -0.3778(4)
O4 O -0.5919(4) -0.25676(15) -0.8244(3)
O5 O -0.6559(4) -0.1796(2) -0.6032(4)
H41 H -0.6053 -0.1893 -0.5287
O6 O -0.5948(4) -0.10142(15) -0.9004(3)
O7 O -0.6525(4) -0.19620(17) -1.0256(4)
S1 S -0.03146(19) -0.21714(9) -0.37372(15)
C19 C -0.8220(9) -0.5153(5) -0.6550(8)
H21 H -0.7554 -0.5405 -0.6921
H22 H -0.9170 -0.5327 -0.6938
C20 C -0.7709(6) -0.4578(3) -0.4609(7)
C21 C -0.7415(5) -0.4397(3) -0.3280(6)
H23 H -0.7310 -0.4713 -0.2596
C22 C -0.7281(5) -0.3710(3) -0.3010(6)
C23 C -0.7426(5) -0.3249(3) -0.4058(8)
H24 H -0.7320 -0.2793 -0.3859
C24 C -0.7732(6) -0.3460(4) -0.5432(7)
H25 H -0.7827 -0.3156 -0.6135
C25 C -0.7877(7) -0.4128(4) -0.5652(7)
C26 C -0.6922(6) -0.3448(3) -0.1565(6)
H26 H -0.7056 -0.2960 -0.1592
C27 C -0.6539(6) -0.4056(3) 0.0804(6)
H27 H -0.6566 -0.3817 0.1620
H28 H -0.6582 -0.4533 0.0975
C28 C -0.5178(8) -0.3895(3) 0.0425(7)
C29 C -0.4250(5) -0.3313(2) -0.1298(5)
H29 H -0.3491 -0.3178 -0.0530
H30 H -0.4574 -0.2917 -0.1840
C30 C -0.3674(5) -0.3824(2) -0.2135(4)
H31 H -0.4461 -0.3991 -0.2862
C31 C -0.2830(6) -0.4418(3) -0.1397(5)
H32 H -0.3465 -0.4779 -0.1260
C32 C -0.1992(6) -0.4624(3) -0.2393(5)
H33 H -0.1079 -0.4836 -0.1959
C33 C -0.1814(6) -0.3967(3) -0.3141(6)
H34 H -0.0812 -0.3829 -0.2939
C34 C -0.2705(7) -0.4818(3) -0.4690(6)
C35 C -0.4099(7) -0.4892(3) -0.5726(6)
H35 H -0.4824 -0.4649 -0.5442
H36 H -0.4354 -0.5358 -0.5829
H37 H -0.4010 -0.4717 -0.6571
C36 C -0.1487(6) -0.5193(3) -0.5044(6)
H38 H -0.1737 -0.5658 -0.5193
H39 H -0.0644 -0.5154 -0.4317
H40 H -0.1312 -0.5005 -0.5847
N2 N -0.5442(5) -0.3594(2) -0.0822(4)
O8 O -0.7861(5) -0.5229(2) -0.5111(4)
O9 O -0.8164(6) -0.4465(3) -0.6873(4)
O10 O -0.3976(5) -0.4007(2) 0.1155(4)
O11 O -0.2657(4) -0.34773(15) -0.2709(3)
O12 O -0.1818(4) -0.4238(2) -0.0146(3)
H42 H -0.2249 -0.4135 0.0414
O13 O -0.2349(4) -0.41184(19) -0.4523(4)
O14 O -0.2864(4) -0.50317(16) -0.3411(4)
S2 S -0.80390(19) -0.38139(10) -0.05439(19)
loop_
_geom_bond_atom_site_label_1
_geom_bond_atom_site_label_2
_geom_bond_site_symmetry_1
_geom_bond_site_symmetry_2
C1 H1 1_555 1_555
H2 C1 1_555 1_555
C2 C3 1_555 1_555
C3 C4 1_555 1_555
C4 H3 1_555 1_555
C5 C4 1_555 1_555
C6 C5 1_555 1_555
H4 C6 1_555 1_555
C7 C2 1_555 1_555
H5 C7 1_555 1_555
C8 C5 1_555 1_555
H6 C8 1_555 1_555
C9 H7 1_555 1_555
H8 C9 1_555 1_555
C10 C9 1_555 1_555
C11 H9 1_555 1_555
H10 C11 1_555 1_555
C12 C11 1_555 1_555
H11 C12 1_555 1_555
C13 C12 1_555 1_555
H12 C13 1_555 1_555
C14 C13 1_555 1_555
H13 C14 1_555 1_555
C15 C14 1_555 1_555
H14 C15 1_555 1_555
C16 C17 1_555 1_555
C17 H15 1_555 1_555
H16 C17 1_555 1_555
H17 C17 1_555 1_555
C18 C16 1_555 1_555
H18 C18 1_555 1_555
H19 C18 1_555 1_555
H20 C18 1_555 1_555
C19 H21 1_555 1_555
H22 C19 1_555 1_555
C20 C21 1_555 1_555
C21 H23 1_555 1_555
C22 C21 1_555 1_555
C23 C22 1_555 1_555
H24 C23 1_555 1_555
C24 C23 1_555 1_555
H25 C24 1_555 1_555
C25 C20 1_555 1_555
C26 C22 1_555 1_555
H26 C26 1_555 1_555
C27 H27 1_555 1_555
H28 C27 1_555 1_555
C28 C27 1_555 1_555
C29 H29 1_555 1_555
H30 C29 1_555 1_555
C30 C29 1_555 1_555
H31 C30 1_555 1_555
C31 C30 1_555 1_555
H32 C31 1_555 1_555
C32 C31 1_555 1_555
H33 C32 1_555 1_555
C33 C32 1_555 1_555
H34 C33 1_555 1_555
C34 C35 1_555 1_555
C35 H35 1_555 1_555
H36 C35 1_555 1_555
H37 C35 1_555 1_555
C36 C34 1_555 1_555
H38 C36 1_555 1_555
H39 C36 1_555 1_555
H40 C36 1_555 1_555
N1 C8 1_555 1_555
N2 C26 1_555 1_555
O1 C1 1_555 1_555
O2 C1 1_555 1_555
O3 C10 1_555 1_555
O4 C12 1_555 1_555
O5 C13 1_555 1_555
H41 O5 1_555 1_555
O6 C14 1_555 1_555
O7 C15 1_555 1_555
O8 C19 1_555 1_555
O9 C19 1_555 1_555
O10 C28 1_555 1_555
O11 C30 1_555 1_555
O12 C31 1_555 1_555
H42 O12 1_555 1_555
O13 C33 1_555 1_555
O14 C32 1_555 1_555
S1 C8 1_555 1_555
S2 C26 1_555 1_555
C2 O2 1_555 1_555
C3 O1 1_555 1_555
C6 C7 1_555 1_555
C9 S1 1_555 1_555
C10 N1 1_555 1_555
C11 N1 1_555 1_555
C15 O4 1_555 1_555
C16 O6 1_555 1_555
C16 O7 1_555 1_555
C20 O8 1_555 1_555
C24 C25 1_555 1_555
C25 O9 1_555 1_555
C27 S2 1_555 1_555
C28 N2 1_555 1_555
C29 N2 1_555 1_555
C33 O11 1_555 1_555
C34 O13 1_555 1_555
C34 O14 1_555 1_555

#END
