
#######################################################################
#
#                 Cambridge Crystallographic Data Centre
#                                CCDC 
#
#######################################################################
#
# If this CIF has been generated from an entry in the Cambridge 
# Structural Database, then it will include bibliographic, chemical, 
# crystal, experimental, refinement or atomic coordinate data resulting 
# from the CCDC's data processing and validation procedures.
#
#######################################################################

data_EGOZOQ
_chemical_compound_source        'roots of Chloranthus henryi'
_chemical_name_common            'Henriol A methanol solvate'
_chemical_formula_moiety         'C39 H42 O14,C1 H4 O1'
_chemical_name_systematic        
'4,9,10,33-Tetrahydroxy-1,8,13,29-tetramethyl-11,17,21,26,31-pentaoxadecacyclo[17.17.3.1^4,8^.0^2,16^.0^5,7^.0^10,14^.0^15,40^.0^16,39^.0^33,37^.0^34,36^]tetraconta-13,15(40),19(39),28-tetraene-12,18,22,25,30-pentone methanol solvate'
_chemical_properties_biological  'moderate hepatoprotective activities'
_symmetry_cell_setting           orthorhombic
_symmetry_space_group_name_H-M   'P 21 21 21'
_symmetry_Int_Tables_number      19
_space_group_name_Hall           'P 2ac 2ab'
loop_
_symmetry_equiv_pos_site_id
_symmetry_equiv_pos_as_xyz
1 x,y,z
2 1/2-x,-y,1/2+z
3 -x,1/2+y,1/2-z
4 1/2+x,1/2-y,-z
_cell_length_a                   11.8580(13)
_cell_length_b                   12.812(1)
_cell_length_c                   23.092(1)
_cell_angle_alpha                90
_cell_angle_beta                 90
_cell_angle_gamma                90
_cell_volume                     3508.25
_exptl_crystal_colour            colorless
_exptl_crystal_description       block
_cell_formula_units_Z            4
_exptl_crystal_recrystallization_method methanol
loop_
_atom_site_label
_atom_site_type_symbol
_atom_site_fract_x
_atom_site_fract_y
_atom_site_fract_z
O1 O 0.0397(6) -0.2929(4) 0.9890(3)
H1 H 0.0817 -0.2927 0.9608
O2 O 0.4397(6) 0.1759(6) 0.9917(3)
O3 O 0.2566(5) 0.1697(4) 1.0143(3)
O4 O 0.0848(5) 0.1612(4) 0.9654(2)
H2 H 0.0505 0.2024 0.9861
O5 O 0.1356(5) 0.1109(4) 1.1055(2)
H3 H 0.2036 0.1033 1.1106
O6 O -0.1327(6) 0.1172(5) 0.7710(3)
H4 H -0.1880 0.1479 0.7581
O7 O 0.2859(5) -0.2747(5) 0.8161(3)
O8 O 0.1712(5) -0.2118(4) 0.8850(2)
O9 O -0.0396(5) 0.2621(4) 0.8555(3)
O10 O -0.1312(6) 0.4115(5) 0.8697(3)
O11 O 0.3513(6) 0.3795(6) 0.8327(4)
O12 O 0.3608(7) 0.2185(7) 0.8670(3)
O13 O 0.2828(7) 0.1399(6) 0.7405(4)
O14 O 0.3699(5) -0.0079(5) 0.7651(3)
C1 C 0.0180(7) -0.1074(7) 1.0951(4)
H5 H -0.0208 -0.0614 1.1226
C2 C 0.0201(8) -0.2228(7) 1.1069(4)
H6 H -0.0183 -0.2479 1.1413
H7 H 0.0878 -0.2611 1.0966
C3 C -0.0511(8) -0.1802(6) 1.0584(4)
H8 H -0.1334 -0.1800 1.0627
C4 C -0.0019(7) -0.1875(6) 0.9993(4)
C5 C 0.0927(6) -0.1081(5) 0.9994(3)
C6 C 0.1355(6) -0.0693(5) 0.9509(3)
C7 C 0.2113(7) 0.0215(5) 0.9604(3)
C8 C 0.1596(7) 0.1039(5) 0.9988(3)
C9 C 0.1028(7) 0.0585(5) 1.0544(3)
H9 H 0.0218 0.0719 1.0501
C10 C 0.1153(7) -0.0623(6) 1.0584(3)
C11 C 0.3192(7) 0.0396(6) 0.9520(3)
C12 C 0.3476(7) 0.1342(6) 0.9858(3)
C13 C 0.4096(7) -0.0194(7) 0.9214(4)
H10 H 0.3779 -0.0805 0.9036
H11 H 0.4665 -0.0399 0.9487
H12 H 0.4428 0.0241 0.8922
C14 C 0.2315(7) -0.0936(6) 1.0830(3)
H13 H 0.2367 -0.1683 1.0849
H14 H 0.2401 -0.0650 1.1212
H15 H 0.2900 -0.0671 1.0583
C15 C -0.0802(7) -0.1549(7) 0.9519(4)
H16 H -0.1104 -0.0866 0.9613
H17 H -0.1430 -0.2034 0.9508
C16 C -0.2194(8) -0.0699(6) 0.8593(5)
H18 H -0.2510 -0.1063 0.8929
C17 C -0.2981(8) -0.0379(8) 0.8122(5)
H19 H -0.3773 -0.0553 0.8168
H20 H -0.2706 -0.0414 0.7727
C18 C -0.2507(8) 0.0454(7) 0.8505(5)
H21 H -0.3012 0.0780 0.8788
C19 C -0.1448(7) 0.1050(7) 0.8327(4)
C20 C -0.0494(7) 0.0321(5) 0.8533(4)
H22 H -0.0436 0.0438 0.8951
C21 C 0.0697(7) 0.0479(6) 0.8300(4)
H23 H 0.0674 0.0626 0.7888
H24 H 0.1056 0.1062 0.8495
C22 C 0.1343(6) -0.0510(6) 0.8412(3)
C23 C 0.1026(7) -0.1163(6) 0.8926(3)
C24 C -0.0265(6) -0.1500(6) 0.8910(4)
H25 H -0.0277 -0.2216 0.8761
C25 C -0.0929(7) -0.0834(6) 0.8466(4)
C26 C 0.2129(7) -0.1001(6) 0.8099(3)
C27 C 0.2315(7) -0.2026(6) 0.8348(4)
C28 C 0.2677(8) -0.0658(8) 0.7539(4)
H26 H 0.2852 -0.1267 0.7305
H27 H 0.2156 -0.0225 0.7322
C29 C -0.0756(9) -0.1301(7) 0.7852(4)
H28 H -0.1004 -0.2014 0.7848
H29 H 0.0029 -0.1270 0.7751
H30 H -0.1186 -0.0906 0.7576
C30 C -0.1462(7) 0.2100(6) 0.8625(5)
H31 H -0.2058 0.2527 0.8462
H32 H -0.1617 0.2005 0.9034
C31 C -0.0431(7) 0.3650(6) 0.8650(4)
C32 C 0.0702(8) 0.4162(7) 0.8691(4)
C33 C 0.1628(8) 0.3633(8) 0.8724(5)
H33 H 0.1566 0.2912 0.8695
C34 C 0.2776(8) 0.4060(10) 0.8803(7)
H34 H 0.2733 0.4813 0.8837
H35 H 0.3093 0.3789 0.9160
C35 C 0.0575(11) 0.5355(8) 0.8692(6)
H36 H -0.0207 0.5535 0.8650
H37 H 0.0997 0.5645 0.8376
H38 H 0.0855 0.5631 0.9051
C36 C 0.3867(9) 0.2812(8) 0.8319(5)
C37 C 0.4630(10) 0.2607(8) 0.7806(5)
H39 H 0.4313 0.2933 0.7464
H40 H 0.5362 0.2919 0.7877
C38 C 0.4772(9) 0.1459(8) 0.7698(5)
H41 H 0.5287 0.1353 0.7377
H42 H 0.5097 0.1132 0.8039
C39 C 0.3664(10) 0.0960(9) 0.7563(4)
O15 O 0.304(2) 0.412(2) 1.008(1)
H43 H 0.361(1) 0.468(1) 0.988(2)
C40 C 0.186(3) 0.454(2) 1.006(1)
H44 H 0.193 0.536 1.016
H45 H 0.141 0.416 1.041
H46 H 0.154 0.438 0.963
loop_
_geom_bond_atom_site_label_1
_geom_bond_atom_site_label_2
_geom_bond_site_symmetry_1
_geom_bond_site_symmetry_2
O1 H1 1_555 1_555
O2 C12 1_555 1_555
O3 C8 1_555 1_555
O4 H2 1_555 1_555
O5 H3 1_555 1_555
O6 H4 1_555 1_555
O7 C27 1_555 1_555
O8 C23 1_555 1_555
O9 C30 1_555 1_555
O10 C31 1_555 1_555
O11 C34 1_555 1_555
O12 C36 1_555 1_555
O13 C39 1_555 1_555
O14 C28 1_555 1_555
C1 H5 1_555 1_555
C2 C1 1_555 1_555
H6 C2 1_555 1_555
H7 C2 1_555 1_555
C3 C1 1_555 1_555
H8 C3 1_555 1_555
C4 O1 1_555 1_555
C5 C4 1_555 1_555
C6 C5 1_555 1_555
C7 C6 1_555 1_555
C8 O4 1_555 1_555
C9 O5 1_555 1_555
H9 C9 1_555 1_555
C10 C1 1_555 1_555
C11 C7 1_555 1_555
C12 O3 1_555 1_555
C13 C11 1_555 1_555
H10 C13 1_555 1_555
H11 C13 1_555 1_555
H12 C13 1_555 1_555
C14 C10 1_555 1_555
H13 C14 1_555 1_555
H14 C14 1_555 1_555
H15 C14 1_555 1_555
C15 C4 1_555 1_555
H16 C15 1_555 1_555
H17 C15 1_555 1_555
C16 H18 1_555 1_555
C17 C16 1_555 1_555
H19 C17 1_555 1_555
H20 C17 1_555 1_555
C18 C16 1_555 1_555
H21 C18 1_555 1_555
C19 O6 1_555 1_555
C20 C19 1_555 1_555
H22 C20 1_555 1_555
C21 C20 1_555 1_555
H23 C21 1_555 1_555
H24 C21 1_555 1_555
C22 C21 1_555 1_555
C23 C6 1_555 1_555
C24 C15 1_555 1_555
H25 C24 1_555 1_555
C25 C16 1_555 1_555
C26 C22 1_555 1_555
C27 O8 1_555 1_555
C28 C26 1_555 1_555
H26 C28 1_555 1_555
H27 C28 1_555 1_555
C29 C25 1_555 1_555
H28 C29 1_555 1_555
H29 C29 1_555 1_555
H30 C29 1_555 1_555
C30 C19 1_555 1_555
H31 C30 1_555 1_555
H32 C30 1_555 1_555
C31 O9 1_555 1_555
C32 C31 1_555 1_555
C33 C32 1_555 1_555
H33 C33 1_555 1_555
C34 C33 1_555 1_555
H34 C34 1_555 1_555
H35 C34 1_555 1_555
C35 C32 1_555 1_555
H36 C35 1_555 1_555
H37 C35 1_555 1_555
H38 C35 1_555 1_555
C36 O11 1_555 1_555
C37 C36 1_555 1_555
H39 C37 1_555 1_555
H40 C37 1_555 1_555
C38 C37 1_555 1_555
H41 C38 1_555 1_555
H42 C38 1_555 1_555
C39 O14 1_555 1_555
O15 H43 1_555 1_555
C40 O15 1_555 1_555
H44 C40 1_555 1_555
H45 C40 1_555 1_555
H46 C40 1_555 1_555
C2 C3 1_555 1_555
C3 C4 1_555 1_555
C5 C10 1_555 1_555
C7 C8 1_555 1_555
C8 C9 1_555 1_555
C9 C10 1_555 1_555
C11 C12 1_555 1_555
C17 C18 1_555 1_555
C18 C19 1_555 1_555
C20 C25 1_555 1_555
C22 C23 1_555 1_555
C23 C24 1_555 1_555
C24 C25 1_555 1_555
C26 C27 1_555 1_555
C38 C39 1_555 1_555

#END
