
#######################################################################
#
#                 Cambridge Crystallographic Data Centre
#                                CCDC 
#
#######################################################################
#
# If this CIF has been generated from an entry in the Cambridge 
# Structural Database, then it will include bibliographic, chemical, 
# crystal, experimental, refinement or atomic coordinate data resulting 
# from the CCDC's data processing and validation procedures.
#
#######################################################################

data_EGUDER
_chemical_formula_moiety         'C33 H26 N2'
_chemical_name_systematic        
4-((4-(2,6-diphenylpyridin-4-yl)phenyl)ethynyl)-N,N-dimethylaniline
_symmetry_cell_setting           monoclinic
_symmetry_space_group_name_H-M   'P 21/c'
_symmetry_Int_Tables_number      14
_space_group_name_Hall           '-P 2ybc'
loop_
_symmetry_equiv_pos_site_id
_symmetry_equiv_pos_as_xyz
1 x,y,z
2 -x,1/2+y,1/2-z
3 -x,-y,-z
4 x,1/2-y,1/2+z
_cell_length_a                   21.285(2)
_cell_length_b                   7.5791(5)
_cell_length_c                   15.9465(12)
_cell_angle_alpha                90
_cell_angle_beta                 109.9530(10)
_cell_angle_gamma                90
_cell_volume                     2418.09
_exptl_crystal_colour            yellow
_exptl_crystal_description       block
_cell_formula_units_Z            4
loop_
_atom_site_label
_atom_site_type_symbol
_atom_site_fract_x
_atom_site_fract_y
_atom_site_fract_z
N1 N 0.37050(8) 0.2306(2) 0.82910(11)
N2 N -0.12267(9) 0.1738(2) -0.13002(12)
C1 C 0.33122(10) 0.0879(3) 0.80420(13)
C2 C 0.28932(10) 0.0627(3) 0.71669(14)
H1 H 0.2633 -0.0388 0.7017
C3 C 0.28583(10) 0.1868(3) 0.65164(13)
C4 C 0.32706(10) 0.3330(3) 0.67900(14)
H2 H 0.3268 0.4199 0.6377
C5 C 0.36872(9) 0.3517(3) 0.76716(14)
C6 C 0.33472(11) -0.0422(3) 0.87489(13)
C7 C 0.39040(11) -0.0515(3) 0.95118(14)
H3 H 0.4260 0.0249 0.9583
C8 C 0.39372(14) -0.1730(4) 1.01698(17)
H4 H 0.4317 -0.1781 1.0678
C9 C 0.34184(17) -0.2857(4) 1.00816(18)
H5 H 0.3446 -0.3683 1.0524
C10 C 0.28588(16) -0.2764(4) 0.93380(18)
H6 H 0.2501 -0.3519 0.9275
C11 C 0.28252(13) -0.1554(3) 0.86831(16)
H7 H 0.2440 -0.1497 0.8182
C12 C 0.41439(10) 0.5045(3) 0.79671(14)
C13 C 0.47015(11) 0.4940(3) 0.87287(15)
H8 H 0.4772 0.3933 0.9082
C14 C 0.51555(12) 0.6303(4) 0.89737(18)
H9 H 0.5530 0.6202 0.9486
C15 C 0.50603(13) 0.7796(4) 0.84724(18)
H10 H 0.5373 0.8702 0.8634
C16 C 0.45009(14) 0.7957(3) 0.77290(17)
H11 H 0.4428 0.8984 0.7390
C17 C 0.40463(12) 0.6592(3) 0.74847(15)
H12 H 0.3665 0.6718 0.6983
C18 C 0.23934(10) 0.1689(3) 0.55867(13)
C19 C 0.24999(11) 0.2569(3) 0.48841(14)
H13 H 0.2893 0.3206 0.4989
C20 C 0.20374(11) 0.2521(3) 0.40355(14)
H14 H 0.2124 0.3121 0.3578
C21 C 0.14445(10) 0.1593(3) 0.38505(13)
C22 C 0.13487(10) 0.0641(3) 0.45398(14)
H15 H 0.0967 -0.0045 0.4429
C23 C 0.18124(10) 0.0700(3) 0.53842(14)
H16 H 0.1734 0.0057 0.5836
C24 C 0.09470(11) 0.1642(3) 0.29802(15)
C25 C 0.05304(11) 0.1709(3) 0.22541(15)
C26 C 0.00645(10) 0.1752(3) 0.13625(13)
C27 C 0.02285(10) 0.2602(3) 0.06978(14)
H17 H 0.0635 0.3190 0.0845
C28 C -0.01925(10) 0.2601(3) -0.01741(14)
H18 H -0.0065 0.3185 -0.0604
C29 C -0.08065(10) 0.1741(3) -0.04250(13)
C30 C -0.09786(10) 0.0905(3) 0.02480(14)
H19 H -0.1389 0.0337 0.0105
C31 C -0.05515(11) 0.0908(3) 0.11155(14)
H20 H -0.0677 0.0332 0.1548
C32 C -0.10165(12) 0.2526(3) -0.19843(14)
H21 H -0.0983 0.3781 -0.1901
H22 H -0.1338 0.2262 -0.2560
H23 H -0.0589 0.2059 -0.1947
C33 C -0.18165(12) 0.0653(4) -0.15717(16)
H24 H -0.1695 -0.0546 -0.1396
H25 H -0.2025 0.0711 -0.2208
H26 H -0.2123 0.1069 -0.1292
loop_
_geom_bond_atom_site_label_1
_geom_bond_atom_site_label_2
_geom_bond_site_symmetry_1
_geom_bond_site_symmetry_2
N1 C1 1_555 1_555
N2 C29 1_555 1_555
C1 C2 1_555 1_555
C2 H1 1_555 1_555
C3 C2 1_555 1_555
C4 C3 1_555 1_555
H2 C4 1_555 1_555
C5 N1 1_555 1_555
C6 C1 1_555 1_555
C7 C6 1_555 1_555
H3 C7 1_555 1_555
C8 C7 1_555 1_555
H4 C8 1_555 1_555
C9 C8 1_555 1_555
H5 C9 1_555 1_555
C10 C9 1_555 1_555
H6 C10 1_555 1_555
C11 C6 1_555 1_555
H7 C11 1_555 1_555
C12 C5 1_555 1_555
C13 C12 1_555 1_555
H8 C13 1_555 1_555
C14 C13 1_555 1_555
H9 C14 1_555 1_555
C15 C14 1_555 1_555
H10 C15 1_555 1_555
C16 C15 1_555 1_555
H11 C16 1_555 1_555
C17 C12 1_555 1_555
H12 C17 1_555 1_555
C18 C3 1_555 1_555
C19 C18 1_555 1_555
H13 C19 1_555 1_555
C20 C19 1_555 1_555
H14 C20 1_555 1_555
C21 C20 1_555 1_555
C22 C21 1_555 1_555
H15 C22 1_555 1_555
C23 C18 1_555 1_555
H16 C23 1_555 1_555
C24 C21 1_555 1_555
C25 C24 1_555 1_555
C26 C25 1_555 1_555
C27 C26 1_555 1_555
H17 C27 1_555 1_555
C28 C27 1_555 1_555
H18 C28 1_555 1_555
C29 C28 1_555 1_555
C30 C29 1_555 1_555
H19 C30 1_555 1_555
C31 C26 1_555 1_555
H20 C31 1_555 1_555
C32 N2 1_555 1_555
H21 C32 1_555 1_555
H22 C32 1_555 1_555
H23 C32 1_555 1_555
C33 N2 1_555 1_555
H24 C33 1_555 1_555
H25 C33 1_555 1_555
H26 C33 1_555 1_555
C4 C5 1_555 1_555
C10 C11 1_555 1_555
C16 C17 1_555 1_555
C22 C23 1_555 1_555
C30 C31 1_555 1_555

#END
