
#######################################################################
#
#                 Cambridge Crystallographic Data Centre
#                                CCDC 
#
#######################################################################
#
# If this CIF has been generated from an entry in the Cambridge 
# Structural Database, then it will include bibliographic, chemical, 
# crystal, experimental, refinement or atomic coordinate data resulting 
# from the CCDC's data processing and validation procedures.
#
#######################################################################

data_EGUFET
_chemical_formula_moiety         'C40 H29 N3 O3'
_chemical_name_systematic        
'2-(2-(pyridin-2-yl)-1H-benzimidazol-1-yl)ethyl 3,3-diphenyl-3H-benzo[f]chromene-8-carboxylate'
_symmetry_cell_setting           monoclinic
_symmetry_space_group_name_H-M   'P 21/c'
_symmetry_Int_Tables_number      14
_space_group_name_Hall           '-P 2ybc'
loop_
_symmetry_equiv_pos_site_id
_symmetry_equiv_pos_as_xyz
1 x,y,z
2 -x,1/2+y,1/2-z
3 -x,-y,-z
4 x,1/2-y,1/2+z
_cell_length_a                   14.631(2)
_cell_length_b                   8.3769(11)
_cell_length_c                   26.189(3)
_cell_angle_alpha                90
_cell_angle_beta                 106.775(6)
_cell_angle_gamma                90
_cell_volume                     3073.2
_exptl_crystal_colour            colorless
_exptl_crystal_description       block
_cell_formula_units_Z            4
loop_
_atom_site_label
_atom_site_type_symbol
_atom_site_fract_x
_atom_site_fract_y
_atom_site_fract_z
C1 C 0.60781(15) 0.8799(2) 0.23471(9)
C2 C 0.65353(16) 0.7901(3) 0.20533(9)
C3 C 0.75039(18) 0.7668(3) 0.22369(11)
H1 H 0.7817 0.7057 0.2043
C4 C 0.80036(18) 0.8354(3) 0.27128(12)
H2 H 0.8659 0.8195 0.2843
C5 C 0.75344(19) 0.9288(3) 0.30025(11)
H3 H 0.7883 0.9757 0.3321
C6 C 0.65530(16) 0.9524(2) 0.28198(9)
H4 H 0.6233 1.0142 0.3009
C7 C 0.50484(16) 0.7863(3) 0.16163(8)
C8 C 0.41661(17) 0.7457(3) 0.11975(8)
C9 C 0.4231(2) 0.6643(3) 0.07422(10)
H5 H 0.4823 0.6382 0.0700
C10 C 0.3406(3) 0.6241(4) 0.03610(11)
H6 H 0.3432 0.5701 0.0055
C11 C 0.2546(2) 0.6631(4) 0.04299(11)
H7 H 0.1979 0.6376 0.0173
C12 C 0.2539(2) 0.7391(4) 0.08779(11)
H8 H 0.1947 0.7642 0.0923
C13 C 0.43688(14) 0.9666(2) 0.22199(8)
H9 H 0.3874 0.9985 0.1902
H10 H 0.4654 1.0632 0.2402
C14 C 0.39176(13) 0.8766(2) 0.25747(7)
H11 H 0.3447 0.9428 0.2669
H12 H 0.3600 0.7821 0.2393
C15 C 0.43760(14) 0.7803(3) 0.34616(8)
C16 C 0.51806(13) 0.7358(2) 0.39297(7)
C17 C 0.61023(13) 0.7244(2) 0.39071(7)
H13 H 0.6238 0.7495 0.3591
C18 C 0.68493(12) 0.6753(2) 0.43524(7)
C19 C 0.66530(12) 0.6426(2) 0.48407(7)
C20 C 0.56974(13) 0.6589(3) 0.48548(8)
H14 H 0.5552 0.6400 0.5172
C21 C 0.49873(14) 0.7017(3) 0.44132(8)
H15 H 0.4363 0.7085 0.4432
C22 C 0.74074(12) 0.5938(2) 0.52942(7)
C23 C 0.83066(12) 0.5749(2) 0.52360(7)
C24 C 0.85034(13) 0.6071(2) 0.47565(8)
H16 H 0.9120 0.5938 0.4731
C25 C 0.77967(13) 0.6581(3) 0.43264(8)
H17 H 0.7938 0.6819 0.4011
C26 C 0.89349(12) 0.4566(2) 0.61254(7)
C27 C 0.80134(13) 0.5109(2) 0.62114(7)
H18 H 0.7934 0.5010 0.6550
C28 C 0.73112(13) 0.5722(2) 0.58256(7)
H19 H 0.6747 0.6018 0.5895
C29 C 0.89658(13) 0.2763(2) 0.60380(7)
C30 C 0.97722(17) 0.2092(3) 0.59539(9)
H20 H 1.0293 0.2735 0.5958
C31 C 0.9812(2) 0.0468(4) 0.58628(12)
H21 H 1.0350 0.0028 0.5797
C32 C 0.9059(3) -0.0485(3) 0.58704(11)
H22 H 0.9087 -0.1577 0.5811
C33 C 0.8272(2) 0.0151(3) 0.59635(10)
H23 H 0.7765 -0.0508 0.5972
C34 C 0.82156(15) 0.1780(2) 0.60458(7)
H24 H 0.7670 0.2208 0.6106
C35 C 0.97790(12) 0.5090(2) 0.65940(7)
C36 C 0.97983(14) 0.4663(3) 0.71069(8)
H25 H 0.9311 0.4035 0.7161
C37 C 1.05355(16) 0.5160(3) 0.75416(9)
H26 H 1.0531 0.4885 0.7885
C38 C 1.12702(16) 0.6053(3) 0.74671(10)
H27 H 1.1767 0.6379 0.7758
C39 C 1.12674(16) 0.6460(3) 0.69641(11)
H28 H 1.1768 0.7058 0.6912
C40 C 1.05237(14) 0.5989(3) 0.65286(9)
H29 H 1.0529 0.6286 0.6187
N1 N 0.58706(14) 0.7310(2) 0.15911(7)
N2 N 0.51009(12) 0.87755(19) 0.20597(7)
N3 N 0.33219(15) 0.7823(3) 0.12699(8)
O1 O 0.46628(8) 0.83145(16) 0.30501(5)
O2 O 0.35511(10) 0.7713(3) 0.34412(6)
O3 O 0.90793(8) 0.53387(15) 0.56540(5)
loop_
_geom_bond_atom_site_label_1
_geom_bond_atom_site_label_2
_geom_bond_site_symmetry_1
_geom_bond_site_symmetry_2
C1 C2 1_555 1_555
C2 C3 1_555 1_555
C3 H1 1_555 1_555
C4 C3 1_555 1_555
H2 C4 1_555 1_555
C5 C4 1_555 1_555
H3 C5 1_555 1_555
C6 C1 1_555 1_555
H4 C6 1_555 1_555
C7 C8 1_555 1_555
C8 C9 1_555 1_555
C9 H5 1_555 1_555
C10 C9 1_555 1_555
H6 C10 1_555 1_555
C11 C10 1_555 1_555
H7 C11 1_555 1_555
C12 C11 1_555 1_555
H8 C12 1_555 1_555
C13 H9 1_555 1_555
H10 C13 1_555 1_555
C14 C13 1_555 1_555
H11 C14 1_555 1_555
H12 C14 1_555 1_555
C15 C16 1_555 1_555
C16 C17 1_555 1_555
C17 H13 1_555 1_555
C18 C17 1_555 1_555
C19 C18 1_555 1_555
C20 C19 1_555 1_555
H14 C20 1_555 1_555
C21 C16 1_555 1_555
H15 C21 1_555 1_555
C22 C19 1_555 1_555
C23 C22 1_555 1_555
C24 C23 1_555 1_555
H16 C24 1_555 1_555
C25 C18 1_555 1_555
H17 C25 1_555 1_555
C26 C27 1_555 1_555
C27 H18 1_555 1_555
C28 C22 1_555 1_555
H19 C28 1_555 1_555
C29 C26 1_555 1_555
C30 C29 1_555 1_555
H20 C30 1_555 1_555
C31 C30 1_555 1_555
H21 C31 1_555 1_555
C32 C31 1_555 1_555
H22 C32 1_555 1_555
C33 C32 1_555 1_555
H23 C33 1_555 1_555
C34 C29 1_555 1_555
H24 C34 1_555 1_555
C35 C26 1_555 1_555
C36 C35 1_555 1_555
H25 C36 1_555 1_555
C37 C36 1_555 1_555
H26 C37 1_555 1_555
C38 C37 1_555 1_555
H27 C38 1_555 1_555
C39 C38 1_555 1_555
H28 C39 1_555 1_555
C40 C35 1_555 1_555
H29 C40 1_555 1_555
N1 C2 1_555 1_555
N2 C1 1_555 1_555
N3 C8 1_555 1_555
O1 C14 1_555 1_555
O2 C15 1_555 1_555
O3 C23 1_555 1_555
C5 C6 1_555 1_555
C7 N1 1_555 1_555
C7 N2 1_555 1_555
C12 N3 1_555 1_555
C13 N2 1_555 1_555
C15 O1 1_555 1_555
C20 C21 1_555 1_555
C24 C25 1_555 1_555
C26 O3 1_555 1_555
C27 C28 1_555 1_555
C33 C34 1_555 1_555
C39 C40 1_555 1_555

#END
