
#######################################################################
#
#                 Cambridge Crystallographic Data Centre
#                                CCDC 
#
#######################################################################
#
# If this CIF has been generated from an entry in the Cambridge 
# Structural Database, then it will include bibliographic, chemical, 
# crystal, experimental, refinement or atomic coordinate data resulting 
# from the CCDC's data processing and validation procedures.
#
#######################################################################

data_EGUGAQ
_chemical_formula_moiety         'C15 H18 O4'
_chemical_name_systematic        
2-hydroxy-1,7,14-trimethyl-5,10-dioxatetracyclo[7.5.0.0^2,11^.0^4,8^]tetradeca-4(8),6-dien-3-one
_symmetry_cell_setting           orthorhombic
_symmetry_space_group_name_H-M   'P 21 21 21'
_symmetry_Int_Tables_number      19
_space_group_name_Hall           'P 2ac 2ab'
loop_
_symmetry_equiv_pos_site_id
_symmetry_equiv_pos_as_xyz
1 x,y,z
2 1/2-x,-y,1/2+z
3 -x,1/2+y,1/2-z
4 1/2+x,1/2-y,-z
_cell_length_a                   7.5048(9)
_cell_length_b                   10.0361(12)
_cell_length_c                   17.059(2)
_cell_angle_alpha                90
_cell_angle_beta                 90
_cell_angle_gamma                90
_cell_volume                     1284.87
_exptl_crystal_colour            colorless
_exptl_crystal_description       prismatic
_cell_formula_units_Z            4
loop_
_atom_site_label
_atom_site_type_symbol
_atom_site_fract_x
_atom_site_fract_y
_atom_site_fract_z
O1 O 0.9855(2) -0.03061(14) 0.14437(9)
O2 O 0.7918(3) 0.27473(14) 0.07277(10)
H1 H 0.7923 0.2935 0.0260
O3 O 0.7967(3) 0.1409(2) -0.05786(10)
O4 O 0.7450(2) -0.14804(18) -0.05935(9)
C1 C 1.0022(3) 0.1045(2) 0.11815(13)
H2 H 1.0976 0.1132 0.0792
C2 C 1.0373(3) 0.1918(2) 0.18857(14)
H3 H 1.0192 0.2847 0.1749
H4 H 1.1595 0.1808 0.2059
C3 C 0.9100(4) 0.1518(3) 0.25362(14)
H5 H 0.9162 0.2174 0.2953
H6 H 0.9478 0.0669 0.2752
C4 C 0.7167(3) 0.1398(2) 0.22583(13)
H7 H 0.6566 0.0815 0.2636
C5 C 0.6984(3) 0.0708(2) 0.14456(13)
C6 C 0.7979(3) -0.0643(2) 0.14565(12)
H8 H 0.7668 -0.1174 0.1919
C7 C 0.7643(3) -0.1388(2) 0.07141(12)
C8 C 0.7746(3) -0.0689(2) 0.00387(12)
C9 C 0.7970(3) 0.0724(2) 0.00072(13)
C10 C 0.8190(3) 0.1376(2) 0.08194(13)
C11 C 0.7259(3) -0.2727(2) 0.05035(13)
C12 C 0.7162(4) -0.2711(2) -0.02847(15)
H9 H 0.6924 -0.3462 -0.0586
C13 C 0.7027(4) -0.3904(2) 0.10284(16)
H10 H 0.6640 -0.4656 0.0725
H11 H 0.6150 -0.3705 0.1421
H12 H 0.8141 -0.4110 0.1277
C14 C 0.5034(3) 0.0614(2) 0.12153(15)
H13 H 0.4360 0.0256 0.1645
H14 H 0.4913 0.0042 0.0768
H15 H 0.4594 0.1486 0.1088
C15 C 0.6236(4) 0.2755(3) 0.23148(18)
H16 H 0.6269 0.3063 0.2848
H17 H 0.5020 0.2668 0.2148
H18 H 0.6837 0.3385 0.1984
loop_
_geom_bond_atom_site_label_1
_geom_bond_atom_site_label_2
_geom_bond_site_symmetry_1
_geom_bond_site_symmetry_2
O1 C1 1_555 1_555
O2 H1 1_555 1_555
O3 C9 1_555 1_555
O4 C8 1_555 1_555
C1 H2 1_555 1_555
C2 C1 1_555 1_555
H3 C2 1_555 1_555
H4 C2 1_555 1_555
C3 C2 1_555 1_555
H5 C3 1_555 1_555
H6 C3 1_555 1_555
C4 C3 1_555 1_555
H7 C4 1_555 1_555
C5 C4 1_555 1_555
C6 O1 1_555 1_555
H8 C6 1_555 1_555
C7 C6 1_555 1_555
C8 C7 1_555 1_555
C9 C8 1_555 1_555
C10 O2 1_555 1_555
C11 C7 1_555 1_555
C12 O4 1_555 1_555
H9 C12 1_555 1_555
C13 C11 1_555 1_555
H10 C13 1_555 1_555
H11 C13 1_555 1_555
H12 C13 1_555 1_555
C14 C5 1_555 1_555
H13 C14 1_555 1_555
H14 C14 1_555 1_555
H15 C14 1_555 1_555
C15 C4 1_555 1_555
H16 C15 1_555 1_555
H17 C15 1_555 1_555
H18 C15 1_555 1_555
C1 C10 1_555 1_555
C5 C6 1_555 1_555
C5 C10 1_555 1_555
C9 C10 1_555 1_555
C11 C12 1_555 1_555

#END
