
#######################################################################
#
#                 Cambridge Crystallographic Data Centre
#                                CCDC 
#
#######################################################################
#
# If this CIF has been generated from an entry in the Cambridge 
# Structural Database, then it will include bibliographic, chemical, 
# crystal, experimental, refinement or atomic coordinate data resulting 
# from the CCDC's data processing and validation procedures.
#
#######################################################################

data_EGUJIB
_chemical_formula_moiety         'C38 H24 N2,0.5(C6 H10 O2)'
_chemical_name_systematic        
"hemikis(hexane-2,5-dione) 2-phenyl-1-(9,9'-spirobi[fluoren]-2-yl)-1H-benzimidazole"
_symmetry_cell_setting           triclinic
_symmetry_space_group_name_H-M   'P -1'
_symmetry_Int_Tables_number      2
_space_group_name_Hall           '-P 1'
loop_
_symmetry_equiv_pos_site_id
_symmetry_equiv_pos_as_xyz
1 x,y,z
2 -x,-y,-z
_cell_length_a                   10.846(2)
_cell_length_b                   10.957(2)
_cell_length_c                   13.175(3)
_cell_angle_alpha                83.94(3)
_cell_angle_beta                 82.26(3)
_cell_angle_gamma                69.90(3)
_cell_volume                     1454
_cell_formula_units_Z            2
loop_
_atom_site_label
_atom_site_type_symbol
_atom_site_fract_x
_atom_site_fract_y
_atom_site_fract_z
N1 N 0.5555(3) 0.1606(3) 0.4422(2)
C1 C 0.0462(3) 0.3384(3) 0.3192(2)
C2 C -0.0234(3) 0.4132(3) 0.3968(2)
H1 H -0.0076 0.4887 0.4079
C3 C -0.1203(3) 0.3742(4) 0.4602(3)
H2 H -0.1686 0.4234 0.5146
C4 C -0.1432(3) 0.2635(4) 0.4416(3)
H3 H -0.2068 0.2384 0.4846
C5 C -0.0758(3) 0.1888(4) 0.3620(3)
H4 H -0.0935 0.1145 0.3503
C6 C 0.0210(3) 0.2270(3) 0.2983(2)
C7 C 0.1073(3) 0.1698(3) 0.2099(2)
C8 C 0.1194(4) 0.0621(3) 0.1583(3)
H5 H 0.0644 0.0131 0.1797
C9 C 0.2118(4) 0.0278(3) 0.0763(3)
H6 H 0.2203 -0.0450 0.0418
C10 C 0.2938(4) 0.1012(3) 0.0437(3)
H7 H 0.3568 0.0772 -0.0124
C11 C 0.2823(3) 0.2090(3) 0.0941(2)
H8 H 0.3373 0.2578 0.0721
C12 C 0.1903(3) 0.2437(3) 0.1763(2)
C13 C 0.1575(3) 0.3597(3) 0.2430(2)
C14 C 0.2766(3) 0.3566(3) 0.2972(2)
C15 C 0.3544(3) 0.2572(3) 0.3547(2)
H9 H 0.3402 0.1776 0.3660
C16 C 0.4555(3) 0.2783(3) 0.3958(2)
C17 C 0.4782(3) 0.3949(3) 0.3778(2)
H10 H 0.5489 0.4052 0.4045
C18 C 0.3971(3) 0.4985(3) 0.3199(2)
H11 H 0.4101 0.5787 0.3108
C19 C 0.2956(3) 0.4778(3) 0.2760(2)
C20 C 0.2022(3) 0.5592(3) 0.2072(2)
C21 C 0.1854(3) 0.6849(3) 0.1612(2)
H12 H 0.2384 0.7310 0.1748
C22 C 0.0887(3) 0.7384(3) 0.0957(3)
H13 H 0.0760 0.8216 0.0650
C23 C 0.0104(3) 0.6692(3) 0.0751(3)
H14 H -0.0531 0.7063 0.0297
C24 C 0.0244(3) 0.5475(3) 0.1201(2)
H15 H -0.0304 0.5031 0.1071
C25 C 0.1216(3) 0.4915(3) 0.1855(2)
C26 C 0.6520(4) 0.0622(4) 0.3873(3)
C27 C 0.6665(4) 0.0506(4) 0.2844(3)
H16 H 0.6102 0.1089 0.2405
C28 C 0.7763(4) -0.0599(5) 0.2488(3)
H17 H 0.7944 -0.0772 0.1798
C29 C 0.8569(4) -0.1423(4) 0.3246(3)
H18 H 0.9297 -0.2131 0.3038
C30 C 0.8287(4) -0.1185(4) 0.4259(3)
H19 H 0.8798 -0.1743 0.4742
C31 C 0.7294(4) -0.0168(4) 0.4548(3)
N2 N 0.6799(3) 0.0269(3) 0.5564(2)
C32 C 0.5821(4) 0.1297(3) 0.5381(3)
C33 C 0.5009(4) 0.2038(4) 0.6295(3)
C34 C 0.5530(4) 0.1613(4) 0.7303(3)
H20 H 0.6334 0.0947 0.7354
C35 C 0.4829(5) 0.2199(4) 0.8141(3)
H21 H 0.5151 0.1931 0.8776
C36 C 0.3667(5) 0.3169(5) 0.8078(3)
H22 H 0.3192 0.3550 0.8672
C37 C 0.3172(4) 0.3605(4) 0.7150(4)
H23 H 0.2382 0.4294 0.7117
C38 C 0.3813(4) 0.3048(4) 0.6306(3)
H24 H 0.3447 0.3345 0.5690
O1 O 0.5861(6) 0.2739(6) 0.0573(4)
C39 C 0.7226(6) 0.3470(6) 0.1365(5)
H25 H 0.7539 0.2590 0.1654
H26 H 0.6946 0.4058 0.1907
H27 H 0.7925 0.3651 0.0915
C40 C 0.6047(6) 0.3649(6) 0.0751(4)
C41 C 0.5546(4) 0.4892(4) 0.0317(3)
H28 H 0.6257 0.5104 -0.0108
H29 H 0.5236 0.5491 0.0861
O1A O 0.4139(6) 0.7261(6) -0.0573(4)
C39A C 0.2774(6) 0.6530(6) -0.1365(5)
H25A H 0.2461 0.7410 -0.1654
H26A H 0.3054 0.5942 -0.1907
H27A H 0.2075 0.6349 -0.0915
C40A C 0.3953(6) 0.6351(6) -0.0751(4)
C41A C 0.4454(4) 0.5108(4) -0.0317(3)
H28A H 0.3743 0.4896 0.0108
H29A H 0.4764 0.4509 -0.0861
loop_
_geom_bond_atom_site_label_1
_geom_bond_atom_site_label_2
_geom_bond_site_symmetry_1
_geom_bond_site_symmetry_2
N1 C16 1_555 1_555
C1 C2 1_555 1_555
C2 H1 1_555 1_555
C3 C2 1_555 1_555
H2 C3 1_555 1_555
C4 C3 1_555 1_555
H3 C4 1_555 1_555
C5 C4 1_555 1_555
H4 C5 1_555 1_555
C6 C1 1_555 1_555
C7 C6 1_555 1_555
C8 C7 1_555 1_555
H5 C8 1_555 1_555
C9 C8 1_555 1_555
H6 C9 1_555 1_555
C10 C9 1_555 1_555
H7 C10 1_555 1_555
C11 C10 1_555 1_555
H8 C11 1_555 1_555
C12 C7 1_555 1_555
C13 C1 1_555 1_555
C14 C13 1_555 1_555
C15 C14 1_555 1_555
H9 C15 1_555 1_555
C16 C15 1_555 1_555
C17 C16 1_555 1_555
H10 C17 1_555 1_555
C18 C17 1_555 1_555
H11 C18 1_555 1_555
C19 C14 1_555 1_555
C20 C19 1_555 1_555
C21 C20 1_555 1_555
H12 C21 1_555 1_555
C22 C21 1_555 1_555
H13 C22 1_555 1_555
C23 C22 1_555 1_555
H14 C23 1_555 1_555
C24 C23 1_555 1_555
H15 C24 1_555 1_555
C25 C13 1_555 1_555
C26 N1 1_555 1_555
C27 C26 1_555 1_555
H16 C27 1_555 1_555
C28 C27 1_555 1_555
H17 C28 1_555 1_555
C29 C28 1_555 1_555
H18 C29 1_555 1_555
C30 C29 1_555 1_555
H19 C30 1_555 1_555
C31 C26 1_555 1_555
N2 C31 1_555 1_555
C32 N1 1_555 1_555
C33 C32 1_555 1_555
C34 C33 1_555 1_555
H20 C34 1_555 1_555
C35 C34 1_555 1_555
H21 C35 1_555 1_555
C36 C35 1_555 1_555
H22 C36 1_555 1_555
C37 C36 1_555 1_555
H23 C37 1_555 1_555
C38 C33 1_555 1_555
H24 C38 1_555 1_555
O1 C40 1_555 1_555
C39 H25 1_555 1_555
H26 C39 1_555 1_555
H27 C39 1_555 1_555
C40 C39 1_555 1_555
C41 C40 1_555 1_555
H28 C41 1_555 1_555
H29 C41 1_555 1_555
O1A C40A 1_555 1_555
C39A H25A 1_555 1_555
H26A C39A 1_555 1_555
H27A C39A 1_555 1_555
C40A C39A 1_555 1_555
C41A C41 1_555 1_555
H28A C41A 1_555 1_555
H29A C41A 1_555 1_555
C5 C6 1_555 1_555
C11 C12 1_555 1_555
C12 C13 1_555 1_555
C18 C19 1_555 1_555
C20 C25 1_555 1_555
C24 C25 1_555 1_555
C30 C31 1_555 1_555
N2 C32 1_555 1_555
C37 C38 1_555 1_555
C40A C41A 1_555 1_555

#END
