
#######################################################################
#
#                 Cambridge Crystallographic Data Centre
#                                CCDC 
#
#######################################################################
#
# If this CIF has been generated from an entry in the Cambridge 
# Structural Database, then it will include bibliographic, chemical, 
# crystal, experimental, refinement or atomic coordinate data resulting 
# from the CCDC's data processing and validation procedures.
#
#######################################################################

data_EGUMOI
_chemical_formula_moiety         'C20 H20 F3 N2 O3 P1'
_chemical_name_systematic        
'Diisopropyl (2-(trifluoromethyl)-1-cyanopyrrolo(2,1-a)isoquinolin-3-yl)phosphonate'
_symmetry_cell_setting           triclinic
_symmetry_space_group_name_H-M   'P -1'
_symmetry_Int_Tables_number      2
_space_group_name_Hall           '-P 1'
loop_
_symmetry_equiv_pos_site_id
_symmetry_equiv_pos_as_xyz
1 x,y,z
2 -x,-y,-z
_cell_length_a                   10.551(3)
_cell_length_b                   11.801(3)
_cell_length_c                   9.064(2)
_cell_angle_alpha                112.06(2)
_cell_angle_beta                 98.21(2)
_cell_angle_gamma                82.48(2)
_cell_volume                     1031.56
_exptl_crystal_colour            colorless
_exptl_crystal_description       prismatic
_cell_formula_units_Z            2
_exptl_crystal_recrystallization_method hexane
loop_
_atom_site_label
_atom_site_type_symbol
_atom_site_fract_x
_atom_site_fract_y
_atom_site_fract_z
P1 P 0.77887(5) 0.21152(5) 0.32306(7)
F1 F 0.9425(1) 0.3307(1) 0.7039(2)
F2 F 0.9239(1) 0.4617(1) 0.5885(2)
F3 F 0.8734(2) 0.5161(2) 0.8270(2)
O1 O 0.9164(1) 0.2182(2) 0.3708(2)
O2 O 0.7244(1) 0.2477(1) 0.1752(2)
O3 O 0.7344(1) 0.0787(1) 0.2724(2)
N1 N 0.5202(2) 0.4071(1) 0.6251(2)
N2 N 0.6162(3) 0.6148(2) 0.9962(3)
C1 C 0.6319(2) 0.4542(2) 0.7129(3)
C2 C 0.7321(2) 0.3961(2) 0.6231(2)
C3 C 0.6827(2) 0.3110(2) 0.4757(2)
C4 C 0.5473(2) 0.3195(2) 0.4779(2)
C5 C 0.4402(2) 0.2616(2) 0.3692(2)
C6 C 0.4516(2) 0.1780(2) 0.2136(3)
C7 C 0.3463(2) 0.1250(2) 0.1166(3)
C8 C 0.2259(2) 0.1538(2) 0.1735(4)
C9 C 0.2109(2) 0.2360(3) 0.3229(4)
C10 C 0.3161(2) 0.2925(2) 0.4235(3)
C11 C 0.2992(2) 0.3822(3) 0.5786(3)
C12 C 0.3962(3) 0.4388(2) 0.6749(3)
C13 C 0.6263(3) 0.5442(2) 0.8707(3)
C14 C 0.8681(2) 0.4250(2) 0.6833(3)
C15 C 0.7967(3) 0.2131(2) 0.0359(3)
C16 C 0.8793(3) 0.3155(3) 0.0641(4)
C17 C 0.6989(4) 0.1943(3) -0.1066(3)
C18 C 0.7726(3) 0.0095(2) 0.3796(3)
C19 C 0.8773(4) -0.0859(3) 0.3145(5)
C20 C 0.6536(4) -0.0389(4) 0.3964(5)
H1 H 0.5402 0.1598 0.1762
H2 H 0.3607 0.0656 0.0050
H3 H 0.1590 0.1103 0.1096
H4 H 0.1238 0.2566 0.3664
H5 H 0.2176 0.4083 0.6199
H6 H 0.3944 0.4985 0.7750
H7 H 0.8489 0.1309 0.0261
H8 H 0.8195 0.4013 0.0680
H9 H 0.9368 0.3277 0.1483
H10 H 0.9311 0.2847 -0.0375
H11 H 0.7314 0.1692 -0.1998
H12 H 0.6458 0.1239 -0.1196
H13 H 0.6405 0.2711 -0.0927
H14 H 0.8048 0.0721 0.4847
H15 H 0.9443 -0.0380 0.2976
H16 H 0.8318 -0.1410 0.2226
H17 H 0.9129 -0.1292 0.3873
H18 H 0.6214 -0.0988 0.2859
H19 H 0.6688 -0.0812 0.4617
H20 H 0.5836 0.0391 0.4338
loop_
_geom_bond_atom_site_label_1
_geom_bond_atom_site_label_2
_geom_bond_site_symmetry_1
_geom_bond_site_symmetry_2
P1 O1 1_555 1_555
F1 C14 1_555 1_555
F2 C14 1_555 1_555
F3 C14 1_555 1_555
O2 P1 1_555 1_555
O3 P1 1_555 1_555
N1 C1 1_555 1_555
N2 C13 1_555 1_555
C1 C2 1_555 1_555
C2 C3 1_555 1_555
C3 P1 1_555 1_555
C4 N1 1_555 1_555
C5 C4 1_555 1_555
C6 C5 1_555 1_555
C7 C6 1_555 1_555
C8 C7 1_555 1_555
C9 C8 1_555 1_555
C10 C5 1_555 1_555
C11 C10 1_555 1_555
C12 N1 1_555 1_555
C13 C1 1_555 1_555
C14 C2 1_555 1_555
C15 O2 1_555 1_555
C16 C15 1_555 1_555
C17 C15 1_555 1_555
C18 O3 1_555 1_555
C19 C18 1_555 1_555
C20 C18 1_555 1_555
H1 C6 1_555 1_555
H2 C7 1_555 1_555
H3 C8 1_555 1_555
H4 C9 1_555 1_555
H5 C11 1_555 1_555
H6 C12 1_555 1_555
H7 C15 1_555 1_555
H8 C16 1_555 1_555
H9 C16 1_555 1_555
H10 C16 1_555 1_555
H11 C17 1_555 1_555
H12 C17 1_555 1_555
H13 C17 1_555 1_555
H14 C18 1_555 1_555
H15 C19 1_555 1_555
H16 C19 1_555 1_555
H17 C19 1_555 1_555
H18 C20 1_555 1_555
H19 C20 1_555 1_555
H20 C20 1_555 1_555
C3 C4 1_555 1_555
C9 C10 1_555 1_555
C11 C12 1_555 1_555

#END
