
#######################################################################
#
#                 Cambridge Crystallographic Data Centre
#                                CCDC 
#
#######################################################################
#
# If this CIF has been generated from an entry in the Cambridge 
# Structural Database, then it will include bibliographic, chemical, 
# crystal, experimental, refinement or atomic coordinate data resulting 
# from the CCDC's data processing and validation procedures.
#
#######################################################################

data_EGUSUV
_chemical_formula_moiety         'C10 H16 N2 O2 S2'
_chemical_name_systematic        1,2-Dimorpholinoethane-1,2-dithione
_symmetry_cell_setting           monoclinic
_symmetry_space_group_name_H-M   'C 2/c'
_symmetry_Int_Tables_number      15
_space_group_name_Hall           '-C 2yn'
loop_
_symmetry_equiv_pos_site_id
_symmetry_equiv_pos_as_xyz
1 x,y,z
2 1/2+x,1/2+y,z
3 -x,y,1/2-z
4 1/2-x,1/2+y,1/2-z
5 -x,-y,-z
6 1/2-x,1/2-y,-z
7 x,-y,1/2+z
8 1/2+x,1/2-y,1/2+z
_cell_length_a                   34.661(7)
_cell_length_b                   6.5155(12)
_cell_length_c                   10.6632(19)
_cell_angle_alpha                90
_cell_angle_beta                 93.633(2)
_cell_angle_gamma                90
_cell_volume                     2403.27
_exptl_crystal_colour            colorless
_exptl_crystal_description       prism
_cell_formula_units_Z            8
_exptl_crystal_recrystallization_method ethanol
loop_
_atom_site_label
_atom_site_type_symbol
_atom_site_fract_x
_atom_site_fract_y
_atom_site_fract_z
S1 S 0.372884(17) -0.19547(8) 0.11699(5)
S2 S 0.380220(17) 0.28649(9) 0.28638(5)
N1 N 0.32643(5) 0.1044(3) 0.03467(16)
N2 N 0.41166(5) 0.2706(3) 0.06457(16)
O1 O 0.27344(4) 0.2067(3) -0.16300(16)
O2 O 0.48123(4) 0.2411(3) -0.04519(17)
C1 C 0.29717(6) -0.0402(4) -0.0084(2)
H1 H 0.2748 -0.0269 0.0412
H2 H 0.3070 -0.1790 0.0014
C2 C 0.28575(7) 0.0009(4) -0.1446(2)
H3 H 0.3076 -0.0258 -0.1947
H4 H 0.2650 -0.0913 -0.1727
C3 C 0.30297(7) 0.3439(4) -0.1261(2)
H5 H 0.2940 0.4833 -0.1412
H6 H 0.3249 0.3208 -0.1765
C4 C 0.31559(6) 0.3191(3) 0.0111(2)
H7 H 0.3375 0.4079 0.0327
H8 H 0.2947 0.3573 0.0626
C5 C 0.35897(6) 0.0447(3) 0.09058(18)
C6 C 0.38568(6) 0.2090(3) 0.13964(18)
C7 C 0.41350(6) 0.2047(3) -0.0666(2)
H9 H 0.4101 0.3225 -0.1218
H10 H 0.3928 0.1081 -0.0878
C8 C 0.45103(6) 0.1074(4) -0.0844(2)
H11 H 0.4532 -0.0187 -0.0361
H12 H 0.4529 0.0733 -0.1724
C9 C 0.47931(6) 0.2926(4) 0.0832(2)
H13 H 0.5013 0.3783 0.1093
H14 H 0.4809 0.1682 0.1333
C10 C 0.44318(6) 0.4028(4) 0.1069(2)
H15 H 0.4421 0.4320 0.1958
H16 H 0.4418 0.5315 0.0611
loop_
_geom_bond_atom_site_label_1
_geom_bond_atom_site_label_2
_geom_bond_site_symmetry_1
_geom_bond_site_symmetry_2
S1 C5 1_555 1_555
S2 C6 1_555 1_555
N1 C1 1_555 1_555
N2 C6 1_555 1_555
O1 C2 1_555 1_555
O2 C8 1_555 1_555
C1 H1 1_555 1_555
H2 C1 1_555 1_555
C2 C1 1_555 1_555
H3 C2 1_555 1_555
H4 C2 1_555 1_555
C3 O1 1_555 1_555
H5 C3 1_555 1_555
H6 C3 1_555 1_555
C4 N1 1_555 1_555
H7 C4 1_555 1_555
H8 C4 1_555 1_555
C5 N1 1_555 1_555
C6 C5 1_555 1_555
C7 N2 1_555 1_555
H9 C7 1_555 1_555
H10 C7 1_555 1_555
C8 C7 1_555 1_555
H11 C8 1_555 1_555
H12 C8 1_555 1_555
C9 O2 1_555 1_555
H13 C9 1_555 1_555
H14 C9 1_555 1_555
C10 N2 1_555 1_555
H15 C10 1_555 1_555
H16 C10 1_555 1_555
C3 C4 1_555 1_555
C9 C10 1_555 1_555

#END
