
#######################################################################
#
#                 Cambridge Crystallographic Data Centre
#                                CCDC 
#
#######################################################################
#
# If this CIF has been generated from an entry in the Cambridge 
# Structural Database, then it will include bibliographic, chemical, 
# crystal, experimental, refinement or atomic coordinate data resulting 
# from the CCDC's data processing and validation procedures.
#
#######################################################################

data_EGUVAE
_chemical_formula_moiety         'C13 H19 N2 O2 1+,C6 H2 N3 O7 1-'
_chemical_name_systematic        
'4-(4-Carboxybenzyl)-1-methylpiperazin-1-ium picrate'
_symmetry_cell_setting           triclinic
_symmetry_space_group_name_H-M   'P -1'
_symmetry_Int_Tables_number      2
_space_group_name_Hall           '-P 1'
loop_
_symmetry_equiv_pos_site_id
_symmetry_equiv_pos_as_xyz
1 x,y,z
2 -x,-y,-z
_cell_length_a                   7.3020(12)
_cell_length_b                   9.5993(16)
_cell_length_c                   15.131(3)
_cell_angle_alpha                86.448(2)
_cell_angle_beta                 79.145(2)
_cell_angle_gamma                79.950(2)
_cell_volume                     1025.17
_exptl_crystal_colour            colorless
_exptl_crystal_description       block
_cell_formula_units_Z            2
_exptl_crystal_recrystallization_method dmf
loop_
_atom_site_label
_atom_site_type_symbol
_atom_site_fract_x
_atom_site_fract_y
_atom_site_fract_z
C1 C 0.5333(3) 1.0778(2) 0.14228(14)
C2 C 0.6431(3) 1.0691(2) 0.05175(13)
C3 C 0.7751(3) 0.9547(2) 0.02127(13)
H1 H 0.8395 0.9546 -0.0379
C4 C 0.8126(3) 0.8398(2) 0.07793(12)
C5 C 0.7175(2) 0.83776(19) 0.16598(12)
H2 H 0.7422 0.7595 0.2039
C6 C 0.5870(3) 0.9521(2) 0.19627(12)
N1 N 0.6141(3) 1.1856(2) -0.01420(15)
N2 N 0.9524(2) 0.71935(19) 0.04516(11)
N3 N 0.4925(2) 0.9427(2) 0.28970(11)
O1 O 0.4059(2) 1.17657(15) 0.17135(11)
O2 O 0.5114(3) 1.2956(2) 0.00975(14)
O3 O 0.6952(3) 1.16659(19) -0.09220(12)
O4 O 1.0379(2) 0.72647(18) -0.03240(10)
O5 O 0.9804(2) 0.61680(16) 0.09632(11)
O6 O 0.4639(2) 0.82634(18) 0.32167(10)
O7 O 0.4470(2) 1.05126(19) 0.33248(10)
C7 C 0.1636(3) 1.33630(19) 0.60024(12)
C8 C 0.1280(2) 1.18702(18) 0.60753(11)
C9 C 0.2178(3) 1.09572(19) 0.53938(12)
H3 H 0.2943 1.1292 0.4892
C10 C 0.1949(3) 0.95535(19) 0.54527(12)
H4 H 0.2557 0.8954 0.4989
C11 C 0.0818(2) 0.90303(18) 0.61993(12)
C12 C -0.0108(2) 0.99528(18) 0.68722(12)
H5 H -0.0897 0.9622 0.7367
C13 C 0.0123(2) 1.13606(18) 0.68187(12)
H6 H -0.0494 1.1964 0.7279
C14 C 0.0608(3) 0.74891(19) 0.62770(13)
H7 H -0.0640 0.7413 0.6616
H8 H 0.0677 0.7156 0.5677
C15 C 0.3984(3) 0.6541(2) 0.62183(12)
H9 H 0.4281 0.7488 0.6208
H10 H 0.4063 0.6282 0.5601
C16 C 0.5410(3) 0.5522(2) 0.66450(12)
H11 H 0.5196 0.4562 0.6598
H12 H 0.6674 0.5591 0.6324
C17 C 0.3292(3) 0.5816(2) 0.80965(12)
H13 H 0.3189 0.6046 0.8721
H14 H 0.2985 0.4875 0.8083
C18 C 0.1914(3) 0.68674(19) 0.76667(12)
H15 H 0.0639 0.6846 0.7991
H16 H 0.2190 0.7813 0.7701
C19 C 0.6653(3) 0.4834(2) 0.80485(15)
H17 H 0.6595 0.5121 0.8651
H18 H 0.7903 0.4841 0.7710
H19 H 0.6355 0.3896 0.8065
N4 N 0.2038(2) 0.65332(14) 0.67160(9)
N5 N 0.5264(2) 0.58329(17) 0.76126(10)
O8 O 0.1067(2) 1.40458(13) 0.67570(8)
H20 H 0.1397 1.4825 0.6691
O9 O 0.2400(2) 1.38891(15) 0.53152(9)
H21 H 0.551(3) 0.669(2) 0.7674(13)
loop_
_geom_bond_atom_site_label_1
_geom_bond_atom_site_label_2
_geom_bond_site_symmetry_1
_geom_bond_site_symmetry_2
C1 C2 1_555 1_555
C2 C3 1_555 1_555
C3 H1 1_555 1_555
C4 C3 1_555 1_555
C5 C4 1_555 1_555
H2 C5 1_555 1_555
C6 C1 1_555 1_555
C7 C8 1_555 1_555
C8 C9 1_555 1_555
C9 H3 1_555 1_555
C10 C9 1_555 1_555
H4 C10 1_555 1_555
C11 C10 1_555 1_555
C12 C11 1_555 1_555
H5 C12 1_555 1_555
C13 C8 1_555 1_555
H6 C13 1_555 1_555
C14 C11 1_555 1_555
H7 C14 1_555 1_555
H8 C14 1_555 1_555
C15 H9 1_555 1_555
H10 C15 1_555 1_555
C16 C15 1_555 1_555
H11 C16 1_555 1_555
H12 C16 1_555 1_555
C17 H13 1_555 1_555
H14 C17 1_555 1_555
C18 C17 1_555 1_555
H15 C18 1_555 1_555
H16 C18 1_555 1_555
C19 H17 1_555 1_555
H18 C19 1_555 1_555
H19 C19 1_555 1_555
N1 C2 1_555 1_555
N2 C4 1_555 1_555
N3 C6 1_555 1_555
N4 C14 1_555 1_555
N5 C16 1_555 1_555
O1 C1 1_555 1_555
O2 N1 1_555 1_555
O3 N1 1_555 1_555
O4 N2 1_555 1_555
O5 N2 1_555 1_555
O6 N3 1_555 1_555
O7 N3 1_555 1_555
O8 C7 1_555 1_555
H20 O8 1_555 1_555
O9 C7 1_555 1_555
H21 N5 1_555 1_555
C5 C6 1_555 1_555
C12 C13 1_555 1_555
C15 N4 1_555 1_555
C17 N5 1_555 1_555
C18 N4 1_555 1_555
C19 N5 1_555 1_555

#END
