
#######################################################################
#
#                 Cambridge Crystallographic Data Centre
#                                CCDC 
#
#######################################################################
#
# If this CIF has been generated from an entry in the Cambridge 
# Structural Database, then it will include bibliographic, chemical, 
# crystal, experimental, refinement or atomic coordinate data resulting 
# from the CCDC's data processing and validation procedures.
#
#######################################################################

data_EGUXIO
_chemical_formula_moiety         'C13 H13 Cl1 N2 O1 S1'
_chemical_name_systematic        
5-Acetyl-4-(4-chlorophenyl)-6-methyl-3,4-dihydropyrimidine-2(1H)-thione
_symmetry_cell_setting           triclinic
_symmetry_space_group_name_H-M   'P -1'
_symmetry_Int_Tables_number      2
_space_group_name_Hall           '-P 1'
loop_
_symmetry_equiv_pos_site_id
_symmetry_equiv_pos_as_xyz
1 x,y,z
2 -x,-y,-z
_cell_length_a                   7.2389(6)
_cell_length_b                   8.2304(7)
_cell_length_c                   12.9038(11)
_cell_angle_alpha                73.366(7)
_cell_angle_beta                 89.373(7)
_cell_angle_gamma                72.613(7)
_cell_volume                     700.623
_exptl_crystal_colour            colorless
_exptl_crystal_description       Prism
_chemical_melting_point          '529.5 K'
_cell_formula_units_Z            2
_exptl_crystal_recrystallization_method methanol
loop_
_atom_site_label
_atom_site_type_symbol
_atom_site_fract_x
_atom_site_fract_y
_atom_site_fract_z
Cl1 Cl 0.5516(3) 0.8292(2) -0.08141(12)
S1 S 1.30462(11) 0.38375(11) 0.46485(8)
O1 O 0.6554(3) 0.0586(3) 0.3317(3)
N1 N 1.2495(3) 0.1540(3) 0.3701(2)
N2 N 0.9758(3) 0.3326(3) 0.4163(2)
C1 C 1.1665(4) 0.2871(4) 0.4144(3)
C2 C 0.8486(4) 0.2810(4) 0.3534(3)
C3 C 0.9546(4) 0.1023(4) 0.3372(3)
C4 C 1.1509(4) 0.0490(4) 0.3417(2)
C5 C 0.8251(4) 0.0061(4) 0.3157(3)
C6 C 0.8904(5) -0.1503(5) 0.2717(4)
C7 C 0.7733(5) 0.4234(4) 0.2449(3)
C8 C 0.8999(6) 0.4851(5) 0.1744(3)
C9 C 0.8321(8) 0.6118(6) 0.0741(4)
C10 C 0.6360(9) 0.6762(6) 0.0464(4)
C11 C 0.5095(8) 0.6201(7) 0.1132(5)
C12 C 0.5777(6) 0.4951(6) 0.2145(4)
C13 C 1.2863(4) -0.1154(4) 0.3226(3)
H1 H 1.367(5) 0.131(4) 0.361(3)
H2 H 0.910(5) 0.415(5) 0.448(3)
H3 H 0.73685 0.26846 0.39490
H4 H 0.78061 -0.18685 0.25915
H5 H 0.98424 -0.24715 0.32324
H6 H 0.94799 -0.11707 0.20472
H7 H 1.03260 0.44097 0.19439
H8 H 0.91806 0.65179 0.02692
H9 H 0.37713 0.66430 0.09217
H10 H 0.48960 0.45990 0.26195
H11 H 1.25700 -0.21851 0.36724
H12 H 1.41785 -0.12402 0.34080
H13 H 1.27086 -0.10909 0.24764
loop_
_geom_bond_atom_site_label_1
_geom_bond_atom_site_label_2
_geom_bond_site_symmetry_1
_geom_bond_site_symmetry_2
Cl1 C10 1_555 1_555
S1 C1 1_555 1_555
O1 C5 1_555 1_555
N1 C1 1_555 1_555
N2 C1 1_555 1_555
C2 N2 1_555 1_555
C3 C2 1_555 1_555
C4 N1 1_555 1_555
C5 C3 1_555 1_555
C6 C5 1_555 1_555
C7 C2 1_555 1_555
C8 C7 1_555 1_555
C9 C8 1_555 1_555
C10 C9 1_555 1_555
C11 C10 1_555 1_555
C12 C7 1_555 1_555
C13 C4 1_555 1_555
H1 N1 1_555 1_555
H2 N2 1_555 1_555
H3 C2 1_555 1_555
H4 C6 1_555 1_555
H5 C6 1_555 1_555
H6 C6 1_555 1_555
H7 C8 1_555 1_555
H8 C9 1_555 1_555
H9 C11 1_555 1_555
H10 C12 1_555 1_555
H11 C13 1_555 1_555
H12 C13 1_555 1_555
H13 C13 1_555 1_555
C3 C4 1_555 1_555
C11 C12 1_555 1_555

#END
