
#######################################################################
#
#                 Cambridge Crystallographic Data Centre
#                                CCDC 
#
#######################################################################
#
# If this CIF has been generated from an entry in the Cambridge 
# Structural Database, then it will include bibliographic, chemical, 
# crystal, experimental, refinement or atomic coordinate data resulting 
# from the CCDC's data processing and validation procedures.
#
#######################################################################

data_EGUXIP
_chemical_formula_moiety         'C30 H37 N1 O8'
_chemical_name_systematic        
'methyl 3-acetoxy-3-((6-acetoxy-5-(methoxycarbonyl)-5,8a-dimethyl-2-methylenedecahydronaphthalen-1-yl)methyl)-3H-indole-2-carboxylate'
_symmetry_cell_setting           orthorhombic
_symmetry_space_group_name_H-M   'P 21 21 21'
_symmetry_Int_Tables_number      19
_space_group_name_Hall           'P 2ac 2ab'
loop_
_symmetry_equiv_pos_site_id
_symmetry_equiv_pos_as_xyz
1 x,y,z
2 1/2-x,-y,1/2+z
3 -x,1/2+y,1/2-z
4 1/2+x,1/2-y,-z
_cell_length_a                   10.5361(10)
_cell_length_b                   14.2727(13)
_cell_length_c                   18.7696(17)
_cell_angle_alpha                90
_cell_angle_beta                 90
_cell_angle_gamma                90
_cell_volume                     2822.55
_exptl_crystal_colour            colorless
_exptl_crystal_description       prismatic
_cell_formula_units_Z            4
_exptl_crystal_recrystallization_method 'ethyl acetate/hexane'
loop_
_atom_site_label
_atom_site_type_symbol
_atom_site_fract_x
_atom_site_fract_y
_atom_site_fract_z
N1 N -0.3300(2) 0.13738(16) 0.32687(12)
O1 O 0.39235(18) -0.11782(15) 0.04303(12)
O2 O 0.2939(3) -0.20309(19) -0.03946(18)
O3 O 0.3236(3) 0.0497(2) -0.07497(13)
O4 O 0.13788(19) -0.01847(17) -0.05378(11)
O5 O -0.21868(19) -0.05287(13) 0.22464(10)
O6 O -0.4259(2) -0.04926(17) 0.25093(14)
O7 O -0.3150(2) 0.11236(15) 0.14137(11)
O8 O -0.3845(2) 0.23278(15) 0.20745(12)
C1 C 0.1503(3) -0.0539(2) 0.18241(16)
H1 H 0.1526 -0.0614 0.2338
H2 H 0.0799 -0.0909 0.1645
C2 C 0.2734(3) -0.0922(2) 0.15104(17)
H3 H 0.3452 -0.0590 0.1713
H4 H 0.2819 -0.1580 0.1630
C3 C 0.2735(2) -0.08058(19) 0.07083(16)
H5 H 0.2027 -0.1164 0.0507
C4 C 0.2607(2) 0.02285(18) 0.04801(14)
C5 C 0.1371(2) 0.06192(17) 0.08252(14)
H6 H 0.0683 0.0238 0.0626
C6 C 0.1081(3) 0.1626(2) 0.05873(15)
H7 H 0.1120 0.1662 0.0072
H8 H 0.1719 0.2045 0.0779
C7 C -0.0239(3) 0.1941(2) 0.08407(16)
H9 H -0.0352 0.2601 0.0735
H10 H -0.0886 0.1593 0.0586
C8 C -0.0389(3) 0.17834(19) 0.16267(16)
C9 C -0.0159(3) 0.07697(19) 0.18357(14)
H11 H -0.0697 0.0389 0.1523
C10 C 0.1255(2) 0.05020(18) 0.16503(14)
C11 C -0.0540(3) 0.0517(2) 0.26060(15)
H12 H -0.0345 0.1047 0.2910
H13 H -0.0015 -0.0003 0.2762
C12 C -0.1950(2) 0.02465(18) 0.27237(14)
C13 C -0.2879(3) 0.10820(18) 0.26684(14)
C14 C -0.2875(3) 0.07288(19) 0.37980(15)
C15 C -0.2137(3) 0.00177(19) 0.35054(14)
C16 C -0.1668(3) -0.0695(2) 0.39185(18)
H14 H -0.1174 -0.1169 0.3721
C17 C -0.1957(3) -0.0687(2) 0.46459(18)
H15 H -0.1657 -0.1164 0.4938
C18 C -0.2682(3) 0.0023(3) 0.49334(16)
H16 H -0.2861 0.0016 0.5419
C19 C -0.3150(3) 0.0745(2) 0.45181(16)
H17 H -0.3633 0.1224 0.4716
C20 C -0.0639(3) 0.2483(2) 0.2062(2)
H18 H -0.0725 0.3088 0.1884
H19 H -0.0730 0.2373 0.2548
C21 C 0.2151(3) 0.1123(2) 0.20918(16)
H20 H 0.1815 0.1197 0.2564
H21 H 0.2227 0.1727 0.1869
H22 H 0.2973 0.0834 0.2118
C22 C 0.3809(3) 0.0790(2) 0.06475(18)
H23 H 0.4502 0.0554 0.0368
H24 H 0.4009 0.0729 0.1144
H25 H 0.3671 0.1438 0.0535
C23 C 0.3892(3) -0.1768(2) -0.01204(18)
C24 C 0.5192(4) -0.2051(3) -0.0345(3)
H26 H 0.5135 -0.2546 -0.0690
H27 H 0.5660 -0.2266 0.0062
H28 H 0.5619 -0.1523 -0.0553
C25 C 0.2461(3) 0.0219(2) -0.03389(16)
C26 C 0.1254(4) -0.0407(3) -0.12829(18)
H29 H 0.1424 0.0143 -0.1562
H30 H 0.0406 -0.0621 -0.1377
H31 H 0.1848 -0.0890 -0.1407
C27 C -0.3395(3) -0.0837(2) 0.21899(16)
C28 C -0.3499(4) -0.1647(3) 0.1694(2)
H32 H -0.4117 -0.2082 0.1872
H33 H -0.2690 -0.1953 0.1657
H34 H -0.3756 -0.1429 0.1232
C29 C -0.3289(3) 0.15078(19) 0.19788(15)
C30 C -0.4235(5) 0.2804(3) 0.1437(2)
H35 H -0.3499 0.3001 0.1175
H36 H -0.4734 0.3343 0.1561
H37 H -0.4732 0.2388 0.1148
loop_
_geom_bond_atom_site_label_1
_geom_bond_atom_site_label_2
_geom_bond_site_symmetry_1
_geom_bond_site_symmetry_2
N1 C13 1_555 1_555
O1 C3 1_555 1_555
O2 C23 1_555 1_555
O3 C25 1_555 1_555
O4 C25 1_555 1_555
O5 C12 1_555 1_555
O6 C27 1_555 1_555
O7 C29 1_555 1_555
O8 C29 1_555 1_555
C1 H1 1_555 1_555
H2 C1 1_555 1_555
C2 C1 1_555 1_555
H3 C2 1_555 1_555
H4 C2 1_555 1_555
C3 C2 1_555 1_555
H5 C3 1_555 1_555
C4 C3 1_555 1_555
C5 C4 1_555 1_555
H6 C5 1_555 1_555
C6 C5 1_555 1_555
H7 C6 1_555 1_555
H8 C6 1_555 1_555
C7 C6 1_555 1_555
H9 C7 1_555 1_555
H10 C7 1_555 1_555
C8 C7 1_555 1_555
C9 C8 1_555 1_555
H11 C9 1_555 1_555
C10 C1 1_555 1_555
C11 C9 1_555 1_555
H12 C11 1_555 1_555
H13 C11 1_555 1_555
C12 C11 1_555 1_555
C13 C12 1_555 1_555
C14 N1 1_555 1_555
C15 C12 1_555 1_555
C16 C15 1_555 1_555
H14 C16 1_555 1_555
C17 C16 1_555 1_555
H15 C17 1_555 1_555
C18 C17 1_555 1_555
H16 C18 1_555 1_555
C19 C14 1_555 1_555
H17 C19 1_555 1_555
C20 C8 1_555 1_555
H18 C20 1_555 1_555
H19 C20 1_555 1_555
C21 C10 1_555 1_555
H20 C21 1_555 1_555
H21 C21 1_555 1_555
H22 C21 1_555 1_555
C22 C4 1_555 1_555
H23 C22 1_555 1_555
H24 C22 1_555 1_555
H25 C22 1_555 1_555
C23 O1 1_555 1_555
C24 C23 1_555 1_555
H26 C24 1_555 1_555
H27 C24 1_555 1_555
H28 C24 1_555 1_555
C25 C4 1_555 1_555
C26 O4 1_555 1_555
H29 C26 1_555 1_555
H30 C26 1_555 1_555
H31 C26 1_555 1_555
C27 O5 1_555 1_555
C28 C27 1_555 1_555
H32 C28 1_555 1_555
H33 C28 1_555 1_555
H34 C28 1_555 1_555
C29 C13 1_555 1_555
C30 O8 1_555 1_555
H35 C30 1_555 1_555
H36 C30 1_555 1_555
H37 C30 1_555 1_555
C5 C10 1_555 1_555
C9 C10 1_555 1_555
C14 C15 1_555 1_555
C18 C19 1_555 1_555

#END
