
#######################################################################
#
#                 Cambridge Crystallographic Data Centre
#                                CCDC 
#
#######################################################################
#
# If this CIF has been generated from an entry in the Cambridge 
# Structural Database, then it will include bibliographic, chemical, 
# crystal, experimental, refinement or atomic coordinate data resulting 
# from the CCDC's data processing and validation procedures.
#
#######################################################################

data_EHABAR
_chemical_formula_moiety         'C22 H20 N2 O2'
_chemical_name_systematic        
3,3'-(p-Phenylene)-bis(3,4-dihydro-2H-1,3-benzoxazine)
_symmetry_cell_setting           monoclinic
_symmetry_space_group_name_H-M   'P 21/c'
_symmetry_Int_Tables_number      14
_space_group_name_Hall           '-P 2ybc'
loop_
_symmetry_equiv_pos_site_id
_symmetry_equiv_pos_as_xyz
1 x,y,z
2 -x,1/2+y,1/2-z
3 -x,-y,-z
4 x,1/2-y,1/2+z
_cell_length_a                   9.191(5)
_cell_length_b                   8.794(4)
_cell_length_c                   11.317(5)
_cell_angle_alpha                90
_cell_angle_beta                 113.90(3)
_cell_angle_gamma                90
_cell_volume                     836.272
_exptl_crystal_colour            colorless
_exptl_crystal_description       block
_cell_formula_units_Z            2
_exptl_crystal_recrystallization_method 'ethyl acetate'
loop_
_atom_site_label
_atom_site_type_symbol
_atom_site_fract_x
_atom_site_fract_y
_atom_site_fract_z
C1 C 0.43532(12) 0.74937(13) -0.05691(12)
H1 H 0.4025 0.6810 -0.0100
C2 C 0.32355(12) 0.81402(14) -0.16802(13)
H2 H 0.2166 0.7884 -0.1960
C3 C 0.37168(13) 0.91652(15) -0.23690(12)
H3 H 0.2968 0.9594 -0.3121
C4 C 0.52981(13) 0.95635(13) -0.19555(11)
H4 H 0.5613 1.0267 -0.2418
C5 C 0.64179(11) 0.89038(11) -0.08403(10)
C6 C 0.59569(11) 0.78485(11) -0.01425(10)
C7 C 0.71934(12) 0.71327(13) 0.10586(11)
H5 H 0.7147 0.7601 0.1819
H6 H 0.6966 0.6058 0.1075
C8 C 0.89981(12) 0.88699(12) 0.08050(12)
H7 H 1.0095 0.9023 0.0928
H8 H 0.8796 0.9520 0.1415
C9 C 0.93646(9) 0.61784(10) 0.05017(9)
C10 C 0.93371(10) 0.46677(11) 0.08570(9)
H9 H 0.8888 0.4429 0.1437
C11 C 1.00414(11) 0.64904(11) -0.03736(10)
H10 H 1.0076 0.7487 -0.0636
N1 N 0.87985(9) 0.73251(10) 0.10900(8)
O1 O 0.79736(9) 0.93289(9) -0.04855(8)
C1B C 1.56468(12) 0.25063(13) 0.05691(12)
H1B H 1.5975 0.3190 0.0100
C2B C 1.67645(12) 0.18598(14) 0.16802(13)
H2B H 1.7834 0.2116 0.1960
C3B C 1.62832(13) 0.08348(15) 0.23690(12)
H3B H 1.7032 0.0406 0.3121
C4B C 1.47019(13) 0.04365(13) 0.19555(11)
H4B H 1.4387 -0.0267 0.2418
C5B C 1.35821(11) 0.10962(11) 0.08403(10)
C6B C 1.40431(11) 0.21515(11) 0.01425(10)
C7B C 1.28066(12) 0.28673(13) -0.10586(11)
H5B H 1.2853 0.2399 -0.1819
H6B H 1.3034 0.3942 -0.1075
C8B C 1.10019(12) 0.11301(12) -0.08050(12)
H7B H 0.9905 0.0977 -0.0928
H8B H 1.1204 0.0480 -0.1415
C9B C 1.06354(9) 0.38216(10) -0.05017(9)
C10B C 1.06629(10) 0.53323(11) -0.08570(9)
H9B H 1.1112 0.5571 -0.1437
C11B C 0.99586(11) 0.35096(11) 0.03736(10)
H10B H 0.9924 0.2513 0.0636
N1B N 1.12015(9) 0.26749(10) -0.10900(8)
O1B O 1.20264(9) 0.06711(9) 0.04855(8)
loop_
_geom_bond_atom_site_label_1
_geom_bond_atom_site_label_2
_geom_bond_site_symmetry_1
_geom_bond_site_symmetry_2
C1 H1 1_555 1_555
C2 C1 1_555 1_555
H2 C2 1_555 1_555
C3 C2 1_555 1_555
H3 C3 1_555 1_555
C4 C3 1_555 1_555
H4 C4 1_555 1_555
C5 C4 1_555 1_555
C6 C1 1_555 1_555
C7 C6 1_555 1_555
H5 C7 1_555 1_555
H6 C7 1_555 1_555
C8 H7 1_555 1_555
H8 C8 1_555 1_555
C9 C10 1_555 1_555
C10 H9 1_555 1_555
C11 C9 1_555 1_555
H10 C11 1_555 1_555
N1 C7 1_555 1_555
O1 C5 1_555 1_555
C1B H1B 1_555 1_555
C2B C1B 1_555 1_555
H2B C2B 1_555 1_555
C3B C2B 1_555 1_555
H3B C3B 1_555 1_555
C4B C3B 1_555 1_555
H4B C4B 1_555 1_555
C5B C4B 1_555 1_555
C6B C1B 1_555 1_555
C7B C6B 1_555 1_555
H5B C7B 1_555 1_555
H6B C7B 1_555 1_555
C8B H7B 1_555 1_555
H8B C8B 1_555 1_555
C9B C10B 1_555 1_555
C10B C11 1_555 1_555
H9B C10B 1_555 1_555
C11B C10 1_555 1_555
H10B C11B 1_555 1_555
N1B C7B 1_555 1_555
O1B C5B 1_555 1_555
C5 C6 1_555 1_555
C8 N1 1_555 1_555
C8 O1 1_555 1_555
C9 N1 1_555 1_555
C5B C6B 1_555 1_555
C8B N1B 1_555 1_555
C8B O1B 1_555 1_555
C9B C11B 1_555 1_555
C9B N1B 1_555 1_555

#END
