
#######################################################################
#
#                 Cambridge Crystallographic Data Centre
#                                CCDC 
#
#######################################################################
#
# If this CIF has been generated from an entry in the Cambridge 
# Structural Database, then it will include bibliographic, chemical, 
# crystal, experimental, refinement or atomic coordinate data resulting 
# from the CCDC's data processing and validation procedures.
#
#######################################################################

data_EHAHAY
_chemical_formula_moiety         'C20 H18 N4 O2'
_chemical_name_systematic        
N-pyridin-3-yl-N\a-(pyridin-3-ylcarbonyl)phenylalaninamide
_symmetry_cell_setting           monoclinic
_symmetry_space_group_name_H-M   'P 21'
_symmetry_Int_Tables_number      4
_space_group_name_Hall           'P 2yb'
loop_
_symmetry_equiv_pos_site_id
_symmetry_equiv_pos_as_xyz
1 x,y,z
2 -x,1/2+y,-z
_cell_length_a                   17.9316(17)
_cell_length_b                   5.1648(5)
_cell_length_c                   18.9905(19)
_cell_angle_alpha                90
_cell_angle_beta                 103.643(3)
_cell_angle_gamma                90
_cell_volume                     1709.14
_exptl_crystal_colour            colorless
_exptl_crystal_description       plate
_cell_formula_units_Z            4
loop_
_atom_site_label
_atom_site_type_symbol
_atom_site_fract_x
_atom_site_fract_y
_atom_site_fract_z
O1 O 0.74918(14) 0.5513(5) 0.85774(14)
C1 C 0.76005(16) 0.7741(7) 0.84091(15)
N1 N 0.72551(17) 0.9800(6) 0.86290(16)
C2 C 0.67225(17) 0.9703(7) 0.90715(16)
C3 C 0.6166(3) 1.1507(11) 0.8978(3)
H1 H 0.6147 1.2731 0.8615
N2 N 0.5638(3) 1.1665(10) 0.9370(3)
C4 C 0.5684(3) 0.9896(11) 0.9888(2)
H2 H 0.5329 0.9956 1.0174
C5 C 0.6217(2) 0.8035(11) 1.0014(2)
H3 H 0.6227 0.6827 1.0379
C6 C 0.6750(2) 0.7921(10) 0.95986(19)
H4 H 0.7124 0.6637 0.9680
C7 C 0.81525(15) 0.8347(6) 0.79283(14)
H5 H 0.8335 1.0132 0.8020
C8 C 0.88382(15) 0.6526(7) 0.81101(16)
H6 H 0.9087 0.6719 0.8619
H7 H 0.8654 0.4758 0.8036
C9 C 0.94244(16) 0.6964(7) 0.76710(16)
C10 C 0.99548(18) 0.8935(9) 0.78412(19)
H8 H 0.9942 1.0041 0.8225
C11 C 1.05103(18) 0.9291(10) 0.7444(2)
H9 H 1.0864 1.0631 0.7561
C12 C 1.05300(19) 0.7649(9) 0.68812(19)
H10 H 1.0906 0.7844 0.6622
C13 C 1.0004(2) 0.5755(9) 0.6705(2)
H11 H 1.0014 0.4663 0.6318
C14 C 0.9451(2) 0.5411(9) 0.70898(19)
H12 H 0.9088 0.4105 0.6954
N3 N 0.77372(15) 0.8121(6) 0.71736(14)
C15 C 0.74346(17) 1.0187(7) 0.67856(17)
O2 O 0.75024(15) 1.2389(5) 0.70385(13)
C16 C 0.69914(16) 0.9737(7) 0.60265(16)
C17 C 0.71333(19) 0.7719(8) 0.55971(17)
H13 H 0.7518 0.6535 0.5789
N4 N 0.6726(2) 0.7425(8) 0.49045(17)
C18 C 0.6162(3) 0.9149(10) 0.4659(2)
H14 H 0.5876 0.8967 0.4185
C19 C 0.5982(2) 1.1140(10) 0.5058(2)
H15 H 0.5578 1.2258 0.4868
C20 C 0.64108(18) 1.1430(8) 0.57370(18)
H16 H 0.6311 1.2808 0.6016
H17 H 0.7622(18) 0.659(8) 0.7016(17)
H18 H 0.7316(19) 1.124(8) 0.8490(18)
O3 O 0.25388(15) 0.9602(5) 0.68536(12)
C21 C 0.26735(17) 0.7359(7) 0.70506(16)
N5 N 0.24370(16) 0.5306(6) 0.66272(15)
C22 C 0.19569(17) 0.5407(7) 0.59080(16)
C23 C 0.14086(18) 0.3521(7) 0.56935(18)
H19 H 0.1342 0.2217 0.6011
C24 C 0.0962(2) 0.3611(9) 0.4999(2)
H20 H 0.0579 0.2384 0.4840
C25 C 0.1086(2) 0.5521(9) 0.4546(2)
H21 H 0.0784 0.5540 0.4075
N6 N 0.16124(19) 0.7359(7) 0.47369(16)
C26 C 0.2047(2) 0.7271(8) 0.54192(17)
H22 H 0.2425 0.8523 0.5565
C27 C 0.31101(15) 0.6736(7) 0.78203(14)
H23 H 0.3281 0.4929 0.7841
C28 C 0.38070(16) 0.8481(7) 0.80718(16)
H24 H 0.3642 1.0274 0.8029
H25 H 0.4036 0.8137 0.8579
C29 C 0.44049(16) 0.8076(8) 0.76366(16)
C30 C 0.4942(2) 0.6191(13) 0.7815(2)
H26 H 0.4949 0.5124 0.8211
C31 C 0.5486(2) 0.5854(15) 0.7405(3)
H27 H 0.5855 0.4565 0.7535
C32 C 0.5491(2) 0.7319(11) 0.6835(2)
H28 H 0.5857 0.7077 0.6567
C33 C 0.4962(3) 0.9130(12) 0.6656(3)
H29 H 0.4954 1.0149 0.6250
C34 C 0.4423(2) 0.9554(11) 0.7052(2)
H30 H 0.4066 1.0877 0.6917
N7 N 0.25804(15) 0.7057(5) 0.82911(15)
C35 C 0.22280(17) 0.5056(7) 0.85156(16)
O4 O 0.23219(14) 0.2819(5) 0.83404(14)
C36 C 0.17091(16) 0.5654(7) 0.90042(15)
C37 C 0.1108(2) 0.4019(9) 0.8996(2)
H31 H 0.1039 0.2625 0.8677
N8 N 0.0612(2) 0.4302(9) 0.9420(2)
C38 C 0.0738(2) 0.6257(10) 0.9879(2)
H32 H 0.0414 0.6453 1.0192
C39 C 0.1307(2) 0.7986(11) 0.9919(2)
H33 H 0.1365 0.9356 1.0246
C40 C 0.1804(2) 0.7693(9) 0.94664(19)
H34 H 0.2198 0.8878 0.9479
H35 H 0.243(2) 0.864(9) 0.8373(19)
H36 H 0.249(2) 0.380(10) 0.681(2)
loop_
_geom_bond_atom_site_label_1
_geom_bond_atom_site_label_2
_geom_bond_site_symmetry_1
_geom_bond_site_symmetry_2
O1 C1 1_555 1_555
C1 N1 1_555 1_555
N1 C2 1_555 1_555
C2 C3 1_555 1_555
C3 H1 1_555 1_555
N2 C3 1_555 1_555
C4 N2 1_555 1_555
H2 C4 1_555 1_555
C5 C4 1_555 1_555
H3 C5 1_555 1_555
C6 C2 1_555 1_555
H4 C6 1_555 1_555
C7 C1 1_555 1_555
H5 C7 1_555 1_555
C8 C7 1_555 1_555
H6 C8 1_555 1_555
H7 C8 1_555 1_555
C9 C8 1_555 1_555
C10 C9 1_555 1_555
H8 C10 1_555 1_555
C11 C10 1_555 1_555
H9 C11 1_555 1_555
C12 C11 1_555 1_555
H10 C12 1_555 1_555
C13 C12 1_555 1_555
H11 C13 1_555 1_555
C14 C9 1_555 1_555
H12 C14 1_555 1_555
N3 C7 1_555 1_555
C15 N3 1_555 1_555
O2 C15 1_555 1_555
C16 C15 1_555 1_555
C17 C16 1_555 1_555
H13 C17 1_555 1_555
N4 C17 1_555 1_555
C18 N4 1_555 1_555
H14 C18 1_555 1_555
C19 C18 1_555 1_555
H15 C19 1_555 1_555
C20 C16 1_555 1_555
H16 C20 1_555 1_555
H17 N3 1_555 1_555
H18 N1 1_555 1_555
O3 C21 1_555 1_555
C21 N5 1_555 1_555
N5 C22 1_555 1_555
C22 C23 1_555 1_555
C23 H19 1_555 1_555
C24 C23 1_555 1_555
H20 C24 1_555 1_555
C25 C24 1_555 1_555
H21 C25 1_555 1_555
N6 C25 1_555 1_555
C26 C22 1_555 1_555
H22 C26 1_555 1_555
C27 C21 1_555 1_555
H23 C27 1_555 1_555
C28 C27 1_555 1_555
H24 C28 1_555 1_555
H25 C28 1_555 1_555
C29 C28 1_555 1_555
C30 C29 1_555 1_555
H26 C30 1_555 1_555
C31 C30 1_555 1_555
H27 C31 1_555 1_555
C32 C31 1_555 1_555
H28 C32 1_555 1_555
C33 C32 1_555 1_555
H29 C33 1_555 1_555
C34 C29 1_555 1_555
H30 C34 1_555 1_555
N7 C27 1_555 1_555
C35 N7 1_555 1_555
O4 C35 1_555 1_555
C36 C35 1_555 1_555
C37 C36 1_555 1_555
H31 C37 1_555 1_555
N8 C37 1_555 1_555
C38 N8 1_555 1_555
H32 C38 1_555 1_555
C39 C38 1_555 1_555
H33 C39 1_555 1_555
C40 C36 1_555 1_555
H34 C40 1_555 1_555
H35 N7 1_555 1_555
H36 N5 1_555 1_555
C5 C6 1_555 1_555
C13 C14 1_555 1_555
C19 C20 1_555 1_555
N6 C26 1_555 1_555
C33 C34 1_555 1_555
C39 C40 1_555 1_555

#END
