
#######################################################################
#
#                 Cambridge Crystallographic Data Centre
#                                CCDC 
#
#######################################################################
#
# If this CIF has been generated from an entry in the Cambridge 
# Structural Database, then it will include bibliographic, chemical, 
# crystal, experimental, refinement or atomic coordinate data resulting 
# from the CCDC's data processing and validation procedures.
#
#######################################################################

data_EHAHEC
_chemical_formula_moiety         'C14 H14 N4 O2'
_chemical_name_systematic        
N-(1-oxo-1-(pyridin-3-ylamino)propan-2-yl)isonicotinamide
_symmetry_cell_setting           monoclinic
_symmetry_space_group_name_H-M   'P 21'
_symmetry_Int_Tables_number      4
_space_group_name_Hall           'P 2yb'
loop_
_symmetry_equiv_pos_site_id
_symmetry_equiv_pos_as_xyz
1 x,y,z
2 -x,1/2+y,-z
_cell_length_a                   7.9724(5)
_cell_length_b                   8.8830(5)
_cell_length_c                   9.6390(6)
_cell_angle_alpha                90
_cell_angle_beta                 110.274(2)
_cell_angle_gamma                90
_cell_volume                     640.332
_exptl_crystal_colour            colorless
_exptl_crystal_description       plate
_cell_formula_units_Z            2
loop_
_atom_site_label
_atom_site_type_symbol
_atom_site_fract_x
_atom_site_fract_y
_atom_site_fract_z
N1 N -0.0704(2) 0.0591(2) 0.8893(2)
C1 C 0.0220(3) 0.1854(3) 0.9379(2)
H1 H 0.0166 0.2284 1.0242
C2 C 0.1253(3) 0.2565(3) 0.8681(2)
H2 H 0.1866 0.3447 0.9064
C3 C 0.1355(3) 0.1934(3) 0.7396(2)
C4 C 0.0384(3) 0.0636(3) 0.6869(2)
H3 H 0.0399 0.0190 0.6001
C5 C -0.0611(3) 0.0009(3) 0.7648(2)
H4 H -0.1249 -0.0868 0.7282
C6 C 0.2399(3) 0.2649(3) 0.6537(2)
O1 O 0.18781(18) 0.25748(19) 0.51761(16)
N2 N 0.3895(2) 0.3383(2) 0.73246(19)
H5 H 0.4284 0.3328 0.8274
C7 C 0.4863(3) 0.4272(3) 0.6585(2)
H6 H 0.4063 0.5053 0.5996
C8 C 0.6479(3) 0.5030(3) 0.7711(2)
H7 H 0.6100 0.5601 0.8396
H8 H 0.7032 0.5690 0.7208
H9 H 0.7322 0.4277 0.8239
C9 C 0.5492(3) 0.3300(3) 0.5558(2)
O2 O 0.60236(19) 0.20070(18) 0.58601(16)
N3 N 0.5493(2) 0.4050(2) 0.4330(2)
H10 H 0.5139 0.4971 0.4233
C10 C 0.6031(3) 0.3429(3) 0.3204(2)
C11 C 0.7476(3) 0.2461(3) 0.3490(3)
H11 H 0.8162 0.2205 0.4456
C12 C 0.7873(3) 0.1890(3) 0.2314(2)
H12 H 0.8825 0.1228 0.2471
C13 C 0.6837(3) 0.2311(3) 0.0898(2)
H13 H 0.7096 0.1895 0.0110
N4 N 0.5480(2) 0.3286(2) 0.0599(2)
C14 C 0.5098(3) 0.3825(3) 0.1749(3)
H14 H 0.4155 0.4501 0.1563
loop_
_geom_bond_atom_site_label_1
_geom_bond_atom_site_label_2
_geom_bond_site_symmetry_1
_geom_bond_site_symmetry_2
N1 C1 1_555 1_555
C1 H1 1_555 1_555
C2 C1 1_555 1_555
H2 C2 1_555 1_555
C3 C2 1_555 1_555
C4 C3 1_555 1_555
H3 C4 1_555 1_555
C5 N1 1_555 1_555
H4 C5 1_555 1_555
C6 C3 1_555 1_555
O1 C6 1_555 1_555
N2 C6 1_555 1_555
H5 N2 1_555 1_555
C7 N2 1_555 1_555
H6 C7 1_555 1_555
C8 C7 1_555 1_555
H7 C8 1_555 1_555
H8 C8 1_555 1_555
H9 C8 1_555 1_555
C9 C7 1_555 1_555
O2 C9 1_555 1_555
N3 C9 1_555 1_555
H10 N3 1_555 1_555
C10 N3 1_555 1_555
C11 C10 1_555 1_555
H11 C11 1_555 1_555
C12 C11 1_555 1_555
H12 C12 1_555 1_555
C13 C12 1_555 1_555
H13 C13 1_555 1_555
N4 C13 1_555 1_555
C14 C10 1_555 1_555
H14 C14 1_555 1_555
C4 C5 1_555 1_555
N4 C14 1_555 1_555

#END
