
#######################################################################
#
#                 Cambridge Crystallographic Data Centre
#                                CCDC 
#
#######################################################################
#
# If this CIF has been generated from an entry in the Cambridge 
# Structural Database, then it will include bibliographic, chemical, 
# crystal, experimental, refinement or atomic coordinate data resulting 
# from the CCDC's data processing and validation procedures.
#
#######################################################################

data_EHASIQ
_chemical_compound_source        
'stems of Picrasma quazzioides Bennet (Simaroubaceae)'
_chemical_name_common            'Quassidine B methanol solvate'
_chemical_formula_moiety         'C27 H24 N4 O3,C1 H4 O1'
_chemical_name_systematic        
'1-(9H-\b-Carbolin-1-yl)-3-(4,8-dimethoxy-9H-\b-carbolin-1-yl)propan-1-ol methanol solvate'
_chemical_properties_biological  
'Tested for anti-inflammatory activity, and found to be cytotoxic against the test medium'
_symmetry_cell_setting           triclinic
_symmetry_space_group_name_H-M   'P -1'
_symmetry_Int_Tables_number      2
_space_group_name_Hall           '-P 1'
loop_
_symmetry_equiv_pos_site_id
_symmetry_equiv_pos_as_xyz
1 x,y,z
2 -x,-y,-z
_cell_length_a                   6.3318(8)
_cell_length_b                   13.7667(18)
_cell_length_c                   13.9124(10)
_cell_angle_alpha                90.472(8)
_cell_angle_beta                 90.815(8)
_cell_angle_gamma                91.818(10)
_cell_volume                     1211.94
_exptl_crystal_colour            colorless
_exptl_crystal_description       needle
_chemical_melting_point          '246 deg.C'
_cell_formula_units_Z            2
_exptl_crystal_recrystallization_method chloroform/methanol
loop_
_atom_site_label
_atom_site_type_symbol
_atom_site_fract_x
_atom_site_fract_y
_atom_site_fract_z
O1 O 0.3220(2) 0.31985(13) 0.95144(10)
O2 O -0.4133(3) 0.43824(14) 0.63040(11)
O3 O 0.6377(3) 0.08447(13) 0.48592(11)
H1 H 0.6362 0.0564 0.5377
C1 C 0.2699(3) 0.21476(19) 0.67082(16)
N1 N 0.4240(3) 0.18464(16) 0.72899(13)
C2 C 0.4479(4) 0.2193(2) 0.81980(16)
H3 H 0.5609 0.1985 0.8569
C3 C 0.3118(4) 0.28430(18) 0.85998(15)
C4 C -0.0955(4) 0.43225(19) 0.89757(15)
H4 H -0.0224 0.4310 0.9560
C5 C -0.2754(4) 0.48427(19) 0.88757(16)
H5 H -0.3252 0.5178 0.9405
C6 C -0.3871(4) 0.48841(19) 0.79955(16)
H6 H -0.5085 0.5246 0.7952
C7 C -0.3179(4) 0.43910(19) 0.71939(16)
C8 C -0.1356(4) 0.38490(18) 0.72909(15)
C9 C -0.0246(4) 0.38087(19) 0.81727(15)
C10 C 0.1470(3) 0.31763(18) 0.80159(15)
C11 C 0.1314(3) 0.28379(18) 0.70608(15)
N2 N -0.0404(3) 0.32598(15) 0.66215(13)
H7 H -0.0810 0.3171 0.6034
C12 C 0.4850(4) 0.2836(2) 1.01270(17)
H8 H 0.4775 0.3136 1.0751
H9 H 0.6205 0.2985 0.9854
H10 H 0.4662 0.2145 1.0186
C13 C -0.5970(4) 0.4952(2) 0.62027(18)
H11 H -0.6503 0.4899 0.5554
H12 H -0.5607 0.5620 0.6348
H13 H -0.7033 0.4721 0.6637
C15 C 0.7559(4) 0.2355(2) 0.42816(16)
N3 N 0.8711(3) 0.31230(17) 0.45647(13)
C16 C 0.9908(4) 0.3613(2) 0.39194(17)
H17 H 1.0682 0.4160 0.4134
C17 C 1.0050(4) 0.3353(2) 0.29645(17)
H18 H 1.0882 0.3715 0.2545
C18 C 0.9641(4) 0.2096(2) 0.08579(16)
H19 H 1.0560 0.2619 0.0735
C19 C 0.9176(4) 0.1406(2) 0.01616(17)
H20 H 0.9793 0.1461 -0.0439
C20 C 0.7791(4) 0.0627(2) 0.03461(18)
H21 H 0.7508 0.0168 -0.0136
C21 C 0.6823(4) 0.0515(2) 0.12263(17)
H22 H 0.5888 -0.0005 0.1340
C22 C 0.7303(4) 0.1210(2) 0.19322(16)
C23 C 0.8700(4) 0.1994(2) 0.17563(16)
C24 C 0.8908(4) 0.25335(19) 0.26532(15)
C25 C 0.7622(4) 0.2030(2) 0.33163(16)
N4 N 0.6643(3) 0.12503(16) 0.28729(13)
H23 H 0.5761 0.0849 0.3135
C26 C 0.2474(4) 0.1705(2) 0.57171(16)
H24 H 0.1018 0.1755 0.5502
H25 H 0.2770 0.1019 0.5757
C27 C 0.3917(4) 0.2169(2) 0.49585(16)
H26 H 0.3340 0.2011 0.4325
H27 H 0.3913 0.2870 0.5036
C28 C 0.6199(4) 0.18414(19) 0.50140(16)
H28 H 0.6771 0.2002 0.5656
O4 O 0.6454(3) 0.02705(14) 0.67738(12)
H2 H 0.5877 0.0756 0.6973
C14 C 0.8436(4) 0.0175(3) 0.7264(2)
H14 H 0.9210 -0.0331 0.6964
H15 H 0.8192 0.0013 0.7924
H16 H 0.9236 0.0777 0.7234
loop_
_geom_bond_atom_site_label_1
_geom_bond_atom_site_label_2
_geom_bond_site_symmetry_1
_geom_bond_site_symmetry_2
O1 C3 1_555 1_555
O2 C7 1_555 1_555
O3 H1 1_555 1_555
O4 H2 1_555 1_555
C1 N1 1_555 1_555
N1 C2 1_555 1_555
C2 H3 1_555 1_555
C3 C2 1_555 1_555
C4 H4 1_555 1_555
C5 C4 1_555 1_555
H5 C5 1_555 1_555
C6 C5 1_555 1_555
H6 C6 1_555 1_555
C7 C6 1_555 1_555
C8 C7 1_555 1_555
C9 C4 1_555 1_555
C10 C3 1_555 1_555
C11 C1 1_555 1_555
N2 C8 1_555 1_555
H7 N2 1_555 1_555
C12 O1 1_555 1_555
H8 C12 1_555 1_555
H9 C12 1_555 1_555
H10 C12 1_555 1_555
C13 O2 1_555 1_555
H11 C13 1_555 1_555
H12 C13 1_555 1_555
H13 C13 1_555 1_555
C14 O4 1_555 1_555
H14 C14 1_555 1_555
H15 C14 1_555 1_555
H16 C14 1_555 1_555
C15 N3 1_555 1_555
N3 C16 1_555 1_555
C16 H17 1_555 1_555
C17 C16 1_555 1_555
H18 C17 1_555 1_555
C18 H19 1_555 1_555
C19 C18 1_555 1_555
H20 C19 1_555 1_555
C20 C19 1_555 1_555
H21 C20 1_555 1_555
C21 C20 1_555 1_555
H22 C21 1_555 1_555
C22 C21 1_555 1_555
C23 C18 1_555 1_555
C24 C17 1_555 1_555
C25 C15 1_555 1_555
N4 C22 1_555 1_555
H23 N4 1_555 1_555
C26 C1 1_555 1_555
H24 C26 1_555 1_555
H25 C26 1_555 1_555
C27 C26 1_555 1_555
H26 C27 1_555 1_555
H27 C27 1_555 1_555
C28 O3 1_555 1_555
H28 C28 1_555 1_555
C8 C9 1_555 1_555
C9 C10 1_555 1_555
C10 C11 1_555 1_555
C11 N2 1_555 1_555
C15 C28 1_555 1_555
C22 C23 1_555 1_555
C23 C24 1_555 1_555
C24 C25 1_555 1_555
C25 N4 1_555 1_555
C27 C28 1_555 1_555

#END
