
#######################################################################
#
#                 Cambridge Crystallographic Data Centre
#                                CCDC 
#
#######################################################################
#
# If this CIF has been generated from an entry in the Cambridge 
# Structural Database, then it will include bibliographic, chemical, 
# crystal, experimental, refinement or atomic coordinate data resulting 
# from the CCDC's data processing and validation procedures.
#
#######################################################################

data_EHASEM
_chemical_compound_source        
'stems of Picrasma quazzioides Bennet (Simaroubaceae)'
_chemical_name_common            'Quassidine A'
_chemical_formula_moiety         'C29 H26 N4 O3'
_chemical_name_systematic        
4,8-Dimethoxy-1-(2-(4-methoxy-9H-\b-carbolin-1-yl)cyclobutyl)-9H-\b-carboline
_chemical_properties_biological  'weak anti-inflammatory activity'
_symmetry_cell_setting           monoclinic
_symmetry_space_group_name_H-M   'P 21/c'
_symmetry_Int_Tables_number      14
_space_group_name_Hall           '-P 2ybc'
loop_
_symmetry_equiv_pos_site_id
_symmetry_equiv_pos_as_xyz
1 x,y,z
2 -x,1/2+y,1/2-z
3 -x,-y,-z
4 x,1/2-y,1/2+z
_cell_length_a                   12.151(2)
_cell_length_b                   8.4812(17)
_cell_length_c                   22.796(5)
_cell_angle_alpha                90
_cell_angle_beta                 91.48(3)
_cell_angle_gamma                90
_cell_volume                     2348.46
_exptl_crystal_colour            colorless
_exptl_crystal_description       block
_chemical_melting_point          '309 deg.C'
_cell_formula_units_Z            4
_exptl_crystal_recrystallization_method chloroform/methanol
loop_
_atom_site_label
_atom_site_type_symbol
_atom_site_fract_x
_atom_site_fract_y
_atom_site_fract_z
O1 O 0.86235(11) 0.64355(15) -0.19202(6)
O2 O 1.05655(12) 0.17150(17) 0.02191(7)
N1 N 0.86520(13) 0.29566(19) -0.03569(7)
H1 H 0.8454 0.2344 -0.0078
C1 C 0.79557(17) 0.3803(2) -0.07243(8)
C2 C 0.68010(16) 0.3784(2) -0.07500(8)
N2 N 0.62863(13) 0.47250(18) -0.11389(7)
C3 C 0.68751(17) 0.5616(2) -0.15148(9)
H2 H 0.6490 0.6271 -0.1775
C4 C 0.80107(16) 0.5607(2) -0.15334(8)
C5 C 0.85838(16) 0.4661(2) -0.11223(8)
C6 C 0.97236(17) 0.4297(2) -0.09960(9)
C7 C 1.07293(17) 0.4700(2) -0.12486(9)
H3 H 1.0751 0.5380 -0.1568
C8 C 1.16803(18) 0.4058(2) -0.10094(10)
H4 H 1.2348 0.4292 -0.1179
C9 C 1.16751(17) 0.3065(2) -0.05193(11)
H5 H 1.2336 0.2670 -0.0366
C10 C 1.06942(18) 0.2665(2) -0.02609(9)
C11 C 0.97228(16) 0.3260(2) -0.05127(9)
C12 C 0.61540(16) 0.2679(2) -0.03735(9)
H6 H 0.6519 0.1648 -0.0374
C13 C 0.49093(17) 0.2415(2) -0.04889(9)
H7 H 0.4533 0.3313 -0.0665
H8 H 0.4737 0.1453 -0.0702
C14 C 0.80299(19) 0.7223(3) -0.23886(9)
H9 H 0.8540 0.7765 -0.2632
H10 H 0.7527 0.7970 -0.2227
H11 H 0.7626 0.6461 -0.2619
C15 C 1.15469(19) 0.1126(3) 0.04988(10)
H12 H 1.1357 0.0480 0.0827
H13 H 1.1993 0.1994 0.0633
H14 H 1.1950 0.0509 0.0224
C16 C 0.97618(18) 0.0232(3) 0.19479(10)
H15 H 1.0198 -0.0002 0.2294
H16 H 1.0196 0.0820 0.1678
H17 H 0.9521 -0.0734 0.1766
O3 O 0.88226(12) 0.11464(17) 0.21047(6)
N3 N 0.57549(14) 0.40795(19) 0.15566(7)
H18 H 0.5234 0.4527 0.1356
C17 C 0.65238(16) 0.3045(2) 0.13389(8)
C18 C 0.66671(16) 0.2566(2) 0.07555(9)
N4 N 0.75088(14) 0.1626(2) 0.06373(7)
C19 C 0.82198(18) 0.1135(2) 0.10739(9)
H19 H 0.8799 0.0476 0.0977
C20 C 0.81177(17) 0.1576(2) 0.16562(9)
C21 C 0.72428(17) 0.2569(2) 0.17959(8)
C22 C 0.68935(16) 0.3354(2) 0.23198(8)
C23 C 0.72595(18) 0.3375(2) 0.29104(9)
H20 H 0.7873 0.2795 0.3033
C24 C 0.66850(19) 0.4278(2) 0.33030(9)
H21 H 0.6918 0.4297 0.3695
C25 C 0.57625(19) 0.5166(3) 0.31284(9)
H22 H 0.5394 0.5755 0.3406
C26 C 0.53899(18) 0.5184(2) 0.25524(9)
H23 H 0.4780 0.5779 0.2435
C27 C 0.59642(17) 0.4273(2) 0.21503(9)
C28 C 0.59087(16) 0.3116(2) 0.02714(8)
H24 H 0.5799 0.4257 0.0303
C29 C 0.47716(17) 0.2280(3) 0.01805(9)
H25 H 0.4759 0.1202 0.0323
H26 H 0.4156 0.2878 0.0326
loop_
_geom_bond_atom_site_label_1
_geom_bond_atom_site_label_2
_geom_bond_site_symmetry_1
_geom_bond_site_symmetry_2
O1 C4 1_555 1_555
O2 C10 1_555 1_555
N1 H1 1_555 1_555
C1 N1 1_555 1_555
C2 C1 1_555 1_555
N2 C2 1_555 1_555
C3 N2 1_555 1_555
H2 C3 1_555 1_555
C4 C3 1_555 1_555
C5 C1 1_555 1_555
C6 C5 1_555 1_555
C7 C6 1_555 1_555
H3 C7 1_555 1_555
C8 C7 1_555 1_555
H4 C8 1_555 1_555
C9 C8 1_555 1_555
H5 C9 1_555 1_555
C10 C9 1_555 1_555
C11 N1 1_555 1_555
C12 C2 1_555 1_555
H6 C12 1_555 1_555
C13 C12 1_555 1_555
H7 C13 1_555 1_555
H8 C13 1_555 1_555
C14 O1 1_555 1_555
H9 C14 1_555 1_555
H10 C14 1_555 1_555
H11 C14 1_555 1_555
C15 O2 1_555 1_555
H12 C15 1_555 1_555
H13 C15 1_555 1_555
H14 C15 1_555 1_555
C16 H15 1_555 1_555
H16 C16 1_555 1_555
H17 C16 1_555 1_555
O3 C16 1_555 1_555
N3 H18 1_555 1_555
C17 N3 1_555 1_555
C18 C17 1_555 1_555
N4 C18 1_555 1_555
C19 N4 1_555 1_555
H19 C19 1_555 1_555
C20 O3 1_555 1_555
C21 C17 1_555 1_555
C22 C21 1_555 1_555
C23 C22 1_555 1_555
H20 C23 1_555 1_555
C24 C23 1_555 1_555
H21 C24 1_555 1_555
C25 C24 1_555 1_555
H22 C25 1_555 1_555
C26 C25 1_555 1_555
H23 C26 1_555 1_555
C27 N3 1_555 1_555
C28 C12 1_555 1_555
H24 C28 1_555 1_555
C29 C13 1_555 1_555
H25 C29 1_555 1_555
H26 C29 1_555 1_555
C4 C5 1_555 1_555
C6 C11 1_555 1_555
C10 C11 1_555 1_555
C18 C28 1_555 1_555
C19 C20 1_555 1_555
C20 C21 1_555 1_555
C22 C27 1_555 1_555
C26 C27 1_555 1_555
C28 C29 1_555 1_555

#END
