
#######################################################################
#
#                 Cambridge Crystallographic Data Centre
#                                CCDC 
#
#######################################################################
#
# If this CIF has been generated from an entry in the Cambridge 
# Structural Database, then it will include bibliographic, chemical, 
# crystal, experimental, refinement or atomic coordinate data resulting 
# from the CCDC's data processing and validation procedures.
#
#######################################################################

data_EHATEO
_chemical_formula_moiety         'C22 H32 O2'
_chemical_name_systematic        
'3,7,7-Trimethyl-15-methylenetetracyclo[11.2.1.0^2,11^.0^3,8^]hexadec-2(11)-en-16-yl acetate'
_symmetry_cell_setting           monoclinic
_symmetry_space_group_name_H-M   'P 21'
_symmetry_Int_Tables_number      4
_space_group_name_Hall           'P 2yb'
loop_
_symmetry_equiv_pos_site_id
_symmetry_equiv_pos_as_xyz
1 x,y,z
2 -x,1/2+y,-z
_cell_length_a                   7.0843(6)
_cell_length_b                   18.1527(6)
_cell_length_c                   7.4623(4)
_cell_angle_alpha                90
_cell_angle_beta                 106.341(7)
_cell_angle_gamma                90
_cell_volume                     920.88
_cell_formula_units_Z            2
loop_
_atom_site_label
_atom_site_type_symbol
_atom_site_fract_x
_atom_site_fract_y
_atom_site_fract_z
O1 O -0.46524(16) -0.16297(6) -0.10672(16)
O2 O -0.5500(2) -0.05863(7) -0.27224(18)
C1 C -0.5594(2) -0.12432(10) -0.2605(2)
C2 C -0.3200(2) -0.16903(9) 0.2253(2)
H1 H -0.4353 -0.2005 0.2268
C3 C -0.3674(2) -0.11865(10) 0.0550(2)
H2 H -0.4500 -0.0758 0.0705
C4 C -0.0846(2) -0.04120(9) 0.2176(2)
C5 C -0.6801(3) -0.17407(11) -0.4103(3)
H3 H -0.7750 -0.2012 -0.3619
H4 H -0.5934 -0.2090 -0.4485
H5 H -0.7507 -0.1445 -0.5182
C6 C 0.2960(2) 0.12032(9) 0.3863(2)
C7 C 0.1856(2) 0.00536(9) 0.0853(2)
H6 H 0.2667 -0.0360 0.1519
H7 H 0.1160 -0.0118 -0.0421
C8 C -0.0464(2) -0.16676(9) 0.0897(2)
C9 C 0.4305(2) 0.09796(9) 0.2647(2)
H8 H 0.5103 0.1412 0.2505
H9 H 0.5222 0.0592 0.3309
C10 C 0.0105(3) 0.06874(9) 0.5063(2)
H10 H 0.0830 0.0924 0.6253
H11 H -0.0982 0.1019 0.4412
C11 C -0.1603(2) -0.09435(9) 0.0529(2)
H12 H -0.1593 -0.0717 -0.0690
C12 C 0.3208(3) 0.06961(9) 0.0714(2)
H13 H 0.4167 0.0531 0.0055
H14 H 0.2416 0.1100 -0.0022
C13 C -0.1339(2) -0.05403(9) 0.3753(2)
C14 C 0.0329(2) 0.02624(9) 0.1882(2)
C15 C -0.1483(3) -0.21576(9) 0.1993(3)
H15 H -0.0569 -0.2292 0.3217
H16 H -0.1975 -0.2614 0.1290
C16 C -0.2605(3) -0.11867(10) 0.3977(2)
H17 H -0.3810 -0.0997 0.4239
H18 H -0.1877 -0.1482 0.5069
C17 C 0.4298(3) 0.13068(10) 0.5874(2)
H19 H 0.5391 0.1636 0.5858
H20 H 0.4819 0.0828 0.6389
H21 H 0.3533 0.1523 0.6651
C18 C 0.1950(3) 0.19428(9) 0.3211(3)
H22 H 0.1310 0.1923 0.1864
H23 H 0.2934 0.2337 0.3480
H24 H 0.0961 0.2040 0.3873
C19 C -0.0724(3) -0.00492(9) 0.5455(2)
H25 H 0.0282 -0.0308 0.6447
H26 H -0.1877 0.0041 0.5927
C20 C 0.1495(2) 0.05622(9) 0.3842(2)
H27 H 0.2347 0.0141 0.4449
C21 C -0.1194(3) 0.07994(9) 0.0650(2)
H28 H -0.1960 0.1030 0.1405
H29 H -0.2078 0.0527 -0.0383
H30 H -0.0506 0.1181 0.0148
C22 C 0.1086(3) -0.18490(11) 0.0333(3)
H31 H 0.1660 -0.2323 0.0608
H32 H 0.1624 -0.1505 -0.0348
loop_
_geom_bond_atom_site_label_1
_geom_bond_atom_site_label_2
_geom_bond_site_symmetry_1
_geom_bond_site_symmetry_2
O1 C1 1_555 1_555
O2 C1 1_555 1_555
C1 C5 1_555 1_555
C2 H1 1_555 1_555
C3 O1 1_555 1_555
H2 C3 1_555 1_555
C4 C11 1_555 1_555
C5 H3 1_555 1_555
H4 C5 1_555 1_555
H5 C5 1_555 1_555
C6 C9 1_555 1_555
C7 H6 1_555 1_555
H7 C7 1_555 1_555
C8 C11 1_555 1_555
C9 H8 1_555 1_555
H9 C9 1_555 1_555
C10 H10 1_555 1_555
H11 C10 1_555 1_555
C11 C3 1_555 1_555
H12 C11 1_555 1_555
C12 C7 1_555 1_555
H13 C12 1_555 1_555
H14 C12 1_555 1_555
C13 C4 1_555 1_555
C14 C4 1_555 1_555
C15 C2 1_555 1_555
H15 C15 1_555 1_555
H16 C15 1_555 1_555
C16 C2 1_555 1_555
H17 C16 1_555 1_555
H18 C16 1_555 1_555
C17 C6 1_555 1_555
H19 C17 1_555 1_555
H20 C17 1_555 1_555
H21 C17 1_555 1_555
C18 C6 1_555 1_555
H22 C18 1_555 1_555
H23 C18 1_555 1_555
H24 C18 1_555 1_555
C19 C10 1_555 1_555
H25 C19 1_555 1_555
H26 C19 1_555 1_555
C20 C6 1_555 1_555
H27 C20 1_555 1_555
C21 C14 1_555 1_555
H28 C21 1_555 1_555
H29 C21 1_555 1_555
H30 C21 1_555 1_555
C22 C8 1_555 1_555
H31 C22 1_555 1_555
H32 C22 1_555 1_555
C2 C3 1_555 1_555
C7 C14 1_555 1_555
C8 C15 1_555 1_555
C9 C12 1_555 1_555
C10 C20 1_555 1_555
C13 C16 1_555 1_555
C13 C19 1_555 1_555
C14 C20 1_555 1_555

#END
