
#######################################################################
#
#                 Cambridge Crystallographic Data Centre
#                                CCDC 
#
#######################################################################
#
# If this CIF has been generated from an entry in the Cambridge 
# Structural Database, then it will include bibliographic, chemical, 
# crystal, experimental, refinement or atomic coordinate data resulting 
# from the CCDC's data processing and validation procedures.
#
#######################################################################

data_EHELUZ
_chemical_formula_moiety         'C16 H18 N6 O2,2(C2 H3 F3 O1)'
_chemical_name_systematic        
'3,5,13,15,21,22-Hexa-azatricyclo[15.3.1.1^7,11^]docosa-1(21),7(22),8,10,17,19-hexaene-4,14-dione 2,2,2-trifluoroethanol clathrate'
_symmetry_cell_setting           triclinic
_symmetry_space_group_name_H-M   'P -1'
_symmetry_Int_Tables_number      2
_space_group_name_Hall           '-P 1'
loop_
_symmetry_equiv_pos_site_id
_symmetry_equiv_pos_as_xyz
1 x,y,z
2 -x,-y,-z
_cell_length_a                   4.6955(12)
_cell_length_b                   9.632(3)
_cell_length_c                   12.775(3)
_cell_angle_alpha                93.970(5)
_cell_angle_beta                 100.219(5)
_cell_angle_gamma                95.594(5)
_cell_volume                     563.69
_exptl_crystal_colour            colorless
_exptl_crystal_description       needle
_cell_formula_units_Z            1
loop_
_atom_site_label
_atom_site_type_symbol
_atom_site_fract_x
_atom_site_fract_y
_atom_site_fract_z
C1 C 0.1772(7) 0.6143(3) 0.3803(3)
C2 C 0.7863(8) 0.5785(4) 0.7525(3)
H1 H 0.6178 0.5154 0.7643
H2 H 0.9233 0.5992 0.8216
C3 C 0.6832(7) 0.7126(4) 0.7148(3)
C4 C 0.8295(8) 0.8427(4) 0.7558(3)
H3 H 0.9950 0.8498 0.8116
C5 C 0.7302(9) 0.9615(4) 0.7141(3)
H4 H 0.8265 1.0516 0.7411
C6 C 0.4919(8) 0.9482(4) 0.6334(3)
H5 H 0.4202 1.0286 0.6038
C7 C 0.3561(7) 0.8142(3) 0.5955(3)
C8 C 0.0910(7) 0.7982(4) 0.5068(3)
H6 H 0.1238 0.8658 0.4541
H7 H -0.0788 0.8230 0.5374
N1 N 0.0206(7) 0.6598(3) 0.4517(2)
H8 H -0.138(9) 0.622(4) 0.452(3)
N2 N 0.0700(7) 0.4912(3) 0.3242(2)
H9 H -0.083(9) 0.445(4) 0.343(3)
N3 N 0.4475(6) 0.6989(3) 0.6356(2)
O1 O 0.4066(5) 0.6841(2) 0.36883(19)
C1A C 0.8228(7) 0.3857(3) 0.6197(3)
C2A C 0.2137(8) 0.4215(4) 0.2475(3)
H1A H 0.3822 0.4846 0.2357
H2A H 0.0767 0.4008 0.1784
C3A C 0.3168(7) 0.2874(4) 0.2852(3)
C4A C 0.1705(8) 0.1573(4) 0.2442(3)
H3A H 0.0050 0.1502 0.1884
C5A C 0.2698(9) 0.0385(4) 0.2859(3)
H4A H 0.1735 -0.0516 0.2589
C6A C 0.5081(8) 0.0518(4) 0.3666(3)
H5A H 0.5798 -0.0286 0.3962
C7A C 0.6439(7) 0.1858(3) 0.4045(3)
C8A C 0.9090(7) 0.2018(4) 0.4932(3)
H6A H 0.8762 0.1342 0.5459
H7A H 1.0788 0.1770 0.4626
N1A N 0.9794(7) 0.3402(3) 0.5483(2)
H8A H 1.138(9) 0.378(4) 0.548(3)
N2A N 0.9300(7) 0.5088(3) 0.6758(2)
H9A H 1.083(9) 0.555(4) 0.657(3)
N3A N 0.5525(6) 0.3011(3) 0.3644(2)
O1A O 0.5934(5) 0.3159(2) 0.63117(19)
O2 O 0.7003(13) 0.7813(6) 0.2221(5)
C9 C 0.553(3) 0.7143(11) 0.1185(7)
H10 H 0.3449 0.6869 0.1199
H11 H 0.6426 0.6290 0.1009
C10 C 0.580(2) 0.8147(10) 0.0379(8)
F1 F 0.418(2) 0.7587(15) -0.0564(7)
F2 F 0.8571(15) 0.8359(11) 0.0258(6)
F3 F 0.488(2) 0.9353(11) 0.0609(9)
H12 H 0.623(13) 0.721(5) 0.272(5)
O3? O 0.7003(13) 0.7813(6) 0.2221(5)
C11? C 0.490(4) 0.754(3) 0.1224(11)
H13? H 0.3308 0.8142 0.1244
H14? H 0.4040 0.6554 0.1143
C12? C 0.630(3) 0.7836(15) 0.0298(13)
F4? F 0.796(4) 0.6848(19) 0.0092(14)
F5? F 0.808(3) 0.9052(14) 0.0445(11)
F6? F 0.436(3) 0.8025(17) -0.0580(13)
O4? O 0.7342(15) 0.7490(7) 0.2159(6)
C13? C 0.581(5) 0.8076(18) 0.1244(11)
H15? H 0.6929 0.8939 0.1087
H16? H 0.3864 0.8293 0.1354
C14? C 0.559(3) 0.6939(16) 0.0379(12)
F7? F 0.482(3) 0.7257(17) -0.0635(10)
F8? F 0.356(3) 0.5892(18) 0.0501(14)
F9? F 0.785(3) 0.6202(17) 0.0331(12)
C15? C 0.495(3) 0.777(2) 0.1338(10)
C16? C 0.593(3) 0.7033(13) 0.0425(11)
F10? F 0.8464(18) 0.7555(14) 0.0170(7)
F11? F 0.400(2) 0.6875(14) -0.0505(9)
F12? F 0.623(3) 0.5678(11) 0.0593(10)
H17? H 0.4900 0.8785 0.1263
H18? H 0.3041 0.7346 0.1455
O5? O 0.7342(15) 0.7490(7) 0.2159(6)
loop_
_geom_bond_atom_site_label_1
_geom_bond_atom_site_label_2
_geom_bond_site_symmetry_1
_geom_bond_site_symmetry_2
C1 N1 1_555 1_555
C2 H1 1_555 1_555
H2 C2 1_555 1_555
C3 C2 1_555 1_555
C4 C3 1_555 1_555
H3 C4 1_555 1_555
C5 C4 1_555 1_555
H4 C5 1_555 1_555
C6 C5 1_555 1_555
H5 C6 1_555 1_555
C7 C6 1_555 1_555
C8 C7 1_555 1_555
H6 C8 1_555 1_555
H7 C8 1_555 1_555
N1 C8 1_555 1_555
H8 N1 1_555 1_555
N2 C1 1_555 1_555
H9 N2 1_555 1_555
N3 C3 1_555 1_555
O1 C1 1_555 1_555
O2 C9 1_555 1_555
C9 H10 1_555 1_555
H11 C9 1_555 1_555
C10 C9 1_555 1_555
F1 C10 1_555 1_555
F2 C10 1_555 1_555
F3 C10 1_555 1_555
H12 O2 1_555 1_555
C1A N1A 1_555 1_555
C2A N2 1_555 1_555
H1A C2A 1_555 1_555
H2A C2A 1_555 1_555
C3A C2A 1_555 1_555
C4A C3A 1_555 1_555
H3A C4A 1_555 1_555
C5A C4A 1_555 1_555
H4A C5A 1_555 1_555
C6A C5A 1_555 1_555
H5A C6A 1_555 1_555
C7A C6A 1_555 1_555
C8A C7A 1_555 1_555
H6A C8A 1_555 1_555
H7A C8A 1_555 1_555
N1A C8A 1_555 1_555
H8A N1A 1_555 1_555
N2A C2 1_555 1_555
H9A N2A 1_555 1_555
N3A C3A 1_555 1_555
O1A C1A 1_555 1_555
C7 N3 1_555 1_555
C1A N2A 1_555 1_555
C7A N3A 1_555 1_555

#END
