
#######################################################################
#
#                 Cambridge Crystallographic Data Centre
#                                CCDC 
#
#######################################################################
#
# If this CIF has been generated from an entry in the Cambridge 
# Structural Database, then it will include bibliographic, chemical, 
# crystal, experimental, refinement or atomic coordinate data resulting 
# from the CCDC's data processing and validation procedures.
#
#######################################################################

data_EHEMEK
_chemical_formula_moiety         'C25 H28 O2 Si1'
_chemical_name_systematic        
6-(2-Methoxy-1-naphthyl)-6a-methyl-1-(trimethylsilyl)-1,1a,6,6a-tetrahydrocyclopropa[a]inden-6-ol
_symmetry_cell_setting           triclinic
_symmetry_space_group_name_H-M   'P -1'
_symmetry_Int_Tables_number      2
_space_group_name_Hall           '-P 1'
loop_
_symmetry_equiv_pos_site_id
_symmetry_equiv_pos_as_xyz
1 x,y,z
2 -x,-y,-z
_cell_length_a                   7.3361(7)
_cell_length_b                   9.8727(9)
_cell_length_c                   15.9826(15)
_cell_angle_alpha                77.056(2)
_cell_angle_beta                 81.2040(10)
_cell_angle_gamma                74.336(2)
_cell_volume                     1080.98
_exptl_crystal_colour            colorless
_exptl_crystal_description       block
_cell_formula_units_Z            2
loop_
_atom_site_label
_atom_site_type_symbol
_atom_site_fract_x
_atom_site_fract_y
_atom_site_fract_z
Si1 Si 0.42910(5) 1.02040(4) 0.17131(2)
O1 O 0.92915(13) 0.74430(9) 0.31493(6)
O2 O 0.74045(14) 0.67168(9) 0.45926(6)
C1 C 0.64807(17) 0.87059(12) 0.18765(8)
C2 C 0.68663(18) 0.73491(13) 0.14991(8)
C3 C 0.65357(16) 0.72599(12) 0.24654(7)
C4 C 0.84703(16) 0.64971(12) 0.28437(7)
C5 C 0.98186(17) 0.61589(12) 0.20530(8)
C6 C 0.89176(18) 0.66757(12) 0.12972(8)
C7 C 0.9944(2) 0.65103(15) 0.05060(9)
C8 C 1.1872(2) 0.58301(16) 0.04850(10)
C9 C 1.2768(2) 0.53297(16) 0.12383(11)
C10 C 1.17421(18) 0.54939(14) 0.20315(9)
C11 C 0.47500(18) 0.69571(15) 0.29868(9)
C12 C 0.82842(16) 0.51921(12) 0.35703(7)
C13 C 0.78978(17) 0.53426(13) 0.44274(8)
C14 C 0.79797(18) 0.41515(14) 0.51138(8)
C15 C 0.82937(18) 0.28122(14) 0.49446(9)
C16 C 0.84293(17) 0.26029(13) 0.40939(8)
C17 C 0.85324(19) 0.12291(14) 0.39208(10)
C18 C 0.8517(2) 0.10343(14) 0.31097(11)
C19 C 0.8377(2) 0.22255(15) 0.24226(10)
C20 C 0.83260(18) 0.35586(14) 0.25573(9)
C21 C 0.83914(16) 0.38046(12) 0.33949(8)
C22 C 0.6882(2) 0.69280(17) 0.54632(9)
C23 C 0.2261(2) 0.96432(17) 0.14183(11)
C24 C 0.4975(3) 1.15716(17) 0.07938(11)
C25 C 0.3582(2) 1.09868(19) 0.27086(11)
H1 H 0.868(3) 0.756(2) 0.3630(13)
H2 H 0.762(2) 0.9028(15) 0.1845(9)
H3 H 0.590(2) 0.7188(16) 0.1210(10)
H4 H 0.930(2) 0.6834(18) -0.0008(11)
H5 H 1.256(3) 0.5670(19) -0.0044(12)
H6 H 1.408(3) 0.4873(19) 0.1240(12)
H7 H 1.233(2) 0.5136(17) 0.2568(10)
H8 H 0.455(2) 0.7278(17) 0.3511(11)
H9 H 0.481(2) 0.5919(19) 0.3126(11)
H10 H 0.362(2) 0.7407(18) 0.2697(11)
H11 H 0.786(2) 0.4290(17) 0.5690(11)
H12 H 0.839(2) 0.2000(18) 0.5394(11)
H13 H 0.859(3) 0.045(2) 0.4380(12)
H14 H 0.855(3) 0.012(2) 0.2987(12)
H15 H 0.827(2) 0.2096(19) 0.1836(11)
H16 H 0.821(2) 0.4345(17) 0.2089(10)
H17 H 0.652(3) 0.795(2) 0.5419(11)
H18 H 0.580(2) 0.6521(18) 0.5698(11)
H19 H 0.797(2) 0.6544(18) 0.5792(11)
H20 H 0.143(3) 1.045(2) 0.1115(13)
H21 H 0.266(3) 0.893(2) 0.1035(14)
H22 H 0.153(3) 0.922(2) 0.1933(15)
H23 H 0.394(3) 1.248(2) 0.0713(14)
H24 H 0.527(3) 1.120(2) 0.0238(14)
H25 H 0.603(4) 1.184(3) 0.0848(15)
H26 H 0.461(3) 1.132(2) 0.2874(12)
H27 H 0.324(3) 1.028(2) 0.3187(14)
H28 H 0.253(3) 1.179(2) 0.2651(14)
loop_
_geom_bond_atom_site_label_1
_geom_bond_atom_site_label_2
_geom_bond_site_symmetry_1
_geom_bond_site_symmetry_2
Si1 C1 1_555 1_555
O1 C4 1_555 1_555
O2 C13 1_555 1_555
C1 C2 1_555 1_555
C2 C3 1_555 1_555
C3 C1 1_555 1_555
C4 C3 1_555 1_555
C5 C4 1_555 1_555
C6 C2 1_555 1_555
C7 C6 1_555 1_555
C8 C7 1_555 1_555
C9 C8 1_555 1_555
C10 C5 1_555 1_555
C11 C3 1_555 1_555
C12 C4 1_555 1_555
C13 C12 1_555 1_555
C14 C13 1_555 1_555
C15 C14 1_555 1_555
C16 C15 1_555 1_555
C17 C16 1_555 1_555
C18 C17 1_555 1_555
C19 C18 1_555 1_555
C20 C19 1_555 1_555
C21 C12 1_555 1_555
C22 O2 1_555 1_555
C23 Si1 1_555 1_555
C24 Si1 1_555 1_555
C25 Si1 1_555 1_555
H1 O1 1_555 1_555
H2 C1 1_555 1_555
H3 C2 1_555 1_555
H4 C7 1_555 1_555
H5 C8 1_555 1_555
H6 C9 1_555 1_555
H7 C10 1_555 1_555
H8 C11 1_555 1_555
H9 C11 1_555 1_555
H10 C11 1_555 1_555
H11 C14 1_555 1_555
H12 C15 1_555 1_555
H13 C17 1_555 1_555
H14 C18 1_555 1_555
H15 C19 1_555 1_555
H16 C20 1_555 1_555
H17 C22 1_555 1_555
H18 C22 1_555 1_555
H19 C22 1_555 1_555
H20 C23 1_555 1_555
H21 C23 1_555 1_555
H22 C23 1_555 1_555
H23 C24 1_555 1_555
H24 C24 1_555 1_555
H25 C24 1_555 1_555
H26 C25 1_555 1_555
H27 C25 1_555 1_555
H28 C25 1_555 1_555
C5 C6 1_555 1_555
C9 C10 1_555 1_555
C16 C21 1_555 1_555
C20 C21 1_555 1_555

#END
