
#######################################################################
#
#                 Cambridge Crystallographic Data Centre
#                                CCDC 
#
#######################################################################
#
# If this CIF has been generated from an entry in the Cambridge 
# Structural Database, then it will include bibliographic, chemical, 
# crystal, experimental, refinement or atomic coordinate data resulting 
# from the CCDC's data processing and validation procedures.
#
#######################################################################

data_EHEROZ
_chemical_formula_moiety         
'2(C28 H22 B1 F10 1-),2(C12 H28 P1 1+),C1 H2 Cl2'
_chemical_name_systematic        
'bis(tri-t-butylphosphonium) bis(perfluorophenyl)-((1R,2R,3R,4S)-4,7,7-trimethyl-3-phenylbicyclo[2.2.1]heptan-2-yl)hydroborate bis(perfluorophenyl)-((1R,2S,3S,4S)-4,7,7-trimethyl-3-phenylbicyclo[2.2.1]heptan-2-yl)hydroborate dichloromethane solvate'
_symmetry_cell_setting           triclinic
_symmetry_space_group_name_H-M   'P 1'
_symmetry_Int_Tables_number      1
_space_group_name_Hall           'P 1'
loop_
_symmetry_equiv_pos_site_id
_symmetry_equiv_pos_as_xyz
1 x,y,z
_cell_length_a                   10.4660(7)
_cell_length_b                   12.0096(8)
_cell_length_c                   16.1072(11)
_cell_angle_alpha                92.5410(10)
_cell_angle_beta                 100.6570(10)
_cell_angle_gamma                91.6500(10)
_cell_volume                     1986.27
_exptl_crystal_colour            colorless
_exptl_crystal_description       block
_cell_formula_units_Z            1
loop_
_atom_site_label
_atom_site_type_symbol
_atom_site_fract_x
_atom_site_fract_y
_atom_site_fract_z
B1 B 0.0547(3) 0.9162(2) 0.98420(18)
H1 H 0.0450 0.8242 0.9841
C1 C 0.0845(2) 0.94868(19) 0.89131(15)
C2 C 0.1643(2) 0.88069(19) 0.85262(17)
C3 C 0.1927(3) 0.8945(2) 0.77286(17)
C4 C 0.1429(3) 0.9834(2) 0.72857(17)
C5 C 0.0665(2) 1.0563(2) 0.76418(16)
C6 C 0.0388(2) 1.03714(19) 0.84358(16)
C7 C 0.1826(2) 0.95581(18) 1.05621(15)
C8 C 0.2318(2) 1.06504(19) 1.06680(16)
C9 C 0.3344(2) 1.1037(2) 1.13007(17)
C10 C 0.3944(2) 1.0304(2) 1.18570(16)
C11 C 0.3525(2) 0.9195(2) 1.17790(16)
C12 C 0.2487(2) 0.88624(19) 1.11441(16)
C13 C -0.0756(2) 0.96597(19) 1.01176(15)
H2 H -0.0624 1.0487 1.0208
C14 C -0.0988(2) 0.91722(18) 1.09683(15)
H3 H -0.0564 0.8435 1.0998
C15 C -0.0404(2) 0.9818(2) 1.17922(16)
C16 C -0.0120(2) 0.9225(2) 1.25238(17)
H4 H -0.0303 0.8443 1.2489
C17 C 0.0420(3) 0.9741(3) 1.33011(18)
H5 H 0.0591 0.9315 1.3790
C18 C 0.0711(3) 1.0872(3) 1.33663(19)
H6 H 0.1074 1.1229 1.3899
C19 C 0.0470(3) 1.1477(3) 1.2653(2)
H7 H 0.0679 1.2255 1.2691
C20 C -0.0080(3) 1.0950(2) 1.18731(18)
H8 H -0.0237 1.1379 1.1385
C21 C -0.2508(2) 0.8890(2) 1.07940(16)
C22 C -0.3133(3) 0.8817(3) 1.15671(18)
H9 H -0.2676 0.8281 1.1946
H10 H -0.4048 0.8570 1.1392
H11 H -0.3080 0.9552 1.1863
C23 C -0.3086(2) 0.9705(2) 1.01107(14)
C24 C -0.3034(2) 1.0932(2) 1.04277(17)
H12 H -0.3683 1.1042 1.0788
H13 H -0.3221 1.1405 0.9943
H14 H -0.2165 1.1131 1.0754
C25 C -0.4516(2) 0.9436(2) 0.96880(17)
H15 H -0.5087 0.9642 1.0084
H16 H -0.4633 0.8636 0.9534
H17 H -0.4734 0.9859 0.9178
C26 C -0.2100(2) 0.94064(19) 0.95347(15)
H18 H -0.2224 0.9813 0.8999
C27 C -0.2323(2) 0.8127(2) 0.93930(15)
H19 H -0.1531 0.7768 0.9275
H20 H -0.3056 0.7933 0.8920
C28 C -0.2647(2) 0.77781(19) 1.02516(16)
H21 H -0.3542 0.7451 1.0176
H22 H -0.2027 0.7231 1.0515
F1 F 0.22074(15) 0.79385(12) 0.89394(10)
F2 F 0.26802(17) 0.82276(14) 0.73943(11)
F3 F 0.16943(16) 0.99973(14) 0.65094(10)
F4 F 0.02035(15) 1.14546(13) 0.72139(10)
F5 F -0.03649(14) 1.11344(11) 0.87321(9)
F6 F 0.17649(15) 1.14227(11) 1.01372(10)
F7 F 0.37467(17) 1.21186(12) 1.13689(11)
F8 F 0.49658(15) 1.06540(13) 1.24683(10)
F9 F 0.41236(16) 0.84579(13) 1.23076(10)
F10 F 0.21252(15) 0.77664(11) 1.11231(10)
B2 B 0.7022(2) 0.5298(2) 0.53687(17)
H23 H 0.7195 0.6218 0.5387
C29 C 0.6738(2) 0.49576(19) 0.63039(15)
C30 C 0.7176(2) 0.40516(18) 0.67720(15)
C31 C 0.6901(2) 0.3861(2) 0.75605(16)
C32 C 0.6147(2) 0.4596(2) 0.79263(16)
C33 C 0.5672(2) 0.5495(2) 0.74862(17)
C34 C 0.5957(2) 0.56411(19) 0.66957(16)
C35 C 0.5706(2) 0.49744(18) 0.46559(15)
C36 C 0.5079(2) 0.57001(18) 0.40861(15)
C37 C 0.4006(2) 0.5416(2) 0.34667(16)
C38 C 0.3505(2) 0.4340(2) 0.33752(15)
C39 C 0.4096(2) 0.35680(19) 0.39186(17)
C40 C 0.5152(2) 0.38927(19) 0.45328(15)
C41 C 0.8242(2) 0.47131(18) 0.50314(15)
H24 H 0.7965 0.3916 0.4875
C42 C 0.8533(2) 0.52335(19) 0.42123(14)
H25 H 0.8241 0.6018 0.4225
C43 C 0.7894(2) 0.4704(2) 0.33659(16)
C44 C 0.7651(3) 0.3551(2) 0.32148(18)
H26 H 0.7844 0.3070 0.3670
C45 C 0.7130(3) 0.3101(3) 0.2409(2)
H27 H 0.6980 0.2317 0.2320
C46 C 0.6829(3) 0.3780(3) 0.17346(19)
H28 H 0.6496 0.3465 0.1183
C47 C 0.7017(3) 0.4924(3) 0.18712(18)
H29 H 0.6787 0.5402 0.1417
C48 C 0.7548(2) 0.5373(2) 0.26815(17)
H30 H 0.7676 0.6159 0.2768
C49 C 1.0058(2) 0.5306(2) 0.43606(16)
C50 C 1.0595(3) 0.6014(2) 0.37378(17)
H31 H 1.1546 0.6065 0.3889
H32 H 1.0251 0.6764 0.3757
H33 H 1.0334 0.5671 0.3166
C51 C 1.0543(2) 0.4102(2) 0.43893(16)
H34 H 1.1480 0.4094 0.4362
H35 H 1.0049 0.3626 0.3913
C52 C 1.0298(2) 0.3694(2) 0.52494(16)
H36 H 0.9718 0.3017 0.5171
H37 H 1.1123 0.3540 0.5630
C53 C 0.9632(2) 0.47080(19) 0.55940(15)
H38 H 0.9638 0.4718 0.6216
C54 C 1.0405(2) 0.56967(18) 0.53114(15)
C55 C 0.9933(2) 0.6840(2) 0.55274(17)
H39 H 0.8994 0.6863 0.5317
H40 H 1.0386 0.7412 0.5262
H41 H 1.0114 0.6983 0.6142
C56 C 1.1883(2) 0.5724(2) 0.56607(17)
H42 H 1.2233 0.5001 0.5534
H43 H 1.2041 0.5877 0.6275
H44 H 1.2312 0.6311 0.5396
F11 F 0.56784(14) 0.30958(11) 0.50396(10)
F12 F 0.79044(13) 0.32852(11) 0.64601(9)
F13 F 0.73447(14) 0.29659(12) 0.79798(9)
F14 F 0.58625(16) 0.44123(14) 0.86912(10)
F15 F 0.49065(16) 0.62053(14) 0.78259(11)
F16 F 0.54008(14) 0.65250(12) 0.62897(10)
F17 F 0.55125(15) 0.67853(11) 0.41176(10)
F18 F 0.34404(16) 0.61875(13) 0.29478(10)
F19 F 0.24619(15) 0.40406(13) 0.27813(10)
F20 F 0.36193(16) 0.25037(12) 0.38401(11)
P1 P 0.61665(5) 0.91462(4) 0.54997(4)
H45 H 0.6252 0.8199 0.5408
C57 C 0.4419(2) 0.9388(2) 0.50684(15)
C58 C 0.4029(3) 1.0540(2) 0.53766(18)
H46 H 0.4575 1.1123 0.5195
H47 H 0.4149 1.0578 0.5995
H48 H 0.3113 1.0652 0.5136
C59 C 0.3583(2) 0.8438(2) 0.53443(17)
H49 H 0.3715 0.8454 0.5963
H50 H 0.3842 0.7718 0.5131
H51 H 0.2662 0.8541 0.5113
C60 C 0.4142(3) 0.9305(2) 0.40973(16)
H52 H 0.4642 0.9896 0.3885
H53 H 0.3211 0.9390 0.3889
H54 H 0.4398 0.8576 0.3899
C61 C 0.6648(2) 0.94337(19) 0.66672(15)
C62 C 0.5545(3) 0.9090(2) 0.71349(16)
H55 H 0.5307 0.8298 0.7005
H56 H 0.4785 0.9537 0.6950
H57 H 0.5844 0.9218 0.7746
C63 C 0.7005(3) 1.0679(2) 0.68869(17)
H58 H 0.6248 1.1123 0.6687
H59 H 0.7725 1.0906 0.6612
H60 H 0.7268 1.0800 0.7501
C64 C 0.7803(3) 0.8695(2) 0.69923(17)
H61 H 0.7543 0.7909 0.6850
H62 H 0.8056 0.8812 0.7608
H63 H 0.8541 0.8896 0.6726
C65 C 0.7327(2) 0.97516(19) 0.48686(16)
C66 C 0.7230(3) 0.9015(2) 0.40473(18)
H64 H 0.7409 0.8243 0.4190
H65 H 0.7867 0.9289 0.3721
H66 H 0.6352 0.9044 0.3709
C67 C 0.8750(2) 0.9713(2) 0.53445(18)
H67 H 0.8952 0.8943 0.5479
H68 H 0.8862 1.0180 0.5869
H69 H 0.9339 0.9993 0.4987
C68 C 0.7049(3) 1.0963(2) 0.46699(19)
H70 H 0.7709 1.1261 0.4372
H71 H 0.7071 1.1406 0.5198
H72 H 0.6187 1.0997 0.4312
P2 P 0.13547(5) 0.53632(4) 0.97119(4)
H73 H 0.1315 0.6316 0.9796
C69 C 0.0864(2) 0.5067(2) 0.85429(15)
C70 C -0.0252(3) 0.5831(2) 0.82055(17)
H74 H -0.0427 0.5776 0.7586
H75 H -0.0003 0.6604 0.8403
H76 H -0.1037 0.5599 0.8413
C71 C 0.0459(3) 0.3830(2) 0.83325(17)
H77 H 0.1184 0.3365 0.8558
H78 H 0.0229 0.3697 0.7717
H79 H -0.0294 0.3641 0.8588
C72 C 0.1985(3) 0.5355(2) 0.80807(17)
H80 H 0.2265 0.6139 0.8210
H81 H 0.1687 0.5230 0.7469
H82 H 0.2717 0.4879 0.8269
C73 C 0.3085(2) 0.5067(2) 1.01441(16)
C74 C 0.3431(3) 0.3904(2) 0.98308(18)
H83 H 0.3374 0.3887 0.9216
H84 H 0.2821 0.3340 0.9973
H85 H 0.4319 0.3744 1.0104
C75 C 0.3338(3) 0.5130(2) 1.11152(16)
H86 H 0.3121 0.5869 1.1319
H87 H 0.4258 0.5003 1.1331
H88 H 0.2797 0.4558 1.1315
C76 C 0.3966(3) 0.5981(2) 0.98756(18)
H89 H 0.4873 0.5874 1.0140
H90 H 0.3703 0.6715 1.0057
H91 H 0.3884 0.5935 0.9259
C77 C 0.0154(2) 0.48132(19) 1.03360(15)
C78 C 0.0347(3) 0.3577(2) 1.05356(19)
H92 H 0.1236 0.3489 1.0842
H93 H 0.0203 0.3117 1.0006
H94 H -0.0274 0.3340 1.0885
C79 C -0.1245(2) 0.4940(2) 0.98565(17)
H95 H -0.1400 0.4453 0.9341
H96 H -0.1365 0.5717 0.9706
H97 H -0.1862 0.4731 1.0218
C80 C 0.0299(2) 0.5539(2) 1.11682(16)
H98 H 0.1181 0.5483 1.1495
H99 H -0.0335 0.5276 1.1500
H100 H 0.0144 0.6318 1.1036
C81 C 0.2900(3) 0.2584(3) 0.6956(2)
H101 H 0.2310 0.2001 0.6622
H102 H 0.2356 0.3169 0.7148
Cl1 Cl 0.38817(7) 0.31648(6) 0.63182(5)
Cl2 Cl 0.38198(9) 0.19894(8) 0.78495(6)
loop_
_geom_bond_atom_site_label_1
_geom_bond_atom_site_label_2
_geom_bond_site_symmetry_1
_geom_bond_site_symmetry_2
B1 H1 1_555 1_555
C1 B1 1_555 1_555
C2 C1 1_555 1_555
C3 C2 1_555 1_555
C4 C3 1_555 1_555
C5 C4 1_555 1_555
C6 C1 1_555 1_555
C7 B1 1_555 1_555
C8 C7 1_555 1_555
C9 C8 1_555 1_555
C10 C9 1_555 1_555
C11 C10 1_555 1_555
C12 C7 1_555 1_555
C13 B1 1_555 1_555
H2 C13 1_555 1_555
C14 C13 1_555 1_555
H3 C14 1_555 1_555
C15 C14 1_555 1_555
C16 C15 1_555 1_555
H4 C16 1_555 1_555
C17 C16 1_555 1_555
H5 C17 1_555 1_555
C18 C17 1_555 1_555
H6 C18 1_555 1_555
C19 C18 1_555 1_555
H7 C19 1_555 1_555
C20 C15 1_555 1_555
H8 C20 1_555 1_555
C21 C14 1_555 1_555
C22 C21 1_555 1_555
H9 C22 1_555 1_555
H10 C22 1_555 1_555
H11 C22 1_555 1_555
C23 C21 1_555 1_555
C24 C23 1_555 1_555
H12 C24 1_555 1_555
H13 C24 1_555 1_555
H14 C24 1_555 1_555
C25 C23 1_555 1_555
H15 C25 1_555 1_555
H16 C25 1_555 1_555
H17 C25 1_555 1_555
C26 C13 1_555 1_555
H18 C26 1_555 1_555
C27 C26 1_555 1_555
H19 C27 1_555 1_555
H20 C27 1_555 1_555
C28 C21 1_555 1_555
H21 C28 1_555 1_555
H22 C28 1_555 1_555
F1 C2 1_555 1_555
F2 C3 1_555 1_555
F3 C4 1_555 1_555
F4 C5 1_555 1_555
F5 C6 1_555 1_555
F6 C8 1_555 1_555
F7 C9 1_555 1_555
F8 C10 1_555 1_555
F9 C11 1_555 1_555
F10 C12 1_555 1_555
B2 H23 1_555 1_555
C29 B2 1_555 1_555
C30 C29 1_555 1_555
C31 C30 1_555 1_555
C32 C31 1_555 1_555
C33 C32 1_555 1_555
C34 C29 1_555 1_555
C35 B2 1_555 1_555
C36 C35 1_555 1_555
C37 C36 1_555 1_555
C38 C37 1_555 1_555
C39 C38 1_555 1_555
C40 C35 1_555 1_555
C41 B2 1_555 1_555
H24 C41 1_555 1_555
C42 C41 1_555 1_555
H25 C42 1_555 1_555
C43 C42 1_555 1_555
C44 C43 1_555 1_555
H26 C44 1_555 1_555
C45 C44 1_555 1_555
H27 C45 1_555 1_555
C46 C45 1_555 1_555
H28 C46 1_555 1_555
C47 C46 1_555 1_555
H29 C47 1_555 1_555
C48 C43 1_555 1_555
H30 C48 1_555 1_555
C49 C42 1_555 1_555
C50 C49 1_555 1_555
H31 C50 1_555 1_555
H32 C50 1_555 1_555
H33 C50 1_555 1_555
C51 C49 1_555 1_555
H34 C51 1_555 1_555
H35 C51 1_555 1_555
C52 C51 1_555 1_555
H36 C52 1_555 1_555
H37 C52 1_555 1_555
C53 C41 1_555 1_555
H38 C53 1_555 1_555
C54 C49 1_555 1_555
C55 C54 1_555 1_555
H39 C55 1_555 1_555
H40 C55 1_555 1_555
H41 C55 1_555 1_555
C56 C54 1_555 1_555
H42 C56 1_555 1_555
H43 C56 1_555 1_555
H44 C56 1_555 1_555
F11 C40 1_555 1_555
F12 C30 1_555 1_555
F13 C31 1_555 1_555
F14 C32 1_555 1_555
F15 C33 1_555 1_555
F16 C34 1_555 1_555
F17 C36 1_555 1_555
F18 C37 1_555 1_555
F19 C38 1_555 1_555
F20 C39 1_555 1_555
P1 H45 1_555 1_555
C57 P1 1_555 1_555
C58 C57 1_555 1_555
H46 C58 1_555 1_555
H47 C58 1_555 1_555
H48 C58 1_555 1_555
C59 C57 1_555 1_555
H49 C59 1_555 1_555
H50 C59 1_555 1_555
H51 C59 1_555 1_555
C60 C57 1_555 1_555
H52 C60 1_555 1_555
H53 C60 1_555 1_555
H54 C60 1_555 1_555
C61 P1 1_555 1_555
C62 C61 1_555 1_555
H55 C62 1_555 1_555
H56 C62 1_555 1_555
H57 C62 1_555 1_555
C63 C61 1_555 1_555
H58 C63 1_555 1_555
H59 C63 1_555 1_555
H60 C63 1_555 1_555
C64 C61 1_555 1_555
H61 C64 1_555 1_555
H62 C64 1_555 1_555
H63 C64 1_555 1_555
C65 P1 1_555 1_555
C66 C65 1_555 1_555
H64 C66 1_555 1_555
H65 C66 1_555 1_555
H66 C66 1_555 1_555
C67 C65 1_555 1_555
H67 C67 1_555 1_555
H68 C67 1_555 1_555
H69 C67 1_555 1_555
C68 C65 1_555 1_555
H70 C68 1_555 1_555
H71 C68 1_555 1_555
H72 C68 1_555 1_555
P2 H73 1_555 1_555
C69 P2 1_555 1_555
C70 C69 1_555 1_555
H74 C70 1_555 1_555
H75 C70 1_555 1_555
H76 C70 1_555 1_555
C71 C69 1_555 1_555
H77 C71 1_555 1_555
H78 C71 1_555 1_555
H79 C71 1_555 1_555
C72 C69 1_555 1_555
H80 C72 1_555 1_555
H81 C72 1_555 1_555
H82 C72 1_555 1_555
C73 P2 1_555 1_555
C74 C73 1_555 1_555
H83 C74 1_555 1_555
H84 C74 1_555 1_555
H85 C74 1_555 1_555
C75 C73 1_555 1_555
H86 C75 1_555 1_555
H87 C75 1_555 1_555
H88 C75 1_555 1_555
C76 C73 1_555 1_555
H89 C76 1_555 1_555
H90 C76 1_555 1_555
H91 C76 1_555 1_555
C77 P2 1_555 1_555
C78 C77 1_555 1_555
H92 C78 1_555 1_555
H93 C78 1_555 1_555
H94 C78 1_555 1_555
C79 C77 1_555 1_555
H95 C79 1_555 1_555
H96 C79 1_555 1_555
H97 C79 1_555 1_555
C80 C77 1_555 1_555
H98 C80 1_555 1_555
H99 C80 1_555 1_555
H100 C80 1_555 1_555
C81 H101 1_555 1_555
H102 C81 1_555 1_555
Cl1 C81 1_555 1_555
Cl2 C81 1_555 1_555
C5 C6 1_555 1_555
C11 C12 1_555 1_555
C19 C20 1_555 1_555
C23 C26 1_555 1_555
C27 C28 1_555 1_555
C33 C34 1_555 1_555
C39 C40 1_555 1_555
C47 C48 1_555 1_555
C52 C53 1_555 1_555
C53 C54 1_555 1_555

#END
