
#######################################################################
#
#                 Cambridge Crystallographic Data Centre
#                                CCDC 
#
#######################################################################
#
# If this CIF has been generated from an entry in the Cambridge 
# Structural Database, then it will include bibliographic, chemical, 
# crystal, experimental, refinement or atomic coordinate data resulting 
# from the CCDC's data processing and validation procedures.
#
#######################################################################

data_EHERUF
_chemical_formula_moiety         'C28 H22 B1 F10 1-,C12 H28 P1 1+'
_chemical_name_systematic        
'tri-t-butylphosphonium bis(perfluorophenyl)-((1R,2R,3R,4S)-4,7,7-trimethyl-3-phenylbicyclo[2.2.1]heptan-2-yl)hydroborate'
_symmetry_cell_setting           orthorhombic
_symmetry_space_group_name_H-M   'P 21 21 21'
_symmetry_Int_Tables_number      19
_space_group_name_Hall           'P 2ac 2ab'
loop_
_symmetry_equiv_pos_site_id
_symmetry_equiv_pos_as_xyz
1 x,y,z
2 1/2-x,-y,1/2+z
3 -x,1/2+y,1/2-z
4 1/2+x,1/2-y,-z
_cell_length_a                   18.2275(12)
_cell_length_b                   18.8659(12)
_cell_length_c                   22.2897(14)
_cell_angle_alpha                90
_cell_angle_beta                 90
_cell_angle_gamma                90
_cell_volume                     7664.94
_exptl_crystal_colour            colorless
_exptl_crystal_description       block
_cell_formula_units_Z            8
loop_
_atom_site_label
_atom_site_type_symbol
_atom_site_fract_x
_atom_site_fract_y
_atom_site_fract_z
C1 C 0.32524(13) -0.06578(13) 0.98974(11)
C2 C 0.31834(15) -0.13404(14) 0.96613(11)
C3 C 0.25234(16) -0.16739(14) 0.95493(12)
C4 C 0.18769(15) -0.13266(16) 0.96800(13)
C5 C 0.19102(14) -0.06545(16) 0.99044(12)
C6 C 0.25801(14) -0.03412(13) 1.00089(10)
C7 C 0.42192(12) 0.03110(13) 0.94939(11)
C8 C 0.43080(13) 0.00841(14) 0.89086(11)
C9 C 0.45679(14) 0.04938(16) 0.84478(12)
C10 C 0.47476(15) 0.11890(17) 0.85560(14)
C11 C 0.46682(16) 0.14450(15) 0.91237(14)
C12 C 0.44129(14) 0.10160(14) 0.95733(12)
C13 C 0.47452(13) -0.07351(13) 1.01461(11)
H1 H 0.4841 -0.0972 0.9753
C14 C 0.47442(14) -0.13316(13) 1.06311(11)
H2 H 0.4246 -0.1517 1.0735
C15 C 0.51767(14) -0.10222(14) 1.11693(12)
C16 C 0.47965(14) -0.04057(15) 1.14973(12)
H3 H 0.5111 -0.0239 1.1825
H4 H 0.4327 -0.0569 1.1661
H5 H 0.4709 -0.0017 1.1215
C17 C 0.53679(17) -0.15747(16) 1.16538(13)
H6 H 0.5639 -0.1344 1.1979
H7 H 0.5671 -0.1949 1.1477
H8 H 0.4915 -0.1782 1.1813
C18 C 0.58388(14) -0.08009(15) 1.07704(12)
C19 C 0.64828(15) -0.04501(18) 1.10921(13)
H9 H 0.6316 -0.0013 1.1287
H10 H 0.6868 -0.0337 1.0801
H11 H 0.6678 -0.0775 1.1396
C20 C 0.60320(15) -0.15075(16) 1.04604(14)
H12 H 0.6380 -0.1786 1.0707
H13 H 0.6252 -0.1423 1.0061
C21 C 0.52831(15) -0.18987(15) 1.04022(13)
H14 H 0.5179 -0.2030 0.9981
H15 H 0.5269 -0.2330 1.0655
C22 C 0.54532(12) -0.03111(14) 1.03063(11)
H16 H 0.5291 0.0122 1.0529
C23 C 0.59314(13) -0.00588(14) 0.97925(12)
C24 C 0.62885(15) 0.05941(16) 0.98482(14)
H17 H 0.6229 0.0863 1.0205
C25 C 0.67288(17) 0.08549(18) 0.93898(16)
H18 H 0.6974 0.1295 0.9439
C26 C 0.68126(18) 0.04791(19) 0.88629(16)
H19 H 0.7109 0.0661 0.8548
C27 C 0.64616(17) -0.01633(19) 0.87986(14)
H20 H 0.6516 -0.0424 0.8437
C28 C 0.60307(15) -0.04323(16) 0.92558(13)
H21 H 0.5798 -0.0879 0.9205
F1 F 0.37843(8) -0.17222(8) 0.95129(7)
F2 F 0.25062(10) -0.23281(9) 0.93078(8)
F3 F 0.12281(9) -0.16433(10) 0.95739(9)
F4 F 0.12767(8) -0.03046(10) 1.00356(8)
F5 F 0.25540(8) 0.03230(8) 1.02439(7)
F6 F 0.41553(9) -0.06040(8) 0.87663(7)
F7 F 0.46630(10) 0.02209(10) 0.78933(7)
F8 F 0.50030(11) 0.16001(11) 0.81059(9)
F9 F 0.48519(12) 0.21314(9) 0.92382(9)
F10 F 0.43949(10) 0.13093(8) 1.01294(8)
B1 B 0.40184(14) -0.02293(14) 1.00504(12)
H22 H 0.3942 0.0058 1.0422
C29 C 0.72127(14) 0.81433(13) 0.77206(11)
C30 C 0.74048(15) 0.79724(13) 0.83069(12)
C31 C 0.69248(18) 0.77582(16) 0.87426(13)
C32 C 0.61928(19) 0.77134(17) 0.86088(16)
C33 C 0.59641(16) 0.78751(17) 0.80423(17)
C34 C 0.64654(15) 0.80903(15) 0.76120(13)
C35 C 0.83092(14) 0.90077(14) 0.74550(11)
C36 C 0.79637(15) 0.96673(14) 0.74760(12)
C37 C 0.82842(16) 1.02803(15) 0.76870(13)
C38 C 0.89833(17) 1.02629(15) 0.79054(13)
C39 C 0.93508(15) 0.96297(16) 0.78951(13)
C40 C 0.90167(15) 0.90284(15) 0.76662(12)
C41 C 0.82988(13) 0.76019(13) 0.70775(11)
H23 H 0.8583 0.7497 0.7451
C42 C 0.88517(14) 0.75812(14) 0.65468(11)
H24 H 0.9057 0.8054 0.6433
C43 C 0.84411(16) 0.71919(15) 0.60311(11)
C44 C 0.77901(17) 0.76018(16) 0.57690(12)
H25 H 0.7971 0.8013 0.5544
H26 H 0.7471 0.7763 0.6095
H27 H 0.7512 0.7292 0.5499
C45 C 0.89291(19) 0.69863(18) 0.54947(13)
H28 H 0.9356 0.6721 0.5639
H29 H 0.9094 0.7416 0.5288
H30 H 0.8648 0.6691 0.5216
C46 C 0.82279(14) 0.65498(14) 0.64377(11)
C47 C 0.77958(17) 0.59556(15) 0.61451(13)
H31 H 0.7324 0.6140 0.6002
H32 H 0.7709 0.5578 0.6439
H33 H 0.8075 0.5765 0.5806
C48 C 0.89836(15) 0.63183(14) 0.66812(12)
H34 H 0.9221 0.5975 0.6407
H35 H 0.8936 0.6100 0.7083
C49 C 0.94328(14) 0.70230(14) 0.67144(13)
H36 H 0.9628 0.7105 0.7123
H37 H 0.9844 0.7022 0.6424
C50 C 0.78041(13) 0.69399(12) 0.69501(11)
H38 H 0.7337 0.7121 0.6771
C51 C 0.75919(13) 0.64873(12) 0.74850(10)
C52 C 0.68981(14) 0.61706(14) 0.74949(12)
H39 H 0.6579 0.6239 0.7163
C53 C 0.66618(15) 0.57627(14) 0.79711(13)
H40 H 0.6189 0.5550 0.7959
C54 C 0.71073(15) 0.56614(15) 0.84642(12)
H41 H 0.6943 0.5385 0.8794
C55 C 0.77982(15) 0.59688(14) 0.84719(12)
H42 H 0.8111 0.5902 0.8808
C56 C 0.80331(13) 0.63758(13) 0.79868(11)
H43 H 0.8508 0.6583 0.7999
F11 F 0.81219(9) 0.80016(9) 0.84705(7)
F12 F 0.71577(12) 0.75861(11) 0.93000(8)
F13 F 0.57099(13) 0.75008(13) 0.90273(10)
F14 F 0.52420(10) 0.78290(12) 0.79025(11)
F15 F 0.61930(9) 0.82356(10) 0.70601(9)
F16 F 0.72614(9) 0.97297(8) 0.72879(8)
F17 F 0.79114(10) 1.09033(8) 0.76698(8)
F18 F 0.92995(10) 1.08467(9) 0.81256(9)
F19 F 1.00433(9) 0.96013(10) 0.81113(9)
F20 F 0.94366(8) 0.84338(9) 0.76778(8)
B2 B 0.78306(16) 0.83275(16) 0.72045(13)
H44 H 0.7573 0.8470 0.6827
P1 P 0.75581(4) 0.35391(3) 0.80757(3)
H45 H 0.7476 0.3988 0.8304
C57 C 0.82374(15) 0.30434(14) 0.85403(12)
C58 C 0.80065(18) 0.30868(17) 0.92047(13)
H46 H 0.7975 0.3585 0.9326
H47 H 0.8371 0.2843 0.9453
H48 H 0.7527 0.2860 0.9256
C59 C 0.82876(18) 0.22673(15) 0.83477(14)
H49 H 0.7802 0.2047 0.8377
H50 H 0.8632 0.2016 0.8610
H51 H 0.8461 0.2241 0.7932
C60 C 0.89973(15) 0.33952(16) 0.85001(14)
H52 H 0.8960 0.3892 0.8624
H53 H 0.9175 0.3372 0.8086
H54 H 0.9341 0.3146 0.8764
C61 C 0.79239(15) 0.38442(15) 0.73367(12)
C62 C 0.83439(17) 0.32577(16) 0.70146(13)
H55 H 0.8742 0.3087 0.7273
H56 H 0.8550 0.3444 0.6640
H57 H 0.8010 0.2865 0.6924
C63 C 0.84191(17) 0.44897(16) 0.74585(15)
H58 H 0.8135 0.4858 0.7664
H59 H 0.8605 0.4676 0.7077
H60 H 0.8832 0.4346 0.7712
C64 C 0.73082(16) 0.41141(16) 0.69246(14)
H61 H 0.7039 0.4495 0.7127
H62 H 0.6972 0.3724 0.6832
H63 H 0.7522 0.4296 0.6552
C65 C 0.66238(14) 0.31278(14) 0.80324(14)
C66 C 0.64040(18) 0.28108(19) 0.86363(15)
H64 H 0.6746 0.2430 0.8742
H65 H 0.5905 0.2619 0.8609
H66 H 0.6420 0.3180 0.8945
C67 C 0.65941(17) 0.25379(16) 0.75556(15)
H67 H 0.6736 0.2732 0.7165
H68 H 0.6094 0.2349 0.7532
H69 H 0.6933 0.2157 0.7667
C68 C 0.60659(16) 0.37194(17) 0.78946(17)
H70 H 0.6186 0.3939 0.7509
H71 H 0.6085 0.4078 0.8212
H72 H 0.5571 0.3517 0.7876
P2 P 0.92863(6) 0.96460(6) 1.04706(5)
H73 H 0.9878 0.9592 1.0386
C69 C 0.88502(16) 0.90822(15) 0.98678(13)
C70 C 0.91036(15) 1.06278(15) 1.03507(13)
C71 C 0.91782(16) 0.93387(15) 1.12332(13)
C72 C 0.8057(2) 0.9175(3) 0.9801(3)
H74 H 0.7817 0.9106 1.0190
H75 H 0.7868 0.8827 0.9513
H76 H 0.7954 0.9655 0.9654
C73 C 0.9017(3) 0.8286(2) 1.0069(2)
H77 H 0.9548 0.8222 1.0113
H78 H 0.8831 0.7958 0.9764
H79 H 0.8776 0.8190 1.0453
C74 C 0.9328(3) 0.9173(3) 0.9309(2)
H80 H 0.9844 0.9097 0.9416
H81 H 0.9267 0.9653 0.9150
H82 H 0.9181 0.8826 0.9005
C75 C 0.8344(3) 1.0819(3) 1.0599(2)
H83 H 0.7969 1.0537 1.0394
H84 H 0.8249 1.1324 1.0531
H85 H 0.8330 1.0719 1.1030
C76 C 0.9128(3) 1.0793(3) 0.9670(2)
H86 H 0.8738 1.0529 0.9466
H87 H 0.9605 1.0651 0.9508
H88 H 0.9055 1.1302 0.9608
C77 C 0.9710(3) 1.1046(3) 1.0649(2)
H89 H 1.0183 1.0911 1.0474
H90 H 0.9713 1.0944 1.1080
H91 H 0.9626 1.1554 1.0586
C78 C 0.8373(3) 0.9139(3) 1.1386(3)
H92 H 0.8052 0.9543 1.1301
H93 H 0.8337 0.9013 1.1811
H94 H 0.8222 0.8733 1.1140
C79 C 0.9679(3) 0.8705(3) 1.1367(3)
H95 H 0.9568 0.8319 1.1087
H96 H 0.9596 0.8543 1.1779
H97 H 1.0193 0.8848 1.1320
C80 C 0.9397(5) 0.9902(4) 1.1703(4)
H98 H 0.9096 1.0328 1.1647
H99 H 0.9916 1.0024 1.1653
H100 H 0.9317 0.9713 1.2107
C81? C 0.88502(16) 0.90822(15) 0.98678(13)
C82? C 0.8222(5) 0.9423(5) 0.9437(4)
C83? C 0.8577(6) 0.8355(4) 1.0003(5)
C84? C 0.9537(4) 0.9100(6) 0.9484(4)
C85? C 0.91036(15) 1.06278(15) 1.03507(13)
C86? C 0.8791(5) 1.1169(5) 1.0799(4)
C87? C 0.8864(6) 1.0907(6) 0.9722(3)
C88? C 0.9961(3) 1.0718(6) 1.0354(4)
C89? C 0.91782(16) 0.93387(15) 1.12332(13)
C90? C 0.8616(5) 0.8809(5) 1.1415(5)
C91? C 0.9938(4) 0.9010(5) 1.1056(5)
C92? C 0.9303(8) 0.9944(7) 1.1687(7)
H101? H 0.8211 0.9785 1.0586
H102? H 0.8352 0.9914 0.9339
H103? H 0.7749 0.9415 0.9645
H104? H 0.8186 0.9146 0.9066
H105? H 0.8134 0.8387 1.0251
H106? H 0.8956 0.8091 1.0221
H107? H 0.8462 0.8110 0.9628
H108? H 0.9671 0.9593 0.9401
H109? H 0.9444 0.8852 0.9105
H110? H 0.9939 0.8865 0.9697
H111? H 0.8921 1.1026 1.1208
H112? H 0.8256 1.1187 1.0760
H113? H 0.8997 1.1638 1.0715
H114? H 0.9055 1.0591 0.9410
H115? H 0.9059 1.1386 0.9662
H116? H 0.8327 1.0919 0.9700
H117? H 1.0180 1.0387 1.0067
H118? H 1.0150 1.0618 1.0757
H119? H 1.0087 1.1205 1.0241
H120? H 0.8570 0.8447 1.1102
H121? H 0.8142 0.9047 1.1470
H122? H 0.8764 0.8585 1.1792
H123? H 1.0281 0.9391 1.0953
H124? H 0.9874 0.8696 1.0710
H125? H 1.0133 0.8738 1.1395
H126? H 0.9690 1.0259 1.1539
H127? H 0.9450 0.9745 1.2075
H128? H 0.8847 1.0214 1.1736
P3? P 0.88022(11) 0.97293(10) 1.05003(8)
loop_
_geom_bond_atom_site_label_1
_geom_bond_atom_site_label_2
_geom_bond_site_symmetry_1
_geom_bond_site_symmetry_2
C1 C2 1_555 1_555
C2 C3 1_555 1_555
C3 C4 1_555 1_555
C4 C5 1_555 1_555
C5 C6 1_555 1_555
C6 C1 1_555 1_555
C7 C8 1_555 1_555
C8 C9 1_555 1_555
C9 C10 1_555 1_555
C10 C11 1_555 1_555
C11 C12 1_555 1_555
C12 C7 1_555 1_555
C13 H1 1_555 1_555
C14 C13 1_555 1_555
H2 C14 1_555 1_555
C15 C14 1_555 1_555
C16 C15 1_555 1_555
H3 C16 1_555 1_555
H4 C16 1_555 1_555
H5 C16 1_555 1_555
C17 C15 1_555 1_555
H6 C17 1_555 1_555
H7 C17 1_555 1_555
H8 C17 1_555 1_555
C18 C15 1_555 1_555
C19 C18 1_555 1_555
H9 C19 1_555 1_555
H10 C19 1_555 1_555
H11 C19 1_555 1_555
C20 C18 1_555 1_555
H12 C20 1_555 1_555
H13 C20 1_555 1_555
C21 C14 1_555 1_555
H14 C21 1_555 1_555
H15 C21 1_555 1_555
C22 C13 1_555 1_555
H16 C22 1_555 1_555
C23 C22 1_555 1_555
C24 C23 1_555 1_555
H17 C24 1_555 1_555
C25 C24 1_555 1_555
H18 C25 1_555 1_555
C26 C25 1_555 1_555
H19 C26 1_555 1_555
C27 C26 1_555 1_555
H20 C27 1_555 1_555
C28 C23 1_555 1_555
H21 C28 1_555 1_555
F1 C2 1_555 1_555
F2 C3 1_555 1_555
F3 C4 1_555 1_555
F4 C5 1_555 1_555
F5 C6 1_555 1_555
F6 C8 1_555 1_555
F7 C9 1_555 1_555
F8 C10 1_555 1_555
F9 C11 1_555 1_555
F10 C12 1_555 1_555
B1 C1 1_555 1_555
H22 B1 1_555 1_555
C29 C30 1_555 1_555
C30 C31 1_555 1_555
C31 C32 1_555 1_555
C32 C33 1_555 1_555
C33 C34 1_555 1_555
C34 C29 1_555 1_555
C35 C36 1_555 1_555
C36 C37 1_555 1_555
C37 C38 1_555 1_555
C38 C39 1_555 1_555
C39 C40 1_555 1_555
C40 C35 1_555 1_555
C41 H23 1_555 1_555
C42 C41 1_555 1_555
H24 C42 1_555 1_555
C43 C42 1_555 1_555
C44 C43 1_555 1_555
H25 C44 1_555 1_555
H26 C44 1_555 1_555
H27 C44 1_555 1_555
C45 C43 1_555 1_555
H28 C45 1_555 1_555
H29 C45 1_555 1_555
H30 C45 1_555 1_555
C46 C43 1_555 1_555
C47 C46 1_555 1_555
H31 C47 1_555 1_555
H32 C47 1_555 1_555
H33 C47 1_555 1_555
C48 C46 1_555 1_555
H34 C48 1_555 1_555
H35 C48 1_555 1_555
C49 C42 1_555 1_555
H36 C49 1_555 1_555
H37 C49 1_555 1_555
C50 C41 1_555 1_555
H38 C50 1_555 1_555
C51 C50 1_555 1_555
C52 C51 1_555 1_555
H39 C52 1_555 1_555
C53 C52 1_555 1_555
H40 C53 1_555 1_555
C54 C53 1_555 1_555
H41 C54 1_555 1_555
C55 C54 1_555 1_555
H42 C55 1_555 1_555
C56 C51 1_555 1_555
H43 C56 1_555 1_555
F11 C30 1_555 1_555
F12 C31 1_555 1_555
F13 C32 1_555 1_555
F14 C33 1_555 1_555
F15 C34 1_555 1_555
F16 C36 1_555 1_555
F17 C37 1_555 1_555
F18 C38 1_555 1_555
F19 C39 1_555 1_555
F20 C40 1_555 1_555
B2 C29 1_555 1_555
H44 B2 1_555 1_555
P1 H45 1_555 1_555
C57 P1 1_555 1_555
C58 C57 1_555 1_555
H46 C58 1_555 1_555
H47 C58 1_555 1_555
H48 C58 1_555 1_555
C59 C57 1_555 1_555
H49 C59 1_555 1_555
H50 C59 1_555 1_555
H51 C59 1_555 1_555
C60 C57 1_555 1_555
H52 C60 1_555 1_555
H53 C60 1_555 1_555
H54 C60 1_555 1_555
C61 P1 1_555 1_555
C62 C61 1_555 1_555
H55 C62 1_555 1_555
H56 C62 1_555 1_555
H57 C62 1_555 1_555
C63 C61 1_555 1_555
H58 C63 1_555 1_555
H59 C63 1_555 1_555
H60 C63 1_555 1_555
C64 C61 1_555 1_555
H61 C64 1_555 1_555
H62 C64 1_555 1_555
H63 C64 1_555 1_555
C65 P1 1_555 1_555
C66 C65 1_555 1_555
H64 C66 1_555 1_555
H65 C66 1_555 1_555
H66 C66 1_555 1_555
C67 C65 1_555 1_555
H67 C67 1_555 1_555
H68 C67 1_555 1_555
H69 C67 1_555 1_555
C68 C65 1_555 1_555
H70 C68 1_555 1_555
H71 C68 1_555 1_555
H72 C68 1_555 1_555
P2 H73 1_555 1_555
C69 P2 1_555 1_555
C70 P2 1_555 1_555
C71 P2 1_555 1_555
C72 C69 1_555 1_555
H74 C72 1_555 1_555
H75 C72 1_555 1_555
H76 C72 1_555 1_555
C73 C69 1_555 1_555
H77 C73 1_555 1_555
H78 C73 1_555 1_555
H79 C73 1_555 1_555
C74 C69 1_555 1_555
H80 C74 1_555 1_555
H81 C74 1_555 1_555
H82 C74 1_555 1_555
C75 C70 1_555 1_555
H83 C75 1_555 1_555
H84 C75 1_555 1_555
H85 C75 1_555 1_555
C76 C70 1_555 1_555
H86 C76 1_555 1_555
H87 C76 1_555 1_555
H88 C76 1_555 1_555
C77 C70 1_555 1_555
H89 C77 1_555 1_555
H90 C77 1_555 1_555
H91 C77 1_555 1_555
C78 C71 1_555 1_555
H92 C78 1_555 1_555
H93 C78 1_555 1_555
H94 C78 1_555 1_555
C79 C71 1_555 1_555
H95 C79 1_555 1_555
H96 C79 1_555 1_555
H97 C79 1_555 1_555
C80 C71 1_555 1_555
H98 C80 1_555 1_555
H99 C80 1_555 1_555
H100 C80 1_555 1_555
C7 B1 1_555 1_555
C13 B1 1_555 1_555
C18 C22 1_555 1_555
C20 C21 1_555 1_555
C27 C28 1_555 1_555
C35 B2 1_555 1_555
C41 B2 1_555 1_555
C46 C50 1_555 1_555
C48 C49 1_555 1_555
C55 C56 1_555 1_555

#END
