
#######################################################################
#
#                 Cambridge Crystallographic Data Centre
#                                CCDC 
#
#######################################################################
#
# If this CIF has been generated from an entry in the Cambridge 
# Structural Database, then it will include bibliographic, chemical, 
# crystal, experimental, refinement or atomic coordinate data resulting 
# from the CCDC's data processing and validation procedures.
#
#######################################################################

data_EHEXUM
_chemical_formula_moiety         'C26 H31 N1 O5'
_chemical_name_systematic        
'diethyl (2-(4-methoxyphenyl)-2-(1-methyl-1H-indol-3-yl)ethyl)(methyl)malonate'
_symmetry_cell_setting           monoclinic
_symmetry_space_group_name_H-M   'P 21/n'
_symmetry_Int_Tables_number      14
_space_group_name_Hall           '-P 2yn'
loop_
_symmetry_equiv_pos_site_id
_symmetry_equiv_pos_as_xyz
1 x,y,z
2 1/2-x,1/2+y,1/2-z
3 -x,-y,-z
4 1/2+x,1/2-y,1/2+z
_cell_length_a                   10.6532(8)
_cell_length_b                   24.0317(18)
_cell_length_c                   10.7076(11)
_cell_angle_alpha                90
_cell_angle_beta                 119.7690(10)
_cell_angle_gamma                90
_cell_volume                     2379.54
_exptl_crystal_colour            colorless
_cell_formula_units_Z            4
loop_
_atom_site_label
_atom_site_type_symbol
_atom_site_fract_x
_atom_site_fract_y
_atom_site_fract_z
O1 O 0.14477(14) 0.12918(5) 0.30785(13)
C1 C 0.25169(17) 0.23888(6) -0.15512(16)
H1 H 0.2838 0.2088 -0.0922
N1 N 0.22967(15) 0.23779(6) -0.29338(14)
O2 O 0.27447(13) 0.45916(5) 0.05555(12)
C2 C 0.21992(14) 0.29026(6) -0.12337(14)
O3 O 0.15338(15) 0.42838(6) 0.16193(16)
C3 C 0.17439(15) 0.32353(6) -0.25008(14)
O4 O 0.52140(13) 0.45859(5) 0.36398(13)
C4 C 0.12717(18) 0.37840(7) -0.28657(18)
H2 H 0.1202 0.4016 -0.2208
O5 O 0.62255(15) 0.40509(6) 0.26828(17)
C5 C 0.0909(2) 0.39773(9) -0.4221(2)
H3 H 0.0593 0.4342 -0.4472
C6 C 0.1012(2) 0.36338(10) -0.5216(2)
H4 H 0.0775 0.3777 -0.6114
C7 C 0.14502(19) 0.30917(9) -0.49086(17)
H5 H 0.1502 0.2864 -0.5584
C8 C 0.18178(16) 0.28923(7) -0.35397(15)
C9 C 0.2529(2) 0.18988(8) -0.3617(2)
H6 H 0.1996 0.1945 -0.4643
H7 H 0.2205 0.1569 -0.3357
H8 H 0.3541 0.1866 -0.3304
C10 C 0.23136(14) 0.31062(6) 0.01595(14)
H9 H 0.1519 0.3370 -0.0103
C11 C 0.20994(14) 0.26346(5) 0.09856(14)
C12 C 0.31492(15) 0.22295(6) 0.17106(16)
H10 H 0.4030 0.2254 0.1731
C13 C 0.29072(16) 0.17920(6) 0.24005(16)
H11 H 0.3622 0.1525 0.2874
C14 C 0.15988(16) 0.17476(6) 0.23914(14)
C15 C 0.05577(15) 0.21519(6) 0.17069(15)
H12 H -0.0312 0.2133 0.1711
C16 C 0.08165(15) 0.25873(6) 0.10115(14)
H13 H 0.0105 0.2856 0.0548
C17 C 0.0057(2) 0.11969(10) 0.2927(2)
H14 H -0.0166 0.1491 0.3392
H15 H 0.0059 0.0848 0.3363
H16 H -0.0658 0.1188 0.1924
C18 C 0.37390(15) 0.34370(6) 0.10243(14)
H17 H 0.4526 0.3173 0.1503
H18 H 0.3912 0.3646 0.0350
C19 C 0.37922(15) 0.38456(6) 0.21678(14)
C20 C 0.3734(2) 0.35521(7) 0.34073(17)
H19 H 0.3853 0.3821 0.4121
H20 H 0.4495 0.3281 0.3831
H21 H 0.2816 0.3370 0.3047
C21 C 0.25602(17) 0.42619(6) 0.14476(16)
C22 C 0.1649(3) 0.50165(8) -0.0200(2)
H22 H 0.1659 0.5285 0.0481
H23 H 0.0698 0.4847 -0.0703
C23 C 0.1975(3) 0.52969(10) -0.1241(3)
H24 H 0.2952 0.5431 -0.0748
H25 H 0.1323 0.5604 -0.1678
H26 H 0.1859 0.5037 -0.1972
C24 C 0.52200(17) 0.41663(6) 0.28255(16)
C25 C 0.6541(2) 0.49056(8) 0.4446(2)
H27 H 0.6307 0.5277 0.4620
H28 H 0.7024 0.4939 0.3884
C26 C 0.7516(3) 0.46346(11) 0.5829(2)
H29 H 0.7007 0.4570 0.6346
H30 H 0.8333 0.4871 0.6387
H31 H 0.7841 0.4286 0.5655
loop_
_geom_bond_atom_site_label_1
_geom_bond_atom_site_label_2
_geom_bond_site_symmetry_1
_geom_bond_site_symmetry_2
O1 C14 1_555 1_555
C1 H1 1_555 1_555
N1 C1 1_555 1_555
O2 C21 1_555 1_555
C2 C1 1_555 1_555
O3 C21 1_555 1_555
C3 C2 1_555 1_555
O4 C24 1_555 1_555
C4 C3 1_555 1_555
H2 C4 1_555 1_555
O5 C24 1_555 1_555
C5 C4 1_555 1_555
H3 C5 1_555 1_555
C6 C5 1_555 1_555
H4 C6 1_555 1_555
C7 C6 1_555 1_555
H5 C7 1_555 1_555
C8 N1 1_555 1_555
C9 N1 1_555 1_555
H6 C9 1_555 1_555
H7 C9 1_555 1_555
H8 C9 1_555 1_555
C10 C2 1_555 1_555
H9 C10 1_555 1_555
C11 C10 1_555 1_555
C12 C11 1_555 1_555
H10 C12 1_555 1_555
C13 C12 1_555 1_555
H11 C13 1_555 1_555
C14 C13 1_555 1_555
C15 C14 1_555 1_555
H12 C15 1_555 1_555
C16 C11 1_555 1_555
H13 C16 1_555 1_555
C17 O1 1_555 1_555
H14 C17 1_555 1_555
H15 C17 1_555 1_555
H16 C17 1_555 1_555
C18 C10 1_555 1_555
H17 C18 1_555 1_555
H18 C18 1_555 1_555
C19 C18 1_555 1_555
C20 C19 1_555 1_555
H19 C20 1_555 1_555
H20 C20 1_555 1_555
H21 C20 1_555 1_555
C21 C19 1_555 1_555
C22 O2 1_555 1_555
H22 C22 1_555 1_555
H23 C22 1_555 1_555
C23 C22 1_555 1_555
H24 C23 1_555 1_555
H25 C23 1_555 1_555
H26 C23 1_555 1_555
C24 C19 1_555 1_555
C25 O4 1_555 1_555
H27 C25 1_555 1_555
H28 C25 1_555 1_555
C26 C25 1_555 1_555
H29 C26 1_555 1_555
H30 C26 1_555 1_555
H31 C26 1_555 1_555
C3 C8 1_555 1_555
C7 C8 1_555 1_555
C15 C16 1_555 1_555

#END
