
#######################################################################
#
#                 Cambridge Crystallographic Data Centre
#                                CCDC 
#
#######################################################################
#
# If this CIF has been generated from an entry in the Cambridge 
# Structural Database, then it will include bibliographic, chemical, 
# crystal, experimental, refinement or atomic coordinate data resulting 
# from the CCDC's data processing and validation procedures.
#
#######################################################################

data_EHIGIN
_chemical_formula_moiety         'C23 H31 N1 O3'
_chemical_name_systematic        
't-Butyl 7,7-dimethyl-4-(4-methylphenyl)-5-oxo-1,2,3,4,5,6,7,8-octahydroquinoline-2-carboxylate'
_symmetry_cell_setting           monoclinic
_symmetry_space_group_name_H-M   'P 21'
_symmetry_Int_Tables_number      4
_space_group_name_Hall           'P 2yb'
loop_
_symmetry_equiv_pos_site_id
_symmetry_equiv_pos_as_xyz
1 x,y,z
2 -x,1/2+y,-z
_cell_length_a                   7.044(3)
_cell_length_b                   9.645(4)
_cell_length_c                   15.596(6)
_cell_angle_alpha                90
_cell_angle_beta                 91.109(5)
_cell_angle_gamma                90
_cell_volume                     1059.38
_exptl_crystal_colour            colorless
_exptl_crystal_description       rod
_cell_formula_units_Z            2
loop_
_atom_site_label
_atom_site_type_symbol
_atom_site_fract_x
_atom_site_fract_y
_atom_site_fract_z
O1 O 0.2984(4) 0.2583(3) 0.64282(16)
O2 O 0.4287(3) 0.4187(3) 0.55695(15)
O3 O 1.1593(3) 0.3329(3) 0.87067(16)
N1 N 0.5167(4) 0.3419(3) 0.77956(19)
C1 C 0.5494(4) 0.4057(4) 0.6973(2)
H1 H 0.5308 0.5060 0.7027
C2 C 0.7528(4) 0.3787(4) 0.6694(2)
H2 H 0.7780 0.4334 0.6187
H3 H 0.7657 0.2817 0.6543
C3 C 0.9006(4) 0.4148(4) 0.7399(2)
H4 H 1.0210 0.3726 0.7233
C4 C 0.8432(4) 0.3474(4) 0.8229(2)
C5 C 0.6569(4) 0.3145(3) 0.8373(2)
C6 C 0.4092(5) 0.3501(4) 0.6303(2)
C7 C 0.3119(5) 0.3851(4) 0.4789(2)
C8 C 0.3879(7) 0.4862(5) 0.4138(3)
H5 H 0.5223 0.4732 0.4087
H6 H 0.3629 0.5793 0.4321
H7 H 0.3266 0.4701 0.3591
C9 C 0.1065(6) 0.4114(6) 0.4966(3)
H8 H 0.0901 0.5062 0.5135
H9 H 0.0662 0.3513 0.5418
H10 H 0.0318 0.3934 0.4456
C10 C 0.3478(6) 0.2385(4) 0.4509(2)
H11 H 0.2944 0.1755 0.4916
H12 H 0.4821 0.2229 0.4478
H13 H 0.2899 0.2233 0.3955
C11 C 0.9339(4) 0.5703(3) 0.7468(2)
C12 C 0.8176(5) 0.6575(4) 0.7928(2)
H14 H 0.7167 0.6204 0.8228
C13 C 0.8495(6) 0.7999(4) 0.7950(2)
H15 H 0.7682 0.8561 0.8259
C14 C 0.9990(6) 0.8601(4) 0.7521(2)
C15 C 1.1184(5) 0.7727(4) 0.7075(2)
H16 H 1.2216 0.8097 0.6791
C16 C 1.0860(5) 0.6312(4) 0.7047(2)
H17 H 1.1677 0.5751 0.6739
C17 C 1.0334(7) 1.0150(4) 0.7540(3)
H18 H 1.1379 1.0352 0.7924
H19 H 0.9214 1.0613 0.7734
H20 H 1.0626 1.0467 0.6975
C18 C 0.5978(4) 0.2387(4) 0.9165(2)
H21 H 0.5948 0.1401 0.9044
H22 H 0.4701 0.2671 0.9306
C19 C 0.7291(5) 0.2643(4) 0.9942(2)
C20 C 0.9332(5) 0.2382(4) 0.9659(2)
H23 H 1.0193 0.2679 1.0116
H24 H 0.9505 0.1392 0.9585
C21 C 0.9883(4) 0.3103(4) 0.8841(2)
C22 C 0.6803(5) 0.1648(5) 1.0665(2)
H25 H 0.6959 0.0710 1.0472
H26 H 0.5511 0.1791 1.0827
H27 H 0.7633 0.1816 1.1149
C23 C 0.7091(6) 0.4127(4) 1.0256(2)
H28 H 0.5813 0.4280 1.0438
H29 H 0.7378 0.4756 0.9800
H30 H 0.7954 0.4281 1.0730
H31 H 0.402(6) 0.328(4) 0.793(2)
loop_
_geom_bond_atom_site_label_1
_geom_bond_atom_site_label_2
_geom_bond_site_symmetry_1
_geom_bond_site_symmetry_2
O1 C6 1_555 1_555
O2 C6 1_555 1_555
O3 C21 1_555 1_555
N1 C1 1_555 1_555
C1 H1 1_555 1_555
C2 C1 1_555 1_555
H2 C2 1_555 1_555
H3 C2 1_555 1_555
C3 C2 1_555 1_555
H4 C3 1_555 1_555
C4 C3 1_555 1_555
C5 N1 1_555 1_555
C6 C1 1_555 1_555
C7 O2 1_555 1_555
C8 C7 1_555 1_555
H5 C8 1_555 1_555
H6 C8 1_555 1_555
H7 C8 1_555 1_555
C9 C7 1_555 1_555
H8 C9 1_555 1_555
H9 C9 1_555 1_555
H10 C9 1_555 1_555
C10 C7 1_555 1_555
H11 C10 1_555 1_555
H12 C10 1_555 1_555
H13 C10 1_555 1_555
C11 C3 1_555 1_555
C12 C11 1_555 1_555
H14 C12 1_555 1_555
C13 C12 1_555 1_555
H15 C13 1_555 1_555
C14 C13 1_555 1_555
C15 C14 1_555 1_555
H16 C15 1_555 1_555
C16 C11 1_555 1_555
H17 C16 1_555 1_555
C17 C14 1_555 1_555
H18 C17 1_555 1_555
H19 C17 1_555 1_555
H20 C17 1_555 1_555
C18 C5 1_555 1_555
H21 C18 1_555 1_555
H22 C18 1_555 1_555
C19 C18 1_555 1_555
C20 C19 1_555 1_555
H23 C20 1_555 1_555
H24 C20 1_555 1_555
C21 C4 1_555 1_555
C22 C19 1_555 1_555
H25 C22 1_555 1_555
H26 C22 1_555 1_555
H27 C22 1_555 1_555
C23 C19 1_555 1_555
H28 C23 1_555 1_555
H29 C23 1_555 1_555
H30 C23 1_555 1_555
H31 N1 1_555 1_555
C4 C5 1_555 1_555
C15 C16 1_555 1_555
C20 C21 1_555 1_555

#END
