
#######################################################################
#
#                 Cambridge Crystallographic Data Centre
#                                CCDC 
#
#######################################################################
#
# If this CIF has been generated from an entry in the Cambridge 
# Structural Database, then it will include bibliographic, chemical, 
# crystal, experimental, refinement or atomic coordinate data resulting 
# from the CCDC's data processing and validation procedures.
#
#######################################################################

data_EHIGEJ
_chemical_formula_moiety         'C22 H28 Br1 N1 O3'
_chemical_name_systematic        
't-Butyl 4-(4-bromophenyl)-7,7-dimethyl-5-oxo-1,2,3,4,5,6,7,8-octahydroquinoline-2-carboxylate'
_symmetry_cell_setting           monoclinic
_symmetry_space_group_name_H-M   'P 21'
_symmetry_Int_Tables_number      4
_space_group_name_Hall           'P 2yb'
loop_
_symmetry_equiv_pos_site_id
_symmetry_equiv_pos_as_xyz
1 x,y,z
2 -x,1/2+y,-z
_cell_length_a                   7.0133(15)
_cell_length_b                   9.941(2)
_cell_length_c                   15.458(4)
_cell_angle_alpha                90
_cell_angle_beta                 90.480(5)
_cell_angle_gamma                90
_cell_volume                     1077.68
_exptl_crystal_colour            colorless
_exptl_crystal_description       rod
_cell_formula_units_Z            2
loop_
_atom_site_label
_atom_site_type_symbol
_atom_site_fract_x
_atom_site_fract_y
_atom_site_fract_z
Br1 Br -0.03119(10) 0.93907(7) 0.74161(3)
O1 O -0.1620(4) 0.2479(4) 0.62904(19)
O2 O 0.7043(4) 0.1796(4) 0.8616(2)
O3 O 0.5555(4) 0.3287(3) 0.94781(18)
N1 N 0.4792(4) 0.2463(4) 0.7243(2)
H1 H 0.5939 0.2222 0.7127
C1 C 0.0944(5) 0.3226(4) 0.7623(2)
H2 H -0.0281 0.2834 0.7790
C2 C 0.2383(5) 0.2871(4) 0.8344(2)
H3 H 0.2117 0.3407 0.8853
H4 H 0.2241 0.1930 0.8498
C3 C 0.4434(5) 0.3129(4) 0.8056(2)
H5 H 0.4611 0.4099 0.7978
C4 C 0.3397(5) 0.2202(4) 0.6657(2)
C5 C 0.1530(5) 0.2546(4) 0.6794(2)
C6 C 0.0091(5) 0.2228(4) 0.6167(2)
C7 C 0.0657(6) 0.1523(5) 0.5337(3)
H6 H -0.0162 0.1841 0.4872
H7 H 0.0429 0.0566 0.5404
C8 C 0.2730(5) 0.1729(5) 0.5074(2)
C9 C 0.3994(6) 0.1444(5) 0.5863(3)
H8 H 0.3964 0.0487 0.5986
H9 H 0.5299 0.1682 0.5727
C10 C 0.3227(7) 0.0747(6) 0.4344(3)
H10 H 0.2958 -0.0156 0.4526
H11 H 0.4556 0.0827 0.4210
H12 H 0.2477 0.0957 0.3840
C11 C 0.3036(8) 0.3165(6) 0.4755(3)
H13 H 0.2266 0.3318 0.4248
H14 H 0.4356 0.3291 0.4616
H15 H 0.2678 0.3788 0.5199
C12 C 0.5842(5) 0.2635(4) 0.8738(2)
C13 C 0.6696(6) 0.3005(5) 1.0274(3)
C14 C 0.6424(8) 0.1559(5) 1.0545(3)
H16 H 0.5087 0.1369 1.0591
H17 H 0.7035 0.1412 1.1095
H18 H 0.6977 0.0975 1.0121
C15 C 0.8756(7) 0.3358(7) 1.0121(3)
H19 H 0.9299 0.2727 0.9723
H20 H 0.9447 0.3324 1.0660
H21 H 0.8836 0.4249 0.9884
C16 C 0.5820(8) 0.3948(6) 1.0922(3)
H22 H 0.6019 0.4861 1.0741
H23 H 0.6405 0.3810 1.1478
H24 H 0.4476 0.3773 1.0959
C17 C 0.0636(5) 0.4730(4) 0.7539(2)
C18 C -0.0856(6) 0.5340(5) 0.7974(3)
H25 H -0.1676 0.4811 0.8299
C19 C -0.1156(7) 0.6728(5) 0.7935(3)
H26 H -0.2168 0.7123 0.8224
C20 C 0.0090(7) 0.7499(5) 0.7455(3)
C21 C 0.1568(7) 0.6926(5) 0.7016(3)
H27 H 0.2392 0.7458 0.6695
C22 C 0.1827(7) 0.5541(5) 0.7054(3)
H28 H 0.2821 0.5151 0.6748
loop_
_geom_bond_atom_site_label_1
_geom_bond_atom_site_label_2
_geom_bond_site_symmetry_1
_geom_bond_site_symmetry_2
Br1 C20 1_555 1_555
O1 C6 1_555 1_555
O2 C12 1_555 1_555
O3 C12 1_555 1_555
N1 H1 1_555 1_555
C1 H2 1_555 1_555
C2 C1 1_555 1_555
H3 C2 1_555 1_555
H4 C2 1_555 1_555
C3 N1 1_555 1_555
H5 C3 1_555 1_555
C4 N1 1_555 1_555
C5 C1 1_555 1_555
C6 C5 1_555 1_555
C7 C6 1_555 1_555
H6 C7 1_555 1_555
H7 C7 1_555 1_555
C8 C7 1_555 1_555
C9 C4 1_555 1_555
H8 C9 1_555 1_555
H9 C9 1_555 1_555
C10 C8 1_555 1_555
H10 C10 1_555 1_555
H11 C10 1_555 1_555
H12 C10 1_555 1_555
C11 C8 1_555 1_555
H13 C11 1_555 1_555
H14 C11 1_555 1_555
H15 C11 1_555 1_555
C12 C3 1_555 1_555
C13 O3 1_555 1_555
C14 C13 1_555 1_555
H16 C14 1_555 1_555
H17 C14 1_555 1_555
H18 C14 1_555 1_555
C15 C13 1_555 1_555
H19 C15 1_555 1_555
H20 C15 1_555 1_555
H21 C15 1_555 1_555
C16 C13 1_555 1_555
H22 C16 1_555 1_555
H23 C16 1_555 1_555
H24 C16 1_555 1_555
C17 C1 1_555 1_555
C18 C17 1_555 1_555
H25 C18 1_555 1_555
C19 C18 1_555 1_555
H26 C19 1_555 1_555
C20 C19 1_555 1_555
C21 C20 1_555 1_555
H27 C21 1_555 1_555
C22 C17 1_555 1_555
H28 C22 1_555 1_555
C2 C3 1_555 1_555
C4 C5 1_555 1_555
C8 C9 1_555 1_555
C21 C22 1_555 1_555

#END
