
#######################################################################
#
#                 Cambridge Crystallographic Data Centre
#                                CCDC 
#
#######################################################################
#
# If this CIF has been generated from an entry in the Cambridge 
# Structural Database, then it will include bibliographic, chemical, 
# crystal, experimental, refinement or atomic coordinate data resulting 
# from the CCDC's data processing and validation procedures.
#
#######################################################################

data_EHIHAG
_chemical_formula_moiety         'C29 H33 Br1 Cl1 N1 O4'
_chemical_name_systematic        
't-Butyl 4-(4-bromophenyl)-2-((4-chlorobenzyl)amino)-7,7-dimethyl-5-oxo-3,4,5,6,7,8-hexahydro-2H-chromene-2-carboxylate'
_symmetry_cell_setting           triclinic
_symmetry_space_group_name_H-M   'P 1'
_symmetry_Int_Tables_number      1
_space_group_name_Hall           'P 1'
loop_
_symmetry_equiv_pos_site_id
_symmetry_equiv_pos_as_xyz
1 x,y,z
_cell_length_a                   5.9062(15)
_cell_length_b                   11.344(2)
_cell_length_c                   11.432(3)
_cell_angle_alpha                66.402(6)
_cell_angle_beta                 89.527(10)
_cell_angle_gamma                81.915(9)
_cell_volume                     693.941
_exptl_crystal_colour            colorless
_exptl_crystal_description       block
_cell_formula_units_Z            1
loop_
_atom_site_label
_atom_site_type_symbol
_atom_site_fract_x
_atom_site_fract_y
_atom_site_fract_z
Br1 Br 0.02214(5) 0.68451(3) 1.03795(3)
Cl1 Cl 0.0874(2) 0.25156(11) -0.03649(10)
O1 O 0.7693(4) 0.5443(2) 0.4488(2)
O2 O 0.1660(4) 0.8696(2) 0.4416(2)
O3 O 1.0167(5) 0.3210(3) 0.5783(3)
O4 O 0.7156(4) 0.2140(2) 0.6131(3)
N1 N 0.4898(5) 0.4305(3) 0.4135(3)
H1 H 0.3757 0.4925 0.3866
C1 C 0.6327(5) 0.4407(3) 0.5084(3)
C2 C 0.4934(6) 0.4642(3) 0.6114(3)
H2 H 0.5966 0.4611 0.6785
H3 H 0.4006 0.3955 0.6488
C3 C 0.3372(5) 0.5962(3) 0.5583(3)
H4 H 0.2031 0.5875 0.5141
C4 C 0.4607(5) 0.6989(3) 0.4615(3)
C5 C 0.3593(6) 0.8362(3) 0.4136(3)
C6 C 0.4992(7) 0.9362(3) 0.3288(4)
H5 H 0.6039 0.9547 0.3820
H6 H 0.3974 1.0163 0.2805
C7 C 0.6360(6) 0.8923(3) 0.2360(3)
C8 C 0.7865(6) 0.7627(3) 0.3173(3)
H7 H 0.8552 0.7242 0.2610
H8 H 0.9096 0.7803 0.3607
C9 C 0.6599(6) 0.6672(3) 0.4140(3)
C10 C 0.8160(6) 0.3184(3) 0.5706(3)
C11 C 0.8486(6) 0.0807(3) 0.6754(4)
C12 C 0.9759(9) 0.0662(4) 0.7944(4)
H9 H 1.0868 0.1249 0.7723
H10 H 1.0524 -0.0215 0.8367
H11 H 0.8699 0.0861 0.8504
C13 C 0.6616(10) -0.0042(4) 0.7063(8)
H12 H 0.5530 0.0215 0.7578
H13 H 0.7277 -0.0935 0.7523
H14 H 0.5854 0.0057 0.6284
C14 C 1.0053(10) 0.0556(5) 0.5815(5)
H15 H 0.9194 0.0753 0.5033
H16 H 1.0735 -0.0342 0.6162
H17 H 1.1233 0.1096 0.5647
C15 C 0.2552(5) 0.6283(3) 0.6702(3)
C16 C 0.0530(6) 0.5886(4) 0.7248(3)
H18 H -0.0357 0.5494 0.6882
C17 C -0.0180(6) 0.6068(4) 0.8334(3)
H19 H -0.1536 0.5804 0.8696
C18 C 0.1156(6) 0.6647(3) 0.8865(3)
C19 C 0.3159(6) 0.7057(3) 0.8339(3)
H20 H 0.4039 0.7456 0.8701
C20 C 0.3834(6) 0.6863(3) 0.7258(3)
H21 H 0.5189 0.7131 0.6898
C21 C 0.7883(7) 0.9929(4) 0.1618(4)
H22 H 0.6945 1.0746 0.1134
H23 H 0.8761 0.9638 0.1048
H24 H 0.8901 1.0037 0.2206
C22 C 0.4752(7) 0.8741(4) 0.1428(4)
H25 H 0.3810 0.8100 0.1896
H26 H 0.5636 0.8456 0.0855
H27 H 0.3797 0.9552 0.0946
C23 C 0.6100(7) 0.4137(5) 0.3090(4)
H28 H 0.7432 0.3476 0.3441
H29 H 0.6642 0.4946 0.2568
C24 C 0.4690(6) 0.3755(3) 0.2247(3)
C25 C 0.5388(6) 0.3978(4) 0.1023(3)
H30 H 0.6659 0.4394 0.0736
C26 C 0.4231(7) 0.3592(4) 0.0223(3)
H31 H 0.4731 0.3733 -0.0589
C27 C 0.2332(7) 0.2999(3) 0.0644(4)
C28 C 0.1586(7) 0.2769(4) 0.1854(4)
H32 H 0.0293 0.2371 0.2127
C29 C 0.2780(6) 0.3137(3) 0.2652(3)
H33 H 0.2301 0.2969 0.3473
loop_
_geom_bond_atom_site_label_1
_geom_bond_atom_site_label_2
_geom_bond_site_symmetry_1
_geom_bond_site_symmetry_2
Br1 C18 1_555 1_555
Cl1 C27 1_555 1_555
O1 C1 1_555 1_555
O2 C5 1_555 1_555
O3 C10 1_555 1_555
O4 C10 1_555 1_555
N1 H1 1_555 1_555
C1 N1 1_555 1_555
C2 C1 1_555 1_555
H2 C2 1_555 1_555
H3 C2 1_555 1_555
C3 C2 1_555 1_555
H4 C3 1_555 1_555
C4 C3 1_555 1_555
C5 C4 1_555 1_555
C6 C5 1_555 1_555
H5 C6 1_555 1_555
H6 C6 1_555 1_555
C7 C6 1_555 1_555
C8 C7 1_555 1_555
H7 C8 1_555 1_555
H8 C8 1_555 1_555
C9 O1 1_555 1_555
C10 C1 1_555 1_555
C11 O4 1_555 1_555
C12 C11 1_555 1_555
H9 C12 1_555 1_555
H10 C12 1_555 1_555
H11 C12 1_555 1_555
C13 C11 1_555 1_555
H12 C13 1_555 1_555
H13 C13 1_555 1_555
H14 C13 1_555 1_555
C14 C11 1_555 1_555
H15 C14 1_555 1_555
H16 C14 1_555 1_555
H17 C14 1_555 1_555
C15 C3 1_555 1_555
C16 C15 1_555 1_555
H18 C16 1_555 1_555
C17 C16 1_555 1_555
H19 C17 1_555 1_555
C18 C17 1_555 1_555
C19 C18 1_555 1_555
H20 C19 1_555 1_555
C20 C15 1_555 1_555
H21 C20 1_555 1_555
C21 C7 1_555 1_555
H22 C21 1_555 1_555
H23 C21 1_555 1_555
H24 C21 1_555 1_555
C22 C7 1_555 1_555
H25 C22 1_555 1_555
H26 C22 1_555 1_555
H27 C22 1_555 1_555
C23 N1 1_555 1_555
H28 C23 1_555 1_555
H29 C23 1_555 1_555
C24 C23 1_555 1_555
C25 C24 1_555 1_555
H30 C25 1_555 1_555
C26 C25 1_555 1_555
H31 C26 1_555 1_555
C27 C26 1_555 1_555
C28 C27 1_555 1_555
H32 C28 1_555 1_555
C29 C24 1_555 1_555
H33 C29 1_555 1_555
C4 C9 1_555 1_555
C8 C9 1_555 1_555
C19 C20 1_555 1_555
C28 C29 1_555 1_555

#END
