
#######################################################################
#
#                 Cambridge Crystallographic Data Centre
#                                CCDC 
#
#######################################################################
#
# If this CIF has been generated from an entry in the Cambridge 
# Structural Database, then it will include bibliographic, chemical, 
# crystal, experimental, refinement or atomic coordinate data resulting 
# from the CCDC's data processing and validation procedures.
#
#######################################################################

data_EHILIS
_chemical_formula_moiety         'C12 H8 Br1 F3 N2 O1'
_chemical_name_systematic        
6-Bromo-1-oxo-4-(2,2,2-trifluoroethyl)-3,4-dihydroisoquinoline-2(1H)-carbonitrile
_symmetry_cell_setting           monoclinic
_symmetry_space_group_name_H-M   'P 21/c'
_symmetry_Int_Tables_number      14
_space_group_name_Hall           '-P 2ybc'
loop_
_symmetry_equiv_pos_site_id
_symmetry_equiv_pos_as_xyz
1 x,y,z
2 -x,1/2+y,1/2-z
3 -x,-y,-z
4 x,1/2-y,1/2+z
_cell_length_a                   14.585(3)
_cell_length_b                   20.366(4)
_cell_length_c                   8.5372(17)
_cell_angle_alpha                90
_cell_angle_beta                 90.191(4)
_cell_angle_gamma                90
_cell_volume                     2535.86
_exptl_crystal_description       block
_cell_formula_units_Z            8
loop_
_atom_site_label
_atom_site_type_symbol
_atom_site_fract_x
_atom_site_fract_y
_atom_site_fract_z
Br1 Br 0.07220(5) 0.58117(4) 0.47039(11)
O1 O 0.4860(3) 0.4311(2) 0.5989(5)
F1 F 0.1404(4) 0.3498(2) 0.6523(6)
F2 F 0.0898(3) 0.3060(3) 0.4501(6)
F3 F 0.1451(4) 0.2462(2) 0.6321(7)
N1 N 0.4296(3) 0.3670(2) 0.4027(6)
C1 C 0.2629(4) 0.3607(3) 0.3627(7)
C2 C 0.3360(4) 0.4552(3) 0.5042(7)
C3 C 0.2585(3) 0.4289(3) 0.4314(7)
C4 C 0.4239(4) 0.4192(3) 0.5121(8)
C5 C 0.1786(4) 0.4660(3) 0.4284(7)
H1 H 0.1252 0.4487 0.3853
C6 C 0.2549(4) 0.5547(3) 0.5611(8)
H2 H 0.2528 0.5968 0.6035
C7 C 0.1791(4) 0.5287(3) 0.4897(8)
N2 N 0.5808(4) 0.3128(3) 0.3729(8)
C8 C 0.2491(4) 0.3054(3) 0.4816(8)
H3 H 0.2612 0.2639 0.4299
H4 H 0.2943 0.3105 0.5644
C9 C 0.1577(5) 0.3020(3) 0.5535(9)
C10 C 0.3571(4) 0.3535(3) 0.2876(7)
H5 H 0.3641 0.3093 0.2472
H6 H 0.3623 0.3839 0.2006
C11 C 0.3343(4) 0.5182(3) 0.5698(8)
H7 H 0.3861 0.5352 0.6187
C12 C 0.5120(4) 0.3377(3) 0.3884(8)
Br2 Br 0.92707(5) 0.58153(4) 0.97648(11)
O2 O 0.5135(3) 0.4310(2) 1.0973(5)
F4 F 0.8600(3) 0.3504(2) 1.1576(6)
F5 F 0.9099(3) 0.3060(3) 0.9563(6)
F6 F 0.8552(4) 0.2467(2) 1.1365(7)
N3 N 0.5701(3) 0.3667(2) 0.9048(6)
C13 C 0.7421(3) 0.4288(3) 0.9360(6)
C14 C 0.8212(4) 0.4659(3) 0.9312(7)
H8 H 0.8744 0.4490 0.8868
C15 C 0.6633(4) 0.4548(3) 1.0054(7)
C16 C 0.7371(4) 0.3607(3) 0.8652(7)
C17 C 0.5764(4) 0.4186(3) 1.0095(7)
C18 C 0.6659(4) 0.5179(3) 1.0725(7)
H9 H 0.6145 0.5344 1.1231
C19 C 0.7440(4) 0.5550(3) 1.0635(8)
H10 H 0.7452 0.5974 1.1041
C20 C 0.8204(4) 0.5290(3) 0.9937(8)
C21 C 0.6428(4) 0.3534(3) 0.7884(7)
H11 H 0.6373 0.3840 0.7017
H12 H 0.6359 0.3093 0.7475
C22 C 0.7504(4) 0.3053(3) 0.9863(8)
H13 H 0.7060 0.3111 1.0694
H14 H 0.7375 0.2636 0.9358
C23 C 0.8429(5) 0.3019(3) 1.0572(9)
N4 N 0.4186(4) 0.3134(3) 0.8682(9)
C24 C 0.4882(4) 0.3380(3) 0.8875(9)
loop_
_geom_bond_atom_site_label_1
_geom_bond_atom_site_label_2
_geom_bond_site_symmetry_1
_geom_bond_site_symmetry_2
Br1 C7 1_555 1_555
O1 C4 1_555 1_555
F1 C9 1_555 1_555
F2 C9 1_555 1_555
F3 C9 1_555 1_555
N1 C4 1_555 1_555
C1 C3 1_555 1_555
C2 C3 1_555 1_555
C3 C5 1_555 1_555
C4 C2 1_555 1_555
C5 H1 1_555 1_555
C6 H2 1_555 1_555
C7 C5 1_555 1_555
N2 C12 1_555 1_555
C8 C1 1_555 1_555
H3 C8 1_555 1_555
H4 C8 1_555 1_555
C9 C8 1_555 1_555
C10 N1 1_555 1_555
H5 C10 1_555 1_555
H6 C10 1_555 1_555
C11 C2 1_555 1_555
H7 C11 1_555 1_555
C12 N1 1_555 1_555
Br2 C20 1_555 1_555
O2 C17 1_555 1_555
F4 C23 1_555 1_555
F5 C23 1_555 1_555
F6 C23 1_555 1_555
N3 C17 1_555 1_555
C13 C14 1_555 1_555
C14 H8 1_555 1_555
C15 C13 1_555 1_555
C16 C13 1_555 1_555
C17 C15 1_555 1_555
C18 C15 1_555 1_555
H9 C18 1_555 1_555
C19 C18 1_555 1_555
H10 C19 1_555 1_555
C20 C14 1_555 1_555
C21 N3 1_555 1_555
H11 C21 1_555 1_555
H12 C21 1_555 1_555
C22 C16 1_555 1_555
H13 C22 1_555 1_555
H14 C22 1_555 1_555
C23 C22 1_555 1_555
N4 C24 1_555 1_555
C24 N3 1_555 1_555
C1 C10 1_555 1_555
C6 C7 1_555 1_555
C6 C11 1_555 1_555
C16 C21 1_555 1_555
C19 C20 1_555 1_555

#END
