
#######################################################################
#
#                 Cambridge Crystallographic Data Centre
#                                CCDC 
#
#######################################################################
#
# If this CIF has been generated from an entry in the Cambridge 
# Structural Database, then it will include bibliographic, chemical, 
# crystal, experimental, refinement or atomic coordinate data resulting 
# from the CCDC's data processing and validation procedures.
#
#######################################################################

data_EHINAM
_chemical_formula_moiety         'C26 H19 Br2 N3 O1'
_chemical_name_systematic        
5,5''-Dibromo-1,1'-dimethyl-1H,1''H-3,3':3',3''-terindol-2'(1'H)-one
_symmetry_cell_setting           orthorhombic
_symmetry_space_group_name_H-M   'P 21 21 21'
_symmetry_Int_Tables_number      19
_space_group_name_Hall           'P 2ac 2ab'
loop_
_symmetry_equiv_pos_site_id
_symmetry_equiv_pos_as_xyz
1 x,y,z
2 1/2-x,-y,1/2+z
3 -x,1/2+y,1/2-z
4 1/2+x,1/2-y,-z
_cell_length_a                   10.1130(12)
_cell_length_b                   10.4519(12)
_cell_length_c                   22.373(2)
_cell_angle_alpha                90
_cell_angle_beta                 90
_cell_angle_gamma                90
_cell_volume                     2364.83
_exptl_crystal_colour            colorless
_exptl_crystal_description       slice
_cell_formula_units_Z            4
loop_
_atom_site_label
_atom_site_type_symbol
_atom_site_fract_x
_atom_site_fract_y
_atom_site_fract_z
Br1 Br 1.05271(9) 0.25113(7) 0.04120(3)
Br2 Br 0.74714(9) 0.35106(7) 0.38935(3)
C1 C 1.2049(5) 0.4768(5) 0.1757(2)
H1 H 1.2846 0.4843 0.1961
C2 C 1.1884(6) 0.3888(5) 0.1316(3)
H2 H 1.2581 0.3350 0.1215
C3 C 1.0689(7) 0.3782(5) 0.1015(2)
C4 C 0.9630(5) 0.4559(4) 0.1129(2)
H3 H 0.8852 0.4482 0.0910
C5 C 0.9750(5) 0.5479(4) 0.15874(19)
C6 C 1.0976(5) 0.5553(5) 0.1890(2)
C7 C 0.9615(5) 0.6984(4) 0.2291(2)
H4 H 0.9297 0.7628 0.2539
C8 C 0.8899(5) 0.6421(4) 0.18476(18)
C9 C 1.1904(6) 0.6923(6) 0.2734(3)
H5 H 1.2616 0.7288 0.2507
H6 H 1.2227 0.6210 0.2962
H7 H 1.1551 0.7557 0.3001
C10 C 0.7524(5) 0.6771(4) 0.16669(16)
C11 C 0.6656(4) 0.7152(4) 0.21969(18)
C12 C 0.5803(4) 0.8155(4) 0.2220(2)
H8 H 0.5707 0.8769 0.1923
C13 C 0.5516(5) 0.7111(4) 0.30649(19)
C14 C 0.6502(4) 0.6451(4) 0.27475(18)
C15 C 0.7097(5) 0.5369(5) 0.29890(19)
H9 H 0.7741 0.4918 0.2780
C16 C 0.6699(6) 0.4994(5) 0.3545(2)
C17 C 0.5719(6) 0.5642(6) 0.3869(2)
H10 H 0.5475 0.5350 0.4246
C18 C 0.5125(5) 0.6691(5) 0.3635(2)
H11 H 0.4472 0.7124 0.3847
C19 C 0.7490(5) 0.7804(4) 0.11911(18)
C20 C 0.8088(6) 0.8977(5) 0.1162(3)
H12 H 0.8654 0.9248 0.1465
C21 C 0.7830(8) 0.9758(7) 0.0671(4)
H13 H 0.8208 1.0568 0.0648
C22 C 0.7037(9) 0.9340(8) 0.0230(3)
H14 H 0.6889 0.9879 -0.0094
C23 C 0.6425(7) 0.8151(7) 0.0230(2)
H15 H 0.5879 0.7885 -0.0080
C24 C 0.6682(5) 0.7385(5) 0.0725(2)
C25 C 0.5325(7) 0.5419(7) 0.0466(3)
H16 H 0.5734 0.5247 0.0087
H17 H 0.4530 0.5903 0.0405
H18 H 0.5114 0.4625 0.0660
C26 C 0.6749(5) 0.5690(5) 0.1362(2)
N1 N 1.0856(4) 0.6485(4) 0.23243(17)
N2 N 0.5109(4) 0.8134(4) 0.27421(17)
H19 H 0.4515 0.8677 0.2848
N3 N 0.6236(4) 0.6150(4) 0.08397(17)
O1 O 0.6582(4) 0.4618(3) 0.15525(14)
loop_
_geom_bond_atom_site_label_1
_geom_bond_atom_site_label_2
_geom_bond_site_symmetry_1
_geom_bond_site_symmetry_2
Br1 C3 1_555 1_555
Br2 C16 1_555 1_555
C1 H1 1_555 1_555
C2 C1 1_555 1_555
H2 C2 1_555 1_555
C3 C2 1_555 1_555
C4 C3 1_555 1_555
H3 C4 1_555 1_555
C5 C4 1_555 1_555
C6 C1 1_555 1_555
C7 H4 1_555 1_555
C8 C5 1_555 1_555
C9 H5 1_555 1_555
H6 C9 1_555 1_555
H7 C9 1_555 1_555
C10 C8 1_555 1_555
C11 C10 1_555 1_555
C12 C11 1_555 1_555
H8 C12 1_555 1_555
C13 C14 1_555 1_555
C14 C11 1_555 1_555
C15 C14 1_555 1_555
H9 C15 1_555 1_555
C16 C15 1_555 1_555
C17 C16 1_555 1_555
H10 C17 1_555 1_555
C18 C13 1_555 1_555
H11 C18 1_555 1_555
C19 C10 1_555 1_555
C20 C19 1_555 1_555
H12 C20 1_555 1_555
C21 C20 1_555 1_555
H13 C21 1_555 1_555
C22 C21 1_555 1_555
H14 C22 1_555 1_555
C23 C22 1_555 1_555
H15 C23 1_555 1_555
C24 C19 1_555 1_555
C25 H16 1_555 1_555
H17 C25 1_555 1_555
H18 C25 1_555 1_555
C26 C10 1_555 1_555
N1 C6 1_555 1_555
N2 C12 1_555 1_555
H19 N2 1_555 1_555
N3 C24 1_555 1_555
O1 C26 1_555 1_555
C5 C6 1_555 1_555
C7 C8 1_555 1_555
C7 N1 1_555 1_555
C9 N1 1_555 1_555
C13 N2 1_555 1_555
C17 C18 1_555 1_555
C23 C24 1_555 1_555
C25 N3 1_555 1_555
C26 N3 1_555 1_555

#END
