
#######################################################################
#
#                 Cambridge Crystallographic Data Centre
#                                CCDC 
#
#######################################################################
#
# If this CIF has been generated from an entry in the Cambridge 
# Structural Database, then it will include bibliographic, chemical, 
# crystal, experimental, refinement or atomic coordinate data resulting 
# from the CCDC's data processing and validation procedures.
#
#######################################################################

data_EHIYID
_chemical_formula_moiety         'C15 H21 N1 O5'
_chemical_name_systematic        
'Diethyl 3-(N-acetylamino)-6-methyl-cis-3,6-dihydrophthalate'
_symmetry_cell_setting           monoclinic
_symmetry_space_group_name_H-M   'P 21/c'
_symmetry_Int_Tables_number      14
_space_group_name_Hall           '-P 2ybc'
loop_
_symmetry_equiv_pos_site_id
_symmetry_equiv_pos_as_xyz
1 x,y,z
2 x,1/2-y,1/2+z
3 -x,-y,-z
4 -x,1/2+y,1/2-z
_cell_length_a                   8.901(2)
_cell_length_b                   19.429(4)
_cell_length_c                   9.530(2)
_cell_angle_alpha                90
_cell_angle_beta                 107.79(3)
_cell_angle_gamma                90
_cell_volume                     1569.29
_exptl_crystal_colour            colorless
_exptl_crystal_description       prism
_chemical_melting_point          '77 deg.C'
_cell_formula_units_Z            4
loop_
_atom_site_label
_atom_site_type_symbol
_atom_site_fract_x
_atom_site_fract_y
_atom_site_fract_z
C1 C 0.1917(2) 0.05011(11) 0.8523(2)
C2 C 0.3587(2) 0.06664(10) 0.8624(2)
C3 C 0.4326(2) 0.11674(10) 0.9535(2)
C4 C 0.6053(2) 0.13497(10) 0.9796(2)
H1 H 0.6615(2) 0.12813(10) 1.0869(2)
C5 C 0.6826(2) 0.08904(10) 0.8951(2)
H2 H 0.7912(2) 0.09598(10) 0.9060(2)
C6 C 0.6077(2) 0.03976(10) 0.8069(2)
H3 H 0.6675(2) 0.01218(10) 0.7612(2)
C7 C 0.4359(2) 0.02347(10) 0.7725(2)
H4 H 0.4272(2) -0.02576(10) 0.7997(2)
C8 C 0.3538(3) 0.03027(13) 0.6067(2)
H5 H 0.2414(3) 0.01953(13) 0.5850(2)
H6 H 0.4017(3) -0.00182(13) 0.5534(2)
H7 H 0.3657(3) 0.07747(13) 0.5754(2)
C9 C -0.0105(2) -0.03426(12) 0.7738(3)
H8 H -0.0872(2) 0.00003(12) 0.7164(3)
H9 H -0.0272(2) -0.04018(12) 0.8711(3)
C10 C -0.0308(3) -0.10130(12) 0.6935(3)
H10 H -0.1379(3) -0.11865(12) 0.6788(3)
H11 H 0.0460(3) -0.13463(12) 0.7515(3)
H12 H -0.0137(3) -0.09463(12) 0.5976(3)
C11 C 0.3583(2) 0.15447(10) 1.0529(3)
C12 C 0.2386(3) 0.25860(12) 1.0924(3)
H13 H 0.2598(3) 0.30763(12) 1.0773(3)
H14 H 0.2912(3) 0.24713(12) 1.1972(3)
C13 C 0.0664(3) 0.24762(15) 1.0570(4)
H15 H 0.0252(3) 0.27680(15) 1.1206(4)
H16 H 0.0458(3) 0.19920(15) 1.0733(4)
H17 H 0.0144(3) 0.25961(15) 0.9536(4)
C14 C 0.6501(2) 0.25689(11) 1.0463(2)
C15 C 0.6661(3) 0.32853(11) 0.9954(3)
H18 H 0.6583(3) 0.32781(11) 0.8906(3)
H19 H 0.7688(3) 0.34738(11) 1.0523(3)
H20 H 0.5818(3) 0.35737(11) 1.0099(3)
N1 N 0.6260(2) 0.20710(8) 0.9447(2)
H21 H 0.6281(25) 0.2188(12) 0.8556(27)
O1 O 0.1497(2) -0.01182(7) 0.7915(2)
O2 O 0.1043(2) 0.08645(8) 0.8937(2)
O3 O 0.3026(2) 0.21572(7) 0.9991(2)
O4 O 0.3600(2) 0.13250(8) 1.1715(2)
O5 O 0.6559(2) 0.24386(8) 1.1746(2)
loop_
_geom_bond_atom_site_label_1
_geom_bond_atom_site_label_2
_geom_bond_site_symmetry_1
_geom_bond_site_symmetry_2
C1 C2 1_555 1_555
C2 C3 1_555 1_555
C3 C4 1_555 1_555
C4 H1 1_555 1_555
C5 C4 1_555 1_555
H2 C5 1_555 1_555
C6 C5 1_555 1_555
H3 C6 1_555 1_555
C7 C2 1_555 1_555
H4 C7 1_555 1_555
C8 C7 1_555 1_555
H5 C8 1_555 1_555
H6 C8 1_555 1_555
H7 C8 1_555 1_555
C9 H8 1_555 1_555
H9 C9 1_555 1_555
C10 C9 1_555 1_555
H10 C10 1_555 1_555
H11 C10 1_555 1_555
H12 C10 1_555 1_555
C11 C3 1_555 1_555
C12 H13 1_555 1_555
H14 C12 1_555 1_555
C13 C12 1_555 1_555
H15 C13 1_555 1_555
H16 C13 1_555 1_555
H17 C13 1_555 1_555
C14 C15 1_555 1_555
C15 H18 1_555 1_555
H19 C15 1_555 1_555
H20 C15 1_555 1_555
N1 C4 1_555 1_555
H21 N1 1_555 1_555
O1 C1 1_555 1_555
O2 C1 1_555 1_555
O3 C11 1_555 1_555
O4 C11 1_555 1_555
O5 C14 1_555 1_555
C6 C7 1_555 1_555
C9 O1 1_555 1_555
C12 O3 1_555 1_555
C14 N1 1_555 1_555

#END
