
#######################################################################
#
#                 Cambridge Crystallographic Data Centre
#                                CCDC 
#
#######################################################################
#
# If this CIF has been generated from an entry in the Cambridge 
# Structural Database, then it will include bibliographic, chemical, 
# crystal, experimental, refinement or atomic coordinate data resulting 
# from the CCDC's data processing and validation procedures.
#
#######################################################################

data_EHIZIG
_chemical_compound_source        'Piper cubeba'
_chemical_name_common            cubebin
_chemical_formula_moiety         'C28 H29 N1 O6'
_chemical_name_systematic        
4-(1,3-Benzodioxol-5-yl)-2-(1,3-benzodioxol-5-ylmethyl)-3-(hydroxymethyl)-N-(2-phenylethyl)butanamide
_chemical_properties_biological  'anticancer activity'
_symmetry_cell_setting           monoclinic
_symmetry_space_group_name_H-M   'P 21'
_symmetry_Int_Tables_number      4
_space_group_name_Hall           'P 2yb'
loop_
_symmetry_equiv_pos_site_id
_symmetry_equiv_pos_as_xyz
1 x,y,z
2 -x,1/2+y,-z
_cell_length_a                   6.850(9)
_cell_length_b                   20.466(4)
_cell_length_c                   8.826(2)
_cell_angle_alpha                90
_cell_angle_beta                 92.31(4)
_cell_angle_gamma                90
_cell_volume                     1236.33
_exptl_crystal_colour            colorless
_exptl_crystal_description       Block
_cell_formula_units_Z            2
loop_
_atom_site_label
_atom_site_type_symbol
_atom_site_fract_x
_atom_site_fract_y
_atom_site_fract_z
C1 C 0.5768(5) 0.55213(17) 0.6745(4)
C2 C 0.4653(6) 0.3925(2) 0.1876(4)
C3 C 0.2644(8) 0.2113(2) 0.7281(6)
C4 C 0.5395(6) 0.61405(19) 0.6119(5)
H1 H 0.6283 0.6343 0.5501
C5 C 0.3189(6) 0.4311(2) 0.1190(4)
H2 H 0.3323 0.4763 0.1137
C6 C 0.4154(10) 0.1760(3) 0.7924(8)
H3 H 0.5436 0.1858 0.7697
C7 C 0.3659(6) 0.64377(19) 0.6456(5)
C8 C 0.1552(6) 0.4007(2) 0.0597(4)
C9 C 0.3760(13) 0.1246(3) 0.8935(8)
H4 H 0.4794 0.1027 0.9425
C10 C 0.2321(5) 0.6155(2) 0.7358(4)
C11 C 0.1308(6) 0.3337(2) 0.0675(4)
C12 C 0.1900(14) 0.1067(4) 0.9205(8)
H5 H 0.1651 0.0711 0.9822
C13 C 0.2641(6) 0.5549(2) 0.8004(5)
H6 H 0.1736 0.5356 0.8622
C14 C 0.2713(8) 0.2941(2) 0.1339(6)
H7 H 0.2557 0.2490 0.1387
C15 C 0.0430(13) 0.1414(4) 0.8564(9)
H8 H -0.0845 0.1292 0.8753
C16 C 0.4373(6) 0.5242(2) 0.7688(4)
H9 H 0.4633 0.4834 0.8114
C17 C 0.4401(7) 0.3253(2) 0.1944(5)
H10 H 0.5382 0.3000 0.2406
C18 C 0.0726(9) 0.1949(3) 0.7625(7)
H11 H -0.0326 0.2193 0.7236
C19 C 0.7655(5) 0.51785(19) 0.6421(4)
H12 H 0.7759 0.4786 0.7037
H13 H 0.8739 0.5462 0.6720
C20 C 0.6464(6) 0.4249(2) 0.2563(4)
H14 H 0.6775 0.4627 0.1953
H15 H 0.7549 0.3946 0.2523
C21 C 0.2987(8) 0.2681(2) 0.6208(6)
H16 H 0.3571 0.2517 0.5300
H17 H 0.1742 0.2878 0.5912
C22 C 0.7834(5) 0.49879(18) 0.4736(4)
H18 H 0.7523 0.5384 0.4151
C23 C 0.6255(5) 0.44713(17) 0.4225(4)
H19 H 0.4974 0.4681 0.4287
C24 C 0.4307(7) 0.3194(3) 0.6933(5)
H20 H 0.3747 0.3347 0.7861
H21 H 0.5570 0.3001 0.7196
C25 C 0.9937(5) 0.4819(2) 0.4404(5)
H22 H 0.9992 0.4711 0.3336
H23 H 1.0733 0.5205 0.4582
C26 C 0.6256(5) 0.38666(16) 0.5252(4)
C27 C 0.1187(9) 0.7130(3) 0.6625(9)
H24 H 0.0169 0.7215 0.5854
H25 H 0.1277 0.7505 0.7297
C28 C -0.1175(7) 0.3744(3) -0.0712(5)
H26 H -0.0991 0.3706 -0.1793
H27 H -0.2556 0.3806 -0.0557
N1 N 0.4568(5) 0.37464(17) 0.5914(4)
H28 H 0.3598 0.4005 0.5732
O1 O 0.2977(6) 0.70355(16) 0.5939(5)
O2 O -0.0086(5) 0.42837(19) -0.0107(4)
O3 O 0.0708(5) 0.65573(17) 0.7469(4)
O4 O -0.0498(5) 0.3166(2) 0.0046(4)
O5 O 0.7717(4) 0.35197(14) 0.5441(3)
O6 O 1.0783(4) 0.42959(18) 0.5257(5)
H29 H 0.9951 0.4017 0.5397
loop_
_geom_bond_atom_site_label_1
_geom_bond_atom_site_label_2
_geom_bond_site_symmetry_1
_geom_bond_site_symmetry_2
C1 C4 1_555 1_555
C2 C5 1_555 1_555
C3 C6 1_555 1_555
C4 H1 1_555 1_555
C5 H2 1_555 1_555
C6 H3 1_555 1_555
C7 C4 1_555 1_555
C8 C5 1_555 1_555
C9 C6 1_555 1_555
H4 C9 1_555 1_555
C10 C7 1_555 1_555
C11 C8 1_555 1_555
C12 C9 1_555 1_555
H5 C12 1_555 1_555
C13 C10 1_555 1_555
H6 C13 1_555 1_555
C14 C11 1_555 1_555
H7 C14 1_555 1_555
C15 C12 1_555 1_555
H8 C15 1_555 1_555
C16 C1 1_555 1_555
H9 C16 1_555 1_555
C17 C2 1_555 1_555
H10 C17 1_555 1_555
C18 C3 1_555 1_555
H11 C18 1_555 1_555
C19 C1 1_555 1_555
H12 C19 1_555 1_555
H13 C19 1_555 1_555
C20 C2 1_555 1_555
H14 C20 1_555 1_555
H15 C20 1_555 1_555
C21 C3 1_555 1_555
H16 C21 1_555 1_555
H17 C21 1_555 1_555
C22 C19 1_555 1_555
H18 C22 1_555 1_555
C23 C20 1_555 1_555
H19 C23 1_555 1_555
C24 C21 1_555 1_555
H20 C24 1_555 1_555
H21 C24 1_555 1_555
C25 C22 1_555 1_555
H22 C25 1_555 1_555
H23 C25 1_555 1_555
C26 C23 1_555 1_555
C27 H24 1_555 1_555
H25 C27 1_555 1_555
C28 H26 1_555 1_555
H27 C28 1_555 1_555
N1 C24 1_555 1_555
H28 N1 1_555 1_555
O1 C7 1_555 1_555
O2 C8 1_555 1_555
O3 C10 1_555 1_555
O4 C11 1_555 1_555
O5 C26 1_555 1_555
O6 C25 1_555 1_555
H29 O6 1_555 1_555
C13 C16 1_555 1_555
C14 C17 1_555 1_555
C15 C18 1_555 1_555
C22 C23 1_555 1_555
C26 N1 1_555 1_555
C27 O1 1_555 1_555
C27 O3 1_555 1_555
C28 O2 1_555 1_555
C28 O4 1_555 1_555

#END
