
#######################################################################
#
#                 Cambridge Crystallographic Data Centre
#                                CCDC 
#
#######################################################################
#
# If this CIF has been generated from an entry in the Cambridge 
# Structural Database, then it will include bibliographic, chemical, 
# crystal, experimental, refinement or atomic coordinate data resulting 
# from the CCDC's data processing and validation procedures.
#
#######################################################################

data_EHIZOM
_chemical_formula_moiety         'C21 H20 B1 N1 O4'
_chemical_name_systematic        
'(3-(3-(5-(4-(Dimethylamino)phenyl)-2-furyl)-3-oxoprop-1-en-1-yl)phenyl)boronic acid'
_symmetry_cell_setting           monoclinic
_symmetry_space_group_name_H-M   'C 2/c'
_symmetry_Int_Tables_number      15
_space_group_name_Hall           '-C 2yn'
loop_
_symmetry_equiv_pos_site_id
_symmetry_equiv_pos_as_xyz
1 x,y,z
2 -x,y,1/2-z
3 1/2+x,1/2+y,z
4 1/2-x,1/2+y,1/2-z
5 -x,-y,-z
6 x,-y,1/2+z
7 1/2-x,1/2-y,-z
8 1/2+x,1/2-y,1/2+z
_cell_length_a                   18.5508(5)
_cell_length_b                   14.3265(4)
_cell_length_c                   14.4634(4)
_cell_angle_alpha                90
_cell_angle_beta                 105.963(2)
_cell_angle_gamma                90
_cell_volume                     3695.69
_exptl_crystal_colour            red
_exptl_crystal_description       needle
_cell_formula_units_Z            8
loop_
_atom_site_label
_atom_site_type_symbol
_atom_site_fract_x
_atom_site_fract_y
_atom_site_fract_z
O1 O 0.24209(9) 0.54719(12) 0.18772(13)
O2 O 0.16487(9) 0.68853(12) 0.24635(12)
O3 O -0.16342(10) 0.71995(16) 0.59199(13)
H1 H -0.2087 0.7359 0.5784
O4 O -0.19170(9) 0.73127(13) 0.42403(12)
H2 H -0.1748 0.7131 0.3789
N1 N 0.4091(3) 0.4426(4) -0.1305(3)
B1 B -0.14269(17) 0.7086(2) 0.5094(2)
C1 C 0.4434(3) 0.5238(6) -0.1598(3)
H3 H 0.4075 0.5756 -0.1725
H4 H 0.4580 0.5094 -0.2184
H5 H 0.4879 0.5415 -0.1085
C2 C 0.4175(4) 0.3521(5) -0.1740(3)
H6 H 0.4597 0.3181 -0.1318
H7 H 0.4269 0.3622 -0.2367
H8 H 0.3714 0.3157 -0.1825
C3 C 0.3770(2) 0.4462(4) -0.0556(2)
C4 C 0.3526(2) 0.3660(3) -0.0170(3)
H9 H 0.3601 0.3065 -0.0418
C5 C 0.31803(18) 0.3714(3) 0.0558(2)
H10 H 0.3020 0.3158 0.0800
C6 C 0.30625(15) 0.4573(2) 0.0944(2)
C7 C 0.33146(17) 0.5377(2) 0.0583(2)
H11 H 0.3240 0.5969 0.0838
C8 C 0.3672(2) 0.5328(3) -0.0141(2)
H12 H 0.3852 0.5883 -0.0360
C9 C 0.26943(14) 0.4625(2) 0.1708(2)
C10 C 0.25545(16) 0.3979(2) 0.2324(2)
H13 H 0.2687 0.3337 0.2352
C11 C 0.21787(15) 0.4437(2) 0.2909(2)
H14 H 0.2010 0.4165 0.3411
C12 C 0.21012(13) 0.53453(19) 0.2626(2)
C13 C 0.17182(12) 0.61232(18) 0.28990(18)
C14 C 0.13847(13) 0.59654(19) 0.36938(19)
H15 H 0.1567 0.5467 0.4129
C15 C 0.08306(13) 0.65013(19) 0.38263(18)
H16 H 0.0666 0.7002 0.3388
C16 C 0.04548(13) 0.6385(2) 0.45864(19)
C17 C 0.07755(17) 0.5876(3) 0.5425(2)
H17 H 0.1253 0.5595 0.5509
C18 C 0.04116(18) 0.5775(3) 0.6128(2)
H18 H 0.0635 0.5421 0.6690
C19 C -0.02730(17) 0.6186(2) 0.6018(2)
H19 H -0.0511 0.6128 0.6519
C20 C -0.06306(14) 0.66851(18) 0.51953(18)
C21 C -0.02475(13) 0.67824(17) 0.44847(18)
H20 H -0.0475 0.7129 0.3920
loop_
_geom_bond_atom_site_label_1
_geom_bond_atom_site_label_2
_geom_bond_site_symmetry_1
_geom_bond_site_symmetry_2
O1 C9 1_555 1_555
O2 C13 1_555 1_555
O3 H1 1_555 1_555
O4 H2 1_555 1_555
N1 C1 1_555 1_555
B1 O3 1_555 1_555
C1 H3 1_555 1_555
H4 C1 1_555 1_555
H5 C1 1_555 1_555
C2 N1 1_555 1_555
H6 C2 1_555 1_555
H7 C2 1_555 1_555
H8 C2 1_555 1_555
C3 N1 1_555 1_555
C4 C3 1_555 1_555
H9 C4 1_555 1_555
C5 C4 1_555 1_555
H10 C5 1_555 1_555
C6 C5 1_555 1_555
C7 C6 1_555 1_555
H11 C7 1_555 1_555
C8 C3 1_555 1_555
H12 C8 1_555 1_555
C9 C6 1_555 1_555
C10 C9 1_555 1_555
H13 C10 1_555 1_555
C11 C10 1_555 1_555
H14 C11 1_555 1_555
C12 O1 1_555 1_555
C13 C12 1_555 1_555
C14 C13 1_555 1_555
H15 C14 1_555 1_555
C15 C14 1_555 1_555
H16 C15 1_555 1_555
C16 C15 1_555 1_555
C17 C16 1_555 1_555
H17 C17 1_555 1_555
C18 C17 1_555 1_555
H18 C18 1_555 1_555
C19 C18 1_555 1_555
H19 C19 1_555 1_555
C20 B1 1_555 1_555
C21 C16 1_555 1_555
H20 C21 1_555 1_555
O4 B1 1_555 1_555
C7 C8 1_555 1_555
C11 C12 1_555 1_555
C19 C20 1_555 1_555
C20 C21 1_555 1_555

#END
