
#######################################################################
#
#                 Cambridge Crystallographic Data Centre
#                                CCDC 
#
#######################################################################
#
# If this CIF has been generated from an entry in the Cambridge 
# Structural Database, then it will include bibliographic, chemical, 
# crystal, experimental, refinement or atomic coordinate data resulting 
# from the CCDC's data processing and validation procedures.
#
#######################################################################

data_EHOGOX01
_chemical_formula_moiety         'C2 I4,I1 1-,C16 H36 N1 1+'
_chemical_name_systematic        'tetra-n-butylammonium tetraiodoethene iodide'
_symmetry_cell_setting           triclinic
_symmetry_space_group_name_H-M   'P -1'
_symmetry_Int_Tables_number      2
_space_group_name_Hall           '-P 1'
loop_
_symmetry_equiv_pos_site_id
_symmetry_equiv_pos_as_xyz
1 x,y,z
2 -x,-y,-z
_cell_length_a                   9.003(3)
_cell_length_b                   9.062(3)
_cell_length_c                   19.036(7)
_cell_angle_alpha                81.642(6)
_cell_angle_beta                 80.716(6)
_cell_angle_gamma                64.652(6)
_cell_volume                     1380.07
_cell_formula_units_Z            2
loop_
_atom_site_label
_atom_site_type_symbol
_atom_site_fract_x
_atom_site_fract_y
_atom_site_fract_z
C1 C 0.5012(14) 0.1408(16) 0.2582(8)
H1 H 0.4212 0.2470 0.2758
H2 H 0.5425 0.1634 0.2082
C2 C 0.6450(16) 0.0718(18) 0.3022(9)
H3 H 0.7209 -0.0395 0.2886
H4 H 0.6039 0.0628 0.3534
C3 C 0.739(2) 0.181(2) 0.2907(11)
H5 H 0.7786 0.1914 0.2393
H6 H 0.6628 0.2924 0.3045
C4 C 0.880(2) 0.118(3) 0.3319(14)
H7 H 0.9427 0.0003 0.3273
H8 H 0.8412 0.1368 0.3823
H9 H 0.9523 0.1747 0.3138
C5 C 0.3579(15) -0.0194(15) 0.3318(7)
H10 H 0.4572 -0.0998 0.3538
H11 H 0.2882 -0.0771 0.3278
C6 C 0.2614(17) 0.1162(16) 0.3819(7)
H12 H 0.1552 0.1909 0.3635
H13 H 0.3256 0.1808 0.3837
C7 C 0.228(2) 0.042(2) 0.4571(8)
H14 H 0.1654 -0.0244 0.4555
H15 H 0.3341 -0.0307 0.4763
C8 C 0.135(4) 0.171(4) 0.5019(14)
H16 H 0.2030 0.2288 0.5075
H17 H 0.1032 0.1264 0.5488
H18 H 0.0359 0.2485 0.4802
C9 C 0.5321(14) -0.1172(14) 0.2195(7)
H19 H 0.5815 -0.0814 0.1737
H20 H 0.6230 -0.1840 0.2492
C10 C 0.4504(18) -0.2234(18) 0.2045(8)
H21 H 0.3631 -0.1613 0.1726
H22 H 0.3998 -0.2608 0.2496
C11 C 0.590(2) -0.372(2) 0.1680(10)
H23 H 0.6425 -0.3338 0.1240
H24 H 0.6751 -0.4353 0.2006
C12 C 0.514(3) -0.479(2) 0.1501(11)
H25 H 0.3949 -0.4312 0.1661
H26 H 0.5659 -0.5886 0.1742
H27 H 0.5307 -0.4857 0.0983
C13 C 0.2594(14) 0.1357(16) 0.2201(7)
H28 H 0.1963 0.0684 0.2218
H29 H 0.1885 0.2329 0.2465
C14 C 0.2925(19) 0.193(2) 0.1435(9)
H30 H 0.3685 0.0978 0.1168
H31 H 0.3466 0.2688 0.1411
N1 N 0.4118(11) 0.0365(11) 0.2583(5)
C15 C 0.130(3) 0.281(3) 0.1092(11)
H32 H 0.0745 0.2062 0.1120
H33 H 0.0546 0.3780 0.1348
C16 C 0.170(3) 0.333(4) 0.0316(14)
H34 H 0.2058 0.4222 0.0293
H35 H 0.0719 0.3713 0.0065
H36 H 0.2596 0.2398 0.0088
C17 C 0.5062(15) 0.5157(15) 0.4653(7)
I1 I 0.71112(10) 0.54618(10) 0.40390(4)
I2 I 0.32060(10) 0.54425(10) 0.40185(4)
C17A C 0.4938(15) 0.4843(15) 0.5347(7)
I1A I 0.28888(10) 0.45382(10) 0.59610(4)
I2A I 0.67940(10) 0.45575(10) 0.59815(4)
C18 C 0.950(2) 0.990(2) 0.0238(8)
I3 I 0.99710(12) 0.83646(12) 0.12174(5)
I4 I 0.69196(13) 1.13214(17) 0.01892(6)
C18A C 1.050(2) 1.010(2) -0.0238(8)
I3A I 1.00290(12) 1.16354(12) -0.12174(5)
I4A I 1.30804(13) 0.86786(17) -0.01892(6)
I5 I 0.03662(10) 0.59870(11) 0.28029(5)
loop_
_geom_bond_atom_site_label_1
_geom_bond_atom_site_label_2
_geom_bond_site_symmetry_1
_geom_bond_site_symmetry_2
C1 H1 1_555 1_555
H2 C1 1_555 1_555
C2 C1 1_555 1_555
H3 C2 1_555 1_555
H4 C2 1_555 1_555
C3 C2 1_555 1_555
H5 C3 1_555 1_555
H6 C3 1_555 1_555
C4 C3 1_555 1_555
H7 C4 1_555 1_555
H8 C4 1_555 1_555
H9 C4 1_555 1_555
C5 H10 1_555 1_555
H11 C5 1_555 1_555
C6 C5 1_555 1_555
H12 C6 1_555 1_555
H13 C6 1_555 1_555
C7 C6 1_555 1_555
H14 C7 1_555 1_555
H15 C7 1_555 1_555
C8 C7 1_555 1_555
H16 C8 1_555 1_555
H17 C8 1_555 1_555
H18 C8 1_555 1_555
C9 H19 1_555 1_555
H20 C9 1_555 1_555
C10 C9 1_555 1_555
H21 C10 1_555 1_555
H22 C10 1_555 1_555
C11 C10 1_555 1_555
H23 C11 1_555 1_555
H24 C11 1_555 1_555
C12 C11 1_555 1_555
H25 C12 1_555 1_555
H26 C12 1_555 1_555
H27 C12 1_555 1_555
C13 H28 1_555 1_555
H29 C13 1_555 1_555
C14 C13 1_555 1_555
H30 C14 1_555 1_555
H31 C14 1_555 1_555
N1 C1 1_555 1_555
C15 C14 1_555 1_555
H32 C15 1_555 1_555
H33 C15 1_555 1_555
C16 C15 1_555 1_555
H34 C16 1_555 1_555
H35 C16 1_555 1_555
H36 C16 1_555 1_555
C17 I1 1_555 1_555
I2 C17 1_555 1_555
C18 I3 1_555 1_555
I4 C18 1_555 1_555
C17A C17 1_555 1_555
I1A C17A 1_555 1_555
I2A C17A 1_555 1_555
C18A C18 1_555 1_555
I3A C18A 1_555 1_555
I4A C18A 1_555 1_555
C5 N1 1_555 1_555
C9 N1 1_555 1_555
C13 N1 1_555 1_555

#END
