
#######################################################################
#
#                 Cambridge Crystallographic Data Centre
#                                CCDC 
#
#######################################################################
#
# If this CIF has been generated from an entry in the Cambridge 
# Structural Database, then it will include bibliographic, chemical, 
# crystal, experimental, refinement or atomic coordinate data resulting 
# from the CCDC's data processing and validation procedures.
#
#######################################################################

data_EHOKUH
_chemical_formula_moiety         'C18 H34 O2 Si1'
_chemical_name_systematic        
(1R*,3R*,6S*,9R*)-3-t-Butyl-9-(triethylsilyl)-7-oxa-bicyclo(4.3.0)nonan-8-one
_symmetry_cell_setting           triclinic
_symmetry_space_group_name_H-M   'P -1'
_symmetry_Int_Tables_number      2
_space_group_name_Hall           '-P 1'
loop_
_symmetry_equiv_pos_site_id
_symmetry_equiv_pos_as_xyz
1 x,y,z
2 -x,-y,-z
_cell_length_a                   6.7793(10)
_cell_length_b                   11.165(2)
_cell_length_c                   13.662(3)
_cell_angle_alpha                111.94(2)
_cell_angle_beta                 93.73(2)
_cell_angle_gamma                90.28(2)
_cell_volume                     956.688
_exptl_crystal_colour            colorless
_exptl_crystal_description       prism
_cell_formula_units_Z            2
loop_
_atom_site_label
_atom_site_type_symbol
_atom_site_fract_x
_atom_site_fract_y
_atom_site_fract_z
Si1 Si 0.7925(3) 0.71786(15) 0.25915(13)
O1 O 0.9375(6) 0.3623(4) 0.0690(3)
O2 O 1.1426(7) 0.5328(4) 0.1482(3)
C1 C 0.7271(9) 0.3417(5) 0.0335(5)
C2 C 0.6202(9) 0.1921(5) 0.1229(5)
C3 C 0.6577(9) 0.2076(5) 0.0203(5)
C4 C 0.4837(8) 0.2969(5) 0.1888(4)
C5 C 0.5926(8) 0.4267(5) 0.2145(4)
C6 C 0.6287(7) 0.4550(5) 0.1158(4)
C7 C 0.7870(8) 0.5645(5) 0.1367(4)
C8 C 0.9762(10) 0.4903(6) 0.1203(5)
C9 C 0.4092(9) 0.2769(6) 0.2864(5)
C10 C 0.5772(11) 0.2735(6) 0.3637(5)
C11 C 0.2879(10) 0.1478(6) 0.2480(6)
C12 C 0.2719(10) 0.3827(6) 0.3424(5)
C13 C 0.8934(10) 0.6882(6) 0.3783(5)
C14 C 0.9855(10) 0.8033(7) 0.4706(5)
C15 C 0.5342(9) 0.7767(5) 0.2727(5)
C16 C 0.5094(10) 0.8993(6) 0.3699(5)
C17 C 0.9529(8) 0.8400(5) 0.2354(5)
C18 C 0.8720(9) 0.8875(5) 0.1506(5)
H1 H 0.69351 0.34230 -0.03739
H2 H 0.53411 0.18665 -0.02517
H3 H 0.75870 0.14709 -0.01440
H4 H 0.55704 0.10705 0.10687
H5 H 0.74626 0.19868 0.16393
H6 H 0.35854 0.29314 0.14765
H7 H 0.51360 0.49573 0.26041
H8 H 0.72098 0.42595 0.25178
H9 H 0.49680 0.47459 0.09255
H10 H 0.76918 0.59260 0.07700
H11 H 0.66343 0.20265 0.32777
H12 H 0.65262 0.35570 0.38803
H13 H 0.52995 0.26050 0.42555
H14 H 0.17458 0.15189 0.20087
H15 H 0.37099 0.07667 0.20993
H16 H 0.24046 0.13530 0.30974
H17 H 0.34311 0.46613 0.36544
H18 H 0.15873 0.38116 0.29347
H19 H 0.22480 0.36945 0.40394
H20 H 0.78529 0.65361 0.40456
H21 H 0.99602 0.62422 0.35559
H22 H 1.09395 0.83849 0.44431
H23 H 0.88322 0.86788 0.49327
H24 H 1.03860 0.78811 0.53308
H25 H 0.49291 0.79433 0.20959
H26 H 0.44915 0.70824 0.27718
H27 H 0.55098 0.88195 0.43313
H28 H 0.59473 0.96804 0.36554
H29 H 0.37382 0.93048 0.37712
H30 H 0.97301 0.91474 0.30229
H31 H 1.08044 0.80086 0.21487
H32 H 0.85158 0.81304 0.08380
H33 H 0.74415 0.92693 0.17123
H34 H 0.95572 0.95183 0.13819
loop_
_geom_bond_atom_site_label_1
_geom_bond_atom_site_label_2
_geom_bond_site_symmetry_1
_geom_bond_site_symmetry_2
Si1 C7 1_555 1_555
O1 C1 1_555 1_555
O2 C8 1_555 1_555
C1 C3 1_555 1_555
C2 C3 1_555 1_555
C3 H2 1_555 1_555
C4 C2 1_555 1_555
C5 C4 1_555 1_555
C6 C1 1_555 1_555
C7 C6 1_555 1_555
C8 O1 1_555 1_555
C9 C4 1_555 1_555
C10 C9 1_555 1_555
C11 C9 1_555 1_555
C12 C9 1_555 1_555
C13 Si1 1_555 1_555
C14 C13 1_555 1_555
C15 Si1 1_555 1_555
C16 C15 1_555 1_555
C17 Si1 1_555 1_555
C18 C17 1_555 1_555
H1 C1 1_555 1_555
H3 C3 1_555 1_555
H4 C2 1_555 1_555
H5 C2 1_555 1_555
H6 C4 1_555 1_555
H7 C5 1_555 1_555
H8 C5 1_555 1_555
H9 C6 1_555 1_555
H10 C7 1_555 1_555
H11 C10 1_555 1_555
H12 C10 1_555 1_555
H13 C10 1_555 1_555
H14 C11 1_555 1_555
H15 C11 1_555 1_555
H16 C11 1_555 1_555
H17 C12 1_555 1_555
H18 C12 1_555 1_555
H19 C12 1_555 1_555
H20 C13 1_555 1_555
H21 C13 1_555 1_555
H22 C14 1_555 1_555
H23 C14 1_555 1_555
H24 C14 1_555 1_555
H25 C15 1_555 1_555
H26 C15 1_555 1_555
H27 C16 1_555 1_555
H28 C16 1_555 1_555
H29 C16 1_555 1_555
H30 C17 1_555 1_555
H31 C17 1_555 1_555
H32 C18 1_555 1_555
H33 C18 1_555 1_555
H34 C18 1_555 1_555
C5 C6 1_555 1_555
C7 C8 1_555 1_555

#END
