
#######################################################################
#
#                 Cambridge Crystallographic Data Centre
#                                CCDC 
#
#######################################################################
#
# If this CIF has been generated from an entry in the Cambridge 
# Structural Database, then it will include bibliographic, chemical, 
# crystal, experimental, refinement or atomic coordinate data resulting 
# from the CCDC's data processing and validation procedures.
#
#######################################################################

data_EHOLAP
_chemical_formula_moiety         'C15 H14 Cl1 N1 O1'
_chemical_name_systematic        
4-chloro-2-[(2,4-dimethylphenylimino)methyl]phenol
_symmetry_cell_setting           monoclinic
_symmetry_space_group_name_H-M   'P 21/n'
_symmetry_Int_Tables_number      14
_space_group_name_Hall           '-P 2yn'
loop_
_symmetry_equiv_pos_site_id
_symmetry_equiv_pos_as_xyz
1 x,y,z
2 1/2-x,1/2+y,1/2-z
3 -x,-y,-z
4 1/2+x,1/2-y,1/2+z
_cell_length_a                   4.7074(6)
_cell_length_b                   19.9254(17)
_cell_length_c                   13.8631(12)
_cell_angle_alpha                90
_cell_angle_beta                 95.2600(10)
_cell_angle_gamma                90
_cell_volume                     1294.84
_exptl_crystal_colour            yellow
_exptl_crystal_description       block
_cell_formula_units_Z            4
loop_
_atom_site_label
_atom_site_type_symbol
_atom_site_fract_x
_atom_site_fract_y
_atom_site_fract_z
Cl1 Cl -0.32466(16) 0.03372(4) 0.32515(6)
N1 N 0.5562(4) 0.26064(9) 0.46827(12)
O1 O 0.3144(4) 0.20742(9) 0.60801(11)
H1 H 0.4193 0.2327 0.5810
C1 C 0.4081(5) 0.22253(11) 0.40931(16)
H2 H 0.4277 0.2260 0.3434
C2 C 0.2097(5) 0.17392(11) 0.44261(16)
C3 C 0.1704(5) 0.16825(12) 0.54191(16)
C4 C -0.0209(6) 0.12123(13) 0.57156(18)
H3 H -0.0474 0.1174 0.6370
C5 C -0.1716(6) 0.08030(13) 0.5055(2)
H4 H -0.2987 0.0489 0.5262
C6 C -0.1339(5) 0.08594(12) 0.40840(18)
C7 C 0.0528(5) 0.13201(12) 0.37718(17)
H5 H 0.0753 0.1354 0.3114
C8 C 0.7516(5) 0.30920(11) 0.43948(15)
C9 C 0.8859(5) 0.34949(12) 0.51249(15)
C10 C 1.0738(5) 0.39865(12) 0.48694(17)
H6 H 1.1619 0.4257 0.5355
C11 C 1.1363(5) 0.40920(11) 0.39245(17)
C12 C 1.0041(5) 0.36780(12) 0.32158(17)
H7 H 1.0434 0.3734 0.2575
C13 C 0.8159(5) 0.31866(12) 0.34405(16)
H8 H 0.7305 0.2914 0.2952
C14 C 0.8255(6) 0.34024(14) 0.61662(16)
H9 H 0.9398 0.3710 0.6569
H10 H 0.8710 0.2951 0.6366
H11 H 0.6272 0.3487 0.6227
C15 C 1.3391(5) 0.46328(12) 0.3675(2)
H12 H 1.3314 0.4680 0.2984
H13 H 1.5294 0.4515 0.3926
H14 H 1.2862 0.5050 0.3957
loop_
_geom_bond_atom_site_label_1
_geom_bond_atom_site_label_2
_geom_bond_site_symmetry_1
_geom_bond_site_symmetry_2
Cl1 C6 1_555 1_555
N1 C1 1_555 1_555
O1 H1 1_555 1_555
C1 H2 1_555 1_555
C2 C1 1_555 1_555
C3 O1 1_555 1_555
C4 C3 1_555 1_555
H3 C4 1_555 1_555
C5 C4 1_555 1_555
H4 C5 1_555 1_555
C6 C5 1_555 1_555
C7 C2 1_555 1_555
H5 C7 1_555 1_555
C8 N1 1_555 1_555
C9 C8 1_555 1_555
C10 C9 1_555 1_555
H6 C10 1_555 1_555
C11 C10 1_555 1_555
C12 C11 1_555 1_555
H7 C12 1_555 1_555
C13 C8 1_555 1_555
H8 C13 1_555 1_555
C14 C9 1_555 1_555
H9 C14 1_555 1_555
H10 C14 1_555 1_555
H11 C14 1_555 1_555
C15 C11 1_555 1_555
H12 C15 1_555 1_555
H13 C15 1_555 1_555
H14 C15 1_555 1_555
C2 C3 1_555 1_555
C6 C7 1_555 1_555
C12 C13 1_555 1_555

#END
