
#######################################################################
#
#                 Cambridge Crystallographic Data Centre
#                                CCDC 
#
#######################################################################
#
# If this CIF has been generated from an entry in the Cambridge 
# Structural Database, then it will include bibliographic, chemical, 
# crystal, experimental, refinement or atomic coordinate data resulting 
# from the CCDC's data processing and validation procedures.
#
#######################################################################

data_EHOMOF
_chemical_formula_moiety         'C25 H22 N2 O4'
_chemical_name_systematic        
2-((1-(4-methylphenyl)-3-(methyl(phenyl)amino)-1-oxopropan-2-yl)oxy)-1H-isoindole-1,3(2H)-dione
_symmetry_cell_setting           monoclinic
_symmetry_space_group_name_H-M   'P 21/c'
_symmetry_Int_Tables_number      14
_space_group_name_Hall           '-P 2ybc'
loop_
_symmetry_equiv_pos_site_id
_symmetry_equiv_pos_as_xyz
1 x,y,z
2 -x,1/2+y,1/2-z
3 -x,-y,-z
4 x,1/2-y,1/2+z
_cell_length_a                   11.398(6)
_cell_length_b                   11.272(5)
_cell_length_c                   16.887(8)
_cell_angle_alpha                90
_cell_angle_beta                 98.340(7)
_cell_angle_gamma                90
_cell_volume                     2146.67
_exptl_crystal_colour            yellow
_exptl_crystal_description       block
_cell_formula_units_Z            4
loop_
_atom_site_label
_atom_site_type_symbol
_atom_site_fract_x
_atom_site_fract_y
_atom_site_fract_z
N1 N 0.33108(16) 0.65408(19) 0.16565(12)
N2 N 0.32897(19) 0.83138(19) 0.37312(12)
O1 O 0.37778(13) 0.75089(14) 0.20933(9)
O2 O 0.14563(15) 0.65874(17) 0.20413(11)
O3 O 0.49292(15) 0.61437(17) 0.10394(10)
O4 O 0.59090(16) 0.57234(17) 0.30989(12)
C1 C 0.2142(2) 0.6178(2) 0.16429(15)
C2 C 0.3914(2) 0.5959(2) 0.11162(14)
C3 C 0.3044(2) 0.5102(2) 0.07234(14)
C4 C 0.2009(2) 0.5213(2) 0.10450(14)
C5 C 0.1066(3) 0.4500(3) 0.08010(18)
H1 H 0.0370 0.4563 0.1025
C6 C 0.1173(3) 0.3679(3) 0.0211(2)
H2 H 0.0535 0.3189 0.0029
C7 C 0.2206(3) 0.3575(3) -0.01120(17)
H3 H 0.2257 0.3011 -0.0508
C8 C 0.3166(2) 0.4289(3) 0.01400(15)
H4 H 0.3867 0.4222 -0.0077
C9 C 0.4394(2) 0.8196(2) 0.34154(15)
H5 H 0.5035 0.8115 0.3857
H6 H 0.4534 0.8915 0.3127
C10 C 0.4416(2) 0.7140(2) 0.28577(14)
H7 H 0.3972 0.6491 0.3062
C11 C 0.5671(2) 0.6701(2) 0.28158(14)
C12 C 0.6584(2) 0.7432(2) 0.25140(13)
C13 C 0.7750(2) 0.7061(2) 0.26778(15)
H8 H 0.7933 0.6381 0.2983
C14 C 0.8642(2) 0.7680(3) 0.23983(16)
H9 H 0.9420 0.7415 0.2521
C15 C 0.8406(2) 0.8688(3) 0.19388(16)
C16 C 0.7244(2) 0.9052(2) 0.17752(14)
H10 H 0.7064 0.9728 0.1465
C17 C 0.6339(2) 0.8445(2) 0.20571(14)
H11 H 0.5562 0.8717 0.1940
C18 C 0.9385(2) 0.9369(3) 0.16363(18)
H12 H 0.9615 1.0024 0.1988
H13 H 0.9110 0.9661 0.1108
H14 H 1.0053 0.8856 0.1620
C19 C 0.2994(2) 0.7489(2) 0.42758(15)
C20 C 0.3834(3) 0.6741(3) 0.46938(16)
H15 H 0.4611 0.6768 0.4586
C21 C 0.3550(4) 0.5969(3) 0.52584(18)
H16 H 0.4136 0.5487 0.5532
C22 C 0.2422(4) 0.5894(3) 0.5427(2)
H17 H 0.2232 0.5372 0.5815
C23 C 0.1575(3) 0.6604(3) 0.5012(2)
H18 H 0.0796 0.6550 0.5114
C24 C 0.1848(3) 0.7399(3) 0.44456(17)
H19 H 0.1257 0.7879 0.4176
C25 C 0.2374(2) 0.9020(2) 0.32712(16)
H20 H 0.1813 0.8506 0.2961
H21 H 0.2725 0.9537 0.2919
H22 H 0.1977 0.9485 0.3628
loop_
_geom_bond_atom_site_label_1
_geom_bond_atom_site_label_2
_geom_bond_site_symmetry_1
_geom_bond_site_symmetry_2
N1 O1 1_555 1_555
N2 C9 1_555 1_555
O1 C10 1_555 1_555
O2 C1 1_555 1_555
O3 C2 1_555 1_555
O4 C11 1_555 1_555
C1 N1 1_555 1_555
C2 N1 1_555 1_555
C3 C2 1_555 1_555
C4 C1 1_555 1_555
C5 C4 1_555 1_555
H1 C5 1_555 1_555
C6 C5 1_555 1_555
H2 C6 1_555 1_555
C7 C6 1_555 1_555
H3 C7 1_555 1_555
C8 C3 1_555 1_555
H4 C8 1_555 1_555
C9 H5 1_555 1_555
H6 C9 1_555 1_555
C10 C9 1_555 1_555
H7 C10 1_555 1_555
C11 C10 1_555 1_555
C12 C11 1_555 1_555
C13 C12 1_555 1_555
H8 C13 1_555 1_555
C14 C13 1_555 1_555
H9 C14 1_555 1_555
C15 C14 1_555 1_555
C16 C15 1_555 1_555
H10 C16 1_555 1_555
C17 C12 1_555 1_555
H11 C17 1_555 1_555
C18 C15 1_555 1_555
H12 C18 1_555 1_555
H13 C18 1_555 1_555
H14 C18 1_555 1_555
C19 N2 1_555 1_555
C20 C19 1_555 1_555
H15 C20 1_555 1_555
C21 C20 1_555 1_555
H16 C21 1_555 1_555
C22 C21 1_555 1_555
H17 C22 1_555 1_555
C23 C22 1_555 1_555
H18 C23 1_555 1_555
C24 C19 1_555 1_555
H19 C24 1_555 1_555
C25 N2 1_555 1_555
H20 C25 1_555 1_555
H21 C25 1_555 1_555
H22 C25 1_555 1_555
C3 C4 1_555 1_555
C7 C8 1_555 1_555
C16 C17 1_555 1_555
C23 C24 1_555 1_555

#END
