
#######################################################################
#
#                 Cambridge Crystallographic Data Centre
#                                CCDC 
#
#######################################################################
#
# If this CIF has been generated from an entry in the Cambridge 
# Structural Database, then it will include bibliographic, chemical, 
# crystal, experimental, refinement or atomic coordinate data resulting 
# from the CCDC's data processing and validation procedures.
#
#######################################################################

data_EHOMIX
_chemical_name_common            
(2R,4R)-cis-gamma-(4-Bromophenyl)-alpha,gamma-dimethyl-gamma-butyrolactone
_chemical_formula_moiety         'C12 H13 Br1 O2'
_chemical_name_systematic        
(3R,5R)-cis-5-(4-Bromophenyl)-3,5-dimethyltetrahydrofuran-2-one
_symmetry_cell_setting           orthorhombic
_symmetry_space_group_name_H-M   'P 21 21 21'
_symmetry_Int_Tables_number      19
_space_group_name_Hall           'P 2ac 2ab'
loop_
_symmetry_equiv_pos_site_id
_symmetry_equiv_pos_as_xyz
1 x,y,z
2 1/2-x,-y,1/2+z
3 -x,1/2+y,1/2-z
4 1/2+x,1/2-y,-z
_cell_length_a                   5.7875(9)
_cell_length_b                   7.9190(12)
_cell_length_c                   25.904(4)
_cell_angle_alpha                90
_cell_angle_beta                 90
_cell_angle_gamma                90
_cell_volume                     1187.21
_exptl_crystal_colour            colorless
_exptl_crystal_description       plate
_cell_formula_units_Z            4
loop_
_atom_site_label
_atom_site_type_symbol
_atom_site_fract_x
_atom_site_fract_y
_atom_site_fract_z
Br1 Br 0.36669(10) 0.27369(6) 0.859890(18)
O1 O 0.5838(7) 0.0959(5) 0.53213(13)
O2 O 0.4315(5) 0.2314(4) 0.59920(10)
C1 C 0.4185(11) 0.1287(6) 0.55769(18)
C2 C 0.1727(10) 0.0706(6) 0.55162(19)
C3 C 0.0707(10) 0.0983(6) 0.6044(2)
C4 C 0.2063(7) 0.2517(5) 0.62405(15)
C5 C 0.1528(18) -0.1059(9) 0.5294(3)
C6 C 0.1000(18) 0.4159(7) 0.6055(3)
C7 C 0.2461(8) 0.2551(6) 0.68194(16)
C8 C 0.0833(9) 0.1910(6) 0.7160(2)
C9 C 0.1153(10) 0.1976(6) 0.76884(18)
C10 C 0.3123(8) 0.2674(6) 0.78744(16)
C11 C 0.4762(10) 0.3342(6) 0.7546(2)
C12 C 0.4406(10) 0.3265(6) 0.7027(2)
H1 H 0.104(7) 0.147(4) 0.5300(14)
H2 H 0.097(7) 0.003(3) 0.6245(12)
H3 H -0.101(8) 0.129(5) 0.5981(16)
H4 H 0.200(9) -0.191(6) 0.5524(17)
H5 H 0.229(9) -0.097(6) 0.4958(13)
H6 H 0.006(11) -0.145(7) 0.523(2)
H7 H 0.091(10) 0.417(5) 0.568(2)
H8 H -0.033(8) 0.427(5) 0.6220(18)
H9 H 0.198(7) 0.500(5) 0.6146(16)
H10 H -0.048(5) 0.158(5) 0.6992(14)
H11 H -0.010(8) 0.160(5) 0.7938(16)
H12 H 0.617(9) 0.377(5) 0.7695(15)
H13 H 0.546(7) 0.369(4) 0.6806(13)
loop_
_geom_bond_atom_site_label_1
_geom_bond_atom_site_label_2
_geom_bond_site_symmetry_1
_geom_bond_site_symmetry_2
Br1 C10 1_555 1_555
O1 C1 1_555 1_555
O2 C1 1_555 1_555
C1 C2 1_555 1_555
C2 C3 1_555 1_555
C3 C4 1_555 1_555
C4 O2 1_555 1_555
C5 C2 1_555 1_555
C6 C4 1_555 1_555
C7 C4 1_555 1_555
C8 C7 1_555 1_555
C9 C8 1_555 1_555
C10 C9 1_555 1_555
C11 C10 1_555 1_555
C12 C7 1_555 1_555
H1 C2 1_555 1_555
H2 C3 1_555 1_555
H3 C3 1_555 1_555
H4 C5 1_555 1_555
H5 C5 1_555 1_555
H6 C5 1_555 1_555
H7 C6 1_555 1_555
H8 C6 1_555 1_555
H9 C6 1_555 1_555
H10 C8 1_555 1_555
H11 C9 1_555 1_555
H12 C11 1_555 1_555
H13 C12 1_555 1_555
C11 C12 1_555 1_555

#END
