
#######################################################################
#
#                 Cambridge Crystallographic Data Centre
#                                CCDC 
#
#######################################################################
#
# If this CIF has been generated from an entry in the Cambridge 
# Structural Database, then it will include bibliographic, chemical, 
# crystal, experimental, refinement or atomic coordinate data resulting 
# from the CCDC's data processing and validation procedures.
#
#######################################################################

data_EHOPUO
_chemical_formula_moiety         'C52 H40 Cl4 N4 O12 Sr2'
_chemical_name_systematic        
bis(\m-4-chlorobenzoato)-tetraaqua-bis(4-chlorobenzoato)-bis(1,10-phenanthroline)-di-strontium
_symmetry_cell_setting           triclinic
_symmetry_space_group_name_H-M   'P -1'
_symmetry_Int_Tables_number      2
_space_group_name_Hall           '-P 1'
loop_
_symmetry_equiv_pos_site_id
_symmetry_equiv_pos_as_xyz
1 x,y,z
2 -x,-y,-z
_cell_length_a                   8.9531(18)
_cell_length_b                   9.0657(18)
_cell_length_c                   16.911(3)
_cell_angle_alpha                75.56(3)
_cell_angle_beta                 81.96(3)
_cell_angle_gamma                73.84(3)
_cell_volume                     1273.05
_exptl_crystal_colour            colorless
_exptl_crystal_description       block
_cell_formula_units_Z            1
loop_
_atom_site_label
_atom_site_type_symbol
_atom_site_fract_x
_atom_site_fract_y
_atom_site_fract_z
Sr1 Sr 0.43522(3) 0.74564(3) 0.436908(16)
N1 N 0.2485(3) 0.6168(3) 0.37278(15)
N2 N 0.3747(3) 0.8464(3) 0.27555(15)
O1 O 0.6938(2) 0.8088(3) 0.39142(13)
O2 O 0.8517(2) 0.8912(3) 0.45106(13)
O3 O 0.4432(3) 0.7512(3) 0.58925(12)
O4 O 0.1529(2) 0.8371(3) 0.49554(14)
H1 H 0.0685 0.8507 0.4775
H2 H 0.1394 0.9052 0.5217
O5 O 0.3717(3) 1.0470(2) 0.41738(13)
H3 H 0.3034 1.0804 0.4509
H4 H 0.4328 1.1026 0.4108
O6 O 0.4023(2) 0.5289(2) 0.57706(11)
Cl1 Cl 1.01924(15) 1.19768(17) 0.05503(7)
Cl2 Cl 0.31831(15) 0.40988(15) 0.98378(5)
C1 C 0.1810(4) 0.5106(4) 0.4204(2)
H5 H 0.1888 0.4889 0.4766
C2 C 0.0980(5) 0.4289(5) 0.3899(3)
H6 H 0.0501 0.3563 0.4253
C3 C 0.0889(4) 0.4575(5) 0.3087(3)
H7 H 0.0347 0.4037 0.2877
C4 C 0.1600(4) 0.5670(4) 0.2553(2)
C5 C 0.1598(5) 0.6022(6) 0.1675(3)
H8 H 0.1105 0.5486 0.1434
C6 C 0.2283(5) 0.7092(6) 0.1200(3)
H9 H 0.2287 0.7264 0.0635
C7 C 0.3010(4) 0.7981(5) 0.1539(2)
C8 C 0.3672(5) 0.9172(5) 0.1064(2)
H10 H 0.3674 0.9403 0.0496
C9 C 0.4307(5) 0.9986(5) 0.1432(2)
H11 H 0.4727 1.0799 0.1123
C10 C 0.4325(4) 0.9594(4) 0.2282(2)
H12 H 0.4770 1.0163 0.2528
C11 C 0.3071(4) 0.7666(4) 0.23910(18)
C12 C 0.2376(3) 0.6474(4) 0.29072(19)
C13 C 0.7963(3) 0.8776(4) 0.38904(18)
C14 C 0.8601(3) 0.9535(4) 0.30586(18)
C15 C 0.8208(4) 0.9258(4) 0.2356(2)
H13 H 0.7596 0.8558 0.2405
C16 C 0.8694(4) 0.9985(5) 0.1587(2)
H14 H 0.8414 0.9783 0.1122
C17 C 0.9594(4) 1.1005(5) 0.1519(2)
C18 C 1.0056(4) 1.1277(4) 0.2198(2)
H15 H 1.0701 1.1948 0.2142
C19 C 0.9552(4) 1.0540(4) 0.2966(2)
H16 H 0.9858 1.0725 0.3428
C20 C 0.4101(3) 0.6232(3) 0.61923(17)
C21 C 0.3803(3) 0.5747(3) 0.71058(16)
C22 C 0.4297(4) 0.6455(4) 0.76204(18)
H17 H 0.4766 0.7278 0.7397
C23 C 0.4105(4) 0.5961(4) 0.84599(19)
H18 H 0.4465 0.6424 0.8802
C24 C 0.3377(4) 0.4779(4) 0.87800(18)
C25 C 0.2831(4) 0.4078(4) 0.82858(19)
H19 H 0.2317 0.3291 0.8513
C26 C 0.3059(4) 0.4561(4) 0.74461(18)
H20 H 0.2708 0.4085 0.7106
Sr1A Sr 0.56478(3) 0.25436(3) 0.563092(16)
N1A N 0.7515(3) 0.3832(3) 0.62722(15)
N2A N 0.6253(3) 0.1536(3) 0.72445(15)
O1A O 0.3062(2) 0.1912(3) 0.60858(13)
O2A O 0.1483(2) 0.1088(3) 0.54894(13)
O3A O 0.5568(3) 0.2488(3) 0.41075(12)
O4A O 0.8471(2) 0.1629(3) 0.50446(14)
H1A H 0.9315 0.1493 0.5225
H2A H 0.8606 0.0948 0.4783
O5A O 0.6283(3) -0.0470(2) 0.58262(13)
H3A H 0.6966 -0.0804 0.5491
H4A H 0.5672 -0.1026 0.5892
O6A O 0.5977(2) 0.4711(2) 0.42294(11)
Cl1A Cl -0.01924(15) -0.19768(17) 0.94497(7)
Cl2A Cl 0.68169(15) 0.59012(15) 0.01622(5)
C1A C 0.8190(4) 0.4894(4) 0.5796(2)
H5A H 0.8112 0.5111 0.5234
C2A C 0.9020(5) 0.5711(5) 0.6101(3)
H6A H 0.9499 0.6437 0.5747
C3A C 0.9111(4) 0.5425(5) 0.6913(3)
H7A H 0.9653 0.5963 0.7123
C4A C 0.8400(4) 0.4330(4) 0.7447(2)
C5A C 0.8402(5) 0.3978(6) 0.8325(3)
H8A H 0.8895 0.4514 0.8566
C6A C 0.7717(5) 0.2908(6) 0.8800(3)
H9A H 0.7713 0.2736 0.9365
C7A C 0.6990(4) 0.2019(5) 0.8461(2)
C8A C 0.6328(5) 0.0828(5) 0.8936(2)
H10A H 0.6326 0.0597 0.9504
C9A C 0.5693(5) 0.0014(5) 0.8568(2)
H11A H 0.5273 -0.0799 0.8877
C10A C 0.5675(4) 0.0406(4) 0.7718(2)
H12A H 0.5230 -0.0163 0.7472
C11A C 0.6929(4) 0.2334(4) 0.76090(18)
C12A C 0.7624(3) 0.3526(4) 0.70928(19)
C13A C 0.2037(3) 0.1224(4) 0.61096(18)
C14A C 0.1399(3) 0.0465(4) 0.69414(18)
C15A C 0.1792(4) 0.0742(4) 0.7644(2)
H13A H 0.2404 0.1442 0.7595
C16A C 0.1306(4) 0.0015(5) 0.8413(2)
H14A H 0.1586 0.0217 0.8878
C17A C 0.0406(4) -0.1005(5) 0.8481(2)
C18A C -0.0056(4) -0.1277(4) 0.7802(2)
H15A H -0.0701 -0.1948 0.7858
C19A C 0.0448(4) -0.0540(4) 0.7034(2)
H16A H 0.0142 -0.0725 0.6572
C20A C 0.5899(3) 0.3768(3) 0.38077(17)
C21A C 0.6197(3) 0.4253(3) 0.28942(16)
C22A C 0.5703(4) 0.3545(4) 0.23796(18)
H17A H 0.5234 0.2722 0.2603
C23A C 0.5895(4) 0.4039(4) 0.15401(19)
H18A H 0.5535 0.3576 0.1198
C24A C 0.6623(4) 0.5221(4) 0.12200(18)
C25A C 0.7169(4) 0.5922(4) 0.17142(19)
H19A H 0.7683 0.6709 0.1487
C26A C 0.6941(4) 0.5439(4) 0.25539(18)
H20A H 0.7292 0.5915 0.2894
loop_
_geom_bond_atom_site_label_1
_geom_bond_atom_site_label_2
_geom_bond_site_symmetry_1
_geom_bond_site_symmetry_2
Sr1 N1 1_555 1_555
N1 C1 1_555 1_555
N2 Sr1 1_555 1_555
O1 Sr1 1_555 1_555
O2 C13 1_555 1_555
O3 Sr1 1_555 1_555
O4 Sr1 1_555 1_555
H1 O4 1_555 1_555
H2 O4 1_555 1_555
O5 Sr1 1_555 1_555
H3 O5 1_555 1_555
H4 O5 1_555 1_555
O6 Sr1 1_555 1_555
Cl1 C17 1_555 1_555
Cl2 C24 1_555 1_555
C1 H5 1_555 1_555
C2 C1 1_555 1_555
H6 C2 1_555 1_555
C3 C2 1_555 1_555
H7 C3 1_555 1_555
C4 C3 1_555 1_555
C5 C4 1_555 1_555
H8 C5 1_555 1_555
C6 C5 1_555 1_555
H9 C6 1_555 1_555
C7 C6 1_555 1_555
C8 C7 1_555 1_555
H10 C8 1_555 1_555
C9 C8 1_555 1_555
H11 C9 1_555 1_555
C10 N2 1_555 1_555
H12 C10 1_555 1_555
C11 N2 1_555 1_555
C12 N1 1_555 1_555
C13 O1 1_555 1_555
C14 C13 1_555 1_555
C15 C14 1_555 1_555
H13 C15 1_555 1_555
C16 C15 1_555 1_555
H14 C16 1_555 1_555
C17 C16 1_555 1_555
C18 C17 1_555 1_555
H15 C18 1_555 1_555
C19 C14 1_555 1_555
H16 C19 1_555 1_555
C20 O3 1_555 1_555
C21 C20 1_555 1_555
C22 C21 1_555 1_555
H17 C22 1_555 1_555
C23 C22 1_555 1_555
H18 C23 1_555 1_555
C24 C23 1_555 1_555
C25 C24 1_555 1_555
H19 C25 1_555 1_555
C26 C21 1_555 1_555
H20 C26 1_555 1_555
Sr1A O6 1_555 1_555
N1A Sr1A 1_555 1_555
N2A Sr1A 1_555 1_555
O1A Sr1A 1_555 1_555
O2A C13A 1_555 1_555
O3A Sr1A 1_555 1_555
O4A Sr1A 1_555 1_555
H1A O4A 1_555 1_555
H2A O4A 1_555 1_555
O5A Sr1A 1_555 1_555
H3A O5A 1_555 1_555
H4A O5A 1_555 1_555
O6A Sr1 1_555 1_555
Cl1A C17A 1_555 1_555
Cl2A C24A 1_555 1_555
C1A N1A 1_555 1_555
H5A C1A 1_555 1_555
C2A C1A 1_555 1_555
H6A C2A 1_555 1_555
C3A C2A 1_555 1_555
H7A C3A 1_555 1_555
C4A C3A 1_555 1_555
C5A C4A 1_555 1_555
H8A C5A 1_555 1_555
C6A C5A 1_555 1_555
H9A C6A 1_555 1_555
C7A C6A 1_555 1_555
C8A C7A 1_555 1_555
H10A C8A 1_555 1_555
C9A C8A 1_555 1_555
H11A C9A 1_555 1_555
C10A N2A 1_555 1_555
H12A C10A 1_555 1_555
C11A N2A 1_555 1_555
C12A N1A 1_555 1_555
C13A O1A 1_555 1_555
C14A C13A 1_555 1_555
C15A C14A 1_555 1_555
H13A C15A 1_555 1_555
C16A C15A 1_555 1_555
H14A C16A 1_555 1_555
C17A C16A 1_555 1_555
C18A C17A 1_555 1_555
H15A C18A 1_555 1_555
C19A C14A 1_555 1_555
H16A C19A 1_555 1_555
C20A O3A 1_555 1_555
C21A C20A 1_555 1_555
C22A C21A 1_555 1_555
H17A C22A 1_555 1_555
C23A C22A 1_555 1_555
H18A C23A 1_555 1_555
C24A C23A 1_555 1_555
C25A C24A 1_555 1_555
H19A C25A 1_555 1_555
C26A C21A 1_555 1_555
H20A C26A 1_555 1_555
O6 C20 1_555 1_555
C4 C12 1_555 1_555
C7 C11 1_555 1_555
C9 C10 1_555 1_555
C11 C12 1_555 1_555
C18 C19 1_555 1_555
C25 C26 1_555 1_555
Sr1A O6A 1_555 1_555
O6A C20A 1_555 1_555
C4A C12A 1_555 1_555
C7A C11A 1_555 1_555
C9A C10A 1_555 1_555
C11A C12A 1_555 1_555
C18A C19A 1_555 1_555
C25A C26A 1_555 1_555

#END
