
#######################################################################
#
#                 Cambridge Crystallographic Data Centre
#                                CCDC 
#
#######################################################################
#
# If this CIF has been generated from an entry in the Cambridge 
# Structural Database, then it will include bibliographic, chemical, 
# crystal, experimental, refinement or atomic coordinate data resulting 
# from the CCDC's data processing and validation procedures.
#
#######################################################################

data_EHOQAV
_chemical_formula_moiety         'C16 H22 I1 N1 O1'
_chemical_name_systematic        
1-t-butyl-4-(iodomethyl)-6-phenylpiperidin-2-one
_symmetry_cell_setting           triclinic
_symmetry_space_group_name_H-M   'P -1'
_symmetry_Int_Tables_number      2
_space_group_name_Hall           '-P 1'
loop_
_symmetry_equiv_pos_site_id
_symmetry_equiv_pos_as_xyz
1 x,y,z
2 -x,-y,-z
_cell_length_a                   6.3333(13)
_cell_length_b                   12.763(3)
_cell_length_c                   19.654(3)
_cell_angle_alpha                78.988(5)
_cell_angle_beta                 88.769(6)
_cell_angle_gamma                89.774(6)
_cell_volume                     1559.06
_exptl_crystal_colour            colorless
_exptl_crystal_description       prism
_cell_formula_units_Z            4
loop_
_atom_site_label
_atom_site_type_symbol
_atom_site_fract_x
_atom_site_fract_y
_atom_site_fract_z
I1 I 0.67682(14) -0.08316(6) 0.43516(4)
N1 N 0.4497(13) 0.1206(6) 0.1565(4)
O1 O 0.1077(12) 0.1732(6) 0.1674(4)
C1 C 0.2718(17) 0.1332(8) 0.1937(5)
C2 C 0.2705(18) 0.0999(9) 0.2733(5)
H1 H 0.2811 0.1653 0.2931
H2 H 0.1322 0.0666 0.2884
C3 C 0.4429(17) 0.0232(8) 0.3043(5)
H3 H 0.4067 -0.0507 0.2984
C4 C 0.6495(16) 0.0575(8) 0.2660(5)
H4 H 0.7635 0.0083 0.2856
H5 H 0.6868 0.1301 0.2725
C5 C 0.6326(16) 0.0572(8) 0.1873(5)
H6 H 0.7625 0.0931 0.1641
C6 C 0.6331(16) -0.0562(8) 0.1733(5)
C7 C 0.8203(19) -0.1004(9) 0.1566(6)
H7 H 0.9457 -0.0589 0.1528
C8 C 0.831(2) -0.2059(11) 0.1450(6)
H8 H 0.9627 -0.2358 0.1344
C9 C 0.645(2) -0.2659(9) 0.1493(6)
H9 H 0.6483 -0.3364 0.1403
C10 C 0.463(2) -0.2232(9) 0.1663(6)
H10 H 0.3377 -0.2651 0.1699
C11 C 0.449(2) -0.1171(9) 0.1791(5)
H11 H 0.3178 -0.0886 0.1912
C12 C 0.4511(17) 0.1597(8) 0.0777(5)
C13 C 0.6709(18) 0.1495(9) 0.0472(5)
H12 H 0.6686 0.1733 -0.0032
H13 H 0.7163 0.0748 0.0582
H14 H 0.7697 0.1938 0.0670
C14 C 0.2997(19) 0.0939(8) 0.0454(5)
H15 H 0.1544 0.1108 0.0576
H16 H 0.3269 0.0179 0.0625
H17 H 0.3192 0.1100 -0.0052
C15 C 0.396(2) 0.2800(8) 0.0615(6)
H18 H 0.2448 0.2894 0.0707
H19 H 0.4289 0.3092 0.0127
H20 H 0.4783 0.3177 0.0909
C16 C 0.4493(19) 0.0266(8) 0.3819(5)
H21 H 0.3076 0.0090 0.4031
H22 H 0.4850 0.0999 0.3875
I2 I 1.18321(14) 0.56329(6) 0.06903(4)
N2 N 0.9001(13) 0.3691(6) 0.3480(4)
O2 O 0.5691(12) 0.3091(6) 0.3358(4)
C17 C 0.7348(16) 0.3515(8) 0.3096(5)
C18 C 0.7505(17) 0.3819(9) 0.2306(5)
H23 H 0.7634 0.3152 0.2121
H24 H 0.6157 0.4160 0.2140
C19 C 0.9292(17) 0.4556(8) 0.1991(5)
H25 H 0.8915 0.5301 0.2037
C20 C 1.1239(18) 0.4234(9) 0.2395(5)
H26 H 1.2424 0.4703 0.2191
H27 H 1.1615 0.3492 0.2360
C21 C 1.0921(16) 0.4309(8) 0.3172(5)
H28 H 1.2176 0.3969 0.3426
C22 C 1.0875(16) 0.5472(8) 0.3249(5)
C23 C 1.2791(19) 0.5925(9) 0.3388(5)
H29 H 1.4043 0.5507 0.3444
C24 C 1.284(2) 0.7022(10) 0.3445(6)
H30 H 1.4135 0.7337 0.3535
C25 C 1.104(2) 0.7628(10) 0.3370(6)
H31 H 1.1082 0.8360 0.3406
C26 C 0.9155(19) 0.7164(9) 0.3243(6)
H32 H 0.7903 0.7582 0.3187
C27 C 0.9076(17) 0.6079(8) 0.3195(5)
H33 H 0.7762 0.5765 0.3123
C28 C 0.8821(18) 0.3376(8) 0.4268(6)
C29 C 0.846(2) 0.2153(9) 0.4460(6)
H34 H 0.7180 0.1966 0.4236
H35 H 0.8289 0.1937 0.4964
H36 H 0.9675 0.1782 0.4300
C30 C 0.711(2) 0.3976(10) 0.4544(6)
H37 H 0.7477 0.4736 0.4461
H38 H 0.6927 0.3709 0.5044
H39 H 0.5791 0.3882 0.4311
C31 C 1.095(2) 0.3596(10) 0.4599(6)
H40 H 1.2034 0.3107 0.4481
H41 H 1.0765 0.3485 0.5104
H42 H 1.1389 0.4334 0.4421
C32 C 0.9527(19) 0.4518(8) 0.1227(5)
H43 H 0.8143 0.4675 0.1005
H44 H 0.9943 0.3787 0.1178
loop_
_geom_bond_atom_site_label_1
_geom_bond_atom_site_label_2
_geom_bond_site_symmetry_1
_geom_bond_site_symmetry_2
I1 C16 1_555 1_555
N1 C1 1_555 1_555
O1 C1 1_555 1_555
C1 C2 1_555 1_555
C2 H1 1_555 1_555
H2 C2 1_555 1_555
C3 C2 1_555 1_555
H3 C3 1_555 1_555
C4 C3 1_555 1_555
H4 C4 1_555 1_555
H5 C4 1_555 1_555
C5 N1 1_555 1_555
H6 C5 1_555 1_555
C6 C5 1_555 1_555
C7 C6 1_555 1_555
H7 C7 1_555 1_555
C8 C7 1_555 1_555
H8 C8 1_555 1_555
C9 C8 1_555 1_555
H9 C9 1_555 1_555
C10 C9 1_555 1_555
H10 C10 1_555 1_555
C11 C6 1_555 1_555
H11 C11 1_555 1_555
C12 N1 1_555 1_555
C13 C12 1_555 1_555
H12 C13 1_555 1_555
H13 C13 1_555 1_555
H14 C13 1_555 1_555
C14 C12 1_555 1_555
H15 C14 1_555 1_555
H16 C14 1_555 1_555
H17 C14 1_555 1_555
C15 C12 1_555 1_555
H18 C15 1_555 1_555
H19 C15 1_555 1_555
H20 C15 1_555 1_555
C16 C3 1_555 1_555
H21 C16 1_555 1_555
H22 C16 1_555 1_555
I2 C32 1_555 1_555
N2 C17 1_555 1_555
O2 C17 1_555 1_555
C17 C18 1_555 1_555
C18 H23 1_555 1_555
H24 C18 1_555 1_555
C19 C18 1_555 1_555
H25 C19 1_555 1_555
C20 C19 1_555 1_555
H26 C20 1_555 1_555
H27 C20 1_555 1_555
C21 N2 1_555 1_555
H28 C21 1_555 1_555
C22 C21 1_555 1_555
C23 C22 1_555 1_555
H29 C23 1_555 1_555
C24 C23 1_555 1_555
H30 C24 1_555 1_555
C25 C24 1_555 1_555
H31 C25 1_555 1_555
C26 C25 1_555 1_555
H32 C26 1_555 1_555
C27 C22 1_555 1_555
H33 C27 1_555 1_555
C28 N2 1_555 1_555
C29 C28 1_555 1_555
H34 C29 1_555 1_555
H35 C29 1_555 1_555
H36 C29 1_555 1_555
C30 C28 1_555 1_555
H37 C30 1_555 1_555
H38 C30 1_555 1_555
H39 C30 1_555 1_555
C31 C28 1_555 1_555
H40 C31 1_555 1_555
H41 C31 1_555 1_555
H42 C31 1_555 1_555
C32 C19 1_555 1_555
H43 C32 1_555 1_555
H44 C32 1_555 1_555
C4 C5 1_555 1_555
C10 C11 1_555 1_555
C20 C21 1_555 1_555
C26 C27 1_555 1_555

#END
