
#######################################################################
#
#                 Cambridge Crystallographic Data Centre
#                                CCDC 
#
#######################################################################
#
# If this CIF has been generated from an entry in the Cambridge 
# Structural Database, then it will include bibliographic, chemical, 
# crystal, experimental, refinement or atomic coordinate data resulting 
# from the CCDC's data processing and validation procedures.
#
#######################################################################

data_EHOREZ
_chemical_formula_moiety         'C29 H42 O1 Si2'
_chemical_name_systematic        
2,5-bis(t-Butyl(dimethyl)silyl)-1,1-diphenylpenta-2,3,4-trien-1-ol
_symmetry_cell_setting           triclinic
_symmetry_space_group_name_H-M   'P -1'
_symmetry_Int_Tables_number      2
_space_group_name_Hall           '-P 1'
loop_
_symmetry_equiv_pos_site_id
_symmetry_equiv_pos_as_xyz
1 x,y,z
2 -x,-y,-z
_cell_length_a                   11.753(3)
_cell_length_b                   11.987(3)
_cell_length_c                   12.419(3)
_cell_angle_alpha                93.710(4)
_cell_angle_beta                 107.894(4)
_cell_angle_gamma                116.474(4)
_cell_volume                     1448.02
_exptl_crystal_colour            colorless
_exptl_crystal_description       prismatic
_cell_formula_units_Z            2
loop_
_atom_site_label
_atom_site_type_symbol
_atom_site_fract_x
_atom_site_fract_y
_atom_site_fract_z
Si1 Si 0.86663(8) 0.32338(7) 0.15154(7)
Si2 Si 1.23197(12) 0.22079(11) 0.48857(9)
O1 O 0.62273(18) 0.06639(18) -0.02524(17)
H1 H 0.5673 -0.0023 -0.0187
C1 C 0.8514(3) 0.1604(2) 0.1110(2)
C2 C 0.9381(3) 0.1347(2) 0.1861(2)
C3 C 1.0247(3) 0.1184(2) 0.2623(2)
C4 C 1.1151(3) 0.1023(3) 0.3424(3)
C5 C 0.7503(2) 0.0671(2) -0.0072(2)
C6 C 0.7237(3) -0.0709(2) -0.0126(2)
C7 C 0.6655(3) -0.1389(3) 0.0596(3)
H2 H 0.6505 -0.0981 0.1157
C8 C 0.6296(4) -0.2659(3) 0.0495(3)
H3 H 0.5906 -0.3101 0.0989
C9 C 0.6504(4) -0.3282(3) -0.0321(3)
H4 H 0.6252 -0.4145 -0.0389
C10 C 0.7081(4) -0.2632(3) -0.1027(3)
H5 H 0.7229 -0.3051 -0.1582
C11 C 0.7455(3) -0.1348(3) -0.0937(3)
H6 H 0.7857 -0.0914 -0.1428
C12 C 0.8011(3) 0.1209(2) -0.1013(2)
C13 C 0.9376(3) 0.1709(3) -0.0858(3)
H7 H 0.9992 0.1733 -0.0163
C14 C 0.9848(4) 0.2178(3) -0.1723(3)
H8 H 1.0768 0.2497 -0.1607
C15 C 0.8970(5) 0.2170(3) -0.2727(3)
H9 H 0.9283 0.2495 -0.3301
C16 C 0.7618(5) 0.1680(4) -0.2895(3)
H10 H 0.7013 0.1670 -0.3590
C17 C 0.7128(3) 0.1197(3) -0.2050(2)
H11 H 0.6202 0.0863 -0.2183
C18 C 1.0526(3) 0.4436(3) 0.2035(4)
H12 H 1.0858 0.4398 0.1425
H13 H 1.1026 0.4250 0.2701
H14 H 1.0651 0.5279 0.2246
C19 C 0.7734(4) 0.3656(3) 0.0255(3)
H15 H 0.7956 0.4533 0.0471
H16 H 0.6764 0.3107 0.0027
H17 H 0.8000 0.3546 -0.0384
C20 C 0.7975(3) 0.3236(3) 0.2712(2)
C21 C 0.6518(3) 0.2139(3) 0.2338(3)
H18 H 0.6166 0.2185 0.2932
H19 H 0.6513 0.1337 0.2220
H20 H 0.5953 0.2200 0.1624
C22 C 0.7974(5) 0.4504(4) 0.2977(4)
H21 H 0.7372 0.4578 0.2297
H22 H 0.8887 0.5208 0.3195
H23 H 0.7664 0.4519 0.3605
C23 C 0.8832(4) 0.3078(4) 0.3830(3)
H24 H 0.8458 0.3091 0.4415
H25 H 0.9760 0.3768 0.4099
H26 H 0.8818 0.2275 0.3681
C24 C 1.2960(4) 0.3862(3) 0.4604(3)
C25 C 1.1476(4) 0.2023(4) 0.5930(3)
H27 H 1.2064 0.2719 0.6609
H28 H 1.1293 0.1225 0.6148
H29 H 1.0629 0.2029 0.5580
C26 C 1.4498(4) 0.2051(5) 0.4525(3)
C27 C 1.3253(5) 0.0582(4) 0.5767(4)
H30 H 1.2509 -0.0048 0.5088
H31 H 1.2933 0.0600 0.6389
H32 H 1.3974 0.0367 0.5999
C28 C 1.3804(4) 0.1908(4) 0.5486(3)
C29 C 1.4842(5) 0.2928(4) 0.6631(3)
H33 H 1.4401 0.2874 0.7177
H34 H 1.5168 0.3767 0.6476
H35 H 1.5601 0.2778 0.6953
H36 H 1.109(3) 0.021(3) 0.329(3)
Si3? Si 1.2899(4) 0.2315(3) 0.4522(3)
loop_
_geom_bond_atom_site_label_1
_geom_bond_atom_site_label_2
_geom_bond_site_symmetry_1
_geom_bond_site_symmetry_2
Si1 C1 1_555 1_555
Si2 C4 1_555 1_555
O1 H1 1_555 1_555
C1 C2 1_555 1_555
C2 C3 1_555 1_555
C3 C4 1_555 1_555
C4 H36 1_555 1_555
C5 O1 1_555 1_555
C6 C5 1_555 1_555
C7 C6 1_555 1_555
H2 C7 1_555 1_555
C8 C7 1_555 1_555
H3 C8 1_555 1_555
C9 C8 1_555 1_555
H4 C9 1_555 1_555
C10 C9 1_555 1_555
H5 C10 1_555 1_555
C11 C6 1_555 1_555
H6 C11 1_555 1_555
C12 C5 1_555 1_555
C13 C12 1_555 1_555
H7 C13 1_555 1_555
C14 C13 1_555 1_555
H8 C14 1_555 1_555
C15 C14 1_555 1_555
H9 C15 1_555 1_555
C16 C15 1_555 1_555
H10 C16 1_555 1_555
C17 C12 1_555 1_555
H11 C17 1_555 1_555
C18 Si1 1_555 1_555
H12 C18 1_555 1_555
H13 C18 1_555 1_555
H14 C18 1_555 1_555
C19 Si1 1_555 1_555
H15 C19 1_555 1_555
H16 C19 1_555 1_555
H17 C19 1_555 1_555
C20 Si1 1_555 1_555
C21 C20 1_555 1_555
H18 C21 1_555 1_555
H19 C21 1_555 1_555
H20 C21 1_555 1_555
C22 C20 1_555 1_555
H21 C22 1_555 1_555
H22 C22 1_555 1_555
H23 C22 1_555 1_555
C23 C20 1_555 1_555
H24 C23 1_555 1_555
H25 C23 1_555 1_555
H26 C23 1_555 1_555
C24 Si2 1_555 1_555
C25 Si2 1_555 1_555
H27 C25 1_555 1_555
H28 C25 1_555 1_555
H29 C25 1_555 1_555
C26 C28 1_555 1_555
C27 H30 1_555 1_555
H31 C27 1_555 1_555
H32 C27 1_555 1_555
C28 Si2 1_555 1_555
C29 C28 1_555 1_555
H33 C29 1_555 1_555
H34 C29 1_555 1_555
H35 C29 1_555 1_555
C1 C5 1_555 1_555
C10 C11 1_555 1_555
C16 C17 1_555 1_555
C27 C28 1_555 1_555

#END
