
#######################################################################
#
#                 Cambridge Crystallographic Data Centre
#                                CCDC 
#
#######################################################################
#
# If this CIF has been generated from an entry in the Cambridge 
# Structural Database, then it will include bibliographic, chemical, 
# crystal, experimental, refinement or atomic coordinate data resulting 
# from the CCDC's data processing and validation procedures.
#
#######################################################################

data_EHORAV
_chemical_formula_moiety         'C26 H44 O4 Si2'
_chemical_name_systematic        
2,5-bis(t-Butyl(dimethyl)silyl)-1-(3,4,5-trimethoxyphenyl)penta-2,3,4-trien-1-ol
_symmetry_cell_setting           triclinic
_symmetry_space_group_name_H-M   'P -1'
_symmetry_Int_Tables_number      2
_space_group_name_Hall           '-P 1'
loop_
_symmetry_equiv_pos_site_id
_symmetry_equiv_pos_as_xyz
1 x,y,z
2 -x,-y,-z
_cell_length_a                   7.9041(8)
_cell_length_b                   12.4809(13)
_cell_length_c                   16.3912(16)
_cell_angle_alpha                111.863(2)
_cell_angle_beta                 90.997(2)
_cell_angle_gamma                99.960(2)
_cell_volume                     1472.15
_exptl_crystal_colour            colorless
_exptl_crystal_description       prismatic
_cell_formula_units_Z            2
loop_
_atom_site_label
_atom_site_type_symbol
_atom_site_fract_x
_atom_site_fract_y
_atom_site_fract_z
Si1 Si 0.63781(18) 0.72923(9) 0.43286(6)
Si2 Si 0.76153(12) 0.97326(8) 0.81588(6)
O1 O 0.8681(3) 0.7873(2) 0.89201(17)
H1 H 0.9314 0.7426 0.8939
O2 O 0.3436(3) 0.6393(2) 1.02021(15)
O3 O 0.0716(3) 0.6199(2) 0.91278(15)
O4 O 0.1109(3) 0.6385(2) 0.75729(16)
C1 C 0.6785(5) 0.6525(3) 0.5070(2)
H2 H 0.6771 0.5722 0.4813
C2 C 0.7092(4) 0.7042(3) 0.5936(2)
C3 C 0.7347(4) 0.7563(3) 0.6770(2)
C4 C 0.7518(4) 0.8083(3) 0.7635(2)
C5 C 0.7461(3) 0.7299(3) 0.81662(19)
H3 H 0.7782 0.6555 0.7798
C6 C 0.5658(4) 0.7040(2) 0.8439(2)
C7 C 0.5430(4) 0.6892(3) 0.9231(2)
H4 H 0.6385 0.7007 0.9615
C8 C 0.3788(4) 0.6574(3) 0.9452(2)
C9 C 0.2356(4) 0.6430(3) 0.8887(2)
C10 C 0.2598(4) 0.6569(3) 0.8094(2)
C11 C 0.4236(4) 0.6880(3) 0.7880(2)
H5 H 0.4383 0.6983 0.7351
C12 C 0.7543(7) 0.8846(4) 0.4826(3)
H6 H 0.7440 0.9222 0.4417
H7 H 0.8739 0.8867 0.4959
H8 H 0.7052 0.9253 0.5359
C13 C 0.7235(9) 0.6547(5) 0.3240(3)
H9 H 0.7178 0.6998 0.2880
H10 H 0.6552 0.5773 0.2945
H11 H 0.8411 0.6491 0.3338
C14 C 0.4018(7) 0.7188(4) 0.4178(3)
C15 C 0.3333(8) 0.7807(6) 0.5057(4)
H12 H 0.2138 0.7824 0.4961
H13 H 0.3976 0.8598 0.5328
H14 H 0.3451 0.7391 0.5436
C16 C 0.3070(9) 0.5906(5) 0.3798(5)
H15 H 0.1857 0.5876 0.3854
H16 H 0.3497 0.5485 0.4116
H17 H 0.3260 0.5554 0.3186
C17 C 0.3531(9) 0.7782(5) 0.3563(4)
H18 H 0.4002 0.7452 0.3008
H19 H 0.3990 0.8612 0.3828
H20 H 0.2298 0.7654 0.3469
C18 C 0.6023(5) 1.0052(3) 0.7474(3)
H21 H 0.4900 0.9608 0.7470
H22 H 0.6351 0.9836 0.6881
H23 H 0.5996 1.0877 0.7717
C19 C 0.6961(6) 1.0172(3) 0.9305(2)
H24 H 0.6650 1.0931 0.9484
H25 H 0.7905 1.0206 0.9696
H26 H 0.5991 0.9604 0.9325
C20 C 0.9855(5) 1.0524(3) 0.8123(2)
C21 C 1.0344(5) 1.0187(4) 0.7178(3)
H27 H 1.1507 1.0572 0.7180
H28 H 0.9577 1.0427 0.6849
H29 H 1.0258 0.9350 0.6911
C22 C 0.9919(6) 1.1866(3) 0.8536(3)
H30 H 1.1039 1.2275 0.8492
H31 H 0.9700 1.2093 0.9146
H32 H 0.9059 1.2065 0.8227
C23 C 1.1167(5) 1.0230(4) 0.8669(3)
H33 H 1.1155 0.9400 0.8423
H34 H 1.0868 1.0454 0.9267
H35 H 1.2299 1.0652 0.8660
C24 C 0.4826(5) 0.6568(4) 1.0821(2)
H36 H 0.5618 0.6069 1.0541
H37 H 0.4395 0.6377 1.1304
H38 H 0.5408 0.7376 1.1038
C25 C -0.0039(5) 0.4982(3) 0.8834(3)
H39 H -0.0202 0.4650 0.8201
H40 H -0.1134 0.4894 0.9071
H41 H 0.0708 0.4582 0.9033
C26 C 0.1290(5) 0.6511(4) 0.6753(3)
H42 H 0.1889 0.7293 0.6854
H43 H 0.0170 0.6376 0.6456
H44 H 0.1934 0.5950 0.6395
loop_
_geom_bond_atom_site_label_1
_geom_bond_atom_site_label_2
_geom_bond_site_symmetry_1
_geom_bond_site_symmetry_2
Si1 C1 1_555 1_555
Si2 C4 1_555 1_555
O1 H1 1_555 1_555
O2 C8 1_555 1_555
O3 C9 1_555 1_555
O4 C10 1_555 1_555
C1 H2 1_555 1_555
C2 C1 1_555 1_555
C3 C2 1_555 1_555
C4 C3 1_555 1_555
C5 O1 1_555 1_555
H3 C5 1_555 1_555
C6 C5 1_555 1_555
C7 C6 1_555 1_555
H4 C7 1_555 1_555
C8 C7 1_555 1_555
C9 C8 1_555 1_555
C10 C9 1_555 1_555
C11 C6 1_555 1_555
H5 C11 1_555 1_555
C12 Si1 1_555 1_555
H6 C12 1_555 1_555
H7 C12 1_555 1_555
H8 C12 1_555 1_555
C13 Si1 1_555 1_555
H9 C13 1_555 1_555
H10 C13 1_555 1_555
H11 C13 1_555 1_555
C14 Si1 1_555 1_555
C15 C14 1_555 1_555
H12 C15 1_555 1_555
H13 C15 1_555 1_555
H14 C15 1_555 1_555
C16 C14 1_555 1_555
H15 C16 1_555 1_555
H16 C16 1_555 1_555
H17 C16 1_555 1_555
C17 C14 1_555 1_555
H18 C17 1_555 1_555
H19 C17 1_555 1_555
H20 C17 1_555 1_555
C18 Si2 1_555 1_555
H21 C18 1_555 1_555
H22 C18 1_555 1_555
H23 C18 1_555 1_555
C19 Si2 1_555 1_555
H24 C19 1_555 1_555
H25 C19 1_555 1_555
H26 C19 1_555 1_555
C20 Si2 1_555 1_555
C21 C20 1_555 1_555
H27 C21 1_555 1_555
H28 C21 1_555 1_555
H29 C21 1_555 1_555
C22 C20 1_555 1_555
H30 C22 1_555 1_555
H31 C22 1_555 1_555
H32 C22 1_555 1_555
C23 C20 1_555 1_555
H33 C23 1_555 1_555
H34 C23 1_555 1_555
H35 C23 1_555 1_555
C24 O2 1_555 1_555
H36 C24 1_555 1_555
H37 C24 1_555 1_555
H38 C24 1_555 1_555
C25 O3 1_555 1_555
H39 C25 1_555 1_555
H40 C25 1_555 1_555
H41 C25 1_555 1_555
C26 O4 1_555 1_555
H42 C26 1_555 1_555
H43 C26 1_555 1_555
H44 C26 1_555 1_555
C4 C5 1_555 1_555
C10 C11 1_555 1_555

#END
