
#######################################################################
#
#                 Cambridge Crystallographic Data Centre
#                                CCDC 
#
#######################################################################
#
# If this CIF has been generated from an entry in the Cambridge 
# Structural Database, then it will include bibliographic, chemical, 
# crystal, experimental, refinement or atomic coordinate data resulting 
# from the CCDC's data processing and validation procedures.
#
#######################################################################

data_EHOXAA
_chemical_name_common            'Paroxetine hydrochloride acetone solvate'
_chemical_formula_moiety         'C19 H21 F1 N1 O3 1+,Cl1 1-,C3 H6 O1'
_chemical_name_systematic        
"(-)-trans-4-(4'-Fluorophenyl)-3-(3',4'-methylenedioxyphenoxymethyl)piperidine hydrochloride acetone solvate"
_chemical_properties_biological  'paroxetine is an antidepressant'
_symmetry_cell_setting           monoclinic
_symmetry_space_group_name_H-M   'P 21'
_symmetry_Int_Tables_number      4
_space_group_name_Hall           'P 2yb'
loop_
_symmetry_equiv_pos_site_id
_symmetry_equiv_pos_as_xyz
1 x,y,z
2 -x,1/2+y,-z
_cell_length_a                   11.4532(5)
_cell_length_b                   5.7545(2)
_cell_length_c                   16.2992(7)
_cell_angle_alpha                90
_cell_angle_beta                 90.510(2)
_cell_angle_gamma                90
_cell_volume                     1074.2
_exptl_crystal_colour            colorless
_exptl_crystal_description       plate
_cell_formula_units_Z            2
loop_
_atom_site_label
_atom_site_type_symbol
_atom_site_fract_x
_atom_site_fract_y
_atom_site_fract_z
Cl1 Cl 1.02703(8) 0.18513(16) 0.91628(5)
F1 F 0.4252(2) 1.3922(5) 0.60034(15)
N1 N 0.9352(3) 0.6820(7) 0.88076(17)
C1 C 0.6121(3) 0.9010(7) 0.6467(2)
C2 C 0.5342(3) 1.0448(7) 0.6047(2)
C3 C 0.5016(3) 1.2495(7) 0.6410(2)
C4 C 0.5409(3) 1.3177(7) 0.7173(2)
C5 C 0.6202(3) 1.1725(8) 0.7588(2)
C6 C 0.6577(3) 0.9648(7) 0.7241(2)
C7 C 0.7440(3) 0.8048(6) 0.7671(2)
C8 C 0.7302(4) 0.8046(7) 0.8611(2)
C9 C 0.8112(4) 0.6308(7) 0.9022(2)
C10 C 0.9547(3) 0.6865(8) 0.7902(2)
C11 C 0.8728(3) 0.8574(6) 0.7466(2)
C12 C 0.8962(3) 0.8502(7) 0.6546(2)
C13 C 0.8426(3) 0.6016(6) 0.5421(2)
C14 C 0.7819(3) 0.3993(7) 0.5191(2)
C15 C 0.7585(3) 0.3536(7) 0.4356(2)
C16 C 0.7944(3) 0.5125(7) 0.3804(2)
C17 C 0.8124(4) 0.7420(9) 0.2711(2)
C18 C 0.8542(3) 0.7092(7) 0.4035(2)
C19 C 0.8817(3) 0.7618(7) 0.4843(2)
O1 O 0.8588(2) 0.6271(4) 0.62528(14)
O2 O 0.7849(3) 0.5076(6) 0.29463(16)
O3 O 0.8849(3) 0.8382(6) 0.33495(15)
H1 H 0.974(4) 0.565(8) 0.904(2)
H2 H 0.953(4) 0.813(9) 0.903(3)
H3 H 0.637(3) 0.754(7) 0.619(2)
H4 H 0.501(4) 1.002(8) 0.555(3)
H5 H 0.522(4) 1.465(9) 0.739(3)
H6 H 0.647(3) 1.220(8) 0.813(2)
H7 H 0.728(3) 0.641(7) 0.752(2)
H8 H 0.655(4) 0.769(8) 0.877(2)
H9 H 0.752(4) 0.979(8) 0.883(2)
H10 H 0.798(3) 0.473(8) 0.884(2)
H11 H 0.805(3) 0.627(7) 0.965(2)
H12 H 0.940(3) 0.536(7) 0.773(2)
H13 H 1.032(3) 0.730(6) 0.781(2)
H14 H 0.895(3) 1.008(7) 0.764(2)
H15 H 0.848(3) 0.978(7) 0.628(2)
H16 H 0.977(3) 0.867(7) 0.646(2)
H17 H 0.756(3) 0.299(7) 0.561(2)
H18 H 0.717(4) 0.214(10) 0.418(3)
H19 H 0.855(4) 0.739(9) 0.227(3)
H20 H 0.734(4) 0.821(8) 0.273(3)
H21 H 0.922(3) 0.889(7) 0.500(2)
O4 O 0.3884(3) 0.8210(7) 1.0274(2)
C20 C 0.3548(4) 0.8090(9) 0.9558(3)
C21 C 0.2436(8) 0.676(2) 0.9309(6)
C22 C 0.4048(13) 0.930(3) 0.8819(7)
C23? C 0.3111(15) 0.576(2) 0.9234(10)
C24? C 0.3722(9) 1.0202(17) 0.8997(6)
loop_
_geom_bond_atom_site_label_1
_geom_bond_atom_site_label_2
_geom_bond_site_symmetry_1
_geom_bond_site_symmetry_2
F1 C3 1_555 1_555
N1 C9 1_555 1_555
C1 C2 1_555 1_555
C2 C3 1_555 1_555
C3 C4 1_555 1_555
C4 C5 1_555 1_555
C5 C6 1_555 1_555
C6 C1 1_555 1_555
C7 C6 1_555 1_555
C8 C7 1_555 1_555
C9 C8 1_555 1_555
C10 N1 1_555 1_555
C11 C7 1_555 1_555
C12 C11 1_555 1_555
C13 C14 1_555 1_555
C14 C15 1_555 1_555
C15 C16 1_555 1_555
C16 C18 1_555 1_555
C17 O2 1_555 1_555
C18 C19 1_555 1_555
C19 C13 1_555 1_555
O1 C12 1_555 1_555
O2 C16 1_555 1_555
O3 C17 1_555 1_555
H1 N1 1_555 1_555
H2 N1 1_555 1_555
H3 C1 1_555 1_555
H4 C2 1_555 1_555
H5 C4 1_555 1_555
H6 C5 1_555 1_555
H7 C7 1_555 1_555
H8 C8 1_555 1_555
H9 C8 1_555 1_555
H10 C9 1_555 1_555
H11 C9 1_555 1_555
H12 C10 1_555 1_555
H13 C10 1_555 1_555
H14 C11 1_555 1_555
H15 C12 1_555 1_555
H16 C12 1_555 1_555
H17 C14 1_555 1_555
H18 C15 1_555 1_555
H19 C17 1_555 1_555
H20 C17 1_555 1_555
H21 C19 1_555 1_555
O4 C20 1_555 1_555
C20 C21 1_555 1_555
C22 C20 1_555 1_555
C10 C11 1_555 1_555
C13 O1 1_555 1_555
C18 O3 1_555 1_555

#END
