
#######################################################################
#
#                 Cambridge Crystallographic Data Centre
#                                CCDC 
#
#######################################################################
#
# If this CIF has been generated from an entry in the Cambridge 
# Structural Database, then it will include bibliographic, chemical, 
# crystal, experimental, refinement or atomic coordinate data resulting 
# from the CCDC's data processing and validation procedures.
#
#######################################################################

data_EHUCAN
_chemical_formula_moiety         'C14 H16 O4'
_chemical_name_systematic        
4,8-dimethyl-11,14-dioxatetracyclo[6.5.1.0^1,10^.0^3,7^]tetradec-3-ene-5,9-dione
_symmetry_cell_setting           orthorhombic
_symmetry_space_group_name_H-M   'P 21 21 21'
_symmetry_Int_Tables_number      19
_space_group_name_Hall           'P 2ac 2ab'
loop_
_symmetry_equiv_pos_site_id
_symmetry_equiv_pos_as_xyz
1 x,y,z
2 1/2-x,-y,1/2+z
3 -x,1/2+y,1/2-z
4 1/2+x,1/2-y,-z
_cell_length_a                   7.2935(6)
_cell_length_b                   8.8494(8)
_cell_length_c                   19.3290(17)
_cell_angle_alpha                90
_cell_angle_beta                 90
_cell_angle_gamma                90
_cell_volume                     1247.55
_exptl_crystal_colour            colorless
_exptl_crystal_description       prismatic
_cell_formula_units_Z            4
loop_
_atom_site_label
_atom_site_type_symbol
_atom_site_fract_x
_atom_site_fract_y
_atom_site_fract_z
O1 O 0.2044(3) 1.0456(2) 0.20127(15)
O2 O 0.4883(2) 0.45124(19) 0.13641(9)
O3 O 0.1086(3) 0.6181(3) 0.06356(12)
O4 O 0.4256(4) 0.4709(4) -0.01403(13)
C1 C 0.4589(4) 0.9071(3) 0.15517(12)
C2 C 0.2826(4) 0.9277(3) 0.19150(14)
C3 C 0.2165(4) 0.7753(3) 0.21588(17)
H1 H 0.1032 0.7476 0.1928
H2 H 0.1958 0.7757 0.2655
C4 C 0.3710(3) 0.6653(3) 0.19678(13)
H3 H 0.4285 0.6292 0.2395
C5 C 0.5075(3) 0.7624(3) 0.15833(12)
C6 C 0.6632(3) 0.6821(3) 0.12405(14)
H4 H 0.7520 0.6495 0.1583
H5 H 0.7240 0.7488 0.0915
C7 C 0.5826(3) 0.5453(3) 0.08624(13)
C8 C 0.3201(3) 0.5277(3) 0.15210(13)
C9 C 0.2605(3) 0.5825(3) 0.08067(14)
C10 C 0.4312(4) 0.5872(4) 0.03601(14)
H6 H 0.4506 0.6869 0.0152
C11 C 0.5833(5) 0.3776(4) -0.00833(18)
H7 H 0.6448 0.3709 -0.0527
H8 H 0.5479 0.2766 0.0058
C12 C 0.7097(4) 0.4457(4) 0.04452(18)
H9 H 0.8057 0.5046 0.0226
H10 H 0.7651 0.3683 0.0732
C13 C 0.1874(4) 0.4209(3) 0.18647(17)
H11 H 0.1735 0.3320 0.1585
H12 H 0.0706 0.4697 0.1916
H13 H 0.2335 0.3929 0.2312
C14 C 0.5540(5) 1.0360(3) 0.12026(16)
H14 H 0.6809 1.0368 0.1335
H15 H 0.4976 1.1293 0.1339
H16 H 0.5446 1.0245 0.0710
loop_
_geom_bond_atom_site_label_1
_geom_bond_atom_site_label_2
_geom_bond_site_symmetry_1
_geom_bond_site_symmetry_2
O1 C2 1_555 1_555
O2 C7 1_555 1_555
O3 C9 1_555 1_555
O4 C10 1_555 1_555
C1 C2 1_555 1_555
C2 C3 1_555 1_555
C3 H1 1_555 1_555
H2 C3 1_555 1_555
C4 C3 1_555 1_555
H3 C4 1_555 1_555
C5 C1 1_555 1_555
C6 C5 1_555 1_555
H4 C6 1_555 1_555
H5 C6 1_555 1_555
C7 C6 1_555 1_555
C8 O2 1_555 1_555
C9 C8 1_555 1_555
C10 C7 1_555 1_555
H6 C10 1_555 1_555
C11 O4 1_555 1_555
H7 C11 1_555 1_555
H8 C11 1_555 1_555
C12 C7 1_555 1_555
H9 C12 1_555 1_555
H10 C12 1_555 1_555
C13 C8 1_555 1_555
H11 C13 1_555 1_555
H12 C13 1_555 1_555
H13 C13 1_555 1_555
C14 C1 1_555 1_555
H14 C14 1_555 1_555
H15 C14 1_555 1_555
H16 C14 1_555 1_555
C4 C5 1_555 1_555
C4 C8 1_555 1_555
C9 C10 1_555 1_555
C11 C12 1_555 1_555

#END
