
#######################################################################
#
#                 Cambridge Crystallographic Data Centre
#                                CCDC 
#
#######################################################################
#
# If this CIF has been generated from an entry in the Cambridge 
# Structural Database, then it will include bibliographic, chemical, 
# crystal, experimental, refinement or atomic coordinate data resulting 
# from the CCDC's data processing and validation procedures.
#
#######################################################################

data_EHUGOF
_chemical_formula_moiety         'C26 H19 Cl1 N1 O1 P1'
_chemical_name_systematic        
2-(4-chlorophenyl)-3-(diphenylphosphoryl)-1H-indole
_symmetry_cell_setting           monoclinic
_symmetry_space_group_name_H-M   'C c'
_symmetry_Int_Tables_number      9
_space_group_name_Hall           'C -2yc'
loop_
_symmetry_equiv_pos_site_id
_symmetry_equiv_pos_as_xyz
1 x,y,z
2 x,-y,1/2+z
3 1/2+x,1/2+y,z
4 1/2+x,1/2-y,1/2+z
_cell_length_a                   9.683(6)
_cell_length_b                   15.112(10)
_cell_length_c                   14.898(9)
_cell_angle_alpha                90
_cell_angle_beta                 97.21(5)
_cell_angle_gamma                90
_cell_volume                     2162.78
_exptl_crystal_colour            colorless
_exptl_crystal_description       block
_cell_formula_units_Z            4
loop_
_atom_site_label
_atom_site_type_symbol
_atom_site_fract_x
_atom_site_fract_y
_atom_site_fract_z
P1 P 0.82358(5) 0.05345(4) 0.61128(4)
Cl1 Cl 0.32016(9) -0.19118(8) 0.30791(6)
O1 O 0.92591(19) 0.05053(12) 0.69501(12)
C1 C 0.7215(3) -0.05118(16) 0.40189(16)
C2 C 1.0642(3) 0.04840(16) 0.41279(17)
C3 C 0.8545(3) -0.00515(15) 0.43142(16)
C4 C 1.0405(2) 0.06984(15) 0.50166(16)
N1 N 0.9499(2) 0.00340(15) 0.37228(15)
C5 C 0.6845(3) -0.02538(15) 0.61442(16)
C6 C 0.6172(3) -0.00847(18) 0.34536(18)
H1 H 0.6306 0.0494 0.3270
C7 C 1.2633(3) 0.13958(17) 0.5239(2)
H2 H 1.3319 0.1705 0.5604
C8 C 0.5764(3) -0.18009(19) 0.40098(17)
H3 H 0.5615 -0.2376 0.4198
C9 C 0.5495(3) -0.00637(17) 0.57876(17)
H4 H 0.5288 0.0479 0.5509
C10 C 0.7145(3) -0.10640(17) 0.65785(16)
H5 H 0.8051 -0.1197 0.6826
C11 C 0.4935(3) -0.0516(2) 0.31631(18)
H6 H 0.4238 -0.0235 0.2780
C12 C 1.1439(3) 0.11536(16) 0.55802(17)
H7 H 1.1316 0.1288 0.6174
C13 C 0.7001(3) -0.13732(17) 0.42881(17)
H8 H 0.7698 -0.1666 0.4660
C14 C 0.6086(3) -0.16658(18) 0.6638(2)
H9 H 0.6279 -0.2207 0.6924
C15 C 0.4759(3) -0.1361(2) 0.34501(18)
C16 C 0.7068(3) 0.20235(18) 0.51569(18)
H10 H 0.7360 0.1781 0.4639
C17 C 0.7354(2) 0.15926(15) 0.59836(17)
C18 C 0.9049(2) 0.03459(15) 0.51296(15)
C19 C 1.1859(3) 0.07258(19) 0.37864(19)
H11 H 1.2003 0.0581 0.3199
C20 C 0.6895(3) 0.19598(17) 0.67474(19)
H12 H 0.7076 0.1671 0.7301
C21 C 0.6174(3) 0.27493(19) 0.6693(2)
H13 H 0.5873 0.2991 0.7209
C22 C 1.2837(3) 0.11839(19) 0.4345(2)
H14 H 1.3656 0.1359 0.4130
C23 C 0.4745(3) -0.14652(19) 0.6275(2)
H15 H 0.4036 -0.1871 0.6324
C24 C 0.4442(3) -0.06789(18) 0.5843(2)
H16 H 0.3536 -0.0556 0.5587
C25 C 0.6345(3) 0.2815(2) 0.5109(2)
H17 H 0.6158 0.3105 0.4556
C26 C 0.5898(3) 0.31803(19) 0.5872(2)
H18 H 0.5414 0.3713 0.5833
H19 H 0.938(3) -0.013(2) 0.319(2)
loop_
_geom_bond_atom_site_label_1
_geom_bond_atom_site_label_2
_geom_bond_site_symmetry_1
_geom_bond_site_symmetry_2
P1 O1 1_555 1_555
Cl1 C15 1_555 1_555
C1 C3 1_555 1_555
C2 C4 1_555 1_555
C3 N1 1_555 1_555
C4 C12 1_555 1_555
N1 C2 1_555 1_555
C5 P1 1_555 1_555
C6 C1 1_555 1_555
H1 C6 1_555 1_555
C7 H2 1_555 1_555
C8 H3 1_555 1_555
C9 C5 1_555 1_555
H4 C9 1_555 1_555
C10 C5 1_555 1_555
H5 C10 1_555 1_555
C11 C6 1_555 1_555
H6 C11 1_555 1_555
C12 C7 1_555 1_555
H7 C12 1_555 1_555
C13 C1 1_555 1_555
H8 C13 1_555 1_555
C14 C10 1_555 1_555
H9 C14 1_555 1_555
C15 C8 1_555 1_555
C16 H10 1_555 1_555
C17 P1 1_555 1_555
C18 P1 1_555 1_555
C19 C2 1_555 1_555
H11 C19 1_555 1_555
C20 C17 1_555 1_555
H12 C20 1_555 1_555
C21 C20 1_555 1_555
H13 C21 1_555 1_555
C22 C7 1_555 1_555
H14 C22 1_555 1_555
C23 C14 1_555 1_555
H15 C23 1_555 1_555
C24 C9 1_555 1_555
H16 C24 1_555 1_555
C25 C16 1_555 1_555
H17 C25 1_555 1_555
C26 C21 1_555 1_555
H18 C26 1_555 1_555
H19 N1 1_555 1_555
C3 C18 1_555 1_555
C4 C18 1_555 1_555
C8 C13 1_555 1_555
C11 C15 1_555 1_555
C16 C17 1_555 1_555
C19 C22 1_555 1_555
C23 C24 1_555 1_555
C25 C26 1_555 1_555

#END
