
#######################################################################
#
#                 Cambridge Crystallographic Data Centre
#                                CCDC 
#
#######################################################################
#
# If this CIF has been generated from an entry in the Cambridge 
# Structural Database, then it will include bibliographic, chemical, 
# crystal, experimental, refinement or atomic coordinate data resulting 
# from the CCDC's data processing and validation procedures.
#
#######################################################################

data_EHUHIZ
_chemical_formula_moiety         'C15 H13 Br1 Cl1 N1 O1'
_chemical_name_systematic        
2-Bromo-4-chloro-6-[(2,4-dimethylphenylimino)methyl]phenol
_symmetry_cell_setting           monoclinic
_symmetry_space_group_name_H-M   'P 21/c'
_symmetry_Int_Tables_number      14
_space_group_name_Hall           '-P 2ybc'
loop_
_symmetry_equiv_pos_site_id
_symmetry_equiv_pos_as_xyz
1 x,y,z
2 -x,1/2+y,1/2-z
3 -x,-y,-z
4 x,1/2-y,1/2+z
_cell_length_a                   4.2995(3)
_cell_length_b                   21.779(2)
_cell_length_c                   15.1397(16)
_cell_angle_alpha                90
_cell_angle_beta                 95.5930(10)
_cell_angle_gamma                90
_cell_volume                     1410.91
_exptl_crystal_colour            yellow
_exptl_crystal_description       block
_cell_formula_units_Z            4
loop_
_atom_site_label
_atom_site_type_symbol
_atom_site_fract_x
_atom_site_fract_y
_atom_site_fract_z
Br1 Br 1.48583(11) 0.47492(2) 0.88166(3)
Cl1 Cl 1.0028(3) 0.60771(5) 0.58946(7)
O1 O 1.0952(6) 0.37641(13) 0.78700(15)
H1 H 0.9869 0.3500 0.7604
N1 N 0.7025(7) 0.32960(16) 0.66614(19)
C1 C 0.6923(9) 0.38159(19) 0.6264(2)
H2 H 0.5588 0.3865 0.5748
C2 C 0.8831(9) 0.43297(18) 0.6598(2)
C3 C 1.0738(9) 0.42827(19) 0.7411(2)
C4 C 1.2386(9) 0.4797(2) 0.7730(2)
C5 C 1.2169(9) 0.53422(19) 0.7270(2)
H3 H 1.3274 0.5684 0.7494
C6 C 1.0309(10) 0.53823(18) 0.6474(3)
C7 C 0.8671(9) 0.48835(19) 0.6142(2)
H4 H 0.7435 0.4915 0.5605
C8 C 0.5163(9) 0.27931(18) 0.6341(2)
C9 C 0.4409(9) 0.23598(19) 0.6966(2)
C10 C 0.2567(9) 0.18676(19) 0.6664(3)
H5 H 0.2007 0.1581 0.7075
C11 C 0.1515(9) 0.17823(19) 0.5776(3)
C12 C 0.2395(10) 0.22121(19) 0.5176(3)
H6 H 0.1769 0.2162 0.4574
C13 C 0.4174(10) 0.27100(19) 0.5454(2)
H7 H 0.4724 0.2996 0.5040
C14 C 0.5557(10) 0.24254(19) 0.7927(2)
H8 H 0.4719 0.2099 0.8259
H9 H 0.4890 0.2814 0.8143
H10 H 0.7798 0.2405 0.7996
C15 C -0.0447(10) 0.12306(19) 0.5464(3)
H11 H 0.0205 0.0880 0.5818
H12 H -0.0181 0.1148 0.4853
H13 H -0.2609 0.1315 0.5523
loop_
_geom_bond_atom_site_label_1
_geom_bond_atom_site_label_2
_geom_bond_site_symmetry_1
_geom_bond_site_symmetry_2
Br1 C4 1_555 1_555
Cl1 C6 1_555 1_555
O1 H1 1_555 1_555
N1 C1 1_555 1_555
C1 H2 1_555 1_555
C2 C1 1_555 1_555
C3 O1 1_555 1_555
C4 C3 1_555 1_555
C5 C4 1_555 1_555
H3 C5 1_555 1_555
C6 C5 1_555 1_555
C7 C2 1_555 1_555
H4 C7 1_555 1_555
C8 N1 1_555 1_555
C9 C8 1_555 1_555
C10 C9 1_555 1_555
H5 C10 1_555 1_555
C11 C10 1_555 1_555
C12 C11 1_555 1_555
H6 C12 1_555 1_555
C13 C8 1_555 1_555
H7 C13 1_555 1_555
C14 C9 1_555 1_555
H8 C14 1_555 1_555
H9 C14 1_555 1_555
H10 C14 1_555 1_555
C15 C11 1_555 1_555
H11 C15 1_555 1_555
H12 C15 1_555 1_555
H13 C15 1_555 1_555
C2 C3 1_555 1_555
C6 C7 1_555 1_555
C12 C13 1_555 1_555

#END
