
#######################################################################
#
#                 Cambridge Crystallographic Data Centre
#                                CCDC 
#
#######################################################################
#
# If this CIF has been generated from an entry in the Cambridge 
# Structural Database, then it will include bibliographic, chemical, 
# crystal, experimental, refinement or atomic coordinate data resulting 
# from the CCDC's data processing and validation procedures.
#
#######################################################################

data_EHUHUL
_chemical_name_common            'Sumadain A 4-bromobenzoate'
_chemical_formula_moiety         'C37 H37 Br1 O5'
_chemical_name_systematic        
'8-Cinnamoyl-1,5-dimethyl-5-(4-methylpent-3-en-1-yl)-6,15-dioxatetracyclo[9.3.1.0^4,13^.0^7,12^]pentadeca-7,9,11-trien-9-yl 4-bromobenzoate'
_symmetry_cell_setting           monoclinic
_symmetry_space_group_name_H-M   'P 21/c'
_symmetry_Int_Tables_number      14
_space_group_name_Hall           '-P 2ybc'
loop_
_symmetry_equiv_pos_site_id
_symmetry_equiv_pos_as_xyz
1 x,y,z
2 -x,1/2+y,1/2-z
3 -x,-y,-z
4 x,1/2-y,1/2+z
_cell_length_a                   9.4410(9)
_cell_length_b                   11.8241(11)
_cell_length_c                   28.744(3)
_cell_angle_alpha                90
_cell_angle_beta                 97.1810(10)
_cell_angle_gamma                90
_cell_volume                     3183.56
_exptl_crystal_colour            colorless
_exptl_crystal_description       prism
_cell_formula_units_Z            4
loop_
_atom_site_label
_atom_site_type_symbol
_atom_site_fract_x
_atom_site_fract_y
_atom_site_fract_z
Br1 Br 0.83295(5) 1.00010(5) 1.037716(18)
C1 C 0.2178(4) 0.5697(3) 0.86130(15)
C2 C 0.2190(4) 0.5771(3) 0.90989(15)
C3 C 0.1330(4) 0.5144(4) 0.93457(13)
H1 H 0.1344 0.5253 0.9667
C4 C 0.0430(4) 0.4337(3) 0.91121(15)
C5 C 0.0544(4) 0.4103(3) 0.86518(15)
C6 C 0.1267(4) 0.4846(3) 0.84016(13)
C7 C 0.2982(4) 0.6499(4) 0.83518(14)
C8 C 0.3537(4) 0.6125(4) 0.79212(14)
H2 H 0.3390 0.5380 0.7823
C9 C 0.4241(4) 0.6819(3) 0.76693(14)
H3 H 0.4309 0.7563 0.7774
C10 C 0.4919(4) 0.6582(4) 0.72549(14)
C11 C 0.5007(4) 0.5518(4) 0.70659(16)
H4 H 0.4589 0.4913 0.7204
C12 C 0.5695(5) 0.5322(4) 0.66792(17)
H5 H 0.5753 0.4594 0.6561
C13 C 0.6295(5) 0.6219(6) 0.64710(16)
H6 H 0.6750 0.6096 0.6207
C14 C 0.6233(5) 0.7284(5) 0.66465(18)
H7 H 0.6638 0.7889 0.6504
C15 C 0.5563(4) 0.7449(4) 0.70365(16)
H8 H 0.5541 0.8175 0.7160
C16 C -0.0419(4) 0.3291(3) 0.83757(13)
H9 H 0.0122 0.2829 0.8176
C17 C -0.1153(4) 0.2541(4) 0.86977(14)
H10 H -0.0474 0.2013 0.8859
H11 H -0.1909 0.2112 0.8518
C18 C -0.1772(6) 0.3292(5) 0.90513(16)
C19 C -0.2761(5) 0.4163(5) 0.87916(17)
H12 H -0.3635 0.3778 0.8668
H13 H -0.3008 0.4710 0.9020
C20 C -0.2232(4) 0.4811(4) 0.83919(13)
H14 H -0.1597 0.5408 0.8522
H15 H -0.3041 0.5164 0.8206
C21 C -0.1447(4) 0.4077(3) 0.80721(12)
H16 H -0.2155 0.3605 0.7884
C22 C -0.0566(4) 0.4708(3) 0.77316(12)
C23 C -0.0579(4) 0.4041(3) 0.72791(12)
H17 H -0.0322 0.3266 0.7362
H18 H -0.1553 0.4031 0.7124
C24 C 0.0358(5) 0.4430(4) 0.69324(13)
H19 H 0.1345 0.4391 0.7074
H20 H 0.0142 0.5215 0.6855
C25 C 0.0189(5) 0.3745(4) 0.64895(14)
H21 H -0.0746 0.3654 0.6349
C26 C 0.1155(6) 0.3258(4) 0.62727(16)
C27 C 0.2719(5) 0.3178(5) 0.64670(17)
H22 H 0.3220 0.3820 0.6365
H23 H 0.3116 0.2497 0.6356
H24 H 0.2810 0.3165 0.6803
C28 C 0.0783(5) 0.2646(4) 0.58215(14)
H25 H -0.0236 0.2603 0.5750
H26 H 0.1175 0.1896 0.5848
H27 H 0.1171 0.3045 0.5575
C29 C -0.2495(5) 0.2624(5) 0.94077(14)
H28 H -0.1816 0.2121 0.9576
H29 H -0.3270 0.2193 0.9248
H30 H -0.2856 0.3136 0.9624
C30 C -0.1007(4) 0.5932(3) 0.76389(13)
H31 H -0.0872 0.6349 0.7928
H32 H -0.1995 0.5961 0.7510
H33 H -0.0434 0.6259 0.7421
C31 C 0.4431(5) 0.6261(4) 0.94902(14)
C32 C 0.5318(4) 0.7200(4) 0.97057(14)
C33 C 0.5116(4) 0.8281(4) 0.95559(13)
H34 H 0.4374 0.8454 0.9323
C34 C 0.6020(5) 0.9132(4) 0.97509(16)
H35 H 0.5897 0.9873 0.9645
C35 C 0.7092(4) 0.8870(4) 1.01002(16)
C36 C 0.7294(4) 0.7788(5) 1.02531(15)
H36 H 0.8030 0.7611 1.0488
C37 C 0.6391(5) 0.6960(4) 1.00550(15)
H37 H 0.6515 0.6219 1.0161
O1 O 0.3240(3) 0.7465(3) 0.84947(9)
O2 O 0.3071(3) 0.6584(2) 0.93470(8)
O3 O -0.0552(3) 0.3842(2) 0.93478(8)
O4 O 0.0996(2) 0.4749(2) 0.79227(8)
O5 O 0.4838(3) 0.5321(3) 0.94403(11)
loop_
_geom_bond_atom_site_label_1
_geom_bond_atom_site_label_2
_geom_bond_site_symmetry_1
_geom_bond_site_symmetry_2
Br1 C35 1_555 1_555
C1 C2 1_555 1_555
C2 C3 1_555 1_555
C3 H1 1_555 1_555
C4 C3 1_555 1_555
C5 C4 1_555 1_555
C6 C1 1_555 1_555
C7 C1 1_555 1_555
C8 C7 1_555 1_555
H2 C8 1_555 1_555
C9 C8 1_555 1_555
H3 C9 1_555 1_555
C10 C9 1_555 1_555
C11 C10 1_555 1_555
H4 C11 1_555 1_555
C12 C11 1_555 1_555
H5 C12 1_555 1_555
C13 C12 1_555 1_555
H6 C13 1_555 1_555
C14 C13 1_555 1_555
H7 C14 1_555 1_555
C15 C10 1_555 1_555
H8 C15 1_555 1_555
C16 C5 1_555 1_555
H9 C16 1_555 1_555
C17 C16 1_555 1_555
H10 C17 1_555 1_555
H11 C17 1_555 1_555
C18 C17 1_555 1_555
C19 C18 1_555 1_555
H12 C19 1_555 1_555
H13 C19 1_555 1_555
C20 C19 1_555 1_555
H14 C20 1_555 1_555
H15 C20 1_555 1_555
C21 C16 1_555 1_555
H16 C21 1_555 1_555
C22 C21 1_555 1_555
C23 C22 1_555 1_555
H17 C23 1_555 1_555
H18 C23 1_555 1_555
C24 C23 1_555 1_555
H19 C24 1_555 1_555
H20 C24 1_555 1_555
C25 C24 1_555 1_555
H21 C25 1_555 1_555
C26 C25 1_555 1_555
C27 C26 1_555 1_555
H22 C27 1_555 1_555
H23 C27 1_555 1_555
H24 C27 1_555 1_555
C28 C26 1_555 1_555
H25 C28 1_555 1_555
H26 C28 1_555 1_555
H27 C28 1_555 1_555
C29 C18 1_555 1_555
H28 C29 1_555 1_555
H29 C29 1_555 1_555
H30 C29 1_555 1_555
C30 C22 1_555 1_555
H31 C30 1_555 1_555
H32 C30 1_555 1_555
H33 C30 1_555 1_555
C31 C32 1_555 1_555
C32 C33 1_555 1_555
C33 H34 1_555 1_555
C34 C33 1_555 1_555
H35 C34 1_555 1_555
C35 C34 1_555 1_555
C36 C35 1_555 1_555
H36 C36 1_555 1_555
C37 C32 1_555 1_555
H37 C37 1_555 1_555
O1 C7 1_555 1_555
O2 C2 1_555 1_555
O3 C4 1_555 1_555
O4 C6 1_555 1_555
O5 C31 1_555 1_555
C5 C6 1_555 1_555
C14 C15 1_555 1_555
C18 O3 1_555 1_555
C20 C21 1_555 1_555
C22 O4 1_555 1_555
C31 O2 1_555 1_555
C36 C37 1_555 1_555

#END
