
#######################################################################
#
#                 Cambridge Crystallographic Data Centre
#                                CCDC 
#
#######################################################################
#
# If this CIF has been generated from an entry in the Cambridge 
# Structural Database, then it will include bibliographic, chemical, 
# crystal, experimental, refinement or atomic coordinate data resulting 
# from the CCDC's data processing and validation procedures.
#
#######################################################################

data_EHULAV
_chemical_formula_moiety         'C21 H26 N2 O4'
_chemical_name_systematic        
N,N'-bis(3-ethoxy-2-hydroxybenzylidene)propane-1,3-diamine
_symmetry_cell_setting           triclinic
_symmetry_space_group_name_H-M   'P -1'
_symmetry_Int_Tables_number      2
_space_group_name_Hall           '-P 1'
loop_
_symmetry_equiv_pos_site_id
_symmetry_equiv_pos_as_xyz
1 x,y,z
2 -x,-y,-z
_cell_length_a                   7.0100(12)
_cell_length_b                   7.9490(13)
_cell_length_c                   18.280(3)
_cell_angle_alpha                93.363(4)
_cell_angle_beta                 91.696(4)
_cell_angle_gamma                98.099(4)
_cell_volume                     1005.97
_exptl_crystal_colour            yellow
_exptl_crystal_description       stick
_cell_formula_units_Z            2
loop_
_atom_site_label
_atom_site_type_symbol
_atom_site_fract_x
_atom_site_fract_y
_atom_site_fract_z
O1 O 0.1260(2) 0.0794(3) 0.16681(10)
H1 H 0.1351 0.0276 0.2052
O2 O 0.0482(3) 0.2152(2) 0.04527(10)
O3 O 0.4780(3) 0.2312(2) 0.59527(10)
H2 H 0.4431 0.1801 0.5545
O4 O 0.5497(3) 0.4180(2) 0.71904(10)
N1 N 0.0144(3) -0.0883(3) 0.27528(11)
N2 N 0.3135(3) 0.1851(3) 0.46487(11)
C1 C -0.2090(4) 0.0106(3) 0.19291(14)
C2 C -0.0614(4) 0.0831(3) 0.14940(14)
C3 C -0.1080(4) 0.1560(3) 0.08437(14)
C4 C -0.2979(4) 0.1606(3) 0.06494(15)
H3 H -0.3292 0.2098 0.0208
C5 C -0.4452(4) 0.0941(3) 0.10903(16)
H4 H -0.5757 0.1006 0.0955
C6 C -0.4016(4) 0.0192(3) 0.17211(15)
H5 H -0.5024 -0.0271 0.2018
C7 C 0.0144(4) 0.2690(3) -0.02638(15)
H6 H -0.0632 0.3639 -0.0240
H7 H -0.0565 0.1737 -0.0580
C8 C 0.2078(4) 0.3261(4) -0.05676(16)
H8 H 0.2756 0.4216 -0.0255
H9 H 0.1902 0.3624 -0.1065
H10 H 0.2839 0.2316 -0.0581
C9 C -0.1613(4) -0.0796(3) 0.25659(14)
H11 H -0.2620 -0.1327 0.2847
C10 C 0.0589(4) -0.1803(3) 0.33894(14)
H12 H 0.1711 -0.2400 0.3290
H13 H -0.0524 -0.2669 0.3480
C11 C 0.1042(4) -0.0591(3) 0.40683(14)
H14 H -0.0145 -0.0130 0.4209
H15 H 0.1451 -0.1234 0.4479
C12 C 0.2611(4) 0.0877(3) 0.39522(13)
H16 H 0.3757 0.0433 0.3756
H17 H 0.2146 0.1623 0.3592
C13 C 0.2640(3) 0.3330(3) 0.47418(14)
H18 H 0.2008 0.3780 0.4346
C14 C 0.3006(3) 0.4353(3) 0.54306(14)
C15 C 0.4067(4) 0.3804(3) 0.60075(14)
C16 C 0.4410(4) 0.4814(3) 0.66676(14)
C17 C 0.3622(4) 0.6306(3) 0.67542(16)
H19 H 0.3802 0.6966 0.7208
C18 C 0.2567(4) 0.6845(3) 0.61807(17)
H20 H 0.2043 0.7881 0.6243
C19 C 0.2274(4) 0.5898(3) 0.55249(16)
H21 H 0.1570 0.6292 0.5133
C20 C 0.6039(5) 0.5242(4) 0.78477(16)
H22 H 0.4882 0.5399 0.8127
H23 H 0.6677 0.6375 0.7723
C21 C 0.7393(6) 0.4388(4) 0.8297(2)
H24 H 0.6747 0.3270 0.8420
H25 H 0.7784 0.5090 0.8750
H26 H 0.8535 0.4243 0.8017
loop_
_geom_bond_atom_site_label_1
_geom_bond_atom_site_label_2
_geom_bond_site_symmetry_1
_geom_bond_site_symmetry_2
O1 H1 1_555 1_555
O2 C3 1_555 1_555
O3 H2 1_555 1_555
O4 C16 1_555 1_555
N1 C9 1_555 1_555
N2 C12 1_555 1_555
C1 C2 1_555 1_555
C2 O1 1_555 1_555
C3 C2 1_555 1_555
C4 C3 1_555 1_555
H3 C4 1_555 1_555
C5 C4 1_555 1_555
H4 C5 1_555 1_555
C6 C1 1_555 1_555
H5 C6 1_555 1_555
C7 O2 1_555 1_555
H6 C7 1_555 1_555
H7 C7 1_555 1_555
C8 C7 1_555 1_555
H8 C8 1_555 1_555
H9 C8 1_555 1_555
H10 C8 1_555 1_555
C9 C1 1_555 1_555
H11 C9 1_555 1_555
C10 N1 1_555 1_555
H12 C10 1_555 1_555
H13 C10 1_555 1_555
C11 C10 1_555 1_555
H14 C11 1_555 1_555
H15 C11 1_555 1_555
C12 C11 1_555 1_555
H16 C12 1_555 1_555
H17 C12 1_555 1_555
C13 N2 1_555 1_555
H18 C13 1_555 1_555
C14 C13 1_555 1_555
C15 O3 1_555 1_555
C16 C15 1_555 1_555
C17 C16 1_555 1_555
H19 C17 1_555 1_555
C18 C17 1_555 1_555
H20 C18 1_555 1_555
C19 C14 1_555 1_555
H21 C19 1_555 1_555
C20 O4 1_555 1_555
H22 C20 1_555 1_555
H23 C20 1_555 1_555
C21 C20 1_555 1_555
H24 C21 1_555 1_555
H25 C21 1_555 1_555
H26 C21 1_555 1_555
C5 C6 1_555 1_555
C14 C15 1_555 1_555
C18 C19 1_555 1_555

#END
