
#######################################################################
#
#                 Cambridge Crystallographic Data Centre
#                                CCDC 
#
#######################################################################
#
# If this CIF has been generated from an entry in the Cambridge 
# Structural Database, then it will include bibliographic, chemical, 
# crystal, experimental, refinement or atomic coordinate data resulting 
# from the CCDC's data processing and validation procedures.
#
#######################################################################

data_EHUPAA
_chemical_formula_moiety         'C81 H81 B3 N6,C7 H8'
_chemical_name_systematic        
'6,12,18-trihexyl-5,5,11,11,17,17-hexaphenyl-5H,11H,17H-4b,6,10b,12,16b,18-hexaaza-5,11,17-triboratribenzo[fgh,pqr,za~1~b~1~]trinaphthylene toluene solvate'
_symmetry_cell_setting           monoclinic
_symmetry_space_group_name_H-M   'P 21/n'
_symmetry_Int_Tables_number      14
_space_group_name_Hall           '-P 2yn'
loop_
_symmetry_equiv_pos_site_id
_symmetry_equiv_pos_as_xyz
1 x,y,z
2 1/2-x,1/2+y,1/2-z
3 -x,-y,-z
4 1/2+x,1/2-y,1/2+z
_cell_length_a                   9.8983(7)
_cell_length_b                   28.293(2)
_cell_length_c                   24.5786(19)
_cell_angle_alpha                90
_cell_angle_beta                 96.552(7)
_cell_angle_gamma                90
_cell_volume                     6838.34
_cell_formula_units_Z            4
loop_
_atom_site_label
_atom_site_type_symbol
_atom_site_fract_x
_atom_site_fract_y
_atom_site_fract_z
N1 N 0.1749(4) 0.25125(14) 0.14194(16)
N2 N -0.0667(4) 0.22959(14) 0.10141(16)
N3 N -0.2355(4) 0.08193(14) 0.16720(16)
C1 C -0.0481(4) 0.12244(17) 0.2218(2)
C2 C -0.0626(5) 0.19362(17) 0.1384(2)
C3 C -0.0281(5) 0.08295(17) 0.25660(19)
C4 C -0.2613(5) -0.00939(18) 0.3011(2)
H1 H -0.2708 -0.0281 0.3316
C5 C -0.1826(5) 0.23236(18) 0.0617(2)
C6 C 0.0391(4) 0.19664(17) 0.18555(19)
C7 C -0.1531(5) 0.15557(17) 0.1338(2)
C8 C -0.3558(5) -0.01234(18) 0.2544(2)
H2 H -0.4258 -0.0344 0.2530
C9 C 0.2565(5) 0.22057(18) 0.3385(2)
H3 H 0.2571 0.1982 0.3662
C10 C -0.1376(5) 0.04993(17) 0.2555(2)
N4 N -0.2898(4) 0.10854(14) 0.06795(16)
C11 C -0.1471(5) 0.11894(17) 0.1748(2)
N5 N 0.0921(4) 0.07875(14) 0.28948(16)
N6 N 0.1338(4) 0.16567(14) 0.27426(16)
C12 C 0.2003(4) 0.20857(17) 0.28443(19)
C13 C -0.3330(5) 0.27813(19) -0.0018(2)
H4 H -0.3494 0.3053 -0.0228
C14 C 0.0430(4) 0.16243(17) 0.2272(2)
C15 C -0.1185(5) 0.01911(19) 0.0776(2)
H5 H -0.0733 0.0479 0.0767
C16 C -0.1546(5) 0.02147(17) 0.3013(2)
H6 H -0.0918 0.0237 0.3323
C17 C -0.2110(5) 0.27337(18) 0.0312(2)
H7 H -0.1476 0.2977 0.0331
C18 C 0.2067(4) 0.24223(17) 0.2428(2)
C19 C -0.0309(5) 0.17509(19) 0.3650(2)
H8 H -0.0284 0.1968 0.3368
C20 C -0.3462(5) 0.01681(17) 0.2109(2)
H9 H -0.4120 0.0151 0.1808
C21 C -0.4024(5) 0.20177(19) 0.0232(2)
H10 H -0.4677 0.1780 0.0213
C22 C 0.1193(5) 0.2398(2) -0.0632(2)
H11 H 0.0962 0.2536 -0.0973
C23 C 0.1999(5) 0.01288(19) 0.2440(2)
H12 H 0.1268 0.0169 0.2145
H13 H 0.2762 0.0318 0.2353
C24 C 0.1520(5) 0.03141(17) 0.2979(2)
H14 H 0.0851 0.0099 0.3099
H15 H 0.2287 0.0327 0.3261
C25 C -0.0296(5) 0.3336(2) 0.1436(2)
H16 H -0.0732 0.3117 0.1638
C26 C 0.2576(5) 0.28795(18) 0.2571(2)
H17 H 0.2566 0.3111 0.2301
C27 C 0.0400(5) 0.31747(19) 0.1001(2)
C28 C 0.1430(5) 0.23091(17) 0.1882(2)
C29 C 0.3112(5) 0.11635(17) 0.3391(2)
C30 C -0.2425(5) 0.15043(17) 0.0835(2)
C31 C 0.0836(5) 0.26213(19) -0.0157(2)
H18 H 0.0383 0.2910 -0.0188
C32 C 0.0541(5) 0.13551(17) 0.3668(2)
C33 C -0.2392(5) 0.04936(17) 0.2105(2)
C34 C -0.5771(5) 0.0472(2) 0.0742(2)
H19 H -0.5459 0.0259 0.0496
C35 C -0.3444(5) 0.09798(19) 0.0100(2)
H20 H -0.4277 0.1157 0.0007
H21 H -0.3667 0.0646 0.0068
C36 C 0.1840(5) 0.19884(19) 0.0379(2)
H22 H 0.2056 0.1843 0.0717
C37 C -0.4306(5) 0.24326(19) -0.0040(2)
H23 H -0.5152 0.2480 -0.0238
C38 C -0.6747(5) 0.1109(2) 0.1452(2)
H24 H -0.7068 0.1326 0.1691
C39 C 0.3677(5) 0.11270(19) 0.3939(2)
H25 H 0.3110 0.1165 0.4213
C40 C 0.1149(5) 0.24186(18) 0.0361(2)
C41 C 0.3097(5) 0.26451(18) 0.3504(2)
H26 H 0.3471 0.2715 0.3860
C42 C -0.2738(5) 0.19450(18) 0.0545(2)
C43 C -0.2447(5) 0.11019(19) -0.0309(2)
H27 H -0.1630 0.0913 -0.0232
H28 H -0.2192 0.1432 -0.0270
C44 C -0.0502(5) -0.02177(19) 0.0659(2)
H29 H 0.0389 -0.0201 0.0574
C45 C -0.3142(5) -0.02529(19) 0.0909(2)
H30 H -0.4036 -0.0272 0.0990
C46 C -0.1019(6) -0.1079(2) 0.2205(3)
H31 H -0.1775 -0.1041 0.1927
H32 H -0.1321 -0.1035 0.2559
H33 H -0.0647 -0.1391 0.2182
C47 C 0.5405(5) 0.1020(2) 0.3144(3)
H34 H 0.5979 0.0985 0.2872
C48 C -0.5365(5) 0.10380(19) 0.1455(2)
H35 H -0.4772 0.1213 0.1697
C49 C -0.1151(5) -0.0651(2) 0.0667(2)
H36 H -0.0702 -0.0927 0.0588
C50 C -0.3090(5) 0.10077(19) -0.0901(2)
H37 H -0.2376 0.1003 -0.1140
H38 H -0.3515 0.0698 -0.0917
C51 C 0.3088(5) 0.27272(19) 0.1377(2)
H39 H 0.3109 0.3032 0.1558
H40 H 0.3164 0.2785 0.0993
C52 C -0.0348(6) 0.3809(2) 0.1572(2)
H41 H -0.0816 0.3903 0.1861
C53 C 0.1885(5) 0.1976(2) -0.0590(2)
H42 H 0.2128 0.1830 -0.0903
C54 C -0.1195(5) 0.1828(2) 0.4045(2)
H43 H -0.1750 0.2094 0.4023
C55 C 0.0290(6) 0.4146(2) 0.1281(2)
H44 H 0.0250 0.4465 0.1371
C56 C 0.1043(5) 0.35285(18) 0.0720(2)
H45 H 0.1524 0.3441 0.0432
C57 C 0.2420(6) -0.0385(2) 0.2466(3)
H46 H 0.3151 -0.0422 0.2761
H47 H 0.2779 -0.0466 0.2127
B1 B 0.1521(6) 0.1244(2) 0.3191(2)
C58 C 0.4042(5) 0.11111(19) 0.3003(2)
H48 H 0.3721 0.1139 0.2634
C59 C -0.7155(6) 0.0538(2) 0.0735(2)
H49 H -0.7754 0.0368 0.0489
B2 B 0.0645(5) 0.2612(2) 0.0924(2)
C60 C 0.0436(5) 0.10363(18) 0.4092(2)
H50 H 0.0962 0.0763 0.4109
C61 C 0.5060(5) 0.1035(2) 0.4093(3)
H51 H 0.5393 0.1012 0.4462
C62 C -0.4819(5) 0.07140(17) 0.1108(2)
C63 C -0.1245(5) 0.1510(2) 0.4467(2)
H52 H -0.1824 0.1563 0.4733
C64 C 0.3080(5) 0.29871(18) 0.3097(2)
H53 H 0.3412 0.3289 0.3183
C65 C -0.2472(5) -0.06684(19) 0.0794(2)
H54 H -0.2916 -0.0957 0.0803
C66 C -0.4779(5) 0.1299(2) -0.1699(2)
H55 H -0.4060 0.1255 -0.1931
H56 H -0.5321 0.1013 -0.1717
C67 C -0.0435(5) 0.1114(2) 0.4494(2)
H57 H -0.0465 0.0898 0.4777
C68 C 0.0982(5) 0.40021(19) 0.0858(3)
H58 H 0.1417 0.4225 0.0661
C69 C -0.4142(5) 0.13736(19) -0.1110(2)
H59 H -0.3718 0.1683 -0.1083
H60 H -0.4861 0.1373 -0.0872
C70 C 0.1294(6) -0.0736(2) 0.2556(2)
H61 H 0.0992 -0.0676 0.2912
H62 H 0.1669 -0.1053 0.2564
C71 C -0.7659(5) 0.0853(2) 0.1090(3)
H63 H -0.8592 0.0895 0.1088
C72 C -0.2524(5) 0.01912(19) 0.0909(2)
C73 C 0.2220(5) 0.1768(2) -0.0084(2)
H64 H 0.2693 0.1483 -0.0055
C74 C -0.5671(6) 0.1709(2) -0.1918(2)
H65 H -0.6051 0.1642 -0.2287
H66 H -0.5133 0.1992 -0.1913
H67 H -0.6392 0.1753 -0.1692
C75 C 0.0063(6) -0.0715(2) 0.2121(3)
H68 H -0.0337 -0.0402 0.2123
H69 H 0.0366 -0.0764 0.1763
C76 C 0.5925(5) 0.0979(2) 0.3696(3)
H70 H 0.6842 0.0916 0.3794
B3 B -0.3175(6) 0.0685(2) 0.1089(2)
C77 C 0.6787(11) 0.2113(4) 0.2407(5)
H71 H 0.6187 0.1863 0.2256
H72 H 0.7690 0.1981 0.2491
C78 C 0.5530(11) 0.2769(5) 0.1793(6)
H73 H 0.5692 0.2976 0.1493
H74 H 0.5306 0.2966 0.2092
C79 C 0.6829(10) 0.2507(4) 0.1977(4)
H75 H 0.7501 0.2737 0.2122
H76 H 0.7154 0.2368 0.1655
C80 C 0.6302(10) 0.2293(4) 0.2921(5)
H77 H 0.5404 0.2421 0.2840
H78 H 0.6908 0.2535 0.3076
H79 H 0.6283 0.2038 0.3178
C81 C 0.4304(12) 0.2459(4) 0.1607(6)
H80 H 0.4551 0.2239 0.1332
H81 H 0.4075 0.2276 0.1917
C87 C 0.8776(6) -0.1183(2) 0.4167(2)
H95 H 0.8591 -0.1501 0.4097
C88 C 0.9941(6) -0.0991(2) 0.4009(2)
H96 H 1.0542 -0.1173 0.3833
C89 C 0.8126(6) -0.0439(2) 0.4532(2)
C90 C 0.7868(6) -0.0917(2) 0.4428(2)
H97 H 0.7088 -0.1057 0.4534
C91 C 1.0198(6) -0.0518(2) 0.4117(2)
H98 H 1.0986 -0.0380 0.4017
C92 C 0.9299(6) -0.0250(2) 0.4371(2)
H99 H 0.9487 0.0068 0.4437
C93 C 0.7132(6) -0.0139(2) 0.4808(3)
H100 H 0.6474 -0.0004 0.4534
H101 H 0.7617 0.0110 0.5012
H102 H 0.6677 -0.0332 0.5051
H82? H 0.3253 0.2981 0.1642
H83? H 0.3116 0.2858 0.1014
C82? C 0.5658(14) 0.2540(5) 0.1526(6)
H84? H 0.5701 0.2741 0.1208
H85? H 0.6324 0.2290 0.1511
C83? C 0.6041(15) 0.2839(6) 0.2056(7)
H86? H 0.6903 0.2995 0.2028
H87? H 0.5359 0.3083 0.2074
C84? C 0.6151(13) 0.2559(5) 0.2577(6)
H88? H 0.5259 0.2432 0.2620
H89? H 0.6390 0.2775 0.2879
C85? C 0.716(2) 0.2151(8) 0.2632(10)
H90? H 0.6923 0.1925 0.2346
H91? H 0.7147 0.2002 0.2982
H92? H 0.8062 0.2270 0.2603
C86? C 0.4243(19) 0.2320(6) 0.1496(8)
H93? H 0.4135 0.2163 0.1840
H94? H 0.4136 0.2085 0.1207
loop_
_geom_bond_atom_site_label_1
_geom_bond_atom_site_label_2
_geom_bond_site_symmetry_1
_geom_bond_site_symmetry_2
N1 C28 1_555 1_555
N2 C2 1_555 1_555
N3 C11 1_555 1_555
C1 C3 1_555 1_555
C2 C6 1_555 1_555
C3 C10 1_555 1_555
C4 H1 1_555 1_555
C5 N2 1_555 1_555
C6 C14 1_555 1_555
C7 C2 1_555 1_555
C8 C4 1_555 1_555
H2 C8 1_555 1_555
C9 H3 1_555 1_555
C10 C16 1_555 1_555
N4 C30 1_555 1_555
C11 C1 1_555 1_555
N5 C3 1_555 1_555
N6 C12 1_555 1_555
C12 C9 1_555 1_555
C13 H4 1_555 1_555
C14 C1 1_555 1_555
C15 H5 1_555 1_555
C16 C4 1_555 1_555
H6 C16 1_555 1_555
C17 C5 1_555 1_555
H7 C17 1_555 1_555
C18 C12 1_555 1_555
C19 H8 1_555 1_555
C20 C8 1_555 1_555
H9 C20 1_555 1_555
C21 H10 1_555 1_555
C22 H11 1_555 1_555
C23 H12 1_555 1_555
H13 C23 1_555 1_555
C24 N5 1_555 1_555
H14 C24 1_555 1_555
H15 C24 1_555 1_555
C25 H16 1_555 1_555
C26 C18 1_555 1_555
H17 C26 1_555 1_555
C27 C25 1_555 1_555
C28 C6 1_555 1_555
C29 C39 1_555 1_555
C30 C7 1_555 1_555
C31 C22 1_555 1_555
H18 C31 1_555 1_555
C32 C19 1_555 1_555
C33 N3 1_555 1_555
C34 H19 1_555 1_555
C35 N4 1_555 1_555
H20 C35 1_555 1_555
H21 C35 1_555 1_555
C36 H22 1_555 1_555
C37 C13 1_555 1_555
H23 C37 1_555 1_555
C38 H24 1_555 1_555
C39 H25 1_555 1_555
C40 C31 1_555 1_555
C41 C9 1_555 1_555
H26 C41 1_555 1_555
C42 C5 1_555 1_555
C43 C35 1_555 1_555
H27 C43 1_555 1_555
H28 C43 1_555 1_555
C44 C15 1_555 1_555
H29 C44 1_555 1_555
C45 H30 1_555 1_555
C46 H31 1_555 1_555
H32 C46 1_555 1_555
H33 C46 1_555 1_555
C47 H34 1_555 1_555
C48 C38 1_555 1_555
H35 C48 1_555 1_555
C49 C44 1_555 1_555
H36 C49 1_555 1_555
C50 C43 1_555 1_555
H37 C50 1_555 1_555
H38 C50 1_555 1_555
C51 N1 1_555 1_555
H39 C51 1_555 1_555
H40 C51 1_555 1_555
C52 C25 1_555 1_555
H41 C52 1_555 1_555
C53 C22 1_555 1_555
H42 C53 1_555 1_555
C54 C19 1_555 1_555
H43 C54 1_555 1_555
C55 C52 1_555 1_555
H44 C55 1_555 1_555
C56 C27 1_555 1_555
H45 C56 1_555 1_555
C57 C23 1_555 1_555
H46 C57 1_555 1_555
H47 C57 1_555 1_555
B1 N5 1_555 1_555
C58 C29 1_555 1_555
H48 C58 1_555 1_555
C59 C34 1_555 1_555
H49 C59 1_555 1_555
B2 N1 1_555 1_555
C60 C32 1_555 1_555
H50 C60 1_555 1_555
C61 C39 1_555 1_555
H51 C61 1_555 1_555
C62 C34 1_555 1_555
C63 C54 1_555 1_555
H52 C63 1_555 1_555
C64 C26 1_555 1_555
H53 C64 1_555 1_555
C65 C45 1_555 1_555
H54 C65 1_555 1_555
C66 H55 1_555 1_555
H56 C66 1_555 1_555
C67 C60 1_555 1_555
H57 C67 1_555 1_555
C68 C55 1_555 1_555
H58 C68 1_555 1_555
C69 C50 1_555 1_555
H59 C69 1_555 1_555
H60 C69 1_555 1_555
C70 C57 1_555 1_555
H61 C70 1_555 1_555
H62 C70 1_555 1_555
C71 C38 1_555 1_555
H63 C71 1_555 1_555
C72 C15 1_555 1_555
C73 C36 1_555 1_555
H64 C73 1_555 1_555
C74 C66 1_555 1_555
H65 C74 1_555 1_555
H66 C74 1_555 1_555
H67 C74 1_555 1_555
C75 C46 1_555 1_555
H68 C75 1_555 1_555
H69 C75 1_555 1_555
C76 C47 1_555 1_555
H70 C76 1_555 1_555
B3 N3 1_555 1_555
C77 H71 1_555 1_555
H72 C77 1_555 1_555
C78 H73 1_555 1_555
H74 C78 1_555 1_555
C79 C77 1_555 1_555
H75 C79 1_555 1_555
H76 C79 1_555 1_555
C80 C77 1_555 1_555
H77 C80 1_555 1_555
H78 C80 1_555 1_555
H79 C80 1_555 1_555
C81 C51 1_555 1_555
H80 C81 1_555 1_555
H81 C81 1_555 1_555
C87 H95 1_555 1_555
C88 C87 1_555 1_555
H96 C88 1_555 1_555
C89 C90 1_555 1_555
C90 C87 1_555 1_555
H97 C90 1_555 1_555
C91 C88 1_555 1_555
H98 C91 1_555 1_555
C92 C89 1_555 1_555
H99 C92 1_555 1_555
C93 C89 1_555 1_555
H100 C93 1_555 1_555
H101 C93 1_555 1_555
H102 C93 1_555 1_555
N2 B2 1_555 1_555
C7 C11 1_555 1_555
C10 C33 1_555 1_555
N4 B3 1_555 1_555
N6 C14 1_555 1_555
N6 B1 1_555 1_555
C13 C17 1_555 1_555
C18 C28 1_555 1_555
C20 C33 1_555 1_555
C21 C37 1_555 1_555
C21 C42 1_555 1_555
C23 C24 1_555 1_555
C27 B2 1_555 1_555
C29 B1 1_555 1_555
C30 C42 1_555 1_555
C32 B1 1_555 1_555
C36 C40 1_555 1_555
C40 B2 1_555 1_555
C41 C64 1_555 1_555
C45 C72 1_555 1_555
C47 C58 1_555 1_555
C48 C62 1_555 1_555
C49 C65 1_555 1_555
C53 C73 1_555 1_555
C56 C68 1_555 1_555
C59 C71 1_555 1_555
C61 C76 1_555 1_555
C62 B3 1_555 1_555
C63 C67 1_555 1_555
C66 C69 1_555 1_555
C70 C75 1_555 1_555
C72 B3 1_555 1_555
C78 C79 1_555 1_555
C78 C81 1_555 1_555
C91 C92 1_555 1_555

#END
