
#######################################################################
#
#                 Cambridge Crystallographic Data Centre
#                                CCDC 
#
#######################################################################
#
# If this CIF has been generated from an entry in the Cambridge 
# Structural Database, then it will include bibliographic, chemical, 
# crystal, experimental, refinement or atomic coordinate data resulting 
# from the CCDC's data processing and validation procedures.
#
#######################################################################

data_EHUTIM
_chemical_formula_moiety         'C14 H9 Cl1 N4 O7'
_chemical_name_systematic        
'ethyl 7-chloro-1-methyl-6,8-dinitro-2-oxo-1,2-dihydropyrrolo[4,3,2-de]quinoline-4-carboxylate'
_symmetry_cell_setting           monoclinic
_symmetry_space_group_name_H-M   'P 21/n'
_symmetry_Int_Tables_number      14
_space_group_name_Hall           '-P 2yn'
loop_
_symmetry_equiv_pos_site_id
_symmetry_equiv_pos_as_xyz
1 x,y,z
2 1/2-x,1/2+y,1/2-z
3 -x,-y,-z
4 1/2+x,1/2-y,1/2+z
_cell_length_a                   8.8587(18)
_cell_length_b                   18.447(4)
_cell_length_c                   9.759(2)
_cell_angle_alpha                90
_cell_angle_beta                 110.87(3)
_cell_angle_gamma                90
_cell_volume                     1490.15
_exptl_crystal_description       prism
_cell_formula_units_Z            4
loop_
_atom_site_label
_atom_site_type_symbol
_atom_site_fract_x
_atom_site_fract_y
_atom_site_fract_z
Cl1 Cl 0.28224(4) 1.028553(19) 0.12901(4)
O1 O 0.81915(12) 0.78969(6) 0.71837(11)
O2 O 0.72894(14) 1.03473(6) 0.39061(12)
O3 O 0.62526(13) 0.99981(6) 0.16308(11)
O4 O -0.00546(14) 0.96317(7) 0.25595(13)
O5 O 0.01065(13) 0.89165(6) 0.08667(11)
O6 O 0.00579(12) 0.71355(5) 0.47563(11)
O7 O 0.20329(13) 0.67755(6) 0.68241(11)
N1 N 0.72864(14) 0.87553(6) 0.53226(12)
N2 N 0.63486(15) 0.99860(6) 0.29109(13)
N3 N 0.06959(14) 0.92465(6) 0.20167(12)
N4 N 0.19385(14) 0.81416(6) 0.42560(12)
C1 C 0.88777(17) 0.89306(8) 0.52691(16)
H1 H 0.8898 0.8810 0.4298
H2 H 0.9708 0.8650 0.6018
H3 H 0.9091 0.9449 0.5456
C2 C 0.70933(17) 0.82027(7) 0.62487(15)
C3 C 0.53049(16) 0.80842(7) 0.57900(14)
C4 C 0.43049(17) 0.76402(7) 0.62087(15)
H4 H 0.4709 0.7322 0.7024
C5 C 0.26301(16) 0.76824(7) 0.53564(14)
C6 C 0.29486(16) 0.86032(7) 0.39114(14)
C7 C 0.24369(16) 0.91524(7) 0.28223(14)
C8 C 0.35312(17) 0.95949(7) 0.25359(15)
C9 C 0.52405(17) 0.95083(7) 0.32985(14)
C10 C 0.57928(16) 0.89899(7) 0.43700(14)
C11 C 0.45972(16) 0.85614(7) 0.46395(14)
C12 C 0.15436(17) 0.71478(7) 0.57376(15)
C13 C -0.10307(18) 0.66215(8) 0.50779(16)
H5 H -0.1149 0.6746 0.6022
H6 H -0.0593 0.6123 0.5150
C14 C -0.26374(18) 0.66679(9) 0.38494(16)
H7 H -0.3052 0.7164 0.3781
H8 H -0.3399 0.6334 0.4041
H9 H -0.2509 0.6536 0.2924
loop_
_geom_bond_atom_site_label_1
_geom_bond_atom_site_label_2
_geom_bond_site_symmetry_1
_geom_bond_site_symmetry_2
Cl1 C8 1_555 1_555
O1 C2 1_555 1_555
O2 N2 1_555 1_555
O3 N2 1_555 1_555
O4 N3 1_555 1_555
O5 N3 1_555 1_555
O6 C12 1_555 1_555
O7 C12 1_555 1_555
N1 C1 1_555 1_555
N2 C9 1_555 1_555
N3 C7 1_555 1_555
N4 C5 1_555 1_555
C1 H1 1_555 1_555
H2 C1 1_555 1_555
H3 C1 1_555 1_555
C2 N1 1_555 1_555
C3 C2 1_555 1_555
C4 C3 1_555 1_555
H4 C4 1_555 1_555
C5 C4 1_555 1_555
C6 N4 1_555 1_555
C7 C6 1_555 1_555
C8 C7 1_555 1_555
C9 C8 1_555 1_555
C10 N1 1_555 1_555
C11 C3 1_555 1_555
C12 C5 1_555 1_555
C13 O6 1_555 1_555
H5 C13 1_555 1_555
H6 C13 1_555 1_555
C14 C13 1_555 1_555
H7 C14 1_555 1_555
H8 C14 1_555 1_555
H9 C14 1_555 1_555
C6 C11 1_555 1_555
C9 C10 1_555 1_555
C10 C11 1_555 1_555

#END
