
#######################################################################
#
#                 Cambridge Crystallographic Data Centre
#                                CCDC 
#
#######################################################################
#
# If this CIF has been generated from an entry in the Cambridge 
# Structural Database, then it will include bibliographic, chemical, 
# crystal, experimental, refinement or atomic coordinate data resulting 
# from the CCDC's data processing and validation procedures.
#
#######################################################################

data_EJABOH
_chemical_formula_moiety         'C36 H44 O16'
_chemical_name_systematic        
'8-(Acetoxy(3-furyl)methyl)-5-ethyl-1,11,20-trihydroxy-8,18-dimethyl-15-oxo-4,14,22-trioxaheptacyclo[16.2.1.1^2,5^.0^3,7^.0^3,11^.0^12,17^.0^12,20^]docosane-9,10,21-triyl triacetate'
_symmetry_cell_setting           orthorhombic
_symmetry_space_group_name_H-M   'P 21 21 21'
_symmetry_Int_Tables_number      19
_space_group_name_Hall           'P 2ac 2ab'
loop_
_symmetry_equiv_pos_site_id
_symmetry_equiv_pos_as_xyz
1 x,y,z
2 1/2-x,-y,1/2+z
3 -x,1/2+y,1/2-z
4 1/2+x,1/2-y,-z
_cell_length_a                   10.4375(14)
_cell_length_b                   16.4155(18)
_cell_length_c                   20.288(2)
_cell_angle_alpha                90
_cell_angle_beta                 90
_cell_angle_gamma                90
_cell_volume                     3476.08
_cell_formula_units_Z            4
loop_
_atom_site_label
_atom_site_type_symbol
_atom_site_fract_x
_atom_site_fract_y
_atom_site_fract_z
O1 O 1.1620(4) 0.4149(2) 0.17947(18)
O2 O 1.3259(5) 0.4740(3) 0.2315(3)
O3 O 1.2300(3) 0.5160(2) 0.07592(17)
O4 O 1.2434(4) 0.6419(2) 0.1191(2)
O5 O 1.0841(3) 0.37380(19) 0.05464(18)
H1 H 1.1180 0.3686 0.0908
O6 O 0.8279(4) 0.3719(2) 0.05508(19)
O7 O 0.6748(4) 0.4654(2) 0.0672(2)
O8 O 1.1064(5) 0.7122(3) 0.3050(2)
O9 O 0.7736(4) 0.5633(2) 0.22495(18)
O10 O 0.7275(4) 0.6799(3) 0.1731(2)
O11 O 0.8307(4) 0.4103(2) -0.0764(2)
H2 H 0.8169 0.3823 -0.0437
O12 O 0.6784(4) 0.5497(2) -0.03918(19)
H3 H 0.6350 0.5092 -0.0313
O13 O 0.9214(3) 0.66017(19) 0.03468(16)
O14 O 0.8050(5) 0.7737(3) 0.0194(2)
O15 O 1.2318(4) 0.4157(2) -0.0564(2)
O16 O 1.4038(4) 0.4930(3) -0.0654(2)
C1 C 0.9615(5) 0.4831(3) 0.2002(3)
C2 C 1.0964(5) 0.4918(3) 0.1701(3)
H4 H 1.1430 0.5345 0.1939
C3 C 1.0967(5) 0.5124(3) 0.0956(2)
H5 H 1.0586 0.5665 0.0896
C4 C 1.0275(5) 0.4521(3) 0.0500(3)
C5 C 0.8942(5) 0.4446(3) 0.0791(3)
C6 C 0.8920(5) 0.4247(3) 0.1533(3)
H6 H 0.9423 0.3745 0.1564
C7 C 0.9674(6) 0.4436(3) 0.2685(3)
H7 H 0.8841 0.4455 0.2885
H8 H 1.0275 0.4727 0.2955
H9 H 0.9943 0.3880 0.2642
C8 C 1.2745(6) 0.4140(4) 0.2109(3)
C9 C 1.3209(7) 0.3283(4) 0.2184(4)
H10 H 1.4097 0.3287 0.2306
H11 H 1.3107 0.2999 0.1773
H12 H 1.2720 0.3014 0.2520
C10 C 1.2958(5) 0.5850(3) 0.0935(3)
C11 C 1.4328(5) 0.5786(4) 0.0769(3)
H13 H 1.4777 0.6249 0.0942
H14 H 1.4426 0.5770 0.0298
H15 H 1.4674 0.5296 0.0957
C12 C 0.9077(6) 0.5712(3) 0.2066(3)
H16 H 0.9131 0.5981 0.1636
C13 C 1.0752(7) 0.6720(4) 0.2486(3)
H17 H 1.1196 0.6771 0.2091
C14 C 0.9714(6) 0.6237(3) 0.2571(3)
C15 C 0.9352(7) 0.6360(4) 0.3247(3)
H18 H 0.8669 0.6114 0.3464
C16 C 1.0162(7) 0.6886(4) 0.3503(3)
H19 H 1.0128 0.7074 0.3936
C17 C 0.6952(6) 0.6256(4) 0.2101(3)
C18 C 0.5687(5) 0.6183(4) 0.2422(3)
H20 H 0.5134 0.6608 0.2266
H21 H 0.5787 0.6230 0.2891
H22 H 0.5318 0.5663 0.2318
C19 C 0.7520(5) 0.3952(4) 0.1626(3)
H23 H 0.7482 0.3437 0.1859
H24 H 0.7004 0.4353 0.1856
C20 C 0.7112(6) 0.3863(3) 0.0914(3)
C21 C 0.6100(7) 0.3236(4) 0.0790(4)
H25 H 0.6445 0.2706 0.0904
H26 H 0.5387 0.3342 0.1084
C22 C 0.5629(11) 0.3198(6) 0.0142(5)
H27 H 0.5237 0.3708 0.0029
H28 H 0.5005 0.2770 0.0110
H29 H 0.6323 0.3089 -0.0156
C23 C 0.7946(5) 0.5098(3) 0.0598(3)
H30 H 0.7979 0.5561 0.0903
C24 C 0.8037(5) 0.5391(3) -0.0124(3)
C25 C 0.8674(5) 0.6240(3) -0.0240(3)
H31 H 0.8029 0.6612 -0.0421
C26 C 0.9718(5) 0.6097(3) -0.0769(3)
C27 C 1.0838(5) 0.5642(3) -0.0436(3)
H32 H 1.1087 0.5922 -0.0029
C28 C 1.0244(5) 0.4772(3) -0.0268(3)
C29 C 0.8872(5) 0.4852(3) -0.0570(3)
C30 C 0.9071(6) 0.5421(3) -0.1164(3)
H33 H 0.9629 0.5189 -0.1497
H34 H 0.8270 0.5594 -0.1362
C31 C 0.8910(6) 0.7398(3) 0.0469(3)
C32 C 0.9763(6) 0.7753(3) 0.0978(3)
H35 H 0.9793 0.8334 0.0925
H36 H 1.0610 0.7532 0.0930
H37 H 0.9439 0.7623 0.1408
C33 C 1.0074(6) 0.6880(4) -0.1115(3)
H38 H 1.0419 0.7259 -0.0801
H39 H 0.9326 0.7111 -0.1317
H40 H 1.0705 0.6769 -0.1448
C34 C 1.0950(5) 0.4138(3) -0.0669(3)
H41 H 1.0629 0.3602 -0.0554
H42 H 1.0775 0.4227 -0.1133
C35 C 1.2878(6) 0.4879(4) -0.0697(3)
C36 C 1.2003(6) 0.5551(3) -0.0890(3)
H43 H 1.1705 0.5455 -0.1336
H44 H 1.2479 0.6058 -0.0890
C37? C 0.471(2) 0.3368(15) 0.0715(13)
H45? H 0.6353 0.2985 0.0377
H46? H 0.6210 0.2820 0.1125
H47? H 0.4559 0.3843 0.0449
H48? H 0.4325 0.3444 0.1141
H49? H 0.4327 0.2902 0.0505
loop_
_geom_bond_atom_site_label_1
_geom_bond_atom_site_label_2
_geom_bond_site_symmetry_1
_geom_bond_site_symmetry_2
O1 C2 1_555 1_555
O2 C8 1_555 1_555
O3 C3 1_555 1_555
O4 C10 1_555 1_555
O5 H1 1_555 1_555
O6 C5 1_555 1_555
O7 C20 1_555 1_555
O8 C13 1_555 1_555
O9 C12 1_555 1_555
O10 C17 1_555 1_555
O11 H2 1_555 1_555
O12 H3 1_555 1_555
O13 C25 1_555 1_555
O14 C31 1_555 1_555
O15 C34 1_555 1_555
O16 C35 1_555 1_555
C1 C2 1_555 1_555
C2 H4 1_555 1_555
C3 C2 1_555 1_555
H5 C3 1_555 1_555
C4 O5 1_555 1_555
C5 C4 1_555 1_555
C6 C1 1_555 1_555
H6 C6 1_555 1_555
C7 C1 1_555 1_555
H7 C7 1_555 1_555
H8 C7 1_555 1_555
H9 C7 1_555 1_555
C8 O1 1_555 1_555
C9 C8 1_555 1_555
H10 C9 1_555 1_555
H11 C9 1_555 1_555
H12 C9 1_555 1_555
C10 O3 1_555 1_555
C11 C10 1_555 1_555
H13 C11 1_555 1_555
H14 C11 1_555 1_555
H15 C11 1_555 1_555
C12 C1 1_555 1_555
H16 C12 1_555 1_555
C13 H17 1_555 1_555
C14 C12 1_555 1_555
C15 C14 1_555 1_555
H18 C15 1_555 1_555
C16 O8 1_555 1_555
H19 C16 1_555 1_555
C17 O9 1_555 1_555
C18 C17 1_555 1_555
H20 C18 1_555 1_555
H21 C18 1_555 1_555
H22 C18 1_555 1_555
C19 C6 1_555 1_555
H23 C19 1_555 1_555
H24 C19 1_555 1_555
C20 O6 1_555 1_555
C21 C20 1_555 1_555
H25 C21 1_555 1_555
H26 C21 1_555 1_555
C22 C21 1_555 1_555
H27 C22 1_555 1_555
H28 C22 1_555 1_555
H29 C22 1_555 1_555
C23 O7 1_555 1_555
H30 C23 1_555 1_555
C24 O12 1_555 1_555
C25 C24 1_555 1_555
H31 C25 1_555 1_555
C26 C25 1_555 1_555
C27 C26 1_555 1_555
H32 C27 1_555 1_555
C28 C4 1_555 1_555
C29 O11 1_555 1_555
C30 C26 1_555 1_555
H33 C30 1_555 1_555
H34 C30 1_555 1_555
C31 O13 1_555 1_555
C32 C31 1_555 1_555
H35 C32 1_555 1_555
H36 C32 1_555 1_555
H37 C32 1_555 1_555
C33 C26 1_555 1_555
H38 C33 1_555 1_555
H39 C33 1_555 1_555
H40 C33 1_555 1_555
C34 C28 1_555 1_555
H41 C34 1_555 1_555
H42 C34 1_555 1_555
C35 O15 1_555 1_555
C36 C27 1_555 1_555
H43 C36 1_555 1_555
H44 C36 1_555 1_555
C3 C4 1_555 1_555
C5 C6 1_555 1_555
C5 C23 1_555 1_555
C13 C14 1_555 1_555
C15 C16 1_555 1_555
C19 C20 1_555 1_555
C23 C24 1_555 1_555
C24 C29 1_555 1_555
C27 C28 1_555 1_555
C28 C29 1_555 1_555
C29 C30 1_555 1_555
C35 C36 1_555 1_555

#END
