
#######################################################################
#
#                 Cambridge Crystallographic Data Centre
#                                CCDC 
#
#######################################################################
#
# If this CIF has been generated from an entry in the Cambridge 
# Structural Database, then it will include bibliographic, chemical, 
# crystal, experimental, refinement or atomic coordinate data resulting 
# from the CCDC's data processing and validation procedures.
#
#######################################################################

data_EJACOJ
_chemical_formula_moiety         'C26 H25 Br1 N2 O5'
_chemical_name_systematic        
'ethyl 11-(4-bromophenyl)-2,4-dimethyl-1,3,5-trioxo-7-phenyl-2,4-diazaspiro[5.5]undec-8-ene-8-carboxylate'
_symmetry_cell_setting           orthorhombic
_symmetry_space_group_name_H-M   'P 21 21 21'
_symmetry_Int_Tables_number      19
_space_group_name_Hall           'P 2ac 2ab'
loop_
_symmetry_equiv_pos_site_id
_symmetry_equiv_pos_as_xyz
1 x,y,z
2 1/2-x,-y,1/2+z
3 -x,1/2+y,1/2-z
4 1/2+x,1/2-y,-z
_cell_length_a                   8.792(2)
_cell_length_b                   11.585(3)
_cell_length_c                   24.159(6)
_cell_angle_alpha                90
_cell_angle_beta                 90
_cell_angle_gamma                90
_cell_volume                     2460.72
_exptl_crystal_colour            colorless
_exptl_crystal_description       block
_cell_formula_units_Z            4
loop_
_atom_site_label
_atom_site_type_symbol
_atom_site_fract_x
_atom_site_fract_y
_atom_site_fract_z
Br1 Br 0.19168(6) 0.91604(4) 0.40590(3)
O1 O 0.8588(4) 0.6189(3) 0.32212(13)
O2 O 0.6612(3) 0.4046(2) 0.46054(9)
O3 O 0.4606(3) 0.3930(3) 0.27877(10)
O4 O 0.5652(4) -0.0020(3) 0.45852(13)
O5 O 0.5841(4) 0.0112(3) 0.36587(12)
N1 N 0.6494(4) 0.5143(3) 0.30201(13)
N2 N 0.7588(4) 0.5131(3) 0.39217(12)
C1 C 0.5772(4) 0.2473(3) 0.36657(14)
H1 H 0.5277 0.2216 0.3324
C2 C 0.5427(4) 0.3804(3) 0.37248(14)
C3 C 0.3769(4) 0.3999(3) 0.39429(14)
H2 H 0.3085 0.3657 0.3668
C4 C 0.3474(5) 0.3367(3) 0.44879(16)
H3 H 0.3946 0.3794 0.4787
H4 H 0.2388 0.3348 0.4557
C5 C 0.4070(5) 0.2166(4) 0.44893(16)
H5 H 0.3706 0.1662 0.4758
C6 C 0.5097(4) 0.1767(3) 0.41289(15)
C7 C 0.7468(4) 0.2289(3) 0.35865(15)
C8 C 0.8125(5) 0.2343(4) 0.30670(16)
H6 H 0.7519 0.2479 0.2758
C9 C 0.9695(6) 0.2196(4) 0.3002(2)
H7 H 1.0129 0.2240 0.2652
C10 C 1.0598(5) 0.1986(4) 0.3459(2)
H8 H 1.1641 0.1888 0.3415
C11 C 0.9962(5) 0.1920(4) 0.39784(19)
H9 H 1.0569 0.1775 0.4286
C12 C 0.8404(4) 0.2073(3) 0.40391(16)
H10 H 0.7976 0.2029 0.4391
C13 C 0.6569(4) 0.4330(3) 0.41197(14)
C14 C 0.7629(5) 0.5526(4) 0.33770(16)
C15 C 0.5465(4) 0.4291(3) 0.31392(14)
C16 C 0.8744(6) 0.5573(5) 0.43017(18)
H11 H 0.8320 0.5637 0.4666
H12 H 0.9079 0.6319 0.4179
H13 H 0.9594 0.5052 0.4309
C17 C 0.6518(7) 0.5633(5) 0.24562(18)
H14 H 0.6717 0.6447 0.2477
H15 H 0.5551 0.5507 0.2282
H16 H 0.7302 0.5265 0.2243
C18 C 0.3372(4) 0.5277(3) 0.39728(15)
C19 C 0.3866(5) 0.5985(4) 0.43993(18)
H17 H 0.4480 0.5678 0.4676
C20 C 0.3460(6) 0.7146(4) 0.4421(2)
H18 H 0.3794 0.7611 0.4710
C21 C 0.2558(5) 0.7593(4) 0.40102(19)
C22 C 0.2066(5) 0.6924(4) 0.35804(18)
H19 H 0.1461 0.7239 0.3303
C23 C 0.2478(4) 0.5770(4) 0.35620(16)
H20 H 0.2148 0.5315 0.3268
C24 C 0.5554(5) 0.0529(3) 0.41626(16)
C25 C 0.6475(8) -0.1030(4) 0.3614(2)
H21 H 0.5760 -0.1545 0.3434
H22 H 0.6710 -0.1335 0.3977
C26 C 0.7961(10) -0.0910(8) 0.3259(5)
H23 H 0.7697 -0.0703 0.2886
H24 H 0.8496 -0.1633 0.3258
H25 H 0.8598 -0.0322 0.3416
H26? H 0.6280 -0.1330 0.3246
H27? H 0.5979 -0.1535 0.3878
C27? C 0.8115(14) -0.1028(15) 0.3717(8)
H28? H 0.8591 -0.0451 0.3490
H29? H 0.8527 -0.1773 0.3628
H30? H 0.8302 -0.0860 0.4100
loop_
_geom_bond_atom_site_label_1
_geom_bond_atom_site_label_2
_geom_bond_site_symmetry_1
_geom_bond_site_symmetry_2
Br1 C21 1_555 1_555
O1 C14 1_555 1_555
O2 C13 1_555 1_555
O3 C15 1_555 1_555
O4 C24 1_555 1_555
O5 C24 1_555 1_555
N1 C14 1_555 1_555
N2 C13 1_555 1_555
C1 H1 1_555 1_555
C2 C1 1_555 1_555
C3 C2 1_555 1_555
H2 C3 1_555 1_555
C4 C3 1_555 1_555
H3 C4 1_555 1_555
H4 C4 1_555 1_555
C5 C4 1_555 1_555
H5 C5 1_555 1_555
C6 C1 1_555 1_555
C7 C1 1_555 1_555
C8 C7 1_555 1_555
H6 C8 1_555 1_555
C9 C8 1_555 1_555
H7 C9 1_555 1_555
C10 C9 1_555 1_555
H8 C10 1_555 1_555
C11 C10 1_555 1_555
H9 C11 1_555 1_555
C12 C7 1_555 1_555
H10 C12 1_555 1_555
C13 C2 1_555 1_555
C14 N2 1_555 1_555
C15 N1 1_555 1_555
C16 N2 1_555 1_555
H11 C16 1_555 1_555
H12 C16 1_555 1_555
H13 C16 1_555 1_555
C17 N1 1_555 1_555
H14 C17 1_555 1_555
H15 C17 1_555 1_555
H16 C17 1_555 1_555
C18 C3 1_555 1_555
C19 C18 1_555 1_555
H17 C19 1_555 1_555
C20 C19 1_555 1_555
H18 C20 1_555 1_555
C21 C20 1_555 1_555
C22 C21 1_555 1_555
H19 C22 1_555 1_555
C23 C18 1_555 1_555
H20 C23 1_555 1_555
C24 C6 1_555 1_555
C25 O5 1_555 1_555
H21 C25 1_555 1_555
H22 C25 1_555 1_555
C26 C25 1_555 1_555
H23 C26 1_555 1_555
H24 C26 1_555 1_555
H25 C26 1_555 1_555
C2 C15 1_555 1_555
C5 C6 1_555 1_555
C11 C12 1_555 1_555
C22 C23 1_555 1_555

#END
