
#######################################################################
#
#                 Cambridge Crystallographic Data Centre
#                                CCDC 
#
#######################################################################
#
# If this CIF has been generated from an entry in the Cambridge 
# Structural Database, then it will include bibliographic, chemical, 
# crystal, experimental, refinement or atomic coordinate data resulting 
# from the CCDC's data processing and validation procedures.
#
#######################################################################

data_EJACAU
_chemical_name_common            
'5-Hydroxy-4a,8-dimethyl-3-methylene-2-oxododecahydroazuleno[6,5-b]furan-4,7-diyl diacetate'
_chemical_formula_moiety         'C19 H26 O7'
_chemical_name_systematic        
2\a,6\a-Diacetoxy-4\b-hydroxy-11(13)-pseudoguaien-8\a,12-olide
_symmetry_cell_setting           tetragonal
_symmetry_space_group_name_H-M   'P 43 21 2'
_symmetry_Int_Tables_number      96
_space_group_name_Hall           'P 4nw 2abw'
loop_
_symmetry_equiv_pos_site_id
_symmetry_equiv_pos_as_xyz
1 x,y,z
2 -x,-y,1/2+z
3 1/2-y,1/2+x,3/4+z
4 1/2+y,1/2-x,1/4+z
5 1/2-x,1/2+y,3/4-z
6 1/2+x,1/2-y,1/4-z
7 y,x,-z
8 -y,-x,1/2-z
_cell_length_a                   9.3534(7)
_cell_length_b                   9.3534(7)
_cell_length_c                   42.209(5)
_cell_angle_alpha                90
_cell_angle_beta                 90
_cell_angle_gamma                90
_cell_volume                     3692.7
_exptl_crystal_colour            colorless
_exptl_crystal_description       prismatic
_cell_formula_units_Z            8
loop_
_atom_site_label
_atom_site_type_symbol
_atom_site_fract_x
_atom_site_fract_y
_atom_site_fract_z
O1 O 0.0295(2) 0.5393(2) 0.12293(4)
O2 O -0.1379(2) 0.3784(2) 0.13553(5)
O3 O -0.0744(3) 0.5841(2) 0.01738(5)
O4 O 0.2193(2) 0.7828(2) 0.03607(4)
O5 O 0.1564(3) 0.7372(3) -0.01427(5)
O6 O 0.2559(3) 1.3556(2) 0.05561(5)
O7 O 0.0908(2) 1.2240(2) 0.08019(5)
C1 C -0.0084(3) 0.7603(3) 0.09480(6)
H1 H 0.0945 0.7539 0.0990
C2 C -0.0751(3) 0.6133(3) 0.10347(6)
H2 H -0.1640 0.6272 0.1154
C3 C -0.1057(3) 0.5348(3) 0.07264(6)
H3 H -0.0761 0.4356 0.0740
H4 H -0.2067 0.5384 0.0675
C4 C -0.0189(3) 0.6135(3) 0.04817(6)
H5 H 0.0807 0.5815 0.0493
C5 C -0.0276(3) 0.7725(3) 0.05834(6)
C6 C 0.0892(3) 0.8666(3) 0.04200(6)
H6 H 0.0520 0.9028 0.0218
C7 C 0.1450(3) 0.9906(3) 0.06144(6)
H7 H 0.2071 0.9499 0.0778
C8 C 0.0316(3) 1.0803(3) 0.07855(6)
H8 H -0.0571 1.0811 0.0662
C9 C 0.0017(3) 1.0291(3) 0.11175(6)
H9 H -0.0594 1.0992 0.1219
H10 H 0.0915 1.0281 0.1232
C10 C -0.0684(3) 0.8819(3) 0.11571(6)
H11 H -0.1698 0.8926 0.1104
C11 C 0.2308(3) 1.1024(3) 0.04455(7)
C12 C 0.2007(4) 1.2406(3) 0.05966(7)
C13 C 0.3200(4) 1.0932(4) 0.02069(8)
H12 H 0.3652 1.1749 0.0131
H13 H 0.3381 1.0050 0.0113
C14 C -0.0599(4) 0.8455(3) 0.15085(6)
H14 H 0.0383 0.8336 0.1569
H15 H -0.1112 0.7584 0.1548
H16 H -0.1016 0.9216 0.1630
C15 C -0.1760(3) 0.8294(3) 0.04909(6)
H17 H -0.1802 0.9304 0.0531
H18 H -0.2478 0.7818 0.0614
H19 H -0.1926 0.8116 0.0270
C16 C -0.0168(4) 0.4208(3) 0.13782(6)
C17 C 0.0989(4) 0.3520(3) 0.15685(7)
H20 H 0.0621 0.2677 0.1670
H21 H 0.1322 0.4177 0.1727
H22 H 0.1766 0.3262 0.1432
C18 C 0.2398(4) 0.7268(3) 0.00718(7)
C19 C 0.3786(4) 0.6471(4) 0.00556(8)
H23 H 0.3842 0.5962 -0.0142
H24 H 0.3840 0.5805 0.0228
H25 H 0.4566 0.7135 0.0070
H26 H -0.026(3) 0.623(3) 0.0042(6)
loop_
_geom_bond_atom_site_label_1
_geom_bond_atom_site_label_2
_geom_bond_site_symmetry_1
_geom_bond_site_symmetry_2
O1 C2 1_555 1_555
O2 C16 1_555 1_555
O3 C4 1_555 1_555
O4 C6 1_555 1_555
O5 C18 1_555 1_555
O6 C12 1_555 1_555
O7 C8 1_555 1_555
C1 H1 1_555 1_555
C2 C1 1_555 1_555
H2 C2 1_555 1_555
C3 C2 1_555 1_555
H3 C3 1_555 1_555
H4 C3 1_555 1_555
C4 C3 1_555 1_555
H5 C4 1_555 1_555
C5 C1 1_555 1_555
C6 C5 1_555 1_555
H6 C6 1_555 1_555
C7 C6 1_555 1_555
H7 C7 1_555 1_555
C8 C7 1_555 1_555
H8 C8 1_555 1_555
C9 C8 1_555 1_555
H9 C9 1_555 1_555
H10 C9 1_555 1_555
C10 C1 1_555 1_555
H11 C10 1_555 1_555
C11 C7 1_555 1_555
C12 O7 1_555 1_555
C13 C11 1_555 1_555
H12 C13 1_555 1_555
H13 C13 1_555 1_555
C14 C10 1_555 1_555
H14 C14 1_555 1_555
H15 C14 1_555 1_555
H16 C14 1_555 1_555
C15 C5 1_555 1_555
H17 C15 1_555 1_555
H18 C15 1_555 1_555
H19 C15 1_555 1_555
C16 O1 1_555 1_555
C17 C16 1_555 1_555
H20 C17 1_555 1_555
H21 C17 1_555 1_555
H22 C17 1_555 1_555
C18 O4 1_555 1_555
C19 C18 1_555 1_555
H23 C19 1_555 1_555
H24 C19 1_555 1_555
H25 C19 1_555 1_555
H26 O3 1_555 1_555
C4 C5 1_555 1_555
C9 C10 1_555 1_555
C11 C12 1_555 1_555

#END
