
#######################################################################
#
#                 Cambridge Crystallographic Data Centre
#                                CCDC 
#
#######################################################################
#
# If this CIF has been generated from an entry in the Cambridge 
# Structural Database, then it will include bibliographic, chemical, 
# crystal, experimental, refinement or atomic coordinate data resulting 
# from the CCDC's data processing and validation procedures.
#
#######################################################################

data_EJACIC
_chemical_formula_moiety         'C29 H36 O11'
_chemical_name_systematic        
7,12-Dihydroxy-9,9,18,23,25-pentamethyl-4,8,16,20,28-pentaoxaoctacyclo[13.12.1.1^15,22^.0^1,13^.0^3,7^.0^3,10^.0^17,21^.0^25,29^]nonacosane-5,14,19,24-tetrone
_symmetry_cell_setting           monoclinic
_symmetry_space_group_name_H-M   'P 21'
_symmetry_Int_Tables_number      4
_space_group_name_Hall           'P 2yb'
loop_
_symmetry_equiv_pos_site_id
_symmetry_equiv_pos_as_xyz
1 x,y,z
2 -x,1/2+y,-z
_cell_length_a                   8.79700(10)
_cell_length_b                   9.90100(10)
_cell_length_c                   15.9022(2)
_cell_angle_alpha                90
_cell_angle_beta                 99.9250(10)
_cell_angle_gamma                90
_cell_volume                     1364.34
_cell_formula_units_Z            2
loop_
_atom_site_label
_atom_site_type_symbol
_atom_site_fract_x
_atom_site_fract_y
_atom_site_fract_z
O1 O 0.66552(14) 0.25736(13) 0.98699(8)
O2 O 0.6483(2) 0.48266(15) 1.02430(9)
H1 H 0.611(4) 0.474(4) 1.064(2)
O3 O 0.2214(2) 0.3606(5) 0.83531(18)
O4 O 0.46157(13) 0.40027(13) 0.82186(8)
O5 O 0.8293(3) 0.37803(19) 0.64149(12)
H2 H 0.9137 0.4155 0.6503
O6 O 0.68408(17) 0.61938(17) 0.56216(8)
O7 O 0.38836(13) 0.55631(13) 0.60954(7)
O8 O 0.49985(12) 0.64337(11) 0.73987(6)
O9 O 0.45958(18) 0.97242(17) 0.81644(9)
O10 O 0.13632(17) 0.6871(2) 0.50296(9)
O11 O 0.0827(2) 0.5182(4) 0.40999(13)
C1 C 0.5879(2) 0.38077(19) 0.96779(11)
C2 C 0.4161(2) 0.3573(3) 0.96060(16)
H3 H 0.3960 0.2676 0.9806
H4 H 0.3710 0.4233 0.9941
C3 C 0.3509(2) 0.3720(4) 0.86796(18)
C4 C 0.79223(19) 0.24713(17) 0.93989(11)
C5 C 0.72037(17) 0.30748(16) 0.85279(10)
H5 H 0.6535 0.2370 0.8231
C6 C 0.83193(19) 0.34581(19) 0.79343(13)
H6 H 0.8881 0.2660 0.7809
H7 H 0.9062 0.4105 0.8219
C7 C 0.7486(2) 0.40670(18) 0.71007(11)
H8 H 0.6434 0.3706 0.6968
C8 C 0.74321(16) 0.56213(17) 0.71343(9)
H9 H 0.8484 0.5976 0.7187
C9 C 0.66175(16) 0.63127(15) 0.78037(9)
C10 C 0.61205(17) 0.41905(16) 0.87463(9)
C11 C 0.72419(19) 0.77523(17) 0.79729(10)
H10 H 0.8346 0.7693 0.8170
H11 H 0.6790 0.8129 0.8436
C12 C 0.69573(19) 0.87538(17) 0.72197(10)
H12 H 0.7485 0.8411 0.6776
H13 H 0.7445 0.9603 0.7415
C13 C 0.5265(2) 0.90600(17) 0.68064(10)
C14 C 0.64814(18) 0.61346(16) 0.63118(10)
C15 C 0.48891(18) 0.65529(16) 0.65075(9)
C16 C 0.44170(18) 0.79820(18) 0.62011(10)
H14 H 0.4652 0.8115 0.5626
C17 C 0.4197(2) 0.92753(19) 0.74538(11)
C18 C 0.5256(3) 1.0421(2) 0.63170(13)
H15 H 0.5790 1.1095 0.6690
H16 H 0.4210 1.0704 0.6126
H17 H 0.5763 1.0305 0.5833
C19 C 0.66257(18) 0.56509(16) 0.86728(9)
H18 H 0.7670 0.5722 0.8988
H19 H 0.5980 0.6201 0.8973
C20 C 0.2554(2) 0.8905(2) 0.70656(13)
H20 H 0.1977 0.9750 0.6948
C21 C 0.1794(3) 0.8105(4) 0.77006(16)
H21 H 0.1800 0.8633 0.8208
H22 H 0.2355 0.7281 0.7845
H23 H 0.0749 0.7896 0.7449
C22 C 0.2677(2) 0.8253(2) 0.61892(11)
H24 H 0.2352 0.8938 0.5750
C23 C 0.16601(19) 0.7031(2) 0.59599(11)
H25 H 0.0680 0.7160 0.6163
C24 C 0.2343(2) 0.5665(2) 0.62622(11)
H26 H 0.2268 0.5472 0.6858
C25 C 0.1390(2) 0.4704(3) 0.56364(16)
H27 H 0.0383 0.4594 0.5813
C26 C 0.1155(2) 0.5535(3) 0.48354(14)
C27 C 0.2066(3) 0.3305(3) 0.5564(3)
H28 H 0.1381 0.2784 0.5152
H29 H 0.2195 0.2863 0.6109
H30 H 0.3050 0.3384 0.5385
C28 C 0.8268(3) 0.0980(2) 0.93257(17)
H31 H 0.8714 0.0634 0.9877
H32 H 0.8981 0.0859 0.8938
H33 H 0.7329 0.0504 0.9116
C29 C 0.9334(2) 0.3212(3) 0.98618(15)
H34 H 0.9704 0.2772 1.0396
H35 H 0.9063 0.4129 0.9966
H36 H 1.0128 0.3204 0.9516
loop_
_geom_bond_atom_site_label_1
_geom_bond_atom_site_label_2
_geom_bond_site_symmetry_1
_geom_bond_site_symmetry_2
O1 C1 1_555 1_555
O2 H1 1_555 1_555
O3 C3 1_555 1_555
O4 C3 1_555 1_555
O5 H2 1_555 1_555
O6 C14 1_555 1_555
O7 C15 1_555 1_555
O8 C9 1_555 1_555
O9 C17 1_555 1_555
O10 C23 1_555 1_555
O11 C26 1_555 1_555
C1 O2 1_555 1_555
C2 C1 1_555 1_555
H3 C2 1_555 1_555
H4 C2 1_555 1_555
C3 C2 1_555 1_555
C4 O1 1_555 1_555
C5 C4 1_555 1_555
H5 C5 1_555 1_555
C6 C5 1_555 1_555
H6 C6 1_555 1_555
H7 C6 1_555 1_555
C7 O5 1_555 1_555
H8 C7 1_555 1_555
C8 C7 1_555 1_555
H9 C8 1_555 1_555
C9 C8 1_555 1_555
C10 O4 1_555 1_555
C11 C9 1_555 1_555
H10 C11 1_555 1_555
H11 C11 1_555 1_555
C12 C11 1_555 1_555
H12 C12 1_555 1_555
H13 C12 1_555 1_555
C13 C12 1_555 1_555
C14 C8 1_555 1_555
C15 O8 1_555 1_555
C16 C13 1_555 1_555
H14 C16 1_555 1_555
C17 C13 1_555 1_555
C18 C13 1_555 1_555
H15 C18 1_555 1_555
H16 C18 1_555 1_555
H17 C18 1_555 1_555
C19 C9 1_555 1_555
H18 C19 1_555 1_555
H19 C19 1_555 1_555
C20 C17 1_555 1_555
H20 C20 1_555 1_555
C21 C20 1_555 1_555
H21 C21 1_555 1_555
H22 C21 1_555 1_555
H23 C21 1_555 1_555
C22 C16 1_555 1_555
H24 C22 1_555 1_555
C23 C22 1_555 1_555
H25 C23 1_555 1_555
C24 O7 1_555 1_555
H26 C24 1_555 1_555
C25 C24 1_555 1_555
H27 C25 1_555 1_555
C26 O10 1_555 1_555
C27 C25 1_555 1_555
H28 C27 1_555 1_555
H29 C27 1_555 1_555
H30 C27 1_555 1_555
C28 C4 1_555 1_555
H31 C28 1_555 1_555
H32 C28 1_555 1_555
H33 C28 1_555 1_555
C29 C4 1_555 1_555
H34 C29 1_555 1_555
H35 C29 1_555 1_555
H36 C29 1_555 1_555
C1 C10 1_555 1_555
C5 C10 1_555 1_555
C6 C7 1_555 1_555
C10 C19 1_555 1_555
C14 C15 1_555 1_555
C15 C16 1_555 1_555
C20 C22 1_555 1_555
C23 C24 1_555 1_555
C25 C26 1_555 1_555

#END
