
#######################################################################
#
#                 Cambridge Crystallographic Data Centre
#                                CCDC 
#
#######################################################################
#
# If this CIF has been generated from an entry in the Cambridge 
# Structural Database, then it will include bibliographic, chemical, 
# crystal, experimental, refinement or atomic coordinate data resulting 
# from the CCDC's data processing and validation procedures.
#
#######################################################################

data_EJAGON
_chemical_formula_moiety         'C26 H27 N3 O7,0.5(H2 O1)'
_chemical_name_systematic        
'diethyl 1-benzyl-4-((ethoxycarbonyl)amino)-2-oxo-2,4-dihydropyrrolo[4,3,2-de]quinoline-4,5(1H)-dicarboxylate hemihydrate'
_symmetry_cell_setting           triclinic
_symmetry_space_group_name_H-M   'P -1'
_symmetry_Int_Tables_number      2
_space_group_name_Hall           '-P 1'
loop_
_symmetry_equiv_pos_site_id
_symmetry_equiv_pos_as_xyz
1 x,y,z
2 -x,-y,-z
_cell_length_a                   10.4200(13)
_cell_length_b                   11.5670(15)
_cell_length_c                   12.2330(17)
_cell_angle_alpha                60.629(7)
_cell_angle_beta                 74.155(12)
_cell_angle_gamma                87.858(13)
_cell_volume                     1227.86
_exptl_crystal_colour            colorless
_exptl_crystal_description       prism
_cell_formula_units_Z            2
loop_
_atom_site_label
_atom_site_type_symbol
_atom_site_fract_x
_atom_site_fract_y
_atom_site_fract_z
O1 O 0.18925(9) 0.03570(8) 0.34118(9)
O2 O 0.42201(8) 0.58181(8) 0.39170(8)
O3 O 0.25155(8) 0.67952(7) 0.31201(9)
O4 O 0.59170(8) 0.35917(9) 0.38010(8)
O5 O 0.51032(7) 0.48547(8) 0.20981(7)
O6 O 0.13098(8) 0.20356(8) 0.64204(8)
O7 O 0.25524(8) 0.20299(8) 0.76873(7)
N1 N 0.02367(9) 0.17823(9) 0.32474(9)
N2 N 0.26627(8) 0.46218(8) 0.37593(8)
N3 N 0.34976(9) 0.29769(9) 0.55386(9)
C1 C 0.14710(11) 0.13613(10) 0.33984(10)
C2 C 0.21312(10) 0.23709(9) 0.35673(10)
C3 C 0.12232(10) 0.33591(10) 0.34438(10)
C4 C 0.00538(10) 0.29663(10) 0.33197(10)
C5 C -0.10319(10) 0.36835(11) 0.33208(11)
H1 H -0.1846 0.3434 0.3241
C6 C -0.08591(10) 0.48005(11) 0.34460(10)
H2 H -0.1590 0.5316 0.3450
C7 C 0.03147(10) 0.52128(10) 0.35658(10)
H3 H 0.0376 0.5989 0.3637
C8 C 0.14038(10) 0.44522(9) 0.35780(9)
C9 C 0.35148(10) 0.35083(10) 0.41893(10)
C10 C 0.31940(10) 0.23823(10) 0.39619(10)
H4 H 0.3756 0.1688 0.4103
C11 C 0.32039(11) 0.57786(10) 0.36244(10)
C12 C 0.29533(15) 0.80300(12) 0.30318(15)
H5 H 0.3177 0.7818 0.3842
H6 H 0.2212 0.8600 0.2957
C13 C 0.41650(15) 0.87808(13) 0.18613(16)
H7 H 0.4942 0.8285 0.2006
H8 H 0.4353 0.9666 0.1741
H9 H 0.3987 0.8879 0.1075
C14 C 0.49962(10) 0.40212(10) 0.33544(10)
C15 C 0.64832(11) 0.53509(13) 0.12539(11)
H10 H 0.6992 0.4596 0.1300
H11 H 0.6936 0.5846 0.1540
C16 C 0.64289(14) 0.62566(16) -0.01199(12)
H12 H 0.5972 0.5758 -0.0390
H13 H 0.7344 0.6597 -0.0712
H14 H 0.5935 0.7006 -0.0156
C17 C 0.23577(11) 0.23249(10) 0.65352(10)
C18 C 0.14188(12) 0.12576(14) 0.88361(12)
H15 H 0.1119 0.0450 0.8845
H16 H 0.0659 0.1798 0.8830
C19 C 0.18738(14) 0.08731(16) 1.00101(13)
H17 H 0.2626 0.0340 1.0005
H18 H 0.1131 0.0346 1.0806
H19 H 0.2164 0.1680 0.9992
C20 C -0.08208(12) 0.09790(11) 0.32662(12)
H20 H -0.1551 0.0666 0.4097
H21 H -0.0454 0.0181 0.3258
C21 C -0.14105(12) 0.17011(11) 0.21342(11)
C22 C -0.27129(13) 0.12622(13) 0.22983(14)
H22 H -0.3215 0.0541 0.3119
C23 C -0.32858(15) 0.18682(15) 0.12743(16)
H23 H -0.4171 0.1554 0.1396
C24 C -0.25691(15) 0.29290(14) 0.00785(14)
H24 H -0.2956 0.3338 -0.0625
C25 C -0.12876(14) 0.33904(14) -0.00877(12)
H25 H -0.0798 0.4127 -0.0903
C26 C -0.07122(12) 0.27788(13) 0.09354(12)
H26 H 0.0170 0.3103 0.0812
H27 H 0.4092(14) 0.3213(14) 0.5747(14)
O8 O 0.5790(2) 0.0529(2) 0.5539(2)
H28 H 0.649(3) 0.044(3) 0.586(4)
H29 H 0.578(3) 0.1407(11) 0.512(4)
loop_
_geom_bond_atom_site_label_1
_geom_bond_atom_site_label_2
_geom_bond_site_symmetry_1
_geom_bond_site_symmetry_2
O1 C1 1_555 1_555
O2 C11 1_555 1_555
O3 C11 1_555 1_555
O4 C14 1_555 1_555
O5 C14 1_555 1_555
O6 C17 1_555 1_555
O7 C17 1_555 1_555
N1 C1 1_555 1_555
N2 C8 1_555 1_555
N3 C9 1_555 1_555
C1 C2 1_555 1_555
C2 C3 1_555 1_555
C3 C4 1_555 1_555
C4 N1 1_555 1_555
C5 C4 1_555 1_555
H1 C5 1_555 1_555
C6 C5 1_555 1_555
H2 C6 1_555 1_555
C7 C6 1_555 1_555
H3 C7 1_555 1_555
C8 C3 1_555 1_555
C9 N2 1_555 1_555
C10 C2 1_555 1_555
H4 C10 1_555 1_555
C11 N2 1_555 1_555
C12 O3 1_555 1_555
H5 C12 1_555 1_555
H6 C12 1_555 1_555
C13 C12 1_555 1_555
H7 C13 1_555 1_555
H8 C13 1_555 1_555
H9 C13 1_555 1_555
C14 C9 1_555 1_555
C15 O5 1_555 1_555
H10 C15 1_555 1_555
H11 C15 1_555 1_555
C16 C15 1_555 1_555
H12 C16 1_555 1_555
H13 C16 1_555 1_555
H14 C16 1_555 1_555
C17 N3 1_555 1_555
C18 O7 1_555 1_555
H15 C18 1_555 1_555
H16 C18 1_555 1_555
C19 C18 1_555 1_555
H17 C19 1_555 1_555
H18 C19 1_555 1_555
H19 C19 1_555 1_555
C20 N1 1_555 1_555
H20 C20 1_555 1_555
H21 C20 1_555 1_555
C21 C20 1_555 1_555
C22 C21 1_555 1_555
H22 C22 1_555 1_555
C23 C22 1_555 1_555
H23 C23 1_555 1_555
C24 C23 1_555 1_555
H24 C24 1_555 1_555
C25 C24 1_555 1_555
H25 C25 1_555 1_555
C26 C21 1_555 1_555
H26 C26 1_555 1_555
H27 N3 1_555 1_555
O8 H28 1_555 1_555
H29 O8 1_555 1_555
C7 C8 1_555 1_555
C9 C10 1_555 1_555
C25 C26 1_555 1_555

#END
