
#######################################################################
#
#                 Cambridge Crystallographic Data Centre
#                                CCDC 
#
#######################################################################
#
# If this CIF has been generated from an entry in the Cambridge 
# Structural Database, then it will include bibliographic, chemical, 
# crystal, experimental, refinement or atomic coordinate data resulting 
# from the CCDC's data processing and validation procedures.
#
#######################################################################

data_EJAGIH
_chemical_formula_moiety         'C29 H27 N3 O5'
_chemical_name_systematic        
'ethyl 1-benzyl-4-((ethoxycarbonyl)amino)-2-oxo-4-phenyl-2,4-dihydropyrrolo[4,3,2-de]quinoline-5(1H)-carboxylate'
_symmetry_cell_setting           monoclinic
_symmetry_space_group_name_H-M   'P 21/c'
_symmetry_Int_Tables_number      14
_space_group_name_Hall           '-P 2ybc'
loop_
_symmetry_equiv_pos_site_id
_symmetry_equiv_pos_as_xyz
1 x,y,z
2 -x,1/2+y,1/2-z
3 -x,-y,-z
4 x,1/2-y,1/2+z
_cell_length_a                   13.4022(9)
_cell_length_b                   10.9390(6)
_cell_length_c                   16.5069(11)
_cell_angle_alpha                90
_cell_angle_beta                 91.481(4)
_cell_angle_gamma                90
_cell_volume                     2419.21
_exptl_crystal_colour            colorless
_exptl_crystal_description       prism
_cell_formula_units_Z            4
loop_
_atom_site_label
_atom_site_type_symbol
_atom_site_fract_x
_atom_site_fract_y
_atom_site_fract_z
O1 O 0.34597(8) 0.67968(10) 0.30634(7)
O2 O 0.06315(9) 0.36182(11) -0.02963(6)
O3 O 0.03989(8) 0.24870(9) 0.08155(6)
O4 O 0.31309(9) 0.11188(10) 0.15482(7)
O5 O 0.33861(8) 0.31429(9) 0.13761(7)
N1 N 0.34926(10) 0.72954(11) 0.16974(8)
N2 N 0.14174(9) 0.41212(10) 0.09185(7)
N3 N 0.19465(10) 0.25092(12) 0.18709(8)
C1 C 0.32112(11) 0.65962(13) 0.23618(9)
C2 C 0.25575(11) 0.56074(13) 0.20156(9)
C3 C 0.24703(11) 0.58440(13) 0.11631(9)
C4 C 0.30493(11) 0.68518(13) 0.09710(9)
C5 C 0.31212(12) 0.72264(14) 0.01781(10)
H1 H 0.3506 0.7917 0.0030
C6 C 0.25920(12) 0.65252(15) -0.03952(10)
H2 H 0.2624 0.6760 -0.0948
C7 C 0.20198(11) 0.55020(14) -0.02078(9)
H3 H 0.1680 0.5058 -0.0626
C8 C 0.19517(11) 0.51357(13) 0.06035(9)
C9 C 0.15254(11) 0.37381(13) 0.18048(8)
C10 C 0.21682(11) 0.45984(13) 0.23211(9)
H4 H 0.2294 0.4408 0.2876
C11 C 0.40986(12) 0.84003(14) 0.17675(11)
H5 H 0.4175 0.8622 0.2347
H6 H 0.3742 0.9078 0.1488
C12 C 0.51249(11) 0.82708(14) 0.14147(9)
C13 C 0.56969(13) 0.72283(15) 0.15472(11)
H7 H 0.5446 0.6583 0.1869
C14 C 0.66344(13) 0.71235(17) 0.12116(11)
H8 H 0.7016 0.6402 0.1298
C15 C 0.70108(13) 0.80592(18) 0.07553(11)
H9 H 0.7650 0.7983 0.0525
C16 C 0.64570(14) 0.91094(17) 0.06332(11)
H10 H 0.6719 0.9762 0.0324
C17 C 0.55162(13) 0.92142(15) 0.09612(10)
H11 H 0.5138 0.9939 0.0874
C18 C 0.07978(11) 0.34264(13) 0.04148(9)
C19 C -0.03427(12) 0.17646(14) 0.03731(9)
H12 H -0.0020 0.1246 -0.0036
H13 H -0.0833 0.2304 0.0092
C20 C -0.08497(13) 0.09849(15) 0.09882(11)
H14 H -0.0355 0.0457 0.1261
H15 H -0.1360 0.0479 0.0716
H16 H -0.1165 0.1510 0.1389
C21 C 0.28569(12) 0.21731(13) 0.15884(9)
C22 C 0.44003(12) 0.29423(15) 0.11121(11)
H17 H 0.4399 0.2518 0.0582
H18 H 0.4783 0.2445 0.1513
C23 C 0.48399(14) 0.41907(18) 0.10438(15)
H19 H 0.4467 0.4656 0.0629
H20 H 0.5540 0.4124 0.0892
H21 H 0.4801 0.4611 0.1566
C24 C 0.05070(11) 0.37646(13) 0.22069(8)
C25 C 0.03074(12) 0.29941(13) 0.28580(9)
H22 H 0.0798 0.2427 0.3045
C26 C -0.06067(12) 0.30566(14) 0.32306(9)
H23 H -0.0746 0.2514 0.3663
C27 C -0.13169(12) 0.39003(15) 0.29800(9)
H24 H -0.1940 0.3944 0.3240
C28 C -0.11120(11) 0.46846(14) 0.23437(9)
H25 H -0.1597 0.5269 0.2171
C29 C -0.02084(11) 0.46219(13) 0.19599(9)
H26 H -0.0075 0.5164 0.1527
H27 H 0.1540(16) 0.1943(18) 0.1849(12)
loop_
_geom_bond_atom_site_label_1
_geom_bond_atom_site_label_2
_geom_bond_site_symmetry_1
_geom_bond_site_symmetry_2
O1 C1 1_555 1_555
O2 C18 1_555 1_555
O3 C18 1_555 1_555
O4 C21 1_555 1_555
O5 C21 1_555 1_555
N1 C1 1_555 1_555
N2 C8 1_555 1_555
N3 C9 1_555 1_555
C1 C2 1_555 1_555
C2 C3 1_555 1_555
C3 C4 1_555 1_555
C4 N1 1_555 1_555
C5 C4 1_555 1_555
H1 C5 1_555 1_555
C6 C5 1_555 1_555
H2 C6 1_555 1_555
C7 C6 1_555 1_555
H3 C7 1_555 1_555
C8 C3 1_555 1_555
C9 N2 1_555 1_555
C10 C2 1_555 1_555
H4 C10 1_555 1_555
C11 N1 1_555 1_555
H5 C11 1_555 1_555
H6 C11 1_555 1_555
C12 C11 1_555 1_555
C13 C12 1_555 1_555
H7 C13 1_555 1_555
C14 C13 1_555 1_555
H8 C14 1_555 1_555
C15 C14 1_555 1_555
H9 C15 1_555 1_555
C16 C15 1_555 1_555
H10 C16 1_555 1_555
C17 C12 1_555 1_555
H11 C17 1_555 1_555
C18 N2 1_555 1_555
C19 O3 1_555 1_555
H12 C19 1_555 1_555
H13 C19 1_555 1_555
C20 C19 1_555 1_555
H14 C20 1_555 1_555
H15 C20 1_555 1_555
H16 C20 1_555 1_555
C21 N3 1_555 1_555
C22 O5 1_555 1_555
H17 C22 1_555 1_555
H18 C22 1_555 1_555
C23 C22 1_555 1_555
H19 C23 1_555 1_555
H20 C23 1_555 1_555
H21 C23 1_555 1_555
C24 C9 1_555 1_555
C25 C24 1_555 1_555
H22 C25 1_555 1_555
C26 C25 1_555 1_555
H23 C26 1_555 1_555
C27 C26 1_555 1_555
H24 C27 1_555 1_555
C28 C27 1_555 1_555
H25 C28 1_555 1_555
C29 C24 1_555 1_555
H26 C29 1_555 1_555
H27 N3 1_555 1_555
C7 C8 1_555 1_555
C9 C10 1_555 1_555
C16 C17 1_555 1_555
C28 C29 1_555 1_555

#END
