
#######################################################################
#
#                 Cambridge Crystallographic Data Centre
#                                CCDC 
#
#######################################################################
#
# If this CIF has been generated from an entry in the Cambridge 
# Structural Database, then it will include bibliographic, chemical, 
# crystal, experimental, refinement or atomic coordinate data resulting 
# from the CCDC's data processing and validation procedures.
#
#######################################################################

data_EJAMEJ
_chemical_formula_moiety         'C62 H60 I2,C1 H2 Cl2'
_chemical_name_systematic        
'6,7,13,14-tetrakis(4-t-butylphenyl)-5,12-diiodobenzo[k]tetraphene dichloromethane solvate'
_symmetry_cell_setting           monoclinic
_symmetry_space_group_name_H-M   'C 2/c'
_symmetry_Int_Tables_number      15
_space_group_name_Hall           '-C 2yn'
loop_
_symmetry_equiv_pos_site_id
_symmetry_equiv_pos_as_xyz
1 x,y,z
2 -x,y,1/2-z
3 1/2+x,1/2+y,z
4 1/2-x,1/2+y,1/2-z
5 -x,-y,-z
6 x,-y,1/2+z
7 1/2-x,1/2-y,-z
8 1/2+x,1/2-y,1/2+z
_cell_length_a                   18.9493(9)
_cell_length_b                   21.4331(10)
_cell_length_c                   14.0256(7)
_cell_angle_alpha                90
_cell_angle_beta                 106.246(4)
_cell_angle_gamma                90
_cell_volume                     5468.93
_exptl_crystal_colour            colorless
_exptl_crystal_description       block
_cell_formula_units_Z            4
loop_
_atom_site_label
_atom_site_type_symbol
_atom_site_fract_x
_atom_site_fract_y
_atom_site_fract_z
I1 I 0.42212(2) 0.05092(2) -0.15271(2)
C1 C 0.5375(2) 0.13716(18) 0.1766(3)
C2 C 0.5687(2) 0.15370(18) 0.0950(3)
C3 C 0.6300(2) 0.1934(2) 0.1083(4)
H1 H 0.6532 0.2096 0.1725
C4 C 0.6568(3) 0.2090(2) 0.0299(4)
H2 H 0.6979 0.2362 0.0401
C5 C 0.6243(3) 0.1852(3) -0.0641(4)
H3 H 0.6444 0.1945 -0.1173
C6 C 0.5627(3) 0.1480(2) -0.0803(4)
H4 H 0.5405 0.1321 -0.1449
C7 C 0.5322(2) 0.13333(19) -0.0023(3)
C8 C 0.4635(2) 0.1004(2) -0.0187(3)
C9 C 0.4251(2) 0.09862(19) 0.0513(3)
C10 C 0.4605(2) 0.12368(18) 0.1500(3)
C11 C 0.5778(2) 0.13327(17) 0.2777(3)
C12 C 0.6591(2) 0.14213(18) 0.3089(3)
C13 C 0.6881(2) 0.1950(2) 0.3651(3)
H5 H 0.6564 0.2213 0.3888
C14 C 0.7623(2) 0.2097(2) 0.3869(3)
H6 H 0.7803 0.2460 0.4245
C15 C 0.8112(2) 0.1715(2) 0.3540(3)
C16 C 0.7813(2) 0.11804(19) 0.3001(3)
H7 H 0.8132 0.0906 0.2785
C17 C 0.7072(2) 0.10369(19) 0.2770(3)
H8 H 0.6891 0.0674 0.2392
C18 C 0.8919(2) 0.1898(2) 0.3748(4)
C19 C 0.8967(6) 0.2418(6) 0.3016(9)
H9 H 0.8788 0.2260 0.2335
H10 H 0.9479 0.2552 0.3143
H11 H 0.8665 0.2772 0.3104
C20 C 0.9399(6) 0.1368(6) 0.3502(12)
H12 H 0.9395 0.1008 0.3930
H13 H 0.9905 0.1517 0.3615
H14 H 0.9201 0.1246 0.2805
C21 C 0.9266(5) 0.2143(7) 0.4789(8)
H15 H 0.9100 0.2572 0.4840
H16 H 0.9802 0.2137 0.4929
H17 H 0.9119 0.1879 0.5271
C22 C 0.3553(2) 0.0632(2) 0.0329(3)
C23 C 0.2891(3) 0.0845(2) -0.0308(4)
H18 H 0.2881 0.1234 -0.0638
C24 C 0.2249(3) 0.0501(2) -0.0469(4)
H19 H 0.1806 0.0656 -0.0906
C25 C 0.2247(3) -0.0074(2) 0.0007(5)
C26 C 0.2906(3) -0.0285(2) 0.0630(4)
H20 H 0.2917 -0.0676 0.0953
C27 C 0.3556(3) 0.0060(2) 0.0798(4)
H21 H 0.3999 -0.0096 0.1233
C28 C 0.1533(3) -0.0453(3) -0.0146(6)
C29 C 0.0915(4) -0.0212(4) -0.1027(8)
H22 H 0.1091 -0.0192 -0.1620
H23 H 0.0767 0.0206 -0.0875
H24 H 0.0493 -0.0494 -0.1150
C30 C 0.1289(5) -0.0394(4) 0.0810(9)
H25 H 0.0860 -0.0661 0.0759
H26 H 0.1160 0.0041 0.0897
H27 H 0.1691 -0.0525 0.1381
C31 C 0.1673(4) -0.1134(3) -0.0332(7)
H28 H 0.1206 -0.1363 -0.0504
H29 H 0.2005 -0.1315 0.0269
H30 H 0.1897 -0.1164 -0.0880
I1A I 0.57788(2) 0.05092(2) 0.65271(2)
C1A C 0.4625(2) 0.13716(18) 0.3234(3)
C2A C 0.4313(2) 0.15370(18) 0.4050(3)
C3A C 0.3700(2) 0.1934(2) 0.3917(4)
H1A H 0.3468 0.2096 0.3275
C4A C 0.3432(3) 0.2090(2) 0.4701(4)
H2A H 0.3021 0.2362 0.4599
C5A C 0.3757(3) 0.1852(3) 0.5641(4)
H3A H 0.3556 0.1945 0.6173
C6A C 0.4373(3) 0.1480(2) 0.5803(4)
H4A H 0.4595 0.1321 0.6449
C7A C 0.4678(2) 0.13333(19) 0.5023(3)
C8A C 0.5365(2) 0.1004(2) 0.5187(3)
C9A C 0.5749(2) 0.09862(19) 0.4487(3)
C10A C 0.5395(2) 0.12368(18) 0.3500(3)
C11A C 0.4222(2) 0.13327(17) 0.2223(3)
C12A C 0.3409(2) 0.14213(18) 0.1911(3)
C13A C 0.3119(2) 0.1950(2) 0.1349(3)
H5A H 0.3436 0.2213 0.1112
C14A C 0.2377(2) 0.2097(2) 0.1131(3)
H6A H 0.2197 0.2460 0.0755
C15A C 0.1888(2) 0.1715(2) 0.1460(3)
C16A C 0.2187(2) 0.11804(19) 0.1999(3)
H7A H 0.1868 0.0906 0.2215
C17A C 0.2928(2) 0.10369(19) 0.2230(3)
H8A H 0.3109 0.0674 0.2608
C18A C 0.1081(2) 0.1898(2) 0.1252(4)
C19A C 0.1033(6) 0.2418(6) 0.1984(9)
H9A H 0.1212 0.2260 0.2665
H10A H 0.0521 0.2552 0.1857
H11A H 0.1335 0.2772 0.1896
C20A C 0.0601(6) 0.1368(6) 0.1498(12)
H12A H 0.0605 0.1008 0.1070
H13A H 0.0095 0.1517 0.1385
H14A H 0.0799 0.1246 0.2195
C21A C 0.0734(5) 0.2143(7) 0.0211(8)
H15A H 0.0900 0.2572 0.0160
H16A H 0.0198 0.2137 0.0071
H17A H 0.0881 0.1879 -0.0271
C22A C 0.6447(2) 0.0632(2) 0.4671(3)
C23A C 0.7109(3) 0.0845(2) 0.5308(4)
H18A H 0.7119 0.1234 0.5638
C24A C 0.7751(3) 0.0501(2) 0.5469(4)
H19A H 0.8194 0.0656 0.5906
C25A C 0.7753(3) -0.0074(2) 0.4993(5)
C26A C 0.7094(3) -0.0285(2) 0.4370(4)
H20A H 0.7083 -0.0676 0.4047
C27A C 0.6444(3) 0.0060(2) 0.4202(4)
H21A H 0.6001 -0.0096 0.3767
C28A C 0.8467(3) -0.0453(3) 0.5146(6)
C29A C 0.9085(4) -0.0212(4) 0.6027(8)
H22A H 0.8909 -0.0192 0.6620
H23A H 0.9233 0.0206 0.5875
H24A H 0.9507 -0.0494 0.6150
C30A C 0.8711(5) -0.0394(4) 0.4190(9)
H25A H 0.9140 -0.0661 0.4241
H26A H 0.8840 0.0041 0.4103
H27A H 0.8309 -0.0525 0.3619
C31A C 0.8327(4) -0.1134(3) 0.5332(7)
H28A H 0.8794 -0.1363 0.5504
H29A H 0.7995 -0.1315 0.4731
H30A H 0.8103 -0.1164 0.5880
C35 C 0.5000 0.2939(5) 0.2500
H40 H 0.4859 0.2667 0.1907
Cl1 Cl 0.5754(2) 0.33859(14) 0.2454(3)
H40A H 0.5141 0.2667 0.3093
Cl1A Cl 0.4246(2) 0.33859(14) 0.2546(3)
C32? C 0.8976(10) 0.2607(8) 0.371(2)
H31? H 0.9494 0.2728 0.3852
H32? H 0.8763 0.2794 0.4202
H33? H 0.8709 0.2754 0.3044
C33? C 0.9267(9) 0.1631(10) 0.3039(14)
H34? H 0.9236 0.1175 0.3056
H35? H 0.9784 0.1758 0.3214
H36? H 0.9015 0.1781 0.2370
C34? C 0.9284(8) 0.1674(12) 0.4807(14)
H37? H 0.9548 0.1284 0.4785
H38? H 0.8906 0.1604 0.5151
H39? H 0.9631 0.1992 0.5163
H41? H 0.4859 0.2667 0.1907
loop_
_geom_bond_atom_site_label_1
_geom_bond_atom_site_label_2
_geom_bond_site_symmetry_1
_geom_bond_site_symmetry_2
I1 C8 1_555 1_555
C1 C2 1_555 1_555
C2 C3 1_555 1_555
C3 H1 1_555 1_555
C4 C3 1_555 1_555
H2 C4 1_555 1_555
C5 C4 1_555 1_555
H3 C5 1_555 1_555
C6 C5 1_555 1_555
H4 C6 1_555 1_555
C7 C2 1_555 1_555
C8 C7 1_555 1_555
C9 C8 1_555 1_555
C10 C1 1_555 1_555
C11 C1 1_555 1_555
C12 C11 1_555 1_555
C13 C12 1_555 1_555
H5 C13 1_555 1_555
C14 C13 1_555 1_555
H6 C14 1_555 1_555
C15 C14 1_555 1_555
C16 C15 1_555 1_555
H7 C16 1_555 1_555
C17 C12 1_555 1_555
H8 C17 1_555 1_555
C18 C15 1_555 1_555
C19 C18 1_555 1_555
H9 C19 1_555 1_555
H10 C19 1_555 1_555
H11 C19 1_555 1_555
C20 C18 1_555 1_555
H12 C20 1_555 1_555
H13 C20 1_555 1_555
H14 C20 1_555 1_555
C21 C18 1_555 1_555
H15 C21 1_555 1_555
H16 C21 1_555 1_555
H17 C21 1_555 1_555
C22 C9 1_555 1_555
C23 C22 1_555 1_555
H18 C23 1_555 1_555
C24 C23 1_555 1_555
H19 C24 1_555 1_555
C25 C24 1_555 1_555
C26 C25 1_555 1_555
H20 C26 1_555 1_555
C27 C22 1_555 1_555
H21 C27 1_555 1_555
C28 C25 1_555 1_555
C29 C28 1_555 1_555
H22 C29 1_555 1_555
H23 C29 1_555 1_555
H24 C29 1_555 1_555
C30 C28 1_555 1_555
H25 C30 1_555 1_555
H26 C30 1_555 1_555
H27 C30 1_555 1_555
C31 C28 1_555 1_555
H28 C31 1_555 1_555
H29 C31 1_555 1_555
H30 C31 1_555 1_555
C35 H40 1_555 1_555
Cl1 C35 1_555 1_555
I1A C8A 1_555 1_555
C1A C2A 1_555 1_555
C2A C3A 1_555 1_555
C3A H1A 1_555 1_555
C4A C3A 1_555 1_555
H2A C4A 1_555 1_555
C5A C4A 1_555 1_555
H3A C5A 1_555 1_555
C6A C5A 1_555 1_555
H4A C6A 1_555 1_555
C7A C2A 1_555 1_555
C8A C7A 1_555 1_555
C9A C8A 1_555 1_555
C10A C11 1_555 1_555
C11A C10 1_555 1_555
C12A C11A 1_555 1_555
C13A C12A 1_555 1_555
H5A C13A 1_555 1_555
C14A C13A 1_555 1_555
H6A C14A 1_555 1_555
C15A C14A 1_555 1_555
C16A C15A 1_555 1_555
H7A C16A 1_555 1_555
C17A C12A 1_555 1_555
H8A C17A 1_555 1_555
C18A C15A 1_555 1_555
C19A C18A 1_555 1_555
H9A C19A 1_555 1_555
H10A C19A 1_555 1_555
H11A C19A 1_555 1_555
C20A C18A 1_555 1_555
H12A C20A 1_555 1_555
H13A C20A 1_555 1_555
H14A C20A 1_555 1_555
C21A C18A 1_555 1_555
H15A C21A 1_555 1_555
H16A C21A 1_555 1_555
H17A C21A 1_555 1_555
C22A C9A 1_555 1_555
C23A C22A 1_555 1_555
H18A C23A 1_555 1_555
C24A C23A 1_555 1_555
H19A C24A 1_555 1_555
C25A C24A 1_555 1_555
C26A C25A 1_555 1_555
H20A C26A 1_555 1_555
C27A C22A 1_555 1_555
H21A C27A 1_555 1_555
C28A C25A 1_555 1_555
C29A C28A 1_555 1_555
H22A C29A 1_555 1_555
H23A C29A 1_555 1_555
H24A C29A 1_555 1_555
C30A C28A 1_555 1_555
H25A C30A 1_555 1_555
H26A C30A 1_555 1_555
H27A C30A 1_555 1_555
C31A C28A 1_555 1_555
H28A C31A 1_555 1_555
H29A C31A 1_555 1_555
H30A C31A 1_555 1_555
H40A C35 1_555 1_555
Cl1A C35 1_555 1_555
C6 C7 1_555 1_555
C9 C10 1_555 1_555
C16 C17 1_555 1_555
C26 C27 1_555 1_555
C1A C10A 1_555 1_555
C1A C11A 1_555 1_555
C6A C7A 1_555 1_555
C9A C10A 1_555 1_555
C16A C17A 1_555 1_555
C26A C27A 1_555 1_555

#END
