
#######################################################################
#
#                 Cambridge Crystallographic Data Centre
#                                CCDC 
#
#######################################################################
#
# If this CIF has been generated from an entry in the Cambridge 
# Structural Database, then it will include bibliographic, chemical, 
# crystal, experimental, refinement or atomic coordinate data resulting 
# from the CCDC's data processing and validation procedures.
#
#######################################################################

data_EJAMOT
_chemical_formula_moiety         'C62 H58 O1'
_chemical_name_systematic        
'8,16-di-t-butyl-9b,14-bis(4-t-butylphenyl)dibenzo[a,m]rubicen-5(9bH)-one unknown solvate'
_symmetry_cell_setting           monoclinic
_symmetry_space_group_name_H-M   'P 21/n'
_symmetry_Int_Tables_number      14
_space_group_name_Hall           '-P 2yn'
loop_
_symmetry_equiv_pos_site_id
_symmetry_equiv_pos_as_xyz
1 x,y,z
2 1/2-x,1/2+y,1/2-z
3 -x,-y,-z
4 1/2+x,1/2-y,1/2+z
_cell_length_a                   21.3286(15)
_cell_length_b                   10.7441(10)
_cell_length_c                   25.2843(15)
_cell_angle_alpha                90
_cell_angle_beta                 109.770(5)
_cell_angle_gamma                90
_cell_volume                     5452.55
_exptl_crystal_colour            red
_exptl_crystal_description       needle
_cell_formula_units_Z            4
loop_
_atom_site_label
_atom_site_type_symbol
_atom_site_fract_x
_atom_site_fract_y
_atom_site_fract_z
C1 C 0.3178(2) 0.3282(4) 0.48601(16)
C2 C 0.3114(3) 0.2055(4) 0.46661(18)
H1 H 0.2918 0.1440 0.4831
C3 C 0.3340(3) 0.1749(5) 0.4231(2)
H2 H 0.3293 0.0912 0.4102
C4 C 0.3631(3) 0.2596(5) 0.3972(2)
C5 C 0.3707(3) 0.3816(4) 0.41795(17)
H3 H 0.3907 0.4421 0.4013
C6 C 0.3498(3) 0.4165(4) 0.46200(17)
C7 C 0.3561(2) 0.5337(4) 0.49271(16)
C8 C 0.3863(13) 0.6410(15) 0.4883(9)
C9 C 0.374(2) 0.7526(18) 0.5181(10)
C10 C 0.4021(3) 0.8681(4) 0.51647(19)
H4 H 0.4273 0.8796 0.4922
C11 C 0.3949(3) 0.9659(4) 0.5482(2)
H5 H 0.4151 1.0437 0.5460
C12 C 0.3577(3) 0.9515(4) 0.58376(19)
H6 H 0.3487 1.0217 0.6029
C13 C 0.3340(2) 0.8360(4) 0.59133(18)
H7 H 0.3093 0.8276 0.6161
C14 C 0.3457(2) 0.7300(4) 0.56309(17)
C15 C 0.3261(2) 0.6069(4) 0.57283(16)
C16 C 0.3280(2) 0.5156(3) 0.53592(16)
C17 C 0.3099(8) 0.3782(13) 0.5374(6)
C18 C 0.2954(2) 0.5715(3) 0.61781(15)
C19 C 0.3344(2) 0.5927(4) 0.68107(16)
C20 C 0.3654(2) 0.6985(4) 0.70990(17)
H8 H 0.3687 0.7712 0.6896
C21 C 0.3920(2) 0.6985(4) 0.76889(18)
C22 C 0.3852(2) 0.5919(4) 0.79743(18)
H9 H 0.4019 0.5916 0.8373
C23 C 0.3547(2) 0.4860(4) 0.76929(17)
H10 H 0.3512 0.4136 0.7897
C24 C 0.3294(2) 0.4865(4) 0.71120(16)
C25 C 0.2983(2) 0.3882(4) 0.67116(16)
C26 C 0.2881(2) 0.2573(4) 0.68180(18)
C27 C 0.2541(3) 0.1811(4) 0.63066(18)
C28 C 0.2298(3) 0.0645(4) 0.6373(2)
H11 H 0.2382 0.0322 0.6740
C29 C 0.1937(3) -0.0052(4) 0.5913(2)
H12 H 0.1776 -0.0853 0.5961
C30 C 0.1811(3) 0.0430(4) 0.5379(2)
H13 H 0.1550 -0.0034 0.5061
C31 C 0.2061(3) 0.1577(4) 0.5304(2)
H14 H 0.1970 0.1892 0.4935
C32 C 0.2447(2) 0.2284(4) 0.57632(17)
C33 C 0.267(2) 0.355(3) 0.5668(11)
C34 C 0.2910(15) 0.432(3) 0.6191(11)
C35 C 0.2232(2) 0.6265(3) 0.60292(16)
C36 C 0.1822(3) 0.6355(4) 0.54660(17)
H15 H 0.1995 0.6162 0.5176
C37 C 0.1167(3) 0.6724(4) 0.53300(18)
H16 H 0.0900 0.6771 0.4944
C38 C 0.0881(2) 0.7026(4) 0.57254(18)
C39 C 0.1292(2) 0.6930(4) 0.62863(17)
H17 H 0.1117 0.7122 0.6575
C40 C 0.1952(2) 0.6561(4) 0.64303(16)
H18 H 0.2218 0.6511 0.6816
C41 C 0.0154(3) 0.7429(4) 0.5580(2)
C42 C -0.0205(6) 0.7558(12) 0.4923(4)
H19 H 0.0038 0.8157 0.4773
H20 H -0.0663 0.7849 0.4846
H21 H -0.0212 0.6746 0.4744
C43 C 0.0111(7) 0.8716(11) 0.5837(6)
H22 H 0.0316 0.8672 0.6247
H23 H -0.0357 0.8960 0.5738
H24 H 0.0348 0.9333 0.5689
C44 C -0.0245(6) 0.6498(12) 0.5782(6)
H25 H -0.0299 0.5732 0.5560
H26 H -0.0684 0.6848 0.5738
H27 H -0.0010 0.6309 0.6179
C45 C 0.4248(3) 0.8158(5) 0.8003(2)
C46 C 0.4302(8) 0.9204(11) 0.7662(5)
H28 H 0.4610 0.8998 0.7463
H29 H 0.4470 0.9930 0.7904
H30 H 0.3862 0.9396 0.7389
C47 C 0.4973(6) 0.7790(13) 0.8425(6)
H31 H 0.5227 0.7384 0.8215
H32 H 0.4928 0.7219 0.8712
H33 H 0.5208 0.8543 0.8606
C48 C 0.3846(6) 0.8552(9) 0.8396(5)
H34 H 0.4074 0.9244 0.8636
H35 H 0.3817 0.7844 0.8631
H36 H 0.3396 0.8812 0.8165
C49 C 0.3850(4) 0.2249(6) 0.3479(2)
C50 C 0.3787(10) 0.0962(12) 0.3319(6)
H37 H 0.3977 0.0442 0.3653
H38 H 0.4026 0.0808 0.3055
H39 H 0.3315 0.0755 0.3138
C51 C 0.4581(7) 0.2744(10) 0.3587(5)
H40 H 0.4893 0.2294 0.3905
H41 H 0.4601 0.3636 0.3674
H42 H 0.4701 0.2610 0.3250
C52 C 0.3413(9) 0.3091(14) 0.2956(4)
H43 H 0.3530 0.2884 0.2623
H44 H 0.3506 0.3973 0.3048
H45 H 0.2939 0.2927 0.2879
C53 C 0.4107(3) 0.6693(4) 0.44054(18)
C54 C 0.3699(3) 0.7084(5) 0.3882(2)
H46 H 0.3242 0.7246 0.3820
C55 C 0.3945(3) 0.7242(5) 0.3447(2)
H47 H 0.3650 0.7521 0.3093
C56 C 0.4601(3) 0.7011(4) 0.35047(19)
C57 C 0.5003(3) 0.6637(5) 0.4039(2)
H48 H 0.5461 0.6479 0.4104
C58 C 0.4765(3) 0.6488(5) 0.4478(2)
H49 H 0.5061 0.6240 0.4836
C59 C 0.4880(3) 0.7118(5) 0.3029(2)
C60 C 0.4382(4) 0.7704(7) 0.2504(2)
H50 H 0.3980 0.7189 0.2372
H51 H 0.4583 0.7760 0.2208
H52 H 0.4264 0.8540 0.2594
C61 C 0.5507(3) 0.7932(7) 0.3210(3)
H53 H 0.5390 0.8776 0.3291
H54 H 0.5695 0.7963 0.2906
H55 H 0.5836 0.7578 0.3548
C62 C 0.5069(4) 0.5816(6) 0.2887(3)
H56 H 0.5380 0.5432 0.3227
H57 H 0.5281 0.5880 0.2600
H58 H 0.4667 0.5302 0.2745
O1 O 0.30448(18) 0.2128(3) 0.72920(12)
C63? C 0.374(2) 0.658(2) 0.4812(14)
C64? C 0.382(3) 0.740(3) 0.5287(15)
C65? C 0.2927(9) 0.3967(13) 0.5271(6)
C66? C 0.2784(19) 0.346(3) 0.5738(10)
C67? C 0.2781(16) 0.431(3) 0.6171(12)
C68? C -0.0054(6) 0.7653(13) 0.6082(5)
H59? H -0.0027 0.6872 0.6289
H60? H -0.0513 0.7963 0.5958
H61? H 0.0242 0.8271 0.6328
C69? C -0.0293(5) 0.6365(11) 0.5223(5)
H62? H -0.0231 0.5607 0.5451
H63? H -0.0168 0.6203 0.4891
H64? H -0.0762 0.6619 0.5105
C70? C 0.0057(6) 0.8613(11) 0.5216(6)
H65? H 0.0316 0.9297 0.5443
H66? H -0.0416 0.8839 0.5076
H67? H 0.0209 0.8455 0.4897
C71? C 0.4507(12) 0.8057(16) 0.8598(6)
H68? H 0.4760 0.7280 0.8703
H69? H 0.4139 0.8056 0.8747
H70? H 0.4801 0.8765 0.8753
C72? C 0.3742(9) 0.9262(13) 0.7787(6)
H71? H 0.3314 0.9037 0.7824
H72? H 0.3680 0.9428 0.7391
H73? H 0.3918 1.0008 0.8011
C73? C 0.4808(8) 0.8558(15) 0.7754(6)
H74? H 0.5032 0.9310 0.7946
H75? H 0.4603 0.8728 0.7351
H76? H 0.5134 0.7885 0.7811
C74? C 0.4253(14) 0.0931(19) 0.3636(10)
H77? H 0.4342 0.0612 0.3306
H78? H 0.3983 0.0327 0.3755
H79? H 0.4676 0.1064 0.3943
C75? C 0.4137(18) 0.317(2) 0.3247(11)
H80? H 0.4228 0.2835 0.2920
H81? H 0.4555 0.3452 0.3528
H82? H 0.3830 0.3877 0.3129
C76? C 0.3152(13) 0.180(3) 0.2985(7)
H83? H 0.2812 0.2450 0.2932
H84? H 0.2994 0.1026 0.3100
H85? H 0.3236 0.1672 0.2631
loop_
_geom_bond_atom_site_label_1
_geom_bond_atom_site_label_2
_geom_bond_site_symmetry_1
_geom_bond_site_symmetry_2
C1 C2 1_555 1_555
C2 H1 1_555 1_555
C3 C2 1_555 1_555
H2 C3 1_555 1_555
C4 C3 1_555 1_555
C5 C4 1_555 1_555
H3 C5 1_555 1_555
C6 C1 1_555 1_555
C7 C6 1_555 1_555
C8 C7 1_555 1_555
C9 C8 1_555 1_555
C10 C9 1_555 1_555
H4 C10 1_555 1_555
C11 C10 1_555 1_555
H5 C11 1_555 1_555
C12 C11 1_555 1_555
H6 C12 1_555 1_555
C13 C12 1_555 1_555
H7 C13 1_555 1_555
C14 C9 1_555 1_555
C15 C14 1_555 1_555
C16 C7 1_555 1_555
C17 C1 1_555 1_555
C18 C15 1_555 1_555
C19 C18 1_555 1_555
C20 C19 1_555 1_555
H8 C20 1_555 1_555
C21 C20 1_555 1_555
C22 C21 1_555 1_555
H9 C22 1_555 1_555
C23 C22 1_555 1_555
H10 C23 1_555 1_555
C24 C19 1_555 1_555
C25 C24 1_555 1_555
C26 C25 1_555 1_555
C27 C26 1_555 1_555
C28 C27 1_555 1_555
H11 C28 1_555 1_555
C29 C28 1_555 1_555
H12 C29 1_555 1_555
C30 C29 1_555 1_555
H13 C30 1_555 1_555
C31 C30 1_555 1_555
H14 C31 1_555 1_555
C32 C27 1_555 1_555
C33 C17 1_555 1_555
C34 C18 1_555 1_555
C35 C18 1_555 1_555
C36 C35 1_555 1_555
H15 C36 1_555 1_555
C37 C36 1_555 1_555
H16 C37 1_555 1_555
C38 C37 1_555 1_555
C39 C38 1_555 1_555
H17 C39 1_555 1_555
C40 C35 1_555 1_555
H18 C40 1_555 1_555
C41 C38 1_555 1_555
C42 C41 1_555 1_555
H19 C42 1_555 1_555
H20 C42 1_555 1_555
H21 C42 1_555 1_555
C43 C41 1_555 1_555
H22 C43 1_555 1_555
H23 C43 1_555 1_555
H24 C43 1_555 1_555
C44 C41 1_555 1_555
H25 C44 1_555 1_555
H26 C44 1_555 1_555
H27 C44 1_555 1_555
C45 C21 1_555 1_555
C46 C45 1_555 1_555
H28 C46 1_555 1_555
H29 C46 1_555 1_555
H30 C46 1_555 1_555
C47 C45 1_555 1_555
H31 C47 1_555 1_555
H32 C47 1_555 1_555
H33 C47 1_555 1_555
C48 C45 1_555 1_555
H34 C48 1_555 1_555
H35 C48 1_555 1_555
H36 C48 1_555 1_555
C49 C4 1_555 1_555
C50 C49 1_555 1_555
H37 C50 1_555 1_555
H38 C50 1_555 1_555
H39 C50 1_555 1_555
C51 C49 1_555 1_555
H40 C51 1_555 1_555
H41 C51 1_555 1_555
H42 C51 1_555 1_555
C52 C49 1_555 1_555
H43 C52 1_555 1_555
H44 C52 1_555 1_555
H45 C52 1_555 1_555
C53 C8 1_555 1_555
C54 C53 1_555 1_555
H46 C54 1_555 1_555
C55 C54 1_555 1_555
H47 C55 1_555 1_555
C56 C55 1_555 1_555
C57 C56 1_555 1_555
H48 C57 1_555 1_555
C58 C53 1_555 1_555
H49 C58 1_555 1_555
C59 C56 1_555 1_555
C60 C59 1_555 1_555
H50 C60 1_555 1_555
H51 C60 1_555 1_555
H52 C60 1_555 1_555
C61 C59 1_555 1_555
H53 C61 1_555 1_555
H54 C61 1_555 1_555
H55 C61 1_555 1_555
C62 C59 1_555 1_555
H56 C62 1_555 1_555
H57 C62 1_555 1_555
H58 C62 1_555 1_555
O1 C26 1_555 1_555
C5 C6 1_555 1_555
C13 C14 1_555 1_555
C15 C16 1_555 1_555
C16 C17 1_555 1_555
C23 C24 1_555 1_555
C25 C34 1_555 1_555
C31 C32 1_555 1_555
C32 C33 1_555 1_555
C33 C34 1_555 1_555
C39 C40 1_555 1_555
C57 C58 1_555 1_555

#END
