
#######################################################################
#
#                 Cambridge Crystallographic Data Centre
#                                CCDC 
#
#######################################################################
#
# If this CIF has been generated from an entry in the Cambridge 
# Structural Database, then it will include bibliographic, chemical, 
# crystal, experimental, refinement or atomic coordinate data resulting 
# from the CCDC's data processing and validation procedures.
#
#######################################################################

data_EJAMIN
_chemical_formula_moiety         'C62 H58'
_chemical_name_systematic        
'7,16-di-t-butyl-5,14-bis(4-t-butylphenyl)dibenzo[a,m]rubicene unknown solvate'
_symmetry_cell_setting           triclinic
_symmetry_space_group_name_H-M   'P -1'
_symmetry_Int_Tables_number      2
_space_group_name_Hall           '-P 1'
loop_
_symmetry_equiv_pos_site_id
_symmetry_equiv_pos_as_xyz
1 x,y,z
2 -x,-y,-z
_cell_length_a                   10.474(2)
_cell_length_b                   15.073(3)
_cell_length_c                   18.188(4)
_cell_angle_alpha                90.659(6)
_cell_angle_beta                 106.259(6)
_cell_angle_gamma                105.609(6)
_cell_volume                     2643.19
_exptl_crystal_colour            orange
_exptl_crystal_description       needle
_cell_formula_units_Z            2
loop_
_atom_site_label
_atom_site_type_symbol
_atom_site_fract_x
_atom_site_fract_y
_atom_site_fract_z
C1 C 0.6750(5) 0.3353(3) 0.3626(3)
C2 C 0.6920(6) 0.2638(4) 0.3208(3)
H1 H 0.6506 0.2539 0.2667
C3 C 0.7690(6) 0.2069(4) 0.3579(3)
H2 H 0.7798 0.1586 0.3282
C4 C 0.8306(6) 0.2179(4) 0.4364(3)
C5 C 0.8177(5) 0.2911(3) 0.4790(3)
H3 H 0.8592 0.3003 0.5331
C6 C 0.7443(5) 0.3506(3) 0.4424(3)
C7 C 0.7266(5) 0.4373(3) 0.4716(3)
C8 C 0.7707(5) 0.4849(3) 0.5432(3)
C9 C 0.7286(5) 0.5669(3) 0.5515(3)
C10 C 0.7597(6) 0.6115(4) 0.6264(3)
H4 H 0.8150 0.5901 0.6694
C11 C 0.7108(6) 0.6850(4) 0.6372(3)
H5 H 0.7346 0.7151 0.6874
C12 C 0.6264(6) 0.7158(4) 0.5750(3)
H6 H 0.5900 0.7651 0.5831
C13 C 0.5962(5) 0.6746(3) 0.5019(3)
H7 H 0.5369 0.6949 0.4600
C14 C 0.6517(5) 0.6027(3) 0.4882(3)
C15 C 0.6195(5) 0.5583(3) 0.4114(3)
C16 C 0.5636(5) 0.5885(3) 0.3391(3)
C17 C 0.5512(5) 0.6790(3) 0.3102(3)
C18 C 0.6049(5) 0.7698(3) 0.3424(3)
H8 H 0.6538 0.7832 0.3956
C19 C 0.5872(6) 0.8409(4) 0.2970(3)
H9 H 0.6239 0.9027 0.3203
C20 C 0.5179(6) 0.8260(4) 0.2184(3)
C21 C 0.4632(6) 0.7346(4) 0.1857(3)
H10 H 0.4131 0.7218 0.1326
C22 C 0.4814(5) 0.6624(3) 0.2302(3)
C23 C 0.4515(5) 0.5631(3) 0.2065(3)
C24 C 0.3909(5) 0.5122(3) 0.1372(3)
C25 C 0.3857(5) 0.4153(3) 0.1333(3)
C26 C 0.3144(5) 0.3575(4) 0.0633(3)
H11 H 0.2757 0.3840 0.0182
C27 C 0.3006(6) 0.2655(4) 0.0598(3)
H12 H 0.2567 0.2292 0.0117
C28 C 0.3494(6) 0.2232(4) 0.1248(3)
H13 H 0.3357 0.1582 0.1220
C29 C 0.4186(5) 0.2773(3) 0.1943(3)
H14 H 0.4482 0.2481 0.2394
C30 C 0.4458(5) 0.3736(3) 0.1994(3)
C31 C 0.5242(5) 0.4318(3) 0.2715(3)
C32 C 0.6076(5) 0.4109(3) 0.3398(3)
C33 C 0.6460(5) 0.4717(3) 0.4065(3)
C34 C 0.5129(5) 0.5222(3) 0.2739(3)
C35 C 0.9164(7) 0.1548(4) 0.4742(4)
C36 C 0.8391(7) 0.0553(4) 0.4507(4)
H15 H 0.8931 0.0165 0.4798
H16 H 0.8239 0.0419 0.3956
H17 H 0.7494 0.0421 0.4613
C37 C 0.9858(10) 0.1779(6) 0.5588(4)
H18 H 1.0339 0.2443 0.5692
H19 H 0.9159 0.1621 0.5864
H20 H 1.0529 0.1426 0.5761
C38 C 1.0449(9) 0.1713(6) 0.4378(5)
H21 H 1.1019 0.2358 0.4506
H22 H 1.1014 0.1302 0.4591
H23 H 1.0089 0.1580 0.3818
C39 C 0.8537(6) 0.4489(3) 0.6110(3)
C40 C 0.7900(6) 0.3977(4) 0.6610(3)
H24 H 0.6944 0.3904 0.6547
C41 C 0.8642(6) 0.3573(4) 0.7198(3)
H25 H 0.8174 0.3212 0.7520
C42 C 1.0039(6) 0.3681(4) 0.7330(3)
C43 C 1.0664(6) 0.4209(4) 0.6833(3)
H26 H 1.1625 0.4293 0.6905
C44 C 0.9956(6) 0.4611(3) 0.6245(3)
H27 H 1.0431 0.4974 0.5927
C45 C 1.0858(6) 0.3237(4) 0.7965(3)
C46 C 1.1342(8) 0.2510(5) 0.7612(3)
H28 H 1.0548 0.1969 0.7386
H29 H 1.2038 0.2323 0.8013
H30 H 1.1750 0.2772 0.7211
C47 C 1.0028(7) 0.2777(5) 0.8495(4)
H31 H 0.9770 0.3246 0.8754
H32 H 1.0594 0.2480 0.8881
H33 H 0.9188 0.2310 0.8192
C48 C 1.2168(6) 0.3951(5) 0.8455(3)
H34 H 1.2668 0.4298 0.8119
H35 H 1.2765 0.3634 0.8800
H36 H 1.1913 0.4377 0.8759
C49 C 0.5056(7) 0.9043(4) 0.1664(4)
C50 C 0.5788(9) 0.8978(5) 0.1020(4)
H37 H 0.5706 0.9480 0.0688
H38 H 0.5341 0.8381 0.0710
H39 H 0.6771 0.9032 0.1263
C51 C 0.3551(7) 0.8905(4) 0.1217(4)
H40 H 0.3007 0.8901 0.1577
H41 H 0.3197 0.8314 0.0897
H42 H 0.3475 0.9410 0.0889
C52 C 0.5914(18) 0.9970(10) 0.2066(10)
H43 H 0.6857 0.9944 0.2326
H44 H 0.5947 1.0429 0.1689
H45 H 0.5501 1.0146 0.2446
C53 C 0.3236(5) 0.5524(3) 0.0681(3)
C54 C 0.1943(6) 0.5660(3) 0.0582(3)
H46 H 0.1459 0.5450 0.0946
C55 C 0.1335(5) 0.6094(3) -0.0033(3)
H47 H 0.0444 0.6170 -0.0081
C56 C 0.2000(5) 0.6419(3) -0.0578(3)
C57 C 0.3312(5) 0.6288(3) -0.0477(3)
H48 H 0.3808 0.6508 -0.0834
C58 C 0.3897(5) 0.5843(3) 0.0133(3)
H49 H 0.4778 0.5754 0.0178
C59 C 0.1367(6) 0.6893(4) -0.1270(3)
C60 C 0.1125(6) 0.6276(4) -0.2010(3)
H50 H 0.1998 0.6158 -0.2016
H51 H 0.0793 0.6592 -0.2462
H52 H 0.0431 0.5687 -0.2022
C61 C -0.0048(6) 0.7004(5) -0.1252(4)
H53 H -0.0713 0.6392 -0.1305
H54 H -0.0391 0.7354 -0.1677
H55 H 0.0062 0.7337 -0.0762
C62 C 0.2365(6) 0.7830(4) -0.1283(3)
H56 H 0.2524 0.8222 -0.0814
H57 H 0.1967 0.8126 -0.1733
H58 H 0.3248 0.7747 -0.1310
C63? C 0.852(3) 0.1260(18) 0.5452(12)
H59? H 0.8803 0.1798 0.5830
H60? H 0.7506 0.1049 0.5257
H61? H 0.8866 0.0761 0.5698
C64? C 1.058(2) 0.2072(17) 0.5253(17)
H62? H 1.0686 0.2738 0.5252
H63? H 1.0686 0.1895 0.5779
H64? H 1.1292 0.1925 0.5060
C65? C 0.537(3) 1.002(2) 0.207(2)
H65? H 0.6340 1.0217 0.2396
H66? H 0.5222 1.0458 0.1686
H67? H 0.4757 1.0000 0.2394
loop_
_geom_bond_atom_site_label_1
_geom_bond_atom_site_label_2
_geom_bond_site_symmetry_1
_geom_bond_site_symmetry_2
C1 C2 1_555 1_555
C2 H1 1_555 1_555
C3 C2 1_555 1_555
H2 C3 1_555 1_555
C4 C3 1_555 1_555
C5 C4 1_555 1_555
H3 C5 1_555 1_555
C6 C1 1_555 1_555
C7 C6 1_555 1_555
C8 C7 1_555 1_555
C9 C8 1_555 1_555
C10 C9 1_555 1_555
H4 C10 1_555 1_555
C11 C10 1_555 1_555
H5 C11 1_555 1_555
C12 C11 1_555 1_555
H6 C12 1_555 1_555
C13 C12 1_555 1_555
H7 C13 1_555 1_555
C14 C9 1_555 1_555
C15 C14 1_555 1_555
C16 C15 1_555 1_555
C17 C16 1_555 1_555
C18 C17 1_555 1_555
H8 C18 1_555 1_555
C19 C18 1_555 1_555
H9 C19 1_555 1_555
C20 C19 1_555 1_555
C21 C20 1_555 1_555
H10 C21 1_555 1_555
C22 C17 1_555 1_555
C23 C22 1_555 1_555
C24 C23 1_555 1_555
C25 C24 1_555 1_555
C26 C25 1_555 1_555
H11 C26 1_555 1_555
C27 C26 1_555 1_555
H12 C27 1_555 1_555
C28 C27 1_555 1_555
H13 C28 1_555 1_555
C29 C28 1_555 1_555
H14 C29 1_555 1_555
C30 C25 1_555 1_555
C31 C30 1_555 1_555
C32 C1 1_555 1_555
C33 C7 1_555 1_555
C34 C16 1_555 1_555
C35 C4 1_555 1_555
C36 C35 1_555 1_555
H15 C36 1_555 1_555
H16 C36 1_555 1_555
H17 C36 1_555 1_555
C37 C35 1_555 1_555
H18 C37 1_555 1_555
H19 C37 1_555 1_555
H20 C37 1_555 1_555
C38 C35 1_555 1_555
H21 C38 1_555 1_555
H22 C38 1_555 1_555
H23 C38 1_555 1_555
C39 C8 1_555 1_555
C40 C39 1_555 1_555
H24 C40 1_555 1_555
C41 C40 1_555 1_555
H25 C41 1_555 1_555
C42 C41 1_555 1_555
C43 C42 1_555 1_555
H26 C43 1_555 1_555
C44 C39 1_555 1_555
H27 C44 1_555 1_555
C45 C42 1_555 1_555
C46 C45 1_555 1_555
H28 C46 1_555 1_555
H29 C46 1_555 1_555
H30 C46 1_555 1_555
C47 C45 1_555 1_555
H31 C47 1_555 1_555
H32 C47 1_555 1_555
H33 C47 1_555 1_555
C48 C45 1_555 1_555
H34 C48 1_555 1_555
H35 C48 1_555 1_555
H36 C48 1_555 1_555
C49 C20 1_555 1_555
C50 C49 1_555 1_555
H37 C50 1_555 1_555
H38 C50 1_555 1_555
H39 C50 1_555 1_555
C51 C49 1_555 1_555
H40 C51 1_555 1_555
H41 C51 1_555 1_555
H42 C51 1_555 1_555
C52 C49 1_555 1_555
H43 C52 1_555 1_555
H44 C52 1_555 1_555
H45 C52 1_555 1_555
C53 C24 1_555 1_555
C54 C53 1_555 1_555
H46 C54 1_555 1_555
C55 C54 1_555 1_555
H47 C55 1_555 1_555
C56 C55 1_555 1_555
C57 C56 1_555 1_555
H48 C57 1_555 1_555
C58 C53 1_555 1_555
H49 C58 1_555 1_555
C59 C56 1_555 1_555
C60 C59 1_555 1_555
H50 C60 1_555 1_555
H51 C60 1_555 1_555
H52 C60 1_555 1_555
C61 C59 1_555 1_555
H53 C61 1_555 1_555
H54 C61 1_555 1_555
H55 C61 1_555 1_555
C62 C59 1_555 1_555
H56 C62 1_555 1_555
H57 C62 1_555 1_555
H58 C62 1_555 1_555
C5 C6 1_555 1_555
C13 C14 1_555 1_555
C15 C33 1_555 1_555
C21 C22 1_555 1_555
C23 C34 1_555 1_555
C29 C30 1_555 1_555
C31 C32 1_555 1_555
C31 C34 1_555 1_555
C32 C33 1_555 1_555
C43 C44 1_555 1_555
C57 C58 1_555 1_555

#END
