
#######################################################################
#
#                 Cambridge Crystallographic Data Centre
#                                CCDC 
#
#######################################################################
#
# If this CIF has been generated from an entry in the Cambridge 
# Structural Database, then it will include bibliographic, chemical, 
# crystal, experimental, refinement or atomic coordinate data resulting 
# from the CCDC's data processing and validation procedures.
#
#######################################################################

data_EJAMUZ
_chemical_formula_moiety         'C62 H56 I2 O1,C1 H2 Cl2'
_chemical_name_systematic        
'2,11,14-tri-t-butyl-21c-(4-t-butylphenyl)-17,22-diiodo-6,5-(metheno)benzo[5,6]indeno[4,3,2,1-cdef]indeno[2,1-a]tetraphenylen-16d(21cH)-ol dichloromethane unknown solvate'
_symmetry_cell_setting           monoclinic
_symmetry_space_group_name_H-M   'P 21/c'
_symmetry_Int_Tables_number      14
_space_group_name_Hall           '-P 2ybc'
loop_
_symmetry_equiv_pos_site_id
_symmetry_equiv_pos_as_xyz
1 x,y,z
2 -x,1/2+y,1/2-z
3 -x,-y,-z
4 x,1/2-y,1/2+z
_cell_length_a                   14.2394(4)
_cell_length_b                   26.1832(7)
_cell_length_c                   15.1396(4)
_cell_angle_alpha                90
_cell_angle_beta                 92.935(2)
_cell_angle_gamma                90
_cell_volume                     5637.14
_exptl_crystal_colour            colorless
_exptl_crystal_description       needle
_cell_formula_units_Z            4
loop_
_atom_site_label
_atom_site_type_symbol
_atom_site_fract_x
_atom_site_fract_y
_atom_site_fract_z
I1 I 0.54801(2) -0.12975(2) 0.35294(2)
I2 I 0.43081(2) 0.22585(2) 0.34377(2)
O1 O 0.81724(18) 0.05019(10) 0.25812(18)
H1 H 0.8373 0.0702 0.2982
C1 C 0.7170(3) 0.04798(13) 0.2574(2)
C2 C 0.6842(3) 0.01968(13) 0.3397(2)
C3 C 0.6846(2) 0.04020(12) 0.4235(2)
C4 C 0.6468(2) 0.00953(13) 0.4916(2)
C5 C 0.6422(3) 0.02605(15) 0.5801(2)
H2 H 0.6668 0.0587 0.5957
C6 C 0.6043(3) -0.00263(15) 0.6438(3)
H3 H 0.6021 0.0102 0.7023
C7 C 0.5682(3) -0.05136(15) 0.6233(3)
H4 H 0.5419 -0.0717 0.6677
C8 C 0.5715(3) -0.06920(14) 0.5390(3)
H5 H 0.5475 -0.1023 0.5259
C9 C 0.6094(2) -0.04019(13) 0.4702(2)
C10 C 0.6080(3) -0.05765(13) 0.3811(2)
C11 C 0.6424(3) -0.02794(13) 0.3157(2)
C12 C 0.6421(3) -0.03219(14) 0.2186(2)
C13 C 0.6123(4) -0.07065(17) 0.1605(3)
H6 H 0.5854 -0.1011 0.1821
C14 C 0.6222(4) -0.06421(18) 0.0713(3)
H7 H 0.5982 -0.0901 0.0323
C15 C 0.6656(4) -0.02176(17) 0.0345(3)
C16 C 0.7001(3) 0.01600(15) 0.0939(3)
C17 C 0.6827(3) 0.01128(14) 0.1839(2)
C18 C 0.6699(5) -0.0197(2) -0.0667(3)
C19 C 0.5751(5) -0.0399(2) -0.1099(3)
H8 H 0.5232 -0.0187 -0.0908
H9 H 0.5653 -0.0753 -0.0915
H10 H 0.5772 -0.0384 -0.1744
C20 C 0.7498(7) -0.0526(4) -0.0951(5)
H11 H 0.7492 -0.0538 -0.1598
H12 H 0.7426 -0.0873 -0.0719
H13 H 0.8097 -0.0382 -0.0719
C21 C 0.6971(12) 0.0285(6) -0.1069(12)
H14 H 0.7589 0.0390 -0.0818
H15 H 0.6505 0.0548 -0.0948
H16 H 0.7001 0.0240 -0.1709
C22 C 0.6698(3) 0.10097(13) 0.2621(2)
C23 C 0.6667(2) 0.12007(12) 0.3461(2)
C24 C 0.7177(2) 0.09668(13) 0.4277(2)
C25 C 0.6899(3) 0.13434(12) 0.4989(2)
C26 C 0.7319(3) 0.14027(13) 0.5839(2)
H17 H 0.7772 0.1160 0.6053
C27 C 0.7089(3) 0.18076(14) 0.6374(3)
C28 C 0.6454(3) 0.21715(14) 0.6017(3)
H18 H 0.6292 0.2456 0.6368
C29 C 0.6056(3) 0.21283(14) 0.5170(3)
H19 H 0.5632 0.2382 0.4946
C30 C 0.6275(2) 0.17152(13) 0.4643(2)
C31 C 0.6068(2) 0.16066(13) 0.3702(2)
C32 C 0.5410(3) 0.17771(14) 0.3069(3)
C33 C 0.5460(3) 0.16270(14) 0.2168(3)
C34 C 0.4831(3) 0.18185(15) 0.1478(3)
H20 H 0.4296 0.2012 0.1625
C35 C 0.4989(3) 0.17277(16) 0.0617(3)
H21 H 0.4543 0.1838 0.0169
C36 C 0.5805(3) 0.14726(17) 0.0382(3)
H22 H 0.5949 0.1451 -0.0222
C37 C 0.6402(3) 0.12530(14) 0.1020(3)
C38 C 0.6186(3) 0.12815(14) 0.1926(2)
C39 C 0.7508(3) 0.18602(16) 0.7323(3)
C40 C 0.8168(9) 0.1437(4) 0.7607(6)
H23 H 0.8691 0.1424 0.7212
H24 H 0.7830 0.1110 0.7582
H25 H 0.8413 0.1499 0.8214
C41 C 0.6667(8) 0.1824(5) 0.7969(6)
H26 H 0.6339 0.1498 0.7877
H27 H 0.6226 0.2106 0.7846
H28 H 0.6916 0.1846 0.8583
C42 C 0.7915(11) 0.2384(4) 0.7478(7)
H29 H 0.8251 0.2395 0.8059
H30 H 0.7407 0.2637 0.7459
H31 H 0.8353 0.2463 0.7018
C43 C 0.8255(2) 0.10133(13) 0.4263(2)
C44 C 0.8856(3) 0.06527(15) 0.4658(3)
H32 H 0.8606 0.0358 0.4925
C45 C 0.9824(3) 0.07231(17) 0.4662(4)
H33 H 1.0225 0.0473 0.4935
C46 C 1.0223(3) 0.11478(17) 0.4282(4)
C47 C 0.9607(3) 0.15077(16) 0.3898(3)
H34 H 0.9856 0.1806 0.3637
C48 C 0.8650(3) 0.14415(15) 0.3887(3)
H35 H 0.8250 0.1694 0.3618
C49 C 1.1297(4) 0.1211(2) 0.4261(5)
C50 C 1.1709(7) 0.1145(5) 0.5234(9)
H36 H 1.2386 0.1215 0.5258
H37 H 1.1600 0.0795 0.5432
H38 H 1.1398 0.1385 0.5622
C51 C 1.1576(6) 0.1718(5) 0.3884(12)
H39 H 1.2262 0.1752 0.3935
H40 H 1.1287 0.1994 0.4212
H41 H 1.1360 0.1736 0.3260
C52 C 1.1688(5) 0.0777(4) 0.3731(9)
H42 H 1.1369 0.0770 0.3142
H43 H 1.1583 0.0453 0.4034
H44 H 1.2364 0.0829 0.3674
C53 C 0.7367(3) 0.10896(16) 0.0783(2)
C54 C 0.8017(3) 0.14799(17) 0.0636(3)
H45 H 0.7818 0.1825 0.0669
C55 C 0.8946(4) 0.13776(19) 0.0445(3)
C56 C 0.9196(4) 0.0864(2) 0.0396(3)
H46 H 0.9824 0.0779 0.0270
C57 C 0.8563(4) 0.04766(19) 0.0524(3)
H47 H 0.8760 0.0131 0.0481
C58 C 0.7640(3) 0.05846(16) 0.0713(2)
C59 C 0.9672(4) 0.1804(2) 0.0371(4)
C60 C 1.0208(6) 0.1848(3) 0.1254(5)
H48 H 1.0606 0.2154 0.1257
H49 H 1.0603 0.1545 0.1353
H50 H 0.9763 0.1875 0.1725
C61 C 0.9229(5) 0.2311(2) 0.0139(5)
H51 H 0.8792 0.2405 0.0592
H52 H 0.8885 0.2286 -0.0437
H53 H 0.9720 0.2572 0.0112
C62 C 1.0344(6) 0.1677(3) -0.0368(6)
H54 H 1.0755 0.1971 -0.0461
H55 H 0.9976 0.1602 -0.0917
H56 H 1.0728 0.1380 -0.0194
C70 C 1.0275(11) 0.0426(6) 0.7135(13)
H78 H 0.9944 0.0606 0.6636
H79 H 1.0599 0.0120 0.6912
Cl1 Cl 1.1062(5) 0.0837(3) 0.7757(6)
Cl2 Cl 0.9511(4) 0.0271(2) 0.7983(5)
C63? C 0.6577(17) 0.0396(7) -0.0996(14)
H57? H 0.7127 0.0595 -0.0784
H58? H 0.6009 0.0542 -0.0757
H59? H 0.6522 0.0407 -0.1644
C64? C 0.8644(10) 0.1827(7) 0.7251(10)
H60? H 0.8935 0.1718 0.7821
H61? H 0.8888 0.2164 0.7097
H62? H 0.8793 0.1580 0.6793
C65? C 0.7264(13) 0.1413(5) 0.7846(9)
H63? H 0.7502 0.1459 0.8459
H64? H 0.7547 0.1107 0.7599
H65? H 0.6578 0.1374 0.7829
C66? C 0.7316(16) 0.2346(6) 0.7756(11)
H66? H 0.6639 0.2377 0.7832
H67? H 0.7526 0.2628 0.7390
H68? H 0.7654 0.2357 0.8336
C67? C 1.185(2) 0.0911(15) 0.489(3)
H69? H 1.2523 0.0980 0.4820
H70? H 1.1692 0.1000 0.5491
H71? H 1.1729 0.0547 0.4784
C68? C 1.1549(14) 0.1742(11) 0.473(2)
H72? H 1.1230 0.2020 0.4404
H73? H 1.1340 0.1736 0.5340
H74? H 1.2230 0.1796 0.4744
C69? C 1.1592(16) 0.1300(14) 0.327(2)
H75? H 1.1120 0.1514 0.2952
H76? H 1.2205 0.1470 0.3272
H77? H 1.1631 0.0969 0.2966
loop_
_geom_bond_atom_site_label_1
_geom_bond_atom_site_label_2
_geom_bond_site_symmetry_1
_geom_bond_site_symmetry_2
I1 C10 1_555 1_555
I2 C32 1_555 1_555
O1 H1 1_555 1_555
C1 O1 1_555 1_555
C2 C1 1_555 1_555
C3 C2 1_555 1_555
C4 C3 1_555 1_555
C5 C4 1_555 1_555
H2 C5 1_555 1_555
C6 C5 1_555 1_555
H3 C6 1_555 1_555
C7 C6 1_555 1_555
H4 C7 1_555 1_555
C8 C7 1_555 1_555
H5 C8 1_555 1_555
C9 C4 1_555 1_555
C10 C9 1_555 1_555
C11 C2 1_555 1_555
C12 C11 1_555 1_555
C13 C12 1_555 1_555
H6 C13 1_555 1_555
C14 C13 1_555 1_555
H7 C14 1_555 1_555
C15 C14 1_555 1_555
C16 C15 1_555 1_555
C17 C1 1_555 1_555
C18 C15 1_555 1_555
C19 C18 1_555 1_555
H8 C19 1_555 1_555
H9 C19 1_555 1_555
H10 C19 1_555 1_555
C20 C18 1_555 1_555
H11 C20 1_555 1_555
H12 C20 1_555 1_555
H13 C20 1_555 1_555
C21 C18 1_555 1_555
H14 C21 1_555 1_555
H15 C21 1_555 1_555
H16 C21 1_555 1_555
C22 C1 1_555 1_555
C23 C22 1_555 1_555
C24 C3 1_555 1_555
C25 C24 1_555 1_555
C26 C25 1_555 1_555
H17 C26 1_555 1_555
C27 C26 1_555 1_555
C28 C27 1_555 1_555
H18 C28 1_555 1_555
C29 C28 1_555 1_555
H19 C29 1_555 1_555
C30 C25 1_555 1_555
C31 C23 1_555 1_555
C32 C31 1_555 1_555
C33 C32 1_555 1_555
C34 C33 1_555 1_555
H20 C34 1_555 1_555
C35 C34 1_555 1_555
H21 C35 1_555 1_555
C36 C35 1_555 1_555
H22 C36 1_555 1_555
C37 C36 1_555 1_555
C38 C22 1_555 1_555
C39 C27 1_555 1_555
C40 C39 1_555 1_555
H23 C40 1_555 1_555
H24 C40 1_555 1_555
H25 C40 1_555 1_555
C41 C39 1_555 1_555
H26 C41 1_555 1_555
H27 C41 1_555 1_555
H28 C41 1_555 1_555
C42 C39 1_555 1_555
H29 C42 1_555 1_555
H30 C42 1_555 1_555
H31 C42 1_555 1_555
C43 C24 1_555 1_555
C44 C43 1_555 1_555
H32 C44 1_555 1_555
C45 C44 1_555 1_555
H33 C45 1_555 1_555
C46 C45 1_555 1_555
C47 C46 1_555 1_555
H34 C47 1_555 1_555
C48 C43 1_555 1_555
H35 C48 1_555 1_555
C49 C46 1_555 1_555
C50 C49 1_555 1_555
H36 C50 1_555 1_555
H37 C50 1_555 1_555
H38 C50 1_555 1_555
C51 C49 1_555 1_555
H39 C51 1_555 1_555
H40 C51 1_555 1_555
H41 C51 1_555 1_555
C52 C49 1_555 1_555
H42 C52 1_555 1_555
H43 C52 1_555 1_555
H44 C52 1_555 1_555
C53 C37 1_555 1_555
C54 C53 1_555 1_555
H45 C54 1_555 1_555
C55 C54 1_555 1_555
C56 C55 1_555 1_555
H46 C56 1_555 1_555
C57 C56 1_555 1_555
H47 C57 1_555 1_555
C58 C16 1_555 1_555
C59 C55 1_555 1_555
C60 C59 1_555 1_555
H48 C60 1_555 1_555
H49 C60 1_555 1_555
H50 C60 1_555 1_555
C61 C59 1_555 1_555
H51 C61 1_555 1_555
H52 C61 1_555 1_555
H53 C61 1_555 1_555
C62 C59 1_555 1_555
H54 C62 1_555 1_555
H55 C62 1_555 1_555
H56 C62 1_555 1_555
C70 H78 1_555 1_555
H79 C70 1_555 1_555
Cl1 C70 1_555 1_555
Cl2 C70 1_555 1_555
C8 C9 1_555 1_555
C10 C11 1_555 1_555
C12 C17 1_555 1_555
C16 C17 1_555 1_555
C23 C24 1_555 1_555
C29 C30 1_555 1_555
C30 C31 1_555 1_555
C33 C38 1_555 1_555
C37 C38 1_555 1_555
C47 C48 1_555 1_555
C53 C58 1_555 1_555
C57 C58 1_555 1_555

#END
