
#######################################################################
#
#                 Cambridge Crystallographic Data Centre
#                                CCDC 
#
#######################################################################
#
# If this CIF has been generated from an entry in the Cambridge 
# Structural Database, then it will include bibliographic, chemical, 
# crystal, experimental, refinement or atomic coordinate data resulting 
# from the CCDC's data processing and validation procedures.
#
#######################################################################

data_EJASUE
_chemical_compound_source        'Garcia parviflora'
_chemical_name_common            1beta-hydroxyfriedelin
_chemical_formula_moiety         'C30 H50 O2'
_chemical_name_systematic        
1-Hydroxy-4,4a,6b,8a,11,11,12b,14a-octamethylicosahydropicen-3(2H)-one
_chemical_properties_biological  'cytotoxic evaluation'
_symmetry_cell_setting           orthorhombic
_symmetry_space_group_name_H-M   'P 21 21 21'
_symmetry_Int_Tables_number      19
_space_group_name_Hall           'P 2ac 2ab'
loop_
_symmetry_equiv_pos_site_id
_symmetry_equiv_pos_as_xyz
1 x,y,z
2 1/2-x,-y,1/2+z
3 -x,1/2+y,1/2-z
4 1/2+x,1/2-y,-z
_cell_length_a                   6.230(3)
_cell_length_b                   14.029(8)
_cell_length_c                   29.261(16)
_cell_angle_alpha                90
_cell_angle_beta                 90
_cell_angle_gamma                90
_cell_volume                     2557.43
_exptl_crystal_colour            colorless
_exptl_crystal_description       prism
_cell_formula_units_Z            4
loop_
_atom_site_label
_atom_site_type_symbol
_atom_site_fract_x
_atom_site_fract_y
_atom_site_fract_z
O1 O 0.6183(8) 0.3640(3) 0.96008(17)
H1 H 0.597(13) 0.311(6) 0.955(3)
O2 O 1.0427(9) 0.3316(3) 1.04835(15)
C1 C 0.8259(10) 0.3821(4) 0.9398(2)
H2 H 0.8266 0.3564 0.9079
C2 C 1.0026(12) 0.3335(5) 0.9670(2)
H3 H 0.9653 0.2654 0.9711
H4 H 1.1382 0.3366 0.9494
C3 C 1.0368(11) 0.3773(5) 1.0124(2)
C4 C 1.0742(11) 0.4847(4) 1.0125(2)
H5 H 1.2068 0.4950 0.9939
C5 C 0.8896(10) 0.5385(4) 0.9862(2)
C6 C 0.9631(11) 0.6431(4) 0.9792(2)
H6 H 0.9524 0.6771 1.0088
H7 H 1.1160 0.6432 0.9700
C7 C 0.8331(12) 0.6979(4) 0.9434(2)
H8 H 0.8914 0.7632 0.9402
H9 H 0.6819 0.7030 0.9535
C8 C 0.8422(11) 0.6467(4) 0.8967(2)
H10 H 0.9979 0.6325 0.8919
C9 C 0.7329(11) 0.5467(4) 0.9009(2)
C10 C 0.8674(10) 0.4910(4) 0.9381(2)
H11 H 1.0169 0.4949 0.9257
C11 C 0.7584(11) 0.4954(4) 0.85466(19)
H12 H 0.9108 0.4774 0.8506
H13 H 0.6728 0.4359 0.8553
C12 C 0.6881(11) 0.5550(4) 0.8137(2)
H14 H 0.5327 0.5688 0.8165
H15 H 0.7097 0.5174 0.7855
C13 C 0.8102(11) 0.6494(4) 0.8094(2)
C14 C 0.7765(10) 0.7082(4) 0.8546(2)
C15 C 0.9226(11) 0.7989(5) 0.8527(2)
H16 H 0.8533 0.8499 0.8708
H17 H 1.0610 0.7836 0.8676
C16 C 0.9707(12) 0.8390(5) 0.8039(2)
H18 H 0.9786 0.9093 0.8062
H19 H 1.1150 0.8163 0.7948
C17 C 0.8150(10) 0.8147(4) 0.7651(2)
C18 C 0.7302(11) 0.7076(4) 0.7672(2)
H20 H 0.5705 0.7115 0.7701
C19 C 0.7758(12) 0.6520(5) 0.7224(2)
H21 H 0.9306 0.6361 0.7216
H22 H 0.6957 0.5911 0.7236
C20 C 0.7180(12) 0.7026(5) 0.6771(2)
C21 C 0.8005(15) 0.8058(6) 0.6776(2)
H23 H 0.8871 0.8172 0.6498
H24 H 0.6764 0.8498 0.6768
C22 C 0.9365(13) 0.8278(5) 0.7195(2)
H25 H 0.9881 0.8944 0.7175
H26 H 1.0638 0.7855 0.7195
C23 C 1.1265(13) 0.5227(5) 1.0598(2)
H27 H 1.2521 0.4891 1.0719
H28 H 1.0035 0.5124 1.0801
H29 H 1.1575 0.5910 1.0578
C24 C 0.6851(11) 0.5377(5) 1.0158(2)
H30 H 0.7116 0.5728 1.0442
H31 H 0.6462 0.4717 1.0231
H32 H 0.5673 0.5679 0.9990
C25 C 0.4892(11) 0.5481(5) 0.9124(2)
H33 H 0.4059 0.5475 0.8840
H34 H 0.4554 0.6059 0.9298
H35 H 0.4529 0.4918 0.9307
C26 C 0.5410(11) 0.7424(5) 0.8597(2)
H36 H 0.4444 0.6873 0.8585
H37 H 0.5059 0.7864 0.8348
H38 H 0.5237 0.7752 0.8891
C27 C 1.0523(10) 0.6236(5) 0.8027(2)
H39 H 1.1122 0.6008 0.8316
H40 H 1.1311 0.6803 0.7926
H41 H 1.0652 0.5735 0.7795
C28 C 0.6279(12) 0.8865(5) 0.7659(3)
H42 H 0.6744 0.9467 0.7520
H43 H 0.5837 0.8980 0.7975
H44 H 0.5066 0.8606 0.7485
C29 C 0.4751(13) 0.7001(7) 0.6698(3)
H45 H 0.4384 0.7369 0.6424
H46 H 0.4029 0.7278 0.6964
H47 H 0.4283 0.6339 0.6658
C30 C 0.8279(14) 0.6459(6) 0.6387(2)
H48 H 0.7846 0.6719 0.6090
H49 H 0.7851 0.5788 0.6407
H50 H 0.9841 0.6509 0.6420
loop_
_geom_bond_atom_site_label_1
_geom_bond_atom_site_label_2
_geom_bond_site_symmetry_1
_geom_bond_site_symmetry_2
O1 H1 1_555 1_555
O2 C3 1_555 1_555
C1 O1 1_555 1_555
H2 C1 1_555 1_555
C2 C1 1_555 1_555
H3 C2 1_555 1_555
H4 C2 1_555 1_555
C3 C2 1_555 1_555
C4 C3 1_555 1_555
H5 C4 1_555 1_555
C5 C4 1_555 1_555
C6 C5 1_555 1_555
H6 C6 1_555 1_555
H7 C6 1_555 1_555
C7 C6 1_555 1_555
H8 C7 1_555 1_555
H9 C7 1_555 1_555
C8 C7 1_555 1_555
H10 C8 1_555 1_555
C9 C8 1_555 1_555
C10 C1 1_555 1_555
H11 C10 1_555 1_555
C11 C9 1_555 1_555
H12 C11 1_555 1_555
H13 C11 1_555 1_555
C12 C11 1_555 1_555
H14 C12 1_555 1_555
H15 C12 1_555 1_555
C13 C12 1_555 1_555
C14 C8 1_555 1_555
C15 C14 1_555 1_555
H16 C15 1_555 1_555
H17 C15 1_555 1_555
C16 C15 1_555 1_555
H18 C16 1_555 1_555
H19 C16 1_555 1_555
C17 C16 1_555 1_555
C18 C13 1_555 1_555
H20 C18 1_555 1_555
C19 C18 1_555 1_555
H21 C19 1_555 1_555
H22 C19 1_555 1_555
C20 C19 1_555 1_555
C21 C20 1_555 1_555
H23 C21 1_555 1_555
H24 C21 1_555 1_555
C22 C17 1_555 1_555
H25 C22 1_555 1_555
H26 C22 1_555 1_555
C23 C4 1_555 1_555
H27 C23 1_555 1_555
H28 C23 1_555 1_555
H29 C23 1_555 1_555
C24 C5 1_555 1_555
H30 C24 1_555 1_555
H31 C24 1_555 1_555
H32 C24 1_555 1_555
C25 C9 1_555 1_555
H33 C25 1_555 1_555
H34 C25 1_555 1_555
H35 C25 1_555 1_555
C26 C14 1_555 1_555
H36 C26 1_555 1_555
H37 C26 1_555 1_555
H38 C26 1_555 1_555
C27 C13 1_555 1_555
H39 C27 1_555 1_555
H40 C27 1_555 1_555
H41 C27 1_555 1_555
C28 C17 1_555 1_555
H42 C28 1_555 1_555
H43 C28 1_555 1_555
H44 C28 1_555 1_555
C29 C20 1_555 1_555
H45 C29 1_555 1_555
H46 C29 1_555 1_555
H47 C29 1_555 1_555
C30 C20 1_555 1_555
H48 C30 1_555 1_555
H49 C30 1_555 1_555
H50 C30 1_555 1_555
C5 C10 1_555 1_555
C9 C10 1_555 1_555
C13 C14 1_555 1_555
C17 C18 1_555 1_555
C21 C22 1_555 1_555

#END
