
#######################################################################
#
#                 Cambridge Crystallographic Data Centre
#                                CCDC 
#
#######################################################################
#
# If this CIF has been generated from an entry in the Cambridge 
# Structural Database, then it will include bibliographic, chemical, 
# crystal, experimental, refinement or atomic coordinate data resulting 
# from the CCDC's data processing and validation procedures.
#
#######################################################################

data_EJAXOD
_chemical_compound_source        'Xylocarpus granatum'
_chemical_name_common            'Hainangranatumin A'
_chemical_formula_moiety         'C32 H40 O10'
_chemical_name_systematic        
'(1-(3-Furyl)-5-hydroxy-8a-methyl-3,6-dioxo-3,5,6,7,8,8a-hexahydro-1H-isochromen-5-yl)(4-(2-methoxy-2-oxoethyl)-3,3,5-trimethyl-6-oxocyclohex-1-en-1-yl)methyl 2-methylbutanoate'
_symmetry_cell_setting           monoclinic
_symmetry_space_group_name_H-M   'P 21'
_symmetry_Int_Tables_number      4
_space_group_name_Hall           'P 2yb'
loop_
_symmetry_equiv_pos_site_id
_symmetry_equiv_pos_as_xyz
1 x,y,z
2 -x,1/2+y,-z
_cell_length_a                   8.1004(4)
_cell_length_b                   16.0763(8)
_cell_length_c                   11.7961(6)
_cell_angle_alpha                90
_cell_angle_beta                 99.6400(10)
_cell_angle_gamma                90
_cell_volume                     1514.45
_exptl_crystal_colour            colorless
_exptl_crystal_description       block
_cell_formula_units_Z            2
loop_
_atom_site_label
_atom_site_type_symbol
_atom_site_fract_x
_atom_site_fract_y
_atom_site_fract_z
C1 C 0.4026(3) 0.77425(16) 0.6459(2)
C2 C 0.4931(3) 0.69763(16) 0.6888(2)
C3 C 0.4624(3) 0.62511(17) 0.6353(2)
H1 H 0.5278 0.5788 0.6662
C4 C 0.3321(3) 0.60982(18) 0.5294(2)
C5 C 0.2067(3) 0.68258(17) 0.5105(2)
H2 H 0.1329 0.6774 0.5701
C6 C 0.0922(3) 0.6774(2) 0.3922(2)
H3 H 0.1396 0.7128 0.3370
H4 H 0.0914 0.6193 0.3641
C7 C -0.0855(3) 0.70421(17) 0.39444(19)
C8 C 0.8018(3) 0.72529(15) 0.77575(19)
C9 C 0.7970(3) 0.81285(16) 0.7212(2)
C10 C 0.2933(3) 0.76867(17) 0.5277(2)
H5 H 0.3694 0.7733 0.4694
C11 C 0.8018(4) 0.88764(15) 0.7979(2)
H6 H 0.6899 0.9141 0.7849
H7 H 0.8823 0.9283 0.7755
C12 C 0.8514(3) 0.86876(15) 0.9266(2)
H8 H 0.7513 0.8501 0.9575
H9 H 0.8932 0.9203 0.9676
C13 C 0.9871(3) 0.80139(14) 0.9493(2)
C14 C 0.9246(3) 0.72089(15) 0.8894(2)
C15 C 0.9798(3) 0.64828(15) 0.9331(2)
H10 H 0.9422 0.5990 0.8924
C16 C 1.0976(3) 0.64103(15) 1.0428(2)
C17 C 1.0225(3) 0.78247(15) 1.0797(2)
H11 H 0.9136 0.7697 1.1052
C18 C 1.1479(3) 0.82784(17) 0.9054(2)
H12 H 1.2376 0.7881 0.9325
H13 H 1.1813 0.8835 0.9345
H14 H 1.1270 0.8287 0.8211
C19 C 0.1726(4) 0.84198(19) 0.5086(3)
H15 H 0.0895 0.8368 0.5598
H16 H 0.1156 0.8423 0.4285
H17 H 0.2350 0.8940 0.5253
C20 C 1.1069(3) 0.85117(16) 1.15387(19)
C21 C 1.2697(4) 0.85475(18) 1.1992(2)
H18 H 1.3500 0.8138 1.1882
C22 C 1.0337(4) 0.92462(17) 1.1931(2)
H19 H 0.9192 0.9405 1.1762
C23 C 1.1579(4) 0.96682(17) 1.2582(2)
H20 H 1.1448 1.0183 1.2953
C24 C 0.2408(4) 0.5284(2) 0.5505(3)
H21 H 0.3221 0.4828 0.5644
H22 H 0.1569 0.5154 0.4828
H23 H 0.1854 0.5351 0.6177
C25 C 0.4262(4) 0.5964(2) 0.4275(3)
H24 H 0.4832 0.6480 0.4124
H25 H 0.3462 0.5807 0.3591
H26 H 0.5090 0.5519 0.4465
C26 C 0.6194(3) 0.70588(15) 0.79887(19)
H27 H 0.5826 0.7499 0.8491
C27 C -0.3103(4) 0.7866(2) 0.3060(3)
H28 H -0.3858 0.7403 0.2798
H29 H -0.3327 0.8330 0.2518
H30 H -0.3285 0.8047 0.3823
C28 C 0.5943(3) 0.62278(17) 0.9645(2)
C29 C 0.5982(3) 0.53275(18) 1.0033(2)
H31 H 0.7028 0.5071 0.9846
C30 C 0.6039(4) 0.5250(2) 1.1329(3)
H32 H 0.5109 0.5579 1.1549
H33 H 0.5857 0.4661 1.1518
C31 C 0.7677(5) 0.5543(2) 1.2035(3)
H34 H 0.8614 0.5260 1.1770
H35 H 0.7687 0.5413 1.2848
H36 H 0.7788 0.6145 1.1943
C32 C 0.4495(4) 0.4862(2) 0.9350(3)
H37 H 0.3449 0.5109 0.9504
H38 H 0.4544 0.4276 0.9580
H39 H 0.4540 0.4903 0.8526
O1 O 0.4170(3) 0.83801(12) 0.70175(17)
O2 O -0.1714(2) 0.67678(14) 0.45929(15)
O3 O -0.1391(2) 0.75973(14) 0.31231(17)
O4 O 0.8487(2) 0.66543(10) 0.70000(13)
H40 H 0.8264 0.6832 0.6322
O5 O 0.7886(3) 0.81834(12) 0.61876(15)
O6 O 1.1645(2) 0.57692(11) 1.07765(17)
O7 O 1.1322(2) 0.71122(10) 1.10548(14)
O8 O 1.3048(3) 0.92523(13) 1.26344(17)
O9 O 0.6270(2) 0.62639(11) 0.85605(14)
O10 O 0.5652(3) 0.68325(14) 1.01694(18)
loop_
_geom_bond_atom_site_label_1
_geom_bond_atom_site_label_2
_geom_bond_site_symmetry_1
_geom_bond_site_symmetry_2
C1 C2 1_555 1_555
C2 C3 1_555 1_555
C3 H1 1_555 1_555
C4 C3 1_555 1_555
C5 C4 1_555 1_555
H2 C5 1_555 1_555
C6 C5 1_555 1_555
H3 C6 1_555 1_555
H4 C6 1_555 1_555
C7 C6 1_555 1_555
C8 C9 1_555 1_555
C9 C11 1_555 1_555
C10 C1 1_555 1_555
H5 C10 1_555 1_555
C11 H6 1_555 1_555
H7 C11 1_555 1_555
C12 C11 1_555 1_555
H8 C12 1_555 1_555
H9 C12 1_555 1_555
C13 C12 1_555 1_555
C14 C8 1_555 1_555
C15 C14 1_555 1_555
H10 C15 1_555 1_555
C16 C15 1_555 1_555
C17 C13 1_555 1_555
H11 C17 1_555 1_555
C18 C13 1_555 1_555
H12 C18 1_555 1_555
H13 C18 1_555 1_555
H14 C18 1_555 1_555
C19 C10 1_555 1_555
H15 C19 1_555 1_555
H16 C19 1_555 1_555
H17 C19 1_555 1_555
C20 C17 1_555 1_555
C21 C20 1_555 1_555
H18 C21 1_555 1_555
C22 C20 1_555 1_555
H19 C22 1_555 1_555
C23 C22 1_555 1_555
H20 C23 1_555 1_555
C24 C4 1_555 1_555
H21 C24 1_555 1_555
H22 C24 1_555 1_555
H23 C24 1_555 1_555
C25 C4 1_555 1_555
H24 C25 1_555 1_555
H25 C25 1_555 1_555
H26 C25 1_555 1_555
C26 C2 1_555 1_555
H27 C26 1_555 1_555
C27 H28 1_555 1_555
H29 C27 1_555 1_555
H30 C27 1_555 1_555
C28 C29 1_555 1_555
C29 H31 1_555 1_555
C30 C29 1_555 1_555
H32 C30 1_555 1_555
H33 C30 1_555 1_555
C31 C30 1_555 1_555
H34 C31 1_555 1_555
H35 C31 1_555 1_555
H36 C31 1_555 1_555
C32 C29 1_555 1_555
H37 C32 1_555 1_555
H38 C32 1_555 1_555
H39 C32 1_555 1_555
O1 C1 1_555 1_555
O2 C7 1_555 1_555
O3 C7 1_555 1_555
O4 C8 1_555 1_555
H40 O4 1_555 1_555
O5 C9 1_555 1_555
O6 C16 1_555 1_555
O7 C16 1_555 1_555
O8 C21 1_555 1_555
O9 C26 1_555 1_555
O10 C28 1_555 1_555
C5 C10 1_555 1_555
C8 C26 1_555 1_555
C13 C14 1_555 1_555
C17 O7 1_555 1_555
C23 O8 1_555 1_555
C27 O3 1_555 1_555
C28 O9 1_555 1_555

#END
