
#######################################################################
#
#                 Cambridge Crystallographic Data Centre
#                                CCDC 
#
#######################################################################
#
# If this CIF has been generated from an entry in the Cambridge 
# Structural Database, then it will include bibliographic, chemical, 
# crystal, experimental, refinement or atomic coordinate data resulting 
# from the CCDC's data processing and validation procedures.
#
#######################################################################

data_EJAXAP
_chemical_compound_source        'cyclea racemosa'
_chemical_name_common            'Racemosidine A monohydrate'
_chemical_formula_moiety         'C37 H38 N2 O6,H2 O1'
_chemical_name_systematic        
'26,37-Dimethoxy-15,31-dimethyl-8,24,34-trioxa-15,31-diazaoctacyclo[19.10.3.2^9,12^.1^3,7^.1^18,22^.0^11,16^.0^25,33^.0^28,32^]octatriaconta-3(38),4,6,9,11,18(35),19,21,25,27,32,36-dodecaen-6-ol monohydrate'
_chemical_properties_biological  'cytotoxicity against tumour cells'
_symmetry_cell_setting           monoclinic
_symmetry_space_group_name_H-M   'P 21'
_symmetry_Int_Tables_number      4
_space_group_name_Hall           'P 2yb'
loop_
_symmetry_equiv_pos_site_id
_symmetry_equiv_pos_as_xyz
1 x,y,z
2 -x,1/2+y,-z
_cell_length_a                   10.9877(2)
_cell_length_b                   9.8470(3)
_cell_length_c                   15.1430(3)
_cell_angle_alpha                90
_cell_angle_beta                 102.414(2)
_cell_angle_gamma                90
_cell_volume                     1600.1
_exptl_crystal_colour            colorless
_exptl_crystal_description       block
_chemical_melting_point          '273-275 deg.C'
_cell_formula_units_Z            2
loop_
_atom_site_label
_atom_site_type_symbol
_atom_site_fract_x
_atom_site_fract_y
_atom_site_fract_z
O1 O 0.61295(9) 0.71488(13) 0.65118(7)
O2 O 0.03988(12) 0.67111(15) 0.83726(8)
O3 O 0.56816(11) 0.46362(12) 0.71320(7)
O4 O 0.15713(13) 1.10040(16) 0.85555(10)
H1 H 0.1250 1.0290 0.8666
O5 O 0.21094(10) 0.83509(13) 0.80317(7)
O6 O 0.58805(14) 0.41535(14) 0.88971(8)
N1 N -0.09150(12) 0.81948(16) 0.41610(8)
C1 C 0.12161(13) 0.79239(17) 0.72897(9)
C2 C 0.60449(14) 0.56739(18) 0.77436(10)
C3 C 0.47505(14) 1.03048(17) 0.75310(10)
C4 C 0.02673(14) 0.70984(18) 0.74815(10)
C5 C 0.28724(14) 0.94442(17) 0.79208(9)
C6 C 0.03473(14) 0.81015(18) 0.47266(9)
H2 H 0.0738 0.8995 0.4718
C7 C 0.68527(14) 0.77529(18) 0.89587(11)
C8 C 0.12264(13) 0.82424(17) 0.64041(9)
H3 H 0.1880 0.8752 0.6277
C9 C 0.39344(14) 0.92389(18) 0.75872(10)
H4 H 0.4108 0.8376 0.7397
C10 C 0.11848(16) 0.7050(2) 0.43634(10)
H5 H 0.0820 0.6155 0.4375
H6 H 0.1180 0.7266 0.3738
C11 C 0.41045(15) 0.59487(18) 0.60728(10)
C12 C 0.49311(14) 0.69793(18) 0.59700(9)
C13 C 0.67203(13) 0.80151(18) 0.80392(10)
C14 C -0.18812(14) 0.6829(2) 0.51624(11)
H7 H -0.2537 0.7455 0.5229
H8 H -0.2173 0.5916 0.5240
C15 C 0.62774(13) 0.69411(18) 0.74411(10)
C16 C -0.16447(15) 0.69634(19) 0.42203(11)
H9 H -0.1194 0.6174 0.4079
H10 H -0.2432 0.7012 0.3785
C17 C -0.07414(13) 0.71103(17) 0.58944(10)
C18 C 0.70415(15) 0.9381(2) 0.76924(11)
H11 H 0.7584 0.9188 0.7271
C19 C 0.61763(16) 0.54301(18) 0.86702(11)
N2 N 0.78107(14) 1.01711(16) 0.84426(11)
C20 C 0.25186(15) 0.6998(2) 0.48835(10)
C21 C 0.25961(15) 1.07295(19) 0.82224(10)
C22 C 0.58833(16) 1.0120(2) 0.71284(11)
H12 H 0.6149 1.1014 0.6977
H13 H 0.5622 0.9628 0.6565
C23 C 0.43925(17) 0.4761(2) 0.67070(11)
H14 H 0.3913 0.4850 0.7172
H15 H 0.4126 0.3934 0.6373
C24 C 0.44711(16) 1.15726(18) 0.78373(11)
H16 H 0.5001 1.2300 0.7809
C25 C 0.02688(13) 0.78111(16) 0.56958(10)
C26 C 0.34025(16) 0.7943(2) 0.47460(10)
H17 H 0.3191 0.8586 0.4289
C27 C 0.65803(17) 0.64735(19) 0.92656(10)
H18 H 0.6674 0.6325 0.9883
C28 C -0.07181(14) 0.67495(18) 0.67879(11)
H19 H -0.1382 0.6262 0.6920
C29 C 0.72777(17) 1.0237(2) 0.92466(13)
H20 H 0.6424 1.0558 0.9083
H21 H 0.7752 1.0865 0.9681
C30 C 0.29048(15) 0.5995(2) 0.55270(10)
H22 H 0.2339 0.5322 0.5598
C31 C 0.73124(18) 0.8832(2) 0.96597(12)
H23 H 0.8161 0.8622 0.9966
H24 H 0.6799 0.8824 1.0107
C32 C 0.34194(17) 1.17717(19) 0.81828(11)
H25 H 0.3264 1.2628 0.8393
C33 C 0.45958(16) 0.7935(2) 0.52855(11)
H26 H 0.5176 0.8574 0.5188
C34 C 0.6094(2) 0.3831(2) 0.98301(13)
H27 H 0.6968 0.3902 1.0093
H28 H 0.5818 0.2920 0.9902
H29 H 0.5640 0.4451 1.0127
C35 C -0.0402(2) 0.5674(2) 0.85730(14)
H30 H -0.1253 0.5968 0.8396
H31 H -0.0204 0.5490 0.9210
H32 H -0.0289 0.4863 0.8247
C36 C -0.09314(19) 0.8573(2) 0.32314(12)
H33 H -0.0666 0.7815 0.2921
H34 H -0.0378 0.9325 0.3224
H35 H -0.1762 0.8829 0.2935
C37 C 0.8175(2) 1.1515(3) 0.81699(18)
H36 H 0.7461 1.2103 0.8055
H37 H 0.8496 1.1431 0.7631
H38 H 0.8806 1.1891 0.8646
O7 O 0.02198(14) 0.9227(2) 0.92122(11)
H39 H -0.0557(14) 0.941(3) 0.896(2)
H40 H 0.033(3) 0.8403(15) 0.9026(19)
loop_
_geom_bond_atom_site_label_1
_geom_bond_atom_site_label_2
_geom_bond_site_symmetry_1
_geom_bond_site_symmetry_2
O1 C12 1_555 1_555
O2 C4 1_555 1_555
O3 C2 1_555 1_555
O4 H1 1_555 1_555
O5 C1 1_555 1_555
O6 C19 1_555 1_555
N1 C6 1_555 1_555
C1 C4 1_555 1_555
C2 C15 1_555 1_555
C3 C9 1_555 1_555
C4 C28 1_555 1_555
C5 O5 1_555 1_555
C6 H2 1_555 1_555
C7 C13 1_555 1_555
C8 C1 1_555 1_555
H3 C8 1_555 1_555
C9 C5 1_555 1_555
H4 C9 1_555 1_555
C10 C6 1_555 1_555
H5 C10 1_555 1_555
H6 C10 1_555 1_555
C11 C12 1_555 1_555
C12 C33 1_555 1_555
C13 C15 1_555 1_555
C14 H7 1_555 1_555
H8 C14 1_555 1_555
C15 O1 1_555 1_555
C16 N1 1_555 1_555
H9 C16 1_555 1_555
H10 C16 1_555 1_555
C17 C14 1_555 1_555
C18 C13 1_555 1_555
H11 C18 1_555 1_555
C19 C2 1_555 1_555
N2 C18 1_555 1_555
C20 C10 1_555 1_555
C21 O4 1_555 1_555
C22 C3 1_555 1_555
H12 C22 1_555 1_555
H13 C22 1_555 1_555
C23 O3 1_555 1_555
H14 C23 1_555 1_555
H15 C23 1_555 1_555
C24 C3 1_555 1_555
H16 C24 1_555 1_555
C25 C6 1_555 1_555
C26 C20 1_555 1_555
H17 C26 1_555 1_555
C27 C7 1_555 1_555
H18 C27 1_555 1_555
C28 C17 1_555 1_555
H19 C28 1_555 1_555
C29 N2 1_555 1_555
H20 C29 1_555 1_555
H21 C29 1_555 1_555
C30 C11 1_555 1_555
H22 C30 1_555 1_555
C31 C7 1_555 1_555
H23 C31 1_555 1_555
H24 C31 1_555 1_555
C32 C21 1_555 1_555
H25 C32 1_555 1_555
C33 C26 1_555 1_555
H26 C33 1_555 1_555
C34 O6 1_555 1_555
H27 C34 1_555 1_555
H28 C34 1_555 1_555
H29 C34 1_555 1_555
C35 O2 1_555 1_555
H30 C35 1_555 1_555
H31 C35 1_555 1_555
H32 C35 1_555 1_555
C36 N1 1_555 1_555
H33 C36 1_555 1_555
H34 C36 1_555 1_555
H35 C36 1_555 1_555
C37 N2 1_555 1_555
H36 C37 1_555 1_555
H37 C37 1_555 1_555
H38 C37 1_555 1_555
O7 H39 1_555 1_555
H40 O7 1_555 1_555
C5 C21 1_555 1_555
C8 C25 1_555 1_555
C11 C23 1_555 1_555
C14 C16 1_555 1_555
C17 C25 1_555 1_555
C18 C22 1_555 1_555
C19 C27 1_555 1_555
C20 C30 1_555 1_555
C24 C32 1_555 1_555
C29 C31 1_555 1_555

#END
