
#######################################################################
#
#                 Cambridge Crystallographic Data Centre
#                                CCDC 
#
#######################################################################
#
# If this CIF has been generated from an entry in the Cambridge 
# Structural Database, then it will include bibliographic, chemical, 
# crystal, experimental, refinement or atomic coordinate data resulting 
# from the CCDC's data processing and validation procedures.
#
#######################################################################

data_EJEHEI
_chemical_formula_moiety         'C26 H24 O2,C3 H6 O1'
_chemical_name_systematic        
'4b,8b,12b,12d-tetramethyl-4b,8b,12b,12d-tetrahydrodibenzo[2,3:4,5]pentaleno[1,6-ab]indene-1,2-diol acetone solvate'
_symmetry_cell_setting           monoclinic
_symmetry_space_group_name_H-M   'P 21/n'
_symmetry_Int_Tables_number      14
_space_group_name_Hall           '-P 2yn'
loop_
_symmetry_equiv_pos_site_id
_symmetry_equiv_pos_as_xyz
1 x,y,z
2 1/2-x,1/2+y,1/2-z
3 -x,-y,-z
4 1/2+x,1/2-y,1/2+z
_cell_length_a                   9.6832(6)
_cell_length_b                   15.9129(8)
_cell_length_c                   15.0454(9)
_cell_angle_alpha                90
_cell_angle_beta                 91.068(5)
_cell_angle_gamma                90
_cell_volume                     2317.91
_exptl_crystal_colour            'light yellow'
_exptl_crystal_description       block
_cell_formula_units_Z            4
loop_
_atom_site_label
_atom_site_type_symbol
_atom_site_fract_x
_atom_site_fract_y
_atom_site_fract_z
O1 O 0.9724(4) 0.58482(19) 0.3953(2)
O2 O 0.8507(3) 0.52758(17) 0.5427(2)
C1 C 0.5290(3) 0.89451(17) 0.44030(18)
H1 H 0.5318 0.8898 0.5019
C2 C 0.4082(3) 0.91613(18) 0.3965(2)
H2 H 0.3289 0.9256 0.4290
C3 C 0.4028(3) 0.92399(19) 0.3059(2)
H3 H 0.3207 0.9395 0.2774
C4 C 0.5195(3) 0.90894(18) 0.25677(18)
H4 H 0.5159 0.9136 0.1952
C5 C 0.6423(2) 0.88670(14) 0.30019(16)
C6 C 0.7794(2) 0.86917(15) 0.25830(15)
C7 C 0.7791(3) 0.78595(15) 0.20930(15)
C8 C 0.7041(3) 0.7656(2) 0.13221(17)
H5 H 0.6455 0.8049 0.1056
C9 C 0.7180(4) 0.6868(2) 0.09604(19)
H6 H 0.6674 0.6725 0.0451
C10 C 0.8058(4) 0.6289(2) 0.1345(2)
H7 H 0.8153 0.5761 0.1088
C11 C 0.8797(3) 0.64814(17) 0.21059(18)
H8 H 0.9389 0.6088 0.2366
C12 C 0.8646(3) 0.72760(15) 0.24831(15)
C13 C 0.9354(2) 0.76003(15) 0.33230(15)
C14 C 0.8774(3) 0.71669(15) 0.41393(15)
C15 C 0.8958(3) 0.63422(18) 0.44051(18)
C16 C 0.8313(3) 0.6053(2) 0.5160(2)
C17 C 0.7503(3) 0.6567(2) 0.5649(2)
H9 H 0.7069 0.6360 0.6150
C18 C 0.7324(3) 0.7393(2) 0.54010(18)
H10 H 0.6783 0.7752 0.5736
C19 C 0.7958(2) 0.76894(16) 0.46384(15)
C20 C 0.7893(2) 0.85732(15) 0.42673(15)
C21 C 0.6468(2) 0.87982(14) 0.39141(15)
C22 C 0.8818(2) 0.85401(15) 0.34057(15)
C23 C 0.8182(3) 0.94072(18) 0.19469(18)
H11 H 0.7525 0.9429 0.1462
H12 H 0.9088 0.9307 0.1720
H13 H 0.8177 0.9932 0.2262
C24 C 1.0925(3) 0.7493(2) 0.3273(2)
H14 H 1.1356 0.7720 0.3800
H15 H 1.1257 0.7785 0.2761
H16 H 1.1145 0.6906 0.3226
C25 C 0.8369(3) 0.92004(18) 0.49962(18)
H17 H 0.8404 0.9756 0.4750
H18 H 0.9270 0.9044 0.5216
H19 H 0.7728 0.9190 0.5475
C26 C 0.9988(3) 0.91802(17) 0.34415(19)
H20 H 0.9611 0.9734 0.3508
H21 H 1.0498 0.9153 0.2901
H22 H 1.0593 0.9057 0.3938
O5 O 0.3288(3) 0.54671(15) 0.33676(17)
C27 C 0.4498(6) 0.6583(3) 0.2778(4)
H25 H 0.5490 0.6574 0.2794
H26 H 0.4181 0.7152 0.2839
H27 H 0.4168 0.6358 0.2222
C28 C 0.3974(3) 0.6075(2) 0.3507(2)
C29 C 0.4266(8) 0.6349(5) 0.4406(4)
H28 H 0.3891 0.5951 0.4816
H29 H 0.3854 0.6890 0.4500
H30 H 0.5247 0.6388 0.4500
O3? O 0.6520(7) 0.7743(4) 0.5865(4)
O4? O 0.6807(7) 0.6129(4) 0.6275(4)
H23? H 0.9504 0.5982 0.4075
H24? H 0.8443 0.5499 0.5338
loop_
_geom_bond_atom_site_label_1
_geom_bond_atom_site_label_2
_geom_bond_site_symmetry_1
_geom_bond_site_symmetry_2
O1 C15 1_555 1_555
O2 C16 1_555 1_555
C1 H1 1_555 1_555
C2 C1 1_555 1_555
H2 C2 1_555 1_555
C3 C2 1_555 1_555
H3 C3 1_555 1_555
C4 C3 1_555 1_555
H4 C4 1_555 1_555
C5 C4 1_555 1_555
C6 C5 1_555 1_555
C7 C6 1_555 1_555
C8 C7 1_555 1_555
H5 C8 1_555 1_555
C9 C8 1_555 1_555
H6 C9 1_555 1_555
C10 C9 1_555 1_555
H7 C10 1_555 1_555
C11 C10 1_555 1_555
H8 C11 1_555 1_555
C12 C7 1_555 1_555
C13 C12 1_555 1_555
C14 C13 1_555 1_555
C15 C14 1_555 1_555
C16 C15 1_555 1_555
C17 C16 1_555 1_555
H9 C17 1_555 1_555
C18 C17 1_555 1_555
H10 C18 1_555 1_555
C19 C14 1_555 1_555
C20 C19 1_555 1_555
C21 C1 1_555 1_555
C22 C6 1_555 1_555
C23 C6 1_555 1_555
H11 C23 1_555 1_555
H12 C23 1_555 1_555
H13 C23 1_555 1_555
C24 C13 1_555 1_555
H14 C24 1_555 1_555
H15 C24 1_555 1_555
H16 C24 1_555 1_555
C25 C20 1_555 1_555
H17 C25 1_555 1_555
H18 C25 1_555 1_555
H19 C25 1_555 1_555
C26 C22 1_555 1_555
H20 C26 1_555 1_555
H21 C26 1_555 1_555
H22 C26 1_555 1_555
O5 C28 1_555 1_555
C27 H25 1_555 1_555
H26 C27 1_555 1_555
H27 C27 1_555 1_555
C28 C27 1_555 1_555
C29 C28 1_555 1_555
H28 C29 1_555 1_555
H29 C29 1_555 1_555
H30 C29 1_555 1_555
C5 C21 1_555 1_555
C11 C12 1_555 1_555
C13 C22 1_555 1_555
C18 C19 1_555 1_555
C20 C21 1_555 1_555
C20 C22 1_555 1_555

#END
