
#######################################################################
#
#                 Cambridge Crystallographic Data Centre
#                                CCDC 
#
#######################################################################
#
# If this CIF has been generated from an entry in the Cambridge 
# Structural Database, then it will include bibliographic, chemical, 
# crystal, experimental, refinement or atomic coordinate data resulting 
# from the CCDC's data processing and validation procedures.
#
#######################################################################

data_EJEQIV
_chemical_name_common            'luteolin D-proline'
_chemical_formula_moiety         'C15 H10 O6,C5 H9 N1 O2'
_chemical_name_systematic        
'pyrrolidinium-2-carboxylate 2-(3,4-dihydroxyphenyl)-5,7-dihydroxy-4H-chromen-4-one'
_symmetry_cell_setting           monoclinic
_symmetry_space_group_name_H-M   'P 21'
_symmetry_Int_Tables_number      4
_space_group_name_Hall           'P 2yb'
loop_
_symmetry_equiv_pos_site_id
_symmetry_equiv_pos_as_xyz
1 x,y,z
2 -x,1/2+y,-z
_cell_length_a                   6.4678(2)
_cell_length_b                   5.8084(2)
_cell_length_c                   23.6196(6)
_cell_angle_alpha                90
_cell_angle_beta                 91.6860(10)
_cell_angle_gamma                90
_cell_volume                     886.947
_exptl_crystal_colour            yellow
_exptl_crystal_description       plate
_cell_formula_units_Z            2
loop_
_atom_site_label
_atom_site_type_symbol
_atom_site_fract_x
_atom_site_fract_y
_atom_site_fract_z
O1 O 0.80231(15) 0.1037(2) 0.18113(4)
O2 O 0.05186(16) 0.1935(2) 0.00991(4)
H1 H 0.0378 0.2963 -0.0137
O3 O 1.17018(18) -0.2937(2) 0.32446(5)
H2 H 1.2813 -0.2913 0.3421
O4 O 1.25011(16) 0.5968(2) 0.16967(4)
O5 O 1.46767(16) 0.3802(2) 0.24724(4)
H3 H 1.4384 0.4823 0.2244
O6 O 0.13645(16) -0.1104(2) 0.08822(4)
H4 H 0.1764 -0.1978 0.1135
C1 C 1.3259(2) 0.0404(3) 0.28467(6)
H5 H 1.4459 0.0171 0.3066
C2 C 1.1609(2) -0.1149(3) 0.28800(6)
C3 C 0.9821(2) -0.0900(3) 0.25398(6)
H6 H 0.8724 -0.1927 0.2564
C4 C 0.9741(2) 0.0929(3) 0.21657(6)
C5 C 0.7820(2) 0.2790(3) 0.14323(6)
C6 C 0.5924(2) 0.2606(3) 0.10784(6)
C7 C 0.5451(2) 0.4272(3) 0.06674(6)
H7 H 0.6346 0.5504 0.0617
C8 C 0.3650(2) 0.4102(3) 0.03331(6)
H8 H 0.3351 0.5208 0.0058
C9 C 0.2305(2) 0.2283(3) 0.04106(6)
C10 C 0.9248(2) 0.4477(3) 0.13953(6)
H9 H 0.9018 0.5678 0.1141
C11 C 1.1104(2) 0.4457(3) 0.17389(6)
C12 C 1.1312(2) 0.2579(3) 0.21359(6)
C13 C 1.3105(2) 0.2279(3) 0.24885(6)
C14 C 0.2762(2) 0.0603(3) 0.08223(6)
C15 C 0.4568(2) 0.0763(3) 0.11505(6)
H10 H 0.4880 -0.0362 0.1420
O7 O 0.50935(19) 0.7542(2) 0.39240(5)
O8 O 0.63678(18) 0.6099(2) 0.47412(4)
N1 N 0.6302(2) 0.1718(3) 0.43657(5)
H11 H 0.5759 0.0394 0.4230
H12 H 0.5663 0.2079 0.4687
C16 C 0.5795(2) 0.5926(3) 0.42336(6)
C17 C 0.5993(2) 0.3595(3) 0.39402(6)
H13 H 0.4770 0.3287 0.3697
C18 C 0.7959(2) 0.3460(4) 0.35975(6)
H14 H 0.7859 0.2240 0.3317
H15 H 0.8220 0.4907 0.3407
C19 C 0.9649(3) 0.2943(4) 0.40434(7)
H16 H 1.0169 0.4354 0.4215
H17 H 1.0791 0.2127 0.3877
C20 C 0.8586(3) 0.1433(4) 0.44836(9)
H18 H 0.8989 -0.0166 0.4443
H19 H 0.8955 0.1938 0.4865
loop_
_geom_bond_atom_site_label_1
_geom_bond_atom_site_label_2
_geom_bond_site_symmetry_1
_geom_bond_site_symmetry_2
O1 C4 1_555 1_555
O2 H1 1_555 1_555
O3 H2 1_555 1_555
O4 C11 1_555 1_555
O5 H3 1_555 1_555
O6 H4 1_555 1_555
C1 H5 1_555 1_555
C2 O3 1_555 1_555
C3 C2 1_555 1_555
H6 C3 1_555 1_555
C4 C3 1_555 1_555
C5 O1 1_555 1_555
C6 C5 1_555 1_555
C7 C6 1_555 1_555
H7 C7 1_555 1_555
C8 C7 1_555 1_555
H8 C8 1_555 1_555
C9 O2 1_555 1_555
C10 C5 1_555 1_555
H9 C10 1_555 1_555
C11 C10 1_555 1_555
C12 C4 1_555 1_555
C13 O5 1_555 1_555
C14 O6 1_555 1_555
C15 C6 1_555 1_555
H10 C15 1_555 1_555
O7 C16 1_555 1_555
O8 C16 1_555 1_555
N1 H11 1_555 1_555
H12 N1 1_555 1_555
C16 C17 1_555 1_555
C17 N1 1_555 1_555
H13 C17 1_555 1_555
C18 C17 1_555 1_555
H14 C18 1_555 1_555
H15 C18 1_555 1_555
C19 C18 1_555 1_555
H16 C19 1_555 1_555
H17 C19 1_555 1_555
C20 N1 1_555 1_555
H18 C20 1_555 1_555
H19 C20 1_555 1_555
C1 C2 1_555 1_555
C1 C13 1_555 1_555
C8 C9 1_555 1_555
C9 C14 1_555 1_555
C11 C12 1_555 1_555
C12 C13 1_555 1_555
C14 C15 1_555 1_555
C19 C20 1_555 1_555

#END
