
#######################################################################
#
#                 Cambridge Crystallographic Data Centre
#                                CCDC 
#
#######################################################################
#
# If this CIF has been generated from an entry in the Cambridge 
# Structural Database, then it will include bibliographic, chemical, 
# crystal, experimental, refinement or atomic coordinate data resulting 
# from the CCDC's data processing and validation procedures.
#
#######################################################################

data_EJEQER
_chemical_name_common            'genistein bis(L-proline)'
_chemical_formula_moiety         'C15 H10 O5,2(C5 H9 N1 O2)'
_chemical_name_systematic        
'5,7-dihydroxy-3-(4-hydroxyphenyl)-4H-chromen-4-one bis(pyrrolidinium-2-carboxylate)'
_symmetry_cell_setting           triclinic
_symmetry_space_group_name_H-M   'P 1'
_symmetry_Int_Tables_number      1
_space_group_name_Hall           'P 1'
loop_
_symmetry_equiv_pos_site_id
_symmetry_equiv_pos_as_xyz
1 x,y,z
_cell_length_a                   5.29670(10)
_cell_length_b                   6.2757(2)
_cell_length_c                   17.5868(5)
_cell_angle_alpha                84.456(2)
_cell_angle_beta                 82.571(2)
_cell_angle_gamma                89.979(2)
_cell_volume                     576.932
_exptl_crystal_colour            colorless
_exptl_crystal_description       plate
_cell_formula_units_Z            1
loop_
_atom_site_label
_atom_site_type_symbol
_atom_site_fract_x
_atom_site_fract_y
_atom_site_fract_z
O1 O 0.4319(4) 0.3121(3) 0.29130(13)
H1 H 0.4731 0.2124 0.2656
O2 O 0.5780(4) 0.5970(3) 0.51890(13)
H2 H 0.6629 0.5747 0.5546
O3 O 0.9856(4) -0.0502(3) 0.44933(13)
O4 O 0.9034(4) 0.4111(3) 0.59905(13)
C1 C 0.5457(5) 0.2911(5) 0.35690(18)
C2 C 0.7065(6) 0.1217(5) 0.37192(19)
H3 H 0.7335 0.0145 0.3389
C3 C 0.8245(5) 0.1178(4) 0.43729(17)
C4 C 0.7907(5) 0.2747(5) 0.48825(18)
C5 C 0.9217(5) 0.2641(4) 0.55564(18)
C6 C 1.0695(5) 0.0730(4) 0.56919(17)
C7 C 1.1947(5) 0.0296(4) 0.64004(18)
C8 C 1.1654(7) -0.1652(5) 0.6839(2)
H4 H 1.0685 -0.2729 0.6685
C9 C 1.2788(7) -0.2025(5) 0.7507(2)
H5 H 1.2578 -0.3346 0.7798
C10 C 1.4216(6) -0.0446(5) 0.77379(17)
O5 O 1.5273(4) -0.0666(4) 0.84157(14)
H6 H 1.4909 -0.1852 0.8642
C11 C 0.4976(6) 0.4458(5) 0.40712(18)
H7 H 0.3817 0.5533 0.3975
C12 C 0.6199(5) 0.4419(4) 0.47138(17)
C13 C 1.0944(6) -0.0662(5) 0.51556(19)
H8 H 1.1956 -0.1849 0.5245
C14 C 1.4613(6) 0.1476(5) 0.72882(18)
H9 H 1.5660 0.2520 0.7428
C15 C 1.3459(6) 0.1845(5) 0.66339(17)
H10 H 1.3698 0.3162 0.6341
O6 O 0.3493(4) 0.3415(4) 1.03592(13)
O7 O 0.3271(4) 0.6440(3) 0.96163(13)
C16 C 0.4459(5) 0.4894(5) 0.98877(17)
C17 C 0.7283(5) 0.4799(5) 0.95968(18)
H11 H 0.8129 0.6140 0.9669
N1 N 0.8505(4) 0.2934(4) 1.00112(14)
H12 H 0.9929 0.3369 1.0183
H13 H 0.7426 0.2363 1.0417
C18 C 0.9130(7) 0.1322(5) 0.9451(2)
H14 H 0.7689 0.0374 0.9442
H15 H 1.0579 0.0473 0.9575
C19 C 0.9741(6) 0.2655(5) 0.8699(2)
H16 H 0.9606 0.1820 0.8270
H17 H 1.1441 0.3272 0.8647
C20 C 0.7729(6) 0.4379(6) 0.87461(18)
H18 H 0.6171 0.3889 0.8580
H19 H 0.8327 0.5670 0.8425
O8 O 0.6304(4) 0.8485(4) 0.09521(13)
O9 O 0.6421(4) 1.0954(3) 0.17656(13)
C21 C -0.0009(6) 0.6498(5) 0.25599(19)
H20 H 0.0089 0.5349 0.2965
H21 H -0.1695 0.7113 0.2622
C22 C 0.2042(6) 0.8190(5) 0.25617(18)
H22 H 0.3596 0.7541 0.2706
H23 H 0.1478 0.9232 0.2918
C23 C 0.2470(5) 0.9248(4) 0.17265(16)
H24 H 0.1588 1.0621 0.1693
C24 C 0.5282(5) 0.9594(5) 0.14520(17)
C25 C 0.0614(6) 0.5718(5) 0.1779(2)
H25 H 0.2031 0.4737 0.1768
H26 H -0.0844 0.5008 0.1629
N2 N 0.1302(4) 0.7722(4) 0.12659(14)
H27 H -0.0097 0.8297 0.1092
H28 H 0.2416 0.7436 0.0858
loop_
_geom_bond_atom_site_label_1
_geom_bond_atom_site_label_2
_geom_bond_site_symmetry_1
_geom_bond_site_symmetry_2
O1 H1 1_555 1_555
O2 H2 1_555 1_555
O3 C3 1_555 1_555
O4 C5 1_555 1_555
C1 O1 1_555 1_555
C2 C1 1_555 1_555
H3 C2 1_555 1_555
C3 C2 1_555 1_555
C4 C3 1_555 1_555
C5 C4 1_555 1_555
C6 C5 1_555 1_555
C7 C6 1_555 1_555
C8 C7 1_555 1_555
H4 C8 1_555 1_555
C9 C8 1_555 1_555
H5 C9 1_555 1_555
C10 C9 1_555 1_555
O5 C10 1_555 1_555
H6 O5 1_555 1_555
C11 C1 1_555 1_555
H7 C11 1_555 1_555
C12 O2 1_555 1_555
C13 O3 1_555 1_555
H8 C13 1_555 1_555
C14 C10 1_555 1_555
H9 C14 1_555 1_555
C15 C7 1_555 1_555
H10 C15 1_555 1_555
O6 C16 1_555 1_555
O7 C16 1_555 1_555
C16 C17 1_555 1_555
C17 H11 1_555 1_555
N1 C17 1_555 1_555
H12 N1 1_555 1_555
H13 N1 1_555 1_555
C18 N1 1_555 1_555
H14 C18 1_555 1_555
H15 C18 1_555 1_555
C19 C18 1_555 1_555
H16 C19 1_555 1_555
H17 C19 1_555 1_555
C20 C17 1_555 1_555
H18 C20 1_555 1_555
H19 C20 1_555 1_555
O8 C24 1_555 1_555
O9 C24 1_555 1_555
C21 H20 1_555 1_555
H21 C21 1_555 1_555
C22 C21 1_555 1_555
H22 C22 1_555 1_555
H23 C22 1_555 1_555
C23 C22 1_555 1_555
H24 C23 1_555 1_555
C24 C23 1_555 1_555
C25 C21 1_555 1_555
H25 C25 1_555 1_555
H26 C25 1_555 1_555
N2 C23 1_555 1_555
H27 N2 1_555 1_555
H28 N2 1_555 1_555
C4 C12 1_555 1_555
C6 C13 1_555 1_555
C11 C12 1_555 1_555
C14 C15 1_555 1_555
C19 C20 1_555 1_555
C25 N2 1_555 1_555

#END
