
#######################################################################
#
#                 Cambridge Crystallographic Data Centre
#                                CCDC 
#
#######################################################################
#
# If this CIF has been generated from an entry in the Cambridge 
# Structural Database, then it will include bibliographic, chemical, 
# crystal, experimental, refinement or atomic coordinate data resulting 
# from the CCDC's data processing and validation procedures.
#
#######################################################################

data_EJERAO
_chemical_name_common            'Quercetin bis(D-Proline)'
_chemical_formula_moiety         'C15 H10 O7,2(C5 H9 N1 O2)'
_chemical_name_systematic        
'2-(3,4-dihydroxyphenyl)-3,5,7-trihydroxy-4H-chromen-4-one bis(pyrrolidinium-2-carboxylate)'
_symmetry_cell_setting           monoclinic
_symmetry_space_group_name_H-M   'P 21'
_symmetry_Int_Tables_number      4
_space_group_name_Hall           'P 2yb'
loop_
_symmetry_equiv_pos_site_id
_symmetry_equiv_pos_as_xyz
1 x,y,z
2 -x,1/2+y,-z
_cell_length_a                   5.4237(3)
_cell_length_b                   18.8941(10)
_cell_length_c                   12.0334(6)
_cell_angle_alpha                90
_cell_angle_beta                 94.376(4)
_cell_angle_gamma                90
_cell_volume                     1229.54
_exptl_crystal_colour            yellow
_exptl_crystal_description       plate
_cell_formula_units_Z            2
loop_
_atom_site_label
_atom_site_type_symbol
_atom_site_fract_x
_atom_site_fract_y
_atom_site_fract_z
O1 O 1.7600(7) 0.7052(2) 0.8708(3)
H1 H 1.7883 0.6892 0.9338
O2 O 0.8403(5) 0.52392(16) 0.7144(2)
O3 O 0.2735(6) 0.42891(18) 0.4278(3)
H2 H 0.3615 0.4521 0.3889
O4 O 0.1884(6) 0.37641(17) 0.8053(3)
H3 H 0.2519 0.3845 0.8681
O5 O 0.6374(6) 0.51619(18) 0.3832(2)
O6 O 1.0188(6) 0.59911(17) 0.4570(2)
H4 H 0.9562 0.5922 0.3937
C1 C 1.5643(8) 0.6699(3) 0.8181(4)
C2 C 1.4395(9) 0.6166(3) 0.8672(4)
C3 C 1.2406(8) 0.5847(3) 0.8101(4)
H5 H 1.1536 0.5500 0.8454
C4 C 1.1659(8) 0.6033(2) 0.7002(3)
C5 C 0.9648(8) 0.5643(2) 0.6419(4)
C6 C 0.6464(8) 0.4822(2) 0.6787(3)
C7 C 0.5318(8) 0.4467(2) 0.7604(4)
H6 H 0.5931 0.4489 0.8346
C8 C 0.3235(8) 0.4079(2) 0.7285(4)
C9 C 0.2397(9) 0.4002(2) 0.6168(4)
H7 H 0.1031 0.3719 0.5967
C10 C 0.5692(8) 0.4773(2) 0.5660(3)
C11 C 0.3605(8) 0.4346(2) 0.5370(4)
C12 C 0.6955(8) 0.5176(2) 0.4874(3)
C13 C 0.8942(8) 0.5612(2) 0.5311(4)
C14 C 1.2959(8) 0.6566(3) 0.6517(4)
H8 H 1.2505 0.6703 0.5788
C15 C 1.4913(9) 0.6897(3) 0.7100(4)
H9 H 1.5753 0.7258 0.6763
O7 O 1.5258(11) 0.5884(3) 0.9684(4)
H10 H 1.4592 0.5501 0.9769
O9 O -0.0558(6) 0.60385(18) 0.2252(3)
O10 O -0.1600(8) 0.6788(3) 0.0904(4)
C16 C 0.3062(10) 0.7430(3) 0.3263(5)
H13 H 0.1483 0.7332 0.3559
H14 H 0.3790 0.7844 0.3633
C17 C 0.2764(10) 0.7534(3) 0.2032(5)
H15 H 0.4185 0.7775 0.1767
H16 H 0.1283 0.7804 0.1816
C18 C 0.2563(9) 0.6781(3) 0.1587(4)
H17 H 0.3158 0.6758 0.0839
C19 C -0.0047(9) 0.6497(3) 0.1569(4)
N1 N 0.4229(7) 0.6365(2) 0.2388(4)
H18 H 0.3500 0.5962 0.2562
H19 H 0.5629 0.6261 0.2083
C20 C 0.4765(10) 0.6802(3) 0.3407(5)
H20 H 0.6479 0.6953 0.3470
H21 H 0.4438 0.6536 0.4070
N2 N 0.8266(7) 0.4483(2) 0.1874(3)
H22 H 0.9201 0.4785 0.2286
H23 H 0.6754 0.4664 0.1759
O11 O 1.3195(6) 0.4424(2) 0.0013(3)
O12 O 1.3082(6) 0.47817(18) 0.1758(3)
C21 C 0.8866(11) 0.3584(3) 0.0560(5)
H24 H 0.7910 0.3530 -0.0150
H25 H 1.0425 0.3337 0.0517
C22 C 0.9347(8) 0.4357(2) 0.0788(4)
H26 H 0.8472 0.4644 0.0205
C23 C 0.8163(11) 0.3795(3) 0.2449(5)
H27 H 0.6860 0.3783 0.2957
H28 H 0.9730 0.3677 0.2849
C24 C 1.2116(8) 0.4545(2) 0.0875(4)
C25 C 0.757(3) 0.3291(5) 0.1408(11)
H29 H 0.8132 0.2812 0.1575
H30 H 0.5812 0.3281 0.1195
H11? H 1.4896 0.6021 0.9393
O8? O 1.629(2) 0.7385(6) 0.6527(8)
H12? H 1.7716 0.7478 0.6837
H31? H 1.0057 0.3380 0.0089
H32? H 0.7202 0.3499 0.0234
H33? H 0.8978 0.3834 0.3192
H34? H 0.6452 0.3665 0.2519
C26? C 0.927(5) 0.3292(7) 0.1881(16)
H35? H 0.8488 0.2836 0.1963
H36? H 1.1012 0.3255 0.2124
loop_
_geom_bond_atom_site_label_1
_geom_bond_atom_site_label_2
_geom_bond_site_symmetry_1
_geom_bond_site_symmetry_2
O1 H1 1_555 1_555
O2 C5 1_555 1_555
O3 H2 1_555 1_555
O4 H3 1_555 1_555
O5 C12 1_555 1_555
O6 H4 1_555 1_555
C1 O1 1_555 1_555
C2 C1 1_555 1_555
C3 C2 1_555 1_555
H5 C3 1_555 1_555
C4 C3 1_555 1_555
C5 C4 1_555 1_555
C6 O2 1_555 1_555
C7 C6 1_555 1_555
H6 C7 1_555 1_555
C8 O4 1_555 1_555
C9 C8 1_555 1_555
H7 C9 1_555 1_555
C10 C6 1_555 1_555
C11 O3 1_555 1_555
C12 C10 1_555 1_555
C13 O6 1_555 1_555
C14 C4 1_555 1_555
H8 C14 1_555 1_555
C15 C1 1_555 1_555
H9 C15 1_555 1_555
O7 C2 1_555 1_555
H10 O7 1_555 1_555
O9 C19 1_555 1_555
O10 C19 1_555 1_555
C16 H13 1_555 1_555
H14 C16 1_555 1_555
C17 C16 1_555 1_555
H15 C17 1_555 1_555
H16 C17 1_555 1_555
C18 C17 1_555 1_555
H17 C18 1_555 1_555
C19 C18 1_555 1_555
N1 C18 1_555 1_555
H18 N1 1_555 1_555
H19 N1 1_555 1_555
C20 C16 1_555 1_555
H20 C20 1_555 1_555
H21 C20 1_555 1_555
N2 H22 1_555 1_555
H23 N2 1_555 1_555
O11 C24 1_555 1_555
O12 C24 1_555 1_555
C21 H24 1_555 1_555
H25 C21 1_555 1_555
C22 N2 1_555 1_555
H26 C22 1_555 1_555
C23 N2 1_555 1_555
H27 C23 1_555 1_555
H28 C23 1_555 1_555
C24 C22 1_555 1_555
C25 C21 1_555 1_555
H29 C25 1_555 1_555
H30 C25 1_555 1_555
C5 C13 1_555 1_555
C7 C8 1_555 1_555
C9 C11 1_555 1_555
C10 C11 1_555 1_555
C12 C13 1_555 1_555
C14 C15 1_555 1_555
N1 C20 1_555 1_555
C21 C22 1_555 1_555
C23 C25 1_555 1_555

#END
