
#######################################################################
#
#                 Cambridge Crystallographic Data Centre
#                                CCDC 
#
#######################################################################
#
# If this CIF has been generated from an entry in the Cambridge 
# Structural Database, then it will include bibliographic, chemical, 
# crystal, experimental, refinement or atomic coordinate data resulting 
# from the CCDC's data processing and validation procedures.
#
#######################################################################

data_EJERIW
_chemical_name_common            'kaempferol bis(D-proline)'
_chemical_formula_moiety         'C15 H10 O6,2(C5 H9 N1 O2)'
_chemical_name_systematic        
'3,5,7-trihydroxy-2-(4-hydroxyphenyl)-4H-chromen-4-one bis(pyrrolidinium-2-carboxylate)'
_symmetry_cell_setting           monoclinic
_symmetry_space_group_name_H-M   'P 21'
_symmetry_Int_Tables_number      4
_space_group_name_Hall           'P 2yb'
loop_
_symmetry_equiv_pos_site_id
_symmetry_equiv_pos_as_xyz
1 x,y,z
2 -x,1/2+y,-z
_cell_length_a                   5.3600(5)
_cell_length_b                   18.8252(18)
_cell_length_c                   12.1725(11)
_cell_angle_alpha                90
_cell_angle_beta                 95.774(6)
_cell_angle_gamma                90
_cell_volume                     1222.01
_exptl_crystal_colour            yellow
_exptl_crystal_description       plate
_cell_formula_units_Z            2
loop_
_atom_site_label
_atom_site_type_symbol
_atom_site_fract_x
_atom_site_fract_y
_atom_site_fract_z
O1 O -0.1735(6) 0.7094(2) 0.0920(2)
O2 O -0.0664(5) 0.77373(15) 0.2401(2)
C1 C 0.2989(9) 0.6319(3) 0.3257(4)
H1 H 0.1380 0.6400 0.3535
H2 H 0.3729 0.5889 0.3587
C2 C 0.2724(9) 0.6273(3) 0.2014(4)
H3 H 0.1235 0.6007 0.1745
H4 H 0.4180 0.6049 0.1749
C3 C 0.2506(7) 0.7055(2) 0.1650(3)
H5 H 0.3104 0.7120 0.0922
C4 C -0.0157(7) 0.7323(2) 0.1658(3)
C5 C 0.4690(8) 0.6940(3) 0.3480(3)
H6 H 0.4350 0.7175 0.4158
H7 H 0.6428 0.6789 0.3550
N1 N 0.4180(5) 0.74260(17) 0.2524(3)
H8 H 0.5612 0.7547 0.2262
H9 H 0.3441 0.7820 0.2734
O3 O 1.3146(5) 0.93264(17) 0.0049(2)
O4 O 1.3053(5) 0.89295(17) 0.1752(2)
N2 N 0.8213(6) 0.92557(17) 0.1879(3)
H10 H 0.6667 0.9080 0.1764
H11 H 0.9164 0.8948 0.2287
C6 C 0.8176(10) 0.9943(3) 0.2447(4)
H12 H 0.9802 1.0061 0.2826
H13 H 0.6918 0.9956 0.2967
C7 C 1.2063(7) 0.9190(2) 0.0876(3)
C8 C 0.9262(6) 0.9379(2) 0.0801(3)
H14 H 0.8341 0.9089 0.0227
C9 C 0.8755(9) 1.0153(2) 0.0564(4)
H15 H 1.0329 1.0402 0.0528
H16 H 0.7772 1.0202 -0.0146
C10 C 0.7445(16) 1.0457(4) 0.1394(7)
H17 H 0.5651 1.0454 0.1184
H18 H 0.7990 1.0941 0.1551
O5 O 1.7754(5) 0.66497(18) 0.8805(2)
H25 H 1.8003 0.6790 0.9444
O6 O 0.2761(5) 0.95082(16) 0.4372(2)
H26 H 0.3655 0.9279 0.3994
O7 O 0.8438(4) 0.85000(14) 0.72397(17)
O8 O 0.6358(5) 0.86190(16) 0.39517(18)
O9 O 1.0227(5) 0.77760(16) 0.46870(18)
H27 H 0.9589 0.7855 0.4058
O10 O 0.1874(5) 0.99869(16) 0.8110(2)
H28 H 0.2509 0.9896 0.8736
C12 C 1.5785(7) 0.7007(2) 0.8278(3)
C13 C 1.5068(8) 0.6841(2) 0.7179(3)
H29 H 1.5935 0.6495 0.6827
C14 C 1.3088(7) 0.7188(2) 0.6610(3)
H30 H 1.2642 0.7073 0.5873
C15 C 1.1735(6) 0.77045(19) 0.7105(3)
C16 C 0.9697(6) 0.81049(19) 0.6521(3)
C17 C 0.8986(7) 0.8149(2) 0.5421(3)
C18 C 0.6966(6) 0.8594(2) 0.4981(3)
C19 C 0.5702(6) 0.8990(2) 0.5759(3)
C20 C 0.3612(7) 0.9432(2) 0.5460(3)
C21 C 1.2469(7) 0.7856(2) 0.8220(3)
H31 H 1.1583 0.8193 0.8583
C22 C 1.4479(7) 0.7514(2) 0.8786(3)
H32 H 1.4951 0.7629 0.9521
C23 C 0.6482(6) 0.8925(2) 0.6882(3)
C24 C 0.2390(7) 0.9771(2) 0.6248(3)
H33 H 0.1020 1.0062 0.6042
C25 C 0.3223(7) 0.9673(2) 0.7364(3)
C26 C 0.5311(7) 0.9268(2) 0.7689(3)
H34 H 0.5911 0.9228 0.8431
H19? H 0.6455 1.0076 0.2527
H20? H 0.9057 0.9900 0.3180
H21? H 0.7055 1.0238 0.0237
H22? H 0.9944 1.0360 0.0105
C11? C 0.922(3) 1.0434(6) 0.1902(11)
H23? H 1.1000 1.0471 0.2145
H24? H 0.8438 1.0891 0.1993
loop_
_geom_bond_atom_site_label_1
_geom_bond_atom_site_label_2
_geom_bond_site_symmetry_1
_geom_bond_site_symmetry_2
O1 C4 1_555 1_555
O2 C4 1_555 1_555
C1 H1 1_555 1_555
H2 C1 1_555 1_555
C2 C1 1_555 1_555
H3 C2 1_555 1_555
H4 C2 1_555 1_555
C3 C2 1_555 1_555
H5 C3 1_555 1_555
C4 C3 1_555 1_555
C5 C1 1_555 1_555
H6 C5 1_555 1_555
H7 C5 1_555 1_555
N1 C3 1_555 1_555
H8 N1 1_555 1_555
H9 N1 1_555 1_555
O3 C7 1_555 1_555
O4 C7 1_555 1_555
N2 H10 1_555 1_555
H11 N2 1_555 1_555
C6 N2 1_555 1_555
H12 C6 1_555 1_555
H13 C6 1_555 1_555
C7 C8 1_555 1_555
C8 N2 1_555 1_555
H14 C8 1_555 1_555
C9 C8 1_555 1_555
H15 C9 1_555 1_555
H16 C9 1_555 1_555
C10 C6 1_555 1_555
H17 C10 1_555 1_555
H18 C10 1_555 1_555
O5 H25 1_555 1_555
O6 H26 1_555 1_555
O7 C16 1_555 1_555
O8 C18 1_555 1_555
O9 H27 1_555 1_555
O10 H28 1_555 1_555
C12 O5 1_555 1_555
C13 C12 1_555 1_555
H29 C13 1_555 1_555
C14 C13 1_555 1_555
H30 C14 1_555 1_555
C15 C14 1_555 1_555
C16 C15 1_555 1_555
C17 O9 1_555 1_555
C18 C17 1_555 1_555
C19 C18 1_555 1_555
C20 O6 1_555 1_555
C21 C15 1_555 1_555
H31 C21 1_555 1_555
C22 C12 1_555 1_555
H32 C22 1_555 1_555
C23 O7 1_555 1_555
C24 C20 1_555 1_555
H33 C24 1_555 1_555
C25 O10 1_555 1_555
C26 C23 1_555 1_555
H34 C26 1_555 1_555
C5 N1 1_555 1_555
C9 C10 1_555 1_555
C16 C17 1_555 1_555
C19 C20 1_555 1_555
C19 C23 1_555 1_555
C21 C22 1_555 1_555
C24 C25 1_555 1_555
C25 C26 1_555 1_555

#END
