
#######################################################################
#
#                 Cambridge Crystallographic Data Centre
#                                CCDC 
#
#######################################################################
#
# If this CIF has been generated from an entry in the Cambridge 
# Structural Database, then it will include bibliographic, chemical, 
# crystal, experimental, refinement or atomic coordinate data resulting 
# from the CCDC's data processing and validation procedures.
#
#######################################################################

data_EJEWIA
_chemical_name_common            
'4,5-Diamino-3-methyl-4H-1,2,4-triazol-1-ium chloride'
_chemical_formula_moiety         'C3 H8 N5 1+,Cl1 1-'
_chemical_name_systematic        
'3,4-Diamino-5-methyl-4H-1,2,4-triazole hydrochloride'
_symmetry_cell_setting           monoclinic
_symmetry_space_group_name_H-M   'C 2/c'
_symmetry_Int_Tables_number      15
_space_group_name_Hall           '-C 2yn'
loop_
_symmetry_equiv_pos_site_id
_symmetry_equiv_pos_as_xyz
1 x,y,z
2 -x,y,1/2-z
3 1/2+x,1/2+y,z
4 1/2-x,1/2+y,1/2-z
5 -x,-y,-z
6 x,-y,1/2+z
7 1/2-x,1/2-y,-z
8 1/2+x,1/2-y,1/2+z
_cell_length_a                   15.5162(18)
_cell_length_b                   7.1608(7)
_cell_length_c                   11.7018(13)
_cell_angle_alpha                90
_cell_angle_beta                 101.1069(17)
_cell_angle_gamma                90
_cell_volume                     1275.82
_exptl_crystal_colour            colorless
_chemical_melting_point          '253 deg.C'
_cell_formula_units_Z            8
_exptl_crystal_recrystallization_method methanol
loop_
_atom_site_label
_atom_site_type_symbol
_atom_site_fract_x
_atom_site_fract_y
_atom_site_fract_z
N1 N 0.64261(6) -0.00546(14) 0.49461(8)
N2 N 0.76241(6) 0.18780(14) 0.76030(8)
N3 N 0.70244(6) 0.06802(13) 0.58966(8)
N4 N 0.82633(6) 0.13452(14) 0.69752(8)
N5 N 0.82852(7) -0.00815(14) 0.51236(9)
C1 C 0.59881(7) 0.17516(17) 0.71695(10)
C2 C 0.68811(7) 0.14563(15) 0.69259(9)
C3 C 0.79039(7) 0.06068(15) 0.59527(9)
H1 H 0.6050(10) 0.086(2) 0.4666(13)
H2 H 0.8805(12) 0.151(2) 0.7265(15)
H3 H 0.6136(11) -0.093(2) 0.5231(14)
H4 H 0.8843(12) 0.001(2) 0.5206(15)
H5 H 0.6028(10) 0.223(2) 0.7929(15)
H6 H 0.5687(11) 0.063(3) 0.7089(15)
H7 H 0.5673(11) 0.262(2) 0.6606(14)
H8 H 0.7975(11) -0.059(2) 0.4535(15)
Cl1 Cl 0.513560(16) -0.30125(4) 0.60065(2)
loop_
_geom_bond_atom_site_label_1
_geom_bond_atom_site_label_2
_geom_bond_site_symmetry_1
_geom_bond_site_symmetry_2
N1 N3 1_555 1_555
N2 N4 1_555 1_555
N3 C2 1_555 1_555
N4 C3 1_555 1_555
N5 C3 1_555 1_555
C1 C2 1_555 1_555
C2 N2 1_555 1_555
C3 N3 1_555 1_555
H1 N1 1_555 1_555
H2 N4 1_555 1_555
H3 N1 1_555 1_555
H4 N5 1_555 1_555
H5 C1 1_555 1_555
H6 C1 1_555 1_555
H7 C1 1_555 1_555
H8 N5 1_555 1_555

#END
