
#######################################################################
#
#                 Cambridge Crystallographic Data Centre
#                                CCDC 
#
#######################################################################
#
# If this CIF has been generated from an entry in the Cambridge 
# Structural Database, then it will include bibliographic, chemical, 
# crystal, experimental, refinement or atomic coordinate data resulting 
# from the CCDC's data processing and validation procedures.
#
#######################################################################

data_EJEXOG01
_chemical_name_common            
(E)-1-(1-Ethoxycarbonyl-2-(N-benzylamino)-1-propenyl)benzotriazole
_chemical_formula_moiety         'C19 H20 N4 O2'
_chemical_name_systematic        
'Ethyl (E)-2-(1H-benzotriazol-1-yl)-3-(N-benzylamino)but-2-enoate'
_symmetry_cell_setting           monoclinic
_symmetry_space_group_name_H-M   'P 2/c'
_symmetry_Int_Tables_number      13
_space_group_name_Hall           '-P 2yc'
loop_
_symmetry_equiv_pos_site_id
_symmetry_equiv_pos_as_xyz
1 x,y,z
2 x,-y,1/2+z
3 -x,-y,-z
4 -x,y,1/2-z
_cell_length_a                   13.071(3)
_cell_length_b                   8.3600(10)
_cell_length_c                   17.418(4)
_cell_angle_alpha                90
_cell_angle_beta                 109.01(2)
_cell_angle_gamma                90
_cell_volume                     1799.52
_exptl_crystal_colour            colorless
_exptl_crystal_description       prismatic
_chemical_melting_point          '335-337 K'
_cell_formula_units_Z            4
_exptl_crystal_recrystallization_method methanol
loop_
_atom_site_label
_atom_site_type_symbol
_atom_site_fract_x
_atom_site_fract_y
_atom_site_fract_z
O1 O 0.52812(9) 0.06990(10) 0.66653(7)
O2 O 0.58444(9) 0.15740(10) 0.56502(7)
N1 N 0.67680(10) -0.0707(2) 0.79173(9)
N2 N 0.78450(10) 0.0457(2) 0.63105(8)
N3 N 0.80840(10) -0.0757(2) 0.58730(10)
N4 N 0.88390(10) -0.0284(2) 0.55900(10)
C1 C 0.74280(10) -0.0508(2) 0.74790(10)
C2 C 0.70850(10) 0.0245(2) 0.67360(10)
C3 C 0.60040(10) 0.0837(2) 0.63650(10)
C4 C 0.8564(2) -0.1127(3) 0.78310(10)
C5 C 0.91040(10) 0.1272(3) 0.58400(10)
C6 C 0.9861(2) 0.2309(3) 0.56970(10)
C7 C 0.9926(2) 0.3791(4) 0.60160(10)
C8 C 0.9269(2) 0.4282(3) 0.64670(10)
C9 C 0.8532(2) 0.3268(3) 0.66210(10)
C10 C 0.84700(10) 0.1749(2) 0.62990(10)
C11 C 0.47730(10) 0.2260(2) 0.52820(10)
C12 C 0.4735(2) 0.3020(3) 0.44970(10)
C13 C 0.70300(10) -0.1536(2) 0.86920(10)
C14 C 0.70000(10) -0.3339(2) 0.86280(10)
C15 C 0.6521(2) -0.4136(3) 0.79080(10)
C16 C 0.6514(3) -0.5806(4) 0.7904(2)
C17 C 0.6976(3) -0.6640(3) 0.8599(3)
C18 C 0.7442(2) -0.5863(3) 0.9305(2)
C19 C 0.74520(10) -0.4229(2) 0.93220(10)
H1 H 0.8548 -0.2266 0.7862
H2 H 0.8884 -0.0702 0.8360
H3 H 0.8971 -0.0819 0.7495
H4 H 1.0269 0.1970 0.5377
H5 H 1.0399 0.4580 0.5910
H6 H 0.9350 0.5378 0.6647
H7 H 0.8095 0.3612 0.6912
H8 H 0.4593 0.3035 0.5680
H9 H 0.4224 0.1382 0.5211
H10 H 0.5295 0.3826 0.4553
H11 H 0.4037 0.3534 0.4252
H12 H 0.4889 0.2261 0.4028
H13 H 0.6500 -0.1199 0.8947
H14 H 0.7766 -0.1165 0.9090
H15 H 0.6157 -0.3500 0.7416
H16 H 0.6166 -0.6350 0.7384
H17 H 0.6965 -0.7763 0.8573
H18 H 0.7772 -0.6471 0.9809
H19 H 0.7784 -0.3626 0.9826
H20 H 0.6077 -0.0366 0.7691
loop_
_geom_bond_atom_site_label_1
_geom_bond_atom_site_label_2
_geom_bond_site_symmetry_1
_geom_bond_site_symmetry_2
O1 C3 1_555 1_555
O2 C3 1_555 1_555
N1 C1 1_555 1_555
N2 N3 1_555 1_555
N3 N4 1_555 1_555
N4 C5 1_555 1_555
C1 C2 1_555 1_555
C2 N2 1_555 1_555
C3 C2 1_555 1_555
C4 C1 1_555 1_555
C5 C6 1_555 1_555
C6 C7 1_555 1_555
C7 C8 1_555 1_555
C8 C9 1_555 1_555
C9 C10 1_555 1_555
C10 N2 1_555 1_555
C11 O2 1_555 1_555
C12 C11 1_555 1_555
C13 N1 1_555 1_555
C14 C13 1_555 1_555
C15 C14 1_555 1_555
C16 C15 1_555 1_555
C17 C16 1_555 1_555
C18 C17 1_555 1_555
C19 C14 1_555 1_555
H1 C4 1_555 1_555
H2 C4 1_555 1_555
H3 C4 1_555 1_555
H4 C6 1_555 1_555
H5 C7 1_555 1_555
H6 C8 1_555 1_555
H7 C9 1_555 1_555
H8 C11 1_555 1_555
H9 C11 1_555 1_555
H10 C12 1_555 1_555
H11 C12 1_555 1_555
H12 C12 1_555 1_555
H13 C13 1_555 1_555
H14 C13 1_555 1_555
H15 C15 1_555 1_555
H16 C16 1_555 1_555
H17 C17 1_555 1_555
H18 C18 1_555 1_555
H19 C19 1_555 1_555
H20 N1 1_555 1_555
C5 C10 1_555 1_555
C18 C19 1_555 1_555

#END
