
#######################################################################
#
#                 Cambridge Crystallographic Data Centre
#                                CCDC 
#
#######################################################################
#
# If this CIF has been generated from an entry in the Cambridge 
# Structural Database, then it will include bibliographic, chemical, 
# crystal, experimental, refinement or atomic coordinate data resulting 
# from the CCDC's data processing and validation procedures.
#
#######################################################################

data_EJIBAC
_chemical_formula_moiety         'C30 H44 Br2 Mg2 N2 O2'
_chemical_name_systematic        
bis(\m-1-(2-(dimethylamino)benzyl)cyclohexanolato)-dibromo-di-magnesium
_symmetry_cell_setting           monoclinic
_symmetry_space_group_name_H-M   'P 21'
_symmetry_Int_Tables_number      4
_space_group_name_Hall           'P 2yb'
loop_
_symmetry_equiv_pos_site_id
_symmetry_equiv_pos_as_xyz
1 x,y,z
2 -x,1/2+y,-z
_cell_length_a                   10.9400(10)
_cell_length_b                   16.2466(15)
_cell_length_c                   18.8972(18)
_cell_angle_alpha                90
_cell_angle_beta                 102.890(2)
_cell_angle_gamma                90
_cell_volume                     3274.11
_exptl_crystal_colour            colorless
_exptl_crystal_description       block
_chemical_melting_point          '242-245 deg.C'
_cell_formula_units_Z            4
loop_
_atom_site_label
_atom_site_type_symbol
_atom_site_fract_x
_atom_site_fract_y
_atom_site_fract_z
Mg1 Mg 0.21263(17) 0.68118(13) 0.05635(11)
Mg2 Mg 0.02104(18) 0.60914(12) -0.05566(11)
Br1 Br 0.27247(7) 0.81690(4) 0.10581(4)
Br2 Br -0.18571(7) 0.63930(5) -0.12866(5)
N1 N 0.3386(4) 0.5939(3) 0.1260(3)
N2 N 0.0725(5) 0.4882(3) -0.0921(3)
O1 O 0.1787(3) 0.6679(3) -0.0469(2)
O2 O 0.0532(3) 0.6257(3) 0.0480(2)
C1 C 0.2776(6) 0.5185(4) 0.1412(3)
C2 C 0.1651(6) 0.5219(4) 0.1677(3)
C3 C 0.1159(6) 0.4475(4) 0.1843(4)
H1 H 0.0424 0.4488 0.2032
C4 C 0.1666(6) 0.3723(5) 0.1753(4)
H2 H 0.1282 0.3230 0.1863
C5 C 0.2751(7) 0.3703(5) 0.1496(5)
H3 H 0.3123 0.3189 0.1429
C6 C 0.3302(7) 0.4424(5) 0.1336(4)
H4 H 0.4059 0.4397 0.1170
C7 C 0.0976(6) 0.5997(4) 0.1753(3)
H5 H 0.1591 0.6453 0.1854
H6 H 0.0581 0.5948 0.2174
C8 C -0.0046(5) 0.6214(4) 0.1071(3)
C9 C -0.1138(6) 0.5604(4) 0.0928(4)
H7 H -0.1679 0.5721 0.0444
H8 H -0.0799 0.5040 0.0914
C10 C -0.1938(6) 0.5630(5) 0.1492(4)
H9 H -0.1428 0.5455 0.1969
H10 H -0.2648 0.5241 0.1352
C11 C -0.2446(6) 0.6500(5) 0.1556(4)
H11 H -0.3011 0.6659 0.1091
H12 H -0.2936 0.6509 0.1938
C12 C -0.1386(6) 0.7102(5) 0.1743(4)
H13 H -0.0852 0.6963 0.2223
H14 H -0.1726 0.7663 0.1772
C13 C -0.0599(6) 0.7085(4) 0.1171(4)
H15 H 0.0100 0.7482 0.1311
H16 H -0.1124 0.7268 0.0701
C14 C 0.4292(6) 0.5823(5) 0.0788(4)
H17 H 0.4262 0.5304 0.0510
H18 H 0.5123 0.6093 0.0927
C15 C 0.4121(6) 0.6285(5) 0.1972(3)
H19 H 0.4780 0.5895 0.2193
H20 H 0.3556 0.6373 0.2301
H21 H 0.4502 0.6810 0.1884
C16 C 0.2069(6) 0.4793(4) -0.0933(4)
C17 C 0.2640(6) 0.5396(5) -0.1286(4)
C18 C 0.3895(7) 0.5239(5) -0.1327(4)
H22 H 0.4299 0.5621 -0.1580
C19 C 0.4553(8) 0.4568(6) -0.1022(5)
H23 H 0.5400 0.4492 -0.1053
C20 C 0.3968(8) 0.3998(6) -0.0665(5)
H24 H 0.4408 0.3525 -0.0447
C21 C 0.2742(8) 0.4125(5) -0.0630(4)
H25 H 0.2345 0.3731 -0.0385
C22 C 0.2069(6) 0.6191(5) -0.1615(3)
H26 H 0.1156 0.6110 -0.1801
H27 H 0.2435 0.6333 -0.2034
C23 C 0.2275(6) 0.6916(4) -0.1078(3)
C24 C 0.3657(6) 0.7160(5) -0.0797(4)
H28 H 0.3723 0.7542 -0.0382
H29 H 0.4152 0.6662 -0.0620
C25 C 0.4212(8) 0.7570(5) -0.1373(5)
H30 H 0.4229 0.7168 -0.1765
H31 H 0.5088 0.7732 -0.1157
C26 C 0.3474(8) 0.8329(6) -0.1699(4)
H32 H 0.3516 0.8755 -0.1320
H33 H 0.3846 0.8560 -0.2088
C27 C 0.2115(8) 0.8095(6) -0.2009(4)
H34 H 0.2068 0.7722 -0.2429
H35 H 0.1624 0.8596 -0.2182
C28 C 0.1549(7) 0.7663(5) -0.1430(4)
H36 H 0.1495 0.8067 -0.1046
H37 H 0.0683 0.7489 -0.1658
C29 C 0.0349(7) 0.4384(4) -0.0349(4)
H38 H 0.1013 0.4159 0.0048
H39 H -0.0434 0.4058 -0.0478
C30 C -0.0033(7) 0.4625(5) -0.1649(4)
H40 H 0.0147 0.4049 -0.1738
H41 H 0.0184 0.4973 -0.2026
H42 H -0.0927 0.4687 -0.1657
Mg3 Mg 0.5509(2) 0.86680(14) 0.53406(11)
Mg4 Mg 0.64910(18) 0.80219(12) 0.41606(11)
Br3 Br 0.40346(9) 0.83009(6) 0.60653(5)
Br4 Br 0.67724(8) 0.66947(4) 0.36253(5)
N3 N 0.6288(6) 0.9867(3) 0.5757(3)
N4 N 0.7095(5) 0.8962(3) 0.3479(3)
O3 O 0.4975(3) 0.8543(2) 0.4308(2)
O4 O 0.7030(4) 0.8137(3) 0.5193(2)
C31 C 0.7612(8) 0.9993(4) 0.5761(4)
C32 C 0.8500(8) 0.9398(5) 0.6083(4)
C33 C 0.9773(8) 0.9578(6) 0.6147(5)
H43 H 1.0386 0.9181 0.6356
C34 C 1.0152(10) 1.0321(7) 0.5912(6)
H44 H 1.1021 1.0437 0.5977
C35 C 0.9313(10) 1.0875(6) 0.5596(6)
H45 H 0.9586 1.1375 0.5421
C36 C 0.8015(9) 1.0725(5) 0.5517(5)
H46 H 0.7421 1.1127 0.5297
C37 C 0.8181(7) 0.8541(5) 0.6345(4)
H47 H 0.8864 0.8371 0.6757
H48 H 0.7404 0.8587 0.6529
C38 C 0.7998(6) 0.7875(4) 0.5775(3)
C39 C 0.9181(6) 0.7691(5) 0.5500(4)
H49 H 0.8953 0.7348 0.5057
H50 H 0.9531 0.8215 0.5365
C40 C 1.0179(8) 0.7250(6) 0.6054(5)
H51 H 1.0898 0.7125 0.5834
H52 H 1.0482 0.7622 0.6472
C41 C 0.9720(8) 0.6460(5) 0.6327(4)
H53 H 1.0386 0.6221 0.6715
H54 H 0.9512 0.6056 0.5925
C42 C 0.8567(8) 0.6637(5) 0.6621(4)
H55 H 0.8230 0.6114 0.6768
H56 H 0.8802 0.6992 0.7056
C43 C 0.7574(7) 0.7057(5) 0.6063(4)
H57 H 0.6843 0.7168 0.6277
H58 H 0.7295 0.6678 0.5648
C44 C 0.6074(9) 1.0080(5) 0.6470(4)
H59 H 0.6389 1.0637 0.6602
H60 H 0.6516 0.9687 0.6831
H61 H 0.5174 1.0059 0.6456
C45 C 0.5438(8) 1.0388(5) 0.5223(4)
H62 H 0.5769 1.0649 0.4830
H63 H 0.4758 1.0690 0.5380
C46 C 0.6312(6) 0.9697(4) 0.3344(3)
C47 C 0.5017(6) 0.9607(4) 0.3082(3)
C48 C 0.4332(7) 1.0326(5) 0.2878(4)
H64 H 0.3458 1.0287 0.2674
C49 C 0.4885(7) 1.1084(5) 0.2965(4)
H65 H 0.4387 1.1560 0.2822
C50 C 0.6114(7) 1.1169(5) 0.3246(4)
H66 H 0.6483 1.1700 0.3317
C51 C 0.6839(7) 1.0471(4) 0.3433(4)
H67 H 0.7714 1.0526 0.3626
C52 C 0.4307(6) 0.8798(4) 0.3044(3)
H68 H 0.4850 0.8351 0.2932
H69 H 0.3559 0.8827 0.2638
C53 C 0.3879(5) 0.8571(4) 0.3748(4)
C54 C 0.3298(6) 0.7721(5) 0.3685(4)
H70 H 0.3861 0.7338 0.3502
H71 H 0.3246 0.7533 0.4175
C55 C 0.2019(7) 0.7669(5) 0.3197(5)
H72 H 0.1689 0.7103 0.3215
H73 H 0.2078 0.7783 0.2691
C56 C 0.1120(6) 0.8277(5) 0.3419(5)
H74 H 0.0965 0.8120 0.3897
H75 H 0.0308 0.8267 0.3059
C57 C 0.1679(6) 0.9141(5) 0.3460(4)
H76 H 0.1720 0.9321 0.2966
H77 H 0.1118 0.9525 0.3643
C58 C 0.2962(6) 0.9191(5) 0.3942(4)
H78 H 0.2899 0.9096 0.4451
H79 H 0.3296 0.9753 0.3912
C59 C 0.8368(6) 0.9109(5) 0.3949(4)
H80 H 0.8514 0.9619 0.4243
H81 H 0.9107 0.8882 0.3795
C60 C 0.7294(7) 0.8633(5) 0.2797(4)
H82 H 0.7822 0.9012 0.2593
H83 H 0.6484 0.8568 0.2454
H84 H 0.7710 0.8096 0.2884
loop_
_geom_bond_atom_site_label_1
_geom_bond_atom_site_label_2
_geom_bond_site_symmetry_1
_geom_bond_site_symmetry_2
Mg1 Br1 1_555 1_555
Mg2 Br2 1_555 1_555
N1 Mg1 1_555 1_555
N2 Mg2 1_555 1_555
O1 Mg1 1_555 1_555
O2 Mg1 1_555 1_555
C1 N1 1_555 1_555
C2 C1 1_555 1_555
C3 C2 1_555 1_555
H1 C3 1_555 1_555
C4 C3 1_555 1_555
H2 C4 1_555 1_555
C5 C4 1_555 1_555
H3 C5 1_555 1_555
C6 C1 1_555 1_555
H4 C6 1_555 1_555
C7 C2 1_555 1_555
H5 C7 1_555 1_555
H6 C7 1_555 1_555
C8 O2 1_555 1_555
C9 C8 1_555 1_555
H7 C9 1_555 1_555
H8 C9 1_555 1_555
C10 C9 1_555 1_555
H9 C10 1_555 1_555
H10 C10 1_555 1_555
C11 C10 1_555 1_555
H11 C11 1_555 1_555
H12 C11 1_555 1_555
C12 C11 1_555 1_555
H13 C12 1_555 1_555
H14 C12 1_555 1_555
C13 C8 1_555 1_555
H15 C13 1_555 1_555
H16 C13 1_555 1_555
C14 N1 1_555 1_555
H17 C14 1_555 1_555
H18 C14 1_555 1_555
C15 N1 1_555 1_555
H19 C15 1_555 1_555
H20 C15 1_555 1_555
H21 C15 1_555 1_555
C16 N2 1_555 1_555
C17 C16 1_555 1_555
C18 C17 1_555 1_555
H22 C18 1_555 1_555
C19 C18 1_555 1_555
H23 C19 1_555 1_555
C20 C19 1_555 1_555
H24 C20 1_555 1_555
C21 C16 1_555 1_555
H25 C21 1_555 1_555
C22 C17 1_555 1_555
H26 C22 1_555 1_555
H27 C22 1_555 1_555
C23 O1 1_555 1_555
C24 C23 1_555 1_555
H28 C24 1_555 1_555
H29 C24 1_555 1_555
C25 C24 1_555 1_555
H30 C25 1_555 1_555
H31 C25 1_555 1_555
C26 C25 1_555 1_555
H32 C26 1_555 1_555
H33 C26 1_555 1_555
C27 C26 1_555 1_555
H34 C27 1_555 1_555
H35 C27 1_555 1_555
C28 C23 1_555 1_555
H36 C28 1_555 1_555
H37 C28 1_555 1_555
C29 N2 1_555 1_555
H38 C29 1_555 1_555
H39 C29 1_555 1_555
C30 N2 1_555 1_555
H40 C30 1_555 1_555
H41 C30 1_555 1_555
H42 C30 1_555 1_555
Mg3 Br3 1_555 1_555
Mg4 Br4 1_555 1_555
N3 Mg3 1_555 1_555
N4 Mg4 1_555 1_555
O3 Mg3 1_555 1_555
O4 Mg3 1_555 1_555
C31 N3 1_555 1_555
C32 C31 1_555 1_555
C33 C32 1_555 1_555
H43 C33 1_555 1_555
C34 C33 1_555 1_555
H44 C34 1_555 1_555
C35 C34 1_555 1_555
H45 C35 1_555 1_555
C36 C31 1_555 1_555
H46 C36 1_555 1_555
C37 C32 1_555 1_555
H47 C37 1_555 1_555
H48 C37 1_555 1_555
C38 O4 1_555 1_555
C39 C38 1_555 1_555
H49 C39 1_555 1_555
H50 C39 1_555 1_555
C40 C39 1_555 1_555
H51 C40 1_555 1_555
H52 C40 1_555 1_555
C41 C40 1_555 1_555
H53 C41 1_555 1_555
H54 C41 1_555 1_555
C42 C41 1_555 1_555
H55 C42 1_555 1_555
H56 C42 1_555 1_555
C43 C38 1_555 1_555
H57 C43 1_555 1_555
H58 C43 1_555 1_555
C44 N3 1_555 1_555
H59 C44 1_555 1_555
H60 C44 1_555 1_555
H61 C44 1_555 1_555
C45 N3 1_555 1_555
H62 C45 1_555 1_555
H63 C45 1_555 1_555
C46 N4 1_555 1_555
C47 C46 1_555 1_555
C48 C47 1_555 1_555
H64 C48 1_555 1_555
C49 C48 1_555 1_555
H65 C49 1_555 1_555
C50 C49 1_555 1_555
H66 C50 1_555 1_555
C51 C46 1_555 1_555
H67 C51 1_555 1_555
C52 C47 1_555 1_555
H68 C52 1_555 1_555
H69 C52 1_555 1_555
C53 O3 1_555 1_555
C54 C53 1_555 1_555
H70 C54 1_555 1_555
H71 C54 1_555 1_555
C55 C54 1_555 1_555
H72 C55 1_555 1_555
H73 C55 1_555 1_555
C56 C55 1_555 1_555
H74 C56 1_555 1_555
H75 C56 1_555 1_555
C57 C56 1_555 1_555
H76 C57 1_555 1_555
H77 C57 1_555 1_555
C58 C53 1_555 1_555
H78 C58 1_555 1_555
H79 C58 1_555 1_555
C59 N4 1_555 1_555
H80 C59 1_555 1_555
H81 C59 1_555 1_555
C60 N4 1_555 1_555
H82 C60 1_555 1_555
H83 C60 1_555 1_555
H84 C60 1_555 1_555
Mg2 O1 1_555 1_555
Mg2 O2 1_555 1_555
C5 C6 1_555 1_555
C7 C8 1_555 1_555
C12 C13 1_555 1_555
C20 C21 1_555 1_555
C22 C23 1_555 1_555
C27 C28 1_555 1_555
Mg4 O3 1_555 1_555
Mg4 O4 1_555 1_555
C35 C36 1_555 1_555
C37 C38 1_555 1_555
C42 C43 1_555 1_555
C50 C51 1_555 1_555
C52 C53 1_555 1_555
C57 C58 1_555 1_555

#END
