
#######################################################################
#
#                 Cambridge Crystallographic Data Centre
#                                CCDC 
#
#######################################################################
#
# If this CIF has been generated from an entry in the Cambridge 
# Structural Database, then it will include bibliographic, chemical, 
# crystal, experimental, refinement or atomic coordinate data resulting 
# from the CCDC's data processing and validation procedures.
#
#######################################################################

data_EJIGOU
_chemical_name_common            5,16-Diphenyltetrathia(22)annulene
_chemical_formula_moiety         'C34 H22 S4'
_chemical_name_systematic        
2,13-Diphenyl-23,24,25,26-tetrathiapentacyclo-[18.2.1.1^3,6^.1^9,12^.1^14,17^]hexacosa-1,3,5,7,9,11,13,15,17,19,21-undecaene
_symmetry_cell_setting           monoclinic
_symmetry_space_group_name_H-M   'C 2/m'
_symmetry_Int_Tables_number      12
_space_group_name_Hall           '-C 2y'
loop_
_symmetry_equiv_pos_site_id
_symmetry_equiv_pos_as_xyz
1 x,y,z
2 -x,y,-z
3 1/2+x,1/2+y,z
4 1/2-x,1/2+y,-z
5 -x,-y,-z
6 x,-y,z
7 1/2-x,1/2-y,-z
8 1/2+x,1/2-y,z
_cell_length_a                   10.8683(3)
_cell_length_b                   20.9734(5)
_cell_length_c                   5.9459(2)
_cell_angle_alpha                90
_cell_angle_beta                 98.702(3)
_cell_angle_gamma                90
_cell_volume                     1339.74
_exptl_crystal_colour            black
_exptl_crystal_description       block
_chemical_melting_point          300deg.C
_cell_formula_units_Z            2
loop_
_atom_site_label
_atom_site_type_symbol
_atom_site_fract_x
_atom_site_fract_y
_atom_site_fract_z
S1 S 0.91151(4) 0.07413(2) 0.27848(7)
C1 C 0.76907(17) 0.03305(8) -0.1355(3)
C2 C 0.81943(16) 0.08149(8) 0.0128(3)
C3 C 0.80300(17) 0.14676(8) -0.0397(3)
H1 H 0.7550 0.1614 -0.1769
C4 C 0.86149(16) 0.18731(8) 0.1222(3)
H2 H 0.8571 0.2324 0.1073
C5 C 0.92881(16) 0.15663(8) 0.3129(3)
C6 C 1.0000 0.18674(11) 0.5000
C7 C 1.0000 0.25816(11) 0.5000
C8 C 1.07740(18) 0.29213(9) 0.3781(3)
H3 H 1.1314 0.2698 0.2939
C9 C 1.07697(19) 0.35815(9) 0.3774(3)
H4 H 1.1299 0.3808 0.2921
C10 C 1.0000 0.39097(12) 0.5000
H5 H 1.0000 0.4363 0.5000
H6 H 0.7215(17) 0.0506(8) -0.270(3)
S1A S 1.08849(4) 0.07413(2) 0.72152(7)
S1D S 1.08849(4) -0.07413(2) 0.72152(7)
S1E S 0.91151(4) -0.07413(2) 0.27848(7)
C1A C 1.23093(17) 0.03305(8) 1.1355(3)
C1D C 1.23093(17) -0.03305(8) 1.1355(3)
C1E C 0.76907(17) -0.03305(8) -0.1355(3)
C2A C 1.18057(16) 0.08149(8) 0.9872(3)
C2D C 1.18057(16) -0.08149(8) 0.9872(3)
C2E C 0.81943(16) -0.08149(8) 0.0128(3)
C3A C 1.19700(17) 0.14676(8) 1.0397(3)
C3D C 1.19700(17) -0.14676(8) 1.0397(3)
C3E C 0.80300(17) -0.14676(8) -0.0397(3)
H1A H 1.2450 0.1614 1.1769
H1D H 1.2450 -0.1614 1.1769
H1E H 0.7550 -0.1614 -0.1769
C4A C 1.13851(16) 0.18731(8) 0.8778(3)
C4D C 1.13851(16) -0.18731(8) 0.8778(3)
C4E C 0.86149(16) -0.18731(8) 0.1222(3)
H2A H 1.1429 0.2324 0.8927
H2D H 1.1429 -0.2324 0.8927
H2E H 0.8571 -0.2324 0.1073
C5A C 1.07119(16) 0.15663(8) 0.6871(3)
C5D C 1.07119(16) -0.15663(8) 0.6871(3)
C5E C 0.92881(16) -0.15663(8) 0.3129(3)
C6D C 1.0000 -0.18674(11) 0.5000
C7D C 1.0000 -0.25816(11) 0.5000
C8A C 0.92260(18) 0.29213(9) 0.6219(3)
C8D C 0.92260(18) -0.29213(9) 0.6219(3)
C8E C 1.07740(18) -0.29213(9) 0.3781(3)
H3A H 0.8686 0.2698 0.7061
H3D H 0.8686 -0.2698 0.7061
H3E H 1.1314 -0.2698 0.2939
C9A C 0.92303(19) 0.35815(9) 0.6226(3)
C9D C 0.92303(19) -0.35815(9) 0.6226(3)
C9E C 1.07697(19) -0.35815(9) 0.3774(3)
H4A H 0.8701 0.3808 0.7079
H4D H 0.8701 -0.3808 0.7079
H4E H 1.1299 -0.3808 0.2921
C10D C 1.0000 -0.39097(12) 0.5000
H5D H 1.0000 -0.4363 0.5000
H6A H 1.2785(17) 0.0506(8) 1.270(3)
H6D H 1.2785(17) -0.0506(8) 1.270(3)
H6E H 0.7215(17) -0.0506(8) -0.270(3)
loop_
_geom_bond_atom_site_label_1
_geom_bond_atom_site_label_2
_geom_bond_site_symmetry_1
_geom_bond_site_symmetry_2
S1 C2 1_555 1_555
C1 C2 1_555 1_555
C2 C3 1_555 1_555
C3 H1 1_555 1_555
C4 C3 1_555 1_555
H2 C4 1_555 1_555
C5 S1 1_555 1_555
C6 C5 1_555 1_555
C7 C6 1_555 1_555
C8 C7 1_555 1_555
H3 C8 1_555 1_555
C9 C8 1_555 1_555
H4 C9 1_555 1_555
C10 C9 1_555 1_555
H5 C10 1_555 1_555
H6 C1 1_555 1_555
S1A C2A 1_555 1_555
S1D C2D 1_555 1_555
S1E C2E 1_555 1_555
C1A C1D 1_555 1_555
C1D C2D 1_555 1_555
C1E C1 1_555 1_555
C2A C1A 1_555 1_555
C2D C3D 1_555 1_555
C2E C1E 1_555 1_555
C3A C2A 1_555 1_555
C3D H1D 1_555 1_555
C3E C2E 1_555 1_555
H1A C3A 1_555 1_555
H1E C3E 1_555 1_555
C4A C3A 1_555 1_555
C4D C3D 1_555 1_555
C4E C3E 1_555 1_555
H2A C4A 1_555 1_555
H2D C4D 1_555 1_555
H2E C4E 1_555 1_555
C5A C6 1_555 1_555
C5D S1D 1_555 1_555
C5E S1E 1_555 1_555
C6D C5D 1_555 1_555
C7D C6D 1_555 1_555
C8A C7 1_555 1_555
C8D C7D 1_555 1_555
C8E C7D 1_555 1_555
H3A C8A 1_555 1_555
H3D C8D 1_555 1_555
H3E C8E 1_555 1_555
C9A C10 1_555 1_555
C9D C8D 1_555 1_555
C9E C8E 1_555 1_555
H4A C9A 1_555 1_555
H4D C9D 1_555 1_555
H4E C9E 1_555 1_555
C10D C9D 1_555 1_555
H5D C10D 1_555 1_555
H6A C1A 1_555 1_555
H6D C1D 1_555 1_555
H6E C1E 1_555 1_555
C4 C5 1_555 1_555
S1A C5A 1_555 1_555
C4A C5A 1_555 1_555
C4D C5D 1_555 1_555
C4E C5E 1_555 1_555
C5E C6D 1_555 1_555
C8A C9A 1_555 1_555
C9E C10D 1_555 1_555

#END
