
#######################################################################
#
#                 Cambridge Crystallographic Data Centre
#                                CCDC 
#
#######################################################################
#
# If this CIF has been generated from an entry in the Cambridge 
# Structural Database, then it will include bibliographic, chemical, 
# crystal, experimental, refinement or atomic coordinate data resulting 
# from the CCDC's data processing and validation procedures.
#
#######################################################################

data_EJITIB
_chemical_formula_moiety         'C31 H37 N1 O4 S1'
_chemical_name_systematic        
'(1-Phenyl-3-(prop-1-en-2-yl)-1,2,3,3a,4,8b-hexahydrocyclopenta[b]indol-2-yl)methyl (7,7-dimethyl-2-oxobicyclo[2.2.1]hept-1-yl)methanesulfonate'
_symmetry_cell_setting           orthorhombic
_symmetry_space_group_name_H-M   'P 21 21 21'
_symmetry_Int_Tables_number      19
_space_group_name_Hall           'P 2ac 2ab'
loop_
_symmetry_equiv_pos_site_id
_symmetry_equiv_pos_as_xyz
1 x,y,z
2 1/2-x,-y,1/2+z
3 -x,1/2+y,1/2-z
4 1/2+x,1/2-y,-z
_cell_length_a                   9.0721(14)
_cell_length_b                   9.2960(15)
_cell_length_c                   31.720(5)
_cell_angle_alpha                90
_cell_angle_beta                 90
_cell_angle_gamma                90
_cell_volume                     2675.08
_exptl_crystal_colour            colorless
_exptl_crystal_description       block
_cell_formula_units_Z            4
loop_
_atom_site_label
_atom_site_type_symbol
_atom_site_fract_x
_atom_site_fract_y
_atom_site_fract_z
S1 S 0.55931(4) 0.65156(4) 0.042750(12)
O1 O 0.58994(12) 0.62955(13) 0.09098(3)
O2 O 0.69688(14) 0.67019(13) 0.02120(4)
O3 O 0.46379(14) 0.54069(13) 0.02805(4)
O4 O 0.44037(15) 0.86896(13) 0.13457(4)
N1 N 1.12311(16) 0.72453(16) 0.18547(5)
C1 C 1.06393(18) 0.86268(18) 0.18579(5)
C2 C 1.1342(2) 0.9917(2) 0.17799(5)
H1 H 1.2356 0.9941 0.1705
C3 C 1.0535(2) 1.11763(18) 0.18138(5)
H2 H 1.1002 1.2072 0.1759
C4 C 0.9055(2) 1.11559(18) 0.19270(6)
H3 H 0.8518 1.2030 0.1947
C5 C 0.8362(2) 0.98490(18) 0.20118(5)
H4 H 0.7354 0.9827 0.2093
C6 C 0.91543(17) 0.85896(17) 0.19770(5)
C7 C 0.86904(18) 0.70462(17) 0.20479(5)
H5 H 0.8518 0.6850 0.2354
C8 C 0.73397(17) 0.66039(17) 0.17801(5)
H6 H 0.6686 0.7463 0.1748
C9 C 0.80687(17) 0.62875(17) 0.13489(5)
H7 H 0.8314 0.7230 0.1214
C10 C 0.95279(17) 0.55160(17) 0.14502(5)
H8 H 0.9293 0.4480 0.1502
C11 C 1.00497(17) 0.61809(17) 0.18792(5)
H9 H 1.0320 0.5400 0.2082
C12 C 0.64281(17) 0.53787(17) 0.19573(5)
C13 C 0.49379(18) 0.52889(18) 0.18505(5)
H10 H 0.4519 0.5989 0.1668
C14 C 0.40617(19) 0.41913(19) 0.20068(6)
H11 H 0.3050 0.4148 0.1931
C15 C 0.4646(2) 0.31567(18) 0.22728(5)
H12 H 0.4044 0.2401 0.2377
C16 C 0.6116(2) 0.32388(19) 0.23839(5)
H13 H 0.6527 0.2537 0.2567
C17 C 0.69960(19) 0.43416(17) 0.22293(5)
H14 H 0.8003 0.4389 0.2310
C18 C 1.06566(18) 0.55735(18) 0.10971(5)
C19 C 1.1618(2) 0.4448(2) 0.10459(6)
H15 H 1.2337 0.4479 0.0828
H16 H 1.1564 0.3638 0.1228
C20 C 1.0723(2) 0.6823(2) 0.08215(6)
H17 H 1.1499 0.6682 0.0611
H18 H 1.0942 0.7682 0.0989
H19 H 0.9772 0.6945 0.0679
C21 C 0.71738(17) 0.54286(18) 0.10380(5)
H20 H 0.7782 0.5188 0.0789
H21 H 0.6837 0.4520 0.1169
C22 C 0.45826(18) 0.81399(16) 0.04412(5)
H22 H 0.4342 0.8400 0.0146
H23 H 0.3637 0.7939 0.0586
C23 C 0.52549(17) 0.94605(17) 0.06486(5)
C24 C 0.69426(19) 0.97236(19) 0.06199(6)
H24 H 0.7323 0.9462 0.0338
H25 H 0.7477 0.9159 0.0836
C25 C 0.7106(2) 1.1368(2) 0.07015(7)
H26 H 0.7767 1.1557 0.0944
H27 H 0.7494 1.1869 0.0449
C26 C 0.5525(2) 1.18372(18) 0.07985(5)
H28 H 0.5355 1.2897 0.0777
C27 C 0.5120(2) 1.11909(18) 0.12262(6)
H29 H 0.5930 1.1308 0.1432
H30 H 0.4211 1.1631 0.1341
C28 C 0.48818(19) 0.96124(19) 0.11146(5)
C29 C 0.46096(19) 1.09233(17) 0.04841(5)
C30 C 0.2941(2) 1.10554(19) 0.05410(6)
H31 H 0.2629 1.2035 0.0470
H32 H 0.2682 1.0846 0.0835
H33 H 0.2443 1.0369 0.0355
C31 C 0.4974(2) 1.1237(2) 0.00232(6)
H34 H 0.4321 1.0675 -0.0160
H35 H 0.6001 1.0973 -0.0033
H36 H 0.4835 1.2265 -0.0033
H37 H 1.196(2) 0.706(2) 0.1694(6)
loop_
_geom_bond_atom_site_label_1
_geom_bond_atom_site_label_2
_geom_bond_site_symmetry_1
_geom_bond_site_symmetry_2
S1 O1 1_555 1_555
O1 C21 1_555 1_555
O2 S1 1_555 1_555
O3 S1 1_555 1_555
O4 C28 1_555 1_555
N1 C1 1_555 1_555
C1 C2 1_555 1_555
C2 H1 1_555 1_555
C3 C2 1_555 1_555
H2 C3 1_555 1_555
C4 C3 1_555 1_555
H3 C4 1_555 1_555
C5 C4 1_555 1_555
H4 C5 1_555 1_555
C6 C1 1_555 1_555
C7 C6 1_555 1_555
H5 C7 1_555 1_555
C8 C7 1_555 1_555
H6 C8 1_555 1_555
C9 C8 1_555 1_555
H7 C9 1_555 1_555
C10 C9 1_555 1_555
H8 C10 1_555 1_555
C11 N1 1_555 1_555
H9 C11 1_555 1_555
C12 C8 1_555 1_555
C13 C12 1_555 1_555
H10 C13 1_555 1_555
C14 C13 1_555 1_555
H11 C14 1_555 1_555
C15 C14 1_555 1_555
H12 C15 1_555 1_555
C16 C15 1_555 1_555
H13 C16 1_555 1_555
C17 C12 1_555 1_555
H14 C17 1_555 1_555
C18 C10 1_555 1_555
C19 C18 1_555 1_555
H15 C19 1_555 1_555
H16 C19 1_555 1_555
C20 C18 1_555 1_555
H17 C20 1_555 1_555
H18 C20 1_555 1_555
H19 C20 1_555 1_555
C21 C9 1_555 1_555
H20 C21 1_555 1_555
H21 C21 1_555 1_555
C22 S1 1_555 1_555
H22 C22 1_555 1_555
H23 C22 1_555 1_555
C23 C22 1_555 1_555
C24 C23 1_555 1_555
H24 C24 1_555 1_555
H25 C24 1_555 1_555
C25 C24 1_555 1_555
H26 C25 1_555 1_555
H27 C25 1_555 1_555
C26 C25 1_555 1_555
H28 C26 1_555 1_555
C27 C26 1_555 1_555
H29 C27 1_555 1_555
H30 C27 1_555 1_555
C28 C23 1_555 1_555
C29 C23 1_555 1_555
C30 C29 1_555 1_555
H31 C30 1_555 1_555
H32 C30 1_555 1_555
H33 C30 1_555 1_555
C31 C29 1_555 1_555
H34 C31 1_555 1_555
H35 C31 1_555 1_555
H36 C31 1_555 1_555
H37 N1 1_555 1_555
C5 C6 1_555 1_555
C7 C11 1_555 1_555
C10 C11 1_555 1_555
C16 C17 1_555 1_555
C26 C29 1_555 1_555
C27 C28 1_555 1_555

#END
