
#######################################################################
#
#                 Cambridge Crystallographic Data Centre
#                                CCDC 
#
#######################################################################
#
# If this CIF has been generated from an entry in the Cambridge 
# Structural Database, then it will include bibliographic, chemical, 
# crystal, experimental, refinement or atomic coordinate data resulting 
# from the CCDC's data processing and validation procedures.
#
#######################################################################

data_EJIVUO
_chemical_formula_moiety         'C18 H10 Cl2 O2,2(C2 H6 O1 S1)'
_chemical_name_systematic        
'trans-1,5-Dichloro-9,10-diethynyl-9,10-dihydroxy-9,10-dihydroanthracene dimethylsulfoxide clathrate'
_symmetry_cell_setting           triclinic
_symmetry_space_group_name_H-M   'P -1'
_symmetry_Int_Tables_number      2
_space_group_name_Hall           '-P 1'
loop_
_symmetry_equiv_pos_site_id
_symmetry_equiv_pos_as_xyz
1 x,y,z
2 -x,-y,-z
_cell_length_a                   6.6307(5)
_cell_length_b                   7.6581(5)
_cell_length_c                   11.9717(7)
_cell_angle_alpha                79.613(2)
_cell_angle_beta                 84.232(2)
_cell_angle_gamma                67.037(2)
_cell_volume                     550.255
_exptl_crystal_colour            colorless
_exptl_crystal_description       plate
_chemical_melting_point          553K
_cell_formula_units_Z            1
loop_
_atom_site_label
_atom_site_type_symbol
_atom_site_fract_x
_atom_site_fract_y
_atom_site_fract_z
Cl1 Cl 0.18136(5) 0.84119(5) 0.24276(3)
O1 O 0.54969(16) 0.46903(16) 0.21966(10)
H1 H 0.522(3) 0.398(3) 0.274(2)
C1 C 0.4278(2) 0.4788(2) 0.12480(12)
C2 C 0.3832(2) 0.6734(2) 0.05310(12)
C3 C 0.2695(2) 0.8431(2) 0.10008(13)
C4 C 0.2174(2) 1.0226(2) 0.03529(14)
H2 H 0.141(3) 1.131(3) 0.0696(17)
C5 C 0.2784(2) 1.0360(2) -0.07906(14)
H3 H 0.245(3) 1.156(3) -0.1201(18)
C6 C 0.3916(2) 0.8721(2) -0.12726(14)
H4 H 0.447(4) 0.888(3) -0.202(2)
C7 C 0.4447(2) 0.6909(2) -0.06158(13)
C8 C 0.2128(2) 0.4632(2) 0.16062(13)
C9 C 0.0395(2) 0.4494(2) 0.17787(14)
H5 H -0.097(4) 0.429(3) 0.1916(19)
C7A C 0.5553(2) 0.3091(2) 0.06158(13)
C2A C 0.6168(2) 0.3266(2) -0.05310(12)
C1A C 0.5722(2) 0.5212(2) -0.12480(12)
O1A O 0.45031(16) 0.53097(16) -0.21966(10)
H1A H 0.478(3) 0.602(3) -0.274(2)
C8A C 0.7872(2) 0.5368(2) -0.16062(13)
C9A C 0.9605(2) 0.5506(2) -0.17787(14)
H5A H 1.097(4) 0.571(3) -0.1916(19)
C3A C 0.7305(2) 0.1569(2) -0.10008(13)
Cl1A Cl 0.81864(5) 0.15881(5) -0.24276(3)
C4A C 0.7826(2) -0.0226(2) -0.03529(14)
H2A H 0.859(3) -0.131(3) -0.0696(17)
C5A C 0.7216(2) -0.0360(2) 0.07906(14)
H3A H 0.755(3) -0.156(3) 0.1201(18)
C6A C 0.6084(2) 0.1279(2) 0.12726(14)
H4A H 0.553(4) 0.112(3) 0.202(2)
S1 S 0.26097(6) 0.32752(5) 0.46468(3)
O2 O 0.48256(18) 0.24224(17) 0.40595(10)
C10 C 0.1244(3) 0.1692(3) 0.45882(16)
H6 H 0.211(5) 0.055(4) 0.499(2)
H7 H 0.118(4) 0.164(4) 0.380(2)
H8 H -0.017(5) 0.218(4) 0.495(2)
C11 C 0.3085(3) 0.2719(3) 0.61342(16)
H9 H 0.395(4) 0.345(3) 0.627(2)
H10 H 0.392(4) 0.137(4) 0.628(2)
H11 H 0.178(4) 0.303(3) 0.652(2)
loop_
_geom_bond_atom_site_label_1
_geom_bond_atom_site_label_2
_geom_bond_site_symmetry_1
_geom_bond_site_symmetry_2
Cl1 C3 1_555 1_555
S1 O2 1_555 1_555
O1 H1 1_555 1_555
C1 O1 1_555 1_555
C2 C1 1_555 1_555
C3 C2 1_555 1_555
C4 C3 1_555 1_555
H2 C4 1_555 1_555
C5 C4 1_555 1_555
H3 C5 1_555 1_555
C6 C5 1_555 1_555
H4 C6 1_555 1_555
C7 C2 1_555 1_555
C8 C1 1_555 1_555
C9 C8 1_555 1_555
H5 C9 1_555 1_555
C10 S1 1_555 1_555
H6 C10 1_555 1_555
H7 C10 1_555 1_555
H8 C10 1_555 1_555
C11 S1 1_555 1_555
H9 C11 1_555 1_555
H10 C11 1_555 1_555
H11 C11 1_555 1_555
C7A C1 1_555 1_555
C2A C7A 1_555 1_555
C1A C7 1_555 1_555
O1A C1A 1_555 1_555
H1A O1A 1_555 1_555
C8A C1A 1_555 1_555
C9A C8A 1_555 1_555
H5A C9A 1_555 1_555
C3A C2A 1_555 1_555
Cl1A C3A 1_555 1_555
C4A C3A 1_555 1_555
H2A C4A 1_555 1_555
C5A C4A 1_555 1_555
H3A C5A 1_555 1_555
C6A C7A 1_555 1_555
H4A C6A 1_555 1_555
C6 C7 1_555 1_555
C2A C1A 1_555 1_555
C5A C6A 1_555 1_555

#END
