
#######################################################################
#
#                 Cambridge Crystallographic Data Centre
#                                CCDC 
#
#######################################################################
#
# If this CIF has been generated from an entry in the Cambridge 
# Structural Database, then it will include bibliographic, chemical, 
# crystal, experimental, refinement or atomic coordinate data resulting 
# from the CCDC's data processing and validation procedures.
#
#######################################################################

data_EJIWOJ
_chemical_formula_moiety         'C18 H10 Cl2 O2'
_chemical_name_systematic        
trans-1,5-Dichloro-9,10-diethynyl-9,10-dihydroxy-9,10-dihydroanthracene
_symmetry_cell_setting           monoclinic
_symmetry_space_group_name_H-M   'P 21/n'
_symmetry_Int_Tables_number      14
_space_group_name_Hall           '-P 2yn'
loop_
_symmetry_equiv_pos_site_id
_symmetry_equiv_pos_as_xyz
1 x,y,z
2 1/2+x,1/2-y,1/2+z
3 -x,-y,-z
4 1/2-x,1/2+y,1/2-z
_cell_length_a                   7.4069(15)
_cell_length_b                   12.745(3)
_cell_length_c                   14.844(3)
_cell_angle_alpha                90
_cell_angle_beta                 93.30(3)
_cell_angle_gamma                90
_cell_volume                     1398.96
_exptl_crystal_colour            colorless
_exptl_crystal_description       needle
_chemical_melting_point          553-554K
_cell_formula_units_Z            4
_exptl_crystal_recrystallization_method ethanol/benzene
loop_
_atom_site_label
_atom_site_type_symbol
_atom_site_fract_x
_atom_site_fract_y
_atom_site_fract_z
Cl1 Cl 0.12480(5) 0.02486(3) 0.60684(3)
Cl2 Cl -0.49105(5) 0.22567(3) 1.01385(3)
O1 O -0.21561(16) 0.30889(9) 0.88919(8)
O2 O -0.11647(16) -0.06426(9) 0.74618(8)
C1 C -0.0216(2) 0.18935(12) 0.82228(10)
C2 C -0.3345(2) 0.05305(12) 0.80567(10)
C3 C -0.2766(2) 0.06024(12) 0.64716(11)
C4 C 0.1161(2) 0.11439(13) 0.69546(10)
C5 C -0.6214(2) 0.06264(13) 0.91901(11)
C6 C 0.1244(2) 0.25925(13) 0.83289(11)
C7 C -0.6212(2) -0.01302(13) 0.85167(11)
C8 C -0.0288(2) 0.11560(12) 0.75301(10)
C9 C 0.2617(2) 0.25746(13) 0.77448(11)
C10 C 0.2593(2) 0.18425(13) 0.70524(11)
C11 C -0.0777(2) 0.17225(12) 0.98132(11)
C12 C -0.1874(2) 0.04053(12) 0.73798(10)
C13 C -0.4775(2) 0.13136(12) 0.92891(10)
C14 C -0.4796(2) -0.01673(13) 0.79489(11)
C15 C -0.3290(2) 0.12814(12) 0.87384(10)
C16 C -0.1653(2) 0.19905(12) 0.89164(10)
C17 C -0.3564(2) 0.07918(14) 0.57757(12)
C18 C -0.0040(2) 0.14884(14) 1.05159(11)
H1 H -0.485(2) -0.0669(15) 0.7472(13)
H2 H -0.716(3) 0.0662(16) 0.9582(13)
H3 H 0.355(3) 0.1796(16) 0.6654(14)
H4 H 0.127(3) 0.3069(17) 0.8803(14)
H5 H -0.715(3) -0.0630(16) 0.8426(13)
H6 H -0.169(3) -0.1000(18) 0.7115(15)
H7 H 0.356(3) 0.3059(15) 0.7809(12)
H8 H 0.050(3) 0.1302(18) 1.1062(16)
H9 H -0.280(3) 0.317(2) 0.9315(17)
H10 H -0.416(3) 0.0914(19) 0.5243(17)
loop_
_geom_bond_atom_site_label_1
_geom_bond_atom_site_label_2
_geom_bond_site_symmetry_1
_geom_bond_site_symmetry_2
Cl1 C4 1_555 1_555
Cl2 C13 1_555 1_555
O1 C16 1_555 1_555
O2 C12 1_555 1_555
C1 C6 1_555 1_555
C2 C12 1_555 1_555
C3 C12 1_555 1_555
C4 C8 1_555 1_555
C5 C7 1_555 1_555
C6 C9 1_555 1_555
C7 C14 1_555 1_555
C8 C1 1_555 1_555
C9 C10 1_555 1_555
C10 C4 1_555 1_555
C11 C16 1_555 1_555
C12 C8 1_555 1_555
C13 C5 1_555 1_555
C14 C2 1_555 1_555
C15 C2 1_555 1_555
C16 C1 1_555 1_555
C17 C3 1_555 1_555
C18 C11 1_555 1_555
H1 C14 1_555 1_555
H2 C5 1_555 1_555
H3 C10 1_555 1_555
H4 C6 1_555 1_555
H5 C7 1_555 1_555
H6 O2 1_555 1_555
H7 C9 1_555 1_555
H8 C18 1_555 1_555
H9 O1 1_555 1_555
H10 C17 1_555 1_555
C13 C15 1_555 1_555
C15 C16 1_555 1_555

#END
