
#######################################################################
#
#                 Cambridge Crystallographic Data Centre
#                                CCDC 
#
#######################################################################
#
# If this CIF has been generated from an entry in the Cambridge 
# Structural Database, then it will include bibliographic, chemical, 
# crystal, experimental, refinement or atomic coordinate data resulting 
# from the CCDC's data processing and validation procedures.
#
#######################################################################

data_EJIWAV
_chemical_formula_moiety         'C18 H10 Cl2 O2,C2 H6 O1 S1'
_chemical_name_systematic        
'trans-1,5-Dichloro-9,10-diethynyl-9,10-dihydroxy-9,10-dihydroanthracene dimethylsulfoxide clathrate'
_symmetry_cell_setting           triclinic
_symmetry_space_group_name_H-M   'P -1'
_symmetry_Int_Tables_number      2
_space_group_name_Hall           '-P 1'
loop_
_symmetry_equiv_pos_site_id
_symmetry_equiv_pos_as_xyz
1 x,y,z
2 -x,-y,-z
_cell_length_a                   7.3174(15)
_cell_length_b                   9.3646(19)
_cell_length_c                   14.222(3)
_cell_angle_alpha                81.14(3)
_cell_angle_beta                 89.16(3)
_cell_angle_gamma                67.56(3)
_cell_volume                     888.974
_exptl_crystal_colour            colorless
_exptl_crystal_description       plate
_chemical_melting_point          553K
_cell_formula_units_Z            2
_exptl_crystal_recrystallization_method dimethylsulfoxide/dimethylformamide
loop_
_atom_site_label
_atom_site_type_symbol
_atom_site_fract_x
_atom_site_fract_y
_atom_site_fract_z
S1 S 0.86498(6) 0.77111(4) 0.23246(3)
O3 O 0.73050(18) 0.71260(13) 0.18355(8)
C17 C 0.9096(3) 0.9094(2) 0.14440(13)
C19 C 0.7107(3) 0.9057(2) 0.30396(13)
H8 H 0.599(3) 0.982(3) 0.2662(17)
H9 H 0.985(3) 0.955(3) 0.1746(16)
H11 H 0.782(4) 0.986(3) 0.121(2)
H12 H 0.780(4) 0.965(3) 0.3280(18)
H13 H 0.987(3) 0.854(3) 0.0965(17)
H14 H 0.673(4) 0.843(3) 0.3587(18)
Cl1 Cl 0.87312(6) 0.46234(4) 0.40475(3)
O2 O 0.95360(17) 0.15612(13) 0.32611(7)
C1 C 0.8287(2) 0.33342(17) 0.49518(10)
C3 C 1.2285(2) 0.14429(17) 0.42531(10)
C5 C 0.7450(2) 0.14172(18) 0.64133(10)
C6 C 0.9127(2) 0.17067(16) 0.49523(9)
C8 C 0.8686(2) 0.07577(16) 0.56987(10)
C9 C 1.0526(2) 0.10301(16) 0.41838(9)
C11 C 0.7091(2) 0.39852(18) 0.56610(11)
C13 C 1.3753(2) 0.16666(18) 0.43644(11)
C16 C 0.6662(2) 0.30165(19) 0.63969(11)
H2 H 0.585(3) 0.345(2) 0.6905(14)
H3 H 0.720(3) 0.076(2) 0.6910(14)
H7 H 0.656(3) 0.508(2) 0.5632(14)
H10 H 1.490(3) 0.186(3) 0.4423(17)
H15 H 0.968(3) 0.226(3) 0.3034(17)
C9A C 0.9474(2) -0.10301(16) 0.58162(9)
O2A O 1.04640(17) -0.15612(13) 0.67389(7)
H15A H 1.032(3) -0.226(3) 0.6966(17)
C3A C 0.7715(2) -0.14429(17) 0.57469(10)
C13A C 0.6247(2) -0.16666(18) 0.56356(11)
H10A H 0.510(3) -0.186(3) 0.5577(17)
C6A C 1.0873(2) -0.17067(16) 0.50477(9)
C1A C 1.1713(2) -0.33342(17) 0.50482(10)
Cl1A Cl 1.12688(6) -0.46234(4) 0.59525(3)
C11A C 1.2909(2) -0.39852(18) 0.43390(11)
C16A C 1.3338(2) -0.30165(19) 0.36031(11)
C5A C 1.2550(2) -0.14172(18) 0.35867(10)
C8A C 1.1314(2) -0.07577(16) 0.43013(10)
H3A H 1.280(3) -0.076(2) 0.3090(14)
H2A H 1.415(3) -0.345(2) 0.3095(14)
H7A H 1.344(3) -0.508(2) 0.4368(14)
Cl2 Cl 1.37781(6) 0.36937(5) 0.23431(3)
O1 O 0.96088(18) 0.40411(13) 0.18373(7)
C2 C 1.1546(2) 0.49608(16) 0.06664(9)
C4 C 1.1111(2) 0.59877(16) -0.01960(10)
C7 C 1.2159(2) 0.69551(17) -0.04449(11)
C10 C 1.1949(2) 0.21966(18) 0.10274(10)
C12 C 1.4025(2) 0.59748(19) 0.10446(11)
C14 C 1.0490(2) 0.38441(16) 0.09346(9)
C15 C 1.3598(2) 0.69558(18) 0.01752(11)
C18 C 1.3036(2) 0.49771(17) 0.12756(10)
C20 C 1.3056(3) 0.08758(19) 0.10460(11)
H1 H 1.431(3) 0.762(2) 0.0001(15)
H4 H 1.390(3) -0.012(3) 0.1090(15)
H5 H 1.191(3) 0.758(2) -0.1059(14)
H6 H 1.502(3) 0.592(2) 0.1471(14)
H16 H 0.887(3) 0.492(3) 0.1789(15)
C14A C 0.9510(2) 0.61559(16) -0.09346(9)
O1A O 1.03912(18) 0.59589(13) -0.18373(7)
H16A H 1.113(3) 0.508(3) -0.1789(15)
C2A C 0.8454(2) 0.50392(16) -0.06664(9)
C4A C 0.8889(2) 0.40123(16) 0.01960(10)
C7A C 0.7841(2) 0.30449(17) 0.04449(11)
C15A C 0.6402(2) 0.30442(18) -0.01752(11)
C12A C 0.5975(2) 0.40252(19) -0.10446(11)
C18A C 0.6964(2) 0.50229(17) -0.12756(10)
Cl2A Cl 0.62219(6) 0.63063(5) -0.23431(3)
H6A H 0.498(3) 0.408(2) -0.1471(14)
H1A H 0.569(3) 0.238(2) -0.0001(15)
H5A H 0.809(3) 0.242(2) 0.1059(14)
C10A C 0.8051(2) 0.78034(18) -0.10274(10)
C20A C 0.6944(3) 0.91242(19) -0.10460(11)
H4A H 0.610(3) 1.012(3) -0.1090(15)
loop_
_geom_bond_atom_site_label_1
_geom_bond_atom_site_label_2
_geom_bond_site_symmetry_1
_geom_bond_site_symmetry_2
S1 O3 1_555 1_555
Cl1 C1 1_555 1_555
Cl2 C18 1_555 1_555
O1 C14 1_555 1_555
O2 C9 1_555 1_555
C1 C6 1_555 1_555
C2 C4 1_555 1_555
C3 C9 1_555 1_555
C4 C7 1_555 1_555
C5 C8 1_555 1_555
C6 C8 1_555 1_555
C7 C15 1_555 1_555
C8 C9A 1_555 1_555
C9 C6 1_555 1_555
C10 C14 1_555 1_555
C11 C1 1_555 1_555
C12 C15 1_555 1_555
C13 C3 1_555 1_555
C14 C2 1_555 1_555
C15 H1 1_555 1_555
C16 C5 1_555 1_555
C17 S1 1_555 1_555
C18 C2 1_555 1_555
C19 S1 1_555 1_555
C20 C10 1_555 1_555
H2 C16 1_555 1_555
H3 C5 1_555 1_555
H4 C20 1_555 1_555
H5 C7 1_555 1_555
H6 C12 1_555 1_555
H7 C11 1_555 1_555
H8 C19 1_555 1_555
H9 C17 1_555 1_555
H10 C13 1_555 1_555
H11 C17 1_555 1_555
H12 C19 1_555 1_555
H13 C17 1_555 1_555
H14 C19 1_555 1_555
H15 O2 1_555 1_555
H16 O1 1_555 1_555
C9A O2A 1_555 1_555
O2A H15A 1_555 1_555
C3A C9A 1_555 1_555
C13A C3A 1_555 1_555
H10A C13A 1_555 1_555
C6A C9A 1_555 1_555
C1A C6A 1_555 1_555
Cl1A C1A 1_555 1_555
C11A C1A 1_555 1_555
C16A C11A 1_555 1_555
C5A C16A 1_555 1_555
C8A C9 1_555 1_555
H3A C5A 1_555 1_555
H2A C16A 1_555 1_555
H7A C11A 1_555 1_555
C14A C4 1_555 1_555
O1A C14A 1_555 1_555
H16A O1A 1_555 1_555
C2A C14A 1_555 1_555
C4A C14 1_555 1_555
C7A C4A 1_555 1_555
C15A C7A 1_555 1_555
C12A C15A 1_555 1_555
C18A C2A 1_555 1_555
Cl2A C18A 1_555 1_555
H6A C12A 1_555 1_555
H1A C15A 1_555 1_555
H5A C7A 1_555 1_555
C10A C14A 1_555 1_555
C20A C10A 1_555 1_555
H4A C20A 1_555 1_555
C11 C16 1_555 1_555
C12 C18 1_555 1_555
C6A C8A 1_555 1_555
C5A C8A 1_555 1_555
C2A C4A 1_555 1_555
C12A C18A 1_555 1_555

#END
