
#######################################################################
#
#                 Cambridge Crystallographic Data Centre
#                                CCDC 
#
#######################################################################
#
# If this CIF has been generated from an entry in the Cambridge 
# Structural Database, then it will include bibliographic, chemical, 
# crystal, experimental, refinement or atomic coordinate data resulting 
# from the CCDC's data processing and validation procedures.
#
#######################################################################

data_EJIWEZ
_chemical_formula_moiety         'C18 H10 Cl2 O2,2(C5 H9 N1 O1)'
_chemical_name_systematic        
'trans-1,5-Dichloro-9,10-diethynyl-9,10-dihydroxy-9,10-dihydroanthracene N-methylpyrrolidin-2-one clathrate'
_symmetry_cell_setting           triclinic
_symmetry_space_group_name_H-M   'P -1'
_symmetry_Int_Tables_number      2
_space_group_name_Hall           '-P 1'
loop_
_symmetry_equiv_pos_site_id
_symmetry_equiv_pos_as_xyz
1 x,y,z
2 -x,-y,-z
_cell_length_a                   7.4173(15)
_cell_length_b                   9.1696(18)
_cell_length_c                   9.6472(19)
_cell_angle_alpha                103.40(3)
_cell_angle_beta                 90.46(3)
_cell_angle_gamma                102.70(3)
_cell_volume                     621.459
_exptl_crystal_colour            colorless
_exptl_crystal_description       cube
_chemical_melting_point          553K
_cell_formula_units_Z            1
loop_
_atom_site_label
_atom_site_type_symbol
_atom_site_fract_x
_atom_site_fract_y
_atom_site_fract_z
Cl1 Cl 0.38578(4) 0.12043(3) 0.84029(3)
O1 O 0.14734(12) 0.26782(9) 0.68491(9)
C1 C 0.12276(15) -0.10336(12) 0.45679(12)
C2 C 0.16219(15) 0.00027(12) 0.59006(12)
C3 C 0.04013(15) 0.11263(12) 0.64702(11)
C4 C 0.42866(16) -0.10919(14) 0.62517(13)
C5 C 0.31862(16) -0.00524(13) 0.67211(12)
C6 C 0.23371(16) -0.20914(13) 0.40896(13)
C7 C -0.12407(18) 0.03499(16) 0.87416(14)
C8 C 0.38444(16) -0.21317(14) 0.49250(13)
C9 C -0.04394(16) 0.07448(14) 0.77774(12)
H1 H 0.204(2) -0.2782(18) 0.3157(18)
H2 H 0.535(2) -0.1066(19) 0.6818(18)
H3 H 0.456(2) -0.2888(19) 0.4629(18)
H4 H 0.172(3) 0.291(2) 0.613(2)
H11 H -0.184(3) 0.005(2) 0.952(2)
C3A C -0.04013(15) -0.11263(12) 0.35298(11)
O1A O -0.14734(12) -0.26782(9) 0.31509(9)
H4A H -0.172(3) -0.291(2) 0.387(2)
C2A C -0.16219(15) -0.00027(12) 0.40994(12)
C1A C -0.12276(15) 0.10336(12) 0.54321(12)
C6A C -0.23371(16) 0.20914(13) 0.59104(13)
C8A C -0.38444(16) 0.21317(14) 0.50750(13)
C4A C -0.42866(16) 0.10919(14) 0.37483(13)
C5A C -0.31862(16) 0.00524(13) 0.32789(12)
Cl1A Cl -0.38578(4) -0.12043(3) 0.15971(3)
H2A H -0.535(2) 0.1066(19) 0.3182(18)
H3A H -0.456(2) 0.2888(19) 0.5371(18)
H1A H -0.204(2) 0.2782(18) 0.6843(18)
C9A C 0.04394(16) -0.07448(14) 0.22226(12)
C7A C 0.12407(18) -0.03499(16) 0.12584(14)
H11A H 0.184(3) -0.005(2) 0.048(2)
O2 O -0.26468(13) -0.35679(12) 0.55613(10)
N1 N -0.30058(16) -0.40912(13) 0.77664(12)
C10 C -0.20016(18) -0.37635(14) 0.66777(14)
C11 C -0.1954(2) -0.42742(17) 0.89741(14)
C12 C -0.5001(2) -0.42656(18) 0.77743(16)
C13 C 0.0044(2) -0.40611(18) 0.85230(15)
C14 C 0.0005(2) -0.36899(19) 0.70515(17)
H5 H -0.211(3) -0.355(2) 0.986(2)
H6 H 0.050(3) -0.447(3) 0.624(3)
H7 H -0.535(3) -0.342(2) 0.850(2)
H8 H -0.548(3) -0.431(2) 0.681(2)
H9 H -0.247(3) -0.535(2) 0.913(2)
H10 H -0.550(3) -0.523(2) 0.803(2)
H12 H 0.091(3) -0.326(2) 0.925(2)
H13 H 0.076(3) -0.263(3) 0.706(2)
H14 H 0.052(3) -0.511(3) 0.839(2)
loop_
_geom_bond_atom_site_label_1
_geom_bond_atom_site_label_2
_geom_bond_site_symmetry_1
_geom_bond_site_symmetry_2
Cl1 C5 1_555 1_555
O1 C3 1_555 1_555
O2 C10 1_555 1_555
C1 C2 1_555 1_555
C2 C3 1_555 1_555
C3 C9 1_555 1_555
C4 C5 1_555 1_555
C5 C2 1_555 1_555
C6 C1 1_555 1_555
C7 C9 1_555 1_555
C8 C4 1_555 1_555
N1 C10 1_555 1_555
C10 C14 1_555 1_555
C11 N1 1_555 1_555
C12 N1 1_555 1_555
C13 C11 1_555 1_555
C14 C13 1_555 1_555
H1 C6 1_555 1_555
H2 C4 1_555 1_555
H3 C8 1_555 1_555
H4 O1 1_555 1_555
H5 C11 1_555 1_555
H6 C14 1_555 1_555
H7 C12 1_555 1_555
H8 C12 1_555 1_555
H9 C11 1_555 1_555
H10 C12 1_555 1_555
H11 C7 1_555 1_555
H12 C13 1_555 1_555
H13 C14 1_555 1_555
H14 C13 1_555 1_555
C3A C1 1_555 1_555
O1A C3A 1_555 1_555
H4A O1A 1_555 1_555
C2A C3A 1_555 1_555
C1A C3 1_555 1_555
C6A C1A 1_555 1_555
C8A C6A 1_555 1_555
C4A C8A 1_555 1_555
C5A C2A 1_555 1_555
Cl1A C5A 1_555 1_555
H2A C4A 1_555 1_555
H3A C8A 1_555 1_555
H1A C6A 1_555 1_555
C9A C3A 1_555 1_555
C7A C9A 1_555 1_555
H11A C7A 1_555 1_555
C6 C8 1_555 1_555
C2A C1A 1_555 1_555
C4A C5A 1_555 1_555

#END
