
#######################################################################
#
#                 Cambridge Crystallographic Data Centre
#                                CCDC 
#
#######################################################################
#
# If this CIF has been generated from an entry in the Cambridge 
# Structural Database, then it will include bibliographic, chemical, 
# crystal, experimental, refinement or atomic coordinate data resulting 
# from the CCDC's data processing and validation procedures.
#
#######################################################################

data_EJIWUQ
_chemical_formula_moiety         'C42 H36 N2 O7 S2,0.5(C4 H8 O1)'
_chemical_name_systematic        
'Ethyl 2-(1-((4-methylphenyl)sulfonyl)-5-(((4-methylphenyl)sulfonyl)imino)-2-oxo-3,4-diphenylpyrrolidin-3-yl)-4-phenylbuta-2,3-dienoate tetrahydrofuran solvate'
_symmetry_cell_setting           triclinic
_symmetry_space_group_name_H-M   'P -1'
_symmetry_Int_Tables_number      2
_space_group_name_Hall           '-P 1'
loop_
_symmetry_equiv_pos_site_id
_symmetry_equiv_pos_as_xyz
1 x,y,z
2 -x,-y,-z
_cell_length_a                   10.8259(8)
_cell_length_b                   11.1103(7)
_cell_length_c                   20.2821(14)
_cell_angle_alpha                83.7413(16)
_cell_angle_beta                 76.3415(18)
_cell_angle_gamma                65.4827(15)
_cell_volume                     2156.62
_exptl_crystal_colour            colorless
_exptl_crystal_description       chunk
_chemical_melting_point          '160-161 deg.C'
_cell_formula_units_Z            2
loop_
_atom_site_label
_atom_site_type_symbol
_atom_site_fract_x
_atom_site_fract_y
_atom_site_fract_z
S1 S 0.50288(14) 0.17609(13) 0.60232(7)
S2 S 0.89347(15) -0.00989(15) 0.69883(8)
O1 O 0.3893(4) 0.2944(4) 0.63143(18)
O2 O 0.5564(4) 0.5849(3) 0.72851(18)
N1 N 0.6301(4) 0.1187(4) 0.6440(2)
O3 O 0.6462(4) 0.3815(4) 0.68599(19)
O4 O 0.4734(5) 0.0674(4) 0.5909(2)
O5 O 0.8706(4) -0.1002(4) 0.6639(2)
N2 N 0.7310(4) 0.1019(4) 0.7352(2)
O6 O 0.9647(4) -0.0538(4) 0.7530(2)
O7 O 0.7973(4) 0.1907(4) 0.8123(2)
C1 C 0.5500(5) 0.2680(5) 0.8102(2)
C2 C 0.6146(5) 0.1486(4) 0.7053(3)
C3 C 0.4090(5) 0.1412(5) 0.7857(2)
C4 C 0.5833(6) 0.4563(5) 0.7326(3)
C5 C 0.5907(5) 0.2204(5) 0.5254(3)
C6 C 0.4895(5) 0.2267(4) 0.7577(2)
H1 H 0.4303 0.3063 0.7363
C7 C 0.5308(5) 0.4139(5) 0.8025(2)
C8 C 0.9636(5) 0.0856(6) 0.6420(3)
C9 C 0.4822(5) 0.4943(5) 0.8532(3)
C10 C 0.6312(6) 0.1440(6) 0.4691(3)
H2 H 0.6181 0.0659 0.4715
C11 C 0.3525(7) 0.3067(6) 0.9087(3)
H3 H 0.2962 0.3629 0.8803
C12 C 0.4919(7) 0.2421(5) 0.8838(3)
C13 C 0.5738(8) 0.1580(6) 0.9267(3)
H4 H 0.6688 0.1125 0.9106
C14 C 0.4720(7) 0.0149(5) 0.8096(3)
H5 H 0.5665 -0.0198 0.8093
C15 C 0.6128(8) 0.6333(6) 0.6632(3)
H6 H 0.5666 0.6288 0.6286
H7 H 0.7115 0.5800 0.6491
C16 C 0.7067(6) 0.1851(5) 0.7891(3)
C17 C 0.2590(11) -0.0126(10) 0.8365(4)
H8 H 0.2088 -0.0639 0.8536
C18 C 0.3969(9) -0.0619(7) 0.8344(3)
H9 H 0.4418 -0.1478 0.8497
C19 C 0.2703(6) 0.1909(7) 0.7863(3)
H10 H 0.2265 0.2753 0.7691
C20 C 0.9440(7) 0.1048(7) 0.5760(4)
H11 H 0.8903 0.0699 0.5617
C21 C 0.1936(8) 0.1138(10) 0.8131(4)
H12 H 0.0985 0.1488 0.8149
C22 C 0.7148(7) 0.3008(8) 0.4050(4)
C23 C 0.6159(7) 0.3324(6) 0.5225(3)
H13 H 0.5906 0.3820 0.5613
C24 C 1.0425(7) 0.1373(8) 0.6629(4)
H14 H 1.0554 0.1244 0.7073
C25 C 0.6925(7) 0.1866(8) 0.4083(3)
H15 H 0.7188 0.1373 0.3693
C26 C 0.5139(13) 0.1411(9) 0.9942(4)
H16 H 0.5691 0.0846 1.0230
C27 C 0.6791(8) 0.3706(7) 0.4618(4)
H17 H 0.6974 0.4457 0.4599
C28 C 0.2942(9) 0.2898(8) 0.9754(4)
H18 H 0.1993 0.3347 0.9918
C29 C 0.5883(10) 0.7712(7) 0.6730(4)
H19 H 0.4921 0.8200 0.6930
H20 H 0.6120 0.8104 0.6300
H21 H 0.6448 0.7732 0.7026
C30 C 1.0064(8) 0.1773(9) 0.5318(4)
H22 H 0.9926 0.1924 0.4876
C31 C 1.0880(9) 0.2272(9) 0.5517(5)
C32 C 0.7747(9) 0.3458(9) 0.3363(4)
H23 H 0.7005 0.4092 0.3166
H24 H 0.8264 0.2709 0.3070
H25 H 0.8351 0.3857 0.3417
C33 C 1.1018(9) 0.2078(10) 0.6180(6)
H26 H 1.1537 0.2444 0.6327
C34 C 1.1600(11) 0.3030(12) 0.5019(6)
H27 H 1.1714 0.3660 0.5262
H28 H 1.1045 0.3486 0.4692
H29 H 1.2494 0.2422 0.4791
C35 C 0.4322(6) 0.5734(5) 0.9049(3)
H30 H 0.4956 0.5758 0.9282
C36 C 0.3765(14) 0.2066(11) 1.0177(4)
H31 H 0.3371 0.1955 1.0627
C37 C 0.2860(6) 0.6587(5) 0.9299(3)
C38 C 0.1860(8) 0.6883(7) 0.8928(4)
H32 H 0.2101 0.6508 0.8503
C39 C 0.2445(8) 0.7156(6) 0.9927(3)
H33 H 0.3096 0.6978 1.0192
C40 C 0.1083(10) 0.7983(8) 1.0170(4)
H34 H 0.0829 0.8357 1.0596
C41 C 0.0129(9) 0.8256(8) 0.9807(6)
H35 H -0.0791 0.8803 0.9980
C42 C 0.0503(8) 0.7728(8) 0.9174(5)
H36 H -0.0158 0.7939 0.8911
O8 O 1.0244(16) 0.5358(15) 0.8015(7)
C43 C 0.9663(15) 0.4943(18) 0.8689(7)
H37 H 0.9446 0.5571 0.9040
H38 H 1.0260 0.4065 0.8820
C44 C 0.8800(19) 0.626(2) 0.7993(17)
H39 H 0.8694 0.6982 0.7664
H40 H 0.8181 0.6551 0.8430
C45 C 0.8353(16) 0.4970(18) 0.8503(8)
H41 H 0.7535 0.5765 0.8655
H42 H 0.8174 0.4192 0.8664
C46 C 0.891(3) 0.497(2) 0.7730(8)
H43 H 0.9840 0.4317 0.7563
H44 H 0.8264 0.5054 0.7449
loop_
_geom_bond_atom_site_label_1
_geom_bond_atom_site_label_2
_geom_bond_site_symmetry_1
_geom_bond_site_symmetry_2
S1 O1 1_555 1_555
S2 O5 1_555 1_555
O2 C4 1_555 1_555
N1 S1 1_555 1_555
O3 C4 1_555 1_555
O4 S1 1_555 1_555
N2 S2 1_555 1_555
O6 S2 1_555 1_555
O7 C16 1_555 1_555
C1 C6 1_555 1_555
C2 N1 1_555 1_555
C3 C6 1_555 1_555
C4 C7 1_555 1_555
C5 S1 1_555 1_555
C6 C2 1_555 1_555
H1 C6 1_555 1_555
C7 C1 1_555 1_555
C8 S2 1_555 1_555
C9 C7 1_555 1_555
C10 C5 1_555 1_555
H2 C10 1_555 1_555
C11 H3 1_555 1_555
C12 C1 1_555 1_555
C13 C12 1_555 1_555
H4 C13 1_555 1_555
C14 C3 1_555 1_555
H5 C14 1_555 1_555
C15 O2 1_555 1_555
H6 C15 1_555 1_555
H7 C15 1_555 1_555
C16 N2 1_555 1_555
C17 H8 1_555 1_555
C18 C14 1_555 1_555
H9 C18 1_555 1_555
C19 C3 1_555 1_555
H10 C19 1_555 1_555
C20 C8 1_555 1_555
H11 C20 1_555 1_555
C21 C17 1_555 1_555
H12 C21 1_555 1_555
C22 C25 1_555 1_555
C23 C5 1_555 1_555
H13 C23 1_555 1_555
C24 C8 1_555 1_555
H14 C24 1_555 1_555
C25 C10 1_555 1_555
H15 C25 1_555 1_555
C26 C13 1_555 1_555
H16 C26 1_555 1_555
C27 C22 1_555 1_555
H17 C27 1_555 1_555
C28 C11 1_555 1_555
H18 C28 1_555 1_555
C29 C15 1_555 1_555
H19 C29 1_555 1_555
H20 C29 1_555 1_555
H21 C29 1_555 1_555
C30 C20 1_555 1_555
H22 C30 1_555 1_555
C31 C30 1_555 1_555
C32 C22 1_555 1_555
H23 C32 1_555 1_555
H24 C32 1_555 1_555
H25 C32 1_555 1_555
C33 C24 1_555 1_555
H26 C33 1_555 1_555
C34 C31 1_555 1_555
H27 C34 1_555 1_555
H28 C34 1_555 1_555
H29 C34 1_555 1_555
C35 C9 1_555 1_555
H30 C35 1_555 1_555
C36 C26 1_555 1_555
H31 C36 1_555 1_555
C37 C35 1_555 1_555
C38 C37 1_555 1_555
H32 C38 1_555 1_555
C39 C37 1_555 1_555
H33 C39 1_555 1_555
C40 C39 1_555 1_555
H34 C40 1_555 1_555
C41 C40 1_555 1_555
H35 C41 1_555 1_555
C42 C38 1_555 1_555
H36 C42 1_555 1_555
O8 C43 1_555 1_555
C43 H37 1_555 1_555
H38 C43 1_555 1_555
C44 O8 1_555 1_555
H39 C44 1_555 1_555
H40 C44 1_555 1_555
C45 C43 1_555 1_555
H41 C45 1_555 1_555
H42 C45 1_555 1_555
C46 C44 1_555 1_555
H43 C46 1_555 1_555
H44 C46 1_555 1_555
N2 C2 1_555 1_555
C1 C16 1_555 1_555
C11 C12 1_555 1_555
C17 C18 1_555 1_555
C19 C21 1_555 1_555
C23 C27 1_555 1_555
C28 C36 1_555 1_555
C31 C33 1_555 1_555
C41 C42 1_555 1_555
C45 C46 1_555 1_555

#END
