
#######################################################################
#
#                 Cambridge Crystallographic Data Centre
#                                CCDC 
#
#######################################################################
#
# If this CIF has been generated from an entry in the Cambridge 
# Structural Database, then it will include bibliographic, chemical, 
# crystal, experimental, refinement or atomic coordinate data resulting 
# from the CCDC's data processing and validation procedures.
#
#######################################################################

data_EJOYOS
_chemical_formula_moiety         'C19 H16 Cl3 N1 O1 S1'
_chemical_name_systematic        
2,2,2-Trichloro-N-(4-phenyl-1-(phenylsulfanyl)penta-2,4-dien-2-yl)acetamide
_symmetry_cell_setting           monoclinic
_symmetry_space_group_name_H-M   'P 21/c'
_symmetry_Int_Tables_number      14
_space_group_name_Hall           '-P 2ybc'
loop_
_symmetry_equiv_pos_site_id
_symmetry_equiv_pos_as_xyz
1 x,y,z
2 -x,1/2+y,1/2-z
3 -x,-y,-z
4 x,1/2-y,1/2+z
_cell_length_a                   11.378(2)
_cell_length_b                   19.435(4)
_cell_length_c                   9.5136(19)
_cell_angle_alpha                90
_cell_angle_beta                 108.55(3)
_cell_angle_gamma                90
_cell_volume                     1994.46
_exptl_crystal_colour            colorless
_exptl_crystal_description       block
_cell_formula_units_Z            4
loop_
_atom_site_label
_atom_site_type_symbol
_atom_site_fract_x
_atom_site_fract_y
_atom_site_fract_z
Cl1 Cl 0.51167(9) 0.21640(4) 0.41164(11)
Cl2 Cl 0.69024(8) 0.12771(5) 0.60799(11)
Cl3 Cl 0.44934(10) 0.14230(5) 0.63837(10)
S1 S 0.40068(8) 0.09038(5) 0.01411(10)
O1 O 0.55726(18) 0.04012(11) 0.3723(2)
N1 N 0.3624(2) 0.08058(14) 0.3328(3)
H1 H 0.323(2) 0.1040(12) 0.371(2)
C1 C 0.3489(2) 0.01828(14) 0.1007(3)
H2 H 0.2901 -0.0088 0.0246
H3 H 0.4194 -0.0109 0.1490
C2 C 0.2896(3) 0.04060(14) 0.2116(3)
C3 C 0.1704(3) 0.03162(13) 0.1939(3)
H4 H 0.1250 0.0081 0.1089
C4 C 0.1016(3) 0.05419(14) 0.2920(3)
C5 C 0.1467(3) 0.04417(15) 0.4371(3)
H5 H 0.2230 0.0226 0.4776
H6 H 0.1021 0.0587 0.4983
C6 C -0.0198(3) 0.08815(15) 0.2216(3)
C7 C -0.1147(3) 0.08662(17) 0.2841(4)
H7 H -0.1024 0.0633 0.3730
C8 C -0.2255(3) 0.1184(2) 0.2183(5)
H8 H -0.2881 0.1157 0.2614
C9 C -0.2448(4) 0.1539(2) 0.0906(5)
H9 H -0.3196 0.1766 0.0477
C10 C -0.1543(4) 0.15636(17) 0.0248(4)
H10 H -0.1681 0.1800 -0.0640
C11 C -0.0418(3) 0.12354(15) 0.0905(3)
H11 H 0.0196 0.1255 0.0453
C12 C 0.4866(3) 0.07966(15) 0.3980(3)
C13 C 0.5328(3) 0.13874(15) 0.5118(3)
C14 C 0.2591(3) 0.1343(2) -0.0701(4)
C15 C 0.1650(4) 0.1073(2) -0.1830(4)
H12 H 0.1734 0.0629 -0.2155
C16 C 0.0579(5) 0.1432(3) -0.2508(5)
H13 H -0.0058 0.1226 -0.3257
C17 C 0.0454(5) 0.2080(3) -0.2090(6)
H14 H -0.0245 0.2335 -0.2589
C18 C 0.1368(6) 0.2362(2) -0.0918(8)
H15 H 0.1268 0.2802 -0.0589
C19 C 0.2445(4) 0.1991(3) -0.0219(5)
H16 H 0.3063 0.2184 0.0573
loop_
_geom_bond_atom_site_label_1
_geom_bond_atom_site_label_2
_geom_bond_site_symmetry_1
_geom_bond_site_symmetry_2
Cl1 C13 1_555 1_555
Cl2 C13 1_555 1_555
Cl3 C13 1_555 1_555
S1 C1 1_555 1_555
O1 C12 1_555 1_555
N1 H1 1_555 1_555
C1 H2 1_555 1_555
H3 C1 1_555 1_555
C2 N1 1_555 1_555
C3 C2 1_555 1_555
H4 C3 1_555 1_555
C4 C3 1_555 1_555
C5 C4 1_555 1_555
H5 C5 1_555 1_555
H6 C5 1_555 1_555
C6 C4 1_555 1_555
C7 C6 1_555 1_555
H7 C7 1_555 1_555
C8 C7 1_555 1_555
H8 C8 1_555 1_555
C9 C8 1_555 1_555
H9 C9 1_555 1_555
C10 C9 1_555 1_555
H10 C10 1_555 1_555
C11 C6 1_555 1_555
H11 C11 1_555 1_555
C12 N1 1_555 1_555
C13 C12 1_555 1_555
C14 S1 1_555 1_555
C15 C14 1_555 1_555
H12 C15 1_555 1_555
C16 C15 1_555 1_555
H13 C16 1_555 1_555
C17 C16 1_555 1_555
H14 C17 1_555 1_555
C18 C17 1_555 1_555
H15 C18 1_555 1_555
C19 C14 1_555 1_555
H16 C19 1_555 1_555
C1 C2 1_555 1_555
C10 C11 1_555 1_555
C18 C19 1_555 1_555

#END
