
#######################################################################
#
#                 Cambridge Crystallographic Data Centre
#                                CCDC 
#
#######################################################################
#
# If this CIF has been generated from an entry in the Cambridge 
# Structural Database, then it will include bibliographic, chemical, 
# crystal, experimental, refinement or atomic coordinate data resulting 
# from the CCDC's data processing and validation procedures.
#
#######################################################################

data_EJUVOW
_chemical_formula_moiety         'C20 H16 N2 O2'
_chemical_name_systematic        
2,2'-(1,4-Phenylenebis(nitrilomethylylidene))diphenol
_symmetry_cell_setting           monoclinic
_symmetry_space_group_name_H-M   'P 21/c'
_symmetry_Int_Tables_number      14
_space_group_name_Hall           '-P 2ybc'
loop_
_symmetry_equiv_pos_site_id
_symmetry_equiv_pos_as_xyz
1 x,y,z
2 -x,1/2+y,1/2-z
3 -x,-y,-z
4 x,1/2-y,1/2+z
_cell_length_a                   14.613(3)
_cell_length_b                   4.5396(10)
_cell_length_c                   12.118(3)
_cell_angle_alpha                90
_cell_angle_beta                 112.778(3)
_cell_angle_gamma                90
_cell_volume                     741.181
_cell_formula_units_Z            2
loop_
_atom_site_label
_atom_site_type_symbol
_atom_site_fract_x
_atom_site_fract_y
_atom_site_fract_z
O1 O 0.79211(7) 0.7386(2) 1.13930(8)
H1 H 0.8284 0.6144 1.1244
N1 N 0.86336(7) 0.4307(2) 1.00939(9)
C1 C 0.73359(9) 0.7861(3) 0.92492(11)
C2 C 0.72937(9) 0.8602(3) 1.03599(11)
C3 C 0.65902(10) 1.0650(3) 1.04019(13)
H2 H 0.6555 1.1142 1.1147
C4 C 0.59478(10) 1.1953(3) 0.93593(13)
H3 H 0.5467 1.3320 0.9393
C5 C 0.59942(9) 1.1292(3) 0.82586(12)
H4 H 0.5557 1.2225 0.7548
C6 C 0.66857(9) 0.9259(3) 0.82142(12)
H5 H 0.6719 0.8804 0.7465
C7 C 0.80374(9) 0.5692(3) 0.91669(11)
H6 H 0.8057 0.5282 0.8407
C8 C 0.93059(9) 0.2156(3) 0.99986(11)
C9 C 0.99602(9) 0.0918(3) 1.10658(11)
H7 H 0.9935 0.1543 1.1802
C10 C 0.93534(9) 0.1204(3) 0.89223(11)
H8 H 0.8915 0.2013 0.8184
O1B O 1.20789(7) -0.7386(2) 0.86070(8)
H1B H 1.1716 -0.6144 0.8756
N1B N 1.13664(7) -0.4307(2) 0.99061(9)
C1B C 1.26641(9) -0.7861(3) 1.07508(11)
C2B C 1.27063(9) -0.8602(3) 0.96401(11)
C3B C 1.34098(10) -1.0650(3) 0.95981(13)
H2B H 1.3445 -1.1142 0.8853
C4B C 1.40522(10) -1.1953(3) 1.06407(13)
H3B H 1.4533 -1.3320 1.0607
C5B C 1.40058(9) -1.1292(3) 1.17414(12)
H4B H 1.4443 -1.2225 1.2452
C6B C 1.33143(9) -0.9259(3) 1.17858(12)
H5B H 1.3281 -0.8804 1.2535
C7B C 1.19626(9) -0.5692(3) 1.08331(11)
H6B H 1.1943 -0.5282 1.1593
C8B C 1.06941(9) -0.2156(3) 1.00014(11)
C9B C 1.00398(9) -0.0918(3) 0.89342(11)
H7B H 1.0065 -0.1543 0.8198
C10B C 1.06466(9) -0.1204(3) 1.10777(11)
H8B H 1.1085 -0.2013 1.1816
loop_
_geom_bond_atom_site_label_1
_geom_bond_atom_site_label_2
_geom_bond_site_symmetry_1
_geom_bond_site_symmetry_2
O1 H1 1_555 1_555
N1 C7 1_555 1_555
C1 C2 1_555 1_555
C2 O1 1_555 1_555
C3 C2 1_555 1_555
H2 C3 1_555 1_555
C4 C3 1_555 1_555
H3 C4 1_555 1_555
C5 C4 1_555 1_555
H4 C5 1_555 1_555
C6 C1 1_555 1_555
H5 C6 1_555 1_555
C7 C1 1_555 1_555
H6 C7 1_555 1_555
C8 N1 1_555 1_555
C9 C8 1_555 1_555
H7 C9 1_555 1_555
C10 C8 1_555 1_555
H8 C10 1_555 1_555
O1B H1B 1_555 1_555
N1B C7B 1_555 1_555
C1B C2B 1_555 1_555
C2B O1B 1_555 1_555
C3B C2B 1_555 1_555
H2B C3B 1_555 1_555
C4B C3B 1_555 1_555
H3B C4B 1_555 1_555
C5B C4B 1_555 1_555
H4B C5B 1_555 1_555
C6B C1B 1_555 1_555
H5B C6B 1_555 1_555
C7B C1B 1_555 1_555
H6B C7B 1_555 1_555
C8B N1B 1_555 1_555
C9B C10 1_555 1_555
H7B C9B 1_555 1_555
C10B C9 1_555 1_555
H8B C10B 1_555 1_555
C5 C6 1_555 1_555
C5B C6B 1_555 1_555
C8B C9B 1_555 1_555
C8B C10B 1_555 1_555

#END
