
#######################################################################
#
#                 Cambridge Crystallographic Data Centre
#                                CCDC 
#
#######################################################################
#
# If this CIF has been generated from an entry in the Cambridge 
# Structural Database, then it will include bibliographic, chemical, 
# crystal, experimental, refinement or atomic coordinate data resulting 
# from the CCDC's data processing and validation procedures.
#
#######################################################################

data_EJUYEP
_chemical_compound_source        
'dried twigs and leaves of Ervatamia hainanensis'
_chemical_name_common            
'3-oxo-7R-coronaridine hydroxyindolenine acetonitrile solvate'
_chemical_formula_moiety         'C21 H24 N2 O4,C2 H3 N1'
_chemical_name_systematic        
'Methyl 9-hydroxy-19-oxo-10,16-didehydro-9,10-dihydroibogamine-18-carboxylate acetonitrile solvate'
_chemical_properties_biological  'neuroprotective activity'
_symmetry_cell_setting           monoclinic
_symmetry_space_group_name_H-M   'P 21'
_symmetry_Int_Tables_number      4
_space_group_name_Hall           'P 2yb'
loop_
_symmetry_equiv_pos_site_id
_symmetry_equiv_pos_as_xyz
1 x,y,z
2 -x,1/2+y,-z
_cell_length_a                   10.07340(18)
_cell_length_b                   9.87893(13)
_cell_length_c                   11.00555(18)
_cell_angle_alpha                90
_cell_angle_beta                 107.6571(19)
_cell_angle_gamma                90
_cell_volume                     1043.61
_exptl_crystal_colour            'light yellow'
_exptl_crystal_description       block
_chemical_melting_point          '182-183 deg.C'
_cell_formula_units_Z            2
loop_
_atom_site_label
_atom_site_type_symbol
_atom_site_fract_x
_atom_site_fract_y
_atom_site_fract_z
O1 O 0.14845(9) 0.21159(9) 0.58833(8)
H1 H 0.0865 0.2686 0.5741
O2 O 0.05789(10) -0.09477(10) 0.48383(9)
O3 O 0.10325(11) 0.32250(12) 0.09203(10)
O4 O 0.32970(10) 0.31331(10) 0.20076(9)
N1 N 0.23890(11) 0.44223(11) 0.40424(10)
C1 C 0.22814(13) 0.31423(13) 0.41784(12)
C2 C 0.09860(14) -0.02562(13) 0.40783(12)
N2 N 0.23115(11) 0.01353(11) 0.42823(10)
C3 C 0.33278(13) 0.01614(13) 0.55503(12)
H2 H 0.4121 -0.0397 0.5553
H3 H 0.2911 -0.0216 0.6162
C4 C 0.38259(13) 0.16066(13) 0.59507(12)
H4 H 0.4260 0.1627 0.6867
H5 H 0.4529 0.1852 0.5552
C5 C 0.26573(13) 0.26607(13) 0.55916(12)
C6 C 0.30892(13) 0.40076(14) 0.62335(12)
C7 C 0.35694(14) 0.43470(15) 0.75144(13)
H6 H 0.3733 0.3682 0.8141
C8 C 0.38008(15) 0.57057(15) 0.78409(14)
H7 H 0.4135 0.5955 0.8695
C9 C 0.35361(15) 0.66889(15) 0.69023(14)
H8 H 0.3677 0.7594 0.7139
C10 C 0.30621(16) 0.63570(15) 0.56077(14)
H9 H 0.2887 0.7021 0.4980
C11 C 0.28645(14) 0.49994(14) 0.53008(13)
C12 C 0.00536(14) 0.02762(15) 0.28120(13)
H10 H -0.0918 0.0022 0.2693
C13 C 0.05412(14) -0.02799(15) 0.17206(13)
H11 H 0.0048 0.0172 0.0930
H12 H 0.0343 -0.1241 0.1617
C14 C 0.17616(14) 0.22142(13) 0.30350(12)
C15 C 0.02071(14) 0.18281(14) 0.28372(13)
H13 H -0.0095 0.2200 0.3525
H14 H -0.0375 0.2207 0.2040
C16 C 0.2799(2) -0.21159(18) 0.09893(17)
H15 H 0.3327 -0.2940 0.1171
H16 H 0.3147 -0.1558 0.0440
H17 H 0.1836 -0.2324 0.0575
C17 C 0.29352(16) -0.13672(14) 0.22248(14)
H18 H 0.3912 -0.1179 0.2646
H19 H 0.2604 -0.1947 0.2783
C18 C 0.21231(14) -0.00368(14) 0.20299(12)
H20 H 0.2294 0.0453 0.1317
C19 C 0.25950(13) 0.08573(13) 0.32302(12)
H21 H 0.3594 0.1046 0.3441
C20 C 0.19565(14) 0.29308(14) 0.18652(13)
C21 C 0.36211(19) 0.38066(18) 0.09674(16)
H22 H 0.4613 0.3900 0.1166
H23 H 0.3196 0.4686 0.0841
H24 H 0.3270 0.3281 0.0203
N3 N 0.34526(19) 0.0861(2) 0.89668(15)
C22 C 0.2276(2) 0.07273(17) 0.85515(16)
C23 C 0.0782(2) 0.0546(2) 0.8028(2)
H25 H 0.0473 -0.0104 0.8532
H26 H 0.0563 0.0228 0.7166
H27 H 0.0323 0.1395 0.8041
loop_
_geom_bond_atom_site_label_1
_geom_bond_atom_site_label_2
_geom_bond_site_symmetry_1
_geom_bond_site_symmetry_2
O1 H1 1_555 1_555
O2 C2 1_555 1_555
O3 C20 1_555 1_555
O4 C20 1_555 1_555
N1 C1 1_555 1_555
C1 C5 1_555 1_555
C2 N2 1_555 1_555
N2 C3 1_555 1_555
C3 H2 1_555 1_555
H3 C3 1_555 1_555
C4 C3 1_555 1_555
H4 C4 1_555 1_555
H5 C4 1_555 1_555
C5 O1 1_555 1_555
C6 C5 1_555 1_555
C7 C6 1_555 1_555
H6 C7 1_555 1_555
C8 C7 1_555 1_555
H7 C8 1_555 1_555
C9 C8 1_555 1_555
H8 C9 1_555 1_555
C10 C9 1_555 1_555
H9 C10 1_555 1_555
C11 N1 1_555 1_555
C12 C2 1_555 1_555
H10 C12 1_555 1_555
C13 C12 1_555 1_555
H11 C13 1_555 1_555
H12 C13 1_555 1_555
C14 C1 1_555 1_555
C15 C12 1_555 1_555
H13 C15 1_555 1_555
H14 C15 1_555 1_555
C16 H15 1_555 1_555
H16 C16 1_555 1_555
H17 C16 1_555 1_555
C17 C16 1_555 1_555
H18 C17 1_555 1_555
H19 C17 1_555 1_555
C18 C13 1_555 1_555
H20 C18 1_555 1_555
C19 N2 1_555 1_555
H21 C19 1_555 1_555
C20 C14 1_555 1_555
C21 O4 1_555 1_555
H22 C21 1_555 1_555
H23 C21 1_555 1_555
H24 C21 1_555 1_555
N3 C22 1_555 1_555
C22 C23 1_555 1_555
C23 H25 1_555 1_555
H26 C23 1_555 1_555
H27 C23 1_555 1_555
C4 C5 1_555 1_555
C6 C11 1_555 1_555
C10 C11 1_555 1_555
C14 C15 1_555 1_555
C14 C19 1_555 1_555
C17 C18 1_555 1_555
C18 C19 1_555 1_555

#END
