
#######################################################################
#
#                 Cambridge Crystallographic Data Centre
#                                CCDC 
#
#######################################################################
#
# If this CIF has been generated from an entry in the Cambridge 
# Structural Database, then it will include bibliographic, chemical, 
# crystal, experimental, refinement or atomic coordinate data resulting 
# from the CCDC's data processing and validation procedures.
#
#######################################################################

data_EJUYUF
_chemical_compound_source        
'dried twigs and leaves of Ervatamia hainanensis'
_chemical_name_common            '3-oxo-7S-coronaridine hydroxyindolenine'
_chemical_formula_moiety         'C21 H24 N2 O4'
_chemical_name_systematic        
'Methyl 9-hydroxy-19-oxo-10,16-didehydro-9,10-dihydroibogamine-18-carboxylate'
_chemical_properties_biological  'neuroprotective activity'
_symmetry_cell_setting           orthorhombic
_symmetry_space_group_name_H-M   'P 21 21 21'
_symmetry_Int_Tables_number      19
_space_group_name_Hall           'P 2ac 2ab'
loop_
_symmetry_equiv_pos_site_id
_symmetry_equiv_pos_as_xyz
1 x,y,z
2 1/2-x,-y,1/2+z
3 1/2+x,1/2-y,-z
4 -x,1/2+y,1/2-z
_cell_length_a                   8.78022(19)
_cell_length_b                   13.8217(4)
_cell_length_c                   15.0748(4)
_cell_angle_alpha                90
_cell_angle_beta                 90
_cell_angle_gamma                90
_cell_volume                     1829.44
_exptl_crystal_colour            colorless
_exptl_crystal_description       block
_cell_formula_units_Z            4
loop_
_atom_site_label
_atom_site_type_symbol
_atom_site_fract_x
_atom_site_fract_y
_atom_site_fract_z
O1 O 0.79162(17) 0.41068(10) 0.40693(10)
H1 H 0.7847 0.4349 0.4564
O2 O 0.74248(17) 0.50075(11) 0.06898(10)
O3 O 0.94040(18) 0.63081(11) 0.44202(10)
O4 O 0.8671(2) 0.76983(12) 0.38036(13)
N1 N 0.57071(19) 0.60715(12) 0.37010(12)
N2 N 0.87646(18) 0.49042(12) 0.19795(11)
C1 C 0.6867(2) 0.56045(14) 0.34117(14)
C2 C 0.8170(2) 0.53933(15) 0.12909(14)
C3 C 0.8308(2) 0.39141(14) 0.21722(15)
H2 H 0.9073 0.3607 0.2541
H3 H 0.8231 0.3551 0.1623
C4 C 0.6782(2) 0.39015(14) 0.26476(14)
H4 H 0.6513 0.3235 0.2776
H5 H 0.6012 0.4159 0.2251
C5 C 0.6744(2) 0.44799(15) 0.35152(14)
C6 C 0.5156(2) 0.44344(14) 0.39104(14)
C7 C 0.4225(3) 0.36587(16) 0.41062(15)
H6 H 0.4569 0.3027 0.4036
C8 C 0.2755(3) 0.38482(16) 0.44126(15)
H7 H 0.2110 0.3335 0.4546
C9 C 0.2242(3) 0.47860(16) 0.45213(15)
H8 H 0.1261 0.4895 0.4731
C10 C 0.3175(2) 0.55680(16) 0.43208(16)
H9 H 0.2838 0.6201 0.4396
C11 C 0.4620(2) 0.53744(14) 0.40057(14)
C12 C 0.8467(2) 0.64624(15) 0.13784(15)
H10 H 0.8068 0.6809 0.0861
C13 C 1.0191(3) 0.66332(16) 0.14699(16)
H11 H 1.0390 0.7318 0.1548
H12 H 1.0707 0.6420 0.0936
C14 C 0.8199(2) 0.61839(15) 0.30275(13)
C15 C 0.7670(2) 0.68088(15) 0.22286(16)
H13 H 0.6575 0.6755 0.2159
H14 H 0.7915 0.7483 0.2336
C16 C 1.3534(3) 0.5956(2) 0.17589(17)
H15 H 1.3289 0.6395 0.1287
H16 H 1.4310 0.5515 0.1564
H17 H 1.3898 0.6315 0.2261
C17 C 1.2114(3) 0.53888(17) 0.20210(16)
H18 H 1.2353 0.4970 0.2519
H19 H 1.1802 0.4983 0.1529
C18 C 1.0797(2) 0.60639(15) 0.22772(15)
H20 H 1.1168 0.6527 0.2719
C19 C 0.9466(2) 0.54988(15) 0.26796(14)
H21 H 0.9832 0.5084 0.3162
C20 C 0.8773(2) 0.68323(16) 0.37779(15)
C21 C 0.9870(3) 0.68382(19) 0.52079(17)
H22 H 1.0497 0.7376 0.5038
H23 H 1.0437 0.6417 0.5592
H24 H 0.8984 0.7071 0.5514
loop_
_geom_bond_atom_site_label_1
_geom_bond_atom_site_label_2
_geom_bond_site_symmetry_1
_geom_bond_site_symmetry_2
O1 H1 1_555 1_555
O2 C2 1_555 1_555
O3 C20 1_555 1_555
O4 C20 1_555 1_555
N1 C1 1_555 1_555
N2 C2 1_555 1_555
C1 C5 1_555 1_555
C2 C12 1_555 1_555
C3 N2 1_555 1_555
H2 C3 1_555 1_555
H3 C3 1_555 1_555
C4 C3 1_555 1_555
H4 C4 1_555 1_555
H5 C4 1_555 1_555
C5 O1 1_555 1_555
C6 C5 1_555 1_555
C7 C6 1_555 1_555
H6 C7 1_555 1_555
C8 C7 1_555 1_555
H7 C8 1_555 1_555
C9 C8 1_555 1_555
H8 C9 1_555 1_555
C10 C9 1_555 1_555
H9 C10 1_555 1_555
C11 N1 1_555 1_555
C12 H10 1_555 1_555
C13 C12 1_555 1_555
H11 C13 1_555 1_555
H12 C13 1_555 1_555
C14 C1 1_555 1_555
C15 C12 1_555 1_555
H13 C15 1_555 1_555
H14 C15 1_555 1_555
C16 H15 1_555 1_555
H16 C16 1_555 1_555
H17 C16 1_555 1_555
C17 C16 1_555 1_555
H18 C17 1_555 1_555
H19 C17 1_555 1_555
C18 C13 1_555 1_555
H20 C18 1_555 1_555
C19 N2 1_555 1_555
H21 C19 1_555 1_555
C20 C14 1_555 1_555
C21 O3 1_555 1_555
H22 C21 1_555 1_555
H23 C21 1_555 1_555
H24 C21 1_555 1_555
C4 C5 1_555 1_555
C6 C11 1_555 1_555
C10 C11 1_555 1_555
C14 C15 1_555 1_555
C14 C19 1_555 1_555
C17 C18 1_555 1_555
C18 C19 1_555 1_555

#END
