
#######################################################################
#
#                 Cambridge Crystallographic Data Centre
#                                CCDC 
#
#######################################################################
#
# If this CIF has been generated from an entry in the Cambridge 
# Structural Database, then it will include bibliographic, chemical, 
# crystal, experimental, refinement or atomic coordinate data resulting 
# from the CCDC's data processing and validation procedures.
#
#######################################################################

data_EKAGUU
_chemical_formula_moiety         'C34 H38 N4 O9'
_chemical_name_systematic        
oxybis((9,9-dimethyl-5-(4-nitrophenyl)-3-oxa-4-azatricyclo[6.1.1.0^2,6^]dec-4-en-2-yl)methanol)
_symmetry_cell_setting           monoclinic
_symmetry_space_group_name_H-M   'P 21'
_symmetry_Int_Tables_number      4
_space_group_name_Hall           'P 2yb'
loop_
_symmetry_equiv_pos_site_id
_symmetry_equiv_pos_as_xyz
1 x,y,z
2 -x,1/2+y,-z
_cell_length_a                   6.5085(3)
_cell_length_b                   20.0508(10)
_cell_length_c                   12.2732(6)
_cell_angle_alpha                90
_cell_angle_beta                 98.152(2)
_cell_angle_gamma                90
_cell_volume                     1585.48
_exptl_crystal_colour            colorless
_exptl_crystal_description       rod
_cell_formula_units_Z            2
loop_
_atom_site_label
_atom_site_type_symbol
_atom_site_fract_x
_atom_site_fract_y
_atom_site_fract_z
C1 C 0.1733(11) 0.5234(4) 0.2358(6)
C2 C 0.2386(11) 0.5954(4) 0.2548(6)
H1 H 0.3781 0.5974 0.2969
C3 C 0.2350(15) 0.6341(5) 0.1433(8)
H2 H 0.3720 0.6522 0.1392
H3 H 0.2012 0.6033 0.0825
C4 C 0.0792(17) 0.6901(5) 0.1324(8)
H4 H 0.0721 0.7155 0.0639
C5 C -0.1296(14) 0.6639(5) 0.1568(7)
H5 H -0.1528 0.6169 0.1414
H6 H -0.2480 0.6906 0.1260
C6 C -0.0454(12) 0.6800(4) 0.2786(7)
H7 H -0.1479 0.6975 0.3224
C7 C 0.0769(11) 0.6192(4) 0.3274(6)
C8 C 0.1006(15) 0.7330(5) 0.2370(7)
C9 C 0.3142(17) 0.7472(5) 0.2979(9)
H8 H 0.3891 0.7061 0.3115
H9 H 0.3019 0.7686 0.3667
H10 H 0.3876 0.7760 0.2542
C10 C -0.018(2) 0.7995(5) 0.2171(10)
H11 H 0.0623 0.8303 0.1807
H12 H -0.0426 0.8180 0.2863
H13 H -0.1489 0.7917 0.1717
C11 C 0.1567(11) 0.6282(4) 0.4491(6)
H14 H 0.2077 0.6740 0.4610
C12 C 0.2885(12) 0.4727(4) 0.1809(6)
C13 C 0.1816(14) 0.4263(5) 0.1115(8)
H15 H 0.0382 0.4296 0.0940
C14 C 0.2858(14) 0.3750(5) 0.0681(8)
H16 H 0.2141 0.3433 0.0223
C15 C 0.4962(14) 0.3720(5) 0.0939(7)
C16 C 0.6058(13) 0.4171(4) 0.1605(7)
H17 H 0.7495 0.4141 0.1765
C17 C 0.4985(12) 0.4682(4) 0.2043(7)
H18 H 0.5713 0.4997 0.2503
N1 N 0.0049(10) 0.5073(3) 0.2708(6)
N2 N 0.6091(14) 0.3176(4) 0.0460(7)
O1 O -0.0724(8) 0.5628(3) 0.3223(5)
O2 O -0.0022(9) 0.6175(3) 0.5135(5)
H19 H -0.0880 0.5917 0.4816
O3 O 0.7955(12) 0.3175(4) 0.0626(7)
O4 O 0.5084(14) 0.2746(6) -0.0078(11)
O5 O 0.3230(8) 0.5839(3) 0.4793(4)
C18 C 0.4467(11) 0.4396(4) 0.5171(6)
C19 C 0.3978(11) 0.4750(4) 0.6174(6)
H20 H 0.2558 0.4924 0.6035
C20 C 0.4222(14) 0.4304(4) 0.7220(7)
H21 H 0.2916 0.4296 0.7515
H22 H 0.4531 0.3852 0.7017
C21 C 0.5923(15) 0.4545(5) 0.8109(8)
H23 H 0.6151 0.4269 0.8774
C22 C 0.7884(14) 0.4702(5) 0.7586(9)
H24 H 0.8042 0.4430 0.6950
H25 H 0.9154 0.4712 0.8106
C23 C 0.6930(13) 0.5402(5) 0.7296(7)
H26 H 0.7916 0.5774 0.7348
C24 C 0.5535(11) 0.5336(4) 0.6225(6)
C25 C 0.5695(15) 0.5311(5) 0.8314(7)
C26 C 0.3571(18) 0.5593(6) 0.8326(8)
H27 H 0.2669 0.5444 0.7685
H28 H 0.3641 0.6071 0.8326
H29 H 0.3039 0.5444 0.8975
C27 C 0.710(2) 0.5557(7) 0.9349(8)
H30 H 0.7553 0.6004 0.9231
H31 H 0.8287 0.5270 0.9498
H32 H 0.6341 0.5551 0.9965
C28 C 0.4453(11) 0.5986(4) 0.5802(6)
H33 H 0.3519 0.6119 0.6324
C29 C 0.3210(12) 0.3841(4) 0.4618(7)
C30 C 0.1231(14) 0.3722(5) 0.4835(8)
H34 H 0.0697 0.3974 0.5366
C31 C 0.0011(16) 0.3224(5) 0.4263(9)
H35 H -0.1344 0.3150 0.4393
C32 C 0.0861(15) 0.2848(4) 0.3506(8)
C33 C 0.2819(15) 0.2931(5) 0.3317(8)
H36 H 0.3368 0.2656 0.2821
C34 C 0.4034(14) 0.3434(4) 0.3868(8)
H37 H 0.5393 0.3497 0.3736
N3 N 0.6014(10) 0.4608(3) 0.4762(6)
N4 N -0.0501(15) 0.2338(5) 0.2883(8)
O6 O 0.6869(8) 0.5166(3) 0.5375(5)
O7 O 0.5810(10) 0.6516(3) 0.5707(6)
H38 H 0.6903 0.6372 0.5541
O8 O 0.0279(14) 0.1993(4) 0.2253(8)
O9 O -0.2299(15) 0.2305(5) 0.3012(9)
loop_
_geom_bond_atom_site_label_1
_geom_bond_atom_site_label_2
_geom_bond_site_symmetry_1
_geom_bond_site_symmetry_2
C1 C2 1_555 1_555
C2 H1 1_555 1_555
C3 C2 1_555 1_555
H2 C3 1_555 1_555
H3 C3 1_555 1_555
C4 C3 1_555 1_555
H4 C4 1_555 1_555
C5 C4 1_555 1_555
H5 C5 1_555 1_555
H6 C5 1_555 1_555
C6 C5 1_555 1_555
H7 C6 1_555 1_555
C7 C2 1_555 1_555
C8 C4 1_555 1_555
C9 C8 1_555 1_555
H8 C9 1_555 1_555
H9 C9 1_555 1_555
H10 C9 1_555 1_555
C10 C8 1_555 1_555
H11 C10 1_555 1_555
H12 C10 1_555 1_555
H13 C10 1_555 1_555
C11 C7 1_555 1_555
H14 C11 1_555 1_555
C12 C1 1_555 1_555
C13 C12 1_555 1_555
H15 C13 1_555 1_555
C14 C13 1_555 1_555
H16 C14 1_555 1_555
C15 C14 1_555 1_555
C16 C15 1_555 1_555
H17 C16 1_555 1_555
C17 C12 1_555 1_555
H18 C17 1_555 1_555
N1 C1 1_555 1_555
N2 C15 1_555 1_555
O1 C7 1_555 1_555
O2 C11 1_555 1_555
H19 O2 1_555 1_555
O3 N2 1_555 1_555
O4 N2 1_555 1_555
O5 C11 1_555 1_555
C18 C19 1_555 1_555
C19 H20 1_555 1_555
C20 C19 1_555 1_555
H21 C20 1_555 1_555
H22 C20 1_555 1_555
C21 C20 1_555 1_555
H23 C21 1_555 1_555
C22 C21 1_555 1_555
H24 C22 1_555 1_555
H25 C22 1_555 1_555
C23 C22 1_555 1_555
H26 C23 1_555 1_555
C24 C19 1_555 1_555
C25 C21 1_555 1_555
C26 C25 1_555 1_555
H27 C26 1_555 1_555
H28 C26 1_555 1_555
H29 C26 1_555 1_555
C27 C25 1_555 1_555
H30 C27 1_555 1_555
H31 C27 1_555 1_555
H32 C27 1_555 1_555
C28 O5 1_555 1_555
H33 C28 1_555 1_555
C29 C18 1_555 1_555
C30 C29 1_555 1_555
H34 C30 1_555 1_555
C31 C30 1_555 1_555
H35 C31 1_555 1_555
C32 C31 1_555 1_555
C33 C32 1_555 1_555
H36 C33 1_555 1_555
C34 C29 1_555 1_555
H37 C34 1_555 1_555
N3 C18 1_555 1_555
N4 C32 1_555 1_555
O6 C24 1_555 1_555
O7 C28 1_555 1_555
H38 O7 1_555 1_555
O8 N4 1_555 1_555
O9 N4 1_555 1_555
C6 C7 1_555 1_555
C6 C8 1_555 1_555
C16 C17 1_555 1_555
N1 O1 1_555 1_555
C23 C24 1_555 1_555
C23 C25 1_555 1_555
C24 C28 1_555 1_555
C33 C34 1_555 1_555
N3 O6 1_555 1_555

#END
