
#######################################################################
#
#                 Cambridge Crystallographic Data Centre
#                                CCDC 
#
#######################################################################
#
# If this CIF has been generated from an entry in the Cambridge 
# Structural Database, then it will include bibliographic, chemical, 
# crystal, experimental, refinement or atomic coordinate data resulting 
# from the CCDC's data processing and validation procedures.
#
#######################################################################

data_EKAHAB
_chemical_formula_moiety         'C17 H20 N2 O3'
_chemical_name_systematic        
2,9,9-trimethyl-5-(4-nitrophenyl)-3-oxa-4-azatricyclo[6.1.1.0^2,6^]dec-4-ene
_symmetry_cell_setting           triclinic
_symmetry_space_group_name_H-M   'P -1'
_symmetry_Int_Tables_number      2
_space_group_name_Hall           '-P 1'
loop_
_symmetry_equiv_pos_site_id
_symmetry_equiv_pos_as_xyz
1 x,y,z
2 -x,-y,-z
_cell_length_a                   6.1621(4)
_cell_length_b                   7.7440(5)
_cell_length_c                   17.8938(15)
_cell_angle_alpha                102.463(2)
_cell_angle_beta                 90.717(3)
_cell_angle_gamma                111.314(2)
_cell_volume                     772.839
_exptl_crystal_colour            colorless
_exptl_crystal_description       rod
_cell_formula_units_Z            2
loop_
_atom_site_label
_atom_site_type_symbol
_atom_site_fract_x
_atom_site_fract_y
_atom_site_fract_z
C1 C 0.2154(3) 0.3938(2) 0.75878(9)
C2 C 0.2057(3) 0.5297(2) 0.71075(8)
H1 H 0.0472 0.4850 0.6849
C3 C 0.2751(3) 0.7398(2) 0.75802(10)
H2 H 0.1465 0.7811 0.7516
H3 H 0.3007 0.7445 0.8122
C4 C 0.4942(3) 0.8763(2) 0.73374(10)
H4 H 0.5454 1.0091 0.7631
C5 C 0.4882(3) 0.8492(2) 0.64518(10)
C6 C 0.5717(3) 0.6818(2) 0.64709(9)
H5 H 0.6834 0.6670 0.6101
C7 C 0.3739(3) 0.4980(2) 0.65054(9)
C8 C 0.6824(3) 0.7898(3) 0.72961(11)
H6 H 0.6701 0.7082 0.7648
H7 H 0.8409 0.8818 0.7326
C9 C 0.6825(3) 1.0120(3) 0.62151(13)
H8 H 0.6472 1.1253 0.6335
H9 H 0.6928 0.9772 0.5672
H10 H 0.8292 1.0356 0.6490
C10 C 0.2598(3) 0.8171(3) 0.60111(13)
H11 H 0.1347 0.7170 0.6157
H12 H 0.2712 0.7816 0.5469
H13 H 0.2290 0.9325 0.6128
C11 C 0.2531(4) 0.3788(3) 0.57210(11)
H14 H 0.1351 0.2617 0.5776
H15 H 0.3661 0.3510 0.5402
H16 H 0.1817 0.4482 0.5487
C12 C 0.0734(3) 0.3476(2) 0.82228(9)
C13 C 0.1096(3) 0.2277(2) 0.86515(10)
H17 H 0.2214 0.1746 0.8524
C14 C -0.0177(3) 0.1873(3) 0.92583(10)
H18 H 0.0065 0.1069 0.9540
C15 C -0.1818(3) 0.2674(2) 0.94438(9)
C16 C -0.2257(3) 0.3839(2) 0.90310(10)
H19 H -0.3385 0.4356 0.9162
C17 C -0.0974(3) 0.4224(2) 0.84146(10)
H20 H -0.1262 0.4995 0.8125
N1 N 0.3669(3) 0.3177(2) 0.74115(9)
N2 N -0.3111(3) 0.2301(2) 1.01161(9)
O1 O 0.4834(3) 0.38230(18) 0.68038(8)
O2 O -0.2669(3) 0.1284(2) 1.04821(8)
O3 O -0.4550(3) 0.3024(2) 1.02780(10)
loop_
_geom_bond_atom_site_label_1
_geom_bond_atom_site_label_2
_geom_bond_site_symmetry_1
_geom_bond_site_symmetry_2
C1 C2 1_555 1_555
C2 H1 1_555 1_555
C3 C2 1_555 1_555
H2 C3 1_555 1_555
H3 C3 1_555 1_555
C4 C3 1_555 1_555
H4 C4 1_555 1_555
C5 C4 1_555 1_555
C6 C5 1_555 1_555
H5 C6 1_555 1_555
C7 C2 1_555 1_555
C8 C4 1_555 1_555
H6 C8 1_555 1_555
H7 C8 1_555 1_555
C9 C5 1_555 1_555
H8 C9 1_555 1_555
H9 C9 1_555 1_555
H10 C9 1_555 1_555
C10 C5 1_555 1_555
H11 C10 1_555 1_555
H12 C10 1_555 1_555
H13 C10 1_555 1_555
C11 C7 1_555 1_555
H14 C11 1_555 1_555
H15 C11 1_555 1_555
H16 C11 1_555 1_555
C12 C1 1_555 1_555
C13 C12 1_555 1_555
H17 C13 1_555 1_555
C14 C13 1_555 1_555
H18 C14 1_555 1_555
C15 C14 1_555 1_555
C16 C15 1_555 1_555
H19 C16 1_555 1_555
C17 C12 1_555 1_555
H20 C17 1_555 1_555
N1 C1 1_555 1_555
N2 C15 1_555 1_555
O1 C7 1_555 1_555
O2 N2 1_555 1_555
O3 N2 1_555 1_555
C6 C7 1_555 1_555
C6 C8 1_555 1_555
C16 C17 1_555 1_555
N1 O1 1_555 1_555

#END
