
#######################################################################
#
#                 Cambridge Crystallographic Data Centre
#                                CCDC 
#
#######################################################################
#
# If this CIF has been generated from an entry in the Cambridge 
# Structural Database, then it will include bibliographic, chemical, 
# crystal, experimental, refinement or atomic coordinate data resulting 
# from the CCDC's data processing and validation procedures.
#
#######################################################################

data_EKAHEF
_chemical_formula_moiety         'C17 H20 N2 O3'
_chemical_name_systematic        
2,9,9-trimethyl-5-(4-nitrophenyl)-3-oxa-4-azatricyclo[6.1.1.0^2,6^]dec-4-ene
_symmetry_cell_setting           orthorhombic
_symmetry_space_group_name_H-M   'P 21 21 21'
_symmetry_Int_Tables_number      19
_space_group_name_Hall           'P 2ac 2ab'
loop_
_symmetry_equiv_pos_site_id
_symmetry_equiv_pos_as_xyz
1 x,y,z
2 1/2+x,1/2-y,-z
3 -x,1/2+y,1/2-z
4 1/2-x,-y,1/2+z
_cell_length_a                   6.3851(2)
_cell_length_b                   7.6268(2)
_cell_length_c                   31.6718(8)
_cell_angle_alpha                90
_cell_angle_beta                 90
_cell_angle_gamma                90
_cell_volume                     1542.35
_exptl_crystal_colour            colorless
_exptl_crystal_description       'thin plate'
_cell_formula_units_Z            4
loop_
_atom_site_label
_atom_site_type_symbol
_atom_site_fract_x
_atom_site_fract_y
_atom_site_fract_z
C1 C 0.5487(7) 0.3567(6) 0.67474(13)
C2 C 0.6350(7) 0.3698(6) 0.63064(12)
H1 H 0.7518 0.2872 0.6278
C3 C 0.7121(8) 0.5542(6) 0.61845(13)
H2 H 0.6955 0.6320 0.6424
H3 H 0.8601 0.5487 0.6117
C4 C 0.5928(9) 0.6301(6) 0.58059(15)
H4 H 0.6367 0.7477 0.5718
C5 C 0.5746(8) 0.4934(6) 0.54457(13)
C6 C 0.3835(7) 0.4238(6) 0.57029(14)
H5 H 0.2654 0.3833 0.5531
C7 C 0.4482(7) 0.3004(6) 0.60513(12)
C8 C 0.3582(9) 0.6085(7) 0.58865(17)
H6 H 0.2702 0.6856 0.5720
H7 H 0.3191 0.6110 0.6182
C9 C 0.4983(10) 0.5787(7) 0.50272(15)
H8 H 0.3742 0.6463 0.5081
H9 H 0.4676 0.4886 0.4825
H10 H 0.6059 0.6539 0.4918
C10 C 0.7612(9) 0.3825(7) 0.53394(15)
H11 H 0.8138 0.3284 0.5592
H12 H 0.8683 0.4547 0.5217
H13 H 0.7209 0.2933 0.5141
C11 C 0.4689(9) 0.1116(6) 0.59115(14)
H14 H 0.3378 0.0718 0.5798
H15 H 0.5069 0.0401 0.6149
H16 H 0.5754 0.1029 0.5698
C12 C 0.6710(6) 0.3799(6) 0.71387(13)
C13 C 0.8756(7) 0.4327(7) 0.71294(13)
H17 H 0.9392 0.4537 0.6870
C14 C 0.9902(8) 0.4558(6) 0.74941(14)
H18 H 1.1281 0.4950 0.7484
C15 C 0.8946(7) 0.4191(6) 0.78732(12)
C16 C 0.6933(7) 0.3644(7) 0.78986(14)
H19 H 0.6327 0.3416 0.8160
C17 C 0.5787(7) 0.3427(6) 0.75318(14)
H20 H 0.4409 0.3035 0.7545
N1 N 0.3541(6) 0.3219(6) 0.67680(11)
N2 N 1.0202(7) 0.4364(5) 0.82630(12)
O1 O 0.2727(5) 0.2992(5) 0.63613(9)
O2 O 1.2017(7) 0.4820(6) 0.82319(11)
O3 O 0.9369(6) 0.3987(6) 0.85969(10)
loop_
_geom_bond_atom_site_label_1
_geom_bond_atom_site_label_2
_geom_bond_site_symmetry_1
_geom_bond_site_symmetry_2
C1 C2 1_555 1_555
C2 H1 1_555 1_555
C3 C2 1_555 1_555
H2 C3 1_555 1_555
H3 C3 1_555 1_555
C4 C3 1_555 1_555
H4 C4 1_555 1_555
C5 C4 1_555 1_555
C6 C5 1_555 1_555
H5 C6 1_555 1_555
C7 C2 1_555 1_555
C8 C4 1_555 1_555
H6 C8 1_555 1_555
H7 C8 1_555 1_555
C9 C5 1_555 1_555
H8 C9 1_555 1_555
H9 C9 1_555 1_555
H10 C9 1_555 1_555
C10 C5 1_555 1_555
H11 C10 1_555 1_555
H12 C10 1_555 1_555
H13 C10 1_555 1_555
C11 C7 1_555 1_555
H14 C11 1_555 1_555
H15 C11 1_555 1_555
H16 C11 1_555 1_555
C12 C1 1_555 1_555
C13 C12 1_555 1_555
H17 C13 1_555 1_555
C14 C13 1_555 1_555
H18 C14 1_555 1_555
C15 C14 1_555 1_555
C16 C15 1_555 1_555
H19 C16 1_555 1_555
C17 C12 1_555 1_555
H20 C17 1_555 1_555
N1 C1 1_555 1_555
N2 C15 1_555 1_555
O1 C7 1_555 1_555
O2 N2 1_555 1_555
O3 N2 1_555 1_555
C6 C7 1_555 1_555
C6 C8 1_555 1_555
C16 C17 1_555 1_555
N1 O1 1_555 1_555

#END
