
#######################################################################
#
#                 Cambridge Crystallographic Data Centre
#                                CCDC 
#
#######################################################################
#
# If this CIF has been generated from an entry in the Cambridge 
# Structural Database, then it will include bibliographic, chemical, 
# crystal, experimental, refinement or atomic coordinate data resulting 
# from the CCDC's data processing and validation procedures.
#
#######################################################################

data_EKAJAC
_chemical_formula_moiety         'C23 H19 N1 O2'
_chemical_name_systematic        9-(2-(3,4-Dimethoxyphenyl)vinyl)acridine
_symmetry_cell_setting           monoclinic
_symmetry_space_group_name_H-M   'P 21/c'
_symmetry_Int_Tables_number      14
_space_group_name_Hall           '-P 2ybc'
loop_
_symmetry_equiv_pos_site_id
_symmetry_equiv_pos_as_xyz
1 x,y,z
2 -x,1/2+y,1/2-z
3 -x,-y,-z
4 x,1/2-y,1/2+z
_cell_length_a                   12.0961(7)
_cell_length_b                   7.5847(4)
_cell_length_c                   18.3393(11)
_cell_angle_alpha                90
_cell_angle_beta                 91.817(2)
_cell_angle_gamma                90
_cell_volume                     1681.7
_exptl_crystal_colour            yellow
_cell_formula_units_Z            4
_exptl_crystal_recrystallization_method dichloromethane/hexane
loop_
_atom_site_label
_atom_site_type_symbol
_atom_site_fract_x
_atom_site_fract_y
_atom_site_fract_z
O1 O 0.13632(10) 0.57563(18) 0.19919(7)
O2 O 0.05873(10) 0.34800(18) 0.10652(8)
N1 N -0.60522(12) 0.8940(2) -0.11041(9)
C1 C -0.60997(13) 0.8311(2) -0.04196(10)
C2 C -0.71213(14) 0.8528(2) -0.00521(11)
C3 C -0.72277(15) 0.7979(2) 0.06441(11)
C4 C -0.63297(15) 0.7148(3) 0.10243(11)
C5 C -0.53469(14) 0.6917(2) 0.06945(10)
C6 C -0.51809(13) 0.7508(2) -0.00298(10)
C7 C -0.41737(13) 0.7321(2) -0.03953(10)
C8 C -0.41335(13) 0.7926(2) -0.11215(10)
C9 C -0.31591(15) 0.7826(3) -0.15412(11)
C10 C -0.31209(16) 0.8580(3) -0.22101(11)
C11 C -0.40542(16) 0.9491(3) -0.25164(11)
C12 C -0.50096(15) 0.9566(2) -0.21465(10)
C13 C -0.50862(14) 0.8780(2) -0.14452(10)
C14 C -0.31582(14) 0.6609(2) -0.00345(10)
C15 C -0.27736(13) 0.7179(2) 0.06113(10)
C16 C -0.17061(13) 0.6740(2) 0.09723(10)
C17 C -0.12688(14) 0.7937(2) 0.14715(10)
C18 C -0.02392(14) 0.7669(2) 0.18219(10)
C19 C 0.03570(13) 0.6164(2) 0.16733(10)
C20 C -0.00737(13) 0.4920(2) 0.11664(10)
C21 C -0.10941(14) 0.5200(2) 0.08247(10)
C22 C 0.17911(16) 0.6976(3) 0.25239(11)
C23 C 0.01675(16) 0.2098(3) 0.06120(12)
H1 H -0.3168(17) 0.806(3) 0.0869(11)
H2 H -0.5668(19) 1.018(3) -0.2327(12)
H3 H -0.1381(16) 0.434(3) 0.0477(11)
H4 H -0.476(2) 0.633(3) 0.0950(13)
H5 H -0.2741(17) 0.576(3) -0.0334(12)
H6 H -0.7731(19) 0.907(3) -0.0348(13)
H7 H -0.1680(17) 0.903(3) 0.1606(12)
H8 H -0.6431(18) 0.666(3) 0.1502(12)
H9 H -0.2532(18) 0.728(3) -0.1336(11)
H10 H -0.7924(19) 0.810(3) 0.0879(12)
H11 H 0.0026(18) 0.856(3) 0.2195(12)
H12 H -0.4020(19) 1.011(3) -0.2988(14)
H13 H -0.2458(19) 0.857(3) -0.2492(12)
H14 H 0.128(2) 0.712(3) 0.2928(13)
H15 H 0.247(2) 0.647(3) 0.2724(13)
H16 H -0.001(2) 0.251(3) 0.0114(14)
H17 H 0.079(2) 0.121(3) 0.0634(13)
H18 H 0.1918(19) 0.814(3) 0.2316(13)
H19 H -0.049(2) 0.154(4) 0.0838(14)
loop_
_geom_bond_atom_site_label_1
_geom_bond_atom_site_label_2
_geom_bond_site_symmetry_1
_geom_bond_site_symmetry_2
O1 C19 1_555 1_555
O2 C20 1_555 1_555
N1 C1 1_555 1_555
C1 C2 1_555 1_555
C2 C3 1_555 1_555
C3 C4 1_555 1_555
C4 C5 1_555 1_555
C5 C6 1_555 1_555
C6 C1 1_555 1_555
C7 C6 1_555 1_555
C8 C7 1_555 1_555
C9 C8 1_555 1_555
C10 C9 1_555 1_555
C11 C10 1_555 1_555
C12 C11 1_555 1_555
C13 N1 1_555 1_555
C14 C7 1_555 1_555
C15 C14 1_555 1_555
C16 C15 1_555 1_555
C17 C16 1_555 1_555
C18 C17 1_555 1_555
C19 C18 1_555 1_555
C20 C19 1_555 1_555
C21 C16 1_555 1_555
C22 O1 1_555 1_555
C23 O2 1_555 1_555
H1 C15 1_555 1_555
H2 C12 1_555 1_555
H3 C21 1_555 1_555
H4 C5 1_555 1_555
H5 C14 1_555 1_555
H6 C2 1_555 1_555
H7 C17 1_555 1_555
H8 C4 1_555 1_555
H9 C9 1_555 1_555
H10 C3 1_555 1_555
H11 C18 1_555 1_555
H12 C11 1_555 1_555
H13 C10 1_555 1_555
H14 C22 1_555 1_555
H15 C22 1_555 1_555
H16 C23 1_555 1_555
H17 C23 1_555 1_555
H18 C22 1_555 1_555
H19 C23 1_555 1_555
C8 C13 1_555 1_555
C12 C13 1_555 1_555
C20 C21 1_555 1_555

#END
