
#######################################################################
#
#                 Cambridge Crystallographic Data Centre
#                                CCDC 
#
#######################################################################
#
# If this CIF has been generated from an entry in the Cambridge 
# Structural Database, then it will include bibliographic, chemical, 
# crystal, experimental, refinement or atomic coordinate data resulting 
# from the CCDC's data processing and validation procedures.
#
#######################################################################

data_EKAJAD
_chemical_formula_moiety         'C16 H12 N2 O3'
_chemical_name_systematic        
3-(4-nitrophenyl)-4,8b-dihydro-3aH-indeno[2,1-d][1,2]oxazole
_symmetry_cell_setting           triclinic
_symmetry_space_group_name_H-M   'P -1'
_symmetry_Int_Tables_number      2
_space_group_name_Hall           '-P 1'
loop_
_symmetry_equiv_pos_site_id
_symmetry_equiv_pos_as_xyz
1 x,y,z
2 -x,-y,-z
_cell_length_a                   6.9126(4)
_cell_length_b                   7.8420(5)
_cell_length_c                   12.7841(9)
_cell_angle_alpha                100.400(2)
_cell_angle_beta                 92.546(2)
_cell_angle_gamma                105.012(2)
_cell_volume                     655.321
_exptl_crystal_colour            colorless
_exptl_crystal_description       rod
_cell_formula_units_Z            2
loop_
_atom_site_label
_atom_site_type_symbol
_atom_site_fract_x
_atom_site_fract_y
_atom_site_fract_z
C1 C 0.0249(2) 0.6527(2) 0.67724(12)
C2 C 0.0812(2) 0.5772(2) 0.77040(13)
H1 H 0.1180 0.4648 0.7465
C3 C 0.2429(3) 0.7108(3) 0.85396(14)
H2 H 0.3470 0.6561 0.8728
H3 H 0.3044 0.8183 0.8272
C4 C 0.1304(3) 0.7548(2) 0.94854(13)
C5 C 0.2038(4) 0.8737(3) 1.04510(15)
H4 H 0.3392 0.9368 1.0580
C6 C 0.0738(5) 0.8967(3) 1.12088(17)
H5 H 0.1218 0.9764 1.1855
C7 C -0.1265(5) 0.8040(4) 1.10289(18)
H6 H -0.2125 0.8217 1.1552
C8 C -0.2009(4) 0.6847(3) 1.00769(17)
H7 H -0.3362 0.6212 0.9956
C9 C -0.0705(3) 0.6610(2) 0.93038(13)
C10 C -0.1173(3) 0.5430(2) 0.82225(14)
H8 H -0.1686 0.4159 0.8266
C11 C 0.1566(2) 0.7032(2) 0.59442(12)
C12 C 0.3463(2) 0.6741(2) 0.59584(13)
H9 H 0.3915 0.6277 0.6513
C13 C 0.4689(2) 0.7134(2) 0.51598(13)
H10 H 0.5958 0.6935 0.5173
C14 C 0.4004(2) 0.7819(2) 0.43491(12)
C15 C 0.2135(3) 0.8150(2) 0.43116(13)
H11 H 0.1702 0.8626 0.3758
C16 C 0.0934(2) 0.7760(2) 0.51104(14)
H12 H -0.0323 0.7984 0.5098
N1 N -0.1556(2) 0.6663(2) 0.67156(11)
N2 N 0.5309(2) 0.8207(2) 0.34972(11)
O1 O -0.25668(17) 0.59912(19) 0.75438(10)
O2 O 0.6942(2) 0.7875(2) 0.35369(11)
O3 O 0.4707(2) 0.8842(2) 0.27860(11)
loop_
_geom_bond_atom_site_label_1
_geom_bond_atom_site_label_2
_geom_bond_site_symmetry_1
_geom_bond_site_symmetry_2
C1 C2 1_555 1_555
C2 H1 1_555 1_555
C3 C2 1_555 1_555
H2 C3 1_555 1_555
H3 C3 1_555 1_555
C4 C3 1_555 1_555
C5 C4 1_555 1_555
H4 C5 1_555 1_555
C6 C5 1_555 1_555
H5 C6 1_555 1_555
C7 C6 1_555 1_555
H6 C7 1_555 1_555
C8 C7 1_555 1_555
H7 C8 1_555 1_555
C9 C4 1_555 1_555
C10 C2 1_555 1_555
H8 C10 1_555 1_555
C11 C1 1_555 1_555
C12 C11 1_555 1_555
H9 C12 1_555 1_555
C13 C12 1_555 1_555
H10 C13 1_555 1_555
C14 C13 1_555 1_555
C15 C14 1_555 1_555
H11 C15 1_555 1_555
C16 C11 1_555 1_555
H12 C16 1_555 1_555
N1 C1 1_555 1_555
N2 C14 1_555 1_555
O1 C10 1_555 1_555
O2 N2 1_555 1_555
O3 N2 1_555 1_555
C8 C9 1_555 1_555
C9 C10 1_555 1_555
C15 C16 1_555 1_555
N1 O1 1_555 1_555

#END
