
#######################################################################
#
#                 Cambridge Crystallographic Data Centre
#                                CCDC 
#
#######################################################################
#
# If this CIF has been generated from an entry in the Cambridge 
# Structural Database, then it will include bibliographic, chemical, 
# crystal, experimental, refinement or atomic coordinate data resulting 
# from the CCDC's data processing and validation procedures.
#
#######################################################################

data_EKAJIK
_chemical_formula_moiety         'C25 H34 N2 O5'
_chemical_name_systematic        
16-(4-(2-(Pyridin-4-yl)vinyl)phenyl)-1,4,7,10,13-pentaoxa-16-azacyclooctadecane
_symmetry_cell_setting           monoclinic
_symmetry_space_group_name_H-M   'P c'
_symmetry_Int_Tables_number      7
_space_group_name_Hall           'P -2yc'
loop_
_symmetry_equiv_pos_site_id
_symmetry_equiv_pos_as_xyz
1 x,y,z
2 x,-y,1/2+z
_cell_length_a                   16.7934(15)
_cell_length_b                   8.3363(7)
_cell_length_c                   8.6303(8)
_cell_angle_alpha                90
_cell_angle_beta                 103.886(4)
_cell_angle_gamma                90
_cell_volume                     1172.89
_exptl_crystal_colour            yellowish
_exptl_crystal_description       plate
_chemical_melting_point          '94-96deg. C'
_cell_formula_units_Z            2
_exptl_crystal_recrystallization_method dichloromethane/hexane
loop_
_atom_site_label
_atom_site_type_symbol
_atom_site_fract_x
_atom_site_fract_y
_atom_site_fract_z
O1 O 0.00340(17) 0.4493(3) 0.2629(3)
O2 O 0.17545(17) 0.4427(3) 0.4703(3)
O3 O 0.29296(18) 0.1754(3) 0.5815(3)
O4 O 0.22520(18) -0.1403(4) 0.6037(3)
O5 O 0.05187(17) -0.0067(3) 0.5276(3)
N1 N -0.5259(3) 0.3103(5) 1.0952(5)
N2 N -0.1268(2) 0.2018(4) 0.2780(4)
C1 C -0.4771(4) 0.1844(7) 1.1179(7)
C2 C -0.4242(3) 0.1429(6) 1.0234(6)
C3 C -0.4200(3) 0.2398(5) 0.8929(5)
C4 C -0.4730(3) 0.3690(6) 0.8666(5)
H1 H -0.4748 0.4375 0.7778
C5 C -0.5233(3) 0.3995(6) 0.9681(6)
H2 H -0.5585 0.4901 0.9461
C6 C -0.3621(3) 0.2009(6) 0.7965(6)
C7 C -0.3525(3) 0.2873(5) 0.6697(5)
C8 C -0.2949(3) 0.2568(5) 0.5689(5)
C9 C -0.2943(3) 0.3635(5) 0.4443(5)
C10 C -0.2406(3) 0.3449(5) 0.3456(6)
C11 C -0.1822(3) 0.2207(5) 0.3720(5)
C12 C -0.1837(3) 0.1119(5) 0.4968(5)
H3 H -0.1465 0.0242 0.5151
C13 C -0.2384(3) 0.1306(5) 0.5931(5)
C14 C -0.1238(3) 0.3195(5) 0.1555(5)
H4 H -0.1806 0.3435 0.0956
H5 H -0.0947 0.2718 0.0795
C15 C -0.0817(3) 0.4761(6) 0.2183(6)
C16 C 0.0466(3) 0.5753(6) 0.3598(6)
C17 C 0.1358(3) 0.5654(6) 0.3625(6)
C18 C 0.2602(3) 0.4430(6) 0.4811(5)
C19 C 0.3046(3) 0.3410(5) 0.6184(6)
C20 C 0.3211(3) 0.0780(5) 0.7187(5)
C21 C 0.3076(3) -0.0980(6) 0.6746(6)
C22 C 0.1698(3) -0.1197(6) 0.7071(6)
C23 C 0.1174(3) 0.0269(6) 0.6636(5)
C24 C 0.0057(3) 0.1337(5) 0.4709(5)
H6 H 0.0420 0.2178 0.4451
H7 H -0.0206 0.1760 0.5538
C25 C -0.0591(3) 0.0883(5) 0.3231(5)
H8 H -0.473(4) 0.116(8) 1.192(8)
H9 H -0.390(2) 0.057(5) 1.042(5)
H10 H -0.327(3) 0.106(7) 0.828(7)
H11 H -0.380(3) 0.381(6) 0.636(6)
H12 H -0.332(3) 0.458(6) 0.425(6)
H13 H -0.235(2) 0.429(5) 0.263(5)
H14 H -0.242(3) 0.049(5) 0.680(5)
H15 H -0.089(3) 0.567(6) 0.147(6)
H16 H -0.098(2) 0.510(5) 0.315(5)
H17 H 0.030(3) 0.560(7) 0.463(7)
H18 H 0.026(3) 0.677(6) 0.304(6)
H19 H 0.142(3) 0.554(6) 0.258(8)
H20 H 0.160(3) 0.663(6) 0.388(6)
H21 H 0.283(3) 0.547(6) 0.502(5)
H22 H 0.277(2) 0.402(4) 0.378(5)
H23 H 0.367(3) 0.351(6) 0.639(6)
H24 H 0.285(3) 0.365(5) 0.717(5)
H25 H 0.293(3) 0.122(5) 0.810(6)
H26 H 0.387(2) 0.104(4) 0.766(4)
H27 H 0.339(3) -0.117(7) 0.599(8)
H28 H 0.344(3) -0.188(6) 0.782(6)
H29 H 0.203(3) -0.108(6) 0.824(6)
H30 H 0.132(3) -0.201(5) 0.698(5)
H31 H 0.093(3) 0.047(5) 0.760(6)
H32 H 0.148(2) 0.105(5) 0.632(5)
H33 H -0.036(3) 0.079(5) 0.218(6)
H34 H -0.082(2) -0.026(5) 0.337(5)
loop_
_geom_bond_atom_site_label_1
_geom_bond_atom_site_label_2
_geom_bond_site_symmetry_1
_geom_bond_site_symmetry_2
O1 C15 1_555 1_555
O2 C17 1_555 1_555
O3 C19 1_555 1_555
O4 C21 1_555 1_555
O5 C23 1_555 1_555
N1 C1 1_555 1_555
N2 C11 1_555 1_555
C1 C2 1_555 1_555
C2 C3 1_555 1_555
C3 C4 1_555 1_555
C4 H1 1_555 1_555
C5 N1 1_555 1_555
H2 C5 1_555 1_555
C6 C3 1_555 1_555
C7 C6 1_555 1_555
C8 C7 1_555 1_555
C9 C8 1_555 1_555
C10 C9 1_555 1_555
C11 C10 1_555 1_555
C12 C11 1_555 1_555
H3 C12 1_555 1_555
C13 C8 1_555 1_555
C14 N2 1_555 1_555
H4 C14 1_555 1_555
H5 C14 1_555 1_555
C15 C14 1_555 1_555
C16 O1 1_555 1_555
C17 C16 1_555 1_555
C18 O2 1_555 1_555
C19 C18 1_555 1_555
C20 O3 1_555 1_555
C21 C20 1_555 1_555
C22 O4 1_555 1_555
C23 C22 1_555 1_555
C24 O5 1_555 1_555
H6 C24 1_555 1_555
H7 C24 1_555 1_555
C25 N2 1_555 1_555
H8 C1 1_555 1_555
H9 C2 1_555 1_555
H10 C6 1_555 1_555
H11 C7 1_555 1_555
H12 C9 1_555 1_555
H13 C10 1_555 1_555
H14 C13 1_555 1_555
H15 C15 1_555 1_555
H16 C15 1_555 1_555
H17 C16 1_555 1_555
H18 C16 1_555 1_555
H19 C17 1_555 1_555
H20 C17 1_555 1_555
H21 C18 1_555 1_555
H22 C18 1_555 1_555
H23 C19 1_555 1_555
H24 C19 1_555 1_555
H25 C20 1_555 1_555
H26 C20 1_555 1_555
H27 C21 1_555 1_555
H28 C21 1_555 1_555
H29 C22 1_555 1_555
H30 C22 1_555 1_555
H31 C23 1_555 1_555
H32 C23 1_555 1_555
H33 C25 1_555 1_555
H34 C25 1_555 1_555
C4 C5 1_555 1_555
C12 C13 1_555 1_555
C24 C25 1_555 1_555

#END
