
#######################################################################
#
#                 Cambridge Crystallographic Data Centre
#                                CCDC 
#
#######################################################################
#
# If this CIF has been generated from an entry in the Cambridge 
# Structural Database, then it will include bibliographic, chemical, 
# crystal, experimental, refinement or atomic coordinate data resulting 
# from the CCDC's data processing and validation procedures.
#
#######################################################################

data_EKALUZ01
_chemical_formula_moiety         'C21 H32 O5'
_chemical_name_systematic        
3a,5,9-trihydroxy-3-isopropyl-9-(methoxymethyl)-6,10a-dimethyl-4,5,6,6a,7,8,9,10a-octahydrodicyclopenta[a,d][8]annulen-1(3aH)-one
_symmetry_cell_setting           orthorhombic
_symmetry_space_group_name_H-M   'P 21 21 21'
_symmetry_Int_Tables_number      19
_space_group_name_Hall           'P 2ac 2ab'
loop_
_symmetry_equiv_pos_site_id
_symmetry_equiv_pos_as_xyz
1 x,y,z
2 1/2-x,-y,1/2+z
3 -x,1/2+y,1/2-z
4 1/2+x,1/2-y,-z
_cell_length_a                   8.9006(3)
_cell_length_b                   10.3465(4)
_cell_length_c                   21.9884(9)
_cell_angle_alpha                90
_cell_angle_beta                 90
_cell_angle_gamma                90
_cell_volume                     2024.91
_cell_formula_units_Z            4
loop_
_atom_site_label
_atom_site_type_symbol
_atom_site_fract_x
_atom_site_fract_y
_atom_site_fract_z
C1 C -0.0157(3) 0.0936(2) 0.29377(11)
H1 H -0.1128 0.0656 0.2854
C2 C 0.0098(3) 0.1179(2) 0.35292(12)
C3 C -0.1239(3) 0.1274(3) 0.39732(12)
C4 C -0.0697(3) 0.2295(3) 0.44187(14)
H2 H -0.0923 0.3154 0.4267
H3 H -0.1181 0.2185 0.4811
C5 C 0.0964(4) 0.2112(4) 0.44754(15)
H4 H 0.1191 0.1486 0.4791
H5 H 0.1450 0.2923 0.4577
C6 C 0.1511(3) 0.1619(3) 0.38504(12)
H6 H 0.1884 0.2374 0.3628
C7 C 0.2857(3) 0.0664(3) 0.39140(13)
H7 H 0.3614 0.1124 0.4155
C8 C 0.3599(3) 0.0385(3) 0.33072(12)
H8 H 0.3740 0.1204 0.3090
C9 C 0.2728(3) -0.0546(2) 0.28937(12)
H9 H 0.1902 -0.0901 0.3128
H10 H 0.3391 -0.1259 0.2794
C10 C 0.2079(3) -0.0017(2) 0.22943(12)
C11 C 0.0826(3) 0.1031(2) 0.23893(11)
C12 C 0.1753(3) 0.2273(3) 0.23424(12)
C13 C 0.3111(3) 0.1979(3) 0.20009(12)
H11 H 0.3776 0.2593 0.1849
C14 C 0.3268(3) 0.0709(3) 0.19374(12)
C15 C 0.4455(3) 0.0013(3) 0.15866(16)
H12 H 0.4417 -0.0883 0.1730
C16 C -0.1567(4) -0.0035(3) 0.42564(14)
H13 H -0.1912 -0.0630 0.3945
H14 H -0.0658 -0.0385 0.4435
C17 C 0.2521(4) -0.0581(3) 0.42677(15)
H15 H 0.1648 -0.0992 0.4099
H16 H 0.2340 -0.0376 0.4687
H17 H 0.3365 -0.1156 0.4238
C18 C -0.0187(3) 0.1083(3) 0.18187(12)
H18 H -0.0795 0.0318 0.1801
H19 H 0.0430 0.1134 0.1461
H20 H -0.0824 0.1831 0.1840
C19 C 0.6025(5) 0.0499(6) 0.1752(3)
H21 H 0.6189 0.1329 0.1569
H22 H 0.6764 -0.0101 0.1606
H23 H 0.6108 0.0574 0.2186
C20 C 0.4140(6) -0.0051(7) 0.0943(2)
H24 H 0.3099 -0.0258 0.0883
H25 H 0.4754 -0.0707 0.0760
H26 H 0.4357 0.0769 0.0759
C21 C -0.3147(6) -0.1078(6) 0.4947(2)
H27 H -0.3764 -0.1517 0.4654
H28 H -0.3714 -0.0930 0.5311
H29 H -0.2284 -0.1599 0.5039
O1 O -0.26112(19) 0.16337(18) 0.36803(8)
H30 H -0.2488 0.2312 0.3494
O2 O 0.1564(2) -0.10972(17) 0.19471(8)
H31 H 0.0858 -0.1442 0.2123
O3 O 0.1340(2) 0.33281(18) 0.25332(10)
O4 O 0.5041(2) -0.0207(2) 0.33949(11)
H32 H 0.5631 0.0329 0.3530
O5 O -0.2679(3) 0.0101(3) 0.47077(11)
H33? H 0.3810 -0.0560 0.1346
C22? C 0.5470(14) -0.0998(14) 0.1806(8)
H34? H 0.5853 -0.0762 0.2199
H35? H 0.6290 -0.1096 0.1526
H36? H 0.4933 -0.1800 0.1837
C23? C 0.5170(18) 0.0863(15) 0.1073(6)
H37? H 0.5464 0.0321 0.0740
H38? H 0.6037 0.1302 0.1231
H39? H 0.4448 0.1487 0.0936
loop_
_geom_bond_atom_site_label_1
_geom_bond_atom_site_label_2
_geom_bond_site_symmetry_1
_geom_bond_site_symmetry_2
C1 H1 1_555 1_555
C2 C1 1_555 1_555
C3 C2 1_555 1_555
C4 C3 1_555 1_555
H2 C4 1_555 1_555
H3 C4 1_555 1_555
C5 C4 1_555 1_555
H4 C5 1_555 1_555
H5 C5 1_555 1_555
C6 C2 1_555 1_555
H6 C6 1_555 1_555
C7 C6 1_555 1_555
H7 C7 1_555 1_555
C8 C7 1_555 1_555
H8 C8 1_555 1_555
C9 C8 1_555 1_555
H9 C9 1_555 1_555
H10 C9 1_555 1_555
C10 C9 1_555 1_555
C11 C1 1_555 1_555
C12 C11 1_555 1_555
C13 C12 1_555 1_555
H11 C13 1_555 1_555
C14 C10 1_555 1_555
C15 C14 1_555 1_555
H12 C15 1_555 1_555
C16 C3 1_555 1_555
H13 C16 1_555 1_555
H14 C16 1_555 1_555
C17 C7 1_555 1_555
H15 C17 1_555 1_555
H16 C17 1_555 1_555
H17 C17 1_555 1_555
C18 C11 1_555 1_555
H18 C18 1_555 1_555
H19 C18 1_555 1_555
H20 C18 1_555 1_555
C19 C15 1_555 1_555
H21 C19 1_555 1_555
H22 C19 1_555 1_555
H23 C19 1_555 1_555
C20 C15 1_555 1_555
H24 C20 1_555 1_555
H25 C20 1_555 1_555
H26 C20 1_555 1_555
C21 H27 1_555 1_555
H28 C21 1_555 1_555
H29 C21 1_555 1_555
O1 C3 1_555 1_555
H30 O1 1_555 1_555
O2 C10 1_555 1_555
H31 O2 1_555 1_555
O3 C12 1_555 1_555
O4 C8 1_555 1_555
H32 O4 1_555 1_555
O5 C16 1_555 1_555
C5 C6 1_555 1_555
C10 C11 1_555 1_555
C13 C14 1_555 1_555
C21 O5 1_555 1_555

#END
