
#######################################################################
#
#                 Cambridge Crystallographic Data Centre
#                                CCDC 
#
#######################################################################
#
# If this CIF has been generated from an entry in the Cambridge 
# Structural Database, then it will include bibliographic, chemical, 
# crystal, experimental, refinement or atomic coordinate data resulting 
# from the CCDC's data processing and validation procedures.
#
#######################################################################

data_EKASIU
_chemical_formula_moiety         'C36 H15 B1 F15 1-,C12 H28 P1 1+'
_chemical_name_systematic        
'tri-t-butylphosphonium tris(pentafluorophenyl)(2-phenyl-1-(prop-1-en-2-yl)-1H-inden-3-yl)borate'
_symmetry_cell_setting           monoclinic
_symmetry_space_group_name_H-M   'P 21/c'
_symmetry_Int_Tables_number      14
_space_group_name_Hall           '-P 2ybc'
loop_
_symmetry_equiv_pos_site_id
_symmetry_equiv_pos_as_xyz
1 x,y,z
2 -x,1/2+y,1/2-z
3 -x,-y,-z
4 x,1/2-y,1/2+z
_cell_length_a                   15.778(5)
_cell_length_b                   16.272(5)
_cell_length_c                   18.050(5)
_cell_angle_alpha                90
_cell_angle_beta                 109.059(7)
_cell_angle_gamma                90
_cell_volume                     4380.12
_exptl_crystal_colour            colorless
_exptl_crystal_description       prism
_cell_formula_units_Z            4
loop_
_atom_site_label
_atom_site_type_symbol
_atom_site_fract_x
_atom_site_fract_y
_atom_site_fract_z
B1 B 0.2390(3) 0.5106(3) 0.7256(3)
F1 F 0.11892(15) 0.60592(15) 0.59749(13)
F2 F 0.01261(16) 0.73006(15) 0.60304(14)
F3 F 0.00244(17) 0.78393(16) 0.74298(15)
F4 F 0.11022(17) 0.71396(16) 0.87790(14)
F5 F 0.22332(16) 0.59746(15) 0.87595(14)
F6 F 0.03161(15) 0.48775(15) 0.65428(13)
F7 F -0.04868(15) 0.35927(15) 0.57607(14)
F8 F 0.04674(17) 0.22336(15) 0.55972(14)
F9 F 0.22755(17) 0.22529(15) 0.62255(14)
F10 F 0.31290(15) 0.35672(15) 0.69848(14)
F11 F 0.15871(15) 0.44280(15) 0.83568(13)
F12 F 0.23848(16) 0.36985(16) 0.97271(14)
F13 F 0.42073(17) 0.35079(17) 1.02635(14)
F14 F 0.51912(16) 0.40790(17) 0.93918(15)
F15 F 0.44234(15) 0.47867(16) 0.80281(14)
C1 C 0.1755(3) 0.5895(3) 0.7354(2)
C2 C 0.1210(3) 0.6303(3) 0.6702(2)
C3 C 0.0640(3) 0.6942(3) 0.6706(3)
C4 C 0.0595(3) 0.7228(3) 0.7407(3)
C5 C 0.1137(3) 0.6874(3) 0.8083(3)
C6 C 0.1699(3) 0.6240(3) 0.8044(2)
C7 C 0.1786(3) 0.4330(3) 0.6781(2)
C8 C 0.0868(3) 0.4256(3) 0.6469(2)
C9 C 0.0413(3) 0.3589(3) 0.6055(2)
C10 C 0.0881(3) 0.2904(3) 0.5976(2)
C11 C 0.1799(3) 0.2923(3) 0.6296(2)
C12 C 0.2220(3) 0.3607(3) 0.6683(2)
C13 C 0.2954(3) 0.4698(3) 0.8121(2)
C14 C 0.2497(3) 0.4366(3) 0.8590(3)
C15 C 0.2890(3) 0.3976(3) 0.9299(3)
C16 C 0.3798(3) 0.3882(3) 0.9571(3)
C17 C 0.4293(3) 0.4175(3) 0.9128(3)
C18 C 0.3865(3) 0.4560(3) 0.8423(3)
C19 C 0.2797(3) 0.4661(3) 0.5545(2)
C20 C 0.1899(3) 0.4642(3) 0.5078(2)
H1 H 0.1508 0.5070 0.5120
C21 C 0.1569(3) 0.4007(3) 0.4554(3)
H2 H 0.0951 0.4000 0.4250
C22 C 0.2118(3) 0.3388(3) 0.4464(3)
H3 H 0.1882 0.2951 0.4107
C23 C 0.3026(3) 0.3409(3) 0.4901(3)
H4 H 0.3416 0.2990 0.4838
C24 C 0.3362(3) 0.4049(3) 0.5434(3)
H5 H 0.3984 0.4067 0.5724
C25 C 0.3049(3) 0.5513(3) 0.6814(2)
C26 C 0.3618(3) 0.6236(3) 0.7139(2)
C27 C 0.3789(3) 0.6651(3) 0.7851(3)
H6 H 0.3513 0.6478 0.8220
C28 C 0.4367(3) 0.7316(3) 0.8011(3)
H7 H 0.4486 0.7593 0.8497
C29 C 0.4778(3) 0.7592(3) 0.7488(3)
H8 H 0.5156 0.8062 0.7605
C30 C 0.4626(3) 0.7168(3) 0.6783(3)
H9 H 0.4903 0.7344 0.6415
C31 C 0.4070(3) 0.6492(3) 0.6629(2)
C32 C 0.3880(3) 0.5889(3) 0.5963(2)
H10 H 0.4435 0.5557 0.6038
C33 C 0.3176(3) 0.5324(2) 0.6124(2)
C34 C 0.3618(3) 0.6273(3) 0.5157(3)
C35 C 0.2760(3) 0.6746(3) 0.4904(3)
H11 H 0.2674 0.6995 0.4390
H12 H 0.2783 0.7179 0.5287
H13 H 0.2259 0.6375 0.4868
C36 C 0.4142(4) 0.6202(3) 0.4727(3)
H14 H 0.3983 0.6459 0.4228
H15 H 0.4682 0.5894 0.4915
P1 P 0.21547(8) 0.49303(8) 0.16644(7)
H16 H 0.1690(17) 0.4365(15) 0.1059(13)
C37 C 0.2089(3) 0.5826(3) 0.1011(3)
C38 C 0.2110(3) 0.6640(3) 0.1437(3)
H17 H 0.2687 0.6698 0.1856
H18 H 0.1624 0.6650 0.1663
H19 H 0.2032 0.7095 0.1065
C39 C 0.1222(3) 0.5738(3) 0.0295(3)
H20 H 0.0697 0.5793 0.0468
H21 H 0.1214 0.5198 0.0053
H22 H 0.1208 0.6169 -0.0088
C40 C 0.2872(3) 0.5826(3) 0.0674(3)
H23 H 0.2794 0.6281 0.0301
H24 H 0.2878 0.5304 0.0405
H25 H 0.3441 0.5894 0.1102
C41 C 0.3314(3) 0.4639(3) 0.2271(3)
C42 C 0.3840(3) 0.5385(3) 0.2689(2)
H26 H 0.3558 0.5606 0.3056
H27 H 0.3842 0.5806 0.2302
H28 H 0.4458 0.5222 0.2977
C43 C 0.3312(3) 0.3988(3) 0.2891(3)
H29 H 0.3931 0.3833 0.3186
H30 H 0.2981 0.3502 0.2630
H31 H 0.3024 0.4215 0.3251
C44 C 0.3779(3) 0.4247(3) 0.1735(3)
H32 H 0.3871 0.4664 0.1376
H33 H 0.3404 0.3803 0.1431
H34 H 0.4361 0.4023 0.2053
C45 C 0.1336(3) 0.4967(3) 0.2207(2)
C46 C 0.1140(3) 0.4076(3) 0.2405(3)
H35 H 0.1693 0.3826 0.2750
H36 H 0.0916 0.3756 0.1920
H37 H 0.0687 0.4083 0.2669
C47 C 0.0427(3) 0.5321(3) 0.1700(3)
H38 H 0.0011 0.5323 0.2001
H39 H 0.0180 0.4982 0.1229
H40 H 0.0511 0.5885 0.1545
C48 C 0.1698(3) 0.5480(3) 0.2963(2)
H41 H 0.1247 0.5501 0.3229
H42 H 0.1830 0.6039 0.2830
H43 H 0.2248 0.5226 0.3310
loop_
_geom_bond_atom_site_label_1
_geom_bond_atom_site_label_2
_geom_bond_site_symmetry_1
_geom_bond_site_symmetry_2
B1 C1 1_555 1_555
F1 C2 1_555 1_555
F2 C3 1_555 1_555
F3 C4 1_555 1_555
F4 C5 1_555 1_555
F5 C6 1_555 1_555
F6 C8 1_555 1_555
F7 C9 1_555 1_555
F8 C10 1_555 1_555
F9 C11 1_555 1_555
F10 C12 1_555 1_555
F11 C14 1_555 1_555
F12 C15 1_555 1_555
F13 C16 1_555 1_555
F14 C17 1_555 1_555
F15 C18 1_555 1_555
C1 C2 1_555 1_555
C2 C3 1_555 1_555
C3 C4 1_555 1_555
C4 C5 1_555 1_555
C5 C6 1_555 1_555
C6 C1 1_555 1_555
C7 B1 1_555 1_555
C8 C7 1_555 1_555
C9 C8 1_555 1_555
C10 C9 1_555 1_555
C11 C10 1_555 1_555
C12 C7 1_555 1_555
C13 B1 1_555 1_555
C14 C13 1_555 1_555
C15 C14 1_555 1_555
C16 C15 1_555 1_555
C17 C16 1_555 1_555
C18 C13 1_555 1_555
C19 C20 1_555 1_555
C20 H1 1_555 1_555
C21 C20 1_555 1_555
H2 C21 1_555 1_555
C22 C21 1_555 1_555
H3 C22 1_555 1_555
C23 C22 1_555 1_555
H4 C23 1_555 1_555
C24 C19 1_555 1_555
H5 C24 1_555 1_555
C25 B1 1_555 1_555
C26 C25 1_555 1_555
C27 C26 1_555 1_555
H6 C27 1_555 1_555
C28 C27 1_555 1_555
H7 C28 1_555 1_555
C29 C28 1_555 1_555
H8 C29 1_555 1_555
C30 C29 1_555 1_555
H9 C30 1_555 1_555
C31 C26 1_555 1_555
C32 C31 1_555 1_555
H10 C32 1_555 1_555
C33 C19 1_555 1_555
C34 C32 1_555 1_555
C35 C34 1_555 1_555
H11 C35 1_555 1_555
H12 C35 1_555 1_555
H13 C35 1_555 1_555
C36 C34 1_555 1_555
H14 C36 1_555 1_555
H15 C36 1_555 1_555
P1 H16 1_555 1_555
C37 P1 1_555 1_555
C38 C37 1_555 1_555
H17 C38 1_555 1_555
H18 C38 1_555 1_555
H19 C38 1_555 1_555
C39 C37 1_555 1_555
H20 C39 1_555 1_555
H21 C39 1_555 1_555
H22 C39 1_555 1_555
C40 C37 1_555 1_555
H23 C40 1_555 1_555
H24 C40 1_555 1_555
H25 C40 1_555 1_555
C41 P1 1_555 1_555
C42 C41 1_555 1_555
H26 C42 1_555 1_555
H27 C42 1_555 1_555
H28 C42 1_555 1_555
C43 C41 1_555 1_555
H29 C43 1_555 1_555
H30 C43 1_555 1_555
H31 C43 1_555 1_555
C44 C41 1_555 1_555
H32 C44 1_555 1_555
H33 C44 1_555 1_555
H34 C44 1_555 1_555
C45 P1 1_555 1_555
C46 C45 1_555 1_555
H35 C46 1_555 1_555
H36 C46 1_555 1_555
H37 C46 1_555 1_555
C47 C45 1_555 1_555
H38 C47 1_555 1_555
H39 C47 1_555 1_555
H40 C47 1_555 1_555
C48 C45 1_555 1_555
H41 C48 1_555 1_555
H42 C48 1_555 1_555
H43 C48 1_555 1_555
C11 C12 1_555 1_555
C17 C18 1_555 1_555
C23 C24 1_555 1_555
C25 C33 1_555 1_555
C30 C31 1_555 1_555
C32 C33 1_555 1_555

#END
