
#######################################################################
#
#                 Cambridge Crystallographic Data Centre
#                                CCDC 
#
#######################################################################
#
# If this CIF has been generated from an entry in the Cambridge 
# Structural Database, then it will include bibliographic, chemical, 
# crystal, experimental, refinement or atomic coordinate data resulting 
# from the CCDC's data processing and validation procedures.
#
#######################################################################

data_EKASOA
_chemical_formula_moiety         'C19 H32 N2 O6 S1'
_chemical_name_systematic        
't-butyl 2-(((t-butylsulfinyl)amino)(2,2-dimethyl-1,3-dioxolan-4-yl)methyl)-5-oxo-2,5-dihydro-1H-pyrrole-1-carboxylate'
_symmetry_cell_setting           monoclinic
_symmetry_space_group_name_H-M   'P 21'
_symmetry_Int_Tables_number      4
_space_group_name_Hall           'P 2yb'
loop_
_symmetry_equiv_pos_site_id
_symmetry_equiv_pos_as_xyz
1 x,y,z
2 -x,1/2+y,-z
_cell_length_a                   10.5191(17)
_cell_length_b                   9.9359(15)
_cell_length_c                   11.1994(19)
_cell_angle_alpha                90
_cell_angle_beta                 106.583(5)
_cell_angle_gamma                90
_cell_volume                     1121.84
_exptl_crystal_colour            colorless
_exptl_crystal_description       plate
_cell_formula_units_Z            2
loop_
_atom_site_label
_atom_site_type_symbol
_atom_site_fract_x
_atom_site_fract_y
_atom_site_fract_z
S1 S 0.14991(8) 0.59013(9) 0.84664(9)
O1 O 0.4792(3) 0.7697(3) 0.6675(3)
O2 O 0.2837(2) 0.8849(2) 0.6110(2)
O3 O 0.2604(2) 0.3829(2) 0.5869(2)
O4 O 0.2725(3) 0.1963(2) 0.7062(3)
O5 O 0.1053(3) 0.7265(3) 0.8729(3)
O6 O 0.4990(3) 0.1915(3) 0.9043(3)
N1 N 0.4217(3) 0.3690(3) 0.7653(3)
N2 N 0.3122(2) 0.5871(3) 0.8700(2)
H1 H 0.3669 0.5693 0.9438
C1 C 0.5098(4) 0.3056(4) 0.8669(4)
C2 C 0.6169(4) 0.4029(4) 0.9174(4)
H2 H 0.6923 0.3876 0.9867
C3 C 0.5916(4) 0.5157(4) 0.8512(4)
H3 H 0.6482 0.5921 0.8662
C4 C 0.4636(3) 0.5079(3) 0.7503(4)
H4 H 0.4808 0.5175 0.6674
C5 C 0.3606(3) 0.6152(3) 0.7630(3)
H5 H 0.2832 0.6095 0.6866
C6 C 0.4198(4) 0.7563(4) 0.7670(4)
H6 H 0.4883 0.7705 0.8487
C7 C 0.3185(4) 0.8709(4) 0.7433(4)
H7 H 0.2404 0.8466 0.7714
H8 H 0.3584 0.9547 0.7856
C8 C 0.1340(4) 0.4850(4) 0.9749(4)
C9 C -0.0129(5) 0.4813(5) 0.9604(6)
H9 H -0.0303 0.4206 1.0228
H10 H -0.0599 0.4490 0.8768
H11 H -0.0439 0.5720 0.9722
C10 C 0.1846(5) 0.3466(5) 0.9603(7)
H12 H 0.1636 0.2857 1.0209
H13 H 0.2809 0.3499 0.9748
H14 H 0.1424 0.3137 0.8758
C11 C 0.2060(7) 0.5506(8) 1.0981(5)
H15 H 0.1879 0.5001 1.1666
H16 H 0.1750 0.6435 1.0992
H17 H 0.3017 0.5506 1.1081
C12 C 0.4041(4) 0.8662(4) 0.5784(4)
C13 C 0.3671(5) 0.8064(4) 0.4487(4)
H18 H 0.3154 0.7241 0.4472
H19 H 0.4480 0.7849 0.4257
H20 H 0.3141 0.8715 0.3892
C14 C 0.4829(4) 0.9946(4) 0.5889(5)
H21 H 0.4976 1.0325 0.6725
H22 H 0.4337 1.0594 0.5268
H23 H 0.5686 0.9754 0.5742
C15 C 0.3116(4) 0.3031(4) 0.6859(4)
C16 C 0.1377(4) 0.3381(4) 0.4896(4)
C17 C 0.1682(5) 0.2142(5) 0.4260(5)
H24 H 0.1847 0.1384 0.4845
H25 H 0.2472 0.2301 0.3982
H26 H 0.0928 0.1931 0.3539
C18 C 0.0273(4) 0.3203(6) 0.5492(5)
H27 H 0.0452 0.2409 0.6034
H28 H -0.0569 0.3080 0.4842
H29 H 0.0217 0.4002 0.5987
C19 C 0.1102(5) 0.4590(5) 0.4038(5)
H30 H 0.1846 0.4724 0.3687
H31 H 0.0996 0.5392 0.4511
H32 H 0.0287 0.4438 0.3363
loop_
_geom_bond_atom_site_label_1
_geom_bond_atom_site_label_2
_geom_bond_site_symmetry_1
_geom_bond_site_symmetry_2
S1 O5 1_555 1_555
O1 C6 1_555 1_555
O2 C7 1_555 1_555
O3 C15 1_555 1_555
O4 C15 1_555 1_555
O6 C1 1_555 1_555
N1 C1 1_555 1_555
N2 S1 1_555 1_555
H1 N2 1_555 1_555
C1 C2 1_555 1_555
C2 H2 1_555 1_555
C3 C2 1_555 1_555
H3 C3 1_555 1_555
C4 N1 1_555 1_555
H4 C4 1_555 1_555
C5 N2 1_555 1_555
H5 C5 1_555 1_555
C6 C5 1_555 1_555
H6 C6 1_555 1_555
C7 C6 1_555 1_555
H7 C7 1_555 1_555
H8 C7 1_555 1_555
C8 S1 1_555 1_555
C9 C8 1_555 1_555
H9 C9 1_555 1_555
H10 C9 1_555 1_555
H11 C9 1_555 1_555
C10 C8 1_555 1_555
H12 C10 1_555 1_555
H13 C10 1_555 1_555
H14 C10 1_555 1_555
C11 C8 1_555 1_555
H15 C11 1_555 1_555
H16 C11 1_555 1_555
H17 C11 1_555 1_555
C12 O1 1_555 1_555
C13 C12 1_555 1_555
H18 C13 1_555 1_555
H19 C13 1_555 1_555
H20 C13 1_555 1_555
C14 C12 1_555 1_555
H21 C14 1_555 1_555
H22 C14 1_555 1_555
H23 C14 1_555 1_555
C15 N1 1_555 1_555
C16 O3 1_555 1_555
C17 C16 1_555 1_555
H24 C17 1_555 1_555
H25 C17 1_555 1_555
H26 C17 1_555 1_555
C18 C16 1_555 1_555
H27 C18 1_555 1_555
H28 C18 1_555 1_555
H29 C18 1_555 1_555
C19 C16 1_555 1_555
H30 C19 1_555 1_555
H31 C19 1_555 1_555
H32 C19 1_555 1_555
O2 C12 1_555 1_555
C3 C4 1_555 1_555
C4 C5 1_555 1_555

#END
