
#######################################################################
#
#                 Cambridge Crystallographic Data Centre
#                                CCDC 
#
#######################################################################
#
# If this CIF has been generated from an entry in the Cambridge 
# Structural Database, then it will include bibliographic, chemical, 
# crystal, experimental, refinement or atomic coordinate data resulting 
# from the CCDC's data processing and validation procedures.
#
#######################################################################

data_EKATAN
_chemical_formula_moiety         'C31 H30 Cl1 N3 O3'
_chemical_name_systematic        
(Z)-1-(3-Cyano-4-(cyanomethylene)-1-oxaspiro[4.5]dec-2-en-2-yl)cyclohexyl-5-(4-chlorophenyl)-1-vinyl-1H-pyrrole-2-carboxylate
_symmetry_cell_setting           monoclinic
_symmetry_space_group_name_H-M   'P 21/n'
_symmetry_Int_Tables_number      14
_space_group_name_Hall           '-P 2yn'
loop_
_symmetry_equiv_pos_site_id
_symmetry_equiv_pos_as_xyz
1 x,y,z
2 1/2-x,1/2+y,1/2-z
3 -x,-y,-z
4 1/2+x,1/2-y,1/2+z
_cell_length_a                   15.3519(6)
_cell_length_b                   9.7261(4)
_cell_length_c                   18.2325(8)
_cell_angle_alpha                90
_cell_angle_beta                 91.9020(10)
_cell_angle_gamma                90
_cell_volume                     2720.87
_exptl_crystal_colour            yellow
_exptl_crystal_description       prism
_cell_formula_units_Z            4
loop_
_atom_site_label
_atom_site_type_symbol
_atom_site_fract_x
_atom_site_fract_y
_atom_site_fract_z
Cl1 Cl 0.63404(5) -0.09337(6) 0.09777(4)
O1 O 0.25783(6) 0.79446(10) 0.08638(5)
O2 O 0.15367(7) 0.80616(12) -0.03751(6)
O3 O 0.19903(7) 0.58347(11) 0.07277(7)
N1 N 0.37808(8) 0.47653(13) 0.07931(7)
C1 C 0.33776(11) 0.38435(17) 0.02770(10)
H1 H 0.3347 0.2919 0.0404
N2 N -0.08399(13) 0.5826(2) -0.21490(11)
C2 C 0.58496(12) 0.06788(19) 0.10287(11)
C3 C 0.56797(12) 0.1390(2) 0.03922(11)
H2 H 0.5841 0.1032 -0.0057
C4 C 0.52653(11) 0.26474(18) 0.04272(9)
H3 H 0.5139 0.3130 -0.0004
C5 C 0.50343(10) 0.32030(17) 0.10917(9)
C6 C 0.45802(10) 0.45357(18) 0.11413(8)
C7 C 0.35153(9) 0.60893(15) 0.09594(8)
C8 C 0.26197(9) 0.65570(15) 0.08309(8)
C9 C 0.17130(9) 0.85711(15) 0.08968(8)
C10 C 0.11506(10) 0.80257(15) 0.02687(8)
C11 C 0.09214(10) 0.75681(16) -0.09587(8)
C12 C 0.13719(12) 0.63896(19) -0.13396(10)
H4 H 0.0968 0.5971 -0.1694
H5 H 0.1540 0.5696 -0.0980
C13 C 0.21809(13) 0.6882(2) -0.17312(11)
H6 H 0.2619 0.7178 -0.1369
H7 H 0.2421 0.6124 -0.2005
C14 C 0.19665(15) 0.8063(3) -0.22521(11)
H8 H 0.2496 0.8380 -0.2473
H9 H 0.1572 0.7743 -0.2642
C15 C 0.52417(13) 0.2478(2) 0.17291(10)
H10 H 0.5108 0.2851 0.2182
C16 C 0.56441(14) 0.1208(2) 0.17000(12)
H11 H 0.5774 0.0719 0.2128
C17 C 0.30508(14) 0.4213(2) -0.03585(12)
H12 H 0.3071 0.5130 -0.0501
H13 H 0.2796 0.3560 -0.0671
C18 C 0.15507(13) 0.9243(2) -0.18550(11)
H14 H 0.1397 0.9962 -0.2205
H15 H 0.1968 0.9622 -0.1498
C19 C 0.07396(11) 0.87908(19) -0.14661(10)
H16 H 0.0291 0.8541 -0.1829
H17 H 0.0523 0.9553 -0.1181
C20 C 0.01280(10) 0.71544(16) -0.05384(9)
C21 C -0.06006(11) 0.65303(18) -0.08009(10)
H18 H -0.1042 0.6346 -0.0478
C22 C -0.07289(12) 0.6138(2) -0.15493(11)
C23 C 0.03148(10) 0.75550(16) 0.02155(9)
C24 C -0.02890(11) 0.73644(19) 0.07837(10)
N3 N -0.08115(12) 0.7194(2) 0.12033(11)
C25 C 0.13450(10) 0.83249(17) 0.16526(8)
H19 H 0.1283 0.7344 0.1733
H20 H 0.0771 0.8739 0.1672
C26 C 0.19384(12) 0.89358(18) 0.22571(9)
H21 H 0.1674 0.8804 0.2728
H22 H 0.2492 0.8455 0.2269
C27 C 0.20958(14) 1.04559(19) 0.21365(10)
H23 H 0.2504 1.0794 0.2512
H24 H 0.1552 1.0952 0.2182
C28 C 0.24569(13) 1.07291(18) 0.13854(10)
H25 H 0.3038 1.0344 0.1366
H26 H 0.2501 1.1714 0.1310
C29 C 0.18820(11) 1.01054(16) 0.07720(9)
H27 H 0.2163 1.0225 0.0307
H28 H 0.1330 1.0590 0.0744
C30 C 0.41490(10) 0.66821(18) 0.14025(9)
H29 H 0.4141 0.7569 0.1593
C31 C 0.48109(11) 0.5704(2) 0.15151(9)
H30 H 0.5321 0.5830 0.1797
loop_
_geom_bond_atom_site_label_1
_geom_bond_atom_site_label_2
_geom_bond_site_symmetry_1
_geom_bond_site_symmetry_2
Cl1 C2 1_555 1_555
O1 C8 1_555 1_555
O2 C10 1_555 1_555
O3 C8 1_555 1_555
N1 C1 1_555 1_555
C1 H1 1_555 1_555
N2 C22 1_555 1_555
C2 C3 1_555 1_555
C3 H2 1_555 1_555
C4 C3 1_555 1_555
H3 C4 1_555 1_555
C5 C4 1_555 1_555
C6 N1 1_555 1_555
C7 N1 1_555 1_555
C8 C7 1_555 1_555
C9 O1 1_555 1_555
C10 C9 1_555 1_555
C11 O2 1_555 1_555
C12 C11 1_555 1_555
H4 C12 1_555 1_555
H5 C12 1_555 1_555
C13 C12 1_555 1_555
H6 C13 1_555 1_555
H7 C13 1_555 1_555
C14 C13 1_555 1_555
H8 C14 1_555 1_555
H9 C14 1_555 1_555
C15 C5 1_555 1_555
H10 C15 1_555 1_555
C16 C2 1_555 1_555
H11 C16 1_555 1_555
C17 C1 1_555 1_555
H12 C17 1_555 1_555
H13 C17 1_555 1_555
C18 C14 1_555 1_555
H14 C18 1_555 1_555
H15 C18 1_555 1_555
C19 C11 1_555 1_555
H16 C19 1_555 1_555
H17 C19 1_555 1_555
C20 C11 1_555 1_555
C21 C20 1_555 1_555
H18 C21 1_555 1_555
C22 C21 1_555 1_555
C23 C10 1_555 1_555
C24 C23 1_555 1_555
N3 C24 1_555 1_555
C25 C9 1_555 1_555
H19 C25 1_555 1_555
H20 C25 1_555 1_555
C26 C25 1_555 1_555
H21 C26 1_555 1_555
H22 C26 1_555 1_555
C27 C26 1_555 1_555
H23 C27 1_555 1_555
H24 C27 1_555 1_555
C28 C27 1_555 1_555
H25 C28 1_555 1_555
H26 C28 1_555 1_555
C29 C9 1_555 1_555
H27 C29 1_555 1_555
H28 C29 1_555 1_555
C30 C7 1_555 1_555
H29 C30 1_555 1_555
C31 C6 1_555 1_555
H30 C31 1_555 1_555
C5 C6 1_555 1_555
C15 C16 1_555 1_555
C18 C19 1_555 1_555
C20 C23 1_555 1_555
C28 C29 1_555 1_555
C30 C31 1_555 1_555

#END
