
#######################################################################
#
#                 Cambridge Crystallographic Data Centre
#                                CCDC 
#
#######################################################################
#
# If this CIF has been generated from an entry in the Cambridge 
# Structural Database, then it will include bibliographic, chemical, 
# crystal, experimental, refinement or atomic coordinate data resulting 
# from the CCDC's data processing and validation procedures.
#
#######################################################################

data_EKAYAS
_chemical_name_common            
13,14,23,24,38,39,48,49,56,57,58,59,66,67,68,69-hexadecafluoro-6,31-diphenyl-16,21,41,46-tetraoxa-55,60,61,70,71,72-hexaazatridecacyclo[34.14.4.4$11,26!.2$12,15!.2$22,25!.2$37,40!.2$47,50!.1$2,5!.1$7,10!.1$27,30!.1$32,35!.1$51,54!.1$62,65!]doheptaconta-1(51),2(71),3,5,7,9,11(65),12,14,18,22,24,26(62),27(61),28,30,32,34,36(54),37,39,43,47,49,52,56,58,63,66,68-triacontaene
_chemical_formula_moiety         'C74 H38 F16 N6 O4'
_chemical_name_systematic        
5,20-Diphenyl-bis-(10,15),(25,30)-[4,4'-(2-butenedioxeno)-bis-(2,3,5,6-tetrafluorophenyl)][28]hexaphyrin(1.1.1.1.1.1)
_symmetry_cell_setting           triclinic
_symmetry_space_group_name_H-M   'P -1'
_symmetry_Int_Tables_number      2
_space_group_name_Hall           '-P 1'
loop_
_symmetry_equiv_pos_site_id
_symmetry_equiv_pos_as_xyz
1 x,y,z
2 -x,-y,-z
_cell_length_a                   9.381(5)
_cell_length_b                   12.562(8)
_cell_length_c                   12.835(8)
_cell_angle_alpha                84.42(7)
_cell_angle_beta                 86.68(6)
_cell_angle_gamma                74.67(5)
_cell_volume                     1450.98
_exptl_crystal_colour            red
_exptl_crystal_description       Prism
_cell_formula_units_Z            1
loop_
_atom_site_label
_atom_site_type_symbol
_atom_site_fract_x
_atom_site_fract_y
_atom_site_fract_z
C1 C 0.0394(6) 0.0153(5) 0.2718(4)
C2 C 0.0094(7) 0.0695(5) 0.3639(4)
H1 H -0.0613 0.0600 0.4176
C3 C 0.1006(7) 0.1389(5) 0.3626(4)
H2 H 0.1045 0.1858 0.4155
C4 C 0.1857(6) 0.1285(4) 0.2708(4)
C5 C 0.2938(6) 0.1890(5) 0.2379(4)
C6 C 0.4172(6) 0.1573(4) 0.1750(4)
C7 C 0.4842(7) 0.0558(5) 0.1271(4)
H3 H 0.4458 -0.0074 0.1313
C8 C 0.6094(7) 0.0651(5) 0.0758(4)
H4 H 0.6747 0.0100 0.0376
C9 C 0.6277(7) 0.1745(5) 0.0888(4)
C10 C 0.7364(7) 0.2264(5) 0.0570(4)
C11 C 0.8574(6) 0.1870(5) -0.0153(4)
C12 C 0.9870(7) 0.2305(5) -0.0245(4)
H5 H 1.0091 0.2806 0.0191
C13 C 1.0690(7) 0.1865(5) -0.1057(4)
H6 H 1.1603 0.1997 -0.1316
C14 C 0.9917(7) 0.1145(4) -0.1468(4)
C15 C 1.0343(6) 0.0589(4) -0.2357(4)
N1 N 0.1494(5) 0.0515(4) 0.2168(3)
H7 H 0.1900 0.0288 0.1566
N2 N 0.5084(5) 0.2254(4) 0.1497(3)
H8 H 0.4929 0.2927 0.1698
N3 N 0.8645(5) 0.1156(4) -0.0865(3)
C16 C 0.2616(6) 0.3000(4) 0.2811(4)
C17 C 0.1341(7) 0.3796(5) 0.2557(4)
C18 C 0.0955(7) 0.4823(5) 0.2948(5)
C19 C 0.1873(7) 0.5085(5) 0.3658(4)
C20 C 0.3155(7) 0.4305(5) 0.3895(4)
C21 C 0.3528(6) 0.3294(5) 0.3472(4)
F1 F 0.0426(4) 0.3609(3) 0.1878(3)
F2 F -0.0278(4) 0.5560(3) 0.2672(3)
F3 F 0.4078(4) 0.4500(3) 0.4573(2)
F4 F 0.4791(4) 0.2572(3) 0.3768(2)
C22 C 0.7226(6) 0.3368(5) 0.0944(4)
C23 C 0.7018(6) 0.4304(5) 0.0263(4)
C24 C 0.6848(7) 0.5342(5) 0.0602(4)
C25 C 0.6831(6) 0.5502(5) 0.1649(5)
C26 C 0.7054(6) 0.4568(5) 0.2349(4)
C27 C 0.7268(6) 0.3533(5) 0.1998(4)
F5 F 0.6943(4) 0.4239(3) -0.0770(2)
F6 F 0.6662(4) 0.6225(3) -0.0107(3)
F7 F 0.7131(4) 0.4658(3) 0.3369(2)
F8 F 0.7533(4) 0.2663(3) 0.2706(2)
O1 O 0.1345(4) 0.6060(3) 0.4097(3)
C28 C 0.2342(7) 0.6776(5) 0.4140(5)
H9 H 0.1773 0.7495 0.4384
H10 H 0.3110 0.6428 0.4655
C29 C 0.3056(9) 0.6970(5) 0.3127(6)
H11 H 0.2468 0.7168 0.2525
C30 C 0.4457(8) 0.6884(6) 0.3018(5)
H12 H 0.5040 0.6574 0.3608
C31 C 0.5248(7) 0.7226(5) 0.2052(5)
H13 H 0.4698 0.7184 0.1428
H14 H 0.5288 0.8003 0.2072
O2 O 0.6731(5) 0.6520(3) 0.1970(3)
C32 C 1.1588(7) 0.0817(5) -0.3014(4)
C33 C 1.2833(7) -0.0020(5) -0.3249(4)
H15 H 1.2867 -0.0769 -0.3023
C34 C 1.4002(8) 0.0228(5) -0.3803(5)
H16 H 1.4864 -0.0345 -0.3937
C35 C 1.3939(8) 0.1302(5) -0.4168(5)
H17 H 1.4754 0.1469 -0.4561
C36 C 1.2735(8) 0.2117(5) -0.3973(5)
H18 H 1.2698 0.2858 -0.4232
C37 C 1.1550(7) 0.1887(5) -0.3398(4)
H19 H 1.0700 0.2470 -0.3266
C1A C 0.9606(6) -0.0153(5) -0.2718(4)
C2A C 0.9906(7) -0.0695(5) -0.3639(4)
H1A H 1.0613 -0.0600 -0.4176
C3A C 0.8994(7) -0.1389(5) -0.3626(4)
H2A H 0.8955 -0.1858 -0.4155
C4A C 0.8143(6) -0.1285(4) -0.2708(4)
C5A C 0.7062(6) -0.1890(5) -0.2379(4)
C6A C 0.5828(6) -0.1573(4) -0.1750(4)
C7A C 0.5158(7) -0.0558(5) -0.1271(4)
H3A H 0.5542 0.0074 -0.1313
C8A C 0.3906(7) -0.0651(5) -0.0758(4)
H4A H 0.3253 -0.0100 -0.0376
C9A C 0.3723(7) -0.1745(5) -0.0888(4)
C10A C 0.2636(7) -0.2264(5) -0.0570(4)
C11A C 0.1426(6) -0.1870(5) 0.0153(4)
C12A C 0.0130(7) -0.2305(5) 0.0245(4)
H5A H -0.0091 -0.2806 -0.0191
C13A C -0.0690(7) -0.1865(5) 0.1057(4)
H6A H -0.1603 -0.1997 0.1316
C14A C 0.0083(7) -0.1145(4) 0.1468(4)
C15A C -0.0343(6) -0.0589(4) 0.2357(4)
N1A N 0.8506(5) -0.0515(4) -0.2168(3)
H7A H 0.8100 -0.0288 -0.1566
N2A N 0.4916(5) -0.2254(4) -0.1497(3)
H8A H 0.5071 -0.2927 -0.1698
N3A N 0.1355(5) -0.1156(4) 0.0865(3)
C16A C 0.7384(6) -0.3000(4) -0.2811(4)
C17A C 0.8659(7) -0.3796(5) -0.2557(4)
C18A C 0.9045(7) -0.4823(5) -0.2948(5)
C19A C 0.8127(7) -0.5085(5) -0.3658(4)
C20A C 0.6845(7) -0.4305(5) -0.3895(4)
C21A C 0.6472(6) -0.3294(5) -0.3472(4)
F1A F 0.9574(4) -0.3609(3) -0.1878(3)
F2A F 1.0278(4) -0.5560(3) -0.2672(3)
F3A F 0.5922(4) -0.4500(3) -0.4573(2)
F4A F 0.5209(4) -0.2572(3) -0.3768(2)
C22A C 0.2774(6) -0.3368(5) -0.0944(4)
C23A C 0.2982(6) -0.4304(5) -0.0263(4)
C24A C 0.3152(7) -0.5342(5) -0.0602(4)
C25A C 0.3169(6) -0.5502(5) -0.1649(5)
C26A C 0.2946(6) -0.4568(5) -0.2349(4)
C27A C 0.2732(6) -0.3533(5) -0.1998(4)
F5A F 0.3057(4) -0.4239(3) 0.0770(2)
F6A F 0.3338(4) -0.6225(3) 0.0107(3)
F7A F 0.2869(4) -0.4658(3) -0.3369(2)
F8A F 0.2467(4) -0.2663(3) -0.2706(2)
O1A O 0.8655(4) -0.6060(3) -0.4097(3)
C28A C 0.7658(7) -0.6776(5) -0.4140(5)
H9A H 0.8227 -0.7495 -0.4384
H10A H 0.6890 -0.6428 -0.4655
C29A C 0.6944(9) -0.6970(5) -0.3127(6)
H11A H 0.7532 -0.7168 -0.2525
C30A C 0.5543(8) -0.6884(6) -0.3018(5)
H12A H 0.4960 -0.6574 -0.3608
C31A C 0.4752(7) -0.7226(5) -0.2052(5)
H13A H 0.5302 -0.7184 -0.1428
H14A H 0.4712 -0.8003 -0.2072
O2A O 0.3269(5) -0.6520(3) -0.1970(3)
C32A C -0.1588(7) -0.0817(5) 0.3014(4)
C33A C -0.2833(7) 0.0020(5) 0.3249(4)
H15A H -0.2867 0.0769 0.3023
C34A C -0.4002(8) -0.0228(5) 0.3803(5)
H16A H -0.4864 0.0345 0.3937
C35A C -0.3939(8) -0.1302(5) 0.4168(5)
H17A H -0.4754 -0.1469 0.4561
C36A C -0.2735(8) -0.2117(5) 0.3973(5)
H18A H -0.2698 -0.2858 0.4232
C37A C -0.1550(7) -0.1887(5) 0.3398(4)
H19A H -0.0700 -0.2470 0.3266
loop_
_geom_bond_atom_site_label_1
_geom_bond_atom_site_label_2
_geom_bond_site_symmetry_1
_geom_bond_site_symmetry_2
C1 C2 1_555 1_555
C2 H1 1_555 1_555
C3 C2 1_555 1_555
H2 C3 1_555 1_555
C4 C3 1_555 1_555
C5 C4 1_555 1_555
C6 C5 1_555 1_555
C7 C6 1_555 1_555
H3 C7 1_555 1_555
C8 C7 1_555 1_555
H4 C8 1_555 1_555
C9 C8 1_555 1_555
C10 C9 1_555 1_555
C11 C10 1_555 1_555
C12 C11 1_555 1_555
H5 C12 1_555 1_555
C13 C12 1_555 1_555
H6 C13 1_555 1_555
C14 C13 1_555 1_555
C15 C14 1_555 1_555
N1 C1 1_555 1_555
H7 N1 1_555 1_555
N2 C6 1_555 1_555
H8 N2 1_555 1_555
N3 C11 1_555 1_555
C16 C5 1_555 1_555
C17 C16 1_555 1_555
C18 C17 1_555 1_555
C19 C18 1_555 1_555
C20 C19 1_555 1_555
C21 C16 1_555 1_555
F1 C17 1_555 1_555
F2 C18 1_555 1_555
F3 C20 1_555 1_555
F4 C21 1_555 1_555
C22 C10 1_555 1_555
C23 C22 1_555 1_555
C24 C23 1_555 1_555
C25 C24 1_555 1_555
C26 C25 1_555 1_555
C27 C22 1_555 1_555
F5 C23 1_555 1_555
F6 C24 1_555 1_555
F7 C26 1_555 1_555
F8 C27 1_555 1_555
O1 C19 1_555 1_555
C28 O1 1_555 1_555
H9 C28 1_555 1_555
H10 C28 1_555 1_555
C29 C28 1_555 1_555
H11 C29 1_555 1_555
C30 C29 1_555 1_555
H12 C30 1_555 1_555
C31 C30 1_555 1_555
H13 C31 1_555 1_555
H14 C31 1_555 1_555
O2 C25 1_555 1_555
C32 C15 1_555 1_555
C33 C32 1_555 1_555
H15 C33 1_555 1_555
C34 C33 1_555 1_555
H16 C34 1_555 1_555
C35 C34 1_555 1_555
H17 C35 1_555 1_555
C36 C35 1_555 1_555
H18 C36 1_555 1_555
C37 C32 1_555 1_555
H19 C37 1_555 1_555
C1A C15 1_555 1_555
C2A C1A 1_555 1_555
H1A C2A 1_555 1_555
C3A C2A 1_555 1_555
H2A C3A 1_555 1_555
C4A C3A 1_555 1_555
C5A C4A 1_555 1_555
C6A C5A 1_555 1_555
C7A C6A 1_555 1_555
H3A C7A 1_555 1_555
C8A C7A 1_555 1_555
H4A C8A 1_555 1_555
C9A C8A 1_555 1_555
C10A C9A 1_555 1_555
C11A C10A 1_555 1_555
C12A C11A 1_555 1_555
H5A C12A 1_555 1_555
C13A C12A 1_555 1_555
H6A C13A 1_555 1_555
C14A C13A 1_555 1_555
C15A C1 1_555 1_555
N1A C1A 1_555 1_555
H7A N1A 1_555 1_555
N2A C6A 1_555 1_555
H8A N2A 1_555 1_555
N3A C11A 1_555 1_555
C16A C5A 1_555 1_555
C17A C16A 1_555 1_555
C18A C17A 1_555 1_555
C19A C18A 1_555 1_555
C20A C19A 1_555 1_555
C21A C16A 1_555 1_555
F1A C17A 1_555 1_555
F2A C18A 1_555 1_555
F3A C20A 1_555 1_555
F4A C21A 1_555 1_555
C22A C10A 1_555 1_555
C23A C22A 1_555 1_555
C24A C23A 1_555 1_555
C25A C24A 1_555 1_555
C26A C25A 1_555 1_555
C27A C22A 1_555 1_555
F5A C23A 1_555 1_555
F6A C24A 1_555 1_555
F7A C26A 1_555 1_555
F8A C27A 1_555 1_555
O1A C19A 1_555 1_555
C28A O1A 1_555 1_555
H9A C28A 1_555 1_555
H10A C28A 1_555 1_555
C29A C28A 1_555 1_555
H11A C29A 1_555 1_555
C30A C29A 1_555 1_555
H12A C30A 1_555 1_555
C31A C30A 1_555 1_555
H13A C31A 1_555 1_555
H14A C31A 1_555 1_555
O2A C25A 1_555 1_555
C32A C15A 1_555 1_555
C33A C32A 1_555 1_555
H15A C33A 1_555 1_555
C34A C33A 1_555 1_555
H16A C34A 1_555 1_555
C35A C34A 1_555 1_555
H17A C35A 1_555 1_555
C36A C35A 1_555 1_555
H18A C36A 1_555 1_555
C37A C32A 1_555 1_555
H19A C37A 1_555 1_555
C4 N1 1_555 1_555
C9 N2 1_555 1_555
C14 N3 1_555 1_555
C20 C21 1_555 1_555
C26 C27 1_555 1_555
C31 O2 1_555 1_555
C36 C37 1_555 1_555
C4A N1A 1_555 1_555
C9A N2A 1_555 1_555
C14A C15A 1_555 1_555
C14A N3A 1_555 1_555
C20A C21A 1_555 1_555
C26A C27A 1_555 1_555
C31A O2A 1_555 1_555
C36A C37A 1_555 1_555

#END
