
#######################################################################
#
#                 Cambridge Crystallographic Data Centre
#                                CCDC 
#
#######################################################################
#
# If this CIF has been generated from an entry in the Cambridge 
# Structural Database, then it will include bibliographic, chemical, 
# crystal, experimental, refinement or atomic coordinate data resulting 
# from the CCDC's data processing and validation procedures.
#
#######################################################################

data_EKEPEP02
_chemical_formula_moiety         'C5 H7 N2 1+,C4 H3 O4 1-'
_chemical_name_systematic        '4-aminopyridinium hydrogen maleate'
_symmetry_cell_setting           monoclinic
_symmetry_space_group_name_H-M   'P 21'
_symmetry_Int_Tables_number      4
_space_group_name_Hall           'P 2yb'
loop_
_symmetry_equiv_pos_site_id
_symmetry_equiv_pos_as_xyz
1 x,y,z
2 -x,1/2+y,-z
_cell_length_a                   7.8515(16)
_cell_length_b                   5.5447(11)
_cell_length_c                   10.921(2)
_cell_angle_alpha                90
_cell_angle_beta                 96.39(3)
_cell_angle_gamma                90
_cell_volume                     472.483
_exptl_crystal_colour            colorless
_exptl_crystal_description       block
_cell_formula_units_Z            2
loop_
_atom_site_label
_atom_site_type_symbol
_atom_site_fract_x
_atom_site_fract_y
_atom_site_fract_z
C1 C 0.18792(14) 1.7780(3) 0.33154(10)
H1 H 0.2535(4) 1.5663(7) 0.1914(3)
O1 O 0.17835(18) 1.7450(3) 0.21431(13)
C2 C 0.28116(16) 1.5996(3) 0.41836(11)
H2 H 0.2766(5) 1.6460(8) 0.5151(3)
O2 O 0.33380(19) 1.3810(3) 0.17333(12)
C3 C 0.36879(16) 1.3981(3) 0.39573(11)
H3 H 0.4263(4) 1.2957(8) 0.4752(3)
O3 O 0.12041(18) 1.9525(3) 0.37923(12)
C4 C 0.40419(14) 1.2877(3) 0.27561(10)
O4 O 0.50087(19) 1.1109(3) 0.27976(14)
N1 N 0.61464(12) 0.8266(3) 0.08403(8)
N2 N 0.92022(11) 0.2839(3) 0.24550(8)
H4 H 0.5638(4) 0.9489(7) 0.1398(3)
C5 C 0.71447(15) 0.6504(3) 0.13600(10)
H5 H 0.6033(5) 0.8481(7) -0.0097(3)
C6 C 0.75036(15) 0.6336(3) 0.26620(11)
H6 H 0.6985(4) 0.7670(8) 0.3253(3)
C7 C 0.85316(15) 0.4515(3) 0.31702(11)
H7 H 0.8860(4) 0.4338(8) 0.4168(3)
C8 C 0.88846(15) 0.2944(3) 0.12122(11)
C9 C 0.78827(16) 0.4724(3) 0.06360(11)
H8 H 0.9467(4) 0.1547(8) 0.0700(3)
H9 H 0.7640(4) 0.4768(8) -0.0372(3)
H10 H 0.9988(4) 0.1464(7) 0.2885(3)
loop_
_geom_bond_atom_site_label_1
_geom_bond_atom_site_label_2
_geom_bond_site_symmetry_1
_geom_bond_site_symmetry_2
C1 O1 1_555 1_555
H1 O1 1_555 1_555
C2 C1 1_555 1_555
H2 C2 1_555 1_555
O2 H1 1_555 1_555
C3 C2 1_555 1_555
H3 C3 1_555 1_555
O3 C1 1_555 1_555
C4 O2 1_555 1_555
O4 C4 1_555 1_555
N1 H4 1_555 1_555
N2 C7 1_555 1_555
C5 N1 1_555 1_555
H5 N1 1_555 1_555
C6 C5 1_555 1_555
H6 C6 1_555 1_555
C7 C6 1_555 1_555
H7 C7 1_555 1_555
C8 N2 1_555 1_555
C9 C5 1_555 1_555
H8 C8 1_555 1_555
H9 C9 1_555 1_555
H10 N2 1_555 1_555
C3 C4 1_555 1_555
C8 C9 1_555 1_555

#END
