
#######################################################################
#
#                 Cambridge Crystallographic Data Centre
#                                CCDC 
#
#######################################################################
#
# If this CIF has been generated from an entry in the Cambridge 
# Structural Database, then it will include bibliographic, chemical, 
# crystal, experimental, refinement or atomic coordinate data resulting 
# from the CCDC's data processing and validation procedures.
#
#######################################################################

data_EKERIV
_chemical_formula_moiety         'C24 H20 Cl1 N6 Na1 O4'
_chemical_name_systematic        
(1,2-bis((3-(Pyrid-2-yl)pyrazol-1-yl)methyl)benzene)-(perchlorato-O)-sodium
_symmetry_cell_setting           triclinic
_symmetry_space_group_name_H-M   'P -1'
_symmetry_Int_Tables_number      2
_space_group_name_Hall           '-P 1'
loop_
_symmetry_equiv_pos_site_id
_symmetry_equiv_pos_as_xyz
1 x,y,z
2 -x,-y,-z
_cell_length_a                   9.353(4)
_cell_length_b                   10.558(3)
_cell_length_c                   12.794(4)
_cell_angle_alpha                100.26(3)
_cell_angle_beta                 107.64(3)
_cell_angle_gamma                97.33(3)
_cell_volume                     1162.32
_exptl_crystal_colour            colorless
_exptl_crystal_description       block
_cell_formula_units_Z            2
_exptl_crystal_recrystallization_method 'acetonitrile/diethyl ether'
loop_
_atom_site_label
_atom_site_type_symbol
_atom_site_fract_x
_atom_site_fract_y
_atom_site_fract_z
Na1 Na 0.32557(8) 0.56586(7) 0.25921(6)
N1 N 0.56446(18) 0.57971(15) 0.41378(13)
N2 N 0.44361(17) 0.37220(14) 0.22393(12)
N3 N 0.42073(18) 0.26114(14) 0.14498(12)
N4 N 0.04076(17) 0.50705(14) 0.17403(12)
N5 N -0.06916(18) 0.42002(15) 0.08818(12)
N6 N 0.19760(18) 0.73085(15) 0.34344(13)
C1 C 0.6455(2) 0.48469(18) 0.40149(15)
C2 C 0.7866(2) 0.48643(19) 0.48090(16)
H1 H 0.8405 0.4199 0.4700
C3 C 0.8453(2) 0.5879(2) 0.57576(16)
H2 H 0.9393 0.5909 0.6294
C4 C 0.7628(2) 0.6844(2) 0.58981(17)
H3 H 0.7992 0.7536 0.6532
C5 C 0.6244(2) 0.6760(2) 0.50730(17)
H4 H 0.5690 0.7416 0.5173
C6 C 0.5797(2) 0.37638(17) 0.30077(15)
C7 C 0.6413(2) 0.26702(19) 0.27037(16)
H5 H 0.7340 0.2474 0.3096
C8 C 0.5367(2) 0.19541(19) 0.17109(16)
H6 H 0.5438 0.1163 0.1293
C9 C 0.2745(2) 0.21545(19) 0.05395(15)
H7 H 0.2851 0.1479 -0.0040
H8 H 0.2451 0.2878 0.0205
C10 C 0.1507(2) 0.16067(17) 0.09671(14)
C11 C 0.1761(2) 0.05817(18) 0.15151(16)
H9 H 0.2655 0.0255 0.1584
C12 C 0.0714(2) 0.00425(18) 0.19565(16)
H10 H 0.0905 -0.0637 0.2320
C13 C -0.0622(2) 0.05199(19) 0.18539(16)
H11 H -0.1326 0.0172 0.2158
C14 C -0.0902(2) 0.15163(19) 0.12970(15)
H12 H -0.1808 0.1825 0.1219
C15 C 0.0149(2) 0.20715(17) 0.08469(14)
C16 C -0.0358(2) 0.58522(17) 0.22193(15)
C17 C -0.1939(2) 0.54747(18) 0.16638(16)
H13 H -0.2707 0.5859 0.1833
C18 C -0.2105(2) 0.44140(19) 0.08155(17)
H14 H -0.3023 0.3930 0.0291
C19 C -0.0292(2) 0.31220(18) 0.02081(15)
H15 H 0.0556 0.3465 -0.0015
H16 H -0.1156 0.2732 -0.0472
C20 C 0.0464(2) 0.69352(17) 0.32094(15)
C21 C -0.0303(2) 0.75124(19) 0.38820(16)
H17 H -0.1348 0.7230 0.3707
C22 C 0.0503(3) 0.85098(19) 0.48129(17)
H18 H 0.0013 0.8894 0.5284
C23 C 0.2044(3) 0.89283(19) 0.50341(17)
H19 H 0.2613 0.9610 0.5647
C24 C 0.2718(2) 0.83059(19) 0.43202(17)
H20 H 0.3755 0.8599 0.4465
Cl1 Cl 0.51614(5) 0.82266(4) 0.19139(4)
O1 O 0.45964(19) 0.68368(14) 0.16868(13)
O2 O 0.4673(2) 0.89235(19) 0.27574(14)
O3 O 0.67729(19) 0.84483(18) 0.22873(18)
O4 O 0.4618(2) 0.86635(15) 0.08985(13)
loop_
_geom_bond_atom_site_label_1
_geom_bond_atom_site_label_2
_geom_bond_site_symmetry_1
_geom_bond_site_symmetry_2
Na1 N1 1_555 1_555
N1 C1 1_555 1_555
N2 Na1 1_555 1_555
N3 N2 1_555 1_555
N4 Na1 1_555 1_555
N5 N4 1_555 1_555
N6 Na1 1_555 1_555
C1 C2 1_555 1_555
C2 H1 1_555 1_555
C3 C2 1_555 1_555
H2 C3 1_555 1_555
C4 C3 1_555 1_555
H3 C4 1_555 1_555
C5 N1 1_555 1_555
H4 C5 1_555 1_555
C6 N2 1_555 1_555
C7 C6 1_555 1_555
H5 C7 1_555 1_555
C8 N3 1_555 1_555
H6 C8 1_555 1_555
C9 N3 1_555 1_555
H7 C9 1_555 1_555
H8 C9 1_555 1_555
C10 C9 1_555 1_555
C11 C10 1_555 1_555
H9 C11 1_555 1_555
C12 C11 1_555 1_555
H10 C12 1_555 1_555
C13 C12 1_555 1_555
H11 C13 1_555 1_555
C14 C13 1_555 1_555
H12 C14 1_555 1_555
C15 C10 1_555 1_555
C16 N4 1_555 1_555
C17 C16 1_555 1_555
H13 C17 1_555 1_555
C18 N5 1_555 1_555
H14 C18 1_555 1_555
C19 N5 1_555 1_555
H15 C19 1_555 1_555
H16 C19 1_555 1_555
C20 N6 1_555 1_555
C21 C20 1_555 1_555
H17 C21 1_555 1_555
C22 C21 1_555 1_555
H18 C22 1_555 1_555
C23 C22 1_555 1_555
H19 C23 1_555 1_555
C24 N6 1_555 1_555
H20 C24 1_555 1_555
Cl1 O1 1_555 1_555
O1 Na1 1_555 1_555
O2 Cl1 1_555 1_555
O3 Cl1 1_555 1_555
O4 Cl1 1_555 1_555
C1 C6 1_555 1_555
C4 C5 1_555 1_555
C7 C8 1_555 1_555
C14 C15 1_555 1_555
C15 C19 1_555 1_555
C16 C20 1_555 1_555
C17 C18 1_555 1_555
C23 C24 1_555 1_555

#END
