
#######################################################################
#
#                 Cambridge Crystallographic Data Centre
#                                CCDC 
#
#######################################################################
#
# If this CIF has been generated from an entry in the Cambridge 
# Structural Database, then it will include bibliographic, chemical, 
# crystal, experimental, refinement or atomic coordinate data resulting 
# from the CCDC's data processing and validation procedures.
#
#######################################################################

data_EKEVUL
_chemical_compound_source        
'organic extract of liquid culture of Paecilomyces sp'
_chemical_name_common            'Anhydrofulvic acid'
_chemical_formula_moiety         'C14 H10 O7'
_chemical_name_systematic        
'7,8-Dihydroxy-3-methyl-10-oxo-1H,10H-pyrano(4,3-b)chromene-9-carboxylic acid'
_symmetry_cell_setting           monoclinic
_symmetry_space_group_name_H-M   'P 21/c'
_symmetry_Int_Tables_number      14
_space_group_name_Hall           '-P 2ybc'
loop_
_symmetry_equiv_pos_site_id
_symmetry_equiv_pos_as_xyz
1 x,y,z
2 x,1/2-y,1/2+z
3 -x,-y,-z
4 -x,1/2+y,1/2-z
_cell_length_a                   7.814(5)
_cell_length_b                   10.085(5)
_cell_length_c                   15.124(5)
_cell_angle_alpha                90
_cell_angle_beta                 90.178(5)
_cell_angle_gamma                90
_cell_volume                     1191.83
_exptl_crystal_colour            green
_exptl_crystal_description       chunk
_chemical_melting_point          '516-518 K'
_cell_formula_units_Z            4
_exptl_crystal_recrystallization_method 'ethyl acetate'
loop_
_atom_site_label
_atom_site_type_symbol
_atom_site_fract_x
_atom_site_fract_y
_atom_site_fract_z
O1 O 0.78838(13) 0.14646(9) 0.63238(5)
C1 C 0.84098(14) 0.06547(12) 0.39489(7)
O2 O 0.48841(13) -0.14163(10) 0.73806(6)
C2 C 0.92692(15) 0.18227(13) 0.37272(7)
O3 O 0.64067(14) -0.16488(10) 0.47837(6)
C3 C 0.96229(16) 0.28357(12) 0.43593(8)
O4 O 0.87828(14) -0.00461(10) 0.24704(6)
C4 C 0.91286(17) 0.26637(13) 0.52140(8)
O5 O 0.73718(16) -0.14121(11) 0.33084(7)
C5 C 0.82745(16) 0.15028(12) 0.54437(7)
O6 O 0.98542(13) 0.21222(10) 0.29248(6)
C6 C 0.78576(14) 0.04765(12) 0.48533(7)
O7 O 1.04580(15) 0.39362(10) 0.41172(6)
C7 C 0.69266(15) -0.06445(12) 0.52273(8)
C8 C 0.65930(15) -0.06322(12) 0.61391(7)
C9 C 0.70915(16) 0.03979(13) 0.66582(8)
C10 C 0.67352(18) 0.04178(14) 0.75777(8)
C11 C 0.56121(17) -0.04719(13) 0.78941(8)
C12 C 0.57850(18) -0.17989(13) 0.65946(8)
C13 C 0.4922(2) -0.04747(16) 0.88069(9)
C14 C 0.81714(17) -0.03259(14) 0.32080(8)
H1 H 0.9357 0.3310 0.5637
H2 H 0.687(3) -0.156(2) 0.4038(8)
H3 H 0.952(2) 0.138(2) 0.2601(12)
H4 H 1.066(3) 0.393(2) 0.3574(15)
H5 H 0.7263 0.1028 0.7950
H6 H 0.4994 -0.2229 0.6191
H7 H 0.6668 -0.2435 0.6749
H8 H 0.5534 0.0161 0.9159
H9 H 0.5055 -0.1342 0.9060
H10 H 0.3730 -0.0245 0.8792
loop_
_geom_bond_atom_site_label_1
_geom_bond_atom_site_label_2
_geom_bond_site_symmetry_1
_geom_bond_site_symmetry_2
O1 C5 1_555 1_555
C1 C2 1_555 1_555
O2 C11 1_555 1_555
C2 C3 1_555 1_555
O3 C7 1_555 1_555
C3 C4 1_555 1_555
O4 C14 1_555 1_555
C4 C5 1_555 1_555
O5 C14 1_555 1_555
C5 C6 1_555 1_555
O6 C2 1_555 1_555
C6 C1 1_555 1_555
O7 C3 1_555 1_555
C7 C6 1_555 1_555
C8 C7 1_555 1_555
C9 O1 1_555 1_555
C10 C9 1_555 1_555
C11 C10 1_555 1_555
C12 O2 1_555 1_555
C13 C11 1_555 1_555
C14 C1 1_555 1_555
H1 C4 1_555 1_555
H2 O5 1_555 1_555
H3 O6 1_555 1_555
H4 O7 1_555 1_555
H5 C10 1_555 1_555
H6 C12 1_555 1_555
H7 C12 1_555 1_555
H8 C13 1_555 1_555
H9 C13 1_555 1_555
H10 C13 1_555 1_555
C8 C9 1_555 1_555
C8 C12 1_555 1_555

#END
