
#######################################################################
#
#                 Cambridge Crystallographic Data Centre
#                                CCDC 
#
#######################################################################
#
# If this CIF has been generated from an entry in the Cambridge 
# Structural Database, then it will include bibliographic, chemical, 
# crystal, experimental, refinement or atomic coordinate data resulting 
# from the CCDC's data processing and validation procedures.
#
#######################################################################

data_EKEWOG
_chemical_formula_moiety         'C38 H34 N2 O6 P2,C18 H14 O8,C1 H1 Cl3'
_chemical_name_systematic        
"(S)-2,2',6,6'-Tetramethoxy-4,4'-bis(diphenylphosphine oxide)-3,3'-bipyridine (2S,3S)-(+)-dibenzoyl-L-tartaric acid chloroform solvate"
_symmetry_cell_setting           orthorhombic
_symmetry_space_group_name_H-M   'P 21 21 21'
_symmetry_Int_Tables_number      19
_space_group_name_Hall           'P 2ac 2ab'
loop_
_symmetry_equiv_pos_site_id
_symmetry_equiv_pos_as_xyz
1 x,y,z
2 1/2-x,-y,1/2+z
3 -x,1/2+y,1/2-z
4 1/2+x,1/2-y,-z
_cell_length_a                   10.0967(10)
_cell_length_b                   21.000(2)
_cell_length_c                   27.390(3)
_cell_angle_alpha                90
_cell_angle_beta                 90
_cell_angle_gamma                90
_cell_volume                     5807.52
_exptl_crystal_colour            colorless
_exptl_crystal_description       block
_cell_formula_units_Z            4
_exptl_crystal_recrystallization_method 'chloroform/ethyl acetate'
loop_
_atom_site_label
_atom_site_type_symbol
_atom_site_fract_x
_atom_site_fract_y
_atom_site_fract_z
O1 O 0.3805(3) 0.55217(10) 0.63658(9)
O2 O 0.44452(16) 0.45185(8) 0.62542(6)
O3 O 0.5037(2) 0.45131(14) 0.72252(7)
O4 O 0.7157(2) 0.47059(10) 0.70609(6)
H1 H 0.7372 0.4630 0.7344
O5 O 0.5867(2) 0.37045(10) 0.53949(7)
O6 O 0.66929(19) 0.46893(8) 0.54002(6)
H2 H 0.6555 0.4676 0.5105
O7 O 0.63254(17) 0.35689(8) 0.63706(6)
O8 O 0.8171(2) 0.31478(11) 0.60587(9)
C1 C 0.1271(3) 0.5199(2) 0.59568(12)
H3 H 0.1373 0.5615 0.6066
C2 C 0.0109(4) 0.5016(2) 0.57382(15)
H4 H -0.0589 0.5302 0.5711
C3 C -0.0014(4) 0.4423(2) 0.55642(15)
H5 H -0.0791 0.4306 0.5405
C4 C 0.0970(3) 0.3989(2) 0.56163(16)
H6 H 0.0862 0.3576 0.5499
C5 C 0.2126(3) 0.41609(18) 0.58426(13)
H7 H 0.2803 0.3865 0.5879
C6 C 0.2287(3) 0.47658(15) 0.60142(9)
C7 C 0.3561(3) 0.49931(15) 0.62368(9)
C8 C 0.5770(2) 0.46591(12) 0.63959(8)
H8 H 0.6013 0.5087 0.6284
C9 C 0.5932(3) 0.46152(13) 0.69510(9)
C10 C 0.6628(2) 0.41686(12) 0.61447(8)
H9 H 0.7564 0.4271 0.6198
C11 C 0.6347(3) 0.41456(14) 0.55988(9)
C12 C 0.7197(3) 0.30898(14) 0.63152(10)
C13 C 0.6840(3) 0.25199(13) 0.65916(10)
C14 C 0.5778(3) 0.25204(14) 0.69159(10)
H10 H 0.5277 0.2888 0.6960
C15 C 0.5469(4) 0.19720(16) 0.71729(12)
H11 H 0.4764 0.1974 0.7392
C16 C 0.6186(5) 0.14293(17) 0.71083(13)
H12 H 0.5973 0.1066 0.7286
C17 C 0.7192(4) 0.14131(17) 0.67929(16)
H13 H 0.7653 0.1035 0.6743
C18 C 0.7555(4) 0.19620(15) 0.65381(13)
H14 H 0.8284 0.1953 0.6331
P1 P 0.25641(7) 1.05372(3) 0.59321(2)
P2 P 0.11799(6) 0.88060(3) 0.68866(2)
O9 O 0.17698(17) 1.02580(8) 0.55299(5)
O10 O 0.2136(3) 1.14949(12) 0.76243(8)
O11 O -0.10346(19) 1.00073(10) 0.72040(6)
O12 O -0.10600(18) 1.05418(9) 0.58546(6)
O13 O -0.1001(3) 0.85143(11) 0.52157(7)
O14 O 0.20482(17) 0.92923(8) 0.71128(6)
N1 N 0.0509(2) 1.07623(11) 0.74167(7)
N2 N -0.1035(2) 0.95351(10) 0.55315(7)
C19 C 0.3154(3) 1.13159(13) 0.57680(10)
C20 C 0.2224(5) 1.17436(15) 0.55988(19)
H15 H 0.1332 1.1633 0.5602
C21 C 0.2599(5) 1.23308(19) 0.5425(2)
H16 H 0.1971 1.2614 0.5305
C22 C 0.3908(5) 1.24914(19) 0.54317(18)
H17 H 0.4160 1.2893 0.5323
C23 C 0.4852(5) 1.20848(18) 0.55920(13)
H18 H 0.5741 1.2201 0.5590
C24 C 0.4462(3) 1.14937(16) 0.57590(11)
H19 H 0.5101 1.1209 0.5868
C25 C 0.3986(3) 1.00518(13) 0.60725(8)
C26 C 0.4589(3) 1.00151(15) 0.65229(10)
H20 H 0.4244 1.0244 0.6784
C27 C 0.5698(3) 0.96424(17) 0.65900(11)
H21 H 0.6099 0.9623 0.6895
C28 C 0.6208(3) 0.93032(19) 0.62107(11)
H22 H 0.6971 0.9062 0.6256
C29 C 0.5601(3) 0.9314(2) 0.57577(12)
H23 H 0.5933 0.9070 0.5502
C30 C 0.4502(3) 0.96897(18) 0.56901(10)
H24 H 0.4096 0.9703 0.5385
C31 C 0.1649(3) 1.06377(11) 0.65001(8)
C32 C 0.2153(3) 1.10768(13) 0.68393(10)
H25 H 0.2856 1.1344 0.6760
C33 C 0.1569(3) 1.10955(14) 0.72920(10)
C34 C 0.1654(5) 1.1453(2) 0.81149(12)
H26 H 0.0722 1.1543 0.8119
H27 H 0.2111 1.1757 0.8316
H28 H 0.1805 1.1032 0.8239
C35 C 0.0035(3) 1.03613(12) 0.70902(8)
C36 C -0.1524(4) 1.00470(19) 0.76961(11)
H29 H -0.0864 0.9889 0.7918
H30 H -0.2314 0.9796 0.7726
H31 H -0.1722 1.0483 0.7773
C37 C 0.0575(2) 1.02631(11) 0.66235(8)
C38 C 0.0055(2) 0.97544(11) 0.62965(7)
C39 C -0.0690(2) 0.99299(12) 0.58846(8)
C40 C -0.1728(3) 1.07385(16) 0.54199(11)
H32 H -0.1154 1.0680 0.5144
H33 H -0.1965 1.1180 0.5447
H34 H -0.2514 1.0488 0.5377
C41 C -0.0705(3) 0.89319(14) 0.55802(8)
C42 C -0.1514(5) 0.8782(2) 0.47710(11)
H35 H -0.2373 0.8961 0.4831
H36 H -0.1584 0.8454 0.4528
H37 H -0.0926 0.9109 0.4657
C43 C -0.0046(3) 0.86866(12) 0.59801(8)
H38 H 0.0132 0.8253 0.6006
C44 C 0.0342(2) 0.91122(11) 0.63451(7)
C45 C 0.2119(3) 0.81221(11) 0.67053(9)
C46 C 0.3406(4) 0.82231(17) 0.65534(19)
H39 H 0.3745 0.8635 0.6544
C47 C 0.4184(5) 0.77211(19) 0.6417(2)
H40 H 0.5011 0.7803 0.6282
C48 C 0.3795(4) 0.71099(18) 0.64712(14)
H41 H 0.4366 0.6775 0.6400
C49 C 0.2550(4) 0.69997(17) 0.66314(17)
H42 H 0.2243 0.6584 0.6661
C50 C 0.1735(4) 0.75024(14) 0.67517(16)
H43 H 0.0890 0.7416 0.6869
C51 C -0.0102(3) 0.85161(13) 0.72909(8)
C52 C -0.1397(3) 0.84408(18) 0.71651(11)
H44 H -0.1662 0.8532 0.6848
C53 C -0.2315(4) 0.8234(2) 0.74950(13)
H45 H -0.3201 0.8204 0.7404
C54 C -0.1945(4) 0.8073(2) 0.79530(13)
H46 H -0.2558 0.7909 0.8173
C55 C -0.0681(4) 0.8153(3) 0.80842(14)
H47 H -0.0424 0.8058 0.8402
C56 C 0.0242(4) 0.8372(2) 0.77582(10)
H48 H 0.1116 0.8424 0.7858
C57 C -0.6853(6) 0.7958(3) 0.4693(2)
H49 H -0.6627 0.7622 0.4926
Cl1 Cl -0.5416(3) 0.81617(11) 0.44082(11)
Cl2 Cl -0.7971(4) 0.76482(17) 0.43153(12)
Cl3 Cl -0.7441(6) 0.8565(3) 0.5022(2)
Cl4? Cl -0.8010(5) 0.8625(4) 0.4446(2)
Cl5? Cl -0.7003(7) 0.8022(2) 0.52905(13)
loop_
_geom_bond_atom_site_label_1
_geom_bond_atom_site_label_2
_geom_bond_site_symmetry_1
_geom_bond_site_symmetry_2
O1 C7 1_555 1_555
O2 C7 1_555 1_555
O3 C9 1_555 1_555
O4 H1 1_555 1_555
O5 C11 1_555 1_555
O6 H2 1_555 1_555
O7 C10 1_555 1_555
O8 C12 1_555 1_555
C1 H3 1_555 1_555
C2 C1 1_555 1_555
H4 C2 1_555 1_555
C3 C2 1_555 1_555
H5 C3 1_555 1_555
C4 C3 1_555 1_555
H6 C4 1_555 1_555
C5 C4 1_555 1_555
H7 C5 1_555 1_555
C6 C1 1_555 1_555
C7 C6 1_555 1_555
C8 O2 1_555 1_555
H8 C8 1_555 1_555
C9 O4 1_555 1_555
C10 C8 1_555 1_555
H9 C10 1_555 1_555
C11 O6 1_555 1_555
C12 O7 1_555 1_555
C13 C12 1_555 1_555
C14 C13 1_555 1_555
H10 C14 1_555 1_555
C15 C14 1_555 1_555
H11 C15 1_555 1_555
C16 C15 1_555 1_555
H12 C16 1_555 1_555
C17 C16 1_555 1_555
H13 C17 1_555 1_555
C18 C13 1_555 1_555
H14 C18 1_555 1_555
P1 O9 1_555 1_555
P2 O14 1_555 1_555
O10 C33 1_555 1_555
O11 C35 1_555 1_555
O12 C39 1_555 1_555
O13 C41 1_555 1_555
N1 C33 1_555 1_555
N2 C39 1_555 1_555
C19 P1 1_555 1_555
C20 C19 1_555 1_555
H15 C20 1_555 1_555
C21 C20 1_555 1_555
H16 C21 1_555 1_555
C22 C21 1_555 1_555
H17 C22 1_555 1_555
C23 C22 1_555 1_555
H18 C23 1_555 1_555
C24 C19 1_555 1_555
H19 C24 1_555 1_555
C25 P1 1_555 1_555
C26 C25 1_555 1_555
H20 C26 1_555 1_555
C27 C26 1_555 1_555
H21 C27 1_555 1_555
C28 C27 1_555 1_555
H22 C28 1_555 1_555
C29 C28 1_555 1_555
H23 C29 1_555 1_555
C30 C25 1_555 1_555
H24 C30 1_555 1_555
C31 P1 1_555 1_555
C32 C31 1_555 1_555
H25 C32 1_555 1_555
C33 C32 1_555 1_555
C34 O10 1_555 1_555
H26 C34 1_555 1_555
H27 C34 1_555 1_555
H28 C34 1_555 1_555
C35 N1 1_555 1_555
C36 O11 1_555 1_555
H29 C36 1_555 1_555
H30 C36 1_555 1_555
H31 C36 1_555 1_555
C37 C31 1_555 1_555
C38 C37 1_555 1_555
C39 C38 1_555 1_555
C40 O12 1_555 1_555
H32 C40 1_555 1_555
H33 C40 1_555 1_555
H34 C40 1_555 1_555
C41 N2 1_555 1_555
C42 O13 1_555 1_555
H35 C42 1_555 1_555
H36 C42 1_555 1_555
H37 C42 1_555 1_555
C43 C41 1_555 1_555
H38 C43 1_555 1_555
C44 P2 1_555 1_555
C45 P2 1_555 1_555
C46 C45 1_555 1_555
H39 C46 1_555 1_555
C47 C46 1_555 1_555
H40 C47 1_555 1_555
C48 C47 1_555 1_555
H41 C48 1_555 1_555
C49 C48 1_555 1_555
H42 C49 1_555 1_555
C50 C45 1_555 1_555
H43 C50 1_555 1_555
C51 P2 1_555 1_555
C52 C51 1_555 1_555
H44 C52 1_555 1_555
C53 C52 1_555 1_555
H45 C53 1_555 1_555
C54 C53 1_555 1_555
H46 C54 1_555 1_555
C55 C54 1_555 1_555
H47 C55 1_555 1_555
C56 C51 1_555 1_555
H48 C56 1_555 1_555
C57 H49 1_555 1_555
Cl1 C57 1_555 1_555
Cl2 C57 1_555 1_555
Cl3 C57 1_555 1_555
C5 C6 1_555 1_555
C8 C9 1_555 1_555
C10 C11 1_555 1_555
C17 C18 1_555 1_555
C23 C24 1_555 1_555
C29 C30 1_555 1_555
C35 C37 1_555 1_555
C38 C44 1_555 1_555
C43 C44 1_555 1_555
C49 C50 1_555 1_555
C55 C56 1_555 1_555

#END
