
#######################################################################
#
#                 Cambridge Crystallographic Data Centre
#                                CCDC 
#
#######################################################################
#
# If this CIF has been generated from an entry in the Cambridge 
# Structural Database, then it will include bibliographic, chemical, 
# crystal, experimental, refinement or atomic coordinate data resulting 
# from the CCDC's data processing and validation procedures.
#
#######################################################################

data_EKEXOH
_chemical_formula_moiety         'C18 H18 O5'
_chemical_name_systematic        
4-(3,4-Methylenedioxyphenyl)-7,7-dimethyl-5-oxo-3,4,5,6,7,8-hexahydrocoumarin
_symmetry_cell_setting           triclinic
_symmetry_space_group_name_H-M   'P -1'
_symmetry_Int_Tables_number      2
_space_group_name_Hall           '-P 1'
loop_
_symmetry_equiv_pos_site_id
_symmetry_equiv_pos_as_xyz
1 x,y,z
2 -x,-y,-z
_cell_length_a                   6.9630(10)
_cell_length_b                   8.957(2)
_cell_length_c                   13.594(3)
_cell_angle_alpha                90.16(2)
_cell_angle_beta                 103.11(2)
_cell_angle_gamma                109.60(2)
_cell_volume                     775.003
_exptl_crystal_colour            colorless
_exptl_crystal_description       block
_chemical_melting_point          '427-429 K'
_cell_formula_units_Z            2
_exptl_crystal_recrystallization_method ethanol
loop_
_atom_site_label
_atom_site_type_symbol
_atom_site_fract_x
_atom_site_fract_y
_atom_site_fract_z
O1 O 0.13514(18) 0.54308(14) 0.13021(8)
O2 O 0.85495(19) 1.14456(14) 0.50051(9)
O3 O 1.01742(19) 1.20478(14) 0.36817(10)
O4 O 0.5954(2) 0.40580(17) 0.39569(9)
O5 O 0.0147(2) 0.73684(16) 0.14565(10)
C1 C 0.2442(2) 0.44709(18) 0.17532(12)
C2 C 0.2199(3) 0.3133(2) 0.10370(13)
H1 H 0.2192 0.3505 0.0367
H2 H 0.0853 0.2307 0.0999
C3 C 0.3937(3) 0.2418(2) 0.13387(13)
C4 C 0.4296(3) 0.2229(2) 0.24763(14)
H3 H 0.3063 0.1418 0.2600
H4 H 0.5473 0.1858 0.2687
C5 C 0.4729(3) 0.3733(2) 0.31177(13)
C6 C 0.3592(2) 0.47907(18) 0.27140(11)
C7 C 0.3631(2) 0.61509(19) 0.33727(11)
H5 H 0.3727 0.5829 0.4066
C8 C 0.1511(3) 0.6401(2) 0.30052(12)
H6 H 0.0418 0.5526 0.3187
H7 H 0.1573 0.7374 0.3347
C9 C 0.0961(3) 0.6501(2) 0.18920(13)
C10 C 0.5462(2) 0.77008(19) 0.34060(11)
C11 C 0.6075(2) 0.88055(19) 0.42492(11)
H8 H 0.5429 0.8588 0.4786
C12 C 0.7650(2) 1.02084(19) 0.42544(11)
C13 C 0.8631(2) 1.05607(19) 0.34699(13)
C14 C 0.8088(3) 0.9507(2) 0.26496(13)
H9 H 0.8764 0.9739 0.2123
C15 C 0.6475(3) 0.8062(2) 0.26271(13)
H10 H 0.6070 0.7321 0.2072
C16 C 0.9975(3) 1.2682(2) 0.45983(14)
H11 H 0.9450 1.3555 0.4466
H12 H 1.1334 1.3081 0.5079
C17 C 0.3261(4) 0.0808(2) 0.07398(17)
H13 H 0.3036 0.0949 0.0028
H14 H 0.1981 0.0114 0.0879
H15 H 0.4340 0.0349 0.0936
C18 C 0.5966(3) 0.3507(3) 0.11116(19)
H16 H 0.5749 0.3613 0.0396
H17 H 0.7053 0.3061 0.1328
H18 H 0.6377 0.4535 0.1468
loop_
_geom_bond_atom_site_label_1
_geom_bond_atom_site_label_2
_geom_bond_site_symmetry_1
_geom_bond_site_symmetry_2
O1 C1 1_555 1_555
O2 C12 1_555 1_555
O3 C13 1_555 1_555
O4 C5 1_555 1_555
O5 C9 1_555 1_555
C1 C2 1_555 1_555
C2 H1 1_555 1_555
H2 C2 1_555 1_555
C3 C2 1_555 1_555
C4 C3 1_555 1_555
H3 C4 1_555 1_555
H4 C4 1_555 1_555
C5 C4 1_555 1_555
C6 C1 1_555 1_555
C7 C6 1_555 1_555
H5 C7 1_555 1_555
C8 C7 1_555 1_555
H6 C8 1_555 1_555
H7 C8 1_555 1_555
C9 O1 1_555 1_555
C10 C7 1_555 1_555
C11 C10 1_555 1_555
H8 C11 1_555 1_555
C12 C11 1_555 1_555
C13 C12 1_555 1_555
C14 C13 1_555 1_555
H9 C14 1_555 1_555
C15 C10 1_555 1_555
H10 C15 1_555 1_555
C16 O2 1_555 1_555
H11 C16 1_555 1_555
H12 C16 1_555 1_555
C17 C3 1_555 1_555
H13 C17 1_555 1_555
H14 C17 1_555 1_555
H15 C17 1_555 1_555
C18 C3 1_555 1_555
H16 C18 1_555 1_555
H17 C18 1_555 1_555
H18 C18 1_555 1_555
O3 C16 1_555 1_555
C5 C6 1_555 1_555
C8 C9 1_555 1_555
C14 C15 1_555 1_555

#END
