
#######################################################################
#
#                 Cambridge Crystallographic Data Centre
#                                CCDC 
#
#######################################################################
#
# If this CIF has been generated from an entry in the Cambridge 
# Structural Database, then it will include bibliographic, chemical, 
# crystal, experimental, refinement or atomic coordinate data resulting 
# from the CCDC's data processing and validation procedures.
#
#######################################################################

data_EKICAE
_chemical_formula_moiety         'C15 H5 F9 N2'
_chemical_name_systematic        1,3,9-tris(trifluoromethyl)phenazine
_symmetry_cell_setting           monoclinic
_symmetry_space_group_name_H-M   'P 21/n'
_symmetry_Int_Tables_number      14
_space_group_name_Hall           '-P 2yn'
loop_
_symmetry_equiv_pos_site_id
_symmetry_equiv_pos_as_xyz
1 x,y,z
2 1/2-x,1/2+y,1/2-z
3 -x,-y,-z
4 1/2+x,1/2-y,1/2+z
_cell_length_a                   7.2537(4)
_cell_length_b                   15.3070(8)
_cell_length_c                   12.8472(7)
_cell_angle_alpha                90
_cell_angle_beta                 102.374(3)
_cell_angle_gamma                90
_cell_volume                     1393.32
_exptl_crystal_colour            yellow
_exptl_crystal_description       needle
_cell_formula_units_Z            4
_exptl_crystal_recrystallization_method methanol
loop_
_atom_site_label
_atom_site_type_symbol
_atom_site_fract_x
_atom_site_fract_y
_atom_site_fract_z
F1 F 0.52188(19) 0.76015(8) 0.48175(10)
F2 F 0.82351(19) 0.77767(7) 0.52355(10)
F3 F 0.65246(19) 0.81592(7) 0.63346(10)
F4 F 0.58812(19) 0.61789(8) 0.90920(10)
F5 F 0.87074(18) 0.56690(8) 0.93662(9)
F6 F 0.6343(2) 0.47965(8) 0.90042(10)
F7 F 0.88376(18) 0.68959(8) 0.28130(9)
F8 F 0.58241(18) 0.67127(8) 0.23649(9)
F9 F 0.75783(19) 0.63405(8) 0.12873(9)
N1 N 0.7287(2) 0.60483(11) 0.44472(13)
N2 N 0.7617(2) 0.43470(10) 0.53602(13)
C1 C 0.6919(3) 0.66486(13) 0.61117(16)
C2 C 0.6838(3) 0.65259(13) 0.71508(16)
H1 H 0.6687 0.7015 0.7580
C3 C 0.6977(3) 0.56680(13) 0.76012(16)
C4 C 0.7202(3) 0.49559(13) 0.70068(16)
H2 H 0.7273 0.4390 0.7315
C5 C 0.8080(3) 0.37598(14) 0.37044(17)
H3 H 0.8212 0.3188 0.3999
C6 C 0.8203(3) 0.38881(14) 0.26758(17)
H4 H 0.8419 0.3403 0.2257
C7 C 0.8013(3) 0.47375(14) 0.22139(17)
H5 H 0.8102 0.4811 0.1492
C8 C 0.7706(3) 0.54452(13) 0.27951(16)
C9 C 0.7185(3) 0.59147(13) 0.54659(16)
C10 C 0.7330(3) 0.50582(13) 0.59232(16)
C11 C 0.7753(3) 0.44828(13) 0.43447(16)
C12 C 0.7575(3) 0.53421(13) 0.38872(16)
C13 C 0.6739(3) 0.75436(14) 0.56220(17)
C14 C 0.6963(3) 0.55779(13) 0.87617(17)
C15 C 0.7486(3) 0.63446(14) 0.23186(17)
loop_
_geom_bond_atom_site_label_1
_geom_bond_atom_site_label_2
_geom_bond_site_symmetry_1
_geom_bond_site_symmetry_2
F1 C13 1_555 1_555
F2 C13 1_555 1_555
F3 C13 1_555 1_555
F4 C14 1_555 1_555
F5 C14 1_555 1_555
F6 C14 1_555 1_555
F7 C15 1_555 1_555
F8 C15 1_555 1_555
F9 C15 1_555 1_555
N1 C9 1_555 1_555
N2 C10 1_555 1_555
C1 C2 1_555 1_555
C2 H1 1_555 1_555
C3 C2 1_555 1_555
C4 C3 1_555 1_555
H2 C4 1_555 1_555
C5 H3 1_555 1_555
C6 C5 1_555 1_555
H4 C6 1_555 1_555
C7 C6 1_555 1_555
H5 C7 1_555 1_555
C8 C7 1_555 1_555
C9 C1 1_555 1_555
C10 C4 1_555 1_555
C11 N2 1_555 1_555
C12 N1 1_555 1_555
C13 C1 1_555 1_555
C14 C3 1_555 1_555
C15 C8 1_555 1_555
C5 C11 1_555 1_555
C8 C12 1_555 1_555
C9 C10 1_555 1_555
C11 C12 1_555 1_555

#END
