
#######################################################################
#
#                 Cambridge Crystallographic Data Centre
#                                CCDC 
#
#######################################################################
#
# If this CIF has been generated from an entry in the Cambridge 
# Structural Database, then it will include bibliographic, chemical, 
# crystal, experimental, refinement or atomic coordinate data resulting 
# from the CCDC's data processing and validation procedures.
#
#######################################################################

data_EKIMIW
_chemical_name_common            
1,2,3,4,6-Penta-O-t-butyldimethylsilyl-alpha-D-glucopyranose
_chemical_formula_moiety         'C36 H82 O6 Si5'
_chemical_name_systematic        
t-Butyl(dimethyl)((3,4,5,6-tetrakis((t-butyl(dimethyl)silyl)oxy)tetrahydro-2H-pyran-2-yl)methoxy)silane
_symmetry_cell_setting           monoclinic
_symmetry_space_group_name_H-M   'P 21'
_symmetry_Int_Tables_number      4
_space_group_name_Hall           'P 2yb'
loop_
_symmetry_equiv_pos_site_id
_symmetry_equiv_pos_as_xyz
1 x,y,z
2 -x,1/2+y,-z
_cell_length_a                   12.10770(10)
_cell_length_b                   36.4878(5)
_cell_length_c                   12.1834(3)
_cell_angle_alpha                90
_cell_angle_beta                 112.7115(8)
_cell_angle_gamma                90
_cell_volume                     4965.07
_exptl_crystal_colour            colorless
_exptl_crystal_description       plate
_cell_formula_units_Z            4
loop_
_atom_site_label
_atom_site_type_symbol
_atom_site_fract_x
_atom_site_fract_y
_atom_site_fract_z
Si1 Si 0.52352(17) 0.62247(5) -0.10124(16)
Si2 Si 0.62752(19) 0.56741(6) 0.34856(18)
Si3 Si 0.0932(2) 0.63923(7) 0.2503(2)
Si4 Si 0.4968(2) 0.71254(6) 0.28662(18)
O1 O 0.4158(4) 0.67797(11) 0.2113(3)
O2 O 0.2402(4) 0.61521(12) 0.1100(4)
O3 O 0.4595(4) 0.63825(11) -0.0137(3)
O4 O 0.2374(4) 0.64925(13) 0.2685(4)
C1 C 0.4065(5) 0.61666(17) 0.0529(5)
H1 H 0.4013 0.5911 0.0264
C2 C 0.4261(5) 0.64100(17) 0.2530(5)
H2 H 0.4740 0.6404 0.3387
C3 C 0.2838(5) 0.63052(17) 0.0253(5)
H3 H 0.2858 0.6573 0.0321
C4 C 0.4222(8) 0.5910(2) -0.2149(7)
H4 H 0.3979 0.5715 -0.1763
H5 H 0.4633 0.5810 -0.2615
H6 H 0.3529 0.6043 -0.2659
C5 C 0.3025(6) 0.62482(19) 0.2283(6)
H7 H 0.3142 0.6024 0.2758
C6 C 0.5563(7) 0.6644(2) -0.1723(6)
C7 C 0.6355(8) 0.6904(2) -0.0778(8)
H8 H 0.6456 0.7128 -0.1146
H9 H 0.7123 0.6793 -0.0365
H10 H 0.5989 0.6958 -0.0223
C8 C 0.4224(9) 0.7511(2) 0.0724(6)
H11 H 0.3824 0.7722 0.0276
H12 H 0.3800 0.7294 0.0350
H13 H 0.5027 0.7501 0.0751
C9 C 0.6647(7) 0.5975(2) -0.0092(8)
H14 H 0.7166 0.6137 0.0507
H15 H 0.7044 0.5894 -0.0595
H16 H 0.6453 0.5767 0.0281
C10 C 0.0752(9) 0.6615(4) 0.3769(10)
C11 C 0.0574(9) 0.5898(2) 0.2377(9)
H17 H 0.0890 0.5785 0.1847
H18 H -0.0279 0.5866 0.2069
H19 H 0.0926 0.5786 0.3147
C12 C 0.4956(8) 0.7888(2) 0.2590(8)
H20 H 0.5801 0.7844 0.2846
H21 H 0.4769 0.7948 0.3266
H22 H 0.4730 0.8087 0.2034
C13 C 0.4975(9) 0.7135(2) 0.4380(6)
H23 H 0.4165 0.7139 0.4335
H24 H 0.5385 0.7351 0.4786
H25 H 0.5377 0.6922 0.4808
C14 C 0.4260(8) 0.7538(2) 0.1981(7)
C15 C 0.7474(7) 0.5561(3) 0.2940(8)
H26 H 0.7194 0.5374 0.2341
H27 H 0.8169 0.5474 0.3591
H28 H 0.7679 0.5777 0.2607
C16 C 0.4419(9) 0.6848(3) -0.2437(9)
H29 H 0.4022 0.6918 -0.1923
H30 H 0.3903 0.6692 -0.3057
H31 H 0.4607 0.7063 -0.2784
C17 C -0.0079(7) 0.6624(3) 0.1126(8)
H32 H -0.0066 0.6884 0.1261
H33 H -0.0880 0.6534 0.0913
H34 H 0.0185 0.6575 0.0492
C18 C 0.6169(10) 0.6532(3) -0.2572(9)
H35 H 0.6299 0.6746 -0.2966
H36 H 0.5664 0.6363 -0.3153
H37 H 0.6924 0.6418 -0.2126
C19 C 0.5826(9) 0.5256(3) 0.4003(8)
C20 C 0.6910(8) 0.6024(3) 0.4666(7)
H38 H 0.7112 0.6239 0.4332
H39 H 0.7617 0.5928 0.5281
H40 H 0.6330 0.6085 0.4995
C21 C 0.6893(9) 0.5062(3) 0.4959(9)
H41 H 0.7281 0.5228 0.5605
H42 H 0.7452 0.4985 0.4620
H43 H 0.6612 0.4852 0.5248
C22 C 0.2914(8) 0.7555(3) 0.1983(9)
H44 H 0.2963 0.7547 0.2788
H45 H 0.2457 0.7349 0.1550
H46 H 0.2531 0.7778 0.1613
C23 C 0.6529(7) 0.7081(3) 0.2891(10)
H47 H 0.6905 0.6867 0.3335
H48 H 0.6987 0.7294 0.3259
H49 H 0.6489 0.7060 0.2091
C24 C -0.0547(10) 0.6540(5) 0.3651(12)
H50 H -0.1064 0.6729 0.3180
H51 H -0.0576 0.6538 0.4428
H52 H -0.0807 0.6307 0.3274
C25 C 0.1175(11) 0.7011(3) 0.3888(10)
H53 H 0.0777 0.7136 0.3146
H54 H 0.2024 0.7017 0.4095
H55 H 0.0990 0.7130 0.4499
C26 C 0.4877(5) 0.61828(17) 0.1883(5)
H56 H 0.5650 0.6293 0.1992
C27 C 0.5210(11) 0.4994(3) 0.2994(12)
H57 H 0.5705 0.4955 0.2550
H58 H 0.4456 0.5095 0.2480
H59 H 0.5078 0.4764 0.3309
C28 C 0.4876(12) 0.5387(5) 0.4597(13)
H60 H 0.4094 0.5415 0.3981
H61 H 0.5133 0.5616 0.4999
H62 H 0.4849 0.5205 0.5156
O5 O 0.5057(3) 0.58280(11) 0.2379(3)
C29 C 0.1932(6) 0.61959(18) -0.0947(6)
H63 H 0.1150 0.6287 -0.1034
H64 H 0.2143 0.6308 -0.1562
Si5 Si 0.06771(17) 0.55808(6) -0.19212(18)
O6 O 0.1875(4) 0.58168(12) -0.1098(4)
C30 C 0.1069(7) 0.5094(2) -0.1451(6)
C31 C -0.0662(7) 0.5748(2) -0.1670(7)
H65 H -0.0468 0.5773 -0.0832
H66 H -0.1306 0.5576 -0.2001
H67 H -0.0903 0.5982 -0.2049
C32 C 0.0422(7) 0.5637(2) -0.3536(6)
H68 H 0.0197 0.5885 -0.3776
H69 H -0.0206 0.5475 -0.4009
H70 H 0.1145 0.5578 -0.3647
C33 C 0.1175(10) 0.5052(3) -0.0109(8)
H71 H 0.1320 0.4799 0.0127
H72 H 0.0443 0.5131 -0.0052
H73 H 0.1826 0.5199 0.0404
C34 C 0.0060(8) 0.4850(2) -0.2285(8)
H74 H -0.0069 0.4904 -0.3097
H75 H -0.0662 0.4896 -0.2158
H76 H 0.0282 0.4597 -0.2122
C35 C 0.2230(9) 0.4991(2) -0.1537(9)
H77 H 0.2393 0.4737 -0.1340
H78 H 0.2863 0.5138 -0.0992
H79 H 0.2177 0.5033 -0.2333
C36 C 0.1662(13) 0.6387(5) 0.4911(11)
H80 H 0.2471 0.6424 0.4980
H81 H 0.1471 0.6130 0.4804
H82 H 0.1579 0.6471 0.5621
Si6 Si 0.09327(17) 0.27137(5) 0.30498(16)
Si7 Si 0.13583(18) 0.41790(6) 0.42046(18)
Si8 Si -0.31148(18) 0.36118(6) 0.31692(19)
Si9 Si -0.3925(2) 0.42270(7) -0.1358(2)
Si10 Si 0.0842(2) 0.34413(7) -0.0817(2)
O7 O 0.0127(3) 0.30438(11) 0.2217(3)
O8 O -0.2236(4) 0.34385(11) 0.2542(4)
O9 O -0.0903(4) 0.36734(13) 0.0427(4)
O10 O -0.3185(5) 0.39939(14) -0.0156(4)
O11 O 0.0699(4) 0.33279(12) 0.0449(4)
C37 C -0.0197(5) 0.36440(16) 0.2875(5)
H83 H -0.0096 0.3537 0.3646
C38 C -0.1556(6) 0.36526(17) 0.2052(5)
H84 H -0.1835 0.3907 0.1985
C39 C 0.0285(6) 0.35810(17) 0.1059(5)
H85 H 0.0767 0.3804 0.1177
C40 C -0.2976(6) 0.36069(19) -0.0103(6)
H86 H -0.3030 0.3521 -0.0875
H87 H -0.3592 0.3484 0.0084
C41 C -0.1779(5) 0.35101(18) 0.0810(5)
H88 H -0.1682 0.3243 0.0839
C42 C 0.0495(6) 0.34169(17) 0.2305(5)
H89 H 0.1351 0.3431 0.2807
C43 C 0.0015(7) 0.22944(19) 0.2495(7)
C44 C 0.2215(9) 0.4885(3) 0.4984(8)
H90 H 0.2996 0.4821 0.5017
H91 H 0.2148 0.4819 0.5718
H92 H 0.2097 0.5145 0.4860
C45 C -0.2260(10) 0.3932(3) 0.4365(10)
H93 H -0.1513 0.3821 0.4856
H94 H -0.2713 0.3988 0.4839
H95 H -0.2108 0.4153 0.4022
C46 C -0.3634(8) 0.3213(2) 0.3777(8)
C47 C -0.1170(8) 0.2328(3) 0.2631(10)
H96 H -0.1646 0.2514 0.2103
H97 H -0.1031 0.2393 0.3437
H98 H -0.1586 0.2098 0.2440
C48 C 0.2392(7) 0.2690(2) 0.2894(8)
H99 H 0.2273 0.2726 0.2076
H100 H 0.2747 0.2453 0.3152
H101 H 0.2913 0.2877 0.3374
C49 C 0.1619(10) 0.3061(3) -0.1183(8)
C50 C 0.0679(8) 0.1955(2) 0.3203(8)
H102 H 0.0176 0.1743 0.2943
H103 H 0.0872 0.1995 0.4036
H104 H 0.1403 0.1918 0.3072
C51 C -0.0225(9) 0.2237(2) 0.1154(7)
H105 H 0.0524 0.2211 0.1062
H106 H -0.0649 0.2445 0.0705
H107 H -0.0696 0.2020 0.0870
C52 C -0.4395(9) 0.3859(3) 0.2051(9)
H108 H -0.4103 0.4063 0.1746
H109 H -0.4920 0.3945 0.2418
H110 H -0.4825 0.3695 0.1410
C53 C 0.1249(8) 0.4678(2) 0.3940(7)
C54 C -0.4272(10) 0.2944(3) 0.2731(9)
H111 H -0.3708 0.2857 0.2412
H112 H -0.4916 0.3069 0.2120
H113 H -0.4585 0.2740 0.3017
C55 C 0.1175(9) 0.4061(3) 0.5600(7)
H114 H 0.0691 0.4243 0.5767
H115 H 0.1946 0.4051 0.6242
H116 H 0.0792 0.3826 0.5514
C56 C -0.4491(10) 0.3324(3) 0.4345(10)
H117 H -0.4902 0.3111 0.4456
H118 H -0.5063 0.3495 0.3838
H119 H -0.4053 0.3436 0.5102
C57 C 0.2822(8) 0.4001(3) 0.4336(11)
H120 H 0.2862 0.3743 0.4505
H121 H 0.3444 0.4126 0.4970
H122 H 0.2925 0.4041 0.3603
C58 C -0.0007(8) 0.4823(2) 0.3820(10)
H123 H 0.0002 0.5086 0.3836
H124 H -0.0191 0.4732 0.4469
H125 H -0.0603 0.4740 0.3081
C59 C 0.2845(12) 0.3024(5) -0.0222(10)
H126 H 0.2781 0.3009 0.0538
H127 H 0.3319 0.3234 -0.0235
H128 H 0.3221 0.2806 -0.0353
O12 O 0.0255(4) 0.40042(11) 0.3043(3)
C60 C 0.1741(11) 0.3136(3) -0.2366(9)
H129 H 0.2212 0.2946 -0.2518
H130 H 0.2126 0.3368 -0.2327
H131 H 0.0961 0.3141 -0.2996
C61 C 0.095(2) 0.2709(3) -0.1172(15)
H132 H 0.0150 0.2724 -0.1763
H133 H 0.0922 0.2676 -0.0402
H134 H 0.1357 0.2505 -0.1346
C62 C 0.1405(10) 0.4756(3) 0.2768(8)
H135 H 0.1336 0.5014 0.2611
H136 H 0.0796 0.4629 0.2128
H137 H 0.2180 0.4673 0.2832
C63 C 0.1177(11) 0.2800(3) 0.4635(6)
H138 H 0.1789 0.2983 0.4960
H139 H 0.1422 0.2577 0.5081
H140 H 0.0446 0.2886 0.4680
C64 C -0.2569(9) 0.3013(3) 0.4697(10)
H141 H -0.2302 0.3144 0.5437
H142 H -0.1929 0.2999 0.4418
H143 H -0.2807 0.2770 0.4814
C65 C -0.0565(11) 0.3515(7) -0.1977(11)
H144 H -0.1188 0.3451 -0.1708
H145 H -0.0632 0.3365 -0.2648
H146 H -0.0639 0.3768 -0.2206
C66 C 0.1747(16) 0.3866(3) -0.0515(13)
H147 H 0.1265 0.4070 -0.0471
H148 H 0.2024 0.3907 -0.1145
H149 H 0.2422 0.3842 0.0226
C67 C -0.3527(10) 0.4709(2) -0.0941(9)
C68 C -0.5568(8) 0.4129(3) -0.1777(10)
H150 H -0.5723 0.3875 -0.1980
H151 H -0.6032 0.4278 -0.2448
H152 H -0.5785 0.4186 -0.1117
C69 C -0.3486(15) 0.4096(4) -0.2621(9)
H153 H -0.2712 0.4197 -0.2488
H154 H -0.4065 0.4191 -0.3352
H155 H -0.3457 0.3834 -0.2669
C70 C -0.4200(14) 0.4959(3) -0.2033(11)
H156 H -0.4085 0.5211 -0.1792
H157 H -0.5040 0.4902 -0.2340
H158 H -0.3892 0.4917 -0.2640
C71 C -0.4029(12) 0.4811(3) 0.0038(9)
H159 H -0.3565 0.4688 0.0769
H160 H -0.4850 0.4735 -0.0222
H161 H -0.3977 0.5071 0.0164
C72 C -0.2225(14) 0.4756(4) -0.0526(17)
H162 H -0.1965 0.4688 -0.1149
H163 H -0.1835 0.4604 0.0158
H164 H -0.2024 0.5008 -0.0316
loop_
_geom_bond_atom_site_label_1
_geom_bond_atom_site_label_2
_geom_bond_site_symmetry_1
_geom_bond_site_symmetry_2
Si1 O3 1_555 1_555
Si2 C15 1_555 1_555
Si3 O4 1_555 1_555
Si4 O1 1_555 1_555
O1 C2 1_555 1_555
O2 C3 1_555 1_555
O3 C1 1_555 1_555
O4 C5 1_555 1_555
C1 H1 1_555 1_555
C2 H2 1_555 1_555
C3 C1 1_555 1_555
H3 C3 1_555 1_555
C4 Si1 1_555 1_555
H4 C4 1_555 1_555
H5 C4 1_555 1_555
H6 C4 1_555 1_555
C5 O2 1_555 1_555
H7 C5 1_555 1_555
C6 Si1 1_555 1_555
C7 C6 1_555 1_555
H8 C7 1_555 1_555
H9 C7 1_555 1_555
H10 C7 1_555 1_555
C8 H11 1_555 1_555
H12 C8 1_555 1_555
H13 C8 1_555 1_555
C9 Si1 1_555 1_555
H14 C9 1_555 1_555
H15 C9 1_555 1_555
H16 C9 1_555 1_555
C10 Si3 1_555 1_555
C11 Si3 1_555 1_555
H17 C11 1_555 1_555
H18 C11 1_555 1_555
H19 C11 1_555 1_555
C12 H20 1_555 1_555
H21 C12 1_555 1_555
H22 C12 1_555 1_555
C13 Si4 1_555 1_555
H23 C13 1_555 1_555
H24 C13 1_555 1_555
H25 C13 1_555 1_555
C14 Si4 1_555 1_555
C15 H26 1_555 1_555
H27 C15 1_555 1_555
H28 C15 1_555 1_555
C16 C6 1_555 1_555
H29 C16 1_555 1_555
H30 C16 1_555 1_555
H31 C16 1_555 1_555
C17 Si3 1_555 1_555
H32 C17 1_555 1_555
H33 C17 1_555 1_555
H34 C17 1_555 1_555
C18 C6 1_555 1_555
H35 C18 1_555 1_555
H36 C18 1_555 1_555
H37 C18 1_555 1_555
C19 Si2 1_555 1_555
C20 Si2 1_555 1_555
H38 C20 1_555 1_555
H39 C20 1_555 1_555
H40 C20 1_555 1_555
C21 C19 1_555 1_555
H41 C21 1_555 1_555
H42 C21 1_555 1_555
H43 C21 1_555 1_555
C22 C14 1_555 1_555
H44 C22 1_555 1_555
H45 C22 1_555 1_555
H46 C22 1_555 1_555
C23 Si4 1_555 1_555
H47 C23 1_555 1_555
H48 C23 1_555 1_555
H49 C23 1_555 1_555
C24 C10 1_555 1_555
H50 C24 1_555 1_555
H51 C24 1_555 1_555
H52 C24 1_555 1_555
C25 C10 1_555 1_555
H53 C25 1_555 1_555
H54 C25 1_555 1_555
H55 C25 1_555 1_555
C26 C1 1_555 1_555
H56 C26 1_555 1_555
C27 C19 1_555 1_555
H57 C27 1_555 1_555
H58 C27 1_555 1_555
H59 C27 1_555 1_555
C28 C19 1_555 1_555
H60 C28 1_555 1_555
H61 C28 1_555 1_555
H62 C28 1_555 1_555
O5 Si2 1_555 1_555
C29 C3 1_555 1_555
H63 C29 1_555 1_555
H64 C29 1_555 1_555
Si5 O6 1_555 1_555
O6 C29 1_555 1_555
C30 Si5 1_555 1_555
C31 Si5 1_555 1_555
H65 C31 1_555 1_555
H66 C31 1_555 1_555
H67 C31 1_555 1_555
C32 Si5 1_555 1_555
H68 C32 1_555 1_555
H69 C32 1_555 1_555
H70 C32 1_555 1_555
C33 C30 1_555 1_555
H71 C33 1_555 1_555
H72 C33 1_555 1_555
H73 C33 1_555 1_555
C34 C30 1_555 1_555
H74 C34 1_555 1_555
H75 C34 1_555 1_555
H76 C34 1_555 1_555
C35 C30 1_555 1_555
H77 C35 1_555 1_555
H78 C35 1_555 1_555
H79 C35 1_555 1_555
C36 C10 1_555 1_555
H80 C36 1_555 1_555
H81 C36 1_555 1_555
H82 C36 1_555 1_555
Si6 O7 1_555 1_555
Si7 C53 1_555 1_555
Si8 O8 1_555 1_555
Si9 O10 1_555 1_555
Si10 O11 1_555 1_555
O7 C42 1_555 1_555
O8 C38 1_555 1_555
O9 C39 1_555 1_555
O10 C40 1_555 1_555
O11 C39 1_555 1_555
C37 H83 1_555 1_555
C38 C37 1_555 1_555
H84 C38 1_555 1_555
C39 H85 1_555 1_555
C40 H86 1_555 1_555
H87 C40 1_555 1_555
C41 O9 1_555 1_555
H88 C41 1_555 1_555
C42 C37 1_555 1_555
H89 C42 1_555 1_555
C43 Si6 1_555 1_555
C44 H90 1_555 1_555
H91 C44 1_555 1_555
H92 C44 1_555 1_555
C45 Si8 1_555 1_555
H93 C45 1_555 1_555
H94 C45 1_555 1_555
H95 C45 1_555 1_555
C46 Si8 1_555 1_555
C47 C43 1_555 1_555
H96 C47 1_555 1_555
H97 C47 1_555 1_555
H98 C47 1_555 1_555
C48 Si6 1_555 1_555
H99 C48 1_555 1_555
H100 C48 1_555 1_555
H101 C48 1_555 1_555
C49 Si10 1_555 1_555
C50 C43 1_555 1_555
H102 C50 1_555 1_555
H103 C50 1_555 1_555
H104 C50 1_555 1_555
C51 C43 1_555 1_555
H105 C51 1_555 1_555
H106 C51 1_555 1_555
H107 C51 1_555 1_555
C52 Si8 1_555 1_555
H108 C52 1_555 1_555
H109 C52 1_555 1_555
H110 C52 1_555 1_555
C53 C44 1_555 1_555
C54 C46 1_555 1_555
H111 C54 1_555 1_555
H112 C54 1_555 1_555
H113 C54 1_555 1_555
C55 Si7 1_555 1_555
H114 C55 1_555 1_555
H115 C55 1_555 1_555
H116 C55 1_555 1_555
C56 C46 1_555 1_555
H117 C56 1_555 1_555
H118 C56 1_555 1_555
H119 C56 1_555 1_555
C57 Si7 1_555 1_555
H120 C57 1_555 1_555
H121 C57 1_555 1_555
H122 C57 1_555 1_555
C58 C53 1_555 1_555
H123 C58 1_555 1_555
H124 C58 1_555 1_555
H125 C58 1_555 1_555
C59 C49 1_555 1_555
H126 C59 1_555 1_555
H127 C59 1_555 1_555
H128 C59 1_555 1_555
O12 Si7 1_555 1_555
C60 C49 1_555 1_555
H129 C60 1_555 1_555
H130 C60 1_555 1_555
H131 C60 1_555 1_555
C61 C49 1_555 1_555
H132 C61 1_555 1_555
H133 C61 1_555 1_555
H134 C61 1_555 1_555
C62 C53 1_555 1_555
H135 C62 1_555 1_555
H136 C62 1_555 1_555
H137 C62 1_555 1_555
C63 Si6 1_555 1_555
H138 C63 1_555 1_555
H139 C63 1_555 1_555
H140 C63 1_555 1_555
C64 C46 1_555 1_555
H141 C64 1_555 1_555
H142 C64 1_555 1_555
H143 C64 1_555 1_555
C65 Si10 1_555 1_555
H144 C65 1_555 1_555
H145 C65 1_555 1_555
H146 C65 1_555 1_555
C66 Si10 1_555 1_555
H147 C66 1_555 1_555
H148 C66 1_555 1_555
H149 C66 1_555 1_555
C67 Si9 1_555 1_555
C68 Si9 1_555 1_555
H150 C68 1_555 1_555
H151 C68 1_555 1_555
H152 C68 1_555 1_555
C69 Si9 1_555 1_555
H153 C69 1_555 1_555
H154 C69 1_555 1_555
H155 C69 1_555 1_555
C70 C67 1_555 1_555
H156 C70 1_555 1_555
H157 C70 1_555 1_555
H158 C70 1_555 1_555
C71 C67 1_555 1_555
H159 C71 1_555 1_555
H160 C71 1_555 1_555
H161 C71 1_555 1_555
C72 C67 1_555 1_555
H162 C72 1_555 1_555
H163 C72 1_555 1_555
H164 C72 1_555 1_555
C2 C5 1_555 1_555
C2 C26 1_555 1_555
C8 C14 1_555 1_555
C12 C14 1_555 1_555
C26 O5 1_555 1_555
C37 O12 1_555 1_555
C38 C41 1_555 1_555
C39 C42 1_555 1_555
C40 C41 1_555 1_555

#END
