
#######################################################################
#
#                 Cambridge Crystallographic Data Centre
#                                CCDC 
#
#######################################################################
#
# If this CIF has been generated from an entry in the Cambridge 
# Structural Database, then it will include bibliographic, chemical, 
# crystal, experimental, refinement or atomic coordinate data resulting 
# from the CCDC's data processing and validation procedures.
#
#######################################################################

data_EKINAP
_chemical_formula_moiety         'C45 H60 N6,0.5(C3 H8 O1)'
_chemical_name_systematic        
'3,10,17,24,31,38-hexaazadecacyclo[38.2.2.2^12,15^.2^26,29^.1^3,10^.1^17,24^.1^31,38^.0^4,9^.0^18,23^.0^32,37^]henpentaconta-1(42),12,14,26,28,40,43,46,49-nonaene hemikis(isopropanol) clathrate'
_symmetry_cell_setting           orthorhombic
_symmetry_space_group_name_H-M   'P 21 21 21'
_symmetry_Int_Tables_number      19
_space_group_name_Hall           'P 2ac 2ab'
loop_
_symmetry_equiv_pos_site_id
_symmetry_equiv_pos_as_xyz
1 x,y,z
2 1/2-x,-y,1/2+z
3 1/2+x,1/2-y,-z
4 -x,1/2+y,1/2-z
_cell_length_a                   11.1457(2)
_cell_length_b                   18.0200(2)
_cell_length_c                   42.0257(5)
_cell_angle_alpha                90
_cell_angle_beta                 90
_cell_angle_gamma                90
_cell_volume                     8440.67
_exptl_crystal_colour            colorless
_exptl_crystal_description       block
_cell_formula_units_Z            8
loop_
_atom_site_label
_atom_site_type_symbol
_atom_site_fract_x
_atom_site_fract_y
_atom_site_fract_z
C46 C 0.0069(3) 0.49362(16) -0.03324(6)
H61 H -0.0755 0.5074 -0.0260
C47 C 0.0845(3) 0.56162(14) -0.03397(5)
H62 H 0.1650 0.5478 -0.0426
C48 C 0.0305(3) 0.62176(16) -0.05507(6)
H63 H 0.0835 0.6659 -0.0555
H64 H -0.0490 0.6369 -0.0468
C49 C 0.0180(4) 0.58931(19) -0.08861(6)
H65 H -0.0225 0.6260 -0.1025
H66 H 0.0989 0.5799 -0.0975
C50 C -0.0535(4) 0.5170(2) -0.08872(7)
H67 H -0.0551 0.4967 -0.1106
H68 H -0.1373 0.5275 -0.0823
C51 C -0.0001(4) 0.45881(19) -0.06611(7)
H69 H -0.0516 0.4141 -0.0656
H70 H 0.0809 0.4441 -0.0734
N7 N 0.0669(2) 0.45048(13) -0.00835(5)
N8 N 0.0969(2) 0.57886(12) -0.00007(4)
C52 C 0.0995(4) 0.50591(16) 0.01557(7)
H71 H 0.1807 0.4956 0.0240
H72 H 0.0417 0.5047 0.0335
C53 C 0.2020(3) 0.62390(17) 0.00604(6)
H73 H 0.2032 0.6651 -0.0095
H74 H 0.2742 0.5932 0.0021
C54 C 0.2115(2) 0.65653(15) 0.03908(6)
C55 C 0.3128(3) 0.69807(15) 0.04651(6)
H75 H 0.3736 0.7047 0.0309
C56 C 0.3268(3) 0.72995(16) 0.07622(6)
H76 H 0.3970 0.7580 0.0807
C57 C 0.2394(3) 0.72149(15) 0.09957(5)
C58 C 0.1390(3) 0.67994(18) 0.09229(6)
H77 H 0.0786 0.6732 0.1080
C59 C 0.1242(3) 0.64763(18) 0.06230(6)
H78 H 0.0541 0.6195 0.0578
C60 C 0.2553(3) 0.75751(17) 0.13176(6)
H79 H 0.2626 0.8119 0.1289
H80 H 0.1831 0.7479 0.1448
C61 C 0.3811(3) 0.76658(15) 0.17930(5)
H81 H 0.3038 0.7674 0.1914
C62 C 0.4650(3) 0.71255(14) 0.19525(5)
H82 H 0.5448 0.7146 0.1844
C63 C 0.4811(3) 0.73155(18) 0.23026(6)
H83 H 0.5386 0.6967 0.2403
H84 H 0.4034 0.7275 0.2416
C64 C 0.5288(3) 0.81116(19) 0.23239(7)
H85 H 0.5318 0.8262 0.2550
H86 H 0.6117 0.8124 0.2240
C65 C 0.4526(4) 0.86673(18) 0.21406(7)
H87 H 0.4924 0.9158 0.2146
H88 H 0.3737 0.8717 0.2247
C66 C 0.4330(3) 0.84370(16) 0.17911(6)
H89 H 0.3770 0.8785 0.1685
H90 H 0.5101 0.8443 0.1674
N9 N 0.3607(2) 0.73021(12) 0.14861(4)
N10 N 0.4078(2) 0.64170(12) 0.18804(5)
C67 C 0.3505(3) 0.65091(15) 0.15677(6)
H91 H 0.2652 0.6359 0.1578
H92 H 0.3916 0.6201 0.1406
C68 C 0.4881(3) 0.57794(16) 0.18951(7)
H93 H 0.5378 0.5816 0.2090
H94 H 0.5427 0.5791 0.1709
C69 C 0.4214(3) 0.50473(15) 0.18976(6)
C70 C 0.3154(3) 0.49787(15) 0.20698(6)
H95 H 0.2831 0.5398 0.2177
C71 C 0.2563(3) 0.42992(16) 0.20868(6)
H96 H 0.1836 0.4260 0.2204
C72 C 0.3028(3) 0.36777(15) 0.19344(6)
C73 C 0.4074(3) 0.37493(16) 0.17634(7)
H97 H 0.4399 0.3329 0.1658
C74 C 0.4663(3) 0.44282(16) 0.17430(7)
H98 H 0.5380 0.4468 0.1622
C75 C 0.2389(3) 0.29425(16) 0.19697(6)
H99 H 0.2610 0.2720 0.2177
H100 H 0.1512 0.3032 0.1972
C76 C 0.2176(3) 0.16748(15) 0.17729(7)
H101 H 0.1300 0.1717 0.1822
C77 C 0.2331(3) 0.13389(15) 0.14478(7)
H102 H 0.3205 0.1261 0.1406
C78 C 0.1685(4) 0.05965(16) 0.14266(8)
H103 H 0.1794 0.0377 0.1213
H104 H 0.0816 0.0663 0.1465
C79 C 0.2234(4) 0.00861(17) 0.16822(8)
H105 H 0.1790 -0.0390 0.1685
H106 H 0.3078 -0.0023 0.1625
C80 C 0.2197(5) 0.04314(17) 0.20160(8)
H107 H 0.2623 0.0101 0.2166
H108 H 0.1352 0.0469 0.2087
C81 C 0.2774(4) 0.12060(17) 0.20264(8)
H109 H 0.2656 0.1433 0.2239
H110 H 0.3646 0.1169 0.1985
N11 N 0.2667(2) 0.24163(12) 0.17182(5)
N12 N 0.1886(3) 0.19292(13) 0.12395(6)
C82 C 0.2154(4) 0.26244(16) 0.14099(7)
H111 H 0.2733 0.2927 0.1287
H112 H 0.1412 0.2918 0.1441
C83 C 0.2368(3) 0.19041(16) 0.09199(6)
H113 H 0.2292 0.1392 0.0837
H114 H 0.3233 0.2028 0.0927
C84 C 0.1744(3) 0.24324(16) 0.06946(7)
C85 C 0.2379(3) 0.28067(15) 0.04620(6)
H115 H 0.3220 0.2733 0.0444
C86 C 0.1796(3) 0.32910(16) 0.02539(7)
H116 H 0.2249 0.3548 0.0097
C87 C 0.0600(3) 0.34004(16) 0.02720(8)
C88 C -0.0027(4) 0.3018(2) 0.04972(11)
H117 H -0.0871 0.3080 0.0512
C89 C 0.0556(4) 0.2534(2) 0.07063(10)
H118 H 0.0098 0.2272 0.0860
C90 C -0.0073(3) 0.39017(18) 0.00395(9)
H119 H -0.0365 0.3599 -0.0141
H120 H -0.0781 0.4115 0.0148
C1 C 0.5057(3) 0.50398(16) -0.02994(6)
H1 H 0.4274 0.5240 -0.0221
C2 C 0.5917(3) 0.56724(15) -0.03351(5)
H2 H 0.6685 0.5484 -0.0428
C3 C 0.5407(4) 0.62666(17) -0.05507(6)
H3 H 0.5985 0.6680 -0.0573
H4 H 0.4652 0.6466 -0.0460
C4 C 0.5166(4) 0.59046(19) -0.08774(6)
H5 H 0.4777 0.6272 -0.1019
H6 H 0.5940 0.5761 -0.0975
C5 C 0.4370(4) 0.5224(2) -0.08517(6)
H7 H 0.4300 0.4991 -0.1064
H8 H 0.3556 0.5381 -0.0785
C6 C 0.4844(3) 0.46493(19) -0.06153(6)
H9 H 0.4253 0.4244 -0.0588
H10 H 0.5603 0.4432 -0.0695
N1 N 0.5611(2) 0.46082(13) -0.00425(5)
N2 N 0.6112(2) 0.58704(12) 0.00001(4)
C7 C 0.6301(3) 0.51447(15) 0.01496(6)
H11 H 0.6009 0.5149 0.0372
H12 H 0.7163 0.5014 0.0150
C8 C 0.7111(3) 0.63691(17) 0.00478(6)
H13 H 0.7036 0.6790 -0.0102
H14 H 0.7864 0.6103 -0.0003
C9 C 0.7199(3) 0.66733(15) 0.03840(5)
C10 C 0.8249(3) 0.70213(16) 0.04771(6)
H15 H 0.8903 0.7050 0.0333
C11 C 0.8359(3) 0.73291(16) 0.07777(6)
H16 H 0.9087 0.7566 0.0837
C12 C 0.7417(3) 0.72957(14) 0.09941(5)
C13 C 0.6376(3) 0.69398(17) 0.09037(6)
H17 H 0.5731 0.6902 0.1051
C14 C 0.6255(3) 0.66338(16) 0.05993(6)
H18 H 0.5526 0.6399 0.0540
C15 C 0.7524(3) 0.76702(16) 0.13147(6)
H19 H 0.7550 0.8214 0.1283
H20 H 0.6801 0.7555 0.1442
C16 C 0.8762(3) 0.78782(17) 0.17828(5)
H21 H 0.7981 0.7918 0.1899
C17 C 0.9598(3) 0.7380(2) 0.19685(6)
H22 H 1.0399 0.7373 0.1861
C18 C 0.9752(4) 0.7667(3) 0.23082(7)
H23 H 1.0324 0.7349 0.2426
H24 H 0.8972 0.7659 0.2421
C19 C 1.0230(4) 0.8462(3) 0.22884(8)
H25 H 1.0269 0.8672 0.2506
H26 H 1.1057 0.8450 0.2202
C20 C 0.9473(4) 0.8964(2) 0.20826(8)
H27 H 0.9864 0.9456 0.2067
H28 H 0.8680 0.9034 0.2184
C21 C 0.9293(3) 0.86467(18) 0.17444(7)
H29 H 0.8743 0.8967 0.1621
H30 H 1.0071 0.8619 0.1631
N3 N 0.8584(2) 0.74429(12) 0.14921(4)
N4 N 0.9022(2) 0.66560(16) 0.19253(5)
C22 C 0.8524(3) 0.66658(17) 0.15999(6)
H31 H 0.9001 0.6342 0.1458
H32 H 0.7683 0.6489 0.1600
C23 C 0.9820(3) 0.6029(2) 0.19801(10)
H33 H 1.0235 0.6097 0.2186
H34 H 1.0438 0.6017 0.1811
C24 C 0.9160(3) 0.5299(2) 0.19837(8)
C25 C 0.8060(3) 0.52232(19) 0.21247(7)
H35 H 0.7687 0.5646 0.2217
C26 C 0.7472(3) 0.45416(18) 0.21368(6)
H36 H 0.6710 0.4506 0.2237
C27 C 0.7993(3) 0.39123(18) 0.20034(6)
C28 C 0.9097(3) 0.3989(2) 0.18568(7)
H37 H 0.9470 0.3568 0.1764
C29 C 0.9671(3) 0.4675(2) 0.18434(8)
H38 H 1.0420 0.4717 0.1737
C30 C 0.7372(3) 0.31757(18) 0.20338(6)
H39 H 0.7500 0.2986 0.2252
H40 H 0.6500 0.3252 0.2005
C31 C 0.7210(4) 0.18903(18) 0.18661(7)
H41 H 0.6359 0.1969 0.1934
C32 C 0.7216(4) 0.15467(18) 0.15377(7)
H42 H 0.8063 0.1430 0.1477
C33 C 0.6492(5) 0.0845(2) 0.15293(8)
H43 H 0.6514 0.0625 0.1313
H44 H 0.5646 0.0950 0.1585
C34 C 0.7043(6) 0.0305(2) 0.17714(9)
H45 H 0.6545 -0.0149 0.1781
H46 H 0.7855 0.0161 0.1699
C35 C 0.7131(6) 0.0642(2) 0.21034(8)
H47 H 0.7543 0.0287 0.2246
H48 H 0.6313 0.0725 0.2188
C36 C 0.7817(4) 0.1378(2) 0.21039(7)
H49 H 0.7800 0.1602 0.2319
H50 H 0.8664 0.1296 0.2043
N5 N 0.7769(3) 0.26184(15) 0.18102(5)
N6 N 0.6798(3) 0.21784(15) 0.13472(6)
C37 C 0.7472(4) 0.28055(17) 0.14750(6)
H51 H 0.6984 0.3264 0.1466
H52 H 0.8215 0.2885 0.1350
C38 C 0.6997(4) 0.20663(18) 0.10088(7)
H53 H 0.6697 0.1568 0.0949
H54 H 0.7871 0.2075 0.0967
C39 C 0.6394(3) 0.26418(17) 0.07978(6)
C40 C 0.6706(4) 0.26577(17) 0.04765(7)
H55 H 0.7287 0.2319 0.0398
C41 C 0.6179(4) 0.31625(17) 0.02701(6)
H56 H 0.6398 0.3160 0.0052
C42 C 0.5338(3) 0.36700(19) 0.03771(7)
C43 C 0.5032(3) 0.3664(2) 0.06996(8)
H57 H 0.4461 0.4010 0.0778
C44 C 0.5553(3) 0.3158(2) 0.09062(7)
H58 H 0.5335 0.3162 0.1125
C45 C 0.4749(3) 0.4192(2) 0.01444(8)
H59 H 0.4228 0.3904 -0.0001
H60 H 0.4233 0.4544 0.0263
loop_
_geom_bond_atom_site_label_1
_geom_bond_atom_site_label_2
_geom_bond_site_symmetry_1
_geom_bond_site_symmetry_2
C1 H1 1_555 1_555
C2 C1 1_555 1_555
H2 C2 1_555 1_555
C3 C2 1_555 1_555
H3 C3 1_555 1_555
H4 C3 1_555 1_555
C4 C3 1_555 1_555
H5 C4 1_555 1_555
H6 C4 1_555 1_555
C5 C4 1_555 1_555
H7 C5 1_555 1_555
H8 C5 1_555 1_555
C6 C1 1_555 1_555
H9 C6 1_555 1_555
H10 C6 1_555 1_555
N1 C1 1_555 1_555
N2 C2 1_555 1_555
C7 N1 1_555 1_555
H11 C7 1_555 1_555
H12 C7 1_555 1_555
C8 N2 1_555 1_555
H13 C8 1_555 1_555
H14 C8 1_555 1_555
C9 C8 1_555 1_555
C10 C9 1_555 1_555
H15 C10 1_555 1_555
C11 C10 1_555 1_555
H16 C11 1_555 1_555
C12 C11 1_555 1_555
C13 C12 1_555 1_555
H17 C13 1_555 1_555
C14 C9 1_555 1_555
H18 C14 1_555 1_555
C15 C12 1_555 1_555
H19 C15 1_555 1_555
H20 C15 1_555 1_555
C16 H21 1_555 1_555
C17 C16 1_555 1_555
H22 C17 1_555 1_555
C18 C17 1_555 1_555
H23 C18 1_555 1_555
H24 C18 1_555 1_555
C19 C18 1_555 1_555
H25 C19 1_555 1_555
H26 C19 1_555 1_555
C20 C19 1_555 1_555
H27 C20 1_555 1_555
H28 C20 1_555 1_555
C21 C16 1_555 1_555
H29 C21 1_555 1_555
H30 C21 1_555 1_555
N3 C15 1_555 1_555
N4 C17 1_555 1_555
C22 N3 1_555 1_555
H31 C22 1_555 1_555
H32 C22 1_555 1_555
C23 N4 1_555 1_555
H33 C23 1_555 1_555
H34 C23 1_555 1_555
C24 C23 1_555 1_555
C25 C24 1_555 1_555
H35 C25 1_555 1_555
C26 C25 1_555 1_555
H36 C26 1_555 1_555
C27 C26 1_555 1_555
C28 C27 1_555 1_555
H37 C28 1_555 1_555
C29 C24 1_555 1_555
H38 C29 1_555 1_555
C30 C27 1_555 1_555
H39 C30 1_555 1_555
H40 C30 1_555 1_555
C31 H41 1_555 1_555
C32 C31 1_555 1_555
H42 C32 1_555 1_555
C33 C32 1_555 1_555
H43 C33 1_555 1_555
H44 C33 1_555 1_555
C34 C33 1_555 1_555
H45 C34 1_555 1_555
H46 C34 1_555 1_555
C35 C34 1_555 1_555
H47 C35 1_555 1_555
H48 C35 1_555 1_555
C36 C31 1_555 1_555
H49 C36 1_555 1_555
H50 C36 1_555 1_555
N5 C30 1_555 1_555
N6 C32 1_555 1_555
C37 N5 1_555 1_555
H51 C37 1_555 1_555
H52 C37 1_555 1_555
C38 N6 1_555 1_555
H53 C38 1_555 1_555
H54 C38 1_555 1_555
C39 C38 1_555 1_555
C40 C39 1_555 1_555
H55 C40 1_555 1_555
C41 C40 1_555 1_555
H56 C41 1_555 1_555
C42 C41 1_555 1_555
C43 C42 1_555 1_555
H57 C43 1_555 1_555
C44 C39 1_555 1_555
H58 C44 1_555 1_555
C45 N1 1_555 1_555
H59 C45 1_555 1_555
H60 C45 1_555 1_555
C46 H61 1_555 1_555
C47 C46 1_555 1_555
H62 C47 1_555 1_555
C48 C47 1_555 1_555
H63 C48 1_555 1_555
H64 C48 1_555 1_555
C49 C48 1_555 1_555
H65 C49 1_555 1_555
H66 C49 1_555 1_555
C50 C49 1_555 1_555
H67 C50 1_555 1_555
H68 C50 1_555 1_555
C51 C46 1_555 1_555
H69 C51 1_555 1_555
H70 C51 1_555 1_555
N7 C46 1_555 1_555
N8 C47 1_555 1_555
C52 N7 1_555 1_555
H71 C52 1_555 1_555
H72 C52 1_555 1_555
C53 N8 1_555 1_555
H73 C53 1_555 1_555
H74 C53 1_555 1_555
C54 C53 1_555 1_555
C55 C54 1_555 1_555
H75 C55 1_555 1_555
C56 C55 1_555 1_555
H76 C56 1_555 1_555
C57 C56 1_555 1_555
C58 C57 1_555 1_555
H77 C58 1_555 1_555
C59 C54 1_555 1_555
H78 C59 1_555 1_555
C60 C57 1_555 1_555
H79 C60 1_555 1_555
H80 C60 1_555 1_555
C61 H81 1_555 1_555
C62 C61 1_555 1_555
H82 C62 1_555 1_555
C63 C62 1_555 1_555
H83 C63 1_555 1_555
H84 C63 1_555 1_555
C64 C63 1_555 1_555
H85 C64 1_555 1_555
H86 C64 1_555 1_555
C65 C64 1_555 1_555
H87 C65 1_555 1_555
H88 C65 1_555 1_555
C66 C61 1_555 1_555
H89 C66 1_555 1_555
H90 C66 1_555 1_555
N9 C60 1_555 1_555
N10 C62 1_555 1_555
C67 N9 1_555 1_555
H91 C67 1_555 1_555
H92 C67 1_555 1_555
C68 N10 1_555 1_555
H93 C68 1_555 1_555
H94 C68 1_555 1_555
C69 C68 1_555 1_555
C70 C69 1_555 1_555
H95 C70 1_555 1_555
C71 C70 1_555 1_555
H96 C71 1_555 1_555
C72 C71 1_555 1_555
C73 C72 1_555 1_555
H97 C73 1_555 1_555
C74 C69 1_555 1_555
H98 C74 1_555 1_555
C75 C72 1_555 1_555
H99 C75 1_555 1_555
H100 C75 1_555 1_555
C76 H101 1_555 1_555
C77 C76 1_555 1_555
H102 C77 1_555 1_555
C78 C77 1_555 1_555
H103 C78 1_555 1_555
H104 C78 1_555 1_555
C79 C78 1_555 1_555
H105 C79 1_555 1_555
H106 C79 1_555 1_555
C80 C79 1_555 1_555
H107 C80 1_555 1_555
H108 C80 1_555 1_555
C81 C76 1_555 1_555
H109 C81 1_555 1_555
H110 C81 1_555 1_555
N11 C75 1_555 1_555
N12 C77 1_555 1_555
C82 N11 1_555 1_555
H111 C82 1_555 1_555
H112 C82 1_555 1_555
C83 N12 1_555 1_555
H113 C83 1_555 1_555
H114 C83 1_555 1_555
C84 C83 1_555 1_555
C85 C84 1_555 1_555
H115 C85 1_555 1_555
C86 C85 1_555 1_555
H116 C86 1_555 1_555
C87 C86 1_555 1_555
C88 C87 1_555 1_555
H117 C88 1_555 1_555
C89 C84 1_555 1_555
H118 C89 1_555 1_555
C90 N7 1_555 1_555
H119 C90 1_555 1_555
H120 C90 1_555 1_555
C5 C6 1_555 1_555
N2 C7 1_555 1_555
C13 C14 1_555 1_555
C16 N3 1_555 1_555
C20 C21 1_555 1_555
N4 C22 1_555 1_555
C28 C29 1_555 1_555
C31 N5 1_555 1_555
C35 C36 1_555 1_555
N6 C37 1_555 1_555
C42 C45 1_555 1_555
C43 C44 1_555 1_555
C50 C51 1_555 1_555
N8 C52 1_555 1_555
C58 C59 1_555 1_555
C61 N9 1_555 1_555
C65 C66 1_555 1_555
N10 C67 1_555 1_555
C73 C74 1_555 1_555
C76 N11 1_555 1_555
C80 C81 1_555 1_555
N12 C82 1_555 1_555
C87 C90 1_555 1_555
C88 C89 1_555 1_555

#END
