
#######################################################################
#
#                 Cambridge Crystallographic Data Centre
#                                CCDC 
#
#######################################################################
#
# If this CIF has been generated from an entry in the Cambridge 
# Structural Database, then it will include bibliographic, chemical, 
# crystal, experimental, refinement or atomic coordinate data resulting 
# from the CCDC's data processing and validation procedures.
#
#######################################################################

data_EKINOD
_chemical_formula_moiety         'C45 H60 N6,C4 H10 O1,0.5(H2 O1)'
_chemical_name_systematic        
'3,10,17,24,31,38-hexaazadecacyclo[38.2.2.2^12,15^.2^26,29^.1^3,10^.1^17,24^.1^31,38^.0^4,9^.0^18,23^.0^32,37^]henpentaconta-1(42),12,14,26,28,40,43,46,49-nonaene isobutanol clathrate hemihydrate'
_symmetry_cell_setting           triclinic
_symmetry_space_group_name_H-M   'P 1'
_symmetry_Int_Tables_number      1
_space_group_name_Hall           'P 1'
loop_
_symmetry_equiv_pos_site_id
_symmetry_equiv_pos_as_xyz
1 x,y,z
_cell_length_a                   10.9317(2)
_cell_length_b                   14.1485(3)
_cell_length_c                   16.9895(4)
_cell_angle_alpha                107.247(2)
_cell_angle_beta                 105.800(2)
_cell_angle_gamma                103.413(2)
_cell_volume                     2270.65
_exptl_crystal_colour            colorless
_exptl_crystal_description       needle
_cell_formula_units_Z            2
loop_
_atom_site_label
_atom_site_type_symbol
_atom_site_fract_x
_atom_site_fract_y
_atom_site_fract_z
C1 C 0.7248(3) 0.2290(2) 1.1285(2)
H1 H 0.7191 0.2884 1.1754
C2 C 0.6715(3) 0.1280(2) 1.14090(19)
H2 H 0.6867 0.0699 1.0985
C3 C 0.7439(3) 0.1392(3) 1.2345(2)
H3 H 0.7092 0.0726 1.2420
H4 H 0.7288 0.1958 1.2774
C4 C 0.8956(3) 0.1662(3) 1.2507(2)
H5 H 0.9459 0.1810 1.3135
H6 H 0.9103 0.1045 1.2136
C5 C 0.9526(3) 0.2614(3) 1.2295(2)
H7 H 0.9528 0.3257 1.2735
H8 H 1.0474 0.2700 1.2349
C6 C 0.8713(3) 0.2506(3) 1.1365(2)
H9 H 0.9056 0.3163 1.1276
H10 H 0.8795 0.1920 1.0913
N1 N 0.6269(3) 0.2111(2) 1.04237(18)
N2 N 0.5257(2) 0.1106(2) 1.11351(16)
C7 C 0.4980(4) 0.1377(5) 1.0346(3)
H11 H 0.4283 0.1718 1.0315
H12 H 0.4645 0.0734 0.9802
C8 C 0.4462(3) 0.0033(3) 1.0952(3)
H13 H 0.4804 -0.0135 1.1478
H14 H 0.4591 -0.0455 1.0452
C9 C 0.2963(3) -0.0150(2) 1.0724(2)
C10 C 0.2017(3) -0.1024(3) 1.0017(2)
H15 H 0.2307 -0.1493 0.9643
C11 C 0.0632(3) -0.1235(2) 0.9840(2)
H16 H -0.0003 -0.1851 0.9355
C12 C 0.0180(3) -0.0562(2) 1.03595(19)
C13 C 0.1126(3) 0.0334(3) 1.1055(2)
H17 H 0.0829 0.0818 1.1411
C14 C 0.2509(3) 0.0540(3) 1.1245(3)
H18 H 0.3143 0.1154 1.1732
C15 C -0.1311(3) -0.0795(3) 1.0207(2)
H19 H -0.1510 -0.1069 1.0648
H20 H -0.1508 -0.0130 1.0308
C16 C -0.3608(3) -0.1983(2) 0.9233(2)
H21 H -0.3890 -0.1398 0.9539
C17 C -0.4331(3) -0.2356(2) 0.8243(2)
H22 H -0.4104 -0.2975 0.7937
C18 C -0.5841(3) -0.2674(3) 0.7999(3)
H23 H -0.6300 -0.2925 0.7349
H24 H -0.6085 -0.2064 0.8285
C19 C -0.6285(3) -0.3562(3) 0.8320(3)
H25 H -0.6138 -0.4197 0.7977
H26 H -0.7264 -0.3744 0.8209
C20 C -0.5495(4) -0.3239(3) 0.9318(3)
H27 H -0.5738 -0.2665 0.9666
H28 H -0.5760 -0.3847 0.9487
C21 C -0.3963(3) -0.2869(3) 0.9547(2)
H29 H -0.3483 -0.2618 1.0195
H30 H -0.3693 -0.3457 0.9250
N3 N -0.2194(2) -0.1548(2) 0.93270(16)
N4 N -0.3677(2) -0.14524(19) 0.80698(17)
C22 C -0.2251(3) -0.1092(3) 0.8644(3)
H31 H -0.1886 -0.0314 0.8925
H32 H -0.1711 -0.1333 0.8295
C23 C -0.3843(4) -0.1688(3) 0.7146(2)
H33 H -0.4819 -0.1992 0.6777
H34 H -0.3426 -0.2224 0.6958
C24 C -0.3214(3) -0.0732(3) 0.6983(2)
C25 C -0.3422(4) 0.0203(3) 0.7345(3)
H35 H -0.3958 0.0242 0.7702
C26 C -0.2863(5) 0.1078(3) 0.7195(4)
H36 H -0.3027 0.1709 0.7448
C27 C -0.2062(4) 0.1064(3) 0.6681(3)
C28 C -0.1862(4) 0.0138(3) 0.6319(3)
H37 H -0.1332 0.0100 0.5958
C29 C -0.2426(4) -0.0753(3) 0.6472(2)
H38 H -0.2263 -0.1384 0.6218
C30 C -0.1521(5) 0.2055(4) 0.6529(4)
H39 H -0.2284 0.2157 0.6131
H40 H -0.1147 0.2663 0.7102
C31 C -0.0180(3) 0.2952(2) 0.5884(2)
H41 H -0.0178 0.3587 0.6345
C32 C 0.1248(3) 0.3099(2) 0.59219(19)
H42 H 0.1239 0.2501 0.5423
C33 C 0.1863(3) 0.4127(3) 0.5836(2)
H43 H 0.2798 0.4213 0.5856
H44 H 0.1891 0.4731 0.6328
C34 C 0.0967(3) 0.4080(3) 0.4940(2)
H45 H 0.1298 0.4765 0.4890
H46 H 0.1050 0.3534 0.4454
C35 C -0.0518(4) 0.3831(3) 0.4829(2)
H47 H -0.1051 0.3744 0.4223
H48 H -0.0619 0.4433 0.5253
C36 C -0.1093(3) 0.2833(2) 0.4981(2)
H49 H -0.2026 0.2745 0.4966
H50 H -0.1116 0.2207 0.4513
N5 N -0.0487(3) 0.2054(2) 0.61494(18)
N6 N 0.1873(3) 0.2999(2) 0.67588(17)
C37 C 0.0820(4) 0.2157(4) 0.6774(3)
H51 H 0.0803 0.2331 0.7379
H52 H 0.1001 0.1486 0.6595
C38 C 0.3101(4) 0.2745(4) 0.6818(2)
H53 H 0.3701 0.3240 0.6663
H54 H 0.2864 0.2026 0.6381
C39 C 0.3856(4) 0.2803(3) 0.7728(2)
C40 C 0.4410(3) 0.2047(3) 0.7836(2)
H55 H 0.4280 0.1464 0.7327
C41 C 0.5160(4) 0.2118(3) 0.8677(2)
H56 H 0.5530 0.1586 0.8734
C42 C 0.5362(4) 0.2964(3) 0.9425(2)
C43 C 0.4819(5) 0.3735(3) 0.9321(2)
H57 H 0.4959 0.4324 0.9828
C44 C 0.4073(5) 0.3652(4) 0.8484(3)
H58 H 0.3705 0.4184 0.8426
C45 C 0.6219(5) 0.3097(3) 1.0343(2)
H59 H 0.7151 0.3563 1.0499
H60 H 0.5854 0.3449 1.0775
C46 C 0.1839(3) 0.7063(3) 0.1834(2)
H61 H 0.1784 0.6576 0.1252
C47 C 0.1201(3) 0.6422(3) 0.2271(2)
H62 H 0.1075 0.6908 0.2782
C48 C -0.0184(4) 0.5648(3) 0.1616(3)
H63 H -0.0612 0.5214 0.1895
H64 H -0.0097 0.5174 0.1089
C49 C -0.1045(4) 0.6306(3) 0.1347(3)
H65 H -0.1917 0.5823 0.0869
H66 H -0.1245 0.6683 0.1862
C50 C -0.0369(4) 0.7096(4) 0.1030(3)
H67 H -0.0920 0.7549 0.0947
H68 H -0.0346 0.6714 0.0445
C51 C 0.1084(4) 0.7801(3) 0.1666(3)
H69 H 0.1518 0.8243 0.1395
H70 H 0.1077 0.8268 0.2229
N7 N 0.3272(3) 0.7561(2) 0.24338(18)
N8 N 0.2253(3) 0.6010(2) 0.2623(2)
C52 C 0.3463(3) 0.6973(3) 0.3013(2)
H71 H 0.3560 0.7405 0.3618
H72 H 0.4287 0.6783 0.3047
C53 C 0.1999(3) 0.5631(3) 0.3303(3)
H73 H 0.1175 0.4997 0.3011
H74 H 0.1811 0.6178 0.3725
C54 C 0.3138(3) 0.5363(3) 0.3822(3)
C55 C 0.3856(3) 0.5969(3) 0.4717(3)
H75 H 0.3687 0.6593 0.4983
C56 C 0.4812(3) 0.5690(3) 0.5235(3)
H76 H 0.5264 0.6110 0.5850
C57 C 0.5113(3) 0.4800(3) 0.4861(2)
C58 C 0.4441(4) 0.4221(3) 0.3962(2)
H77 H 0.4660 0.3627 0.3686
C59 C 0.3463(4) 0.4485(3) 0.3456(3)
H78 H 0.3001 0.4057 0.2843
C60 C 0.6087(4) 0.4434(3) 0.5420(2)
H79 H 0.5563 0.3819 0.5497
H80 H 0.6666 0.4203 0.5101
C61 C 0.7553(3) 0.4855(3) 0.6949(2)
H81 H 0.7947 0.4330 0.6680
C62 C 0.8683(3) 0.5833(2) 0.7627(2)
H82 H 0.8284 0.6344 0.7911
C63 C 0.9584(4) 0.5600(3) 0.8338(2)
H83 H 1.0318 0.6254 0.8781
H84 H 0.9994 0.5095 0.8075
C64 C 0.8682(5) 0.5124(3) 0.8780(3)
H85 H 0.9232 0.4928 0.9232
H86 H 0.8348 0.5662 0.9085
C65 C 0.7491(5) 0.4165(3) 0.8119(3)
H87 H 0.6917 0.3920 0.8429
H88 H 0.7826 0.3595 0.7873
C66 C 0.6641(4) 0.4372(3) 0.7366(3)
H89 H 0.6184 0.4860 0.7592
H90 H 0.5939 0.3705 0.6917
N9 N 0.6947(3) 0.5245(2) 0.62905(19)
N10 N 0.9273(2) 0.62274(19) 0.70577(16)
C67 C 0.8085(3) 0.6039(3) 0.6288(2)
H91 H 0.7886 0.6698 0.6339
H92 H 0.8251 0.5778 0.5732
C68 C 1.0144(4) 0.7321(2) 0.7498(2)
H93 H 1.0836 0.7410 0.8056
H94 H 0.9597 0.7762 0.7656
C69 C 1.0845(3) 0.7707(2) 0.6945(2)
C70 C 1.1265(5) 0.8771(3) 0.7088(3)
H95 H 1.1079 0.9252 0.7525
C71 C 1.1944(5) 0.9134(3) 0.6608(3)
H96 H 1.2242 0.9867 0.6733
C72 C 1.2208(3) 0.8464(3) 0.5950(3)
C73 C 1.1758(3) 0.7400(3) 0.5791(2)
H97 H 1.1911 0.6918 0.5335
C74 C 1.1091(3) 0.7023(2) 0.6282(2)
H98 H 1.0802 0.6291 0.6162
C75 C 1.2953(4) 0.8868(3) 0.5428(3)
H99 H 1.3921 0.9235 0.5807
H100 H 1.2887 0.8265 0.4919
C76 C 1.3078(3) 0.9991(3) 0.4572(3)
H101 H 1.3066 0.9390 0.4075
C77 C 1.2126(3) 1.0498(2) 0.4210(2)
H102 H 1.2223 1.1140 0.4706
C78 C 1.2440(4) 1.0835(3) 0.3499(3)
H103 H 1.1789 1.1159 0.3265
H104 H 1.2377 1.0219 0.3002
C79 C 1.3873(5) 1.1630(3) 0.3924(3)
H105 H 1.3887 1.2282 0.4359
H106 H 1.4141 1.1812 0.3462
C80 C 1.4896(5) 1.1213(4) 0.4391(4)
H107 H 1.5001 1.0642 0.3938
H108 H 1.5784 1.1787 0.4707
C81 C 1.4511(4) 1.0794(4) 0.5051(4)
H109 H 1.4543 1.1378 0.5561
H110 H 1.5150 1.0456 0.5274
N11 N 1.2417(3) 0.9586(2) 0.5103(2)
N12 N 1.0794(3) 0.9718(2) 0.39462(19)
C82 C 1.1012(3) 0.9086(3) 0.4495(2)
H111 H 1.0396 0.9083 0.4827
H112 H 1.0845 0.8350 0.4117
C83 C 0.9787(3) 1.0214(3) 0.4062(2)
H113 H 0.9954 1.0832 0.3895
H114 H 0.9910 1.0473 0.4697
C84 C 0.8346(3) 0.9501(2) 0.3529(2)
C85 C 0.7980(4) 0.8749(3) 0.2682(2)
H115 H 0.8657 0.8657 0.2444
C86 C 0.6642(4) 0.8137(3) 0.2185(2)
H116 H 0.6412 0.7627 0.1610
C87 C 0.5622(3) 0.8255(3) 0.2511(2)
C88 C 0.6000(4) 0.8991(3) 0.3359(2)
H117 H 0.5329 0.9073 0.3605
C89 C 0.7342(3) 0.9610(3) 0.3855(2)
H118 H 0.7573 1.0119 0.4431
C90 C 0.4172(4) 0.7594(3) 0.1941(2)
H119 H 0.3848 0.7876 0.1487
H120 H 0.4127 0.6867 0.1629
O1 O 0.5674(5) 0.4740(4) 0.2291(4)
C91 C 0.6276(6) 0.5779(5) 0.2927(5)
H121 H 0.5840 0.5812 0.3349
H122 H 0.6055 0.6243 0.2643
C92 C 0.7832(7) 0.7003(5) 0.4371(5)
H123 H 0.7600 0.7596 0.4302
H124 H 0.7220 0.6640 0.4583
H125 H 0.8739 0.7244 0.4790
C93 C 0.7769(8) 0.6206(6) 0.3430(7)
H126 H 0.8296 0.6526 0.3149
C94 C 0.8170(13) 0.5326(9) 0.3652(9)
H127 H 0.8140 0.4805 0.3127
H128 H 0.9069 0.5612 0.4089
H129 H 0.7550 0.5008 0.3881
O2 O 0.5362(12) 0.2778(8) 0.2644(7)
O3 O 0.3049(4) 0.4676(3) 1.1383(2)
C95 C 0.2095(9) 0.3574(6) 1.0916(6)
H130 H 0.2467 0.3148 1.1189
H131 H 0.1235 0.3542 1.0969
C96 C 0.1876(9) 0.3149(6) 0.9992(6)
H132 H 0.2757 0.3225 0.9963
C97 C 0.137(2) 0.3859(12) 0.9521(8)
H133 H 0.1903 0.4590 0.9844
H134 H 0.1371 0.3642 0.8931
H135 H 0.0456 0.3756 0.9496
C98 C 0.103(2) 0.2117(18) 0.9434(15)
H136 H 0.1384 0.1692 0.9717
H137 H 0.0119 0.2023 0.9409
H138 H 0.1034 0.1910 0.8844
H139? H 0.5586 0.5975 0.3113
H140? H 0.6631 0.6262 0.2682
C99? C 0.7426(8) 0.5859(7) 0.3724(6)
H141? H 0.7092 0.5375 0.3973
H142? H 0.8551 0.7114 0.4899
H143? H 0.8147 0.7472 0.4104
H144? H 0.7086 0.7139 0.4520
C100? C 0.8641(12) 0.5722(13) 0.3523(11)
H145? H 0.8373 0.5010 0.3112
H146? H 0.8937 0.6198 0.3256
H147? H 0.9367 0.5844 0.4050
O4? O 0.629(2) 0.533(2) 0.2190(14)
O5? O 0.4741(12) 0.2908(9) 0.2159(9)
O6? O 0.2056(15) 0.2742(11) 1.1041(9)
C101? C 0.1913(19) 0.223(2) 1.0204(10)
H148? H 0.2155 0.1615 1.0197
H149? H 0.2538 0.2648 1.0036
C102? C 0.0647(19) 0.1883(13) 0.9527(11)
H150? H 0.0004 0.1428 0.9696
C103? C 0.068(3) 0.1182(15) 0.8700(12)
H151? H 0.0998 0.0633 0.8794
H152? H -0.0226 0.0877 0.8266
H153? H 0.1258 0.1582 0.8492
C104? C 0.005(2) 0.271(2) 0.9383(12)
H154? H 0.0054 0.3156 0.9933
H155? H 0.0628 0.3112 0.9177
H156? H -0.0856 0.2407 0.8951
loop_
_geom_bond_atom_site_label_1
_geom_bond_atom_site_label_2
_geom_bond_site_symmetry_1
_geom_bond_site_symmetry_2
C1 H1 1_555 1_555
C2 C1 1_555 1_555
H2 C2 1_555 1_555
C3 C2 1_555 1_555
H3 C3 1_555 1_555
H4 C3 1_555 1_555
C4 C3 1_555 1_555
H5 C4 1_555 1_555
H6 C4 1_555 1_555
C5 C4 1_555 1_555
H7 C5 1_555 1_555
H8 C5 1_555 1_555
C6 C1 1_555 1_555
H9 C6 1_555 1_555
H10 C6 1_555 1_555
N1 C1 1_555 1_555
N2 C2 1_555 1_555
C7 N1 1_555 1_555
H11 C7 1_555 1_555
H12 C7 1_555 1_555
C8 N2 1_555 1_555
H13 C8 1_555 1_555
H14 C8 1_555 1_555
C9 C8 1_555 1_555
C10 C9 1_555 1_555
H15 C10 1_555 1_555
C11 C10 1_555 1_555
H16 C11 1_555 1_555
C12 C11 1_555 1_555
C13 C12 1_555 1_555
H17 C13 1_555 1_555
C14 C9 1_555 1_555
H18 C14 1_555 1_555
C15 C12 1_555 1_555
H19 C15 1_555 1_555
H20 C15 1_555 1_555
C16 H21 1_555 1_555
C17 C16 1_555 1_555
H22 C17 1_555 1_555
C18 C17 1_555 1_555
H23 C18 1_555 1_555
H24 C18 1_555 1_555
C19 C18 1_555 1_555
H25 C19 1_555 1_555
H26 C19 1_555 1_555
C20 C19 1_555 1_555
H27 C20 1_555 1_555
H28 C20 1_555 1_555
C21 C16 1_555 1_555
H29 C21 1_555 1_555
H30 C21 1_555 1_555
N3 C15 1_555 1_555
N4 C17 1_555 1_555
C22 N3 1_555 1_555
H31 C22 1_555 1_555
H32 C22 1_555 1_555
C23 N4 1_555 1_555
H33 C23 1_555 1_555
H34 C23 1_555 1_555
C24 C23 1_555 1_555
C25 C24 1_555 1_555
H35 C25 1_555 1_555
C26 C25 1_555 1_555
H36 C26 1_555 1_555
C27 C26 1_555 1_555
C28 C27 1_555 1_555
H37 C28 1_555 1_555
C29 C24 1_555 1_555
H38 C29 1_555 1_555
C30 C27 1_555 1_555
H39 C30 1_555 1_555
H40 C30 1_555 1_555
C31 H41 1_555 1_555
C32 C31 1_555 1_555
H42 C32 1_555 1_555
C33 C32 1_555 1_555
H43 C33 1_555 1_555
H44 C33 1_555 1_555
C34 C33 1_555 1_555
H45 C34 1_555 1_555
H46 C34 1_555 1_555
C35 C34 1_555 1_555
H47 C35 1_555 1_555
H48 C35 1_555 1_555
C36 C31 1_555 1_555
H49 C36 1_555 1_555
H50 C36 1_555 1_555
N5 C30 1_555 1_555
N6 C32 1_555 1_555
C37 N5 1_555 1_555
H51 C37 1_555 1_555
H52 C37 1_555 1_555
C38 N6 1_555 1_555
H53 C38 1_555 1_555
H54 C38 1_555 1_555
C39 C38 1_555 1_555
C40 C39 1_555 1_555
H55 C40 1_555 1_555
C41 C40 1_555 1_555
H56 C41 1_555 1_555
C42 C41 1_555 1_555
C43 C42 1_555 1_555
H57 C43 1_555 1_555
C44 C39 1_555 1_555
H58 C44 1_555 1_555
C45 N1 1_555 1_555
H59 C45 1_555 1_555
H60 C45 1_555 1_555
C46 H61 1_555 1_555
C47 C46 1_555 1_555
H62 C47 1_555 1_555
C48 C47 1_555 1_555
H63 C48 1_555 1_555
H64 C48 1_555 1_555
C49 C48 1_555 1_555
H65 C49 1_555 1_555
H66 C49 1_555 1_555
C50 C49 1_555 1_555
H67 C50 1_555 1_555
H68 C50 1_555 1_555
C51 C46 1_555 1_555
H69 C51 1_555 1_555
H70 C51 1_555 1_555
N7 C46 1_555 1_555
N8 C47 1_555 1_555
C52 N7 1_555 1_555
H71 C52 1_555 1_555
H72 C52 1_555 1_555
C53 N8 1_555 1_555
H73 C53 1_555 1_555
H74 C53 1_555 1_555
C54 C53 1_555 1_555
C55 C54 1_555 1_555
H75 C55 1_555 1_555
C56 C55 1_555 1_555
H76 C56 1_555 1_555
C57 C56 1_555 1_555
C58 C57 1_555 1_555
H77 C58 1_555 1_555
C59 C54 1_555 1_555
H78 C59 1_555 1_555
C60 C57 1_555 1_555
H79 C60 1_555 1_555
H80 C60 1_555 1_555
C61 H81 1_555 1_555
C62 C61 1_555 1_555
H82 C62 1_555 1_555
C63 C62 1_555 1_555
H83 C63 1_555 1_555
H84 C63 1_555 1_555
C64 C63 1_555 1_555
H85 C64 1_555 1_555
H86 C64 1_555 1_555
C65 C64 1_555 1_555
H87 C65 1_555 1_555
H88 C65 1_555 1_555
C66 C61 1_555 1_555
H89 C66 1_555 1_555
H90 C66 1_555 1_555
N9 C60 1_555 1_555
N10 C62 1_555 1_555
C67 N9 1_555 1_555
H91 C67 1_555 1_555
H92 C67 1_555 1_555
C68 N10 1_555 1_555
H93 C68 1_555 1_555
H94 C68 1_555 1_555
C69 C68 1_555 1_555
C70 C69 1_555 1_555
H95 C70 1_555 1_555
C71 C70 1_555 1_555
H96 C71 1_555 1_555
C72 C71 1_555 1_555
C73 C72 1_555 1_555
H97 C73 1_555 1_555
C74 C69 1_555 1_555
H98 C74 1_555 1_555
C75 C72 1_555 1_555
H99 C75 1_555 1_555
H100 C75 1_555 1_555
C76 H101 1_555 1_555
C77 C76 1_555 1_555
H102 C77 1_555 1_555
C78 C77 1_555 1_555
H103 C78 1_555 1_555
H104 C78 1_555 1_555
C79 C78 1_555 1_555
H105 C79 1_555 1_555
H106 C79 1_555 1_555
C80 C79 1_555 1_555
H107 C80 1_555 1_555
H108 C80 1_555 1_555
C81 C76 1_555 1_555
H109 C81 1_555 1_555
H110 C81 1_555 1_555
N11 C75 1_555 1_555
N12 C77 1_555 1_555
C82 N11 1_555 1_555
H111 C82 1_555 1_555
H112 C82 1_555 1_555
C83 N12 1_555 1_555
H113 C83 1_555 1_555
H114 C83 1_555 1_555
C84 C83 1_555 1_555
C85 C84 1_555 1_555
H115 C85 1_555 1_555
C86 C85 1_555 1_555
H116 C86 1_555 1_555
C87 C86 1_555 1_555
C88 C87 1_555 1_555
H117 C88 1_555 1_555
C89 C84 1_555 1_555
H118 C89 1_555 1_555
C90 N7 1_555 1_555
H119 C90 1_555 1_555
H120 C90 1_555 1_555
O1 C91 1_555 1_555
C91 H121 1_555 1_555
H122 C91 1_555 1_555
C92 H123 1_555 1_555
H124 C92 1_555 1_555
H125 C92 1_555 1_555
C93 C91 1_555 1_555
H126 C93 1_555 1_555
C94 C93 1_555 1_555
H127 C94 1_555 1_555
H128 C94 1_555 1_555
H129 C94 1_555 1_555
O3 C95 1_555 1_555
C95 H130 1_555 1_555
H131 C95 1_555 1_555
C96 C95 1_555 1_555
H132 C96 1_555 1_555
C97 C96 1_555 1_555
H133 C97 1_555 1_555
H134 C97 1_555 1_555
H135 C97 1_555 1_555
C98 C96 1_555 1_555
H136 C98 1_555 1_555
H137 C98 1_555 1_555
H138 C98 1_555 1_555
C5 C6 1_555 1_555
N2 C7 1_555 1_555
C13 C14 1_555 1_555
C16 N3 1_555 1_555
C20 C21 1_555 1_555
N4 C22 1_555 1_555
C28 C29 1_555 1_555
C31 N5 1_555 1_555
C35 C36 1_555 1_555
N6 C37 1_555 1_555
C42 C45 1_555 1_555
C43 C44 1_555 1_555
C50 C51 1_555 1_555
N8 C52 1_555 1_555
C58 C59 1_555 1_555
C61 N9 1_555 1_555
C65 C66 1_555 1_555
N10 C67 1_555 1_555
C73 C74 1_555 1_555
C76 N11 1_555 1_555
C80 C81 1_555 1_555
N12 C82 1_555 1_555
C87 C90 1_555 1_555
C88 C89 1_555 1_555
C92 C93 1_555 1_555

#END
