
#######################################################################
#
#                 Cambridge Crystallographic Data Centre
#                                CCDC 
#
#######################################################################
#
# If this CIF has been generated from an entry in the Cambridge 
# Structural Database, then it will include bibliographic, chemical, 
# crystal, experimental, refinement or atomic coordinate data resulting 
# from the CCDC's data processing and validation procedures.
#
#######################################################################

data_EKIPUL01
_chemical_formula_moiety         'C45 H60 N6'
_chemical_name_systematic        
3,10,17,24,31,38-hexaazadecacyclo[38.2.2.2^12,15^.2^26,29^.1^3,10^.1^17,24^.1^31,38^.0^4,9^.0^18,23^.0^32,37^]henpentaconta-1(42),12,14,26,28,40,43,46,49-nonaene
_symmetry_cell_setting           orthorhombic
_symmetry_space_group_name_H-M   'P 21 21 21'
_symmetry_Int_Tables_number      19
_space_group_name_Hall           'P 2ac 2ab'
loop_
_symmetry_equiv_pos_site_id
_symmetry_equiv_pos_as_xyz
1 x,y,z
2 1/2-x,-y,1/2+z
3 1/2+x,1/2-y,-z
4 -x,1/2+y,1/2-z
_cell_length_a                   9.52070(10)
_cell_length_b                   16.5265(2)
_cell_length_c                   26.1919(4)
_cell_angle_alpha                90
_cell_angle_beta                 90
_cell_angle_gamma                90
_cell_volume                     4121.13
_exptl_crystal_colour            colorless
_exptl_crystal_description       block
_cell_formula_units_Z            4
loop_
_atom_site_label
_atom_site_type_symbol
_atom_site_fract_x
_atom_site_fract_y
_atom_site_fract_z
C1 C 0.65000(16) 0.78003(9) 0.97178(6)
H1 H 0.5456 0.7794 0.9758
C2 C 0.71628(17) 0.78225(9) 1.02401(6)
H2 H 0.8205 0.7870 1.0202
C3 C 0.6623(2) 0.85420(11) 1.05414(7)
H3 H 0.7067 0.8556 1.0883
H4 H 0.5593 0.8500 1.0587
C4 C 0.6989(2) 0.93152(11) 1.02431(8)
H5 H 0.6579 0.9788 1.0421
H6 H 0.8022 0.9384 1.0239
C5 C 0.6446(2) 0.92970(11) 0.96932(8)
H7 H 0.6795 0.9781 0.9510
H8 H 0.5407 0.9323 0.9697
C6 C 0.6907(2) 0.85363(10) 0.94029(7)
H9 H 0.6440 0.8516 0.9065
H10 H 0.7935 0.8545 0.9348
C7 C 0.7040(2) 0.64852(11) 0.99821(6)
H11 H 0.7972 0.6221 1.0002
H12 H 0.6308 0.6060 0.9969
N1 N 0.69566(14) 0.70053(8) 0.95275(5)
N2 N 0.68189(15) 0.70136(8) 1.04278(5)
C8 C 0.76233(19) 0.67718(11) 1.08737(7)
H13 H 0.7605 0.7219 1.1125
H14 H 0.8613 0.6688 1.0771
C9 C 0.70948(18) 0.60110(10) 1.11284(6)
C10 C 0.7910(2) 0.56426(12) 1.15007(8)
H15 H 0.8819 0.5850 1.1574
C11 C 0.7417(2) 0.49750(13) 1.17684(8)
H16 H 0.7982 0.4739 1.2027
C12 C 0.6105(2) 0.46499(11) 1.16614(7)
C13 C 0.53123(19) 0.50042(12) 1.12805(8)
H17 H 0.4423 0.4781 1.1196
C14 C 0.57915(19) 0.56814(12) 1.10188(7)
H18 H 0.5220 0.5921 1.0763
C15 C 0.5556(2) 0.39482(12) 1.19688(9)
H19 H 0.5465 0.4115 1.2330
H20 H 0.4608 0.3802 1.1843
C16 C 0.61554(18) 0.26168(10) 1.23188(7)
H21 H 0.5125 0.2499 1.2312
C17 C 0.69328(18) 0.19060(10) 1.20972(7)
H22 H 0.7964 0.2016 1.2116
C18 C 0.6618(2) 0.11352(12) 1.23915(7)
H23 H 0.7162 0.0678 1.2249
H24 H 0.5606 0.1003 1.2368
C19 C 0.7037(3) 0.12833(14) 1.29515(8)
H25 H 0.6787 0.0802 1.3157
H26 H 0.8068 0.1356 1.2972
C20 C 0.6315(3) 0.20249(15) 1.31764(8)
H27 H 0.6655 0.2109 1.3530
H28 H 0.5291 0.1926 1.3192
C21 C 0.6591(2) 0.27906(13) 1.28641(7)
H29 H 0.6041 0.3249 1.3003
H30 H 0.7600 0.2934 1.2878
C22 C 0.6360(2) 0.28178(11) 1.14480(7)
H31 H 0.7122 0.2994 1.1216
H32 H 0.5446 0.2934 1.1283
N3 N 0.64641(16) 0.32380(9) 1.19393(6)
N4 N 0.64886(15) 0.19455(9) 1.15618(5)
C23 C 0.74339(19) 0.15310(12) 1.12132(7)
H33 H 0.7547 0.0964 1.1327
H34 H 0.8368 0.1793 1.1228
C24 C 0.69240(19) 0.15346(10) 1.06652(7)
C25 C 0.5499(2) 0.14990(12) 1.05493(7)
H35 H 0.4828 0.1482 1.0818
C26 C 0.50471(19) 0.14887(13) 1.00463(7)
H36 H 0.4069 0.1471 0.9975
C27 C 0.59978(19) 0.15043(10) 0.96441(7)
C28 C 0.74206(19) 0.15340(11) 0.97592(7)
H37 H 0.8091 0.1540 0.9491
C29 C 0.78730(18) 0.15555(11) 1.02638(7)
H38 H 0.8850 0.1585 1.0335
C30 C 0.54567(19) 0.14625(12) 0.91012(7)
H39 H 0.5240 0.0892 0.9017
H40 H 0.4570 0.1774 0.9079
C31 C 0.59600(17) 0.16610(9) 0.81962(6)
H41 H 0.4942 0.1804 0.8173
C32 C 0.68122(17) 0.22946(9) 0.79188(6)
H42 H 0.7824 0.2132 0.7926
C33 C 0.6346(2) 0.23789(11) 0.73671(7)
H43 H 0.6932 0.2786 0.7190
H44 H 0.5354 0.2556 0.7352
C34 C 0.6512(2) 0.15480(12) 0.71106(7)
H45 H 0.6137 0.1577 0.6759
H46 H 0.7524 0.1414 0.7088
C35 C 0.5754(2) 0.08739(12) 0.73996(8)
H47 H 0.5961 0.0349 0.7234
H48 H 0.4728 0.0966 0.7378
C36 C 0.61864(19) 0.08294(10) 0.79630(7)
H49 H 0.5610 0.0422 0.8144
H50 H 0.7186 0.0671 0.7992
C37 C 0.6683(2) 0.26559(10) 0.87732(7)
H51 H 0.5953 0.2905 0.8992
H52 H 0.7614 0.2761 0.8928
N5 N 0.64390(15) 0.17758(8) 0.87243(5)
N6 N 0.66181(14) 0.29922(8) 0.82534(5)
C38 C 0.76292(18) 0.36421(10) 0.81716(7)
H53 H 0.7693 0.3759 0.7802
H54 H 0.8567 0.3461 0.8288
C39 C 0.72338(16) 0.44089(9) 0.84521(6)
C40 C 0.82506(17) 0.49771(10) 0.85865(7)
H55 H 0.9213 0.4866 0.8521
C41 C 0.78741(17) 0.57045(10) 0.88150(7)
H56 H 0.8581 0.6088 0.8899
C42 C 0.64735(17) 0.58783(9) 0.89220(6)
C43 C 0.54725(17) 0.52951(10) 0.88063(7)
H57 H 0.4517 0.5391 0.8891
C44 C 0.58428(17) 0.45762(10) 0.85700(7)
H58 H 0.5135 0.4193 0.8488
C45 C 0.60166(19) 0.66844(10) 0.91375(7)
H59 H 0.5951 0.7080 0.8855
H60 H 0.5066 0.6624 0.9286
loop_
_geom_bond_atom_site_label_1
_geom_bond_atom_site_label_2
_geom_bond_site_symmetry_1
_geom_bond_site_symmetry_2
C1 H1 1_555 1_555
C2 C1 1_555 1_555
H2 C2 1_555 1_555
C3 C2 1_555 1_555
H3 C3 1_555 1_555
H4 C3 1_555 1_555
C4 C3 1_555 1_555
H5 C4 1_555 1_555
H6 C4 1_555 1_555
C5 C4 1_555 1_555
H7 C5 1_555 1_555
H8 C5 1_555 1_555
C6 C1 1_555 1_555
H9 C6 1_555 1_555
H10 C6 1_555 1_555
C7 H11 1_555 1_555
H12 C7 1_555 1_555
N1 C1 1_555 1_555
N2 C2 1_555 1_555
C8 N2 1_555 1_555
H13 C8 1_555 1_555
H14 C8 1_555 1_555
C9 C8 1_555 1_555
C10 C9 1_555 1_555
H15 C10 1_555 1_555
C11 C10 1_555 1_555
H16 C11 1_555 1_555
C12 C11 1_555 1_555
C13 C12 1_555 1_555
H17 C13 1_555 1_555
C14 C9 1_555 1_555
H18 C14 1_555 1_555
C15 C12 1_555 1_555
H19 C15 1_555 1_555
H20 C15 1_555 1_555
C16 H21 1_555 1_555
C17 C16 1_555 1_555
H22 C17 1_555 1_555
C18 C17 1_555 1_555
H23 C18 1_555 1_555
H24 C18 1_555 1_555
C19 C18 1_555 1_555
H25 C19 1_555 1_555
H26 C19 1_555 1_555
C20 C19 1_555 1_555
H27 C20 1_555 1_555
H28 C20 1_555 1_555
C21 C16 1_555 1_555
H29 C21 1_555 1_555
H30 C21 1_555 1_555
C22 H31 1_555 1_555
H32 C22 1_555 1_555
N3 C15 1_555 1_555
N4 C17 1_555 1_555
C23 N4 1_555 1_555
H33 C23 1_555 1_555
H34 C23 1_555 1_555
C24 C23 1_555 1_555
C25 C24 1_555 1_555
H35 C25 1_555 1_555
C26 C25 1_555 1_555
H36 C26 1_555 1_555
C27 C26 1_555 1_555
C28 C27 1_555 1_555
H37 C28 1_555 1_555
C29 C24 1_555 1_555
H38 C29 1_555 1_555
C30 C27 1_555 1_555
H39 C30 1_555 1_555
H40 C30 1_555 1_555
C31 H41 1_555 1_555
C32 C31 1_555 1_555
H42 C32 1_555 1_555
C33 C32 1_555 1_555
H43 C33 1_555 1_555
H44 C33 1_555 1_555
C34 C33 1_555 1_555
H45 C34 1_555 1_555
H46 C34 1_555 1_555
C35 C34 1_555 1_555
H47 C35 1_555 1_555
H48 C35 1_555 1_555
C36 C31 1_555 1_555
H49 C36 1_555 1_555
H50 C36 1_555 1_555
C37 H51 1_555 1_555
H52 C37 1_555 1_555
N5 C30 1_555 1_555
N6 C32 1_555 1_555
C38 N6 1_555 1_555
H53 C38 1_555 1_555
H54 C38 1_555 1_555
C39 C38 1_555 1_555
C40 C39 1_555 1_555
H55 C40 1_555 1_555
C41 C40 1_555 1_555
H56 C41 1_555 1_555
C42 C41 1_555 1_555
C43 C42 1_555 1_555
H57 C43 1_555 1_555
C44 C39 1_555 1_555
H58 C44 1_555 1_555
C45 N1 1_555 1_555
H59 C45 1_555 1_555
H60 C45 1_555 1_555
C5 C6 1_555 1_555
C7 N1 1_555 1_555
C7 N2 1_555 1_555
C13 C14 1_555 1_555
C16 N3 1_555 1_555
C20 C21 1_555 1_555
C22 N3 1_555 1_555
C22 N4 1_555 1_555
C28 C29 1_555 1_555
C31 N5 1_555 1_555
C35 C36 1_555 1_555
C37 N5 1_555 1_555
C37 N6 1_555 1_555
C42 C45 1_555 1_555
C43 C44 1_555 1_555

#END
