
#######################################################################
#
#                 Cambridge Crystallographic Data Centre
#                                CCDC 
#
#######################################################################
#
# If this CIF has been generated from an entry in the Cambridge 
# Structural Database, then it will include bibliographic, chemical, 
# crystal, experimental, refinement or atomic coordinate data resulting 
# from the CCDC's data processing and validation procedures.
#
#######################################################################

data_EKIPAR
_chemical_formula_moiety         'C45 H60 N6,0.5(C6 H14 O1),0.1(H2 O1)'
_chemical_name_systematic        
'3,10,17,24,31,38-hexaazadecacyclo[38.2.2.2^12,15^.2^26,29^.1^3,10^.1^17,24^.1^31,38^.0^4,9^.0^18,23^.0^32,37^]henpentaconta-1(42),12,14,26,28,40,43,46,49-nonaene hemikis(hexan-1-ol) clathrate hydrate'
_symmetry_cell_setting           monoclinic
_symmetry_space_group_name_H-M   'C 2'
_symmetry_Int_Tables_number      5
_space_group_name_Hall           'C 2y'
loop_
_symmetry_equiv_pos_site_id
_symmetry_equiv_pos_as_xyz
1 x,y,z
2 -x,y,-z
3 1/2+x,1/2+y,z
4 1/2-x,1/2+y,-z
_cell_length_a                   35.0040(6)
_cell_length_b                   11.7755(2)
_cell_length_c                   22.6927(4)
_cell_angle_alpha                90
_cell_angle_beta                 114.094(2)
_cell_angle_gamma                90
_cell_volume                     8538.77
_exptl_crystal_colour            colorless
_exptl_crystal_description       rod
_cell_formula_units_Z            8
loop_
_atom_site_label
_atom_site_type_symbol
_atom_site_fract_x
_atom_site_fract_y
_atom_site_fract_z
C1 C 0.32061(10) -0.0568(3) -0.07291(14)
H1 H 0.3226 0.0133 -0.0964
C2 C 0.35635(10) -0.1349(3) -0.06596(14)
H2 H 0.3535 -0.2063 -0.0443
C3 C 0.35646(12) -0.1654(3) -0.13082(15)
H3 H 0.3790 -0.2207 -0.1250
H4 H 0.3613 -0.0967 -0.1519
C4 C 0.31358(14) -0.2174(4) -0.17267(17)
H5 H 0.3120 -0.2298 -0.2168
H6 H 0.3114 -0.2926 -0.1547
C5 C 0.27651(12) -0.1449(4) -0.17703(16)
H7 H 0.2503 -0.1871 -0.2011
H8 H 0.2759 -0.0747 -0.2014
C6 C 0.27858(11) -0.1127(3) -0.11019(15)
H9 H 0.2556 -0.0597 -0.1147
H10 H 0.2757 -0.1815 -0.0872
N1 N 0.33082(9) -0.0277(3) -0.00568(12)
N2 N 0.39199(8) -0.0701(2) -0.02046(11)
C7 C 0.37651(12) -0.0229(6) 0.0248(2)
H11 H 0.3860 0.0566 0.0353
H12 H 0.3872 -0.0675 0.0653
C8 C 0.42955(11) -0.1384(3) 0.01038(18)
H13 H 0.4365 -0.1739 -0.0235
H14 H 0.4236 -0.2002 0.0350
C9 C 0.46707(10) -0.0722(3) 0.05542(15)
C10 C 0.49818(14) -0.1262(3) 0.1065(2)
H15 H 0.4947 -0.2040 0.1142
C11 C 0.53435(13) -0.0711(3) 0.1470(2)
H16 H 0.5552 -0.1115 0.1814
C12 C 0.54021(10) 0.0432(3) 0.13755(14)
C13 C 0.50887(10) 0.0986(3) 0.08756(15)
H17 H 0.5119 0.1771 0.0808
C14 C 0.47280(10) 0.0417(3) 0.04657(14)
H18 H 0.4519 0.0818 0.0121
C15 C 0.58045(10) 0.1034(3) 0.17931(15)
H19 H 0.6008 0.0947 0.1595
H20 H 0.5747 0.1855 0.1805
C16 C 0.64212(9) 0.0975(3) 0.28261(15)
H21 H 0.6446 0.1786 0.2716
C17 C 0.64545(8) 0.0920(3) 0.35076(14)
H22 H 0.6450 0.0106 0.3629
C18 C 0.68581(9) 0.1456(3) 0.39767(15)
H23 H 0.6876 0.1411 0.4423
H24 H 0.6870 0.2266 0.3867
C19 C 0.72207(10) 0.0795(4) 0.39216(18)
H25 H 0.7489 0.1156 0.4202
H26 H 0.7222 0.0009 0.4077
C20 C 0.71875(10) 0.0758(4) 0.32265(18)
H27 H 0.7228 0.1533 0.3094
H28 H 0.7414 0.0272 0.3212
C21 C 0.67656(10) 0.0299(3) 0.27469(16)
H29 H 0.6744 0.0375 0.2300
H30 H 0.6739 -0.0515 0.2833
N3 N 0.59910(8) 0.0597(2) 0.24537(12)
N4 N 0.60590(7) 0.1449(2) 0.34302(12)
C22 C 0.57555(10) 0.0905(3) 0.28415(15)
H31 H 0.5525 0.1436 0.2600
H32 H 0.5635 0.0219 0.2952
C23 C 0.59563(9) 0.1297(3) 0.39814(14)
H33 H 0.6193 0.1570 0.4374
H34 H 0.5920 0.0476 0.4038
C24 C 0.55628(9) 0.1920(3) 0.39155(14)
C25 C 0.53206(9) 0.1505(3) 0.42238(15)
H35 H 0.5401 0.0824 0.4468
C26 C 0.49603(10) 0.2075(3) 0.41791(15)
H36 H 0.4799 0.1779 0.4393
C27 C 0.48356(9) 0.3072(3) 0.38241(15)
C28 C 0.50763(10) 0.3482(3) 0.35153(17)
H37 H 0.4994 0.4161 0.3269
C29 C 0.54377(10) 0.2916(3) 0.35591(16)
H38 H 0.5599 0.3213 0.3344
C30 C 0.44591(10) 0.3724(3) 0.38058(18)
H39 H 0.4541 0.4187 0.4203
H40 H 0.4363 0.4249 0.3433
C31 C 0.37877(9) 0.3541(3) 0.38882(14)
H41 H 0.3718 0.4280 0.3652
C32 C 0.34271(9) 0.2729(2) 0.35767(13)
H42 H 0.3489 0.2011 0.3834
C33 C 0.30253(9) 0.3229(3) 0.35581(15)
H43 H 0.2790 0.2695 0.3347
H44 H 0.2960 0.3949 0.3311
C34 C 0.30883(10) 0.3447(3) 0.42598(16)
H45 H 0.3125 0.2712 0.4488
H46 H 0.2835 0.3816 0.4262
C35 C 0.34714(11) 0.4208(4) 0.46223(17)
H47 H 0.3416 0.4980 0.4433
H48 H 0.3514 0.4269 0.5080
C36 C 0.38720(10) 0.3745(3) 0.45895(15)
H49 H 0.4103 0.4299 0.4782
H50 H 0.3956 0.3026 0.4835
N5 N 0.41152(7) 0.2977(2) 0.37547(12)
N6 N 0.34490(7) 0.2501(2) 0.29579(11)
C37 C 0.39000(10) 0.2462(3) 0.31099(16)
H51 H 0.3962 0.2894 0.2785
H52 H 0.3993 0.1667 0.3113
C38 C 0.32290(10) 0.1474(3) 0.26435(14)
H53 H 0.2939 0.1508 0.2615
H54 H 0.3368 0.0812 0.2915
C39 C 0.32128(9) 0.1296(3) 0.19757(14)
C40 C 0.32440(10) 0.0213(3) 0.17602(15)
H55 H 0.3287 -0.0416 0.2043
C41 C 0.32139(10) 0.0033(3) 0.11385(15)
H56 H 0.3235 -0.0718 0.1001
C42 C 0.31530(9) 0.0941(3) 0.07121(14)
C43 C 0.31242(11) 0.2026(3) 0.09296(15)
H57 H 0.3085 0.2657 0.0650
C44 C 0.31512(11) 0.2201(3) 0.15494(16)
H58 H 0.3127 0.2950 0.1686
C45 C 0.31058(11) 0.0753(3) 0.00238(16)
H59 H 0.2804 0.0716 -0.0264
H60 H 0.3226 0.1412 -0.0112
C46 C 0.33242(10) 0.4577(3) -0.05462(13)
H61 H 0.3374 0.5307 -0.0729
C47 C 0.36803(10) 0.3780(3) -0.04554(14)
H62 H 0.3623 0.3031 -0.0299
C48 C 0.37291(13) 0.3598(4) -0.10835(17)
H63 H 0.3960 0.3057 -0.1016
H64 H 0.3797 0.4327 -0.1237
C49 C 0.33163(14) 0.3125(4) -0.15836(18)
H65 H 0.3335 0.3065 -0.2006
H66 H 0.3272 0.2351 -0.1452
C50 C 0.29421(13) 0.3866(5) -0.16574(17)
H67 H 0.2682 0.3491 -0.1958
H68 H 0.2966 0.4602 -0.1851
C51 C 0.29089(11) 0.4088(4) -0.10107(15)
H69 H 0.2680 0.4631 -0.1073
H70 H 0.2849 0.3371 -0.0837
N7 N 0.33823(8) 0.4775(2) 0.01202(11)
N8 N 0.40259(8) 0.4339(2) 0.00717(12)
C52 C 0.38390(11) 0.4917(4) 0.04581(17)
H71 H 0.3913 0.5733 0.0501
H72 H 0.3941 0.4579 0.0895
C53 C 0.43664(11) 0.3573(3) 0.04416(19)
H73 H 0.4434 0.3090 0.0140
H74 H 0.4274 0.3070 0.0708
C54 C 0.47569(10) 0.4207(3) 0.08778(16)
C55 C 0.50116(12) 0.3802(3) 0.14866(17)
H75 H 0.4934 0.3130 0.1642
C56 C 0.53771(11) 0.4359(3) 0.18713(15)
H76 H 0.5550 0.4053 0.2281
C57 C 0.54933(10) 0.5356(3) 0.16659(14)
C58 C 0.52407(11) 0.5765(3) 0.10613(16)
H77 H 0.5317 0.6443 0.0909
C59 C 0.48757(11) 0.5199(4) 0.06710(16)
H78 H 0.4706 0.5496 0.0257
C60 C 0.58894(10) 0.5985(3) 0.20776(15)
H79 H 0.6119 0.5723 0.1964
H80 H 0.5848 0.6806 0.1977
C61 C 0.64132(9) 0.6355(3) 0.31668(14)
H81 H 0.6405 0.7173 0.3044
C62 C 0.64010(9) 0.6272(3) 0.38235(14)
H82 H 0.6426 0.5457 0.3956
C63 C 0.67586(10) 0.6938(4) 0.43274(16)
H83 H 0.6753 0.6849 0.4757
H84 H 0.6731 0.7756 0.4216
C64 C 0.71731(10) 0.6472(4) 0.43386(17)
H85 H 0.7408 0.6944 0.4632
H86 H 0.7216 0.5688 0.4511
C65 C 0.71773(10) 0.6467(4) 0.36693(17)
H87 H 0.7170 0.7261 0.3521
H88 H 0.7442 0.6119 0.3698
C66 C 0.68102(10) 0.5821(3) 0.31749(15)
H89 H 0.6815 0.5876 0.2743
H90 H 0.6825 0.5009 0.3296
N9 N 0.60133(8) 0.5826(2) 0.27681(12)
N10 N 0.59755(7) 0.6668(2) 0.36864(12)
C67 C 0.57234(9) 0.6369(3) 0.30063(15)
H91 H 0.5597 0.7058 0.2751
H92 H 0.5496 0.5838 0.2973
C68 C 0.58060(9) 0.6224(3) 0.41293(14)
H93 H 0.6022 0.6288 0.4576
H94 H 0.5740 0.5409 0.4036
C69 C 0.54156(9) 0.6838(3) 0.40832(13)
C70 C 0.53620(10) 0.7986(3) 0.39434(18)
H95 H 0.5566 0.8391 0.3851
C71 C 0.50117(11) 0.8551(3) 0.39377(19)
H96 H 0.4981 0.9340 0.3842
C72 C 0.47065(9) 0.7994(3) 0.40684(14)
C73 C 0.47573(10) 0.6842(3) 0.42030(14)
H97 H 0.4553 0.6438 0.4293
C74 C 0.51073(9) 0.6275(3) 0.42066(15)
H98 H 0.5136 0.5484 0.4296
C75 C 0.43431(10) 0.8658(3) 0.40975(17)
H99 H 0.4423 0.8930 0.4545
H100 H 0.4292 0.9334 0.3816
C76 C 0.36207(9) 0.8667(3) 0.39655(13)
H101 H 0.3598 0.9416 0.3746
C77 C 0.32427(9) 0.7959(3) 0.35718(13)
H102 H 0.3252 0.7240 0.3812
C78 C 0.28427(10) 0.8590(3) 0.34704(15)
H103 H 0.2596 0.8126 0.3209
H104 H 0.2829 0.9314 0.3241
C79 C 0.28469(10) 0.8823(3) 0.41400(15)
H105 H 0.2597 0.9276 0.4089
H106 H 0.2831 0.8093 0.4345
C80 C 0.32398(11) 0.9463(3) 0.45812(15)
H107 H 0.3240 0.9529 0.5016
H108 H 0.3232 1.0241 0.4411
C81 C 0.36445(10) 0.8877(3) 0.46381(14)
H109 H 0.3888 0.9364 0.4883
H110 H 0.3679 0.8147 0.4871
N11 N 0.39562(8) 0.8013(2) 0.39013(11)
N12 N 0.33191(8) 0.7683(2) 0.29998(12)
C82 C 0.37776(10) 0.7706(4) 0.32105(15)
H111 H 0.3857 0.8274 0.2959
H112 H 0.3881 0.6952 0.3149
C83 C 0.31293(11) 0.6606(3) 0.27087(15)
H113 H 0.2833 0.6603 0.2648
H114 H 0.3274 0.5982 0.3010
C84 C 0.31488(9) 0.6378(3) 0.20647(13)
C85 C 0.33037(10) 0.5362(3) 0.19405(14)
H115 H 0.3407 0.4805 0.2271
C86 C 0.33104(10) 0.5144(3) 0.13417(14)
H116 H 0.3419 0.4444 0.1269
C87 C 0.31596(9) 0.5945(3) 0.08474(13)
C88 C 0.30026(10) 0.6968(3) 0.09720(14)
H117 H 0.2899 0.7527 0.0643
C89 C 0.29960(10) 0.7175(3) 0.15699(14)
H118 H 0.2886 0.7873 0.1643
C90 C 0.31482(11) 0.5760(3) 0.01795(14)
H119 H 0.2853 0.5675 -0.0130
H120 H 0.3261 0.6446 0.0054
C91 C 0.4410(2) 1.1217(6) 0.2042(3)
H121 H 0.4396 1.1185 0.1598
H122 H 0.4119 1.1305 0.1999
H123 H 0.4590 1.1814 0.2293
C92 C 0.4554(2) 1.0087(7) 0.2337(4)
H124 H 0.4848 1.0006 0.2390
H125 H 0.4561 1.0120 0.2777
C93 C 0.43409(14) 0.9025(5) 0.2048(2)
H126 H 0.4064 0.9043 0.2069
H127 H 0.4287 0.9055 0.1584
C94 C 0.45192(16) 0.7928(6) 0.2280(3)
H128 H 0.4579 0.7898 0.2746
H129 H 0.4792 0.7893 0.2246
C95 C 0.42867(17) 0.6881(6) 0.1981(3)
H130 H 0.4018 0.6897 0.2028
H131 H 0.4219 0.6918 0.1513
C96 C 0.44814(18) 0.5784(6) 0.2215(3)
H132 H 0.4641 0.5893 0.2685
H133 H 0.4694 0.5690 0.2035
O1 O 0.4285(3) 0.4646(9) 0.2164(6)
O2 O 0.6381(7) 0.363(2) 0.3306(11)
H134? H 0.4283 0.5172 0.2108
H135? H 0.4324 0.5169 0.1949
H136? H 0.4765 0.5754 0.2257
O3? O 0.4604(3) 1.2183(9) 0.2291(5)
O4? O 0.4461(6) 0.5773(18) 0.2782(9)
loop_
_geom_bond_atom_site_label_1
_geom_bond_atom_site_label_2
_geom_bond_site_symmetry_1
_geom_bond_site_symmetry_2
C1 H1 1_555 1_555
C2 C1 1_555 1_555
H2 C2 1_555 1_555
C3 C2 1_555 1_555
H3 C3 1_555 1_555
H4 C3 1_555 1_555
C4 C3 1_555 1_555
H5 C4 1_555 1_555
H6 C4 1_555 1_555
C5 C4 1_555 1_555
H7 C5 1_555 1_555
H8 C5 1_555 1_555
C6 C1 1_555 1_555
H9 C6 1_555 1_555
H10 C6 1_555 1_555
N1 C1 1_555 1_555
N2 C2 1_555 1_555
C7 N1 1_555 1_555
H11 C7 1_555 1_555
H12 C7 1_555 1_555
C8 N2 1_555 1_555
H13 C8 1_555 1_555
H14 C8 1_555 1_555
C9 C8 1_555 1_555
C10 C9 1_555 1_555
H15 C10 1_555 1_555
C11 C10 1_555 1_555
H16 C11 1_555 1_555
C12 C11 1_555 1_555
C13 C12 1_555 1_555
H17 C13 1_555 1_555
C14 C9 1_555 1_555
H18 C14 1_555 1_555
C15 C12 1_555 1_555
H19 C15 1_555 1_555
H20 C15 1_555 1_555
C16 H21 1_555 1_555
C17 C16 1_555 1_555
H22 C17 1_555 1_555
C18 C17 1_555 1_555
H23 C18 1_555 1_555
H24 C18 1_555 1_555
C19 C18 1_555 1_555
H25 C19 1_555 1_555
H26 C19 1_555 1_555
C20 C19 1_555 1_555
H27 C20 1_555 1_555
H28 C20 1_555 1_555
C21 C16 1_555 1_555
H29 C21 1_555 1_555
H30 C21 1_555 1_555
N3 C15 1_555 1_555
N4 C17 1_555 1_555
C22 N3 1_555 1_555
H31 C22 1_555 1_555
H32 C22 1_555 1_555
C23 N4 1_555 1_555
H33 C23 1_555 1_555
H34 C23 1_555 1_555
C24 C23 1_555 1_555
C25 C24 1_555 1_555
H35 C25 1_555 1_555
C26 C25 1_555 1_555
H36 C26 1_555 1_555
C27 C26 1_555 1_555
C28 C27 1_555 1_555
H37 C28 1_555 1_555
C29 C24 1_555 1_555
H38 C29 1_555 1_555
C30 C27 1_555 1_555
H39 C30 1_555 1_555
H40 C30 1_555 1_555
C31 H41 1_555 1_555
C32 C31 1_555 1_555
H42 C32 1_555 1_555
C33 C32 1_555 1_555
H43 C33 1_555 1_555
H44 C33 1_555 1_555
C34 C33 1_555 1_555
H45 C34 1_555 1_555
H46 C34 1_555 1_555
C35 C34 1_555 1_555
H47 C35 1_555 1_555
H48 C35 1_555 1_555
C36 C31 1_555 1_555
H49 C36 1_555 1_555
H50 C36 1_555 1_555
N5 C30 1_555 1_555
N6 C32 1_555 1_555
C37 N5 1_555 1_555
H51 C37 1_555 1_555
H52 C37 1_555 1_555
C38 N6 1_555 1_555
H53 C38 1_555 1_555
H54 C38 1_555 1_555
C39 C38 1_555 1_555
C40 C39 1_555 1_555
H55 C40 1_555 1_555
C41 C40 1_555 1_555
H56 C41 1_555 1_555
C42 C41 1_555 1_555
C43 C42 1_555 1_555
H57 C43 1_555 1_555
C44 C39 1_555 1_555
H58 C44 1_555 1_555
C45 N1 1_555 1_555
H59 C45 1_555 1_555
H60 C45 1_555 1_555
C46 H61 1_555 1_555
C47 C46 1_555 1_555
H62 C47 1_555 1_555
C48 C47 1_555 1_555
H63 C48 1_555 1_555
H64 C48 1_555 1_555
C49 C48 1_555 1_555
H65 C49 1_555 1_555
H66 C49 1_555 1_555
C50 C49 1_555 1_555
H67 C50 1_555 1_555
H68 C50 1_555 1_555
C51 C46 1_555 1_555
H69 C51 1_555 1_555
H70 C51 1_555 1_555
N7 C46 1_555 1_555
N8 C47 1_555 1_555
C52 N7 1_555 1_555
H71 C52 1_555 1_555
H72 C52 1_555 1_555
C53 N8 1_555 1_555
H73 C53 1_555 1_555
H74 C53 1_555 1_555
C54 C53 1_555 1_555
C55 C54 1_555 1_555
H75 C55 1_555 1_555
C56 C55 1_555 1_555
H76 C56 1_555 1_555
C57 C56 1_555 1_555
C58 C57 1_555 1_555
H77 C58 1_555 1_555
C59 C54 1_555 1_555
H78 C59 1_555 1_555
C60 C57 1_555 1_555
H79 C60 1_555 1_555
H80 C60 1_555 1_555
C61 H81 1_555 1_555
C62 C61 1_555 1_555
H82 C62 1_555 1_555
C63 C62 1_555 1_555
H83 C63 1_555 1_555
H84 C63 1_555 1_555
C64 C63 1_555 1_555
H85 C64 1_555 1_555
H86 C64 1_555 1_555
C65 C64 1_555 1_555
H87 C65 1_555 1_555
H88 C65 1_555 1_555
C66 C61 1_555 1_555
H89 C66 1_555 1_555
H90 C66 1_555 1_555
N9 C60 1_555 1_555
N10 C62 1_555 1_555
C67 N9 1_555 1_555
H91 C67 1_555 1_555
H92 C67 1_555 1_555
C68 N10 1_555 1_555
H93 C68 1_555 1_555
H94 C68 1_555 1_555
C69 C68 1_555 1_555
C70 C69 1_555 1_555
H95 C70 1_555 1_555
C71 C70 1_555 1_555
H96 C71 1_555 1_555
C72 C71 1_555 1_555
C73 C72 1_555 1_555
H97 C73 1_555 1_555
C74 C69 1_555 1_555
H98 C74 1_555 1_555
C75 C72 1_555 1_555
H99 C75 1_555 1_555
H100 C75 1_555 1_555
C76 H101 1_555 1_555
C77 C76 1_555 1_555
H102 C77 1_555 1_555
C78 C77 1_555 1_555
H103 C78 1_555 1_555
H104 C78 1_555 1_555
C79 C78 1_555 1_555
H105 C79 1_555 1_555
H106 C79 1_555 1_555
C80 C79 1_555 1_555
H107 C80 1_555 1_555
H108 C80 1_555 1_555
C81 C76 1_555 1_555
H109 C81 1_555 1_555
H110 C81 1_555 1_555
N11 C75 1_555 1_555
N12 C77 1_555 1_555
C82 N11 1_555 1_555
H111 C82 1_555 1_555
H112 C82 1_555 1_555
C83 N12 1_555 1_555
H113 C83 1_555 1_555
H114 C83 1_555 1_555
C84 C83 1_555 1_555
C85 C84 1_555 1_555
H115 C85 1_555 1_555
C86 C85 1_555 1_555
H116 C86 1_555 1_555
C87 C86 1_555 1_555
C88 C87 1_555 1_555
H117 C88 1_555 1_555
C89 C84 1_555 1_555
H118 C89 1_555 1_555
C90 N7 1_555 1_555
H119 C90 1_555 1_555
H120 C90 1_555 1_555
C91 H121 1_555 1_555
H122 C91 1_555 1_555
H123 C91 1_555 1_555
C92 C91 1_555 1_555
H124 C92 1_555 1_555
H125 C92 1_555 1_555
C93 C92 1_555 1_555
H126 C93 1_555 1_555
H127 C93 1_555 1_555
C94 C93 1_555 1_555
H128 C94 1_555 1_555
H129 C94 1_555 1_555
C95 C94 1_555 1_555
H130 C95 1_555 1_555
H131 C95 1_555 1_555
C96 C95 1_555 1_555
H132 C96 1_555 1_555
H133 C96 1_555 1_555
O1 C96 1_555 1_555
C5 C6 1_555 1_555
N2 C7 1_555 1_555
C13 C14 1_555 1_555
C16 N3 1_555 1_555
C20 C21 1_555 1_555
N4 C22 1_555 1_555
C28 C29 1_555 1_555
C31 N5 1_555 1_555
C35 C36 1_555 1_555
N6 C37 1_555 1_555
C42 C45 1_555 1_555
C43 C44 1_555 1_555
C50 C51 1_555 1_555
N8 C52 1_555 1_555
C58 C59 1_555 1_555
C61 N9 1_555 1_555
C65 C66 1_555 1_555
N10 C67 1_555 1_555
C73 C74 1_555 1_555
C76 N11 1_555 1_555
C80 C81 1_555 1_555
N12 C82 1_555 1_555
C87 C90 1_555 1_555
C88 C89 1_555 1_555

#END
