
#######################################################################
#
#                 Cambridge Crystallographic Data Centre
#                                CCDC 
#
#######################################################################
#
# If this CIF has been generated from an entry in the Cambridge 
# Structural Database, then it will include bibliographic, chemical, 
# crystal, experimental, refinement or atomic coordinate data resulting 
# from the CCDC's data processing and validation procedures.
#
#######################################################################

data_EKIQEW
_chemical_formula_moiety         'C15 H9 F6 N1 O1'
_chemical_name_systematic        
3-(trifluoromethyl)-N-(2-(trifluoromethyl)phenyl)benzamide
_symmetry_cell_setting           triclinic
_symmetry_space_group_name_H-M   'P -1'
_symmetry_Int_Tables_number      2
_space_group_name_Hall           '-P 1'
loop_
_symmetry_equiv_pos_site_id
_symmetry_equiv_pos_as_xyz
1 x,y,z
2 -x,-y,-z
_cell_length_a                   7.8491(7)
_cell_length_b                   7.9883(8)
_cell_length_c                   23.143(2)
_cell_angle_alpha                88.435(3)
_cell_angle_beta                 82.971(3)
_cell_angle_gamma                75.095(3)
_cell_volume                     1391.71
_exptl_crystal_colour            colorless
_exptl_crystal_description       'long plate'
_cell_formula_units_Z            4
loop_
_atom_site_label
_atom_site_type_symbol
_atom_site_fract_x
_atom_site_fract_y
_atom_site_fract_z
F1 F 1.03161(18) 0.07500(15) 0.55355(5)
F2 F 1.04498(15) 0.14016(13) 0.64183(5)
F3 F 0.79230(15) 0.18694(14) 0.60943(5)
F4 F 0.8995(2) 0.18904(17) 0.97543(5)
F5 F 0.8102(2) 0.46589(17) 0.97897(5)
F6 F 0.62428(19) 0.31309(17) 0.99813(5)
N1 N 0.7881(2) 0.01475(19) 0.72105(6)
H1 H 0.7004 0.0994 0.7112
O1 O 0.97341(17) -0.08843(15) 0.78855(5)
C1 C 0.7697(2) 0.1861(2) 0.80771(7)
C2 C 0.8047(2) 0.1814(2) 0.86556(7)
H2 H 0.8732 0.0781 0.8811
C3 C 0.7390(3) 0.3281(2) 0.90009(8)
C4 C 0.6396(3) 0.4802(2) 0.87789(8)
H3 H 0.5957 0.5805 0.9018
C5 C 0.6051(3) 0.4845(2) 0.82067(8)
H4 H 0.5374 0.5884 0.8052
C6 C 0.6687(3) 0.3380(2) 0.78554(8)
H5 H 0.6432 0.3415 0.7464
C7 C 0.8595(2) -0.1297(2) 0.68240(7)
C8 C 0.9386(2) -0.1047(2) 0.62662(7)
C9 C 1.0030(3) -0.2447(2) 0.58855(8)
H6 H 1.0574 -0.2285 0.5506
C10 C 0.9877(3) -0.4076(2) 0.60614(8)
H7 H 1.0313 -0.5031 0.5801
C11 C 0.9093(3) -0.4318(2) 0.66139(8)
H8 H 0.8986 -0.5438 0.6732
C12 C 0.8462(3) -0.2935(2) 0.69958(8)
H9 H 0.7937 -0.3111 0.7377
C13 C 0.8510(2) 0.0253(2) 0.77209(7)
C14 C 0.9523(3) 0.0725(2) 0.60766(8)
C15 C 0.7695(3) 0.3225(3) 0.96268(8)
F7 F 0.52833(16) -0.07553(14) 0.84155(5)
F8 F 0.42925(19) -0.00752(15) 0.93041(5)
F9 F 0.27691(16) -0.11510(14) 0.87746(5)
F10 F 0.69161(17) -0.42016(15) 0.50831(5)
F11 F 0.66311(16) -0.14543(15) 0.51164(5)
F12 F 0.44872(17) -0.24294(15) 0.48949(5)
N2 N 0.2635(2) 0.06085(18) 0.76407(6)
H10 H 0.2119 -0.0229 0.7742
O2 O 0.43848(17) 0.16273(15) 0.69438(5)
C16 C 0.3918(2) -0.1145(2) 0.67810(7)
C17 C 0.4670(2) -0.1158(2) 0.62021(7)
H11 H 0.4925 -0.0141 0.6032
C18 C 0.5043(2) -0.2677(2) 0.58761(7)
C19 C 0.4690(3) -0.4172(2) 0.61226(8)
H12 H 0.4965 -0.5206 0.5899
C20 C 0.3936(2) -0.4153(2) 0.66952(8)
H13 H 0.3688 -0.5175 0.6865
C21 C 0.3541(2) -0.2644(2) 0.70216(8)
H14 H 0.3008 -0.2632 0.7413
C22 C 0.2360(2) 0.2028(2) 0.80327(7)
C23 C 0.2885(3) 0.1744(2) 0.85911(7)
C24 C 0.2532(3) 0.3122(2) 0.89787(8)
H15 H 0.2874 0.2932 0.9360
C25 C 0.1684(3) 0.4768(2) 0.88106(8)
H16 H 0.1447 0.5707 0.9077
C26 C 0.1177(3) 0.5056(2) 0.82574(8)
H17 H 0.0596 0.6191 0.8143
C27 C 0.1518(3) 0.3685(2) 0.78698(8)
H18 H 0.1173 0.3884 0.7489
C28 C 0.3651(2) 0.0496(2) 0.71231(7)
C29 C 0.3800(3) -0.0041(2) 0.87730(8)
C30 C 0.5775(3) -0.2677(2) 0.52489(8)
loop_
_geom_bond_atom_site_label_1
_geom_bond_atom_site_label_2
_geom_bond_site_symmetry_1
_geom_bond_site_symmetry_2
F1 C14 1_555 1_555
F2 C14 1_555 1_555
F3 C14 1_555 1_555
F4 C15 1_555 1_555
F5 C15 1_555 1_555
F6 C15 1_555 1_555
N1 H1 1_555 1_555
O1 C13 1_555 1_555
C1 C2 1_555 1_555
C2 H2 1_555 1_555
C3 C2 1_555 1_555
C4 C3 1_555 1_555
H3 C4 1_555 1_555
C5 C4 1_555 1_555
H4 C5 1_555 1_555
C6 C1 1_555 1_555
H5 C6 1_555 1_555
C7 N1 1_555 1_555
C8 C7 1_555 1_555
C9 C8 1_555 1_555
H6 C9 1_555 1_555
C10 C9 1_555 1_555
H7 C10 1_555 1_555
C11 C10 1_555 1_555
H8 C11 1_555 1_555
C12 C7 1_555 1_555
H9 C12 1_555 1_555
C13 N1 1_555 1_555
C14 C8 1_555 1_555
C15 C3 1_555 1_555
F7 C29 1_555 1_555
F8 C29 1_555 1_555
F9 C29 1_555 1_555
F10 C30 1_555 1_555
F11 C30 1_555 1_555
F12 C30 1_555 1_555
N2 H10 1_555 1_555
O2 C28 1_555 1_555
C16 C17 1_555 1_555
C17 H11 1_555 1_555
C18 C17 1_555 1_555
C19 C18 1_555 1_555
H12 C19 1_555 1_555
C20 C19 1_555 1_555
H13 C20 1_555 1_555
C21 C16 1_555 1_555
H14 C21 1_555 1_555
C22 N2 1_555 1_555
C23 C22 1_555 1_555
C24 C23 1_555 1_555
H15 C24 1_555 1_555
C25 C24 1_555 1_555
H16 C25 1_555 1_555
C26 C25 1_555 1_555
H17 C26 1_555 1_555
C27 C22 1_555 1_555
H18 C27 1_555 1_555
C28 N2 1_555 1_555
C29 C23 1_555 1_555
C30 C18 1_555 1_555
C1 C13 1_555 1_555
C5 C6 1_555 1_555
C11 C12 1_555 1_555
C16 C28 1_555 1_555
C20 C21 1_555 1_555
C26 C27 1_555 1_555

#END
