
#######################################################################
#
#                 Cambridge Crystallographic Data Centre
#                                CCDC 
#
#######################################################################
#
# If this CIF has been generated from an entry in the Cambridge 
# Structural Database, then it will include bibliographic, chemical, 
# crystal, experimental, refinement or atomic coordinate data resulting 
# from the CCDC's data processing and validation procedures.
#
#######################################################################

data_EKIQOG01
_chemical_formula_moiety         'C45 H60 N6,C2 H6 O1'
_chemical_name_systematic        
'3,10,17,24,31,38-hexaazadecacyclo[38.2.2.2^12,15^.2^26,29^.1^3,10^.1^17,24^.1^31,38^.0^4,9^.0^18,23^.0^32,37^]henpentaconta-1(42),12,14,26,28,40,43,46,49-nonaene ethanol clathrate'
_symmetry_cell_setting           orthorhombic
_symmetry_space_group_name_H-M   'P 21 21 21'
_symmetry_Int_Tables_number      19
_space_group_name_Hall           'P 2ac 2ab'
loop_
_symmetry_equiv_pos_site_id
_symmetry_equiv_pos_as_xyz
1 x,y,z
2 1/2-x,-y,1/2+z
3 1/2+x,1/2-y,-z
4 -x,1/2+y,1/2-z
_cell_length_a                   25.5194(3)
_cell_length_b                   9.23020(10)
_cell_length_c                   17.9734(2)
_cell_angle_alpha                90
_cell_angle_beta                 90
_cell_angle_gamma                90
_cell_volume                     4233.62
_exptl_crystal_colour            colorless
_exptl_crystal_description       block
_cell_formula_units_Z            4
loop_
_atom_site_label
_atom_site_type_symbol
_atom_site_fract_x
_atom_site_fract_y
_atom_site_fract_z
N1 N -0.01854(5) -0.13092(16) 0.32529(8)
N2 N 0.31074(6) -0.06548(17) 0.46411(9)
N3 N 0.26712(6) -0.23803(17) 0.38920(8)
N4 N 0.07618(5) 0.56526(16) 0.63292(8)
N5 N 0.16823(6) 0.55092(16) 0.64012(8)
N6 N -0.06509(6) 0.05009(16) 0.39113(8)
C1 C 0.22735(7) 0.2898(2) 0.62179(10)
H1 H 0.2072 0.3048 0.6655
C2 C -0.03885(7) 0.27107(19) 0.46123(10)
C3 C -0.07524(6) -0.15774(19) 0.32231(9)
H2 H -0.0857 -0.2157 0.3669
C4 C 0.23141(6) 0.39988(19) 0.56952(9)
C5 C 0.32426(6) -0.2462(2) 0.37902(9)
H3 H 0.3345 -0.1746 0.3399
C6 C 0.14749(7) -0.1370(2) 0.28660(10)
H4 H 0.1627 -0.0701 0.2527
C7 C 0.28259(7) 0.1326(2) 0.54805(10)
C8 C 0.17986(7) -0.2253(2) 0.32901(9)
C9 C 0.00668(6) 0.40681(19) 0.58590(9)
C10 C -0.09688(7) -0.00647(18) 0.33005(9)
H5 H -0.0887 0.0494 0.2838
C11 C 0.14967(7) 0.69874(19) 0.65526(11)
H6 H 0.1462 0.7511 0.6068
C12 C 0.34418(7) -0.19227(18) 0.45301(10)
H7 H 0.3363 -0.2659 0.4923
C13 C 0.09523(7) 0.6723(2) 0.68638(10)
H8 H 0.0979 0.6272 0.7368
C14 C 0.40267(7) -0.1650(2) 0.45073(11)
H9 H 0.4151 -0.1318 0.5000
H10 H 0.4108 -0.0890 0.4136
C15 C 0.09305(7) -0.1447(2) 0.29292(10)
H11 H 0.0717 -0.0832 0.2634
C16 C 0.25245(7) 0.1582(2) 0.61087(10)
H12 H 0.2489 0.0840 0.6472
C17 C -0.15573(7) -0.0089(2) 0.34140(11)
H13 H -0.1693 0.0913 0.3452
H14 H -0.1644 -0.0609 0.3880
C18 C 0.01278(7) 0.4638(2) 0.51527(10)
H15 H 0.0322 0.5508 0.5088
C19 C -0.09691(7) -0.2306(2) 0.25289(11)
H16 H -0.0826 -0.3299 0.2482
H17 H -0.0869 -0.1748 0.2080
C20 C 0.20719(7) 0.5474(2) 0.58113(10)
H18 H 0.2353 0.6175 0.5931
H19 H 0.1905 0.5789 0.5341
C21 C 0.06983(7) -0.2415(2) 0.34197(10)
C22 C 0.34813(7) -0.3921(2) 0.35902(11)
H20 H 0.3353 -0.4246 0.3098
H21 H 0.3384 -0.4658 0.3966
C23 C 0.26082(7) 0.3737(2) 0.50522(10)
H22 H 0.2634 0.4469 0.4683
C24 C -0.00910(7) 0.3955(2) 0.45354(10)
H23 H -0.0035 0.4349 0.4054
C25 C 0.02860(7) 0.4879(2) 0.65235(10)
H24 H 0.0021 0.5575 0.6708
H25 H 0.0362 0.4183 0.6929
C26 C 0.40803(7) -0.3716(2) 0.35718(11)
H26 H 0.4249 -0.4666 0.3481
H27 H 0.4172 -0.3069 0.3152
C27 C 0.01092(7) -0.2589(2) 0.34710(11)
H28 H 0.0002 -0.3409 0.3150
H29 H 0.0016 -0.2841 0.3990
C28 C 0.23871(7) -0.2218(2) 0.31928(10)
H30 H 0.2492 -0.3007 0.2851
H31 H 0.2488 -0.1287 0.2959
C29 C -0.18060(7) -0.0862(2) 0.27456(12)
H32 H -0.2187 -0.0966 0.2834
H33 H -0.1758 -0.0257 0.2296
C30 C 0.28633(7) 0.2425(2) 0.49457(11)
H34 H 0.3064 0.2272 0.4508
C31 C 0.06527(7) 0.8141(2) 0.69161(13)
H35 H 0.0300 0.7968 0.7128
H36 H 0.0611 0.8570 0.6415
C32 C 0.42980(7) -0.3072(2) 0.42945(11)
H37 H 0.4678 -0.2894 0.4235
H38 H 0.4252 -0.3782 0.4702
C33 C -0.02202(9) 0.2797(2) 0.59355(11)
H39 H -0.0259 0.2373 0.6414
C34 C -0.01242(7) -0.0089(2) 0.37797(12)
H40 H 0.0032 -0.0431 0.4252
H41 H 0.0107 0.0664 0.3565
C35 C 0.31172(8) -0.0092(2) 0.53929(11)
H42 H 0.3486 0.0051 0.5546
H43 H 0.2960 -0.0818 0.5731
C36 C 0.25849(7) -0.1154(2) 0.44063(11)
H44 H 0.2393 -0.0364 0.4152
H45 H 0.2378 -0.1470 0.4843
C37 C 0.15653(8) -0.3233(2) 0.37760(11)
H46 H 0.1779 -0.3854 0.4068
C38 C 0.10241(8) -0.3315(2) 0.38406(11)
H47 H 0.0873 -0.3993 0.4176
C39 C 0.18202(8) 0.7911(2) 0.70750(13)
H48 H 0.2176 0.8062 0.6869
H49 H 0.1853 0.7432 0.7566
C40 C -0.04511(10) 0.2137(2) 0.53215(12)
H50 H -0.0654 0.1283 0.5388
C41 C -0.15697(8) -0.2359(2) 0.26052(12)
H51 H -0.1722 -0.2768 0.2144
H52 H -0.1664 -0.3010 0.3022
C42 C -0.06595(9) 0.2079(2) 0.39404(11)
H53 H -0.1029 0.2408 0.3938
H54 H -0.0490 0.2462 0.3486
C43 C 0.12076(7) 0.4680(2) 0.62169(15)
H55 H 0.1221 0.4347 0.5694
H56 H 0.1177 0.3821 0.6544
C44 C 0.15331(8) 0.9370(3) 0.71544(17)
H57 H 0.1534 0.9875 0.6668
H58 H 0.1724 0.9986 0.7515
C45 C 0.09627(9) 0.9178(3) 0.74189(17)
H59 H 0.0963 0.8796 0.7934
H60 H 0.0787 1.0134 0.7425
C46 C 0.1204(3) 0.1532(10) 0.4414(3)
H61 H 0.1660 0.1839 0.4262
H62 H 0.1005 0.2402 0.4490
H63 H 0.1049 0.1003 0.4010
C47 C 0.1207(3) 0.0594(8) 0.5079(4)
H64 H 0.1094 -0.0327 0.4889
H65 H 0.1536 0.0480 0.5331
O1 O 0.0869(3) 0.0998(9) 0.5651(5)
O2? O 0.1151(5) -0.0516(7) 0.5104(4)
C48? C 0.1047(3) 0.0920(10) 0.5089(5)
H66? H 0.1133 0.1335 0.5582
H67? H 0.0666 0.1052 0.5010
C49? C 0.1337(4) 0.1769(10) 0.4500(5)
H68? H 0.1695 0.1965 0.4670
H69? H 0.1155 0.2688 0.4409
H70? H 0.1349 0.1206 0.4038
H71? H 0.0950 0.0960 0.5420
O3? O 0.1401(5) 0.2916(9) 0.4486(5)
H72? H 0.1417 0.1043 0.4053
H73? H 0.0855 0.1574 0.4218
loop_
_geom_bond_atom_site_label_1
_geom_bond_atom_site_label_2
_geom_bond_site_symmetry_1
_geom_bond_site_symmetry_2
N1 C3 1_555 1_555
N2 C12 1_555 1_555
N3 C5 1_555 1_555
N4 C13 1_555 1_555
N5 C11 1_555 1_555
N6 C10 1_555 1_555
C1 H1 1_555 1_555
C2 C24 1_555 1_555
C3 H2 1_555 1_555
C4 C1 1_555 1_555
C5 H3 1_555 1_555
C6 H4 1_555 1_555
C7 C16 1_555 1_555
C8 C6 1_555 1_555
C9 C18 1_555 1_555
C10 C3 1_555 1_555
H5 C10 1_555 1_555
C11 H6 1_555 1_555
C12 C5 1_555 1_555
H7 C12 1_555 1_555
C13 C11 1_555 1_555
H8 C13 1_555 1_555
C14 C12 1_555 1_555
H9 C14 1_555 1_555
H10 C14 1_555 1_555
C15 C6 1_555 1_555
H11 C15 1_555 1_555
C16 C1 1_555 1_555
H12 C16 1_555 1_555
C17 C10 1_555 1_555
H13 C17 1_555 1_555
H14 C17 1_555 1_555
C18 H15 1_555 1_555
C19 C3 1_555 1_555
H16 C19 1_555 1_555
H17 C19 1_555 1_555
C20 N5 1_555 1_555
H18 C20 1_555 1_555
H19 C20 1_555 1_555
C21 C15 1_555 1_555
C22 C5 1_555 1_555
H20 C22 1_555 1_555
H21 C22 1_555 1_555
C23 C4 1_555 1_555
H22 C23 1_555 1_555
C24 C18 1_555 1_555
H23 C24 1_555 1_555
C25 N4 1_555 1_555
H24 C25 1_555 1_555
H25 C25 1_555 1_555
C26 C22 1_555 1_555
H26 C26 1_555 1_555
H27 C26 1_555 1_555
C27 N1 1_555 1_555
H28 C27 1_555 1_555
H29 C27 1_555 1_555
C28 N3 1_555 1_555
H30 C28 1_555 1_555
H31 C28 1_555 1_555
C29 C17 1_555 1_555
H32 C29 1_555 1_555
H33 C29 1_555 1_555
C30 C7 1_555 1_555
H34 C30 1_555 1_555
C31 C13 1_555 1_555
H35 C31 1_555 1_555
H36 C31 1_555 1_555
C32 C14 1_555 1_555
H37 C32 1_555 1_555
H38 C32 1_555 1_555
C33 C9 1_555 1_555
H39 C33 1_555 1_555
C34 N1 1_555 1_555
H40 C34 1_555 1_555
H41 C34 1_555 1_555
C35 N2 1_555 1_555
H42 C35 1_555 1_555
H43 C35 1_555 1_555
C36 N2 1_555 1_555
H44 C36 1_555 1_555
H45 C36 1_555 1_555
C37 C8 1_555 1_555
H46 C37 1_555 1_555
C38 C21 1_555 1_555
H47 C38 1_555 1_555
C39 C11 1_555 1_555
H48 C39 1_555 1_555
H49 C39 1_555 1_555
C40 C2 1_555 1_555
H50 C40 1_555 1_555
C41 C19 1_555 1_555
H51 C41 1_555 1_555
H52 C41 1_555 1_555
C42 N6 1_555 1_555
H53 C42 1_555 1_555
H54 C42 1_555 1_555
C43 N4 1_555 1_555
H55 C43 1_555 1_555
H56 C43 1_555 1_555
C44 C39 1_555 1_555
H57 C44 1_555 1_555
H58 C44 1_555 1_555
C45 C31 1_555 1_555
H59 C45 1_555 1_555
H60 C45 1_555 1_555
C46 H61 1_555 1_555
H62 C46 1_555 1_555
H63 C46 1_555 1_555
C47 C46 1_555 1_555
H64 C47 1_555 1_555
H65 C47 1_555 1_555
O1 C47 1_555 1_555
N3 C36 1_555 1_555
N5 C43 1_555 1_555
N6 C34 1_555 1_555
C2 C42 1_555 1_555
C4 C20 1_555 1_555
C7 C35 1_555 1_555
C8 C28 1_555 1_555
C9 C25 1_555 1_555
C21 C27 1_555 1_555
C23 C30 1_555 1_555
C26 C32 1_555 1_555
C29 C41 1_555 1_555
C33 C40 1_555 1_555
C37 C38 1_555 1_555
C44 C45 1_555 1_555

#END
