
#######################################################################
#
#                 Cambridge Crystallographic Data Centre
#                                CCDC 
#
#######################################################################
#
# If this CIF has been generated from an entry in the Cambridge 
# Structural Database, then it will include bibliographic, chemical, 
# crystal, experimental, refinement or atomic coordinate data resulting 
# from the CCDC's data processing and validation procedures.
#
#######################################################################

data_EKIRAT
_chemical_formula_moiety         'C19 H29 B1 O3'
_chemical_name_systematic        
4,4,5,5-Tetramethyl-2-(1-(3-methylphenoxy)hex-1-en-2-yl)-1,3,2-dioxaborolane
_symmetry_cell_setting           monoclinic
_symmetry_space_group_name_H-M   'P 21/c'
_symmetry_Int_Tables_number      14
_space_group_name_Hall           '-P 2ybc'
loop_
_symmetry_equiv_pos_site_id
_symmetry_equiv_pos_as_xyz
1 x,y,z
2 -x,1/2+y,1/2-z
3 -x,-y,-z
4 x,1/2-y,1/2+z
_cell_length_a                   10.0293(9)
_cell_length_b                   18.1230(17)
_cell_length_c                   10.7973(10)
_cell_angle_alpha                90
_cell_angle_beta                 97.475(6)
_cell_angle_gamma                90
_cell_volume                     1945.85
_exptl_crystal_colour            colorless
_exptl_crystal_description       block
_cell_formula_units_Z            4
loop_
_atom_site_label
_atom_site_type_symbol
_atom_site_fract_x
_atom_site_fract_y
_atom_site_fract_z
B1 B 0.66602(17) 0.11935(10) 0.19395(16)
O1 O 0.49825(11) 0.27876(7) 0.01441(12)
O2 O 0.56737(11) 0.06699(6) 0.18524(11)
O3 O 0.78374(10) 0.09596(6) 0.25964(11)
C1 C 0.36387(17) 0.29473(9) -0.02574(16)
C2 C 0.33922(18) 0.33782(9) -0.13101(16)
H1 H 0.4104 0.3531 -0.1721
C3 C 0.2087(2) 0.35875(10) -0.17633(18)
C4 C 0.1053(2) 0.33435(12) -0.1136(2)
H2 H 0.0170 0.3466 -0.1438
C5 C 0.1308(2) 0.29256(12) -0.0081(3)
H3 H 0.0597 0.2772 0.0331
C6 C 0.26130(19) 0.27263(11) 0.0386(2)
H4 H 0.2789 0.2450 0.1115
C7 C 0.1814(3) 0.40687(14) -0.2895(2)
H5 H 0.0864 0.4152 -0.3082
H6 H 0.2137 0.3830 -0.3592
H7 H 0.2266 0.4533 -0.2738
C8 C 0.52791(17) 0.21201(9) 0.07200(15)
H8 H 0.4622 0.1755 0.0649
C9 C 0.64616(15) 0.19761(9) 0.13719(14)
C10 C 0.75572(16) 0.25522(10) 0.15952(15)
H9 H 0.8418 0.2317 0.1547
H10 H 0.7419 0.2917 0.0933
C11 C 0.76153(18) 0.29400(10) 0.28296(16)
H11 H 0.7786 0.2579 0.3494
H12 H 0.6747 0.3163 0.2891
C12 C 0.8690(2) 0.35332(11) 0.30207(18)
H13 H 0.9557 0.3308 0.2964
H14 H 0.8523 0.3890 0.2349
C13 C 0.8758(3) 0.39323(13) 0.4244(2)
H15 H 0.9454 0.4299 0.4295
H16 H 0.8954 0.3587 0.4917
H17 H 0.7911 0.4167 0.4304
C14 C 0.62832(19) -0.00170(9) 0.23442(18)
C15 C 0.75651(16) 0.02563(10) 0.31787(16)
C16 C 0.6612(3) -0.04561(13) 0.1223(2)
H18 H 0.5792 -0.0618 0.0741
H19 H 0.7147 -0.0877 0.1505
H20 H 0.7103 -0.0150 0.0715
C17 C 0.5277(2) -0.04152(15) 0.3024(3)
H21 H 0.4526 -0.0567 0.2436
H22 H 0.4971 -0.0091 0.3630
H23 H 0.5694 -0.0841 0.3438
C18 C 0.8788(2) -0.02308(12) 0.3206(2)
H24 H 0.8927 -0.0352 0.2367
H25 H 0.8653 -0.0675 0.3656
H26 H 0.9562 0.0025 0.3612
C19 C 0.7334(3) 0.04403(14) 0.45048(18)
H27 H 0.6552 0.0747 0.4487
H28 H 0.8103 0.0697 0.4918
H29 H 0.7201 -0.0007 0.4948
loop_
_geom_bond_atom_site_label_1
_geom_bond_atom_site_label_2
_geom_bond_site_symmetry_1
_geom_bond_site_symmetry_2
B1 O2 1_555 1_555
O1 C1 1_555 1_555
O2 C14 1_555 1_555
O3 B1 1_555 1_555
C1 C2 1_555 1_555
C2 H1 1_555 1_555
C3 C2 1_555 1_555
C4 C3 1_555 1_555
H2 C4 1_555 1_555
C5 C4 1_555 1_555
H3 C5 1_555 1_555
C6 C1 1_555 1_555
H4 C6 1_555 1_555
C7 C3 1_555 1_555
H5 C7 1_555 1_555
H6 C7 1_555 1_555
H7 C7 1_555 1_555
C8 O1 1_555 1_555
H8 C8 1_555 1_555
C9 B1 1_555 1_555
C10 C9 1_555 1_555
H9 C10 1_555 1_555
H10 C10 1_555 1_555
C11 C10 1_555 1_555
H11 C11 1_555 1_555
H12 C11 1_555 1_555
C12 C11 1_555 1_555
H13 C12 1_555 1_555
H14 C12 1_555 1_555
C13 C12 1_555 1_555
H15 C13 1_555 1_555
H16 C13 1_555 1_555
H17 C13 1_555 1_555
C14 C15 1_555 1_555
C15 O3 1_555 1_555
C16 C14 1_555 1_555
H18 C16 1_555 1_555
H19 C16 1_555 1_555
H20 C16 1_555 1_555
C17 C14 1_555 1_555
H21 C17 1_555 1_555
H22 C17 1_555 1_555
H23 C17 1_555 1_555
C18 C15 1_555 1_555
H24 C18 1_555 1_555
H25 C18 1_555 1_555
H26 C18 1_555 1_555
C19 C15 1_555 1_555
H27 C19 1_555 1_555
H28 C19 1_555 1_555
H29 C19 1_555 1_555
C5 C6 1_555 1_555
C8 C9 1_555 1_555

#END
