
#######################################################################
#
#                 Cambridge Crystallographic Data Centre
#                                CCDC 
#
#######################################################################
#
# If this CIF has been generated from an entry in the Cambridge 
# Structural Database, then it will include bibliographic, chemical, 
# crystal, experimental, refinement or atomic coordinate data resulting 
# from the CCDC's data processing and validation procedures.
#
#######################################################################

data_EKITUN
_chemical_formula_moiety         'C22 H23 N1 O4 S1'
_chemical_name_systematic        
5,5-Dimethyl-4-(3-phenylcyclobutylidene)-3-p-toluenesulfonyloxazolidin-2-one
_symmetry_cell_setting           monoclinic
_symmetry_space_group_name_H-M   'P 21/n'
_symmetry_Int_Tables_number      14
_space_group_name_Hall           '-P 2yn'
loop_
_symmetry_equiv_pos_site_id
_symmetry_equiv_pos_as_xyz
1 x,y,z
2 1/2+x,1/2-y,1/2+z
3 -x,-y,-z
4 1/2-x,1/2+y,1/2-z
_cell_length_a                   15.207(2)
_cell_length_b                   8.317(2)
_cell_length_c                   16.298(2)
_cell_angle_alpha                90
_cell_angle_beta                 100.903(9)
_cell_angle_gamma                90
_cell_volume                     2024.11
_exptl_crystal_colour            colorless
_exptl_crystal_description       plate
_chemical_melting_point          145.0-146.0deg.C
_cell_formula_units_Z            4
loop_
_atom_site_label
_atom_site_type_symbol
_atom_site_fract_x
_atom_site_fract_y
_atom_site_fract_z
S1 S 0.75808(7) 0.4474(1) 0.86882(7)
O1 O 0.8388(2) 0.3138(4) 1.0416(2)
O2 O 0.9534(2) 0.2257(4) 0.9861(2)
O3 O 0.7074(2) 0.3142(3) 0.8889(2)
O4 O 0.7603(2) 0.4820(4) 0.7842(2)
N1 N 0.8655(2) 0.4147(4) 0.9155(2)
C1 C 0.8811(3) 0.3155(6) 0.9871(3)
C2 C 0.9821(3) 0.2386(5) 0.9041(3)
C3 C 0.9397(3) 0.3965(5) 0.8727(3)
C4 C 0.9670(3) 0.5044(5) 0.8245(3)
C5 C 0.9357(4) 0.6704(6) 0.7941(4)
C6 C 0.9977(3) 0.6578(6) 0.7268(3)
C7 C 1.0424(3) 0.5092(6) 0.7752(4)
C8 C 1.0497(3) 0.8064(5) 0.7130(3)
C9 C 1.1300(4) 0.8481(7) 0.7614(3)
C10 C 1.1735(4) 0.9871(8) 0.7463(4)
C11 C 1.1370(4) 1.0895(7) 0.6837(4)
C12 C 1.0562(4) 1.0516(7) 0.6354(4)
C13 C 1.0134(4) 0.9097(7) 0.6503(4)
C14 C 1.0829(4) 0.2334(8) 0.9209(4)
C15 C 0.9410(5) 0.0976(6) 0.8525(4)
C16 C 0.7251(3) 0.6205(5) 0.9172(3)
C17 C 0.7250(3) 0.7666(5) 0.8776(3)
C18 C 0.6978(3) 0.9019(6) 0.9157(3)
C19 C 0.6716(3) 0.8926(5) 0.9916(3)
C20 C 0.6716(3) 0.7439(6) 1.0290(3)
C21 C 0.6981(3) 0.6081(6) 0.9931(3)
C22 C 0.6422(5) 1.0419(7) 1.0319(4)
H1 H 0.963(3) 0.742(6) 0.841(3)
H2 H 0.872(3) 0.690(6) 0.770(3)
H3 H 0.955(3) 0.619(5) 0.674(3)
H4 H 1.099(3) 0.532(5) 0.810(3)
H5 H 1.045(3) 0.420(7) 0.739(3)
H6 H 1.158(5) 0.787(9) 0.806(5)
H7 H 1.224(4) 1.015(7) 0.777(3)
H8 H 1.171(4) 1.191(8) 0.672(4)
H9 H 1.025(4) 1.119(7) 0.594(3)
H10 H 0.967(3) 0.885(6) 0.615(3)
H11 H 1.100(3) 0.138(7) 0.954(3)
H12 H 1.101(4) 0.318(7) 0.954(4)
H13 H 1.106(3) 0.236(6) 0.869(3)
H14 H 0.957(4) -0.003(7) 0.880(3)
H15 H 0.960(3) 0.098(6) 0.794(3)
H16 H 0.879(3) 0.100(6) 0.846(3)
H17 H 0.740(2) 0.771(5) 0.824(2)
H18 H 0.696(3) 1.001(6) 0.887(3)
H19 H 0.656(3) 0.730(6) 1.083(3)
H20 H 0.704(3) 0.512(5) 1.017(3)
H21 H 0.681(5) 1.122(9) 1.036(5)
H22 H 0.587(5) 1.088(10) 1.001(5)
H23 H 0.626(4) 1.019(8) 1.078(4)
loop_
_geom_bond_atom_site_label_1
_geom_bond_atom_site_label_2
_geom_bond_site_symmetry_1
_geom_bond_site_symmetry_2
S1 O3 1_555 1_555
O1 C1 1_555 1_555
O2 C1 1_555 1_555
O4 S1 1_555 1_555
N1 S1 1_555 1_555
C1 N1 1_555 1_555
C2 O2 1_555 1_555
C3 N1 1_555 1_555
C4 C3 1_555 1_555
C5 C4 1_555 1_555
C6 C5 1_555 1_555
C7 C4 1_555 1_555
C8 C6 1_555 1_555
C9 C8 1_555 1_555
C10 C9 1_555 1_555
C11 C10 1_555 1_555
C12 C11 1_555 1_555
C13 C8 1_555 1_555
C14 C2 1_555 1_555
C15 C2 1_555 1_555
C16 S1 1_555 1_555
C17 C16 1_555 1_555
C18 C17 1_555 1_555
C19 C18 1_555 1_555
C20 C19 1_555 1_555
C21 C16 1_555 1_555
C22 C19 1_555 1_555
H1 C5 1_555 1_555
H2 C5 1_555 1_555
H3 C6 1_555 1_555
H4 C7 1_555 1_555
H5 C7 1_555 1_555
H6 C9 1_555 1_555
H7 C10 1_555 1_555
H8 C11 1_555 1_555
H9 C12 1_555 1_555
H10 C13 1_555 1_555
H11 C14 1_555 1_555
H12 C14 1_555 1_555
H13 C14 1_555 1_555
H14 C15 1_555 1_555
H15 C15 1_555 1_555
H16 C15 1_555 1_555
H17 C17 1_555 1_555
H18 C18 1_555 1_555
H19 C20 1_555 1_555
H20 C21 1_555 1_555
H21 C22 1_555 1_555
H22 C22 1_555 1_555
H23 C22 1_555 1_555
C2 C3 1_555 1_555
C6 C7 1_555 1_555
C12 C13 1_555 1_555
C20 C21 1_555 1_555

#END
