
#######################################################################
#
#                 Cambridge Crystallographic Data Centre
#                                CCDC 
#
#######################################################################
#
# If this CIF has been generated from an entry in the Cambridge 
# Structural Database, then it will include bibliographic, chemical, 
# crystal, experimental, refinement or atomic coordinate data resulting 
# from the CCDC's data processing and validation procedures.
#
#######################################################################

data_EKIVAV
_chemical_formula_moiety         'C16 H17 N1 O4 S1'
_chemical_name_systematic        
3-p-Toluenesulfonyl-4-vinylidene-1-oxa-3-azaspiro(4.4)nonan-2-one
_symmetry_cell_setting           monoclinic
_symmetry_space_group_name_H-M   'P 21/n'
_symmetry_Int_Tables_number      14
_space_group_name_Hall           '-P 2yn'
loop_
_symmetry_equiv_pos_site_id
_symmetry_equiv_pos_as_xyz
1 x,y,z
2 1/2+x,1/2-y,1/2+z
3 -x,-y,-z
4 1/2-x,1/2+y,1/2-z
_cell_length_a                   9.922(9)
_cell_length_b                   16.483(6)
_cell_length_c                   10.71(1)
_cell_angle_alpha                90
_cell_angle_beta                 113.99(7)
_cell_angle_gamma                90
_cell_volume                     1600.25
_exptl_crystal_colour            colorless
_exptl_crystal_description       prismatic
_chemical_melting_point          105.5-106.5deg.C
_cell_formula_units_Z            4
loop_
_atom_site_label
_atom_site_type_symbol
_atom_site_fract_x
_atom_site_fract_y
_atom_site_fract_z
S1 S 0.5669(2) 0.20419(9) 0.3605(1)
O1 O 0.6589(5) 0.0920(2) 0.0964(4)
O2 O 0.6910(5) 0.0469(2) 0.3039(4)
O3 O 0.5324(4) 0.2884(2) 0.3416(3)
O4 O 0.6768(4) 0.1744(2) 0.4866(3)
N1 N 0.6262(5) 0.1810(2) 0.2379(4)
C1 C 0.5955(6) 0.2272(3) 0.1156(5)
C2 C 0.6603(7) 0.1007(4) 0.2211(6)
C3 C 0.6067(6) 0.1659(4) 0.0139(5)
C4 C 0.7094(8) 0.1881(5) -0.0528(7)
C5 C 0.654(1) 0.1415(5) -0.1827(9)
C6 C 0.497(1) 0.1365(7) -0.2272(8)
C7 C 0.4575(9) 0.1474(5) -0.1079(7)
C8 C 0.5702(6) 0.3036(4) 0.0942(5)
C9 C 0.541(1) 0.3781(4) 0.0560(7)
C10 C 0.4069(6) 0.1472(3) 0.3159(5)
C11 C 0.2861(8) 0.1639(4) 0.1949(6)
C12 C 0.1625(8) 0.1179(4) 0.1586(6)
C13 C 0.1507(7) 0.0559(3) 0.2417(6)
C14 C 0.2698(7) 0.0412(4) 0.3625(6)
C15 C 0.3965(8) 0.0857(4) 0.4003(6)
C16 C 0.0144(9) 0.0053(6) 0.2007(9)
H1 H 0.679(8) 0.255(4) -0.085(7)
H2 H 0.800(5) 0.183(3) 0.001(5)
H3 H 0.6699 0.1689 -0.2520
H4 H 0.6887 0.0885 -0.1712
H5 H 0.4457 0.1778 -0.2926
H6 H 0.4583 0.0850 -0.2666
H7 H 0.427(7) 0.100(4) -0.083(7)
H8 H 0.427(9) 0.206(5) -0.117(8)
H9 H 0.439(7) 0.401(4) -0.009(6)
H10 H 0.614(7) 0.420(4) 0.056(6)
H11 H 0.298(6) 0.203(3) 0.145(6)
H12 H 0.072(6) 0.125(3) 0.079(5)
H13 H 0.258(6) -0.004(4) 0.421(6)
H14 H 0.479(5) 0.079(3) 0.482(5)
H15 H -0.047(7) 0.025(4) 0.253(6)
H16 H -0.065(6) 0.016(3) 0.116(5)
H17 H 0.037(7) -0.052(4) 0.210(6)
loop_
_geom_bond_atom_site_label_1
_geom_bond_atom_site_label_2
_geom_bond_site_symmetry_1
_geom_bond_site_symmetry_2
S1 O3 1_555 1_555
O1 C2 1_555 1_555
O2 C2 1_555 1_555
O4 S1 1_555 1_555
N1 S1 1_555 1_555
C1 N1 1_555 1_555
C2 N1 1_555 1_555
C3 O1 1_555 1_555
C4 C3 1_555 1_555
C5 C4 1_555 1_555
C6 C5 1_555 1_555
C7 C3 1_555 1_555
C8 C1 1_555 1_555
C9 C8 1_555 1_555
C10 S1 1_555 1_555
C11 C10 1_555 1_555
C12 C11 1_555 1_555
C13 C12 1_555 1_555
C14 C13 1_555 1_555
C15 C10 1_555 1_555
C16 C13 1_555 1_555
H1 C4 1_555 1_555
H2 C4 1_555 1_555
H3 C5 1_555 1_555
H4 C5 1_555 1_555
H5 C6 1_555 1_555
H6 C6 1_555 1_555
H7 C7 1_555 1_555
H8 C7 1_555 1_555
H9 C9 1_555 1_555
H10 C9 1_555 1_555
H11 C11 1_555 1_555
H12 C12 1_555 1_555
H13 C14 1_555 1_555
H14 C15 1_555 1_555
H15 C16 1_555 1_555
H16 C16 1_555 1_555
H17 C16 1_555 1_555
C1 C3 1_555 1_555
C6 C7 1_555 1_555
C14 C15 1_555 1_555

#END
