
#######################################################################
#
#                 Cambridge Crystallographic Data Centre
#                                CCDC 
#
#######################################################################
#
# If this CIF has been generated from an entry in the Cambridge 
# Structural Database, then it will include bibliographic, chemical, 
# crystal, experimental, refinement or atomic coordinate data resulting 
# from the CCDC's data processing and validation procedures.
#
#######################################################################

data_EKIWEA
_chemical_formula_moiety         'C12 H11 N1 O4 S1'
_chemical_name_systematic        
3-(o-Toluenesulfonyl)-4-vinylideneoxazolidin-2-one
_symmetry_cell_setting           monoclinic
_symmetry_space_group_name_H-M   'P 21/n'
_symmetry_Int_Tables_number      14
_space_group_name_Hall           '-P 2yn'
loop_
_symmetry_equiv_pos_site_id
_symmetry_equiv_pos_as_xyz
1 x,y,z
2 1/2+x,1/2-y,1/2+z
3 -x,-y,-z
4 1/2-x,1/2+y,1/2-z
_cell_length_a                   10.984(1)
_cell_length_b                   9.899(3)
_cell_length_c                   11.1631(5)
_cell_angle_alpha                90
_cell_angle_beta                 95.3607(9)
_cell_angle_gamma                90
_cell_volume                     1208.46
_exptl_crystal_description       prism
_chemical_melting_point          84.0-84.5deg.C
_cell_formula_units_Z            4
loop_
_atom_site_label
_atom_site_type_symbol
_atom_site_fract_x
_atom_site_fract_y
_atom_site_fract_z
S1 S 1.14251(4) 0.10735(5) 0.30846(4)
O1 O 1.1047(1) -0.1128(1) 0.0276(1)
O2 O 0.9800(1) -0.0996(1) 0.1747(1)
O3 O 1.2438(1) 0.1973(2) 0.3211(1)
O4 O 1.1253(2) 0.0134(2) 0.4021(1)
N1 N 1.1622(1) 0.0185(2) 0.1843(1)
C1 C 1.2622(2) 0.0262(2) 0.1105(2)
C2 C 1.2215(2) -0.0602(2) 0.0037(2)
C3 C 1.0724(2) -0.0691(2) 0.1335(2)
C4 C 1.3657(2) 0.0885(2) 0.1307(2)
C5 C 1.4717(2) 0.1472(3) 0.1407(3)
C6 C 1.0046(2) 0.1960(2) 0.2732(2)
C7 C 0.9080(2) 0.1626(2) 0.3406(2)
C8 C 0.7979(2) 0.2298(3) 0.3194(2)
C9 C 0.7838(2) 0.3274(2) 0.2315(2)
C10 C 0.8793(2) 0.3585(2) 0.1661(2)
C11 C 0.9924(2) 0.2951(2) 0.1840(2)
C12 C 1.0912(2) 0.3332(2) 0.1058(2)
H1 H 1.210(2) -0.011(2) -0.070(2)
H2 H 1.282(2) -0.142(2) -0.003(2)
H3 H 1.535(3) 0.101(3) 0.180(3)
H4 H 1.478(2) 0.243(3) 0.107(2)
H5 H 0.918(2) 0.094(2) 0.400(2)
H6 H 0.742(3) 0.212(3) 0.374(2)
H7 H 0.707(3) 0.376(3) 0.213(2)
H8 H 0.876(3) 0.430(3) 0.115(2)
H9 H 1.1091 0.4268 0.1157
H10 H 1.0635 0.3161 0.0238
H11 H 1.1622 0.2818 0.1279
loop_
_geom_bond_atom_site_label_1
_geom_bond_atom_site_label_2
_geom_bond_site_symmetry_1
_geom_bond_site_symmetry_2
S1 O3 1_555 1_555
O1 C2 1_555 1_555
O2 C3 1_555 1_555
O4 S1 1_555 1_555
N1 S1 1_555 1_555
C1 N1 1_555 1_555
C2 C1 1_555 1_555
C3 O1 1_555 1_555
C4 C1 1_555 1_555
C5 C4 1_555 1_555
C6 S1 1_555 1_555
C7 C6 1_555 1_555
C8 C7 1_555 1_555
C9 C8 1_555 1_555
C10 C9 1_555 1_555
C11 C6 1_555 1_555
C12 C11 1_555 1_555
H1 C2 1_555 1_555
H2 C2 1_555 1_555
H3 C5 1_555 1_555
H4 C5 1_555 1_555
H5 C7 1_555 1_555
H6 C8 1_555 1_555
H7 C9 1_555 1_555
H8 C10 1_555 1_555
H9 C12 1_555 1_555
H10 C12 1_555 1_555
H11 C12 1_555 1_555
N1 C3 1_555 1_555
C10 C11 1_555 1_555

#END
