
#######################################################################
#
#                 Cambridge Crystallographic Data Centre
#                                CCDC 
#
#######################################################################
#
# If this CIF has been generated from an entry in the Cambridge 
# Structural Database, then it will include bibliographic, chemical, 
# crystal, experimental, refinement or atomic coordinate data resulting 
# from the CCDC's data processing and validation procedures.
#
#######################################################################

data_EKIWOK
_chemical_formula_moiety         'C13 H13 N1 O4 S1'
_chemical_name_systematic        
5-Methyl-3-p-toluenesulfonyl-4-vinylideneoxazolidin-2-one
_symmetry_cell_setting           triclinic
_symmetry_space_group_name_H-M   'P -1'
_symmetry_Int_Tables_number      2
_space_group_name_Hall           '-P 1'
loop_
_symmetry_equiv_pos_site_id
_symmetry_equiv_pos_as_xyz
1 x,y,z
2 -x,-y,-z
_cell_length_a                   9.517(1)
_cell_length_b                   10.2261(9)
_cell_length_c                   7.8868(8)
_cell_angle_alpha                101.647(8)
_cell_angle_beta                 113.974(7)
_cell_angle_gamma                77.404(9)
_cell_volume                     678.916
_exptl_crystal_colour            colorless
_exptl_crystal_description       prismatic
_chemical_melting_point          68.2-70.2deg.C
_cell_formula_units_Z            2
loop_
_atom_site_label
_atom_site_type_symbol
_atom_site_fract_x
_atom_site_fract_y
_atom_site_fract_z
S1 S 0.4997(1) 0.2370(1) 0.3227(2)
O1 O 0.1795(4) 0.4446(4) 0.4826(5)
O2 O 0.3264(5) 0.2542(4) 0.5851(5)
O3 O 0.5685(3) 0.3034(3) 0.2406(4)
O4 O 0.5934(3) 0.1723(3) 0.4842(4)
N1 N 0.3740(4) 0.3614(3) 0.3844(4)
C1 C 0.2929(5) 0.4754(4) 0.2860(6)
C2 C 0.1729(8) 0.5390(7) 0.3671(10)
C3 C 0.2957(6) 0.3446(6) 0.4953(7)
C4 C 0.3187(5) 0.5211(4) 0.1619(6)
C5 C 0.3403(7) 0.5767(5) 0.0429(9)
C6 C 0.0299(8) 0.5970(9) 0.2621(10)
C7 C 0.3802(5) 0.1292(4) 0.1522(6)
C8 C 0.3346(6) 0.0289(5) 0.2050(7)
C9 C 0.2344(7) -0.0512(6) 0.0683(8)
C10 C 0.1810(6) -0.0366(6) -0.1199(8)
C11 C 0.2319(7) 0.0618(6) -0.1668(8)
C12 C 0.3289(6) 0.1448(6) -0.0358(7)
C13 C 0.0720(7) -0.1266(6) -0.2637(9)
H1 H 0.2148 0.6190 0.4560
H2 H 0.4164 0.5340 -0.0104
H3 H 0.2804 0.6614 0.0037
H4 H 0.0314 0.6582 0.1890
H5 H -0.0319 0.6387 0.3337
H6 H -0.0244 0.5233 0.1748
H7 H 0.375(4) 0.024(4) 0.329(6)
H8 H 0.210(5) -0.121(5) 0.112(6)
H9 H 0.202(6) 0.075(5) -0.283(7)
H10 H 0.358(5) 0.214(5) -0.065(6)
H11 H 0.1180 -0.1781 -0.3543
H12 H 0.0485 -0.1915 -0.2127
H13 H -0.0239 -0.0759 -0.3377
loop_
_geom_bond_atom_site_label_1
_geom_bond_atom_site_label_2
_geom_bond_site_symmetry_1
_geom_bond_site_symmetry_2
S1 O3 1_555 1_555
O1 C2 1_555 1_555
O2 C3 1_555 1_555
O4 S1 1_555 1_555
N1 S1 1_555 1_555
C1 N1 1_555 1_555
C2 C1 1_555 1_555
C3 O1 1_555 1_555
C4 C1 1_555 1_555
C5 C4 1_555 1_555
C6 C2 1_555 1_555
C7 S1 1_555 1_555
C8 C7 1_555 1_555
C9 C8 1_555 1_555
C10 C9 1_555 1_555
C11 C10 1_555 1_555
C12 C7 1_555 1_555
C13 C10 1_555 1_555
H1 C2 1_555 1_555
H2 C5 1_555 1_555
H3 C5 1_555 1_555
H4 C6 1_555 1_555
H5 C6 1_555 1_555
H6 C6 1_555 1_555
H7 C8 1_555 1_555
H8 C9 1_555 1_555
H9 C11 1_555 1_555
H10 C12 1_555 1_555
H11 C13 1_555 1_555
H12 C13 1_555 1_555
H13 C13 1_555 1_555
N1 C3 1_555 1_555
C11 C12 1_555 1_555

#END
