
#######################################################################
#
#                 Cambridge Crystallographic Data Centre
#                                CCDC 
#
#######################################################################
#
# If this CIF has been generated from an entry in the Cambridge 
# Structural Database, then it will include bibliographic, chemical, 
# crystal, experimental, refinement or atomic coordinate data resulting 
# from the CCDC's data processing and validation procedures.
#
#######################################################################

data_EKIWIE
_chemical_formula_moiety         'C18 H15 N1 O4 S1'
_chemical_name_systematic        
5-Phenyl-3-p-toluenesulfonyl-4-vinylideneoxazolidin-2-one
_symmetry_cell_setting           triclinic
_symmetry_space_group_name_H-M   'P -1'
_symmetry_Int_Tables_number      2
_space_group_name_Hall           '-P 1'
loop_
_symmetry_equiv_pos_site_id
_symmetry_equiv_pos_as_xyz
1 x,y,z
2 -x,-y,-z
_cell_length_a                   8.856(2)
_cell_length_b                   12.116(2)
_cell_length_c                   7.829(1)
_cell_angle_alpha                96.96(1)
_cell_angle_beta                 91.58(2)
_cell_angle_gamma                101.45(1)
_cell_volume                     816.109
_exptl_crystal_colour            colorless
_exptl_crystal_description       prismatic
_chemical_melting_point          107.9-108.8deg.C
_cell_formula_units_Z            2
loop_
_atom_site_label
_atom_site_type_symbol
_atom_site_fract_x
_atom_site_fract_y
_atom_site_fract_z
S1 S 0.7222(3) 0.2594(2) 0.0499(3)
O1 O 0.6532(6) 0.0730(4) 0.4142(6)
O2 O 0.7048(6) 0.2635(4) 0.4378(7)
O3 O 0.7160(6) 0.2029(4) -0.1235(7)
O4 O 0.6155(6) 0.3290(5) 0.1021(8)
N1 N 0.6953(7) 0.1508(5) 0.1738(8)
C1 C 0.6875(9) 0.0349(6) 0.119(1)
C2 C 0.6316(9) -0.0218(7) 0.275(1)
C3 C 0.6868(9) 0.1731(7) 0.352(1)
C4 C 0.7197(9) -0.0150(7) -0.025(1)
C5 C 0.744(1) -0.0756(8) -0.164(1)
C6 C 0.7196(9) -0.1076(6) 0.3264(10)
C7 C 0.6402(10) -0.2085(7) 0.369(1)
C8 C 0.720(1) -0.2856(8) 0.425(1)
C9 C 0.876(1) -0.2660(9) 0.438(1)
C10 C 0.957(1) -0.1670(10) 0.392(1)
C11 C 0.8781(9) -0.0880(7) 0.336(1)
C12 C 0.9090(9) 0.3334(6) 0.1085(10)
C13 C 1.032(1) 0.2887(8) 0.046(1)
C14 C 1.180(1) 0.3463(7) 0.092(1)
C15 C 1.2118(10) 0.4494(6) 0.196(1)
C16 C 1.087(1) 0.4918(7) 0.256(1)
C17 C 0.938(1) 0.4360(7) 0.213(1)
C18 C 1.373(1) 0.5101(10) 0.248(2)
H1 H 0.507(7) -0.056(5) 0.263(7)
H2 H 0.853(8) -0.093(6) -0.188(9)
H3 H 0.675(9) -0.099(7) -0.264(10)
H4 H 0.527(7) -0.225(5) 0.357(8)
H5 H 0.666(7) -0.351(5) 0.462(7)
H6 H 0.94(1) -0.315(7) 0.46(1)
H7 H 1.065(8) -0.150(6) 0.407(9)
H8 H 0.927(7) -0.013(5) 0.306(7)
H9 H 1.017(9) 0.222(7) -0.030(10)
H10 H 1.264(8) 0.313(5) 0.058(8)
H11 H 1.109(8) 0.566(6) 0.328(9)
H12 H 0.854(7) 0.470(5) 0.255(7)
H13 H 1.44(1) 0.473(8) 0.20(1)
H14 H 1.37(1) 0.57(1) 0.35(1)
H15 H 1.40(1) 0.559(8) 0.19(1)
loop_
_geom_bond_atom_site_label_1
_geom_bond_atom_site_label_2
_geom_bond_site_symmetry_1
_geom_bond_site_symmetry_2
S1 O3 1_555 1_555
O1 C2 1_555 1_555
O2 C3 1_555 1_555
O4 S1 1_555 1_555
N1 S1 1_555 1_555
C1 N1 1_555 1_555
C2 C1 1_555 1_555
C3 O1 1_555 1_555
C4 C1 1_555 1_555
C5 C4 1_555 1_555
C6 C2 1_555 1_555
C7 C6 1_555 1_555
C8 C7 1_555 1_555
C9 C8 1_555 1_555
C10 C9 1_555 1_555
C11 C6 1_555 1_555
C12 S1 1_555 1_555
C13 C12 1_555 1_555
C14 C13 1_555 1_555
C15 C14 1_555 1_555
C16 C15 1_555 1_555
C17 C12 1_555 1_555
C18 C15 1_555 1_555
H1 C2 1_555 1_555
H2 C5 1_555 1_555
H3 C5 1_555 1_555
H4 C7 1_555 1_555
H5 C8 1_555 1_555
H6 C9 1_555 1_555
H7 C10 1_555 1_555
H8 C11 1_555 1_555
H9 C13 1_555 1_555
H10 C14 1_555 1_555
H11 C16 1_555 1_555
H12 C17 1_555 1_555
H13 C18 1_555 1_555
H14 C18 1_555 1_555
H15 C18 1_555 1_555
N1 C3 1_555 1_555
C10 C11 1_555 1_555
C16 C17 1_555 1_555

#END
