
#######################################################################
#
#                 Cambridge Crystallographic Data Centre
#                                CCDC 
#
#######################################################################
#
# If this CIF has been generated from an entry in the Cambridge 
# Structural Database, then it will include bibliographic, chemical, 
# crystal, experimental, refinement or atomic coordinate data resulting 
# from the CCDC's data processing and validation procedures.
#
#######################################################################

data_EKOCIS
_chemical_compound_source        'Cephalotaxus mannii'
_chemical_name_common            'Mannolide A'
_chemical_formula_moiety         'C20 H24 O5'
_chemical_name_systematic        
11-hydroxy-9,17-dimethyl-6,15-dioxahexacyclo[12.2.2.1^4,7^.1^10,13^.0^1,12^.0^4,11^]icos-8-ene-5,16-dione
_symmetry_cell_setting           orthorhombic
_symmetry_space_group_name_H-M   'P 21 21 21'
_symmetry_Int_Tables_number      19
_space_group_name_Hall           'P 2ac 2ab'
loop_
_symmetry_equiv_pos_site_id
_symmetry_equiv_pos_as_xyz
1 x,y,z
2 1/2+x,1/2-y,-z
3 -x,1/2+y,1/2-z
4 1/2-x,-y,1/2+z
_cell_length_a                   6.8416(3)
_cell_length_b                   7.8031(3)
_cell_length_c                   30.6323(13)
_cell_angle_alpha                90
_cell_angle_beta                 90
_cell_angle_gamma                90
_cell_volume                     1635.33
_exptl_crystal_colour            colorless
_exptl_crystal_description       plate
_cell_formula_units_Z            4
loop_
_atom_site_label
_atom_site_type_symbol
_atom_site_fract_x
_atom_site_fract_y
_atom_site_fract_z
O1 O 0.2086(4) 0.5316(4) 0.75314(6)
O2 O -0.1114(4) 0.5100(5) 0.74793(8)
O3 O -0.0368(4) 0.7693(3) 0.81836(7)
H1 H 0.0539 0.8103 0.8043
O4 O -0.2715(4) 0.6172(3) 0.96426(7)
O5 O -0.4728(3) 0.4279(4) 0.93532(8)
C1 C 0.3591(5) 0.4998(5) 0.78621(10)
H2 H 0.4652 0.4340 0.7728
C2 C 0.4401(5) 0.6647(5) 0.80259(10)
H3 H 0.5425 0.7112 0.7865
C3 C 0.3839(4) 0.7535(4) 0.83749(10)
C4 C 0.2241(4) 0.6946(4) 0.86799(9)
H4 H 0.2758 0.5982 0.8849
C5 C 0.1458(5) 0.8278(4) 0.90071(10)
H5 H 0.2316 0.8358 0.9258
H6 H 0.1372 0.9398 0.8871
C6 C -0.0582(5) 0.7652(4) 0.91461(9)
H7 H -0.1510 0.8604 0.9122
C7 C -0.1154(4) 0.6250(4) 0.88190(8)
H8 H -0.2415 0.6579 0.8692
C8 C 0.0354(4) 0.6329(4) 0.84559(9)
C9 C 0.0496(5) 0.4601(4) 0.81853(9)
C10 C 0.2537(6) 0.3859(4) 0.81830(10)
H9 H 0.3128 0.3922 0.8470
H10 H 0.2531 0.2676 0.8086
C11 C -0.1498(9) 0.3618(8) 0.82429(17)
H11 H -0.2578 0.4381 0.8177
H12 H -0.1552 0.2659 0.8042
C12 C -0.168(3) 0.296(2) 0.8717(6)
H13 H -0.0675 0.2111 0.8772
H14 H -0.2942 0.2421 0.8757
C13 C -0.1451(4) 0.4505(4) 0.90526(8)
C14 C 0.0275(4) 0.3977(4) 0.93546(8)
H15 H 0.1445 0.3832 0.9174
C15 C 0.0664(5) 0.5437(5) 0.96823(10)
H16 H 0.0503 0.5014 0.9978
H17 H 0.1996 0.5843 0.9650
C16 C -0.0734(5) 0.6877(5) 0.96013(10)
H18 H -0.0537 0.7775 0.9821
C17 C -0.3129(5) 0.4912(5) 0.93544(9)
C18 C -0.0124(6) 0.2286(5) 0.95913(11)
H19 H -0.1219 0.2424 0.9784
H20 H 0.1008 0.1963 0.9757
H21 H -0.0410 0.1409 0.9381
C19 C 0.4850(5) 0.9208(5) 0.84776(13)
H22 H 0.5983 0.9328 0.8295
H23 H 0.5242 0.9215 0.8779
H24 H 0.3970 1.0142 0.8424
C20 C 0.0314(5) 0.5034(5) 0.77030(10)
C21? C -0.0599(16) 0.3008(11) 0.8387(3)
H25? H -0.1177 0.2363 0.8149
H26? H 0.0370 0.2275 0.8523
C22? C -0.212(3) 0.335(2) 0.8706(7)
H27? H -0.2539 0.2271 0.8836
H28? H -0.3241 0.3850 0.8561
loop_
_geom_bond_atom_site_label_1
_geom_bond_atom_site_label_2
_geom_bond_site_symmetry_1
_geom_bond_site_symmetry_2
O1 C1 1_555 1_555
O2 C20 1_555 1_555
O3 H1 1_555 1_555
O4 C16 1_555 1_555
O5 C17 1_555 1_555
C1 H2 1_555 1_555
C2 C1 1_555 1_555
H3 C2 1_555 1_555
C3 C2 1_555 1_555
C4 C3 1_555 1_555
H4 C4 1_555 1_555
C5 C4 1_555 1_555
H5 C5 1_555 1_555
H6 C5 1_555 1_555
C6 C5 1_555 1_555
H7 C6 1_555 1_555
C7 C6 1_555 1_555
H8 C7 1_555 1_555
C8 O3 1_555 1_555
C9 C8 1_555 1_555
C10 C1 1_555 1_555
H9 C10 1_555 1_555
H10 C10 1_555 1_555
C11 C9 1_555 1_555
H11 C11 1_555 1_555
H12 C11 1_555 1_555
C12 C11 1_555 1_555
H13 C12 1_555 1_555
H14 C12 1_555 1_555
C13 C7 1_555 1_555
C14 C13 1_555 1_555
H15 C14 1_555 1_555
C15 C14 1_555 1_555
H16 C15 1_555 1_555
H17 C15 1_555 1_555
C16 C6 1_555 1_555
H18 C16 1_555 1_555
C17 O4 1_555 1_555
C18 C14 1_555 1_555
H19 C18 1_555 1_555
H20 C18 1_555 1_555
H21 C18 1_555 1_555
C19 C3 1_555 1_555
H22 C19 1_555 1_555
H23 C19 1_555 1_555
H24 C19 1_555 1_555
C20 O1 1_555 1_555
C4 C8 1_555 1_555
C7 C8 1_555 1_555
C9 C10 1_555 1_555
C9 C20 1_555 1_555
C12 C13 1_555 1_555
C13 C17 1_555 1_555
C15 C16 1_555 1_555

#END
