
#######################################################################
#
#                 Cambridge Crystallographic Data Centre
#                                CCDC 
#
#######################################################################
#
# If this CIF has been generated from an entry in the Cambridge 
# Structural Database, then it will include bibliographic, chemical, 
# crystal, experimental, refinement or atomic coordinate data resulting 
# from the CCDC's data processing and validation procedures.
#
#######################################################################

data_EKOCOY
_chemical_compound_source        'Cephalotaxus mannii'
_chemical_name_common            'Mannolide B'
_chemical_formula_moiety         'C20 H24 O5'
_chemical_name_systematic        
19-hydroxy-9,17-dimethyl-6,15-dioxahexacyclo[12.2.2.1^4,7^.1^10,13^.0^1,12^.0^4,11^]icos-8-ene-5,16-dione
_symmetry_cell_setting           orthorhombic
_symmetry_space_group_name_H-M   'P 21 21 21'
_symmetry_Int_Tables_number      19
_space_group_name_Hall           'P 2ac 2ab'
loop_
_symmetry_equiv_pos_site_id
_symmetry_equiv_pos_as_xyz
1 x,y,z
2 1/2+x,1/2-y,-z
3 -x,1/2+y,1/2-z
4 1/2-x,-y,1/2+z
_cell_length_a                   8.2506(2)
_cell_length_b                   11.8258(2)
_cell_length_c                   16.5504(3)
_cell_angle_alpha                90
_cell_angle_beta                 90
_cell_angle_gamma                90
_cell_volume                     1614.82
_exptl_crystal_colour            colorless
_exptl_crystal_description       plate
_cell_formula_units_Z            4
loop_
_atom_site_label
_atom_site_type_symbol
_atom_site_fract_x
_atom_site_fract_y
_atom_site_fract_z
O1 O 0.5103(3) -0.09442(19) 0.05758(17)
O2 O 0.3661(2) 0.06303(17) 0.06761(14)
O3 O 0.9034(2) 0.19761(16) -0.04439(12)
H1 H 0.8889 0.2674 -0.0503
O4 O 0.9738(2) 0.38399(15) 0.21172(13)
O5 O 0.7655(3) 0.40595(19) 0.29428(16)
C1 C 0.6669(4) -0.1353(2) 0.0897(3)
H2 H 0.6561 -0.2176 0.1023
C2 C 0.7970(4) -0.1213(3) 0.0263(3)
H3 H 0.8085 -0.1825 -0.0104
C3 C 0.8981(4) -0.0345(2) 0.01479(19)
C4 C 0.8985(3) 0.0698(2) 0.06823(17)
H4 H 0.9602 0.0502 0.1183
C5 C 0.9759(3) 0.1767(2) 0.03292(17)
H5 H 1.0962 0.1685 0.0283
C6 C 0.9300(3) 0.2718(2) 0.09262(17)
H6 H 0.9031 0.3416 0.0612
C7 C 0.7753(3) 0.2298(2) 0.13604(17)
H7 H 0.6858 0.2849 0.1256
C8 C 0.7325(3) 0.1172(2) 0.09520(16)
H8 H 0.6727 0.1369 0.0446
C9 C 0.6143(3) 0.0425(2) 0.14664(17)
C10 C 0.6858(4) -0.0720(3) 0.1674(2)
H9 H 0.8013 -0.0655 0.1830
H10 H 0.6250 -0.1089 0.2117
C11 C 0.5338(7) 0.1183(5) 0.2128(3)
H11 H 0.4529 0.0730 0.2428
H12 H 0.4759 0.1815 0.1862
C12 C 0.6617(8) 0.1681(5) 0.2745(4)
H13 H 0.6088 0.2255 0.3091
H14 H 0.7026 0.1068 0.3098
C13 C 0.8040(3) 0.2223(2) 0.22878(17)
C14 C 0.9594(4) 0.1555(2) 0.25376(19)
H15 H 0.9450 0.0749 0.2370
C15 C 1.1061(4) 0.2036(2) 0.20851(19)
H16 H 1.1895 0.2285 0.2477
H17 H 1.1542 0.1444 0.1737
C16 C 1.0531(3) 0.3018(2) 0.15777(18)
H18 H 1.1501 0.3377 0.1322
C17 C 0.8397(3) 0.3445(2) 0.25009(19)
C18 C 0.9931(6) 0.1578(3) 0.3453(2)
H19 H 1.0927 0.1156 0.3567
H20 H 0.9022 0.1230 0.3741
H21 H 1.0059 0.2363 0.3631
C19 C 1.0321(4) -0.0415(3) -0.0466(2)
H22 H 1.0263 -0.1143 -0.0748
H23 H 1.1371 -0.0349 -0.0193
H24 H 1.0203 0.0200 -0.0858
C20 C 0.4810(3) 0.0078(2) 0.08820(17)
C21? C 0.569(2) 0.0933(9) 0.2331(11)
H25? H 0.4498 0.0941 0.2376
H26? H 0.6102 0.0400 0.2745
C22? C 0.619(2) 0.1899(16) 0.2515(11)
H27? H 0.6062 0.1992 0.3105
H28? H 0.5473 0.2458 0.2251
loop_
_geom_bond_atom_site_label_1
_geom_bond_atom_site_label_2
_geom_bond_site_symmetry_1
_geom_bond_site_symmetry_2
O1 C1 1_555 1_555
O2 C20 1_555 1_555
O3 H1 1_555 1_555
O4 C16 1_555 1_555
O5 C17 1_555 1_555
C1 H2 1_555 1_555
C2 C1 1_555 1_555
H3 C2 1_555 1_555
C3 C2 1_555 1_555
C4 C3 1_555 1_555
H4 C4 1_555 1_555
C5 O3 1_555 1_555
H5 C5 1_555 1_555
C6 C5 1_555 1_555
H6 C6 1_555 1_555
C7 C6 1_555 1_555
H7 C7 1_555 1_555
C8 C4 1_555 1_555
H8 C8 1_555 1_555
C9 C8 1_555 1_555
C10 C1 1_555 1_555
H9 C10 1_555 1_555
H10 C10 1_555 1_555
C11 C9 1_555 1_555
H11 C11 1_555 1_555
H12 C11 1_555 1_555
C12 C11 1_555 1_555
H13 C12 1_555 1_555
H14 C12 1_555 1_555
C13 C7 1_555 1_555
C14 C13 1_555 1_555
H15 C14 1_555 1_555
C15 C14 1_555 1_555
H16 C15 1_555 1_555
H17 C15 1_555 1_555
C16 C6 1_555 1_555
H18 C16 1_555 1_555
C17 O4 1_555 1_555
C18 C14 1_555 1_555
H19 C18 1_555 1_555
H20 C18 1_555 1_555
H21 C18 1_555 1_555
C19 C3 1_555 1_555
H22 C19 1_555 1_555
H23 C19 1_555 1_555
H24 C19 1_555 1_555
C20 O1 1_555 1_555
C4 C5 1_555 1_555
C7 C8 1_555 1_555
C9 C10 1_555 1_555
C9 C20 1_555 1_555
C12 C13 1_555 1_555
C13 C17 1_555 1_555
C15 C16 1_555 1_555

#END
