
#######################################################################
#
#                 Cambridge Crystallographic Data Centre
#                                CCDC 
#
#######################################################################
#
# If this CIF has been generated from an entry in the Cambridge 
# Structural Database, then it will include bibliographic, chemical, 
# crystal, experimental, refinement or atomic coordinate data resulting 
# from the CCDC's data processing and validation procedures.
#
#######################################################################

data_EKODOZ
_chemical_formula_moiety         'C44 H32 N2 O5 S1'
_chemical_name_systematic        
1-(2-(4-methoxyphenyl)-3-phenoxy-1H-inden-1-ylidene)-2-(2-(4-methoxyphenyl)-3-(phenylsulfonyl)-1H-inden-1-ylidene)hydrazine
_symmetry_cell_setting           triclinic
_symmetry_space_group_name_H-M   'P -1'
_symmetry_Int_Tables_number      2
_space_group_name_Hall           '-P 1'
loop_
_symmetry_equiv_pos_site_id
_symmetry_equiv_pos_as_xyz
1 x,y,z
2 -x,-y,-z
_cell_length_a                   11.2207(8)
_cell_length_b                   11.9968(9)
_cell_length_c                   14.8113(12)
_cell_angle_alpha                69.4930(10)
_cell_angle_beta                 75.670(2)
_cell_angle_gamma                69.3850(10)
_cell_volume                     1730.24
_exptl_crystal_colour            red
_exptl_crystal_description       block
_cell_formula_units_Z            2
loop_
_atom_site_label
_atom_site_type_symbol
_atom_site_fract_x
_atom_site_fract_y
_atom_site_fract_z
N1 N 0.4486(3) 0.5098(3) 0.34210(18)
N2 N 0.4169(3) 0.4374(3) 0.43633(18)
O1 O 0.6420(2) 0.0701(2) 0.66300(19)
O2 O 0.8431(2) 0.5906(2) -0.03374(17)
O3 O 0.0341(2) 0.2740(2) 0.82490(17)
O4 O 0.1266(2) 1.0130(2) 0.12091(17)
O5 O 0.3587(2) 0.9888(2) 0.09510(16)
S1 S 0.25676(10) 0.93653(9) 0.10698(7)
C1 C 0.3558(3) 0.6086(3) 0.3132(2)
C2 C 0.3796(3) 0.6997(3) 0.2164(2)
C3 C 0.2752(3) 0.8002(3) 0.2073(2)
C4 C 0.1750(3) 0.7796(3) 0.2932(2)
C5 C 0.2246(3) 0.6621(3) 0.3559(2)
C6 C 0.1495(3) 0.6142(3) 0.4407(2)
H1 H 0.1817 0.5354 0.4823
C7 C 0.0247(3) 0.6872(4) 0.4616(3)
H2 H -0.0275 0.6564 0.5176
C8 C -0.0228(4) 0.8043(4) 0.4009(3)
H3 H -0.1056 0.8525 0.4173
C9 C 0.0516(3) 0.8514(4) 0.3153(3)
H4 H 0.0187 0.9300 0.2737
C10 C 0.5021(3) 0.6740(3) 0.1508(2)
C11 C 0.5831(3) 0.7474(3) 0.1242(2)
H5 H 0.5598 0.8154 0.1482
C12 C 0.6977(3) 0.7231(3) 0.0632(2)
H6 H 0.7509 0.7737 0.0469
C13 C 0.7324(3) 0.6247(4) 0.0271(2)
C14 C 0.6539(4) 0.5488(3) 0.0531(2)
H7 H 0.6780 0.4811 0.0287
C15 C 0.5400(3) 0.5724(3) 0.1150(2)
H8 H 0.4883 0.5200 0.1328
C16 C 0.9304(3) 0.6614(4) -0.0568(3)
H9 H 0.8926 0.7446 -0.0950
H10 H 1.0086 0.6238 -0.0932
H11 H 0.9491 0.6638 0.0023
C17 C 0.5123(3) 0.3452(3) 0.4678(2)
C18 C 0.4978(3) 0.2552(3) 0.5660(2)
C19 C 0.6102(4) 0.1684(3) 0.5748(2)
C20 C 0.7068(3) 0.1909(3) 0.4886(2)
C21 C 0.6478(3) 0.3000(3) 0.4223(2)
C22 C 0.7167(3) 0.3455(3) 0.3340(2)
H12 H 0.6785 0.4186 0.2888
C23 C 0.8454(4) 0.2789(4) 0.3141(3)
H13 H 0.8933 0.3082 0.2549
C24 C 0.9019(4) 0.1723(4) 0.3796(3)
H14 H 0.9878 0.1299 0.3645
C25 C 0.8333(4) 0.1256(4) 0.4688(3)
H15 H 0.8719 0.0524 0.5136
C26 C 0.3768(3) 0.2618(3) 0.6342(2)
C27 C 0.2937(3) 0.3742(3) 0.6433(2)
H16 H 0.3158 0.4466 0.6069
C28 C 0.1781(3) 0.3827(3) 0.7050(2)
H17 H 0.1224 0.4600 0.7087
C29 C 0.1457(4) 0.2747(3) 0.7614(2)
C30 C 0.2291(3) 0.1626(3) 0.7548(2)
H18 H 0.2083 0.0901 0.7933
C31 C 0.3435(3) 0.1539(3) 0.6925(2)
H19 H 0.3986 0.0763 0.6892
C32 C -0.0642(3) 0.3870(4) 0.8182(3)
H20 H -0.0376 0.4419 0.8377
H21 H -0.1406 0.3716 0.8601
H22 H -0.0817 0.4248 0.7522
C33 C 0.6725(3) -0.0505(4) 0.6546(3)
C34 C 0.7261(4) -0.1451(4) 0.7334(3)
H23 H 0.7428 -0.1267 0.7842
C35 C 0.7532(4) -0.2644(5) 0.7333(3)
H24 H 0.7889 -0.3281 0.7855
C36 C 0.7305(4) -0.2948(5) 0.6610(4)
H25 H 0.7509 -0.3777 0.6630
C37 C 0.6770(4) -0.2016(5) 0.5848(3)
H26 H 0.6591 -0.2215 0.5352
C38 C 0.6499(4) -0.0814(4) 0.5802(3)
H27 H 0.6159 -0.0190 0.5268
C39 C 0.2754(3) 0.8861(3) 0.0049(2)
C40 C 0.1728(3) 0.8652(3) -0.0147(3)
H28 H 0.0948 0.8763 0.0263
C41 C 0.1863(4) 0.8278(4) -0.0954(3)
H29 H 0.1169 0.8151 -0.1099
C42 C 0.3019(5) 0.8093(4) -0.1541(3)
H30 H 0.3115 0.7815 -0.2074
C43 C 0.4033(4) 0.8312(4) -0.1357(3)
H31 H 0.4810 0.8195 -0.1771
C44 C 0.3915(3) 0.8705(3) -0.0559(3)
H32 H 0.4603 0.8862 -0.0434
loop_
_geom_bond_atom_site_label_1
_geom_bond_atom_site_label_2
_geom_bond_site_symmetry_1
_geom_bond_site_symmetry_2
N1 N2 1_555 1_555
N2 C17 1_555 1_555
O1 C19 1_555 1_555
O2 C13 1_555 1_555
O3 C29 1_555 1_555
O4 S1 1_555 1_555
O5 S1 1_555 1_555
S1 C3 1_555 1_555
C1 N1 1_555 1_555
C2 C1 1_555 1_555
C3 C2 1_555 1_555
C4 C3 1_555 1_555
C5 C1 1_555 1_555
C6 C5 1_555 1_555
H1 C6 1_555 1_555
C7 C6 1_555 1_555
H2 C7 1_555 1_555
C8 C7 1_555 1_555
H3 C8 1_555 1_555
C9 C4 1_555 1_555
H4 C9 1_555 1_555
C10 C2 1_555 1_555
C11 C10 1_555 1_555
H5 C11 1_555 1_555
C12 C11 1_555 1_555
H6 C12 1_555 1_555
C13 C12 1_555 1_555
C14 C13 1_555 1_555
H7 C14 1_555 1_555
C15 C10 1_555 1_555
H8 C15 1_555 1_555
C16 O2 1_555 1_555
H9 C16 1_555 1_555
H10 C16 1_555 1_555
H11 C16 1_555 1_555
C17 C18 1_555 1_555
C18 C19 1_555 1_555
C19 C20 1_555 1_555
C20 C21 1_555 1_555
C21 C17 1_555 1_555
C22 C21 1_555 1_555
H12 C22 1_555 1_555
C23 C22 1_555 1_555
H13 C23 1_555 1_555
C24 C23 1_555 1_555
H14 C24 1_555 1_555
C25 C20 1_555 1_555
H15 C25 1_555 1_555
C26 C18 1_555 1_555
C27 C26 1_555 1_555
H16 C27 1_555 1_555
C28 C27 1_555 1_555
H17 C28 1_555 1_555
C29 C28 1_555 1_555
C30 C29 1_555 1_555
H18 C30 1_555 1_555
C31 C26 1_555 1_555
H19 C31 1_555 1_555
C32 O3 1_555 1_555
H20 C32 1_555 1_555
H21 C32 1_555 1_555
H22 C32 1_555 1_555
C33 O1 1_555 1_555
C34 C33 1_555 1_555
H23 C34 1_555 1_555
C35 C34 1_555 1_555
H24 C35 1_555 1_555
C36 C35 1_555 1_555
H25 C36 1_555 1_555
C37 C36 1_555 1_555
H26 C37 1_555 1_555
C38 C33 1_555 1_555
H27 C38 1_555 1_555
C39 S1 1_555 1_555
C40 C39 1_555 1_555
H28 C40 1_555 1_555
C41 C40 1_555 1_555
H29 C41 1_555 1_555
C42 C41 1_555 1_555
H30 C42 1_555 1_555
C43 C42 1_555 1_555
H31 C43 1_555 1_555
C44 C39 1_555 1_555
H32 C44 1_555 1_555
C4 C5 1_555 1_555
C8 C9 1_555 1_555
C14 C15 1_555 1_555
C24 C25 1_555 1_555
C30 C31 1_555 1_555
C37 C38 1_555 1_555
C43 C44 1_555 1_555

#END
