
#######################################################################
#
#                 Cambridge Crystallographic Data Centre
#                                CCDC 
#
#######################################################################
#
# If this CIF has been generated from an entry in the Cambridge 
# Structural Database, then it will include bibliographic, chemical, 
# crystal, experimental, refinement or atomic coordinate data resulting 
# from the CCDC's data processing and validation procedures.
#
#######################################################################

data_EKOMUO
_chemical_formula_moiety         'C47 H82 O5 Si4'
_chemical_name_systematic        
((10,10,13,13-tetramethyl-10,11,12,13-tetrahydro-4H,6H-diindeno[7,1-cd:1',7'-ef]oxocine-2,3,7,8-tetrayl)tetrakis(oxy))tetrakis(t-butyl(dimethyl)silane)
_symmetry_cell_setting           triclinic
_symmetry_space_group_name_H-M   'P -1'
_symmetry_Int_Tables_number      2
_space_group_name_Hall           '-P 1'
loop_
_symmetry_equiv_pos_site_id
_symmetry_equiv_pos_as_xyz
1 x,y,z
2 -x,-y,-z
_cell_length_a                   11.8267(6)
_cell_length_b                   13.4665(7)
_cell_length_c                   18.3608(9)
_cell_angle_alpha                106.876(3)
_cell_angle_beta                 92.299(3)
_cell_angle_gamma                109.501(3)
_cell_volume                     2607.16
_exptl_crystal_colour            colorless
_exptl_crystal_description       block
_cell_formula_units_Z            2
loop_
_atom_site_label
_atom_site_type_symbol
_atom_site_fract_x
_atom_site_fract_y
_atom_site_fract_z
C1 C 0.7877(2) -0.0761(2) 0.27353(16)
C2 C 0.7356(3) -0.1728(2) 0.29225(16)
H1 H 0.7716 -0.2261 0.2831
C3 C 0.6296(3) -0.1893(2) 0.32468(16)
C4 C 0.5700(2) -0.1135(2) 0.33166(15)
C5 C 0.6226(2) -0.0156(2) 0.31328(15)
C6 C 0.5507(3) 0.0570(2) 0.30979(16)
H2 H 0.4937 0.0515 0.3463
H3 H 0.6051 0.1339 0.3241
C7 C 0.5596(3) 0.0276(2) 0.17342(16)
H4 H 0.5084 0.0058 0.1246
H5 H 0.6003 -0.0250 0.1695
C8 C 0.6525(2) 0.1420(2) 0.18894(15)
C9 C 0.7629(2) 0.1764(2) 0.23697(15)
C10 C 0.8175(2) 0.1073(2) 0.26975(15)
C11 C 0.7357(2) 0.0046(2) 0.28759(15)
C12 C 0.6240(2) 0.2214(2) 0.16480(15)
C13 C 0.7066(3) 0.3307(2) 0.18429(16)
C14 C 0.8117(2) 0.3649(2) 0.23582(15)
H6 H 0.8642 0.4387 0.2519
C15 C 0.8378(2) 0.2877(2) 0.26318(15)
C16 C 0.9408(2) 0.3119(2) 0.32546(15)
C17 C 0.9467(3) 0.4073(2) 0.39746(16)
H7 H 0.9692 0.4756 0.3856
H8 H 1.0060 0.4141 0.4377
H9 H 0.8687 0.3920 0.4142
C18 C 1.0642(3) 0.3430(2) 0.29669(17)
H10 H 1.0620 0.2846 0.2511
H11 H 1.1267 0.3526 0.3359
H12 H 1.0808 0.4111 0.2851
C19 C 0.9006(3) 0.1998(2) 0.34264(15)
H13 H 0.8566 0.2046 0.3863
H14 H 0.9711 0.1828 0.3550
C20 C 0.8922(3) 0.0542(2) 0.21373(16)
H15 H 0.8530 0.0304 0.1610
H16 H 0.9730 0.1081 0.2187
C21 C 0.8995(3) -0.0469(2) 0.23480(16)
C22 C 1.0145(3) -0.0193(3) 0.29053(19)
H17 H 1.0193 0.0396 0.3365
H18 H 1.0847 0.0039 0.2663
H19 H 1.0113 -0.0842 0.3036
C23 C 0.8928(3) -0.1415(2) 0.16247(18)
H20 H 0.8960 -0.2038 0.1767
H21 H 0.9601 -0.1167 0.1363
H22 H 0.8182 -0.1634 0.1289
C24 C 0.5054(3) -0.4564(2) 0.40637(19)
H23 H 0.4563 -0.4261 0.4398
H24 H 0.5334 -0.5028 0.4276
H25 H 0.4581 -0.4999 0.3566
C25 C 0.7408(3) -0.4037(3) 0.34395(19)
H26 H 0.7032 -0.4444 0.2915
H27 H 0.7569 -0.4531 0.3679
H28 H 0.8157 -0.3457 0.3450
C26 C 0.7162(3) -0.2385(2) 0.4890(2)
C27 C 0.7654(3) -0.2966(3) 0.5410(2)
H29 H 0.8208 -0.3279 0.5155
H30 H 0.6984 -0.3547 0.5490
H31 H 0.8064 -0.2423 0.5899
C28 C 0.6328(3) -0.1883(3) 0.53745(19)
H32 H 0.6785 -0.1373 0.5862
H33 H 0.5668 -0.2468 0.5457
H34 H 0.6013 -0.1494 0.5106
C29 C 0.8302(3) -0.1433(3) 0.48358(19)
H35 H 0.8069 -0.1030 0.4541
H36 H 0.8866 -0.1741 0.4589
H37 H 0.8679 -0.0936 0.5344
C30 C 0.3185(3) -0.3587(3) 0.26071(18)
H38 H 0.3732 -0.3492 0.2239
H39 H 0.2377 -0.4031 0.2341
H40 H 0.3428 -0.3953 0.2928
C31 C 0.2533(3) -0.1599(3) 0.26084(18)
H41 H 0.2494 -0.0907 0.2923
H42 H 0.1729 -0.2109 0.2373
H43 H 0.3020 -0.1471 0.2215
C32 C 0.2404(3) -0.2292(2) 0.40610(17)
C33 C 0.2668(4) -0.1126(3) 0.4628(2)
H44 H 0.2451 -0.0679 0.4365
H45 H 0.3517 -0.0789 0.4833
H46 H 0.2202 -0.1179 0.5040
C34 C 0.2799(3) -0.2993(3) 0.4475(2)
H47 H 0.3661 -0.2672 0.4635
H48 H 0.2584 -0.3739 0.4131
H49 H 0.2397 -0.3006 0.4919
C35 C 0.1028(3) -0.2847(3) 0.3792(2)
H50 H 0.0621 -0.2920 0.4226
H51 H 0.0849 -0.3571 0.3422
H52 H 0.0756 -0.2399 0.3559
C36 C 0.3890(3) 0.2410(3) 0.24734(19)
H53 H 0.3839 0.1733 0.2569
H54 H 0.3195 0.2592 0.2619
H55 H 0.4615 0.3002 0.2770
C37 C 0.3947(3) 0.3499(3) 0.1239(3)
H56 H 0.4623 0.4125 0.1560
H57 H 0.3206 0.3618 0.1346
H58 H 0.4021 0.3416 0.0708
C38 C 0.2608(3) 0.0995(3) 0.08114(18)
C39 C 0.2312(3) 0.0025(3) 0.1140(3)
H59 H 0.2087 0.0248 0.1641
H60 H 0.3012 -0.0177 0.1178
H61 H 0.1651 -0.0602 0.0805
C40 C 0.1485(3) 0.1316(4) 0.0766(3)
H62 H 0.0794 0.0665 0.0492
H63 H 0.1621 0.1853 0.0500
H64 H 0.1338 0.1630 0.1277
C41 C 0.2914(4) 0.0594(5) -0.0004(2)
H65 H 0.2238 -0.0040 -0.0318
H66 H 0.3615 0.0391 0.0023
H67 H 0.3079 0.1181 -0.0227
C42 C 0.6617(3) 0.5617(3) 0.0893(2)
H68 H 0.5829 0.5153 0.0603
H69 H 0.7041 0.6116 0.0629
H70 H 0.6531 0.6040 0.1394
C43 C 0.9072(3) 0.5631(2) 0.14700(18)
H71 H 0.9059 0.6092 0.1976
H72 H 0.9447 0.6092 0.1169
H73 H 0.9527 0.5171 0.1509
C44 C 0.7492(3) 0.3737(3) 0.00395(18)
C45 C 0.6196(3) 0.2955(3) -0.0344(2)
H74 H 0.5727 0.3386 -0.0422
H75 H 0.5827 0.2535 -0.0018
H76 H 0.6223 0.2455 -0.0831
C46 C 0.8061(3) 0.4410(3) -0.04932(19)
H77 H 0.8087 0.3909 -0.0980
H78 H 0.8870 0.4908 -0.0259
H79 H 0.7580 0.4831 -0.0571
C47 C 0.8266(4) 0.3039(3) 0.0123(2)
H80 H 0.7908 0.2583 0.0430
H81 H 0.9073 0.3528 0.0368
H82 H 0.8296 0.2574 -0.0378
O1 O 0.57728(18) -0.28135(16) 0.34741(12)
O2 O 0.46246(17) -0.13323(15) 0.36130(10)
O3 O 0.48540(16) 0.02389(15) 0.23358(11)
O4 O 0.51402(16) 0.19023(15) 0.11906(11)
O5 O 0.67640(17) 0.40509(15) 0.15640(10)
Si1 Si 0.63772(8) -0.34135(7) 0.39689(5)
Si2 Si 0.32216(7) -0.21997(7) 0.32154(5)
Si3 Si 0.39291(8) 0.22219(7) 0.14371(5)
Si4 Si 0.74915(8) 0.47327(7) 0.09966(5)
loop_
_geom_bond_atom_site_label_1
_geom_bond_atom_site_label_2
_geom_bond_site_symmetry_1
_geom_bond_site_symmetry_2
C1 C2 1_555 1_555
C2 H1 1_555 1_555
C3 C2 1_555 1_555
C4 C3 1_555 1_555
C5 C4 1_555 1_555
C6 C5 1_555 1_555
H2 C6 1_555 1_555
H3 C6 1_555 1_555
C7 H4 1_555 1_555
H5 C7 1_555 1_555
C8 C7 1_555 1_555
C9 C8 1_555 1_555
C10 C9 1_555 1_555
C11 C1 1_555 1_555
C12 C8 1_555 1_555
C13 C12 1_555 1_555
C14 C13 1_555 1_555
H6 C14 1_555 1_555
C15 C9 1_555 1_555
C16 C15 1_555 1_555
C17 C16 1_555 1_555
H7 C17 1_555 1_555
H8 C17 1_555 1_555
H9 C17 1_555 1_555
C18 C16 1_555 1_555
H10 C18 1_555 1_555
H11 C18 1_555 1_555
H12 C18 1_555 1_555
C19 C10 1_555 1_555
H13 C19 1_555 1_555
H14 C19 1_555 1_555
C20 C10 1_555 1_555
H15 C20 1_555 1_555
H16 C20 1_555 1_555
C21 C1 1_555 1_555
C22 C21 1_555 1_555
H17 C22 1_555 1_555
H18 C22 1_555 1_555
H19 C22 1_555 1_555
C23 C21 1_555 1_555
H20 C23 1_555 1_555
H21 C23 1_555 1_555
H22 C23 1_555 1_555
C24 H23 1_555 1_555
H24 C24 1_555 1_555
H25 C24 1_555 1_555
C25 H26 1_555 1_555
H27 C25 1_555 1_555
H28 C25 1_555 1_555
C26 C27 1_555 1_555
C27 H29 1_555 1_555
H30 C27 1_555 1_555
H31 C27 1_555 1_555
C28 C26 1_555 1_555
H32 C28 1_555 1_555
H33 C28 1_555 1_555
H34 C28 1_555 1_555
C29 C26 1_555 1_555
H35 C29 1_555 1_555
H36 C29 1_555 1_555
H37 C29 1_555 1_555
C30 H38 1_555 1_555
H39 C30 1_555 1_555
H40 C30 1_555 1_555
C31 H41 1_555 1_555
H42 C31 1_555 1_555
H43 C31 1_555 1_555
C32 C33 1_555 1_555
C33 H44 1_555 1_555
H45 C33 1_555 1_555
H46 C33 1_555 1_555
C34 C32 1_555 1_555
H47 C34 1_555 1_555
H48 C34 1_555 1_555
H49 C34 1_555 1_555
C35 C32 1_555 1_555
H50 C35 1_555 1_555
H51 C35 1_555 1_555
H52 C35 1_555 1_555
C36 H53 1_555 1_555
H54 C36 1_555 1_555
H55 C36 1_555 1_555
C37 H56 1_555 1_555
H57 C37 1_555 1_555
H58 C37 1_555 1_555
C38 C39 1_555 1_555
C39 H59 1_555 1_555
H60 C39 1_555 1_555
H61 C39 1_555 1_555
C40 C38 1_555 1_555
H62 C40 1_555 1_555
H63 C40 1_555 1_555
H64 C40 1_555 1_555
C41 C38 1_555 1_555
H65 C41 1_555 1_555
H66 C41 1_555 1_555
H67 C41 1_555 1_555
C42 H68 1_555 1_555
H69 C42 1_555 1_555
H70 C42 1_555 1_555
C43 H71 1_555 1_555
H72 C43 1_555 1_555
H73 C43 1_555 1_555
C44 C45 1_555 1_555
C45 H74 1_555 1_555
H75 C45 1_555 1_555
H76 C45 1_555 1_555
C46 C44 1_555 1_555
H77 C46 1_555 1_555
H78 C46 1_555 1_555
H79 C46 1_555 1_555
C47 C44 1_555 1_555
H80 C47 1_555 1_555
H81 C47 1_555 1_555
H82 C47 1_555 1_555
O1 C3 1_555 1_555
O2 C4 1_555 1_555
O3 C6 1_555 1_555
O4 C12 1_555 1_555
O5 C13 1_555 1_555
Si1 C24 1_555 1_555
Si2 C30 1_555 1_555
Si3 C36 1_555 1_555
Si4 C42 1_555 1_555
C5 C11 1_555 1_555
C7 O3 1_555 1_555
C10 C11 1_555 1_555
C14 C15 1_555 1_555
C16 C19 1_555 1_555
C20 C21 1_555 1_555
C25 Si1 1_555 1_555
C26 Si1 1_555 1_555
C31 Si2 1_555 1_555
C32 Si2 1_555 1_555
C37 Si3 1_555 1_555
C38 Si3 1_555 1_555
C43 Si4 1_555 1_555
C44 Si4 1_555 1_555
O1 Si1 1_555 1_555
O2 Si2 1_555 1_555
O4 Si3 1_555 1_555
O5 Si4 1_555 1_555

#END
