
#######################################################################
#
#                 Cambridge Crystallographic Data Centre
#                                CCDC 
#
#######################################################################
#
# If this CIF has been generated from an entry in the Cambridge 
# Structural Database, then it will include bibliographic, chemical, 
# crystal, experimental, refinement or atomic coordinate data resulting 
# from the CCDC's data processing and validation procedures.
#
#######################################################################

data_EKONOH
_chemical_formula_moiety         'C14 H19 N1 O4'
_chemical_name_systematic        
15-Formyl-11-methyl-11-aza-2,5,8-trioxabicyclo(10.4.0)hexadeca-1(16),12,14-triene
_symmetry_cell_setting           orthorhombic
_symmetry_space_group_name_H-M   'P 21 21 21'
_symmetry_Int_Tables_number      19
_space_group_name_Hall           'P 2ac 2ab'
loop_
_symmetry_equiv_pos_site_id
_symmetry_equiv_pos_as_xyz
1 x,y,z
2 1/2-x,-y,1/2+z
3 -x,1/2+y,1/2-z
4 1/2+x,1/2-y,-z
_cell_length_a                   6.8218(4)
_cell_length_b                   12.1261(8)
_cell_length_c                   15.951(1)
_cell_angle_alpha                90
_cell_angle_beta                 90
_cell_angle_gamma                90
_cell_volume                     1319.5
_exptl_crystal_colour            colorless
_exptl_crystal_description       block
_chemical_melting_point          '71-72 deg.C'
_cell_formula_units_Z            4
_exptl_crystal_recrystallization_method hexane
loop_
_atom_site_label
_atom_site_type_symbol
_atom_site_fract_x
_atom_site_fract_y
_atom_site_fract_z
N1 N -0.1960(3) 0.2696(2) 0.61365(11)
O1 O 0.0958(2) 0.42278(12) 0.61933(9)
O2 O 0.2390(2) 0.43439(14) 0.78246(9)
O3 O 0.1163(2) 0.20773(14) 0.79823(9)
O4 O -0.1835(3) 0.75910(14) 0.45711(11)
C1 C -0.2154(3) 0.3681(2) 0.56998(13)
C2 C -0.3725(4) 0.3873(2) 0.51553(15)
C3 C -0.3927(4) 0.4876(2) 0.47415(14)
C4 C -0.2575(3) 0.5718(2) 0.48607(13)
C5 C -0.0922(3) 0.5514(2) 0.53647(13)
C6 C -0.0692(3) 0.4513(2) 0.57603(13)
C7 C -0.2882(4) 0.6790(2) 0.44699(15)
C8 C 0.2263(4) 0.5090(2) 0.64547(15)
C9 C 0.3567(4) 0.4589(2) 0.71099(15)
C10 C 0.3292(4) 0.3594(2) 0.8392(2)
C11 C 0.3146(4) 0.2397(2) 0.8125(2)
C12 C 0.0565(4) 0.2036(2) 0.71247(15)
C13 C -0.1298(4) 0.2713(2) 0.70158(14)
C14 C -0.3309(4) 0.1805(2) 0.5942(2)
H1 H -0.4661(45) 0.3370(26) 0.5067(17)
H2 H -0.5046(41) 0.4999(20) 0.4373(15)
H3 H 0.0066(33) 0.6105(18) 0.5430(13)
H4 H -0.3978(43) 0.6807(22) 0.4095(16)
H5 H 0.3031(46) 0.5382(25) 0.5975(17)
H6 H 0.1516(39) 0.5687(22) 0.6693(15)
H7 H 0.4204(37) 0.3939(22) 0.6920(14)
H8 H 0.4618(43) 0.5093(23) 0.7309(17)
H9 H 0.2581(40) 0.3706(21) 0.8920(16)
H10 H 0.4714(39) 0.3772(19) 0.8463(14)
H11 H 0.3671(38) 0.1935(20) 0.8572(15)
H12 H 0.3874(37) 0.2304(18) 0.7622(15)
H13 H 0.1528(40) 0.2312(21) 0.6800(15)
H14 H 0.0489(38) 0.1271(22) 0.6953(14)
H15 H -0.2344(40) 0.2357(22) 0.7371(16)
H16 H -0.1130(30) 0.3461(17) 0.7187(11)
H17 H -0.3301(35) 0.1653(20) 0.5307(16)
H18 H -0.4644(41) 0.1939(21) 0.6101(15)
H19 H -0.2919(41) 0.1197(23) 0.6264(15)
loop_
_geom_bond_atom_site_label_1
_geom_bond_atom_site_label_2
_geom_bond_site_symmetry_1
_geom_bond_site_symmetry_2
N1 C1 1_555 1_555
O1 C6 1_555 1_555
O2 C9 1_555 1_555
O3 C11 1_555 1_555
O4 C7 1_555 1_555
C1 C2 1_555 1_555
C2 C3 1_555 1_555
C3 C4 1_555 1_555
C4 C5 1_555 1_555
C5 C6 1_555 1_555
C6 C1 1_555 1_555
C7 C4 1_555 1_555
C8 O1 1_555 1_555
C9 C8 1_555 1_555
C10 O2 1_555 1_555
C11 C10 1_555 1_555
C12 O3 1_555 1_555
C13 N1 1_555 1_555
C14 N1 1_555 1_555
H1 C2 1_555 1_555
H2 C3 1_555 1_555
H3 C5 1_555 1_555
H4 C7 1_555 1_555
H5 C8 1_555 1_555
H6 C8 1_555 1_555
H7 C9 1_555 1_555
H8 C9 1_555 1_555
H9 C10 1_555 1_555
H10 C10 1_555 1_555
H11 C11 1_555 1_555
H12 C11 1_555 1_555
H13 C12 1_555 1_555
H14 C12 1_555 1_555
H15 C13 1_555 1_555
H16 C13 1_555 1_555
H17 C14 1_555 1_555
H18 C14 1_555 1_555
H19 C14 1_555 1_555
C12 C13 1_555 1_555

#END
