
#######################################################################
#
#                 Cambridge Crystallographic Data Centre
#                                CCDC 
#
#######################################################################
#
# If this CIF has been generated from an entry in the Cambridge 
# Structural Database, then it will include bibliographic, chemical, 
# crystal, experimental, refinement or atomic coordinate data resulting 
# from the CCDC's data processing and validation procedures.
#
#######################################################################

data_EKOSOO
_chemical_formula_moiety         'C70 H9 Cl2 N1 O4'
_chemical_name_systematic        
(3,5-Dichloro-2,4,6-trimethoxyphenylmethyleneaminoxy-C,O)-C80fullerene
_symmetry_cell_setting           monoclinic
_symmetry_space_group_name_H-M   'P 21/c'
_symmetry_Int_Tables_number      14
_space_group_name_Hall           '-P 2ybc'
loop_
_symmetry_equiv_pos_site_id
_symmetry_equiv_pos_as_xyz
1 x,y,z
2 -x,1/2+y,1/2-z
3 -x,-y,-z
4 x,1/2-y,1/2+z
_cell_length_a                   9.8893(13)
_cell_length_b                   13.0757(18)
_cell_length_c                   29.424(4)
_cell_angle_alpha                90
_cell_angle_beta                 90.938(3)
_cell_angle_gamma                90
_cell_volume                     3804.29
_exptl_crystal_colour            black
_exptl_crystal_description       block
_cell_formula_units_Z            4
loop_
_atom_site_label
_atom_site_type_symbol
_atom_site_fract_x
_atom_site_fract_y
_atom_site_fract_z
N1 N 0.2226(3) 0.9951(2) 0.67474(10)
Cl1 Cl -0.01518(9) 1.14410(7) 0.50868(3)
Cl2 Cl 0.53022(9) 1.13650(7) 0.51591(3)
O1 O 0.2132(3) 0.92296(17) 0.70971(8)
O2 O 0.0083(3) 1.00920(19) 0.59032(9)
O3 O 0.2602(3) 1.19791(19) 0.48003(8)
O4 O 0.4891(3) 1.00296(19) 0.59591(8)
C1 C 0.2539(3) 0.8345(2) 0.63922(10)
C2 C 0.1543(3) 0.7830(2) 0.60637(11)
C3 C 0.0336(3) 0.7425(3) 0.61928(12)
C4 C 0.0038(3) 0.7288(3) 0.66793(12)
C5 C 0.0967(3) 0.7571(3) 0.70091(11)
C6 C 0.2240(3) 0.8186(2) 0.69101(10)
C7 C 0.3306(3) 0.7594(2) 0.71829(11)
C8 C 0.4542(3) 0.7345(2) 0.70152(11)
C9 C 0.4844(3) 0.7491(2) 0.65311(12)
C10 C 0.3874(3) 0.7878(2) 0.62358(11)
C11 C 0.3678(4) 0.7406(2) 0.57977(11)
C12 C 0.2258(4) 0.7384(2) 0.56918(10)
C13 C 0.1692(4) 0.6563(3) 0.54459(11)
C14 C 0.0418(4) 0.6151(3) 0.55809(12)
C15 C -0.0247(3) 0.6566(3) 0.59511(13)
C16 C -0.0891(3) 0.5905(3) 0.62787(14)
C17 C -0.0715(3) 0.6347(3) 0.67255(14)
C18 C -0.0507(3) 0.5719(3) 0.71029(14)
C19 C 0.0480(4) 0.6000(3) 0.74405(12)
C20 C 0.1226(4) 0.6904(3) 0.73912(11)
C21 C 0.2646(4) 0.6919(3) 0.74968(11)
C22 C 0.3304(4) 0.6034(3) 0.76494(11)
C23 C 0.4616(4) 0.5786(3) 0.74811(11)
C24 C 0.5226(3) 0.6424(3) 0.71668(12)
C25 C 0.5923(3) 0.5996(3) 0.67856(13)
C26 C 0.5686(3) 0.6649(3) 0.63958(13)
C27 C 0.5540(3) 0.6218(3) 0.59639(13)
C28 C 0.4509(4) 0.6604(3) 0.56584(11)
C29 C 0.3923(4) 0.5747(3) 0.54084(11)
C30 C 0.2570(4) 0.5727(3) 0.53053(11)
C31 C 0.1789(4) 0.4785(3) 0.53553(12)
C32 C 0.0470(4) 0.5044(3) 0.55255(12)
C33 C -0.0147(4) 0.4409(3) 0.58362(14)
C34 C -0.0855(4) 0.4849(3) 0.62223(15)
C35 C -0.0615(3) 0.4191(3) 0.66132(15)
C36 C -0.0454(3) 0.4615(3) 0.70418(14)
C37 C 0.0586(4) 0.4222(3) 0.73488(13)
C38 C 0.1172(4) 0.5076(3) 0.75959(12)
C39 C 0.2537(4) 0.5092(3) 0.76999(10)
C40 C 0.3403(4) 0.4258(3) 0.75601(11)
C41 C 0.4686(4) 0.4684(3) 0.74250(11)
C42 C 0.5363(3) 0.4268(3) 0.70562(13)
C43 C 0.6002(3) 0.4937(3) 0.67303(14)
C44 C 0.5826(3) 0.4489(3) 0.62829(13)
C45 C 0.5080(4) 0.3548(3) 0.63326(13)
C46 C 0.4120(4) 0.3269(3) 0.60039(13)
C47 C 0.2824(4) 0.2851(3) 0.61384(12)
C48 C 0.2550(4) 0.2715(2) 0.65976(13)
C49 C 0.1237(4) 0.2974(3) 0.67669(13)
C50 C 0.1415(4) 0.3416(3) 0.72151(13)
C51 C 0.2838(4) 0.3432(3) 0.73209(11)
C52 C 0.3559(4) 0.3003(3) 0.69384(12)
C53 C 0.4787(4) 0.3409(3) 0.68113(12)
C54 C 0.0239(4) 0.3358(3) 0.64750(14)
C55 C 0.0525(4) 0.3487(3) 0.59945(14)
C56 C 0.1797(4) 0.3245(3) 0.58290(13)
C57 C 0.2451(4) 0.3900(3) 0.55046(12)
C58 C 0.3880(4) 0.3921(3) 0.56092(12)
C59 C 0.4612(4) 0.4822(3) 0.55638(12)
C60 C 0.5607(4) 0.5110(3) 0.59061(13)
C61 C 0.2445(3) 0.9507(2) 0.63706(11)
C62 C 0.2486(4) 1.0118(2) 0.59434(11)
C63 C 0.3732(3) 1.0391(2) 0.57619(12)
C64 C 0.3764(4) 1.1004(3) 0.53746(11)
C65 C 0.2567(4) 1.1335(2) 0.51657(11)
C66 C 0.1333(4) 1.1036(2) 0.53461(12)
C67 C 0.1291(4) 1.0425(2) 0.57350(12)
C68 C -0.0583(4) 1.0803(3) 0.61961(15)
H1 H 0.0021 1.0979 0.6452
H2 H -0.1411 1.0491 0.6312
H3 H -0.0814 1.1423 0.6025
C69 C 0.2593(4) 1.1465(3) 0.43677(12)
H4 H 0.3349 1.0981 0.4358
H5 H 0.2685 1.1970 0.4124
H6 H 0.1738 1.1094 0.4326
C70 C 0.5471(4) 1.0688(3) 0.62982(14)
H7 H 0.5848 1.1296 0.6152
H8 H 0.6192 1.0324 0.6463
H9 H 0.4771 1.0896 0.6511
loop_
_geom_bond_atom_site_label_1
_geom_bond_atom_site_label_2
_geom_bond_site_symmetry_1
_geom_bond_site_symmetry_2
N1 O1 1_555 1_555
Cl1 C66 1_555 1_555
Cl2 C64 1_555 1_555
O1 C6 1_555 1_555
O2 C67 1_555 1_555
O3 C65 1_555 1_555
O4 C63 1_555 1_555
C1 C2 1_555 1_555
C2 C3 1_555 1_555
C3 C4 1_555 1_555
C4 C5 1_555 1_555
C5 C6 1_555 1_555
C6 C1 1_555 1_555
C7 C6 1_555 1_555
C8 C7 1_555 1_555
C9 C8 1_555 1_555
C10 C1 1_555 1_555
C11 C10 1_555 1_555
C12 C2 1_555 1_555
C13 C12 1_555 1_555
C14 C13 1_555 1_555
C15 C3 1_555 1_555
C16 C15 1_555 1_555
C17 C4 1_555 1_555
C18 C17 1_555 1_555
C19 C18 1_555 1_555
C20 C5 1_555 1_555
C21 C7 1_555 1_555
C22 C21 1_555 1_555
C23 C22 1_555 1_555
C24 C8 1_555 1_555
C25 C24 1_555 1_555
C26 C9 1_555 1_555
C27 C26 1_555 1_555
C28 C11 1_555 1_555
C29 C28 1_555 1_555
C30 C13 1_555 1_555
C31 C30 1_555 1_555
C32 C14 1_555 1_555
C33 C32 1_555 1_555
C34 C16 1_555 1_555
C35 C34 1_555 1_555
C36 C18 1_555 1_555
C37 C36 1_555 1_555
C38 C19 1_555 1_555
C39 C22 1_555 1_555
C40 C39 1_555 1_555
C41 C23 1_555 1_555
C42 C41 1_555 1_555
C43 C25 1_555 1_555
C44 C43 1_555 1_555
C45 C44 1_555 1_555
C46 C45 1_555 1_555
C47 C46 1_555 1_555
C48 C47 1_555 1_555
C49 C48 1_555 1_555
C50 C37 1_555 1_555
C51 C40 1_555 1_555
C52 C48 1_555 1_555
C53 C42 1_555 1_555
C54 C35 1_555 1_555
C55 C33 1_555 1_555
C56 C47 1_555 1_555
C57 C31 1_555 1_555
C58 C46 1_555 1_555
C59 C29 1_555 1_555
C60 C27 1_555 1_555
C61 N1 1_555 1_555
C62 C61 1_555 1_555
C63 C62 1_555 1_555
C64 C63 1_555 1_555
C65 C64 1_555 1_555
C66 C65 1_555 1_555
C67 C62 1_555 1_555
C68 O2 1_555 1_555
H1 C68 1_555 1_555
H2 C68 1_555 1_555
H3 C68 1_555 1_555
C69 O3 1_555 1_555
H4 C69 1_555 1_555
H5 C69 1_555 1_555
H6 C69 1_555 1_555
C70 O4 1_555 1_555
H7 C70 1_555 1_555
H8 C70 1_555 1_555
H9 C70 1_555 1_555
C1 C61 1_555 1_555
C9 C10 1_555 1_555
C11 C12 1_555 1_555
C14 C15 1_555 1_555
C16 C17 1_555 1_555
C19 C20 1_555 1_555
C20 C21 1_555 1_555
C23 C24 1_555 1_555
C25 C26 1_555 1_555
C27 C28 1_555 1_555
C29 C30 1_555 1_555
C31 C32 1_555 1_555
C33 C34 1_555 1_555
C35 C36 1_555 1_555
C37 C38 1_555 1_555
C38 C39 1_555 1_555
C40 C41 1_555 1_555
C42 C43 1_555 1_555
C44 C60 1_555 1_555
C45 C53 1_555 1_555
C49 C50 1_555 1_555
C49 C54 1_555 1_555
C50 C51 1_555 1_555
C51 C52 1_555 1_555
C52 C53 1_555 1_555
C54 C55 1_555 1_555
C55 C56 1_555 1_555
C56 C57 1_555 1_555
C57 C58 1_555 1_555
C58 C59 1_555 1_555
C59 C60 1_555 1_555
C66 C67 1_555 1_555

#END
