
#######################################################################
#
#                 Cambridge Crystallographic Data Centre
#                                CCDC 
#
#######################################################################
#
# If this CIF has been generated from an entry in the Cambridge 
# Structural Database, then it will include bibliographic, chemical, 
# crystal, experimental, refinement or atomic coordinate data resulting 
# from the CCDC's data processing and validation procedures.
#
#######################################################################

data_EKUDOF
_chemical_formula_moiety         'C26 H25 Br2 F1 N2 O2'
_chemical_name_systematic        
3-(4-Bromo-3-fluorophenyl)-6-(4-bromophenyl)-2,5-dibutyl-2,5-dihydropyrrolo[3,4-c]pyrrole-1,4-dione
_symmetry_cell_setting           monoclinic
_symmetry_space_group_name_H-M   'C 2/c'
_symmetry_Int_Tables_number      15
_space_group_name_Hall           '-C 2yn'
loop_
_symmetry_equiv_pos_site_id
_symmetry_equiv_pos_as_xyz
1 x,y,z
2 -x,y,1/2-z
3 1/2+x,1/2+y,z
4 1/2-x,1/2+y,1/2-z
5 -x,-y,-z
6 x,-y,1/2+z
7 1/2-x,1/2-y,-z
8 1/2+x,1/2-y,1/2+z
_cell_length_a                   23.25(4)
_cell_length_b                   18.52(3)
_cell_length_c                   15.75(5)
_cell_angle_alpha                90
_cell_angle_beta                 131.715(14)
_cell_angle_gamma                90
_cell_volume                     5062.36
_cell_formula_units_Z            8
loop_
_atom_site_label
_atom_site_type_symbol
_atom_site_fract_x
_atom_site_fract_y
_atom_site_fract_z
Br1 Br 0.05784(7) 0.79099(4) 0.91057(9)
Br2 Br -0.05121(7) -0.03705(5) 0.80543(11)
C1 C -0.0478(5) 0.0658(4) 0.8087(8)
C2 C -0.0945(4) 0.1048(4) 0.7080(7)
C3 C -0.0967(4) 0.1781(4) 0.7057(6)
H1 H -0.1294 0.2028 0.6369
C4 C -0.0491(4) 0.2159(3) 0.8084(6)
C5 C 0.0003(5) 0.1766(4) 0.9095(7)
H2 H 0.0338 0.2014 0.9782
C6 C 0.0005(5) 0.1028(4) 0.9102(7)
H3 H 0.0330 0.0778 0.9787
C7 C -0.0463(4) 0.2960(4) 0.8151(6)
C8 C 0.0183(4) 0.3400(3) 0.8803(5)
C9 C 0.1009(4) 0.3392(4) 0.9526(6)
C10 C 0.0566(4) 0.4580(4) 0.9119(6)
C11 C -0.0069(4) 0.4138(3) 0.8567(5)
C12 C -0.0901(4) 0.4147(4) 0.7744(6)
C13 C 0.0581(4) 0.5375(4) 0.9102(6)
C14 C 0.1040(4) 0.5765(4) 0.8997(7)
H4 H 0.1362 0.5522 0.8939
C15 C 0.1025(5) 0.6520(4) 0.8975(7)
H5 H 0.1337 0.6774 0.8905
C16 C 0.0550(4) 0.6888(4) 0.9057(6)
C17 C 0.0066(5) 0.6504(4) 0.9102(6)
H6 H -0.0280 0.6752 0.9106
C18 C 0.0080(4) 0.5761(4) 0.9142(6)
H7 H -0.0244 0.5515 0.9194
C19 C -0.1916(4) 0.3195(4) 0.6917(6)
H8 H -0.2029 0.2727 0.6558
H9 H -0.2269 0.3545 0.6328
C20 C -0.2033(4) 0.3160(5) 0.7772(6)
H10 H -0.1768 0.2738 0.8251
H11 H -0.1800 0.3583 0.8258
C21 C -0.2886(4) 0.3124(6) 0.7193(7)
H12 H -0.3130 0.2719 0.6670
H13 H -0.3145 0.3561 0.6757
C22 C -0.2979(7) 0.3037(7) 0.8069(9)
H14 H -0.2658 0.2649 0.8579
H15 H -0.3508 0.2931 0.7680
H16 H -0.2830 0.3477 0.8493
C23 C 0.2030(5) 0.4352(5) 1.0547(8)
H17 H 0.2124 0.4697 1.0187
H18 H 0.2339 0.3928 1.0726
C24 C 0.2338(8) 0.4683(7) 1.1677(9)
H19 H 0.2849 0.4883 1.2100
H20 H 0.1998 0.5059 1.1549
C25 C 0.2357(12) 0.4040(8) 1.2313(14)
H21 H 0.2555 0.3604 1.2246
H22 H 0.1858 0.3945 1.2080
C26 C 0.2932(7) 0.4381(8) 1.3505(15)
H23 H 0.2808 0.4881 1.3462
H24 H 0.3445 0.4338 1.3787
H25 H 0.2901 0.4135 1.4011
F1 F -0.1373(5) 0.0690(5) 0.6122(10)
N1 N 0.1216(3) 0.4137(3) 0.9700(5)
N2 N -0.1116(3) 0.3402(3) 0.7502(5)
O1 O 0.1491(3) 0.2900(3) 0.9967(4)
O2 O -0.1378(3) 0.4642(3) 0.7297(5)
loop_
_geom_bond_atom_site_label_1
_geom_bond_atom_site_label_2
_geom_bond_site_symmetry_1
_geom_bond_site_symmetry_2
Br1 C16 1_555 1_555
Br2 C1 1_555 1_555
C1 C2 1_555 1_555
C2 C3 1_555 1_555
C3 H1 1_555 1_555
C4 C3 1_555 1_555
C5 C4 1_555 1_555
H2 C5 1_555 1_555
C6 C1 1_555 1_555
H3 C6 1_555 1_555
C7 C4 1_555 1_555
C8 C7 1_555 1_555
C9 C8 1_555 1_555
C10 C11 1_555 1_555
C11 C8 1_555 1_555
C12 C11 1_555 1_555
C13 C10 1_555 1_555
C14 C13 1_555 1_555
H4 C14 1_555 1_555
C15 C14 1_555 1_555
H5 C15 1_555 1_555
C16 C15 1_555 1_555
C17 C16 1_555 1_555
H6 C17 1_555 1_555
C18 C13 1_555 1_555
H7 C18 1_555 1_555
C19 H8 1_555 1_555
H9 C19 1_555 1_555
C20 C19 1_555 1_555
H10 C20 1_555 1_555
H11 C20 1_555 1_555
C21 C20 1_555 1_555
H12 C21 1_555 1_555
H13 C21 1_555 1_555
C22 C21 1_555 1_555
H14 C22 1_555 1_555
H15 C22 1_555 1_555
H16 C22 1_555 1_555
C23 H17 1_555 1_555
H18 C23 1_555 1_555
C24 C23 1_555 1_555
H19 C24 1_555 1_555
H20 C24 1_555 1_555
C25 C24 1_555 1_555
H21 C25 1_555 1_555
H22 C25 1_555 1_555
C26 C25 1_555 1_555
H23 C26 1_555 1_555
H24 C26 1_555 1_555
H25 C26 1_555 1_555
F1 C2 1_555 1_555
N1 C9 1_555 1_555
N2 C7 1_555 1_555
O1 C9 1_555 1_555
O2 C12 1_555 1_555
C5 C6 1_555 1_555
C10 N1 1_555 1_555
C12 N2 1_555 1_555
C17 C18 1_555 1_555
C19 N2 1_555 1_555
C23 N1 1_555 1_555

#END
