
#######################################################################
#
#                 Cambridge Crystallographic Data Centre
#                                CCDC 
#
#######################################################################
#
# If this CIF has been generated from an entry in the Cambridge 
# Structural Database, then it will include bibliographic, chemical, 
# crystal, experimental, refinement or atomic coordinate data resulting 
# from the CCDC's data processing and validation procedures.
#
#######################################################################

data_EKUDUL
_chemical_formula_moiety         'C26 H24 Br2 F2 N2 O2'
_chemical_name_systematic        
3,6-bis(4-Bromo-3-fluorophenyl)-2,5-dibutyl-2,5-dihydropyrrolo[3,4-c]pyrrole-1,4-dione
_symmetry_cell_setting           monoclinic
_symmetry_space_group_name_H-M   'C 2/c'
_symmetry_Int_Tables_number      15
_space_group_name_Hall           '-C 2yn'
loop_
_symmetry_equiv_pos_site_id
_symmetry_equiv_pos_as_xyz
1 x,y,z
2 -x,y,1/2-z
3 1/2+x,1/2+y,z
4 1/2-x,1/2+y,1/2-z
5 -x,-y,-z
6 x,-y,1/2+z
7 1/2-x,1/2-y,-z
8 1/2+x,1/2-y,1/2+z
_cell_length_a                   23.213(4)
_cell_length_b                   18.364(3)
_cell_length_c                   15.662(3)
_cell_angle_alpha                90
_cell_angle_beta                 131.740(2)
_cell_angle_gamma                90
_cell_volume                     4981.79
_cell_formula_units_Z            8
loop_
_atom_site_label
_atom_site_type_symbol
_atom_site_fract_x
_atom_site_fract_y
_atom_site_fract_z
Br1 Br 1.05916(7) 1.29102(4) 0.41009(8)
Br2 Br 0.94766(6) 0.46220(4) 0.30313(10)
C1 C 0.9050(4) 0.6036(4) 0.2061(6)
C2 C 0.9512(4) 0.5646(3) 0.3056(7)
C3 C 1.0003(5) 0.6018(4) 0.4102(7)
H1 H 1.0323 0.5760 0.4787
C4 C 1.0007(4) 0.6768(4) 0.4105(6)
H2 H 1.0346 0.7016 0.4797
C5 C 0.9509(3) 0.7165(3) 0.3081(5)
C6 C 0.9021(4) 0.6791(3) 0.2033(6)
H3 H 0.8689 0.7042 0.1343
C7 C 0.9541(3) 0.7952(3) 0.3140(5)
C8 C 1.0185(4) 0.8398(3) 0.3795(5)
C9 C 0.9939(3) 0.9134(3) 0.3568(5)
C10 C 0.9116(4) 0.9154(3) 0.2745(6)
C11 C 1.1013(4) 0.8376(3) 0.4533(5)
C12 C 1.0572(4) 0.9577(3) 0.4128(5)
C13 C 1.0075(4) 1.0762(4) 0.4118(5)
H4 H 0.9740 1.0516 0.4150
C14 C 1.0593(3) 1.0370(3) 0.4114(5)
C15 C 1.1071(4) 1.0758(4) 0.4042(6)
H5 H 1.1412 1.0511 0.4023
C16 C 1.1046(5) 1.1501(4) 0.4000(7)
H6 H 1.1359 1.1750 0.3926
C17 C 1.0563(4) 1.1893(4) 0.4064(5)
C18 C 1.0065(4) 1.1493(4) 0.4074(6)
C19 C 0.8099(4) 0.8194(4) 0.1897(6)
H7 H 0.7996 0.7717 0.1555
H8 H 0.7748 0.8539 0.1289
C20 C 0.7961(5) 0.8176(6) 0.2763(7)
H9 H 0.8223 0.7755 0.3258
H10 H 0.8190 0.8607 0.3240
C21 C 0.7127(5) 0.8144(6) 0.2188(9)
H11 H 0.6868 0.8578 0.1724
H12 H 0.6889 0.7726 0.1681
C22 C 0.7014(7) 0.8090(7) 0.3016(12)
H13 H 0.7266 0.7661 0.3475
H14 H 0.6472 0.8064 0.2605
H15 H 0.7230 0.8512 0.3501
C23 C 1.2035(5) 0.9333(5) 0.5624(9)
H16 H 1.2147 0.9776 0.5421
H17 H 1.2365 0.8948 0.5737
C24 C 1.2179(8) 0.9456(10) 0.6759(11)
H18 H 1.2323 0.9963 0.6964
H19 H 1.1678 0.9405 0.6536
C25 C 1.256(2) 0.9163(14) 0.752(2)
H20 H 1.2983 0.9029 0.7553
H21 H 1.2297 0.8714 0.7394
C26 C 1.2938(8) 0.9399(8) 0.8694(16)
H22 H 1.2663 0.9807 0.8655
H23 H 1.3462 0.9538 0.9097
H24 H 1.2932 0.9004 0.9090
F1 F 0.8604(3) 0.5677(3) 0.1049(4)
F2 F 0.9551(6) 1.1861(5) 0.3940(9)
N1 N 0.8895(3) 0.8403(3) 0.2497(4)
N2 N 1.1221(3) 0.9133(3) 0.4718(5)
O1 O 0.8645(3) 0.9651(2) 0.2305(5)
O2 O 1.1485(3) 0.7893(2) 0.4958(4)
loop_
_geom_bond_atom_site_label_1
_geom_bond_atom_site_label_2
_geom_bond_site_symmetry_1
_geom_bond_site_symmetry_2
Br1 C17 1_555 1_555
Br2 C2 1_555 1_555
C1 C2 1_555 1_555
C2 C3 1_555 1_555
C3 H1 1_555 1_555
C4 C3 1_555 1_555
H2 C4 1_555 1_555
C5 C4 1_555 1_555
C6 C1 1_555 1_555
H3 C6 1_555 1_555
C7 C5 1_555 1_555
C8 C7 1_555 1_555
C9 C8 1_555 1_555
C10 C9 1_555 1_555
C11 C8 1_555 1_555
C12 C9 1_555 1_555
C13 H4 1_555 1_555
C14 C12 1_555 1_555
C15 C14 1_555 1_555
H5 C15 1_555 1_555
C16 C15 1_555 1_555
H6 C16 1_555 1_555
C17 C16 1_555 1_555
C18 C13 1_555 1_555
C19 H7 1_555 1_555
H8 C19 1_555 1_555
C20 C19 1_555 1_555
H9 C20 1_555 1_555
H10 C20 1_555 1_555
C21 C20 1_555 1_555
H11 C21 1_555 1_555
H12 C21 1_555 1_555
C22 C21 1_555 1_555
H13 C22 1_555 1_555
H14 C22 1_555 1_555
H15 C22 1_555 1_555
C23 H16 1_555 1_555
H17 C23 1_555 1_555
C24 C23 1_555 1_555
H18 C24 1_555 1_555
H19 C24 1_555 1_555
C25 C24 1_555 1_555
H20 C25 1_555 1_555
H21 C25 1_555 1_555
C26 C25 1_555 1_555
H22 C26 1_555 1_555
H23 C26 1_555 1_555
H24 C26 1_555 1_555
F1 C1 1_555 1_555
F2 C18 1_555 1_555
N1 C7 1_555 1_555
N2 C11 1_555 1_555
O1 C10 1_555 1_555
O2 C11 1_555 1_555
C5 C6 1_555 1_555
C10 N1 1_555 1_555
C12 N2 1_555 1_555
C13 C14 1_555 1_555
C17 C18 1_555 1_555
C19 N1 1_555 1_555
C23 N2 1_555 1_555

#END
