
#######################################################################
#
#                 Cambridge Crystallographic Data Centre
#                                CCDC 
#
#######################################################################
#
# If this CIF has been generated from an entry in the Cambridge 
# Structural Database, then it will include bibliographic, chemical, 
# crystal, experimental, refinement or atomic coordinate data resulting 
# from the CCDC's data processing and validation procedures.
#
#######################################################################

data_EKUDIZ
_chemical_formula_moiety         'C26 H16 S2'
_chemical_name_systematic        2-(9-Anthryl)thianthrene
_symmetry_cell_setting           monoclinic
_symmetry_space_group_name_H-M   'C 2/c'
_symmetry_Int_Tables_number      15
_space_group_name_Hall           '-C 2yn'
loop_
_symmetry_equiv_pos_site_id
_symmetry_equiv_pos_as_xyz
1 x,y,z
2 -x,y,1/2-z
3 1/2+x,1/2+y,z
4 1/2-x,1/2+y,1/2-z
5 -x,-y,-z
6 x,-y,1/2+z
7 1/2-x,1/2-y,-z
8 1/2+x,1/2-y,1/2+z
_cell_length_a                   17.080(3)
_cell_length_b                   11.919(2)
_cell_length_c                   19.800(4)
_cell_angle_alpha                90
_cell_angle_beta                 104.04(3)
_cell_angle_gamma                90
_cell_volume                     3910.4
_exptl_crystal_colour            yellow
_exptl_crystal_description       block
_cell_formula_units_Z            8
_chemical_properties_physical    Heat-sensitive
_exptl_crystal_preparation       Luminescent
loop_
_atom_site_label
_atom_site_type_symbol
_atom_site_fract_x
_atom_site_fract_y
_atom_site_fract_z
C1 C 0.38733(9) 0.08202(13) 0.50304(8)
C2 C 0.31381(10) 0.03105(15) 0.46541(10)
H1 H 0.2824 0.0671 0.4265
C3 C 0.28923(12) -0.06936(16) 0.48564(11)
H2 H 0.2419 -0.1020 0.4598
C4 C 0.33460(12) -0.12420(16) 0.54521(12)
H3 H 0.3167 -0.1923 0.5588
C5 C 0.40425(12) -0.07868(15) 0.58299(11)
H4 H 0.4333 -0.1159 0.6224
C6 C 0.43372(10) 0.02505(14) 0.56336(9)
C7 C 0.50628(10) 0.07234(15) 0.59998(10)
H5 H 0.5362 0.0357 0.6393
C8 C 0.53540(10) 0.17236(15) 0.57963(9)
C9 C 0.61003(11) 0.22038(17) 0.61649(11)
H6 H 0.6405 0.1837 0.6556
C10 C 0.63772(11) 0.31790(18) 0.59602(12)
H7 H 0.6866 0.3474 0.6209
C11 C 0.59242(11) 0.37468(16) 0.53697(11)
H8 H 0.6119 0.4414 0.5230
C12 C 0.52055(11) 0.33324(15) 0.50015(10)
H9 H 0.4913 0.3725 0.4616
C13 C 0.48923(9) 0.23013(13) 0.51974(9)
C14 C 0.41507(9) 0.18467(13) 0.48259(8)
C15 C 0.36621(9) 0.24962(13) 0.42250(8)
C16 C 0.38114(10) 0.24210(14) 0.35687(9)
H10 H 0.4180 0.1896 0.3487
C17 C 0.34163(10) 0.31220(14) 0.30308(8)
C18 C 0.28804(9) 0.39323(13) 0.31567(8)
C19 C 0.27111(10) 0.39842(14) 0.38066(9)
H11 H 0.2340 0.4506 0.3889
C20 C 0.30908(10) 0.32647(14) 0.43320(9)
H12 H 0.2963 0.3295 0.4762
C21 C 0.37372(11) 0.43747(18) 0.19879(9)
C22 C 0.43607(15) 0.4659(2) 0.16823(12)
H13 H 0.4707 0.4106 0.1595
C23 C 0.44686(16) 0.5757(3) 0.15071(14)
H14 H 0.4877 0.5937 0.1289
C24 C 0.39774(15) 0.6585(2) 0.16524(14)
H15 H 0.4052 0.7324 0.1530
C25 C 0.33698(13) 0.63279(18) 0.19806(11)
H16 H 0.3051 0.6895 0.2096
C26 C 0.32393(10) 0.52175(16) 0.21368(9)
S1 S 0.35867(3) 0.29579(4) 0.21910(2)
S2 S 0.24164(3) 0.48928(4) 0.25014(2)
loop_
_geom_bond_atom_site_label_1
_geom_bond_atom_site_label_2
_geom_bond_site_symmetry_1
_geom_bond_site_symmetry_2
C1 C2 1_555 1_555
C2 H1 1_555 1_555
C3 C2 1_555 1_555
H2 C3 1_555 1_555
C4 C3 1_555 1_555
H3 C4 1_555 1_555
C5 C4 1_555 1_555
H4 C5 1_555 1_555
C6 C1 1_555 1_555
C7 C6 1_555 1_555
H5 C7 1_555 1_555
C8 C7 1_555 1_555
C9 C8 1_555 1_555
H6 C9 1_555 1_555
C10 C9 1_555 1_555
H7 C10 1_555 1_555
C11 C10 1_555 1_555
H8 C11 1_555 1_555
C12 C11 1_555 1_555
H9 C12 1_555 1_555
C13 C8 1_555 1_555
C14 C1 1_555 1_555
C15 C14 1_555 1_555
C16 C15 1_555 1_555
H10 C16 1_555 1_555
C17 C16 1_555 1_555
C18 C17 1_555 1_555
C19 C18 1_555 1_555
H11 C19 1_555 1_555
C20 C15 1_555 1_555
H12 C20 1_555 1_555
C21 C22 1_555 1_555
C22 H13 1_555 1_555
C23 C22 1_555 1_555
H14 C23 1_555 1_555
C24 C23 1_555 1_555
H15 C24 1_555 1_555
C25 C24 1_555 1_555
H16 C25 1_555 1_555
C26 C21 1_555 1_555
S1 C17 1_555 1_555
S2 C18 1_555 1_555
C5 C6 1_555 1_555
C12 C13 1_555 1_555
C13 C14 1_555 1_555
C19 C20 1_555 1_555
C21 S1 1_555 1_555
C25 C26 1_555 1_555
C26 S2 1_555 1_555

#END
