
#######################################################################
#
#                 Cambridge Crystallographic Data Centre
#                                CCDC 
#
#######################################################################
#
# If this CIF has been generated from an entry in the Cambridge 
# Structural Database, then it will include bibliographic, chemical, 
# crystal, experimental, refinement or atomic coordinate data resulting 
# from the CCDC's data processing and validation procedures.
#
#######################################################################

data_EKUDEV
_chemical_formula_moiety         'C26 H16 S2'
_chemical_name_systematic        1-(9-Anthryl)thianthrene
_symmetry_cell_setting           monoclinic
_symmetry_space_group_name_H-M   'P 21/n'
_symmetry_Int_Tables_number      14
_space_group_name_Hall           '-P 2yn'
loop_
_symmetry_equiv_pos_site_id
_symmetry_equiv_pos_as_xyz
1 x,y,z
2 1/2-x,1/2+y,1/2-z
3 -x,-y,-z
4 1/2+x,1/2-y,1/2+z
_cell_length_a                   15.113(3)
_cell_length_b                   7.7080(15)
_cell_length_c                   16.178(3)
_cell_angle_alpha                90
_cell_angle_beta                 94.00(3)
_cell_angle_gamma                90
_cell_volume                     1880
_exptl_crystal_colour            colorless
_exptl_crystal_description       block
_cell_formula_units_Z            4
_chemical_properties_physical    Heat-sensitive
_exptl_crystal_preparation       Luminescent
loop_
_atom_site_label
_atom_site_type_symbol
_atom_site_fract_x
_atom_site_fract_y
_atom_site_fract_z
C1 C 0.53728(12) 0.2727(2) 0.91133(12)
C2 C 0.62621(13) 0.2178(3) 0.93274(13)
H1 H 0.6671 0.2184 0.8924
C3 C 0.65242(16) 0.1646(3) 1.01076(14)
H2 H 0.7107 0.1291 1.0230
C4 C 0.59177(18) 0.1628(3) 1.07358(14)
H3 H 0.6103 0.1264 1.1268
C5 C 0.50716(17) 0.2138(3) 1.05638(14)
H4 H 0.4680 0.2114 1.0982
C6 C 0.47623(13) 0.2713(3) 0.97559(12)
C7 C 0.38968(14) 0.3267(3) 0.95741(13)
H5 H 0.3505 0.3266 0.9993
C8 C 0.35958(13) 0.3826(3) 0.87856(14)
C9 C 0.27113(14) 0.4428(3) 0.86022(17)
H6 H 0.2317 0.4423 0.9019
C10 C 0.24289(15) 0.5006(3) 0.78396(18)
H7 H 0.1853 0.5421 0.7741
C11 C 0.30124(14) 0.4977(3) 0.71925(17)
H8 H 0.2813 0.5347 0.6665
C12 C 0.38631(13) 0.4414(3) 0.73343(14)
H9 H 0.4236 0.4406 0.6901
C13 C 0.41954(12) 0.3833(2) 0.81358(12)
C14 C 0.50773(12) 0.3299(2) 0.83117(11)
C15 C 0.57270(11) 0.3410(2) 0.76545(11)
C16 C 0.61062(13) 0.5006(3) 0.74829(12)
H10 H 0.5943 0.5985 0.7772
C17 C 0.67223(13) 0.5164(3) 0.68899(13)
H11 H 0.6966 0.6242 0.6783
C18 C 0.69713(12) 0.3727(3) 0.64618(12)
H12 H 0.7381 0.3835 0.6062
C19 C 0.66148(11) 0.2116(3) 0.66218(11)
C20 C 0.59854(11) 0.1953(2) 0.72160(11)
C21 C 0.59998(12) -0.0873(2) 0.58576(12)
C22 C 0.58600(14) -0.1711(3) 0.50947(13)
H13 H 0.6273 -0.1596 0.4698
C23 C 0.51129(15) -0.2708(3) 0.49280(14)
H14 H 0.5033 -0.3295 0.4426
C24 C 0.44810(15) -0.2840(3) 0.55028(14)
H15 H 0.3974 -0.3505 0.5385
C25 C 0.46018(13) -0.1985(2) 0.62513(13)
H16 H 0.4170 -0.2056 0.6632
C26 C 0.53667(12) -0.1017(2) 0.64403(12)
S1 S 0.69932(3) 0.02844(7) 0.60900(3)
S2 S 0.55276(4) -0.00897(6) 0.74399(3)
loop_
_geom_bond_atom_site_label_1
_geom_bond_atom_site_label_2
_geom_bond_site_symmetry_1
_geom_bond_site_symmetry_2
C1 C2 1_555 1_555
C2 H1 1_555 1_555
C3 C2 1_555 1_555
H2 C3 1_555 1_555
C4 C3 1_555 1_555
H3 C4 1_555 1_555
C5 C4 1_555 1_555
H4 C5 1_555 1_555
C6 C1 1_555 1_555
C7 C6 1_555 1_555
H5 C7 1_555 1_555
C8 C7 1_555 1_555
C9 C8 1_555 1_555
H6 C9 1_555 1_555
C10 C9 1_555 1_555
H7 C10 1_555 1_555
C11 C10 1_555 1_555
H8 C11 1_555 1_555
C12 C11 1_555 1_555
H9 C12 1_555 1_555
C13 C8 1_555 1_555
C14 C1 1_555 1_555
C15 C14 1_555 1_555
C16 C15 1_555 1_555
H10 C16 1_555 1_555
C17 C16 1_555 1_555
H11 C17 1_555 1_555
C18 C17 1_555 1_555
H12 C18 1_555 1_555
C19 C18 1_555 1_555
C20 C15 1_555 1_555
C21 C22 1_555 1_555
C22 H13 1_555 1_555
C23 C22 1_555 1_555
H14 C23 1_555 1_555
C24 C23 1_555 1_555
H15 C24 1_555 1_555
C25 C24 1_555 1_555
H16 C25 1_555 1_555
C26 C21 1_555 1_555
S1 C19 1_555 1_555
S2 C20 1_555 1_555
C5 C6 1_555 1_555
C12 C13 1_555 1_555
C13 C14 1_555 1_555
C19 C20 1_555 1_555
C21 S1 1_555 1_555
C25 C26 1_555 1_555
C26 S2 1_555 1_555

#END
