
#######################################################################
#
#                 Cambridge Crystallographic Data Centre
#                                CCDC 
#
#######################################################################
#
# If this CIF has been generated from an entry in the Cambridge 
# Structural Database, then it will include bibliographic, chemical, 
# crystal, experimental, refinement or atomic coordinate data resulting 
# from the CCDC's data processing and validation procedures.
#
#######################################################################

data_EKUFEX
_chemical_formula_moiety         'C26 H24 Br2 F2 N2 O2,C4 H8 O2'
_chemical_name_systematic        
'3,6-bis(4-Bromo-2-fluorophenyl)-2,5-dibutyl-2,5-dihydropyrrolo[3,4-c]pyrrole-1,4-dione 1,4-dioxane solvate'
_symmetry_cell_setting           triclinic
_symmetry_space_group_name_H-M   'P -1'
_symmetry_Int_Tables_number      2
_space_group_name_Hall           '-P 1'
loop_
_symmetry_equiv_pos_site_id
_symmetry_equiv_pos_as_xyz
1 x,y,z
2 -x,-y,-z
_cell_length_a                   7.389(3)
_cell_length_b                   8.698(3)
_cell_length_c                   12.870(5)
_cell_angle_alpha                70.950(5)
_cell_angle_beta                 73.447(4)
_cell_angle_gamma                74.305(4)
_cell_volume                     734.921
_exptl_crystal_colour            yellow
_exptl_crystal_description       block
_cell_formula_units_Z            1
loop_
_atom_site_label
_atom_site_type_symbol
_atom_site_fract_x
_atom_site_fract_y
_atom_site_fract_z
Br1 Br 0.18706(8) -0.14923(7) 0.84346(5)
F1 F 0.7319(4) 0.0965(4) 0.8626(3)
O1 O 0.8284(5) 0.6416(5) 0.8441(3)
N1 N 0.6591(5) 0.4557(5) 0.8429(3)
C1 C 0.7014(7) 0.5640(6) 0.8897(4)
C2 C 0.5002(6) 0.3860(5) 0.9116(4)
C3 C 0.4402(6) 0.4466(5) 1.0044(3)
C4 C 0.4268(6) 0.2649(6) 0.8868(3)
C5 C 0.5438(6) 0.1221(5) 0.8650(3)
C6 C 0.4790(6) -0.0005(6) 0.8495(4)
H1 H 0.5638 -0.0946 0.8333
C7 C 0.2841(7) 0.0200(6) 0.8588(4)
C8 C 0.1592(7) 0.1622(6) 0.8813(4)
H2 H 0.0278 0.1752 0.8870
C9 C 0.2297(7) 0.2838(6) 0.8950(4)
H3 H 0.1458 0.3790 0.9098
C10 C 0.7410(7) 0.4567(6) 0.7246(4)
H4 H 0.7450 0.3494 0.7154
H5 H 0.8721 0.4743 0.7045
C11 C 0.6260(8) 0.5900(7) 0.6461(4)
H6 H 0.6115 0.6963 0.6599
H7 H 0.4985 0.5666 0.6610
C12 C 0.7245(9) 0.5992(8) 0.5234(4)
H8 H 0.8531 0.6197 0.5096
H9 H 0.7370 0.4930 0.5099
C13 C 0.6163(11) 0.7339(10) 0.4410(6)
H10 H 0.4956 0.7065 0.4470
H11 H 0.6916 0.7424 0.3657
H12 H 0.5932 0.8379 0.4581
Br1A Br 0.81294(8) 1.14923(7) 1.15654(5)
F1A F 0.2681(4) 0.9035(4) 1.1374(3)
O1A O 0.1716(5) 0.3584(5) 1.1559(3)
N1A N 0.3409(5) 0.5443(5) 1.1571(3)
C1A C 0.2986(7) 0.4360(6) 1.1103(4)
C2A C 0.4998(6) 0.6140(5) 1.0884(4)
C3A C 0.5598(6) 0.5534(5) 0.9956(3)
C4A C 0.5732(6) 0.7351(6) 1.1132(3)
C5A C 0.4562(6) 0.8779(5) 1.1350(3)
C6A C 0.5210(6) 1.0005(6) 1.1505(4)
H1A H 0.4362 1.0946 1.1667
C7A C 0.7159(7) 0.9800(6) 1.1412(4)
C8A C 0.8408(7) 0.8378(6) 1.1187(4)
H2A H 0.9722 0.8248 1.1130
C9A C 0.7703(7) 0.7162(6) 1.1050(4)
H3A H 0.8542 0.6210 1.0902
C10A C 0.2590(7) 0.5433(6) 1.2754(4)
H4A H 0.2550 0.6506 1.2846
H5A H 0.1279 0.5257 1.2955
C11A C 0.3740(8) 0.4100(7) 1.3539(4)
H6A H 0.3885 0.3037 1.3401
H7A H 0.5015 0.4334 1.3390
C12A C 0.2755(9) 0.4008(8) 1.4766(4)
H8A H 0.1469 0.3803 1.4904
H9A H 0.2630 0.5070 1.4901
C13A C 0.3837(11) 0.2661(10) 1.5590(6)
H10A H 0.5044 0.2935 1.5530
H11A H 0.3084 0.2576 1.6343
H12A H 0.4068 0.1621 1.5419
C14 C 0.9313(11) 0.1439(10) 0.4238(6)
H13 H 0.9487 0.2521 0.3737
H14 H 0.8145 0.1215 0.4165
C15 C 0.9021(11) -0.0159(11) 0.6087(6)
H15 H 0.7844 -0.0455 0.6091
H16 H 0.8965 -0.0137 0.6844
O2 O 0.9134(8) 0.1446(6) 0.5344(5)
C14A C 1.0687(11) -0.1439(10) 0.5762(6)
H13A H 1.0513 -0.2521 0.6263
H14A H 1.1855 -0.1215 0.5835
C15A C 1.0979(11) 0.0159(11) 0.3913(6)
H15A H 1.2156 0.0455 0.3909
H16A H 1.1035 0.0137 0.3156
O2A O 1.0866(8) -0.1446(6) 0.4656(5)
loop_
_geom_bond_atom_site_label_1
_geom_bond_atom_site_label_2
_geom_bond_site_symmetry_1
_geom_bond_site_symmetry_2
Br1 C7 1_555 1_555
F1 C5 1_555 1_555
O1 C1 1_555 1_555
N1 C1 1_555 1_555
C1 C3A 1_555 1_555
C2 N1 1_555 1_555
C3 C2 1_555 1_555
C4 C2 1_555 1_555
C5 C4 1_555 1_555
C6 C5 1_555 1_555
H1 C6 1_555 1_555
C7 C6 1_555 1_555
C8 C7 1_555 1_555
H2 C8 1_555 1_555
C9 C4 1_555 1_555
H3 C9 1_555 1_555
C10 N1 1_555 1_555
H4 C10 1_555 1_555
H5 C10 1_555 1_555
C11 C10 1_555 1_555
H6 C11 1_555 1_555
H7 C11 1_555 1_555
C12 C11 1_555 1_555
H8 C12 1_555 1_555
H9 C12 1_555 1_555
C13 C12 1_555 1_555
H10 C13 1_555 1_555
H11 C13 1_555 1_555
H12 C13 1_555 1_555
C14 H13 1_555 1_555
H14 C14 1_555 1_555
C15 H15 1_555 1_555
H16 C15 1_555 1_555
O2 C14 1_555 1_555
Br1A C7A 1_555 1_555
F1A C5A 1_555 1_555
O1A C1A 1_555 1_555
N1A C1A 1_555 1_555
C1A C3 1_555 1_555
C2A N1A 1_555 1_555
C3A C3 1_555 1_555
C4A C2A 1_555 1_555
C5A C4A 1_555 1_555
C6A C5A 1_555 1_555
H1A C6A 1_555 1_555
C7A C6A 1_555 1_555
C8A C7A 1_555 1_555
H2A C8A 1_555 1_555
C9A C4A 1_555 1_555
H3A C9A 1_555 1_555
C10A N1A 1_555 1_555
H4A C10A 1_555 1_555
H5A C10A 1_555 1_555
C11A C10A 1_555 1_555
H6A C11A 1_555 1_555
H7A C11A 1_555 1_555
C12A C11A 1_555 1_555
H8A C12A 1_555 1_555
H9A C12A 1_555 1_555
C13A C12A 1_555 1_555
H10A C13A 1_555 1_555
H11A C13A 1_555 1_555
H12A C13A 1_555 1_555
C14A C15 1_555 1_555
H13A C14A 1_555 1_555
H14A C14A 1_555 1_555
C15A C14 1_555 1_555
H15A C15A 1_555 1_555
H16A C15A 1_555 1_555
O2A C14A 1_555 1_555
C8 C9 1_555 1_555
C15 O2 1_555 1_555
C2A C3A 1_555 1_555
C8A C9A 1_555 1_555
C15A O2A 1_555 1_555

#END
