
#######################################################################
#
#                 Cambridge Crystallographic Data Centre
#                                CCDC 
#
#######################################################################
#
# If this CIF has been generated from an entry in the Cambridge 
# Structural Database, then it will include bibliographic, chemical, 
# crystal, experimental, refinement or atomic coordinate data resulting 
# from the CCDC's data processing and validation procedures.
#
#######################################################################

data_EKUFAT
_chemical_formula_moiety         'C22 H17 Br2 F1 N2 O2'
_chemical_name_systematic        
3-(4-Bromo-2-fluorophenyl)-6-(4-bromophenyl)-2,5-diethyl-2,5-dihydropyrrolo[3,4-c]pyrrole-1,4-dione
_symmetry_cell_setting           monoclinic
_symmetry_space_group_name_H-M   'P c'
_symmetry_Int_Tables_number      7
_space_group_name_Hall           'P -2yc'
loop_
_symmetry_equiv_pos_site_id
_symmetry_equiv_pos_as_xyz
1 x,y,z
2 x,-y,1/2+z
_cell_length_a                   12.990(3)
_cell_length_b                   4.2334(10)
_cell_length_c                   17.997(4)
_cell_angle_alpha                90
_cell_angle_beta                 101.476(2)
_cell_angle_gamma                90
_cell_volume                     969.903
_cell_formula_units_Z            2
loop_
_atom_site_label
_atom_site_type_symbol
_atom_site_fract_x
_atom_site_fract_y
_atom_site_fract_z
Br1 Br -0.33116(4) 0.8249(3) 0.38282(3)
Br2 Br 0.78602(4) -0.3253(3) 0.72101(3)
C1 C -0.1975(7) 0.692(2) 0.4319(6)
C2 C -0.1109(7) 0.758(2) 0.4022(5)
H1 H -0.1181 0.8647 0.3563
C3 C -0.0070(6) 0.6600(19) 0.4427(4)
H2 H 0.0537 0.7052 0.4247
C4 C -0.0044(7) 0.493(2) 0.5107(5)
C5 C -0.0903(7) 0.429(2) 0.5368(5)
C6 C -0.1924(7) 0.519(2) 0.4975(6)
H3 H -0.2526 0.4630 0.5151
C7 C 0.1071(7) 0.403(2) 0.5514(5)
C8 C 0.2457(6) 0.3271(19) 0.6524(5)
C9 C 0.2708(7) 0.226(2) 0.5788(5)
C10 C 0.1836(6) 0.284(2) 0.5201(5)
C11 C 0.2095(7) 0.173(2) 0.4533(5)
C12 C 0.3552(7) 0.096(2) 0.5502(5)
C13 C 0.0896(7) 0.591(2) 0.6843(5)
H4 H 0.1396 0.7453 0.7100
H5 H 0.0297 0.7075 0.6566
C14 C 0.0555(7) 0.406(2) 0.7395(5)
H6 H 0.0053 0.2534 0.7151
H7 H 0.0234 0.5391 0.7716
H8 H 0.1146 0.2986 0.7695
C15 C 0.3623(7) -0.117(2) 0.4178(5)
H9 H 0.3111 -0.2687 0.3924
H10 H 0.4219 -0.2346 0.4455
C16 C 0.4003(8) 0.101(2) 0.3554(5)
H11 H 0.3441 0.2380 0.3326
H12 H 0.4201 -0.0307 0.3171
H13 H 0.4596 0.2250 0.3793
C17 C 0.4540(7) -0.002(2) 0.5887(5)
C18 C 0.4726(7) -0.160(2) 0.6573(5)
H14 H 0.4142 -0.2033 0.6781
C19 C 0.5625(8) -0.255(3) 0.6957(5)
H15 H 0.5666 -0.3701 0.7402
C20 C 0.6526(7) -0.180(2) 0.6686(5)
C21 C 0.6424(8) -0.021(2) 0.6018(6)
H16 H 0.7022 0.0221 0.5825
C22 C 0.5490(7) 0.076(2) 0.5630(5)
H17 H 0.5455 0.1938 0.5190
F1 F -0.0902(2) 0.2213(8) 0.59160(19)
N1 N 0.1382(6) 0.4226(18) 0.6295(4)
N2 N 0.3153(5) 0.0668(18) 0.4719(4)
O1 O 0.2944(6) 0.3453(15) 0.7154(4)
O2 O 0.1584(6) 0.1538(14) 0.3860(4)
loop_
_geom_bond_atom_site_label_1
_geom_bond_atom_site_label_2
_geom_bond_site_symmetry_1
_geom_bond_site_symmetry_2
Br1 C1 1_555 1_555
Br2 C20 1_555 1_555
C1 C2 1_555 1_555
C2 H1 1_555 1_555
C3 C2 1_555 1_555
H2 C3 1_555 1_555
C4 C3 1_555 1_555
C5 C4 1_555 1_555
C6 C1 1_555 1_555
H3 C6 1_555 1_555
C7 C4 1_555 1_555
C8 C9 1_555 1_555
C9 C10 1_555 1_555
C10 C7 1_555 1_555
C11 C10 1_555 1_555
C12 C9 1_555 1_555
C13 H4 1_555 1_555
H5 C13 1_555 1_555
C14 C13 1_555 1_555
H6 C14 1_555 1_555
H7 C14 1_555 1_555
H8 C14 1_555 1_555
C15 H9 1_555 1_555
H10 C15 1_555 1_555
C16 C15 1_555 1_555
H11 C16 1_555 1_555
H12 C16 1_555 1_555
H13 C16 1_555 1_555
C17 C12 1_555 1_555
C18 C17 1_555 1_555
H14 C18 1_555 1_555
C19 C18 1_555 1_555
H15 C19 1_555 1_555
C20 C19 1_555 1_555
C21 C20 1_555 1_555
H16 C21 1_555 1_555
C22 C17 1_555 1_555
H17 C22 1_555 1_555
F1 C5 1_555 1_555
N1 C7 1_555 1_555
N2 C11 1_555 1_555
O1 C8 1_555 1_555
O2 C11 1_555 1_555
C5 C6 1_555 1_555
C8 N1 1_555 1_555
C12 N2 1_555 1_555
C13 N1 1_555 1_555
C15 N2 1_555 1_555
C21 C22 1_555 1_555

#END
