
#######################################################################
#
#                 Cambridge Crystallographic Data Centre
#                                CCDC 
#
#######################################################################
#
# If this CIF has been generated from an entry in the Cambridge 
# Structural Database, then it will include bibliographic, chemical, 
# crystal, experimental, refinement or atomic coordinate data resulting 
# from the CCDC's data processing and validation procedures.
#
#######################################################################

data_EKUHOJ
_chemical_formula_moiety         'C24 H22 Cl2 N2 O2 S1'
_chemical_name_systematic        
5-(2,2-dichloroethyl)-1-((4-methylphenyl)sulfonyl)-3,5-diphenyl-4,5-dihydro-1H-pyrazole
_symmetry_cell_setting           triclinic
_symmetry_space_group_name_H-M   'P -1'
_symmetry_Int_Tables_number      2
_space_group_name_Hall           '-P 1'
loop_
_symmetry_equiv_pos_site_id
_symmetry_equiv_pos_as_xyz
1 x,y,z
2 -x,-y,-z
_cell_length_a                   8.3182(14)
_cell_length_b                   11.6652(19)
_cell_length_c                   12.774(2)
_cell_angle_alpha                101.204(2)
_cell_angle_beta                 103.657(2)
_cell_angle_gamma                105.002(2)
_cell_volume                     1119.5
_exptl_crystal_colour            colorless
_exptl_crystal_description       block
_cell_formula_units_Z            2
loop_
_atom_site_label
_atom_site_type_symbol
_atom_site_fract_x
_atom_site_fract_y
_atom_site_fract_z
C1 C 0.3750(4) 0.2739(3) 0.5571(3)
H1 H 0.2765 0.2939 0.5185
H2 H 0.4321 0.3329 0.6290
H3 H 0.3359 0.1928 0.5670
C2 C 0.5013(3) 0.2771(3) 0.4895(2)
C3 C 0.4886(4) 0.1727(3) 0.4103(3)
H4 H 0.4014 0.0993 0.3998
C4 C 0.6011(4) 0.1745(2) 0.3467(2)
H5 H 0.5892 0.1037 0.2932
C5 C 0.7324(3) 0.2834(2) 0.36372(19)
C6 C 0.7491(3) 0.3888(2) 0.4426(2)
H6 H 0.8373 0.4619 0.4538
C7 C 0.6338(3) 0.3844(2) 0.5045(2)
H7 H 0.6453 0.4554 0.5576
C8 C 0.8602(3) 0.57164(18) 0.21562(18)
C9 C 0.7541(3) 0.49823(19) 0.09856(19)
H8 H 0.8155 0.5191 0.0456
H9 H 0.6425 0.5126 0.0783
C10 C 0.7291(3) 0.36268(19) 0.10117(18)
C11 C 0.9044(3) 0.70564(19) 0.25810(19)
C12 C 0.8338(3) 0.7721(2) 0.1902(2)
H10 H 0.7575 0.7312 0.1187
C13 C 0.8778(4) 0.8988(2) 0.2297(3)
H11 H 0.8296 0.9429 0.1849
C14 C 0.9912(4) 0.9593(2) 0.3339(2)
H12 H 1.0205 1.0444 0.3597
C15 C 1.0625(4) 0.8951(2) 0.4011(2)
H13 H 1.1403 0.9369 0.4720
C16 C 1.0188(3) 0.7689(2) 0.3632(2)
H14 H 1.0670 0.7259 0.4091
C17 C 0.7832(3) 0.2912(2) 0.00854(18)
H15 H 0.9026 0.3358 0.0150
H16 H 0.7815 0.2116 0.0213
C18 C 0.6704(3) 0.2701(2) -0.1100(2)
H17 H 0.5491 0.2573 -0.1104
C19 C 0.5466(3) 0.2967(2) 0.10572(18)
C20 C 0.4612(3) 0.1723(2) 0.0550(2)
H18 H 0.5134 0.1262 0.0143
C21 C 0.2986(4) 0.1156(3) 0.0641(3)
H19 H 0.2413 0.0325 0.0275
C22 C 0.2213(4) 0.1805(3) 0.1262(3)
H20 H 0.1135 0.1415 0.1335
C23 C 0.3046(4) 0.3040(3) 0.1775(3)
H21 H 0.2530 0.3491 0.2195
C24 C 0.4651(3) 0.3611(2) 0.1668(2)
H22 H 0.5198 0.4449 0.2014
Cl1 Cl 0.73790(12) 0.39597(7) -0.16635(6)
Cl2 Cl 0.68190(15) 0.13753(8) -0.19888(7)
N1 N 0.8680(2) 0.38577(16) 0.21078(15)
N2 N 0.9206(2) 0.50832(16) 0.27712(15)
O1 O 1.0524(2) 0.33161(16) 0.36294(15)
O2 O 0.8263(2) 0.16865(14) 0.20417(14)
S1 S 0.88065(7) 0.28503(5) 0.28602(5)
loop_
_geom_bond_atom_site_label_1
_geom_bond_atom_site_label_2
_geom_bond_site_symmetry_1
_geom_bond_site_symmetry_2
C1 H1 1_555 1_555
H2 C1 1_555 1_555
H3 C1 1_555 1_555
C2 C1 1_555 1_555
C3 C2 1_555 1_555
H4 C3 1_555 1_555
C4 C3 1_555 1_555
H5 C4 1_555 1_555
C5 C4 1_555 1_555
C6 C5 1_555 1_555
H6 C6 1_555 1_555
C7 C2 1_555 1_555
H7 C7 1_555 1_555
C8 C9 1_555 1_555
C9 H8 1_555 1_555
H9 C9 1_555 1_555
C10 C9 1_555 1_555
C11 C8 1_555 1_555
C12 C11 1_555 1_555
H10 C12 1_555 1_555
C13 C12 1_555 1_555
H11 C13 1_555 1_555
C14 C13 1_555 1_555
H12 C14 1_555 1_555
C15 C14 1_555 1_555
H13 C15 1_555 1_555
C16 C11 1_555 1_555
H14 C16 1_555 1_555
C17 C10 1_555 1_555
H15 C17 1_555 1_555
H16 C17 1_555 1_555
C18 C17 1_555 1_555
H17 C18 1_555 1_555
C19 C10 1_555 1_555
C20 C19 1_555 1_555
H18 C20 1_555 1_555
C21 C20 1_555 1_555
H19 C21 1_555 1_555
C22 C21 1_555 1_555
H20 C22 1_555 1_555
C23 C22 1_555 1_555
H21 C23 1_555 1_555
C24 C19 1_555 1_555
H22 C24 1_555 1_555
Cl1 C18 1_555 1_555
Cl2 C18 1_555 1_555
N1 C10 1_555 1_555
N2 C8 1_555 1_555
O1 S1 1_555 1_555
O2 S1 1_555 1_555
S1 C5 1_555 1_555
C6 C7 1_555 1_555
C15 C16 1_555 1_555
C23 C24 1_555 1_555
N1 N2 1_555 1_555
N1 S1 1_555 1_555

#END
