
#######################################################################
#
#                 Cambridge Crystallographic Data Centre
#                                CCDC 
#
#######################################################################
#
# If this CIF has been generated from an entry in the Cambridge 
# Structural Database, then it will include bibliographic, chemical, 
# crystal, experimental, refinement or atomic coordinate data resulting 
# from the CCDC's data processing and validation procedures.
#
#######################################################################

data_EKULED
_chemical_formula_moiety         'C34 H48 N3 O3 S1 Si1 1+,H2 O1,Cl1 1-'
_chemical_name_systematic        
'(1S,2S,4S,5R)-2-((R)-Quinolin-4-yl((trimethylsilyl)oxy)methyl)-5-(2-(1-tosylpiperidin-4-yl)ethyl)quinuclidinium chloride monohydrate'
_symmetry_cell_setting           monoclinic
_symmetry_space_group_name_H-M   'P 21'
_symmetry_Int_Tables_number      4
_space_group_name_Hall           'P 2yb'
loop_
_symmetry_equiv_pos_site_id
_symmetry_equiv_pos_as_xyz
1 x,y,z
2 -x,1/2+y,-z
_cell_length_a                   11.19700(10)
_cell_length_b                   11.95510(10)
_cell_length_c                   14.1022(2)
_cell_angle_alpha                90
_cell_angle_beta                 108.3160(10)
_cell_angle_gamma                90
_cell_volume                     1792.1
_exptl_crystal_colour            colorless
_exptl_crystal_description       block
_cell_formula_units_Z            2
loop_
_atom_site_label
_atom_site_type_symbol
_atom_site_fract_x
_atom_site_fract_y
_atom_site_fract_z
S1 S 0.22590(10) 1.07782(11) 1.12679(9)
Si1 Si 0.18589(11) 0.31926(12) 0.36183(9)
O1 O 0.1837(3) 0.4094(3) 0.4522(2)
N1 N 0.2841(3) 0.9889(4) 1.0636(3)
C1 C 0.2019(4) 0.4768(4) 0.6168(3)
H1 H 0.1487 0.4822 0.6601
N2 N 0.3290(3) 0.4374(3) 0.6807(3)
H2 H 0.3196 0.3623 0.7054
O2 O 0.2764(4) 1.0486(4) 1.2291(3)
O3 O 0.2470(4) 1.1859(3) 1.0962(4)
C2 C 0.1387(4) 0.3912(4) 0.5335(3)
H3 H 0.1604 0.3151 0.5591
C3 C 0.3166(4) 0.8094(5) 0.9354(3)
H4 H 0.2288 0.7846 0.9111
C4 C 0.3550(4) 0.6303(5) 0.6199(3)
H5 H 0.3649 0.7051 0.5949
C5 C 0.3749(4) 0.5147(4) 0.7692(3)
H6 H 0.4517 0.4853 0.8159
H7 H 0.3121 0.5197 0.8033
C6 C 0.2153(4) 0.5959(4) 0.5796(4)
H8 H 0.1643 0.6477 0.6033
H9 H 0.1868 0.5976 0.5072
C7 C 0.0165(5) 0.9700(6) 1.1381(5)
H10 H 0.0669 0.9388 1.1977
C8 C 0.3622(5) 0.8002(5) 1.0493(4)
H11 H 0.3596 0.7226 1.0683
H12 H 0.4488 0.8254 1.0747
C9 C -0.0038(4) 0.4076(5) 0.5046(4)
C10 C 0.2820(5) 0.8696(5) 1.0956(4)
H13 H 0.1963 0.8417 1.0741
H14 H 0.3145 0.8644 1.1678
C11 C 0.3998(4) 0.6322(4) 0.7335(3)
H15 H 0.4909 0.6445 0.7559
C12 C -0.0751(5) 0.3577(5) 0.5594(4)
C13 C -0.0140(5) 1.1023(6) 1.0024(5)
H16 H 0.0169 1.1581 0.9705
C14 C 0.3403(5) 0.7244(5) 0.7772(4)
H17 H 0.2505 0.7111 0.7588
H18 H 0.3527 0.7952 0.7481
C15 C -0.0649(5) 0.4748(6) 0.4248(4)
H19 H -0.0210 0.5106 0.3875
C16 C 0.2447(5) 1.0047(5) 0.9553(4)
H20 H 0.2557 1.0824 0.9403
H21 H 0.1561 0.9864 0.9271
C17 C 0.0637(4) 1.0513(5) 1.0879(4)
C18 C -0.2829(5) 0.3257(7) 0.5802(5)
H22 H -0.3686 0.3410 0.5608
C19 C -0.2072(5) 0.3772(6) 0.5292(5)
C20 C 0.3210(5) 0.9310(5) 0.9085(4)
H23 H 0.2890 0.9390 0.8365
H24 H 0.4077 0.9562 0.9304
C21 C 0.3938(5) 0.7332(5) 0.8909(4)
H25 H 0.3970 0.6591 0.9196
H26 H 0.4792 0.7615 0.9087
C22 C -0.0249(5) 0.2840(6) 0.6414(4)
H27 H 0.0611 0.2697 0.6624
C23 C 0.4299(5) 0.5469(6) 0.5798(4)
H28 H 0.5166 0.5714 0.5960
H29 H 0.3946 0.5415 0.5077
C24 C 0.4243(4) 0.4318(5) 0.6278(4)
H30 H 0.4015 0.3744 0.5766
H31 H 0.5060 0.4133 0.6745
N3 N -0.2645(5) 0.4470(6) 0.4503(5)
C25 C -0.1389(5) 1.0684(6) 0.9651(5)
H32 H -0.1916 1.1029 0.9082
C26 C -0.3194(6) 0.9463(8) 0.9652(8)
H33 H -0.3760 1.0044 0.9708
H34 H -0.3325 0.8810 1.0004
H35 H -0.3348 0.9282 0.8961
C27 C -0.1857(5) 0.9860(6) 1.0099(5)
C28 C -0.1093(5) 0.9371(7) 1.0956(5)
H36 H -0.1417 0.8809 1.1261
C29 C -0.2326(6) 0.2548(8) 0.6562(5)
H37 H -0.2845 0.2194 0.6870
C30 C -0.0981(6) 0.2329(7) 0.6909(5)
H38 H -0.0627 0.1858 0.7450
C31 C -0.1948(6) 0.4874(7) 0.4017(6)
H39 H -0.2351 0.5294 0.3452
C32 C 0.3457(8) 0.3304(10) 0.3469(6)
H40 H 0.3591 0.4056 0.3285
H41 H 0.3515 0.2799 0.2956
H42 H 0.4084 0.3115 0.4088
C33 C 0.1566(13) 0.1770(8) 0.3965(8)
H43 H 0.0880 0.1776 0.4235
H44 H 0.2307 0.1488 0.4456
H45 H 0.1358 0.1300 0.3384
C34 C 0.0664(13) 0.3625(17) 0.2430(7)
H46 H -0.0108 0.3233 0.2353
H47 H 0.0963 0.3451 0.1879
H48 H 0.0521 0.4416 0.2443
Cl1 Cl 0.69334(16) 0.72194(14) 0.21784(13)
O4 O 0.4992(4) 0.6164(7) 0.3213(3)
H58 H 0.5456(3) 0.6451(6) 0.2899(2)
H59 H 0.5379(10) 0.6174(16) 0.3836(2)
C35? C 0.097(4) 0.202(2) 0.378(2)
H49? H 0.1399 0.1665 0.4409
H50? H 0.0880 0.1501 0.3248
H51? H 0.0156 0.2267 0.3786
C36? C 0.344(2) 0.262(3) 0.3923(19)
H52? H 0.4044 0.3198 0.4184
H53? H 0.3560 0.2308 0.3332
H54? H 0.3543 0.2038 0.4415
C37? C 0.137(4) 0.409(5) 0.252(2)
H55? H 0.0923 0.3658 0.1944
H56? H 0.2096 0.4426 0.2411
H57? H 0.0827 0.4673 0.2621
loop_
_geom_bond_atom_site_label_1
_geom_bond_atom_site_label_2
_geom_bond_site_symmetry_1
_geom_bond_site_symmetry_2
S1 N1 1_555 1_555
Si1 O1 1_555 1_555
O1 C2 1_555 1_555
N1 C10 1_555 1_555
C1 H1 1_555 1_555
N2 C1 1_555 1_555
H2 N2 1_555 1_555
O2 S1 1_555 1_555
O3 S1 1_555 1_555
C2 C1 1_555 1_555
H3 C2 1_555 1_555
C3 H4 1_555 1_555
C4 H5 1_555 1_555
C5 N2 1_555 1_555
H6 C5 1_555 1_555
H7 C5 1_555 1_555
C6 C1 1_555 1_555
H8 C6 1_555 1_555
H9 C6 1_555 1_555
C7 H10 1_555 1_555
C8 C3 1_555 1_555
H11 C8 1_555 1_555
H12 C8 1_555 1_555
C9 C2 1_555 1_555
C10 C8 1_555 1_555
H13 C10 1_555 1_555
H14 C10 1_555 1_555
C11 C4 1_555 1_555
H15 C11 1_555 1_555
C12 C9 1_555 1_555
C13 H16 1_555 1_555
C14 C11 1_555 1_555
H17 C14 1_555 1_555
H18 C14 1_555 1_555
C15 C9 1_555 1_555
H19 C15 1_555 1_555
C16 N1 1_555 1_555
H20 C16 1_555 1_555
H21 C16 1_555 1_555
C17 S1 1_555 1_555
C18 H22 1_555 1_555
C19 C12 1_555 1_555
C20 C3 1_555 1_555
H23 C20 1_555 1_555
H24 C20 1_555 1_555
C21 C3 1_555 1_555
H25 C21 1_555 1_555
H26 C21 1_555 1_555
C22 C12 1_555 1_555
H27 C22 1_555 1_555
C23 C4 1_555 1_555
H28 C23 1_555 1_555
H29 C23 1_555 1_555
C24 N2 1_555 1_555
H30 C24 1_555 1_555
H31 C24 1_555 1_555
N3 C19 1_555 1_555
C25 C13 1_555 1_555
H32 C25 1_555 1_555
C26 H33 1_555 1_555
H34 C26 1_555 1_555
H35 C26 1_555 1_555
C27 C25 1_555 1_555
C28 C7 1_555 1_555
H36 C28 1_555 1_555
C29 C18 1_555 1_555
H37 C29 1_555 1_555
C30 C22 1_555 1_555
H38 C30 1_555 1_555
C31 C15 1_555 1_555
H39 C31 1_555 1_555
C32 Si1 1_555 1_555
H40 C32 1_555 1_555
H41 C32 1_555 1_555
H42 C32 1_555 1_555
C33 Si1 1_555 1_555
H43 C33 1_555 1_555
H44 C33 1_555 1_555
H45 C33 1_555 1_555
C34 Si1 1_555 1_555
H46 C34 1_555 1_555
H47 C34 1_555 1_555
H48 C34 1_555 1_555
O4 H58 1_555 1_555
H59 O4 1_555 1_555
C4 C6 1_555 1_555
C5 C11 1_555 1_555
C7 C17 1_555 1_555
C13 C17 1_555 1_555
C14 C21 1_555 1_555
C16 C20 1_555 1_555
C18 C19 1_555 1_555
C23 C24 1_555 1_555
N3 C31 1_555 1_555
C26 C27 1_555 1_555
C27 C28 1_555 1_555
C29 C30 1_555 1_555

#END
