
#######################################################################
#
#                 Cambridge Crystallographic Data Centre
#                                CCDC 
#
#######################################################################
#
# If this CIF has been generated from an entry in the Cambridge 
# Structural Database, then it will include bibliographic, chemical, 
# crystal, experimental, refinement or atomic coordinate data resulting 
# from the CCDC's data processing and validation procedures.
#
#######################################################################

data_EKUMOM
_chemical_formula_moiety         'C12 H13 N5 O6'
_chemical_name_systematic        
1-(2,4-dinitrophenyl)-2-(1-nitrocyclohexyl)diazene
_symmetry_cell_setting           monoclinic
_symmetry_space_group_name_H-M   'P 21/c'
_symmetry_Int_Tables_number      14
_space_group_name_Hall           '-P 2ybc'
loop_
_symmetry_equiv_pos_site_id
_symmetry_equiv_pos_as_xyz
1 x,y,z
2 x,1/2-y,1/2+z
3 -x,-y,-z
4 -x,1/2+y,1/2-z
_cell_length_a                   11.282(2)
_cell_length_b                   13.033(2)
_cell_length_c                   10.162(1)
_cell_angle_alpha                90
_cell_angle_beta                 98.50(1)
_cell_angle_gamma                90
_cell_volume                     1477.79
_chemical_melting_point          125.6deg.C
_cell_formula_units_Z            4
loop_
_atom_site_label
_atom_site_type_symbol
_atom_site_fract_x
_atom_site_fract_y
_atom_site_fract_z
O1 O 0.87659(15) 0.54492(14) 0.68640(16)
O2 O 0.98992(13) 0.43029(13) 0.61942(14)
O3 O 0.44838(15) 0.38412(14) -0.11097(15)
O4 O 0.42938(16) 0.23311(13) -0.03286(18)
N1 N 0.89555(15) 0.47691(13) 0.61072(15)
N2 N 0.7490(2) 0.2584(2) 0.2356(2)
N3 N 0.53804(14) 0.37310(12) 0.18283(14)
N4 N 0.43314(14) 0.39520(12) 0.19304(15)
N5 N 0.41219(15) 0.32525(15) -0.03335(16)
C1 C 0.72884(18) 0.34617(15) 0.31921(19)
C2 C 0.81962(18) 0.37072(15) 0.42022(18)
H1 H 0.8914 0.3345 0.4327
C3 C 0.79980(16) 0.45057(14) 0.50148(17)
C4 C 0.69509(17) 0.50610(15) 0.48419(18)
H2 H 0.6840 0.5595 0.5418
C5 C 0.60679(17) 0.48161(14) 0.38032(18)
H3 H 0.5368 0.5202 0.3658
C6 C 0.62178(16) 0.39973(14) 0.29746(17)
C7 C 0.34507(16) 0.37091(14) 0.07495(17)
C8 C 0.25890(18) 0.29163(16) 0.1164(2)
H4 H 0.2295 0.3151 0.1962
H5 H 0.3014 0.2276 0.1372
C9 C 0.1531(2) 0.27281(19) 0.0078(2)
H6 H 0.1811 0.2402 -0.0677
H7 H 0.0968 0.2267 0.0409
C10 C 0.0900(2) 0.3725(2) -0.0368(2)
H8 H 0.0251 0.3587 -0.1084
H9 H 0.0558 0.4021 0.0367
C11 C 0.1765(2) 0.4484(2) -0.0842(2)
H10 H 0.1349 0.5122 -0.1094
H11 H 0.2060 0.4211 -0.1620
C12 C 0.28207(19) 0.46921(16) 0.0255(2)
H12 H 0.3387 0.5144 -0.0086
H13 H 0.2532 0.5037 0.0992
O5 O 0.8450(3) 0.2357(7) 0.2110(7)
O6 O 0.6640(4) 0.2029(4) 0.2038(7)
O7? O 0.8060(16) 0.2848(6) 0.1487(14)
O8? O 0.7073(14) 0.1747(5) 0.2424(12)
loop_
_geom_bond_atom_site_label_1
_geom_bond_atom_site_label_2
_geom_bond_site_symmetry_1
_geom_bond_site_symmetry_2
O1 N1 1_555 1_555
O2 N1 1_555 1_555
O3 N5 1_555 1_555
O4 N5 1_555 1_555
N1 C3 1_555 1_555
N2 C1 1_555 1_555
N3 N4 1_555 1_555
N4 C7 1_555 1_555
N5 C7 1_555 1_555
C1 C2 1_555 1_555
C2 H1 1_555 1_555
C3 C2 1_555 1_555
C4 C3 1_555 1_555
H2 C4 1_555 1_555
C5 C4 1_555 1_555
H3 C5 1_555 1_555
C6 N3 1_555 1_555
C7 C8 1_555 1_555
C8 H4 1_555 1_555
H5 C8 1_555 1_555
C9 C8 1_555 1_555
H6 C9 1_555 1_555
H7 C9 1_555 1_555
C10 C9 1_555 1_555
H8 C10 1_555 1_555
H9 C10 1_555 1_555
C11 C10 1_555 1_555
H10 C11 1_555 1_555
H11 C11 1_555 1_555
C12 C7 1_555 1_555
H12 C12 1_555 1_555
H13 C12 1_555 1_555
O5 N2 1_555 1_555
O6 N2 1_555 1_555
C1 C6 1_555 1_555
C5 C6 1_555 1_555
C11 C12 1_555 1_555

#END
