
#######################################################################
#
#                 Cambridge Crystallographic Data Centre
#                                CCDC 
#
#######################################################################
#
# If this CIF has been generated from an entry in the Cambridge 
# Structural Database, then it will include bibliographic, chemical, 
# crystal, experimental, refinement or atomic coordinate data resulting 
# from the CCDC's data processing and validation procedures.
#
#######################################################################

data_EKUMUU
_chemical_formula_moiety         'C12 H15 N1 O3'
_chemical_name_systematic        
3-(Dimethylamino)-1-(2-hydroxy-4-methoxyphenyl)prop-2-en-1-one
_symmetry_cell_setting           monoclinic
_symmetry_space_group_name_H-M   'P 21/n'
_symmetry_Int_Tables_number      14
_space_group_name_Hall           '-P 2yn'
loop_
_symmetry_equiv_pos_site_id
_symmetry_equiv_pos_as_xyz
1 x,y,z
2 1/2-x,1/2+y,1/2-z
3 -x,-y,-z
4 1/2+x,1/2-y,1/2+z
_cell_length_a                   7.4266(15)
_cell_length_b                   11.889(2)
_cell_length_c                   13.141(3)
_cell_angle_alpha                90
_cell_angle_beta                 102.20(3)
_cell_angle_gamma                90
_cell_volume                     1134.08
_exptl_crystal_colour            colorless
_exptl_crystal_description       block
_cell_formula_units_Z            4
loop_
_atom_site_label
_atom_site_type_symbol
_atom_site_fract_x
_atom_site_fract_y
_atom_site_fract_z
O1 O 0.12888(16) 0.92324(9) 0.07854(8)
C1 C 0.17103(16) 0.90774(10) 0.39925(10)
O2 O 0.04658(15) 0.72077(8) 0.37844(9)
C2 C 0.18973(17) 0.90095(10) 0.51294(10)
C3 C 0.13563(17) 0.91254(11) 0.18229(10)
C4 C 0.08360(18) 0.81753(11) 0.22883(11)
C5 C 0.10009(16) 0.81501(10) 0.33636(11)
O3 O 0.13757(17) 0.81159(8) 0.55065(9)
N1 N 0.34706(15) 1.06040(9) 0.75493(9)
C6 C 0.28550(18) 0.98271(12) 0.68398(11)
C7 C 0.21920(18) 1.00295(11) 0.34762(11)
C8 C 0.26618(18) 0.99182(11) 0.57861(10)
C9 C 0.2024(2) 1.00683(11) 0.24224(11)
C10 C 0.3998(2) 1.17107(12) 0.72512(13)
C11 C 0.3678(3) 1.03777(15) 0.86507(12)
C12 C 0.0681(3) 0.83035(15) 0.01299(14)
H1 H 0.1529 0.7690 0.0311
H2 H 0.0619 0.8514 -0.0582
H3 H -0.0518 0.8076 0.0216
H4 H 0.041(2) 0.7553(13) 0.1890(13)
H5 H 0.253(2) 0.9145(14) 0.7110(13)
H6 H 0.303(2) 1.0592(15) 0.5492(12)
H7 H 0.242(2) 1.0706(15) 0.2070(14)
H8 H 0.267(2) 1.0701(15) 0.3896(13)
H9 H 0.304(3) 1.0890(19) 0.8963(17)
H10 H 0.303(2) 1.2052(16) 0.6750(15)
H11 H 0.440(3) 1.2145(18) 0.7855(19)
H12 H 0.328(4) 0.962(2) 0.875(2)
H13 H 0.504(3) 1.1646(16) 0.6908(16)
H14 H 0.493(3) 1.0496(18) 0.8997(17)
H15 H 0.070(3) 0.742(2) 0.450(2)
loop_
_geom_bond_atom_site_label_1
_geom_bond_atom_site_label_2
_geom_bond_site_symmetry_1
_geom_bond_site_symmetry_2
O1 C3 1_555 1_555
C1 C2 1_555 1_555
O2 C5 1_555 1_555
C2 O3 1_555 1_555
C3 C4 1_555 1_555
C4 C5 1_555 1_555
C5 C1 1_555 1_555
N1 C6 1_555 1_555
C6 C8 1_555 1_555
C7 C1 1_555 1_555
C8 C2 1_555 1_555
C9 C3 1_555 1_555
C10 N1 1_555 1_555
C11 N1 1_555 1_555
C12 O1 1_555 1_555
H1 C12 1_555 1_555
H2 C12 1_555 1_555
H3 C12 1_555 1_555
H4 C4 1_555 1_555
H5 C6 1_555 1_555
H6 C8 1_555 1_555
H7 C9 1_555 1_555
H8 C7 1_555 1_555
H9 C11 1_555 1_555
H10 C10 1_555 1_555
H11 C10 1_555 1_555
H12 C11 1_555 1_555
H13 C10 1_555 1_555
H14 C11 1_555 1_555
H15 O2 1_555 1_555
C7 C9 1_555 1_555

#END
