
#######################################################################
#
#                 Cambridge Crystallographic Data Centre
#                                CCDC 
#
#######################################################################
#
# If this CIF has been generated from an entry in the Cambridge 
# Structural Database, then it will include bibliographic, chemical, 
# crystal, experimental, refinement or atomic coordinate data resulting 
# from the CCDC's data processing and validation procedures.
#
#######################################################################

data_EKUMUS
_chemical_formula_moiety         'C16 H29 N3 O6'
_chemical_name_systematic        
't-butoxycarbonyl-alanyl-\a-amino-isobutyryl-\b-alanine methyl ester'
_symmetry_cell_setting           monoclinic
_symmetry_space_group_name_H-M   'P 21'
_symmetry_Int_Tables_number      4
_space_group_name_Hall           'P 2yb'
loop_
_symmetry_equiv_pos_site_id
_symmetry_equiv_pos_as_xyz
1 x,y,z
2 -x,1/2+y,-z
_cell_length_a                   12.177(14)
_cell_length_b                   6.071(10)
_cell_length_c                   14.74(2)
_cell_angle_alpha                90.00
_cell_angle_beta                 106.120(10)
_cell_angle_gamma                90.00
_cell_volume                     1046.83
_cell_formula_units_Z            2
_exptl_crystal_recrystallization_method ethanol/dichloromethane
loop_
_atom_site_label
_atom_site_type_symbol
_atom_site_fract_x
_atom_site_fract_y
_atom_site_fract_z
C1 C 0.1286(7) 0.9763(19) 0.0756(6)
H1 H 0.0693 1.0656 0.0896
H2 H 0.0944 0.8386 0.0482
C2 C 0.1780(10) 1.097(3) 0.0049(8)
O1 O 0.2336(10) 1.0121(13) -0.0408(7)
O2 O 0.1615(6) 1.3109(16) 0.0023(5)
C3 C 0.2189(7) 0.9314(16) 0.1632(6)
H3 H 0.2466 1.0699 0.1939
H4 H 0.2824 0.8590 0.1477
N1 N 0.1783(5) 0.7910(12) 0.2294(4)
H5 H 0.1926 0.6521 0.2311
C4 C 0.1200(6) 0.8723(14) 0.2866(6)
O3 O 0.0879(4) 1.0660(9) 0.2836(4)
C5 C 0.0858(5) 0.7114(13) 0.3554(6)
C6 C -0.0341(6) 0.6201(15) 0.3051(7)
H6 H -0.0330 0.5549 0.2460
H7 H -0.0888 0.7380 0.2937
H8 H -0.0551 0.5107 0.3443
C7 C 0.0875(7) 0.8252(16) 0.4494(6)
H9 H 0.0623 0.7233 0.4892
H10 H 0.0374 0.9504 0.4369
H11 H 0.1639 0.8728 0.4805
N2 N 0.1633(4) 0.5187(10) 0.3743(4)
H12 H 0.1345 0.3909 0.3572
C8 C 0.2784(6) 0.5326(13) 0.4175(5)
O4 O 0.3295(4) 0.7017(9) 0.4406(4)
C9 C 0.3363(6) 0.3035(13) 0.4389(5)
H13 H 0.2843 0.1908 0.4033
C10 C 0.3579(6) 0.2601(16) 0.5451(6)
H14 H 0.3882 0.1144 0.5597
H15 H 0.2873 0.2729 0.5616
H16 H 0.4117 0.3660 0.5802
N3 N 0.4437(4) 0.2962(11) 0.4119(4)
H17 H 0.5069 0.2651 0.4533
C11 C 0.4421(7) 0.3387(11) 0.3221(7)
O5 O 0.3610(4) 0.4054(9) 0.2596(4)
C12 C 0.2067(10) 1.439(2) -0.0642(8)
H18 H 0.2412 1.3406 -0.0994
H19 H 0.2630 1.5412 -0.0296
H20 H 0.1455 1.5179 -0.1068
O6 O 0.5475(4) 0.2911(9) 0.3104(3)
C13 C 0.5777(6) 0.3420(15) 0.2222(6)
C14 C 0.7022(7) 0.2635(19) 0.2443(7)
H21 H 0.7478 0.3410 0.2985
H22 H 0.7310 0.2921 0.1910
H23 H 0.7057 0.1083 0.2571
C15 C 0.5036(7) 0.2106(18) 0.1394(6)
H24 H 0.5053 0.0577 0.1563
H25 H 0.5326 0.2278 0.0855
H26 H 0.4264 0.2637 0.1244
C16 C 0.5662(9) 0.5835(17) 0.1989(8)
H27 H 0.4887 0.6291 0.1918
H28 H 0.5857 0.6096 0.1410
H29 H 0.6166 0.6659 0.2490
loop_
_geom_bond_atom_site_label_1
_geom_bond_atom_site_label_2
_geom_bond_site_symmetry_1
_geom_bond_site_symmetry_2
C1 H1 1_555 1_555
H2 C1 1_555 1_555
C2 C1 1_555 1_555
O1 C2 1_555 1_555
O2 C2 1_555 1_555
C3 C1 1_555 1_555
H3 C3 1_555 1_555
H4 C3 1_555 1_555
N1 C3 1_555 1_555
H5 N1 1_555 1_555
C4 N1 1_555 1_555
O3 C4 1_555 1_555
C5 C4 1_555 1_555
C6 C5 1_555 1_555
H6 C6 1_555 1_555
H7 C6 1_555 1_555
H8 C6 1_555 1_555
C7 C5 1_555 1_555
H9 C7 1_555 1_555
H10 C7 1_555 1_555
H11 C7 1_555 1_555
N2 C5 1_555 1_555
H12 N2 1_555 1_555
C8 N2 1_555 1_555
O4 C8 1_555 1_555
C9 C8 1_555 1_555
H13 C9 1_555 1_555
C10 C9 1_555 1_555
H14 C10 1_555 1_555
H15 C10 1_555 1_555
H16 C10 1_555 1_555
N3 C9 1_555 1_555
H17 N3 1_555 1_555
C11 N3 1_555 1_555
O5 C11 1_555 1_555
C12 O2 1_555 1_555
H18 C12 1_555 1_555
H19 C12 1_555 1_555
H20 C12 1_555 1_555
O6 C11 1_555 1_555
C13 O6 1_555 1_555
C14 C13 1_555 1_555
H21 C14 1_555 1_555
H22 C14 1_555 1_555
H23 C14 1_555 1_555
C15 C13 1_555 1_555
H24 C15 1_555 1_555
H25 C15 1_555 1_555
H26 C15 1_555 1_555
C16 C13 1_555 1_555
H27 C16 1_555 1_555
H28 C16 1_555 1_555
H29 C16 1_555 1_555

#END
