
#######################################################################
#
#                 Cambridge Crystallographic Data Centre
#                                CCDC 
#
#######################################################################
#
# If this CIF has been generated from an entry in the Cambridge 
# Structural Database, then it will include bibliographic, chemical, 
# crystal, experimental, refinement or atomic coordinate data resulting 
# from the CCDC's data processing and validation procedures.
#
#######################################################################

data_EKUMOO
_chemical_formula_moiety         'C11 H12 F1 N1 O2'
_chemical_name_systematic        
3-(Dimethylamino)-1-(4-fluoro-2-hydroxyphenyl)prop-2-en-1-one
_symmetry_cell_setting           monoclinic
_symmetry_space_group_name_H-M   'P 21/c'
_symmetry_Int_Tables_number      14
_space_group_name_Hall           '-P 2ybc'
loop_
_symmetry_equiv_pos_site_id
_symmetry_equiv_pos_as_xyz
1 x,y,z
2 -x,1/2+y,1/2-z
3 -x,-y,-z
4 x,1/2-y,1/2+z
_cell_length_a                   7.7034(15)
_cell_length_b                   22.119(4)
_cell_length_c                   12.573(3)
_cell_angle_alpha                90
_cell_angle_beta                 105.27(3)
_cell_angle_gamma                90
_cell_volume                     2066.7
_exptl_crystal_colour            colorless
_exptl_crystal_description       block
_cell_formula_units_Z            8
loop_
_atom_site_label
_atom_site_type_symbol
_atom_site_fract_x
_atom_site_fract_y
_atom_site_fract_z
C1 C 0.0646(3) 0.18463(7) 0.06792(12)
H1 H 0.1770 0.1723 0.0553
H2 H -0.0326 0.1717 0.0074
H3 H 0.0519 0.1667 0.1350
C2 C -0.0406(2) 0.28291(8) -0.01828(12)
H4 H -0.0311 0.3255 -0.0028
H5 H -0.1647 0.2710 -0.0352
H6 H 0.0066 0.2743 -0.0801
C3 C 0.6594(2) 0.28192(7) 0.63831(12)
H7 H 0.7344 0.3069 0.6900
C4 C 0.5326(2) 0.18298(7) 0.58702(12)
H8 H 0.5228 0.1425 0.6048
C5 C 0.5634(2) 0.30463(6) 0.53641(12)
F1 F 0.73354(15) 0.20062(5) 0.76007(8)
C6 C 0.15519(19) 0.27818(7) 0.16676(11)
H9 H 0.1542 0.3202 0.1635
C7 C 0.4396(2) 0.20601(6) 0.48627(12)
H10 H 0.3652 0.1803 0.4357
N1 N 0.06086(16) 0.24974(6) 0.07710(9)
C8 C 0.3536(2) 0.29170(6) 0.34846(11)
C9 C 0.25331(19) 0.25328(7) 0.26296(11)
H11 H 0.2549 0.2116 0.2728
O1 O 0.58018(19) 0.36343(5) 0.51701(9)
H12 H 0.5231 0.3714 0.4538
O2 O 0.36299(17) 0.34790(5) 0.33441(9)
C10 C 0.45253(18) 0.26622(6) 0.45719(11)
C11 C 0.6412(2) 0.22252(7) 0.66061(12)
C12 C 0.5067(3) 0.58326(7) 1.22304(14)
H13 H 0.5788 0.5873 1.1717
H14 H 0.5726 0.5982 1.2939
H15 H 0.3978 0.6061 1.1973
C13 C 0.5388(3) 0.49160(9) 1.33835(13)
H16 H 0.4969 0.4506 1.3357
H17 H 0.5016 0.5132 1.3948
H18 H 0.6677 0.4919 1.3545
C14 C -0.0689(2) 0.53147(7) 0.63864(11)
C15 C 0.1055(2) 0.55375(6) 0.81755(12)
H19 H 0.1686 0.5815 0.8690
C16 C 0.0221(2) 0.57375(7) 0.71317(12)
H20 H 0.0269 0.6141 0.6936
C17 C 0.36323(19) 0.48989(6) 1.14771(11)
H21 H 0.3417 0.4495 1.1606
C18 C -0.0832(2) 0.47244(7) 0.66353(11)
H22 H -0.1477 0.4456 0.6108
C19 C 0.0009(2) 0.45278(6) 0.76979(11)
C20 C 0.09932(18) 0.49361(6) 0.84944(10)
N2 N 0.46312(16) 0.52048(5) 1.23234(9)
C21 C 0.18677(18) 0.47130(6) 0.96231(10)
O3 O -0.01500(18) 0.39436(5) 0.79399(8)
H23 H 0.0323 0.3887 0.8597
F2 F -0.15144(17) 0.55084(5) 0.53499(7)
O4 O 0.16837(16) 0.41607(4) 0.98263(8)
C22 C 0.28810(18) 0.51086(6) 1.04356(10)
H24 H 0.3035 0.5510 1.0262
loop_
_geom_bond_atom_site_label_1
_geom_bond_atom_site_label_2
_geom_bond_site_symmetry_1
_geom_bond_site_symmetry_2
C1 H1 1_555 1_555
H2 C1 1_555 1_555
H3 C1 1_555 1_555
C2 H4 1_555 1_555
H5 C2 1_555 1_555
H6 C2 1_555 1_555
C3 H7 1_555 1_555
C4 H8 1_555 1_555
C5 C3 1_555 1_555
F1 C11 1_555 1_555
C6 H9 1_555 1_555
C7 C4 1_555 1_555
H10 C7 1_555 1_555
N1 C1 1_555 1_555
C8 C9 1_555 1_555
C9 C6 1_555 1_555
H11 C9 1_555 1_555
O1 C5 1_555 1_555
H12 O1 1_555 1_555
O2 C8 1_555 1_555
C10 C5 1_555 1_555
C11 C3 1_555 1_555
C12 H13 1_555 1_555
H14 C12 1_555 1_555
H15 C12 1_555 1_555
C13 H16 1_555 1_555
H17 C13 1_555 1_555
H18 C13 1_555 1_555
C14 C16 1_555 1_555
C15 H19 1_555 1_555
C16 C15 1_555 1_555
H20 C16 1_555 1_555
C17 H21 1_555 1_555
C18 C14 1_555 1_555
H22 C18 1_555 1_555
C19 C18 1_555 1_555
C20 C15 1_555 1_555
N2 C12 1_555 1_555
C21 C20 1_555 1_555
O3 C19 1_555 1_555
H23 O3 1_555 1_555
F2 C14 1_555 1_555
O4 C21 1_555 1_555
C22 C17 1_555 1_555
H24 C22 1_555 1_555
C2 N1 1_555 1_555
C4 C11 1_555 1_555
C6 N1 1_555 1_555
C7 C10 1_555 1_555
C8 C10 1_555 1_555
C13 N2 1_555 1_555
C17 N2 1_555 1_555
C19 C20 1_555 1_555
C21 C22 1_555 1_555

#END
