
#######################################################################
#
#                 Cambridge Crystallographic Data Centre
#                                CCDC 
#
#######################################################################
#
# If this CIF has been generated from an entry in the Cambridge 
# Structural Database, then it will include bibliographic, chemical, 
# crystal, experimental, refinement or atomic coordinate data resulting 
# from the CCDC's data processing and validation procedures.
#
#######################################################################

data_EKUNOO
_chemical_formula_moiety         'C38 H29 N2 O4 1+,Cl1 O4 1-,3(H2 O1)'
_chemical_name_systematic        
"4'-((1'-((2'-Carboxybiphenyl-4-yl)methyl)-4,4'-bipyridinium-1-yl)methyl)biphenyl-2-carboxylate perchlorate trihydrate"
_symmetry_cell_setting           orthorhombic
_symmetry_space_group_name_H-M   'P 21 21 21'
_symmetry_Int_Tables_number      19
_space_group_name_Hall           'P 2ac 2ab'
loop_
_symmetry_equiv_pos_site_id
_symmetry_equiv_pos_as_xyz
1 x,y,z
2 1/2-x,-y,1/2+z
3 1/2+x,1/2-y,-z
4 -x,1/2+y,1/2-z
_cell_length_a                   13.702(6)
_cell_length_b                   15.068(6)
_cell_length_c                   16.559(8)
_cell_angle_alpha                90
_cell_angle_beta                 90
_cell_angle_gamma                90
_cell_volume                     3418.8
_exptl_crystal_colour            yellow
_exptl_crystal_description       prism
_cell_formula_units_Z            4
loop_
_atom_site_label
_atom_site_type_symbol
_atom_site_fract_x
_atom_site_fract_y
_atom_site_fract_z
Cl1 Cl 0.8125(3) 0.2096(2) 0.94380(17)
O8 O 0.7326(10) 0.2510(6) 0.9133(6)
O9 O 0.8063(5) 0.1721(3) 1.0211(3)
O10 O 0.8846(5) 0.2858(3) 0.9521(4)
O11 O 0.8662(7) 0.1468(3) 0.8954(4)
O1 O 0.5046(2) 0.9011(2) 0.91172(17)
H1 H 0.5538 0.8744 0.8936
O3 O 0.4609(2) 0.9010(3) 0.78348(19)
O5 O -0.8354(2) 0.6641(2) 1.13150(18)
O7 O -0.7925(3) 0.5356(2) 1.1828(2)
N1 N 0.1070(2) 0.52090(19) 0.8493(2)
N2 N -0.3988(2) 0.5486(3) 0.83606(18)
C1 C 0.4457(3) 0.9183(3) 0.8536(2)
C2 C 0.3524(3) 0.9630(3) 0.8782(2)
C3 C 0.3532(3) 1.0542(3) 0.8899(3)
H2 H 0.4127 1.0858 0.8836
C4 C 0.2707(4) 1.0996(3) 0.9101(3)
H3 H 0.2729 1.1623 0.9155
C5 C 0.1839(4) 1.0549(3) 0.9227(3)
H4 H 0.1268 1.0862 0.9383
C6 C 0.1817(3) 0.9641(3) 0.9124(2)
H5 H 0.1222 0.9331 0.9210
C7 C 0.2643(3) 0.9166(3) 0.8897(2)
C8 C 0.2569(2) 0.8183(2) 0.8811(2)
C9 C 0.2230(3) 0.7678(3) 0.9463(2)
H6 H 0.2091 0.7958 0.9964
C10 C 0.2100(3) 0.6779(3) 0.9382(2)
H7 H 0.1857 0.6445 0.9825
C11 C 0.2660(3) 0.6848(3) 0.8024(2)
H8 H 0.2808 0.6561 0.7528
C12 C 0.2791(3) 0.7748(3) 0.8090(2)
H9 H 0.3033 0.8076 0.7643
C13 C 0.2316(2) 0.6351(3) 0.8665(2)
C14 C 0.2149(3) 0.5366(3) 0.8581(3)
H10 H 0.2499 0.5139 0.8100
H11 H 0.2400 0.5053 0.9063
C15 C 0.0544(3) 0.4924(3) 0.9119(2)
H12 H 0.0865 0.4737 0.9598
C16 C -0.0455(3) 0.4897(3) 0.9080(2)
H13 H -0.0824 0.4694 0.9530
C17 C -0.0922(2) 0.5166(2) 0.8384(2)
C18 C -0.0343(3) 0.5411(3) 0.7735(2)
H14 H -0.0639 0.5566 0.7236
C19 C 0.0640(3) 0.5430(3) 0.7804(2)
H15 H 0.1027 0.5604 0.7355
C20 C -0.2004(3) 0.5253(2) 0.83610(19)
C21 C -0.2415(3) 0.6011(3) 0.8048(3)
H16 H -0.2010 0.6461 0.7828
C22 C -0.3413(3) 0.6119(3) 0.8054(2)
H17 H -0.3694 0.6645 0.7840
C23 C -0.3602(3) 0.4723(3) 0.8651(2)
H18 H -0.4020 0.4267 0.8845
C24 C -0.2610(3) 0.4606(3) 0.8666(2)
H19 H -0.2341 0.4078 0.8886
C25 C -0.5072(3) 0.5606(3) 0.8399(2)
H20 H -0.5400 0.5037 0.8273
H21 H -0.5279 0.6051 0.7994
C26 C -0.5364(3) 0.5911(3) 0.9232(2)
C27 C -0.5218(3) 0.6786(3) 0.9471(3)
H22 H -0.4948 0.7203 0.9104
C28 C -0.5468(3) 0.7048(3) 1.0245(2)
H23 H -0.5379 0.7651 1.0397
C29 C -0.5847(2) 0.6452(3) 1.0806(2)
C30 C -0.6012(3) 0.5595(3) 1.0552(2)
H24 H -0.6301 0.5179 1.0911
C31 C -0.5757(3) 0.5332(3) 0.9771(2)
H25 H -0.5861 0.4733 0.9613
C32 C -0.6019(3) 0.6715(2) 1.1662(2)
C33 C -0.5234(3) 0.7105(3) 1.2074(3)
H26 H -0.4645 0.7225 1.1792
C34 C -0.5305(4) 0.7318(3) 1.2883(3)
H27 H -0.4762 0.7565 1.3159
C35 C -0.6173(4) 0.7169(3) 1.3288(3)
H28 H -0.6228 0.7325 1.3842
C36 C -0.6945(4) 0.6803(3) 1.2899(3)
H29 H -0.7535 0.6705 1.3187
C37 C -0.6893(3) 0.6568(2) 1.2088(2)
C38 C -0.7779(3) 0.6139(3) 1.1713(2)
O2 O -0.8782(8) 0.4075(5) 1.0835(6)
O4 O 0.4633(5) 0.2507(4) 0.7898(3)
O6 O 1.0331(14) 0.2132(10) 1.0467(10)
Cl2? Cl 0.8858(4) 0.2027(2) 0.9689(3)
loop_
_geom_bond_atom_site_label_1
_geom_bond_atom_site_label_2
_geom_bond_site_symmetry_1
_geom_bond_site_symmetry_2
Cl1 O8 1_555 1_555
O1 H1 1_555 1_555
O3 C1 1_555 1_555
O5 C38 1_555 1_555
O7 C38 1_555 1_555
O9 Cl1 1_555 1_555
O10 Cl1 1_555 1_555
O11 Cl1 1_555 1_555
N1 C14 1_555 1_555
N2 C22 1_555 1_555
C1 O1 1_555 1_555
C2 C1 1_555 1_555
C3 C2 1_555 1_555
H2 C3 1_555 1_555
C4 C3 1_555 1_555
H3 C4 1_555 1_555
C5 C4 1_555 1_555
H4 C5 1_555 1_555
C6 C5 1_555 1_555
H5 C6 1_555 1_555
C7 C2 1_555 1_555
C8 C7 1_555 1_555
C9 C8 1_555 1_555
H6 C9 1_555 1_555
C10 C9 1_555 1_555
H7 C10 1_555 1_555
C11 H8 1_555 1_555
C12 C8 1_555 1_555
H9 C12 1_555 1_555
C13 C10 1_555 1_555
C14 C13 1_555 1_555
H10 C14 1_555 1_555
H11 C14 1_555 1_555
C15 N1 1_555 1_555
H12 C15 1_555 1_555
C16 C15 1_555 1_555
H13 C16 1_555 1_555
C17 C16 1_555 1_555
C18 C17 1_555 1_555
H14 C18 1_555 1_555
C19 N1 1_555 1_555
H15 C19 1_555 1_555
C20 C17 1_555 1_555
C21 C20 1_555 1_555
H16 C21 1_555 1_555
C22 C21 1_555 1_555
H17 C22 1_555 1_555
C23 N2 1_555 1_555
H18 C23 1_555 1_555
C24 C20 1_555 1_555
H19 C24 1_555 1_555
C25 N2 1_555 1_555
H20 C25 1_555 1_555
H21 C25 1_555 1_555
C26 C25 1_555 1_555
C27 C26 1_555 1_555
H22 C27 1_555 1_555
C28 C27 1_555 1_555
H23 C28 1_555 1_555
C29 C28 1_555 1_555
C30 C29 1_555 1_555
H24 C30 1_555 1_555
C31 C26 1_555 1_555
H25 C31 1_555 1_555
C32 C29 1_555 1_555
C33 C32 1_555 1_555
H26 C33 1_555 1_555
C34 C33 1_555 1_555
H27 C34 1_555 1_555
C35 C34 1_555 1_555
H28 C35 1_555 1_555
C36 C35 1_555 1_555
H29 C36 1_555 1_555
C37 C32 1_555 1_555
C38 C37 1_555 1_555
C6 C7 1_555 1_555
C11 C12 1_555 1_555
C11 C13 1_555 1_555
C18 C19 1_555 1_555
C23 C24 1_555 1_555
C30 C31 1_555 1_555
C36 C37 1_555 1_555

#END
