
#######################################################################
#
#                 Cambridge Crystallographic Data Centre
#                                CCDC 
#
#######################################################################
#
# If this CIF has been generated from an entry in the Cambridge 
# Structural Database, then it will include bibliographic, chemical, 
# crystal, experimental, refinement or atomic coordinate data resulting 
# from the CCDC's data processing and validation procedures.
#
#######################################################################

data_EKUPOQ
_chemical_formula_moiety         'C30 H50 O2'
_chemical_name_systematic        3\a-Urs-12-ene-3,23-diol
_symmetry_cell_setting           orthorhombic
_symmetry_space_group_name_H-M   'P 21 21 21'
_symmetry_Int_Tables_number      19
_space_group_name_Hall           'P 2ac 2ab'
loop_
_symmetry_equiv_pos_site_id
_symmetry_equiv_pos_as_xyz
1 x,y,z
2 1/2+x,1/2-y,-z
3 -x,1/2+y,1/2-z
4 1/2-x,-y,1/2+z
_cell_length_a                   9.2554(7)
_cell_length_b                   12.8342(9)
_cell_length_c                   23.016(2)
_cell_angle_alpha                90
_cell_angle_beta                 90
_cell_angle_gamma                90
_cell_volume                     2733.97
_exptl_crystal_colour            colorless
_exptl_crystal_description       prism
_cell_formula_units_Z            4
loop_
_atom_site_label
_atom_site_type_symbol
_atom_site_fract_x
_atom_site_fract_y
_atom_site_fract_z
O1 O -0.2014(3) -0.2503(2) 0.52714(10)
H1 H -0.277(5) -0.217(3) 0.5155(19)
O2 O 0.0448(3) -0.3436(2) 0.50613(10)
H2 H -0.026(5) -0.309(3) 0.4958(19)
C1 C -0.1819(4) -0.1046(3) 0.62886(15)
H3 H -0.2278 -0.0539 0.6556
H4 H -0.1754 -0.0715 0.5901
C2 C -0.2780(4) -0.2012(3) 0.62448(16)
H5 H -0.2948 -0.2294 0.6639
H6 H -0.3728 -0.1809 0.6081
C3 C -0.2119(4) -0.2856(3) 0.58677(14)
H7 H -0.2759 -0.3483 0.5880
C4 C -0.0591(4) -0.3178(3) 0.60638(14)
C5 C 0.0364(4) -0.2186(3) 0.61348(14)
H8 H 0.0434 -0.1888 0.5734
C6 C 0.1937(4) -0.2408(3) 0.63110(15)
H9 H 0.1980 -0.2579 0.6730
H10 H 0.2304 -0.3016 0.6091
C7 C 0.2888(4) -0.1457(3) 0.61869(16)
H11 H 0.2947 -0.1359 0.5761
H12 H 0.3877 -0.1604 0.6329
C8 C 0.2359(4) -0.0426(3) 0.64651(15)
C9 C 0.0692(4) -0.0304(3) 0.63800(14)
H13 H 0.0565 -0.0173 0.5955
C10 C -0.0266(4) -0.1287(3) 0.65097(14)
C11 C 0.0161(4) 0.0702(3) 0.66775(16)
H14 H -0.0748 0.0927 0.6489
H15 H -0.0060 0.0545 0.7089
C12 C 0.1220(5) 0.1581(3) 0.66552(15)
H16 H 0.0909 0.2226 0.6813
C13 C 0.2556(4) 0.1555(3) 0.64367(14)
C14 C 0.3116(4) 0.0547(3) 0.61581(14)
C15 C 0.4797(4) 0.0445(3) 0.61966(17)
H17 H 0.5052 0.0138 0.6578
H18 H 0.5128 -0.0043 0.5891
C16 C 0.5614(4) 0.1484(3) 0.61258(17)
H19 H 0.5535 0.1725 0.5718
H20 H 0.6650 0.1378 0.6215
C17 C 0.0068(4) -0.3916(3) 0.56046(15)
H21 H 0.0946 -0.4239 0.5771
H22 H -0.0632 -0.4482 0.5526
C18 C -0.0715(4) -0.3858(3) 0.66190(16)
H23 H -0.1153 -0.4530 0.6519
H24 H -0.1321 -0.3501 0.6906
H25 H 0.0249 -0.3974 0.6782
C19 C -0.0386(4) -0.1547(3) 0.71668(14)
H26 H 0.0434 -0.1983 0.7283
H27 H -0.1290 -0.1922 0.7240
H28 H -0.0377 -0.0899 0.7392
C20 C 0.2751(4) -0.0464(3) 0.71161(14)
H29 H 0.2331 -0.1090 0.7292
H30 H 0.2366 0.0156 0.7311
H31 H 0.3804 -0.0481 0.7159
C21 C 0.2750(4) 0.0610(3) 0.54977(14)
H32 H 0.3424 0.1087 0.5306
H33 H 0.1760 0.0866 0.5448
H34 H 0.2835 -0.0085 0.5324
C22 C 0.4985(18) 0.2322(12) 0.6536(8)
C23 C 0.339(2) 0.2575(11) 0.6383(8)
H35 H 0.3024 0.3045 0.6696
C24 C 0.3117(10) 0.3149(9) 0.5795(4)
H36 H 0.3473 0.2685 0.5477
C25 C 0.4017(11) 0.4158(8) 0.5775(4)
H37 H 0.3647 0.4625 0.6089
C26 C 0.5630(15) 0.3967(16) 0.5896(9)
H38 H 0.6059 0.3568 0.5571
H39 H 0.6140 0.4643 0.5923
C27 C 0.5830(12) 0.3360(15) 0.6464(8)
H40 H 0.5554 0.3825 0.6789
H41 H 0.6872 0.3205 0.6508
C28 C 0.5333(19) 0.1925(18) 0.7165(9)
H42 H 0.5201 0.2496 0.7442
H43 H 0.6335 0.1680 0.7181
H44 H 0.4680 0.1351 0.7264
C29 C 0.1497(6) 0.3355(5) 0.5684(3)
H45 H 0.1110 0.3798 0.5994
H46 H 0.0974 0.2691 0.5678
H47 H 0.1379 0.3706 0.5309
C30 C 0.380(2) 0.4732(13) 0.5192(6)
H48 H 0.3987 0.4251 0.4870
H49 H 0.4471 0.5322 0.5168
H50 H 0.2805 0.4989 0.5167
C31? C 0.520(4) 0.236(2) 0.6552(16)
C32? C 0.356(4) 0.249(2) 0.6463(16)
H51? H 0.3227 0.2891 0.6809
C33? C 0.341(3) 0.3252(19) 0.5949(9)
H52? H 0.3572 0.2849 0.5588
H53? H 0.2391 0.3489 0.5941
C34? C 0.437(3) 0.4230(17) 0.5917(9)
C35? C 0.592(3) 0.380(4) 0.5903(18)
H54? H 0.6014 0.3289 0.5583
H55? H 0.6608 0.4376 0.5829
C36? C 0.629(3) 0.327(3) 0.6483(18)
H56? H 0.6199 0.3770 0.6808
H57? H 0.7296 0.3002 0.6476
C37? C 0.499(4) 0.210(4) 0.7205(18)
H58? H 0.4452 0.2669 0.7393
H59? H 0.5934 0.2026 0.7392
H60? H 0.4445 0.1452 0.7242
C38? C 0.4021(16) 0.4975(9) 0.6418(5)
H61? H 0.3005 0.5186 0.6395
H62? H 0.4638 0.5594 0.6391
H63? H 0.4197 0.4624 0.6790
C39? C 0.409(3) 0.484(3) 0.5350(11)
H64? H 0.3107 0.5127 0.5357
H65? H 0.4194 0.4373 0.5017
H66? H 0.4788 0.5412 0.5318
loop_
_geom_bond_atom_site_label_1
_geom_bond_atom_site_label_2
_geom_bond_site_symmetry_1
_geom_bond_site_symmetry_2
O1 H1 1_555 1_555
O2 H2 1_555 1_555
C1 H3 1_555 1_555
H4 C1 1_555 1_555
C2 C1 1_555 1_555
H5 C2 1_555 1_555
H6 C2 1_555 1_555
C3 O1 1_555 1_555
H7 C3 1_555 1_555
C4 C3 1_555 1_555
C5 C4 1_555 1_555
H8 C5 1_555 1_555
C6 C5 1_555 1_555
H9 C6 1_555 1_555
H10 C6 1_555 1_555
C7 C6 1_555 1_555
H11 C7 1_555 1_555
H12 C7 1_555 1_555
C8 C7 1_555 1_555
C9 C8 1_555 1_555
H13 C9 1_555 1_555
C10 C1 1_555 1_555
C11 C9 1_555 1_555
H14 C11 1_555 1_555
H15 C11 1_555 1_555
C12 C11 1_555 1_555
H16 C12 1_555 1_555
C13 C12 1_555 1_555
C14 C8 1_555 1_555
C15 C14 1_555 1_555
H17 C15 1_555 1_555
H18 C15 1_555 1_555
C16 C15 1_555 1_555
H19 C16 1_555 1_555
H20 C16 1_555 1_555
C17 O2 1_555 1_555
H21 C17 1_555 1_555
H22 C17 1_555 1_555
C18 C4 1_555 1_555
H23 C18 1_555 1_555
H24 C18 1_555 1_555
H25 C18 1_555 1_555
C19 C10 1_555 1_555
H26 C19 1_555 1_555
H27 C19 1_555 1_555
H28 C19 1_555 1_555
C20 C8 1_555 1_555
H29 C20 1_555 1_555
H30 C20 1_555 1_555
H31 C20 1_555 1_555
C21 C14 1_555 1_555
H32 C21 1_555 1_555
H33 C21 1_555 1_555
H34 C21 1_555 1_555
C22 C16 1_555 1_555
C23 C13 1_555 1_555
H35 C23 1_555 1_555
C24 C23 1_555 1_555
H36 C24 1_555 1_555
C25 C24 1_555 1_555
H37 C25 1_555 1_555
C26 C25 1_555 1_555
H38 C26 1_555 1_555
H39 C26 1_555 1_555
C27 C22 1_555 1_555
H40 C27 1_555 1_555
H41 C27 1_555 1_555
C28 C22 1_555 1_555
H42 C28 1_555 1_555
H43 C28 1_555 1_555
H44 C28 1_555 1_555
C29 C24 1_555 1_555
H45 C29 1_555 1_555
H46 C29 1_555 1_555
H47 C29 1_555 1_555
C30 C25 1_555 1_555
H48 C30 1_555 1_555
H49 C30 1_555 1_555
H50 C30 1_555 1_555
C2 C3 1_555 1_555
C4 C17 1_555 1_555
C5 C10 1_555 1_555
C9 C10 1_555 1_555
C13 C14 1_555 1_555
C22 C23 1_555 1_555
C26 C27 1_555 1_555

#END
