
#######################################################################
#
#                 Cambridge Crystallographic Data Centre
#                                CCDC 
#
#######################################################################
#
# If this CIF has been generated from an entry in the Cambridge 
# Structural Database, then it will include bibliographic, chemical, 
# crystal, experimental, refinement or atomic coordinate data resulting 
# from the CCDC's data processing and validation procedures.
#
#######################################################################

data_EKUXIS
_chemical_formula_moiety         'C26 H25 N1 O2 S1'
_chemical_name_systematic        
2-((4-Methylphenyl)sulfonyl)-5,6-diphenyl-1,2,3,3a,4,6a-hexahydrocyclopenta[c]pyrrole
_symmetry_cell_setting           monoclinic
_symmetry_space_group_name_H-M   'P 21/c'
_symmetry_Int_Tables_number      14
_space_group_name_Hall           '-P 2ybc'
loop_
_symmetry_equiv_pos_site_id
_symmetry_equiv_pos_as_xyz
1 x,y,z
2 -x,1/2+y,1/2-z
3 -x,-y,-z
4 x,1/2-y,1/2+z
_cell_length_a                   24.460(5)
_cell_length_b                   7.3613(15)
_cell_length_c                   12.014(2)
_cell_angle_alpha                90
_cell_angle_beta                 92.99(3)
_cell_angle_gamma                90
_cell_volume                     2160.26
_cell_formula_units_Z            4
loop_
_atom_site_label
_atom_site_type_symbol
_atom_site_fract_x
_atom_site_fract_y
_atom_site_fract_z
C1 C 0.29739(9) 0.4129(3) 0.41870(19)
H1 H 0.3320 0.4004 0.4612
H2 H 0.2766 0.3014 0.4243
C2 C 0.26490(9) 0.5775(3) 0.45814(19)
H3 H 0.2745 0.6047 0.5366
C3 C 0.20308(8) 0.5608(3) 0.43822(18)
C4 C 0.18187(9) 0.6975(3) 0.37657(19)
C5 C 0.22625(9) 0.8237(4) 0.3410(2)
H4 H 0.2220 0.9430 0.3737
H5 H 0.2247 0.8360 0.2606
C6 C 0.28017(9) 0.7396(3) 0.3820(2)
H6 H 0.3022 0.8287 0.4252
C7 C 0.31367(11) 0.6564(4) 0.2920(2)
H7 H 0.3008 0.6993 0.2189
H8 H 0.3521 0.6877 0.3039
C8 C 0.40931(9) 0.3206(3) 0.29671(19)
C9 C 0.45050(10) 0.4260(3) 0.2568(2)
H9 H 0.4435 0.4987 0.1944
C10 C 0.50225(10) 0.4243(4) 0.3092(2)
H10 H 0.5299 0.4935 0.2801
C11 C 0.51365(10) 0.3217(4) 0.4040(2)
C12 C 0.57035(9) 0.3217(4) 0.4600(2)
H11 H 0.5812 0.1991 0.4773
H12 H 0.5702 0.3915 0.5275
H13 H 0.5957 0.3744 0.4109
C13 C 0.47163(11) 0.2205(3) 0.4447(2)
H14 H 0.4781 0.1527 0.5094
C14 C 0.42004(10) 0.2175(3) 0.3915(2)
H15 H 0.3926 0.1462 0.4196
C15 C 0.17650(9) 0.4007(3) 0.48578(19)
C16 C 0.19615(10) 0.3246(4) 0.5860(2)
H16 H 0.2262 0.3771 0.6240
C17 C 0.17198(12) 0.1722(4) 0.6306(2)
H17 H 0.1858 0.1242 0.6979
C18 C 0.12754(12) 0.0924(4) 0.5754(3)
H18 H 0.1109 -0.0083 0.6059
C19 C 0.10783(10) 0.1619(4) 0.4751(2)
H19 H 0.0782 0.1071 0.4370
C20 C 0.13225(9) 0.3146(3) 0.43047(19)
H20 H 0.1187 0.3600 0.3623
C21 C 0.12395(9) 0.7417(3) 0.3489(2)
C22 C 0.08292(9) 0.7044(3) 0.4218(2)
H21 H 0.0919 0.6447 0.4885
C23 C 0.02913(10) 0.7542(3) 0.3973(2)
H22 H 0.0025 0.7287 0.4475
C24 C 0.01509(11) 0.8417(4) 0.2986(3)
H23 H -0.0211 0.8741 0.2815
C25 C 0.05499(12) 0.8809(4) 0.2252(2)
H24 H 0.0458 0.9412 0.1588
C26 C 0.10864(10) 0.8305(3) 0.2501(2)
H25 H 0.1351 0.8567 0.1997
N1 N 0.30580(7) 0.4598(3) 0.30128(16)
O1 O 0.34741(7) 0.4019(3) 0.12235(14)
O2 O 0.32139(7) 0.1410(3) 0.24242(15)
S1 S 0.34324(3) 0.32069(12) 0.23075(6)
loop_
_geom_bond_atom_site_label_1
_geom_bond_atom_site_label_2
_geom_bond_site_symmetry_1
_geom_bond_site_symmetry_2
C1 H1 1_555 1_555
H2 C1 1_555 1_555
C2 C1 1_555 1_555
H3 C2 1_555 1_555
C3 C2 1_555 1_555
C4 C3 1_555 1_555
C5 C4 1_555 1_555
H4 C5 1_555 1_555
H5 C5 1_555 1_555
C6 C2 1_555 1_555
H6 C6 1_555 1_555
C7 C6 1_555 1_555
H7 C7 1_555 1_555
H8 C7 1_555 1_555
C8 C9 1_555 1_555
C9 H9 1_555 1_555
C10 C9 1_555 1_555
H10 C10 1_555 1_555
C11 C10 1_555 1_555
C12 C11 1_555 1_555
H11 C12 1_555 1_555
H12 C12 1_555 1_555
H13 C12 1_555 1_555
C13 C11 1_555 1_555
H14 C13 1_555 1_555
C14 C8 1_555 1_555
H15 C14 1_555 1_555
C15 C3 1_555 1_555
C16 C15 1_555 1_555
H16 C16 1_555 1_555
C17 C16 1_555 1_555
H17 C17 1_555 1_555
C18 C17 1_555 1_555
H18 C18 1_555 1_555
C19 C18 1_555 1_555
H19 C19 1_555 1_555
C20 C15 1_555 1_555
H20 C20 1_555 1_555
C21 C4 1_555 1_555
C22 C21 1_555 1_555
H21 C22 1_555 1_555
C23 C22 1_555 1_555
H22 C23 1_555 1_555
C24 C23 1_555 1_555
H23 C24 1_555 1_555
C25 C24 1_555 1_555
H24 C25 1_555 1_555
C26 C21 1_555 1_555
H25 C26 1_555 1_555
N1 C1 1_555 1_555
O1 S1 1_555 1_555
O2 S1 1_555 1_555
S1 C8 1_555 1_555
C5 C6 1_555 1_555
C7 N1 1_555 1_555
C13 C14 1_555 1_555
C19 C20 1_555 1_555
C25 C26 1_555 1_555
N1 S1 1_555 1_555

#END
