
#######################################################################
#
#                 Cambridge Crystallographic Data Centre
#                                CCDC 
#
#######################################################################
#
# If this CIF has been generated from an entry in the Cambridge 
# Structural Database, then it will include bibliographic, chemical, 
# crystal, experimental, refinement or atomic coordinate data resulting 
# from the CCDC's data processing and validation procedures.
#
#######################################################################

data_EKUXOY
_chemical_formula_moiety         'C30 H29 N1 O3 S1'
_chemical_name_systematic        
1-((4-Methylphenyl)sulfonyl)-3,4-diphenyl-2,2a,5a,6,7,8,8a,8b-octahydrobenzo[cd]indol-5(1H)-one
_symmetry_cell_setting           monoclinic
_symmetry_space_group_name_H-M   'C 2/c'
_symmetry_Int_Tables_number      15
_space_group_name_Hall           '-C 2yn'
loop_
_symmetry_equiv_pos_site_id
_symmetry_equiv_pos_as_xyz
1 x,y,z
2 -x,y,1/2-z
3 1/2+x,1/2+y,z
4 1/2-x,1/2+y,1/2-z
5 -x,-y,-z
6 x,-y,1/2+z
7 1/2-x,1/2-y,-z
8 1/2+x,1/2-y,1/2+z
_cell_length_a                   21.763(4)
_cell_length_b                   10.484(2)
_cell_length_c                   23.818(5)
_cell_angle_alpha                90
_cell_angle_beta                 111.79(3)
_cell_angle_gamma                90
_cell_volume                     5046.11
_cell_formula_units_Z            8
loop_
_atom_site_label
_atom_site_type_symbol
_atom_site_fract_x
_atom_site_fract_y
_atom_site_fract_z
C1 C 0.12583(10) 0.40969(19) 0.78543(9)
C2 C 0.13088(9) 0.54362(18) 0.76543(9)
C3 C 0.15882(9) 0.63768(17) 0.80576(9)
C4 C 0.18667(9) 0.60529(17) 0.87266(8)
H1 H 0.1502 0.6121 0.8885
C5 C 0.21323(9) 0.46924(17) 0.88243(8)
H2 H 0.2485 0.4630 0.8650
C6 C 0.24635(9) 0.68211(18) 0.91439(8)
H3 H 0.2779 0.7013 0.8944
H4 H 0.2322 0.7629 0.9275
N1 N 0.27595(7) 0.59190(14) 0.96658(6)
C7 C 0.24666(9) 0.46121(17) 0.95080(9)
H5 H 0.2824 0.3951 0.9624
C8 C 0.19734(9) 0.43443(17) 0.98201(9)
H6 H 0.2220 0.4123 1.0249
H7 H 0.1711 0.5123 0.9808
C9 C 0.15044(9) 0.32430(18) 0.95073(9)
H8 H 0.1764 0.2450 0.9546
H9 H 0.1187 0.3104 0.9710
C10 C 0.11224(9) 0.35296(18) 0.88363(9)
H10 H 0.0854 0.4312 0.8796
H11 H 0.0818 0.2815 0.8648
C11 C 0.16086(9) 0.37146(18) 0.85098(8)
H12 H 0.1836 0.2882 0.8518
C12 C 0.09912(10) 0.56519(17) 0.69882(9)
C13 C 0.13098(11) 0.52744(19) 0.66056(10)
H13 H 0.1736 0.4893 0.6771
C14 C 0.10113(14) 0.5450(2) 0.59846(11)
H14 H 0.1240 0.5217 0.5729
C15 C 0.03858(13) 0.5961(2) 0.57398(11)
H15 H 0.0179 0.6071 0.5315
C16 C 0.00589(11) 0.6313(2) 0.61157(11)
H16 H -0.0375 0.6656 0.5947
C17 C 0.03629(10) 0.61669(19) 0.67396(10)
H17 H 0.0138 0.6422 0.6995
C18 C 0.16282(9) 0.77536(17) 0.79024(9)
C19 C 0.14749(9) 0.86995(17) 0.82462(9)
H18 H 0.1332 0.8457 0.8562
C20 C 0.15284(9) 0.99766(18) 0.81319(9)
H19 H 0.1418 1.0604 0.8367
C21 C 0.17424(10) 1.03479(19) 0.76750(10)
H20 H 0.1778 1.1227 0.7595
C22 C 0.19036(10) 0.94255(19) 0.73359(10)
H21 H 0.2055 0.9675 0.7026
C23 C 0.18463(9) 0.8142(2) 0.74463(9)
H22 H 0.1956 0.7519 0.7209
C24 C 0.39849(9) 0.58849(18) 0.95893(8)
C25 C 0.41528(9) 0.46716(18) 0.94699(9)
H23 H 0.4065 0.3950 0.9670
C26 C 0.44534(10) 0.45318(19) 0.90513(9)
H24 H 0.4579 0.3704 0.8972
C27 C 0.45744(9) 0.5566(2) 0.87465(9)
C28 C 0.44050(9) 0.6781(2) 0.88804(9)
H25 H 0.4493 0.7504 0.8682
C29 C 0.41107(9) 0.69415(19) 0.92993(9)
H26 H 0.3995 0.7771 0.9388
C30 C 0.48917(10) 0.5382(2) 0.82795(9)
H27 H 0.4791 0.6118 0.8007
H28 H 0.4716 0.4606 0.8046
H29 H 0.5372 0.5304 0.8486
O1 O 0.09238(7) 0.33079(13) 0.74883(6)
O2 O 0.37071(6) 0.50639(12) 1.05112(6)
O3 O 0.36269(6) 0.74033(12) 1.02754(6)
S1 S 0.35399(3) 0.60867(5) 1.00740(2)
loop_
_geom_bond_atom_site_label_1
_geom_bond_atom_site_label_2
_geom_bond_site_symmetry_1
_geom_bond_site_symmetry_2
C1 C2 1_555 1_555
C2 C3 1_555 1_555
C3 C4 1_555 1_555
C4 H1 1_555 1_555
C5 C4 1_555 1_555
H2 C5 1_555 1_555
C6 C4 1_555 1_555
H3 C6 1_555 1_555
H4 C6 1_555 1_555
N1 C6 1_555 1_555
C7 C5 1_555 1_555
H5 C7 1_555 1_555
C8 C7 1_555 1_555
H6 C8 1_555 1_555
H7 C8 1_555 1_555
C9 C8 1_555 1_555
H8 C9 1_555 1_555
H9 C9 1_555 1_555
C10 C9 1_555 1_555
H10 C10 1_555 1_555
H11 C10 1_555 1_555
C11 C1 1_555 1_555
H12 C11 1_555 1_555
C12 C2 1_555 1_555
C13 C12 1_555 1_555
H13 C13 1_555 1_555
C14 C13 1_555 1_555
H14 C14 1_555 1_555
C15 C14 1_555 1_555
H15 C15 1_555 1_555
C16 C15 1_555 1_555
H16 C16 1_555 1_555
C17 C12 1_555 1_555
H17 C17 1_555 1_555
C18 C3 1_555 1_555
C19 C18 1_555 1_555
H18 C19 1_555 1_555
C20 C19 1_555 1_555
H19 C20 1_555 1_555
C21 C20 1_555 1_555
H20 C21 1_555 1_555
C22 C21 1_555 1_555
H21 C22 1_555 1_555
C23 C18 1_555 1_555
H22 C23 1_555 1_555
C24 C25 1_555 1_555
C25 H23 1_555 1_555
C26 C25 1_555 1_555
H24 C26 1_555 1_555
C27 C26 1_555 1_555
C28 C27 1_555 1_555
H25 C28 1_555 1_555
C29 C24 1_555 1_555
H26 C29 1_555 1_555
C30 C27 1_555 1_555
H27 C30 1_555 1_555
H28 C30 1_555 1_555
H29 C30 1_555 1_555
O1 C1 1_555 1_555
O2 S1 1_555 1_555
O3 S1 1_555 1_555
S1 N1 1_555 1_555
C5 C11 1_555 1_555
N1 C7 1_555 1_555
C10 C11 1_555 1_555
C16 C17 1_555 1_555
C22 C23 1_555 1_555
C24 S1 1_555 1_555
C28 C29 1_555 1_555

#END
