
#######################################################################
#
#                 Cambridge Crystallographic Data Centre
#                                CCDC 
#
#######################################################################
#
# If this CIF has been generated from an entry in the Cambridge 
# Structural Database, then it will include bibliographic, chemical, 
# crystal, experimental, refinement or atomic coordinate data resulting 
# from the CCDC's data processing and validation procedures.
#
#######################################################################

data_EKUYIT
_chemical_formula_moiety         'C20 H19 O3 P1'
_chemical_name_systematic        'bis(2-methoxyphenyl)(phenyl)phosphine oxide'
_symmetry_cell_setting           monoclinic
_symmetry_space_group_name_H-M   'P 21/c'
_symmetry_Int_Tables_number      14
_space_group_name_Hall           '-P 2ybc'
loop_
_symmetry_equiv_pos_site_id
_symmetry_equiv_pos_as_xyz
1 x,y,z
2 -x,1/2+y,1/2-z
3 -x,-y,-z
4 x,1/2-y,1/2+z
_cell_length_a                   9.336(2)
_cell_length_b                   12.036(3)
_cell_length_c                   15.354(4)
_cell_angle_alpha                90
_cell_angle_beta                 101.625(4)
_cell_angle_gamma                90
_cell_volume                     1689.91
_exptl_crystal_colour            colorless
_exptl_crystal_description       rhombohedral
_cell_formula_units_Z            4
loop_
_atom_site_label
_atom_site_type_symbol
_atom_site_fract_x
_atom_site_fract_y
_atom_site_fract_z
P1 P 0.79813(5) 0.78240(4) 0.06506(3)
O1 O 0.77731(16) 0.88380(11) 0.11644(8)
O2 O 0.78226(15) 0.63543(11) -0.09952(8)
O3 O 0.97103(15) 0.68994(13) 0.22729(8)
C1 C 0.67687(19) 0.78888(15) -0.04310(11)
C2 C 0.6843(2) 0.72057(14) -0.11589(11)
C3 C 0.5934(2) 0.74001(17) -0.19797(12)
H1 H 0.6007 0.6949 -0.2476
C4 C 0.4927(2) 0.82491(19) -0.20701(13)
H2 H 0.4303 0.8373 -0.2632
C5 C 0.4805(2) 0.89234(18) -0.13617(14)
H3 H 0.4096 0.9500 -0.1429
C6 C 0.5734(2) 0.87437(16) -0.05515(13)
H4 H 0.5668 0.9214 -0.0064
C7 C 0.8117(3) 0.57484(18) -0.17393(13)
H5 H 0.7261 0.5300 -0.1999
H6 H 0.8960 0.5260 -0.1544
H7 H 0.8333 0.6269 -0.2186
C8 C 0.76149(19) 0.65501(15) 0.11791(11)
C9 C 0.8553(2) 0.62235(17) 0.19791(12)
C10 C 0.8272(3) 0.52589(19) 0.24090(14)
H8 H 0.8925 0.5020 0.2933
C11 C 0.7028(3) 0.46461(19) 0.20671(15)
H9 H 0.6832 0.3987 0.2363
C12 C 0.6073(2) 0.49731(19) 0.13074(14)
H10 H 0.5210 0.4557 0.1089
C13 C 0.6386(2) 0.59176(17) 0.08642(12)
H11 H 0.5740 0.6135 0.0331
C14 C 1.0628(3) 0.6666(2) 0.31193(13)
H12 H 1.0033 0.6645 0.3577
H13 H 1.1372 0.7249 0.3265
H14 H 1.1108 0.5946 0.3095
C15 C 0.9838(2) 0.77127(15) 0.04836(11)
C16 C 1.0652(2) 0.86689(18) 0.05212(13)
H15 H 1.0222 0.9365 0.0608
C17 C 1.2101(3) 0.8622(2) 0.04325(16)
H16 H 1.2655 0.9287 0.0452
C18 C 1.2734(3) 0.7627(2) 0.03178(19)
H17 H 1.3732 0.7601 0.0270
C19 C 1.1938(2) 0.6660(2) 0.02708(15)
H18 H 1.2379 0.5969 0.0182
C20 C 1.0499(2) 0.66983(17) 0.03529(13)
H19 H 0.9948 0.6031 0.0321
loop_
_geom_bond_atom_site_label_1
_geom_bond_atom_site_label_2
_geom_bond_site_symmetry_1
_geom_bond_site_symmetry_2
P1 O1 1_555 1_555
O2 C2 1_555 1_555
O3 C9 1_555 1_555
C1 P1 1_555 1_555
C2 C1 1_555 1_555
C3 C2 1_555 1_555
H1 C3 1_555 1_555
C4 C3 1_555 1_555
H2 C4 1_555 1_555
C5 C4 1_555 1_555
H3 C5 1_555 1_555
C6 C1 1_555 1_555
H4 C6 1_555 1_555
C7 O2 1_555 1_555
H5 C7 1_555 1_555
H6 C7 1_555 1_555
H7 C7 1_555 1_555
C8 P1 1_555 1_555
C9 C8 1_555 1_555
C10 C9 1_555 1_555
H8 C10 1_555 1_555
C11 C10 1_555 1_555
H9 C11 1_555 1_555
C12 C11 1_555 1_555
H10 C12 1_555 1_555
C13 C8 1_555 1_555
H11 C13 1_555 1_555
C14 O3 1_555 1_555
H12 C14 1_555 1_555
H13 C14 1_555 1_555
H14 C14 1_555 1_555
C15 P1 1_555 1_555
C16 C15 1_555 1_555
H15 C16 1_555 1_555
C17 C16 1_555 1_555
H16 C17 1_555 1_555
C18 C17 1_555 1_555
H17 C18 1_555 1_555
C19 C18 1_555 1_555
H18 C19 1_555 1_555
C20 C15 1_555 1_555
H19 C20 1_555 1_555
C5 C6 1_555 1_555
C12 C13 1_555 1_555
C19 C20 1_555 1_555

#END
