
#######################################################################
#
#                 Cambridge Crystallographic Data Centre
#                                CCDC 
#
#######################################################################
#
# If this CIF has been generated from an entry in the Cambridge 
# Structural Database, then it will include bibliographic, chemical, 
# crystal, experimental, refinement or atomic coordinate data resulting 
# from the CCDC's data processing and validation procedures.
#
#######################################################################

data_EKUYEQ
_chemical_formula_moiety         'C33 H18 B1 F2 N3 O3'
_chemical_name_systematic        
(S)-21,21-difluoro-21H,23H-20,21-dinaphtho[1',2':7,8;2'',1'':5,6][1,4]dioxocino[2,3-f]pyrido[1',2':3,4][1,3,5,2]triazaborinino[6,1-a]isoindol-23-one
_symmetry_cell_setting           orthorhombic
_symmetry_space_group_name_H-M   'P 21 21 21'
_symmetry_Int_Tables_number      19
_space_group_name_Hall           'P 2ac 2ab'
loop_
_symmetry_equiv_pos_site_id
_symmetry_equiv_pos_as_xyz
1 x,y,z
2 1/2-x,-y,1/2+z
3 -x,1/2+y,1/2-z
4 1/2+x,1/2-y,-z
_cell_length_a                   11.4844(15)
_cell_length_b                   14.5457(16)
_cell_length_c                   15.7575(19)
_cell_angle_alpha                90
_cell_angle_beta                 90
_cell_angle_gamma                90
_cell_volume                     2632.27
_exptl_crystal_colour            colorless
_exptl_crystal_description       block
_cell_formula_units_Z            4
loop_
_atom_site_label
_atom_site_type_symbol
_atom_site_fract_x
_atom_site_fract_y
_atom_site_fract_z
C1 C -0.0359(2) 0.16750(19) 0.32801(15)
C2 C 0.1453(3) 0.13069(19) 0.40041(16)
H1 H 0.2230 0.1127 0.3992
C3 C 0.0821(3) 0.14363(19) 0.32628(16)
C4 C 0.0565(3) 0.19157(19) 0.12403(16)
C5 C 0.0565(3) 0.2627(2) 0.06102(17)
C6 C -0.0355(3) 0.04512(19) 0.06235(17)
C7 C -0.0289(3) 0.1152(2) 0.12599(16)
C8 C 0.0870(3) 0.14589(18) 0.47669(16)
C9 C -0.0275(3) 0.17482(19) 0.47782(16)
C10 C -0.1158(3) -0.02846(19) 0.07371(18)
C11 C -0.0916(3) 0.18466(19) 0.40428(16)
H2 H -0.1695 0.2022 0.4059
C12 C -0.0259(3) 0.3342(2) -0.0644(2)
H3 H -0.0801 0.3345 -0.1082
C13 C 0.2197(3) 0.3352(2) 0.1345(2)
H4 H 0.2746 0.3820 0.1377
C14 C 0.1346(3) 0.1982(2) 0.18912(17)
C15 C -0.1784(3) 0.0359(2) 0.20779(19)
H5 H -0.2250 0.0339 0.2560
C16 C 0.1389(3) 0.3348(2) 0.06657(19)
C17 C -0.1005(3) 0.1085(2) 0.19526(17)
C18 C -0.0582(4) -0.0913(2) -0.0608(2)
H6 H -0.0673 -0.1353 -0.1031
C19 C -0.0267(3) 0.2653(2) -0.00667(17)
H7 H -0.0822 0.2189 -0.0110
C20 C 0.0238(3) -0.0209(2) -0.0715(2)
H8 H 0.0698 -0.0189 -0.1200
C21 C 0.0559(4) 0.4049(3) -0.0584(2)
H9 H 0.0549 0.4523 -0.0980
C22 C -0.1243(3) -0.0964(2) 0.0098(2)
H10 H -0.1759 -0.1451 0.0166
C23 C 0.2188(3) 0.2687(2) 0.19507(19)
H11 H 0.2722 0.2697 0.2394
C24 C -0.1850(3) -0.0316(2) 0.14843(19)
H12 H -0.2356 -0.0807 0.1568
C25 C 0.0357(3) 0.0445(2) -0.01034(18)
H13 H 0.0921 0.0899 -0.0167
C26 C 0.1379(4) 0.4054(3) 0.0051(2)
H14 H 0.1928 0.4523 0.0076
C27 C 0.1272(3) 0.14162(18) 0.56541(16)
C28 C -0.0621(3) 0.19088(19) 0.56769(17)
O1 O -0.10047(17) 0.18031(13) 0.25528(11)
O2 O 0.13996(17) 0.12760(13) 0.25042(11)
O3 O -0.15322(18) 0.21831(15) 0.59585(12)
F1 F -0.02898(19) 0.1129(2) 0.75107(13)
F2 F 0.0239(2) 0.26172(16) 0.74179(12)
B1 B 0.0441(4) 0.1743(3) 0.7129(2)
N1 N 0.0370(2) 0.16917(16) 0.61622(13)
N2 N 0.1743(2) 0.14733(16) 0.73416(14)
N3 N 0.2298(2) 0.11768(17) 0.59024(14)
C29 C 0.2539(3) 0.12024(19) 0.67659(18)
C30 C 0.3928(4) 0.0989(2) 0.7874(2)
H15 H 0.4672 0.0826 0.8052
C31 C 0.3658(3) 0.0958(2) 0.7030(2)
H16 H 0.4214 0.0777 0.6635
C32 C 0.3120(3) 0.1254(3) 0.8457(2)
H17 H 0.3298 0.1260 0.9033
C33 C 0.2046(3) 0.1508(2) 0.81787(18)
H18 H 0.1501 0.1712 0.8572
loop_
_geom_bond_atom_site_label_1
_geom_bond_atom_site_label_2
_geom_bond_site_symmetry_1
_geom_bond_site_symmetry_2
C1 C3 1_555 1_555
C2 H1 1_555 1_555
C3 C2 1_555 1_555
C4 C5 1_555 1_555
C5 C16 1_555 1_555
C6 C7 1_555 1_555
C7 C4 1_555 1_555
C8 C2 1_555 1_555
C9 C8 1_555 1_555
C10 C6 1_555 1_555
C11 C1 1_555 1_555
H2 C11 1_555 1_555
C12 H3 1_555 1_555
C13 H4 1_555 1_555
C14 C4 1_555 1_555
C15 H5 1_555 1_555
C16 C13 1_555 1_555
C17 C7 1_555 1_555
C18 H6 1_555 1_555
C19 C5 1_555 1_555
H7 C19 1_555 1_555
C20 C18 1_555 1_555
H8 C20 1_555 1_555
C21 C12 1_555 1_555
H9 C21 1_555 1_555
C22 C10 1_555 1_555
H10 C22 1_555 1_555
C23 C13 1_555 1_555
H11 C23 1_555 1_555
C24 C10 1_555 1_555
H12 C24 1_555 1_555
C25 C6 1_555 1_555
H13 C25 1_555 1_555
C26 C16 1_555 1_555
H14 C26 1_555 1_555
C27 C8 1_555 1_555
C28 C9 1_555 1_555
O1 C1 1_555 1_555
O2 C3 1_555 1_555
O3 C28 1_555 1_555
F1 B1 1_555 1_555
F2 B1 1_555 1_555
B1 N1 1_555 1_555
N1 C27 1_555 1_555
N2 B1 1_555 1_555
N3 C27 1_555 1_555
C29 N2 1_555 1_555
C30 H15 1_555 1_555
C31 C29 1_555 1_555
H16 C31 1_555 1_555
C32 C30 1_555 1_555
H17 C32 1_555 1_555
C33 N2 1_555 1_555
H18 C33 1_555 1_555
C9 C11 1_555 1_555
C12 C19 1_555 1_555
C14 C23 1_555 1_555
C14 O2 1_555 1_555
C15 C17 1_555 1_555
C15 C24 1_555 1_555
C17 O1 1_555 1_555
C18 C22 1_555 1_555
C20 C25 1_555 1_555
C21 C26 1_555 1_555
C28 N1 1_555 1_555
N3 C29 1_555 1_555
C30 C31 1_555 1_555
C32 C33 1_555 1_555

#END
