
#######################################################################
#
#                 Cambridge Crystallographic Data Centre
#                                CCDC 
#
#######################################################################
#
# If this CIF has been generated from an entry in the Cambridge 
# Structural Database, then it will include bibliographic, chemical, 
# crystal, experimental, refinement or atomic coordinate data resulting 
# from the CCDC's data processing and validation procedures.
#
#######################################################################

data_EKUZEQ
_chemical_name_common            
'(3S,4S,5R,6S)-2-((S)-3-(((2R,3R,4R,5R)-3,4-Diacetoxy-5-methoxytetrahydro furan-2-yl)methyl)-4-oxothiazolidin-2-yl)-6-methoxytetrahydro-2H-pyran-3,4,5-triyl triacetate'
_chemical_formula_moiety         'C25 H35 N1 O15 S1'
_chemical_name_systematic        
'2-(3-((3,4-Diacetoxy-5-methoxytetrahydrofuran-2-yl)methyl)-4-oxo-1,3-thiazolidin-2-yl)-6-methoxytetrahydro-2H-pyran-3,4,5-triyl triacetate'
_chemical_properties_biological  
'Derivatives of the compound (or closely related compounds) showed immunopotentiating activity'
_symmetry_cell_setting           trigonal
_symmetry_space_group_name_H-M   'P 31'
_symmetry_Int_Tables_number      144
_space_group_name_Hall           'P 31'
loop_
_symmetry_equiv_pos_site_id
_symmetry_equiv_pos_as_xyz
1 x,y,z
2 -y,x-y,1/3+z
3 -x+y,-x,2/3+z
_cell_length_a                   13.5625(3)
_cell_length_b                   13.5625(3)
_cell_length_c                   15.1579(8)
_cell_angle_alpha                90
_cell_angle_beta                 90
_cell_angle_gamma                120
_cell_volume                     2414.62
_exptl_crystal_colour            colorless
_exptl_crystal_description       block
_cell_formula_units_Z            3
_exptl_crystal_recrystallization_method 'EtOAc cyclohexane'
loop_
_atom_site_label
_atom_site_type_symbol
_atom_site_fract_x
_atom_site_fract_y
_atom_site_fract_z
S1 S 0.95448(8) 0.43625(9) 1.13241(5)
O1 O 1.0530(3) 0.8223(3) 0.8327(2)
O2 O 0.7697(3) 0.7648(3) 0.8637(2)
O3 O 0.8081(8) 0.9074(7) 0.7837(5)
O4 O 0.6934(2) 0.5567(3) 0.79211(13)
O5 O 0.7223(4) 0.6032(3) 0.65050(19)
O6 O 0.9315(2) 0.6892(2) 0.93459(16)
O7 O 0.68053(19) 0.3213(2) 0.99398(19)
O8 O 1.16625(16) 0.55920(19) 1.03458(13)
O9 O 1.31028(18) 0.6401(2) 0.92829(17)
O10 O 1.36006(18) 0.4663(2) 0.95077(15)
O11 O 1.4258(2) 0.4923(3) 1.0886(2)
O12 O 1.2103(7) 0.3267(6) 0.7669(4)
O13 O 1.1491(2) 0.2856(2) 0.90289(17)
O14 O 0.97104(16) 0.33533(17) 0.88344(11)
O15 O 0.8625(3) 0.1821(3) 0.9647(2)
N1 N 0.86777(18) 0.4512(2) 0.98167(14)
C1 C 0.9559(4) 0.7869(3) 0.8825(3)
H1 H 0.9646 0.8490 0.9208
C2 C 0.8559(4) 0.7511(4) 0.8214(3)
H2 H 0.8790 0.7919 0.7650
C3 C 0.8125(3) 0.6249(3) 0.80987(19)
H3 H 0.8566 0.6128 0.7643
C4 C 0.8351(3) 0.5902(3) 0.90006(18)
H4 H 0.7695 0.5701 0.9384
C5 C 1.1521(5) 0.8617(7) 0.8821(5)
H5 H 1.1527 0.9102 0.9285
H6 H 1.2171 0.9039 0.8447
H7 H 1.1549 0.7982 0.9073
C6 C 0.7490(6) 0.8432(6) 0.8373(3)
C7 C 0.6538(7) 0.8437(7) 0.8843(5)
H8 H 0.6635 0.9188 0.8823
H9 H 0.6529 0.8217 0.9446
H10 H 0.5832 0.7909 0.8565
C8 C 0.6574(4) 0.5546(4) 0.7086(2)
C9 C 0.5314(4) 0.4810(5) 0.7022(3)
H11 H 0.5076 0.4818 0.6427
H12 H 0.4955 0.5092 0.7413
H13 H 0.5100 0.4044 0.7185
C10 C 0.8544(2) 0.4917(3) 0.89508(18)
H14 H 0.7906 0.4296 0.8647
H15 H 0.9223 0.5133 0.8603
C11 C 0.7773(3) 0.3681(3) 1.0238(2)
C12 C 0.8062(3) 0.3362(3) 1.1114(2)
H16 H 0.7935 0.2592 1.1091
H17 H 0.7591 0.3402 1.1577
C13 C 0.9766(2) 0.5056(3) 1.02515(17)
H18 H 0.9990 0.5854 1.0353
C14 C 1.0734(2) 0.5028(2) 0.97437(16)
H19 H 1.0900 0.5481 0.9203
C15 C 1.2720(2) 0.5737(3) 1.0036(2)
H20 H 1.3293 0.6099 1.0502
C16 C 1.2571(2) 0.4585(3) 0.9845(2)
H21 H 1.2354 0.4137 1.0390
C17 C 1.1649(2) 0.3970(3) 0.91647(19)
H22 H 1.1857 0.4397 0.8609
C18 C 1.0552(2) 0.3852(2) 0.95188(17)
H23 H 1.0306 0.3365 1.0044
C19 C 1.3545(4) 0.7586(4) 0.9436(5)
H24 H 1.2930 0.7724 0.9554
H25 H 1.3953 0.8009 0.8923
H26 H 1.4052 0.7824 0.9933
C20 C 1.4372(3) 0.4808(4) 1.0135(3)
C21 C 1.5360(4) 0.4781(7) 0.9722(4)
H27 H 1.5909 0.5532 0.9525
H28 H 1.5099 0.4270 0.9227
H29 H 1.5706 0.4524 1.0148
C22 C 1.1769(7) 0.2627(6) 0.8253(5)
C23 C 1.1556(9) 0.1416(6) 0.8246(6)
H30 H 1.0971 0.0973 0.7825
H31 H 1.1318 0.1088 0.8823
H32 H 1.2244 0.1423 0.8087
C24 C 0.8814(3) 0.2303(3) 0.8974(2)
C25 C 0.8098(4) 0.1866(4) 0.8166(3)
H33 H 0.8351 0.1443 0.7818
H34 H 0.8166 0.2495 0.7827
H35 H 0.7318 0.1380 0.8332
loop_
_geom_bond_atom_site_label_1
_geom_bond_atom_site_label_2
_geom_bond_site_symmetry_1
_geom_bond_site_symmetry_2
S1 C12 1_555 1_555
O1 C1 1_555 1_555
O2 C2 1_555 1_555
O3 C6 1_555 1_555
O4 C3 1_555 1_555
O5 C8 1_555 1_555
O6 C1 1_555 1_555
O7 C11 1_555 1_555
O8 C14 1_555 1_555
O9 C15 1_555 1_555
O10 C16 1_555 1_555
O11 C20 1_555 1_555
O12 C22 1_555 1_555
O13 C17 1_555 1_555
O14 C18 1_555 1_555
O15 C24 1_555 1_555
N1 C10 1_555 1_555
C1 H1 1_555 1_555
C2 C1 1_555 1_555
H2 C2 1_555 1_555
C3 C2 1_555 1_555
H3 C3 1_555 1_555
C4 O6 1_555 1_555
H4 C4 1_555 1_555
C5 O1 1_555 1_555
H5 C5 1_555 1_555
H6 C5 1_555 1_555
H7 C5 1_555 1_555
C6 O2 1_555 1_555
C7 C6 1_555 1_555
H8 C7 1_555 1_555
H9 C7 1_555 1_555
H10 C7 1_555 1_555
C8 O4 1_555 1_555
C9 C8 1_555 1_555
H11 C9 1_555 1_555
H12 C9 1_555 1_555
H13 C9 1_555 1_555
C10 C4 1_555 1_555
H14 C10 1_555 1_555
H15 C10 1_555 1_555
C11 N1 1_555 1_555
C12 C11 1_555 1_555
H16 C12 1_555 1_555
H17 C12 1_555 1_555
C13 S1 1_555 1_555
H18 C13 1_555 1_555
C14 C13 1_555 1_555
H19 C14 1_555 1_555
C15 O8 1_555 1_555
H20 C15 1_555 1_555
C16 C15 1_555 1_555
H21 C16 1_555 1_555
C17 C16 1_555 1_555
H22 C17 1_555 1_555
C18 C14 1_555 1_555
H23 C18 1_555 1_555
C19 O9 1_555 1_555
H24 C19 1_555 1_555
H25 C19 1_555 1_555
H26 C19 1_555 1_555
C20 O10 1_555 1_555
C21 C20 1_555 1_555
H27 C21 1_555 1_555
H28 C21 1_555 1_555
H29 C21 1_555 1_555
C22 O13 1_555 1_555
C23 C22 1_555 1_555
H30 C23 1_555 1_555
H31 C23 1_555 1_555
H32 C23 1_555 1_555
C24 O14 1_555 1_555
C25 C24 1_555 1_555
H33 C25 1_555 1_555
H34 C25 1_555 1_555
H35 C25 1_555 1_555
N1 C13 1_555 1_555
C3 C4 1_555 1_555
C17 C18 1_555 1_555

#END
