
#######################################################################
#
#                 Cambridge Crystallographic Data Centre
#                                CCDC 
#
#######################################################################
#
# If this CIF has been generated from an entry in the Cambridge 
# Structural Database, then it will include bibliographic, chemical, 
# crystal, experimental, refinement or atomic coordinate data resulting 
# from the CCDC's data processing and validation procedures.
#
#######################################################################

data_ELAKAF
_chemical_formula_moiety         'C17 H14 N2 O5 S1'
_chemical_name_systematic        
3-(1,3-benzodioxol-5-ylmethyl)-2-(4-nitrophenyl)-1,3-thiazolidin-4-one
_symmetry_cell_setting           monoclinic
_symmetry_space_group_name_H-M   'P 21/a'
_symmetry_Int_Tables_number      14
_space_group_name_Hall           '-P 2yab'
loop_
_symmetry_equiv_pos_site_id
_symmetry_equiv_pos_as_xyz
1 x,y,z
2 1/2-x,1/2+y,-z
3 -x,-y,-z
4 1/2+x,1/2-y,z
_cell_length_a                   13.8271(4)
_cell_length_b                   7.8548(2)
_cell_length_c                   14.6519(5)
_cell_angle_alpha                90
_cell_angle_beta                 95.828(2)
_cell_angle_gamma                90
_cell_volume                     1583.1
_exptl_crystal_colour            colorless
_cell_formula_units_Z            4
loop_
_atom_site_label
_atom_site_type_symbol
_atom_site_fract_x
_atom_site_fract_y
_atom_site_fract_z
S1 S 0.26185(4) 0.18513(8) 0.56753(4)
O1 O 0.03225(12) 0.80822(19) 0.86535(11)
O2 O -0.01453(11) 0.1961(2) 0.49430(11)
N1 N 0.08808(13) 0.1607(2) 0.62517(13)
C1 C 0.06729(16) 0.1803(3) 0.53388(16)
C2 C 0.15724(17) 0.1791(3) 0.48349(16)
H1 H 0.1573 0.2793 0.4425
H2 H 0.1587 0.0749 0.4456
C3 C 0.01921(16) 0.6622(3) 0.81273(16)
C4 C 0.01271(15) 0.3437(3) 0.73428(15)
C5 C 0.21808(15) 0.0097(3) 0.72268(15)
O3 O 0.08849(13) 0.5726(2) 0.95030(11)
C6 C -0.01700(15) 0.4874(3) 0.68303(16)
H3 H -0.0400 0.4743 0.6201
C7 C 0.20126(16) -0.1544(3) 0.68838(16)
H4 H 0.1690 -0.1703 0.6286
O4 O 0.33395(13) -0.3903(2) 0.96800(13)
C8 C 0.29146(16) -0.1065(3) 0.86554(16)
H5 H 0.3209 -0.0915 0.9265
C9 C 0.18872(16) 0.1645(3) 0.66497(15)
H6 H 0.1988 0.2683 0.7043
O5 O 0.30803(15) -0.5546(2) 0.84950(14)
C10 C -0.01398(16) 0.6508(3) 0.72172(16)
H7 H -0.0339 0.7486 0.6866
C11 C 0.27599(16) -0.2669(3) 0.82883(16)
C12 C 0.05125(16) 0.5220(3) 0.86339(16)
N2 N 0.30815(15) -0.4139(2) 0.88625(15)
C13 C 0.04912(16) 0.3599(3) 0.82716(16)
H8 H 0.0711 0.2641 0.8630
C14 C 0.23144(16) -0.2941(3) 0.74129(16)
H9 H 0.2217 -0.4063 0.7179
C15 C 0.06337(19) 0.7494(3) 0.95641(17)
H10 H 0.1204 0.8157 0.9827
H11 H 0.0104 0.7637 0.9965
C16 C 0.01199(16) 0.1723(3) 0.68804(16)
H12 H 0.0224 0.0821 0.7352
H13 H -0.0523 0.1531 0.6533
C17 C 0.26282(16) 0.0321(3) 0.81119(15)
H14 H 0.2739 0.1439 0.8346
loop_
_geom_bond_atom_site_label_1
_geom_bond_atom_site_label_2
_geom_bond_site_symmetry_1
_geom_bond_site_symmetry_2
S1 C2 1_555 1_555
O1 C3 1_555 1_555
O2 C1 1_555 1_555
N1 C1 1_555 1_555
C1 C2 1_555 1_555
C2 H1 1_555 1_555
H2 C2 1_555 1_555
C3 C10 1_555 1_555
C4 C6 1_555 1_555
C5 C7 1_555 1_555
O3 C12 1_555 1_555
C6 H3 1_555 1_555
C7 H4 1_555 1_555
O4 N2 1_555 1_555
C8 H5 1_555 1_555
C9 S1 1_555 1_555
H6 C9 1_555 1_555
O5 N2 1_555 1_555
C10 C6 1_555 1_555
H7 C10 1_555 1_555
C11 C8 1_555 1_555
C12 C3 1_555 1_555
N2 C11 1_555 1_555
C13 C4 1_555 1_555
H8 C13 1_555 1_555
C14 C7 1_555 1_555
H9 C14 1_555 1_555
C15 O1 1_555 1_555
H10 C15 1_555 1_555
H11 C15 1_555 1_555
C16 N1 1_555 1_555
H12 C16 1_555 1_555
H13 C16 1_555 1_555
C17 C5 1_555 1_555
H14 C17 1_555 1_555
N1 C9 1_555 1_555
C4 C16 1_555 1_555
C5 C9 1_555 1_555
O3 C15 1_555 1_555
C8 C17 1_555 1_555
C11 C14 1_555 1_555
C12 C13 1_555 1_555

#END
