
#######################################################################
#
#                 Cambridge Crystallographic Data Centre
#                                CCDC 
#
#######################################################################
#
# If this CIF has been generated from an entry in the Cambridge 
# Structural Database, then it will include bibliographic, chemical, 
# crystal, experimental, refinement or atomic coordinate data resulting 
# from the CCDC's data processing and validation procedures.
#
#######################################################################

data_ELAKUY
_chemical_formula_moiety         'C48 H48 N12,2.5(C1 H2 Cl2)'
_chemical_name_systematic        
'5,8,16,19,27,30,38,41,46,49,54,57-dodecaazaheptacyclo[21.21.6.6^12,34^.1^3,43^.1^10,14^.1^21,25^.1^32,36^]hexaconta-1,3(51),4,8,10(60),11,13,15,19,21(59),22,24,26,30,32(52),33,35,37,41,43,45,49,53,57-tetracosaene dichloromethane solvate'
_symmetry_cell_setting           rhombohedral
_symmetry_space_group_name_H-M   'R 3'
_symmetry_Int_Tables_number      146
_space_group_name_Hall           'R 3'
loop_
_symmetry_equiv_pos_site_id
_symmetry_equiv_pos_as_xyz
1 x,y,z
2 -y,x-y,z
3 -x+y,-x,z
4 2/3+x,1/3+y,1/3+z
5 2/3-y,1/3+x-y,1/3+z
6 2/3-x+y,1/3-x,1/3+z
7 1/3+x,2/3+y,2/3+z
8 1/3-y,2/3+x-y,2/3+z
9 1/3-x+y,2/3-x,2/3+z
_cell_length_a                   21.2162(14)
_cell_length_b                   21.2162(14)
_cell_length_c                   21.1628(15)
_cell_angle_alpha                90
_cell_angle_beta                 90
_cell_angle_gamma                120
_cell_volume                     8249.72
_exptl_crystal_colour            colorless
_exptl_crystal_description       prism
_cell_formula_units_Z            6
loop_
_atom_site_label
_atom_site_type_symbol
_atom_site_fract_x
_atom_site_fract_y
_atom_site_fract_z
N1 N 0.8151(2) 0.5244(2) -0.0010(2)
N2 N 0.8975(3) 0.6093(2) 0.1074(2)
N3 N 0.7937(2) 0.6005(2) 0.3342(2)
N4 N 0.9054(2) 0.3694(2) 0.3437(2)
C1 C 0.6317(3) 0.3737(3) 0.0072(2)
H1 H 0.6074 0.4012 0.0074
C2 C 0.7066(3) 0.4090(3) 0.0071(3)
C3 C 0.7488(3) 0.4898(3) 0.0070(2)
H2 H 0.7236 0.5158 0.0134
C4 C 0.8529(3) 0.6047(3) 0.0004(3)
H3 H 0.8194 0.6209 0.0164
H4 H 0.8680 0.6241 -0.0429
C5 C 0.9189(3) 0.6337(3) 0.0427(3)
H5 H 0.9518 0.6165 0.0272
H6 H 0.9458 0.6876 0.0414
C6 C 0.9110(2) 0.5622(2) 0.1285(2)
H7 H 0.9356 0.5455 0.1018
C7 C 0.8907(2) 0.5315(3) 0.1927(2)
C8 C 0.8557(2) 0.5534(2) 0.2350(2)
H8 H 0.8450 0.5902 0.2233
C9 C 0.8359(2) 0.5216(2) 0.2952(2)
C10 C 0.8521(3) 0.4678(3) 0.3123(2)
H9 H 0.8390 0.4460 0.3529
C11 C 0.8874(3) 0.4459(3) 0.2697(3)
C12 C 0.9059(3) 0.4768(3) 0.2110(3)
H10 H 0.9294 0.4610 0.1821
C13 C 0.7971(3) 0.5430(2) 0.3403(2)
H11 H 0.7736 0.5123 0.3755
C14 C 0.7541(3) 0.6154(3) 0.3830(2)
H12 H 0.7860 0.6643 0.4013
H13 H 0.7398 0.5791 0.4174
C15 C 0.9060(3) 0.3897(3) 0.2877(3)
H14 H 0.9191 0.3677 0.2551
C16 C 0.6868(3) 0.6121(3) 0.3547(3)
H15 H 0.6679 0.6352 0.3839
H16 H 0.6996 0.6392 0.3143
N1B N 0.7093(3) 0.1849(2) -0.0010(2)
N1A N 0.4756(2) 0.2907(3) -0.0010(2)
N2B N 0.7118(4) 0.1025(3) 0.1074(2)
N2A N 0.3907(2) 0.2882(4) 0.1074(2)
N3A N 0.3995(2) 0.1932(3) 0.3342(2)
N3B N 0.8068(3) 0.2063(2) 0.3342(2)
N4B N 0.4640(3) 0.0946(2) 0.3437(2)
N4A N 0.6306(2) 0.5360(3) 0.3437(2)
C1A C 0.6263(3) 0.2580(4) 0.0072(2)
C1B C 0.7420(4) 0.3683(3) 0.0072(2)
H1A H 0.5988 0.2062 0.0074
H1B H 0.7938 0.3926 0.0074
C2A C 0.5910(3) 0.2976(4) 0.0071(3)
C2B C 0.7024(4) 0.2934(3) 0.0071(3)
C3B C 0.7410(4) 0.2512(3) 0.0070(2)
C3A C 0.5102(3) 0.2590(4) 0.0070(2)
H2A H 0.4842 0.2078 0.0134
H2B H 0.7922 0.2764 0.0134
C4B C 0.7518(4) 0.1471(3) 0.0004(3)
C4A C 0.3953(3) 0.2482(4) 0.0004(3)
H3B H 0.8015 0.1806 0.0164
H3A H 0.3791 0.1985 0.0164
H4B H 0.7561 0.1320 -0.0429
H4A H 0.3759 0.2439 -0.0429
C5B C 0.7148(4) 0.0811(3) 0.0427(3)
C5A C 0.3663(3) 0.2852(4) 0.0427(3)
H5A H 0.3835 0.3353 0.0272
H5B H 0.6647 0.0482 0.0272
H6A H 0.3124 0.2582 0.0414
H6B H 0.7418 0.0542 0.0414
C6B C 0.6512(3) 0.0890(2) 0.1285(2)
C6A C 0.4378(2) 0.3488(3) 0.1285(2)
H7B H 0.6099 0.0644 0.1018
H7A H 0.4545 0.3901 0.1018
C7B C 0.6408(4) 0.1093(2) 0.1927(2)
C7A C 0.4685(3) 0.3592(4) 0.1927(2)
C8B C 0.6977(3) 0.1443(2) 0.2350(2)
C8A C 0.4466(2) 0.3023(3) 0.2350(2)
H8B H 0.7452 0.1550 0.2233
H8A H 0.4098 0.2548 0.2233
C9B C 0.6857(3) 0.1641(2) 0.2952(2)
C9A C 0.4784(2) 0.3143(3) 0.2952(2)
C10B C 0.6157(4) 0.1479(3) 0.3123(2)
C10A C 0.5322(3) 0.3843(4) 0.3123(2)
H9B H 0.6070 0.1610 0.3529
H9A H 0.5540 0.3930 0.3529
C11B C 0.5585(4) 0.1126(3) 0.2697(3)
C11A C 0.5541(3) 0.4415(4) 0.2697(3)
C12B C 0.5709(4) 0.0941(3) 0.2110(3)
C12A C 0.5232(3) 0.4291(4) 0.2110(3)
H10B H 0.5316 0.0706 0.1821
H10A H 0.5390 0.4684 0.1821
C13A C 0.4570(2) 0.2541(4) 0.3403(2)
C13B C 0.7459(4) 0.2029(3) 0.3403(2)
H11B H 0.7387 0.2264 0.3755
H11A H 0.4877 0.2613 0.3755
C14A C 0.3846(3) 0.1387(4) 0.3830(2)
C14B C 0.8613(4) 0.2459(3) 0.3830(2)
H12B H 0.8783 0.2140 0.4013
H12A H 0.3357 0.1217 0.4013
H13B H 0.8393 0.2602 0.4174
H13A H 0.4209 0.1607 0.4174
C15B C 0.4837(4) 0.0940(3) 0.2877(3)
C15A C 0.6103(3) 0.5163(4) 0.2877(3)
H14A H 0.6323 0.5514 0.2551
H14B H 0.4486 0.0809 0.2551
C16A C 0.3879(3) 0.0747(4) 0.3547(3)
C16B C 0.9253(4) 0.3132(3) 0.3547(3)
H15B H 0.9673 0.3321 0.3839
H15A H 0.3648 0.0327 0.3839
H16B H 0.9396 0.3004 0.3143
H16A H 0.3608 0.0604 0.3143
N5 N 0.8351(2) 0.5141(2) 0.49597(19)
N6 N 0.8944(2) 0.6089(2) 0.6089(2)
N7 N 0.7105(2) 0.5748(2) 0.8631(2)
N8 N 0.9272(2) 0.4477(2) 0.8495(2)
C17 C 0.6426(2) 0.3835(3) 0.5123(2)
H17 H 0.6259 0.4175 0.5137
C18 C 0.7164(2) 0.4081(2) 0.5112(2)
C19 C 0.7693(3) 0.4868(2) 0.5095(2)
H18 H 0.7520 0.5192 0.5194
C20 C 0.8790(2) 0.5934(2) 0.4940(2)
H19 H 0.8469 0.6147 0.4969
H20 H 0.9057 0.6088 0.4534
C21 C 0.9326(2) 0.6204(3) 0.5483(2)
H21 H 0.9602 0.5942 0.5485
H22 H 0.9676 0.6729 0.5426
C22 C 0.9028(2) 0.5698(2) 0.6484(2)
H23 H 0.9326 0.5498 0.6375
C23 C 0.8681(3) 0.5536(2) 0.7112(3)
C24 C 0.8167(3) 0.5732(3) 0.7290(2)
H24 H 0.8019 0.5968 0.6993
C25 C 0.7874(3) 0.5591(3) 0.7880(3)
C26 C 0.8081(3) 0.5236(3) 0.8321(3)
H25 H 0.7877 0.5135 0.8734
C27 C 0.8587(3) 0.5031(3) 0.8153(3)
C28 C 0.8875(3) 0.5175(3) 0.7557(2)
H26 H 0.9215 0.5026 0.7443
C29 C 0.7331(3) 0.5804(3) 0.8068(3)
H27 H 0.7147 0.5988 0.7755
C30 C 0.6562(3) 0.5972(3) 0.8745(3)
H28 H 0.6453 0.6140 0.8345
H29 H 0.6756 0.6380 0.9050
C31 C 0.8789(2) 0.4653(3) 0.8627(3)
H30 H 0.8562 0.4539 0.9030
C32 C 0.5869(3) 0.5328(3) 0.9007(3)
H31 H 0.5988 0.5105 0.9365
H32 H 0.5535 0.5494 0.9161
N5B N 0.6790(3) 0.1649(2) 0.49597(19)
N5A N 0.4859(2) 0.3210(3) 0.49597(19)
N6B N 0.7145(3) 0.1056(2) 0.6089(2)
N6A N 0.3911(2) 0.2855(3) 0.6089(2)
N7A N 0.4252(2) 0.1357(3) 0.8631(2)
N7B N 0.8643(3) 0.2895(2) 0.8631(2)
N8B N 0.5205(3) 0.0728(2) 0.8495(2)
N8A N 0.5523(2) 0.4795(3) 0.8495(2)
C17A C 0.6165(3) 0.2591(4) 0.5123(2)
C17B C 0.7409(4) 0.3574(2) 0.5123(2)
H17A H 0.5825 0.2084 0.5137
H17B H 0.7916 0.3741 0.5137
C18A C 0.5919(2) 0.3083(3) 0.5112(2)
C18B C 0.6917(3) 0.2836(2) 0.5112(2)
C19B C 0.7175(4) 0.2307(3) 0.5095(2)
C19A C 0.5132(2) 0.2825(4) 0.5095(2)
H18A H 0.4808 0.2328 0.5194
H18B H 0.7672 0.2480 0.5194
C20B C 0.7144(3) 0.1210(2) 0.4940(2)
C20A C 0.4066(2) 0.2856(3) 0.4940(2)
H19B H 0.7678 0.1531 0.4969
H19A H 0.3853 0.2322 0.4969
H20B H 0.7031 0.0943 0.4534
H20A H 0.3912 0.2969 0.4534
C21B C 0.6878(4) 0.0674(2) 0.5483(2)
C21A C 0.3796(3) 0.3122(4) 0.5483(2)
H21A H 0.4058 0.3660 0.5485
H21B H 0.6340 0.0398 0.5485
H22A H 0.3271 0.2947 0.5426
H22B H 0.7053 0.0324 0.5426
C22B C 0.6670(3) 0.0972(2) 0.6484(2)
C22A C 0.4302(2) 0.3330(3) 0.6484(2)
H23B H 0.6172 0.0674 0.6375
H23A H 0.4502 0.3828 0.6375
C23B C 0.6855(4) 0.1319(3) 0.7112(3)
C23A C 0.4464(2) 0.3145(4) 0.7112(3)
C24B C 0.7565(4) 0.1833(3) 0.7290(2)
C24A C 0.4268(3) 0.2435(4) 0.7290(2)
H24B H 0.7949 0.1981 0.6993
H24A H 0.4032 0.2051 0.6993
C25B C 0.7717(4) 0.2126(3) 0.7880(3)
C25A C 0.4409(3) 0.2283(4) 0.7880(3)
C26B C 0.7155(4) 0.1919(3) 0.8321(3)
C26A C 0.4764(3) 0.2845(4) 0.8321(3)
H25B H 0.7258 0.2123 0.8734
H25A H 0.4865 0.2742 0.8734
C27B C 0.6444(4) 0.1413(3) 0.8153(3)
C27A C 0.4969(3) 0.3556(4) 0.8153(3)
C28B C 0.6300(4) 0.1125(3) 0.7557(2)
C28A C 0.4825(3) 0.3700(4) 0.7557(2)
H26B H 0.5811 0.0785 0.7443
H26A H 0.4974 0.4189 0.7443
C29A C 0.4196(3) 0.1527(4) 0.8068(3)
C29B C 0.8473(4) 0.2669(3) 0.8068(3)
H27B H 0.8841 0.2853 0.7755
H27A H 0.4012 0.1159 0.7755
C30A C 0.4028(3) 0.0590(4) 0.8745(3)
C30B C 0.9410(4) 0.3438(3) 0.8745(3)
H28B H 0.9687 0.3547 0.8345
H28A H 0.3860 0.0313 0.8345
H29B H 0.9624 0.3244 0.9050
H29A H 0.3620 0.0376 0.9050
C31B C 0.5864(4) 0.1211(2) 0.8627(3)
C31A C 0.5347(3) 0.4136(4) 0.8627(3)
H30A H 0.5461 0.4023 0.9030
H30B H 0.5977 0.1438 0.9030
C32A C 0.4672(3) 0.0541(4) 0.9007(3)
C32B C 0.9459(4) 0.4131(3) 0.9007(3)
H31B H 0.9117 0.4012 0.9365
H31A H 0.4895 0.0883 0.9365
H32B H 0.9959 0.4465 0.9161
H32A H 0.4506 0.0041 0.9161
C33 C 0.3064(4) 0.1181(4) 0.1472(4)
Cl1 Cl 0.39219(12) 0.12420(11) 0.13801(11)
Cl2 Cl 0.26057(12) 0.06152(12) 0.21272(12)
C34? C 0.6396(10) 0.3050(11) 0.7594(7)
Cl3? Cl 0.6667 0.3333 0.8370(2)
Cl4? Cl 0.7088(6) 0.3516(8) 0.7033(7)
C35? C 0.6748(13) 0.3677(9) 0.2465(7)
Cl5? Cl 0.6667 0.3333 0.3234(3)
Cl6? Cl 0.6164(5) 0.3005(6) 0.1937(5)
C36? C 0.4450(11) 0.1608(12) 0.1362(15)
Cl7? Cl 0.5346(6) 0.2271(6) 0.1547(6)
Cl8? Cl 0.4417(8) 0.0895(7) 0.0879(7)
loop_
_geom_bond_atom_site_label_1
_geom_bond_atom_site_label_2
_geom_bond_site_symmetry_1
_geom_bond_site_symmetry_2
N1 C3 1_555 1_555
N2 C5 1_555 1_555
N3 C13 1_555 1_555
N4 C15 1_555 1_555
C1 H1 1_555 1_555
C2 C1 1_555 1_555
C3 C2 1_555 1_555
H2 C3 1_555 1_555
C4 N1 1_555 1_555
H3 C4 1_555 1_555
H4 C4 1_555 1_555
C5 C4 1_555 1_555
H5 C5 1_555 1_555
H6 C5 1_555 1_555
C6 N2 1_555 1_555
H7 C6 1_555 1_555
C7 C6 1_555 1_555
C8 C7 1_555 1_555
H8 C8 1_555 1_555
C9 C8 1_555 1_555
C10 C9 1_555 1_555
H9 C10 1_555 1_555
C11 C10 1_555 1_555
C12 C7 1_555 1_555
H10 C12 1_555 1_555
C13 C9 1_555 1_555
H11 C13 1_555 1_555
C14 N3 1_555 1_555
H12 C14 1_555 1_555
H13 C14 1_555 1_555
C15 C11 1_555 1_555
H14 C15 1_555 1_555
C16 C14 1_555 1_555
H15 C16 1_555 1_555
H16 C16 1_555 1_555
N5 C19 1_555 1_555
N6 C21 1_555 1_555
N7 C29 1_555 1_555
N8 C31 1_555 1_555
C17 H17 1_555 1_555
C18 C17 1_555 1_555
C19 C18 1_555 1_555
H18 C19 1_555 1_555
C20 N5 1_555 1_555
H19 C20 1_555 1_555
H20 C20 1_555 1_555
C21 C20 1_555 1_555
H21 C21 1_555 1_555
H22 C21 1_555 1_555
C22 N6 1_555 1_555
H23 C22 1_555 1_555
C23 C22 1_555 1_555
C24 C23 1_555 1_555
H24 C24 1_555 1_555
C25 C24 1_555 1_555
C26 C25 1_555 1_555
H25 C26 1_555 1_555
C27 C26 1_555 1_555
C28 C23 1_555 1_555
H26 C28 1_555 1_555
C29 C25 1_555 1_555
H27 C29 1_555 1_555
C30 N7 1_555 1_555
H28 C30 1_555 1_555
H29 C30 1_555 1_555
C31 C27 1_555 1_555
H30 C31 1_555 1_555
C32 C30 1_555 1_555
H31 C32 1_555 1_555
H32 C32 1_555 1_555
C33 Cl1 1_555 1_555
Cl2 C33 1_555 1_555
N1B C3B 1_555 1_555
N1A C3A 1_555 1_555
N2B C5B 1_555 1_555
N2A C5A 1_555 1_555
N3A C13A 1_555 1_555
N3B C13B 1_555 1_555
N4B C15B 1_555 1_555
N4A C16 1_555 1_555
C1A H1A 1_555 1_555
C1B C2 1_555 1_555
H1B C1B 1_555 1_555
C2A C1 1_555 1_555
C2B C1A 1_555 1_555
C3B C2B 1_555 1_555
C3A C2A 1_555 1_555
H2A C3A 1_555 1_555
H2B C3B 1_555 1_555
C4B N1B 1_555 1_555
C4A N1A 1_555 1_555
H3B C4B 1_555 1_555
H3A C4A 1_555 1_555
H4B C4B 1_555 1_555
H4A C4A 1_555 1_555
C5B C4B 1_555 1_555
C5A C4A 1_555 1_555
H5A C5A 1_555 1_555
H5B C5B 1_555 1_555
H6A C5A 1_555 1_555
H6B C5B 1_555 1_555
C6B N2B 1_555 1_555
C6A N2A 1_555 1_555
H7B C6B 1_555 1_555
H7A C6A 1_555 1_555
C7B C6B 1_555 1_555
C7A C6A 1_555 1_555
C8B C7B 1_555 1_555
C8A C7A 1_555 1_555
H8B C8B 1_555 1_555
H8A C8A 1_555 1_555
C9B C8B 1_555 1_555
C9A C8A 1_555 1_555
C10B C9B 1_555 1_555
C10A C9A 1_555 1_555
H9B C10B 1_555 1_555
H9A C10A 1_555 1_555
C11B C10B 1_555 1_555
C11A C10A 1_555 1_555
C12B C7B 1_555 1_555
C12A C7A 1_555 1_555
H10B C12B 1_555 1_555
H10A C12A 1_555 1_555
C13A C9A 1_555 1_555
C13B C9B 1_555 1_555
H11B C13B 1_555 1_555
H11A C13A 1_555 1_555
C14A N3A 1_555 1_555
C14B N3B 1_555 1_555
H12B C14B 1_555 1_555
H12A C14A 1_555 1_555
H13B C14B 1_555 1_555
H13A C14A 1_555 1_555
C15B C11B 1_555 1_555
C15A N4A 1_555 1_555
H14A C15A 1_555 1_555
H14B C15B 1_555 1_555
C16A N4B 1_555 1_555
C16B N4 1_555 1_555
H15B C16B 1_555 1_555
H15A C16A 1_555 1_555
H16B C16B 1_555 1_555
H16A C16A 1_555 1_555
N5B C19B 1_555 1_555
N5A C19A 1_555 1_555
N6B C21B 1_555 1_555
N6A C21A 1_555 1_555
N7A C29A 1_555 1_555
N7B C29B 1_555 1_555
N8B C31B 1_555 1_555
N8A C32 1_555 1_555
C17A H17A 1_555 1_555
C17B C18 1_555 1_555
H17B C17B 1_555 1_555
C18A C17 1_555 1_555
C18B C17A 1_555 1_555
C19B C18B 1_555 1_555
C19A C18A 1_555 1_555
H18A C19A 1_555 1_555
H18B C19B 1_555 1_555
C20B N5B 1_555 1_555
C20A N5A 1_555 1_555
H19B C20B 1_555 1_555
H19A C20A 1_555 1_555
H20B C20B 1_555 1_555
H20A C20A 1_555 1_555
C21B C20B 1_555 1_555
C21A C20A 1_555 1_555
H21A C21A 1_555 1_555
H21B C21B 1_555 1_555
H22A C21A 1_555 1_555
H22B C21B 1_555 1_555
C22B N6B 1_555 1_555
C22A N6A 1_555 1_555
H23B C22B 1_555 1_555
H23A C22A 1_555 1_555
C23B C22B 1_555 1_555
C23A C22A 1_555 1_555
C24B C23B 1_555 1_555
C24A C23A 1_555 1_555
H24B C24B 1_555 1_555
H24A C24A 1_555 1_555
C25B C24B 1_555 1_555
C25A C24A 1_555 1_555
C26B C25B 1_555 1_555
C26A C25A 1_555 1_555
H25B C26B 1_555 1_555
H25A C26A 1_555 1_555
C27B C26B 1_555 1_555
C27A C26A 1_555 1_555
C28B C23B 1_555 1_555
C28A C23A 1_555 1_555
H26B C28B 1_555 1_555
H26A C28A 1_555 1_555
C29A C25A 1_555 1_555
C29B C25B 1_555 1_555
H27B C29B 1_555 1_555
H27A C29A 1_555 1_555
C30A N7A 1_555 1_555
C30B N7B 1_555 1_555
H28B C30B 1_555 1_555
H28A C30A 1_555 1_555
H29B C30B 1_555 1_555
H29A C30A 1_555 1_555
C31B C27B 1_555 1_555
C31A N8A 1_555 1_555
H30A C31A 1_555 1_555
H30B C31B 1_555 1_555
C32A N8B 1_555 1_555
C32B N8 1_555 1_555
H31B C32B 1_555 1_555
H31A C32A 1_555 1_555
H32B C32B 1_555 1_555
H32A C32A 1_555 1_555
C11 C12 1_555 1_555
C27 C28 1_555 1_555
C1A C2A 1_555 1_555
C1B C2B 1_555 1_555
C11B C12B 1_555 1_555
C11A C12A 1_555 1_555
C11A C15A 1_555 1_555
C14A C16A 1_555 1_555
C14B C16B 1_555 1_555
C17A C18A 1_555 1_555
C17B C18B 1_555 1_555
C27B C28B 1_555 1_555
C27A C28A 1_555 1_555
C27A C31A 1_555 1_555
C30A C32A 1_555 1_555
C30B C32B 1_555 1_555

#END
