
#######################################################################
#
#                 Cambridge Crystallographic Data Centre
#                                CCDC 
#
#######################################################################
#
# If this CIF has been generated from an entry in the Cambridge 
# Structural Database, then it will include bibliographic, chemical, 
# crystal, experimental, refinement or atomic coordinate data resulting 
# from the CCDC's data processing and validation procedures.
#
#######################################################################

data_ELALAF
_chemical_formula_moiety         'C48 H48 N12,0.66(C1 H2 Cl2)'
_chemical_name_systematic        
'5,8,16,19,27,30,38,41,46,49,54,57-dodecaazaheptacyclo[21.21.6.6^12,34^.1^3,43^.1^10,14^.1^21,25^.1^32,36^]hexaconta-1,3(51),4,8,10(60),11,13,15,19,21(59),22,24,26,30,32(52),33,35,37,41,43,45,49,53,57-tetracosaene dichloromethane solvate'
_symmetry_cell_setting           rhombohedral
_symmetry_space_group_name_H-M   'R 3'
_symmetry_Int_Tables_number      146
_space_group_name_Hall           'R 3'
loop_
_symmetry_equiv_pos_site_id
_symmetry_equiv_pos_as_xyz
1 x,y,z
2 -y,x-y,z
3 -x+y,-x,z
4 2/3+x,1/3+y,1/3+z
5 2/3-y,1/3+x-y,1/3+z
6 2/3-x+y,1/3-x,1/3+z
7 1/3+x,2/3+y,2/3+z
8 1/3-y,2/3+x-y,2/3+z
9 1/3-x+y,2/3-x,2/3+z
_cell_length_a                   21.015(3)
_cell_length_b                   21.015(3)
_cell_length_c                   10.4913(15)
_cell_angle_alpha                90
_cell_angle_beta                 90
_cell_angle_gamma                120
_cell_volume                     4012.53
_exptl_crystal_colour            colorless
_exptl_crystal_description       prism
_cell_formula_units_Z            3
loop_
_atom_site_label
_atom_site_type_symbol
_atom_site_fract_x
_atom_site_fract_y
_atom_site_fract_z
N1 N 0.49845(9) 0.64892(9) 1.38583(15)
N2 N 0.57063(9) 0.63462(10) 1.15925(15)
N3 N 0.40671(10) 0.49010(10) 0.64204(16)
N4 N 0.59481(10) 0.84236(10) 0.68050(16)
C1 C 0.40859(11) 0.71416(11) 1.35779(19)
H1 H 0.4602 0.7466 1.3572
C2 C 0.38074(11) 0.63846(11) 1.35818(19)
C3 C 0.43090(11) 0.60838(11) 1.3622(2)
H2 H 0.4120 0.5575 1.3468
C4 C 0.54402(11) 0.61516(11) 1.38621(18)
H3 H 0.5137 0.5621 1.3672
H4 H 0.5667 0.6207 1.4712
C5 C 0.60339(11) 0.65253(12) 1.28576(19)
H5 H 0.6292 0.7064 1.2985
H6 H 0.6398 0.6359 1.2940
C6 C 0.57746(11) 0.68679(12) 1.08992(19)
H7 H 0.6033 0.7356 1.1218
C7 C 0.54595(11) 0.67322(12) 0.96001(19)
C8 C 0.50008(11) 0.60067(12) 0.9197(2)
H8 H 0.4875 0.5613 0.9775
C9 C 0.47274(12) 0.58564(12) 0.7961(2)
C10 C 0.49050(11) 0.64387(12) 0.71250(19)
H9 H 0.4716 0.6340 0.6281
C11 C 0.53534(11) 0.71578(12) 0.7513(2)
C12 C 0.56312(11) 0.73042(12) 0.8762(2)
H10 H 0.5938 0.7798 0.9032
C13 C 0.42779(12) 0.50868(12) 0.7555(2)
H11 H 0.4139 0.4712 0.8177
C14 C 0.36258(12) 0.41153(12) 0.6153(2)
H12 H 0.3600 0.3832 0.6923
H13 H 0.3859 0.3982 0.5463
C15 C 0.55306(11) 0.77498(12) 0.6573(2)
H14 H 0.5318 0.7614 0.5748
C16 C 0.28521(12) 0.39235(12) 0.5751(2)
H15 H 0.2880 0.4229 0.5011
H16 H 0.2571 0.3401 0.5490
N1B N 0.15047(13) 0.50155(9) 1.38583(15)
N1A N 0.35108(9) 0.84953(13) 1.38583(15)
N2B N 0.06399(13) 0.42937(9) 1.15925(15)
N2A N 0.36538(10) 0.93601(13) 1.15925(15)
N3A N 0.50990(10) 0.91661(14) 0.64204(16)
N3B N 0.08339(14) 0.59329(10) 0.64204(16)
N4B N 0.24755(14) 0.40519(10) 0.68050(16)
N4A N 0.15764(10) 0.75245(14) 0.68050(16)
C1A C 0.28584(11) 0.69443(16) 1.35779(19)
C1B C 0.30557(16) 0.59141(11) 1.35779(19)
H1A H 0.2534 0.7136 1.3572
H1B H 0.2864 0.5398 1.3572
C2A C 0.36154(11) 0.74228(16) 1.35818(19)
C2B C 0.25772(16) 0.61926(11) 1.35818(19)
C3B C 0.17748(16) 0.56910(11) 1.3622(2)
C3A C 0.39162(11) 0.82252(16) 1.3622(2)
H2A H 0.4425 0.8545 1.3468
H2B H 0.1455 0.5880 1.3468
C4B C 0.07114(16) 0.45598(11) 1.38621(18)
C4A C 0.38484(11) 0.92886(16) 1.38621(18)
H3B H 0.0484 0.4863 1.3672
H3A H 0.4379 0.9516 1.3672
H4B H 0.0540 0.4333 1.4712
H4A H 0.3793 0.9460 1.4712
C5B C 0.04914(16) 0.39661(11) 1.28576(19)
C5A C 0.34747(12) 0.95086(16) 1.28576(19)
H5A H 0.2936 0.9228 1.2985
H5B H 0.0772 0.3708 1.2985
H6A H 0.3641 1.0039 1.2940
H6B H -0.0039 0.3602 1.2940
C6B C 0.10933(16) 0.42254(11) 1.08992(19)
C6A C 0.31321(12) 0.89067(16) 1.08992(19)
H7B H 0.1323 0.3967 1.1218
H7A H 0.2644 0.8677 1.1218
C7B C 0.12727(16) 0.45405(11) 0.96001(19)
C7A C 0.32678(12) 0.87273(16) 0.96001(19)
C8B C 0.10059(16) 0.49992(11) 0.9197(2)
C8A C 0.39933(12) 0.89941(16) 0.9197(2)
H8B H 0.0738 0.5125 0.9775
H8A H 0.4387 0.9262 0.9775
C9B C 0.11290(17) 0.52726(12) 0.7961(2)
C9A C 0.41436(12) 0.88710(17) 0.7961(2)
C10B C 0.15337(16) 0.50950(11) 0.71250(19)
C10A C 0.35613(12) 0.84663(16) 0.71250(19)
H9B H 0.1624 0.5284 0.6281
H9A H 0.3660 0.8376 0.6281
C11B C 0.18044(16) 0.46466(11) 0.7513(2)
C11A C 0.28422(12) 0.81956(16) 0.7513(2)
C12B C 0.16730(16) 0.43688(11) 0.8762(2)
C12A C 0.26958(12) 0.83270(16) 0.8762(2)
H10B H 0.1860 0.4062 0.9032
H10A H 0.2202 0.8140 0.9032
C13A C 0.49132(12) 0.91911(17) 0.7555(2)
C13B C 0.08089(17) 0.57221(12) 0.7555(2)
H11B H 0.0573 0.5861 0.8177
H11A H 0.5288 0.9427 0.8177
C14A C 0.58847(12) 0.95105(17) 0.6153(2)
C14B C 0.04895(17) 0.63742(12) 0.6153(2)
H12B H 0.0232 0.6400 0.6923
H12A H 0.6168 0.9768 0.6923
H13B H 0.0123 0.6141 0.5463
H13A H 0.6018 0.9877 0.5463
C15B C 0.22192(16) 0.44694(11) 0.6573(2)
C15A C 0.22502(12) 0.77808(16) 0.6573(2)
H14A H 0.2386 0.7704 0.5748
H14B H 0.2296 0.4682 0.5748
C16A C 0.60765(12) 0.89286(17) 0.5751(2)
C16B C 0.10714(17) 0.71479(12) 0.5751(2)
H15B H 0.1349 0.7120 0.5011
H15A H 0.5771 0.8651 0.5011
H16B H 0.0830 0.7429 0.5490
H16A H 0.6599 0.9170 0.5490
C17? C 0.3590(7) 0.6942(6) 0.8597(10)
H17? H 0.3635 0.7430 0.8715
H18? H 0.4083 0.7001 0.8740
Cl1? Cl 0.3333 0.6667 0.70196(19)
Cl2? Cl 0.2978(6) 0.6332(6) 0.9788(8)
Cl3? Cl 0.3287(7) 0.6234(5) 0.9665(8)
loop_
_geom_bond_atom_site_label_1
_geom_bond_atom_site_label_2
_geom_bond_site_symmetry_1
_geom_bond_site_symmetry_2
N1 C3 1_555 1_555
N2 C5 1_555 1_555
N3 C13 1_555 1_555
N4 C15 1_555 1_555
C1 H1 1_555 1_555
C2 C1 1_555 1_555
C3 C2 1_555 1_555
H2 C3 1_555 1_555
C4 N1 1_555 1_555
H3 C4 1_555 1_555
H4 C4 1_555 1_555
C5 C4 1_555 1_555
H5 C5 1_555 1_555
H6 C5 1_555 1_555
C6 N2 1_555 1_555
H7 C6 1_555 1_555
C7 C6 1_555 1_555
C8 C7 1_555 1_555
H8 C8 1_555 1_555
C9 C8 1_555 1_555
C10 C9 1_555 1_555
H9 C10 1_555 1_555
C11 C10 1_555 1_555
C12 C7 1_555 1_555
H10 C12 1_555 1_555
C13 C9 1_555 1_555
H11 C13 1_555 1_555
C14 N3 1_555 1_555
H12 C14 1_555 1_555
H13 C14 1_555 1_555
C15 C11 1_555 1_555
H14 C15 1_555 1_555
C16 C14 1_555 1_555
H15 C16 1_555 1_555
H16 C16 1_555 1_555
N1B C3B 1_555 1_555
N1A C3A 1_555 1_555
N2B C5B 1_555 1_555
N2A C5A 1_555 1_555
N3A C13A 1_555 1_555
N3B C13B 1_555 1_555
N4B C16 1_555 1_555
N4A C15A 1_555 1_555
C1A H1A 1_555 1_555
C1B C2 1_555 1_555
H1B C1B 1_555 1_555
C2A C1 1_555 1_555
C2B C1A 1_555 1_555
C3B C2B 1_555 1_555
C3A C2A 1_555 1_555
H2A C3A 1_555 1_555
H2B C3B 1_555 1_555
C4B N1B 1_555 1_555
C4A N1A 1_555 1_555
H3B C4B 1_555 1_555
H3A C4A 1_555 1_555
H4B C4B 1_555 1_555
H4A C4A 1_555 1_555
C5B C4B 1_555 1_555
C5A C4A 1_555 1_555
H5A C5A 1_555 1_555
H5B C5B 1_555 1_555
H6A C5A 1_555 1_555
H6B C5B 1_555 1_555
C6B N2B 1_555 1_555
C6A N2A 1_555 1_555
H7B C6B 1_555 1_555
H7A C6A 1_555 1_555
C7B C6B 1_555 1_555
C7A C6A 1_555 1_555
C8B C7B 1_555 1_555
C8A C7A 1_555 1_555
H8B C8B 1_555 1_555
H8A C8A 1_555 1_555
C9B C8B 1_555 1_555
C9A C8A 1_555 1_555
C10B C9B 1_555 1_555
C10A C9A 1_555 1_555
H9B C10B 1_555 1_555
H9A C10A 1_555 1_555
C11B C10B 1_555 1_555
C11A C10A 1_555 1_555
C12B C7B 1_555 1_555
C12A C7A 1_555 1_555
H10B C12B 1_555 1_555
H10A C12A 1_555 1_555
C13A C9A 1_555 1_555
C13B C9B 1_555 1_555
H11B C13B 1_555 1_555
H11A C13A 1_555 1_555
C14A N3A 1_555 1_555
C14B N3B 1_555 1_555
H12B C14B 1_555 1_555
H12A C14A 1_555 1_555
H13B C14B 1_555 1_555
H13A C14A 1_555 1_555
C15B N4B 1_555 1_555
C15A C11A 1_555 1_555
H14A C15A 1_555 1_555
H14B C15B 1_555 1_555
C16A N4 1_555 1_555
C16B N4A 1_555 1_555
H15B C16B 1_555 1_555
H15A C16A 1_555 1_555
H16B C16B 1_555 1_555
H16A C16A 1_555 1_555
C11 C12 1_555 1_555
C1A C2A 1_555 1_555
C1B C2B 1_555 1_555
C11B C12B 1_555 1_555
C11B C15B 1_555 1_555
C11A C12A 1_555 1_555
C14A C16A 1_555 1_555
C14B C16B 1_555 1_555

#END
