
#######################################################################
#
#                 Cambridge Crystallographic Data Centre
#                                CCDC 
#
#######################################################################
#
# If this CIF has been generated from an entry in the Cambridge 
# Structural Database, then it will include bibliographic, chemical, 
# crystal, experimental, refinement or atomic coordinate data resulting 
# from the CCDC's data processing and validation procedures.
#
#######################################################################

data_ELAMUZ
_chemical_name_common            
"C-4,6,8,10,42,44,46,48-Octapentyl-2,12:3,11:40,50:41,49-tetrametheno-4H,6H,8H,10H,42H,44H,46H,48H-bis(1,3)dioxocino(5'',4'':8',9')(1,3)benzodioxocino(5',4':8,9)(1,3)benzodioxocino(5,4-j:5',4'-j')benzo(1,2-b:5,4-b')bis(1,4)benzodioxonin-26,52-dione pentakis(acetonitrile) clathrate"
_chemical_formula_moiety         'C108 H124 O18,5(C2 H3 N1)'
_chemical_name_systematic        
'C-2,3:5,6-bis(2,8,14,20-Tetrapentyl-6,10:12,16:18,22-tris(methylenedioxy)calix[4]arene-4,24-dioxy)quinone pentakis(acetonitrile) clathrate'
_symmetry_cell_setting           triclinic
_symmetry_space_group_name_H-M   'P -1'
_symmetry_Int_Tables_number      2
_space_group_name_Hall           '-P 1'
loop_
_symmetry_equiv_pos_site_id
_symmetry_equiv_pos_as_xyz
1 x,y,z
2 -x,-y,-z
_cell_length_a                   16.4340(16)
_cell_length_b                   17.4470(15)
_cell_length_c                   19.8880(18)
_cell_angle_alpha                82.065(3)
_cell_angle_beta                 83.242(3)
_cell_angle_gamma                80.229(3)
_cell_volume                     5539.83
_exptl_crystal_colour            yellow
_exptl_crystal_description       plate
_chemical_melting_point          'above 360deg.C'
_cell_formula_units_Z            2
_exptl_crystal_recrystallization_method dichloromethane/acetonitrile
loop_
_atom_site_label
_atom_site_type_symbol
_atom_site_fract_x
_atom_site_fract_y
_atom_site_fract_z
C1 C 0.2185(10) 0.3951(10) 0.0991(8)
C2 C 0.2460(9) 0.4612(9) 0.0682(7)
C3 C 0.3338(9) 0.4605(9) 0.0325(7)
H1 H 0.3518 0.4081 0.0184
C4 C 0.3374(10) 0.5194(9) -0.0331(7)
H2 H 0.3154 0.5716 -0.0214
H3 H 0.3949 0.5192 -0.0511
C5 C 0.2903(11) 0.5023(10) -0.0874(9)
H4 H 0.2372 0.4889 -0.0667
H5 H 0.3207 0.4572 -0.1077
C6 C 0.2744(11) 0.5736(10) -0.1458(8)
H6 H 0.2392 0.6172 -0.1265
H7 H 0.3268 0.5903 -0.1638
C7 C 0.2336(12) 0.5520(11) -0.2036(9)
H8 H 0.1800 0.5369 -0.1866
H9 H 0.2679 0.5080 -0.2231
C8 C 0.2224(14) 0.6229(13) -0.2580(11)
H10 H 0.2005 0.6087 -0.2964
H11 H 0.2751 0.6397 -0.2723
H12 H 0.1847 0.6647 -0.2394
C9 C 0.1914(10) 0.5314(9) 0.0692(7)
H13 H 0.2097 0.5772 0.0483
C10 C 0.1103(10) 0.5359(9) 0.1003(7)
C11 C 0.0849(11) 0.4676(10) 0.1353(8)
C12 C 0.1391(10) 0.3973(9) 0.1324(8)
H14 H 0.1218 0.3509 0.1531
C13 C 0.0487(11) 0.6116(10) 0.1022(8)
H15 H -0.0071 0.5978 0.1053
C14 C 0.0574(12) 0.6716(11) 0.0405(9)
H16 H 0.0206 0.7198 0.0487
H17 H 0.1138 0.6829 0.0341
C15 C 0.0378(13) 0.6450(12) -0.0227(10)
H18 H -0.0176 0.6314 -0.0147
H19 H 0.0759 0.5974 -0.0307
C16 C 0.0421(19) 0.7044(18) -0.0897(13)
H20 H 0.0998 0.7099 -0.1022
H21 H 0.0244 0.6805 -0.1257
C17 C 0.002(4) 0.7708(17) -0.090(3)
H22 H 0.0216 0.7985 -0.0573
H23 H -0.0563 0.7677 -0.0764
C18 C 0.013(2) 0.8161(17) -0.164(2)
H24 H 0.0069 0.8713 -0.1616
H25 H -0.0283 0.8059 -0.1908
H26 H 0.0672 0.7983 -0.1855
C19 C 0.0565(11) 0.6443(10) 0.1675(10)
C20 C 0.1104(11) 0.6997(10) 0.1695(9)
H27 H 0.1385 0.7200 0.1295
C21 C 0.1208(11) 0.7236(10) 0.2327(9)
C22 C 0.0818(13) 0.6925(12) 0.2899(11)
C23 C 0.0286(12) 0.6420(11) 0.2917(10)
H28 H -0.0003 0.6239 0.3322
C24 C 0.0193(12) 0.6184(10) 0.2301(10)
O1 O -0.0412(7) 0.5677(8) 0.2318(6)
C25 C -0.0054(13) 0.4847(12) 0.2324(10)
H29 H 0.0479 0.4753 0.2510
H30 H -0.0417 0.4527 0.2612
O2 O 0.0049(7) 0.4638(7) 0.1653(6)
C26 C 0.1848(12) 0.7825(11) 0.2324(10)
H31 H 0.1644 0.8122 0.2710
C27 C 0.1830(14) 0.8408(14) 0.1719(11)
H32 H 0.1263 0.8649 0.1656
H33 H 0.2061 0.8161 0.1316
C28 C 0.234(2) 0.9025(17) 0.1826(19)
H34 H 0.2182 0.9191 0.2276
H35 H 0.2925 0.8805 0.1798
C29 C 0.219(2) 0.972(2) 0.1285(17)
H36 H 0.2277 0.9544 0.0838
H37 H 0.1626 0.9984 0.1353
C30 C 0.278(4) 1.029(3) 0.132(3)
H38 H 0.2661 1.0535 0.1736
H39 H 0.3353 1.0036 0.1284
C31 C 0.261(4) 1.088(3) 0.071(3)
H40 H 0.2960 1.1273 0.0671
H41 H 0.2036 1.1126 0.0753
H42 H 0.2710 1.0623 0.0301
C32 C 0.2677(10) 0.7334(9) 0.2512(8)
C33 C 0.3282(11) 0.7129(9) 0.1950(9)
H43 H 0.3165 0.7303 0.1503
C34 C 0.4056(10) 0.6660(9) 0.2084(8)
C35 C 0.4173(12) 0.6465(10) 0.2748(9)
C36 C 0.3591(10) 0.6648(9) 0.3302(9)
H44 H 0.3713 0.6483 0.3749
C37 C 0.2830(11) 0.7082(9) 0.3160(9)
O3 O 0.2279(8) 0.7275(7) 0.3704(7)
C38 C 0.1613(14) 0.6848(12) 0.3877(11)
H45 H 0.1461 0.6820 0.4365
H46 H 0.1791 0.6317 0.3766
O4 O 0.0897(8) 0.7196(8) 0.3525(8)
O5 O 0.4970(7) 0.6041(6) 0.2918(6)
C39 C 0.5112(11) 0.5210(10) 0.2906(9)
H47 H 0.5477 0.4967 0.3251
H48 H 0.4589 0.5013 0.3019
O6 O 0.5465(6) 0.4997(6) 0.2273(6)
C40 C 0.4941(11) 0.4951(10) 0.1797(9)
C41 C 0.4546(10) 0.5569(10) 0.1402(8)
C42 C 0.4683(11) 0.6411(9) 0.1535(8)
H49 H 0.5231 0.6358 0.1701
C43 C 0.4695(11) 0.6945(10) 0.0839(9)
H50 H 0.5071 0.6680 0.0500
H51 H 0.4145 0.7051 0.0684
C44 C 0.4980(14) 0.7724(13) 0.0918(11)
H52 H 0.4516 0.8060 0.1130
H53 H 0.5414 0.7615 0.1224
C45 C 0.5298(19) 0.8164(15) 0.0260(15)
H54 H 0.5606 0.8537 0.0393
H55 H 0.5705 0.7785 0.0038
C46 C 0.480(3) 0.860(3) -0.0290(15)
H56 H 0.4549 0.8245 -0.0499
H57 H 0.5162 0.8862 -0.0639
C47 C 0.414(3) 0.920(3) 0.000(3)
H58 H 0.3751 0.9407 -0.0324
H59 H 0.4391 0.9623 0.0117
H60 H 0.3860 0.8964 0.0409
C48 C 0.4042(10) 0.5460(10) 0.0938(8)
H61 H 0.3768 0.5895 0.0685
C49 C 0.3923(10) 0.4705(9) 0.0832(8)
C50 C 0.4378(10) 0.4062(10) 0.1222(8)
C51 C 0.4860(10) 0.4206(10) 0.1696(8)
H62 H 0.5141 0.3783 0.1958
O7 O 0.4335(6) 0.3300(6) 0.1073(5)
C52 C 0.3876(11) 0.2863(9) 0.1575(8)
C53 C 0.3075(10) 0.2812(9) 0.1521(8)
O8 O 0.2703(6) 0.3204(6) 0.0949(5)
C54 C 0.2644(11) 0.2309(9) 0.2000(8)
O9 O 0.1929(8) 0.2222(6) 0.1935(6)
C55 C 0.3087(10) 0.1822(9) 0.2556(8)
C56 C 0.3894(10) 0.1838(9) 0.2598(8)
C57 C 0.4358(12) 0.2351(10) 0.2074(9)
O10 O 0.5091(7) 0.2314(7) 0.2064(6)
O11 O 0.4336(6) 0.1318(5) 0.3064(5)
C58 C 0.4440(9) 0.1544(9) 0.3690(8)
C59 C 0.5046(8) 0.2037(8) 0.3671(7)
H63 H 0.5310 0.2239 0.3261
C60 C 0.5224(9) 0.2199(9) 0.4285(8)
C61 C 0.4861(9) 0.1898(8) 0.4906(7)
C62 C 0.4243(9) 0.1424(9) 0.4878(8)
H64 H 0.3959 0.1232 0.5281
C63 C 0.4056(9) 0.1246(8) 0.4268(7)
C64 C 0.3372(9) 0.0758(8) 0.4235(7)
H65 H 0.3499 0.0514 0.3811
C65 C 0.3326(9) 0.0086(8) 0.4834(7)
H66 H 0.3877 -0.0208 0.4882
H67 H 0.3132 0.0310 0.5255
C66 C 0.2745(11) -0.0466(10) 0.4715(8)
H68 H 0.2979 -0.0740 0.4327
H69 H 0.2217 -0.0161 0.4606
C67 C 0.2599(11) -0.1074(10) 0.5345(9)
H70 H 0.2331 -0.0806 0.5728
H71 H 0.3127 -0.1366 0.5471
C68 C 0.2032(13) -0.1656(12) 0.5171(11)
H72 H 0.1504 -0.1367 0.5041
H73 H 0.2301 -0.1933 0.4793
C69 C 0.1897(16) -0.2220(15) 0.5787(13)
H74 H 0.1807 -0.2705 0.5653
H75 H 0.1421 -0.2009 0.6069
H76 H 0.2377 -0.2313 0.6036
C70 C 0.2518(9) 0.1292(8) 0.4195(8)
C71 C 0.2237(9) 0.1590(8) 0.3604(8)
O12 O 0.2639(6) 0.1327(5) 0.2992(5)
C72 C 0.1472(10) 0.2097(9) 0.3530(8)
H77 H 0.1281 0.2292 0.3109
C73 C 0.1040(9) 0.2276(8) 0.4136(8)
C74 C 0.1255(9) 0.1997(9) 0.4774(8)
C75 C 0.2027(9) 0.1501(8) 0.4790(7)
H78 H 0.2220 0.1305 0.5211
C76 C 0.0745(9) 0.2219(8) 0.5411(7)
H79 H 0.0166 0.2354 0.5308
C77 C 0.0786(11) 0.1562(10) 0.6009(9)
H80 H 0.1360 0.1359 0.6084
H81 H 0.0510 0.1762 0.6422
C78 C 0.0360(14) 0.0914(12) 0.5836(11)
H82 H -0.0199 0.1132 0.5725
H83 H 0.0661 0.0695 0.5439
C79 C 0.0323(19) 0.0274(16) 0.6427(13)
H84 H 0.0889 0.0059 0.6517
H85 H 0.0063 0.0518 0.6825
C80 C -0.012(3) -0.040(2) 0.638(2)
H86 H -0.0151 -0.0493 0.5912
H87 H 0.0100 -0.0882 0.6649
C81 C -0.090(3) 0.002(3) 0.670(2)
H88 H -0.1345 -0.0273 0.6699
H89 H -0.1037 0.0529 0.6444
H90 H -0.0832 0.0085 0.7159
C82 C 0.1019(10) 0.2968(9) 0.5593(8)
C83 C 0.1577(9) 0.2944(8) 0.6065(7)
H91 H 0.1789 0.2458 0.6285
C84 C 0.1838(10) 0.3600(9) 0.6229(8)
C85 C 0.1437(10) 0.4334(9) 0.5854(8)
C86 C 0.0897(11) 0.4360(11) 0.5388(8)
H92 H 0.0690 0.4840 0.5154
C87 C 0.0649(11) 0.3693(10) 0.5256(9)
O13 O 0.0035(6) 0.3729(6) 0.4847(5)
C88 C 0.0246(10) 0.3602(9) 0.4153(8)
H93 H 0.0787 0.3749 0.4001
H94 H -0.0155 0.3935 0.3876
O14 O 0.0261(6) 0.2807(6) 0.4054(5)
C89 C 0.2473(9) 0.3618(9) 0.6685(7)
H95 H 0.2330 0.4120 0.6872
C90 C 0.2405(11) 0.2969(10) 0.7301(9)
H96 H 0.1830 0.3003 0.7488
H97 H 0.2572 0.2461 0.7139
C91 C 0.2936(16) 0.3026(15) 0.7870(14)
H98 H 0.3517 0.2899 0.7708
H99 H 0.2840 0.3561 0.7978
C92 C 0.275(2) 0.248(2) 0.8514(14)
H100 H 0.2690 0.1969 0.8412
H101 H 0.3175 0.2429 0.8824
C93 C 0.194(3) 0.291(3) 0.880(2)
H102 H 0.1926 0.3477 0.8744
H103 H 0.1465 0.2784 0.8618
C94 C 0.205(3) 0.254(3) 0.951(2)
H104 H 0.1638 0.2811 0.9818
H105 H 0.2591 0.2574 0.9620
H106 H 0.1974 0.2003 0.9548
C95 C 0.3289(10) 0.3633(10) 0.6279(8)
C96 C 0.3523(10) 0.4323(9) 0.5946(7)
O15 O 0.3064(6) 0.5031(5) 0.6070(6)
C97 C 0.2379(11) 0.5293(10) 0.5699(9)
H107 H 0.2498 0.5101 0.5257
H108 H 0.2300 0.5860 0.5622
O16 O 0.1638(7) 0.5055(6) 0.6017(6)
C98 C 0.4262(9) 0.4277(9) 0.5515(7)
H109 H 0.4414 0.4734 0.5271
C99 C 0.4787(11) 0.3550(10) 0.5439(8)
C100 C 0.4534(10) 0.2863(9) 0.5739(8)
C101 C 0.3806(9) 0.2897(9) 0.6152(7)
H110 H 0.3636 0.2431 0.6359
C102 C 0.5064(10) 0.2082(9) 0.5581(7)
H111 H 0.5638 0.2184 0.5505
C103 C 0.5046(10) 0.1440(9) 0.6177(8)
H112 H 0.4474 0.1370 0.6312
H113 H 0.5340 0.0953 0.6025
C104 C 0.5425(11) 0.1592(10) 0.6794(8)
H114 H 0.5081 0.2028 0.6994
H115 H 0.5969 0.1737 0.6651
C105 C 0.5506(15) 0.0880(12) 0.7325(11)
H116 H 0.5716 0.0410 0.7109
H117 H 0.5887 0.0932 0.7647
C106 C 0.4657(19) 0.083(3) 0.768(2)
H118 H 0.4420 0.1316 0.7870
H119 H 0.4286 0.0717 0.7380
C107 C 0.482(4) 0.017(3) 0.824(3)
H120 H 0.4314 0.0100 0.8517
H121 H 0.5214 0.0285 0.8519
H122 H 0.5045 -0.0304 0.8043
O17 O 0.5528(6) 0.3628(5) 0.5031(5)
C108 C 0.5584(11) 0.3495(10) 0.4360(8)
H123 H 0.5974 0.3804 0.4094
H124 H 0.5046 0.3671 0.4188
O18 O 0.5845(7) 0.2687(6) 0.4263(6)
C109 C 0.2541(19) 0.5228(14) 0.2521(17)
H125 H 0.2028 0.5532 0.2391
H126 H 0.2973 0.5297 0.2159
H127 H 0.2683 0.5398 0.2926
C110 C 0.245(2) 0.4381(15) 0.266(2)
N1 N 0.219(2) 0.3836(17) 0.2838(16)
N3 N 0.359(4) 0.360(3) 0.323(2)
C113 C 0.338(3) 0.352(3) 0.378(2)
C114 C 0.286(4) 0.339(3) 0.444(2)
H131 H 0.2541 0.3886 0.4546
H132 H 0.3206 0.3182 0.4798
H133 H 0.2486 0.3035 0.4405
N5 N 0.2653(17) 0.7366(14) 0.0101(15)
C117 C 0.278(2) 0.754(2) -0.0353(18)
C118 C 0.3036(18) 0.7821(17) -0.1114(15)
H137 H 0.2718 0.7612 -0.1399
H138 H 0.3616 0.7641 -0.1222
H139 H 0.2931 0.8383 -0.1189
N6 N 0.2846(15) 0.0889(13) 0.6615(11)
C119 C 0.3031(18) 0.0311(18) 0.6766(15)
C120 C 0.3281(18) -0.0537(17) 0.7094(14)
H140 H 0.3355 -0.0536 0.7566
H141 H 0.3790 -0.0766 0.6861
H142 H 0.2852 -0.0838 0.7061
N7 N 0.076(3) 0.142(2) 0.805(2)
C121 C 0.133(2) 0.098(3) 0.804(3)
C122 C 0.159(3) 0.014(3) 0.831(3)
H143 H 0.2106 0.0093 0.8508
H144 H 0.1661 -0.0176 0.7947
H145 H 0.1174 -0.0021 0.8654
N2? N 0.186(3) 0.496(3) 0.357(2)
C111? C 0.209(4) 0.498(4) 0.302(2)
C112? C 0.252(3) 0.510(3) 0.232(2)
H128? H 0.2479 0.5656 0.2173
H129? H 0.2271 0.4861 0.2010
H130? H 0.3096 0.4878 0.2326
C115? C 0.294(4) 0.327(2) 0.437(3)
H134? H 0.2775 0.3088 0.3986
H135? H 0.2509 0.3256 0.4741
H136? H 0.3439 0.2946 0.4513
C116? C 0.310(2) 0.4102(19) 0.4185(19)
N4? N 0.3286(19) 0.4677(18) 0.4015(16)
N8? N 0.120(6) 0.933(6) -0.014(4)
C123? C 0.143(7) 0.959(9) -0.078(4)
C124? C 0.203(5) 1.008(4) -0.135(4)
H146? H 0.2338 1.0369 -0.1128
H147? H 0.1689 1.0432 -0.1659
H148? H 0.2405 0.9714 -0.1607
N9? N 0.042(5) 0.922(4) 0.013(4)
C125? C 0.023(4) 0.997(5) -0.033(6)
C126? C 0.060(10) 1.077(7) -0.082(7)
H149? H 0.0562 1.0744 -0.1295
H150? H 0.1163 1.0770 -0.0745
H151? H 0.0265 1.1249 -0.0692
loop_
_geom_bond_atom_site_label_1
_geom_bond_atom_site_label_2
_geom_bond_site_symmetry_1
_geom_bond_site_symmetry_2
C1 C2 1_555 1_555
C2 C3 1_555 1_555
C3 H1 1_555 1_555
C4 C3 1_555 1_555
H2 C4 1_555 1_555
H3 C4 1_555 1_555
C5 C4 1_555 1_555
H4 C5 1_555 1_555
H5 C5 1_555 1_555
C6 C5 1_555 1_555
H6 C6 1_555 1_555
H7 C6 1_555 1_555
C7 C6 1_555 1_555
H8 C7 1_555 1_555
H9 C7 1_555 1_555
C8 C7 1_555 1_555
H10 C8 1_555 1_555
H11 C8 1_555 1_555
H12 C8 1_555 1_555
C9 C2 1_555 1_555
H13 C9 1_555 1_555
C10 C9 1_555 1_555
C11 C10 1_555 1_555
C12 C1 1_555 1_555
H14 C12 1_555 1_555
C13 C10 1_555 1_555
H15 C13 1_555 1_555
C14 C13 1_555 1_555
H16 C14 1_555 1_555
H17 C14 1_555 1_555
C15 C14 1_555 1_555
H18 C15 1_555 1_555
H19 C15 1_555 1_555
C16 C15 1_555 1_555
H20 C16 1_555 1_555
H21 C16 1_555 1_555
C17 C16 1_555 1_555
H22 C17 1_555 1_555
H23 C17 1_555 1_555
C18 C17 1_555 1_555
H24 C18 1_555 1_555
H25 C18 1_555 1_555
H26 C18 1_555 1_555
C19 C13 1_555 1_555
C20 C19 1_555 1_555
H27 C20 1_555 1_555
C21 C20 1_555 1_555
C22 C21 1_555 1_555
C23 C22 1_555 1_555
H28 C23 1_555 1_555
C24 C19 1_555 1_555
O1 C24 1_555 1_555
C25 O1 1_555 1_555
H29 C25 1_555 1_555
H30 C25 1_555 1_555
O2 C11 1_555 1_555
C26 C21 1_555 1_555
H31 C26 1_555 1_555
C27 C26 1_555 1_555
H32 C27 1_555 1_555
H33 C27 1_555 1_555
C28 C27 1_555 1_555
H34 C28 1_555 1_555
H35 C28 1_555 1_555
C29 C28 1_555 1_555
H36 C29 1_555 1_555
H37 C29 1_555 1_555
C30 C29 1_555 1_555
H38 C30 1_555 1_555
H39 C30 1_555 1_555
C31 C30 1_555 1_555
H40 C31 1_555 1_555
H41 C31 1_555 1_555
H42 C31 1_555 1_555
C32 C26 1_555 1_555
C33 C32 1_555 1_555
H43 C33 1_555 1_555
C34 C33 1_555 1_555
C35 C34 1_555 1_555
C36 C35 1_555 1_555
H44 C36 1_555 1_555
C37 C32 1_555 1_555
O3 C37 1_555 1_555
C38 O3 1_555 1_555
H45 C38 1_555 1_555
H46 C38 1_555 1_555
O4 C22 1_555 1_555
O5 C35 1_555 1_555
C39 O5 1_555 1_555
H47 C39 1_555 1_555
H48 C39 1_555 1_555
O6 C39 1_555 1_555
C40 O6 1_555 1_555
C41 C40 1_555 1_555
C42 C34 1_555 1_555
H49 C42 1_555 1_555
C43 C42 1_555 1_555
H50 C43 1_555 1_555
H51 C43 1_555 1_555
C44 C43 1_555 1_555
H52 C44 1_555 1_555
H53 C44 1_555 1_555
C45 C44 1_555 1_555
H54 C45 1_555 1_555
H55 C45 1_555 1_555
C46 C45 1_555 1_555
H56 C46 1_555 1_555
H57 C46 1_555 1_555
C47 C46 1_555 1_555
H58 C47 1_555 1_555
H59 C47 1_555 1_555
H60 C47 1_555 1_555
C48 C41 1_555 1_555
H61 C48 1_555 1_555
C49 C3 1_555 1_555
C50 C49 1_555 1_555
C51 C40 1_555 1_555
H62 C51 1_555 1_555
O7 C50 1_555 1_555
C52 O7 1_555 1_555
C53 C52 1_555 1_555
O8 C1 1_555 1_555
C54 C53 1_555 1_555
O9 C54 1_555 1_555
C55 C54 1_555 1_555
C56 C55 1_555 1_555
C57 C52 1_555 1_555
O10 C57 1_555 1_555
O11 C56 1_555 1_555
C58 O11 1_555 1_555
C59 C58 1_555 1_555
H63 C59 1_555 1_555
C60 C59 1_555 1_555
C61 C60 1_555 1_555
C62 C61 1_555 1_555
H64 C62 1_555 1_555
C63 C58 1_555 1_555
C64 C63 1_555 1_555
H65 C64 1_555 1_555
C65 C64 1_555 1_555
H66 C65 1_555 1_555
H67 C65 1_555 1_555
C66 C65 1_555 1_555
H68 C66 1_555 1_555
H69 C66 1_555 1_555
C67 C66 1_555 1_555
H70 C67 1_555 1_555
H71 C67 1_555 1_555
C68 C67 1_555 1_555
H72 C68 1_555 1_555
H73 C68 1_555 1_555
C69 C68 1_555 1_555
H74 C69 1_555 1_555
H75 C69 1_555 1_555
H76 C69 1_555 1_555
C70 C64 1_555 1_555
C71 C70 1_555 1_555
O12 C55 1_555 1_555
C72 C71 1_555 1_555
H77 C72 1_555 1_555
C73 C72 1_555 1_555
C74 C73 1_555 1_555
C75 C70 1_555 1_555
H78 C75 1_555 1_555
C76 C74 1_555 1_555
H79 C76 1_555 1_555
C77 C76 1_555 1_555
H80 C77 1_555 1_555
H81 C77 1_555 1_555
C78 C77 1_555 1_555
H82 C78 1_555 1_555
H83 C78 1_555 1_555
C79 C78 1_555 1_555
H84 C79 1_555 1_555
H85 C79 1_555 1_555
C80 C79 1_555 1_555
H86 C80 1_555 1_555
H87 C80 1_555 1_555
C81 C80 1_555 1_555
H88 C81 1_555 1_555
H89 C81 1_555 1_555
H90 C81 1_555 1_555
C82 C76 1_555 1_555
C83 C82 1_555 1_555
H91 C83 1_555 1_555
C84 C83 1_555 1_555
C85 C84 1_555 1_555
C86 C85 1_555 1_555
H92 C86 1_555 1_555
C87 C82 1_555 1_555
O13 C87 1_555 1_555
C88 O13 1_555 1_555
H93 C88 1_555 1_555
H94 C88 1_555 1_555
O14 C73 1_555 1_555
C89 C84 1_555 1_555
H95 C89 1_555 1_555
C90 C89 1_555 1_555
H96 C90 1_555 1_555
H97 C90 1_555 1_555
C91 C90 1_555 1_555
H98 C91 1_555 1_555
H99 C91 1_555 1_555
C92 C91 1_555 1_555
H100 C92 1_555 1_555
H101 C92 1_555 1_555
C93 C92 1_555 1_555
H102 C93 1_555 1_555
H103 C93 1_555 1_555
C94 C93 1_555 1_555
H104 C94 1_555 1_555
H105 C94 1_555 1_555
H106 C94 1_555 1_555
C95 C89 1_555 1_555
C96 C95 1_555 1_555
O15 C96 1_555 1_555
C97 O15 1_555 1_555
H107 C97 1_555 1_555
H108 C97 1_555 1_555
O16 C85 1_555 1_555
C98 C96 1_555 1_555
H109 C98 1_555 1_555
C99 C98 1_555 1_555
C100 C99 1_555 1_555
C101 C95 1_555 1_555
H110 C101 1_555 1_555
C102 C61 1_555 1_555
H111 C102 1_555 1_555
C103 C102 1_555 1_555
H112 C103 1_555 1_555
H113 C103 1_555 1_555
C104 C103 1_555 1_555
H114 C104 1_555 1_555
H115 C104 1_555 1_555
C105 C104 1_555 1_555
H116 C105 1_555 1_555
H117 C105 1_555 1_555
C106 C105 1_555 1_555
H118 C106 1_555 1_555
H119 C106 1_555 1_555
C107 C106 1_555 1_555
H120 C107 1_555 1_555
H121 C107 1_555 1_555
H122 C107 1_555 1_555
O17 C99 1_555 1_555
C108 O17 1_555 1_555
H123 C108 1_555 1_555
H124 C108 1_555 1_555
O18 C60 1_555 1_555
C109 H125 1_555 1_555
H126 C109 1_555 1_555
H127 C109 1_555 1_555
C110 C109 1_555 1_555
N1 C110 1_555 1_555
N3 C113 1_555 1_555
C113 C114 1_555 1_555
C114 H131 1_555 1_555
H132 C114 1_555 1_555
H133 C114 1_555 1_555
N5 C117 1_555 1_555
C117 C118 1_555 1_555
C118 H137 1_555 1_555
H138 C118 1_555 1_555
H139 C118 1_555 1_555
N6 C119 1_555 1_555
C119 C120 1_555 1_555
C120 H140 1_555 1_555
H141 C120 1_555 1_555
H142 C120 1_555 1_555
N7 C121 1_555 1_555
C121 C122 1_555 1_555
C122 H143 1_555 1_555
H144 C122 1_555 1_555
H145 C122 1_555 1_555
C11 C12 1_555 1_555
C23 C24 1_555 1_555
C25 O2 1_555 1_555
C36 C37 1_555 1_555
C38 O4 1_555 1_555
C41 C42 1_555 1_555
C48 C49 1_555 1_555
C50 C51 1_555 1_555
C53 O8 1_555 1_555
C56 C57 1_555 1_555
C62 C63 1_555 1_555
C71 O12 1_555 1_555
C74 C75 1_555 1_555
C86 C87 1_555 1_555
C88 O14 1_555 1_555
C97 O16 1_555 1_555
C100 C102 1_555 1_555
C100 C101 1_555 1_555
C108 O18 1_555 1_555

#END
