
#######################################################################
#
#                 Cambridge Crystallographic Data Centre
#                                CCDC 
#
#######################################################################
#
# If this CIF has been generated from an entry in the Cambridge 
# Structural Database, then it will include bibliographic, chemical, 
# crystal, experimental, refinement or atomic coordinate data resulting 
# from the CCDC's data processing and validation procedures.
#
#######################################################################

data_ELANUA
_chemical_formula_moiety         'C16 H22 N2 O3'
_chemical_name_systematic        
(2R,5S,5'R)-2,5-Dihydro-3,6-dimethoxy-2-isopropylpyrazine-5-spiro-(3'-oxobicyclo[3.3.0]oct-1'-en-7'-yl)
_symmetry_cell_setting           orthorhombic
_symmetry_space_group_name_H-M   'P 21 21 21'
_symmetry_Int_Tables_number      19
_space_group_name_Hall           'P 2ac 2ab'
loop_
_symmetry_equiv_pos_site_id
_symmetry_equiv_pos_as_xyz
1 x,y,z
2 1/2-x,-y,1/2+z
3 -x,1/2+y,1/2-z
4 1/2+x,1/2-y,-z
_cell_length_a                   8.6422(2)
_cell_length_b                   12.1099(3)
_cell_length_c                   14.8969(3)
_cell_angle_alpha                90
_cell_angle_beta                 90
_cell_angle_gamma                90
_cell_volume                     1559.05
_chemical_melting_point          58-59deg.C
_cell_formula_units_Z            4
loop_
_atom_site_label
_atom_site_type_symbol
_atom_site_fract_x
_atom_site_fract_y
_atom_site_fract_z
O1 O -0.09243(15) 0.28762(11) 0.31778(9)
O2 O 0.31796(15) 0.07261(12) 0.11089(8)
O3 O -0.23243(19) 0.00817(14) -0.19829(9)
N1 N -0.04318(16) 0.20463(11) 0.18337(10)
N2 N 0.27326(16) 0.17234(12) 0.23758(9)
C1 C 0.06306(18) 0.14608(13) 0.12463(10)
C2 C 0.00483(19) 0.23754(13) 0.25897(11)
C3 C 0.16815(18) 0.23431(15) 0.29544(11)
H1 H 0.198(3) 0.308(2) 0.2938(16)
C4 C 0.22345(18) 0.13392(14) 0.16474(10)
C5 C -0.2518(2) 0.2938(2) 0.29066(16)
H2 H -0.259(4) 0.346(3) 0.240(2)
H3 H -0.294(3) 0.222(2) 0.2802(15)
H4 H -0.296(3) 0.338(2) 0.3317(19)
C6 C 0.1775(2) 0.1884(2) 0.39142(12)
H5 H 0.104(4) 0.234(3) 0.426(2)
C7 C 0.1353(3) 0.0669(2) 0.39357(18)
H6 H 0.214(4) 0.017(2) 0.354(2)
H7 H 0.141(4) 0.040(3) 0.457(3)
H8 H 0.037(5) 0.042(3) 0.365(3)
C8 C 0.3400(3) 0.2091(3) 0.42913(16)
H9 H 0.344(4) 0.186(3) 0.489(2)
H10 H 0.417(3) 0.168(2) 0.3935(18)
H11 H 0.365(6) 0.293(4) 0.416(3)
C9 C 0.4708(2) 0.05213(18) 0.14625(14)
H12 H 0.459(3) 0.023(2) 0.2083(17)
H13 H 0.524(3) 0.122(2) 0.1486(17)
H14 H 0.515(3) 0.000(2) 0.1052(19)
C10 C 0.0691(2) 0.20742(14) 0.03129(11)
H15 H 0.168(3) 0.2008(16) 0.0059(14)
H16 H 0.045(3) 0.284(2) 0.0402(16)
C11 C -0.04276(17) 0.14435(13) -0.02551(11)
C12 C -0.13442(18) 0.06491(13) 0.03152(11)
H17 H -0.223(3) 0.1073(19) 0.0639(15)
C13 C -0.0139(2) 0.03241(13) 0.10260(11)
H18 H -0.064(3) 0.0028(18) 0.1559(16)
H19 H 0.058(3) -0.0154(18) 0.0777(15)
C14 C -0.06776(19) 0.13149(14) -0.11371(11)
H20 H -0.022(3) 0.1717(19) -0.1657(17)
C15 C -0.17541(19) 0.03825(15) -0.12734(11)
C16 C -0.2012(2) -0.01709(14) -0.03624(12)
H21 H -0.310(3) -0.030(2) -0.0247(17)
H22 H -0.145(3) -0.086(2) -0.0386(17)
loop_
_geom_bond_atom_site_label_1
_geom_bond_atom_site_label_2
_geom_bond_site_symmetry_1
_geom_bond_site_symmetry_2
O1 C2 1_555 1_555
O2 C4 1_555 1_555
O3 C15 1_555 1_555
N1 C1 1_555 1_555
N2 C3 1_555 1_555
C1 C4 1_555 1_555
C2 N1 1_555 1_555
C3 C2 1_555 1_555
H1 C3 1_555 1_555
C4 N2 1_555 1_555
C5 O1 1_555 1_555
H2 C5 1_555 1_555
H3 C5 1_555 1_555
H4 C5 1_555 1_555
C6 C3 1_555 1_555
H5 C6 1_555 1_555
C7 C6 1_555 1_555
H6 C7 1_555 1_555
H7 C7 1_555 1_555
H8 C7 1_555 1_555
C8 C6 1_555 1_555
H9 C8 1_555 1_555
H10 C8 1_555 1_555
H11 C8 1_555 1_555
C9 O2 1_555 1_555
H12 C9 1_555 1_555
H13 C9 1_555 1_555
H14 C9 1_555 1_555
C10 C1 1_555 1_555
H15 C10 1_555 1_555
H16 C10 1_555 1_555
C11 C10 1_555 1_555
C12 C11 1_555 1_555
H17 C12 1_555 1_555
C13 C1 1_555 1_555
H18 C13 1_555 1_555
H19 C13 1_555 1_555
C14 C11 1_555 1_555
H20 C14 1_555 1_555
C15 C14 1_555 1_555
C16 C12 1_555 1_555
H21 C16 1_555 1_555
H22 C16 1_555 1_555
C12 C13 1_555 1_555
C15 C16 1_555 1_555

#END
