
#######################################################################
#
#                 Cambridge Crystallographic Data Centre
#                                CCDC 
#
#######################################################################
#
# If this CIF has been generated from an entry in the Cambridge 
# Structural Database, then it will include bibliographic, chemical, 
# crystal, experimental, refinement or atomic coordinate data resulting 
# from the CCDC's data processing and validation procedures.
#
#######################################################################

data_ELANEK
_chemical_name_common            
"2,2'-(4,4'-biphenyl)-bis(5,11,17,23-tetrabromo-8,14,20-tris(heptyl)-6,10:12,16:18,22:24,4-O,O'-tetrakis(methylene)calix[4]resorcinarene) hexakis(nitrobenzene) clathrate"
_chemical_formula_moiety         'C118 H130 Br8 O16,6(C6 H5 N1 O2)'
_chemical_name_systematic        
"bis(5,11,17,23-Tetrabromo-8,14,20-tris(heptyl)-6,10:12,16:18,22:24,4-tetrakis(methylenedioxy)calix[4]aren-2-yl)-4,4'-biphenyl hexakis(nitrobenzene) clathrate"
_symmetry_cell_setting           triclinic
_symmetry_space_group_name_H-M   'P -1'
_symmetry_Int_Tables_number      2
_space_group_name_Hall           '-P 1'
loop_
_symmetry_equiv_pos_site_id
_symmetry_equiv_pos_as_xyz
1 x,y,z
2 -x,-y,-z
_cell_length_a                   11.9400(9)
_cell_length_b                   13.1043(10)
_cell_length_c                   23.947(2)
_cell_angle_alpha                87.489(2)
_cell_angle_beta                 86.292(2)
_cell_angle_gamma                80.794(2)
_cell_volume                     3688.74
_exptl_crystal_colour            colorless
_exptl_crystal_description       parallelepiped
_chemical_melting_point          'above 290deg.C(dec.)'
_cell_formula_units_Z            1
loop_
_atom_site_label
_atom_site_type_symbol
_atom_site_fract_x
_atom_site_fract_y
_atom_site_fract_z
C1 C -0.3095(12) 0.3644(10) 0.4280(6)
H1 H -0.2340 0.3615 0.4150
C2 C -0.3645(12) 0.4480(11) 0.4599(6)
H2 H -0.3240 0.5011 0.4659
C3 C -0.4761(11) 0.4560(9) 0.4831(5)
C4 C -0.5325(12) 0.3778(10) 0.4700(5)
H3 H -0.6081 0.3804 0.4827
C5 C -0.4806(11) 0.2949(10) 0.4386(5)
H4 H -0.5219 0.2425 0.4321
C6 C -0.3698(10) 0.2874(9) 0.4167(5)
C7 C -0.3076(10) 0.1872(8) 0.3911(5)
H5 H -0.2762 0.1442 0.4227
C8 C -0.3850(10) 0.1218(9) 0.3635(5)
C9 C -0.4698(10) 0.1664(9) 0.3306(5)
H6 H -0.4800 0.2378 0.3246
C10 C -0.5431(10) 0.1099(9) 0.3052(5)
C11 C -0.6331(10) 0.1583(9) 0.2664(5)
H7 H -0.6910 0.1129 0.2675
C12 C -0.6935(11) 0.2662(9) 0.2850(5)
H8 H -0.6368 0.3110 0.2873
H9 H -0.7446 0.2959 0.2566
C13 C -0.7603(13) 0.2638(10) 0.3407(6)
H10 H -0.7081 0.2439 0.3702
H11 H -0.8100 0.2121 0.3404
C14 C -0.8329(16) 0.3712(13) 0.3535(7)
H12 H -0.7868 0.4245 0.3433
H13 H -0.8968 0.3820 0.3298
C15 C -0.877(4) 0.385(3) 0.4123(11)
H16 H -0.8150 0.3679 0.4370
H17 H -0.9314 0.3384 0.4218
C16 C -0.934(3) 0.496(3) 0.4205(17)
H18 H -0.9536 0.5032 0.4602
H19 H -0.8768 0.5399 0.4108
C17 C -1.037(4) 0.541(3) 0.3907(19)
H20 H -1.0939 0.4959 0.3962
H21 H -1.0175 0.5475 0.3508
C21 C -1.082(2) 0.6456(17) 0.4137(11)
H28 H -1.1391 0.6811 0.3905
H29 H -1.0207 0.6851 0.4143
H30 H -1.1140 0.6372 0.4511
C22 C -0.5189(10) 0.0012(8) 0.3128(5)
C23 C -0.4322(10) -0.0423(8) 0.3447(5)
Br1 Br -0.40094(14) -0.18964(10) 0.35458(6)
C24 C -0.3646(10) 0.0155(9) 0.3711(5)
O1 O -0.2795(7) -0.0333(6) 0.4047(3)
C25 C -0.1685(11) -0.0459(9) 0.3810(5)
H34 H -0.1708 -0.0531 0.3409
H35 H -0.1269 -0.1097 0.3961
O2 O -0.1088(7) 0.0350(6) 0.3900(3)
C26 C -0.1144(10) 0.1181(9) 0.3497(5)
C27 C -0.2080(9) 0.1968(8) 0.3508(5)
C28 C -0.2034(10) 0.2741(8) 0.3102(4)
H36 H -0.2665 0.3257 0.3083
C29 C -0.1140(10) 0.2811(8) 0.2728(5)
C30 C -0.0207(11) 0.1988(9) 0.2731(5)
C31 C -0.0226(10) 0.1173(9) 0.3119(5)
Br2 Br 0.09803(13) 0.00630(11) 0.30982(7)
O3 O 0.0752(7) 0.2024(6) 0.2387(3)
C32 C 0.0758(12) 0.1716(10) 0.1834(5)
H37 H 0.1526 0.1413 0.1713
H38 H 0.0280 0.1186 0.1822
O4 O 0.0375(7) 0.2529(6) 0.1462(3)
C33 C -0.0784(11) 0.2724(9) 0.1378(5)
C34 C -0.1149(10) 0.2353(9) 0.0900(5)
Br3 Br -0.01346(14) 0.15063(14) 0.04164(7)
C35 C -0.2305(11) 0.2572(10) 0.0794(5)
C36 C -0.3070(10) 0.3161(9) 0.1136(5)
C37 C -0.2668(10) 0.3514(8) 0.1619(5)
H39 H -0.3190 0.3879 0.1872
C38 C -0.1524(10) 0.3344(9) 0.1738(5)
C39 C -0.1112(10) 0.3671(8) 0.2276(4)
H40 H -0.0312 0.3744 0.2200
C40 C -0.1724(11) 0.4716(8) 0.2481(5)
H41 H -0.1429 0.4852 0.2834
H42 H -0.2527 0.4680 0.2549
C41 C -0.1587(11) 0.5624(9) 0.2060(5)
H43 H -0.0803 0.5549 0.1913
H44 H -0.2061 0.5592 0.1750
C42 C -0.1904(12) 0.6659(10) 0.2322(6)
H45 H -0.1394 0.6700 0.2616
H46 H -0.2667 0.6705 0.2494
C43 C -0.1862(15) 0.7570(9) 0.1921(6)
H47 H -0.1128 0.7473 0.1716
H48 H -0.2435 0.7566 0.1652
C44 C -0.2040(13) 0.8606(10) 0.2168(6)
H49 H -0.2689 0.8639 0.2436
H50 H -0.1382 0.8651 0.2378
C45 C -0.2227(14) 0.9536(10) 0.1795(7)
H51 H -0.2876 0.9494 0.1579
H52 H -0.1569 0.9523 0.1534
C46 C -0.2431(14) 1.0570(9) 0.2080(6)
H53 H -0.2801 1.1094 0.1832
H54 H -0.1717 1.0748 0.2171
H55 H -0.2905 1.0520 0.2416
C47 C -0.4317(9) 0.3341(8) 0.1030(5)
H56 H -0.4369 0.3321 0.0624
C48 C -0.4976(11) 0.4376(9) 0.1210(5)
H57 H -0.5779 0.4375 0.1169
H58 H -0.4873 0.4455 0.1603
C49 C -0.4622(12) 0.5297(10) 0.0879(6)
H59 H -0.4746 0.5232 0.0487
H60 H -0.3816 0.5292 0.0912
C50 C -0.5287(13) 0.6342(11) 0.1082(6)
H61 H -0.5164 0.6400 0.1475
H62 H -0.4978 0.6899 0.0877
C51 C -0.6542(13) 0.6486(11) 0.1012(6)
H63 H -0.6863 0.5942 0.1223
H64 H -0.6675 0.6429 0.0620
C52 C -0.7141(14) 0.7539(10) 0.1214(7)
H65 H -0.7025 0.7575 0.1609
H66 H -0.6777 0.8073 0.1018
C53 C -0.8366(15) 0.7774(14) 0.1136(7)
H67 H -0.8743 0.7278 0.1357
H68 H -0.8492 0.7688 0.0745
C54 C -0.8905(16) 0.8856(14) 0.1298(9)
H69 H -0.9689 0.8974 0.1209
H70 H -0.8512 0.9354 0.1095
H71 H -0.8855 0.8926 0.1693
C55 C -0.4845(10) 0.2434(9) 0.1287(5)
C56 C -0.4766(10) 0.1509(9) 0.0988(5)
O5 O -0.4317(7) 0.1481(6) 0.0441(3)
C57 C -0.3143(12) 0.1302(10) 0.0361(6)
H72 H -0.2937 0.0900 0.0028
H73 H -0.2829 0.0891 0.0677
O6 O -0.2647(7) 0.2202(6) 0.0301(3)
C58 C -0.5216(10) 0.0675(9) 0.1220(5)
Br4 Br -0.50831(15) -0.05296(11) 0.08076(6)
C59 C -0.5741(10) 0.0695(9) 0.1754(5)
O7 O -0.6253(7) -0.0131(6) 0.1961(3)
C60 C -0.5608(11) -0.0840(10) 0.2340(5)
H74 H -0.5749 -0.1536 0.2283
H75 H -0.4804 -0.0827 0.2258
O8 O -0.5886(7) -0.0598(6) 0.2904(3)
C61 C -0.5812(9) 0.1598(8) 0.2067(5)
C62 C -0.5330(9) 0.2430(9) 0.1818(5)
H76 H -0.5343 0.3012 0.2028
C3A C -0.5239(11) 0.5440(9) 0.5169(5)
C2A C -0.6355(12) 0.5520(11) 0.5401(6)
C1A C -0.6905(12) 0.6356(10) 0.5720(6)
H1A H -0.7660 0.6385 0.5850
C6A C -0.6302(10) 0.7126(9) 0.5833(5)
C5A C -0.5194(11) 0.7051(10) 0.5614(5)
C4A C -0.4675(12) 0.6222(10) 0.5300(5)
H3A H -0.3919 0.6196 0.5173
H4A H -0.4781 0.7575 0.5679
C7A C -0.6924(10) 0.8128(8) 0.6089(5)
H5A H -0.7238 0.8558 0.5773
C8A C -0.6150(10) 0.8782(9) 0.6365(5)
C9A C -0.5302(10) 0.8336(9) 0.6694(5)
H6A H -0.5200 0.7622 0.6754
C10A C -0.4569(10) 0.8901(9) 0.6948(5)
C11A C -0.3669(10) 0.8417(9) 0.7336(5)
H7A H -0.3090 0.8871 0.7325
C12A C -0.3065(11) 0.7338(9) 0.7150(5)
H8A H -0.3632 0.6890 0.7127
H9A H -0.2554 0.7041 0.7434
C13A C -0.2397(13) 0.7362(10) 0.6593(6)
H10A H -0.2919 0.7561 0.6298
H11A H -0.1900 0.7879 0.6596
C14A C -0.1671(16) 0.6288(13) 0.6465(7)
H12A H -0.2132 0.5755 0.6567
H13A H -0.1032 0.6180 0.6702
C15A C -0.123(4) 0.615(3) 0.5877(11)
H16A H -0.1850 0.6321 0.5630
H17A H -0.0686 0.6616 0.5782
C16A C -0.066(3) 0.504(3) 0.5795(17)
H18A H -0.0464 0.4968 0.5398
H19A H -0.1232 0.4601 0.5892
C17A C 0.037(4) 0.459(3) 0.6093(19)
H20A H 0.0939 0.5041 0.6038
H21A H 0.0175 0.4525 0.6492
C21A C 0.082(2) 0.3544(17) 0.5863(11)
H28A H 0.1391 0.3189 0.6095
H29A H 0.0207 0.3149 0.5857
H30A H 0.1140 0.3628 0.5489
C61A C -0.4188(9) 0.8402(8) 0.7933(5)
C59A C -0.4259(10) 0.9305(9) 0.8246(5)
C58A C -0.4784(10) 0.9325(9) 0.8780(5)
C56A C -0.5234(10) 0.8491(9) 0.9012(5)
C55A C -0.5155(10) 0.7566(9) 0.8713(5)
C47A C -0.5683(9) 0.6659(8) 0.8970(5)
C36A C -0.6930(10) 0.6839(9) 0.8864(5)
C35A C -0.7695(11) 0.7428(10) 0.9206(5)
C34A C -0.8851(10) 0.7647(9) 0.9100(5)
C33A C -0.9216(11) 0.7276(9) 0.8622(5)
O4A O -1.0375(7) 0.7471(6) 0.8538(3)
C32A C -1.0758(12) 0.8284(10) 0.8166(5)
O3A O -1.0752(7) 0.7976(6) 0.7613(3)
C30A C -0.9793(11) 0.8012(9) 0.7269(5)
C29A C -0.8860(10) 0.7189(8) 0.7272(5)
C28A C -0.7966(10) 0.7259(8) 0.6898(4)
C27A C -0.7920(9) 0.8032(8) 0.6492(5)
C26A C -0.8856(10) 0.8819(9) 0.6503(5)
O2A O -0.8912(7) 0.9650(6) 0.6100(3)
C25A C -0.8315(11) 1.0459(9) 0.6190(5)
O1A O -0.7205(7) 1.0333(6) 0.5953(3)
C24A C -0.6354(10) 0.9845(9) 0.6289(5)
C23A C -0.5678(10) 1.0423(8) 0.6553(5)
C22A C -0.4811(10) 0.9988(8) 0.6872(5)
O8A O -0.4114(7) 1.0598(6) 0.7096(3)
C60A C -0.4392(11) 1.0840(10) 0.7660(5)
O7A O -0.3747(7) 1.0131(6) 0.8039(3)
H74A H -0.4251 1.1536 0.7717
H75A H -0.5196 1.0827 0.7742
Br1A Br -0.59906(14) 1.18964(10) 0.64542(6)
H34A H -0.8292 1.0531 0.6591
H35A H -0.8731 1.1097 0.6039
C31A C -0.9774(10) 0.8827(9) 0.6881(5)
Br2A Br -1.09803(13) 0.99370(11) 0.69018(7)
H36A H -0.7335 0.6743 0.6917
C39A C -0.8888(10) 0.6329(8) 0.7724(4)
C38A C -0.8476(10) 0.6656(9) 0.8262(5)
C37A C -0.7332(10) 0.6486(8) 0.8381(5)
H39A H -0.6810 0.6121 0.8128
H40A H -0.9688 0.6256 0.7800
C40A C -0.8276(11) 0.5284(8) 0.7519(5)
H41A H -0.8571 0.5148 0.7166
H42A H -0.7473 0.5320 0.7451
C41A C -0.8413(11) 0.4376(9) 0.7940(5)
H43A H -0.9197 0.4451 0.8087
H44A H -0.7939 0.4408 0.8250
C42A C -0.8096(12) 0.3341(10) 0.7678(6)
H45A H -0.8606 0.3300 0.7384
H46A H -0.7333 0.3295 0.7506
C43A C -0.8138(15) 0.2430(9) 0.8079(6)
H47A H -0.8872 0.2527 0.8284
H48A H -0.7565 0.2434 0.8348
C44A C -0.7960(13) 0.1394(10) 0.7832(6)
H49A H -0.7311 0.1361 0.7564
H50A H -0.8618 0.1349 0.7622
C45A C -0.7773(14) 0.0464(10) 0.8205(7)
H51A H -0.7124 0.0506 0.8421
H52A H -0.8431 0.0477 0.8466
C46A C -0.7569(14) -0.0570(9) 0.7920(6)
H53A H -0.7199 -0.1094 0.8168
H54A H -0.8283 -0.0748 0.7829
H55A H -0.7095 -0.0520 0.7584
H37A H -1.1526 0.8587 0.8287
H38A H -1.0280 0.8814 0.8178
Br3A Br -0.98654(14) 0.84937(14) 0.95836(7)
O6A O -0.7353(7) 0.7798(6) 0.9699(3)
C57A C -0.6857(12) 0.8698(10) 0.9639(6)
O5A O -0.5683(7) 0.8519(6) 0.9559(3)
H72A H -0.7063 0.9100 0.9972
H73A H -0.7171 0.9109 0.9323
H56A H -0.5631 0.6679 0.9376
C48A C -0.5024(11) 0.5624(9) 0.8790(5)
H57A H -0.4221 0.5625 0.8831
H58A H -0.5127 0.5545 0.8397
C49A C -0.5378(12) 0.4703(10) 0.9121(6)
H59A H -0.5254 0.4768 0.9513
H60A H -0.6184 0.4708 0.9088
C50A C -0.4713(13) 0.3658(11) 0.8918(6)
H61A H -0.4836 0.3600 0.8525
H62A H -0.5022 0.3101 0.9123
C51A C -0.3458(13) 0.3514(11) 0.8988(6)
H63A H -0.3137 0.4058 0.8777
H64A H -0.3325 0.3571 0.9380
C52A C -0.2859(14) 0.2461(10) 0.8786(7)
H65A H -0.2975 0.2425 0.8391
H66A H -0.3223 0.1927 0.8982
C53A C -0.1634(15) 0.2226(14) 0.8864(7)
H67A H -0.1257 0.2722 0.8643
H68A H -0.1508 0.2312 0.9255
C54A C -0.1095(16) 0.1144(14) 0.8702(9)
H69A H -0.0311 0.1026 0.8791
H70A H -0.1488 0.0646 0.8905
H71A H -0.1145 0.1074 0.8307
C62A C -0.4670(9) 0.7570(9) 0.8182(5)
H76A H -0.4657 0.6988 0.7972
Br4A Br -0.49169(15) 1.05296(11) 0.91924(6)
H2A H -0.6760 0.4989 0.5341
N1 N 0.1542(14) 0.4423(13) 0.1153(7)
O9 O 0.2075(10) 0.4086(9) 0.1554(5)
O10 O 0.0782(13) 0.5124(12) 0.1140(6)
C63 C 0.1866(10) 0.3896(9) 0.0625(5)
C64 C 0.2544(9) 0.2930(9) 0.0648(4)
H77 H 0.2796 0.2648 0.0990
C65 C 0.2844(9) 0.2385(7) 0.0162(6)
H78 H 0.3297 0.1739 0.0178
C66 C 0.2466(11) 0.2806(11) -0.0348(4)
H79 H 0.2667 0.2442 -0.0674
C67 C 0.1789(11) 0.3772(11) -0.0372(4)
H80 H 0.1536 0.4054 -0.0713
C68 C 0.1488(9) 0.4317(8) 0.0115(6)
H81 H 0.1035 0.4963 0.0099
N2 N 0.4827(12) 0.5321(11) 0.2943(6)
O11 O 0.5128(9) 0.4469(9) 0.2727(4)
O12 O 0.5512(12) 0.5644(10) 0.3219(6)
C69 C 0.3757(7) 0.5884(7) 0.2876(4)
C70 C 0.3001(9) 0.5521(6) 0.2545(4)
H82 H 0.3220 0.4908 0.2358
C71 C 0.1917(8) 0.6077(8) 0.2493(4)
H83 H 0.1411 0.5834 0.2271
C72 C 0.1589(7) 0.6994(8) 0.2772(4)
H84 H 0.0863 0.7366 0.2737
C73 C 0.2345(9) 0.7356(6) 0.3104(4)
H85 H 0.2125 0.7970 0.3290
C74 C 0.3429(8) 0.6801(8) 0.3156(4)
H86 H 0.3935 0.7043 0.3377
N4 N 0.296(3) 0.111(3) 0.468(3)
O15 O 0.230(3) 0.177(2) 0.4855(13)
O16 O 0.398(3) 0.101(4) 0.477(3)
C81 C 0.261(2) 0.0085(17) 0.4658(14)
C82 C 0.3618(19) -0.061(2) 0.4607(14)
H92 H 0.4312 -0.0383 0.4625
C83 C 0.359(2) -0.165(2) 0.4528(15)
H93 H 0.4259 -0.2118 0.4494
C84 C 0.255(3) -0.1994(16) 0.4501(15)
H94 H 0.2527 -0.2690 0.4449
C85 C 0.154(2) -0.130(2) 0.4552(15)
H95 H 0.0848 -0.1526 0.4534
C86 C 0.1574(19) -0.0258(19) 0.4631(15)
H96 H 0.0901 0.0209 0.4665
H14? H -0.7841 0.4163 0.3669
H15? H -0.8638 0.4023 0.3192
C18? C -0.928(3) 0.363(3) 0.3961(14)
H22? H -0.8941 0.3347 0.4303
H23? H -0.9705 0.3126 0.3833
C19? C -1.012(3) 0.457(2) 0.4115(16)
H24? H -1.0813 0.4529 0.3934
H25? H -1.0292 0.4521 0.4516
C20? C -0.981(3) 0.561(2) 0.398(3)
H26? H -0.9601 0.5671 0.3581
H27? H -0.9154 0.5696 0.4182
H31? H -1.1223 0.6686 0.3810
H32? H -1.0539 0.7028 0.4288
H33? H -1.1317 0.6179 0.4413
N3? N 0.252(3) 0.088(2) 0.4712(17)
O13? O 0.166(2) 0.147(2) 0.4810(11)
O14? O 0.354(3) 0.090(3) 0.466(3)
C75? C 0.237(2) -0.0222(13) 0.4623(14)
C76? C 0.1263(18) -0.0433(19) 0.4674(16)
H87? H 0.0658 0.0103 0.4724
C77? C 0.1061(18) -0.145(2) 0.4649(15)
H88? H 0.0320 -0.1586 0.4683
C78? C 0.197(3) -0.2247(15) 0.4573(13)
H89? H 0.1831 -0.2924 0.4557
C79? C 0.307(2) -0.2036(14) 0.4522(12)
H90? H 0.3679 -0.2572 0.4472
C80? C 0.3276(17) -0.1024(17) 0.4547(11)
H91? H 0.4017 -0.0883 0.4513
loop_
_geom_bond_atom_site_label_1
_geom_bond_atom_site_label_2
_geom_bond_site_symmetry_1
_geom_bond_site_symmetry_2
C1 H1 1_555 1_555
C2 C1 1_555 1_555
H2 C2 1_555 1_555
C3 C2 1_555 1_555
C4 C3 1_555 1_555
H3 C4 1_555 1_555
C5 C4 1_555 1_555
H4 C5 1_555 1_555
C6 C1 1_555 1_555
C7 C6 1_555 1_555
H5 C7 1_555 1_555
C8 C7 1_555 1_555
C9 C8 1_555 1_555
H6 C9 1_555 1_555
C10 C9 1_555 1_555
C11 C10 1_555 1_555
H7 C11 1_555 1_555
C12 C11 1_555 1_555
H8 C12 1_555 1_555
H9 C12 1_555 1_555
C13 C12 1_555 1_555
H10 C13 1_555 1_555
H11 C13 1_555 1_555
C14 C13 1_555 1_555
H12 C14 1_555 1_555
H13 C14 1_555 1_555
C15 C14 1_555 1_555
H16 C15 1_555 1_555
H17 C15 1_555 1_555
C16 C15 1_555 1_555
H18 C16 1_555 1_555
H19 C16 1_555 1_555
C17 C16 1_555 1_555
H20 C17 1_555 1_555
H21 C17 1_555 1_555
C21 C17 1_555 1_555
H28 C21 1_555 1_555
H29 C21 1_555 1_555
H30 C21 1_555 1_555
C22 C10 1_555 1_555
C23 C22 1_555 1_555
Br1 C23 1_555 1_555
C24 C8 1_555 1_555
O1 C24 1_555 1_555
C25 O1 1_555 1_555
H34 C25 1_555 1_555
H35 C25 1_555 1_555
O2 C25 1_555 1_555
C26 O2 1_555 1_555
C27 C7 1_555 1_555
C28 C27 1_555 1_555
H36 C28 1_555 1_555
C29 C28 1_555 1_555
C30 C29 1_555 1_555
C31 C26 1_555 1_555
Br2 C31 1_555 1_555
O3 C30 1_555 1_555
C32 O3 1_555 1_555
H37 C32 1_555 1_555
H38 C32 1_555 1_555
O4 C32 1_555 1_555
C33 O4 1_555 1_555
C34 C33 1_555 1_555
Br3 C34 1_555 1_555
C35 C34 1_555 1_555
C36 C35 1_555 1_555
C37 C36 1_555 1_555
H39 C37 1_555 1_555
C38 C33 1_555 1_555
C39 C29 1_555 1_555
H40 C39 1_555 1_555
C40 C39 1_555 1_555
H41 C40 1_555 1_555
H42 C40 1_555 1_555
C41 C40 1_555 1_555
H43 C41 1_555 1_555
H44 C41 1_555 1_555
C42 C41 1_555 1_555
H45 C42 1_555 1_555
H46 C42 1_555 1_555
C43 C42 1_555 1_555
H47 C43 1_555 1_555
H48 C43 1_555 1_555
C44 C43 1_555 1_555
H49 C44 1_555 1_555
H50 C44 1_555 1_555
C45 C44 1_555 1_555
H51 C45 1_555 1_555
H52 C45 1_555 1_555
C46 C45 1_555 1_555
H53 C46 1_555 1_555
H54 C46 1_555 1_555
H55 C46 1_555 1_555
C47 C36 1_555 1_555
H56 C47 1_555 1_555
C48 C47 1_555 1_555
H57 C48 1_555 1_555
H58 C48 1_555 1_555
C49 C48 1_555 1_555
H59 C49 1_555 1_555
H60 C49 1_555 1_555
C50 C49 1_555 1_555
H61 C50 1_555 1_555
H62 C50 1_555 1_555
C51 C50 1_555 1_555
H63 C51 1_555 1_555
H64 C51 1_555 1_555
C52 C51 1_555 1_555
H65 C52 1_555 1_555
H66 C52 1_555 1_555
C53 C52 1_555 1_555
H67 C53 1_555 1_555
H68 C53 1_555 1_555
C54 C53 1_555 1_555
H69 C54 1_555 1_555
H70 C54 1_555 1_555
H71 C54 1_555 1_555
C55 C47 1_555 1_555
C56 C55 1_555 1_555
O5 C56 1_555 1_555
C57 O5 1_555 1_555
H72 C57 1_555 1_555
H73 C57 1_555 1_555
O6 C35 1_555 1_555
C58 C56 1_555 1_555
Br4 C58 1_555 1_555
C59 C58 1_555 1_555
O7 C59 1_555 1_555
C60 O7 1_555 1_555
H74 C60 1_555 1_555
H75 C60 1_555 1_555
O8 C22 1_555 1_555
C61 C11 1_555 1_555
C62 C55 1_555 1_555
H76 C62 1_555 1_555
N1 O9 1_555 1_555
O10 N1 1_555 1_555
C63 N1 1_555 1_555
C64 C63 1_555 1_555
H77 C64 1_555 1_555
C65 C64 1_555 1_555
H78 C65 1_555 1_555
C66 C65 1_555 1_555
H79 C66 1_555 1_555
C67 C66 1_555 1_555
H80 C67 1_555 1_555
C68 C63 1_555 1_555
H81 C68 1_555 1_555
N2 O11 1_555 1_555
O12 N2 1_555 1_555
C69 N2 1_555 1_555
C70 C69 1_555 1_555
H82 C70 1_555 1_555
C71 C70 1_555 1_555
H83 C71 1_555 1_555
C72 C71 1_555 1_555
H84 C72 1_555 1_555
C73 C72 1_555 1_555
H85 C73 1_555 1_555
C74 C69 1_555 1_555
H86 C74 1_555 1_555
N4 O15 1_555 1_555
O16 N4 1_555 1_555
C81 N4 1_555 1_555
C82 C81 1_555 1_555
H92 C82 1_555 1_555
C83 C82 1_555 1_555
H93 C83 1_555 1_555
C84 C83 1_555 1_555
H94 C84 1_555 1_555
C85 C84 1_555 1_555
H95 C85 1_555 1_555
C86 C81 1_555 1_555
H96 C86 1_555 1_555
C3A C3 1_555 1_555
C2A C3A 1_555 1_555
C1A C2A 1_555 1_555
H1A C1A 1_555 1_555
C6A C1A 1_555 1_555
C5A C6A 1_555 1_555
C4A C3A 1_555 1_555
H3A C4A 1_555 1_555
H4A C5A 1_555 1_555
C7A C6A 1_555 1_555
H5A C7A 1_555 1_555
C8A C7A 1_555 1_555
C9A C8A 1_555 1_555
H6A C9A 1_555 1_555
C10A C9A 1_555 1_555
C11A C10A 1_555 1_555
H7A C11A 1_555 1_555
C12A C11A 1_555 1_555
H8A C12A 1_555 1_555
H9A C12A 1_555 1_555
C13A C12A 1_555 1_555
H10A C13A 1_555 1_555
H11A C13A 1_555 1_555
C14A C13A 1_555 1_555
H12A C14A 1_555 1_555
H13A C14A 1_555 1_555
C15A C14A 1_555 1_555
H16A C15A 1_555 1_555
H17A C15A 1_555 1_555
C16A C15A 1_555 1_555
H18A C16A 1_555 1_555
H19A C16A 1_555 1_555
C17A C16A 1_555 1_555
H20A C17A 1_555 1_555
H21A C17A 1_555 1_555
C21A C17A 1_555 1_555
H28A C21A 1_555 1_555
H29A C21A 1_555 1_555
H30A C21A 1_555 1_555
C61A C11A 1_555 1_555
C59A C61A 1_555 1_555
C58A C59A 1_555 1_555
C56A C58A 1_555 1_555
C55A C56A 1_555 1_555
C47A C55A 1_555 1_555
C36A C47A 1_555 1_555
C35A C36A 1_555 1_555
C34A C35A 1_555 1_555
C33A C34A 1_555 1_555
O4A C33A 1_555 1_555
C32A O4A 1_555 1_555
O3A C32A 1_555 1_555
C30A O3A 1_555 1_555
C29A C30A 1_555 1_555
C28A C29A 1_555 1_555
C27A C7A 1_555 1_555
C26A C27A 1_555 1_555
O2A C26A 1_555 1_555
C25A O2A 1_555 1_555
O1A C25A 1_555 1_555
C24A C8A 1_555 1_555
C23A C24A 1_555 1_555
C22A C10A 1_555 1_555
O8A C22A 1_555 1_555
C60A O8A 1_555 1_555
O7A C59A 1_555 1_555
H74A C60A 1_555 1_555
H75A C60A 1_555 1_555
Br1A C23A 1_555 1_555
H34A C25A 1_555 1_555
H35A C25A 1_555 1_555
C31A C30A 1_555 1_555
Br2A C31A 1_555 1_555
H36A C28A 1_555 1_555
C39A C29A 1_555 1_555
C38A C33A 1_555 1_555
C37A C36A 1_555 1_555
H39A C37A 1_555 1_555
H40A C39A 1_555 1_555
C40A C39A 1_555 1_555
H41A C40A 1_555 1_555
H42A C40A 1_555 1_555
C41A C40A 1_555 1_555
H43A C41A 1_555 1_555
H44A C41A 1_555 1_555
C42A C41A 1_555 1_555
H45A C42A 1_555 1_555
H46A C42A 1_555 1_555
C43A C42A 1_555 1_555
H47A C43A 1_555 1_555
H48A C43A 1_555 1_555
C44A C43A 1_555 1_555
H49A C44A 1_555 1_555
H50A C44A 1_555 1_555
C45A C44A 1_555 1_555
H51A C45A 1_555 1_555
H52A C45A 1_555 1_555
C46A C45A 1_555 1_555
H53A C46A 1_555 1_555
H54A C46A 1_555 1_555
H55A C46A 1_555 1_555
H37A C32A 1_555 1_555
H38A C32A 1_555 1_555
Br3A C34A 1_555 1_555
O6A C35A 1_555 1_555
C57A O6A 1_555 1_555
O5A C56A 1_555 1_555
H72A C57A 1_555 1_555
H73A C57A 1_555 1_555
H56A C47A 1_555 1_555
C48A C47A 1_555 1_555
H57A C48A 1_555 1_555
H58A C48A 1_555 1_555
C49A C48A 1_555 1_555
H59A C49A 1_555 1_555
H60A C49A 1_555 1_555
C50A C49A 1_555 1_555
H61A C50A 1_555 1_555
H62A C50A 1_555 1_555
C51A C50A 1_555 1_555
H63A C51A 1_555 1_555
H64A C51A 1_555 1_555
C52A C51A 1_555 1_555
H65A C52A 1_555 1_555
H66A C52A 1_555 1_555
C53A C52A 1_555 1_555
H67A C53A 1_555 1_555
H68A C53A 1_555 1_555
C54A C53A 1_555 1_555
H69A C54A 1_555 1_555
H70A C54A 1_555 1_555
H71A C54A 1_555 1_555
C62A C61A 1_555 1_555
H76A C62A 1_555 1_555
Br4A C58A 1_555 1_555
H2A C2A 1_555 1_555
C5 C6 1_555 1_555
C23 C24 1_555 1_555
C26 C27 1_555 1_555
C30 C31 1_555 1_555
C37 C38 1_555 1_555
C38 C39 1_555 1_555
C57 O6 1_555 1_555
C59 C61 1_555 1_555
C60 O8 1_555 1_555
C61 C62 1_555 1_555
C67 C68 1_555 1_555
C73 C74 1_555 1_555
C85 C86 1_555 1_555
C5A C4A 1_555 1_555
C55A C62A 1_555 1_555
C28A C27A 1_555 1_555
C26A C31A 1_555 1_555
O1A C24A 1_555 1_555
C23A C22A 1_555 1_555
C60A O7A 1_555 1_555
C39A C38A 1_555 1_555
C38A C37A 1_555 1_555
C57A O5A 1_555 1_555

#END
