
#######################################################################
#
#                 Cambridge Crystallographic Data Centre
#                                CCDC 
#
#######################################################################
#
# If this CIF has been generated from an entry in the Cambridge 
# Structural Database, then it will include bibliographic, chemical, 
# crystal, experimental, refinement or atomic coordinate data resulting 
# from the CCDC's data processing and validation procedures.
#
#######################################################################

data_ELANAI
_chemical_formula_moiety         'C20 H38 N8 2+,2(Cl1 O4 1-)'
_chemical_name_systematic        
'9,12,13,22,25,26-hexaaza-3,16-diazoniatricyclo[22.2.1.1^11,14^]octacosa-1(26),11(28),13,24(27)-tetraene diperchlorate'
_symmetry_cell_setting           triclinic
_symmetry_space_group_name_H-M   'P -1'
_symmetry_Int_Tables_number      2
_space_group_name_Hall           '-P 1'
loop_
_symmetry_equiv_pos_site_id
_symmetry_equiv_pos_as_xyz
1 x,y,z
2 -x,-y,-z
_cell_length_a                   8.9190(3)
_cell_length_b                   9.3360(4)
_cell_length_c                   9.7410(3)
_cell_angle_alpha                65.970(2)
_cell_angle_beta                 89.173(2)
_cell_angle_gamma                70.563(2)
_cell_volume                     691.657
_exptl_crystal_colour            colorless
_exptl_crystal_description       block
_cell_formula_units_Z            1
loop_
_atom_site_label
_atom_site_type_symbol
_atom_site_fract_x
_atom_site_fract_y
_atom_site_fract_z
N1 N 0.2158(2) 0.1844(2) 0.2127(2)
H1 H 0.2429 0.0668 0.2349
H2 H 0.0998 0.2344 0.2021
N2 N 0.1052(2) 0.5778(2) 0.3794(2)
H3 H 0.038(3) 0.6323(14) 0.424(2)
N3 N 0.1254(2) 0.4157(2) 0.4141(2)
N4 N 0.2976(2) 0.8402(2) 0.3125(2)
H4 H 0.2639(19) 0.819(3) 0.402(2)
C1 C 0.2701(3) 0.2689(3) 0.0656(3)
H5 H 0.2336 0.3874 0.0378
H6 H 0.3853 0.2246 0.0772
C2 C 0.4695(3) 0.7390(3) 0.3322(3)
H7 H 0.5272 0.7486 0.4086
H8 H 0.4820 0.6235 0.3633
C3 C 0.1968(3) 0.6358(3) 0.2756(2)
C4 C 0.2055(3) 0.2430(3) -0.0614(3)
H9 H 0.2281 0.1252 -0.0290
H10 H 0.0914 0.3021 -0.0851
C5 C 0.2348(3) 0.3714(3) 0.3305(2)
C6 C 0.2884(3) 0.1961(3) 0.3437(3)
H11 H 0.2581 0.1285 0.4358
H12 H 0.4032 0.1556 0.3497
C7 C 0.1921(3) 0.8126(3) 0.2182(3)
H13 H 0.0827 0.8824 0.2105
H14 H 0.2239 0.8410 0.1188
C8 C 0.2832(3) 0.5048(3) 0.2426(3)
H15 H 0.3580 0.5200 0.1709
C9 C 0.2817(3) 0.3051(3) -0.2039(3)
H16 H 0.2282 0.3015 -0.2866
H17 H 0.2724 0.4187 -0.2291
C10 C 0.5425(3) 0.7969(3) 0.1878(3)
H18 H 0.4861 0.7869 0.1109
H19 H 0.5310 0.9122 0.1561
N1A N 0.7842(2) 0.8156(2) -0.2127(2)
H1A H 0.7571 0.9332 -0.2349
H2A H 0.9002 0.7656 -0.2021
N2A N 0.8948(2) 0.4222(2) -0.3794(2)
H3A H 0.962(3) 0.3677(14) -0.424(2)
N3A N 0.8746(2) 0.5843(2) -0.4141(2)
N4A N 0.7024(2) 0.1598(2) -0.3125(2)
H4A H 0.7361(19) 0.181(3) -0.402(2)
C1A C 0.7299(3) 0.7311(3) -0.0656(3)
H5A H 0.7664 0.6126 -0.0378
H6A H 0.6147 0.7754 -0.0772
C2A C 0.5305(3) 0.2610(3) -0.3322(3)
H7A H 0.4728 0.2514 -0.4086
H8A H 0.5180 0.3765 -0.3633
C3A C 0.8032(3) 0.3642(3) -0.2756(2)
C4A C 0.7945(3) 0.7570(3) 0.0614(3)
H9A H 0.7719 0.8748 0.0290
H10A H 0.9086 0.6979 0.0851
C5A C 0.7652(3) 0.6286(3) -0.3305(2)
C6A C 0.7116(3) 0.8039(3) -0.3437(3)
H11A H 0.7419 0.8715 -0.4358
H12A H 0.5968 0.8444 -0.3497
C7A C 0.8079(3) 0.1874(3) -0.2182(3)
H13A H 0.9173 0.1176 -0.2105
H14A H 0.7761 0.1590 -0.1188
C8A C 0.7168(3) 0.4952(3) -0.2426(3)
H15A H 0.6420 0.4800 -0.1709
C9A C 0.7183(3) 0.6949(3) 0.2039(3)
H16A H 0.7718 0.6985 0.2866
H17A H 0.7276 0.5813 0.2291
C10A C 0.4575(3) 0.2031(3) -0.1878(3)
H18A H 0.5139 0.2131 -0.1109
H19A H 0.4690 0.0878 -0.1561
O1 O 0.9129(9) 0.0373(12) 0.3666(9)
O2 O 0.720(2) 0.234(3) 0.3359(18)
O3 O 0.8672(18) 0.250(2) 0.1545(12)
O4 O 0.7078(18) 0.119(2) 0.1734(18)
Cl1 Cl 0.7734(4) 0.1838(6) 0.2440(6)
O5? O 0.6285(7) 0.3163(13) 0.1189(7)
O6? O 0.6792(8) 0.2216(14) 0.3577(8)
O7? O 0.8746(13) 0.2717(18) 0.1882(17)
O8? O 0.7949(19) 0.0354(15) 0.259(2)
Cl2? Cl 0.7741(8) 0.1863(10) 0.2508(10)
loop_
_geom_bond_atom_site_label_1
_geom_bond_atom_site_label_2
_geom_bond_site_symmetry_1
_geom_bond_site_symmetry_2
N1 H1 1_555 1_555
H2 N1 1_555 1_555
N2 H3 1_555 1_555
N3 N2 1_555 1_555
N4 H4 1_555 1_555
C1 N1 1_555 1_555
H5 C1 1_555 1_555
H6 C1 1_555 1_555
C2 N4 1_555 1_555
H7 C2 1_555 1_555
H8 C2 1_555 1_555
C3 N2 1_555 1_555
C4 C1 1_555 1_555
H9 C4 1_555 1_555
H10 C4 1_555 1_555
C5 N3 1_555 1_555
C6 N1 1_555 1_555
H11 C6 1_555 1_555
H12 C6 1_555 1_555
C7 N4 1_555 1_555
H13 C7 1_555 1_555
H14 C7 1_555 1_555
C8 C3 1_555 1_555
H15 C8 1_555 1_555
C9 C4 1_555 1_555
H16 C9 1_555 1_555
H17 C9 1_555 1_555
C10 C2 1_555 1_555
H18 C10 1_555 1_555
H19 C10 1_555 1_555
O1 Cl1 1_555 1_555
O2 Cl1 1_555 1_555
O3 Cl1 1_555 1_555
O4 Cl1 1_555 1_555
N1A H1A 1_555 1_555
H2A N1A 1_555 1_555
N2A H3A 1_555 1_555
N3A N2A 1_555 1_555
N4A H4A 1_555 1_555
C1A N1A 1_555 1_555
H5A C1A 1_555 1_555
H6A C1A 1_555 1_555
C2A N4A 1_555 1_555
H7A C2A 1_555 1_555
H8A C2A 1_555 1_555
C3A N2A 1_555 1_555
C4A C1A 1_555 1_555
H9A C4A 1_555 1_555
H10A C4A 1_555 1_555
C5A N3A 1_555 1_555
C6A N1A 1_555 1_555
H11A C6A 1_555 1_555
H12A C6A 1_555 1_555
C7A N4A 1_555 1_555
H13A C7A 1_555 1_555
H14A C7A 1_555 1_555
C8A C3A 1_555 1_555
H15A C8A 1_555 1_555
C9A C10 1_555 1_555
H16A C9A 1_555 1_555
H17A C9A 1_555 1_555
C10A C9 1_555 1_555
H18A C10A 1_555 1_555
H19A C10A 1_555 1_555
C3 C7 1_555 1_555
C5 C6 1_555 1_555
C5 C8 1_555 1_555
C2A C10A 1_555 1_555
C3A C7A 1_555 1_555
C4A C9A 1_555 1_555
C5A C6A 1_555 1_555
C5A C8A 1_555 1_555

#END
