
#######################################################################
#
#                 Cambridge Crystallographic Data Centre
#                                CCDC 
#
#######################################################################
#
# If this CIF has been generated from an entry in the Cambridge 
# Structural Database, then it will include bibliographic, chemical, 
# crystal, experimental, refinement or atomic coordinate data resulting 
# from the CCDC's data processing and validation procedures.
#
#######################################################################

data_ELAPOW
_chemical_formula_moiety         'C12 H15 N3 O6'
_chemical_name_systematic        
N,N-bis(2,5-Dioxopyrrolidin-1-ylmethyl)glycine
_symmetry_cell_setting           triclinic
_symmetry_space_group_name_H-M   'P -1'
_symmetry_Int_Tables_number      2
_space_group_name_Hall           '-P 1'
loop_
_symmetry_equiv_pos_site_id
_symmetry_equiv_pos_as_xyz
1 x,y,z
2 -x,-y,-z
_cell_length_a                   7.2493(3)
_cell_length_b                   8.9287(4)
_cell_length_c                   10.6594(4)
_cell_angle_alpha                90.419(3)
_cell_angle_beta                 91.287(3)
_cell_angle_gamma                103.153(3)
_cell_volume                     671.625
_chemical_melting_point          169-170deg.C
_cell_formula_units_Z            2
loop_
_atom_site_label
_atom_site_type_symbol
_atom_site_fract_x
_atom_site_fract_y
_atom_site_fract_z
O1 O 0.88523(13) 0.38753(12) 0.37117(8)
O2 O 0.77512(14) 0.46128(13) 0.54965(8)
O3 O 0.72908(15) 0.02816(16) 0.46134(9)
O4 O 0.72029(15) 0.07585(14) 0.03880(8)
O5 O 0.64563(18) 0.67324(13) 0.28057(12)
O6 O 0.1930(2) 0.33745(13) 0.05732(13)
N1 N 0.50667(13) 0.26327(10) 0.27898(8)
N2 N 0.68960(12) 0.06349(10) 0.25142(8)
N3 N 0.44177(14) 0.48079(10) 0.17096(9)
C1 C 0.75111(16) 0.39479(13) 0.44240(10)
C2 C 0.54747(15) 0.32503(13) 0.40426(10)
C3 C 0.50423(14) 0.10453(12) 0.25770(10)
C4 C 0.78536(16) 0.02576(15) 0.35591(11)
C5 C 0.96521(19) -0.0139(2) 0.31326(13)
C6 C 0.95575(19) -0.00834(19) 0.17095(13)
C7 C 0.78003(16) 0.04847(13) 0.14065(10)
C8 C 0.55726(18) 0.36685(14) 0.17576(11)
C9 C 0.4984(2) 0.62763(13) 0.22290(12)
C10 C 0.3476(2) 0.71293(15) 0.19344(14)
C11 C 0.1857(2) 0.59483(17) 0.13324(15)
C12 C 0.26457(19) 0.45399(14) 0.11322(12)
H1 H 0.997(6) 0.434(4) 0.409(3)
H3 H 0.502(2) 0.2471(19) 0.4651(15)
H4 H 0.480(2) 0.4062(18) 0.4185(14)
H5 H 0.4391(19) 0.0453(16) 0.3267(13)
H6 H 0.4404(19) 0.0702(15) 0.1753(13)
H7 H 0.974(3) -0.117(3) 0.348(2)
H8 H 1.060(3) 0.063(2) 0.3490(18)
H9 H 0.942(3) -0.116(2) 0.1300(19)
H10 H 1.058(3) 0.053(2) 0.1346(19)
H11 H 0.690(2) 0.4266(19) 0.1820(15)
H12 H 0.533(2) 0.3072(17) 0.0981(14)
H13 H 0.314(3) 0.757(2) 0.2683(19)
H14 H 0.397(3) 0.793(2) 0.1332(17)
H15 H 0.082(3) 0.565(2) 0.1917(18)
H16 H 0.139(3) 0.624(2) 0.0521(17)
H2? H 0.884(6) 0.503(5) 0.570(4)
loop_
_geom_bond_atom_site_label_1
_geom_bond_atom_site_label_2
_geom_bond_site_symmetry_1
_geom_bond_site_symmetry_2
O1 C1 1_555 1_555
O2 C1 1_555 1_555
O3 C4 1_555 1_555
O4 C7 1_555 1_555
O5 C9 1_555 1_555
O6 C12 1_555 1_555
N1 C2 1_555 1_555
N2 C3 1_555 1_555
N3 C8 1_555 1_555
C1 C2 1_555 1_555
C2 H3 1_555 1_555
C3 N1 1_555 1_555
C4 N2 1_555 1_555
C5 C4 1_555 1_555
C6 C5 1_555 1_555
C7 N2 1_555 1_555
C8 N1 1_555 1_555
C9 N3 1_555 1_555
C10 C9 1_555 1_555
C11 C10 1_555 1_555
C12 N3 1_555 1_555
H1 O1 1_555 1_555
H4 C2 1_555 1_555
H5 C3 1_555 1_555
H6 C3 1_555 1_555
H7 C5 1_555 1_555
H8 C5 1_555 1_555
H9 C6 1_555 1_555
H10 C6 1_555 1_555
H11 C8 1_555 1_555
H12 C8 1_555 1_555
H13 C10 1_555 1_555
H14 C10 1_555 1_555
H15 C11 1_555 1_555
H16 C11 1_555 1_555
C6 C7 1_555 1_555
C11 C12 1_555 1_555

#END
