
#######################################################################
#
#                 Cambridge Crystallographic Data Centre
#                                CCDC 
#
#######################################################################
#
# If this CIF has been generated from an entry in the Cambridge 
# Structural Database, then it will include bibliographic, chemical, 
# crystal, experimental, refinement or atomic coordinate data resulting 
# from the CCDC's data processing and validation procedures.
#
#######################################################################

data_ELAPAI
_chemical_formula_moiety         'C16 H22 N2 O3'
_chemical_name_systematic        
(2R,5S,5'S)-2,5-Dihydro-3,6-dimethoxy-2-isopropylpyrazine-5-spiro-(3'-oxobicyclo[3.3.0]oct-1'-en-7'-yl)
_symmetry_cell_setting           orthorhombic
_symmetry_space_group_name_H-M   'P 21 21 21'
_symmetry_Int_Tables_number      19
_space_group_name_Hall           'P 2ac 2ab'
loop_
_symmetry_equiv_pos_site_id
_symmetry_equiv_pos_as_xyz
1 x,y,z
2 1/2-x,-y,1/2+z
3 -x,1/2+y,1/2-z
4 1/2+x,1/2-y,-z
_cell_length_a                   8.8936(2)
_cell_length_b                   11.3686(3)
_cell_length_c                   15.0576(3)
_cell_angle_alpha                90
_cell_angle_beta                 90
_cell_angle_gamma                90
_cell_volume                     1522.44
_chemical_melting_point          82-83deg.C
_cell_formula_units_Z            4
loop_
_atom_site_label
_atom_site_type_symbol
_atom_site_fract_x
_atom_site_fract_y
_atom_site_fract_z
O1 O -0.42971(9) 0.56788(9) 0.22745(5)
O2 O 0.14926(9) 0.69896(8) 0.21029(5)
O3 O 0.24362(11) 0.56465(9) -0.19566(6)
N1 N -0.21374(10) 0.57504(9) 0.14608(6)
N2 N -0.06865(10) 0.69807(8) 0.28985(6)
C1 C -0.05985(11) 0.61801(9) 0.13507(6)
C2 C -0.28415(12) 0.60066(10) 0.21669(7)
C3 C -0.22822(12) 0.66970(10) 0.29570(7)
H1 H -0.2834(18) 0.7429(14) 0.2941(11)
C4 C 0.00064(12) 0.67410(9) 0.21908(7)
C5 C -0.49711(14) 0.50717(14) 0.15361(9)
H2 H -0.444(2) 0.4334(17) 0.1423(12)
H3 H -0.601(2) 0.4933(17) 0.1736(12)
H4 H -0.494(2) 0.5558(18) 0.1050(13)
C6 C -0.26144(14) 0.60753(11) 0.38513(7)
H5 H -0.3697(16) 0.5938(13) 0.3865(9)
C7 C -0.17849(17) 0.49062(12) 0.39208(9)
H6 H -0.217(2) 0.4358(16) 0.3486(13)
H7 H -0.076(3) 0.5035(19) 0.3878(13)
H8 H -0.199(2) 0.457(2) 0.4477(15)
C8 C -0.2219(2) 0.68870(15) 0.46225(9)
H9 H -0.286(3) 0.760(2) 0.4577(13)
H10 H -0.114(2) 0.7048(17) 0.4619(12)
H11 H -0.248(2) 0.6523(18) 0.5181(13)
C9 C 0.22169(15) 0.74627(12) 0.28783(8)
H12 H 0.327(2) 0.7467(17) 0.2748(12)
H13 H 0.1774(18) 0.8268(15) 0.3009(11)
H14 H 0.2007(19) 0.6922(15) 0.3345(11)
C10 C -0.05804(12) 0.70956(10) 0.05606(7)
H15 H -0.1570(19) 0.7172(14) 0.0338(10)
H16 H -0.0239(19) 0.7885(15) 0.0765(11)
C11 C 0.04908(12) 0.65840(9) -0.00954(7)
C12 C 0.15021(12) 0.57035(10) 0.03557(7)
H17 H 0.2292(18) 0.6085(14) 0.0665(10)
C13 C 0.04316(12) 0.51504(9) 0.10360(7)
H18 H 0.0956(17) 0.4741(14) 0.1492(11)
H19 H -0.0244(18) 0.4611(14) 0.0739(11)
C14 C 0.06646(13) 0.66135(10) -0.09815(7)
H20 H 0.0137(19) 0.7077(15) -0.1357(12)
C15 C 0.18291(13) 0.57511(11) -0.12359(7)
C16 C 0.21593(13) 0.49937(11) -0.04166(7)
H21 H 0.163(2) 0.4297(17) -0.0475(12)
H22 H 0.3239(18) 0.4836(15) -0.0359(11)
loop_
_geom_bond_atom_site_label_1
_geom_bond_atom_site_label_2
_geom_bond_site_symmetry_1
_geom_bond_site_symmetry_2
O1 C2 1_555 1_555
O2 C4 1_555 1_555
O3 C15 1_555 1_555
N1 C1 1_555 1_555
N2 C3 1_555 1_555
C1 C4 1_555 1_555
C2 N1 1_555 1_555
C3 C2 1_555 1_555
H1 C3 1_555 1_555
C4 N2 1_555 1_555
C5 O1 1_555 1_555
H2 C5 1_555 1_555
H3 C5 1_555 1_555
H4 C5 1_555 1_555
C6 C3 1_555 1_555
H5 C6 1_555 1_555
C7 C6 1_555 1_555
H6 C7 1_555 1_555
H7 C7 1_555 1_555
H8 C7 1_555 1_555
C8 C6 1_555 1_555
H9 C8 1_555 1_555
H10 C8 1_555 1_555
H11 C8 1_555 1_555
C9 O2 1_555 1_555
H12 C9 1_555 1_555
H13 C9 1_555 1_555
H14 C9 1_555 1_555
C10 C1 1_555 1_555
H15 C10 1_555 1_555
H16 C10 1_555 1_555
C11 C10 1_555 1_555
C12 C11 1_555 1_555
H17 C12 1_555 1_555
C13 C1 1_555 1_555
H18 C13 1_555 1_555
H19 C13 1_555 1_555
C14 C11 1_555 1_555
H20 C14 1_555 1_555
C15 C14 1_555 1_555
C16 C12 1_555 1_555
H21 C16 1_555 1_555
H22 C16 1_555 1_555
C12 C13 1_555 1_555
C15 C16 1_555 1_555

#END
