
#######################################################################
#
#                 Cambridge Crystallographic Data Centre
#                                CCDC 
#
#######################################################################
#
# If this CIF has been generated from an entry in the Cambridge 
# Structural Database, then it will include bibliographic, chemical, 
# crystal, experimental, refinement or atomic coordinate data resulting 
# from the CCDC's data processing and validation procedures.
#
#######################################################################

data_ELAQUE
_chemical_formula_moiety         
'2(C9 H18 N1 O1),C10 H6 O6 S2 2-,2(C1 H6 N3 1+)'
_chemical_name_systematic        
'bis(guanidinium) naphthalene-2,6-disulfonate bis(2,2,6,6-tetramethylpiperidine-1-oxyl)'
_symmetry_cell_setting           orthorhombic
_symmetry_space_group_name_H-M   'P b c a'
_symmetry_Int_Tables_number      61
_space_group_name_Hall           '-P 2ac 2ab'
loop_
_symmetry_equiv_pos_site_id
_symmetry_equiv_pos_as_xyz
1 x,y,z
2 1/2-x,-y,1/2+z
3 -x,1/2+y,1/2-z
4 1/2+x,1/2-y,-z
5 -x,-y,-z
6 1/2+x,y,1/2-z
7 x,1/2-y,1/2+z
8 1/2-x,1/2+y,z
_cell_length_a                   12.7246(8)
_cell_length_b                   12.4100(8)
_cell_length_c                   24.2921(15)
_cell_angle_alpha                90
_cell_angle_beta                 90
_cell_angle_gamma                90
_cell_volume                     3836.02
_exptl_crystal_colour            orange
_exptl_crystal_description       block
_cell_formula_units_Z            4
loop_
_atom_site_label
_atom_site_type_symbol
_atom_site_fract_x
_atom_site_fract_y
_atom_site_fract_z
S1 S 0.07662(2) 0.51647(2) 0.170205(10)
C1 C 0.05435(8) 0.49399(8) 0.09934(4)
C2 C 0.07407(9) 0.38950(9) 0.07822(5)
H1 H 0.1023 0.3351 0.1014
C4 C 0.01417(8) 0.57415(8) 0.06685(4)
H2 H 0.0022 0.6439 0.0817
C6 C -0.00949(8) 0.55241(8) 0.01070(4)
C8 C 0.05231(10) 0.36716(9) 0.02417(5)
H3 H 0.0660 0.2973 0.0099
O1 O 0.07400(6) 0.63283(6) 0.17935(3)
O2 O -0.00721(7) 0.46000(7) 0.19940(3)
O3 O 0.17976(7) 0.47042(7) 0.18270(3)
S1D S -0.07662(2) 0.48353(2) -0.170205(10)
C1D C -0.05435(8) 0.50601(8) -0.09934(4)
C2D C -0.07407(9) 0.61050(9) -0.07822(5)
H1D H -0.1023 0.6649 -0.1014
C4D C -0.01417(8) 0.42585(8) -0.06685(4)
H2D H -0.0022 0.3561 -0.0817
C6D C 0.00949(8) 0.44759(8) -0.01070(4)
C8D C -0.05231(10) 0.63284(9) -0.02417(5)
H3D H -0.0660 0.7027 -0.0099
O1D O -0.07400(6) 0.36717(6) -0.17935(3)
O2D O 0.00721(7) 0.54000(7) -0.19940(3)
O3D O -0.17976(7) 0.52958(7) -0.18270(3)
C3 C 0.15222(9) 0.19512(9) 0.23058(4)
N1 N 0.17122(8) 0.09654(8) 0.24958(4)
H22 H 0.1246 0.0640 0.2705
H23 H 0.2304 0.0638 0.2412
N3 N 0.06309(8) 0.24435(8) 0.24319(4)
H24 H 0.0504 0.3095 0.2305
H25 H 0.0165 0.2119 0.2642
N4 N 0.22281(8) 0.24373(8) 0.19881(4)
H26 H 0.2104 0.3089 0.1861
H27 H 0.2820 0.2108 0.1905
C5 C 0.68860(9) 0.44476(10) 0.10104(5)
C7 C 0.48234(9) 0.46903(10) 0.10180(5)
C9 C 0.44797(10) 0.41741(11) 0.15619(5)
H4 H 0.4487 0.3388 0.1524
H5 H 0.3767 0.4415 0.1654
H6 H 0.4965 0.4390 0.1855
C10 C 0.69607(12) 0.56728(11) 0.10630(7)
H7 H 0.7621 0.5860 0.1257
H8 H 0.6993 0.5993 0.0690
C11 C 0.76596(11) 0.40423(13) 0.05780(6)
H9 H 0.7601 0.3257 0.0546
H10 H 0.8377 0.4234 0.0688
H11 H 0.7498 0.4375 0.0222
C12 C 0.71298(12) 0.38912(14) 0.15608(6)
H12 H 0.6705 0.4218 0.1853
H13 H 0.7877 0.3979 0.1648
H14 H 0.6963 0.3122 0.1533
C13 C 0.50281(13) 0.58964(12) 0.10776(7)
H15 H 0.5048 0.6225 0.0706
H16 H 0.4435 0.6226 0.1281
C14 C 0.60385(15) 0.61629(12) 0.13734(8)
H17 H 0.6016 0.5873 0.1753
H18 H 0.6125 0.6954 0.1396
C15 C 0.39683(13) 0.44872(19) 0.05920(7)
H19 H 0.4200 0.4757 0.0233
H20 H 0.3324 0.4862 0.0702
H21 H 0.3830 0.3712 0.0567
N2 N 0.58048(7) 0.41477(8) 0.08256(4)
O4 O 0.56982(8) 0.31790(9) 0.06562(5)
loop_
_geom_bond_atom_site_label_1
_geom_bond_atom_site_label_2
_geom_bond_site_symmetry_1
_geom_bond_site_symmetry_2
S1 C1 1_555 1_555
C1 C2 1_555 1_555
C2 H1 1_555 1_555
C3 N1 1_555 1_555
C4 C1 1_555 1_555
H2 C4 1_555 1_555
C5 C10 1_555 1_555
C6 C4 1_555 1_555
C7 C9 1_555 1_555
C8 C2 1_555 1_555
H3 C8 1_555 1_555
C9 H4 1_555 1_555
H5 C9 1_555 1_555
H6 C9 1_555 1_555
C10 H7 1_555 1_555
H8 C10 1_555 1_555
C11 C5 1_555 1_555
H9 C11 1_555 1_555
H10 C11 1_555 1_555
H11 C11 1_555 1_555
C12 C5 1_555 1_555
H12 C12 1_555 1_555
H13 C12 1_555 1_555
H14 C12 1_555 1_555
C13 C7 1_555 1_555
H15 C13 1_555 1_555
H16 C13 1_555 1_555
C14 C10 1_555 1_555
H17 C14 1_555 1_555
H18 C14 1_555 1_555
C15 C7 1_555 1_555
H19 C15 1_555 1_555
H20 C15 1_555 1_555
H21 C15 1_555 1_555
N1 H22 1_555 1_555
H23 N1 1_555 1_555
N2 C5 1_555 1_555
N3 C3 1_555 1_555
H24 N3 1_555 1_555
H25 N3 1_555 1_555
N4 C3 1_555 1_555
H26 N4 1_555 1_555
H27 N4 1_555 1_555
O1 S1 1_555 1_555
O2 S1 1_555 1_555
O3 S1 1_555 1_555
O4 N2 1_555 1_555
S1D C1D 1_555 1_555
C1D C2D 1_555 1_555
C2D H1D 1_555 1_555
C4D C1D 1_555 1_555
H2D C4D 1_555 1_555
C6D C6 1_555 1_555
C8D C6 1_555 1_555
H3D C8D 1_555 1_555
O1D S1D 1_555 1_555
O2D S1D 1_555 1_555
O3D S1D 1_555 1_555
C7 N2 1_555 1_555
C8 C6D 1_555 1_555
C13 C14 1_555 1_555
C2D C8D 1_555 1_555
C4D C6D 1_555 1_555

#END
