
#######################################################################
#
#                 Cambridge Crystallographic Data Centre
#                                CCDC 
#
#######################################################################
#
# If this CIF has been generated from an entry in the Cambridge 
# Structural Database, then it will include bibliographic, chemical, 
# crystal, experimental, refinement or atomic coordinate data resulting 
# from the CCDC's data processing and validation procedures.
#
#######################################################################

data_ELAREP
_chemical_formula_moiety         
'C12 H8 N2 O6 S2 2-,2(C1 H6 N3 1+),C1 H4 O1,0.5(C9 H18 N1 O1)'
_chemical_name_systematic        
"bis(guanidinium) 4,4'-diazene-1,2-diyldibenzenesulfonate hemikis(2,2,6,6-tetramethylpiperidine-1-oxyl) methanol solvate"
_symmetry_cell_setting           triclinic
_symmetry_space_group_name_H-M   'P -1'
_symmetry_Int_Tables_number      2
_space_group_name_Hall           '-P 1'
loop_
_symmetry_equiv_pos_site_id
_symmetry_equiv_pos_as_xyz
1 x,y,z
2 -x,-y,-z
_cell_length_a                   7.4293(17)
_cell_length_b                   12.136(3)
_cell_length_c                   16.373(4)
_cell_angle_alpha                71.479(4)
_cell_angle_beta                 88.241(4)
_cell_angle_gamma                87.373(4)
_cell_volume                     1398.09
_exptl_crystal_colour            orange
_exptl_crystal_description       slab
_cell_formula_units_Z            2
loop_
_atom_site_label
_atom_site_type_symbol
_atom_site_fract_x
_atom_site_fract_y
_atom_site_fract_z
S2 S 0.99112(4) 0.34634(3) 0.62231(2)
C3 C 0.9900(2) 0.23919(13) 0.72541(10)
C8 C 1.0062(3) 0.07654(16) 0.88761(12)
C11 C 1.0521(3) 0.12588(15) 0.73517(12)
H5 H 1.0900 0.1042 0.6863
C12 C 0.9312(3) 0.27073(16) 0.79638(12)
H6 H 0.8850 0.3474 0.7894
C13 C 1.0582(3) 0.04497(17) 0.81696(13)
H7 H 1.0987 -0.0328 0.8240
C14 C 0.9406(3) 0.18865(19) 0.87789(12)
H8 H 0.9021 0.2095 0.9271
N8 N 1.0199(2) -0.01702(15) 0.96930(11)
O3 O 0.99923(14) 0.28335(9) 0.55984(7)
O5 O 1.15124(14) 0.41296(9) 0.61836(8)
O6 O 0.82425(14) 0.41602(9) 0.61777(8)
S2A S 1.00888(4) -0.34634(3) 1.37769(2)
C3A C 1.0100(2) -0.23919(13) 1.27459(10)
C8A C 0.9938(3) -0.07654(16) 1.11239(12)
C11A C 0.9479(3) -0.12588(15) 1.26483(12)
H5A H 0.9100 -0.1042 1.3137
C12A C 1.0688(3) -0.27073(16) 1.20362(12)
H6A H 1.1150 -0.3474 1.2106
C13A C 0.9418(3) -0.04497(17) 1.18304(13)
H7A H 0.9013 0.0328 1.1760
C14A C 1.0594(3) -0.18865(19) 1.12211(12)
H8A H 1.0979 -0.2095 1.0729
N8A N 0.9801(2) 0.01702(15) 1.03070(11)
O3A O 1.00077(14) -0.28335(9) 1.44016(7)
O5A O 0.84876(14) -0.41296(9) 1.38164(8)
O6A O 1.17575(14) -0.41602(9) 1.38223(8)
C1 C 0.50625(19) 0.24219(12) 0.54245(9)
N4 N 0.35488(16) 0.18949(10) 0.54181(8)
H13 H 0.3585 0.1174 0.5407
H14 H 0.2504 0.2265 0.5425
N5 N 0.66360(16) 0.18636(11) 0.54145(9)
H15 H 0.6671 0.1143 0.5404
H16 H 0.7645 0.2214 0.5419
N6 N 0.50045(18) 0.35161(11) 0.54328(11)
H17 H 0.3959 0.3887 0.5434
H18 H 0.6012 0.3869 0.5437
C4 C 0.9833(2) 0.69583(12) 0.64310(9)
N1 N 1.14166(17) 0.64006(11) 0.64465(9)
H9 H 1.2416 0.6753 0.6465
H10 H 1.1467 0.5678 0.6438
N2 N 0.83202(17) 0.64265(11) 0.64188(9)
H11 H 0.7273 0.6795 0.6419
H12 H 0.8363 0.5704 0.6410
N7 N 0.97601(19) 0.80451(12) 0.64437(12)
H19 H 0.8710 0.8411 0.6444
H20 H 1.0762 0.8401 0.6452
O7 O 0.5654(10) 0.6507(9) 0.2051(6)
H21 H 0.6778 0.6534 0.1978
C15 C 0.4873(7) 0.6968(4) 0.1315(3)
H22 H 0.3795 0.7424 0.1393
H23 H 0.4526 0.6351 0.1091
H24 H 0.5708 0.7478 0.0907
S1 S 0.52770(4) 0.12418(3) 0.34271(2)
C2 C 0.51385(18) 0.10345(11) 0.24084(9)
C5 C 0.5070(2) 0.06347(13) 0.08389(9)
C6 C 0.5679(2) 0.18902(12) 0.16701(10)
H1 H 0.6077 0.2607 0.1703
C7 C 0.4527(2) -0.00158(14) 0.23666(10)
H2 H 0.4129 -0.0591 0.2875
C9 C 0.5634(2) 0.16931(13) 0.08792(10)
H3 H 0.5987 0.2280 0.0368
C10 C 0.4502(3) -0.02156(14) 0.15798(11)
H4 H 0.4098 -0.0932 0.1547
N3 N 0.5108(2) 0.05088(12) -0.00030(8)
O1 O 0.37229(14) 0.06835(9) 0.39314(7)
O2 O 0.52338(14) 0.24957(8) 0.32678(7)
O4 O 0.69718(14) 0.06698(9) 0.37958(7)
S1A S 0.47230(4) -0.12418(3) -0.34271(2)
C2A C 0.48615(18) -0.10345(11) -0.24084(9)
C5A C 0.4930(2) -0.06347(13) -0.08389(9)
C6A C 0.4321(2) -0.18902(12) -0.16701(10)
H1A H 0.3923 -0.2607 -0.1703
C7A C 0.5473(2) 0.00158(14) -0.23666(10)
H2A H 0.5871 0.0591 -0.2875
C9A C 0.4366(2) -0.16931(13) -0.08792(10)
H3A H 0.4013 -0.2280 -0.0368
C10A C 0.5498(3) 0.02156(14) -0.15798(11)
H4A H 0.5902 0.0932 -0.1547
N3A N 0.4892(2) -0.05088(12) 0.00030(8)
O1A O 0.62771(14) -0.06835(9) -0.39314(7)
O2A O 0.47662(14) -0.24957(8) -0.32678(7)
O4A O 0.30282(14) -0.06698(9) -0.37958(7)
O8? O 0.7651(8) 0.4710(4) 0.0735(4)
N9? N 0.9096(4) 0.4539(3) 0.0207(2)
C16? C 1.0803(7) 0.3990(4) 0.0639(3)
C17? C 0.9399(6) 0.4551(4) 0.1199(2)
H25? H 0.9564 0.5388 0.1106
H26? H 0.9370 0.4108 0.1822
C18? C 0.7627(13) 0.4288(6) 0.0644(6)
H27? H 0.6519 0.4045 0.0994
H28? H 0.7938 0.3784 0.0285
C19? C 1.2285(6) 0.4021(4) -0.0026(3)
H29? H 1.3443 0.3644 0.0222
H30? H 1.1684 0.3567 -0.0338
C20? C 1.0991(7) 0.4472(4) 0.0622(3)
C21? C 1.1247(8) 0.4657(5) 0.1262(3)
H31? H 1.0092 0.4729 0.1550
H32? H 1.1981 0.4015 0.1638
H33? H 1.1884 0.5383 0.1137
C22? C 1.0431(6) 0.2722(4) 0.1161(3)
H34? H 0.9547 0.2629 0.1633
H35? H 0.9939 0.2437 0.0720
H36? H 1.1542 0.2275 0.1384
C23? C 1.0997(7) 0.3321(4) 0.0419(3)
H37? H 1.1268 0.2615 0.0901
H38? H 1.2010 0.3467 0.0005
H39? H 0.9906 0.3217 0.0134
C24? C 1.2743(7) 0.4544(4) 0.1051(3)
H40? H 1.2951 0.4074 0.1652
H41? H 1.2485 0.5356 0.1019
H42? H 1.3820 0.4496 0.0702
C25? C 0.561(4) 0.5639(17) 0.2182(19)
H43? H 0.5817 0.5525 0.0857
H44? H 0.6797 0.5914 0.2258
H45? H 0.5593 0.4795 0.2460
H46? H 0.4681 0.6022 0.2445
O9? O 0.5191(6) 0.5978(5) 0.1056(4)
loop_
_geom_bond_atom_site_label_1
_geom_bond_atom_site_label_2
_geom_bond_site_symmetry_1
_geom_bond_site_symmetry_2
S1 C2 1_555 1_555
S2 C3 1_555 1_555
C1 N4 1_555 1_555
C2 C6 1_555 1_555
C3 C11 1_555 1_555
C4 N1 1_555 1_555
C5 C9 1_555 1_555
C6 H1 1_555 1_555
C7 C2 1_555 1_555
H2 C7 1_555 1_555
C8 C13 1_555 1_555
C9 C6 1_555 1_555
H3 C9 1_555 1_555
C10 C5 1_555 1_555
H4 C10 1_555 1_555
C11 H5 1_555 1_555
C12 C3 1_555 1_555
H6 C12 1_555 1_555
C13 C11 1_555 1_555
H7 C13 1_555 1_555
C14 C8 1_555 1_555
H8 C14 1_555 1_555
N1 H9 1_555 1_555
H10 N1 1_555 1_555
N2 C4 1_555 1_555
H11 N2 1_555 1_555
H12 N2 1_555 1_555
N3 C5 1_555 1_555
N4 H13 1_555 1_555
H14 N4 1_555 1_555
N5 C1 1_555 1_555
H15 N5 1_555 1_555
H16 N5 1_555 1_555
N6 C1 1_555 1_555
H17 N6 1_555 1_555
H18 N6 1_555 1_555
N7 C4 1_555 1_555
H19 N7 1_555 1_555
H20 N7 1_555 1_555
N8 C8 1_555 1_555
O1 S1 1_555 1_555
O2 S1 1_555 1_555
O3 S2 1_555 1_555
O4 S1 1_555 1_555
O5 S2 1_555 1_555
O6 S2 1_555 1_555
O7 H21 1_555 1_555
C15 O7 1_555 1_555
H22 C15 1_555 1_555
H23 C15 1_555 1_555
H24 C15 1_555 1_555
S1A C2A 1_555 1_555
S2A C3A 1_555 1_555
C2A C6A 1_555 1_555
C3A C11A 1_555 1_555
C5A C9A 1_555 1_555
C6A H1A 1_555 1_555
C7A C2A 1_555 1_555
H2A C7A 1_555 1_555
C8A C13A 1_555 1_555
C9A C6A 1_555 1_555
H3A C9A 1_555 1_555
C10A C5A 1_555 1_555
H4A C10A 1_555 1_555
C11A H5A 1_555 1_555
C12A C3A 1_555 1_555
H6A C12A 1_555 1_555
C13A C11A 1_555 1_555
H7A C13A 1_555 1_555
C14A C8A 1_555 1_555
H8A C14A 1_555 1_555
N3A N3 1_555 1_555
N8A N8 1_555 1_555
O1A S1A 1_555 1_555
O2A S1A 1_555 1_555
O3A S2A 1_555 1_555
O4A S1A 1_555 1_555
O5A S2A 1_555 1_555
O6A S2A 1_555 1_555
C7 C10 1_555 1_555
C12 C14 1_555 1_555
C5A N3A 1_555 1_555
C7A C10A 1_555 1_555
C8A N8A 1_555 1_555
C12A C14A 1_555 1_555

#END
