
#######################################################################
#
#                 Cambridge Crystallographic Data Centre
#                                CCDC 
#
#######################################################################
#
# If this CIF has been generated from an entry in the Cambridge 
# Structural Database, then it will include bibliographic, chemical, 
# crystal, experimental, refinement or atomic coordinate data resulting 
# from the CCDC's data processing and validation procedures.
#
#######################################################################

data_ELAROZ
_chemical_formula_moiety         
'2(C10 H20 N1 O2),C12 H8 O6 S2 2-,2(C1 H6 N3 1+)'
_chemical_name_systematic        
"bis(guanidinium) biphenyl-4,4'-disulfonate bis(4-methoxy-2,2,6,6-tetramethylpiperidine-1-oxyl)"
_symmetry_cell_setting           orthorhombic
_symmetry_space_group_name_H-M   'A b a 2'
_symmetry_Int_Tables_number      41
_space_group_name_Hall           'A 2 -2ab'
loop_
_symmetry_equiv_pos_site_id
_symmetry_equiv_pos_as_xyz
1 x,y,z
2 -x,-y,z
3 1/2+x,1/2-y,z
4 1/2-x,1/2+y,z
5 x,1/2+y,1/2+z
6 -x,1/2-y,1/2+z
7 1/2+x,-y,1/2+z
8 1/2-x,y,1/2+z
_cell_length_a                   13.1747(10)
_cell_length_b                   27.939(2)
_cell_length_c                   12.1826(10)
_cell_angle_alpha                90
_cell_angle_beta                 90
_cell_angle_gamma                90
_cell_volume                     4484.27
_exptl_crystal_colour            orange
_exptl_crystal_description       block
_cell_formula_units_Z            4
loop_
_atom_site_label
_atom_site_type_symbol
_atom_site_fract_x
_atom_site_fract_y
_atom_site_fract_z
C1 C 0.64953(16) 0.76767(7) 0.37607(16)
N1 N 0.66268(15) 0.75518(7) 0.47993(16)
H1 H 0.7182 0.7638 0.5150
H2 H 0.6159 0.7383 0.5139
N2 N 0.56625(14) 0.75487(7) 0.32375(16)
H3 H 0.5574 0.7632 0.2548
H4 H 0.5195 0.7380 0.3578
N3 N 0.71976(15) 0.79296(7) 0.32580(16)
H5 H 0.7113 0.8014 0.2568
H6 H 0.7752 0.8014 0.3611
C2 C 0.94678(13) 0.87648(6) 0.54962(16)
C3 C 0.87219(13) 0.90863(7) 0.51860(15)
H7 H 0.8070 0.8974 0.4975
C4 C 0.89307(14) 0.95704(7) 0.51854(15)
H8 H 0.8418 0.9791 0.4976
C5 C 0.98881(12) 0.97396(6) 0.54897(16)
C6 C 1.06300(14) 0.94102(7) 0.58010(17)
H9 H 1.1282 0.9521 0.6017
C7 C 1.04244(13) 0.89203(7) 0.57983(16)
H10 H 1.0934 0.8697 0.6001
S1 S 0.91851(3) 0.814696(16) 0.54569(4)
O1 O 0.81912(11) 0.80930(5) 0.59719(12)
O2 O 0.99861(12) 0.79022(5) 0.60514(12)
O3 O 0.91512(11) 0.80151(6) 0.42993(13)
C2A C 1.05322(13) 1.12352(6) 0.54962(16)
C3A C 1.12781(13) 1.09137(7) 0.51860(15)
H7A H 1.1930 1.1026 0.4975
C4A C 1.10693(14) 1.04296(7) 0.51854(15)
H8A H 1.1582 1.0209 0.4976
C5A C 1.01119(12) 1.02604(6) 0.54897(16)
C6A C 0.93700(14) 1.05898(7) 0.58010(17)
H9A H 0.8718 1.0479 0.6017
C7A C 0.95756(13) 1.10797(7) 0.57983(16)
H10A H 0.9066 1.1303 0.6001
S1A S 1.08149(3) 1.185304(16) 0.54569(4)
O1A O 1.18088(11) 1.19070(5) 0.59719(12)
O2A O 1.00139(12) 1.20978(5) 0.60514(12)
O3A O 1.08488(11) 1.19849(6) 0.42993(13)
C8 C 0.0245(2) 0.89895(13) 0.1353(2)
C9 C -0.06217(18) 0.92414(14) 0.0766(2)
H11 H -0.1267 0.9146 0.1121
H12 H -0.0541 0.9591 0.0872
C10 C -0.07084(17) 0.91441(10) -0.04407(19)
H13 H -0.0866 0.8797 -0.0546
C11 C 0.02596(17) 0.92517(10) -0.0997(2)
H14 H 0.0396 0.9599 -0.0933
H15 H 0.0187 0.9177 -0.1788
C12 C 0.11868(19) 0.89732(12) -0.0539(2)
C13 C -0.1791(2) 0.93434(14) -0.1940(2)
H16 H -0.1240 0.9460 -0.2409
H17 H -0.2415 0.9520 -0.2106
H18 H -0.1900 0.9002 -0.2076
C14 C 0.1226(4) 0.84681(18) -0.0907(5)
H19 H 0.1838 0.8315 -0.0613
H20 H 0.1242 0.8457 -0.1711
H21 H 0.0624 0.8298 -0.0640
C15 C 0.2111(2) 0.92421(18) -0.0944(3)
H22 H 0.2727 0.9071 -0.0720
H23 H 0.2116 0.9565 -0.0628
H24 H 0.2089 0.9265 -0.1747
C16 C 0.0445(3) 0.9229(3) 0.2438(3)
H25 H 0.0754 0.8998 0.2944
H26 H -0.0196 0.9345 0.2748
H27 H 0.0909 0.9499 0.2330
C17 C -0.0053(4) 0.8487(2) 0.1607(5)
H28 H -0.0075 0.8301 0.0926
H29 H -0.0725 0.8485 0.1952
H30 H 0.0445 0.8346 0.2109
N4 N 0.11764(14) 0.90107(9) 0.06829(18)
O4 O 0.20148(15) 0.89045(11) 0.1169(2)
O5 O -0.15293(12) 0.94136(8) -0.08264(14)
loop_
_geom_bond_atom_site_label_1
_geom_bond_atom_site_label_2
_geom_bond_site_symmetry_1
_geom_bond_site_symmetry_2
C1 N1 1_555 1_555
N1 H1 1_555 1_555
H2 N1 1_555 1_555
N2 C1 1_555 1_555
H3 N2 1_555 1_555
H4 N2 1_555 1_555
N3 C1 1_555 1_555
H5 N3 1_555 1_555
H6 N3 1_555 1_555
C2 C3 1_555 1_555
C3 H7 1_555 1_555
C4 C3 1_555 1_555
H8 C4 1_555 1_555
C5 C4 1_555 1_555
C6 C5 1_555 1_555
H9 C6 1_555 1_555
C7 C2 1_555 1_555
H10 C7 1_555 1_555
S1 C2 1_555 1_555
O1 S1 1_555 1_555
O2 S1 1_555 1_555
O3 S1 1_555 1_555
C8 C9 1_555 1_555
C9 H11 1_555 1_555
H12 C9 1_555 1_555
C10 C9 1_555 1_555
H13 C10 1_555 1_555
C11 C10 1_555 1_555
H14 C11 1_555 1_555
H15 C11 1_555 1_555
C12 C11 1_555 1_555
C13 H16 1_555 1_555
H17 C13 1_555 1_555
H18 C13 1_555 1_555
C14 C12 1_555 1_555
H19 C14 1_555 1_555
H20 C14 1_555 1_555
H21 C14 1_555 1_555
C15 C12 1_555 1_555
H22 C15 1_555 1_555
H23 C15 1_555 1_555
H24 C15 1_555 1_555
C16 C8 1_555 1_555
H25 C16 1_555 1_555
H26 C16 1_555 1_555
H27 C16 1_555 1_555
C17 C8 1_555 1_555
H28 C17 1_555 1_555
H29 C17 1_555 1_555
H30 C17 1_555 1_555
N4 C8 1_555 1_555
O4 N4 1_555 1_555
O5 C10 1_555 1_555
C2A C3A 1_555 1_555
C3A H7A 1_555 1_555
C4A C3A 1_555 1_555
H8A C4A 1_555 1_555
C5A C5 1_555 1_555
C6A C5A 1_555 1_555
H9A C6A 1_555 1_555
C7A C2A 1_555 1_555
H10A C7A 1_555 1_555
S1A C2A 1_555 1_555
O1A S1A 1_555 1_555
O2A S1A 1_555 1_555
O3A S1A 1_555 1_555
C6 C7 1_555 1_555
C12 N4 1_555 1_555
C13 O5 1_555 1_555
C4A C5A 1_555 1_555
C6A C7A 1_555 1_555

#END
