
#######################################################################
#
#                 Cambridge Crystallographic Data Centre
#                                CCDC 
#
#######################################################################
#
# If this CIF has been generated from an entry in the Cambridge 
# Structural Database, then it will include bibliographic, chemical, 
# crystal, experimental, refinement or atomic coordinate data resulting 
# from the CCDC's data processing and validation procedures.
#
#######################################################################

data_ELASAM
_chemical_formula_moiety         
'C12 H8 O6 S2 2-,C9 H16 N1 O2,2(C1 H6 N3 1+),C1 H4 O1,H2 O1'
_chemical_name_systematic        
"bis(guanidinium) biphenyl-4,4'-disulfonate 4-oxo-2,2,6,6-tetramethylpiperidine-1-oxyl methanol solvate monohydrate"
_symmetry_cell_setting           orthorhombic
_symmetry_space_group_name_H-M   'P n a 21'
_symmetry_Int_Tables_number      33
_space_group_name_Hall           'P 2c -2n'
loop_
_symmetry_equiv_pos_site_id
_symmetry_equiv_pos_as_xyz
1 x,y,z
2 -x,-y,1/2+z
3 1/2+x,1/2-y,z
4 1/2-x,1/2+y,1/2+z
_cell_length_a                   7.5142(4)
_cell_length_b                   24.1429(14)
_cell_length_c                   17.5439(10)
_cell_angle_alpha                90
_cell_angle_beta                 90
_cell_angle_gamma                90
_cell_volume                     3182.72
_exptl_crystal_colour            'brown yellow'
_exptl_crystal_description       block
_cell_formula_units_Z            4
loop_
_atom_site_label
_atom_site_type_symbol
_atom_site_fract_x
_atom_site_fract_y
_atom_site_fract_z
C1 C 0.35856(15) 0.55686(5) 0.23756(8)
N1 N 0.35694(14) 0.61142(4) 0.23230(10)
H25 H 0.2550 0.6292 0.2292
H26 H 0.4578 0.6300 0.2319
N2 N 0.51240(15) 0.53026(4) 0.24515(8)
H27 H 0.6128 0.5490 0.2467
H28 H 0.5139 0.4939 0.2487
N3 N 0.20768(14) 0.52869(4) 0.23815(8)
H29 H 0.1054 0.5463 0.2350
H30 H 0.2095 0.4923 0.2417
C2 C 0.85048(16) 0.32634(5) 0.32471(9)
N4 N 0.69902(17) 0.31693(5) 0.36192(9)
H31 H 0.5997 0.3326 0.3464
H32 H 0.6983 0.2951 0.4020
N5 N 0.85540(16) 0.35851(5) 0.26520(8)
H33 H 0.7574 0.3745 0.2488
H34 H 0.9567 0.3642 0.2413
N6 N 0.99792(17) 0.30183(5) 0.35122(9)
H35 H 1.1006 0.3073 0.3283
H36 H 0.9921 0.2802 0.3915
C3 C 1.08854(15) 0.31545(4) 0.81607(7)
C4 C 1.10561(16) 0.25763(5) 0.81384(7)
H1 H 1.1411 0.2396 0.7682
C5 C 1.07048(17) 0.22747(5) 0.87832(7)
H2 H 1.0822 0.1883 0.8768
C6 C 1.01788(14) 0.25292(5) 0.94612(7)
C7 C 0.99931(17) 0.31023(5) 0.94660(7)
H3 H 0.9623 0.3283 0.9920
C8 C 1.03392(17) 0.34138(5) 0.88188(7)
H4 H 1.0200 0.3805 0.8830
C9 C 0.90532(15) 0.16209(5) 1.15002(7)
C10 C 0.86490(15) 0.13905(5) 1.08011(8)
H5 H 0.8098 0.1037 1.0774
C11 C 0.90523(16) 0.16785(5) 1.01388(7)
H6 H 0.8797 0.1516 0.9658
C12 C 0.98280(15) 0.22035(5) 1.01688(7)
C13 C 1.02378(17) 0.24267(5) 1.08800(7)
H7 H 1.0788 0.2780 1.0910
C14 C 0.98539(17) 0.21403(5) 1.15449(7)
H8 H 1.0134 0.2297 1.2027
O1 O 0.98568(12) 0.34415(4) 0.68109(5)
O2 O 1.14011(12) 0.41259(4) 0.75578(6)
O3 O 1.30343(13) 0.33489(4) 0.70371(6)
O4 O 0.69692(12) 0.09309(3) 1.22119(6)
O5 O 0.84008(13) 0.16621(4) 1.29457(6)
O6 O 1.01291(11) 0.08896(4) 1.24814(6)
S1 S 1.13386(4) 0.354469(11) 0.732829(19)
S2 S 0.85928(4) 0.125083(11) 1.23465(2)
C15 C 0.6902(2) -0.02002(6) 0.53187(8)
C16 C 0.7530(2) 0.03676(7) 0.55687(9)
H9 H 0.6839 0.0484 0.6022
H10 H 0.8797 0.0344 0.5720
C17 C 0.7337(3) 0.07970(7) 0.49622(11)
C18 C 0.5791(3) 0.07334(8) 0.44260(12)
H11 H 0.6243 0.0585 0.3937
H12 H 0.5293 0.1105 0.4322
C19 C 0.4287(2) 0.03598(6) 0.47020(9)
C20 C 0.3132(3) 0.06232(10) 0.53009(15)
H13 H 0.2320 0.0345 0.5512
H14 H 0.2441 0.0925 0.5072
H15 H 0.3883 0.0772 0.5709
C21 C 0.3128(3) 0.02049(9) 0.40047(11)
H16 H 0.3863 0.0013 0.3626
H17 H 0.2631 0.0542 0.3779
H18 H 0.2157 -0.0039 0.4168
C22 C 0.8093(2) -0.04412(8) 0.46913(11)
H19 H 0.7594 -0.0793 0.4514
H20 H 0.9291 -0.0504 0.4895
H21 H 0.8156 -0.0180 0.4264
C23 C 0.6883(3) -0.05864(8) 0.60055(10)
H22 H 0.6041 -0.0446 0.6386
H23 H 0.8077 -0.0604 0.6229
H24 H 0.6519 -0.0958 0.5843
N7 N 0.50753(15) -0.01505(4) 0.50121(6)
O7 O 0.41309(17) -0.05902(4) 0.50128(7)
O8 O 0.8406(2) 0.11611(6) 0.48723(11)
O9 O 1.3093(4) 0.24100(10) 0.60941(15)
H37 H 1.3829 0.2253 0.6382
C24 C 1.2536(11) 0.2016(3) 0.5473(4)
H38 H 1.1723 0.1737 0.5683
H39 H 1.3590 0.1831 0.5263
H40 H 1.1931 0.2222 0.5067
O10 O 0.8577(11) 0.2261(4) 0.4653(4)
H41 H 0.7695 0.2325 0.4382
H42 H 0.8629 0.1941 0.4744
C25? C 1.0408(8) 0.2160(3) 0.5013(4)
H43? H 1.1152 0.2492 0.5034
H44? H 1.1039 0.1867 0.4735
H45? H 1.0149 0.2033 0.5532
H46? H 0.8750 0.2535 0.4232
H47? H 1.3586 0.2769 0.6342
H48? H 1.4800 0.2262 0.6326
O11? O 0.8556(3) 0.23022(7) 0.45770(11)
O12? O 1.4451(6) 0.25666(15) 0.6080(2)
loop_
_geom_bond_atom_site_label_1
_geom_bond_atom_site_label_2
_geom_bond_site_symmetry_1
_geom_bond_site_symmetry_2
C1 N1 1_555 1_555
C2 N4 1_555 1_555
C3 C4 1_555 1_555
C4 H1 1_555 1_555
C5 C4 1_555 1_555
H2 C5 1_555 1_555
C6 C5 1_555 1_555
C7 C6 1_555 1_555
H3 C7 1_555 1_555
C8 C3 1_555 1_555
H4 C8 1_555 1_555
C9 C10 1_555 1_555
C10 H5 1_555 1_555
C11 C10 1_555 1_555
H6 C11 1_555 1_555
C12 C6 1_555 1_555
C13 C12 1_555 1_555
H7 C13 1_555 1_555
C14 C9 1_555 1_555
H8 C14 1_555 1_555
C15 C16 1_555 1_555
C16 H9 1_555 1_555
H10 C16 1_555 1_555
C17 C16 1_555 1_555
C18 C17 1_555 1_555
H11 C18 1_555 1_555
H12 C18 1_555 1_555
C19 C18 1_555 1_555
C20 C19 1_555 1_555
H13 C20 1_555 1_555
H14 C20 1_555 1_555
H15 C20 1_555 1_555
C21 C19 1_555 1_555
H16 C21 1_555 1_555
H17 C21 1_555 1_555
H18 C21 1_555 1_555
C22 C15 1_555 1_555
H19 C22 1_555 1_555
H20 C22 1_555 1_555
H21 C22 1_555 1_555
C23 C15 1_555 1_555
H22 C23 1_555 1_555
H23 C23 1_555 1_555
H24 C23 1_555 1_555
N1 H25 1_555 1_555
H26 N1 1_555 1_555
N2 C1 1_555 1_555
H27 N2 1_555 1_555
H28 N2 1_555 1_555
N3 C1 1_555 1_555
H29 N3 1_555 1_555
H30 N3 1_555 1_555
N4 H31 1_555 1_555
H32 N4 1_555 1_555
N5 C2 1_555 1_555
H33 N5 1_555 1_555
H34 N5 1_555 1_555
N6 C2 1_555 1_555
H35 N6 1_555 1_555
H36 N6 1_555 1_555
N7 C15 1_555 1_555
O1 S1 1_555 1_555
O2 S1 1_555 1_555
O3 S1 1_555 1_555
O4 S2 1_555 1_555
O5 S2 1_555 1_555
O6 S2 1_555 1_555
O7 N7 1_555 1_555
O8 C17 1_555 1_555
S1 C3 1_555 1_555
S2 C9 1_555 1_555
O9 H37 1_555 1_555
C24 O9 1_555 1_555
H38 C24 1_555 1_555
H39 C24 1_555 1_555
H40 C24 1_555 1_555
O10 H41 1_555 1_555
H42 O10 1_555 1_555
C7 C8 1_555 1_555
C11 C12 1_555 1_555
C13 C14 1_555 1_555
C19 N7 1_555 1_555

#END
