
#######################################################################
#
#                 Cambridge Crystallographic Data Centre
#                                CCDC 
#
#######################################################################
#
# If this CIF has been generated from an entry in the Cambridge 
# Structural Database, then it will include bibliographic, chemical, 
# crystal, experimental, refinement or atomic coordinate data resulting 
# from the CCDC's data processing and validation procedures.
#
#######################################################################

data_ELAWUL
_chemical_compound_source        'Streptomyces sp.'
_chemical_formula_moiety         'C14 H12 N4 O2'
_chemical_name_systematic        
7-methyl-2-(2-oxo-2-phenylethyl)[1,2,4]triazolo[1,5-a]pyrimidin-5(4H)-one
_symmetry_cell_setting           monoclinic
_symmetry_space_group_name_H-M   'P 21/n'
_symmetry_Int_Tables_number      14
_space_group_name_Hall           '-P 2yn'
loop_
_symmetry_equiv_pos_site_id
_symmetry_equiv_pos_as_xyz
1 x,y,z
2 1/2-x,1/2+y,1/2-z
3 -x,-y,-z
4 1/2+x,1/2-y,1/2+z
_cell_length_a                   5.5805(2)
_cell_length_b                   8.5947(4)
_cell_length_c                   25.8960(11)
_cell_angle_alpha                90
_cell_angle_beta                 93.211(2)
_cell_angle_gamma                90
_cell_volume                     1240.09
_exptl_crystal_colour            colorless
_exptl_crystal_description       plate
_cell_formula_units_Z            4
_exptl_crystal_recrystallization_method dichloromethane/methanol
loop_
_atom_site_label
_atom_site_type_symbol
_atom_site_fract_x
_atom_site_fract_y
_atom_site_fract_z
N1 N 0.8055(2) 0.31714(15) 0.53864(5)
N2 N 0.5650(2) 0.14877(15) 0.58069(5)
N3 N 0.2672(2) 0.11642(15) 0.51026(5)
H1 H 0.174(4) 0.051(3) 0.5268(8)
N4 N 0.6064(2) 0.27629(14) 0.50762(5)
O1 O 0.00435(19) 0.10133(13) 0.44031(4)
O2 O 0.6905(3) 0.43852(18) 0.65969(5)
C1 C 0.7700(3) 0.23760(18) 0.58117(6)
C2 C 0.5454(3) 0.32735(17) 0.45790(6)
C3 C 0.7095(3) 0.44047(18) 0.43432(6)
H2 H 0.8492 0.3852 0.4222
H3 H 0.7627 0.5181 0.4602
H4 H 0.6244 0.4926 0.4050
C4 C 0.3402(3) 0.26932(18) 0.43523(6)
H5 H 0.291(3) 0.300(2) 0.4010(8)
C5 C 0.1915(3) 0.15826(17) 0.46062(6)
C6 C 0.4700(3) 0.17586(17) 0.53397(6)
C7 C 0.9421(3) 0.24213(19) 0.62738(6)
H6 H 1.0999 0.2795 0.6169
H7 H 0.9639 0.1356 0.6414
C8 C 0.8538(3) 0.3485(2) 0.66951(7)
C9 C 0.9748(3) 0.34057(19) 0.72224(6)
C10 C 1.1866(3) 0.2583(2) 0.73241(7)
H8 H 1.2570 0.2023 0.7055
C11 C 1.2952(4) 0.2579(2) 0.78203(7)
H9 H 1.4405 0.2022 0.7889
C12 C 1.1921(4) 0.3385(2) 0.82145(7)
H10 H 1.2677 0.3388 0.8552
C13 C 0.9792(4) 0.4184(2) 0.81161(7)
H11 H 0.9072 0.4717 0.8389
C14 C 0.8705(3) 0.4211(2) 0.76216(7)
H12 H 0.7256 0.4774 0.7554
loop_
_geom_bond_atom_site_label_1
_geom_bond_atom_site_label_2
_geom_bond_site_symmetry_1
_geom_bond_site_symmetry_2
N1 N4 1_555 1_555
N2 C1 1_555 1_555
N3 H1 1_555 1_555
N4 C2 1_555 1_555
O1 C5 1_555 1_555
O2 C8 1_555 1_555
C1 N1 1_555 1_555
C2 C3 1_555 1_555
C3 H2 1_555 1_555
H3 C3 1_555 1_555
H4 C3 1_555 1_555
C4 C2 1_555 1_555
H5 C4 1_555 1_555
C5 N3 1_555 1_555
C6 N2 1_555 1_555
C7 C1 1_555 1_555
H6 C7 1_555 1_555
H7 C7 1_555 1_555
C8 C7 1_555 1_555
C9 C8 1_555 1_555
C10 C9 1_555 1_555
H8 C10 1_555 1_555
C11 C10 1_555 1_555
H9 C11 1_555 1_555
C12 C11 1_555 1_555
H10 C12 1_555 1_555
C13 C12 1_555 1_555
H11 C13 1_555 1_555
C14 C9 1_555 1_555
H12 C14 1_555 1_555
N3 C6 1_555 1_555
N4 C6 1_555 1_555
C4 C5 1_555 1_555
C13 C14 1_555 1_555

#END
