
#######################################################################
#
#                 Cambridge Crystallographic Data Centre
#                                CCDC 
#
#######################################################################
#
# If this CIF has been generated from an entry in the Cambridge 
# Structural Database, then it will include bibliographic, chemical, 
# crystal, experimental, refinement or atomic coordinate data resulting 
# from the CCDC's data processing and validation procedures.
#
#######################################################################

data_ELAYOH
_chemical_formula_moiety         'C17 H13 Cl1 F1 N3'
_chemical_name_systematic        
7-chloro-4-((3-fluorobenzylidene)hydrazono)-1-methyl-1,4-dihydroquinoline
_symmetry_cell_setting           monoclinic
_symmetry_space_group_name_H-M   'P 21/c'
_symmetry_Int_Tables_number      14
_space_group_name_Hall           '-P 2ybc'
loop_
_symmetry_equiv_pos_site_id
_symmetry_equiv_pos_as_xyz
1 x,y,z
2 -x,1/2+y,1/2-z
3 -x,-y,-z
4 x,1/2-y,1/2+z
_cell_length_a                   12.6026(10)
_cell_length_b                   9.0785(7)
_cell_length_c                   14.9026(17)
_cell_angle_alpha                90
_cell_angle_beta                 122.260(6)
_cell_angle_gamma                90
_cell_volume                     1441.85
_exptl_crystal_colour            orange
_exptl_crystal_description       'Cut Block'
_cell_formula_units_Z            4
loop_
_atom_site_label
_atom_site_type_symbol
_atom_site_fract_x
_atom_site_fract_y
_atom_site_fract_z
Cl1 Cl 0.80092(4) 0.32409(5) 0.86779(3)
F1 F 0.12514(10) 1.22225(11) 0.08369(7)
N1 N 0.68840(12) 0.56743(14) 0.52009(9)
N2 N 0.41031(12) 0.82491(14) 0.51198(10)
N3 N 0.34321(12) 0.91231(14) 0.42136(10)
C1 C 0.62086(15) 0.66520(17) 0.43960(12)
H1 H 0.6383 0.6716 0.3851
C2 C 0.53086(15) 0.75316(17) 0.43297(12)
H2 H 0.4877 0.8193 0.3749
C3 C 0.49911(15) 0.74861(16) 0.51204(12)
C4 C 0.55380(15) 0.63248(17) 0.68419(12)
H3 H 0.4921 0.6922 0.6845
C5 C 0.57353(14) 0.64660(17) 0.60011(11)
C6 C 0.62158(15) 0.53439(18) 0.76611(12)
H4 H 0.6064 0.5250 0.8218
C7 C 0.71284(15) 0.44938(17) 0.76511(12)
C8 C 0.73641(15) 0.45871(17) 0.68528(11)
H5 H 0.7991 0.3989 0.6867
C9 C 0.66649(14) 0.55784(16) 0.60178(11)
C10 C 0.26117(14) 0.99367(17) 0.42304(12)
H6 H 0.2523 0.9885 0.4824
C11 C 0.18066(14) 1.09435(16) 0.33587(12)
C12 C 0.19157(15) 1.10905(17) 0.24743(12)
H7 H 0.2513 1.0527 0.2418
C13 C 0.11418(16) 1.20658(17) 0.16941(12)
C14 C 0.02495(15) 1.29119(17) 0.17227(12)
H8 H -0.0268 1.3579 0.1166
C15 C 0.01375(16) 1.27509(17) 0.25946(13)
H9 H -0.0471 1.3311 0.2637
C16 C 0.09074(15) 1.17783(17) 0.34061(12)
H10 H 0.0821 1.1681 0.3999
C17 C 0.78029(15) 0.47075(17) 0.51849(13)
H11 H 0.7820 0.4906 0.4547
H12 H 0.7568 0.3677 0.5181
H13 H 0.8636 0.4891 0.5816
loop_
_geom_bond_atom_site_label_1
_geom_bond_atom_site_label_2
_geom_bond_site_symmetry_1
_geom_bond_site_symmetry_2
Cl1 C7 1_555 1_555
F1 C13 1_555 1_555
N1 C1 1_555 1_555
N2 N3 1_555 1_555
N3 C10 1_555 1_555
C1 H1 1_555 1_555
C2 C1 1_555 1_555
H2 C2 1_555 1_555
C3 N2 1_555 1_555
C4 H3 1_555 1_555
C5 C3 1_555 1_555
C6 C4 1_555 1_555
H4 C6 1_555 1_555
C7 C6 1_555 1_555
C8 C7 1_555 1_555
H5 C8 1_555 1_555
C9 N1 1_555 1_555
C10 H6 1_555 1_555
C11 C10 1_555 1_555
C12 C11 1_555 1_555
H7 C12 1_555 1_555
C13 C12 1_555 1_555
C14 C13 1_555 1_555
H8 C14 1_555 1_555
C15 C14 1_555 1_555
H9 C15 1_555 1_555
C16 C11 1_555 1_555
H10 C16 1_555 1_555
C17 N1 1_555 1_555
H11 C17 1_555 1_555
H12 C17 1_555 1_555
H13 C17 1_555 1_555
C2 C3 1_555 1_555
C4 C5 1_555 1_555
C5 C9 1_555 1_555
C8 C9 1_555 1_555
C15 C16 1_555 1_555

#END
