
#######################################################################
#
#                 Cambridge Crystallographic Data Centre
#                                CCDC 
#
#######################################################################
#
# If this CIF has been generated from an entry in the Cambridge 
# Structural Database, then it will include bibliographic, chemical, 
# crystal, experimental, refinement or atomic coordinate data resulting 
# from the CCDC's data processing and validation procedures.
#
#######################################################################

data_ELAYAT
_chemical_compound_source        'Myrioneuron tonkinensis'
_chemical_name_common            'myritonine A'
_chemical_formula_moiety         'C20 H33 N3'
_chemical_name_systematic        
hexadecahydro-1H,5H,8H,9H-7a,11c,13b-triazadibenzo[gh,pqr]tetraphene
_chemical_properties_biological  
'inhibition against the hepatitis C virus in vitro'
_symmetry_cell_setting           orthorhombic
_symmetry_space_group_name_H-M   'P 21 21 21'
_symmetry_Int_Tables_number      19
_space_group_name_Hall           'P 2ac 2ab'
loop_
_symmetry_equiv_pos_site_id
_symmetry_equiv_pos_as_xyz
1 x,y,z
2 1/2+x,1/2-y,-z
3 -x,1/2+y,1/2-z
4 1/2-x,-y,1/2+z
_cell_length_a                   5.4602(4)
_cell_length_b                   17.7085(15)
_cell_length_c                   18.1951(15)
_cell_angle_alpha                90
_cell_angle_beta                 90
_cell_angle_gamma                90
_cell_volume                     1759.32
_exptl_crystal_colour            colorless
_exptl_crystal_description       needle
_cell_formula_units_Z            4
loop_
_atom_site_label
_atom_site_type_symbol
_atom_site_fract_x
_atom_site_fract_y
_atom_site_fract_z
N1 N 1.0299(9) 0.4287(3) 0.1309(3)
N2 N 0.8371(9) 0.5397(3) 0.0793(3)
N3 N 1.1464(10) 0.4202(4) 0.2576(3)
C1 C 0.5557(14) 0.2361(5) 0.1539(4)
H1 H 0.6813 0.1996 0.1414
H2 H 0.4051 0.2088 0.1636
C2 C 0.5173(12) 0.2891(4) 0.0897(4)
H3 H 0.3810 0.3226 0.1001
H4 H 0.4771 0.2601 0.0461
C3 C 0.7456(12) 0.3354(4) 0.0755(3)
H5 H 0.8804 0.3002 0.0662
C4 C 0.8112(12) 0.3810(4) 0.1435(3)
H6 H 0.6727 0.4139 0.1558
C5 C 1.0160(12) 0.4776(4) 0.0678(4)
H7 H 1.1777 0.5006 0.0610
C6 C 0.9089(13) 0.5863(4) 0.1432(4)
H8 H 1.0692 0.6087 0.1327
C7 C 0.7282(14) 0.6499(5) 0.1553(4)
H9 H 0.7821 0.6802 0.1967
H10 H 0.5696 0.6287 0.1676
C8 C 0.7016(17) 0.7005(5) 0.0878(6)
H11 H 0.5737 0.7376 0.0959
H12 H 0.8539 0.7271 0.0785
C9 C 0.7223(13) 0.3860(4) 0.0094(3)
H13 H 0.5854 0.4202 0.0158
H14 H 0.6925 0.3558 -0.0342
C10 C 0.9615(13) 0.4312(5) 0.0003(3)
H15 H 1.0960 0.3966 -0.0086
H16 H 0.9474 0.4643 -0.0419
C11 C 1.1052(12) 0.4705(4) 0.1959(4)
H17 H 1.2650 0.4926 0.1840
C12 C 0.9380(14) 0.3728(4) 0.2744(3)
H18 H 0.8032 0.4041 0.2911
H19 H 0.9807 0.3385 0.3140
C13 C 0.8572(13) 0.3276(4) 0.2079(3)
H20 H 0.9921 0.2939 0.1942
C14 C 0.6317(13) 0.2789(4) 0.2224(4)
H21 H 0.6673 0.2433 0.2615
H22 H 0.4976 0.3108 0.2385
C15 C 1.2357(15) 0.4616(5) 0.3213(4)
H23 H 1.3987 0.4805 0.3108
H24 H 1.2483 0.4271 0.3626
C16 C 1.0728(14) 0.5274(5) 0.3429(4)
H25 H 1.1474 0.5547 0.3834
H26 H 0.9154 0.5085 0.3594
C17 C 1.0349(15) 0.5808(5) 0.2783(4)
H27 H 1.1895 0.6043 0.2654
H28 H 0.9210 0.6204 0.2921
C18 C 0.9340(13) 0.5374(4) 0.2118(4)
H29 H 0.7720 0.5175 0.2246
C19 C 0.8179(15) 0.5890(5) 0.0144(4)
H30 H 0.7711 0.5586 -0.0277
H31 H 0.9775 0.6106 0.0042
C20 C 0.6376(16) 0.6513(5) 0.0233(5)
H32 H 0.4754 0.6302 0.0304
H33 H 0.6347 0.6817 -0.0210
loop_
_geom_bond_atom_site_label_1
_geom_bond_atom_site_label_2
_geom_bond_site_symmetry_1
_geom_bond_site_symmetry_2
N1 C4 1_555 1_555
N2 C5 1_555 1_555
N3 C11 1_555 1_555
C1 H1 1_555 1_555
H2 C1 1_555 1_555
C2 C1 1_555 1_555
H3 C2 1_555 1_555
H4 C2 1_555 1_555
C3 C2 1_555 1_555
H5 C3 1_555 1_555
C4 C3 1_555 1_555
H6 C4 1_555 1_555
C5 N1 1_555 1_555
H7 C5 1_555 1_555
C6 N2 1_555 1_555
H8 C6 1_555 1_555
C7 C6 1_555 1_555
H9 C7 1_555 1_555
H10 C7 1_555 1_555
C8 C7 1_555 1_555
H11 C8 1_555 1_555
H12 C8 1_555 1_555
C9 C3 1_555 1_555
H13 C9 1_555 1_555
H14 C9 1_555 1_555
C10 C5 1_555 1_555
H15 C10 1_555 1_555
H16 C10 1_555 1_555
C11 N1 1_555 1_555
H17 C11 1_555 1_555
C12 N3 1_555 1_555
H18 C12 1_555 1_555
H19 C12 1_555 1_555
C13 C4 1_555 1_555
H20 C13 1_555 1_555
C14 C1 1_555 1_555
H21 C14 1_555 1_555
H22 C14 1_555 1_555
C15 N3 1_555 1_555
H23 C15 1_555 1_555
H24 C15 1_555 1_555
C16 C15 1_555 1_555
H25 C16 1_555 1_555
H26 C16 1_555 1_555
C17 C16 1_555 1_555
H27 C17 1_555 1_555
H28 C17 1_555 1_555
C18 C6 1_555 1_555
H29 C18 1_555 1_555
C19 N2 1_555 1_555
H30 C19 1_555 1_555
H31 C19 1_555 1_555
C20 C8 1_555 1_555
H32 C20 1_555 1_555
H33 C20 1_555 1_555
C9 C10 1_555 1_555
C11 C18 1_555 1_555
C12 C13 1_555 1_555
C13 C14 1_555 1_555
C17 C18 1_555 1_555
C19 C20 1_555 1_555

#END
