
#######################################################################
#
#                 Cambridge Crystallographic Data Centre
#                                CCDC 
#
#######################################################################
#
# If this CIF has been generated from an entry in the Cambridge 
# Structural Database, then it will include bibliographic, chemical, 
# crystal, experimental, refinement or atomic coordinate data resulting 
# from the CCDC's data processing and validation procedures.
#
#######################################################################

data_ELAYEX
_chemical_formula_moiety         'C17 H13 Cl2 N3'
_chemical_name_systematic        
7-chloro-4-((4-chlorobenzylidene)hydrazono)-1-methyl-1,4-dihydroquinoline
_symmetry_cell_setting           monoclinic
_symmetry_space_group_name_H-M   'P 21/c'
_symmetry_Int_Tables_number      14
_space_group_name_Hall           '-P 2ybc'
loop_
_symmetry_equiv_pos_site_id
_symmetry_equiv_pos_as_xyz
1 x,y,z
2 -x,1/2+y,1/2-z
3 -x,-y,-z
4 x,1/2-y,1/2+z
_cell_length_a                   13.2918(4)
_cell_length_b                   8.6151(2)
_cell_length_c                   13.9704(4)
_cell_angle_alpha                90
_cell_angle_beta                 109.4530(10)
_cell_angle_gamma                90
_cell_volume                     1508.43
_exptl_crystal_colour            yellow
_exptl_crystal_description       BLOCK
_cell_formula_units_Z            4
loop_
_atom_site_label
_atom_site_type_symbol
_atom_site_fract_x
_atom_site_fract_y
_atom_site_fract_z
Cl1 Cl 0.39748(4) 0.52638(6) 0.05081(4)
Cl2 Cl -0.60437(4) 1.08754(6) 0.17358(4)
N1 N -0.05259(12) 0.79393(18) 0.10915(12)
N2 N -0.15382(12) 0.80454(18) 0.11888(11)
N3 N 0.07235(12) 0.34543(17) 0.13672(11)
C1 C 0.24370(15) 0.7174(2) 0.07286(15)
H1 H 0.2835 0.8012 0.0594
C2 C 0.14828(15) 0.7431(2) 0.08884(14)
H2 H 0.1222 0.8463 0.0858
C3 C -0.18760(15) 0.9441(2) 0.11558(13)
H3 H -0.1445 1.0267 0.1061
C4 C 0.28040(15) 0.5644(2) 0.07699(14)
C5 C -0.01614(15) 0.6497(2) 0.12112(13)
C6 C -0.06758(15) 0.5156(2) 0.14376(13)
H4 H -0.1344 0.5268 0.1540
C7 C -0.02289(15) 0.3737(2) 0.15084(13)
H5 H -0.0598 0.2883 0.1666
C8 C -0.48384(16) 1.0484(2) 0.15430(15)
C9 C 0.08823(14) 0.6211(2) 0.10947(13)
C10 C -0.29135(16) 0.9796(2) 0.12608(14)
C11 C -0.31712(16) 1.1320(2) 0.14265(15)
H6 H -0.2682 1.2131 0.1443
C12 C -0.41363(16) 1.1671(2) 0.15691(15)
H7 H -0.4306 1.2711 0.1682
C13 C 0.22601(15) 0.4413(2) 0.09849(13)
H8 H 0.2535 0.3389 0.1017
C14 C 0.12883(15) 0.4687(2) 0.11573(13)
C15 C -0.46089(16) 0.8957(2) 0.13732(16)
H9 H -0.5103 0.8153 0.1358
C16 C -0.36556(16) 0.8620(2) 0.12263(15)
H10 H -0.3500 0.7579 0.1100
C17 C 0.11412(16) 0.1862(2) 0.14445(15)
H11 H 0.0630 0.1145 0.1576
H12 H 0.1823 0.1803 0.2003
H13 H 0.1250 0.1577 0.0807
loop_
_geom_bond_atom_site_label_1
_geom_bond_atom_site_label_2
_geom_bond_site_symmetry_1
_geom_bond_site_symmetry_2
Cl1 C4 1_555 1_555
Cl2 C8 1_555 1_555
N1 N2 1_555 1_555
N2 C3 1_555 1_555
N3 C7 1_555 1_555
C1 H1 1_555 1_555
C2 C1 1_555 1_555
H2 C2 1_555 1_555
C3 H3 1_555 1_555
C4 C1 1_555 1_555
C5 N1 1_555 1_555
C6 C5 1_555 1_555
H4 C6 1_555 1_555
C7 C6 1_555 1_555
H5 C7 1_555 1_555
C8 C12 1_555 1_555
C9 C2 1_555 1_555
C10 C3 1_555 1_555
C11 C10 1_555 1_555
H6 C11 1_555 1_555
C12 C11 1_555 1_555
H7 C12 1_555 1_555
C13 C4 1_555 1_555
H8 C13 1_555 1_555
C14 N3 1_555 1_555
C15 C8 1_555 1_555
H9 C15 1_555 1_555
C16 C10 1_555 1_555
H10 C16 1_555 1_555
C17 N3 1_555 1_555
H11 C17 1_555 1_555
H12 C17 1_555 1_555
H13 C17 1_555 1_555
C5 C9 1_555 1_555
C9 C14 1_555 1_555
C13 C14 1_555 1_555
C15 C16 1_555 1_555

#END
