
#######################################################################
#
#                 Cambridge Crystallographic Data Centre
#                                CCDC 
#
#######################################################################
#
# If this CIF has been generated from an entry in the Cambridge 
# Structural Database, then it will include bibliographic, chemical, 
# crystal, experimental, refinement or atomic coordinate data resulting 
# from the CCDC's data processing and validation procedures.
#
#######################################################################

data_ELAYIZ
_chemical_formula_moiety         'C18 H26 O7'
_chemical_name_systematic        
"Methyl [3S-(3\a,4\b,5\a)-5-hydroxy-3,4-(2,2'-bi(tetrahydropyran)-2,2'-diyldioxy)-1-cyclohexene-1-carboxylate]"
_symmetry_cell_setting           monoclinic
_symmetry_space_group_name_H-M   'P 21'
_symmetry_Int_Tables_number      4
_space_group_name_Hall           'P 2yb'
loop_
_symmetry_equiv_pos_site_id
_symmetry_equiv_pos_as_xyz
1 x,y,z
2 -x,1/2+y,-z
_cell_length_a                   5.97340(10)
_cell_length_b                   17.1311(4)
_cell_length_c                   9.0637(2)
_cell_angle_alpha                90
_cell_angle_beta                 108.7678(10)
_cell_angle_gamma                90
_cell_volume                     878.182
_exptl_crystal_colour            colorless
_exptl_crystal_description       plate
_chemical_melting_point          205-206deg.C
_cell_formula_units_Z            2
loop_
_atom_site_label
_atom_site_type_symbol
_atom_site_fract_x
_atom_site_fract_y
_atom_site_fract_z
O1 O -0.7782(3) -0.22673(9) -0.5079(2)
O2 O -1.0992(3) -0.37551(11) -0.7605(2)
O3 O -0.7147(4) -0.55231(14) -0.0746(3)
O4 O -0.3788(5) -0.60498(14) -0.0843(3)
O5 O -0.9317(3) -0.3420(1) -0.4402(2)
O6 O -0.6883(3) -0.3626(1) -0.6560(2)
O7 O -0.3488(4) -0.48460(12) -0.6055(3)
C1 C -0.5354(5) -0.55840(16) -0.1316(3)
C2 C -0.5530(5) -0.50118(15) -0.2579(3)
C3 C -0.6908(4) -0.43812(15) -0.2733(3)
C4 C -0.7050(4) -0.37922(15) -0.3969(3)
C5 C -0.6640(4) -0.41868(14) -0.5351(3)
C6 C -0.4164(4) -0.45242(15) -0.4806(3)
C7 C -0.4045(5) -0.51738(15) -0.3627(4)
C8 C -0.9546(4) -0.28434(15) -0.5591(3)
C9 C -1.2011(4) -0.25038(16) -0.5919(4)
C10 C -1.2197(5) -0.20482(17) -0.4517(4)
C11 C -1.0244(5) -0.14363(17) -0.4033(4)
C12 C -0.7864(5) -0.18269(17) -0.3741(4)
C13 C -0.9080(4) -0.32181(15) -0.7014(3)
C14 C -0.8918(5) -0.26307(17) -0.8231(3)
C15 C -0.8950(6) -0.3029(2) -0.9739(4)
C16 C -1.1057(6) -0.3579(3) -1.0292(4)
C17 C -1.0978(6) -0.4155(2) -0.9007(4)
C18 C -0.7102(7) -0.6001(2) 0.0571(4)
H1 H -0.7881(4) -0.43092(15) -0.2028(3)
H2 H -0.5789(4) -0.33896(15) -0.3564(3)
H3 H -0.7830(4) -0.46085(14) -0.5776(3)
H4 H -0.3055(4) -0.40890(15) -0.4322(3)
H5 H -0.4641(5) -0.56644(15) -0.4222(4)
H6 H -0.2362(5) -0.52475(15) -0.2963(4)
H7 H -1.3194(4) -0.29378(16) -0.6179(4)
H8 H -1.2341(4) -0.21394(16) -0.6826(4)
H9 H -1.3781(5) -0.17918(17) -0.4774(4)
H10 H -1.1986(5) -0.24205(17) -0.3632(4)
H11 H -1.0489(5) -0.10530(17) -0.4903(4)
H12 H -1.0304(5) -0.11581(17) -0.3077(4)
H13 H -0.7586(5) -0.21910(17) -0.2837(4)
H14 H -0.6594(5) -0.14208(17) -0.3489(4)
H15 H -1.0317(5) -0.22749(17) -0.8468(3)
H16 H -0.7433(5) -0.23186(17) -0.7814(3)
H17 H -0.9047(6) -0.2630(2) -1.0562(4)
H18 H -0.7462(6) -0.3338(2) -0.9538(4)
H19 H -1.1043(6) -0.3861(3) -1.1255(4)
H20 H -1.2549(6) -0.3269(3) -1.0520(4)
H21 H -1.2356(6) -0.4520(2) -0.9352(4)
H22 H -0.9475(6) -0.4459(2) -0.8773(4)
H23 H -0.8540(7) -0.5891(2) 0.0875(4)
H24 H -0.7099(7) -0.6562(2) 0.0271(4)
H25 H -0.5652(7) -0.5886(2) 0.1472(4)
H26 H -0.3015(4) -0.43443(12) -0.6514(3)
loop_
_geom_bond_atom_site_label_1
_geom_bond_atom_site_label_2
_geom_bond_site_symmetry_1
_geom_bond_site_symmetry_2
O1 C8 1_555 1_555
O2 C13 1_555 1_555
O3 C1 1_555 1_555
O4 C1 1_555 1_555
O5 C4 1_555 1_555
O6 C5 1_555 1_555
O7 C6 1_555 1_555
C1 C2 1_555 1_555
C2 C3 1_555 1_555
C3 C4 1_555 1_555
C4 C5 1_555 1_555
C5 C6 1_555 1_555
C6 C7 1_555 1_555
C7 C2 1_555 1_555
C8 O5 1_555 1_555
C9 C8 1_555 1_555
C10 C9 1_555 1_555
C11 C10 1_555 1_555
C12 O1 1_555 1_555
C13 O6 1_555 1_555
C14 C13 1_555 1_555
C15 C14 1_555 1_555
C16 C15 1_555 1_555
C17 O2 1_555 1_555
C18 O3 1_555 1_555
H1 C3 1_555 1_555
H2 C4 1_555 1_555
H3 C5 1_555 1_555
H4 C6 1_555 1_555
H5 C7 1_555 1_555
H6 C7 1_555 1_555
H7 C9 1_555 1_555
H8 C9 1_555 1_555
H9 C10 1_555 1_555
H10 C10 1_555 1_555
H11 C11 1_555 1_555
H12 C11 1_555 1_555
H13 C12 1_555 1_555
H14 C12 1_555 1_555
H15 C14 1_555 1_555
H16 C14 1_555 1_555
H17 C15 1_555 1_555
H18 C15 1_555 1_555
H19 C16 1_555 1_555
H20 C16 1_555 1_555
H21 C17 1_555 1_555
H22 C17 1_555 1_555
H23 C18 1_555 1_555
H24 C18 1_555 1_555
H25 C18 1_555 1_555
H26 O7 1_555 1_555
C8 C13 1_555 1_555
C11 C12 1_555 1_555
C16 C17 1_555 1_555

#END
