
#######################################################################
#
#                 Cambridge Crystallographic Data Centre
#                                CCDC 
#
#######################################################################
#
# If this CIF has been generated from an entry in the Cambridge 
# Structural Database, then it will include bibliographic, chemical, 
# crystal, experimental, refinement or atomic coordinate data resulting 
# from the CCDC's data processing and validation procedures.
#
#######################################################################

data_ELECAA
_chemical_formula_moiety         'C32 H26 N6 O2,C1 H4 O1'
_chemical_name_systematic        
'2,3-bis(5-((4-methoxyphenyl)iminomethyl)pyrrol-2-yl)quinoxaline methanol solvate'
_symmetry_cell_setting           monoclinic
_symmetry_space_group_name_H-M   'P 21/c'
_symmetry_Int_Tables_number      14
_space_group_name_Hall           '-P 2ybc'
loop_
_symmetry_equiv_pos_site_id
_symmetry_equiv_pos_as_xyz
1 x,y,z
2 -x,1/2+y,1/2-z
3 -x,-y,-z
4 x,1/2-y,1/2+z
_cell_length_a                   22.061(5)
_cell_length_b                   7.7536(18)
_cell_length_c                   17.062(4)
_cell_angle_alpha                90
_cell_angle_beta                 100.265(4)
_cell_angle_gamma                90
_cell_volume                     2871.78
_exptl_crystal_colour            yellow
_exptl_crystal_description       needle
_cell_formula_units_Z            4
loop_
_atom_site_label
_atom_site_type_symbol
_atom_site_fract_x
_atom_site_fract_y
_atom_site_fract_z
C1 C 0.62873(8) 0.1522(2) 0.49451(10)
C2 C 0.67026(9) 0.0295(3) 0.53522(13)
H1 H 0.7082 0.0115 0.5201
C3 C 0.65450(10) -0.0616(3) 0.59619(13)
H2 H 0.6819 -0.1421 0.6229
C4 C 0.59765(10) -0.0365(3) 0.61955(12)
H3 H 0.5882 -0.0978 0.6626
C5 C 0.55595(9) 0.0769(3) 0.58000(11)
H4 H 0.5179 0.0915 0.5955
C6 C 0.57056(8) 0.1714(2) 0.51592(10)
C7 C 0.60781(7) 0.3770(2) 0.40566(10)
C8 C 0.54467(8) 0.3740(2) 0.41630(10)
C9 C 0.49412(7) 0.4642(2) 0.36570(10)
C10 C 0.48683(8) 0.5480(3) 0.29297(11)
H5 H 0.5175 0.5681 0.2631
C11 C 0.42534(8) 0.5965(3) 0.27266(11)
H6 H 0.4076 0.6550 0.2267
C12 C 0.39541(8) 0.5429(2) 0.33228(10)
C13 C 0.33275(8) 0.5609(2) 0.34332(11)
H7 H 0.3046 0.6198 0.3057
C14 C 0.25502(8) 0.5156(2) 0.41815(10)
C15 C 0.23839(8) 0.4123(2) 0.47766(11)
H8 H 0.2668 0.3343 0.5044
C16 C 0.18119(9) 0.4232(3) 0.49767(11)
H9 H 0.1711 0.3525 0.5374
C17 C 0.13831(8) 0.5389(3) 0.45895(12)
C18 C 0.15370(8) 0.6433(3) 0.40031(12)
H10 H 0.1252 0.7218 0.3741
C19 C 0.21169(8) 0.6312(3) 0.38040(12)
H11 H 0.2217 0.7024 0.3408
C20 C 0.04072(10) 0.6752(4) 0.45433(17)
H12 H 0.0606 0.7855 0.4630
H13 H 0.0061 0.6716 0.4813
H14 H 0.0269 0.6579 0.3983
C21 C 0.63519(8) 0.5108(2) 0.36277(10)
C22 C 0.62411(8) 0.6858(2) 0.35415(11)
H15 H 0.5907 0.7449 0.3677
C23 C 0.67168(8) 0.7575(3) 0.32176(11)
H16 H 0.6759 0.8733 0.3096
C24 C 0.71159(8) 0.6263(3) 0.31069(10)
C25 C 0.76774(8) 0.6343(3) 0.28015(11)
H17 H 0.7790 0.7390 0.2603
C26 C 0.85719(8) 0.5220(2) 0.24541(11)
C27 C 0.85953(9) 0.6130(3) 0.17589(12)
H18 H 0.8248 0.6712 0.1501
C28 C 0.91298(10) 0.6176(3) 0.14507(13)
H19 H 0.9141 0.6780 0.0983
C29 C 0.96522(9) 0.5327(3) 0.18336(14)
C30 C 0.96305(9) 0.4433(3) 0.25213(14)
H20 H 0.9980 0.3872 0.2786
C31 C 0.90927(9) 0.4365(3) 0.28199(13)
H21 H 0.9080 0.3727 0.3279
C32 C 1.07015(10) 0.4540(4) 0.1841(2)
H22 H 1.0837 0.4979 0.2369
H23 H 1.1020 0.4703 0.1531
H24 H 1.0611 0.3333 0.1868
N1 N 0.64714(6) 0.25945(19) 0.44002(9)
N2 N 0.52794(6) 0.27781(19) 0.47280(8)
N3 N 0.43778(6) 0.46156(18) 0.38731(8)
H28 H 0.4300 0.4146 0.4301
N4 N 0.31562(7) 0.49653(19) 0.40436(9)
N5 N 0.68825(6) 0.4777(2) 0.33608(8)
H29 H 0.7048 0.3774 0.3353
N6 N 0.80325(7) 0.5047(2) 0.27871(9)
O1 O 0.08311(6) 0.5431(2) 0.48461(10)
O2 O 1.01581(7) 0.5444(2) 0.14737(11)
C33 C 0.79633(11) 0.1251(4) 0.40691(15)
H25 H 0.8398 0.1482 0.4170
H26 H 0.7895 0.0048 0.4154
H27 H 0.7767 0.1926 0.4424
O3 O 0.77185(8) 0.1678(2) 0.32879(10)
H30 H 0.7880(16) 0.287(2) 0.320(2)
loop_
_geom_bond_atom_site_label_1
_geom_bond_atom_site_label_2
_geom_bond_site_symmetry_1
_geom_bond_site_symmetry_2
C1 C2 1_555 1_555
C2 H1 1_555 1_555
C3 C2 1_555 1_555
H2 C3 1_555 1_555
C4 C3 1_555 1_555
H3 C4 1_555 1_555
C5 C4 1_555 1_555
H4 C5 1_555 1_555
C6 C1 1_555 1_555
C7 C8 1_555 1_555
C8 C9 1_555 1_555
C9 C10 1_555 1_555
C10 H5 1_555 1_555
C11 C10 1_555 1_555
H6 C11 1_555 1_555
C12 C11 1_555 1_555
C13 C12 1_555 1_555
H7 C13 1_555 1_555
C14 C15 1_555 1_555
C15 H8 1_555 1_555
C16 C15 1_555 1_555
H9 C16 1_555 1_555
C17 C16 1_555 1_555
C18 C17 1_555 1_555
H10 C18 1_555 1_555
C19 C14 1_555 1_555
H11 C19 1_555 1_555
C20 H12 1_555 1_555
H13 C20 1_555 1_555
H14 C20 1_555 1_555
C21 C7 1_555 1_555
C22 C21 1_555 1_555
H15 C22 1_555 1_555
C23 C22 1_555 1_555
H16 C23 1_555 1_555
C24 C23 1_555 1_555
C25 C24 1_555 1_555
H17 C25 1_555 1_555
C26 C27 1_555 1_555
C27 H18 1_555 1_555
C28 C27 1_555 1_555
H19 C28 1_555 1_555
C29 C28 1_555 1_555
C30 C29 1_555 1_555
H20 C30 1_555 1_555
C31 C26 1_555 1_555
H21 C31 1_555 1_555
C32 H22 1_555 1_555
H23 C32 1_555 1_555
H24 C32 1_555 1_555
C33 H25 1_555 1_555
H26 C33 1_555 1_555
H27 C33 1_555 1_555
N1 C1 1_555 1_555
N2 C6 1_555 1_555
N3 C9 1_555 1_555
H28 N3 1_555 1_555
N4 C13 1_555 1_555
N5 C21 1_555 1_555
H29 N5 1_555 1_555
N6 C25 1_555 1_555
O1 C17 1_555 1_555
O2 C29 1_555 1_555
O3 C33 1_555 1_555
H30 O3 1_555 1_555
C5 C6 1_555 1_555
C7 N1 1_555 1_555
C8 N2 1_555 1_555
C12 N3 1_555 1_555
C14 N4 1_555 1_555
C18 C19 1_555 1_555
C20 O1 1_555 1_555
C24 N5 1_555 1_555
C26 N6 1_555 1_555
C30 C31 1_555 1_555
C32 O2 1_555 1_555

#END
