
#######################################################################
#
#                 Cambridge Crystallographic Data Centre
#                                CCDC 
#
#######################################################################
#
# If this CIF has been generated from an entry in the Cambridge 
# Structural Database, then it will include bibliographic, chemical, 
# crystal, experimental, refinement or atomic coordinate data resulting 
# from the CCDC's data processing and validation procedures.
#
#######################################################################

data_ELEFUY
_chemical_formula_moiety         'C37 H52 O6,2(H2 O1)'
_chemical_name_systematic        
'Benzyl 1\a,2\b,3\a-trihydroxy-11-oxo-18\b-olean-12-en-30-oate dihydrate'
_chemical_properties_biological  'tested for antibacterial activity'
_symmetry_cell_setting           monoclinic
_symmetry_space_group_name_H-M   'P 21'
_symmetry_Int_Tables_number      4
_space_group_name_Hall           'P 2yb'
loop_
_symmetry_equiv_pos_site_id
_symmetry_equiv_pos_as_xyz
1 x,y,z
2 -x,1/2+y,-z
_cell_length_a                   15.7402(6)
_cell_length_b                   6.5876(2)
_cell_length_c                   17.5417(6)
_cell_angle_alpha                90
_cell_angle_beta                 93.2380(10)
_cell_angle_gamma                90
_cell_volume                     1816
_exptl_crystal_colour            colorless
_exptl_crystal_description       prism
_chemical_melting_point          '114-116 deg.C'
_cell_formula_units_Z            2
_exptl_crystal_recrystallization_method ethanol
loop_
_atom_site_label
_atom_site_type_symbol
_atom_site_fract_x
_atom_site_fract_y
_atom_site_fract_z
C1 C 0.8211(2) 0.6242(9) 0.8852(2)
H1 H 0.8051 0.7478 0.8604
O1 O -0.21916(16) 0.1304(5) 0.54738(17)
H2 H -0.2249 0.0043 0.5517
O2 O 0.53357(17) 0.4455(5) 0.76370(19)
C2 C 0.2339(2) -0.1335(6) 0.7458(2)
H3 H 0.2867 -0.2029 0.7626
H4 H 0.2388 -0.0812 0.6939
H5 H 0.1863 -0.2293 0.7462
O3 O 0.15919(15) 0.4890(4) 0.63781(14)
O4 O -0.07575(15) 0.2366(5) 0.47148(15)
H6 H -0.1139 0.1739 0.4457
C3 C 0.9241(2) 0.4264(11) 0.9604(2)
H7 H 0.9785 0.4136 0.9863
C4 C 0.9017(3) 0.6040(10) 0.9218(2)
H8 H 0.9414 0.7124 0.9203
C5 C 0.7638(2) 0.4615(7) 0.8851(2)
C6 C 0.6796(2) 0.4922(6) 0.8414(2)
H9 H 0.6454 0.5943 0.8675
H10 H 0.6889 0.5416 0.7892
O5 O 0.63557(15) 0.2995(4) 0.83786(15)
C7 C 0.5625(2) 0.3005(6) 0.7969(2)
C8 C 0.5228(2) 0.0867(6) 0.7934(2)
C9 C 0.4305(2) 0.0981(6) 0.76257(19)
H11 H 0.4083 -0.0417 0.7557
H12 H 0.4287 0.1635 0.7117
C10 C 0.37097(19) 0.2174(5) 0.81458(18)
H13 H 0.3895 0.3626 0.8143
C11 C 0.2806(2) 0.2109(6) 0.78076(18)
C12 C 0.21777(19) 0.0454(6) 0.80061(18)
C13 C 0.1240(2) 0.1311(6) 0.78975(17)
C14 C 0.0591(2) -0.0321(7) 0.80965(19)
H14 H 0.0736 -0.1612 0.7847
H15 H 0.0628 -0.0547 0.8655
C15 C -0.0318(2) 0.0264(7) 0.78455(19)
H16 H -0.0479 0.1502 0.8122
H17 H -0.0708 -0.0841 0.7982
C16 C -0.0420(2) 0.0656(6) 0.69801(18)
H18 H -0.0195 -0.0588 0.6735
C17 C -0.13825(19) 0.0808(6) 0.6681(2)
C18 C -0.1458(2) 0.1944(7) 0.5918(2)
H19 H -0.1498 0.3435 0.6017
C19 C 0.5250(2) -0.0053(6) 0.8735(2)
H20 H 0.5846 -0.0112 0.8947
H21 H 0.5026 -0.1457 0.8705
C20 C 0.4717(2) 0.1203(7) 0.9269(2)
H22 H 0.4738 0.0547 0.9777
H23 H 0.4975 0.2567 0.9331
C21 C 0.3786(2) 0.1446(6) 0.89858(19)
C22 C 0.3303(2) -0.0564(6) 0.9061(2)
H24 H 0.3564 -0.1603 0.8740
H25 H 0.3366 -0.1028 0.9598
C23 C 0.2364(2) -0.0394(7) 0.8825(2)
H26 H 0.2090 0.0501 0.9192
H27 H 0.2102 -0.1755 0.8858
C24 C 0.25909(19) 0.3444(5) 0.72481(17)
H28 H 0.3013 0.4376 0.7103
C25 C 0.17395(19) 0.3552(5) 0.68448(17)
C26 C 0.1081(2) 0.1950(6) 0.70385(18)
H29 H 0.1245 0.0723 0.6745
C27 C 0.0153(2) 0.2410(6) 0.67343(19)
C28 C -0.1955(2) 0.1915(8) 0.7227(2)
H30 H -0.2067 0.1023 0.7657
H31 H -0.2494 0.2276 0.6954
H32 H -0.1669 0.3150 0.7418
C29 C -0.06697(18) 0.1521(6) 0.54648(18)
H33 H -0.0591 0.0019 0.5423
C30 C 0.0137(2) 0.2447(6) 0.58376(17)
H34 H 0.0147 0.3906 0.5680
O6 O 0.08484(14) 0.1481(4) 0.55095(13)
H35 H 0.0684 0.0416 0.5283
C31 C -0.1717(2) -0.1361(7) 0.6585(2)
H36 H -0.2335 -0.1330 0.6479
H37 H -0.1583 -0.2129 0.7055
H38 H -0.1447 -0.2014 0.6158
C32 C 0.1133(2) 0.3141(6) 0.84410(19)
H39 H 0.1307 0.2742 0.8965
H40 H 0.0535 0.3567 0.8417
H41 H 0.1489 0.4270 0.8284
C33 C -0.0139(2) 0.4499(6) 0.7003(2)
H42 H -0.0316 0.4396 0.7529
H43 H -0.0620 0.4967 0.6670
H44 H 0.0331 0.5468 0.6983
C34 C 0.3389(2) 0.3082(7) 0.9484(2)
H45 H 0.3753 0.4289 0.9504
H46 H 0.3339 0.2552 1.0002
H47 H 0.2824 0.3443 0.9263
C35 C 0.5745(2) -0.0410(7) 0.7389(3)
H48 H 0.5470 -0.1733 0.7307
H49 H 0.6323 -0.0608 0.7615
H50 H 0.5771 0.0298 0.6900
C36 C 0.7865(2) 0.2899(7) 0.9245(2)
H51 H 0.7465 0.1825 0.9273
C37 C 0.8664(2) 0.2681(9) 0.9605(2)
H52 H 0.8816 0.1443 0.9855
O7 O 0.25313(19) 0.2443(7) 0.5210(2)
O8 O 0.3289(3) 0.9344(14) 0.4497(7)
loop_
_geom_bond_atom_site_label_1
_geom_bond_atom_site_label_2
_geom_bond_site_symmetry_1
_geom_bond_site_symmetry_2
C1 H1 1_555 1_555
O1 H2 1_555 1_555
O2 C7 1_555 1_555
C2 H3 1_555 1_555
H4 C2 1_555 1_555
H5 C2 1_555 1_555
O3 C25 1_555 1_555
O4 H6 1_555 1_555
C3 H7 1_555 1_555
C4 C1 1_555 1_555
H8 C4 1_555 1_555
C5 C1 1_555 1_555
C6 C5 1_555 1_555
H9 C6 1_555 1_555
H10 C6 1_555 1_555
O5 C6 1_555 1_555
C7 O5 1_555 1_555
C8 C7 1_555 1_555
C9 C8 1_555 1_555
H11 C9 1_555 1_555
H12 C9 1_555 1_555
C10 C9 1_555 1_555
H13 C10 1_555 1_555
C11 C10 1_555 1_555
C12 C2 1_555 1_555
C13 C12 1_555 1_555
C14 C13 1_555 1_555
H14 C14 1_555 1_555
H15 C14 1_555 1_555
C15 C14 1_555 1_555
H16 C15 1_555 1_555
H17 C15 1_555 1_555
C16 C15 1_555 1_555
H18 C16 1_555 1_555
C17 C16 1_555 1_555
C18 O1 1_555 1_555
H19 C18 1_555 1_555
C19 C8 1_555 1_555
H20 C19 1_555 1_555
H21 C19 1_555 1_555
C20 C19 1_555 1_555
H22 C20 1_555 1_555
H23 C20 1_555 1_555
C21 C10 1_555 1_555
C22 C21 1_555 1_555
H24 C22 1_555 1_555
H25 C22 1_555 1_555
C23 C12 1_555 1_555
H26 C23 1_555 1_555
H27 C23 1_555 1_555
C24 C11 1_555 1_555
H28 C24 1_555 1_555
C25 C24 1_555 1_555
C26 C13 1_555 1_555
H29 C26 1_555 1_555
C27 C16 1_555 1_555
C28 C17 1_555 1_555
H30 C28 1_555 1_555
H31 C28 1_555 1_555
H32 C28 1_555 1_555
C29 O4 1_555 1_555
H33 C29 1_555 1_555
C30 C27 1_555 1_555
H34 C30 1_555 1_555
O6 C30 1_555 1_555
H35 O6 1_555 1_555
C31 C17 1_555 1_555
H36 C31 1_555 1_555
H37 C31 1_555 1_555
H38 C31 1_555 1_555
C32 C13 1_555 1_555
H39 C32 1_555 1_555
H40 C32 1_555 1_555
H41 C32 1_555 1_555
C33 C27 1_555 1_555
H42 C33 1_555 1_555
H43 C33 1_555 1_555
H44 C33 1_555 1_555
C34 C21 1_555 1_555
H45 C34 1_555 1_555
H46 C34 1_555 1_555
H47 C34 1_555 1_555
C35 C8 1_555 1_555
H48 C35 1_555 1_555
H49 C35 1_555 1_555
H50 C35 1_555 1_555
C36 C5 1_555 1_555
H51 C36 1_555 1_555
C37 C3 1_555 1_555
H52 C37 1_555 1_555
C3 C4 1_555 1_555
C11 C12 1_555 1_555
C17 C18 1_555 1_555
C18 C29 1_555 1_555
C20 C21 1_555 1_555
C22 C23 1_555 1_555
C25 C26 1_555 1_555
C26 C27 1_555 1_555
C29 C30 1_555 1_555
C36 C37 1_555 1_555

#END
