
#######################################################################
#
#                 Cambridge Crystallographic Data Centre
#                                CCDC 
#
#######################################################################
#
# If this CIF has been generated from an entry in the Cambridge 
# Structural Database, then it will include bibliographic, chemical, 
# crystal, experimental, refinement or atomic coordinate data resulting 
# from the CCDC's data processing and validation procedures.
#
#######################################################################

data_ELEJOV01
_chemical_formula_moiety         'C21 H19 N1 O2'
_chemical_name_systematic        
2-((2-hydroxy-1,2-diphenylethyl)carbonoimidoyl)phenol
_symmetry_cell_setting           orthorhombic
_symmetry_space_group_name_H-M   'P 21 21 21'
_symmetry_Int_Tables_number      19
_space_group_name_Hall           'P 2ac 2ab'
loop_
_symmetry_equiv_pos_site_id
_symmetry_equiv_pos_as_xyz
1 x,y,z
2 1/2-x,-y,1/2+z
3 1/2+x,1/2-y,-z
4 -x,1/2+y,1/2-z
_cell_length_a                   6.1074(10)
_cell_length_b                   7.4893(12)
_cell_length_c                   35.8612(15)
_cell_angle_alpha                90
_cell_angle_beta                 90
_cell_angle_gamma                90
_cell_volume                     1640.3
_exptl_crystal_colour            yellow
_cell_formula_units_Z            4
loop_
_atom_site_label
_atom_site_type_symbol
_atom_site_fract_x
_atom_site_fract_y
_atom_site_fract_z
O1 O 0.3937(2) 0.1766(2) 0.57780(4)
H1 H 0.4909 0.1573 0.5930
O2 O 1.0466(2) -0.0755(2) 0.58595(3)
H2 H 1.1499 -0.0090 0.5814
N1 N 0.7667(3) 0.2008(3) 0.60927(4)
C1 C 0.8189(3) 0.3234(3) 0.58603(5)
H3 H 0.9574 0.3746 0.5875
C2 C 0.8692(3) 0.1587(3) 0.67502(5)
C3 C 0.6678(3) 0.3850(3) 0.55746(5)
C4 C 0.4603(3) 0.3063(3) 0.55365(5)
C5 C 0.4672(4) -0.4232(3) 0.64984(7)
H4 H 0.3508 -0.4976 0.6560
C6 C 1.0186(4) 0.2299(3) 0.69998(5)
H5 H 1.1586 0.2593 0.6918
C7 C 0.7552(4) 0.2132(4) 0.74956(6)
H6 H 0.7167 0.2319 0.7743
C8 C 0.7291(4) 0.5196(3) 0.53245(5)
H7 H 0.8653 0.5738 0.5349
C9 C 0.9358(3) 0.1339(3) 0.63464(5)
H8 H 1.0681 0.2052 0.6305
C10 C 0.9915(3) -0.0625(3) 0.62445(5)
H9 H 1.1199 -0.0984 0.6390
C11 C 0.3868(4) 0.4915(3) 0.50084(6)
H10 H 0.2931 0.5265 0.4817
C12 C 0.6059(4) 0.1402(3) 0.72499(5)
H11 H 0.4670 0.1090 0.7334
C13 C 0.5908(4) 0.5732(3) 0.50415(6)
H12 H 0.6330 0.6623 0.4876
C14 C 0.6609(3) 0.1132(3) 0.68800(5)
H13 H 0.5587 0.0645 0.6717
C15 C 0.3211(4) 0.3604(3) 0.52514(5)
H14 H 0.1840 0.3080 0.5225
C16 C 0.6334(4) -0.2108(3) 0.60834(6)
H15 H 0.6292 -0.1457 0.5863
C17 C 0.8113(4) -0.1932(3) 0.63225(5)
C18 C 0.6453(5) -0.4106(4) 0.67331(6)
H16 H 0.6503 -0.4784 0.6950
C19 C 0.8160(4) -0.2975(3) 0.66466(6)
H17 H 0.9360 -0.2904 0.6806
C20 C 0.9623(4) 0.2583(3) 0.73714(6)
H18 H 1.0637 0.3074 0.7535
C21 C 0.4618(4) -0.3250(3) 0.61718(6)
H19 H 0.3430 -0.3354 0.6011
loop_
_geom_bond_atom_site_label_1
_geom_bond_atom_site_label_2
_geom_bond_site_symmetry_1
_geom_bond_site_symmetry_2
O1 H1 1_555 1_555
O2 H2 1_555 1_555
N1 C1 1_555 1_555
C1 H3 1_555 1_555
C2 C6 1_555 1_555
C3 C1 1_555 1_555
C4 O1 1_555 1_555
C5 H4 1_555 1_555
C6 H5 1_555 1_555
C7 H6 1_555 1_555
C8 C3 1_555 1_555
H7 C8 1_555 1_555
C9 N1 1_555 1_555
H8 C9 1_555 1_555
C10 O2 1_555 1_555
H9 C10 1_555 1_555
C11 H10 1_555 1_555
C12 C7 1_555 1_555
H11 C12 1_555 1_555
C13 C8 1_555 1_555
H12 C13 1_555 1_555
C14 C2 1_555 1_555
H13 C14 1_555 1_555
C15 C4 1_555 1_555
H14 C15 1_555 1_555
C16 H15 1_555 1_555
C17 C10 1_555 1_555
C18 C5 1_555 1_555
H16 C18 1_555 1_555
C19 C17 1_555 1_555
H17 C19 1_555 1_555
C20 C6 1_555 1_555
H18 C20 1_555 1_555
C21 C5 1_555 1_555
H19 C21 1_555 1_555
C2 C9 1_555 1_555
C3 C4 1_555 1_555
C7 C20 1_555 1_555
C9 C10 1_555 1_555
C11 C13 1_555 1_555
C11 C15 1_555 1_555
C12 C14 1_555 1_555
C16 C17 1_555 1_555
C16 C21 1_555 1_555
C18 C19 1_555 1_555

#END
