
#######################################################################
#
#                 Cambridge Crystallographic Data Centre
#                                CCDC 
#
#######################################################################
#
# If this CIF has been generated from an entry in the Cambridge 
# Structural Database, then it will include bibliographic, chemical, 
# crystal, experimental, refinement or atomic coordinate data resulting 
# from the CCDC's data processing and validation procedures.
#
#######################################################################

data_ELELUE
_chemical_compound_source        'Zephyranthes candida'
_chemical_formula_moiety         'C23 H30 N2 O4'
_chemical_name_systematic        N-(S)-s-Pentyl-5,6-dihydroplicane
_chemical_properties_biological  'tested for anti-inflammatory activity'
_symmetry_cell_setting           monoclinic
_symmetry_space_group_name_H-M   'P 21'
_symmetry_Int_Tables_number      4
_space_group_name_Hall           'P 2yb'
loop_
_symmetry_equiv_pos_site_id
_symmetry_equiv_pos_as_xyz
1 x,y,z
2 -x,1/2+y,-z
_cell_length_a                   9.4965(2)
_cell_length_b                   11.4906(3)
_cell_length_c                   9.9133(3)
_cell_angle_alpha                90
_cell_angle_beta                 95.2470(10)
_cell_angle_gamma                90
_cell_volume                     1077.21
_exptl_crystal_colour            colorless
_exptl_crystal_description       block
_cell_formula_units_Z            2
loop_
_atom_site_label
_atom_site_type_symbol
_atom_site_fract_x
_atom_site_fract_y
_atom_site_fract_z
C1 C 1.0536(2) 0.3383(2) 0.4940(2)
H1 H 1.0340 0.3880 0.4207
C2 C 1.1868(2) 0.3085(2) 0.5248(2)
H2 H 1.2565 0.3397 0.4755
C3 C 1.2276(2) 0.2249(2) 0.6379(2)
H3 H 1.3120 0.1815 0.6175
C4 C 1.1075(2) 0.1404(2) 0.6533(3)
H4 H 1.1329 0.0880 0.7283
H5 H 1.0902 0.0943 0.5716
C5 C 0.6363(2) 0.3754(3) 0.4854(3)
H6 H 0.5758 0.3222 0.5295
H7 H 0.5764 0.4298 0.4320
C6 C 0.6724(2) 0.5418(2) 0.6478(2)
H8 H 0.5812 0.5673 0.6209
C7 C 0.7571(2) 0.6004(2) 0.7434(2)
C8 C 0.8920(2) 0.5636(2) 0.7838(2)
C9 C 0.9501(2) 0.4685(2) 0.7288(2)
H9 H 1.0425 0.4460 0.7555
C10 C 0.7574(2) 0.1449(2) 0.5684(3)
C11 C 0.8194(2) 0.2328(2) 0.4738(2)
H10 H 0.8699 0.1887 0.4086
C12 C 0.6356(3) 0.2541(3) 0.2845(3)
H11 H 0.5464 0.2951 0.2682
H12 H 0.6150 0.1749 0.3102
C13 C 0.8310(4) 0.0510(3) 0.7859(3)
H13 H 0.7369 0.0199 0.7747
H14 H 0.8457 0.0897 0.8719
H15 H 0.8981 -0.0111 0.7823
C14 C 1.3722(4) 0.3601(5) 0.7706(4)
H16 H 1.4574 0.3166 0.7625
H17 H 1.3798 0.4012 0.8552
H18 H 1.3585 0.4147 0.6973
C15 C 0.8488(3) 0.7249(3) 0.8987(3)
H19 H 0.8262 0.7270 0.9921
H20 H 0.8854 0.8005 0.8760
C16 C 0.7105(16) 0.2516(10) 0.1501(11)
C17 C 0.7600(12) 0.3642(10) 0.1004(9)
H21 H 0.8006 0.3501 0.0156
H22 H 0.8356 0.3919 0.1647
C18 C 0.6532(13) 0.4602(11) 0.0773(13)
H23 H 0.6984 0.5283 0.0453
H24 H 0.6139 0.4778 0.1608
H25 H 0.5790 0.4359 0.0109
C19 C 0.612(3) 0.180(2) 0.0504(17)
C20 C 0.9744(2) 0.20773(18) 0.6791(2)
H26 H 0.9895 0.2473 0.7668
C21 C 0.7285(2) 0.4409(2) 0.5912(2)
C22 C 0.8655(2) 0.40502(18) 0.6300(2)
C23 C 0.93085(19) 0.29841(18) 0.5680(2)
N1 N 0.8495(2) 0.13322(18) 0.6786(2)
N2 N 0.72065(19) 0.31047(18) 0.39707(19)
O1 O 0.9524(2) 0.63747(18) 0.8827(2)
O2 O 0.7259(2) 0.69945(17) 0.8126(2)
O3 O 0.6456(2) 0.09215(19) 0.5478(2)
O4 O 1.25502(18) 0.28236(19) 0.76583(18)
H27 H 0.7957 0.2042 0.1699
H28 H 0.5285 0.2237 0.0237
H29 H 0.5870 0.1088 0.0934
H30 H 0.6504 0.1306 0.0549
C24? C 0.6722(12) 0.2865(9) 0.1608(12)
C25? C 0.6318(12) 0.4115(9) 0.1369(8)
C26? C 0.7202(16) 0.4495(15) 0.0234(12)
C27? C 0.615(3) 0.2084(19) 0.0405(18)
C28? C 0.697(3) 0.238(2) 0.1510(17)
C29? C 0.785(3) 0.341(3) 0.1197(17)
C30? C 0.793(3) 0.372(3) -0.0241(17)
C31? C 0.589(5) 0.196(5) 0.040(3)
H31? H 0.6966 0.4022 -0.0552
H32? H 0.8269 0.3067 -0.0719
H33? H 0.6545 0.4576 0.2180
H34? H 0.5246 0.2578 0.0132
H35? H 0.6359 0.1707 -0.0365
H36? H 0.5369 0.1317 0.0733
H37? H 0.6604 0.1616 -0.0281
H38? H 0.6087 0.1780 0.3158
H39? H 0.6453 0.1705 0.2938
H40? H 0.5371 0.2737 0.2903
H41? H 0.7490 0.4077 0.1652
H42? H 0.5315 0.4188 0.1093
H43? H 0.8188 0.4406 0.0527
H44? H 0.8804 0.3268 0.1599
H45? H 0.7756 0.2830 0.1651
H46? H 0.7007 0.5296 0.0015
H47? H 0.5138 0.2076 0.0342
H48? H 0.6465 0.2386 -0.0420
H49? H 0.7646 0.1739 0.1660
H50? H 0.8572 0.4364 -0.0296
H51? H 0.7011 0.3940 -0.0640
loop_
_geom_bond_atom_site_label_1
_geom_bond_atom_site_label_2
_geom_bond_site_symmetry_1
_geom_bond_site_symmetry_2
C1 H1 1_555 1_555
C2 C1 1_555 1_555
H2 C2 1_555 1_555
C3 C2 1_555 1_555
H3 C3 1_555 1_555
C4 C3 1_555 1_555
H4 C4 1_555 1_555
H5 C4 1_555 1_555
C5 H6 1_555 1_555
H7 C5 1_555 1_555
C6 H8 1_555 1_555
C7 C6 1_555 1_555
C8 C7 1_555 1_555
C9 C8 1_555 1_555
H9 C9 1_555 1_555
C10 C11 1_555 1_555
C11 H10 1_555 1_555
C12 H11 1_555 1_555
H12 C12 1_555 1_555
C13 H13 1_555 1_555
H14 C13 1_555 1_555
H15 C13 1_555 1_555
C14 H16 1_555 1_555
H17 C14 1_555 1_555
H18 C14 1_555 1_555
C15 H19 1_555 1_555
H20 C15 1_555 1_555
C16 C12 1_555 1_555
C17 C16 1_555 1_555
H21 C17 1_555 1_555
H22 C17 1_555 1_555
C18 C17 1_555 1_555
H23 C18 1_555 1_555
H24 C18 1_555 1_555
H25 C18 1_555 1_555
C19 C16 1_555 1_555
C20 C4 1_555 1_555
H26 C20 1_555 1_555
C21 C5 1_555 1_555
C22 C9 1_555 1_555
C23 C1 1_555 1_555
N1 C10 1_555 1_555
N2 C5 1_555 1_555
O1 C8 1_555 1_555
O2 C7 1_555 1_555
O3 C10 1_555 1_555
O4 C3 1_555 1_555
H27 C16 1_555 1_555
H28 C19 1_555 1_555
H29 C19 1_555 1_555
H30 C19 1_555 1_555
C6 C21 1_555 1_555
C11 C23 1_555 1_555
C11 N2 1_555 1_555
C12 N2 1_555 1_555
C13 N1 1_555 1_555
C14 O4 1_555 1_555
C15 O1 1_555 1_555
C15 O2 1_555 1_555
C20 C23 1_555 1_555
C20 N1 1_555 1_555
C21 C22 1_555 1_555
C22 C23 1_555 1_555

#END
