
#######################################################################
#
#                 Cambridge Crystallographic Data Centre
#                                CCDC 
#
#######################################################################
#
# If this CIF has been generated from an entry in the Cambridge 
# Structural Database, then it will include bibliographic, chemical, 
# crystal, experimental, refinement or atomic coordinate data resulting 
# from the CCDC's data processing and validation procedures.
#
#######################################################################

data_ELEMAL
_chemical_compound_source        'Zephyranthes candida'
_chemical_formula_moiety         'C17 H21 N1 O4,0.15(H2 O1)'
_chemical_name_systematic        '12-Hydroxygalanthamine hydrate'
_chemical_properties_biological  'tested for anti-inflammatory activity'
_symmetry_cell_setting           orthorhombic
_symmetry_space_group_name_H-M   'P 21 21 21'
_symmetry_Int_Tables_number      19
_space_group_name_Hall           'P 2ac 2ab'
loop_
_symmetry_equiv_pos_site_id
_symmetry_equiv_pos_as_xyz
1 x,y,z
2 1/2-x,-y,1/2+z
3 -x,1/2+y,1/2-z
4 1/2+x,1/2-y,-z
_cell_length_a                   9.7421(2)
_cell_length_b                   9.7391(2)
_cell_length_c                   16.0471(3)
_cell_angle_alpha                90
_cell_angle_beta                 90
_cell_angle_gamma                90
_cell_volume                     1522.54
_exptl_crystal_colour            colorless
_exptl_crystal_description       block
_cell_formula_units_Z            4
loop_
_atom_site_label
_atom_site_type_symbol
_atom_site_fract_x
_atom_site_fract_y
_atom_site_fract_z
C1 C 0.91263(13) 0.02046(13) 0.46597(8)
H1 H 0.8136 0.0122 0.4566
C2 C 0.95615(15) 0.16457(13) 0.44522(9)
H2 H 0.9112 0.2278 0.4831
H3 H 0.9262 0.1865 0.3891
C3 C 1.10939(15) 0.18453(13) 0.45104(9)
H4 H 1.1322 0.2688 0.4207
C4 C 1.18610(13) 0.06880(13) 0.41061(8)
H5 H 1.2776 0.0831 0.3965
C5 C 1.06352(15) -0.40897(13) 0.39427(9)
H6 H 1.1497 -0.3708 0.3748
H7 H 1.0783 -0.5062 0.4037
C6 C 1.03260(14) -0.41652(15) 0.55122(9)
H8 H 1.0527 -0.5098 0.5495
C7 C 1.00663(16) -0.35599(17) 0.62794(9)
H9 H 1.0110 -0.4087 0.6762
C8 C 0.97415(17) -0.21735(17) 0.63333(8)
C9 C 0.96941(14) -0.14456(14) 0.55890(8)
C10 C 0.89761(13) -0.13964(13) 0.34212(7)
H10 H 0.8105 -0.1722 0.3654
C11 C 0.95515(16) -0.25745(14) 0.28990(7)
H11 H 0.9002 -0.2641 0.2397
H12 H 1.0473 -0.2322 0.2729
C12 C 0.82825(18) -0.45079(17) 0.34930(11)
H13 H 0.7925 -0.4026 0.3968
H14 H 0.8378 -0.5464 0.3626
H15 H 0.7664 -0.4405 0.3032
C13 C 0.9106(9) -0.2104(6) 0.7778(2)
H16 H 0.8774 -0.1472 0.8190
H17 H 0.9949 -0.2507 0.7966
H18 H 0.8436 -0.2813 0.7691
C14 C 1.13153(12) -0.05225(12) 0.39386(8)
H19 H 1.1859 -0.1161 0.3662
C15 C 1.02972(13) -0.34323(13) 0.47696(8)
C16 C 0.99583(12) -0.20492(13) 0.48313(7)
C17 C 0.98638(11) -0.09444(12) 0.41659(7)
N1 N 0.96208(13) -0.39433(11) 0.32707(7)
O1 O 1.15275(13) 0.20258(12) 0.53566(7)
H20 H 1.1220 0.1401 0.5644
O2 O 0.94134(11) -0.00685(10) 0.55427(5)
O3 O 0.86517(11) -0.02637(10) 0.29001(6)
H21 H 0.9324 -0.0062 0.2618
O4 O 0.9338(8) -0.1395(6) 0.7019(3)
O6 O 1.1837(7) -0.3604(7) 0.8196(4)
H25 H 1.1767 -0.4403 0.7989
H26 H 1.1163 -0.3515 0.8529
C18? C 0.984(2) -0.2451(14) 0.7810(5)
H22? H 0.9870 -0.1885 0.8299
H23? H 1.0650 -0.3014 0.7788
H24? H 0.9042 -0.3026 0.7828
O5? O 0.9786(16) -0.1609(14) 0.7093(6)
loop_
_geom_bond_atom_site_label_1
_geom_bond_atom_site_label_2
_geom_bond_site_symmetry_1
_geom_bond_site_symmetry_2
C1 H1 1_555 1_555
C2 C1 1_555 1_555
H2 C2 1_555 1_555
H3 C2 1_555 1_555
C3 C2 1_555 1_555
H4 C3 1_555 1_555
C4 C3 1_555 1_555
H5 C4 1_555 1_555
C5 H6 1_555 1_555
H7 C5 1_555 1_555
C6 H8 1_555 1_555
C7 C6 1_555 1_555
H9 C7 1_555 1_555
C8 C7 1_555 1_555
C9 C8 1_555 1_555
C10 H10 1_555 1_555
C11 C10 1_555 1_555
H11 C11 1_555 1_555
H12 C11 1_555 1_555
C12 H13 1_555 1_555
H14 C12 1_555 1_555
H15 C12 1_555 1_555
C13 H16 1_555 1_555
H17 C13 1_555 1_555
H18 C13 1_555 1_555
C14 C4 1_555 1_555
H19 C14 1_555 1_555
C15 C5 1_555 1_555
C16 C9 1_555 1_555
C17 C1 1_555 1_555
N1 C5 1_555 1_555
O1 C3 1_555 1_555
H20 O1 1_555 1_555
O2 C1 1_555 1_555
O3 C10 1_555 1_555
H21 O3 1_555 1_555
O4 C8 1_555 1_555
O6 H25 1_555 1_555
H26 O6 1_555 1_555
C6 C15 1_555 1_555
C9 O2 1_555 1_555
C10 C17 1_555 1_555
C11 N1 1_555 1_555
C12 N1 1_555 1_555
C13 O4 1_555 1_555
C14 C17 1_555 1_555
C15 C16 1_555 1_555
C16 C17 1_555 1_555

#END
