
#######################################################################
#
#                 Cambridge Crystallographic Data Centre
#                                CCDC 
#
#######################################################################
#
# If this CIF has been generated from an entry in the Cambridge 
# Structural Database, then it will include bibliographic, chemical, 
# crystal, experimental, refinement or atomic coordinate data resulting 
# from the CCDC's data processing and validation procedures.
#
#######################################################################

data_ELEPOC
_chemical_compound_source        'Colletotrichum sp.BS4'
_chemical_name_common            
3-sec-butyl-9b,9c-dihydroxy-6,9a-dimethyl-4a,9a,9b,9c-tetrahydro-2H,9H-furo[4,3,2-de]pyrano[4,3,2-ij]isochromene-2,9-dione
_chemical_formula_moiety         'C18 H20 O7'
_chemical_name_systematic        'Colletotrichone A'
_chemical_properties_biological  'antibacterial activity'
_symmetry_cell_setting           orthorhombic
_symmetry_space_group_name_H-M   'P 21 21 2'
_symmetry_Int_Tables_number      18
_space_group_name_Hall           'P 2 2ab'
loop_
_symmetry_equiv_pos_site_id
_symmetry_equiv_pos_as_xyz
1 x,y,z
2 -x,-y,z
3 1/2-x,1/2+y,-z
4 1/2+x,1/2-y,-z
_cell_length_a                   15.0896(7)
_cell_length_b                   15.6838(7)
_cell_length_c                   7.1843(3)
_cell_angle_alpha                90
_cell_angle_beta                 90
_cell_angle_gamma                90
_cell_volume                     1700.25
_exptl_crystal_colour            colorless
_exptl_crystal_description       block
_cell_formula_units_Z            4
_exptl_crystal_recrystallization_method 'Ethyl acetate'
loop_
_atom_site_label
_atom_site_type_symbol
_atom_site_fract_x
_atom_site_fract_y
_atom_site_fract_z
O1 O 0.28297(9) 0.24870(10) -0.0743(2)
O2 O 0.19334(9) 0.35821(9) -0.00823(18)
O3 O 0.01338(10) 0.36550(10) -0.08249(18)
O4 O 0.23418(9) 0.38749(9) 0.4016(2)
H1 H 0.2071(18) 0.4199(18) 0.478(4)
O5 O 0.07717(10) 0.38561(9) 0.56051(19)
H2 H 0.060(2) 0.3750(18) 0.666(4)
O6 O 0.17713(9) 0.17338(8) 0.48421(18)
O7 O 0.08350(9) 0.21040(9) 0.71516(18)
C1 C 0.1181(2) 0.0411(2) 0.1186(6)
H3 H 0.0828 0.0899 0.1607
H4 H 0.0815 -0.0105 0.1207
H5 H 0.1391 0.0515 -0.0085
C2 C 0.19734(16) 0.02932(15) 0.2474(4)
H6 H 0.2308 -0.0220 0.2089
H7 H 0.1759 0.0199 0.3760
C3 C 0.25931(14) 0.10631(13) 0.2450(3)
H8 H 0.2789 0.1163 0.1138
C4 C 0.34168(15) 0.09041(15) 0.3646(3)
H9 H 0.3817 0.1395 0.3553
H10 H 0.3722 0.0391 0.3204
H11 H 0.3239 0.0825 0.4946
C5 C 0.21453(13) 0.18547(13) 0.3137(3)
C6 C 0.21048(12) 0.26147(12) 0.2290(3)
C7 C 0.23562(13) 0.28329(13) 0.0375(3)
C8 C 0.13038(13) 0.38280(12) 0.1374(2)
C9 C 0.16709(12) 0.33776(12) 0.3131(2)
C10 C 0.12822(15) 0.47949(13) 0.1477(3)
H12 H 0.1881 0.5010 0.1720
H13 H 0.0885 0.4973 0.2484
H14 H 0.1067 0.5025 0.0292
C11 C 0.03938(13) 0.34908(13) 0.0752(3)
C12 C -0.01300(13) 0.29826(13) 0.2012(3)
H15 H -0.0704 0.2809 0.1623
C13 C 0.01524(13) 0.27407(12) 0.3716(3)
C14 C 0.09856(12) 0.31104(12) 0.4570(2)
C15 C -0.03289(13) 0.21666(13) 0.4911(3)
H16 H -0.0900 0.1978 0.4540
C16 C 0.00051(14) 0.18914(13) 0.6529(3)
C17 C -0.04676(15) 0.13343(15) 0.7888(3)
H17 H -0.1059 0.1199 0.7409
H18 H -0.0523 0.1632 0.9081
H19 H -0.0132 0.0806 0.8066
C18 C 0.14254(13) 0.24545(12) 0.5849(2)
H20 H 0.1923 0.2737 0.6532
loop_
_geom_bond_atom_site_label_1
_geom_bond_atom_site_label_2
_geom_bond_site_symmetry_1
_geom_bond_site_symmetry_2
O1 C7 1_555 1_555
O2 C7 1_555 1_555
O3 C11 1_555 1_555
O4 H1 1_555 1_555
O5 H2 1_555 1_555
O6 C5 1_555 1_555
O7 C16 1_555 1_555
C1 H3 1_555 1_555
H4 C1 1_555 1_555
H5 C1 1_555 1_555
C2 C1 1_555 1_555
H6 C2 1_555 1_555
H7 C2 1_555 1_555
C3 C2 1_555 1_555
H8 C3 1_555 1_555
C4 C3 1_555 1_555
H9 C4 1_555 1_555
H10 C4 1_555 1_555
H11 C4 1_555 1_555
C5 C3 1_555 1_555
C6 C5 1_555 1_555
C7 C6 1_555 1_555
C8 O2 1_555 1_555
C9 O4 1_555 1_555
C10 C8 1_555 1_555
H12 C10 1_555 1_555
H13 C10 1_555 1_555
H14 C10 1_555 1_555
C11 C8 1_555 1_555
C12 C11 1_555 1_555
H15 C12 1_555 1_555
C13 C12 1_555 1_555
C14 O5 1_555 1_555
C15 C13 1_555 1_555
H16 C15 1_555 1_555
C16 C15 1_555 1_555
C17 C16 1_555 1_555
H17 C17 1_555 1_555
H18 C17 1_555 1_555
H19 C17 1_555 1_555
C18 O6 1_555 1_555
H20 C18 1_555 1_555
O7 C18 1_555 1_555
C6 C9 1_555 1_555
C8 C9 1_555 1_555
C9 C14 1_555 1_555
C13 C14 1_555 1_555
C14 C18 1_555 1_555

#END
