
#######################################################################
#
#                 Cambridge Crystallographic Data Centre
#                                CCDC 
#
#######################################################################
#
# If this CIF has been generated from an entry in the Cambridge 
# Structural Database, then it will include bibliographic, chemical, 
# crystal, experimental, refinement or atomic coordinate data resulting 
# from the CCDC's data processing and validation procedures.
#
#######################################################################

data_ELEWUN
_chemical_formula_moiety         'C12 H7 N3 O9 S1'
_chemical_name_systematic        '2,4-Dinitrophenyl 3-nitrobenzenesulfonate'
_symmetry_cell_setting           orthorhombic
_symmetry_space_group_name_H-M   'P c a 21'
_symmetry_Int_Tables_number      29
_space_group_name_Hall           'P 2c -2ac'
loop_
_symmetry_equiv_pos_site_id
_symmetry_equiv_pos_as_xyz
1 x,y,z
2 -x,-y,1/2+z
3 1/2+x,-y,z
4 1/2-x,y,1/2+z
_cell_length_a                   27.730(2)
_cell_length_b                   4.7374(3)
_cell_length_c                   10.7800(8)
_cell_angle_alpha                90
_cell_angle_beta                 90
_cell_angle_gamma                90
_cell_volume                     1416.15
_exptl_crystal_colour            colorless
_exptl_crystal_description       block
_chemical_melting_point          377-379K
_cell_formula_units_Z            4
_exptl_crystal_recrystallization_method 'petroleum ether/ethanol'
loop_
_atom_site_label
_atom_site_type_symbol
_atom_site_fract_x
_atom_site_fract_y
_atom_site_fract_z
C1 C 0.63940(7) 0.8435(4) 0.11796(18)
C2 C 0.67868(8) 1.0065(4) 0.0840(2)
H1 H 0.6760(7) 1.124(5) 0.013(2)
C3 C 0.71927(8) 1.0039(5) 0.1583(2)
H2 H 0.7474(9) 1.113(4) 0.134(2)
C4 C 0.72028(7) 0.8437(4) 0.2661(2)
H3 H 0.7483(9) 0.842(4) 0.315(2)
C5 C 0.67987(7) 0.6855(4) 0.29759(19)
C6 C 0.63895(8) 0.6804(4) 0.22407(19)
H4 H 0.6131(8) 0.564(4) 0.250(2)
C7 C 0.61813(7) 0.6853(4) 0.58859(19)
C8 C 0.58006(8) 0.8235(4) 0.5321(2)
H5 H 0.5841(7) 0.913(4) 0.469(2)
C9 C 0.53528(8) 0.8283(4) 0.5895(2)
H6 H 0.5118(8) 0.909(4) 0.551(2)
C10 C 0.52982(7) 0.6906(4) 0.70080(19)
C11 C 0.56676(7) 0.5508(4) 0.7602(2)
H7 H 0.5631(8) 0.453(4) 0.831(2)
C12 C 0.61079(7) 0.5526(4) 0.70134(18)
S1 S 0.680852(17) 0.47848(9) 0.43241(5)
N1 N 0.59615(6) 0.8425(4) 0.03865(17)
N2 N 0.65165(6) 0.4156(4) 0.76543(17)
N3 N 0.48240(6) 0.6976(4) 0.76390(18)
O1 O 0.59276(5) 1.0242(3) -0.04173(15)
O2 O 0.56581(5) 0.6588(4) 0.05693(15)
O3 O 0.72932(5) 0.4132(3) 0.46165(14)
O4 O 0.64466(5) 0.2683(3) 0.42225(15)
O5 O 0.66457(5) 0.6961(3) 0.54078(13)
O6 O 0.67106(6) 0.2177(3) 0.71487(15)
O7 O 0.66216(6) 0.5114(3) 0.86734(14)
O8 O 0.45300(5) 0.8714(3) 0.72981(15)
O9 O 0.47545(6) 0.5267(4) 0.84620(17)
loop_
_geom_bond_atom_site_label_1
_geom_bond_atom_site_label_2
_geom_bond_site_symmetry_1
_geom_bond_site_symmetry_2
C1 C2 1_555 1_555
C2 H1 1_555 1_555
C3 C2 1_555 1_555
H2 C3 1_555 1_555
C4 C3 1_555 1_555
H3 C4 1_555 1_555
C5 C4 1_555 1_555
C6 C1 1_555 1_555
H4 C6 1_555 1_555
C7 C8 1_555 1_555
C8 H5 1_555 1_555
C9 C8 1_555 1_555
H6 C9 1_555 1_555
C10 C9 1_555 1_555
C11 C10 1_555 1_555
H7 C11 1_555 1_555
C12 C7 1_555 1_555
S1 C5 1_555 1_555
N1 C1 1_555 1_555
N2 C12 1_555 1_555
N3 C10 1_555 1_555
O1 N1 1_555 1_555
O2 N1 1_555 1_555
O3 S1 1_555 1_555
O4 S1 1_555 1_555
O5 C7 1_555 1_555
O6 N2 1_555 1_555
O7 N2 1_555 1_555
O8 N3 1_555 1_555
O9 N3 1_555 1_555
C5 C6 1_555 1_555
C11 C12 1_555 1_555
S1 O5 1_555 1_555

#END
