
#######################################################################
#
#                 Cambridge Crystallographic Data Centre
#                                CCDC 
#
#######################################################################
#
# If this CIF has been generated from an entry in the Cambridge 
# Structural Database, then it will include bibliographic, chemical, 
# crystal, experimental, refinement or atomic coordinate data resulting 
# from the CCDC's data processing and validation procedures.
#
#######################################################################

data_ELEWEX
_chemical_formula_moiety         'C34 H28 Cl2 O2'
_chemical_name_systematic        
2,2'-(1,2-bis(4-chlorophenyl)ethane-1,2-diyl)bis(1-tetralone)
_symmetry_cell_setting           triclinic
_symmetry_space_group_name_H-M   'P -1'
_symmetry_Int_Tables_number      2
_space_group_name_Hall           '-P 1'
loop_
_symmetry_equiv_pos_site_id
_symmetry_equiv_pos_as_xyz
1 x,y,z
2 -x,-y,-z
_cell_length_a                   10.411(2)
_cell_length_b                   10.9750(10)
_cell_length_c                   13.296(2)
_cell_angle_alpha                103.540(10)
_cell_angle_beta                 112.970(10)
_cell_angle_gamma                93.890(10)
_cell_volume                     1338.19
_exptl_crystal_colour            colorless
_exptl_crystal_description       block
_chemical_melting_point          491-493K
_cell_formula_units_Z            2
_exptl_crystal_recrystallization_method ethanol
loop_
_atom_site_label
_atom_site_type_symbol
_atom_site_fract_x
_atom_site_fract_y
_atom_site_fract_z
Cl1 Cl 0.46763(6) -0.12191(5) 0.31639(5)
Cl2 Cl -0.32745(6) 0.16497(6) 0.24082(5)
O1 O 0.26254(14) 0.47766(13) 0.03461(11)
O2 O 0.26291(16) 0.64897(12) 0.46526(11)
C1 C 0.40741(19) 0.01511(16) 0.28585(16)
C2 C 0.3391(2) 0.01562(17) 0.17461(16)
H1 H 0.3218 -0.0575 0.1158
C3 C 0.2964(2) 0.12577(17) 0.15090(15)
H2 H 0.2492 0.1256 0.0753
C4 C 0.32177(18) 0.23713(16) 0.23681(14)
C5 C 0.3885(2) 0.23150(17) 0.34802(15)
H3 H 0.4043 0.3036 0.4074
C6 C 0.4324(2) 0.12182(17) 0.37330(16)
H4 H 0.4781 0.1206 0.4486
C7 C 0.28695(18) 0.35986(16) 0.20678(14)
H5 H 0.2124 0.3351 0.1289
C8 C 0.41883(18) 0.43099(17) 0.20320(15)
H6 H 0.4620 0.3627 0.1739
C9 C 0.53717(19) 0.50844(19) 0.31668(16)
H7 H 0.5029 0.5790 0.3516
H8 H 0.5659 0.4552 0.3677
C10 C 0.6637(2) 0.5593(2) 0.29875(18)
H9 H 0.7353 0.6130 0.3709
H10 H 0.7046 0.4884 0.2725
C11 C 0.62387(19) 0.63492(17) 0.21344(16)
C12 C 0.7213(2) 0.7338(2) 0.22015(18)
H11 H 0.8129 0.7524 0.2774
C13 C 0.6836(2) 0.8039(2) 0.1434(2)
H12 H 0.7494 0.8702 0.1497
C14 C 0.5484(2) 0.7766(2) 0.05667(18)
H13 H 0.5229 0.8243 0.0048
C15 C 0.4524(2) 0.67827(18) 0.04805(16)
H14 H 0.3619 0.6586 -0.0110
C16 C 0.48817(18) 0.60779(16) 0.12610(15)
C17 C 0.37838(19) 0.50442(17) 0.11436(15)
C18 C -0.16661(19) 0.24110(18) 0.25482(17)
C19 C -0.0730(2) 0.32180(18) 0.35748(17)
H15 H -0.0943 0.3361 0.4205
C20 C 0.0544(2) 0.38200(17) 0.36625(16)
H16 H 0.1183 0.4360 0.4363
C21 C 0.08899(18) 0.36399(16) 0.27367(14)
C22 C -0.00811(19) 0.27985(18) 0.17199(15)
H17 H 0.0127 0.2640 0.1087
C23 C -0.1347(2) 0.21895(19) 0.16212(16)
H18 H -0.1980 0.1631 0.0929
C24 C 0.22459(18) 0.43878(16) 0.28373(14)
H19 H 0.2945 0.4546 0.3626
C25 C 0.19947(18) 0.57050(16) 0.26492(14)
H20 H 0.2775 0.6023 0.2489
C26 C 0.06263(19) 0.57157(17) 0.16419(15)
H21 H 0.0537 0.5081 0.0962
H22 H -0.0184 0.5505 0.1798
C27 C 0.0651(2) 0.70260(18) 0.14470(16)
H23 H 0.1381 0.7179 0.1187
H24 H -0.0253 0.7045 0.0852
C28 C 0.09294(18) 0.80685(17) 0.25047(16)
C29 C 0.0560(2) 0.9253(2) 0.2449(2)
H25 H 0.0134 0.9403 0.1742
C30 C 0.0809(2) 1.0201(2) 0.3412(2)
H26 H 0.0561 1.0988 0.3353
C31 C 0.1425(2) 1.0000(2) 0.4469(2)
H27 H 0.1578 1.0643 0.5121
C32 C 0.1811(2) 0.88434(19) 0.45544(18)
H28 H 0.2233 0.8707 0.5268
C33 C 0.15758(19) 0.78711(16) 0.35800(16)
C34 C 0.20949(18) 0.66681(17) 0.37178(15)
loop_
_geom_bond_atom_site_label_1
_geom_bond_atom_site_label_2
_geom_bond_site_symmetry_1
_geom_bond_site_symmetry_2
Cl1 C1 1_555 1_555
Cl2 C18 1_555 1_555
O1 C17 1_555 1_555
O2 C34 1_555 1_555
C1 C2 1_555 1_555
C2 H1 1_555 1_555
C3 C2 1_555 1_555
H2 C3 1_555 1_555
C4 C3 1_555 1_555
C5 C4 1_555 1_555
H3 C5 1_555 1_555
C6 C1 1_555 1_555
H4 C6 1_555 1_555
C7 C4 1_555 1_555
H5 C7 1_555 1_555
C8 C7 1_555 1_555
H6 C8 1_555 1_555
C9 C8 1_555 1_555
H7 C9 1_555 1_555
H8 C9 1_555 1_555
C10 C9 1_555 1_555
H9 C10 1_555 1_555
H10 C10 1_555 1_555
C11 C10 1_555 1_555
C12 C11 1_555 1_555
H11 C12 1_555 1_555
C13 C12 1_555 1_555
H12 C13 1_555 1_555
C14 C13 1_555 1_555
H13 C14 1_555 1_555
C15 C14 1_555 1_555
H14 C15 1_555 1_555
C16 C11 1_555 1_555
C17 C8 1_555 1_555
C18 C19 1_555 1_555
C19 H15 1_555 1_555
C20 C19 1_555 1_555
H16 C20 1_555 1_555
C21 C20 1_555 1_555
C22 C21 1_555 1_555
H17 C22 1_555 1_555
C23 C18 1_555 1_555
H18 C23 1_555 1_555
C24 C7 1_555 1_555
H19 C24 1_555 1_555
C25 C24 1_555 1_555
H20 C25 1_555 1_555
C26 C25 1_555 1_555
H21 C26 1_555 1_555
H22 C26 1_555 1_555
C27 C26 1_555 1_555
H23 C27 1_555 1_555
H24 C27 1_555 1_555
C28 C27 1_555 1_555
C29 C28 1_555 1_555
H25 C29 1_555 1_555
C30 C29 1_555 1_555
H26 C30 1_555 1_555
C31 C30 1_555 1_555
H27 C31 1_555 1_555
C32 C31 1_555 1_555
H28 C32 1_555 1_555
C33 C28 1_555 1_555
C34 C25 1_555 1_555
C5 C6 1_555 1_555
C15 C16 1_555 1_555
C16 C17 1_555 1_555
C21 C24 1_555 1_555
C22 C23 1_555 1_555
C32 C33 1_555 1_555
C33 C34 1_555 1_555

#END
