
#######################################################################
#
#                 Cambridge Crystallographic Data Centre
#                                CCDC 
#
#######################################################################
#
# If this CIF has been generated from an entry in the Cambridge 
# Structural Database, then it will include bibliographic, chemical, 
# crystal, experimental, refinement or atomic coordinate data resulting 
# from the CCDC's data processing and validation procedures.
#
#######################################################################

data_ELEWOH
_chemical_formula_moiety         'C7 H11 N2 1+,C6 H3 N2 O5 1-'
_chemical_name_systematic        
'4-Dimethylaminopyridinium 2,4-dinitrophenolate'
_symmetry_cell_setting           triclinic
_symmetry_space_group_name_H-M   'P -1'
_symmetry_Int_Tables_number      2
_space_group_name_Hall           '-P 1'
loop_
_symmetry_equiv_pos_site_id
_symmetry_equiv_pos_as_xyz
1 x,y,z
2 -x,-y,-z
_cell_length_a                   7.7246(9)
_cell_length_b                   8.1665(10)
_cell_length_c                   10.8838(13)
_cell_angle_alpha                96.916(3)
_cell_angle_beta                 92.630(3)
_cell_angle_gamma                101.618(3)
_cell_volume                     665.883
_exptl_crystal_colour            yellow
_exptl_crystal_description       block
_chemical_melting_point          432-434K
_cell_formula_units_Z            2
_exptl_crystal_recrystallization_method 'petroleum ether/acetone'
loop_
_atom_site_label
_atom_site_type_symbol
_atom_site_fract_x
_atom_site_fract_y
_atom_site_fract_z
C1 C 0.2278(2) 0.8980(2) -0.05184(18)
C2 C 0.2907(2) 1.0056(2) 0.06227(19)
C3 C 0.3875(2) 0.9562(2) 0.1562(2)
H1 H 0.427(2) 1.031(2) 0.2309(18)
C4 C 0.4256(2) 0.7976(2) 0.14274(19)
C5 C 0.3647(2) 0.6838(2) 0.03448(19)
H2 H 0.390(2) 0.571(2) 0.0307(17)
C6 C 0.2715(3) 0.7336(2) -0.0571(2)
H3 H 0.234(2) 0.658(2) -0.1317(18)
N1 N 0.2543(2) 1.17279(19) 0.08717(17)
N2 N 0.5283(2) 0.7486(2) 0.24042(17)
O1 O 0.14054(17) 0.93398(15) -0.14207(13)
O2 O 0.20170(18) 1.23992(16) 0.00035(13)
O3 O 0.27575(18) 1.24511(16) 0.19526(13)
O4 O 0.57560(18) 0.84841(17) 0.33730(14)
O5 O 0.56493(18) 0.60752(17) 0.22452(13)
C7 C 1.0031(2) 0.3307(2) 0.7855(2)
H4 H 1.062(2) 0.389(2) 0.8654(18)
C8 C 0.9177(3) 0.4063(2) 0.7045(2)
H5 H 0.911(2) 0.523(2) 0.7243(17)
C9 C 0.8367(2) 0.3143(2) 0.59059(19)
C10 C 0.8427(3) 0.1406(2) 0.5708(2)
H6 H 0.785(2) 0.068(2) 0.4972(18)
C11 C 0.9318(2) 0.0739(3) 0.65571(19)
H7 H 0.941(2) -0.046(2) 0.6486(17)
C12 C 0.6621(3) 0.2839(3) 0.3938(2)
H8 H 0.622(2) 0.363(2) 0.3424(19)
H9 H 0.558(3) 0.199(2) 0.4179(19)
H10 H 0.739(2) 0.223(2) 0.3481(18)
C13 C 0.7444(3) 0.5630(3) 0.5297(2)
H11 H 0.689(2) 0.597(2) 0.451(2)
H12 H 0.672(2) 0.581(2) 0.5953(19)
H13 H 0.861(3) 0.641(2) 0.5534(19)
N3 N 1.0129(2) 0.1677(2) 0.76077(16)
H14 H 1.071(3) 0.117(2) 0.8151(19)
N4 N 0.7571(2) 0.38617(19) 0.50494(15)
loop_
_geom_bond_atom_site_label_1
_geom_bond_atom_site_label_2
_geom_bond_site_symmetry_1
_geom_bond_site_symmetry_2
C1 C2 1_555 1_555
C2 C3 1_555 1_555
C3 H1 1_555 1_555
C4 C3 1_555 1_555
C5 C4 1_555 1_555
H2 C5 1_555 1_555
C6 C1 1_555 1_555
H3 C6 1_555 1_555
N1 C2 1_555 1_555
N2 C4 1_555 1_555
O1 C1 1_555 1_555
O2 N1 1_555 1_555
O3 N1 1_555 1_555
O4 N2 1_555 1_555
O5 N2 1_555 1_555
C7 H4 1_555 1_555
C8 C7 1_555 1_555
H5 C8 1_555 1_555
C9 C8 1_555 1_555
C10 C9 1_555 1_555
H6 C10 1_555 1_555
C11 C10 1_555 1_555
H7 C11 1_555 1_555
C12 H8 1_555 1_555
H9 C12 1_555 1_555
H10 C12 1_555 1_555
C13 H11 1_555 1_555
H12 C13 1_555 1_555
H13 C13 1_555 1_555
N3 C7 1_555 1_555
H14 N3 1_555 1_555
N4 C9 1_555 1_555
C5 C6 1_555 1_555
C11 N3 1_555 1_555
C12 N4 1_555 1_555
C13 N4 1_555 1_555

#END
