
#######################################################################
#
#                 Cambridge Crystallographic Data Centre
#                                CCDC 
#
#######################################################################
#
# If this CIF has been generated from an entry in the Cambridge 
# Structural Database, then it will include bibliographic, chemical, 
# crystal, experimental, refinement or atomic coordinate data resulting 
# from the CCDC's data processing and validation procedures.
#
#######################################################################

data_ELEXEY
_chemical_formula_moiety         'C19 H18 Br1 N3 O3'
_chemical_name_systematic        
N-(2-Bromophenyl)-2-(4,6-dimethoxypyrimidin-2-yloxy)benzylamine
_chemical_properties_biological  
'herbicidal activity against various grass and broadleaf weeds'
_symmetry_cell_setting           triclinic
_symmetry_space_group_name_H-M   'P -1'
_symmetry_Int_Tables_number      2
_space_group_name_Hall           '-P 1'
loop_
_symmetry_equiv_pos_site_id
_symmetry_equiv_pos_as_xyz
1 x,y,z
2 -x,-y,-z
_cell_length_a                   8.7821(5)
_cell_length_b                   10.3347(6)
_cell_length_c                   10.9750(10)
_cell_angle_alpha                104.779(5)
_cell_angle_beta                 92.572(2)
_cell_angle_gamma                105.331(2)
_cell_volume                     922.105
_exptl_crystal_colour            colorless
_exptl_crystal_description       platelet
_cell_formula_units_Z            2
_exptl_crystal_recrystallization_method ethanol
loop_
_atom_site_label
_atom_site_type_symbol
_atom_site_fract_x
_atom_site_fract_y
_atom_site_fract_z
Br1 Br 0.51346(7) -0.03208(5) 0.29600(6)
O1 O 0.3026(3) 0.4381(2) -0.0331(3)
O2 O 0.1436(3) 0.1535(3) -0.4310(3)
O3 O -0.1442(3) 0.0659(3) -0.0984(3)
N1 N 0.4486(4) 0.2015(3) 0.1958(3)
N2 N 0.2240(4) 0.2997(3) -0.2293(3)
N3 N 0.0771(3) 0.2555(3) -0.0594(3)
C1 C 0.6000(4) 0.2376(3) 0.2557(3)
C2 C 0.6522(5) 0.1475(4) 0.3121(4)
C3 C 0.8043(5) 0.1810(5) 0.3721(4)
C4 C 0.9089(5) 0.3069(5) 0.3774(5)
C5 C 0.8630(5) 0.3991(4) 0.3252(4)
C6 C 0.7105(5) 0.3664(4) 0.2654(4)
C7 C 0.4026(5) 0.2749(4) 0.1092(4)
C8 C 0.3502(4) 0.4016(3) 0.1732(4)
C9 C 0.2941(4) 0.4743(3) 0.0984(4)
C10 C 0.2439(5) 0.5894(4) 0.1510(5)
C11 C 0.2493(5) 0.6348(4) 0.2800(5)
C12 C 0.3049(5) 0.5664(4) 0.3564(4)
C13 C 0.3547(4) 0.4513(4) 0.3024(4)
C14 C 0.1935(4) 0.3243(3) -0.1103(4)
C15 C 0.1204(4) 0.1869(4) -0.3081(4)
C16 C -0.0061(4) 0.1044(4) -0.2689(4)
C17 C -0.0232(4) 0.1429(4) -0.1429(4)
C18 C 0.2807(6) 0.2364(5) -0.4681(4)
C19 C -0.1643(6) 0.1100(5) 0.0314(5)
H1 H 0.8376 0.1135 0.4108
H2 H 1.0197 0.3320 0.4204
H3 H 0.9405 0.4911 0.3300
H4 H 0.6781 0.4349 0.2277
H5 H 0.3917 0.1127 0.2010
H6 H 0.4969 0.3072 0.0653
H7 H 0.3137 0.2080 0.0450
H8 H 0.2029 0.6387 0.0953
H9 H 0.2123 0.7181 0.3187
H10 H 0.3107 0.6010 0.4508
H11 H 0.3946 0.4019 0.3586
H12 H -0.0819 0.0204 -0.3295
H13 H 0.3789 0.2335 -0.4204
H14 H 0.2836 0.1996 -0.5613
H15 H 0.2754 0.3349 -0.4487
H16 H -0.0664 0.1157 0.0851
H17 H -0.1826 0.2042 0.0498
H18 H -0.2578 0.0422 0.0509
loop_
_geom_bond_atom_site_label_1
_geom_bond_atom_site_label_2
_geom_bond_site_symmetry_1
_geom_bond_site_symmetry_2
Br1 C2 1_555 1_555
O1 C9 1_555 1_555
O2 C15 1_555 1_555
O3 C17 1_555 1_555
N1 C1 1_555 1_555
N2 C14 1_555 1_555
N3 C14 1_555 1_555
C1 C2 1_555 1_555
C2 C3 1_555 1_555
C3 C4 1_555 1_555
C4 C5 1_555 1_555
C5 C6 1_555 1_555
C6 C1 1_555 1_555
C7 N1 1_555 1_555
C8 C7 1_555 1_555
C9 C8 1_555 1_555
C10 C9 1_555 1_555
C11 C10 1_555 1_555
C12 C11 1_555 1_555
C13 C8 1_555 1_555
C14 O1 1_555 1_555
C15 N2 1_555 1_555
C16 C15 1_555 1_555
C17 N3 1_555 1_555
C18 O2 1_555 1_555
C19 O3 1_555 1_555
H1 C3 1_555 1_555
H2 C4 1_555 1_555
H3 C5 1_555 1_555
H4 C6 1_555 1_555
H5 N1 1_555 1_555
H6 C7 1_555 1_555
H7 C7 1_555 1_555
H8 C10 1_555 1_555
H9 C11 1_555 1_555
H10 C12 1_555 1_555
H11 C13 1_555 1_555
H12 C16 1_555 1_555
H13 C18 1_555 1_555
H14 C18 1_555 1_555
H15 C18 1_555 1_555
H16 C19 1_555 1_555
H17 C19 1_555 1_555
H18 C19 1_555 1_555
C12 C13 1_555 1_555
C16 C17 1_555 1_555

#END
