
#######################################################################
#
#                 Cambridge Crystallographic Data Centre
#                                CCDC 
#
#######################################################################
#
# If this CIF has been generated from an entry in the Cambridge 
# Structural Database, then it will include bibliographic, chemical, 
# crystal, experimental, refinement or atomic coordinate data resulting 
# from the CCDC's data processing and validation procedures.
#
#######################################################################

data_ELEXAU
_chemical_formula_moiety         'C12 H8 N2 O7 S1'
_chemical_name_systematic        '2-Nitrophenyl 3-nitrobenzenesulfonate'
_symmetry_cell_setting           orthorhombic
_symmetry_space_group_name_H-M   'P n a 21'
_symmetry_Int_Tables_number      33
_space_group_name_Hall           'P 2c -2n'
loop_
_symmetry_equiv_pos_site_id
_symmetry_equiv_pos_as_xyz
1 x,y,z
2 -x,-y,1/2+z
3 1/2+x,1/2-y,z
4 1/2-x,1/2+y,1/2+z
_cell_length_a                   19.9671(8)
_cell_length_b                   12.7083(5)
_cell_length_c                   5.1306(2)
_cell_angle_alpha                90
_cell_angle_beta                 90
_cell_angle_gamma                90
_cell_volume                     1301.88
_exptl_crystal_colour            colorless
_exptl_crystal_description       block
_chemical_melting_point          358-360K
_cell_formula_units_Z            4
_exptl_crystal_recrystallization_method 'aqueous ethanol'
loop_
_atom_site_label
_atom_site_type_symbol
_atom_site_fract_x
_atom_site_fract_y
_atom_site_fract_z
C1 C 0.10099(11) 0.59508(17) 0.7938(5)
C2 C 0.09759(12) 0.68560(18) 0.6474(5)
H1 H 0.0626(12) 0.7325(19) 0.674(5)
C3 C 0.14536(12) 0.70336(18) 0.4570(5)
H2 H 0.1449(12) 0.7663(19) 0.347(5)
C4 C 0.19539(12) 0.62919(18) 0.4122(5)
H3 H 0.2278(12) 0.6363(19) 0.279(5)
C5 C 0.19640(10) 0.53812(16) 0.5619(4)
C6 C 0.14998(10) 0.51890(17) 0.7576(4)
H4 H 0.1521(11) 0.4514(17) 0.869(5)
C7 C 0.35510(10) 0.57182(16) 0.6233(4)
C8 C 0.34033(11) 0.66443(18) 0.7508(5)
H5 H 0.3064(12) 0.6656(17) 0.885(5)
C9 C 0.37541(11) 0.75507(18) 0.6868(5)
H6 H 0.3655(12) 0.818(2) 0.779(5)
C10 C 0.42276(10) 0.75352(17) 0.4901(6)
H7 H 0.4449(11) 0.8149(19) 0.441(5)
C11 C 0.43749(11) 0.66092(18) 0.3604(5)
H8 H 0.4698(12) 0.6597(17) 0.235(5)
C12 C 0.40411(10) 0.57001(16) 0.4328(4)
S1 S 0.25954(2) 0.44364(4) 0.50573(12)
O1 O 0.00775(8) 0.64556(11) 1.0301(4)
O2 O 0.05613(8) 0.49898(12) 1.1363(3)
O3 O 0.28079(8) 0.45294(12) 0.2416(3)
O4 O 0.24002(7) 0.34518(12) 0.6120(3)
O5 O 0.31924(7) 0.48061(11) 0.6923(3)
O6 O 0.42793(8) 0.39240(12) 0.4488(3)
O7 O 0.44083(8) 0.47339(13) 0.0786(3)
N1 N 0.05125(8) 0.57834(14) 1.0011(4)
N2 N 0.42532(8) 0.47095(15) 0.3104(4)
loop_
_geom_bond_atom_site_label_1
_geom_bond_atom_site_label_2
_geom_bond_site_symmetry_1
_geom_bond_site_symmetry_2
C1 C2 1_555 1_555
C2 H1 1_555 1_555
C3 C2 1_555 1_555
H2 C3 1_555 1_555
C4 C3 1_555 1_555
H3 C4 1_555 1_555
C5 C4 1_555 1_555
C6 C1 1_555 1_555
H4 C6 1_555 1_555
C7 C8 1_555 1_555
C8 H5 1_555 1_555
C9 C8 1_555 1_555
H6 C9 1_555 1_555
C10 C9 1_555 1_555
H7 C10 1_555 1_555
C11 C10 1_555 1_555
H8 C11 1_555 1_555
C12 C7 1_555 1_555
S1 C5 1_555 1_555
O1 N1 1_555 1_555
O2 N1 1_555 1_555
O3 S1 1_555 1_555
O4 S1 1_555 1_555
O5 C7 1_555 1_555
O6 N2 1_555 1_555
O7 N2 1_555 1_555
N1 C1 1_555 1_555
N2 C12 1_555 1_555
C5 C6 1_555 1_555
C11 C12 1_555 1_555
S1 O5 1_555 1_555

#END
