
#######################################################################
#
#                 Cambridge Crystallographic Data Centre
#                                CCDC 
#
#######################################################################
#
# If this CIF has been generated from an entry in the Cambridge 
# Structural Database, then it will include bibliographic, chemical, 
# crystal, experimental, refinement or atomic coordinate data resulting 
# from the CCDC's data processing and validation procedures.
#
#######################################################################

data_ELIBOQ
_chemical_formula_moiety         'C20 H22 F1 N1 O4'
_chemical_name_systematic        
'Ethyl 2-amino-7,7-dimethyl-4-(4-fluorophenyl)-5-oxo-4H-5,6,7,8-tetrahydrobenzo(b)pyran-3-carboxylate'
_symmetry_cell_setting           triclinic
_symmetry_space_group_name_H-M   'P -1'
_symmetry_Int_Tables_number      2
_space_group_name_Hall           '-P 1'
loop_
_symmetry_equiv_pos_site_id
_symmetry_equiv_pos_as_xyz
1 x,y,z
2 -x,-y,-z
_cell_length_a                   8.2660(10)
_cell_length_b                   9.7730(10)
_cell_length_c                   12.375(2)
_cell_angle_alpha                81.400(10)
_cell_angle_beta                 73.410(10)
_cell_angle_gamma                82.150(10)
_cell_volume                     942.649
_exptl_crystal_colour            colorless
_exptl_crystal_description       block
_chemical_melting_point          433-434K
_cell_formula_units_Z            2
_exptl_crystal_recrystallization_method ethanol
loop_
_atom_site_label
_atom_site_type_symbol
_atom_site_fract_x
_atom_site_fract_y
_atom_site_fract_z
F1 F 0.26348(18) 0.02836(14) 0.02994(10)
O1 O 0.52335(14) 0.30199(12) 0.46257(10)
O2 O -0.05861(15) 0.33363(15) 0.48610(11)
O3 O 0.36071(15) 0.58488(12) 0.16058(10)
O4 O 0.62260(18) 0.59931(14) 0.17541(12)
N1 N 0.7162(2) 0.4298(2) 0.34383(17)
C1 C 0.2609(3) 0.1144(2) 0.10746(15)
C2 C 0.1577(3) 0.2350(2) 0.11104(15)
H1 H 0.0885 0.2579 0.0622
C3 C 0.1572(2) 0.32373(19) 0.18902(14)
H2 H 0.0862 0.4063 0.1926
C4 C 0.26027(19) 0.29127(17) 0.26113(13)
C5 C 0.3617(2) 0.16653(19) 0.25428(15)
H3 H 0.4311 0.1421 0.3030
C6 C 0.3636(2) 0.0770(2) 0.17745(16)
H4 H 0.4330 -0.0064 0.1737
C7 C 0.2690(2) 0.39073(16) 0.34305(12)
H5 H 0.1816 0.4688 0.3405
C8 C 0.23388(19) 0.31915(16) 0.46263(13)
C9 C 0.0607(2) 0.29604(17) 0.52702(14)
C10 C 0.0321(2) 0.2297(2) 0.64819(14)
H6 H -0.0731 0.1862 0.6704
H7 H 0.0193 0.3017 0.6969
C11 C 0.1757(2) 0.12029(18) 0.66739(14)
C12 C 0.3419(2) 0.18812(19) 0.62373(14)
H8 H 0.3491 0.2462 0.6789
H9 H 0.4361 0.1159 0.6169
C13 C 0.3588(2) 0.27438(16) 0.51192(13)
C14 C 0.5571(2) 0.39857(17) 0.36789(14)
C15 C 0.4398(2) 0.44808(16) 0.31017(13)
C16 C 0.4868(2) 0.54921(17) 0.21232(15)
C17 C 0.3990(3) 0.6784(2) 0.05613(17)
H10 H 0.5030 0.6434 0.0041
H11 H 0.4133 0.7698 0.0717
C18 C 0.2539(3) 0.6871(2) 0.00542(17)
H12 H 0.2396 0.5959 -0.0082
H13 H 0.2766 0.7470 -0.0650
H14 H 0.1523 0.7239 0.0568
C19 C 0.1819(3) -0.0034(2) 0.6035(2)
H15 H 0.1999 0.0278 0.5240
H16 H 0.0766 -0.0444 0.6319
H17 H 0.2732 -0.0712 0.6144
C20 C 0.1477(3) 0.0712(3) 0.79358(17)
H18 H 0.2365 0.0005 0.8042
H19 H 0.0401 0.0338 0.8230
H20 H 0.1491 0.1482 0.8331
H21 H 0.754(3) 0.491(2) 0.2830(18)
H22 H 0.775(3) 0.395(2) 0.3913(17)
loop_
_geom_bond_atom_site_label_1
_geom_bond_atom_site_label_2
_geom_bond_site_symmetry_1
_geom_bond_site_symmetry_2
F1 C1 1_555 1_555
O1 C13 1_555 1_555
O2 C9 1_555 1_555
O3 C16 1_555 1_555
O4 C16 1_555 1_555
N1 C14 1_555 1_555
C1 C2 1_555 1_555
C2 H1 1_555 1_555
C3 C2 1_555 1_555
H2 C3 1_555 1_555
C4 C3 1_555 1_555
C5 C4 1_555 1_555
H3 C5 1_555 1_555
C6 C1 1_555 1_555
H4 C6 1_555 1_555
C7 C4 1_555 1_555
H5 C7 1_555 1_555
C8 C7 1_555 1_555
C9 C8 1_555 1_555
C10 C9 1_555 1_555
H6 C10 1_555 1_555
H7 C10 1_555 1_555
C11 C10 1_555 1_555
C12 C11 1_555 1_555
H8 C12 1_555 1_555
H9 C12 1_555 1_555
C13 C8 1_555 1_555
C14 O1 1_555 1_555
C15 C7 1_555 1_555
C16 C15 1_555 1_555
C17 O3 1_555 1_555
H10 C17 1_555 1_555
H11 C17 1_555 1_555
C18 C17 1_555 1_555
H12 C18 1_555 1_555
H13 C18 1_555 1_555
H14 C18 1_555 1_555
C19 C11 1_555 1_555
H15 C19 1_555 1_555
H16 C19 1_555 1_555
H17 C19 1_555 1_555
C20 C11 1_555 1_555
H18 C20 1_555 1_555
H19 C20 1_555 1_555
H20 C20 1_555 1_555
H21 N1 1_555 1_555
H22 N1 1_555 1_555
C5 C6 1_555 1_555
C12 C13 1_555 1_555
C14 C15 1_555 1_555

#END
