
#######################################################################
#
#                 Cambridge Crystallographic Data Centre
#                                CCDC 
#
#######################################################################
#
# If this CIF has been generated from an entry in the Cambridge 
# Structural Database, then it will include bibliographic, chemical, 
# crystal, experimental, refinement or atomic coordinate data resulting 
# from the CCDC's data processing and validation procedures.
#
#######################################################################

data_ELIBAE
_chemical_formula_moiety         'C25 H22 F3 N3 O3,C2 H6 O1 S1'
_chemical_name_systematic        
'1-(1,3-Dioxo-2-pentyl-2,3-dihydro-1H-benzo[de]isoquinolin-6-yl)-3-(4-(trifluoromethyl)phenyl)urea dimethyl sulfoxide solvate'
_symmetry_cell_setting           triclinic
_symmetry_space_group_name_H-M   'P -1'
_symmetry_Int_Tables_number      2
_space_group_name_Hall           '-P 1'
loop_
_symmetry_equiv_pos_site_id
_symmetry_equiv_pos_as_xyz
1 x,y,z
2 -x,-y,-z
_cell_length_a                   9.1633(7)
_cell_length_b                   9.3697(7)
_cell_length_c                   16.2725(13)
_cell_angle_alpha                80.079(7)
_cell_angle_beta                 75.592(7)
_cell_angle_gamma                68.886(7)
_cell_volume                     1257.03
_exptl_crystal_colour            'light yellow'
_exptl_crystal_description       plate
_cell_formula_units_Z            2
loop_
_atom_site_label
_atom_site_type_symbol
_atom_site_fract_x
_atom_site_fract_y
_atom_site_fract_z
F1 F -0.2615(3) 0.7097(2) 1.02145(14)
F2 F -0.3253(2) 0.9363(2) 0.95968(14)
F3 F -0.1507(3) 0.8661(4) 1.03623(16)
O1 O 1.2485(3) 0.3169(3) 0.27861(15)
O2 O 1.0336(3) 0.8246(2) 0.31617(14)
O3 O 0.3764(3) 0.8182(2) 0.64107(15)
N1 N 1.1432(3) 0.5695(3) 0.29932(16)
N2 N 0.5289(3) 0.5792(3) 0.59763(17)
N3 N 0.3127(3) 0.6044(3) 0.70527(18)
C1 C 0.8979(4) 0.6642(3) 0.40468(19)
C2 C 0.7815(4) 0.7822(4) 0.4465(2)
H1 H 0.7855 0.8813 0.4319
C3 C 0.6565(4) 0.7582(3) 0.5107(2)
H2 H 0.5794 0.8407 0.5381
C4 C 0.6478(4) 0.6112(3) 0.5332(2)
C5 C 0.7655(4) 0.3318(4) 0.5070(2)
C6 C 0.8811(4) 0.2150(4) 0.4646(2)
H3 H 0.8769 0.1157 0.4772
C7 C 1.0057(4) 0.2430(4) 0.4024(2)
H4 H 1.0848 0.1628 0.3740
C8 C 1.0106(4) 0.3911(3) 0.3833(2)
C9 C 0.8920(4) 0.5131(3) 0.42549(19)
C10 C 0.7664(4) 0.4839(3) 0.48998(19)
C11 C 1.0272(4) 0.6944(3) 0.3382(2)
C12 C 1.1427(4) 0.4186(4) 0.3168(2)
C13 C 1.2705(4) 0.5993(4) 0.2304(2)
H5 H 1.3655 0.5087 0.2270
H6 H 1.2971 0.6831 0.2433
C14 C 1.2195(4) 0.6401(4) 0.1453(2)
H7 H 1.1204 0.7263 0.1500
H8 H 1.1992 0.5536 0.1309
C15 C 1.3450(4) 0.6815(4) 0.0737(2)
H9 H 1.3556 0.7755 0.0847
H10 H 1.4473 0.6006 0.0736
C16 C 1.3044(4) 0.7034(4) -0.0132(2)
H11 H 1.2030 0.7855 -0.0133
H12 H 1.2918 0.6101 -0.0236
C17 C 1.4300(4) 0.7420(4) -0.0851(2)
H13 H 1.4028 0.7447 -0.1388
H14 H 1.5324 0.6651 -0.0830
H15 H 1.4342 0.8405 -0.0791
C18 C 0.4036(4) 0.6802(4) 0.6474(2)
C19 C 0.1814(4) 0.6668(4) 0.7685(2)
C20 C 0.1051(4) 0.8222(4) 0.7774(2)
H16 H 0.1387 0.8942 0.7379
C21 C -0.0203(4) 0.8699(4) 0.8446(2)
H17 H -0.0706 0.9744 0.8505
C22 C -0.0727(4) 0.7639(4) 0.9038(2)
C23 C -0.0014(4) 0.6096(4) 0.8939(2)
H18 H -0.0389 0.5385 0.9321
C24 C 0.1256(4) 0.5602(4) 0.8273(2)
H19 H 0.1746 0.4556 0.8214
C25 C -0.2011(4) 0.8186(4) 0.9789(2)
H20 H 0.541(3) 0.482(3) 0.6068(17)
H21 H 0.353(4) 0.508(4) 0.705(2)
H22 H 0.689(4) 0.312(4) 0.550(2)
S1 S 0.50992(11) 0.12268(9) 0.68236(5)
O4 O 0.4741(3) 0.2939(2) 0.67733(15)
C26 C 0.6463(4) 0.0398(4) 0.7519(2)
H23 H 0.7461 0.0556 0.7257
H24 H 0.6632 -0.0683 0.7632
H25 H 0.6033 0.0874 0.8044
C27 C 0.3429(4) 0.0850(4) 0.7519(2)
H26 H 0.3237 0.1262 0.8051
H27 H 0.3640 -0.0239 0.7615
H28 H 0.2506 0.1323 0.7266
loop_
_geom_bond_atom_site_label_1
_geom_bond_atom_site_label_2
_geom_bond_site_symmetry_1
_geom_bond_site_symmetry_2
F1 C25 1_555 1_555
F2 C25 1_555 1_555
F3 C25 1_555 1_555
O1 C12 1_555 1_555
O2 C11 1_555 1_555
O3 C18 1_555 1_555
N1 C11 1_555 1_555
N2 C4 1_555 1_555
N3 C18 1_555 1_555
C1 C2 1_555 1_555
C2 H1 1_555 1_555
C3 C2 1_555 1_555
H2 C3 1_555 1_555
C4 C3 1_555 1_555
C5 C6 1_555 1_555
C6 H3 1_555 1_555
C7 C6 1_555 1_555
H4 C7 1_555 1_555
C8 C7 1_555 1_555
C9 C1 1_555 1_555
C10 C4 1_555 1_555
C11 C1 1_555 1_555
C12 N1 1_555 1_555
C13 N1 1_555 1_555
H5 C13 1_555 1_555
H6 C13 1_555 1_555
C14 C13 1_555 1_555
H7 C14 1_555 1_555
H8 C14 1_555 1_555
C15 C14 1_555 1_555
H9 C15 1_555 1_555
H10 C15 1_555 1_555
C16 C15 1_555 1_555
H11 C16 1_555 1_555
H12 C16 1_555 1_555
C17 C16 1_555 1_555
H13 C17 1_555 1_555
H14 C17 1_555 1_555
H15 C17 1_555 1_555
C18 N2 1_555 1_555
C19 N3 1_555 1_555
C20 C19 1_555 1_555
H16 C20 1_555 1_555
C21 C20 1_555 1_555
H17 C21 1_555 1_555
C22 C21 1_555 1_555
C23 C22 1_555 1_555
H18 C23 1_555 1_555
C24 C19 1_555 1_555
H19 C24 1_555 1_555
C25 C22 1_555 1_555
H20 N2 1_555 1_555
H21 N3 1_555 1_555
H22 C5 1_555 1_555
S1 O4 1_555 1_555
C26 S1 1_555 1_555
H23 C26 1_555 1_555
H24 C26 1_555 1_555
H25 C26 1_555 1_555
C27 S1 1_555 1_555
H26 C27 1_555 1_555
H27 C27 1_555 1_555
H28 C27 1_555 1_555
C5 C10 1_555 1_555
C8 C9 1_555 1_555
C8 C12 1_555 1_555
C9 C10 1_555 1_555
C23 C24 1_555 1_555

#END
