
#######################################################################
#
#                 Cambridge Crystallographic Data Centre
#                                CCDC 
#
#######################################################################
#
# If this CIF has been generated from an entry in the Cambridge 
# Structural Database, then it will include bibliographic, chemical, 
# crystal, experimental, refinement or atomic coordinate data resulting 
# from the CCDC's data processing and validation procedures.
#
#######################################################################

data_ELICUX
_chemical_compound_source        'endophytic fungus Paecilomyces sp'
_chemical_name_common            'Fulvic acid methanol solvate'
_chemical_formula_moiety         'C14 H12 O8,0.75(C1 H4 O1)'
_chemical_name_systematic        
'3,7,8-Trihydroxy-3-methyl-10-oxo-4,10-dihydro-1H,3H-pyrano(4,3-b)chromene-9-carboxylic acid methanol solvate'
_symmetry_cell_setting           triclinic
_symmetry_space_group_name_H-M   'P -1'
_symmetry_Int_Tables_number      2
_space_group_name_Hall           '-P 1'
loop_
_symmetry_equiv_pos_site_id
_symmetry_equiv_pos_as_xyz
1 x,y,z
2 -x,-y,-z
_cell_length_a                   12.4830(7)
_cell_length_b                   12.6558(8)
_cell_length_c                   19.0259(13)
_cell_angle_alpha                94.608(3)
_cell_angle_beta                 100.871(3)
_cell_angle_gamma                98.399(3)
_cell_volume                     2902.1
_exptl_crystal_colour            yellow
_exptl_crystal_description       chunk
_cell_formula_units_Z            8
loop_
_atom_site_label
_atom_site_type_symbol
_atom_site_fract_x
_atom_site_fract_y
_atom_site_fract_z
O1 O 0.2068(2) 0.7952(3) 0.2622(2)
O2 O -0.0189(3) 0.6433(3) 0.3645(2)
O3 O -0.1155(3) 0.8141(3) 0.1913(2)
O4 O -0.1421(3) 0.9480(3) 0.1110(2)
O5 O -0.0457(3) 1.0744(3) 0.0674(2)
O6 O 0.1548(3) 1.1007(3) 0.0785(2)
O7 O 0.3501(3) 1.0491(3) 0.1263(2)
O8 O 0.0471(4) 0.5119(3) 0.3025(2)
C1 C 0.0596(4) 0.9643(4) 0.1380(3)
C2 C 0.1532(4) 1.0203(4) 0.1204(3)
C3 C 0.2608(4) 0.9953(4) 0.1459(3)
C4 C 0.2738(4) 0.9194(4) 0.1925(3)
C5 C 0.1808(4) 0.8664(4) 0.2132(3)
C6 C 0.0728(4) 0.8834(4) 0.1870(3)
C7 C -0.0131(4) 0.8155(4) 0.2131(3)
C8 C 0.0195(4) 0.7476(4) 0.2663(3)
C9 C 0.1258(4) 0.7394(4) 0.2889(3)
C10 C 0.1684(4) 0.6739(4) 0.3460(3)
C11 C 0.0737(4) 0.5941(4) 0.3611(3)
C12 C -0.0673(4) 0.6821(5) 0.2981(3)
C13 C 0.1030(4) 0.5462(5) 0.4312(3)
C14 C -0.0481(4) 0.9977(5) 0.1043(3)
H1 H -0.1327 0.9059 0.1413
H2 H 0.0913 1.1063 0.0602
H3 H 0.3312 1.0960 0.1016
H4 H 0.0232 0.4551 0.3162
H5 H 0.3436 0.9033 0.2100
H6 H 0.2037 0.7206 0.3896
H7 H 0.2232 0.6354 0.3306
H8 H -0.1216 0.7261 0.3074
H9 H -0.1051 0.6214 0.2636
H10 H 0.1100 0.6003 0.4709
H11 H 0.1718 0.5199 0.4335
H12 H 0.0458 0.4879 0.4338
O9 O 0.1174(2) 0.4003(3) 0.1734(2)
O10 O -0.1088(3) 0.1737(3) 0.2331(2)
O11 O -0.2086(3) 0.4250(3) 0.1225(2)
O12 O -0.2396(3) 0.5762(4) 0.0600(2)
O13 O -0.1547(3) 0.6957(3) 0.0054(2)
O14 O 0.0461(3) 0.7337(3) 0.0157(2)
O15 O 0.2469(3) 0.6897(3) 0.0599(2)
O16 O -0.0187(3) 0.2966(3) 0.3318(2)
C15 C -0.0402(4) 0.5867(4) 0.0716(2)
C16 C 0.0512(4) 0.6490(4) 0.0548(2)
C17 C 0.1610(4) 0.6281(4) 0.0773(3)
C18 C 0.1783(4) 0.5431(4) 0.1164(2)
C19 C 0.0873(4) 0.4808(4) 0.1328(2)
C20 C -0.0226(4) 0.4967(4) 0.1128(2)
C21 C -0.1061(4) 0.4200(4) 0.1346(3)
C22 C -0.0698(4) 0.3355(4) 0.1738(2)
C23 C 0.0389(4) 0.3312(4) 0.1934(2)
C24 C 0.0823(4) 0.2554(4) 0.2436(3)
C25 C -0.0071(4) 0.2093(4) 0.2829(3)
C26 C -0.1542(4) 0.2579(4) 0.1979(3)
C27 C 0.0200(5) 0.1148(4) 0.3234(3)
C28 C -0.1503(4) 0.6223(5) 0.0441(3)
H13 H -0.2254 0.5297 0.0863
H14 H -0.0177 0.7454 0.0068
H15 H 0.2242 0.7335 0.0338
H16 H -0.0674 0.2768 0.3536
H17 H 0.2491 0.5278 0.1314
H18 H 0.1463 0.2930 0.2784
H19 H 0.1054 0.1974 0.2167
H20 H -0.1893 0.2969 0.2307
H21 H -0.2108 0.2262 0.1564
H22 H -0.0388 0.0915 0.3476
H23 H 0.0878 0.1364 0.3582
H24 H 0.0280 0.0569 0.2901
O17 O 0.5987(2) 0.1707(3) 0.23126(17)
O18 O 0.3992(3) 0.3881(3) 0.16508(17)
O19 O 0.3252(3) 0.1831(3) 0.31545(19)
O20 O 0.2952(3) 0.0411(4) 0.3898(2)
O21 O 0.3778(3) -0.0807(3) 0.4392(2)
O22 O 0.5583(3) -0.1213(3) 0.4222(2)
O23 O 0.7318(3) -0.0939(3) 0.3612(2)
O24 O 0.3696(3) 0.2467(3) 0.07298(19)
C29 C 0.4761(4) 0.0191(4) 0.3643(2)
C30 C 0.5593(4) -0.0426(4) 0.3787(3)
C31 C 0.6536(4) -0.0317(4) 0.3470(3)
C32 C 0.6644(4) 0.0427(4) 0.2993(3)
C33 C 0.5807(4) 0.1038(4) 0.2830(2)
C34 C 0.4866(4) 0.0985(4) 0.3139(2)
C35 C 0.4129(4) 0.1753(4) 0.2923(2)
C36 C 0.4385(4) 0.2434(4) 0.2398(3)
C37 C 0.5253(4) 0.2369(4) 0.2096(3)
C38 C 0.5485(4) 0.2942(4) 0.1475(3)
C39 C 0.4468(4) 0.3384(4) 0.1115(3)
C40 C 0.3577(4) 0.3153(4) 0.2119(3)
C41 C 0.4743(4) 0.4210(4) 0.0619(3)
C42 C 0.3793(4) -0.0079(5) 0.3998(3)
H25 H 0.3074 0.0912 0.3661
H26 H 0.5012 -0.1271 0.4380
H27 H 0.7184 -0.1314 0.3927
H28 H 0.3182 0.2674 0.0472
H29 H 0.7261 0.0522 0.2782
H30 H 0.5697 0.2451 0.1127
H31 H 0.6097 0.3529 0.1641
H32 H 0.2895 0.2711 0.1858
H33 H 0.3407 0.3566 0.2524
H34 H 0.4081 0.4458 0.0402
H35 H 0.5064 0.3892 0.0250
H36 H 0.5261 0.4805 0.0891
O25 O 0.6749(2) 0.5578(3) 0.27929(17)
O26 O 0.4875(3) 0.7893(3) 0.22805(18)
O27 O 0.3919(3) 0.5564(3) 0.3543(2)
O28 O 0.3713(3) 0.4281(4) 0.4381(2)
O29 O 0.4550(3) 0.3076(3) 0.4887(2)
O30 O 0.6302(3) 0.2618(3) 0.4683(2)
O31 O 0.8000(3) 0.2826(3) 0.40396(19)
O32 O 0.4676(3) 0.6673(3) 0.1261(2)
C43 C 0.5466(4) 0.3996(4) 0.4075(2)
C44 C 0.6306(4) 0.3358(4) 0.4227(3)
C45 C 0.7226(4) 0.3468(4) 0.3895(2)
C46 C 0.7348(4) 0.4233(4) 0.3434(2)
C47 C 0.6537(4) 0.4883(4) 0.3287(3)
C48 C 0.5585(4) 0.4797(4) 0.3579(3)
C49 C 0.4844(4) 0.5542(4) 0.3354(3)
C50 C 0.5129(4) 0.6287(4) 0.2867(3)
C51 C 0.6045(4) 0.6274(4) 0.2608(3)
C52 C 0.6385(4) 0.6989(4) 0.2076(3)
C53 C 0.5407(4) 0.7504(5) 0.1732(3)
C54 C 0.4381(4) 0.7077(4) 0.2648(3)
C55 C 0.5742(5) 0.8453(4) 0.1340(3)
C56 C 0.4533(4) 0.3770(5) 0.4468(3)
H37 H 0.3837 0.4776 0.4139
H38 H 0.5739 0.2584 0.4848
H39 H 0.7797 0.2376 0.4294
H40 H 0.4147 0.6917 0.1049
H41 H 0.7963 0.4318 0.3221
H42 H 0.6636 0.6574 0.1706
H43 H 0.6992 0.7545 0.2315
H44 H 0.3704 0.6698 0.2337
H45 H 0.4187 0.7409 0.3074
H46 H 0.6058 0.8217 0.0945
H47 H 0.6277 0.8980 0.1666
H48 H 0.5102 0.8766 0.1161
O33 O 0.7551(3) 0.1438(3) 0.0163(2)
C57 C 0.6625(4) 0.0780(5) 0.0314(3)
H49 H 0.8120 0.1262 0.0377
H52 H 0.6755 0.0688 0.0818
H53 H 0.6509 0.0092 0.0036
H54 H 0.5981 0.1114 0.0193
O34 O 0.7988(3) 0.1351(4) 0.4928(2)
C58 C 0.8893(5) 0.0816(5) 0.5165(3)
H50 H 0.7490 0.1166 0.5141
H55 H 0.9548 0.1338 0.5343
H56 H 0.9005 0.0354 0.4769
H57 H 0.8737 0.0395 0.5542
O35 O 0.7243(4) 0.7420(5) 0.4397(3)
C59 C 0.8148(5) 0.7136(6) 0.4787(4)
H51 H 0.6728 0.7313 0.4608
H58 H 0.8387 0.7608 0.5228
H59 H 0.8727 0.7188 0.4518
H60 H 0.7978 0.6410 0.4895
loop_
_geom_bond_atom_site_label_1
_geom_bond_atom_site_label_2
_geom_bond_site_symmetry_1
_geom_bond_site_symmetry_2
O1 C5 1_555 1_555
O2 C11 1_555 1_555
O3 C7 1_555 1_555
O4 C14 1_555 1_555
O5 C14 1_555 1_555
O6 C2 1_555 1_555
O7 C3 1_555 1_555
O8 C11 1_555 1_555
C1 C2 1_555 1_555
C2 C3 1_555 1_555
C3 C4 1_555 1_555
C4 C5 1_555 1_555
C5 C6 1_555 1_555
C6 C1 1_555 1_555
C7 C6 1_555 1_555
C8 C7 1_555 1_555
C9 O1 1_555 1_555
C10 C9 1_555 1_555
C11 C10 1_555 1_555
C12 O2 1_555 1_555
C13 C11 1_555 1_555
C14 C1 1_555 1_555
H1 O4 1_555 1_555
H2 O6 1_555 1_555
H3 O7 1_555 1_555
H4 O8 1_555 1_555
H5 C4 1_555 1_555
H6 C10 1_555 1_555
H7 C10 1_555 1_555
H8 C12 1_555 1_555
H9 C12 1_555 1_555
H10 C13 1_555 1_555
H11 C13 1_555 1_555
H12 C13 1_555 1_555
O9 C19 1_555 1_555
O10 C25 1_555 1_555
O11 C21 1_555 1_555
O12 C28 1_555 1_555
O13 C28 1_555 1_555
O14 C16 1_555 1_555
O15 C17 1_555 1_555
O16 C25 1_555 1_555
C15 C16 1_555 1_555
C16 C17 1_555 1_555
C17 C18 1_555 1_555
C18 C19 1_555 1_555
C19 C20 1_555 1_555
C20 C15 1_555 1_555
C21 C20 1_555 1_555
C22 C21 1_555 1_555
C23 O9 1_555 1_555
C24 C23 1_555 1_555
C25 C24 1_555 1_555
C26 O10 1_555 1_555
C27 C25 1_555 1_555
C28 C15 1_555 1_555
H13 O12 1_555 1_555
H14 O14 1_555 1_555
H15 O15 1_555 1_555
H16 O16 1_555 1_555
H17 C18 1_555 1_555
H18 C24 1_555 1_555
H19 C24 1_555 1_555
H20 C26 1_555 1_555
H21 C26 1_555 1_555
H22 C27 1_555 1_555
H23 C27 1_555 1_555
H24 C27 1_555 1_555
O17 C33 1_555 1_555
O18 C39 1_555 1_555
O19 C35 1_555 1_555
O20 C42 1_555 1_555
O21 C42 1_555 1_555
O22 C30 1_555 1_555
O23 C31 1_555 1_555
O24 C39 1_555 1_555
C29 C30 1_555 1_555
C30 C31 1_555 1_555
C31 C32 1_555 1_555
C32 C33 1_555 1_555
C33 C34 1_555 1_555
C34 C29 1_555 1_555
C35 C34 1_555 1_555
C36 C35 1_555 1_555
C37 O17 1_555 1_555
C38 C37 1_555 1_555
C39 C38 1_555 1_555
C40 O18 1_555 1_555
C41 C39 1_555 1_555
C42 C29 1_555 1_555
H25 O20 1_555 1_555
H26 O22 1_555 1_555
H27 O23 1_555 1_555
H28 O24 1_555 1_555
H29 C32 1_555 1_555
H30 C38 1_555 1_555
H31 C38 1_555 1_555
H32 C40 1_555 1_555
H33 C40 1_555 1_555
H34 C41 1_555 1_555
H35 C41 1_555 1_555
H36 C41 1_555 1_555
O25 C47 1_555 1_555
O26 C53 1_555 1_555
O27 C49 1_555 1_555
O28 C56 1_555 1_555
O29 C56 1_555 1_555
O30 C44 1_555 1_555
O31 C45 1_555 1_555
O32 C53 1_555 1_555
C43 C44 1_555 1_555
C44 C45 1_555 1_555
C45 C46 1_555 1_555
C46 C47 1_555 1_555
C47 C48 1_555 1_555
C48 C43 1_555 1_555
C49 C48 1_555 1_555
C50 C49 1_555 1_555
C51 O25 1_555 1_555
C52 C51 1_555 1_555
C53 C52 1_555 1_555
C54 O26 1_555 1_555
C55 C53 1_555 1_555
C56 C43 1_555 1_555
H37 O28 1_555 1_555
H38 O30 1_555 1_555
H39 O31 1_555 1_555
H40 O32 1_555 1_555
H41 C46 1_555 1_555
H42 C52 1_555 1_555
H43 C52 1_555 1_555
H44 C54 1_555 1_555
H45 C54 1_555 1_555
H46 C55 1_555 1_555
H47 C55 1_555 1_555
H48 C55 1_555 1_555
O33 C57 1_555 1_555
O34 C58 1_555 1_555
O35 C59 1_555 1_555
C57 H52 1_555 1_555
C58 H55 1_555 1_555
C59 H58 1_555 1_555
H49 O33 1_555 1_555
H50 O34 1_555 1_555
H51 O35 1_555 1_555
H53 C57 1_555 1_555
H54 C57 1_555 1_555
H56 C58 1_555 1_555
H57 C58 1_555 1_555
H59 C59 1_555 1_555
H60 C59 1_555 1_555
C8 C9 1_555 1_555
C8 C12 1_555 1_555
C22 C23 1_555 1_555
C22 C26 1_555 1_555
C36 C37 1_555 1_555
C36 C40 1_555 1_555
C50 C51 1_555 1_555
C50 C54 1_555 1_555

#END
