
#######################################################################
#
#                 Cambridge Crystallographic Data Centre
#                                CCDC 
#
#######################################################################
#
# If this CIF has been generated from an entry in the Cambridge 
# Structural Database, then it will include bibliographic, chemical, 
# crystal, experimental, refinement or atomic coordinate data resulting 
# from the CCDC's data processing and validation procedures.
#
#######################################################################

data_ELIDIO
_chemical_formula_moiety         'C17 H14 Cl1 N1 O2'
_chemical_name_systematic        
'ethyl 3-(4-chlorophenyl)indolizine-1-carboxylate'
_symmetry_cell_setting           triclinic
_symmetry_space_group_name_H-M   'P -1'
_symmetry_Int_Tables_number      2
_space_group_name_Hall           '-P 1'
loop_
_symmetry_equiv_pos_site_id
_symmetry_equiv_pos_as_xyz
1 x,y,z
2 -x,-y,-z
_cell_length_a                   8.0199(7)
_cell_length_b                   8.9354(5)
_cell_length_c                   10.9790(9)
_cell_angle_alpha                105.756(6)
_cell_angle_beta                 92.008(7)
_cell_angle_gamma                102.748(6)
_cell_volume                     734.751
_cell_formula_units_Z            2
loop_
_atom_site_label
_atom_site_type_symbol
_atom_site_fract_x
_atom_site_fract_y
_atom_site_fract_z
Cl1 Cl 0.50564(11) 0.77118(9) 0.41550(7)
N1 N 0.2695(2) 0.5430(2) 0.94735(16)
C1 C 0.3310(3) 0.6968(2) 0.78542(19)
C2 C 0.2746(3) 0.6795(2) 0.90755(19)
C3 C 0.3265(3) 0.6015(3) 0.5570(2)
H1 H 0.2879 0.5216 0.4808
C4 C 0.4403(3) 0.8394(3) 0.7822(2)
H2 H 0.4791 0.9202 0.8578
C5 C 0.2187(3) 0.7853(3) 1.0030(2)
H3 H 0.2099 0.8871 1.0022
C6 C 0.4358(3) 0.7432(3) 0.5577(2)
O1 O 0.0877(2) 0.9317(2) 1.22721(16)
C7 C 0.2092(2) 0.5648(3) 1.06722(19)
C8 C 0.4925(3) 0.8637(3) 0.6691(2)
H4 H 0.5650 0.9602 0.6683
C9 C 0.2740(3) 0.5780(3) 0.6704(2)
H5 H 0.1997 0.4818 0.6701
C10 C 0.1766(3) 0.7169(3) 1.1021(2)
C11 C 0.3113(3) 0.2900(3) 0.9466(3)
H6 H 0.3475 0.1982 0.9074
C12 C 0.1962(3) 0.4398(3) 1.1249(2)
H7 H 0.1545 0.4504 1.2040
C13 C 0.3234(3) 0.4075(3) 0.8895(2)
H8 H 0.3680 0.3969 0.8114
C14 C 0.2444(3) 0.3052(3) 1.0652(3)
H9 H 0.2334 0.2221 1.1025
C15 C 0.0389(5) 1.1748(4) 1.3542(3)
H10 H -0.0073 1.2242 1.4302
H11 H -0.0203 1.1879 1.2817
H12 H 0.1590 1.2243 1.3593
C16 C 0.0170(5) 1.0071(4) 1.3414(3)
H13 H -0.1042 0.9568 1.3366
H14 H 0.0750 0.9934 1.4153
O2 O 0.0576(3) 0.7140(2) 1.29687(17)
C17 C 0.1019(3) 0.7825(3) 1.2173(2)
loop_
_geom_bond_atom_site_label_1
_geom_bond_atom_site_label_2
_geom_bond_site_symmetry_1
_geom_bond_site_symmetry_2
Cl1 C6 1_555 1_555
N1 C2 1_555 1_555
C1 C2 1_555 1_555
C2 C5 1_555 1_555
C3 H1 1_555 1_555
C4 C1 1_555 1_555
H2 C4 1_555 1_555
C5 H3 1_555 1_555
C6 C3 1_555 1_555
O1 C16 1_555 1_555
C7 N1 1_555 1_555
C8 C4 1_555 1_555
H4 C8 1_555 1_555
C9 C1 1_555 1_555
H5 C9 1_555 1_555
C10 C5 1_555 1_555
C11 H6 1_555 1_555
C12 C7 1_555 1_555
H7 C12 1_555 1_555
C13 N1 1_555 1_555
H8 C13 1_555 1_555
C14 C11 1_555 1_555
H9 C14 1_555 1_555
C15 H10 1_555 1_555
H11 C15 1_555 1_555
H12 C15 1_555 1_555
C16 C15 1_555 1_555
H13 C16 1_555 1_555
H14 C16 1_555 1_555
O2 C17 1_555 1_555
C17 O1 1_555 1_555
C3 C9 1_555 1_555
C6 C8 1_555 1_555
C7 C10 1_555 1_555
C10 C17 1_555 1_555
C11 C13 1_555 1_555
C12 C14 1_555 1_555

#END
