
#######################################################################
#
#                 Cambridge Crystallographic Data Centre
#                                CCDC 
#
#######################################################################
#
# If this CIF has been generated from an entry in the Cambridge 
# Structural Database, then it will include bibliographic, chemical, 
# crystal, experimental, refinement or atomic coordinate data resulting 
# from the CCDC's data processing and validation procedures.
#
#######################################################################

data_ELIGIR
_chemical_formula_moiety         'C6 H4 N8 O8'
_chemical_name_systematic        
"4H,8H-bis[1,2,5]Oxadiazolo[3,4-b:3',4'-e]pyrazine-4,8-diylbis(methylene) dinitrate"
_symmetry_cell_setting           monoclinic
_symmetry_space_group_name_H-M   'P 21/c'
_symmetry_Int_Tables_number      14
_space_group_name_Hall           '-P 2ybc'
loop_
_symmetry_equiv_pos_site_id
_symmetry_equiv_pos_as_xyz
1 x,y,z
2 -x,1/2+y,1/2-z
3 -x,-y,-z
4 x,1/2-y,1/2+z
_cell_length_a                   10.523(7)
_cell_length_b                   5.429(4)
_cell_length_c                   10.246(7)
_cell_angle_alpha                90
_cell_angle_beta                 105.233(10)
_cell_angle_gamma                90
_cell_volume                     564.781
_exptl_crystal_colour            colorless
_exptl_crystal_description       irregular
_cell_formula_units_Z            2
loop_
_atom_site_label
_atom_site_type_symbol
_atom_site_fract_x
_atom_site_fract_y
_atom_site_fract_z
N1 N -0.0836(2) 0.8950(4) -0.1498(2)
O1 O 0.0382(2) 0.9712(4) -0.16875(19)
N2 N 0.1409(2) 0.8126(4) -0.1029(2)
C1 C 0.0836(2) 0.6493(4) -0.0467(2)
C2 C -0.0554(2) 0.6992(4) -0.0755(2)
N3 N 0.14167(19) 0.4483(4) 0.0293(2)
C3 C 0.2813(3) 0.3930(6) 0.0560(4)
H1 H 0.299(4) 0.221(5) 0.067(4)
H2 H 0.305(4) 0.456(7) -0.021(3)
N4 N 0.3777(2) 0.5825(5) 0.2667(2)
O2 O 0.3564(3) 0.6084(7) 0.1264(3)
O3 O 0.3391(4) 0.3669(7) 0.2950(6)
O4 O 0.4352(5) 0.7258(10) 0.3406(6)
N1B N 0.0836(2) 0.1050(4) 0.1498(2)
O1B O -0.0382(2) 0.0288(4) 0.16875(19)
N2B N -0.1409(2) 0.1874(4) 0.1029(2)
C1B C -0.0836(2) 0.3507(4) 0.0467(2)
C2B C 0.0554(2) 0.3008(4) 0.0755(2)
N3B N -0.14167(19) 0.5517(4) -0.0293(2)
C3B C -0.2813(3) 0.6070(6) -0.0560(4)
H1B H -0.299(4) 0.779(5) -0.067(4)
H2B H -0.305(4) 0.544(7) 0.021(3)
N4B N -0.3777(2) 0.4175(5) -0.2667(2)
O2B O -0.3564(3) 0.3916(7) -0.1264(3)
O3B O -0.3391(4) 0.6331(7) -0.2950(6)
O4B O -0.4352(5) 0.2742(10) -0.3406(6)
O5? O 0.3389(4) 0.3690(8) 0.2117(5)
O6? O 0.4309(5) 0.6043(12) 0.3888(4)
O7? O 0.3557(4) 0.7805(7) 0.1919(4)
loop_
_geom_bond_atom_site_label_1
_geom_bond_atom_site_label_2
_geom_bond_site_symmetry_1
_geom_bond_site_symmetry_2
N1 O1 1_555 1_555
O1 N2 1_555 1_555
N2 C1 1_555 1_555
C1 C2 1_555 1_555
C2 N1 1_555 1_555
N3 C1 1_555 1_555
C3 N3 1_555 1_555
H1 C3 1_555 1_555
H2 C3 1_555 1_555
N4 O2 1_555 1_555
O2 C3 1_555 1_555
O3 N4 1_555 1_555
O4 N4 1_555 1_555
N1B O1B 1_555 1_555
O1B N2B 1_555 1_555
N2B C1B 1_555 1_555
C1B C2B 1_555 1_555
C2B N3 1_555 1_555
N3B C2 1_555 1_555
C3B N3B 1_555 1_555
H1B C3B 1_555 1_555
H2B C3B 1_555 1_555
N4B O2B 1_555 1_555
O2B C3B 1_555 1_555
O3B N4B 1_555 1_555
O4B N4B 1_555 1_555
N1B C2B 1_555 1_555
C1B N3B 1_555 1_555

#END
