
#######################################################################
#
#                 Cambridge Crystallographic Data Centre
#                                CCDC 
#
#######################################################################
#
# If this CIF has been generated from an entry in the Cambridge 
# Structural Database, then it will include bibliographic, chemical, 
# crystal, experimental, refinement or atomic coordinate data resulting 
# from the CCDC's data processing and validation procedures.
#
#######################################################################

data_ELIGOX
_chemical_formula_moiety         'C7 H4 N8 O8'
_chemical_name_systematic        
'(6-Oxo-5H-imidazo[4,5-b][1,2,5]oxadiazolo[3,4-e]pyrazine-5,7(6H)-diyl)bis(methylene) dinitrate'
_symmetry_cell_setting           monoclinic
_symmetry_space_group_name_H-M   'P 21/c'
_symmetry_Int_Tables_number      14
_space_group_name_Hall           '-P 2ybc'
loop_
_symmetry_equiv_pos_site_id
_symmetry_equiv_pos_as_xyz
1 x,y,z
2 -x,1/2+y,1/2-z
3 -x,-y,-z
4 x,1/2-y,1/2+z
_cell_length_a                   12.7227(14)
_cell_length_b                   11.8045(13)
_cell_length_c                   8.1445(9)
_cell_angle_alpha                90
_cell_angle_beta                 96.200(4)
_cell_angle_gamma                90
_cell_volume                     1216.03
_exptl_crystal_colour            colorless
_exptl_crystal_description       plate
_cell_formula_units_Z            4
loop_
_atom_site_label
_atom_site_type_symbol
_atom_site_fract_x
_atom_site_fract_y
_atom_site_fract_z
C1 C 0.29874(19) 0.5316(2) 0.7927(3)
N1 N 0.37397(16) 0.46113(18) 0.7721(3)
C2 C 0.3381(2) 0.3829(2) 0.6535(3)
N2 N 0.3944(2) 0.3014(2) 0.5988(3)
O1 O 0.3256(2) 0.2492(2) 0.4792(3)
N3 N 0.2264(2) 0.2992(2) 0.4604(3)
C3 C 0.2348(2) 0.3814(2) 0.5689(3)
N4 N 0.15633(19) 0.4580(2) 0.5941(3)
C4 C 0.19164(19) 0.5301(2) 0.7049(3)
N5 N 0.13915(16) 0.62042(19) 0.7624(3)
C5 C 0.0346(2) 0.6604(3) 0.7031(4)
H1 H 0.0071 0.6160 0.6078
H2 H 0.0387 0.7387 0.6685
O2 O -0.03670(17) 0.6518(2) 0.8293(3)
N6 N -0.0811(2) 0.5466(4) 0.8450(5)
O3 O -0.0480(3) 0.4699(3) 0.7621(5)
O4 O -0.1452(3) 0.5370(4) 0.9344(5)
C6 C 0.2061(2) 0.6813(2) 0.8790(3)
O5 O 0.18519(15) 0.76583(17) 0.9493(3)
N7 N 0.30261(16) 0.62316(18) 0.8968(3)
C7 C 0.3927(2) 0.6609(2) 1.0073(3)
H3 H 0.4528 0.6124 0.9941
H4 H 0.4112 0.7375 0.9779
O6 O 0.37155(15) 0.65878(15) 1.1757(2)
N8 N 0.3775(2) 0.5489(2) 1.2471(3)
O7 O 0.38750(17) 0.46964(18) 1.1600(3)
O8 O 0.3714(2) 0.5533(2) 1.3932(3)
loop_
_geom_bond_atom_site_label_1
_geom_bond_atom_site_label_2
_geom_bond_site_symmetry_1
_geom_bond_site_symmetry_2
C1 N1 1_555 1_555
N1 C2 1_555 1_555
C2 N2 1_555 1_555
N2 O1 1_555 1_555
O1 N3 1_555 1_555
N3 C3 1_555 1_555
C3 C2 1_555 1_555
N4 C3 1_555 1_555
C4 C1 1_555 1_555
N5 C4 1_555 1_555
C5 N5 1_555 1_555
H1 C5 1_555 1_555
H2 C5 1_555 1_555
O2 C5 1_555 1_555
N6 O2 1_555 1_555
O3 N6 1_555 1_555
O4 N6 1_555 1_555
C6 N5 1_555 1_555
O5 C6 1_555 1_555
N7 C1 1_555 1_555
C7 N7 1_555 1_555
H3 C7 1_555 1_555
H4 C7 1_555 1_555
O6 C7 1_555 1_555
N8 O6 1_555 1_555
O7 N8 1_555 1_555
O8 N8 1_555 1_555
N4 C4 1_555 1_555
C6 N7 1_555 1_555

#END
