
#######################################################################
#
#                 Cambridge Crystallographic Data Centre
#                                CCDC 
#
#######################################################################
#
# If this CIF has been generated from an entry in the Cambridge 
# Structural Database, then it will include bibliographic, chemical, 
# crystal, experimental, refinement or atomic coordinate data resulting 
# from the CCDC's data processing and validation procedures.
#
#######################################################################

data_ELIZEG
_chemical_name_common            'vortioxetine p-nitrobenzoic acid'
_chemical_formula_moiety         'C18 H23 N2 S1 1+,C7 H4 N1 O4 1-'
_chemical_name_systematic        
'4-(2-((2,4-dimethylphenyl)sulfanyl)phenyl)piperazin-1-ium 4-nitrobenzoate'
_symmetry_cell_setting           monoclinic
_symmetry_space_group_name_H-M   'P 21/n'
_symmetry_Int_Tables_number      14
_space_group_name_Hall           '-P 2yn'
loop_
_symmetry_equiv_pos_site_id
_symmetry_equiv_pos_as_xyz
1 x,y,z
2 1/2-x,1/2+y,1/2-z
3 -x,-y,-z
4 1/2+x,1/2-y,1/2+z
_cell_length_a                   11.7591(16)
_cell_length_b                   6.6784(9)
_cell_length_c                   30.147(4)
_cell_angle_alpha                90
_cell_angle_beta                 93.664(3)
_cell_angle_gamma                90
_cell_volume                     2362.66
_exptl_crystal_colour            colorless
_exptl_crystal_description       block
_cell_formula_units_Z            4
loop_
_atom_site_label
_atom_site_type_symbol
_atom_site_fract_x
_atom_site_fract_y
_atom_site_fract_z
C1 C 1.0269(2) 0.5789(3) 0.08951(8)
H1 H 1.0703 0.6370 0.0664
H2 H 1.0803 0.5295 0.1128
C2 C 0.88587(19) 0.3256(3) 0.10480(7)
H3 H 0.9347 0.2656 0.1283
H4 H 0.8372 0.2215 0.0916
C3 C 0.81324(18) 0.4855(3) 0.12418(7)
H5 H 0.7596 0.5373 0.1012
H6 H 0.7701 0.4279 0.1474
C4 C 0.95187(17) 0.7372(3) 0.10817(7)
H7 H 0.9986 0.8452 0.1208
H8 H 0.9013 0.7921 0.0846
C5 C 0.82503(16) 0.7980(3) 0.16657(6)
C6 C 0.70828(19) 0.8296(4) 0.15998(7)
H9 H 0.6660 0.7512 0.1395
C7 C 0.6541(2) 0.9746(4) 0.18317(9)
H10 H 0.5756 0.9914 0.1787
C8 C 0.7158(2) 1.0944(4) 0.21289(8)
H11 H 0.6795 1.1955 0.2278
C9 C 0.83068(19) 1.0651(3) 0.22050(7)
H12 H 0.8719 1.1463 0.2408
C10 C 0.88648(16) 0.9154(3) 0.19827(6)
C11 C 1.07383(17) 1.0134(3) 0.25558(7)
C12 C 1.0709(2) 0.9380(4) 0.29852(8)
H13 H 1.0432 0.8096 0.3029
C13 C 1.1090(2) 1.0525(5) 0.33465(8)
H14 H 1.1062 1.0005 0.3632
C14 C 1.15106(19) 1.2432(4) 0.32898(8)
C15 C 1.15339(18) 1.3151(4) 0.28620(7)
H15 H 1.1817 1.4434 0.2821
C16 C 1.11578(17) 1.2063(3) 0.24903(7)
C17 C 1.1186(2) 1.2997(4) 0.20425(8)
H16 H 1.0441 1.3488 0.1950
H17 H 1.1417 1.2017 0.1833
H18 H 1.1719 1.4088 0.2055
C18 C 1.1937(3) 1.3692(5) 0.36835(9)
H19 H 1.1521 1.4929 0.3683
H20 H 1.2733 1.3969 0.3664
H21 H 1.1828 1.2977 0.3954
H22 H 1.013(2) 0.298(4) 0.0596(8)
H23 H 0.9175(18) 0.459(3) 0.0487(7)
N1 N 0.95677(17) 0.4097(3) 0.07072(6)
N2 N 0.88438(13) 0.6496(2) 0.14270(5)
S1 S 1.03157(5) 0.85188(10) 0.21063(2)
C19 C 0.24149(17) 1.0620(3) 0.99760(6)
C20 C 0.3205(2) 1.1387(3) 0.96984(8)
H24 H 0.3191 1.2746 0.9631
C21 C 0.4009(2) 1.0182(3) 0.95215(8)
H25 H 0.4542 1.0713 0.9339
C22 C 0.40073(18) 0.8179(3) 0.96204(7)
C23 C 0.32453(19) 0.7356(3) 0.98936(7)
H26 H 0.3261 0.5993 0.9957
C24 C 0.24548(19) 0.8590(3) 1.00725(7)
H27 H 0.1939 0.8052 1.0261
C25 C 0.15399(19) 1.1977(3) 1.01664(7)
N3 N 0.48441(18) 0.6870(3) 0.94228(7)
O1 O 0.14671(15) 1.3731(2) 1.00232(5)
O2 O 0.09540(15) 1.1242(2) 1.04598(6)
O3 O 0.47469(19) 0.5078(3) 0.94486(8)
O4 O 0.56230(19) 0.7643(3) 0.92447(9)
loop_
_geom_bond_atom_site_label_1
_geom_bond_atom_site_label_2
_geom_bond_site_symmetry_1
_geom_bond_site_symmetry_2
C1 H1 1_555 1_555
H2 C1 1_555 1_555
C2 H3 1_555 1_555
H4 C2 1_555 1_555
C3 C2 1_555 1_555
H5 C3 1_555 1_555
H6 C3 1_555 1_555
C4 C1 1_555 1_555
H7 C4 1_555 1_555
H8 C4 1_555 1_555
C5 C6 1_555 1_555
C6 H9 1_555 1_555
C7 C6 1_555 1_555
H10 C7 1_555 1_555
C8 C7 1_555 1_555
H11 C8 1_555 1_555
C9 C8 1_555 1_555
H12 C9 1_555 1_555
C10 C5 1_555 1_555
C11 C12 1_555 1_555
C12 H13 1_555 1_555
C13 C12 1_555 1_555
H14 C13 1_555 1_555
C14 C13 1_555 1_555
C15 C14 1_555 1_555
H15 C15 1_555 1_555
C16 C11 1_555 1_555
C17 C16 1_555 1_555
H16 C17 1_555 1_555
H17 C17 1_555 1_555
H18 C17 1_555 1_555
C18 C14 1_555 1_555
H19 C18 1_555 1_555
H20 C18 1_555 1_555
H21 C18 1_555 1_555
H22 N1 1_555 1_555
H23 N1 1_555 1_555
N1 C1 1_555 1_555
N2 C3 1_555 1_555
S1 C10 1_555 1_555
C19 C20 1_555 1_555
C20 H24 1_555 1_555
C21 C20 1_555 1_555
H25 C21 1_555 1_555
C22 C21 1_555 1_555
C23 C22 1_555 1_555
H26 C23 1_555 1_555
C24 C19 1_555 1_555
H27 C24 1_555 1_555
C25 C19 1_555 1_555
N3 C22 1_555 1_555
O1 C25 1_555 1_555
O2 C25 1_555 1_555
O3 N3 1_555 1_555
O4 N3 1_555 1_555
C2 N1 1_555 1_555
C4 N2 1_555 1_555
C5 N2 1_555 1_555
C9 C10 1_555 1_555
C11 S1 1_555 1_555
C15 C16 1_555 1_555
C23 C24 1_555 1_555

#END
