
#######################################################################
#
#                 Cambridge Crystallographic Data Centre
#                                CCDC 
#
#######################################################################
#
# If this CIF has been generated from an entry in the Cambridge 
# Structural Database, then it will include bibliographic, chemical, 
# crystal, experimental, refinement or atomic coordinate data resulting 
# from the CCDC's data processing and validation procedures.
#
#######################################################################

data_ELIZIK
_chemical_name_common            'vortioxetine p-aminobenzoic acid'
_chemical_formula_moiety         'C18 H22 N2 S1 1+,C7 H6 N1 O2 1-'
_chemical_name_systematic        
'4-(2-((2,4-dimethylphenyl)sulfanyl)phenyl)piperazin-1-ium 4-aminobenzoate'
_symmetry_cell_setting           monoclinic
_symmetry_space_group_name_H-M   'P 21/c'
_symmetry_Int_Tables_number      14
_space_group_name_Hall           '-P 2ybc'
loop_
_symmetry_equiv_pos_site_id
_symmetry_equiv_pos_as_xyz
1 x,y,z
2 -x,1/2+y,1/2-z
3 -x,-y,-z
4 x,1/2-y,1/2+z
_cell_length_a                   19.463(5)
_cell_length_b                   8.424(2)
_cell_length_c                   14.870(4)
_cell_angle_alpha                90
_cell_angle_beta                 102.078(4)
_cell_angle_gamma                90
_cell_volume                     2384.06
_exptl_crystal_colour            colorless
_exptl_crystal_description       block
_cell_formula_units_Z            4
loop_
_atom_site_label
_atom_site_type_symbol
_atom_site_fract_x
_atom_site_fract_y
_atom_site_fract_z
C1 C 0.15579(10) 0.7887(2) 0.02954(14)
H1 H 0.1622 0.8953 0.0079
H2 H 0.1686 0.7141 -0.0138
C2 C 0.07107(10) 0.6074(2) 0.07442(14)
H3 H 0.0799 0.5245 0.0330
H4 H 0.0228 0.5975 0.0813
C3 C 0.11960(9) 0.5859(2) 0.16654(14)
H5 H 0.1091 0.6645 0.2094
H6 H 0.1129 0.4814 0.1906
C4 C 0.20270(10) 0.7647(2) 0.12281(14)
H7 H 0.2514 0.7788 0.1187
H8 H 0.1916 0.8428 0.1656
C5 C 0.24461(10) 0.5562(2) 0.23403(13)
C6 C 0.23196(11) 0.5428(3) 0.32272(15)
H9 H 0.1879 0.5691 0.3333
C7 C 0.28362(13) 0.4912(3) 0.39497(17)
H10 H 0.2738 0.4799 0.4532
C8 C 0.34941(12) 0.4566(3) 0.38110(16)
H11 H 0.3849 0.4268 0.4304
C9 C 0.36303(11) 0.4660(3) 0.29334(15)
H12 H 0.4075 0.4404 0.2840
C10 C 0.31124(10) 0.5131(2) 0.21950(13)
C11 C 0.41413(11) 0.4822(2) 0.11637(14)
C12 C 0.44161(12) 0.3283(3) 0.11895(17)
C13 C 0.51323(13) 0.3080(3) 0.12677(18)
H13 H 0.5313 0.2055 0.1291
C14 C 0.55820(12) 0.4340(3) 0.13116(16)
C15 C 0.52965(13) 0.5851(3) 0.12707(18)
H14 H 0.5595 0.6719 0.1292
C16 C 0.45834(12) 0.6127(3) 0.11996(16)
C17 C 0.4308(2) 0.7770(4) 0.1153(3)
H15 H 0.4664 0.8492 0.1048
H16 H 0.4176 0.8030 0.1723
H17 H 0.3904 0.7852 0.0659
C18 C 0.63682(13) 0.4121(4) 0.1417(2)
H18 H 0.6459 0.3452 0.0933
H19 H 0.6557 0.3636 0.2001
H20 H 0.6586 0.5136 0.1386
H21 H 0.0532(13) 0.770(3) -0.0309(18)
H22 H 0.0716(10) 0.841(2) 0.0681(14)
N1 N 0.08106(9) 0.7650(2) 0.03413(13)
N2 N 0.19249(7) 0.60368(18) 0.15653(10)
S1 S 0.32224(3) 0.50891(8) 0.10354(4)
C20 C 0.92196(10) 0.8147(2) 0.73476(12)
C21 C 0.94801(10) 0.7007(2) 0.68303(12)
H26 H 0.9877 0.6429 0.7101
C22 C 0.91657(10) 0.6713(2) 0.59284(13)
H27 H 0.9354 0.5947 0.5599
C23 C 0.85685(10) 0.7551(2) 0.55031(12)
C24 C 0.83001(11) 0.8686(3) 0.60229(14)
H28 H 0.7897 0.9249 0.5759
C25 C 0.86254(11) 0.8979(2) 0.69208(14)
H29 H 0.8442 0.9753 0.7250
C26 C 0.95697(11) 0.8451(2) 0.83290(13)
H30 H 0.8509(13) 0.679(3) 0.4311(18)
H31 H 0.7925(13) 0.791(3) 0.4366(17)
N3 N 0.82370(12) 0.7213(3) 0.46079(13)
O1 O 0.93105(8) 0.94751(16) 0.87747(9)
O2 O 1.01057(9) 0.7634(2) 0.86511(11)
C19? C 0.3977(5) 0.2022(11) 0.1238(7)
H23? H 0.4224 0.1047 0.1197
H24? H 0.3575 0.2082 0.0739
H25? H 0.3825 0.2057 0.1811
loop_
_geom_bond_atom_site_label_1
_geom_bond_atom_site_label_2
_geom_bond_site_symmetry_1
_geom_bond_site_symmetry_2
C1 H1 1_555 1_555
H2 C1 1_555 1_555
C2 H3 1_555 1_555
H4 C2 1_555 1_555
C3 C2 1_555 1_555
H5 C3 1_555 1_555
H6 C3 1_555 1_555
C4 C1 1_555 1_555
H7 C4 1_555 1_555
H8 C4 1_555 1_555
C5 C6 1_555 1_555
C6 H9 1_555 1_555
C7 C6 1_555 1_555
H10 C7 1_555 1_555
C8 C7 1_555 1_555
H11 C8 1_555 1_555
C9 C8 1_555 1_555
H12 C9 1_555 1_555
C10 C5 1_555 1_555
C11 C12 1_555 1_555
C12 C13 1_555 1_555
C13 H13 1_555 1_555
C14 C13 1_555 1_555
C15 C14 1_555 1_555
H14 C15 1_555 1_555
C16 C11 1_555 1_555
C17 C16 1_555 1_555
H15 C17 1_555 1_555
H16 C17 1_555 1_555
H17 C17 1_555 1_555
C18 C14 1_555 1_555
H18 C18 1_555 1_555
H19 C18 1_555 1_555
H20 C18 1_555 1_555
H21 N1 1_555 1_555
H22 N1 1_555 1_555
N1 C1 1_555 1_555
N2 C3 1_555 1_555
S1 C10 1_555 1_555
C20 C21 1_555 1_555
C21 H26 1_555 1_555
C22 C21 1_555 1_555
H27 C22 1_555 1_555
C23 C22 1_555 1_555
C24 C23 1_555 1_555
H28 C24 1_555 1_555
C25 C20 1_555 1_555
H29 C25 1_555 1_555
C26 C20 1_555 1_555
H30 N3 1_555 1_555
H31 N3 1_555 1_555
N3 C23 1_555 1_555
O1 C26 1_555 1_555
O2 C26 1_555 1_555
C2 N1 1_555 1_555
C4 N2 1_555 1_555
C5 N2 1_555 1_555
C9 C10 1_555 1_555
C11 S1 1_555 1_555
C15 C16 1_555 1_555
C24 C25 1_555 1_555

#END
