
#######################################################################
#
#                 Cambridge Crystallographic Data Centre
#                                CCDC 
#
#######################################################################
#
# If this CIF has been generated from an entry in the Cambridge 
# Structural Database, then it will include bibliographic, chemical, 
# crystal, experimental, refinement or atomic coordinate data resulting 
# from the CCDC's data processing and validation procedures.
#
#######################################################################

data_ELOCEP
_chemical_formula_moiety         'C16 H9 Br1 N2 S1,C1 H1 Cl3'
_chemical_name_systematic        
'2-(5-bromo-2-thienyl)-1,10-phenanthroline chloroform solvate'
_symmetry_cell_setting           monoclinic
_symmetry_space_group_name_H-M   'P 21/n'
_symmetry_Int_Tables_number      14
_space_group_name_Hall           '-P 2yn'
loop_
_symmetry_equiv_pos_site_id
_symmetry_equiv_pos_as_xyz
1 x,y,z
2 1/2-x,1/2+y,1/2-z
3 -x,-y,-z
4 1/2+x,1/2-y,1/2+z
_cell_length_a                   13.943(5)
_cell_length_b                   8.277(3)
_cell_length_c                   15.756(6)
_cell_angle_alpha                90
_cell_angle_beta                 93.852(6)
_cell_angle_gamma                90
_cell_volume                     1814.23
_exptl_crystal_colour            colorless
_exptl_crystal_description       block
_cell_formula_units_Z            4
loop_
_atom_site_label
_atom_site_type_symbol
_atom_site_fract_x
_atom_site_fract_y
_atom_site_fract_z
Br1 Br 0.69772(4) 0.07300(7) -0.37082(3)
C1 C 0.5291(3) 0.2138(5) -0.0622(3)
C2 C 0.4415(3) 0.1739(6) -0.0240(3)
H1 H 0.3951 0.1097 -0.0526
C3 C 0.4284(3) 0.2319(6) 0.0538(3)
H2 H 0.3720 0.2075 0.0794
C4 C 0.4986(3) 0.3291(5) 0.0977(3)
C5 C 0.4871(4) 0.3958(6) 0.1799(3)
H3 H 0.4319 0.3721 0.2075
C6 C 0.5537(4) 0.4913(6) 0.2178(3)
H4 H 0.5442 0.5331 0.2714
C7 C 0.6400(4) 0.5312(6) 0.1773(3)
C8 C 0.7098(5) 0.6362(7) 0.2142(3)
H5 H 0.7013 0.6814 0.2672
C9 C 0.7882(4) 0.6718(7) 0.1740(4)
H6 H 0.8347 0.7418 0.1979
C10 C 0.7986(4) 0.5996(6) 0.0936(4)
H7 H 0.8534 0.6242 0.0657
C11 C 0.6567(3) 0.4659(5) 0.0967(3)
C12 C 0.5829(3) 0.3627(5) 0.0546(3)
C13 C 0.5449(3) 0.1523(5) -0.1468(3)
C14 C 0.6172(3) 0.0897(5) -0.2807(3)
C15 C 0.5316(4) 0.0177(6) -0.2756(3)
H8 H 0.5029 -0.0484 -0.3178
C16 C 0.4906(4) 0.0538(6) -0.1993(3)
H9 H 0.4312 0.0138 -0.1857
N1 N 0.5971(3) 0.3026(4) -0.0242(2)
N2 N 0.7353(3) 0.4991(5) 0.0558(3)
S1 S 0.64996(9) 0.20339(16) -0.19239(8)
C17 C 0.8510(4) 0.1745(6) 0.9828(3)
H10 H 0.8013 0.2558 0.9691
Cl1 Cl 0.80310(15) 0.0215(3) 1.04099(15)
Cl2 Cl 0.8919(2) 0.0997(4) 0.88950(14)
Cl3 Cl 0.94525(15) 0.2634(2) 1.0432(2)
loop_
_geom_bond_atom_site_label_1
_geom_bond_atom_site_label_2
_geom_bond_site_symmetry_1
_geom_bond_site_symmetry_2
Br1 C14 1_555 1_555
C1 C2 1_555 1_555
C2 H1 1_555 1_555
C3 C2 1_555 1_555
H2 C3 1_555 1_555
C4 C3 1_555 1_555
C5 C4 1_555 1_555
H3 C5 1_555 1_555
C6 C5 1_555 1_555
H4 C6 1_555 1_555
C7 C6 1_555 1_555
C8 C7 1_555 1_555
H5 C8 1_555 1_555
C9 C8 1_555 1_555
H6 C9 1_555 1_555
C10 C9 1_555 1_555
H7 C10 1_555 1_555
C11 C7 1_555 1_555
C12 C4 1_555 1_555
C13 C1 1_555 1_555
C14 C15 1_555 1_555
C15 H8 1_555 1_555
C16 C13 1_555 1_555
H9 C16 1_555 1_555
N1 C1 1_555 1_555
N2 C10 1_555 1_555
S1 C13 1_555 1_555
C17 H10 1_555 1_555
Cl1 C17 1_555 1_555
Cl2 C17 1_555 1_555
Cl3 C17 1_555 1_555
C11 C12 1_555 1_555
C11 N2 1_555 1_555
C12 N1 1_555 1_555
C14 S1 1_555 1_555
C15 C16 1_555 1_555

#END
