
#######################################################################
#
#                 Cambridge Crystallographic Data Centre
#                                CCDC 
#
#######################################################################
#
# If this CIF has been generated from an entry in the Cambridge 
# Structural Database, then it will include bibliographic, chemical, 
# crystal, experimental, refinement or atomic coordinate data resulting 
# from the CCDC's data processing and validation procedures.
#
#######################################################################

data_ELOCOZ
_chemical_formula_moiety         'C30 H21 N3,C1 H1 Cl3'
_chemical_name_systematic        
'4-(1,10-phenanthrolin-2-yl)-N,N-diphenylaniline chloroform solvate'
_symmetry_cell_setting           monoclinic
_symmetry_space_group_name_H-M   'P 21/n'
_symmetry_Int_Tables_number      14
_space_group_name_Hall           '-P 2yn'
loop_
_symmetry_equiv_pos_site_id
_symmetry_equiv_pos_as_xyz
1 x,y,z
2 1/2-x,1/2+y,1/2-z
3 -x,-y,-z
4 1/2+x,1/2-y,1/2+z
_cell_length_a                   15.7072(18)
_cell_length_b                   9.1334(10)
_cell_length_c                   19.620(2)
_cell_angle_alpha                90
_cell_angle_beta                 110.962(2)
_cell_angle_gamma                90
_cell_volume                     2628.41
_exptl_crystal_colour            yellow
_exptl_crystal_description       block
_cell_formula_units_Z            4
loop_
_atom_site_label
_atom_site_type_symbol
_atom_site_fract_x
_atom_site_fract_y
_atom_site_fract_z
C1 C 0.53841(12) 0.2688(2) 0.45234(10)
C2 C 0.46677(14) 0.3236(2) 0.47243(12)
H1 H 0.4262 0.3920 0.4431
C3 C 0.45741(14) 0.2755(2) 0.53526(12)
H2 H 0.4111 0.3127 0.5494
C4 C 0.51745(14) 0.1704(2) 0.57842(11)
C5 C 0.51167(17) 0.1159(3) 0.64517(12)
H3 H 0.4664 0.1510 0.6611
C6 C 0.57054(18) 0.0150(3) 0.68497(12)
H4 H 0.5656 -0.0182 0.7282
C7 C 0.64106(16) -0.0427(2) 0.66211(12)
C8 C 0.7028(2) -0.1489(3) 0.70115(14)
H5 H 0.6994 -0.1858 0.7443
C9 C 0.7679(2) -0.1991(3) 0.67642(16)
H6 H 0.8092 -0.2703 0.7020
C10 C 0.77110(18) -0.1410(3) 0.61162(14)
H7 H 0.8159 -0.1756 0.5950
C11 C 0.64954(14) 0.0099(2) 0.59693(11)
C12 C 0.58632(13) 0.1190(2) 0.55426(10)
C13 C 0.55515(13) 0.3222(2) 0.38676(10)
C14 C 0.49972(14) 0.4255(2) 0.33934(11)
H8 H 0.4497 0.4625 0.3485
C15 C 0.51718(14) 0.4747(2) 0.27895(11)
H9 H 0.4786 0.5431 0.2479
C16 C 0.59207(13) 0.4226(2) 0.26419(10)
C17 C 0.64840(15) 0.3210(2) 0.31187(11)
H10 H 0.6995 0.2862 0.3036
C18 C 0.62968(14) 0.2712(2) 0.37100(11)
H11 H 0.6678 0.2014 0.4014
C19 C 0.57488(13) 0.6125(2) 0.17307(11)
C20 C 0.60143(17) 0.7357(2) 0.21709(13)
H12 H 0.6430 0.7267 0.2645
C21 C 0.5665(2) 0.8711(3) 0.19094(18)
H13 H 0.5832 0.9528 0.2211
C22 C 0.5079(2) 0.8855(3) 0.1213(2)
H14 H 0.4852 0.9776 0.1038
C23 C 0.48175(16) 0.7668(4) 0.07643(16)
H15 H 0.4417 0.7787 0.0286
C24 C 0.51487(15) 0.6265(3) 0.10194(12)
H16 H 0.4969 0.5451 0.0717
C25 C 0.65248(13) 0.3856(2) 0.16439(10)
C26 C 0.70674(15) 0.4518(3) 0.13045(12)
H17 H 0.7163 0.5524 0.1344
C27 C 0.74638(16) 0.3689(3) 0.09102(13)
H18 H 0.7810 0.4144 0.0673
C28 C 0.73509(15) 0.2202(3) 0.08661(13)
H19 H 0.7629 0.1645 0.0608
C29 C 0.68248(15) 0.1534(3) 0.12044(12)
H20 H 0.6753 0.0522 0.1179
C30 C 0.64002(15) 0.2364(2) 0.15840(12)
H21 H 0.6030 0.1908 0.1799
N1 N 0.59635(11) 0.16914(17) 0.49246(9)
N2 N 0.71482(13) -0.0403(2) 0.57248(10)
N3 N 0.60935(13) 0.47334(17) 0.20259(9)
C31 C 0.69303(15) 0.7790(3) 0.93769(12)
H22 H 0.7415 0.7058 0.9561
Cl1 Cl 0.63680(5) 0.79663(10) 0.99975(4)
Cl2 Cl 0.61540(5) 0.72005(8) 0.85332(4)
Cl3 Cl 0.74139(5) 0.94628(8) 0.92676(5)
loop_
_geom_bond_atom_site_label_1
_geom_bond_atom_site_label_2
_geom_bond_site_symmetry_1
_geom_bond_site_symmetry_2
C1 C2 1_555 1_555
C2 H1 1_555 1_555
C3 C2 1_555 1_555
H2 C3 1_555 1_555
C4 C3 1_555 1_555
C5 C4 1_555 1_555
H3 C5 1_555 1_555
C6 C5 1_555 1_555
H4 C6 1_555 1_555
C7 C6 1_555 1_555
C8 C7 1_555 1_555
H5 C8 1_555 1_555
C9 C8 1_555 1_555
H6 C9 1_555 1_555
C10 C9 1_555 1_555
H7 C10 1_555 1_555
C11 C7 1_555 1_555
C12 C4 1_555 1_555
C13 C1 1_555 1_555
C14 C13 1_555 1_555
H8 C14 1_555 1_555
C15 C14 1_555 1_555
H9 C15 1_555 1_555
C16 C15 1_555 1_555
C17 C16 1_555 1_555
H10 C17 1_555 1_555
C18 C13 1_555 1_555
H11 C18 1_555 1_555
C19 C20 1_555 1_555
C20 H12 1_555 1_555
C21 C20 1_555 1_555
H13 C21 1_555 1_555
C22 C21 1_555 1_555
H14 C22 1_555 1_555
C23 C22 1_555 1_555
H15 C23 1_555 1_555
C24 C19 1_555 1_555
H16 C24 1_555 1_555
C25 C26 1_555 1_555
C26 H17 1_555 1_555
C27 C26 1_555 1_555
H18 C27 1_555 1_555
C28 C27 1_555 1_555
H19 C28 1_555 1_555
C29 C28 1_555 1_555
H20 C29 1_555 1_555
C30 C25 1_555 1_555
H21 C30 1_555 1_555
N1 C1 1_555 1_555
N2 C10 1_555 1_555
N3 C16 1_555 1_555
C31 H22 1_555 1_555
Cl1 C31 1_555 1_555
Cl2 C31 1_555 1_555
Cl3 C31 1_555 1_555
C11 C12 1_555 1_555
C11 N2 1_555 1_555
C12 N1 1_555 1_555
C17 C18 1_555 1_555
C19 N3 1_555 1_555
C23 C24 1_555 1_555
C25 N3 1_555 1_555
C29 C30 1_555 1_555

#END
