
#######################################################################
#
#                 Cambridge Crystallographic Data Centre
#                                CCDC 
#
#######################################################################
#
# If this CIF has been generated from an entry in the Cambridge 
# Structural Database, then it will include bibliographic, chemical, 
# crystal, experimental, refinement or atomic coordinate data resulting 
# from the CCDC's data processing and validation procedures.
#
#######################################################################

data_ELODAM
_chemical_formula_moiety         'C34 H23 N3 S1'
_chemical_name_systematic        
4-(5-(1,10-phenanthrolin-2-yl)-2-thienyl)-N,N-diphenylaniline
_symmetry_cell_setting           monoclinic
_symmetry_space_group_name_H-M   'P 21/n'
_symmetry_Int_Tables_number      14
_space_group_name_Hall           '-P 2yn'
loop_
_symmetry_equiv_pos_site_id
_symmetry_equiv_pos_as_xyz
1 x,y,z
2 1/2-x,1/2+y,1/2-z
3 -x,-y,-z
4 1/2+x,1/2-y,1/2+z
_cell_length_a                   12.4037(13)
_cell_length_b                   16.6558(18)
_cell_length_c                   25.569(3)
_cell_angle_alpha                90
_cell_angle_beta                 90.644(2)
_cell_angle_gamma                90
_cell_volume                     5282.06
_exptl_crystal_colour            yellow
_exptl_crystal_description       block
_cell_formula_units_Z            8
loop_
_atom_site_label
_atom_site_type_symbol
_atom_site_fract_x
_atom_site_fract_y
_atom_site_fract_z
C1 C 0.9817(2) 0.07360(17) 0.44642(11)
C2 C 1.0671(3) 0.09311(19) 0.48084(12)
H1 H 1.0573 0.1305 0.5074
C3 C 1.1651(3) 0.0563(2) 0.47478(14)
H2 H 1.2226 0.0693 0.4968
C4 C 1.1780(3) -0.0008(2) 0.43528(14)
C5 C 1.2769(3) -0.0426(3) 0.42856(17)
H3 H 1.3359 -0.0302 0.4498
C6 C 1.2860(3) -0.0991(3) 0.39244(18)
H4 H 1.3506 -0.1269 0.3898
C7 C 1.1992(3) -0.1184(2) 0.35741(16)
C8 C 1.2068(4) -0.1756(2) 0.3177(2)
H5 H 1.2700 -0.2050 0.3140
C9 C 1.1222(5) -0.1886(3) 0.2844(2)
H6 H 1.1275 -0.2263 0.2578
C10 C 1.0252(4) -0.1438(3) 0.2909(2)
H7 H 0.9680 -0.1528 0.2679
C11 C 1.0978(3) -0.07645(19) 0.36138(14)
C12 C 1.0885(2) -0.01737(18) 0.40241(12)
C13 C 0.8776(2) 0.11109(17) 0.45043(11)
C14 C 0.6859(2) 0.14751(17) 0.43490(11)
C15 C 0.7333(3) 0.1916(2) 0.47359(13)
H8 H 0.6977 0.2312 0.4923
C16 C 0.8426(3) 0.17075(19) 0.48239(12)
H9 H 0.8862 0.1954 0.5075
C17 C 0.5775(2) 0.15485(17) 0.41223(11)
C18 C 0.5606(3) 0.14492(19) 0.35831(12)
H10 H 0.6179 0.1304 0.3372
C19 C 0.4601(3) 0.15641(19) 0.33640(13)
H11 H 0.4509 0.1501 0.3005
C20 C 0.3724(3) 0.17721(17) 0.36649(13)
C21 C 0.3888(3) 0.18481(18) 0.42026(13)
H12 H 0.3308 0.1971 0.4415
C22 C 0.4888(3) 0.17459(18) 0.44237(12)
H13 H 0.4977 0.1810 0.4783
C23 C 0.2298(3) 0.14408(18) 0.30143(12)
C24 C 0.2614(3) 0.06509(19) 0.29481(13)
H14 H 0.3068 0.0407 0.3192
C25 C 0.2246(4) 0.0223(2) 0.25113(15)
H15 H 0.2480 -0.0301 0.2458
C26 C 0.1555(3) 0.0561(3) 0.21669(15)
H16 H 0.1295 0.0261 0.1886
C27 C 0.1218(3) 0.1368(3) 0.22275(13)
H17 H 0.0751 0.1606 0.1986
C28 C 0.1595(2) 0.1789(2) 0.26491(13)
H18 H 0.1380 0.2319 0.2694
C29 C 0.2055(3) 0.25398(18) 0.36409(13)
C30 C 0.1017(3) 0.2400(2) 0.38100(14)
H19 H 0.0729 0.1885 0.3796
C31 C 0.0406(3) 0.3035(3) 0.40015(16)
H20 H -0.0286 0.2942 0.4125
C32 C 0.0819(4) 0.3789(3) 0.40084(18)
H21 H 0.0402 0.4213 0.4129
C33 C 0.1848(4) 0.3930(2) 0.38395(19)
H22 H 0.2126 0.4449 0.3848
C34 C 0.2465(3) 0.3314(2) 0.36591(16)
H23 H 0.3163 0.3414 0.3548
N1 N 0.99225(18) 0.01959(14) 0.40792(9)
N2 N 1.0136(2) -0.08976(18) 0.32852(13)
N3 N 0.2686(2) 0.19042(16) 0.34446(11)
S1 S 0.77534(6) 0.07901(5) 0.41000(3)
C35 C 0.0256(2) 0.16396(16) 0.05157(11)
C36 C -0.0578(2) 0.13760(18) 0.01752(11)
H24 H -0.0449 0.0981 -0.0073
C37 C -0.1565(2) 0.17085(19) 0.02178(12)
H25 H -0.2122 0.1542 -0.0004
C38 C -0.1759(2) 0.23049(19) 0.05945(12)
C39 C -0.2773(3) 0.2697(2) 0.06481(14)
H26 H -0.3346 0.2545 0.0432
C40 C -0.2919(3) 0.3274(2) 0.09994(14)
H27 H -0.3589 0.3522 0.1022
C41 C -0.2069(3) 0.35200(18) 0.13424(13)
C42 C -0.2216(3) 0.4122(2) 0.17167(16)
H28 H -0.2875 0.4383 0.1744
C43 C -0.1377(4) 0.4319(2) 0.20416(18)
H29 H -0.1455 0.4720 0.2292
C44 C -0.0387(3) 0.3907(2) 0.19931(18)
H30 H 0.0177 0.4045 0.2219
C45 C -0.1056(2) 0.31440(17) 0.13144(12)
C46 C -0.0890(2) 0.25240(16) 0.09262(11)
C47 C 0.1352(2) 0.13242(16) 0.04865(10)
C48 C 0.3277(2) 0.10556(16) 0.06808(11)
C49 C 0.2907(2) 0.06821(19) 0.02387(12)
H31 H 0.3339 0.0361 0.0029
C50 C 0.1815(2) 0.08279(18) 0.01305(12)
H32 H 0.1445 0.0609 -0.0154
C51 C 0.4340(2) 0.09877(16) 0.09356(11)
C52 C 0.5259(2) 0.08066(17) 0.06545(11)
H33 H 0.5211 0.0767 0.0292
C53 C 0.6241(2) 0.06846(17) 0.08989(11)
H34 H 0.6843 0.0562 0.0700
C54 C 0.6341(2) 0.07439(16) 0.14399(11)
C55 C 0.5432(2) 0.09332(19) 0.17221(12)
H35 H 0.5485 0.0979 0.2084
C56 C 0.4451(2) 0.10552(19) 0.14793(11)
H36 H 0.3854 0.1184 0.1679
C57 C 0.8015(2) -0.00283(17) 0.14937(11)
C58 C 0.9065(2) 0.01287(19) 0.13528(12)
H37 H 0.9335 0.0650 0.1366
C59 C 0.9717(3) -0.0505(2) 0.11909(13)
H38 H 1.0430 -0.0405 0.1103
C60 C 0.9324(3) -0.1268(2) 0.11591(13)
H39 H 0.9767 -0.1686 0.1053
C61 C 0.8261(3) -0.1414(2) 0.12857(14)
H40 H 0.7984 -0.1931 0.1256
C62 C 0.7612(3) -0.08031(19) 0.14549(13)
H41 H 0.6901 -0.0908 0.1544
C63 C 0.7721(2) 0.10838(16) 0.21069(10)
C64 C 0.7422(3) 0.18726(18) 0.21526(12)
H42 H 0.6966 0.2102 0.1903
C65 C 0.7799(3) 0.2331(2) 0.25711(14)
H43 H 0.7580 0.2862 0.2606
C66 C 0.8490(3) 0.2002(3) 0.29312(13)
H44 H 0.8750 0.2312 0.3208
C67 C 0.8806(3) 0.1209(2) 0.28854(12)
H45 H 0.9278 0.0987 0.3130
C68 C 0.8421(2) 0.07513(19) 0.24783(11)
H46 H 0.8629 0.0217 0.2450
N4 N 0.01005(17) 0.21950(13) 0.08830(9)
N5 N -0.0219(2) 0.33355(17) 0.16448(12)
N6 N 0.73461(19) 0.06045(15) 0.16861(10)
S2 S 0.22736(6) 0.16172(4) 0.09540(3)
loop_
_geom_bond_atom_site_label_1
_geom_bond_atom_site_label_2
_geom_bond_site_symmetry_1
_geom_bond_site_symmetry_2
C1 C2 1_555 1_555
C2 H1 1_555 1_555
C3 C2 1_555 1_555
H2 C3 1_555 1_555
C4 C3 1_555 1_555
C5 C4 1_555 1_555
H3 C5 1_555 1_555
C6 C5 1_555 1_555
H4 C6 1_555 1_555
C7 C6 1_555 1_555
C8 C7 1_555 1_555
H5 C8 1_555 1_555
C9 C8 1_555 1_555
H6 C9 1_555 1_555
C10 C9 1_555 1_555
H7 C10 1_555 1_555
C11 C7 1_555 1_555
C12 C4 1_555 1_555
C13 C1 1_555 1_555
C14 C15 1_555 1_555
C15 H8 1_555 1_555
C16 C13 1_555 1_555
H9 C16 1_555 1_555
C17 C14 1_555 1_555
C18 C17 1_555 1_555
H10 C18 1_555 1_555
C19 C18 1_555 1_555
H11 C19 1_555 1_555
C20 C19 1_555 1_555
C21 C20 1_555 1_555
H12 C21 1_555 1_555
C22 C17 1_555 1_555
H13 C22 1_555 1_555
C23 C24 1_555 1_555
C24 H14 1_555 1_555
C25 C24 1_555 1_555
H15 C25 1_555 1_555
C26 C25 1_555 1_555
H16 C26 1_555 1_555
C27 C26 1_555 1_555
H17 C27 1_555 1_555
C28 C23 1_555 1_555
H18 C28 1_555 1_555
C29 C30 1_555 1_555
C30 H19 1_555 1_555
C31 C30 1_555 1_555
H20 C31 1_555 1_555
C32 C31 1_555 1_555
H21 C32 1_555 1_555
C33 C32 1_555 1_555
H22 C33 1_555 1_555
C34 C29 1_555 1_555
H23 C34 1_555 1_555
N1 C1 1_555 1_555
N2 C10 1_555 1_555
N3 C20 1_555 1_555
S1 C13 1_555 1_555
C35 C36 1_555 1_555
C36 H24 1_555 1_555
C37 C36 1_555 1_555
H25 C37 1_555 1_555
C38 C37 1_555 1_555
C39 C38 1_555 1_555
H26 C39 1_555 1_555
C40 C39 1_555 1_555
H27 C40 1_555 1_555
C41 C40 1_555 1_555
C42 C41 1_555 1_555
H28 C42 1_555 1_555
C43 C42 1_555 1_555
H29 C43 1_555 1_555
C44 C43 1_555 1_555
H30 C44 1_555 1_555
C45 C41 1_555 1_555
C46 C38 1_555 1_555
C47 C35 1_555 1_555
C48 C49 1_555 1_555
C49 H31 1_555 1_555
C50 C47 1_555 1_555
H32 C50 1_555 1_555
C51 C48 1_555 1_555
C52 C51 1_555 1_555
H33 C52 1_555 1_555
C53 C52 1_555 1_555
H34 C53 1_555 1_555
C54 C53 1_555 1_555
C55 C54 1_555 1_555
H35 C55 1_555 1_555
C56 C51 1_555 1_555
H36 C56 1_555 1_555
C57 C58 1_555 1_555
C58 H37 1_555 1_555
C59 C58 1_555 1_555
H38 C59 1_555 1_555
C60 C59 1_555 1_555
H39 C60 1_555 1_555
C61 C60 1_555 1_555
H40 C61 1_555 1_555
C62 C57 1_555 1_555
H41 C62 1_555 1_555
C63 C64 1_555 1_555
C64 H42 1_555 1_555
C65 C64 1_555 1_555
H43 C65 1_555 1_555
C66 C65 1_555 1_555
H44 C66 1_555 1_555
C67 C66 1_555 1_555
H45 C67 1_555 1_555
C68 C63 1_555 1_555
H46 C68 1_555 1_555
N4 C35 1_555 1_555
N5 C44 1_555 1_555
N6 C54 1_555 1_555
S2 C47 1_555 1_555
C11 C12 1_555 1_555
C11 N2 1_555 1_555
C12 N1 1_555 1_555
C14 S1 1_555 1_555
C15 C16 1_555 1_555
C21 C22 1_555 1_555
C23 N3 1_555 1_555
C27 C28 1_555 1_555
C29 N3 1_555 1_555
C33 C34 1_555 1_555
C45 C46 1_555 1_555
C45 N5 1_555 1_555
C46 N4 1_555 1_555
C48 S2 1_555 1_555
C49 C50 1_555 1_555
C55 C56 1_555 1_555
C57 N6 1_555 1_555
C61 C62 1_555 1_555
C63 N6 1_555 1_555
C67 C68 1_555 1_555

#END
