
#######################################################################
#
#                 Cambridge Crystallographic Data Centre
#                                CCDC 
#
#######################################################################
#
# If this CIF has been generated from an entry in the Cambridge 
# Structural Database, then it will include bibliographic, chemical, 
# crystal, experimental, refinement or atomic coordinate data resulting 
# from the CCDC's data processing and validation procedures.
#
#######################################################################

data_ELUDEV01
_chemical_formula_moiety         'C4 H2 N10 O6'
_chemical_name_systematic        
N,N'-(diazenediyldi(1,2,5-oxadiazole-4,3-diyl))dinitramide
_symmetry_cell_setting           monoclinic
_symmetry_space_group_name_H-M   'P 21/c'
_symmetry_Int_Tables_number      14
_space_group_name_Hall           '-P 2ybc'
loop_
_symmetry_equiv_pos_site_id
_symmetry_equiv_pos_as_xyz
1 x,y,z
2 -x,1/2+y,1/2-z
3 -x,-y,-z
4 x,1/2-y,1/2+z
_cell_length_a                   5.6265(7)
_cell_length_b                   9.1195(10)
_cell_length_c                   9.5532(11)
_cell_angle_alpha                90
_cell_angle_beta                 97.913(4)
_cell_angle_gamma                90
_cell_volume                     485.516
_exptl_crystal_colour            yellow
_cell_formula_units_Z            2
loop_
_atom_site_label
_atom_site_type_symbol
_atom_site_fract_x
_atom_site_fract_y
_atom_site_fract_z
O1 O -0.01481(15) 0.39383(10) 0.88949(8)
O2 O 0.56597(16) 0.16815(10) 0.82045(9)
O3 O 0.65670(18) 0.14971(12) 0.60699(10)
N1 N -0.07083(16) 0.51339(10) 0.54408(9)
N2 N -0.12352(17) 0.47068(11) 0.77747(10)
N3 N 0.18398(18) 0.31607(10) 0.85617(10)
N4 N 0.36080(17) 0.29461(10) 0.64282(10)
H1 H 0.341(3) 0.294(2) 0.554(2)
N5 N 0.53798(17) 0.19626(11) 0.69452(10)
C1 C 0.00060(18) 0.44452(11) 0.67383(10)
C2 C 0.19437(18) 0.34613(11) 0.72352(10)
O1B O 0.01481(15) 0.60617(10) 0.11051(8)
O2B O -0.56597(16) 0.83185(10) 0.17955(9)
O3B O -0.65670(18) 0.85029(12) 0.39301(10)
N1B N 0.07083(16) 0.48661(10) 0.45592(9)
N2B N 0.12352(17) 0.52932(11) 0.22253(10)
N3B N -0.18398(18) 0.68393(10) 0.14383(10)
N4B N -0.36080(17) 0.70539(10) 0.35718(10)
H1B H -0.341(3) 0.706(2) 0.446(2)
N5B N -0.53798(17) 0.80374(11) 0.30548(10)
C1B C -0.00060(18) 0.55548(11) 0.32617(10)
C2B C -0.19437(18) 0.65387(11) 0.27648(10)
loop_
_geom_bond_atom_site_label_1
_geom_bond_atom_site_label_2
_geom_bond_site_symmetry_1
_geom_bond_site_symmetry_2
O1 N2 1_555 1_555
O2 N5 1_555 1_555
O3 N5 1_555 1_555
N1 C1 1_555 1_555
N2 C1 1_555 1_555
N3 O1 1_555 1_555
N4 H1 1_555 1_555
N5 N4 1_555 1_555
C1 C2 1_555 1_555
C2 N3 1_555 1_555
O1B N2B 1_555 1_555
O2B N5B 1_555 1_555
O3B N5B 1_555 1_555
N1B N1 1_555 1_555
N2B C1B 1_555 1_555
N3B O1B 1_555 1_555
N4B H1B 1_555 1_555
N5B N4B 1_555 1_555
C1B N1B 1_555 1_555
C2B N3B 1_555 1_555
N4 C2 1_555 1_555
N4B C2B 1_555 1_555
C1B C2B 1_555 1_555

#END
