
#######################################################################
#
#                 Cambridge Crystallographic Data Centre
#                                CCDC 
#
#######################################################################
#
# If this CIF has been generated from an entry in the Cambridge 
# Structural Database, then it will include bibliographic, chemical, 
# crystal, experimental, refinement or atomic coordinate data resulting 
# from the CCDC's data processing and validation procedures.
#
#######################################################################

data_ELUFAU
_chemical_formula_moiety         'C22 H13 Cl1 N2 O2,C1 H2 Cl2'
_chemical_name_systematic        
'7-chloro-10-(quinolin-8-yl)dibenzo[b,f][1,4]oxazepin-11(10H)-one dichloromethane solvate'
_symmetry_cell_setting           orthorhombic
_symmetry_space_group_name_H-M   'P c a 21'
_symmetry_Int_Tables_number      29
_space_group_name_Hall           'P 2c -2ac'
loop_
_symmetry_equiv_pos_site_id
_symmetry_equiv_pos_as_xyz
1 x,y,z
2 -x,-y,1/2+z
3 1/2-x,y,1/2+z
4 1/2+x,-y,z
_cell_length_a                   7.7032(10)
_cell_length_b                   16.441(2)
_cell_length_c                   14.9629(18)
_cell_angle_alpha                90
_cell_angle_beta                 90
_cell_angle_gamma                90
_cell_volume                     1895.03
_exptl_crystal_colour            colorless
_exptl_crystal_description       block
_cell_formula_units_Z            4
loop_
_atom_site_label
_atom_site_type_symbol
_atom_site_fract_x
_atom_site_fract_y
_atom_site_fract_z
C1 C 0.7139(7) 0.6810(3) 1.0536(5)
C2 C 0.7757(9) 0.6909(3) 1.1354(5)
H1 H 0.8054 0.7427 1.1549
C3 C 0.7967(9) 0.6260(4) 1.1916(5)
H2 H 0.8383 0.6338 1.2493
C4 C 0.7571(10) 0.5522(4) 1.1630(5)
H3 H 0.7734 0.5080 1.2008
C5 C 0.6924(7) 0.5396(3) 1.0786(5)
C6 C 0.6710(7) 0.6056(3) 1.0219(5)
C7 C 0.5645(10) 0.5265(3) 0.9132(5)
H4 H 0.5204 0.5204 0.8557
C8 C 0.5823(10) 0.4583(3) 0.9651(7)
H5 H 0.5504 0.4076 0.9430
C9 C 0.6445(9) 0.4653(3) 1.0461(7)
H6 H 0.6562 0.4194 1.0818
C10 C 0.5212(6) 0.7874(2) 1.0157(4)
C11 C 0.3812(7) 0.7426(3) 1.0403(4)
H7 H 0.3928 0.6864 1.0439
C12 C 0.2264(7) 0.7759(3) 1.0598(4)
H8 H 0.1329 0.7433 1.0761
C13 C 0.2094(7) 0.8575(3) 1.0554(4)
C14 C 0.3449(6) 0.9036(3) 1.0299(4)
H9 H 0.3323 0.9597 1.0255
C15 C 0.4986(6) 0.8689(2) 1.0107(4)
C16 C 0.7997(7) 0.7688(3) 0.9386(4)
C17 C 0.7744(7) 0.8385(3) 0.8821(4)
C18 C 0.6995(7) 0.9085(3) 0.9055(4)
C19 C 0.6901(8) 0.9729(3) 0.8521(5)
H10 H 0.6365 1.0205 0.8712
C20 C 0.7587(10) 0.9680(4) 0.7707(5)
H11 H 0.7503 1.0119 0.7318
C21 C 0.8400(9) 0.8999(4) 0.7447(5)
H12 H 0.8917 0.8973 0.6886
C22 C 0.8466(8) 0.8357(3) 0.7995(5)
H13 H 0.9016 0.7883 0.7807
Cl1 Cl 0.01704(18) 0.89929(8) 1.08345(14)
N1 N 0.6053(7) 0.5983(2) 0.9393(4)
N2 N 0.6810(5) 0.7506(2) 1.0017(3)
O1 O 0.9244(5) 0.7262(2) 0.9299(3)
O2 O 0.6363(5) 0.91812(17) 0.9909(3)
C23 C 0.2829(11) 0.7146(4) 0.8312(5)
H14 H 0.1992 0.7279 0.8774
H15 H 0.3780 0.6854 0.8591
Cl2 Cl 0.1868(3) 0.65307(10) 0.75436(16)
Cl3 Cl 0.3595(3) 0.80137(14) 0.78626(18)
loop_
_geom_bond_atom_site_label_1
_geom_bond_atom_site_label_2
_geom_bond_site_symmetry_1
_geom_bond_site_symmetry_2
C1 C2 1_555 1_555
C2 H1 1_555 1_555
C3 C2 1_555 1_555
H2 C3 1_555 1_555
C4 C3 1_555 1_555
H3 C4 1_555 1_555
C5 C4 1_555 1_555
C6 C1 1_555 1_555
C7 H4 1_555 1_555
C8 C7 1_555 1_555
H5 C8 1_555 1_555
C9 C5 1_555 1_555
H6 C9 1_555 1_555
C10 C11 1_555 1_555
C11 H7 1_555 1_555
C12 C11 1_555 1_555
H8 C12 1_555 1_555
C13 C12 1_555 1_555
C14 C13 1_555 1_555
H9 C14 1_555 1_555
C15 C10 1_555 1_555
C16 C17 1_555 1_555
C17 C18 1_555 1_555
C18 C19 1_555 1_555
C19 H10 1_555 1_555
C20 C19 1_555 1_555
H11 C20 1_555 1_555
C21 C20 1_555 1_555
H12 C21 1_555 1_555
C22 C17 1_555 1_555
H13 C22 1_555 1_555
Cl1 C13 1_555 1_555
N1 C6 1_555 1_555
N2 C1 1_555 1_555
O1 C16 1_555 1_555
O2 C15 1_555 1_555
C23 H14 1_555 1_555
H15 C23 1_555 1_555
Cl2 C23 1_555 1_555
Cl3 C23 1_555 1_555
C5 C6 1_555 1_555
C7 N1 1_555 1_555
C8 C9 1_555 1_555
C10 N2 1_555 1_555
C14 C15 1_555 1_555
C16 N2 1_555 1_555
C18 O2 1_555 1_555
C21 C22 1_555 1_555

#END
