
#######################################################################
#
#                 Cambridge Crystallographic Data Centre
#                                CCDC 
#
#######################################################################
#
# If this CIF has been generated from an entry in the Cambridge 
# Structural Database, then it will include bibliographic, chemical, 
# crystal, experimental, refinement or atomic coordinate data resulting 
# from the CCDC's data processing and validation procedures.
#
#######################################################################

data_ELUGID
_chemical_formula_moiety         'C44 H30 N4 O4,2(C1 H4 O1)'
_chemical_name_systematic        
'5,10,15,20-tetrakis(4-hydroxyphenyl)porphyrin methanol solvate'
_symmetry_cell_setting           triclinic
_symmetry_space_group_name_H-M   'P -1'
_symmetry_Int_Tables_number      2
_space_group_name_Hall           '-P 1'
loop_
_symmetry_equiv_pos_site_id
_symmetry_equiv_pos_as_xyz
1 x,y,z
2 -x,-y,-z
_cell_length_a                   10.7414(6)
_cell_length_b                   11.2551(6)
_cell_length_c                   16.1946(8)
_cell_angle_alpha                84.010(3)
_cell_angle_beta                 77.531(3)
_cell_angle_gamma                69.651(3)
_cell_volume                     1791.45
_exptl_crystal_colour            red
_exptl_crystal_description       prism
_cell_formula_units_Z            2
loop_
_atom_site_label
_atom_site_type_symbol
_atom_site_fract_x
_atom_site_fract_y
_atom_site_fract_z
O1 O 1.30673(13) -0.02497(12) 0.43927(8)
H1 H 1.3987 -0.0644 0.4240
O2 O 0.12219(13) 0.66875(13) 0.26129(8)
H2 H 0.0981 0.7392 0.2970
N1 N 0.91613(14) 0.44686(13) 0.11890(9)
H3 H 0.9546 0.4748 0.0709
N2 N 1.18781(14) 0.38936(13) 0.02335(9)
C1 C 0.77977(17) 0.47980(15) 0.15024(10)
C2 C 0.98183(17) 0.36251(15) 0.17590(10)
C3 C 1.17359(17) 0.21622(15) 0.23762(10)
C4 C 0.67547(17) 0.56135(15) 0.11141(10)
C5 C 1.12243(17) 0.30221(15) 0.16652(10)
C6 C 1.30803(17) 0.37773(15) -0.03158(10)
C7 C 1.21729(17) 0.31587(15) 0.09468(10)
C8 C 0.53262(17) 0.58309(15) 0.15684(10)
C9 C 0.47663(18) 0.65488(16) 0.22914(11)
H4 H 0.5320 0.6859 0.2533
C10 C 0.75888(17) 0.41396(16) 0.23028(10)
H5 H 0.6741 0.4198 0.2656
C11 C 1.36186(17) 0.25618(15) 0.08404(11)
H6 H 1.4096 0.2014 0.1240
C12 C 1.18815(18) 0.17983(17) 0.38613(11)
H7 H 1.1657 0.2109 0.4417
C13 C 0.25863(17) 0.63832(16) 0.23068(11)
C14 C 1.41727(17) 0.29270(15) 0.00631(11)
H8 H 1.5108 0.2669 -0.0185
C15 C 0.34077(18) 0.68180(16) 0.26640(11)
H9 H 0.3042 0.7298 0.3162
C16 C 0.88250(17) 0.34213(16) 0.24593(10)
H10 H 0.9003 0.2882 0.2943
C17 C 0.45024(18) 0.53425(16) 0.12505(11)
H11 H 0.4879 0.4814 0.0776
C18 C 1.14384(17) 0.26045(16) 0.31949(11)
H12 H 1.0925 0.3471 0.3298
C19 C 1.26511(17) 0.05397(16) 0.37126(10)
C20 C 1.25009(18) 0.08863(16) 0.22435(11)
H13 H 1.2706 0.0563 0.1693
C21 C 1.29671(18) 0.00823(16) 0.29051(11)
H14 H 1.3501 -0.0779 0.2803
C22 C 0.31441(18) 0.56122(17) 0.16125(11)
H15 H 0.2599 0.5271 0.1387
O1A O 0.69327(13) 1.02497(12) -0.43927(8)
H1A H 0.6013 1.0644 -0.4240
O2A O 1.87781(13) 0.33125(13) -0.26129(8)
H2A H 1.9019 0.2608 -0.2970
N1A N 1.08387(14) 0.55314(13) -0.11890(9)
H3A H 1.0454 0.5252 -0.0709
N2A N 0.81219(14) 0.61064(13) -0.02335(9)
C1A C 1.22023(17) 0.52020(15) -0.15024(10)
C2A C 1.01817(17) 0.63749(15) -0.17590(10)
C3A C 0.82641(17) 0.78378(15) -0.23762(10)
C4A C 1.32453(17) 0.43865(15) -0.11141(10)
C5A C 0.87757(17) 0.69779(15) -0.16652(10)
C6A C 0.69197(17) 0.62227(15) 0.03158(10)
C7A C 0.78271(17) 0.68413(15) -0.09468(10)
C8A C 1.46738(17) 0.41691(15) -0.15684(10)
C9A C 1.52337(18) 0.34512(16) -0.22914(11)
H4A H 1.4680 0.3141 -0.2533
C10A C 1.24112(17) 0.58604(16) -0.23028(10)
H5A H 1.3259 0.5802 -0.2656
C11A C 0.63814(17) 0.74382(15) -0.08404(11)
H6A H 0.5904 0.7986 -0.1240
C12A C 0.81185(18) 0.82017(17) -0.38613(11)
H7A H 0.8343 0.7891 -0.4417
C13A C 1.74137(17) 0.36168(16) -0.23068(11)
C14A C 0.58273(17) 0.70730(15) -0.00631(11)
H8A H 0.4892 0.7331 0.0185
C15A C 1.65923(18) 0.31820(16) -0.26640(11)
H9A H 1.6958 0.2702 -0.3162
C16A C 1.11750(17) 0.65787(16) -0.24593(10)
H10A H 1.0997 0.7118 -0.2943
C17A C 1.54976(18) 0.46575(16) -0.12505(11)
H11A H 1.5121 0.5186 -0.0776
C18A C 0.85616(17) 0.73955(16) -0.31949(11)
H12A H 0.9075 0.6529 -0.3298
C19A C 0.73489(17) 0.94603(16) -0.37126(10)
C20A C 0.74991(18) 0.91137(16) -0.22435(11)
H13A H 0.7294 0.9437 -0.1693
C21A C 0.70329(18) 0.99177(16) -0.29051(11)
H14A H 0.6499 1.0779 -0.2803
C22A C 1.68559(18) 0.43878(17) -0.16125(11)
H15A H 1.7401 0.4729 -0.1387
O3 O 0.11020(15) 0.85834(12) 0.49679(9)
H17 H 0.1839 0.9034 0.4905
O4 O 0.80270(19) 0.06132(16) -0.06947(8)
H18 H 0.8658 0.1090 -0.0866
N3 N 0.49313(14) 0.15229(13) 0.41167(8)
H19 H 0.5046 0.0879 0.4472
N4 N 0.41185(14) 0.12458(13) 0.59760(8)
C23 C 0.60803(16) 0.02802(15) 0.28244(10)
C24 C 0.35976(16) 0.09425(15) 0.67889(10)
C25 C 0.42425(16) 0.27712(15) 0.43136(10)
C26 C 0.42729(17) 0.34864(16) 0.35305(10)
H20 H 0.3898 0.4382 0.3466
C27 C 0.34566(17) 0.25219(15) 0.58685(10)
C28 C 0.28641(17) 0.46513(15) 0.51388(10)
C29 C 0.35745(17) 0.32474(15) 0.51145(10)
C30 C 0.17110(18) 0.52111(16) 0.47912(11)
H21 H 0.1332 0.4690 0.4575
C31 C 0.53617(16) 0.14088(15) 0.32550(10)
C32 C 0.65782(17) 0.03936(15) 0.18968(10)
C33 C 0.25942(18) 0.20516(16) 0.72032(11)
H22 H 0.2092 0.2084 0.7765
C34 C 0.25107(18) 0.30315(16) 0.66345(11)
H23 H 0.1942 0.3887 0.6720
C35 C 0.49335(17) 0.26609(16) 0.28927(11)
H24 H 0.5083 0.2882 0.2306
C36 C 0.62997(18) -0.02879(16) 0.13284(11)
H25 H 0.5773 -0.0820 0.1536
C37 C 0.33755(18) 0.54321(16) 0.54754(10)
H26 H 0.4133 0.5062 0.5743
C38 C 0.73481(19) 0.11719(17) 0.15714(11)
H27 H 0.7541 0.1649 0.1948
C39 C 0.16757(19) 0.72864(16) 0.50544(11)
C40 C 0.27954(19) 0.67474(17) 0.54272(11)
H28 H 0.3167 0.7269 0.5649
C41 C 0.11052(18) 0.65184(16) 0.47545(11)
H29 H 0.0306 0.6888 0.4526
C42 C 0.6781(2) -0.01986(17) 0.04650(11)
H30 H 0.6578 -0.0663 0.0086
C43 C 0.7562(2) 0.05706(18) 0.01541(11)
C44 C 0.7835(2) 0.12629(18) 0.07126(11)
H31 H 0.8357 0.1799 0.0504
O3A O 0.88980(15) -0.85834(12) 0.50321(9)
H17A H 0.8161 -0.9034 0.5095
O4A O 0.19730(19) -0.06132(16) 1.06947(8)
H18A H 0.1342 -0.1090 1.0866
N3A N 0.50687(14) -0.15229(13) 0.58833(8)
H19A H 0.4954 -0.0879 0.5528
N4A N 0.58815(14) -0.12458(13) 0.40240(8)
C23A C 0.39197(16) -0.02802(15) 0.71756(10)
C24A C 0.64024(16) -0.09425(15) 0.32111(10)
C25A C 0.57575(16) -0.27712(15) 0.56864(10)
C26A C 0.57271(17) -0.34864(16) 0.64695(10)
H20A H 0.6102 -0.4382 0.6534
C27A C 0.65434(17) -0.25219(15) 0.41315(10)
C28A C 0.71359(17) -0.46513(15) 0.48612(10)
C29A C 0.64255(17) -0.32474(15) 0.48855(10)
C30A C 0.82890(18) -0.52111(16) 0.52088(11)
H21A H 0.8668 -0.4690 0.5425
C31A C 0.46383(16) -0.14088(15) 0.67450(10)
C32A C 0.34218(17) -0.03936(15) 0.81032(10)
C33A C 0.74058(18) -0.20516(16) 0.27968(11)
H22A H 0.7908 -0.2084 0.2235
C34A C 0.74893(18) -0.30315(16) 0.33655(11)
H23A H 0.8058 -0.3887 0.3280
C35A C 0.50665(17) -0.26609(16) 0.71073(11)
H24A H 0.4917 -0.2882 0.7694
C36A C 0.37003(18) 0.02879(16) 0.86716(11)
H25A H 0.4227 0.0820 0.8464
C37A C 0.66245(18) -0.54321(16) 0.45246(10)
H26A H 0.5867 -0.5062 0.4257
C38A C 0.26519(19) -0.11719(17) 0.84286(11)
H27A H 0.2459 -0.1649 0.8052
C39A C 0.83243(19) -0.72864(16) 0.49456(11)
C40A C 0.72046(19) -0.67474(17) 0.45728(11)
H28A H 0.6833 -0.7269 0.4351
C41A C 0.88948(18) -0.65184(16) 0.52455(11)
H29A H 0.9694 -0.6888 0.5474
C42A C 0.3219(2) 0.01986(17) 0.95350(11)
H30A H 0.3422 0.0663 0.9914
C43A C 0.2438(2) -0.05706(18) 0.98459(11)
C44A C 0.2165(2) -0.12629(18) 0.92874(11)
H31A H 0.1643 -0.1799 0.9496
O5 O 0.97717(15) 0.19312(13) -0.11984(9)
H32 H 0.9540 0.2430 -0.1681
C45 C 1.0095(2) 0.2674(2) -0.06776(13)
H33 H 0.9268 0.3339 -0.0426
H34 H 1.0731 0.3064 -0.1019
H35 H 1.0509 0.2133 -0.0227
O6 O 0.00980(17) 0.87927(14) 0.35026(10)
H36 H 0.0148 0.8918 0.4064
C46 C -0.0508(2) 0.9941(2) 0.30856(15)
H37 H -0.1397 1.0386 0.3423
H38 H -0.0616 0.9766 0.2530
H39 H 0.0067 1.0470 0.3013
H16? H 1.1066 0.4355 0.0145
loop_
_geom_bond_atom_site_label_1
_geom_bond_atom_site_label_2
_geom_bond_site_symmetry_1
_geom_bond_site_symmetry_2
O1 H1 1_555 1_555
O2 H2 1_555 1_555
N1 H3 1_555 1_555
N2 C6 1_555 1_555
C1 N1 1_555 1_555
C2 N1 1_555 1_555
C3 C5 1_555 1_555
C4 C1 1_555 1_555
C5 C2 1_555 1_555
C6 C14 1_555 1_555
C7 N2 1_555 1_555
C8 C4 1_555 1_555
C9 C8 1_555 1_555
H4 C9 1_555 1_555
C10 C1 1_555 1_555
H5 C10 1_555 1_555
C11 C7 1_555 1_555
H6 C11 1_555 1_555
C12 H7 1_555 1_555
C13 O2 1_555 1_555
C14 C11 1_555 1_555
H8 C14 1_555 1_555
C15 C9 1_555 1_555
H9 C15 1_555 1_555
C16 C2 1_555 1_555
H10 C16 1_555 1_555
C17 C8 1_555 1_555
H11 C17 1_555 1_555
C18 C3 1_555 1_555
H12 C18 1_555 1_555
C19 O1 1_555 1_555
C20 C3 1_555 1_555
H13 C20 1_555 1_555
C21 C19 1_555 1_555
H14 C21 1_555 1_555
C22 C13 1_555 1_555
H15 C22 1_555 1_555
O3 H17 1_555 1_555
O4 H18 1_555 1_555
N3 H19 1_555 1_555
N4 C24 1_555 1_555
C23 C31 1_555 1_555
C24 C33 1_555 1_555
C25 N3 1_555 1_555
C26 C25 1_555 1_555
H20 C26 1_555 1_555
C27 N4 1_555 1_555
C28 C29 1_555 1_555
C29 C25 1_555 1_555
C30 C28 1_555 1_555
H21 C30 1_555 1_555
C31 N3 1_555 1_555
C32 C23 1_555 1_555
C33 H22 1_555 1_555
C34 C27 1_555 1_555
H23 C34 1_555 1_555
C35 C26 1_555 1_555
H24 C35 1_555 1_555
C36 C32 1_555 1_555
H25 C36 1_555 1_555
C37 C28 1_555 1_555
H26 C37 1_555 1_555
C38 C32 1_555 1_555
H27 C38 1_555 1_555
C39 O3 1_555 1_555
C40 C37 1_555 1_555
H28 C40 1_555 1_555
C41 C30 1_555 1_555
H29 C41 1_555 1_555
C42 C36 1_555 1_555
H30 C42 1_555 1_555
C43 O4 1_555 1_555
C44 C38 1_555 1_555
H31 C44 1_555 1_555
O5 H32 1_555 1_555
C45 O5 1_555 1_555
H33 C45 1_555 1_555
H34 C45 1_555 1_555
H35 C45 1_555 1_555
O6 H36 1_555 1_555
C46 O6 1_555 1_555
H37 C46 1_555 1_555
H38 C46 1_555 1_555
H39 C46 1_555 1_555
O1A H1A 1_555 1_555
O2A H2A 1_555 1_555
N1A H3A 1_555 1_555
N2A C6A 1_555 1_555
C1A N1A 1_555 1_555
C2A N1A 1_555 1_555
C3A C5A 1_555 1_555
C4A C6 1_555 1_555
C5A C2A 1_555 1_555
C6A C4 1_555 1_555
C7A N2A 1_555 1_555
C8A C4A 1_555 1_555
C9A C8A 1_555 1_555
H4A C9A 1_555 1_555
C10A C1A 1_555 1_555
H5A C10A 1_555 1_555
C11A C7A 1_555 1_555
H6A C11A 1_555 1_555
C12A H7A 1_555 1_555
C13A O2A 1_555 1_555
C14A C6A 1_555 1_555
H8A C14A 1_555 1_555
C15A C9A 1_555 1_555
H9A C15A 1_555 1_555
C16A C2A 1_555 1_555
H10A C16A 1_555 1_555
C17A C8A 1_555 1_555
H11A C17A 1_555 1_555
C18A C3A 1_555 1_555
H12A C18A 1_555 1_555
C19A O1A 1_555 1_555
C20A C3A 1_555 1_555
H13A C20A 1_555 1_555
C21A C19A 1_555 1_555
H14A C21A 1_555 1_555
C22A C13A 1_555 1_555
H15A C22A 1_555 1_555
O3A H17A 1_555 1_555
O4A H18A 1_555 1_555
N3A H19A 1_555 1_555
N4A C24A 1_555 1_555
C23A C24 1_555 1_555
C24A C23 1_555 1_555
C25A N3A 1_555 1_555
C26A C25A 1_555 1_555
H20A C26A 1_555 1_555
C27A N4A 1_555 1_555
C28A C29A 1_555 1_555
C29A C25A 1_555 1_555
C30A C28A 1_555 1_555
H21A C30A 1_555 1_555
C31A N3A 1_555 1_555
C32A C23A 1_555 1_555
C33A C24A 1_555 1_555
H22A C33A 1_555 1_555
C34A C27A 1_555 1_555
H23A C34A 1_555 1_555
C35A C26A 1_555 1_555
H24A C35A 1_555 1_555
C36A C32A 1_555 1_555
H25A C36A 1_555 1_555
C37A C28A 1_555 1_555
H26A C37A 1_555 1_555
C38A C32A 1_555 1_555
H27A C38A 1_555 1_555
C39A O3A 1_555 1_555
C40A C37A 1_555 1_555
H28A C40A 1_555 1_555
C41A C30A 1_555 1_555
H29A C41A 1_555 1_555
C42A C36A 1_555 1_555
H30A C42A 1_555 1_555
C43A O4A 1_555 1_555
C44A C38A 1_555 1_555
H31A C44A 1_555 1_555
C5 C7 1_555 1_555
C10 C16 1_555 1_555
C12 C18 1_555 1_555
C12 C19 1_555 1_555
C13 C15 1_555 1_555
C17 C22 1_555 1_555
C20 C21 1_555 1_555
C27 C29 1_555 1_555
C31 C35 1_555 1_555
C33 C34 1_555 1_555
C39 C40 1_555 1_555
C39 C41 1_555 1_555
C42 C43 1_555 1_555
C43 C44 1_555 1_555
C1A C4A 1_555 1_555
C5A C7A 1_555 1_555
C10A C16A 1_555 1_555
C11A C14A 1_555 1_555
C12A C18A 1_555 1_555
C12A C19A 1_555 1_555
C13A C15A 1_555 1_555
C17A C22A 1_555 1_555
C20A C21A 1_555 1_555
C23A C31A 1_555 1_555
C27A C29A 1_555 1_555
C31A C35A 1_555 1_555
C33A C34A 1_555 1_555
C39A C40A 1_555 1_555
C39A C41A 1_555 1_555
C42A C43A 1_555 1_555
C43A C44A 1_555 1_555

#END
