
#######################################################################
#
#                 Cambridge Crystallographic Data Centre
#                                CCDC 
#
#######################################################################
#
# If this CIF has been generated from an entry in the Cambridge 
# Structural Database, then it will include bibliographic, chemical, 
# crystal, experimental, refinement or atomic coordinate data resulting 
# from the CCDC's data processing and validation procedures.
#
#######################################################################

data_ELUGUP
_chemical_formula_moiety         'C44 H30 N4 O4,2(C16 H10),2(C5 H5 N1)'
_chemical_name_systematic        
'5,10,15,20-tetrakis(4-hydroxyphenyl)porphyrin bis(pyrene) pyridine solvate'
_symmetry_cell_setting           monoclinic
_symmetry_space_group_name_H-M   'P 21/c'
_symmetry_Int_Tables_number      14
_space_group_name_Hall           '-P 2ybc'
loop_
_symmetry_equiv_pos_site_id
_symmetry_equiv_pos_as_xyz
1 x,y,z
2 -x,1/2+y,1/2-z
3 -x,-y,-z
4 x,1/2-y,1/2+z
_cell_length_a                   13.5292(5)
_cell_length_b                   20.5192(6)
_cell_length_c                   11.5369(4)
_cell_angle_alpha                90
_cell_angle_beta                 107.6570(10)
_cell_angle_gamma                90
_cell_volume                     3051.86
_exptl_crystal_colour            red
_exptl_crystal_description       plate
_cell_formula_units_Z            2
loop_
_atom_site_label
_atom_site_type_symbol
_atom_site_fract_x
_atom_site_fract_y
_atom_site_fract_z
O1 O 0.93245(9) 0.81128(6) 0.94843(12)
H1 H 0.9008 0.8450 0.9614
O2 O 0.86456(10) 0.19614(6) 1.03755(11)
H2 H 0.9255 0.1943 1.0337
N1 N 0.51318(10) 0.59753(6) 0.48721(12)
N2 N 0.62334(11) 0.50036(6) 0.66244(12)
H3 H 0.5723 0.4997 0.5930
C1 C 0.45523(13) 0.63756(8) 0.39696(15)
C2 C 0.66143(13) 0.44614(8) 0.73068(15)
C3 C 0.67707(13) 0.55480(8) 0.71582(15)
C4 C 0.80855(13) 0.23945(8) 0.95339(15)
C5 C 0.66050(13) 0.61881(8) 0.67202(15)
C6 C 0.62744(12) 0.38168(8) 0.70393(15)
C7 C 0.58343(13) 0.63774(8) 0.56520(15)
C8 C 0.56968(13) 0.70463(8) 0.52212(16)
H4 H 0.6093 0.7413 0.5598
C9 C 0.73154(13) 0.67014(8) 0.74504(15)
C10 C 0.78939(13) 0.31639(8) 0.79122(15)
H5 H 0.8180 0.3383 0.7363
C11 C 0.74191(13) 0.46787(8) 0.83487(15)
H6 H 0.7819 0.4412 0.8994
C12 C 0.68825(13) 0.33063(8) 0.78946(15)
C13 C 0.75138(13) 0.53365(8) 0.82570(15)
H7 H 0.7992 0.5607 0.8827
C14 C 0.84930(13) 0.27090(8) 0.87149(15)
H8 H 0.9177 0.2614 0.8704
C15 C 0.86495(13) 0.76604(8) 0.88171(16)
C16 C 0.49010(13) 0.70455(8) 0.41888(16)
H9 H 0.4620 0.7412 0.3697
C17 C 0.70706(14) 0.25186(8) 0.95082(16)
H10 H 0.6782 0.2294 1.0049
C18 C 0.76124(14) 0.76486(8) 0.87649(16)
H11 H 0.7352 0.7965 0.9199
C19 C 0.69553(14) 0.71781(8) 0.80825(16)
H12 H 0.6244 0.7180 0.8045
C20 C 0.64779(13) 0.29686(8) 0.86987(16)
H13 H 0.5784 0.3049 0.8690
C21 C 0.83586(13) 0.67174(8) 0.75143(16)
H14 H 0.8623 0.6398 0.7090
C22 C 0.90213(14) 0.71915(8) 0.81867(17)
H15 H 0.9730 0.7195 0.8215
O1B O 0.06755(9) 0.18872(6) 0.05157(12)
H1B H 0.0992 0.1550 0.0386
O2B O 0.13544(10) 0.80386(6) -0.03755(11)
H2B H 0.0745 0.8057 -0.0337
N1B N 0.48682(10) 0.40247(6) 0.51279(12)
N2B N 0.37666(11) 0.49964(6) 0.33756(12)
H3B H 0.4277 0.5003 0.4070
C1B C 0.54477(13) 0.36244(8) 0.60304(15)
C2B C 0.33857(13) 0.55386(8) 0.26932(15)
C3B C 0.32293(13) 0.44520(8) 0.28418(15)
C4B C 0.19145(13) 0.76055(8) 0.04661(15)
C5B C 0.33950(13) 0.38119(8) 0.32798(15)
C6B C 0.37256(12) 0.61832(8) 0.29607(15)
C7B C 0.41657(13) 0.36226(8) 0.43480(15)
C8B C 0.43032(13) 0.29537(8) 0.47788(16)
H4B H 0.3907 0.2587 0.4402
C9B C 0.26846(13) 0.32986(8) 0.25496(15)
C10B C 0.21061(13) 0.68361(8) 0.20878(15)
H5B H 0.1820 0.6617 0.2637
C11B C 0.25809(13) 0.53213(8) 0.16513(15)
H6B H 0.2181 0.5588 0.1006
C12B C 0.31175(13) 0.66937(8) 0.21054(15)
C13B C 0.24862(13) 0.46635(8) 0.17430(15)
H7B H 0.2008 0.4393 0.1173
C14B C 0.15070(13) 0.72910(8) 0.12851(15)
H8B H 0.0823 0.7386 0.1296
C15B C 0.13505(13) 0.23396(8) 0.11829(16)
C16B C 0.50990(13) 0.29545(8) 0.58112(16)
H9B H 0.5380 0.2588 0.6303
C17B C 0.29294(14) 0.74814(8) 0.04918(16)
H10B H 0.3218 0.7706 -0.0049
C18B C 0.23876(14) 0.23514(8) 0.12351(16)
H11B H 0.2648 0.2035 0.0801
C19B C 0.30447(14) 0.28219(8) 0.19175(16)
H12B H 0.3756 0.2820 0.1955
C20B C 0.35221(13) 0.70314(8) 0.13013(16)
H13B H 0.4216 0.6951 0.1310
C21B C 0.16414(13) 0.32826(8) 0.24857(16)
H14B H 0.1377 0.3602 0.2910
C22B C 0.09787(14) 0.28085(8) 0.18133(17)
H15B H 0.0270 0.2805 0.1785
N3 N 0.84920(12) 0.92200(7) 0.99019(14)
C23 C 0.71778(16) 1.00393(9) 0.94402(18)
H16 H 0.6479 1.0156 0.9034
C24 C 0.75234(16) 0.94181(9) 0.93457(18)
H17 H 0.7048 0.9113 0.8859
C25 C 0.91425(16) 0.96599(9) 1.05913(17)
H18 H 0.9832 0.9528 1.1009
C26 C 0.88576(19) 1.02964(10) 1.07230(19)
H19 H 0.9343 1.0595 1.1214
C27 C 0.78556(18) 1.04890(10) 1.01291(19)
H20 H 0.7639 1.0924 1.0196
C28 C 0.71067(14) 1.02396(9) 0.64862(15)
C29 C 0.78659(15) 0.97885(9) 0.63526(16)
C30 C 0.73640(15) 1.09127(9) 0.66612(16)
C31 C 0.83653(15) 1.11197(10) 0.66381(17)
H21 H 0.8539 1.1569 0.6739
C32 C 0.61020(16) 1.00296(10) 0.64625(18)
C33 C 0.88521(15) 1.00133(10) 0.63470(17)
C34 C 0.90648(15) 1.06975(11) 0.64777(18)
H22 H 0.9718 1.0855 0.6450
C35 C 0.66366(17) 1.13466(10) 0.68580(18)
H23 H 0.6812 1.1794 0.7005
C36 C 0.7609(2) 0.91128(10) 0.62186(18)
C37 C 0.56725(18) 1.11343(11) 0.6842(2)
H24 H 0.5190 1.1437 0.6980
C38 C 0.6567(2) 0.89228(11) 0.6203(2)
H25 H 0.6382 0.8475 0.6117
C39 C 0.53912(17) 1.04953(12) 0.6630(2)
H26 H 0.4710 1.0363 0.6595
C40 C 0.5868(2) 0.93544(12) 0.6305(2)
H27 H 0.5193 0.9208 0.6272
C41 C 0.95730(19) 0.95509(14) 0.6200(2)
H28 H 1.0239 0.9688 0.6182
C42 C 0.8350(3) 0.86807(12) 0.6090(2)
H29 H 0.8192 0.8229 0.6006
C43 C 0.9308(3) 0.88899(15) 0.6080(2)
H30 H 0.9802 0.8581 0.5990
loop_
_geom_bond_atom_site_label_1
_geom_bond_atom_site_label_2
_geom_bond_site_symmetry_1
_geom_bond_site_symmetry_2
O1 H1 1_555 1_555
O2 H2 1_555 1_555
N1 C1 1_555 1_555
N2 H3 1_555 1_555
C1 C16 1_555 1_555
C2 N2 1_555 1_555
C3 N2 1_555 1_555
C4 O2 1_555 1_555
C5 C3 1_555 1_555
C6 C2 1_555 1_555
C7 N1 1_555 1_555
C8 C7 1_555 1_555
H4 C8 1_555 1_555
C9 C5 1_555 1_555
C10 H5 1_555 1_555
C11 C2 1_555 1_555
H6 C11 1_555 1_555
C12 C6 1_555 1_555
C13 C3 1_555 1_555
H7 C13 1_555 1_555
C14 C4 1_555 1_555
H8 C14 1_555 1_555
C15 O1 1_555 1_555
C16 C8 1_555 1_555
H9 C16 1_555 1_555
C17 C4 1_555 1_555
H10 C17 1_555 1_555
C18 C15 1_555 1_555
H11 C18 1_555 1_555
C19 C9 1_555 1_555
H12 C19 1_555 1_555
C20 C12 1_555 1_555
H13 C20 1_555 1_555
C21 C9 1_555 1_555
H14 C21 1_555 1_555
C22 C15 1_555 1_555
H15 C22 1_555 1_555
N3 C24 1_555 1_555
C23 H16 1_555 1_555
C24 C23 1_555 1_555
H17 C24 1_555 1_555
C25 N3 1_555 1_555
H18 C25 1_555 1_555
C26 C25 1_555 1_555
H19 C26 1_555 1_555
C27 C23 1_555 1_555
H20 C27 1_555 1_555
C28 C29 1_555 1_555
C29 C33 1_555 1_555
C30 C28 1_555 1_555
C31 C30 1_555 1_555
H21 C31 1_555 1_555
C32 C28 1_555 1_555
C33 C34 1_555 1_555
C34 C31 1_555 1_555
H22 C34 1_555 1_555
C35 C30 1_555 1_555
H23 C35 1_555 1_555
C36 C29 1_555 1_555
C37 C35 1_555 1_555
H24 C37 1_555 1_555
C38 C36 1_555 1_555
H25 C38 1_555 1_555
C39 C32 1_555 1_555
H26 C39 1_555 1_555
C40 C32 1_555 1_555
H27 C40 1_555 1_555
C41 C33 1_555 1_555
H28 C41 1_555 1_555
C42 C36 1_555 1_555
H29 C42 1_555 1_555
C43 C41 1_555 1_555
H30 C43 1_555 1_555
O1B H1B 1_555 1_555
O2B H2B 1_555 1_555
N1B C1B 1_555 1_555
N2B H3B 1_555 1_555
C1B C6 1_555 1_555
C2B N2B 1_555 1_555
C3B N2B 1_555 1_555
C4B O2B 1_555 1_555
C5B C3B 1_555 1_555
C6B C1 1_555 1_555
C7B N1B 1_555 1_555
C8B C7B 1_555 1_555
H4B C8B 1_555 1_555
C9B C5B 1_555 1_555
C10B H5B 1_555 1_555
C11B C2B 1_555 1_555
H6B C11B 1_555 1_555
C12B C6B 1_555 1_555
C13B C3B 1_555 1_555
H7B C13B 1_555 1_555
C14B C4B 1_555 1_555
H8B C14B 1_555 1_555
C15B O1B 1_555 1_555
C16B C1B 1_555 1_555
H9B C16B 1_555 1_555
C17B C4B 1_555 1_555
H10B C17B 1_555 1_555
C18B C15B 1_555 1_555
H11B C18B 1_555 1_555
C19B C9B 1_555 1_555
H12B C19B 1_555 1_555
C20B C12B 1_555 1_555
H13B C20B 1_555 1_555
C21B C9B 1_555 1_555
H14B C21B 1_555 1_555
C22B C15B 1_555 1_555
H15B C22B 1_555 1_555
C5 C7 1_555 1_555
C10 C12 1_555 1_555
C10 C14 1_555 1_555
C11 C13 1_555 1_555
C17 C20 1_555 1_555
C18 C19 1_555 1_555
C21 C22 1_555 1_555
C26 C27 1_555 1_555
C37 C39 1_555 1_555
C38 C40 1_555 1_555
C42 C43 1_555 1_555
C2B C6B 1_555 1_555
C5B C7B 1_555 1_555
C8B C16B 1_555 1_555
C10B C12B 1_555 1_555
C10B C14B 1_555 1_555
C11B C13B 1_555 1_555
C17B C20B 1_555 1_555
C18B C19B 1_555 1_555
C21B C22B 1_555 1_555

#END
