
#######################################################################
#
#                 Cambridge Crystallographic Data Centre
#                                CCDC 
#
#######################################################################
#
# If this CIF has been generated from an entry in the Cambridge 
# Structural Database, then it will include bibliographic, chemical, 
# crystal, experimental, refinement or atomic coordinate data resulting 
# from the CCDC's data processing and validation procedures.
#
#######################################################################

data_ELUGOJ
_chemical_formula_moiety         'C44 H30 N4 O4,3(C16 H10)'
_chemical_name_systematic        
'5,10,15,20-tetrakis(4-hydroxyphenyl)porphyrin tris(pyrene)'
_symmetry_cell_setting           triclinic
_symmetry_space_group_name_H-M   'P -1'
_symmetry_Int_Tables_number      2
_space_group_name_Hall           '-P 1'
loop_
_symmetry_equiv_pos_site_id
_symmetry_equiv_pos_as_xyz
1 x,y,z
2 -x,-y,-z
_cell_length_a                   13.8522(15)
_cell_length_b                   15.6089(16)
_cell_length_c                   15.8464(15)
_cell_angle_alpha                65.532(3)
_cell_angle_beta                 83.496(3)
_cell_angle_gamma                89.872(3)
_cell_volume                     3094.71
_exptl_crystal_colour            red
_exptl_crystal_description       plate
_cell_formula_units_Z            2
loop_
_atom_site_label
_atom_site_type_symbol
_atom_site_fract_x
_atom_site_fract_y
_atom_site_fract_z
O1 O 0.02173(13) 0.04423(13) 1.04491(13)
H1 H 0.0334 0.0117 1.0996
O2 O 0.93961(13) 0.06449(13) 0.77380(13)
H2 H 0.9366 0.0561 0.7245
O3 O 0.98564(13) 0.95905(13) 0.39366(14)
H3 H 0.9656 0.9866 0.3410
O4 O 0.09155(15) 0.93460(14) 0.80885(15)
H4 H 0.0705 0.9258 0.8645
N1 N 0.51903(15) 0.65281(15) 0.70683(15)
H5 H 0.5142 0.5924 0.7194
N2 N 0.49241(15) 0.36210(15) 0.78190(15)
H6 H 0.4953 0.4235 0.7644
N3 N 0.36878(16) 0.49680(15) 0.81613(16)
N4 N 0.64177(16) 0.51568(15) 0.67552(16)
C1 C 0.31820(19) 0.57407(18) 0.81389(18)
C2 C 0.44926(19) 0.70168(18) 0.73431(18)
C3 C 0.70407(19) 0.59360(19) 0.63415(18)
C4 C 0.41167(19) 0.30284(18) 0.82713(18)
C5 C 0.76109(18) 0.76165(18) 0.55962(19)
C6 C 0.24258(18) 0.25449(18) 0.90472(19)
C7 C 0.35559(19) 0.66732(18) 0.78128(18)
C8 C 0.30267(19) 0.42094(18) 0.84785(18)
C9 C 0.68353(19) 0.68730(18) 0.61853(18)
C10 C 0.69656(19) 0.43853(19) 0.68746(18)
C11 C 0.56750(19) 0.31007(18) 0.76852(18)
C12 C 0.28640(19) 0.73722(18) 0.79102(19)
C13 C 0.20773(19) 0.45203(19) 0.86513(19)
H7 H 0.1488 0.4142 0.8869
C14 C 0.73648(19) 0.27071(18) 0.73999(19)
C15 C 0.57706(19) 0.80371(18) 0.65412(19)
H8 H 0.6184 0.8591 0.6242
C16 C 0.59758(18) 0.71273(18) 0.65661(18)
C17 C 0.32227(19) 0.32925(18) 0.85714(18)
C18 C 0.09379(18) 0.11190(18) 0.99788(19)
C19 C 0.4876(2) 0.79615(19) 0.70242(19)
H9 H 0.4559 0.8454 0.7131
C20 C 0.20688(19) 0.20140(19) 0.86136(19)
H10 H 0.2334 0.2136 0.7993
C21 C 0.78006(19) 0.25559(19) 0.66412(19)
H11 H 0.7632 0.2927 0.6035
C22 C 0.13403(19) 0.13167(19) 0.90648(19)
H12 H 0.1111 0.0969 0.8751
C23 C 0.1284(2) 0.16483(19) 1.04181(19)
H13 H 0.1019 0.1527 1.1039
C24 C 0.9112(2) 0.89442(19) 0.4456(2)
C25 C 0.87234(19) 0.13207(19) 0.7645(2)
C26 C 0.43708(19) 0.20969(19) 0.83983(19)
H14 H 0.3952 0.1545 0.8680
C27 C 0.8476(2) 0.18731(19) 0.67556(19)
H15 H 0.8770 0.1781 0.6230
C28 C 0.21766(19) 0.54525(19) 0.84455(18)
H16 H 0.1668 0.5845 0.8496
C29 C 0.66356(19) 0.34422(19) 0.72942(18)
C30 C 0.79028(19) 0.77463(19) 0.46790(19)
H17 H 0.7590 0.7374 0.4433
C31 C 0.8095(2) 0.8176(2) 0.5933(2)
H18 H 0.7914 0.8109 0.6554
C32 C 0.1823(2) 0.79704(19) 0.8861(2)
H19 H 0.1571 0.7928 0.9461
C33 C 0.5323(2) 0.21438(19) 0.80425(19)
H20 H 0.5686 0.1630 0.8034
C34 C 0.15476(19) 0.8674(2) 0.8068(2)
C35 C 0.80137(19) 0.56496(19) 0.61887(19)
H21 H 0.8581 0.6053 0.5904
C36 C 0.8843(2) 0.8831(2) 0.5365(2)
H22 H 0.9167 0.9200 0.5606
C37 C 0.79640(19) 0.47012(19) 0.65265(18)
H23 H 0.8494 0.4312 0.6533
C38 C 0.20115(19) 0.23509(19) 0.99547(19)
H24 H 0.2232 0.2708 1.0263
C39 C 0.8298(2) 0.14582(19) 0.8409(2)
H25 H 0.8466 0.1084 0.9015
C40 C 0.1911(2) 0.8735(2) 0.7192(2)
H26 H 0.1714 0.9216 0.6646
C41 C 0.2568(2) 0.80851(19) 0.7120(2)
H27 H 0.2818 0.8129 0.6520
C42 C 0.8640(2) 0.84062(19) 0.4111(2)
H28 H 0.8817 0.8485 0.3485
C43 C 0.2475(2) 0.73225(19) 0.8777(2)
H29 H 0.2659 0.6834 0.9327
C44 C 0.7624(2) 0.21477(19) 0.8285(2)
H30 H 0.7334 0.2241 0.8811
C45 C 0.5666(2) 1.01235(18) 0.7036(2)
C46 C 0.4926(2) 0.99412(18) 0.7794(2)
C47 C 0.3947(2) 1.01380(19) 0.7634(2)
C48 C 0.5423(2) 1.04898(19) 0.6105(2)
C49 C 0.6647(2) 0.9937(2) 0.7194(2)
C50 C 0.5165(2) 0.9563(2) 0.8728(2)
C51 C 0.3725(2) 1.0509(2) 0.6687(2)
H31 H 0.3072 1.0643 0.6568
C52 C 0.4413(2) 1.0668(2) 0.5972(2)
H32 H 0.4235 1.0906 0.5357
C53 C 0.7358(2) 1.0124(2) 0.6431(2)
H33 H 0.8019 1.0007 0.6530
C54 C 0.4429(3) 0.9395(2) 0.9456(2)
H34 H 0.4581 0.9132 1.0081
C55 C 0.6867(2) 0.9562(2) 0.8140(2)
H35 H 0.7522 0.9437 0.8259
C56 C 0.6171(2) 0.9384(2) 0.8865(2)
H36 H 0.6346 0.9133 0.9481
C57 C 0.7106(2) 1.0476(2) 0.5533(2)
H37 H 0.7596 1.0597 0.5022
C58 C 0.3483(3) 0.9601(2) 0.9294(2)
H38 H 0.2995 0.9490 0.9804
C59 C 0.6154(2) 1.0655(2) 0.5371(2)
H39 H 0.5996 1.0894 0.4749
C60 C 0.3240(2) 0.9967(2) 0.8395(2)
H40 H 0.2583 1.0104 0.8292
C61 C 1.01672(19) 0.4903(2) 0.72095(19)
C62 C 1.0025(2) 0.3904(2) 0.7706(2)
C63 C 1.0541(2) 0.5296(2) 0.6253(2)
C64 C 0.99452(19) 0.5504(2) 0.7668(2)
C65 C 1.0103(2) 0.6486(2) 0.7178(2)
C66 C 0.9572(2) 0.5095(2) 0.8639(2)
C67 C 1.0258(2) 0.3340(2) 0.7227(2)
H41 H 1.0170 0.2674 0.7551
C68 C 1.0674(2) 0.6304(2) 0.5767(2)
H42 H 1.0912 0.6576 0.5121
C69 C 1.0471(2) 0.6869(2) 0.6203(2)
H43 H 1.0572 0.7532 0.5862
C70 C 0.9419(2) 0.4093(2) 0.9108(2)
H44 H 0.9154 0.3819 0.9747
C71 C 0.9639(2) 0.3528(2) 0.8676(2)
H45 H 0.9537 0.2865 0.9017
C72 C 1.0614(2) 0.3737(3) 0.6289(2)
H46 H 1.0760 0.3342 0.5974
C73 C 0.9394(2) 0.5692(3) 0.9086(2)
H47 H 0.9148 0.5434 0.9731
C74 C 0.9913(2) 0.7058(2) 0.7667(3)
H48 H 1.0020 0.7723 0.7349
C75 C 1.0758(2) 0.4698(3) 0.5807(2)
H49 H 1.1009 0.4959 0.5163
C76 C 0.9572(2) 0.6652(3) 0.8606(3)
H50 H 0.9456 0.7043 0.8930
C77 C 0.6206(2) 0.5086(2) 0.4279(2)
C78 C 0.5095(2) 0.3717(2) 0.5250(2)
C79 C 0.5326(2) 0.4700(2) 0.4883(2)
C80 C 0.3587(2) 0.3916(2) 0.6071(2)
H51 H 0.2998 0.3647 0.6466
C81 C 0.4203(3) 0.3357(2) 0.5855(2)
H52 H 0.4044 0.2700 0.6111
C82 C 0.5749(3) 0.3153(2) 0.5001(3)
H53 H 0.5608 0.2493 0.5245
C83 C 0.6826(3) 0.4494(3) 0.4046(2)
H54 H 0.7411 0.4747 0.3638
C84 C 0.6592(3) 0.3534(3) 0.4408(3)
H55 H 0.7019 0.3135 0.4245
C77A C 0.3794(2) 0.4914(2) 0.5721(2)
C78A C 0.4905(2) 0.6283(2) 0.4750(2)
C79A C 0.4674(2) 0.5300(2) 0.5117(2)
C80A C 0.6413(2) 0.6084(2) 0.3929(2)
H51A H 0.7002 0.6353 0.3534
C81A C 0.5797(3) 0.6643(2) 0.4145(2)
H52A H 0.5956 0.7300 0.3889
C82A C 0.4251(3) 0.6847(2) 0.4999(3)
H53A H 0.4392 0.7507 0.4755
C83A C 0.3174(3) 0.5506(3) 0.5954(2)
H54A H 0.2589 0.5253 0.6362
C84A C 0.3408(3) 0.6466(3) 0.5592(3)
H55A H 0.2981 0.6865 0.5755
C85 C 0.5431(2) 0.5198(3) 0.9693(2)
C86 C 0.4357(4) 0.6426(3) 1.0237(3)
H56 H 0.4006 0.6862 1.0413
C87 C 0.6020(3) 0.4569(4) 0.9390(3)
C88 C 0.6636(3) 0.6473(4) 0.8737(3)
H57 H 0.6861 0.7114 0.8493
C89 C 0.5755(4) 0.6137(3) 0.9362(3)
C90 C 0.5200(4) 0.6716(4) 0.9649(3)
H58 H 0.5416 0.7358 0.9423
C91 C 0.6847(4) 0.4863(5) 0.8833(3)
H59 H 0.7230 0.4445 0.8657
C92 C 0.7143(4) 0.5827(5) 0.8506(3)
H60 H 0.7735 0.6042 0.8099
C85A C 0.4569(2) 0.4802(3) 1.0307(2)
C86A C 0.5643(4) 0.3574(3) 0.9763(3)
H56A H 0.5994 0.3138 0.9587
C87A C 0.3980(3) 0.5431(4) 1.0610(3)
C88A C 0.3364(3) 0.3527(4) 1.1263(3)
H57A H 0.3139 0.2886 1.1507
C89A C 0.4245(4) 0.3863(3) 1.0638(3)
C90A C 0.4800(4) 0.3284(4) 1.0351(3)
H58A H 0.4584 0.2642 1.0577
C91A C 0.3153(4) 0.5137(5) 1.1167(3)
H59A H 0.2770 0.5555 1.1343
C92A C 0.2857(4) 0.4173(5) 1.1494(3)
H60A H 0.2265 0.3958 1.1901
loop_
_geom_bond_atom_site_label_1
_geom_bond_atom_site_label_2
_geom_bond_site_symmetry_1
_geom_bond_site_symmetry_2
O1 H1 1_555 1_555
O2 H2 1_555 1_555
O3 H3 1_555 1_555
O4 H4 1_555 1_555
N1 H5 1_555 1_555
N2 H6 1_555 1_555
N3 C1 1_555 1_555
N4 C3 1_555 1_555
C1 C7 1_555 1_555
C2 N1 1_555 1_555
C3 C9 1_555 1_555
C4 N2 1_555 1_555
C5 C9 1_555 1_555
C6 C17 1_555 1_555
C7 C2 1_555 1_555
C8 N3 1_555 1_555
C9 C16 1_555 1_555
C10 N4 1_555 1_555
C11 N2 1_555 1_555
C12 C7 1_555 1_555
C13 C8 1_555 1_555
H7 C13 1_555 1_555
C14 C21 1_555 1_555
C15 H8 1_555 1_555
C16 N1 1_555 1_555
C17 C4 1_555 1_555
C18 O1 1_555 1_555
C19 C2 1_555 1_555
H9 C19 1_555 1_555
C20 C6 1_555 1_555
H10 C20 1_555 1_555
C21 H11 1_555 1_555
C22 C18 1_555 1_555
H12 C22 1_555 1_555
C23 C18 1_555 1_555
H13 C23 1_555 1_555
C24 O3 1_555 1_555
C25 O2 1_555 1_555
C26 C4 1_555 1_555
H14 C26 1_555 1_555
C27 C21 1_555 1_555
H15 C27 1_555 1_555
C28 C1 1_555 1_555
H16 C28 1_555 1_555
C29 C10 1_555 1_555
C30 C5 1_555 1_555
H17 C30 1_555 1_555
C31 C5 1_555 1_555
H18 C31 1_555 1_555
C32 H19 1_555 1_555
C33 C11 1_555 1_555
H20 C33 1_555 1_555
C34 O4 1_555 1_555
C35 C3 1_555 1_555
H21 C35 1_555 1_555
C36 C24 1_555 1_555
H22 C36 1_555 1_555
C37 C10 1_555 1_555
H23 C37 1_555 1_555
C38 C6 1_555 1_555
H24 C38 1_555 1_555
C39 C25 1_555 1_555
H25 C39 1_555 1_555
C40 C34 1_555 1_555
H26 C40 1_555 1_555
C41 C12 1_555 1_555
H27 C41 1_555 1_555
C42 C24 1_555 1_555
H28 C42 1_555 1_555
C43 C12 1_555 1_555
H29 C43 1_555 1_555
C44 C14 1_555 1_555
H30 C44 1_555 1_555
C45 C46 1_555 1_555
C46 C47 1_555 1_555
C47 C51 1_555 1_555
C48 C45 1_555 1_555
C49 C45 1_555 1_555
C50 C46 1_555 1_555
C51 H31 1_555 1_555
C52 C48 1_555 1_555
H32 C52 1_555 1_555
C53 C49 1_555 1_555
H33 C53 1_555 1_555
C54 C50 1_555 1_555
H34 C54 1_555 1_555
C55 C49 1_555 1_555
H35 C55 1_555 1_555
C56 C50 1_555 1_555
H36 C56 1_555 1_555
C57 C53 1_555 1_555
H37 C57 1_555 1_555
C58 C54 1_555 1_555
H38 C58 1_555 1_555
C59 C48 1_555 1_555
H39 C59 1_555 1_555
C60 C47 1_555 1_555
H40 C60 1_555 1_555
C61 C62 1_555 1_555
C62 C67 1_555 1_555
C63 C61 1_555 1_555
C64 C61 1_555 1_555
C65 C64 1_555 1_555
C66 C64 1_555 1_555
C67 H41 1_555 1_555
C68 C63 1_555 1_555
H42 C68 1_555 1_555
C69 C65 1_555 1_555
H43 C69 1_555 1_555
C70 C66 1_555 1_555
H44 C70 1_555 1_555
C71 C62 1_555 1_555
H45 C71 1_555 1_555
C72 C67 1_555 1_555
H46 C72 1_555 1_555
C73 C66 1_555 1_555
H47 C73 1_555 1_555
C74 C65 1_555 1_555
H48 C74 1_555 1_555
C75 C63 1_555 1_555
H49 C75 1_555 1_555
C76 C73 1_555 1_555
H50 C76 1_555 1_555
C77 C79 1_555 1_555
C78 C79 1_555 1_555
C79 C79A 1_555 1_555
C80 H51 1_555 1_555
C81 C78 1_555 1_555
H52 C81 1_555 1_555
C82 C78 1_555 1_555
H53 C82 1_555 1_555
C83 C77 1_555 1_555
H54 C83 1_555 1_555
C84 C82 1_555 1_555
H55 C84 1_555 1_555
C85 C87 1_555 1_555
C86 H56 1_555 1_555
C87 C91 1_555 1_555
C88 H57 1_555 1_555
C89 C85 1_555 1_555
C90 C86 1_555 1_555
H58 C90 1_555 1_555
C91 H59 1_555 1_555
C92 C88 1_555 1_555
H60 C92 1_555 1_555
C77A C80 1_555 1_555
C78A C79A 1_555 1_555
C79A C77A 1_555 1_555
C80A C77 1_555 1_555
H51A C80A 1_555 1_555
C81A C78A 1_555 1_555
H52A C81A 1_555 1_555
C82A C78A 1_555 1_555
H53A C82A 1_555 1_555
C83A C77A 1_555 1_555
H54A C83A 1_555 1_555
C84A C82A 1_555 1_555
H55A C84A 1_555 1_555
C85A C85 1_555 1_555
C86A C87 1_555 1_555
H56A C86A 1_555 1_555
C87A C86 1_555 1_555
C88A H57A 1_555 1_555
C89A C85A 1_555 1_555
C90A C86A 1_555 1_555
H58A C90A 1_555 1_555
C91A C87A 1_555 1_555
H59A C91A 1_555 1_555
C92A C88A 1_555 1_555
H60A C92A 1_555 1_555
C8 C17 1_555 1_555
C11 C29 1_555 1_555
C13 C28 1_555 1_555
C14 C29 1_555 1_555
C15 C16 1_555 1_555
C15 C19 1_555 1_555
C20 C22 1_555 1_555
C23 C38 1_555 1_555
C25 C27 1_555 1_555
C26 C33 1_555 1_555
C30 C42 1_555 1_555
C31 C36 1_555 1_555
C32 C34 1_555 1_555
C32 C43 1_555 1_555
C35 C37 1_555 1_555
C39 C44 1_555 1_555
C40 C41 1_555 1_555
C51 C52 1_555 1_555
C55 C56 1_555 1_555
C57 C59 1_555 1_555
C58 C60 1_555 1_555
C68 C69 1_555 1_555
C70 C71 1_555 1_555
C72 C75 1_555 1_555
C74 C76 1_555 1_555
C80 C81 1_555 1_555
C83 C84 1_555 1_555
C88 C89 1_555 1_555
C89 C90 1_555 1_555
C91 C92 1_555 1_555
C80A C81A 1_555 1_555
C83A C84A 1_555 1_555
C85A C87A 1_555 1_555
C88A C89A 1_555 1_555
C89A C90A 1_555 1_555
C91A C92A 1_555 1_555

#END
