
#######################################################################
#
#                 Cambridge Crystallographic Data Centre
#                                CCDC 
#
#######################################################################
#
# If this CIF has been generated from an entry in the Cambridge 
# Structural Database, then it will include bibliographic, chemical, 
# crystal, experimental, refinement or atomic coordinate data resulting 
# from the CCDC's data processing and validation procedures.
#
#######################################################################

data_ELUHIE
_chemical_formula_moiety         'C17 H16 F3 N1 O4 S1'
_chemical_name_systematic        
'8-(piperidin-1-ylcarbonyl)-1-naphthyl trifluoromethanesulfonate'
_symmetry_cell_setting           triclinic
_symmetry_space_group_name_H-M   'P -1'
_symmetry_Int_Tables_number      2
_space_group_name_Hall           '-P 1'
loop_
_symmetry_equiv_pos_site_id
_symmetry_equiv_pos_as_xyz
1 x,y,z
2 -x,-y,-z
_cell_length_a                   9.3925(8)
_cell_length_b                   9.5682(9)
_cell_length_c                   10.9216(10)
_cell_angle_alpha                73.528(8)
_cell_angle_beta                 66.260(9)
_cell_angle_gamma                85.458(7)
_cell_volume                     860.905
_exptl_crystal_description       block
_cell_formula_units_Z            2
loop_
_atom_site_label
_atom_site_type_symbol
_atom_site_fract_x
_atom_site_fract_y
_atom_site_fract_z
S1 S 0.66160(8) 0.33433(7) 0.69478(6)
O1 O 1.00062(18) 0.32942(18) 0.81839(16)
O2 O 0.82045(18) 0.41674(17) 0.64663(16)
F1 F 0.6620(2) 0.4554(2) 0.44661(19)
N1 N 0.7585(2) 0.26690(19) 0.98741(18)
F2 F 0.5351(3) 0.2550(2) 0.5544(2)
O3 O 0.6778(3) 0.1882(2) 0.7609(2)
C1 C 0.8368(2) 0.5237(2) 0.8691(2)
F3 F 0.7825(3) 0.2597(3) 0.4639(2)
O4 O 0.5352(2) 0.4165(2) 0.7546(2)
C2 C 0.8322(2) 0.6167(2) 0.7424(2)
C3 C 0.8333(3) 0.7710(2) 0.7227(2)
C4 C 0.8705(3) 0.3643(2) 0.8882(2)
C5 C 0.8282(2) 0.5704(2) 0.6314(2)
C6 C 0.8295(3) 0.8261(3) 0.8304(3)
H1 H 0.8279 0.9263 0.8183
C7 C 0.6029(3) 0.3011(3) 1.0758(2)
H2 H 0.5249 0.2543 1.0618
H3 H 0.5904 0.4056 1.0507
C8 C 0.6624(4) 0.3270(3) 0.5282(3)
C9 C 0.8341(3) 0.5848(3) 0.9697(2)
H4 H 0.8364 0.5241 1.0521
C10 C 0.8411(3) 0.6637(3) 0.5067(2)
H5 H 0.8452 0.6278 0.4347
C11 C 0.7673(3) 0.0514(3) 1.1702(3)
H6 H 0.8475 0.0942 1.1847
H7 H 0.7783 -0.0534 1.1917
C12 C 0.5805(3) 0.2478(3) 1.2270(2)
H8 H 0.4755 0.2661 1.2855
H9 H 0.6524 0.3013 1.2424
C13 C 0.8280(3) 0.7357(3) 0.9518(3)
H10 H 0.8230 0.7738 1.0229
C14 C 0.6083(3) 0.0858(3) 1.2669(3)
H11 H 0.6011 0.0556 1.3618
H12 H 0.5284 0.0316 1.2623
C15 C 0.7883(3) 0.1108(3) 1.0196(3)
H13 H 0.8937 0.0954 0.9594
H14 H 0.7173 0.0586 1.0021
C16 C 0.8401(3) 0.8664(3) 0.5947(3)
H15 H 0.8391 0.9666 0.5830
C17 C 0.8480(3) 0.8145(3) 0.4887(3)
H16 H 0.8581 0.8792 0.4038
loop_
_geom_bond_atom_site_label_1
_geom_bond_atom_site_label_2
_geom_bond_site_symmetry_1
_geom_bond_site_symmetry_2
S1 O2 1_555 1_555
O1 C4 1_555 1_555
O2 C5 1_555 1_555
F1 C8 1_555 1_555
N1 C4 1_555 1_555
F2 C8 1_555 1_555
O3 S1 1_555 1_555
C1 C2 1_555 1_555
F3 C8 1_555 1_555
O4 S1 1_555 1_555
C2 C3 1_555 1_555
C3 C6 1_555 1_555
C4 C1 1_555 1_555
C5 C2 1_555 1_555
C6 H1 1_555 1_555
C7 N1 1_555 1_555
H2 C7 1_555 1_555
H3 C7 1_555 1_555
C8 S1 1_555 1_555
C9 C1 1_555 1_555
H4 C9 1_555 1_555
C10 C5 1_555 1_555
H5 C10 1_555 1_555
C11 H6 1_555 1_555
H7 C11 1_555 1_555
C12 C7 1_555 1_555
H8 C12 1_555 1_555
H9 C12 1_555 1_555
C13 C6 1_555 1_555
H10 C13 1_555 1_555
C14 C11 1_555 1_555
H11 C14 1_555 1_555
H12 C14 1_555 1_555
C15 N1 1_555 1_555
H13 C15 1_555 1_555
H14 C15 1_555 1_555
C16 C3 1_555 1_555
H15 C16 1_555 1_555
C17 C10 1_555 1_555
H16 C17 1_555 1_555
C9 C13 1_555 1_555
C11 C15 1_555 1_555
C12 C14 1_555 1_555
C16 C17 1_555 1_555

#END
