
#######################################################################
#
#                 Cambridge Crystallographic Data Centre
#                                CCDC 
#
#######################################################################
#
# If this CIF has been generated from an entry in the Cambridge 
# Structural Database, then it will include bibliographic, chemical, 
# crystal, experimental, refinement or atomic coordinate data resulting 
# from the CCDC's data processing and validation procedures.
#
#######################################################################

data_ELUHAW
_chemical_formula_moiety         'C44 H30 N4 O4,2(C20 H12),2(C5 H5 N1)'
_chemical_name_systematic        
'5,10,15,20-tetrakis(4-hydroxyphenyl)porphyrin bis(perylene) pyridine solvate'
_symmetry_cell_setting           monoclinic
_symmetry_space_group_name_H-M   'C 2/m'
_symmetry_Int_Tables_number      12
_space_group_name_Hall           '-C 2y'
loop_
_symmetry_equiv_pos_site_id
_symmetry_equiv_pos_as_xyz
1 x,y,z
2 -x,y,-z
3 1/2+x,1/2+y,z
4 1/2-x,1/2+y,-z
5 -x,-y,-z
6 x,-y,z
7 1/2-x,1/2-y,-z
8 1/2+x,1/2-y,z
_cell_length_a                   11.4400(7)
_cell_length_b                   20.5920(12)
_cell_length_c                   14.7450(9)
_cell_angle_alpha                90
_cell_angle_beta                 110.377(3)
_cell_angle_gamma                90
_cell_volume                     3256.15
_exptl_crystal_colour            red
_exptl_crystal_description       prism
_cell_formula_units_Z            2
loop_
_atom_site_label
_atom_site_type_symbol
_atom_site_fract_x
_atom_site_fract_y
_atom_site_fract_z
C12 C 0.13512(13) 0.06043(7) 0.29223(11)
C13 C 0.2815(2) 0.0000 0.42945(15)
C14 C 0.18297(18) 0.0000 0.33758(14)
C15 C 0.03610(14) 0.06028(7) 0.19676(11)
C16 C 0.32910(17) 0.05997(10) 0.47341(12)
H9 H 0.3947 0.0604 0.5344
C17 C -0.0091(2) 0.0000 0.15027(16)
C18 C 0.28225(18) 0.11683(9) 0.42951(13)
H10 H 0.3154 0.1567 0.4600
C19 C 0.18548(16) 0.11736(8) 0.33973(13)
H11 H 0.1535 0.1578 0.3106
C20 C -0.1047(2) 0.0000 0.05734(18)
C21 C -0.01728(18) 0.11731(9) 0.15154(16)
H12 H 0.0103 0.1577 0.1830
C22 C -0.15293(19) -0.05996(11) 0.01346(15)
H13 H -0.2150 -0.0605 -0.0493
C23 C -0.1114(2) 0.11659(11) 0.06002(18)
H14 H -0.1465 0.1564 0.0304
C12E C 0.13512(13) -0.06043(7) 0.29223(11)
C15E C 0.03610(14) -0.06028(7) 0.19676(11)
C16E C 0.32910(17) -0.05997(10) 0.47341(12)
H9E H 0.3947 -0.0604 0.5344
C18E C 0.28225(18) -0.11683(9) 0.42951(13)
H10E H 0.3154 -0.1567 0.4600
C19E C 0.18548(16) -0.11736(8) 0.33973(13)
H11E H 0.1535 -0.1578 0.3106
C21E C -0.01728(18) -0.11731(9) 0.15154(16)
H12E H 0.0103 -0.1577 0.1830
C22E C -0.15293(19) 0.05996(11) 0.01346(15)
H13E H -0.2150 0.0605 -0.0493
C23E C -0.1114(2) -0.11659(11) 0.06002(18)
H14E H -0.1465 -0.1564 0.0304
O1 O 0.40558(14) 0.31063(5) 0.40995(8)
N1 N 0.5000 0.09819(7) 0.0000
N2 N 0.46612(15) 0.0000 0.13019(12)
H1 H 0.4764 0.0000 0.0730
C1 C 0.52788(15) 0.22836(7) 0.37184(10)
H2 H 0.5932 0.2354 0.4319
C2 C 0.46170(13) 0.11907(6) 0.15217(10)
C3 C 0.45304(12) 0.05464(6) 0.17920(10)
C4 C 0.49035(15) 0.20628(7) 0.04261(11)
H3 H 0.4829 0.2432 0.0788
C5 C 0.48319(13) 0.13852(6) 0.06818(10)
C6 C 0.34027(14) 0.20908(7) 0.19479(11)
H4 H 0.2761 0.2031 0.1339
C7 C 0.54024(14) 0.18070(7) 0.30883(10)
H5 H 0.6134 0.1547 0.3271
C8 C 0.42008(16) 0.26564(7) 0.34704(11)
C9 C 0.44696(13) 0.17047(6) 0.21945(10)
C10 C 0.42623(13) 0.03324(6) 0.26206(10)
H6 H 0.4111 0.0604 0.3089
C11 C 0.32616(15) 0.25619(7) 0.25771(11)
H7 H 0.2526 0.2819 0.2399
H8 H 0.3791 0.3472 0.3859
O1A O 0.59442(14) 0.31063(5) -0.40995(8)
N2A N 0.53388(15) 0.0000 -0.13019(12)
H1A H 0.5236 0.0000 -0.0730
C1A C 0.47212(15) 0.22836(7) -0.37184(10)
H2A H 0.4068 0.2354 -0.4319
C2A C 0.53830(13) 0.11907(6) -0.15217(10)
C3A C 0.54696(12) 0.05464(6) -0.17920(10)
C4A C 0.50965(15) 0.20628(7) -0.04261(11)
H3A H 0.5171 0.2432 -0.0788
C5A C 0.51681(13) 0.13852(6) -0.06818(10)
C6A C 0.65973(14) 0.20908(7) -0.19479(11)
H4A H 0.7239 0.2031 -0.1339
C7A C 0.45976(14) 0.18070(7) -0.30883(10)
H5A H 0.3866 0.1547 -0.3271
C8A C 0.57992(16) 0.26564(7) -0.34704(11)
C9A C 0.55304(13) 0.17047(6) -0.21945(10)
C10A C 0.57377(13) 0.03324(6) -0.26206(10)
H6A H 0.5889 0.0604 -0.3089
C11A C 0.67384(15) 0.25619(7) -0.25771(11)
H7A H 0.7474 0.2819 -0.2399
H8A H 0.6209 0.3472 -0.3859
O1D O 0.59442(14) -0.31063(5) -0.40995(8)
N1D N 0.5000 -0.09819(7) 0.0000
C1D C 0.47212(15) -0.22836(7) -0.37184(10)
H2D H 0.4068 -0.2354 -0.4319
C2D C 0.53830(13) -0.11907(6) -0.15217(10)
C3D C 0.54696(12) -0.05464(6) -0.17920(10)
C4D C 0.50965(15) -0.20628(7) -0.04261(11)
H3D H 0.5171 -0.2432 -0.0788
C5D C 0.51681(13) -0.13852(6) -0.06818(10)
C6D C 0.65973(14) -0.20908(7) -0.19479(11)
H4D H 0.7239 -0.2031 -0.1339
C7D C 0.45976(14) -0.18070(7) -0.30883(10)
H5D H 0.3866 -0.1547 -0.3271
C8D C 0.57992(16) -0.26564(7) -0.34704(11)
C9D C 0.55304(13) -0.17047(6) -0.21945(10)
C10D C 0.57377(13) -0.03324(6) -0.26206(10)
H6D H 0.5889 -0.0604 -0.3089
C11D C 0.67384(15) -0.25619(7) -0.25771(11)
H7D H 0.7474 -0.2819 -0.2399
H8D H 0.6209 -0.3472 -0.3859
O1E O 0.40558(14) -0.31063(5) 0.40995(8)
C1E C 0.52788(15) -0.22836(7) 0.37184(10)
H2E H 0.5932 -0.2354 0.4319
C2E C 0.46170(13) -0.11907(6) 0.15217(10)
C3E C 0.45304(12) -0.05464(6) 0.17920(10)
C4E C 0.49035(15) -0.20628(7) 0.04261(11)
H3E H 0.4829 -0.2432 0.0788
C5E C 0.48319(13) -0.13852(6) 0.06818(10)
C6E C 0.34027(14) -0.20908(7) 0.19479(11)
H4E H 0.2761 -0.2031 0.1339
C7E C 0.54024(14) -0.18070(7) 0.30883(10)
H5E H 0.6134 -0.1547 0.3271
C8E C 0.42008(16) -0.26564(7) 0.34704(11)
C9E C 0.44696(13) -0.17047(6) 0.21945(10)
C10E C 0.42623(13) -0.03324(6) 0.26206(10)
H6E H 0.4111 -0.0604 0.3089
C11E C 0.32616(15) -0.25619(7) 0.25771(11)
H7E H 0.2526 -0.2819 0.2399
H8E H 0.3791 -0.3472 0.3859
C24? C 0.2703(5) 0.4439(3) 0.2434(4)
H15? H 0.2429 0.4115 0.1947
C25? C 0.2931(5) 0.4453(2) 0.2901(5)
H16? H 0.2817 0.4008 0.2723
N3? N 0.3244(3) 0.42254(15) 0.3362(2)
C26? C 0.35291(19) 0.46736(8) 0.39508(17)
H17? H 0.3842 0.4510 0.4593
C27? C 0.2536(2) 0.5000 0.2171(2)
H18? H 0.2108 0.5000 0.1491
H19? H 0.4687 0.3107 0.4607
loop_
_geom_bond_atom_site_label_1
_geom_bond_atom_site_label_2
_geom_bond_site_symmetry_1
_geom_bond_site_symmetry_2
O1 C8 1_555 1_555
N1 C5 1_555 1_555
N2 H1 1_555 1_555
C1 H2 1_555 1_555
C2 C3 1_555 1_555
C3 N2 1_555 1_555
C4 H3 1_555 1_555
C5 C2 1_555 1_555
C6 H4 1_555 1_555
C7 C1 1_555 1_555
H5 C7 1_555 1_555
C8 C1 1_555 1_555
C9 C2 1_555 1_555
C10 C3 1_555 1_555
H6 C10 1_555 1_555
C11 C6 1_555 1_555
H7 C11 1_555 1_555
H8 O1 1_555 1_555
C12 C14 1_555 1_555
C13 C14 1_555 1_555
C14 C12E 1_555 1_555
C15 C12 1_555 1_555
C16 C13 1_555 1_555
H9 C16 1_555 1_555
C17 C15 1_555 1_555
C18 C16 1_555 1_555
H10 C18 1_555 1_555
C19 C12 1_555 1_555
H11 C19 1_555 1_555
C20 C17 1_555 1_555
C21 C15 1_555 1_555
H12 C21 1_555 1_555
C22 C20 1_555 1_555
H13 C22 1_555 1_555
C23 C21 1_555 1_555
H14 C23 1_555 1_555
O1A C8A 1_555 1_555
N2A H1A 1_555 1_555
C1A H2A 1_555 1_555
C2A C3A 1_555 1_555
C3A N2A 1_555 1_555
C4A C4 1_555 1_555
H3A C4A 1_555 1_555
C5A N1 1_555 1_555
C6A H4A 1_555 1_555
C7A C1A 1_555 1_555
H5A C7A 1_555 1_555
C8A C1A 1_555 1_555
C9A C2A 1_555 1_555
C10A C3A 1_555 1_555
H6A C10A 1_555 1_555
C11A C6A 1_555 1_555
H7A C11A 1_555 1_555
H8A O1A 1_555 1_555
O1D C8D 1_555 1_555
N1D C5D 1_555 1_555
C1D H2D 1_555 1_555
C2D C3D 1_555 1_555
C3D N2A 1_555 1_555
C4D H3D 1_555 1_555
C5D C2D 1_555 1_555
C6D H4D 1_555 1_555
C7D C1D 1_555 1_555
H5D C7D 1_555 1_555
C8D C1D 1_555 1_555
C9D C2D 1_555 1_555
C10D C10A 1_555 1_555
H6D C10D 1_555 1_555
C11D C6D 1_555 1_555
H7D C11D 1_555 1_555
H8D O1D 1_555 1_555
O1E C8E 1_555 1_555
C1E H2E 1_555 1_555
C2E C3E 1_555 1_555
C3E N2 1_555 1_555
C4E C4D 1_555 1_555
H3E C4E 1_555 1_555
C5E N1D 1_555 1_555
C6E H4E 1_555 1_555
C7E C1E 1_555 1_555
H5E C7E 1_555 1_555
C8E C1E 1_555 1_555
C9E C2E 1_555 1_555
C10E C10 1_555 1_555
H6E C10E 1_555 1_555
C11E C6E 1_555 1_555
H7E C11E 1_555 1_555
H8E O1E 1_555 1_555
C12E C15E 1_555 1_555
C15E C17 1_555 1_555
C16E C13 1_555 1_555
H9E C16E 1_555 1_555
C18E C16E 1_555 1_555
H10E C18E 1_555 1_555
C19E C12E 1_555 1_555
H11E C19E 1_555 1_555
C21E C15E 1_555 1_555
H12E C21E 1_555 1_555
C22E C20 1_555 1_555
H13E C22E 1_555 1_555
C23E C22 1_555 1_555
H14E C23E 1_555 1_555
C4 C5 1_555 1_555
C6 C9 1_555 1_555
C7 C9 1_555 1_555
C8 C11 1_555 1_555
C18 C19 1_555 1_555
C23 C22E 1_555 1_555
C2A C5A 1_555 1_555
C4A C5A 1_555 1_555
C6A C9A 1_555 1_555
C7A C9A 1_555 1_555
C8A C11A 1_555 1_555
C3D C10D 1_555 1_555
C4D C5D 1_555 1_555
C6D C9D 1_555 1_555
C7D C9D 1_555 1_555
C8D C11D 1_555 1_555
C2E C5E 1_555 1_555
C3E C10E 1_555 1_555
C4E C5E 1_555 1_555
C6E C9E 1_555 1_555
C7E C9E 1_555 1_555
C8E C11E 1_555 1_555
C18E C19E 1_555 1_555
C21E C23E 1_555 1_555

#END
