
#######################################################################
#
#                 Cambridge Crystallographic Data Centre
#                                CCDC 
#
#######################################################################
#
# If this CIF has been generated from an entry in the Cambridge 
# Structural Database, then it will include bibliographic, chemical, 
# crystal, experimental, refinement or atomic coordinate data resulting 
# from the CCDC's data processing and validation procedures.
#
#######################################################################

data_ELUJOM
_chemical_formula_moiety         'C44 H30 N4 O4,C12 H10 N2,5.5(C1 H4 O1)'
_chemical_name_systematic        
'5,10,15,20-tetrakis(4-hydroxyphenyl)porphyrin 4-(2-(pyridin-4-yl)vinyl)pyridine methanol solvate'
_symmetry_cell_setting           monoclinic
_symmetry_space_group_name_H-M   'C 2/c'
_symmetry_Int_Tables_number      15
_space_group_name_Hall           '-C 2yn'
loop_
_symmetry_equiv_pos_site_id
_symmetry_equiv_pos_as_xyz
1 x,y,z
2 -x,y,1/2-z
3 1/2+x,1/2+y,z
4 1/2-x,1/2+y,1/2-z
5 -x,-y,-z
6 x,-y,1/2+z
7 1/2-x,1/2-y,-z
8 1/2+x,1/2-y,1/2+z
_cell_length_a                   32.937(4)
_cell_length_b                   6.2835(5)
_cell_length_c                   29.547(3)
_cell_angle_alpha                90
_cell_angle_beta                 119.674(4)
_cell_angle_gamma                90
_cell_volume                     5313.09
_exptl_crystal_colour            red
_exptl_crystal_description       needle
_cell_formula_units_Z            4
loop_
_atom_site_label
_atom_site_type_symbol
_atom_site_fract_x
_atom_site_fract_y
_atom_site_fract_z
N3 N 0.75962(6) 0.7763(3) 0.89198(6)
C23 C 0.74429(7) 0.4765(3) 0.95301(7)
C24 C 0.73576(7) 0.3280(3) 0.98577(8)
H16 H 0.7075 0.3448 0.9867
C25 C 0.71998(7) 0.6688(4) 0.93778(7)
H17 H 0.6973 0.7010 0.9478
C26 C 0.72866(7) 0.8122(4) 0.90834(7)
H18 H 0.7120 0.9429 0.8991
C27 C 0.77608(8) 0.4389(4) 0.93534(9)
H19 H 0.7932 0.3094 0.9438
C28 C 0.78238(8) 0.5908(4) 0.90556(9)
H20 H 0.8041 0.5616 0.8941
N3F N 0.74038(6) -0.2763(3) 1.10802(6)
C23F C 0.75571(7) 0.0235(3) 1.04699(7)
C24F C 0.76424(7) 0.1720(3) 1.01423(8)
H16F H 0.7925 0.1552 1.0133
C25F C 0.78002(7) -0.1688(4) 1.06222(7)
H17F H 0.8027 -0.2010 1.0522
C26F C 0.77134(7) -0.3122(4) 1.09166(7)
H18F H 0.7880 -0.4429 1.1009
C27F C 0.72392(8) 0.0611(4) 1.06466(9)
H19F H 0.7068 0.1906 1.0562
C28F C 0.71762(8) -0.0908(4) 1.09444(9)
H20F H 0.6959 -0.0616 1.1059
O1 O 0.75563(4) 1.0905(2) 0.82679(5)
H1 H 0.7575 0.9601 0.8472
O2 O 0.63131(6) -0.0722(3) 0.40824(9)
H2 H 0.6196 -0.1911 0.4080
N1 N 0.56016(5) 0.8060(2) 0.54316(5)
H3 H 0.5325 0.8675 0.5280
N2 N 0.52206(5) 1.1973(2) 0.56178(5)
C1 C 0.64050(6) 1.0422(3) 0.67649(6)
C2 C 0.57292(6) 0.6441(3) 0.52177(6)
C3 C 0.71771(6) 1.0695(3) 0.77805(6)
C4 C 0.59656(6) 0.8595(3) 0.59170(6)
C5 C 0.56891(6) 0.3930(3) 0.45492(7)
C6 C 0.49867(6) 1.3693(3) 0.56609(7)
C7 C 0.56331(6) 1.1874(3) 0.60882(6)
C8 C 0.54648(6) 0.5594(3) 0.47144(6)
C9 C 0.59819(6) 1.0298(3) 0.62312(6)
C10 C 0.63429(6) 0.7168(3) 0.60189(7)
H4 H 0.6640 0.7133 0.6327
C11 C 0.65128(6) 0.8768(3) 0.71215(6)
H5 H 0.6321 0.7534 0.7020
C12 C 0.66976(6) 1.2210(3) 0.69260(7)
H6 H 0.6636 1.3344 0.6688
C13 C 0.70779(6) 1.2352(3) 0.74309(7)
H7 H 0.7269 1.3588 0.7535
C14 C 0.62008(6) 0.5876(3) 0.55977(7)
H8 H 0.6382 0.4786 0.5561
C15 C 0.68952(6) 0.8886(3) 0.76226(7)
H9 H 0.6964 0.7732 0.7857
C16 C 0.56606(6) 1.3606(3) 0.64254(7)
H10 H 0.5910 1.3889 0.6766
C17 C 0.52623(6) 1.4742(3) 0.61617(7)
H11 H 0.5178 1.5983 0.6280
C18 C 0.58281(7) 0.1966(3) 0.48026(8)
H12 H 0.5779 0.1673 0.5087
C19 C 0.57698(7) 0.4315(3) 0.41359(8)
H13 H 0.5683 0.5647 0.3961
C20 C 0.61062(7) 0.0824(4) 0.42285(10)
C21 C 0.60371(7) 0.0433(3) 0.46448(10)
H14 H 0.6133 -0.0887 0.4824
C22 C 0.59759(7) 0.2769(4) 0.39757(8)
H15 H 0.6027 0.3051 0.3692
O1D O 0.24437(4) 0.9095(2) 0.17321(5)
H1D H 0.2425 1.0399 0.1528
O2D O 0.36869(6) 2.0722(3) 0.59176(9)
H2D H 0.3804 2.1911 0.5920
N1D N 0.43984(5) 1.1940(2) 0.45684(5)
H3D H 0.4675 1.1325 0.4720
N2D N 0.47794(5) 0.8027(2) 0.43822(5)
C1D C 0.35950(6) 0.9578(3) 0.32351(6)
C2D C 0.42708(6) 1.3559(3) 0.47823(6)
C3D C 0.28229(6) 0.9305(3) 0.22195(6)
C4D C 0.40344(6) 1.1405(3) 0.40830(6)
C5D C 0.43109(6) 1.6070(3) 0.54508(7)
C6D C 0.50133(6) 0.6307(3) 0.43391(7)
C7D C 0.43669(6) 0.8126(3) 0.39118(6)
C8D C 0.45352(6) 1.4406(3) 0.52856(6)
C9D C 0.40181(6) 0.9702(3) 0.37688(6)
C10D C 0.36571(6) 1.2832(3) 0.39811(7)
H4D H 0.3360 1.2867 0.3673
C11D C 0.34872(6) 1.1232(3) 0.28785(6)
H5D H 0.3679 1.2466 0.2980
C12D C 0.33024(6) 0.7790(3) 0.30740(7)
H6D H 0.3364 0.6656 0.3312
C13D C 0.29221(6) 0.7648(3) 0.25691(7)
H7D H 0.2731 0.6412 0.2465
C14D C 0.37992(6) 1.4124(3) 0.44023(7)
H8D H 0.3618 1.5214 0.4439
C15D C 0.31048(6) 1.1114(3) 0.23774(7)
H9D H 0.3036 1.2268 0.2143
C16D C 0.43394(6) 0.6394(3) 0.35746(7)
H10D H 0.4090 0.6111 0.3234
C17D C 0.47377(6) 0.5258(3) 0.38383(7)
H11D H 0.4822 0.4017 0.3720
C18D C 0.41719(7) 1.8034(3) 0.51974(8)
H12D H 0.4221 1.8327 0.4913
C19D C 0.42302(7) 1.5685(3) 0.58641(8)
H13D H 0.4317 1.4353 0.6039
C20D C 0.38938(7) 1.9176(4) 0.57715(10)
C21D C 0.39629(7) 1.9567(3) 0.53552(10)
H14D H 0.3867 2.0887 0.5176
C22D C 0.40241(7) 1.7231(4) 0.60243(8)
H15D H 0.3973 1.6949 0.6308
loop_
_geom_bond_atom_site_label_1
_geom_bond_atom_site_label_2
_geom_bond_site_symmetry_1
_geom_bond_site_symmetry_2
O1 H1 1_555 1_555
O2 H2 1_555 1_555
N1 H3 1_555 1_555
N2 C6 1_555 1_555
C1 C9 1_555 1_555
C2 N1 1_555 1_555
C3 O1 1_555 1_555
C4 N1 1_555 1_555
C5 C8 1_555 1_555
C6 C17 1_555 1_555
C7 N2 1_555 1_555
C8 C2 1_555 1_555
C9 C4 1_555 1_555
C10 C4 1_555 1_555
H4 C10 1_555 1_555
C11 C1 1_555 1_555
H5 C11 1_555 1_555
C12 C1 1_555 1_555
H6 C12 1_555 1_555
C13 C3 1_555 1_555
H7 C13 1_555 1_555
C14 C2 1_555 1_555
H8 C14 1_555 1_555
C15 C3 1_555 1_555
H9 C15 1_555 1_555
C16 C7 1_555 1_555
H10 C16 1_555 1_555
C17 C16 1_555 1_555
H11 C17 1_555 1_555
C18 C5 1_555 1_555
H12 C18 1_555 1_555
C19 C5 1_555 1_555
H13 C19 1_555 1_555
C20 O2 1_555 1_555
C21 C18 1_555 1_555
H14 C21 1_555 1_555
C22 C19 1_555 1_555
H15 C22 1_555 1_555
N3 C26 1_555 1_555
C23 C24 1_555 1_555
C24 H16 1_555 1_555
C25 C23 1_555 1_555
H17 C25 1_555 1_555
C26 C25 1_555 1_555
H18 C26 1_555 1_555
C27 C23 1_555 1_555
H19 C27 1_555 1_555
C28 N3 1_555 1_555
H20 C28 1_555 1_555
O1D H1D 1_555 1_555
O2D H2D 1_555 1_555
N1D H3D 1_555 1_555
N2D C6D 1_555 1_555
C1D C9D 1_555 1_555
C2D N1D 1_555 1_555
C3D O1D 1_555 1_555
C4D N1D 1_555 1_555
C5D C8D 1_555 1_555
C6D C8 1_555 1_555
C7D N2D 1_555 1_555
C8D C6 1_555 1_555
C9D C4D 1_555 1_555
C10D C4D 1_555 1_555
H4D C10D 1_555 1_555
C11D C1D 1_555 1_555
H5D C11D 1_555 1_555
C12D C1D 1_555 1_555
H6D C12D 1_555 1_555
C13D C3D 1_555 1_555
H7D C13D 1_555 1_555
C14D C2D 1_555 1_555
H8D C14D 1_555 1_555
C15D C3D 1_555 1_555
H9D C15D 1_555 1_555
C16D C7D 1_555 1_555
H10D C16D 1_555 1_555
C17D C6D 1_555 1_555
H11D C17D 1_555 1_555
C18D C5D 1_555 1_555
H12D C18D 1_555 1_555
C19D C5D 1_555 1_555
H13D C19D 1_555 1_555
C20D O2D 1_555 1_555
C21D C18D 1_555 1_555
H14D C21D 1_555 1_555
C22D C19D 1_555 1_555
H15D C22D 1_555 1_555
N3F C26F 1_555 1_555
C23F C24F 1_555 1_555
C24F C24 1_555 1_555
H16F C24F 1_555 1_555
C25F C23F 1_555 1_555
H17F C25F 1_555 1_555
C26F C25F 1_555 1_555
H18F C26F 1_555 1_555
C27F C23F 1_555 1_555
H19F C27F 1_555 1_555
C28F N3F 1_555 1_555
H20F C28F 1_555 1_555
C7 C9 1_555 1_555
C10 C14 1_555 1_555
C11 C15 1_555 1_555
C12 C13 1_555 1_555
C20 C21 1_555 1_555
C20 C22 1_555 1_555
C27 C28 1_555 1_555
C2D C8D 1_555 1_555
C7D C9D 1_555 1_555
C10D C14D 1_555 1_555
C11D C15D 1_555 1_555
C12D C13D 1_555 1_555
C16D C17D 1_555 1_555
C20D C21D 1_555 1_555
C20D C22D 1_555 1_555
C27F C28F 1_555 1_555

#END
