
#######################################################################
#
#                 Cambridge Crystallographic Data Centre
#                                CCDC 
#
#######################################################################
#
# If this CIF has been generated from an entry in the Cambridge 
# Structural Database, then it will include bibliographic, chemical, 
# crystal, experimental, refinement or atomic coordinate data resulting 
# from the CCDC's data processing and validation procedures.
#
#######################################################################

data_ELUTIP
_chemical_formula_moiety         'C20 H28 O3'
_chemical_name_systematic        
5a-Methyl-6-(6-methylhepta-1,5-dien-2-yl)octahydro-2H-indeno[5,4-b]furan-2,8(1H)-dione
_symmetry_cell_setting           monoclinic
_symmetry_space_group_name_H-M   'P 21/c'
_symmetry_Int_Tables_number      14
_space_group_name_Hall           '-P 2ybc'
loop_
_symmetry_equiv_pos_site_id
_symmetry_equiv_pos_as_xyz
1 x,y,z
2 -x,1/2+y,1/2-z
3 -x,-y,-z
4 x,1/2-y,1/2+z
_cell_length_a                   10.9460(16)
_cell_length_b                   15.700(2)
_cell_length_c                   10.6744(16)
_cell_angle_alpha                90
_cell_angle_beta                 112.131(2)
_cell_angle_gamma                90
_cell_volume                     1699.27
_exptl_crystal_colour            colorless
_exptl_crystal_description       block
_cell_formula_units_Z            4
loop_
_atom_site_label
_atom_site_type_symbol
_atom_site_fract_x
_atom_site_fract_y
_atom_site_fract_z
O1 O -0.05593(10) -0.23130(6) -0.47030(10)
O2 O -0.20177(11) -0.18659(7) -0.66871(10)
O3 O -0.07372(10) 0.07964(6) -0.38042(10)
C1 C -0.14831(14) -0.17632(9) -0.54818(14)
C2 C -0.17160(14) -0.10702(9) -0.46250(14)
H1 H -0.2576 -0.1150 -0.4534
H2 H -0.1706 -0.0504 -0.5028
C3 C -0.05817(13) -0.11506(8) -0.32502(13)
H3 H -0.0928 -0.1091 -0.2512
C4 C -0.00978(14) -0.20726(8) -0.32777(13)
H4 H -0.0511 -0.2456 -0.2800
C5 C 0.13831(15) -0.21635(9) -0.26440(14)
H5 H 0.1785 -0.1968 -0.3284
H6 H 0.1624 -0.2768 -0.2422
C6 C 0.18907(15) -0.16228(8) -0.13555(14)
H7 H 0.2833 -0.1753 -0.0844
H8 H 0.1396 -0.1772 -0.0777
C7 C 0.17336(13) -0.06594(8) -0.16822(13)
C8 C 0.05391(13) -0.05039(8) -0.30325(13)
H9 H 0.0835 -0.0523 -0.3812
C9 C 0.00555(13) 0.03865(8) -0.28919(13)
C10 C 0.07068(14) 0.06791(8) -0.14492(13)
H10 H 0.0048 0.0921 -0.1119
H11 H 0.1384 0.1117 -0.1366
C11 C 0.13421(13) -0.01241(8) -0.06468(12)
H12 H 0.0619 -0.0445 -0.0499
C12 C 0.23910(13) 0.00411(8) 0.07469(13)
C13 C 0.31074(14) -0.07326(9) 0.15228(14)
H13 H 0.3670 -0.0960 0.1060
H14 H 0.2441 -0.1174 0.1462
C14 C 0.39718(15) -0.06091(10) 0.30150(14)
H15 H 0.4592 -0.0132 0.3107
H16 H 0.3409 -0.0458 0.3522
C15 C 0.47393(14) -0.14027(10) 0.36111(14)
H17 H 0.5264 -0.1625 0.3153
C16 C 0.47784(14) -0.18358(9) 0.47020(14)
C17 C 0.56518(15) -0.26083(10) 0.51755(16)
H18 H 0.6084 -0.2729 0.4541
H19 H 0.5116 -0.3100 0.5217
H20 H 0.6322 -0.2499 0.6076
C18 C 0.40113(16) -0.16031(10) 0.55589(16)
H21 H 0.3449 -0.1110 0.5162
H22 H 0.4624 -0.1461 0.6474
H23 H 0.3460 -0.2086 0.5600
C19 C 0.29878(14) -0.03026(9) -0.18116(14)
H24 H 0.3207 -0.0643 -0.2468
H25 H 0.3719 -0.0327 -0.0930
H26 H 0.2837 0.0290 -0.2120
C20 C 0.26110(15) 0.08193(9) 0.12784(14)
H27 H 0.3235 0.0902 0.2172
H28 H 0.2144 0.1292 0.0764
loop_
_geom_bond_atom_site_label_1
_geom_bond_atom_site_label_2
_geom_bond_site_symmetry_1
_geom_bond_site_symmetry_2
O1 C1 1_555 1_555
O2 C1 1_555 1_555
O3 C9 1_555 1_555
C1 C2 1_555 1_555
C2 H1 1_555 1_555
H2 C2 1_555 1_555
C3 C2 1_555 1_555
H3 C3 1_555 1_555
C4 O1 1_555 1_555
H4 C4 1_555 1_555
C5 C4 1_555 1_555
H5 C5 1_555 1_555
H6 C5 1_555 1_555
C6 C5 1_555 1_555
H7 C6 1_555 1_555
H8 C6 1_555 1_555
C7 C6 1_555 1_555
C8 C3 1_555 1_555
H9 C8 1_555 1_555
C9 C8 1_555 1_555
C10 C9 1_555 1_555
H10 C10 1_555 1_555
H11 C10 1_555 1_555
C11 C7 1_555 1_555
H12 C11 1_555 1_555
C12 C11 1_555 1_555
C13 C12 1_555 1_555
H13 C13 1_555 1_555
H14 C13 1_555 1_555
C14 C13 1_555 1_555
H15 C14 1_555 1_555
H16 C14 1_555 1_555
C15 C14 1_555 1_555
H17 C15 1_555 1_555
C16 C15 1_555 1_555
C17 C16 1_555 1_555
H18 C17 1_555 1_555
H19 C17 1_555 1_555
H20 C17 1_555 1_555
C18 C16 1_555 1_555
H21 C18 1_555 1_555
H22 C18 1_555 1_555
H23 C18 1_555 1_555
C19 C7 1_555 1_555
H24 C19 1_555 1_555
H25 C19 1_555 1_555
H26 C19 1_555 1_555
C20 C12 1_555 1_555
H27 C20 1_555 1_555
H28 C20 1_555 1_555
C3 C4 1_555 1_555
C7 C8 1_555 1_555
C10 C11 1_555 1_555

#END
