
#######################################################################
#
#                 Cambridge Crystallographic Data Centre
#                                CCDC 
#
#######################################################################
#
# If this CIF has been generated from an entry in the Cambridge 
# Structural Database, then it will include bibliographic, chemical, 
# crystal, experimental, refinement or atomic coordinate data resulting 
# from the CCDC's data processing and validation procedures.
#
#######################################################################

data_ELUTOV
_chemical_formula_moiety         'C19 H24 N2 O5 S1'
_chemical_name_systematic        
'O-(8-(Methoxymethoxy)-5a-methyl-3-oxodecahydrocyclopenta[i]cyclopropa[de]isochromen-4-yl) 1H-imidazole-1-carbothioate'
_symmetry_cell_setting           monoclinic
_symmetry_space_group_name_H-M   'P 21/c'
_symmetry_Int_Tables_number      14
_space_group_name_Hall           '-P 2ybc'
loop_
_symmetry_equiv_pos_site_id
_symmetry_equiv_pos_as_xyz
1 x,y,z
2 -x,1/2+y,1/2-z
3 -x,-y,-z
4 x,1/2-y,1/2+z
_cell_length_a                   13.9335(14)
_cell_length_b                   6.1672(6)
_cell_length_c                   21.725(2)
_cell_angle_alpha                90
_cell_angle_beta                 95.724(2)
_cell_angle_gamma                90
_cell_volume                     1857.54
_exptl_crystal_colour            colorless
_exptl_crystal_description       needle
_cell_formula_units_Z            4
loop_
_atom_site_label
_atom_site_type_symbol
_atom_site_fract_x
_atom_site_fract_y
_atom_site_fract_z
S1 S 0.08267(3) 0.74620(7) 0.032403(19)
N1 N 0.08519(9) 1.0807(2) 0.11052(6)
N2 N 0.06925(13) 1.3196(3) 0.18540(7)
O1 O 0.14829(7) 1.14895(17) 0.02306(5)
O2 O 0.38976(8) 1.47865(18) -0.01777(5)
O3 O 0.34572(9) 1.4092(2) 0.07457(5)
O4 O 0.47978(8) 0.98180(18) -0.14652(5)
O5 O 0.59756(8) 1.0824(2) -0.21171(5)
C1 C 0.18764(10) 1.0880(2) -0.03499(7)
H1 H 0.1428 0.9828 -0.0581
C2 C 0.19122(10) 1.2948(2) -0.07262(7)
H2 H 0.2144 1.4148 -0.0448
H3 H 0.1251 1.3314 -0.0907
C3 C 0.25741(10) 1.2763(2) -0.12517(6)
C4 C 0.36317(10) 1.2109(2) -0.10223(6)
C5 C 0.36753(10) 1.0276(2) -0.05463(6)
H4 H 0.4096 0.9014 -0.0627
C6 C 0.28336(10) 0.9803(2) -0.01876(6)
H5 H 0.2789 0.8258 -0.0053
C7 C 0.37058(10) 1.1018(2) 0.01187(6)
H6 H 0.4136 1.0144 0.0420
C8 C 0.22801(10) 1.0930(2) -0.17139(7)
H7 H 0.1736 1.1393 -0.2013
H8 H 0.2085 0.9620 -0.1494
C9 C 0.31829(11) 1.0469(3) -0.20482(7)
H9 H 0.3135 1.1205 -0.2455
H10 H 0.3257 0.8892 -0.2114
C10 C 0.40444(10) 1.1362(2) -0.16222(6)
H11 H 0.4319 1.2644 -0.1825
C11 C 0.42623(11) 1.3923(2) -0.07342(7)
H12 H 0.4925 1.3368 -0.0629
H13 H 0.4294 1.5106 -0.1040
C12 C 0.36666(11) 1.3369(3) 0.02618(7)
C13 C 0.10716(10) 0.9953(3) 0.05404(7)
C14 C 0.03893(13) 0.9737(3) 0.15571(8)
H14 H 0.0183 0.8268 0.1552
C15 C 0.02971(14) 1.1206(4) 0.19994(8)
H15 H 0.0000 1.0930 0.2367
C16 C 0.10208(14) 1.2889(3) 0.13191(8)
H16 H 0.1338 1.3971 0.1103
C17 C 0.53291(12) 0.9224(3) -0.19592(7)
H17 H 0.5694 0.7882 -0.1845
H18 H 0.4873 0.8897 -0.2326
C18 C 0.67697(13) 1.1149(3) -0.16557(8)
H19 H 0.7279 1.1962 -0.1835
H20 H 0.7022 0.9740 -0.1507
H21 H 0.6552 1.1969 -0.1309
C19 C 0.25313(12) 1.4945(3) -0.15920(7)
H22 H 0.1869 1.5219 -0.1772
H23 H 0.2962 1.4906 -0.1922
H24 H 0.2735 1.6105 -0.1299
loop_
_geom_bond_atom_site_label_1
_geom_bond_atom_site_label_2
_geom_bond_site_symmetry_1
_geom_bond_site_symmetry_2
S1 C13 1_555 1_555
N1 C13 1_555 1_555
N2 C15 1_555 1_555
O1 C1 1_555 1_555
O2 C11 1_555 1_555
O3 C12 1_555 1_555
O4 C10 1_555 1_555
O5 C17 1_555 1_555
C1 H1 1_555 1_555
C2 C1 1_555 1_555
H2 C2 1_555 1_555
H3 C2 1_555 1_555
C3 C2 1_555 1_555
C4 C3 1_555 1_555
C5 C4 1_555 1_555
H4 C5 1_555 1_555
C6 C1 1_555 1_555
H5 C6 1_555 1_555
C7 C5 1_555 1_555
H6 C7 1_555 1_555
C8 C3 1_555 1_555
H7 C8 1_555 1_555
H8 C8 1_555 1_555
C9 C8 1_555 1_555
H9 C9 1_555 1_555
H10 C9 1_555 1_555
C10 C4 1_555 1_555
H11 C10 1_555 1_555
C11 C4 1_555 1_555
H12 C11 1_555 1_555
H13 C11 1_555 1_555
C12 O2 1_555 1_555
C13 O1 1_555 1_555
C14 N1 1_555 1_555
H14 C14 1_555 1_555
C15 C14 1_555 1_555
H15 C15 1_555 1_555
C16 N1 1_555 1_555
H16 C16 1_555 1_555
C17 O4 1_555 1_555
H17 C17 1_555 1_555
H18 C17 1_555 1_555
C18 O5 1_555 1_555
H19 C18 1_555 1_555
H20 C18 1_555 1_555
H21 C18 1_555 1_555
C19 C3 1_555 1_555
H22 C19 1_555 1_555
H23 C19 1_555 1_555
H24 C19 1_555 1_555
N2 C16 1_555 1_555
C5 C6 1_555 1_555
C6 C7 1_555 1_555
C7 C12 1_555 1_555
C9 C10 1_555 1_555

#END
