
#######################################################################
#
#                 Cambridge Crystallographic Data Centre
#                                CCDC 
#
#######################################################################
#
# If this CIF has been generated from an entry in the Cambridge 
# Structural Database, then it will include bibliographic, chemical, 
# crystal, experimental, refinement or atomic coordinate data resulting 
# from the CCDC's data processing and validation procedures.
#
#######################################################################

data_ELUYAN
_chemical_formula_moiety         'C19 H19 N1 O3'
_chemical_name_systematic        
4-(morpholin-4-yl)-3-phenyl-3,4-dihydro-1H-isochromen-1-one
_symmetry_cell_setting           monoclinic
_symmetry_space_group_name_H-M   'P 21/c'
_symmetry_Int_Tables_number      14
_space_group_name_Hall           '-P 2ybc'
loop_
_symmetry_equiv_pos_site_id
_symmetry_equiv_pos_as_xyz
1 x,y,z
2 -x,1/2+y,1/2-z
3 -x,-y,-z
4 x,1/2-y,1/2+z
_cell_length_a                   10.3580(3)
_cell_length_b                   18.6766(5)
_cell_length_c                   8.4950(2)
_cell_angle_alpha                90
_cell_angle_beta                 109.1250(10)
_cell_angle_gamma                90
_cell_volume                     1552.67
_exptl_crystal_colour            colorless
_exptl_crystal_description       block
_cell_formula_units_Z            4
loop_
_atom_site_label
_atom_site_type_symbol
_atom_site_fract_x
_atom_site_fract_y
_atom_site_fract_z
O1 O 0.36298(10) 0.70396(6) 0.72129(13)
O2 O 0.54714(8) 0.68841(4) 0.65125(10)
O3 O 0.76079(9) 0.55834(5) 0.08812(11)
N1 N 0.61262(9) 0.57792(5) 0.31176(11)
C1 C 0.41129(12) 0.68026(6) 0.62065(15)
C2 C 0.33400(11) 0.63956(6) 0.46913(14)
C3 C 0.40359(11) 0.59960(6) 0.38291(13)
C4 C 0.55878(11) 0.60018(6) 0.44283(13)
H1 H 0.5902 0.5642 0.5346
C5 C 0.60660(11) 0.67412(6) 0.51970(13)
H2 H 0.576 0.7117 0.4315
C6 C 0.19141(12) 0.63851(6) 0.41973(15)
H3 H 0.1451 0.6659 0.4788
C7 C 0.11751(11) 0.59724(6) 0.28398(15)
H4 H 0.0205 0.5967 0.2489
C8 C 0.18688(11) 0.55686(6) 0.20006(13)
H5 H 0.1367 0.5281 0.1082
C9 C 0.32835(11) 0.55795(6) 0.24839(13)
H6 H 0.3741 0.5301 0.1893
C10 C 0.60378(12) 0.63068(6) 0.18212(14)
H7 H 0.6717 0.6692 0.2266
H8 H 0.5116 0.6525 0.1439
C11 C 0.63159(12) 0.59350(7) 0.03763(14)
H9 H 0.5587 0.5579 -0.0117
H10 H 0.629 0.6293 -0.0493
C12 C 0.76796(13) 0.50758(7) 0.21649(15)
H11 H 0.8584 0.4838 0.2511
H12 H 0.6971 0.4704 0.1727
C13 C 0.74673(11) 0.54349(6) 0.36648(14)
H13 H 0.7512 0.5075 0.4536
H14 H 0.819 0.5796 0.4138
C14 C 0.75884(11) 0.67918(6) 0.60280(13)
C15 C 0.83474(11) 0.72925(6) 0.54957(13)
H15 H 0.7904 0.7609 0.4608
C16 C 0.97591(12) 0.73308(6) 0.62617(15)
H16 H 1.0275 0.7675 0.5897
C17 C 1.04133(12) 0.68689(7) 0.75528(15)
H17 H 1.1377 0.6891 0.8064
C18 C 0.96537(12) 0.63740(6) 0.80959(14)
H18 H 1.0098 0.606 0.8988
C19 C 0.82499(12) 0.63356(6) 0.73435(13)
H19 H 0.7736 0.5997 0.7726
loop_
_geom_bond_atom_site_label_1
_geom_bond_atom_site_label_2
_geom_bond_site_symmetry_1
_geom_bond_site_symmetry_2
O1 C1 1_555 1_555
O2 C1 1_555 1_555
O3 C11 1_555 1_555
N1 C4 1_555 1_555
C1 C2 1_555 1_555
C2 C3 1_555 1_555
C3 C4 1_555 1_555
C4 H1 1_555 1_555
C5 O2 1_555 1_555
H2 C5 1_555 1_555
C6 C2 1_555 1_555
H3 C6 1_555 1_555
C7 C6 1_555 1_555
H4 C7 1_555 1_555
C8 C7 1_555 1_555
H5 C8 1_555 1_555
C9 C3 1_555 1_555
H6 C9 1_555 1_555
C10 N1 1_555 1_555
H7 C10 1_555 1_555
H8 C10 1_555 1_555
C11 C10 1_555 1_555
H9 C11 1_555 1_555
H10 C11 1_555 1_555
C12 O3 1_555 1_555
H11 C12 1_555 1_555
H12 C12 1_555 1_555
C13 N1 1_555 1_555
H13 C13 1_555 1_555
H14 C13 1_555 1_555
C14 C5 1_555 1_555
C15 C14 1_555 1_555
H15 C15 1_555 1_555
C16 C15 1_555 1_555
H16 C16 1_555 1_555
C17 C16 1_555 1_555
H17 C17 1_555 1_555
C18 C17 1_555 1_555
H18 C18 1_555 1_555
C19 C14 1_555 1_555
H19 C19 1_555 1_555
C4 C5 1_555 1_555
C8 C9 1_555 1_555
C12 C13 1_555 1_555
C18 C19 1_555 1_555

#END
