
#######################################################################
#
#                 Cambridge Crystallographic Data Centre
#                                CCDC 
#
#######################################################################
#
# If this CIF has been generated from an entry in the Cambridge 
# Structural Database, then it will include bibliographic, chemical, 
# crystal, experimental, refinement or atomic coordinate data resulting 
# from the CCDC's data processing and validation procedures.
#
#######################################################################

data_EMABUQ
_chemical_formula_moiety         'C16 H12 N2 S1'
_chemical_name_systematic        4-Phenyl-1H-[1,4]thiazino[4,3-a]benzimidazole
_symmetry_cell_setting           monoclinic
_symmetry_space_group_name_H-M   'C 2/c'
_symmetry_Int_Tables_number      15
_space_group_name_Hall           '-C 2yn'
loop_
_symmetry_equiv_pos_site_id
_symmetry_equiv_pos_as_xyz
1 x,y,z
2 -x,y,1/2-z
3 1/2+x,1/2+y,z
4 1/2-x,1/2+y,1/2-z
5 -x,-y,-z
6 x,-y,1/2+z
7 1/2-x,1/2-y,-z
8 1/2+x,1/2-y,1/2+z
_cell_length_a                   19.0234(10)
_cell_length_b                   10.3429(4)
_cell_length_c                   14.4289(8)
_cell_angle_alpha                90
_cell_angle_beta                 112.754(6)
_cell_angle_gamma                90
_cell_volume                     2618.04
_exptl_crystal_colour            yellow
_exptl_crystal_description       block
_chemical_melting_point          '150-151 deg.C'
_cell_formula_units_Z            8
loop_
_atom_site_label
_atom_site_type_symbol
_atom_site_fract_x
_atom_site_fract_y
_atom_site_fract_z
S1 S 0.36341(4) 0.38784(5) 0.15512(5)
N1 N 0.35901(7) 0.67409(14) 0.11056(10)
C1 C 0.42024(9) 0.60457(16) 0.10103(13)
C2 C 0.35640(9) 0.80298(17) 0.13987(12)
C3 C 0.44757(9) 0.76279(17) -0.01157(13)
H1 H 0.3954 0.7738 -0.0467
N2 N 0.24857(8) 0.69657(18) 0.13179(12)
C4 C 0.47383(9) 0.67709(16) 0.06833(13)
C5 C 0.40686(9) 0.90539(17) 0.16041(13)
H2 H 0.4532 0.8979 0.1531
C6 C 0.29264(10) 0.6178(2) 0.10891(13)
C7 C 0.49824(10) 0.83188(19) -0.03938(14)
H3 H 0.4802 0.8897 -0.0928
C8 C 0.55152(9) 0.66047(18) 0.11852(14)
H4 H 0.5699 0.6024 0.1717
C9 C 0.28711(9) 0.8141(2) 0.15166(13)
C10 C 0.38564(11) 1.01891(19) 0.19208(14)
H5 H 0.4184 1.0896 0.2060
C11 C 0.60179(10) 0.7293(2) 0.09016(14)
H6 H 0.6540 0.7176 0.1242
C12 C 0.57517(10) 0.8155(2) 0.01162(15)
H7 H 0.6093 0.8627 -0.0069
C13 C 0.42668(11) 0.47854(19) 0.12053(15)
H8 H 0.4680 0.4356 0.1154
C14 C 0.26725(11) 0.9307(2) 0.18387(15)
H9 H 0.2211 0.9395 0.1914
C15 C 0.31710(12) 1.0313(2) 0.20393(15)
H10 H 0.3050 1.1094 0.2259
C16 C 0.27833(11) 0.4789(2) 0.08418(15)
H11 H 0.2649 0.4659 0.0128
H12 H 0.2362 0.4493 0.1007
loop_
_geom_bond_atom_site_label_1
_geom_bond_atom_site_label_2
_geom_bond_site_symmetry_1
_geom_bond_site_symmetry_2
S1 C13 1_555 1_555
N1 C1 1_555 1_555
C1 C4 1_555 1_555
C2 N1 1_555 1_555
C3 H1 1_555 1_555
N2 C6 1_555 1_555
C4 C3 1_555 1_555
C5 C2 1_555 1_555
H2 C5 1_555 1_555
C6 N1 1_555 1_555
C7 C3 1_555 1_555
H3 C7 1_555 1_555
C8 C4 1_555 1_555
H4 C8 1_555 1_555
C9 C2 1_555 1_555
C10 C5 1_555 1_555
H5 C10 1_555 1_555
C11 C8 1_555 1_555
H6 C11 1_555 1_555
C12 C7 1_555 1_555
H7 C12 1_555 1_555
C13 C1 1_555 1_555
H8 C13 1_555 1_555
C14 C9 1_555 1_555
H9 C14 1_555 1_555
C15 C10 1_555 1_555
H10 C15 1_555 1_555
C16 S1 1_555 1_555
H11 C16 1_555 1_555
H12 C16 1_555 1_555
N2 C9 1_555 1_555
C6 C16 1_555 1_555
C11 C12 1_555 1_555
C14 C15 1_555 1_555

#END
