
#######################################################################
#
#                 Cambridge Crystallographic Data Centre
#                                CCDC 
#
#######################################################################
#
# If this CIF has been generated from an entry in the Cambridge 
# Structural Database, then it will include bibliographic, chemical, 
# crystal, experimental, refinement or atomic coordinate data resulting 
# from the CCDC's data processing and validation procedures.
#
#######################################################################

data_EMACUR
_chemical_name_common            
1,1'-(Naphthalene-2,6-diylbis(methylene))bis(3,5-dimethyl-1H-pyrazole)
_chemical_formula_moiety         'C22 H24 N4'
_chemical_name_systematic        
2,6-bis((3,5-Dimethyl-1H-pyrazol-1-yl)methyl)naphthalene
_symmetry_cell_setting           monoclinic
_symmetry_space_group_name_H-M   'P 21/c'
_symmetry_Int_Tables_number      14
_space_group_name_Hall           '-P 2ybc'
loop_
_symmetry_equiv_pos_site_id
_symmetry_equiv_pos_as_xyz
1 x,y,z
2 -x,1/2+y,1/2-z
3 -x,-y,-z
4 x,1/2-y,1/2+z
_cell_length_a                   14.3365(18)
_cell_length_b                   5.0427(7)
_cell_length_c                   12.6153(15)
_cell_angle_alpha                90
_cell_angle_beta                 100.280(9)
_cell_angle_gamma                90
_cell_volume                     897.379
_exptl_crystal_colour            colorless
_exptl_crystal_description       plate
_cell_formula_units_Z            2
loop_
_atom_site_label
_atom_site_type_symbol
_atom_site_fract_x
_atom_site_fract_y
_atom_site_fract_z
N1 N 0.23920(18) 0.3067(6) 0.23080(19)
N2 N 0.22779(18) 0.4920(6) 0.15042(19)
C1 C 0.1440(2) 0.6024(7) 0.1528(2)
C2 C 0.1018(2) 0.4935(7) 0.2348(2)
H1 H 0.0423 0.5395 0.2528
C3 C 0.1649(2) 0.3051(7) 0.2838(2)
C4 C 0.1073(2) 0.8173(7) 0.0732(3)
H2 H 0.1584 0.8772 0.0368
H3 H 0.0847 0.9669 0.1113
H4 H 0.0550 0.7475 0.0199
C5 C 0.1617(2) 0.1236(7) 0.3768(2)
H5 H 0.1617 -0.0609 0.3524
H6 H 0.1039 0.1580 0.4060
H7 H 0.2173 0.1548 0.4329
C6 C 0.3255(2) 0.1528(7) 0.2529(2)
H8 H 0.3528 0.1420 0.1863
H9 H 0.3095 -0.0298 0.2723
C7 C 0.3824(2) 0.4622(7) 0.4094(2)
H10 H 0.3210 0.5391 0.3998
C8 C 0.4002(2) 0.2626(7) 0.3425(2)
C9 C 0.4914(2) 0.1490(7) 0.3570(2)
H11 H 0.5034 0.0090 0.3109
C10 C 0.5627(2) 0.2355(7) 0.4357(2)
H12 H 0.6239 0.1575 0.4431
C11 C 0.4544(2) 0.5564(7) 0.4929(2)
N1B N 0.76080(18) 0.6933(6) 0.76920(19)
N2B N 0.77221(18) 0.5080(6) 0.84958(19)
C1B C 0.8560(2) 0.3976(7) 0.8472(2)
C2B C 0.8982(2) 0.5065(7) 0.7652(2)
H1B H 0.9577 0.4605 0.7472
C3B C 0.8351(2) 0.6949(7) 0.7162(2)
C4B C 0.8927(2) 0.1827(7) 0.9268(3)
H2B H 0.8416 0.1228 0.9632
H3B H 0.9153 0.0331 0.8887
H4B H 0.9450 0.2525 0.9801
C5B C 0.8383(2) 0.8764(7) 0.6232(2)
H5B H 0.8383 1.0609 0.6476
H6B H 0.8961 0.8420 0.5940
H7B H 0.7827 0.8452 0.5671
C6B C 0.6745(2) 0.8472(7) 0.7471(2)
H8B H 0.6472 0.8580 0.8137
H9B H 0.6905 1.0298 0.7277
C7B C 0.6176(2) 0.5378(7) 0.5906(2)
H10B H 0.6790 0.4609 0.6002
C8B C 0.5998(2) 0.7374(7) 0.6575(2)
C9B C 0.5086(2) 0.8510(7) 0.6430(2)
H11B H 0.4966 0.9910 0.6891
C10B C 0.4373(2) 0.7645(7) 0.5643(2)
H12B H 0.3761 0.8425 0.5569
C11B C 0.5456(2) 0.4436(7) 0.5071(2)
loop_
_geom_bond_atom_site_label_1
_geom_bond_atom_site_label_2
_geom_bond_site_symmetry_1
_geom_bond_site_symmetry_2
N1 N2 1_555 1_555
N2 C1 1_555 1_555
C1 C2 1_555 1_555
C2 H1 1_555 1_555
C3 N1 1_555 1_555
C4 C1 1_555 1_555
H2 C4 1_555 1_555
H3 C4 1_555 1_555
H4 C4 1_555 1_555
C5 C3 1_555 1_555
H5 C5 1_555 1_555
H6 C5 1_555 1_555
H7 C5 1_555 1_555
C6 N1 1_555 1_555
H8 C6 1_555 1_555
H9 C6 1_555 1_555
C7 H10 1_555 1_555
C8 C6 1_555 1_555
C9 C8 1_555 1_555
H11 C9 1_555 1_555
C10 C9 1_555 1_555
H12 C10 1_555 1_555
C11 C7 1_555 1_555
N1B N2B 1_555 1_555
N2B C1B 1_555 1_555
C1B C2B 1_555 1_555
C2B H1B 1_555 1_555
C3B N1B 1_555 1_555
C4B C1B 1_555 1_555
H2B C4B 1_555 1_555
H3B C4B 1_555 1_555
H4B C4B 1_555 1_555
C5B C3B 1_555 1_555
H5B C5B 1_555 1_555
H6B C5B 1_555 1_555
H7B C5B 1_555 1_555
C6B N1B 1_555 1_555
H8B C6B 1_555 1_555
H9B C6B 1_555 1_555
C7B H10B 1_555 1_555
C8B C6B 1_555 1_555
C9B C8B 1_555 1_555
H11B C9B 1_555 1_555
C10B C11 1_555 1_555
H12B C10B 1_555 1_555
C11B C10 1_555 1_555
C2 C3 1_555 1_555
C7 C8 1_555 1_555
C11 C11B 1_555 1_555
C2B C3B 1_555 1_555
C7B C8B 1_555 1_555
C7B C11B 1_555 1_555
C9B C10B 1_555 1_555

#END
