
#######################################################################
#
#                 Cambridge Crystallographic Data Centre
#                                CCDC 
#
#######################################################################
#
# If this CIF has been generated from an entry in the Cambridge 
# Structural Database, then it will include bibliographic, chemical, 
# crystal, experimental, refinement or atomic coordinate data resulting 
# from the CCDC's data processing and validation procedures.
#
#######################################################################

data_EMACAX
_chemical_formula_moiety         'C17 H23 Br1 N2 S1'
_chemical_name_systematic        
(Z)-2-((1-Bromodec-1-en-2-yl)thio)-1H-benzimidazole
_symmetry_cell_setting           monoclinic
_symmetry_space_group_name_H-M   'P 21/n'
_symmetry_Int_Tables_number      14
_space_group_name_Hall           '-P 2yn'
loop_
_symmetry_equiv_pos_site_id
_symmetry_equiv_pos_as_xyz
1 x,y,z
2 1/2-x,1/2+y,1/2-z
3 -x,-y,-z
4 1/2+x,1/2-y,1/2+z
_cell_length_a                   8.7689(3)
_cell_length_b                   24.7018(6)
_cell_length_c                   9.0693(4)
_cell_angle_alpha                90
_cell_angle_beta                 112.788(5)
_cell_angle_gamma                90
_cell_volume                     1811.14
_exptl_crystal_colour            colorless
_exptl_crystal_description       block
_chemical_melting_point          '102-103 deg.C'
_cell_formula_units_Z            4
loop_
_atom_site_label
_atom_site_type_symbol
_atom_site_fract_x
_atom_site_fract_y
_atom_site_fract_z
Br1 Br 0.86911(6) 0.073584(17) 0.70615(7)
C1 C 0.8076(5) 0.12972(14) 0.5550(5)
H1 H 0.8492 0.1285 0.4751
C2 C 0.7103(4) 0.17086(12) 0.5522(3)
C3 C 0.6727(4) 0.21380(13) 0.4260(4)
H2 H 0.5588 0.2253 0.3951
H3 H 0.6842 0.1985 0.3324
C4 C 0.7855(4) 0.26293(13) 0.4815(4)
H4 H 0.7864 0.2751 0.5836
H5 H 0.8974 0.2525 0.4974
C5 C 0.7311(5) 0.30901(15) 0.3631(4)
H6 H 0.7335 0.2969 0.2623
H7 H 0.6176 0.3183 0.3444
C6 C 0.8362(6) 0.35893(17) 0.4165(5)
H8 H 0.9495 0.3493 0.4352
H9 H 0.7996 0.3850 0.3298
C7 C 0.8349(5) 0.38580(15) 0.5635(4)
H10 H 0.8751 0.3602 0.6514
H11 H 0.7215 0.3946 0.5463
C8 C 0.9379(6) 0.43682(18) 0.6117(5)
H12 H 1.0493 0.4282 0.6214
H13 H 0.8932 0.4629 0.5255
C9 C 0.9485(6) 0.4628(2) 0.7588(6)
H14 H 0.9909 0.4366 0.8449
H15 H 0.8375 0.4724 0.7484
C10 C 1.0544(7) 0.5125(2) 0.8060(6)
H16 H 1.1641 0.5040 0.8138
H17 H 1.0590 0.5252 0.9076
H18 H 1.0080 0.5401 0.7268
C11 C 0.5820(3) 0.24119(11) 0.7146(3)
C12 C 0.4791(3) 0.32110(11) 0.6829(3)
C13 C 0.6185(3) 0.32139(11) 0.8275(3)
C14 C 0.6696(4) 0.36800(12) 0.9197(3)
H19 H 0.7616 0.3679 1.0157
C15 C 0.5789(4) 0.41398(13) 0.8631(4)
H20 H 0.6104 0.4458 0.9218
C16 C 0.4399(4) 0.41428(13) 0.7191(4)
H21 H 0.3812 0.4463 0.6842
C17 C 0.3883(4) 0.36848(12) 0.6285(4)
H22 H 0.2953 0.3689 0.5333
N1 N 0.4582(3) 0.26977(9) 0.6154(2)
N2 N 0.6801(3) 0.26989(10) 0.8444(3)
S1 S 0.61827(9) 0.17206(3) 0.69501(9)
H23 H 0.755(3) 0.2588(11) 0.913(3)
loop_
_geom_bond_atom_site_label_1
_geom_bond_atom_site_label_2
_geom_bond_site_symmetry_1
_geom_bond_site_symmetry_2
Br1 C1 1_555 1_555
C1 H1 1_555 1_555
C2 C1 1_555 1_555
C3 C2 1_555 1_555
H2 C3 1_555 1_555
H3 C3 1_555 1_555
C4 C3 1_555 1_555
H4 C4 1_555 1_555
H5 C4 1_555 1_555
C5 C4 1_555 1_555
H6 C5 1_555 1_555
H7 C5 1_555 1_555
C6 C5 1_555 1_555
H8 C6 1_555 1_555
H9 C6 1_555 1_555
C7 C6 1_555 1_555
H10 C7 1_555 1_555
H11 C7 1_555 1_555
C8 C7 1_555 1_555
H12 C8 1_555 1_555
H13 C8 1_555 1_555
C9 C8 1_555 1_555
H14 C9 1_555 1_555
H15 C9 1_555 1_555
C10 C9 1_555 1_555
H16 C10 1_555 1_555
H17 C10 1_555 1_555
H18 C10 1_555 1_555
C11 N1 1_555 1_555
C12 C13 1_555 1_555
C13 C14 1_555 1_555
C14 H19 1_555 1_555
C15 C14 1_555 1_555
H20 C15 1_555 1_555
C16 C15 1_555 1_555
H21 C16 1_555 1_555
C17 C12 1_555 1_555
H22 C17 1_555 1_555
N1 C12 1_555 1_555
N2 C11 1_555 1_555
S1 C2 1_555 1_555
H23 N2 1_555 1_555
C11 S1 1_555 1_555
C13 N2 1_555 1_555
C16 C17 1_555 1_555

#END
