
#######################################################################
#
#                 Cambridge Crystallographic Data Centre
#                                CCDC 
#
#######################################################################
#
# If this CIF has been generated from an entry in the Cambridge 
# Structural Database, then it will include bibliographic, chemical, 
# crystal, experimental, refinement or atomic coordinate data resulting 
# from the CCDC's data processing and validation procedures.
#
#######################################################################

data_EMAGOQ
_chemical_formula_moiety         'C21 H13 Cl1 N4 O2 S1,1.25(C1 H2 Cl2)'
_chemical_name_systematic        
"5'-amino-5-chloro-1-methyl-2-oxo-2'-phenyl-1,2-dihydrospiro[indole-3,7'-pyrano[2,3-d][1,3]thiazole]-6'-carbonitrile dichloromethane solvate"
_symmetry_cell_setting           orthorhombic
_symmetry_space_group_name_H-M   'P 21 21 21'
_symmetry_Int_Tables_number      19
_space_group_name_Hall           'P 2ac 2ab'
loop_
_symmetry_equiv_pos_site_id
_symmetry_equiv_pos_as_xyz
1 x,y,z
2 1/2-x,-y,1/2+z
3 -x,1/2+y,1/2-z
4 1/2+x,1/2-y,-z
_cell_length_a                   12.4973(2)
_cell_length_b                   24.2521(3)
_cell_length_c                   30.8995(4)
_cell_angle_alpha                90
_cell_angle_beta                 90
_cell_angle_gamma                90
_cell_volume                     9365.2
_exptl_crystal_colour            colorless
_exptl_crystal_description       prism
_cell_formula_units_Z            16
loop_
_atom_site_label
_atom_site_type_symbol
_atom_site_fract_x
_atom_site_fract_y
_atom_site_fract_z
S1 S 0.22905(13) 0.68620(6) 0.20155(5)
Cl1 Cl -0.0751(2) 0.79429(9) 0.33867(8)
O1 O 0.2538(4) 0.5523(2) 0.26817(15)
O2 O -0.0051(4) 0.58694(17) 0.18551(12)
N1 N 0.2523(5) 0.6258(3) 0.31557(18)
N2 N 0.1080(4) 0.64147(19) 0.14473(15)
N3 N -0.1237(5) 0.5390(2) 0.22301(16)
H1 H -0.139(6) 0.518(2) 0.2411(16)
H2 H -0.150(6) 0.536(3) 0.2004(13)
N4 N -0.0467(6) 0.5491(3) 0.33531(19)
C1 C 0.1854(7) 0.6689(3) 0.3248(2)
C2 C 0.1920(7) 0.7078(3) 0.3584(2)
H3 H 0.2506 0.7085 0.3779
C3 C 0.1088(8) 0.7450(3) 0.3614(2)
H4 H 0.1095 0.7716 0.3840
C4 C 0.0259(8) 0.7446(3) 0.3330(3)
C5 C 0.0184(6) 0.7073(3) 0.3000(2)
H5 H -0.0403 0.7076 0.2805
C6 C 0.0995(6) 0.6694(3) 0.2963(2)
C7 C 0.1140(5) 0.6216(3) 0.2638(2)
C8 C 0.1335(5) 0.6401(2) 0.2188(2)
C9 C 0.0794(5) 0.6225(2) 0.18407(19)
C10 C -0.0359(5) 0.5699(2) 0.22548(19)
C11 C 0.0168(5) 0.5841(3) 0.26211(19)
C12 C -0.0205(5) 0.5644(3) 0.30237(19)
C13 C 0.1872(5) 0.6754(2) 0.14883(19)
C14 C 0.2333(5) 0.7067(2) 0.11331(19)
C15 C 0.1911(7) 0.7023(3) 0.0726(2)
H6 H 0.1353 0.6767 0.0672
C16 C 0.2295(8) 0.7354(3) 0.0388(2)
H7 H 0.2007 0.7315 0.0105
C17 C 0.3077(7) 0.7730(3) 0.0464(2)
H8 H 0.3324 0.7959 0.0235
C18 C 0.3513(6) 0.7781(3) 0.0867(3)
H9 H 0.4053 0.8049 0.0919
C19 C 0.3166(6) 0.7443(3) 0.1200(3)
H10 H 0.3497 0.7467 0.1477
C20 C 0.2135(6) 0.5935(3) 0.2821(2)
C21 C 0.3497(7) 0.6134(4) 0.3379(3)
H11 H 0.3998 0.6442 0.3346
H12 H 0.3814 0.5798 0.3258
H13 H 0.3345 0.6077 0.3687
S2 S 0.76970(13) 0.34270(6) 0.21553(5)
Cl2 Cl 1.14307(15) 0.20839(7) 0.30759(6)
O3 O 0.8067(3) 0.46354(17) 0.28881(13)
O4 O 1.0009(4) 0.43585(19) 0.18043(13)
N5 N 0.8457(4) 0.39138(19) 0.33338(16)
N6 N 0.8553(5) 0.3925(2) 0.15086(16)
N7 N 1.1444(5) 0.4778(3) 0.20702(18)
H14 H 1.151(6) 0.490(3) 0.1840(12)
H15 H 1.179(6) 0.488(3) 0.2259(16)
N8 N 1.1663(6) 0.4398(3) 0.31831(19)
C22 C 0.9115(5) 0.3447(2) 0.33243(19)
C23 C 0.9297(5) 0.3066(2) 0.3650(2)
H16 H 0.8940 0.3091 0.3921
C24 C 1.0015(5) 0.2648(3) 0.3566(2)
H17 H 1.0151 0.2376 0.3780
C25 C 1.0540(5) 0.2622(3) 0.3171(2)
C26 C 1.0371(5) 0.3012(3) 0.2852(2)
H18 H 1.0747 0.2997 0.2585
C27 C 0.9651(5) 0.3419(2) 0.29326(18)
C28 C 0.9371(5) 0.3919(2) 0.26644(19)
C29 C 0.8835(5) 0.3808(2) 0.22408(18)
C30 C 0.9129(5) 0.4028(2) 0.18613(19)
C31 C 1.0600(5) 0.4469(3) 0.2161(2)
C32 C 1.0348(5) 0.4269(3) 0.25620(18)
C33 C 1.1075(5) 0.4351(3) 0.2898(2)
C34 C 0.7740(6) 0.3608(3) 0.1611(2)
C35 C 0.6925(6) 0.3420(3) 0.1311(2)
C36 C 0.7117(7) 0.3462(3) 0.0868(2)
H19 H 0.7780 0.3604 0.0767
C37 C 0.6342(8) 0.3298(3) 0.0573(3)
H20 H 0.6485 0.3315 0.0272
C38 C 0.5389(8) 0.3114(4) 0.0714(3)
H21 H 0.4852 0.3012 0.0512
C39 C 0.5187(7) 0.3074(4) 0.1160(3)
H22 H 0.4517 0.2939 0.1260
C40 C 0.5943(7) 0.3227(4) 0.1445(3)
H23 H 0.5797 0.3201 0.1746
C41 C 0.8550(5) 0.4215(2) 0.29725(18)
C42 C 0.7672(6) 0.4036(3) 0.3672(2)
H24 H 0.7532 0.4433 0.3678
H25 H 0.7954 0.3918 0.3953
H26 H 0.7006 0.3838 0.3610
S3 S 0.59038(12) 0.47884(6) 0.08848(5)
Cl3 Cl 0.45964(15) 0.67845(8) -0.02569(6)
O5 O 0.8066(4) 0.43079(18) 0.01235(15)
O6 O 0.8538(3) 0.55649(18) 0.10280(13)
N9 N 0.6837(4) 0.4674(2) -0.03409(17)
N10 N 0.7257(4) 0.5130(2) 0.14484(16)
N11 N 0.9785(4) 0.5990(2) 0.06460(17)
H27 H 1.013(5) 0.600(3) 0.0853(14)
H28 H 1.006(5) 0.600(3) 0.0421(12)
N12 N 0.8998(5) 0.5919(2) -0.04757(18)
C43 C 0.6228(5) 0.5154(3) -0.0373(2)
C44 C 0.5494(6) 0.5295(3) -0.0682(2)
H29 H 0.5336 0.5054 -0.0915
C45 C 0.4981(6) 0.5810(3) -0.0642(2)
H30 H 0.4459 0.5920 -0.0848
C46 C 0.5240(5) 0.6152(3) -0.0304(2)
C47 C 0.5992(5) 0.6013(3) 0.0006(2)
H31 H 0.6173 0.6258 0.0235
C48 C 0.6463(5) 0.5506(3) -0.00349(18)
C49 C 0.7323(5) 0.5238(2) 0.02480(18)
C50 C 0.7019(5) 0.5142(2) 0.0705(2)
C51 C 0.7606(5) 0.5277(2) 0.10505(19)
C52 C 0.8882(5) 0.5706(2) 0.06285(19)
C53 C 0.8351(5) 0.5569(2) 0.02599(19)
C54 C 0.8730(5) 0.5766(2) -0.01443(19)
C55 C 0.6353(5) 0.4868(2) 0.1414(2)
C56 C 0.5705(5) 0.4669(3) 0.1777(2)
C57 C 0.6105(6) 0.4712(3) 0.2197(2)
H32 H 0.6808 0.4848 0.2244
C58 C 0.5478(7) 0.4556(4) 0.2543(3)
H33 H 0.5748 0.4585 0.2829
C59 C 0.4446(7) 0.4356(4) 0.2472(3)
H34 H 0.4002 0.4260 0.2709
C60 C 0.4077(6) 0.4300(3) 0.2053(3)
H35 H 0.3385 0.4151 0.2003
C61 C 0.4692(6) 0.4455(3) 0.1712(3)
H36 H 0.4424 0.4417 0.1426
C62 C 0.7475(5) 0.4684(2) 0.0010(2)
C63 C 0.6799(7) 0.4219(3) -0.0647(2)
H37 H 0.7316 0.3936 -0.0561
H38 H 0.6976 0.4355 -0.0937
H39 H 0.6078 0.4060 -0.0649
S4 S 0.36626(12) 0.57272(6) 0.06080(5)
Cl4 Cl 0.42820(16) 0.34416(7) -0.03831(6)
O7 O 0.1311(4) 0.60955(17) -0.00698(14)
O8 O 0.1233(3) 0.49079(18) 0.09890(13)
N13 N 0.2063(4) 0.5545(2) -0.05904(16)
N14 N 0.2668(4) 0.5365(2) 0.12787(15)
N15 N -0.0178(5) 0.4455(2) 0.07292(18)
H40 H -0.061(4) 0.439(3) 0.0559(16)
H41 H -0.029(5) 0.441(3) 0.0972(10)
N16 N -0.0008(6) 0.4565(3) -0.0447(2)
C64 C 0.2636(5) 0.5049(2) -0.06011(19)
C65 C 0.3061(6) 0.4785(3) -0.0949(2)
H42 H 0.3006 0.4938 -0.1231
C66 C 0.3580(6) 0.4284(3) -0.0883(2)
H43 H 0.3867 0.4084 -0.1120
C67 C 0.3672(6) 0.4080(3) -0.0466(2)
C68 C 0.3239(5) 0.4347(3) -0.01133(19)
H44 H 0.3303 0.4199 0.0170
C69 C 0.2712(5) 0.4833(2) -0.01878(18)
C70 C 0.2050(5) 0.5182(2) 0.01134(18)
C71 C 0.2534(5) 0.5346(2) 0.05283(18)
C72 C 0.2136(5) 0.5205(2) 0.09212(19)
C73 C 0.0686(5) 0.4750(2) 0.0623(2)
C74 C 0.1017(5) 0.4874(2) 0.02200(19)
C75 C 0.0422(5) 0.4686(3) -0.0140(2)
C76 C 0.3507(5) 0.5656(2) 0.11612(17)
C77 C 0.4300(5) 0.5886(2) 0.1459(2)
C78 C 0.4179(6) 0.5804(3) 0.1903(2)
H45 H 0.3579 0.5606 0.2011
C79 C 0.4931(7) 0.6008(3) 0.2184(2)
H46 H 0.4837 0.5961 0.2486
C80 C 0.5813(7) 0.6278(3) 0.2031(3)
H47 H 0.6342 0.6405 0.2229
C81 C 0.5942(6) 0.6369(3) 0.1600(3)
H48 H 0.6555 0.6560 0.1497
C82 C 0.5173(6) 0.6179(3) 0.1312(2)
H49 H 0.5248 0.6252 0.1012
C83 C 0.1767(5) 0.5679(3) -0.01802(19)
C84 C 0.1764(7) 0.5870(3) -0.0966(2)
H50 H 0.1245 0.6153 -0.0881
H51 H 0.1443 0.5628 -0.1185
H52 H 0.2402 0.6047 -0.1087
Cl5 Cl 0.2997(6) 0.1464(2) 0.18195(16)
Cl6 Cl 0.3962(3) 0.0537(2) 0.13998(11)
C85 C 0.3160(9) 0.0731(6) 0.1816(4)
H53 H 0.3479 0.0609 0.2093
H54 H 0.2452 0.0551 0.1785
Cl7 Cl 0.6145(2) 0.17084(12) 0.04534(10)
Cl8 Cl 0.4355(2) 0.20132(10) -0.00970(10)
C86 C 0.4735(9) 0.1727(5) 0.0393(4)
H55 H 0.4449 0.1348 0.0413
H56 H 0.4421 0.1946 0.0632
C89 C 0.2580(7) 0.2576(4) 0.4161(4)
H61 H 0.2314 0.2884 0.4341
H62 H 0.2425 0.2666 0.3855
Cl13 Cl 0.1906(3) 0.19871(14) 0.42988(11)
Cl14 Cl 0.3944(2) 0.25216(13) 0.42270(13)
Cl15 Cl 0.3364(9) 0.2832(4) 0.2178(5)
Cl16 Cl 0.5313(10) 0.2680(8) 0.2633(6)
C90 C 0.3979(16) 0.2849(16) 0.2688(7)
H63 H 0.3910 0.3222 0.2815
H64 H 0.3623 0.2583 0.2884
Cl17 Cl 0.2571(8) 0.3737(3) 0.1002(3)
Cl18 Cl 0.2278(5) 0.2678(3) 0.0603(3)
C91 C 0.1812(12) 0.3343(5) 0.0648(5)
H65 H 0.1061 0.3335 0.0751
H66 H 0.1819 0.3519 0.0359
Cl9? Cl 0.2379(13) 0.2112(5) 0.4279(4)
Cl10? Cl 0.3668(9) 0.2775(4) 0.3735(4)
C87? C 0.263(3) 0.2767(8) 0.4100(12)
H57? H 0.2815 0.3005 0.4350
H58? H 0.1982 0.2919 0.3962
Cl11? Cl 0.5330(10) 0.2969(6) 0.2766(5)
Cl12? Cl 0.3251(5) 0.3255(2) 0.3086(2)
C88? C 0.4565(13) 0.3157(14) 0.3210(6)
H59? H 0.4621 0.2866 0.3434
H60? H 0.4857 0.3502 0.3334
Cl19? Cl 0.250(2) 0.3578(6) 0.0954(8)
Cl20? Cl 0.2535(9) 0.2402(5) 0.0884(5)
C92? C 0.216(3) 0.3019(9) 0.0648(8)
H67? H 0.2514 0.3050 0.0362
H68? H 0.1381 0.3017 0.0601
loop_
_geom_bond_atom_site_label_1
_geom_bond_atom_site_label_2
_geom_bond_site_symmetry_1
_geom_bond_site_symmetry_2
S1 C8 1_555 1_555
Cl1 C4 1_555 1_555
O1 C20 1_555 1_555
O2 C9 1_555 1_555
N1 C1 1_555 1_555
N2 C9 1_555 1_555
N3 H1 1_555 1_555
H2 N3 1_555 1_555
N4 C12 1_555 1_555
C1 C2 1_555 1_555
C2 H3 1_555 1_555
C3 C2 1_555 1_555
H4 C3 1_555 1_555
C4 C3 1_555 1_555
C5 C4 1_555 1_555
H5 C5 1_555 1_555
C6 C1 1_555 1_555
C7 C6 1_555 1_555
C8 C7 1_555 1_555
C9 C8 1_555 1_555
C10 O2 1_555 1_555
C11 C7 1_555 1_555
C12 C11 1_555 1_555
C13 S1 1_555 1_555
C14 C13 1_555 1_555
C15 C14 1_555 1_555
H6 C15 1_555 1_555
C16 C15 1_555 1_555
H7 C16 1_555 1_555
C17 C16 1_555 1_555
H8 C17 1_555 1_555
C18 C17 1_555 1_555
H9 C18 1_555 1_555
C19 C14 1_555 1_555
H10 C19 1_555 1_555
C20 N1 1_555 1_555
C21 N1 1_555 1_555
H11 C21 1_555 1_555
H12 C21 1_555 1_555
H13 C21 1_555 1_555
S2 C29 1_555 1_555
Cl2 C25 1_555 1_555
O3 C41 1_555 1_555
O4 C30 1_555 1_555
N5 C22 1_555 1_555
N6 C30 1_555 1_555
N7 H14 1_555 1_555
H15 N7 1_555 1_555
N8 C33 1_555 1_555
C22 C23 1_555 1_555
C23 H16 1_555 1_555
C24 C23 1_555 1_555
H17 C24 1_555 1_555
C25 C24 1_555 1_555
C26 C25 1_555 1_555
H18 C26 1_555 1_555
C27 C22 1_555 1_555
C28 C27 1_555 1_555
C29 C28 1_555 1_555
C30 C29 1_555 1_555
C31 O4 1_555 1_555
C32 C28 1_555 1_555
C33 C32 1_555 1_555
C34 S2 1_555 1_555
C35 C34 1_555 1_555
C36 C35 1_555 1_555
H19 C36 1_555 1_555
C37 C36 1_555 1_555
H20 C37 1_555 1_555
C38 C37 1_555 1_555
H21 C38 1_555 1_555
C39 C38 1_555 1_555
H22 C39 1_555 1_555
C40 C35 1_555 1_555
H23 C40 1_555 1_555
C41 N5 1_555 1_555
C42 N5 1_555 1_555
H24 C42 1_555 1_555
H25 C42 1_555 1_555
H26 C42 1_555 1_555
S3 C50 1_555 1_555
Cl3 C46 1_555 1_555
O5 C62 1_555 1_555
O6 C51 1_555 1_555
N9 C43 1_555 1_555
N10 C51 1_555 1_555
N11 H27 1_555 1_555
H28 N11 1_555 1_555
N12 C54 1_555 1_555
C43 C44 1_555 1_555
C44 H29 1_555 1_555
C45 C44 1_555 1_555
H30 C45 1_555 1_555
C46 C45 1_555 1_555
C47 C46 1_555 1_555
H31 C47 1_555 1_555
C48 C43 1_555 1_555
C49 C48 1_555 1_555
C50 C49 1_555 1_555
C51 C50 1_555 1_555
C52 O6 1_555 1_555
C53 C49 1_555 1_555
C54 C53 1_555 1_555
C55 S3 1_555 1_555
C56 C55 1_555 1_555
C57 C56 1_555 1_555
H32 C57 1_555 1_555
C58 C57 1_555 1_555
H33 C58 1_555 1_555
C59 C58 1_555 1_555
H34 C59 1_555 1_555
C60 C59 1_555 1_555
H35 C60 1_555 1_555
C61 C56 1_555 1_555
H36 C61 1_555 1_555
C62 N9 1_555 1_555
C63 N9 1_555 1_555
H37 C63 1_555 1_555
H38 C63 1_555 1_555
H39 C63 1_555 1_555
S4 C71 1_555 1_555
Cl4 C67 1_555 1_555
O7 C83 1_555 1_555
O8 C72 1_555 1_555
N13 C64 1_555 1_555
N14 C72 1_555 1_555
N15 H40 1_555 1_555
H41 N15 1_555 1_555
N16 C75 1_555 1_555
C64 C65 1_555 1_555
C65 H42 1_555 1_555
C66 C65 1_555 1_555
H43 C66 1_555 1_555
C67 C66 1_555 1_555
C68 C67 1_555 1_555
H44 C68 1_555 1_555
C69 C64 1_555 1_555
C70 C69 1_555 1_555
C71 C70 1_555 1_555
C72 C71 1_555 1_555
C73 O8 1_555 1_555
C74 C70 1_555 1_555
C75 C74 1_555 1_555
C76 S4 1_555 1_555
C77 C76 1_555 1_555
C78 C77 1_555 1_555
H45 C78 1_555 1_555
C79 C78 1_555 1_555
H46 C79 1_555 1_555
C80 C79 1_555 1_555
H47 C80 1_555 1_555
C81 C80 1_555 1_555
H48 C81 1_555 1_555
C82 C77 1_555 1_555
H49 C82 1_555 1_555
C83 N13 1_555 1_555
C84 N13 1_555 1_555
H50 C84 1_555 1_555
H51 C84 1_555 1_555
H52 C84 1_555 1_555
Cl5 C85 1_555 1_555
Cl6 C85 1_555 1_555
C85 H53 1_555 1_555
H54 C85 1_555 1_555
Cl7 C86 1_555 1_555
Cl8 C86 1_555 1_555
C86 H55 1_555 1_555
H56 C86 1_555 1_555
C89 H61 1_555 1_555
H62 C89 1_555 1_555
Cl13 C89 1_555 1_555
Cl14 C89 1_555 1_555
Cl15 C90 1_555 1_555
Cl16 C90 1_555 1_555
C90 H63 1_555 1_555
H64 C90 1_555 1_555
Cl17 C91 1_555 1_555
Cl18 C91 1_555 1_555
C91 H65 1_555 1_555
H66 C91 1_555 1_555
N2 C13 1_555 1_555
N3 C10 1_555 1_555
C5 C6 1_555 1_555
C7 C20 1_555 1_555
C10 C11 1_555 1_555
C18 C19 1_555 1_555
N6 C34 1_555 1_555
N7 C31 1_555 1_555
C26 C27 1_555 1_555
C28 C41 1_555 1_555
C31 C32 1_555 1_555
C39 C40 1_555 1_555
N10 C55 1_555 1_555
N11 C52 1_555 1_555
C47 C48 1_555 1_555
C49 C62 1_555 1_555
C52 C53 1_555 1_555
C60 C61 1_555 1_555
N14 C76 1_555 1_555
N15 C73 1_555 1_555
C68 C69 1_555 1_555
C70 C83 1_555 1_555
C73 C74 1_555 1_555
C81 C82 1_555 1_555

#END
