
#######################################################################
#
#                 Cambridge Crystallographic Data Centre
#                                CCDC 
#
#######################################################################
#
# If this CIF has been generated from an entry in the Cambridge 
# Structural Database, then it will include bibliographic, chemical, 
# crystal, experimental, refinement or atomic coordinate data resulting 
# from the CCDC's data processing and validation procedures.
#
#######################################################################

data_EMAJAD
_chemical_formula_moiety         'C24 H25 F3 N4 O1'
_chemical_name_systematic        
5-t-Butyl-4-phenyl-6-(N-trifluoroacetyl-N-propylamino)-2,3-benzo-1,3a,6a-triazapentalene
_symmetry_cell_setting           monoclinic
_symmetry_space_group_name_H-M   'P 21/c'
_symmetry_Int_Tables_number      14
_space_group_name_Hall           '-P 2ybc'
loop_
_symmetry_equiv_pos_site_id
_symmetry_equiv_pos_as_xyz
1 x,y,z
2 x,1/2-y,1/2+z
3 -x,-y,-z
4 -x,1/2+y,1/2-z
_cell_length_a                   9.7876(15)
_cell_length_b                   9.6582(8)
_cell_length_c                   24.3855(14)
_cell_angle_alpha                90.00
_cell_angle_beta                 98.099(8)
_cell_angle_gamma                90.00
_cell_volume                     2282.18
_cell_formula_units_Z            4
_chemical_properties_physical    moisture-sensitive
loop_
_atom_site_label
_atom_site_type_symbol
_atom_site_fract_x
_atom_site_fract_y
_atom_site_fract_z
C1 C 0.2885(13) 0.6457(9) -0.0171(5)
C2 C 0.3376(11) 0.6103(10) -0.0664(5)
C3 C 0.2396(18) 0.6235(14) -0.1129(6)
C4 C 0.1054(14) 0.6637(12) -0.1126(6)
C5 C 0.0559(13) 0.6989(10) -0.0651(6)
C6 C 0.1559(13) 0.6907(10) -0.0188(5)
C7 C 0.2601(13) 0.7115(11) 0.1212(5)
C8 C 0.4259(15) 0.565(2) 0.1772(5)
C9 C 0.337(2) 0.444(2) 0.1645(7)
C10 C 0.4886(13) 0.8006(17) 0.1704(6)
H1 H 0.4692 0.8425 0.2046
H2 H 0.5792 0.7584 0.1781
C11 C 0.497(2) 0.9028(19) 0.1341(7)
H3 H 0.4065 0.9449 0.1258
H4 H 0.5188 0.8620 0.1001
C12 C 0.5998(14) 1.0159(15) 0.1508(5)
H5 H 0.5972 1.0818 0.1212
H6 H 0.6907 0.9768 0.1585
H7 H 0.5772 1.0613 0.1834
C13 C 0.0586(12) 0.7668(10) 0.0745(5)
C14 C -0.0841(13) 0.7989(13) 0.0502(4)
C15 C -0.1257(16) 0.9323(16) 0.0380(5)
C16 C -0.2563(18) 0.9594(15) 0.0129(6)
C17 C -0.3453(16) 0.856(2) -0.0022(5)
C18 C -0.3079(14) 0.7216(17) 0.0092(5)
C19 C -0.1769(13) 0.6953(14) 0.0348(5)
C20 C 0.1363(13) 0.7629(10) 0.1275(5)
C21 C 0.0782(12) 0.8071(13) 0.1805(4)
C22 C 0.0627(17) 0.9657(14) 0.1789(5)
H8 H 0.0266 0.9965 0.2114
H9 H 0.0006 0.9920 0.1465
H10 H 0.1512 1.0075 0.1777
C23 C -0.0587(12) 0.7384(15) 0.1833(4)
H11 H -0.0927 0.7659 0.2167
H12 H -0.0474 0.6396 0.1831
H13 H -0.1234 0.7658 0.1519
C24 C 0.1776(13) 0.7679(18) 0.2318(4)
H14 H 0.1395 0.7951 0.2643
H15 H 0.2641 0.8143 0.2311
H16 H 0.1920 0.6696 0.2323
F1 F 0.2848(11) 0.4194(8) 0.1147(4)
F2 F 0.2273(13) 0.4458(12) 0.1890(5)
F3 F 0.3865(12) 0.3268(11) 0.1832(5)
N1 N 0.3641(9) 0.6418(8) 0.0353(4)
N2 N 0.2711(11) 0.6866(8) 0.0661(4)
N3 N 0.1409(10) 0.7176(8) 0.0381(4)
N4 N 0.3892(11) 0.6897(12) 0.1567(4)
O1 O 0.5373(10) 0.5399(10) 0.2069(4)
H17 H 0.459(10) 0.580(9) -0.069(3)
H18 H 0.263(8) 0.591(8) -0.136(3)
H19 H 0.045(9) 0.671(8) -0.146(4)
H20 H -0.054(9) 0.730(8) -0.061(3)
H21 H -0.070(8) 1.001(8) 0.050(3)
H22 H -0.285(10) 1.060(12) 0.006(4)
H23 H -0.427(8) 0.867(8) -0.016(3)
H24 H -0.380(10) 0.638(11) -0.003(4)
H25 H -0.146(9) 0.603(11) 0.045(4)
loop_
_geom_bond_atom_site_label_1
_geom_bond_atom_site_label_2
_geom_bond_site_symmetry_1
_geom_bond_site_symmetry_2
C1 C2 1_555 1_555
C2 C3 1_555 1_555
C3 C4 1_555 1_555
C4 C5 1_555 1_555
C5 C6 1_555 1_555
C6 C1 1_555 1_555
C7 C20 1_555 1_555
C8 C9 1_555 1_555
C9 F1 1_555 1_555
C10 H1 1_555 1_555
H2 C10 1_555 1_555
C11 C10 1_555 1_555
H3 C11 1_555 1_555
H4 C11 1_555 1_555
C12 C11 1_555 1_555
H5 C12 1_555 1_555
H6 C12 1_555 1_555
H7 C12 1_555 1_555
C13 C14 1_555 1_555
C14 C15 1_555 1_555
C15 C16 1_555 1_555
C16 C17 1_555 1_555
C17 C18 1_555 1_555
C18 C19 1_555 1_555
C19 C14 1_555 1_555
C20 C13 1_555 1_555
C21 C20 1_555 1_555
C22 C21 1_555 1_555
H8 C22 1_555 1_555
H9 C22 1_555 1_555
H10 C22 1_555 1_555
C23 C21 1_555 1_555
H11 C23 1_555 1_555
H12 C23 1_555 1_555
H13 C23 1_555 1_555
C24 C21 1_555 1_555
H14 C24 1_555 1_555
H15 C24 1_555 1_555
H16 C24 1_555 1_555
F2 C9 1_555 1_555
F3 C9 1_555 1_555
N1 C1 1_555 1_555
N2 C7 1_555 1_555
N3 C6 1_555 1_555
N4 C7 1_555 1_555
O1 C8 1_555 1_555
H17 C2 1_555 1_555
H18 C3 1_555 1_555
H19 C4 1_555 1_555
H20 C5 1_555 1_555
H21 C15 1_555 1_555
H22 C16 1_555 1_555
H23 C17 1_555 1_555
H24 C18 1_555 1_555
H25 C19 1_555 1_555
C8 N4 1_555 1_555
C10 N4 1_555 1_555
C13 N3 1_555 1_555
N1 N2 1_555 1_555
N2 N3 1_555 1_555

#END
