
#######################################################################
#
#                 Cambridge Crystallographic Data Centre
#                                CCDC 
#
#######################################################################
#
# If this CIF has been generated from an entry in the Cambridge 
# Structural Database, then it will include bibliographic, chemical, 
# crystal, experimental, refinement or atomic coordinate data resulting 
# from the CCDC's data processing and validation procedures.
#
#######################################################################

data_EMANUD
_chemical_formula_moiety         'C32 H42 N2 O2 S2'
_chemical_name_systematic        
1,5-dioctyl-3,7-bis(2-thienyl)-1,5-dihydro-1,5-naphthyridine-2,6-dione
_symmetry_cell_setting           monoclinic
_symmetry_space_group_name_H-M   'P 21/c'
_symmetry_Int_Tables_number      14
_space_group_name_Hall           '-P 2ybc'
loop_
_symmetry_equiv_pos_site_id
_symmetry_equiv_pos_as_xyz
1 x,y,z
2 -x,1/2+y,1/2-z
3 -x,-y,-z
4 x,1/2-y,1/2+z
_cell_length_a                   16.0039(3)
_cell_length_b                   5.66780(10)
_cell_length_c                   17.5189(3)
_cell_angle_alpha                90
_cell_angle_beta                 111.9180(10)
_cell_angle_gamma                90
_cell_volume                     1474.22
_exptl_crystal_colour            violet
_exptl_crystal_description       needle
_cell_formula_units_Z            2
_exptl_crystal_preparation       Luminescent
loop_
_atom_site_label
_atom_site_type_symbol
_atom_site_fract_x
_atom_site_fract_y
_atom_site_fract_z
S1 S 1.04955(3) 0.73320(7) 0.19812(2)
O1 O 0.91233(7) 0.45835(18) 0.10589(6)
N1 N 0.91084(7) 0.1446(2) 0.02452(7)
C1 C 1.14792(11) 0.8791(3) 0.24612(9)
H1 H 1.1543 1.0091 0.2821
C2 C 1.21651(11) 0.7888(3) 0.22735(10)
H2 H 1.2761 0.8497 0.2485
C3 C 1.18982(10) 0.5948(3) 0.17298(10)
H3 H 1.2296 0.5100 0.1541
C4 C 1.09888(9) 0.5416(3) 0.15021(8)
C5 C 1.05046(9) 0.3528(2) 0.09501(8)
C6 C 0.95435(9) 0.3258(2) 0.07710(8)
C7 C 0.95422(8) -0.0141(2) -0.00867(8)
C8 C 0.90765(9) -0.2020(2) -0.06004(8)
H4 H 0.8455 -0.2238 -0.0705
C9 C 0.81334(8) 0.1249(3) 0.00685(8)
H5 H 0.7824 0.0652 -0.0499
H6 H 0.7889 0.2834 0.0101
C10 C 0.79381(9) -0.0396(3) 0.06672(9)
H7 H 0.8293 0.0108 0.1238
H8 H 0.8126 -0.2019 0.0595
C11 C 0.69409(9) -0.0392(3) 0.05302(9)
H9 H 0.6774 0.1186 0.0670
H10 H 0.6585 -0.0683 -0.0060
C12 C 0.66962(9) -0.2243(3) 0.10412(9)
H11 H 0.7039 -0.1923 0.1631
H12 H 0.6881 -0.3815 0.0914
C13 C 0.56951(10) -0.2305(3) 0.08897(10)
H13 H 0.5525 -0.0794 0.1076
H14 H 0.5348 -0.2447 0.0291
C14 C 0.54367(9) -0.4318(3) 0.13277(9)
H15 H 0.5779 -0.4158 0.1927
H16 H 0.5619 -0.5824 0.1149
C15 C 0.44377(10) -0.4440(3) 0.11745(11)
H17 H 0.4245 -0.2919 0.1334
H18 H 0.4093 -0.4682 0.0580
C16 C 0.42235(12) -0.6422(4) 0.16554(13)
H19 H 0.3576 -0.6430 0.1543
H20 H 0.4558 -0.6179 0.2245
H21 H 0.4398 -0.7935 0.1488
S1B S 0.95045(3) -0.73320(7) -0.19812(2)
O1B O 1.08767(7) -0.45835(18) -0.10589(6)
N1B N 1.08916(7) -0.1446(2) -0.02452(7)
C1B C 0.85208(11) -0.8791(3) -0.24612(9)
H1B H 0.8457 -1.0091 -0.2821
C2B C 0.78349(11) -0.7888(3) -0.22735(10)
H2B H 0.7239 -0.8497 -0.2485
C3B C 0.81018(10) -0.5948(3) -0.17298(10)
H3B H 0.7704 -0.5100 -0.1541
C4B C 0.90112(9) -0.5416(3) -0.15021(8)
C5B C 0.94954(9) -0.3528(2) -0.09501(8)
C6B C 1.04565(9) -0.3258(2) -0.07710(8)
C7B C 1.04578(8) 0.0141(2) 0.00867(8)
C8B C 1.09235(9) 0.2020(2) 0.06004(8)
H4B H 1.1545 0.2238 0.0705
C9B C 1.18666(8) -0.1249(3) -0.00685(8)
H5B H 1.2176 -0.0652 0.0499
H6B H 1.2111 -0.2834 -0.0101
C10B C 1.20619(9) 0.0396(3) -0.06672(9)
H7B H 1.1707 -0.0108 -0.1238
H8B H 1.1874 0.2019 -0.0595
C11B C 1.30591(9) 0.0392(3) -0.05302(9)
H9B H 1.3226 -0.1186 -0.0670
H10B H 1.3415 0.0683 0.0060
C12B C 1.33038(9) 0.2243(3) -0.10412(9)
H11B H 1.2961 0.1923 -0.1631
H12B H 1.3119 0.3815 -0.0914
C13B C 1.43049(10) 0.2305(3) -0.08897(10)
H13B H 1.4475 0.0794 -0.1076
H14B H 1.4652 0.2447 -0.0291
C14B C 1.45633(9) 0.4318(3) -0.13277(9)
H15B H 1.4221 0.4158 -0.1927
H16B H 1.4381 0.5824 -0.1149
C15B C 1.55623(10) 0.4440(3) -0.11745(11)
H17B H 1.5755 0.2919 -0.1334
H18B H 1.5907 0.4682 -0.0580
C16B C 1.57765(12) 0.6422(4) -0.16554(13)
H19B H 1.6424 0.6430 -0.1543
H20B H 1.5442 0.6179 -0.2245
H21B H 1.5602 0.7935 -0.1488
loop_
_geom_bond_atom_site_label_1
_geom_bond_atom_site_label_2
_geom_bond_site_symmetry_1
_geom_bond_site_symmetry_2
S1 C1 1_555 1_555
O1 C6 1_555 1_555
N1 C6 1_555 1_555
C1 H1 1_555 1_555
C2 C1 1_555 1_555
H2 C2 1_555 1_555
C3 C2 1_555 1_555
H3 C3 1_555 1_555
C4 S1 1_555 1_555
C5 C4 1_555 1_555
C6 C5 1_555 1_555
C7 N1 1_555 1_555
C8 C7 1_555 1_555
H4 C8 1_555 1_555
C9 N1 1_555 1_555
H5 C9 1_555 1_555
H6 C9 1_555 1_555
C10 C9 1_555 1_555
H7 C10 1_555 1_555
H8 C10 1_555 1_555
C11 C10 1_555 1_555
H9 C11 1_555 1_555
H10 C11 1_555 1_555
C12 C11 1_555 1_555
H11 C12 1_555 1_555
H12 C12 1_555 1_555
C13 C12 1_555 1_555
H13 C13 1_555 1_555
H14 C13 1_555 1_555
C14 C13 1_555 1_555
H15 C14 1_555 1_555
H16 C14 1_555 1_555
C15 C14 1_555 1_555
H17 C15 1_555 1_555
H18 C15 1_555 1_555
C16 C15 1_555 1_555
H19 C16 1_555 1_555
H20 C16 1_555 1_555
H21 C16 1_555 1_555
S1B C1B 1_555 1_555
O1B C6B 1_555 1_555
N1B C6B 1_555 1_555
C1B H1B 1_555 1_555
C2B C1B 1_555 1_555
H2B C2B 1_555 1_555
C3B C2B 1_555 1_555
H3B C3B 1_555 1_555
C4B S1B 1_555 1_555
C5B C8 1_555 1_555
C6B C5B 1_555 1_555
C7B C7 1_555 1_555
C8B C5 1_555 1_555
H4B C8B 1_555 1_555
C9B N1B 1_555 1_555
H5B C9B 1_555 1_555
H6B C9B 1_555 1_555
C10B C9B 1_555 1_555
H7B C10B 1_555 1_555
H8B C10B 1_555 1_555
C11B C10B 1_555 1_555
H9B C11B 1_555 1_555
H10B C11B 1_555 1_555
C12B C11B 1_555 1_555
H11B C12B 1_555 1_555
H12B C12B 1_555 1_555
C13B C12B 1_555 1_555
H13B C13B 1_555 1_555
H14B C13B 1_555 1_555
C14B C13B 1_555 1_555
H15B C14B 1_555 1_555
H16B C14B 1_555 1_555
C15B C14B 1_555 1_555
H17B C15B 1_555 1_555
H18B C15B 1_555 1_555
C16B C15B 1_555 1_555
H19B C16B 1_555 1_555
H20B C16B 1_555 1_555
H21B C16B 1_555 1_555
C3 C4 1_555 1_555
N1B C7B 1_555 1_555
C3B C4B 1_555 1_555
C4B C5B 1_555 1_555
C7B C8B 1_555 1_555

#END
