
#######################################################################
#
#                 Cambridge Crystallographic Data Centre
#                                CCDC 
#
#######################################################################
#
# If this CIF has been generated from an entry in the Cambridge 
# Structural Database, then it will include bibliographic, chemical, 
# crystal, experimental, refinement or atomic coordinate data resulting 
# from the CCDC's data processing and validation procedures.
#
#######################################################################

data_EMAPUF
_chemical_formula_moiety         'C15 H20 Br1 N1 O4 S1'
_chemical_name_systematic        
'methyl (((2-bromophenyl)((t-butoxycarbonyl)amino)methyl)sulfanyl)acetate'
_symmetry_cell_setting           orthorhombic
_symmetry_space_group_name_H-M   'P 21 21 21'
_symmetry_Int_Tables_number      19
_space_group_name_Hall           'P 2ac 2ab'
loop_
_symmetry_equiv_pos_site_id
_symmetry_equiv_pos_as_xyz
1 x,y,z
2 1/2-x,-y,1/2+z
3 -x,1/2+y,1/2-z
4 1/2+x,1/2-y,-z
_cell_length_a                   5.1680(5)
_cell_length_b                   10.0269(12)
_cell_length_c                   32.073(4)
_cell_angle_alpha                90
_cell_angle_beta                 90
_cell_angle_gamma                90
_cell_volume                     1661.99
_exptl_crystal_colour            colorless
_exptl_crystal_description       Prism
_cell_formula_units_Z            4
loop_
_atom_site_label
_atom_site_type_symbol
_atom_site_fract_x
_atom_site_fract_y
_atom_site_fract_z
Br1 Br 0.67147(3) 0.519963(18) 0.043752(5)
S1 S 0.14534(9) 0.32254(4) 0.100435(13)
O1 O 0.7173(3) 0.06983(15) 0.10275(4)
C1 C 0.3547(4) 0.44598(17) 0.12566(5)
H1 H 0.5391 0.4242 0.1191
O2 O 0.4393(2) 0.41350(15) 0.23617(4)
N1 N 0.3187(3) 0.44075(15) 0.17061(4)
O3 O 0.7477(2) 0.44709(15) 0.18616(4)
O4 O 0.4924(3) 0.15072(15) 0.04859(4)
C2 C 0.3460(4) 0.74475(18) 0.05140(5)
H2 H 0.4331 0.7734 0.0269
C3 C 0.5226(3) 0.43450(19) 0.19683(5)
C4 C 0.2884(3) 0.57928(18) 0.10628(5)
C5 C 0.4096(3) 0.62468(19) 0.06990(5)
C6 C 0.5299(4) 0.12610(19) 0.08910(6)
C7 C 0.0918(3) 0.65911(19) 0.12286(6)
H3 H 0.0023 0.6300 0.1471
C8 C 0.7891(4) 0.2690(2) 0.26140(6)
H4 H 0.6745 0.1939 0.2550
H5 H 0.8947 0.2475 0.2859
H6 H 0.9024 0.2863 0.2375
C9 C 0.6284(4) 0.3918(2) 0.27035(5)
C10 C 0.1528(4) 0.82336(19) 0.06909(6)
H7 H 0.1087 0.9065 0.0568
C11 C 0.3052(4) 0.17037(19) 0.11586(5)
H8 H 0.3684 0.1816 0.1448
H9 H 0.1751 0.0979 0.1162
C12 C 0.4527(4) 0.3689(3) 0.30774(6)
H10 H 0.3404 0.4467 0.3116
H11 H 0.5584 0.3558 0.3328
H12 H 0.3462 0.2895 0.3029
C13 C 0.0246(4) 0.7799(2) 0.10475(6)
H13 H -0.1087 0.8329 0.1167
C14 C 0.7922(4) 0.5164(2) 0.27664(6)
H14 H 0.9099 0.5272 0.2529
H15 H 0.8930 0.5076 0.3024
H16 H 0.6790 0.5946 0.2787
C15 C 0.7011(4) 0.1085(2) 0.02129(6)
H17 H 0.8658 0.1432 0.0319
H18 H 0.6706 0.1429 -0.0069
H19 H 0.7077 0.0108 0.0205
H20 H 0.159(2) 0.433(2) 0.1810(6)
loop_
_geom_bond_atom_site_label_1
_geom_bond_atom_site_label_2
_geom_bond_site_symmetry_1
_geom_bond_site_symmetry_2
Br1 C5 1_555 1_555
S1 C1 1_555 1_555
O1 C6 1_555 1_555
C1 H1 1_555 1_555
O2 C3 1_555 1_555
N1 C1 1_555 1_555
O3 C3 1_555 1_555
O4 C6 1_555 1_555
C2 H2 1_555 1_555
C3 N1 1_555 1_555
C4 C1 1_555 1_555
C5 C2 1_555 1_555
C6 C11 1_555 1_555
C7 C4 1_555 1_555
H3 C7 1_555 1_555
C8 H4 1_555 1_555
H5 C8 1_555 1_555
H6 C8 1_555 1_555
C9 O2 1_555 1_555
C10 C2 1_555 1_555
H7 C10 1_555 1_555
C11 S1 1_555 1_555
H8 C11 1_555 1_555
H9 C11 1_555 1_555
C12 C9 1_555 1_555
H10 C12 1_555 1_555
H11 C12 1_555 1_555
H12 C12 1_555 1_555
C13 C7 1_555 1_555
H13 C13 1_555 1_555
C14 C9 1_555 1_555
H14 C14 1_555 1_555
H15 C14 1_555 1_555
H16 C14 1_555 1_555
C15 O4 1_555 1_555
H17 C15 1_555 1_555
H18 C15 1_555 1_555
H19 C15 1_555 1_555
H20 N1 1_555 1_555
C4 C5 1_555 1_555
C8 C9 1_555 1_555
C10 C13 1_555 1_555

#END
