
#######################################################################
#
#                 Cambridge Crystallographic Data Centre
#                                CCDC 
#
#######################################################################
#
# If this CIF has been generated from an entry in the Cambridge 
# Structural Database, then it will include bibliographic, chemical, 
# crystal, experimental, refinement or atomic coordinate data resulting 
# from the CCDC's data processing and validation procedures.
#
#######################################################################

data_EMASES
_chemical_formula_moiety         'C10 H8 F3 N1 O2 S1'
_chemical_name_systematic        
2-methyl-3-(2,2,2-trifluoroethylidene)-2,3-dihydro-1H-1,2-benzothiazole-1,1-dione
_symmetry_cell_setting           orthorhombic
_symmetry_space_group_name_H-M   'P n m a'
_symmetry_Int_Tables_number      62
_space_group_name_Hall           '-P 2ac 2n'
loop_
_symmetry_equiv_pos_site_id
_symmetry_equiv_pos_as_xyz
1 x,y,z
2 1/2-x,-y,1/2+z
3 -x,1/2+y,-z
4 1/2+x,1/2-y,1/2-z
5 -x,-y,-z
6 1/2+x,y,1/2-z
7 x,1/2-y,z
8 1/2-x,1/2+y,1/2+z
_cell_length_a                   14.812(6)
_cell_length_b                   7.272(3)
_cell_length_c                   10.024(4)
_cell_angle_alpha                90
_cell_angle_beta                 90
_cell_angle_gamma                90
_cell_volume                     1079.71
_exptl_crystal_colour            colorless
_exptl_crystal_description       block
_cell_formula_units_Z            4
loop_
_atom_site_label
_atom_site_type_symbol
_atom_site_fract_x
_atom_site_fract_y
_atom_site_fract_z
S1 S 0.32484(3) 0.2500 -0.12269(5)
F1 F 0.37832(15) 0.2500 0.48143(18)
F2 F 0.47660(11) 0.1065(2) 0.36688(12)
N1 N 0.29889(11) 0.2500 0.03506(18)
O1 O 0.29493(9) 0.08478(17) -0.18391(14)
C1 C 0.37193(14) 0.2500 0.12374(19)
C2 C 0.45590(12) 0.2500 0.0459(2)
C3 C 0.54516(15) 0.2500 0.0871(2)
H1 H 0.5595 0.2500 0.1774
C4 C 0.61249(14) 0.2500 -0.0083(3)
H2 H 0.6724 0.2500 0.0194
C5 C 0.59414(18) 0.2500 -0.1413(3)
H3 H 0.6412 0.2500 -0.2027
C6 C 0.50629(16) 0.2500 -0.1851(2)
H4 H 0.4926 0.2500 -0.2756
C7 C 0.43961(14) 0.2500 -0.0906(2)
C8 C 0.20437(15) 0.2500 0.0749(3)
C9 C 0.35579(17) 0.2500 0.2551(2)
H5 H 0.2954 0.2500 0.2803
C10 C 0.4217(2) 0.2500 0.3641(2)
F2F F 0.47660(11) 0.3935(2) 0.36688(12)
O1F O 0.29493(9) 0.41522(17) -0.18391(14)
H6? H 0.1952 0.1605 0.1440
H7? H 0.1673 0.2198 -0.0006
H8? H 0.1882 0.3697 0.1075
loop_
_geom_bond_atom_site_label_1
_geom_bond_atom_site_label_2
_geom_bond_site_symmetry_1
_geom_bond_site_symmetry_2
S1 N1 1_555 1_555
F1 C10 1_555 1_555
F2 C10 1_555 1_555
N1 C1 1_555 1_555
O1 S1 1_555 1_555
C1 C2 1_555 1_555
C2 C3 1_555 1_555
C3 H1 1_555 1_555
C4 C3 1_555 1_555
H2 C4 1_555 1_555
C5 C4 1_555 1_555
H3 C5 1_555 1_555
C6 C5 1_555 1_555
H4 C6 1_555 1_555
C7 S1 1_555 1_555
C8 N1 1_555 1_555
C9 C1 1_555 1_555
H5 C9 1_555 1_555
C10 C9 1_555 1_555
F2F C10 1_555 1_555
O1F S1 1_555 1_555
C2 C7 1_555 1_555
C6 C7 1_555 1_555

#END
