
#######################################################################
#
#                 Cambridge Crystallographic Data Centre
#                                CCDC 
#
#######################################################################
#
# If this CIF has been generated from an entry in the Cambridge 
# Structural Database, then it will include bibliographic, chemical, 
# crystal, experimental, refinement or atomic coordinate data resulting 
# from the CCDC's data processing and validation procedures.
#
#######################################################################

data_EMAXEX
_chemical_formula_moiety         'C39 H38 Si1'
_chemical_name_systematic        
15-(2,2'',4,4'',6,6''-Hexamethyl-1,1':3',1''-terphenyl-2'-yl)-15-methyl-15-silatetracyclo[6.6.1.0^2,7^.0^9,14^]pentadeca-2,4,6,9,11,13-hexaene
_symmetry_cell_setting           monoclinic
_symmetry_space_group_name_H-M   'I 2/a'
_symmetry_Int_Tables_number      15
_space_group_name_Hall           '-I 2ya'
loop_
_symmetry_equiv_pos_site_id
_symmetry_equiv_pos_as_xyz
1 x,y,z
2 1/2-x,y,-z
3 1/2+x,1/2+y,1/2+z
4 -x,1/2+y,1/2-z
5 -x,-y,-z
6 1/2+x,-y,z
7 1/2-x,1/2-y,1/2-z
8 x,1/2-y,1/2+z
_cell_length_a                   19.6428(10)
_cell_length_b                   9.1623(5)
_cell_length_c                   33.756(2)
_cell_angle_alpha                90
_cell_angle_beta                 94.1615(15)
_cell_angle_gamma                90
_cell_volume                     6059.16
_exptl_crystal_colour            colorless
_exptl_crystal_description       plate
_cell_formula_units_Z            8
loop_
_atom_site_label
_atom_site_type_symbol
_atom_site_fract_x
_atom_site_fract_y
_atom_site_fract_z
Si1 Si 0.38190(2) 0.36149(4) 0.14570(2)
C1 C 0.31352(7) 0.29172(15) 0.10600(4)
H1 H 0.3291 0.2272 0.0845
C2 C 0.26729(6) 0.22509(15) 0.13516(4)
C3 C 0.23384(7) 0.09167(16) 0.13294(5)
H2 H 0.2372 0.0302 0.1105
C4 C 0.19520(7) 0.04860(16) 0.16393(5)
H3 H 0.1718 -0.0422 0.1624
C5 C 0.19061(7) 0.13678(16) 0.19690(5)
H4 H 0.1649 0.1053 0.2181
C6 C 0.22365(7) 0.27201(15) 0.19924(4)
H5 H 0.2202 0.3328 0.2218
C7 C 0.26144(6) 0.31657(14) 0.16831(4)
C8 C 0.30249(6) 0.45603(14) 0.16474(4)
H6 H 0.3095 0.5189 0.1889
C9 C 0.27473(6) 0.52827(14) 0.12652(4)
C10 C 0.24402(7) 0.66383(15) 0.12149(4)
H7 H 0.2394 0.7258 0.1437
C11 C 0.21998(7) 0.70836(17) 0.08344(4)
H8 H 0.1991 0.8014 0.0797
C12 C 0.22633(7) 0.61779(18) 0.05113(4)
H9 H 0.2100 0.6494 0.0254
C13 C 0.25643(7) 0.48063(18) 0.05597(4)
H10 H 0.2601 0.4182 0.0337
C14 C 0.28109(6) 0.43624(15) 0.09365(4)
C15 C 0.45761(6) 0.47220(15) 0.13097(4)
C16 C 0.48239(7) 0.59008(15) 0.15479(4)
C17 C 0.54480(7) 0.65504(18) 0.14812(5)
H11 H 0.5610 0.7341 0.1644
C18 C 0.58343(8) 0.60565(19) 0.11807(5)
H12 H 0.6264 0.6487 0.1142
C19 C 0.55897(7) 0.49351(19) 0.09378(5)
H13 H 0.5849 0.4616 0.0727
C20 C 0.49670(7) 0.42600(16) 0.09963(4)
C21 C 0.44149(6) 0.65274(14) 0.18638(4)
C22 C 0.44861(7) 0.60158(15) 0.22563(4)
C23 C 0.40781(7) 0.66197(15) 0.25349(4)
H14 H 0.4118 0.6260 0.2800
C24 C 0.36149(7) 0.77310(15) 0.24374(4)
C25 C 0.35674(7) 0.82553(15) 0.20495(4)
H15 H 0.3257 0.9024 0.1980
C26 C 0.39625(7) 0.76825(15) 0.17608(4)
C27 C 0.50162(9) 0.48917(18) 0.23844(5)
H16 H 0.5435 0.5383 0.2488
H17 H 0.5114 0.4284 0.2156
H18 H 0.4845 0.4276 0.2593
C28 C 0.31957(9) 0.83942(19) 0.27475(5)
H19 H 0.2972 0.7617 0.2889
H20 H 0.2848 0.9039 0.2619
H21 H 0.3494 0.8959 0.2936
C29 C 0.39218(8) 0.83115(17) 0.13472(5)
H22 H 0.3559 0.9047 0.1322
H23 H 0.3821 0.7530 0.1153
H24 H 0.4359 0.8766 0.1297
C30 C 0.47063(7) 0.31060(18) 0.07114(4)
C31 C 0.48618(8) 0.16274(19) 0.07739(5)
C32 C 0.45650(9) 0.0589(2) 0.05124(6)
H25 H 0.4660 -0.0416 0.0559
C33 C 0.41348(10) 0.0988(3) 0.01871(6)
C34 C 0.40259(9) 0.2462(3) 0.01140(5)
H26 H 0.3754 0.2747 -0.0117
C35 C 0.43037(8) 0.3541(2) 0.03700(5)
C36 C 0.53717(9) 0.11509(19) 0.11049(5)
H27 H 0.5820 0.1566 0.1062
H28 H 0.5403 0.0083 0.1108
H29 H 0.5223 0.1494 0.1360
C37 C 0.37952(13) -0.0156(4) -0.00847(8)
H30 H 0.4091 -0.1017 -0.0090
H31 H 0.3719 0.0244 -0.0354
H32 H 0.3357 -0.0434 0.0014
C38 C 0.41921(9) 0.5131(3) 0.02787(5)
H33 H 0.3966 0.5593 0.0496
H34 H 0.3904 0.5231 0.0031
H35 H 0.4633 0.5605 0.0250
C39 C 0.41390(8) 0.21458(17) 0.18078(5)
H36 H 0.4086 0.1195 0.1676
H37 H 0.3876 0.2159 0.2044
H38 H 0.4622 0.2315 0.1887
loop_
_geom_bond_atom_site_label_1
_geom_bond_atom_site_label_2
_geom_bond_site_symmetry_1
_geom_bond_site_symmetry_2
Si1 C1 1_555 1_555
C1 H1 1_555 1_555
C2 C1 1_555 1_555
C3 C2 1_555 1_555
H2 C3 1_555 1_555
C4 C3 1_555 1_555
H3 C4 1_555 1_555
C5 C4 1_555 1_555
H4 C5 1_555 1_555
C6 C5 1_555 1_555
H5 C6 1_555 1_555
C7 C2 1_555 1_555
C8 Si1 1_555 1_555
H6 C8 1_555 1_555
C9 C8 1_555 1_555
C10 C9 1_555 1_555
H7 C10 1_555 1_555
C11 C10 1_555 1_555
H8 C11 1_555 1_555
C12 C11 1_555 1_555
H9 C12 1_555 1_555
C13 C12 1_555 1_555
H10 C13 1_555 1_555
C14 C1 1_555 1_555
C15 Si1 1_555 1_555
C16 C15 1_555 1_555
C17 C16 1_555 1_555
H11 C17 1_555 1_555
C18 C17 1_555 1_555
H12 C18 1_555 1_555
C19 C18 1_555 1_555
H13 C19 1_555 1_555
C20 C15 1_555 1_555
C21 C16 1_555 1_555
C22 C21 1_555 1_555
C23 C22 1_555 1_555
H14 C23 1_555 1_555
C24 C23 1_555 1_555
C25 C24 1_555 1_555
H15 C25 1_555 1_555
C26 C21 1_555 1_555
C27 C22 1_555 1_555
H16 C27 1_555 1_555
H17 C27 1_555 1_555
H18 C27 1_555 1_555
C28 C24 1_555 1_555
H19 C28 1_555 1_555
H20 C28 1_555 1_555
H21 C28 1_555 1_555
C29 C26 1_555 1_555
H22 C29 1_555 1_555
H23 C29 1_555 1_555
H24 C29 1_555 1_555
C30 C20 1_555 1_555
C31 C30 1_555 1_555
C32 C31 1_555 1_555
H25 C32 1_555 1_555
C33 C32 1_555 1_555
C34 C33 1_555 1_555
H26 C34 1_555 1_555
C35 C30 1_555 1_555
C36 C31 1_555 1_555
H27 C36 1_555 1_555
H28 C36 1_555 1_555
H29 C36 1_555 1_555
C37 C33 1_555 1_555
H30 C37 1_555 1_555
H31 C37 1_555 1_555
H32 C37 1_555 1_555
C38 C35 1_555 1_555
H33 C38 1_555 1_555
H34 C38 1_555 1_555
H35 C38 1_555 1_555
C39 Si1 1_555 1_555
H36 C39 1_555 1_555
H37 C39 1_555 1_555
H38 C39 1_555 1_555
C6 C7 1_555 1_555
C7 C8 1_555 1_555
C9 C14 1_555 1_555
C13 C14 1_555 1_555
C19 C20 1_555 1_555
C25 C26 1_555 1_555
C34 C35 1_555 1_555

#END
