
#######################################################################
#
#                 Cambridge Crystallographic Data Centre
#                                CCDC 
#
#######################################################################
#
# If this CIF has been generated from an entry in the Cambridge 
# Structural Database, then it will include bibliographic, chemical, 
# crystal, experimental, refinement or atomic coordinate data resulting 
# from the CCDC's data processing and validation procedures.
#
#######################################################################

data_EMAZUP
_chemical_formula_moiety         'C13 H13 N1 O3'
_chemical_name_systematic        
3-hydroxy-4-(hydroxyimino)-2-propylnaphthalen-1(4H)-one
_symmetry_cell_setting           monoclinic
_symmetry_space_group_name_H-M   'P 21/n'
_symmetry_Int_Tables_number      14
_space_group_name_Hall           '-P 2yn'
loop_
_symmetry_equiv_pos_site_id
_symmetry_equiv_pos_as_xyz
1 x,y,z
2 1/2-x,1/2+y,1/2-z
3 -x,-y,-z
4 1/2+x,1/2-y,1/2+z
_cell_length_a                   11.8478(4)
_cell_length_b                   6.9261(2)
_cell_length_c                   13.7030(4)
_cell_angle_alpha                90
_cell_angle_beta                 98.488(2)
_cell_angle_gamma                90
_cell_volume                     1112.14
_exptl_crystal_colour            colorless
_exptl_crystal_description       needle
_cell_formula_units_Z            4
loop_
_atom_site_label
_atom_site_type_symbol
_atom_site_fract_x
_atom_site_fract_y
_atom_site_fract_z
C1 C 0.48286(17) 0.2586(3) 0.48892(14)
C2 C 0.80362(17) 0.1189(3) 0.54348(15)
H1 H 0.8075 0.0831 0.4741
H2 H 0.8309 0.0075 0.5857
C3 C 0.60251(17) 0.2151(3) 0.47844(14)
C4 C 0.88151(17) 0.2923(3) 0.57197(16)
H3 H 0.8582 0.3996 0.5256
H4 H 0.8713 0.3359 0.6389
C5 C 1.00734(18) 0.2480(3) 0.57075(17)
H5 H 1.0319 0.1452 0.6183
H6 H 1.0527 0.3644 0.5886
H7 H 1.0183 0.2060 0.5045
C6 C 0.68198(17) 0.1622(3) 0.55478(14)
C7 C 0.65065(17) 0.1536(3) 0.65298(14)
C8 C 0.50428(19) 0.1964(3) 0.76360(14)
H8 H 0.5611 0.1641 0.8175
C9 C 0.53257(17) 0.2020(3) 0.66820(14)
C10 C 0.39493(19) 0.2373(3) 0.78058(16)
H9 H 0.3764 0.2323 0.8457
C11 C 0.31247(19) 0.2856(3) 0.70202(15)
H10 H 0.2371 0.3140 0.7136
C12 C 0.33821(18) 0.2931(3) 0.60681(15)
H11 H 0.2805 0.3264 0.5537
C13 C 0.44894(17) 0.2520(3) 0.58824(14)
N1 N 0.4241(4) 0.2941(13) 0.4038(2)
O1 O 0.31215(17) 0.3334(3) 0.40412(13)
H12 H 0.2805 0.3550 0.3462
O2 O 0.6298(12) 0.2354(17) 0.3863(5)
H13 H 0.5708 0.2626 0.3467
O3 O 0.72203(12) 0.1033(2) 0.72400(10)
N2? N 0.4026(14) 0.309(4) 0.4187(7)
O4? O 0.4240(5) 0.3198(8) 0.3241(4)
H14? H 0.4838 0.2580 0.3188
O5? O 0.637(4) 0.204(6) 0.3882(15)
H15? H 0.7027 0.2510 0.3913
loop_
_geom_bond_atom_site_label_1
_geom_bond_atom_site_label_2
_geom_bond_site_symmetry_1
_geom_bond_site_symmetry_2
C1 C3 1_555 1_555
C2 H1 1_555 1_555
H2 C2 1_555 1_555
C3 C6 1_555 1_555
C4 C2 1_555 1_555
H3 C4 1_555 1_555
H4 C4 1_555 1_555
C5 C4 1_555 1_555
H5 C5 1_555 1_555
H6 C5 1_555 1_555
H7 C5 1_555 1_555
C6 C2 1_555 1_555
C7 C6 1_555 1_555
C8 H8 1_555 1_555
C9 C7 1_555 1_555
C10 C8 1_555 1_555
H9 C10 1_555 1_555
C11 C10 1_555 1_555
H10 C11 1_555 1_555
C12 C11 1_555 1_555
H11 C12 1_555 1_555
C13 C1 1_555 1_555
N1 C1 1_555 1_555
O1 N1 1_555 1_555
H12 O1 1_555 1_555
O2 C3 1_555 1_555
H13 O2 1_555 1_555
O3 C7 1_555 1_555
C8 C9 1_555 1_555
C9 C13 1_555 1_555
C12 C13 1_555 1_555

#END
