
#######################################################################
#
#                 Cambridge Crystallographic Data Centre
#                                CCDC 
#
#######################################################################
#
# If this CIF has been generated from an entry in the Cambridge 
# Structural Database, then it will include bibliographic, chemical, 
# crystal, experimental, refinement or atomic coordinate data resulting 
# from the CCDC's data processing and validation procedures.
#
#######################################################################

data_EMEWAV
_chemical_formula_moiety         'C11 H6 Br1 Cl1 N4'
_chemical_name_systematic        
8-Bromo-7-chloro-2-phenyl[1,2,4]triazolo[1,5-c]pyrimidine
_symmetry_cell_setting           triclinic
_symmetry_space_group_name_H-M   'P -1'
_symmetry_Int_Tables_number      2
_space_group_name_Hall           '-P 1'
loop_
_symmetry_equiv_pos_site_id
_symmetry_equiv_pos_as_xyz
1 x,y,z
2 -x,-y,-z
_cell_length_a                   6.661(3)
_cell_length_b                   7.063(3)
_cell_length_c                   12.105(5)
_cell_angle_alpha                87.470(5)
_cell_angle_beta                 87.046(5)
_cell_angle_gamma                79.495(5)
_cell_volume                     558.86
_exptl_crystal_colour            colorless
_exptl_crystal_description       cube
_cell_formula_units_Z            2
loop_
_atom_site_label
_atom_site_type_symbol
_atom_site_fract_x
_atom_site_fract_y
_atom_site_fract_z
Br1 Br 1.14560(8) 0.66628(9) 0.12367(4)
Cl1 Cl 0.6817(2) 0.7911(2) 0.02952(11)
N1 N 0.5466(6) 0.8685(6) 0.2308(3)
N2 N 0.7435(5) 0.8228(5) 0.3852(3)
N3 N 0.7795(6) 0.8255(6) 0.4946(3)
N4 N 1.0749(6) 0.7162(5) 0.3934(3)
C1 C 0.5608(7) 0.8781(7) 0.3361(4)
H1 H 0.4443 0.9238 0.3796
C2 C 0.7184(8) 0.8014(7) 0.1693(4)
C3 C 0.9076(7) 0.7468(7) 0.2097(4)
C4 C 0.9218(7) 0.7576(6) 0.3256(4)
C5 C 0.9818(7) 0.7580(6) 0.4950(4)
C6 C 1.0951(7) 0.7335(7) 0.5964(4)
C7 C 0.9984(8) 0.7839(7) 0.6996(4)
H2 H 0.8595 0.8353 0.7048
C8 C 1.1116(9) 0.7564(8) 0.7936(4)
H3 H 1.0477 0.7889 0.8620
C9 C 1.3168(9) 0.6817(8) 0.7870(5)
H4 H 1.3907 0.6648 0.8509
C10 C 1.4147(8) 0.6312(8) 0.6861(4)
H5 H 1.5536 0.5798 0.6819
C11 C 1.3024(7) 0.6585(7) 0.5907(4)
H6 H 1.3675 0.6260 0.5226
loop_
_geom_bond_atom_site_label_1
_geom_bond_atom_site_label_2
_geom_bond_site_symmetry_1
_geom_bond_site_symmetry_2
Br1 C3 1_555 1_555
Cl1 C2 1_555 1_555
N1 C1 1_555 1_555
N2 N3 1_555 1_555
N3 C5 1_555 1_555
N4 C4 1_555 1_555
C1 N2 1_555 1_555
H1 C1 1_555 1_555
C2 N1 1_555 1_555
C3 C2 1_555 1_555
C4 N2 1_555 1_555
C5 N4 1_555 1_555
C6 C5 1_555 1_555
C7 C6 1_555 1_555
H2 C7 1_555 1_555
C8 C7 1_555 1_555
H3 C8 1_555 1_555
C9 C8 1_555 1_555
H4 C9 1_555 1_555
C10 C9 1_555 1_555
H5 C10 1_555 1_555
C11 C6 1_555 1_555
H6 C11 1_555 1_555
C3 C4 1_555 1_555
C10 C11 1_555 1_555

#END
