
#######################################################################
#
#                 Cambridge Crystallographic Data Centre
#                                CCDC 
#
#######################################################################
#
# If this CIF has been generated from an entry in the Cambridge 
# Structural Database, then it will include bibliographic, chemical, 
# crystal, experimental, refinement or atomic coordinate data resulting 
# from the CCDC's data processing and validation procedures.
#
#######################################################################

data_EMIGOY
_chemical_formula_moiety         'C22 H25 N1 O4'
_chemical_name_systematic        
'(1-(but-2-en-2-yl)-4-methyl-3,4,5,6-tetrahydro-3aH-inden-3a-yl)methyl 4-nitrobenzoate'
_symmetry_cell_setting           triclinic
_symmetry_space_group_name_H-M   'P -1'
_symmetry_Int_Tables_number      2
_space_group_name_Hall           '-P 1'
loop_
_symmetry_equiv_pos_site_id
_symmetry_equiv_pos_as_xyz
1 x,y,z
2 -x,-y,-z
_cell_length_a                   6.8007(6)
_cell_length_b                   10.8026(13)
_cell_length_c                   14.4909(13)
_cell_angle_alpha                69.445(10)
_cell_angle_beta                 88.471(8)
_cell_angle_gamma                82.126(9)
_cell_volume                     987.14
_cell_formula_units_Z            2
_exptl_crystal_recrystallization_method 'hexane/ ethyl acetate'
loop_
_atom_site_label
_atom_site_type_symbol
_atom_site_fract_x
_atom_site_fract_y
_atom_site_fract_z
C1 C 0.5211(4) 0.4507(3) 0.6559(2)
C2 C 0.4616(4) 0.3606(3) 0.6175(3)
H1 H 0.3277 0.3435 0.6235
C3 C 0.5955(5) 0.2955(3) 0.5707(2)
H2 H 0.5552 0.2346 0.5433
C4 C 0.7892(4) 0.3215(3) 0.5649(2)
C5 C 0.8534(4) 0.4086(3) 0.6039(2)
H3 H 0.9883 0.4235 0.5992
C6 C 0.7184(4) 0.4741(3) 0.6502(2)
H4 H 0.7597 0.5343 0.6778
C7 C 0.3690(5) 0.5226(3) 0.7019(2)
C8 C 0.3102(5) 0.6797(3) 0.7838(3)
H5 H 0.2559 0.6190 0.8443
H6 H 0.1981 0.7297 0.7378
C9 C 0.4223(5) 0.7768(3) 0.8096(3)
C10 C 0.4681(6) 0.8975(3) 0.7204(3)
H7 H 0.5360 0.9547 0.7471
C11 C 0.2751(6) 0.9812(4) 0.6704(3)
H8 H 0.2047 0.9277 0.6423
H9 H 0.3078 1.0601 0.6151
C12 C 0.1357(7) 1.0288(4) 0.7393(3)
H10 H 0.1625 1.1184 0.7350
H11 H -0.0029 1.0378 0.7161
C13 C 0.1543(6) 0.9386(3) 0.8450(3)
H12 H 0.0682 0.9608 0.8912
C14 C 0.2854(5) 0.8290(3) 0.8771(2)
C15 C 0.3441(6) 0.7462(4) 0.9787(3)
C16 C 0.5195(6) 0.6725(4) 0.9801(3)
H13 H 0.5850 0.6109 1.0385
C17 C 0.6017(5) 0.6982(4) 0.8788(3)
H14 H 0.6487 0.6134 0.8682
H15 H 0.7129 0.7516 0.8683
C18 C 0.6082(6) 0.8630(4) 0.6458(3)
H16 H 0.5398 0.8180 0.6106
H17 H 0.7262 0.8038 0.6805
H18 H 0.6484 0.9451 0.5985
C19 C 0.2234(8) 0.7518(5) 1.0655(3)
C20 C 0.0247(8) 0.6851(7) 1.0741(4)
H19 H 0.0577 0.5942 1.0737
H20 H -0.0650 0.7381 1.0182
H21 H -0.0407 0.6823 1.1358
C21 C 0.2721(12) 0.8022(6) 1.1254(4)
H22 H 0.1854 0.7993 1.1784
C22 C 0.4486(12) 0.8645(6) 1.1214(4)
H23 H 0.5228 0.8645 1.0625
H24 H 0.5320 0.8146 1.1804
H25 H 0.4107 0.9566 1.1187
N1 N 0.9333(4) 0.2543(3) 0.5136(2)
O1 O 0.1951(3) 0.5109(3) 0.7039(2)
O2 O 0.4460(3) 0.6028(2) 0.73819(19)
O3 O 0.8749(4) 0.1764(3) 0.4803(2)
O4 O 1.1042(3) 0.2796(2) 0.50755(19)
loop_
_geom_bond_atom_site_label_1
_geom_bond_atom_site_label_2
_geom_bond_site_symmetry_1
_geom_bond_site_symmetry_2
C1 C2 1_555 1_555
C2 H1 1_555 1_555
C3 C2 1_555 1_555
H2 C3 1_555 1_555
C4 C3 1_555 1_555
C5 C4 1_555 1_555
H3 C5 1_555 1_555
C6 C1 1_555 1_555
H4 C6 1_555 1_555
C7 C1 1_555 1_555
C8 H5 1_555 1_555
H6 C8 1_555 1_555
C9 C8 1_555 1_555
C10 C9 1_555 1_555
H7 C10 1_555 1_555
C11 C10 1_555 1_555
H8 C11 1_555 1_555
H9 C11 1_555 1_555
C12 C11 1_555 1_555
H10 C12 1_555 1_555
H11 C12 1_555 1_555
C13 C12 1_555 1_555
H12 C13 1_555 1_555
C14 C9 1_555 1_555
C15 C14 1_555 1_555
C16 C15 1_555 1_555
H13 C16 1_555 1_555
C17 C9 1_555 1_555
H14 C17 1_555 1_555
H15 C17 1_555 1_555
C18 C10 1_555 1_555
H16 C18 1_555 1_555
H17 C18 1_555 1_555
H18 C18 1_555 1_555
C19 C15 1_555 1_555
C20 C19 1_555 1_555
H19 C20 1_555 1_555
H20 C20 1_555 1_555
H21 C20 1_555 1_555
C21 C19 1_555 1_555
H22 C21 1_555 1_555
C22 C21 1_555 1_555
H23 C22 1_555 1_555
H24 C22 1_555 1_555
H25 C22 1_555 1_555
N1 C4 1_555 1_555
O1 C7 1_555 1_555
O2 C7 1_555 1_555
O3 N1 1_555 1_555
O4 N1 1_555 1_555
C5 C6 1_555 1_555
C8 O2 1_555 1_555
C13 C14 1_555 1_555
C16 C17 1_555 1_555

#END
