
#######################################################################
#
#                 Cambridge Crystallographic Data Centre
#                                CCDC 
#
#######################################################################
#
# If this CIF has been generated from an entry in the Cambridge 
# Structural Database, then it will include bibliographic, chemical, 
# crystal, experimental, refinement or atomic coordinate data resulting 
# from the CCDC's data processing and validation procedures.
#
#######################################################################

data_EMIHIT
_chemical_compound_source        'Manglietia hookeri'
_chemical_name_common            'manghookerins A'
_chemical_formula_moiety         'C15 H26 O3'
_chemical_name_systematic        
'6-(2-hydroxypropan-2-yl)-1,3a-dimethyloctahydro-1H-indene-1-carboxylic acid'
_symmetry_cell_setting           orthorhombic
_symmetry_space_group_name_H-M   'P 21 21 21'
_symmetry_Int_Tables_number      19
_space_group_name_Hall           'P 2ac 2ab'
loop_
_symmetry_equiv_pos_site_id
_symmetry_equiv_pos_as_xyz
1 x,y,z
2 1/2-x,-y,1/2+z
3 -x,1/2+y,1/2-z
4 1/2+x,1/2-y,-z
_cell_length_a                   6.305(2)
_cell_length_b                   13.417(5)
_cell_length_c                   17.432(6)
_cell_angle_alpha                90
_cell_angle_beta                 90
_cell_angle_gamma                90
_cell_volume                     1474.65
_exptl_crystal_colour            colorless
_exptl_crystal_description       Prism
_cell_formula_units_Z            4
loop_
_atom_site_label
_atom_site_type_symbol
_atom_site_fract_x
_atom_site_fract_y
_atom_site_fract_z
O1 O 0.0652(2) 0.87428(12) 0.38102(9)
O2 O 0.3729(2) 0.92597(12) 0.42929(9)
O3 O 0.2967(2) 0.50483(10) 0.54978(7)
C1 C 0.1669(3) 0.73072(14) 0.22072(11)
H1 H 0.0156 0.7442 0.2319
H2 H 0.1838 0.7195 0.1649
C2 C 0.3087(3) 0.81742(14) 0.24837(10)
H3 H 0.2301 0.8812 0.2458
H4 H 0.4367 0.8228 0.2158
C3 C 0.3729(3) 0.79335(14) 0.33375(11)
C4 C 0.2686(3) 0.68928(13) 0.34700(10)
H5 H 0.1202 0.7035 0.3640
C5 C 0.3599(3) 0.61870(13) 0.40705(10)
H6 H 0.3713 0.6533 0.4570
H7 H 0.5035 0.5968 0.3914
C6 C 0.2118(3) 0.52741(13) 0.41460(10)
H8 H 0.0720 0.5536 0.4328
C7 C 0.1700(3) 0.47823(13) 0.33584(11)
H9 H 0.3023 0.4465 0.3175
H10 H 0.0619 0.4253 0.3420
C8 C 0.0926(3) 0.55352(15) 0.27514(11)
H11 H 0.0776 0.5194 0.2251
H12 H -0.0485 0.5793 0.2902
C9 C 0.2475(3) 0.64070(14) 0.26684(10)
C10 C 0.2882(3) 0.45239(13) 0.47649(10)
C11 C 0.5138(3) 0.41448(16) 0.46401(12)
H13 H 0.6121 0.4711 0.4631
H14 H 0.5215 0.3788 0.4150
H15 H 0.5526 0.3693 0.5059
C12 C 0.1344(4) 0.36540(15) 0.48567(12)
H16 H 0.1772 0.3247 0.5297
H17 H 0.1365 0.3245 0.4391
H18 H -0.0092 0.3911 0.4941
C13 C 0.6134(3) 0.79429(15) 0.34536(12)
H19 H 0.6706 0.8588 0.3290
H20 H 0.6779 0.7410 0.3148
H21 H 0.6458 0.7836 0.3997
C14 C 0.4564(3) 0.60313(16) 0.23078(12)
H22 H 0.4243 0.5629 0.1853
H23 H 0.5333 0.5623 0.2682
H24 H 0.5441 0.6603 0.2159
C15 C 0.2749(3) 0.87118(14) 0.38670(10)
H25 H 0.008(4) 0.926(2) 0.4109(14)
H26 H 0.165(4) 0.5299(19) 0.5594(14)
loop_
_geom_bond_atom_site_label_1
_geom_bond_atom_site_label_2
_geom_bond_site_symmetry_1
_geom_bond_site_symmetry_2
O1 C15 1_555 1_555
O2 C15 1_555 1_555
O3 C10 1_555 1_555
C1 H1 1_555 1_555
H2 C1 1_555 1_555
C2 C1 1_555 1_555
H3 C2 1_555 1_555
H4 C2 1_555 1_555
C3 C2 1_555 1_555
C4 C3 1_555 1_555
H5 C4 1_555 1_555
C5 C4 1_555 1_555
H6 C5 1_555 1_555
H7 C5 1_555 1_555
C6 C5 1_555 1_555
H8 C6 1_555 1_555
C7 C6 1_555 1_555
H9 C7 1_555 1_555
H10 C7 1_555 1_555
C8 C7 1_555 1_555
H11 C8 1_555 1_555
H12 C8 1_555 1_555
C9 C1 1_555 1_555
C10 C6 1_555 1_555
C11 C10 1_555 1_555
H13 C11 1_555 1_555
H14 C11 1_555 1_555
H15 C11 1_555 1_555
C12 C10 1_555 1_555
H16 C12 1_555 1_555
H17 C12 1_555 1_555
H18 C12 1_555 1_555
C13 C3 1_555 1_555
H19 C13 1_555 1_555
H20 C13 1_555 1_555
H21 C13 1_555 1_555
C14 C9 1_555 1_555
H22 C14 1_555 1_555
H23 C14 1_555 1_555
H24 C14 1_555 1_555
C15 C3 1_555 1_555
H25 O1 1_555 1_555
H26 O3 1_555 1_555
C4 C9 1_555 1_555
C8 C9 1_555 1_555

#END
