
#######################################################################
#
#                 Cambridge Crystallographic Data Centre
#                                CCDC 
#
#######################################################################
#
# If this CIF has been generated from an entry in the Cambridge 
# Structural Database, then it will include bibliographic, chemical, 
# crystal, experimental, refinement or atomic coordinate data resulting 
# from the CCDC's data processing and validation procedures.
#
#######################################################################

data_EMIPEW03
_chemical_formula_moiety         'C13 H12 N4 O1'
_chemical_name_systematic        
N-phenyl-2-(pyridin-2-ylmethylene)hydrazinecarboxamide
_symmetry_cell_setting           monoclinic
_symmetry_space_group_name_H-M   'P 21/c'
_symmetry_Int_Tables_number      14
_space_group_name_Hall           '-P 2ybc'
loop_
_symmetry_equiv_pos_site_id
_symmetry_equiv_pos_as_xyz
1 x,y,z
2 -x,1/2+y,1/2-z
3 -x,-y,-z
4 x,1/2-y,1/2+z
_cell_length_a                   9.2905(19)
_cell_length_b                   10.178(2)
_cell_length_c                   12.785(3)
_cell_angle_alpha                90
_cell_angle_beta                 100.91(3)
_cell_angle_gamma                90
_cell_volume                     1187.08
_cell_formula_units_Z            4
loop_
_atom_site_label
_atom_site_type_symbol
_atom_site_fract_x
_atom_site_fract_y
_atom_site_fract_z
C1 C 0.9084(12) 0.1279(9) 0.2103(8)
C2 C 0.9853(12) 0.1036(8) 0.1291(7)
H1 H 0.9434 0.0527 0.0708
C3 C 1.1240(12) 0.1552(10) 0.1350(8)
H2 H 1.1750 0.1385 0.0805
C4 C 1.1882(10) 0.2311(9) 0.2204(9)
H3 H 1.2811 0.2665 0.2231
C5 C 1.1138(13) 0.2535(8) 0.3008(7)
H4 H 1.1576 0.3031 0.3593
C6 C 0.9738(12) 0.2038(9) 0.2970(8)
H5 H 0.9239 0.2210 0.3520
C7 C 0.6696(13) 0.0356(8) 0.1258(10)
C8 C 0.3891(10) -0.0761(8) 0.2575(7)
H6 H 0.3148 -0.0846 0.1980
C9 C 0.3598(8) -0.1043(5) 0.3623(3)
C10 C 0.4687(5) -0.1481(5) 0.4448(4)
H7 H 0.5625 -0.1648 0.4324
C11 C 0.4376(5) -0.1669(5) 0.5459(4)
H8 H 0.5105 -0.1962 0.6011
C12 C 0.2975(6) -0.1418(5) 0.5645(4)
H9 H 0.2766 -0.1544 0.6321
C13 C 0.1886(4) -0.0980(5) 0.4819(5)
H10 H 0.0948 -0.0813 0.4943
N1 N 0.2197(7) -0.0792(5) 0.3809(4)
N2 N 0.7677(11) 0.0779(6) 0.2118(6)
H11 H 0.7413 0.0737 0.2727
N3 N 0.5189(9) -0.0391(6) 0.2465(6)
O1 O 0.6896(5) 0.0404(5) 0.0328(6)
N4 N 0.5400(9) -0.0141(7) 0.1452(6)
H12 H 0.4700 -0.0300 0.0923
loop_
_geom_bond_atom_site_label_1
_geom_bond_atom_site_label_2
_geom_bond_site_symmetry_1
_geom_bond_site_symmetry_2
C1 C2 1_555 1_555
C2 H1 1_555 1_555
C3 C2 1_555 1_555
H2 C3 1_555 1_555
C4 C3 1_555 1_555
H3 C4 1_555 1_555
C5 C4 1_555 1_555
H4 C5 1_555 1_555
C6 C1 1_555 1_555
H5 C6 1_555 1_555
C7 N2 1_555 1_555
C8 H6 1_555 1_555
C9 C8 1_555 1_555
C10 C9 1_555 1_555
H7 C10 1_555 1_555
C11 C10 1_555 1_555
H8 C11 1_555 1_555
C12 C11 1_555 1_555
H9 C12 1_555 1_555
C13 C12 1_555 1_555
H10 C13 1_555 1_555
N1 C9 1_555 1_555
N2 C1 1_555 1_555
H11 N2 1_555 1_555
N3 C8 1_555 1_555
O1 C7 1_555 1_555
N4 C7 1_555 1_555
H12 N4 1_555 1_555
C5 C6 1_555 1_555
C13 N1 1_555 1_555
N3 N4 1_555 1_555

#END
