
#######################################################################
#
#                 Cambridge Crystallographic Data Centre
#                                CCDC 
#
#######################################################################
#
# If this CIF has been generated from an entry in the Cambridge 
# Structural Database, then it will include bibliographic, chemical, 
# crystal, experimental, refinement or atomic coordinate data resulting 
# from the CCDC's data processing and validation procedures.
#
#######################################################################

data_EMIPEW02
_chemical_formula_moiety         'C13 H12 N4 O1'
_chemical_name_systematic        
N-phenyl-2-(pyridin-2-ylmethylene)hydrazinecarboxamide
_symmetry_cell_setting           monoclinic
_symmetry_space_group_name_H-M   'P 21/c'
_symmetry_Int_Tables_number      14
_space_group_name_Hall           '-P 2ybc'
loop_
_symmetry_equiv_pos_site_id
_symmetry_equiv_pos_as_xyz
1 x,y,z
2 -x,1/2+y,1/2-z
3 -x,-y,-z
4 x,1/2-y,1/2+z
_cell_length_a                   9.2905(19)
_cell_length_b                   10.178(2)
_cell_length_c                   12.785(3)
_cell_angle_alpha                90
_cell_angle_beta                 100.91(3)
_cell_angle_gamma                90
_cell_volume                     1187.08
_cell_formula_units_Z            4
loop_
_atom_site_label
_atom_site_type_symbol
_atom_site_fract_x
_atom_site_fract_y
_atom_site_fract_z
C1 C 0.9085(9) 0.1276(7) 0.2103(6)
C2 C 0.9859(9) 0.1037(6) 0.1299(6)
H1 H 0.9445 0.0520 0.0720
C3 C 1.1238(9) 0.1558(7) 0.1349(6)
H2 H 1.1743 0.1399 0.0799
C4 C 1.1878(7) 0.2314(7) 0.2209(7)
H3 H 1.2809 0.2666 0.2241
C5 C 1.1120(10) 0.2540(6) 0.3016(5)
H4 H 1.1546 0.3041 0.3602
C6 C 0.9742(9) 0.2035(7) 0.2967(6)
H5 H 0.9240 0.2203 0.3517
C7 C 0.6694(10) 0.0360(6) 0.1247(8)
C8 C 0.3917(9) -0.0754(6) 0.2564(5)
H6 H 0.3181 -0.0840 0.1964
C9 C 0.3614(8) -0.1035(6) 0.3608(6)
C10 C 0.4663(7) -0.1479(6) 0.4461(6)
H7 H 0.5609 -0.1662 0.4363
C11 C 0.4307(6) -0.1648(5) 0.5442(4)
H8 H 0.5031 -0.1946 0.5995
C12 C 0.3006(6) -0.1415(5) 0.5645(4)
H9 H 0.2811 -0.1528 0.6326
C13 C 0.1983(7) -0.1018(6) 0.4860(6)
H10 H 0.1053 -0.0870 0.5005
N1 N 0.7667(8) 0.0778(5) 0.2114(5)
H11 H 0.7397 0.0735 0.2720
N2 N 0.5204(7) -0.0384(5) 0.2468(5)
N3 N 0.2194(8) -0.0796(6) 0.3804(5)
O1 O 0.6902(4) 0.0403(4) 0.0322(4)
N4 N 0.5406(7) -0.0141(5) 0.1448(5)
H12 H 0.4705 -0.0309 0.0922
loop_
_geom_bond_atom_site_label_1
_geom_bond_atom_site_label_2
_geom_bond_site_symmetry_1
_geom_bond_site_symmetry_2
C1 C2 1_555 1_555
C2 H1 1_555 1_555
C3 C2 1_555 1_555
H2 C3 1_555 1_555
C4 C3 1_555 1_555
H3 C4 1_555 1_555
C5 C4 1_555 1_555
H4 C5 1_555 1_555
C6 C1 1_555 1_555
H5 C6 1_555 1_555
C7 N1 1_555 1_555
C8 H6 1_555 1_555
C9 C8 1_555 1_555
C10 C9 1_555 1_555
H7 C10 1_555 1_555
C11 C10 1_555 1_555
H8 C11 1_555 1_555
C12 C11 1_555 1_555
H9 C12 1_555 1_555
C13 C12 1_555 1_555
H10 C13 1_555 1_555
N1 C1 1_555 1_555
H11 N1 1_555 1_555
N2 C8 1_555 1_555
N3 C9 1_555 1_555
O1 C7 1_555 1_555
N4 C7 1_555 1_555
H12 N4 1_555 1_555
C5 C6 1_555 1_555
C13 N3 1_555 1_555
N2 N4 1_555 1_555

#END
