
#######################################################################
#
#                 Cambridge Crystallographic Data Centre
#                                CCDC 
#
#######################################################################
#
# If this CIF has been generated from an entry in the Cambridge 
# Structural Database, then it will include bibliographic, chemical, 
# crystal, experimental, refinement or atomic coordinate data resulting 
# from the CCDC's data processing and validation procedures.
#
#######################################################################

data_EMIPUM
_chemical_formula_moiety         'C14 H27 N1 O1'
_chemical_name_systematic        2-Ethyl-N-hydroxycyclododecanimine
_symmetry_cell_setting           triclinic
_symmetry_space_group_name_H-M   'P -1'
_symmetry_Int_Tables_number      2
_space_group_name_Hall           '-P 1'
loop_
_symmetry_equiv_pos_site_id
_symmetry_equiv_pos_as_xyz
1 x,y,z
2 -x,-y,-z
_cell_length_a                   8.7515(5)
_cell_length_b                   9.3918(5)
_cell_length_c                   10.3401(6)
_cell_angle_alpha                64.8620(10)
_cell_angle_beta                 86.9550(10)
_cell_angle_gamma                70.2060(10)
_cell_volume                     719.806
_exptl_crystal_colour            colorless
_exptl_crystal_description       block
_cell_formula_units_Z            2
loop_
_atom_site_label
_atom_site_type_symbol
_atom_site_fract_x
_atom_site_fract_y
_atom_site_fract_z
C1 C 0.17392(19) 0.3827(2) 0.31229(17)
C2 C 0.3215(2) 0.2239(2) 0.35367(18)
H1 H 0.3353 0.1627 0.4587
C3 C 0.4763(2) 0.2649(2) 0.3073(2)
H2 H 0.5662 0.1611 0.3268
H3 H 0.4608 0.3337 0.2043
C4 C 0.5229(2) 0.3564(2) 0.3815(2)
H4 H 0.5557 0.2806 0.4825
H5 H 0.4273 0.4504 0.3753
C5 C 0.6613(2) 0.4219(3) 0.3183(3)
H6 H 0.7012 0.4532 0.3844
H7 H 0.7506 0.3319 0.3099
C6 C 0.6109(3) 0.5717(3) 0.1723(3)
H8 H 0.5557 0.5462 0.1105
H9 H 0.7083 0.5892 0.1300
C7 C 0.4987(3) 0.7339(3) 0.1767(3)
H10 H 0.4360 0.7059 0.2583
H11 H 0.5654 0.7908 0.1917
C8 C 0.3812(3) 0.8538(3) 0.0416(2)
H12 H 0.4437 0.8773 -0.0404
H13 H 0.3251 0.9588 0.0479
C9 C 0.2545(3) 0.7886(3) 0.0155(2)
H14 H 0.1949 0.8656 -0.0785
H15 H 0.3107 0.6810 0.0137
C10 C 0.1328(2) 0.7671(2) 0.1258(2)
H16 H 0.0646 0.8771 0.1171
H17 H 0.1923 0.7044 0.2210
C11 C 0.0234(2) 0.6773(2) 0.11175(19)
H18 H -0.0237 0.7303 0.0126
H19 H -0.0657 0.6919 0.1703
C12 C 0.1096(2) 0.4904(2) 0.15609(18)
H20 H 0.0340 0.4480 0.1317
H21 H 0.2004 0.4767 0.0991
C13 C 0.2944(2) 0.1100(2) 0.2923(2)
H22 H 0.2777 0.1697 0.1883
H23 H 0.3923 0.0113 0.3180
C14 C 0.1501(3) 0.0546(3) 0.3455(3)
H24 H 0.1601 0.0055 0.4486
H25 H 0.1480 -0.0268 0.3133
H26 H 0.0508 0.1499 0.3083
N1 N 0.09510(17) 0.43340(18) 0.40041(14)
O1 O 0.15511(19) 0.32599(19) 0.54602(14)
H27 H 0.093(2) 0.376(3) 0.593(2)
loop_
_geom_bond_atom_site_label_1
_geom_bond_atom_site_label_2
_geom_bond_site_symmetry_1
_geom_bond_site_symmetry_2
C1 C2 1_555 1_555
C2 H1 1_555 1_555
C3 C2 1_555 1_555
H2 C3 1_555 1_555
H3 C3 1_555 1_555
C4 C3 1_555 1_555
H4 C4 1_555 1_555
H5 C4 1_555 1_555
C5 C4 1_555 1_555
H6 C5 1_555 1_555
H7 C5 1_555 1_555
C6 C5 1_555 1_555
H8 C6 1_555 1_555
H9 C6 1_555 1_555
C7 C6 1_555 1_555
H10 C7 1_555 1_555
H11 C7 1_555 1_555
C8 C7 1_555 1_555
H12 C8 1_555 1_555
H13 C8 1_555 1_555
C9 C8 1_555 1_555
H14 C9 1_555 1_555
H15 C9 1_555 1_555
C10 C9 1_555 1_555
H16 C10 1_555 1_555
H17 C10 1_555 1_555
C11 C10 1_555 1_555
H18 C11 1_555 1_555
H19 C11 1_555 1_555
C12 C1 1_555 1_555
H20 C12 1_555 1_555
H21 C12 1_555 1_555
C13 C2 1_555 1_555
H22 C13 1_555 1_555
H23 C13 1_555 1_555
C14 C13 1_555 1_555
H24 C14 1_555 1_555
H25 C14 1_555 1_555
H26 C14 1_555 1_555
N1 C1 1_555 1_555
O1 N1 1_555 1_555
H27 O1 1_555 1_555
C11 C12 1_555 1_555

#END
