
#######################################################################
#
#                 Cambridge Crystallographic Data Centre
#                                CCDC 
#
#######################################################################
#
# If this CIF has been generated from an entry in the Cambridge 
# Structural Database, then it will include bibliographic, chemical, 
# crystal, experimental, refinement or atomic coordinate data resulting 
# from the CCDC's data processing and validation procedures.
#
#######################################################################

data_EMIQAT
_chemical_formula_moiety         'C13 H25 N1 O1 S1'
_chemical_name_systematic        N-Hydroxy-2-(methylsulfanyl)cyclododecanimine
_symmetry_cell_setting           orthorhombic
_symmetry_space_group_name_H-M   'P c c n'
_symmetry_Int_Tables_number      56
_space_group_name_Hall           '-P 2ab 2ac'
loop_
_symmetry_equiv_pos_site_id
_symmetry_equiv_pos_as_xyz
1 x,y,z
2 1/2-x,1/2-y,z
3 -x,1/2+y,1/2-z
4 1/2+x,-y,1/2-z
5 -x,-y,-z
6 1/2+x,1/2+y,-z
7 x,1/2-y,1/2+z
8 1/2-x,y,1/2+z
_cell_length_a                   25.220(5)
_cell_length_b                   25.293(5)
_cell_length_c                   9.0167(18)
_cell_angle_alpha                90
_cell_angle_beta                 90
_cell_angle_gamma                90
_cell_volume                     5751.66
_exptl_crystal_colour            colorless
_exptl_crystal_description       block
_cell_formula_units_Z            16
loop_
_atom_site_label
_atom_site_type_symbol
_atom_site_fract_x
_atom_site_fract_y
_atom_site_fract_z
S1 S 0.47003(3) -0.21613(2) -0.35793(7)
O1 O 0.56164(7) -0.07663(6) -0.57587(18)
H1 H 0.5529 -0.0465 -0.5993
N1 N 0.53208(7) -0.09286(7) -0.45273(19)
C1 C 0.50841(9) -0.16028(8) -0.2889(2)
H2 H 0.4837 -0.1321 -0.2609
C2 C 0.54405(8) -0.13974(8) -0.4097(2)
C3 C 0.58370(9) -0.17555(9) -0.4823(3)
H3 H 0.5702 -0.1846 -0.5798
H4 H 0.5851 -0.2080 -0.4252
C4 C 0.64057(10) -0.15558(10) -0.5015(3)
H5 H 0.6610 -0.1830 -0.5504
H6 H 0.6399 -0.1252 -0.5672
C5 C 0.66911(10) -0.14003(10) -0.3613(3)
H7 H 0.6452 -0.1189 -0.3013
H8 H 0.6990 -0.1178 -0.3878
C6 C 0.68930(11) -0.18528(11) -0.2674(3)
H9 H 0.7141 -0.2059 -0.3260
H10 H 0.6597 -0.2081 -0.2426
C7 C 0.71655(12) -0.16868(12) -0.1248(4)
H11 H 0.7448 -0.1441 -0.1490
H12 H 0.7327 -0.1996 -0.0801
C8 C 0.68010(12) -0.14284(12) -0.0110(4)
H13 H 0.6619 -0.1134 -0.0576
H14 H 0.7015 -0.1287 0.0690
C9 C 0.63890(13) -0.18037(11) 0.0540(3)
H15 H 0.6336 -0.2094 -0.0149
H16 H 0.6529 -0.1952 0.1452
C10 C 0.58541(13) -0.15531(11) 0.0870(3)
H17 H 0.5908 -0.1258 0.1542
H18 H 0.5635 -0.1811 0.1377
C11 C 0.55552(11) -0.13547(9) -0.0492(3)
H19 H 0.5252 -0.1149 -0.0169
H20 H 0.5786 -0.1123 -0.1056
C12 C 0.53650(10) -0.17956(9) -0.1490(2)
H21 H 0.5124 -0.2020 -0.0935
H22 H 0.5667 -0.2010 -0.1777
C13 C 0.43868(11) -0.18799(11) -0.5179(3)
H23 H 0.4169 -0.2142 -0.5649
H24 H 0.4653 -0.1761 -0.5864
H25 H 0.4171 -0.1586 -0.4882
S2 S 0.71932(3) 0.00261(3) -0.59600(10)
O2 O 0.54179(6) 0.02560(6) -0.67516(18)
H26 H 0.5186 0.0426 -0.6328
N2 N 0.59198(8) 0.04977(7) -0.6500(2)
C14 C 0.68855(11) 0.10636(11) -0.6514(3)
H27 H 0.7257 0.1130 -0.6305
H28 H 0.6695 0.1087 -0.5582
C15 C 0.68330(10) 0.05070(10) -0.7095(3)
H29 H 0.7007 0.0506 -0.8066
C16 C 0.62783(10) 0.03078(9) -0.7357(3)
C17 C 0.61986(11) -0.00942(10) -0.8556(3)
H30 H 0.5857 -0.0264 -0.8420
H31 H 0.6471 -0.0364 -0.8477
C18 C 0.62203(11) 0.01518(11) -1.0103(3)
H32 H 0.6559 0.0328 -1.0225
H33 H 0.6200 -0.0128 -1.0836
C19 C 0.57792(12) 0.05477(13) -1.0400(3)
H34 H 0.5749 0.0783 -0.9555
H35 H 0.5447 0.0358 -1.0493
C20 C 0.58668(15) 0.08822(17) -1.1813(3)
H36 H 0.5914 0.0644 -1.2647
H37 H 0.5549 0.1087 -1.1998
C21 C 0.63344(15) 0.12555(14) -1.1759(4)
H38 H 0.6405 0.1381 -1.2756
H39 H 0.6644 0.1059 -1.1435
C22 C 0.62646(18) 0.17343(15) -1.0740(4)
H40 H 0.6105 0.2019 -1.1306
H41 H 0.6020 0.1641 -0.9953
C23 C 0.67716(17) 0.19347(14) -1.0052(5)
H42 H 0.7029 0.1994 -1.0834
H43 H 0.6701 0.2272 -0.9583
C24 C 0.70086(13) 0.15721(12) -0.8933(3)
H44 H 0.7355 0.1707 -0.8656
H45 H 0.7061 0.1229 -0.9390
C25 C 0.66827(12) 0.14994(10) -0.7541(3)
H46 H 0.6320 0.1418 -0.7821
H47 H 0.6678 0.1830 -0.6998
C26 C 0.68442(14) 0.00562(13) -0.4244(3)
H48 H 0.7002 -0.0185 -0.3551
H49 H 0.6480 -0.0039 -0.4401
H50 H 0.6862 0.0409 -0.3855
loop_
_geom_bond_atom_site_label_1
_geom_bond_atom_site_label_2
_geom_bond_site_symmetry_1
_geom_bond_site_symmetry_2
S1 C1 1_555 1_555
O1 H1 1_555 1_555
N1 O1 1_555 1_555
C1 H2 1_555 1_555
C2 N1 1_555 1_555
C3 C2 1_555 1_555
H3 C3 1_555 1_555
H4 C3 1_555 1_555
C4 C3 1_555 1_555
H5 C4 1_555 1_555
H6 C4 1_555 1_555
C5 C4 1_555 1_555
H7 C5 1_555 1_555
H8 C5 1_555 1_555
C6 C5 1_555 1_555
H9 C6 1_555 1_555
H10 C6 1_555 1_555
C7 C6 1_555 1_555
H11 C7 1_555 1_555
H12 C7 1_555 1_555
C8 C7 1_555 1_555
H13 C8 1_555 1_555
H14 C8 1_555 1_555
C9 C8 1_555 1_555
H15 C9 1_555 1_555
H16 C9 1_555 1_555
C10 C9 1_555 1_555
H17 C10 1_555 1_555
H18 C10 1_555 1_555
C11 C10 1_555 1_555
H19 C11 1_555 1_555
H20 C11 1_555 1_555
C12 C1 1_555 1_555
H21 C12 1_555 1_555
H22 C12 1_555 1_555
C13 S1 1_555 1_555
H23 C13 1_555 1_555
H24 C13 1_555 1_555
H25 C13 1_555 1_555
S2 C15 1_555 1_555
O2 H26 1_555 1_555
N2 O2 1_555 1_555
C14 H27 1_555 1_555
H28 C14 1_555 1_555
C15 C14 1_555 1_555
H29 C15 1_555 1_555
C16 N2 1_555 1_555
C17 C16 1_555 1_555
H30 C17 1_555 1_555
H31 C17 1_555 1_555
C18 C17 1_555 1_555
H32 C18 1_555 1_555
H33 C18 1_555 1_555
C19 C18 1_555 1_555
H34 C19 1_555 1_555
H35 C19 1_555 1_555
C20 C19 1_555 1_555
H36 C20 1_555 1_555
H37 C20 1_555 1_555
C21 C20 1_555 1_555
H38 C21 1_555 1_555
H39 C21 1_555 1_555
C22 C21 1_555 1_555
H40 C22 1_555 1_555
H41 C22 1_555 1_555
C23 C22 1_555 1_555
H42 C23 1_555 1_555
H43 C23 1_555 1_555
C24 C23 1_555 1_555
H44 C24 1_555 1_555
H45 C24 1_555 1_555
C25 C14 1_555 1_555
H46 C25 1_555 1_555
H47 C25 1_555 1_555
C26 S2 1_555 1_555
H48 C26 1_555 1_555
H49 C26 1_555 1_555
H50 C26 1_555 1_555
C1 C2 1_555 1_555
C11 C12 1_555 1_555
C15 C16 1_555 1_555
C24 C25 1_555 1_555

#END
