
#######################################################################
#
#                 Cambridge Crystallographic Data Centre
#                                CCDC 
#
#######################################################################
#
# If this CIF has been generated from an entry in the Cambridge 
# Structural Database, then it will include bibliographic, chemical, 
# crystal, experimental, refinement or atomic coordinate data resulting 
# from the CCDC's data processing and validation procedures.
#
#######################################################################

data_EMIQOI
_chemical_name_common            'fluoxetine nitrate racemate'
_chemical_formula_moiety         'C17 H19 F3 N1 O1 1+,N1 O3 1-'
_chemical_name_systematic        
'(rac)-N-methyl-3-phenyl-3-(4-(trifluoromethyl)phenoxy)propylammonium nitrate'
_chemical_properties_biological  'Fluoxetine is an antidepressant drug.'
_symmetry_cell_setting           monoclinic
_symmetry_space_group_name_H-M   'P 21/n'
_symmetry_Int_Tables_number      14
_space_group_name_Hall           '-P 2yn'
loop_
_symmetry_equiv_pos_site_id
_symmetry_equiv_pos_as_xyz
1 x,y,z
2 1/2-x,1/2+y,1/2-z
3 -x,-y,-z
4 1/2+x,1/2-y,1/2+z
_cell_length_a                   6.5389(3)
_cell_length_b                   24.7851(12)
_cell_length_c                   11.2707(6)
_cell_angle_alpha                90
_cell_angle_beta                 105.3610(16)
_cell_angle_gamma                90
_cell_volume                     1761.36
_exptl_crystal_colour            colorless
_exptl_crystal_description       block
_cell_formula_units_Z            4
loop_
_atom_site_label
_atom_site_type_symbol
_atom_site_fract_x
_atom_site_fract_y
_atom_site_fract_z
O1 O 0.55499(14) 0.89612(4) 0.11016(8)
N1 N 0.32649(18) 0.75859(4) -0.05869(10)
H1 H 0.3013 0.7590 -0.1421
H2 H 0.4695 0.7575 -0.0260
C1 C 0.5615(2) 0.87076(5) -0.00397(11)
H3 H 0.6406 0.8359 0.0148
C2 C 0.7215(2) 0.92711(5) 0.30748(12)
H4 H 0.5919 0.9442 0.3084
C3 C 0.8944(2) 0.93074(5) 0.40881(12)
H5 H 0.8835 0.9502 0.4795
C4 C 1.1009(2) 0.87782(6) 0.30385(12)
H6 H 1.2309 0.8610 0.3029
C5 C 0.66868(19) 0.90574(5) -0.07981(12)
C6 C 0.7369(2) 0.89840(5) 0.20374(12)
C7 C 0.9281(2) 0.87423(5) 0.20131(12)
H7 H 0.9402 0.8554 0.1300
C8 C 0.8285(2) 0.91201(7) -0.24951(13)
H8 H 0.8719 0.8953 -0.3148
C9 C 1.0854(2) 0.90578(5) 0.40752(12)
C10 C 0.7024(2) 0.96063(6) -0.05814(14)
H9 H 0.6603 0.9774 0.0074
C11 C 0.7322(2) 0.88163(6) -0.17629(12)
H10 H 0.7093 0.8441 -0.1918
C12 C 0.2427(2) 0.80947(5) -0.01873(12)
H11 H 0.2827 0.8113 0.0723
H12 H 0.0859 0.8096 -0.0479
C13 C 0.3306(2) 0.85862(5) -0.06995(12)
H13 H 0.2429 0.8905 -0.0632
H14 H 0.3188 0.8526 -0.1583
C14 C 0.8617(2) 0.96691(7) -0.22740(14)
H15 H 0.9279 0.9878 -0.2774
C15 C 0.7981(3) 0.99104(6) -0.13256(15)
H16 H 0.8197 1.0286 -0.1180
C16 C 0.2320(2) 0.70901(6) -0.02196(15)
H17 H 0.0782 0.7094 -0.0580
H18 H 0.2625 0.7076 0.0679
H19 H 0.2930 0.6773 -0.0516
C17 C 1.2689(12) 0.9067(3) 0.5207(7)
F1 F 1.4456(8) 0.8892(2) 0.5008(5)
F2 F 1.2355(3) 0.87535(10) 0.60948(17)
F3 F 1.3013(4) 0.95568(9) 0.5673(3)
O2 O 0.78071(17) 0.74781(4) 0.02384(9)
N2 N 0.81453(19) 0.74328(5) 0.13872(11)
O3 O 0.65814(17) 0.74571(5) 0.18450(10)
O4 O 0.99626(17) 0.73800(5) 0.20648(10)
F4? F 1.2289(4) 0.91624(18) 0.6220(2)
F5? F 1.3788(5) 0.95993(11) 0.5089(3)
F6? F 1.4205(10) 0.8764(2) 0.5216(6)
C18? C 1.2731(15) 0.9138(4) 0.5133(9)
loop_
_geom_bond_atom_site_label_1
_geom_bond_atom_site_label_2
_geom_bond_site_symmetry_1
_geom_bond_site_symmetry_2
O1 C1 1_555 1_555
N1 H1 1_555 1_555
H2 N1 1_555 1_555
C1 H3 1_555 1_555
C2 H4 1_555 1_555
C3 C2 1_555 1_555
H5 C3 1_555 1_555
C4 H6 1_555 1_555
C5 C1 1_555 1_555
C6 O1 1_555 1_555
C7 C4 1_555 1_555
H7 C7 1_555 1_555
C8 H8 1_555 1_555
C9 C3 1_555 1_555
C10 C5 1_555 1_555
H9 C10 1_555 1_555
C11 C5 1_555 1_555
H10 C11 1_555 1_555
C12 N1 1_555 1_555
H11 C12 1_555 1_555
H12 C12 1_555 1_555
C13 C1 1_555 1_555
H13 C13 1_555 1_555
H14 C13 1_555 1_555
C14 C8 1_555 1_555
H15 C14 1_555 1_555
C15 C10 1_555 1_555
H16 C15 1_555 1_555
C16 N1 1_555 1_555
H17 C16 1_555 1_555
H18 C16 1_555 1_555
H19 C16 1_555 1_555
C17 C9 1_555 1_555
F1 C17 1_555 1_555
F2 C17 1_555 1_555
F3 C17 1_555 1_555
O2 N2 1_555 1_555
N2 O3 1_555 1_555
O4 N2 1_555 1_555
C2 C6 1_555 1_555
C4 C9 1_555 1_555
C6 C7 1_555 1_555
C8 C11 1_555 1_555
C12 C13 1_555 1_555
C14 C15 1_555 1_555

#END
