
#######################################################################
#
#                 Cambridge Crystallographic Data Centre
#                                CCDC 
#
#######################################################################
#
# If this CIF has been generated from an entry in the Cambridge 
# Structural Database, then it will include bibliographic, chemical, 
# crystal, experimental, refinement or atomic coordinate data resulting 
# from the CCDC's data processing and validation procedures.
#
#######################################################################

data_EMIRUP
_chemical_formula_moiety         'C17 H21 N1 O5 S1'
_chemical_name_systematic        
'ethyl 4-methyl-3-nitro-6-oxo-2-(2-(2-thienyl)ethyl)bicyclo[2.2.1]heptane-1-carboxylate'
_symmetry_cell_setting           orthorhombic
_symmetry_space_group_name_H-M   'P 21 21 21'
_symmetry_Int_Tables_number      19
_space_group_name_Hall           'P 2ac 2ab'
loop_
_symmetry_equiv_pos_site_id
_symmetry_equiv_pos_as_xyz
1 x,y,z
2 1/2+x,1/2-y,-z
3 -x,1/2+y,1/2-z
4 1/2-x,-y,1/2+z
_cell_length_a                   7.5608(8)
_cell_length_b                   13.1579(14)
_cell_length_c                   16.9471(18)
_cell_angle_alpha                90
_cell_angle_beta                 90
_cell_angle_gamma                90
_cell_volume                     1685.97
_exptl_crystal_colour            colorless
_exptl_crystal_description       block
_cell_formula_units_Z            4
loop_
_atom_site_label
_atom_site_type_symbol
_atom_site_fract_x
_atom_site_fract_y
_atom_site_fract_z
S1 S 0.25218(12) 1.18360(7) 0.47883(5)
C1 C 0.01891(15) 1.04949(8) 0.42816(7)
H1 H -0.0579 1.0090 0.3969
O1 O 0.81667(19) 1.26675(12) 0.28763(9)
O2 O 0.6625(2) 1.01331(11) 0.22964(10)
O3 O 0.87969(18) 1.08470(10) 0.15989(10)
O4 O 0.2170(2) 1.19416(13) 0.07716(9)
O5 O 0.0822(2) 1.32215(14) 0.12957(13)
N1 N 0.2081(2) 1.26483(13) 0.12422(10)
C2 C 0.7185(2) 1.27354(14) 0.23194(11)
C3 C 0.6494(3) 1.36943(13) 0.19347(12)
H2 H 0.7468 1.4089 0.1693
H3 H 0.5870 1.4128 0.2322
C4 C 0.5210(3) 1.32951(13) 0.13008(11)
C5 C 0.3640(2) 1.28500(14) 0.17760(11)
H4 H 0.3291 1.3331 0.2206
C6 C 0.4362(2) 1.18544(13) 0.21370(10)
H5 H 0.3757 1.1274 0.1868
C7 C 0.6329(2) 1.18577(13) 0.18679(10)
C8 C 0.6205(3) 1.23269(14) 0.10350(11)
H6 H 0.5504 1.1905 0.0666
H7 H 0.7380 1.2478 0.0805
C9 C 0.4730(3) 1.40666(14) 0.06733(12)
H8 H 0.4068 1.4626 0.0915
H9 H 0.4000 1.3740 0.0268
H10 H 0.5813 1.4332 0.0431
C10 C 0.7234(2) 1.08523(13) 0.19567(11)
C11 C 0.9763(3) 0.98857(14) 0.16195(14)
H11 H 0.9711 0.9600 0.2159
H12 H 1.1020 1.0010 0.1488
C12 C 0.9003(3) 0.91345(15) 0.10481(13)
H13 H 0.8977 0.9434 0.0519
H14 H 0.7797 0.8957 0.1210
H15 H 0.9737 0.8521 0.1042
C13 C 0.4020(2) 1.17568(14) 0.30197(11)
H16 H 0.4411 1.2385 0.3290
H17 H 0.4716 1.1182 0.3233
C14 C 0.2057(3) 1.15797(15) 0.31823(11)
H18 H 0.1394 1.2200 0.3034
H19 H 0.1636 1.1019 0.2841
C15 C 0.1640(3) 1.13237(15) 0.40220(12)
C16 C 0.0400(4) 1.0545(2) 0.5162(2)
H20 H -0.0254 1.0117 0.5507
C17 C 0.1549(4) 1.1220(3) 0.54304(15)
H21 H 0.1761 1.1319 0.5978
S2? S 0.01891(15) 1.04949(8) 0.42816(7)
C18? C 0.25218(12) 1.18360(7) 0.47883(5)
H22? H 0.3381 1.2360 0.4832
loop_
_geom_bond_atom_site_label_1
_geom_bond_atom_site_label_2
_geom_bond_site_symmetry_1
_geom_bond_site_symmetry_2
S1 C15 1_555 1_555
C1 H1 1_555 1_555
O1 C2 1_555 1_555
O2 C10 1_555 1_555
O3 C10 1_555 1_555
O4 N1 1_555 1_555
O5 N1 1_555 1_555
N1 C5 1_555 1_555
C2 C3 1_555 1_555
C3 H2 1_555 1_555
H3 C3 1_555 1_555
C4 C3 1_555 1_555
C5 C4 1_555 1_555
H4 C5 1_555 1_555
C6 C5 1_555 1_555
H5 C6 1_555 1_555
C7 C2 1_555 1_555
C8 C4 1_555 1_555
H6 C8 1_555 1_555
H7 C8 1_555 1_555
C9 C4 1_555 1_555
H8 C9 1_555 1_555
H9 C9 1_555 1_555
H10 C9 1_555 1_555
C10 C7 1_555 1_555
C11 O3 1_555 1_555
H11 C11 1_555 1_555
H12 C11 1_555 1_555
C12 C11 1_555 1_555
H13 C12 1_555 1_555
H14 C12 1_555 1_555
H15 C12 1_555 1_555
C13 C6 1_555 1_555
H16 C13 1_555 1_555
H17 C13 1_555 1_555
C14 C13 1_555 1_555
H18 C14 1_555 1_555
H19 C14 1_555 1_555
C15 C1 1_555 1_555
C16 C1 1_555 1_555
H20 C16 1_555 1_555
C17 S1 1_555 1_555
H21 C17 1_555 1_555
C6 C7 1_555 1_555
C7 C8 1_555 1_555
C14 C15 1_555 1_555
C16 C17 1_555 1_555

#END
