
#######################################################################
#
#                 Cambridge Crystallographic Data Centre
#                                CCDC 
#
#######################################################################
#
# If this CIF has been generated from an entry in the Cambridge 
# Structural Database, then it will include bibliographic, chemical, 
# crystal, experimental, refinement or atomic coordinate data resulting 
# from the CCDC's data processing and validation procedures.
#
#######################################################################

data_EMISIE
_chemical_formula_moiety         'C21 H20 N2 O5'
_chemical_name_systematic        
"1-benzyl 3-ethyl 1'-methyl-2'-oxo-1',2'-dihydro-1H-spiro[aziridine-2,3'-indole]-1,3-dicarboxylate"
_symmetry_cell_setting           monoclinic
_symmetry_space_group_name_H-M   'P 21/n'
_symmetry_Int_Tables_number      14
_space_group_name_Hall           '-P 2yn'
loop_
_symmetry_equiv_pos_site_id
_symmetry_equiv_pos_as_xyz
1 x,y,z
2 1/2-x,1/2+y,1/2-z
3 -x,-y,-z
4 1/2+x,1/2-y,1/2+z
_cell_length_a                   9.4039(10)
_cell_length_b                   17.681(2)
_cell_length_c                   12.4340(14)
_cell_angle_alpha                90
_cell_angle_beta                 110.481(2)
_cell_angle_gamma                90
_cell_volume                     1936.72
_exptl_crystal_colour            colorless
_exptl_crystal_description       block
_cell_formula_units_Z            4
loop_
_atom_site_label
_atom_site_type_symbol
_atom_site_fract_x
_atom_site_fract_y
_atom_site_fract_z
C1 C 0.80886(15) -0.03039(8) 0.81355(12)
C2 C 0.80195(18) -0.10511(8) 0.78030(14)
H1 H 0.8057 -0.1181 0.7089
C3 C 0.7893(2) -0.16039(10) 0.85547(17)
H2 H 0.7833 -0.2110 0.8340
C4 C 0.7854(2) -0.14101(10) 0.96180(16)
H3 H 0.7796 -0.1790 1.0118
C5 C 0.78993(19) -0.06605(10) 0.99599(14)
H4 H 0.7862 -0.0532 1.0675
C6 C 0.80010(15) -0.01128(8) 0.91983(12)
C7 C 0.80728(16) 0.10361(8) 0.83685(13)
C8 C 0.81838(15) 0.04176(8) 0.75577(12)
C9 C 0.7839(2) 0.10766(11) 1.02901(16)
H5 H 0.8074 0.1602 1.0252
H6 H 0.8525 0.0862 1.0988
H7 H 0.6816 0.1027 1.0276
C10 C 0.91355(16) 0.06061(8) 0.68222(12)
H8 H 0.9533 0.1123 0.6888
C11 C 0.66092(18) 0.11548(9) 0.58148(12)
C12 C 0.4192(2) 0.16922(13) 0.54834(15)
H9 H 0.3490 0.1451 0.4804
H10 H 0.4645 0.2122 0.5239
C13 C 0.33504(17) 0.19585(9) 0.62349(13)
C14 C 0.17890(18) 0.20089(9) 0.57801(15)
H11 H 0.1275 0.1835 0.5040
C15 C 0.09800(19) 0.23161(10) 0.64146(17)
H12 H -0.0070 0.2358 0.6092
C16 C 0.1718(2) 0.25572(11) 0.75108(17)
H13 H 0.1177 0.2761 0.7940
C17 C 0.3269(2) 0.24960(12) 0.79740(16)
H14 H 0.3775 0.2653 0.8726
C18 C 0.40869(19) 0.22071(11) 0.73448(15)
H15 H 0.5139 0.2179 0.7667
C19 C 1.00706(17) 0.00073(9) 0.65323(12)
C20 C 1.2590(2) -0.03301(15) 0.6769(2)
H16 H 1.2564 -0.0233 0.5995
H17 H 1.2314 -0.0855 0.6816
C21 C 1.4120(2) -0.01858(15) 0.7594(2)
H18 H 1.4363 0.0340 0.7573
H19 H 1.4843 -0.0486 0.7397
H20 H 1.4156 -0.0317 0.8353
N1 N 0.79935(14) 0.06804(7) 0.93136(10)
N2 N 0.75144(13) 0.05285(7) 0.63202(10)
O1 O 0.80651(13) 0.17126(6) 0.82003(10)
O2 O 0.95700(14) -0.05318(7) 0.59433(12)
O3 O 1.15225(12) 0.01643(7) 0.70366(9)
O4 O 0.68928(15) 0.15742(7) 0.51604(11)
O5 O 0.53705(12) 0.11599(6) 0.60980(9)
loop_
_geom_bond_atom_site_label_1
_geom_bond_atom_site_label_2
_geom_bond_site_symmetry_1
_geom_bond_site_symmetry_2
C1 C2 1_555 1_555
C2 H1 1_555 1_555
C3 C2 1_555 1_555
H2 C3 1_555 1_555
C4 C3 1_555 1_555
H3 C4 1_555 1_555
C5 C4 1_555 1_555
H4 C5 1_555 1_555
C6 C1 1_555 1_555
C7 C8 1_555 1_555
C8 C1 1_555 1_555
C9 H5 1_555 1_555
H6 C9 1_555 1_555
H7 C9 1_555 1_555
C10 C8 1_555 1_555
H8 C10 1_555 1_555
C11 N2 1_555 1_555
C12 H9 1_555 1_555
H10 C12 1_555 1_555
C13 C12 1_555 1_555
C14 C13 1_555 1_555
H11 C14 1_555 1_555
C15 C14 1_555 1_555
H12 C15 1_555 1_555
C16 C15 1_555 1_555
H13 C16 1_555 1_555
C17 C16 1_555 1_555
H14 C17 1_555 1_555
C18 C13 1_555 1_555
H15 C18 1_555 1_555
C19 C10 1_555 1_555
C20 H16 1_555 1_555
H17 C20 1_555 1_555
C21 C20 1_555 1_555
H18 C21 1_555 1_555
H19 C21 1_555 1_555
H20 C21 1_555 1_555
N1 C6 1_555 1_555
N2 C8 1_555 1_555
O1 C7 1_555 1_555
O2 C19 1_555 1_555
O3 C19 1_555 1_555
O4 C11 1_555 1_555
O5 C11 1_555 1_555
C5 C6 1_555 1_555
C7 N1 1_555 1_555
C9 N1 1_555 1_555
C10 N2 1_555 1_555
C12 O5 1_555 1_555
C17 C18 1_555 1_555
C20 O3 1_555 1_555

#END
