
#######################################################################
#
#                 Cambridge Crystallographic Data Centre
#                                CCDC 
#
#######################################################################
#
# If this CIF has been generated from an entry in the Cambridge 
# Structural Database, then it will include bibliographic, chemical, 
# crystal, experimental, refinement or atomic coordinate data resulting 
# from the CCDC's data processing and validation procedures.
#
#######################################################################

data_EMISOJ02
_chemical_formula_moiety         'C12 H24 O6,H10 B2 N2'
_chemical_name_systematic        '18-crown-6 amino(boranylamino)borane'
_symmetry_cell_setting           orthorhombic
_symmetry_space_group_name_H-M   'P 21 21 21'
_symmetry_Int_Tables_number      19
_space_group_name_Hall           'P 2ac 2ab'
loop_
_symmetry_equiv_pos_site_id
_symmetry_equiv_pos_as_xyz
1 x,y,z
2 1/2-x,-y,1/2+z
3 -x,1/2+y,1/2-z
4 1/2+x,1/2-y,-z
_cell_length_a                   8.3112(1)
_cell_length_b                   13.0955(2)
_cell_length_c                   16.7666(3)
_cell_angle_alpha                90
_cell_angle_beta                 90
_cell_angle_gamma                90
_cell_volume                     1824.87
_exptl_crystal_colour            colorless
_exptl_crystal_description       needle
_cell_formula_units_Z            4
loop_
_atom_site_label
_atom_site_type_symbol
_atom_site_fract_x
_atom_site_fract_y
_atom_site_fract_z
O1 O 1.03450(13) 0.51950(9) 0.48309(7)
O2 O 0.63247(13) 0.25681(9) 0.65710(7)
O3 O 0.52908(13) 0.34550(9) 0.50583(6)
O4 O 1.14126(14) 0.43488(9) 0.63254(7)
O5 O 0.89921(13) 0.34809(9) 0.73332(7)
O6 O 0.76524(13) 0.43317(9) 0.40983(7)
C1 C 1.0193(2) 0.51580(15) 0.39867(10)
H1 H 1.068 0.452 0.3781
H2 H 1.0767 0.5743 0.3745
C2 C 0.5272(2) 0.33433(14) 0.42153(10)
H3 H 0.4151 0.3264 0.4026
H4 H 0.5883 0.2725 0.4061
C3 C 0.6466(2) 0.26284(14) 0.74161(10)
H5 H 0.5892 0.2048 0.7666
H6 H 0.5971 0.327 0.7609
C4 C 1.19892(19) 0.51565(15) 0.50802(11)
H7 H 1.2597 0.5722 0.483
H8 H 1.2479 0.4504 0.4908
C5 C 1.2077(2) 0.52446(15) 0.59615(11)
H9 H 1.3212 0.5328 0.6128
H10 H 1.147 0.5854 0.6139
C6 C 1.1421(2) 0.44279(14) 0.71712(10)
H11 H 1.0823 0.5046 0.7336
H12 H 1.2543 0.4493 0.7364
C7 C 0.8208(2) 0.26002(13) 0.76455(11)
H13 H 0.8311 0.2588 0.8234
H14 H 0.8717 0.1975 0.743
C8 C 0.8445(2) 0.51976(14) 0.37650(11)
H15 H 0.7954 0.5833 0.3973
H16 H 0.8329 0.5193 0.3177
C9 C 0.6016(2) 0.42666(14) 0.38415(11)
H17 H 0.5968 0.4212 0.3253
H18 H 0.5422 0.4888 0.4005
C10 C 1.06578(19) 0.35019(14) 0.75350(11)
H19 H 1.1193 0.2878 0.7333
H20 H 1.0784 0.3521 0.8122
C11 C 0.4567(2) 0.26003(14) 0.54398(10)
H21 H 0.5116 0.1965 0.5272
H22 H 0.3422 0.2551 0.5283
C12 C 0.4693(2) 0.27199(14) 0.63214(11)
H23 H 0.4333 0.3412 0.6477
H24 H 0.3987 0.2216 0.6588
N1 N 0.7697(2) 0.47964(14) 0.59629(11)
N2 N 0.7432(2) 0.67188(14) 0.57280(11)
B1 B 0.7503(3) 0.58647(17) 0.63896(14)
B2 B 0.5778(3) 0.6837(2) 0.52455(16)
H25 H 0.639(2) 0.5826(12) 0.6721(9)
H26 H 0.858(2) 0.5985(12) 0.6788(10)
H27 H 0.790(2) 0.4317(14) 0.6297(11)
H28 H 0.690(3) 0.4593(14) 0.5686(11)
H29 H 0.857(3) 0.4782(16) 0.5612(13)
H30 H 0.543(2) 0.6029(16) 0.5039(11)
H31 H 0.489(2) 0.7193(13) 0.5681(11)
H32 H 0.762(3) 0.7408(19) 0.5994(13)
H33 H 0.600(2) 0.7371(15) 0.4713(12)
H34 H 0.827(3) 0.6668(19) 0.5305(15)
loop_
_geom_bond_atom_site_label_1
_geom_bond_atom_site_label_2
_geom_bond_site_symmetry_1
_geom_bond_site_symmetry_2
O1 C1 1_555 1_555
O2 C3 1_555 1_555
O3 C2 1_555 1_555
O4 C5 1_555 1_555
O5 C7 1_555 1_555
O6 C8 1_555 1_555
C1 H1 1_555 1_555
H2 C1 1_555 1_555
C2 H3 1_555 1_555
H4 C2 1_555 1_555
C3 H5 1_555 1_555
H6 C3 1_555 1_555
C4 O1 1_555 1_555
H7 C4 1_555 1_555
H8 C4 1_555 1_555
C5 C4 1_555 1_555
H9 C5 1_555 1_555
H10 C5 1_555 1_555
C6 O4 1_555 1_555
H11 C6 1_555 1_555
H12 C6 1_555 1_555
C7 C3 1_555 1_555
H13 C7 1_555 1_555
H14 C7 1_555 1_555
C8 C1 1_555 1_555
H15 C8 1_555 1_555
H16 C8 1_555 1_555
C9 O6 1_555 1_555
H17 C9 1_555 1_555
H18 C9 1_555 1_555
C10 O5 1_555 1_555
H19 C10 1_555 1_555
H20 C10 1_555 1_555
C11 O3 1_555 1_555
H21 C11 1_555 1_555
H22 C11 1_555 1_555
C12 O2 1_555 1_555
H23 C12 1_555 1_555
H24 C12 1_555 1_555
N1 B1 1_555 1_555
N2 B1 1_555 1_555
B1 H25 1_555 1_555
B2 N2 1_555 1_555
H26 B1 1_555 1_555
H27 N1 1_555 1_555
H28 N1 1_555 1_555
H29 N1 1_555 1_555
H30 B2 1_555 1_555
H31 B2 1_555 1_555
H32 N2 1_555 1_555
H33 B2 1_555 1_555
H34 N2 1_555 1_555
C2 C9 1_555 1_555
C6 C10 1_555 1_555
C11 C12 1_555 1_555

#END
