
#######################################################################
#
#                 Cambridge Crystallographic Data Centre
#                                CCDC 
#
#######################################################################
#
# If this CIF has been generated from an entry in the Cambridge 
# Structural Database, then it will include bibliographic, chemical, 
# crystal, experimental, refinement or atomic coordinate data resulting 
# from the CCDC's data processing and validation procedures.
#
#######################################################################

data_EMITOL
_chemical_formula_moiety         'C31 H26 N2 O2 S2,C1 H1 Cl3'
_chemical_name_systematic        
"O,O'-tetracyclo[7.7.1.0^2,7^.0^10,15^]heptadeca-2,4,6,10,12,14-hexaene-8,16-diyl bis(phenylcarbamothioate) chloroform solvate"
_symmetry_cell_setting           triclinic
_symmetry_space_group_name_H-M   'P -1'
_symmetry_Int_Tables_number      2
_space_group_name_Hall           '-P 1'
loop_
_symmetry_equiv_pos_site_id
_symmetry_equiv_pos_as_xyz
1 x,y,z
2 -x,-y,-z
_cell_length_a                   10.9583(6)
_cell_length_b                   12.3033(7)
_cell_length_c                   12.8962(7)
_cell_angle_alpha                109.9319(7)
_cell_angle_beta                 105.3809(8)
_cell_angle_gamma                94.4415(8)
_cell_volume                     1548.75
_exptl_crystal_colour            colorless
_exptl_crystal_description       block
_chemical_melting_point          '385-388 K'
_cell_formula_units_Z            2
_exptl_crystal_recrystallization_method chloroform
loop_
_atom_site_label
_atom_site_type_symbol
_atom_site_fract_x
_atom_site_fract_y
_atom_site_fract_z
C1 C 0.31244(13) 0.16274(13) 0.30122(12)
C2 C 0.34638(16) 0.16768(18) 0.41570(14)
H1 H 0.303(2) 0.106(2) 0.435(2)
C3 C 0.44124(18) 0.2558(2) 0.50344(16)
H2 H 0.463(2) 0.261(2) 0.586(2)
C4 C 0.50471(19) 0.3402(2) 0.47849(17)
H3 H 0.567(3) 0.396(2) 0.535(2)
C5 C 0.47464(16) 0.33598(16) 0.36543(17)
H4 H 0.518(2) 0.3946(19) 0.3505(18)
C6 C 0.37803(13) 0.24681(12) 0.27549(13)
C7 C 0.35397(14) 0.23856(12) 0.15219(13)
H5 H 0.4264(18) 0.2152(16) 0.1279(16)
C8 C 0.23203(14) 0.15151(12) 0.06349(12)
H6 H 0.2429(18) 0.1358(17) -0.0134(16)
C9 C 0.22443(14) 0.03900(12) 0.08948(12)
H7 H 0.3039(19) 0.0078(17) 0.0892(16)
H8 H 0.1533(18) -0.0213(17) 0.0263(16)
C10 C 0.20437(13) 0.06817(12) 0.20821(12)
H9 H 0.2045(17) -0.0021(16) 0.2283(16)
C11 C 0.07250(13) 0.10537(11) 0.20179(11)
H10 H 0.0079(17) 0.0373(16) 0.1642(15)
C12 C 0.04226(12) 0.18914(11) 0.13974(11)
C13 C 0.11118(13) 0.20253(12) 0.06657(11)
C14 C 0.06705(16) 0.26487(15) -0.00462(13)
H11 H 0.115(2) 0.2700(19) -0.0573(19)
C15 C -0.03997(17) 0.31642(16) -0.00020(14)
H12 H -0.068(2) 0.360(2) -0.0496(19)
C16 C -0.10553(16) 0.30699(16) 0.07601(14)
H13 H -0.178(2) 0.341(2) 0.076(2)
C17 C -0.06494(14) 0.24310(13) 0.14491(13)
H14 H -0.113(2) 0.2330(18) 0.1951(18)
O1 O 0.34537(11) 0.35763(9) 0.15657(11)
C18 C 0.39434(14) 0.40060(12) 0.09190(13)
S1 S 0.47264(5) 0.32846(3) 0.00236(4)
N1 N 0.37651(13) 0.51058(11) 0.10742(11)
H15 H 0.414(2) 0.5417(19) 0.0692(18)
C19 C 0.31561(16) 0.58550(14) 0.18168(12)
C20 C 0.3543(2) 0.70570(15) 0.21268(14)
H16 H 0.422(2) 0.730(2) 0.1822(19)
C21 C 0.2974(3) 0.78510(19) 0.28229(16)
H17 H 0.328(2) 0.860(2) 0.303(2)
C22 C 0.2031(3) 0.7460(2) 0.32056(17)
H18 H 0.163(2) 0.796(2) 0.366(2)
C23 C 0.1641(2) 0.6271(2) 0.28888(17)
H19 H 0.098(3) 0.601(2) 0.315(2)
C24 C 0.21930(18) 0.54521(18) 0.21929(15)
H20 H 0.194(2) 0.463(2) 0.199(2)
O2 O 0.06483(9) 0.16363(8) 0.31859(8)
C25 C 0.03842(12) 0.09877(11) 0.37731(11)
S2 S -0.02062(4) -0.04576(3) 0.31778(3)
N2 N 0.06356(12) 0.16186(10) 0.49051(10)
H21 H 0.052(2) 0.1246(19) 0.5302(18)
C26 C 0.12384(13) 0.28177(12) 0.55650(12)
C27 C 0.11124(17) 0.37052(13) 0.51265(14)
H22 H 0.060(2) 0.3528(19) 0.434(2)
C28 C 0.1738(2) 0.48527(14) 0.58474(17)
H23 H 0.163(2) 0.545(2) 0.554(2)
C29 C 0.24617(19) 0.51188(15) 0.69830(16)
H24 H 0.291(2) 0.589(2) 0.745(2)
C30 C 0.25687(18) 0.42380(15) 0.74232(15)
H25 H 0.309(2) 0.4411(19) 0.822(2)
C31 C 0.19618(16) 0.30833(14) 0.67131(13)
H26 H 0.2039(19) 0.2484(18) 0.7005(18)
C32 C 0.6261(2) 0.0817(2) 0.3164(2)
H27 H 0.5500 0.1175 0.3295
Cl1 Cl 0.7605(2) 0.19650(18) 0.36687(18)
Cl2 Cl 0.65976(15) -0.00632(13) 0.40107(19)
Cl3 Cl 0.58533(14) -0.0098(2) 0.17075(13)
C33? C 0.6649(11) 0.0477(8) 0.2710(8)
H28? H 0.7395 0.0079 0.2610
Cl4? Cl 0.7443(5) 0.1813(4) 0.3532(5)
Cl5? Cl 0.6015(6) -0.0319(2) 0.3266(5)
Cl6? Cl 0.6036(2) 0.0410(3) 0.1387(3)
loop_
_geom_bond_atom_site_label_1
_geom_bond_atom_site_label_2
_geom_bond_site_symmetry_1
_geom_bond_site_symmetry_2
C1 C2 1_555 1_555
C2 H1 1_555 1_555
C3 C2 1_555 1_555
H2 C3 1_555 1_555
C4 C3 1_555 1_555
H3 C4 1_555 1_555
C5 C4 1_555 1_555
H4 C5 1_555 1_555
C6 C1 1_555 1_555
C7 C6 1_555 1_555
H5 C7 1_555 1_555
C8 C7 1_555 1_555
H6 C8 1_555 1_555
C9 C8 1_555 1_555
H7 C9 1_555 1_555
H8 C9 1_555 1_555
C10 C1 1_555 1_555
H9 C10 1_555 1_555
C11 C10 1_555 1_555
H10 C11 1_555 1_555
C12 C11 1_555 1_555
C13 C8 1_555 1_555
C14 C13 1_555 1_555
H11 C14 1_555 1_555
C15 C14 1_555 1_555
H12 C15 1_555 1_555
C16 C15 1_555 1_555
H13 C16 1_555 1_555
C17 C12 1_555 1_555
H14 C17 1_555 1_555
O1 C7 1_555 1_555
C18 O1 1_555 1_555
S1 C18 1_555 1_555
N1 C18 1_555 1_555
H15 N1 1_555 1_555
C19 N1 1_555 1_555
C20 C19 1_555 1_555
H16 C20 1_555 1_555
C21 C20 1_555 1_555
H17 C21 1_555 1_555
C22 C21 1_555 1_555
H18 C22 1_555 1_555
C23 C22 1_555 1_555
H19 C23 1_555 1_555
C24 C19 1_555 1_555
H20 C24 1_555 1_555
O2 C11 1_555 1_555
C25 O2 1_555 1_555
S2 C25 1_555 1_555
N2 C25 1_555 1_555
H21 N2 1_555 1_555
C26 N2 1_555 1_555
C27 C26 1_555 1_555
H22 C27 1_555 1_555
C28 C27 1_555 1_555
H23 C28 1_555 1_555
C29 C28 1_555 1_555
H24 C29 1_555 1_555
C30 C29 1_555 1_555
H25 C30 1_555 1_555
C31 C26 1_555 1_555
H26 C31 1_555 1_555
C32 H27 1_555 1_555
Cl1 C32 1_555 1_555
Cl2 C32 1_555 1_555
Cl3 C32 1_555 1_555
C5 C6 1_555 1_555
C9 C10 1_555 1_555
C12 C13 1_555 1_555
C16 C17 1_555 1_555
C23 C24 1_555 1_555
C30 C31 1_555 1_555

#END
