
#######################################################################
#
#                 Cambridge Crystallographic Data Centre
#                                CCDC 
#
#######################################################################
#
# If this CIF has been generated from an entry in the Cambridge 
# Structural Database, then it will include bibliographic, chemical, 
# crystal, experimental, refinement or atomic coordinate data resulting 
# from the CCDC's data processing and validation procedures.
#
#######################################################################

data_EMIVAZ
_chemical_formula_moiety         'C33 H30 N2 O2 S2,C2 H3 N1,C1 H4 O1'
_chemical_name_systematic        
"O,O'-tetracyclo[7.7.1.0^2,7^.0^10,15^]heptadeca-2,4,6,10,12,14-hexaene-8,16-diyl bis((4-methylphenyl)carbamothioate) acetonitrile methanol solvate"
_symmetry_cell_setting           monoclinic
_symmetry_space_group_name_H-M   'I 2/a'
_symmetry_Int_Tables_number      15
_space_group_name_Hall           '-I 2ya'
loop_
_symmetry_equiv_pos_site_id
_symmetry_equiv_pos_as_xyz
1 x,y,z
2 1/2-x,y,-z
3 1/2+x,1/2+y,1/2+z
4 -x,1/2+y,1/2-z
5 -x,-y,-z
6 1/2+x,-y,z
7 1/2-x,1/2-y,1/2-z
8 x,1/2-y,1/2+z
_cell_length_a                   8.6163(6)
_cell_length_b                   22.5734(15)
_cell_length_c                   17.2003(12)
_cell_angle_alpha                90
_cell_angle_beta                 95.5620(9)
_cell_angle_gamma                90
_cell_volume                     3329.69
_exptl_crystal_colour            colorless
_exptl_crystal_description       block
_chemical_melting_point          '483-484 K'
_cell_formula_units_Z            4
_exptl_crystal_recrystallization_method acetonitrile/methanol
loop_
_atom_site_label
_atom_site_type_symbol
_atom_site_fract_x
_atom_site_fract_y
_atom_site_fract_z
N2 N 0.2500 0.45580(12) 0.0000
C18 C 0.2500 0.50624(11) 0.0000
C19 C 0.2500 0.56992(12) 0.0000
C1 C 0.67533(14) 0.26732(5) -0.08979(7)
C2 C 0.67639(16) 0.29618(6) -0.16189(7)
H1 H 0.7520 0.2852 -0.1959
C3 C 0.56994(17) 0.34034(7) -0.18472(8)
H2 H 0.5734 0.3596 -0.2337
C4 C 0.45767(17) 0.35642(7) -0.13540(9)
H3 H 0.3853 0.3871 -0.1502
C5 C 0.45219(14) 0.32740(6) -0.06466(8)
H4 H 0.3739 0.3378 -0.0318
C6 C 0.55986(14) 0.28322(5) -0.04100(7)
C7 C 0.54625(14) 0.24933(5) 0.03369(7)
H5 H 0.4666 0.2174 0.0233
C8 C 0.70123(15) 0.22102(5) 0.06562(7)
H6 H 0.6836 0.1960 0.1120
C9 C 0.7500 0.18088(8) 0.0000
H7 H 0.6618 0.1552 -0.0200
O1 O 0.49300(10) 0.29012(4) 0.09120(5)
C10 C 0.40436(13) 0.26898(5) 0.14497(7)
S1 S 0.30891(4) 0.20423(2) 0.13947(2)
N1 N 0.39783(13) 0.30609(5) 0.20511(6)
H8 H 0.345(2) 0.2925(7) 0.2377(10)
C11 C 0.47980(14) 0.36029(5) 0.22189(7)
C12 C 0.49379(16) 0.40448(6) 0.16642(7)
H9 H 0.4523 0.3987 0.1137
C13 C 0.56931(18) 0.45717(6) 0.18912(8)
H10 H 0.5794 0.4871 0.1512
C14 C 0.63050(16) 0.46705(6) 0.26609(8)
C15 C 0.61509(16) 0.42208(6) 0.32044(8)
H11 H 0.6566 0.4277 0.3731
C16 C 0.53997(15) 0.36919(6) 0.29887(7)
H12 H 0.5298 0.3392 0.3368
C17 C 0.7064(2) 0.52522(7) 0.29089(10)
H13 H 0.7587 0.5417 0.2476
H14 H 0.7831 0.5187 0.3360
H15 H 0.6266 0.5531 0.3052
C1A C 0.82467(14) 0.26732(5) 0.08979(7)
C2A C 0.82361(16) 0.29618(6) 0.16189(7)
H1A H 0.7480 0.2852 0.1959
C3A C 0.93006(17) 0.34034(7) 0.18472(8)
H2A H 0.9266 0.3596 0.2337
C4A C 1.04233(17) 0.35642(7) 0.13540(9)
H3A H 1.1147 0.3871 0.1502
C5A C 1.04781(14) 0.32740(6) 0.06466(8)
H4A H 1.1261 0.3378 0.0318
C6A C 0.94014(14) 0.28322(5) 0.04100(7)
C7A C 0.95375(14) 0.24933(5) -0.03369(7)
H5A H 1.0334 0.2174 -0.0233
C8A C 0.79877(15) 0.22102(5) -0.06562(7)
H6A H 0.8164 0.1960 -0.1120
H7A H 0.8382 0.1552 0.0200
O1A O 1.00700(10) 0.29012(4) -0.09120(5)
C10A C 1.09564(13) 0.26898(5) -0.14497(7)
S1A S 1.19109(4) 0.20423(2) -0.13947(2)
N1A N 1.10217(13) 0.30609(5) -0.20511(6)
H8A H 1.155(2) 0.2925(7) -0.2377(10)
C11A C 1.02020(14) 0.36029(5) -0.22189(7)
C12A C 1.00621(16) 0.40448(6) -0.16642(7)
H9A H 1.0477 0.3987 -0.1137
C13A C 0.93069(18) 0.45717(6) -0.18912(8)
H10A H 0.9206 0.4871 -0.1512
C14A C 0.86950(16) 0.46705(6) -0.26609(8)
C15A C 0.88491(16) 0.42208(6) -0.32044(8)
H11A H 0.8434 0.4277 -0.3731
C16A C 0.96003(15) 0.36919(6) -0.29887(7)
H12A H 0.9702 0.3392 -0.3368
C17A C 0.7936(2) 0.52522(7) -0.29089(10)
H13A H 0.7413 0.5417 -0.2476
H14A H 0.7169 0.5187 -0.3360
H15A H 0.8734 0.5531 -0.3052
H16? H 0.6618 0.1552 -0.0200
O2? O 0.3307(6) 0.42720(17) 0.5018(2)
C20? C 0.4823(10) 0.4452(3) 0.5170(4)
H17? H 0.4898 0.4876 0.5057
H18? H 0.5483 0.4230 0.4840
H19? H 0.5172 0.4380 0.5721
H20? H 0.2536 0.5844 0.0539
H21? H 0.3415 0.5844 -0.0239
H22? H 0.1550 0.5844 -0.0299
loop_
_geom_bond_atom_site_label_1
_geom_bond_atom_site_label_2
_geom_bond_site_symmetry_1
_geom_bond_site_symmetry_2
C1 C2 1_555 1_555
C2 H1 1_555 1_555
C3 C2 1_555 1_555
H2 C3 1_555 1_555
C4 C3 1_555 1_555
H3 C4 1_555 1_555
C5 C4 1_555 1_555
H4 C5 1_555 1_555
C6 C1 1_555 1_555
C7 C6 1_555 1_555
H5 C7 1_555 1_555
C8 C7 1_555 1_555
H6 C8 1_555 1_555
C9 C8 1_555 1_555
H7 C9 1_555 1_555
O1 C7 1_555 1_555
C10 O1 1_555 1_555
S1 C10 1_555 1_555
N1 C10 1_555 1_555
H8 N1 1_555 1_555
C11 N1 1_555 1_555
C12 C11 1_555 1_555
H9 C12 1_555 1_555
C13 C12 1_555 1_555
H10 C13 1_555 1_555
C14 C13 1_555 1_555
C15 C14 1_555 1_555
H11 C15 1_555 1_555
C16 C11 1_555 1_555
H12 C16 1_555 1_555
C17 C14 1_555 1_555
H13 C17 1_555 1_555
H14 C17 1_555 1_555
H15 C17 1_555 1_555
N2 C18 1_555 1_555
C18 C19 1_555 1_555
C1A C8 1_555 1_555
C2A C1A 1_555 1_555
H1A C2A 1_555 1_555
C3A C2A 1_555 1_555
H2A C3A 1_555 1_555
C4A C3A 1_555 1_555
H3A C4A 1_555 1_555
C5A C4A 1_555 1_555
H4A C5A 1_555 1_555
C6A C1A 1_555 1_555
C7A C6A 1_555 1_555
H5A C7A 1_555 1_555
C8A C1 1_555 1_555
H6A C8A 1_555 1_555
H7A C9 1_555 1_555
O1A C7A 1_555 1_555
C10A O1A 1_555 1_555
S1A C10A 1_555 1_555
N1A C10A 1_555 1_555
H8A N1A 1_555 1_555
C11A N1A 1_555 1_555
C12A C11A 1_555 1_555
H9A C12A 1_555 1_555
C13A C12A 1_555 1_555
H10A C13A 1_555 1_555
C14A C13A 1_555 1_555
C15A C14A 1_555 1_555
H11A C15A 1_555 1_555
C16A C11A 1_555 1_555
H12A C16A 1_555 1_555
C17A C14A 1_555 1_555
H13A C17A 1_555 1_555
H14A C17A 1_555 1_555
H15A C17A 1_555 1_555
C5 C6 1_555 1_555
C9 C8A 1_555 1_555
C15 C16 1_555 1_555
C5A C6A 1_555 1_555
C7A C8A 1_555 1_555
C15A C16A 1_555 1_555

#END
