
#######################################################################
#
#                 Cambridge Crystallographic Data Centre
#                                CCDC 
#
#######################################################################
#
# If this CIF has been generated from an entry in the Cambridge 
# Structural Database, then it will include bibliographic, chemical, 
# crystal, experimental, refinement or atomic coordinate data resulting 
# from the CCDC's data processing and validation procedures.
#
#######################################################################

data_EMIVIF01
_chemical_formula_moiety         'C21 H17 N3 O5'
_chemical_name_systematic        
'Ethyl 2-amino-4-(3-nitrophenyl)-4H-pyrano(3,2-h)quinoline-3-carboxylate'
_symmetry_cell_setting           triclinic
_symmetry_space_group_name_H-M   'P -1'
_symmetry_Int_Tables_number      2
_space_group_name_Hall           '-P 1'
loop_
_symmetry_equiv_pos_site_id
_symmetry_equiv_pos_as_xyz
1 x,y,z
2 -x,-y,-z
_cell_length_a                   7.886(1)
_cell_length_b                   9.896(2)
_cell_length_c                   12.575(3)
_cell_angle_alpha                77.81(2)
_cell_angle_beta                 82.69(2)
_cell_angle_gamma                73.86(2)
_cell_volume                     918.959
_exptl_crystal_colour            yellow
_chemical_melting_point          '200-202 deg.C'
_cell_formula_units_Z            2
_exptl_crystal_recrystallization_method dimethylformamide/water
loop_
_atom_site_label
_atom_site_type_symbol
_atom_site_fract_x
_atom_site_fract_y
_atom_site_fract_z
O1 O 0.14375(17) 0.03126(14) 0.62163(10)
O2 O 0.60516(18) 0.26179(15) 0.53623(10)
O3 O 0.4626(2) 0.25106(17) 0.39592(12)
O4 O 0.5623(3) 0.5938(2) 0.88706(16)
O5 O 0.7572(3) 0.4258(2) 0.82184(18)
N1 N -0.0619(2) -0.11285(17) 0.75624(13)
N2 N 0.2037(2) 0.11820(19) 0.44755(13)
H1 H 0.2588 0.1620 0.3938
H2 H 0.1195 0.0847 0.4358
N3 N 0.6042(3) 0.4892(2) 0.84338(16)
C1 C -0.1619(3) -0.1857(2) 0.82432(17)
H3 H -0.2553 -0.2038 0.7964
C2 C -0.1368(3) -0.2367(2) 0.93447(18)
H4 H -0.2113 -0.2875 0.9782
C3 C -0.0017(3) -0.2111(2) 0.97688(17)
H5 H 0.0168 -0.2441 1.0505
C4 C 0.1106(3) -0.13482(19) 0.90979(15)
C5 C 0.0742(2) -0.08718(19) 0.79902(15)
C6 C 0.1849(2) -0.00855(18) 0.72975(14)
C7 C 0.3183(2) 0.02622(18) 0.76762(14)
C8 C 0.3529(3) -0.0252(2) 0.87831(15)
H6 H 0.4461 -0.0048 0.9047
C9 C 0.2545(3) -0.1035(2) 0.94722(16)
H7 H 0.2816 -0.1367 1.0195
C10 C 0.2487(3) 0.10216(19) 0.54904(15)
C11 C 0.3788(2) 0.14985(19) 0.57856(14)
C12 C 0.4193(2) 0.12550(19) 0.69613(14)
H8 H 0.5461 0.0798 0.7010
C13 C 0.3768(2) 0.26414(18) 0.74076(14)
C14 C 0.5083(2) 0.3122(2) 0.77190(14)
H9 H 0.6262 0.2609 0.7650
C15 C 0.4627(3) 0.4372(2) 0.81344(15)
C16 C 0.2914(3) 0.5154(2) 0.82628(17)
H10 H 0.2641 0.5981 0.8559
C17 C 0.1603(3) 0.4686(2) 0.79435(17)
H11 H 0.0428 0.5207 0.8013
C18 C 0.2031(2) 0.34480(19) 0.75217(15)
H12 H 0.1133 0.3145 0.7308
C19 C 0.4808(3) 0.2234(2) 0.49406(16)
C20 C 0.7131(3) 0.3410(3) 0.46054(18)
H13 H 0.6385 0.4231 0.4164
H14 H 0.7886 0.2806 0.4125
C21 C 0.8222(3) 0.3888(3) 0.5256(2)
H15 H 0.7465 0.4555 0.5678
H16 H 0.9031 0.4342 0.4775
H17 H 0.8876 0.3075 0.5737
loop_
_geom_bond_atom_site_label_1
_geom_bond_atom_site_label_2
_geom_bond_site_symmetry_1
_geom_bond_site_symmetry_2
O1 C6 1_555 1_555
O2 C19 1_555 1_555
O3 C19 1_555 1_555
O4 N3 1_555 1_555
O5 N3 1_555 1_555
N1 C1 1_555 1_555
N2 H1 1_555 1_555
H2 N2 1_555 1_555
N3 C15 1_555 1_555
C1 H3 1_555 1_555
C2 C1 1_555 1_555
H4 C2 1_555 1_555
C3 C2 1_555 1_555
H5 C3 1_555 1_555
C4 C3 1_555 1_555
C5 N1 1_555 1_555
C6 C5 1_555 1_555
C7 C6 1_555 1_555
C8 C7 1_555 1_555
H6 C8 1_555 1_555
C9 C4 1_555 1_555
H7 C9 1_555 1_555
C10 O1 1_555 1_555
C11 C10 1_555 1_555
C12 C7 1_555 1_555
H8 C12 1_555 1_555
C13 C12 1_555 1_555
C14 C13 1_555 1_555
H9 C14 1_555 1_555
C15 C14 1_555 1_555
C16 C15 1_555 1_555
H10 C16 1_555 1_555
C17 C16 1_555 1_555
H11 C17 1_555 1_555
C18 C13 1_555 1_555
H12 C18 1_555 1_555
C19 C11 1_555 1_555
C20 O2 1_555 1_555
H13 C20 1_555 1_555
H14 C20 1_555 1_555
C21 C20 1_555 1_555
H15 C21 1_555 1_555
H16 C21 1_555 1_555
H17 C21 1_555 1_555
N2 C10 1_555 1_555
C4 C5 1_555 1_555
C8 C9 1_555 1_555
C11 C12 1_555 1_555
C17 C18 1_555 1_555

#END
