
#######################################################################
#
#                 Cambridge Crystallographic Data Centre
#                                CCDC 
#
#######################################################################
#
# If this CIF has been generated from an entry in the Cambridge 
# Structural Database, then it will include bibliographic, chemical, 
# crystal, experimental, refinement or atomic coordinate data resulting 
# from the CCDC's data processing and validation procedures.
#
#######################################################################

data_EMIYOO
_chemical_formula_moiety         'C22 H21 N3'
_chemical_name_systematic        
2-(1,2,3,4-Tetrahydrocyclopenta(1',2':4,5)-pyrrolo(2,3-b)quinolin-10-yl)-N,N-dimethylbenzenamine
_symmetry_cell_setting           triclinic
_symmetry_space_group_name_H-M   'P -1'
_symmetry_Int_Tables_number      2
_space_group_name_Hall           '-P 1'
loop_
_symmetry_equiv_pos_site_id
_symmetry_equiv_pos_as_xyz
1 x,y,z
2 -x,-y,-z
_cell_length_a                   7.8389(8)
_cell_length_b                   8.1513(9)
_cell_length_c                   13.5181(13)
_cell_angle_alpha                85.660(2)
_cell_angle_beta                 89.030(2)
_cell_angle_gamma                86.904(2)
_cell_volume                     859.964
_exptl_crystal_colour            brown
_chemical_melting_point          '260-261 deg.C'
_cell_formula_units_Z            2
loop_
_atom_site_label
_atom_site_type_symbol
_atom_site_fract_x
_atom_site_fract_y
_atom_site_fract_z
N1 N 0.2920(1) -0.0692(2) 0.4608(1)
N2 N 0.4117(2) 0.1883(2) 0.4171(1)
N3 N 0.2247(2) 0.2168(2) 0.0594(1)
C1 C 0.1555(3) -0.1484(2) 0.4276(1)
C2 C 0.0844(3) -0.3094(3) 0.4561(2)
C3 C -0.0734(3) -0.3027(3) 0.3885(2)
C4 C -0.0747(3) -0.1442(3) 0.3190(2)
C5 C 0.0729(2) -0.0578(2) 0.3550(1)
C6 C 0.1594(2) 0.0921(2) 0.3371(1)
C7 C 0.1480(2) 0.2287(2) 0.2705(1)
C8 C 0.2651(2) 0.3533(2) 0.2812(1)
C9 C 0.2582(3) 0.5040(2) 0.2221(1)
C10 C 0.3657(3) 0.6237(3) 0.2364(2)
C11 C 0.4893(3) 0.6011(3) 0.3103(2)
C12 C 0.5027(3) 0.4572(3) 0.3681(2)
C13 C 0.3916(2) 0.3297(2) 0.3560(1)
C14 C 0.2980(2) 0.0793(2) 0.4067(1)
C15 C 0.0145(3) 0.2457(2) 0.1929(1)
C16 C 0.0544(3) 0.2438(2) 0.0912(1)
C17 C -0.0783(3) 0.2734(3) 0.0243(2)
C18 C -0.2433(3) 0.3026(3) 0.0554(2)
C19 C -0.2852(3) 0.2989(3) 0.1546(2)
C20 C -0.1552(3) 0.2697(3) 0.2219(2)
C21 C 0.2595(4) 0.2461(4) -0.0462(2)
C22 C 0.3148(3) 0.0664(3) 0.0985(2)
H1 H 0.3609 -0.1063 0.5070
H2 H 0.0518 -0.3193 0.5258
H3 H 0.1646 -0.3998 0.4422
H4 H -0.0691 -0.3982 0.3497
H5 H -0.1770 -0.3040 0.4288
H6 H -0.0581 -0.1689 0.2504
H7 H -0.1808 -0.0788 0.3254
H8 H 0.1776 0.5211 0.1722
H9 H 0.3574 0.7220 0.1968
H10 H 0.5623 0.6845 0.3198
H11 H 0.5863 0.4426 0.4165
H12 H -0.0543 0.2733 -0.0433
H13 H -0.3285 0.3255 0.0085
H14 H -0.3979 0.3155 0.1756
H15 H -0.1820 0.2660 0.2892
H16 H 0.2096 0.1628 -0.0813
H17 H 0.3808 0.2422 -0.0578
H18 H 0.2111 0.3525 -0.0693
H19 H 0.2762 0.0389 0.1651
H20 H 0.4353 0.0821 0.0983
H21 H 0.2925 -0.0216 0.0579
loop_
_geom_bond_atom_site_label_1
_geom_bond_atom_site_label_2
_geom_bond_site_symmetry_1
_geom_bond_site_symmetry_2
N1 C1 1_555 1_555
N2 C13 1_555 1_555
N3 C16 1_555 1_555
C1 C2 1_555 1_555
C2 C3 1_555 1_555
C3 C4 1_555 1_555
C4 C5 1_555 1_555
C5 C1 1_555 1_555
C6 C5 1_555 1_555
C7 C6 1_555 1_555
C8 C7 1_555 1_555
C9 C8 1_555 1_555
C10 C9 1_555 1_555
C11 C10 1_555 1_555
C12 C11 1_555 1_555
C13 C8 1_555 1_555
C14 N1 1_555 1_555
C15 C7 1_555 1_555
C16 C15 1_555 1_555
C17 C16 1_555 1_555
C18 C17 1_555 1_555
C19 C18 1_555 1_555
C20 C15 1_555 1_555
C21 N3 1_555 1_555
C22 N3 1_555 1_555
H1 N1 1_555 1_555
H2 C2 1_555 1_555
H3 C2 1_555 1_555
H4 C3 1_555 1_555
H5 C3 1_555 1_555
H6 C4 1_555 1_555
H7 C4 1_555 1_555
H8 C9 1_555 1_555
H9 C10 1_555 1_555
H10 C11 1_555 1_555
H11 C12 1_555 1_555
H12 C17 1_555 1_555
H13 C18 1_555 1_555
H14 C19 1_555 1_555
H15 C20 1_555 1_555
H16 C21 1_555 1_555
H17 C21 1_555 1_555
H18 C21 1_555 1_555
H19 C22 1_555 1_555
H20 C22 1_555 1_555
H21 C22 1_555 1_555
N2 C14 1_555 1_555
C6 C14 1_555 1_555
C12 C13 1_555 1_555
C19 C20 1_555 1_555

#END
