
#######################################################################
#
#                 Cambridge Crystallographic Data Centre
#                                CCDC 
#
#######################################################################
#
# If this CIF has been generated from an entry in the Cambridge 
# Structural Database, then it will include bibliographic, chemical, 
# crystal, experimental, refinement or atomic coordinate data resulting 
# from the CCDC's data processing and validation procedures.
#
#######################################################################

data_EMOFUH
_chemical_formula_moiety         'C10 H13 N1 O4 S1'
_chemical_name_systematic        'Methyl p-tosylsulfonyl-glycine'
_symmetry_cell_setting           triclinic
_symmetry_space_group_name_H-M   'P -1'
_symmetry_Int_Tables_number      2
_space_group_name_Hall           '-P 1'
loop_
_symmetry_equiv_pos_site_id
_symmetry_equiv_pos_as_xyz
1 x,y,z
2 -x,-y,-z
_cell_length_a                   6.0266(10)
_cell_length_b                   7.0297(12)
_cell_length_c                   13.948(2)
_cell_angle_alpha                83.647(4)
_cell_angle_beta                 80.931(4)
_cell_angle_gamma                84.388(3)
_cell_volume                     577.993
_cell_formula_units_Z            2
loop_
_atom_site_label
_atom_site_type_symbol
_atom_site_fract_x
_atom_site_fract_y
_atom_site_fract_z
S1 S 0.3335(1) 0.7996(1) 0.7028(1)
O1 O 0.7109(4) 0.6129(3) 0.4377(1)
O2 O 0.9897(3) 0.7983(2) 0.4392(1)
O3 O 0.1041(3) 0.7572(3) 0.7073(1)
O4 O 0.3829(3) 0.9853(2) 0.7222(2)
N1 N 0.4578(3) 0.7667(3) 0.5936(1)
C1 C 0.7935(4) 0.7295(3) 0.4737(2)
C2 C 0.6903(4) 0.8169(4) 0.5648(2)
C3 C 0.4601(3) 0.6272(3) 0.7839(2)
C4 C 0.6387(4) 0.6727(4) 0.8265(2)
C5 C 0.7439(4) 0.5324(5) 0.8852(2)
C6 C 0.6776(5) 0.3465(4) 0.9015(2)
C7 C 0.4959(5) 0.3049(4) 0.8591(2)
C8 C 0.3890(4) 0.4427(4) 0.7997(2)
C9 C 0.7996(6) 0.1936(6) 0.9625(2)
C10 C 1.1114(5) 0.7300(4) 0.3499(2)
loop_
_geom_bond_atom_site_label_1
_geom_bond_atom_site_label_2
_geom_bond_site_symmetry_1
_geom_bond_site_symmetry_2
S1 O3 1_555 1_555
O1 C1 1_555 1_555
O2 C1 1_555 1_555
O4 S1 1_555 1_555
N1 S1 1_555 1_555
C1 C2 1_555 1_555
C2 N1 1_555 1_555
C3 S1 1_555 1_555
C4 C3 1_555 1_555
C5 C4 1_555 1_555
C6 C5 1_555 1_555
C7 C6 1_555 1_555
C8 C3 1_555 1_555
C9 C6 1_555 1_555
C10 O2 1_555 1_555
C7 C8 1_555 1_555

#END
