
#######################################################################
#
#                 Cambridge Crystallographic Data Centre
#                                CCDC 
#
#######################################################################
#
# If this CIF has been generated from an entry in the Cambridge 
# Structural Database, then it will include bibliographic, chemical, 
# crystal, experimental, refinement or atomic coordinate data resulting 
# from the CCDC's data processing and validation procedures.
#
#######################################################################

data_EMOGAO
_chemical_formula_moiety         'C27 H22 N2 O3 S1'
_chemical_name_systematic        
1-(2a,4-Diphenyl-1-oxo-2,2a,3,4-tetrahydro-1H-azeto(2,1-d)(1,5)benzothiazepin-2-yl)pyrrolidine-2,5-dione
_symmetry_cell_setting           monoclinic
_symmetry_space_group_name_H-M   'P 21/n'
_symmetry_Int_Tables_number      14
_space_group_name_Hall           '-P 2yn'
loop_
_symmetry_equiv_pos_site_id
_symmetry_equiv_pos_as_xyz
1 x,y,z
2 1/2-x,1/2+y,1/2-z
3 -x,-y,-z
4 1/2+x,1/2-y,1/2+z
_cell_length_a                   16.770(4)
_cell_length_b                   11.022(2)
_cell_length_c                   25.882(6)
_cell_angle_alpha                90
_cell_angle_beta                 105.317(4)
_cell_angle_gamma                90
_cell_volume                     4614.07
_cell_formula_units_Z            8
loop_
_atom_site_label
_atom_site_type_symbol
_atom_site_fract_x
_atom_site_fract_y
_atom_site_fract_z
S1 S 0.5948(1) 0.5200(1) 0.0879(1)
O1 O 0.9305(1) 0.6177(2) 0.3080(1)
O2 O 0.8068(1) 0.9486(2) 0.2161(1)
O3 O 0.6584(2) 0.8123(2) 0.2440(1)
N1 N 0.8533(1) 0.7683(2) 0.2573(1)
N2 N 0.6834(1) 0.7257(2) 0.1666(1)
C1 C 0.6988(1) 0.7580(2) 0.2194(1)
C2 C 0.7826(1) 0.6936(2) 0.2338(1)
C3 C 0.7636(1) 0.6613(2) 0.1720(1)
C4 C 0.7531(1) 0.5260(2) 0.1602(1)
C5 C 0.7074(1) 0.4975(2) 0.1021(1)
C6 C 0.5771(1) 0.6783(2) 0.0837(1)
C7 C 0.5139(2) 0.7210(2) 0.0412(1)
C8 C 0.4903(2) 0.8413(2) 0.0382(1)
C9 C 0.5300(2) 0.9222(2) 0.0771(1)
C10 C 0.5939(2) 0.8824(2) 0.1191(1)
C11 C 0.6181(1) 0.7614(2) 0.1225(1)
C12 C 0.8615(2) 0.8897(2) 0.2449(1)
C13 C 0.9476(2) 0.9287(3) 0.2739(1)
C14 C 0.9867(2) 0.8207(3) 0.3061(1)
C15 C 0.9245(2) 0.7210(2) 0.2928(1)
C16 C 0.8236(1) 0.7187(2) 0.1444(1)
C17 C 0.8010(2) 0.8034(2) 0.1041(1)
C18 C 0.8605(2) 0.8535(3) 0.0821(2)
C19 C 0.9416(2) 0.8204(3) 0.1000(1)
C20 C 0.9648(2) 0.7360(3) 0.1397(1)
C21 C 0.9059(2) 0.6844(2) 0.1608(1)
C22 C 0.7157(1) 0.3671(2) 0.0857(1)
C23 C 0.7182(2) 0.3406(2) 0.0340(1)
C24 C 0.7229(2) 0.2223(2) 0.0176(1)
C25 C 0.7253(2) 0.1285(2) 0.0527(1)
C26 C 0.7247(2) 0.1526(2) 0.1045(1)
C27 C 0.7200(2) 0.2713(2) 0.1210(1)
loop_
_geom_bond_atom_site_label_1
_geom_bond_atom_site_label_2
_geom_bond_site_symmetry_1
_geom_bond_site_symmetry_2
S1 C5 1_555 1_555
O1 C15 1_555 1_555
O2 C12 1_555 1_555
O3 C1 1_555 1_555
N1 C2 1_555 1_555
N2 C1 1_555 1_555
C1 C2 1_555 1_555
C2 C3 1_555 1_555
C3 N2 1_555 1_555
C4 C3 1_555 1_555
C5 C4 1_555 1_555
C6 S1 1_555 1_555
C7 C6 1_555 1_555
C8 C7 1_555 1_555
C9 C8 1_555 1_555
C10 C9 1_555 1_555
C11 N2 1_555 1_555
C12 N1 1_555 1_555
C13 C12 1_555 1_555
C14 C13 1_555 1_555
C15 N1 1_555 1_555
C16 C3 1_555 1_555
C17 C16 1_555 1_555
C18 C17 1_555 1_555
C19 C18 1_555 1_555
C20 C19 1_555 1_555
C21 C16 1_555 1_555
C22 C5 1_555 1_555
C23 C22 1_555 1_555
C24 C23 1_555 1_555
C25 C24 1_555 1_555
C26 C25 1_555 1_555
C27 C22 1_555 1_555
C6 C11 1_555 1_555
C10 C11 1_555 1_555
C14 C15 1_555 1_555
C20 C21 1_555 1_555
C26 C27 1_555 1_555

#END
