
#######################################################################
#
#                 Cambridge Crystallographic Data Centre
#                                CCDC 
#
#######################################################################
#
# If this CIF has been generated from an entry in the Cambridge 
# Structural Database, then it will include bibliographic, chemical, 
# crystal, experimental, refinement or atomic coordinate data resulting 
# from the CCDC's data processing and validation procedures.
#
#######################################################################

data_EMOHUL
_chemical_formula_moiety         'C37 H33 N1 O3 S1'
_chemical_name_systematic        
'ethyl N-((4-methylphenyl)sulfonyl)-2-(4-(triphenylvinyl)phenyl)ethanimidate'
_symmetry_cell_setting           monoclinic
_symmetry_space_group_name_H-M   'P 21/n'
_symmetry_Int_Tables_number      14
_space_group_name_Hall           '-P 2yn'
loop_
_symmetry_equiv_pos_site_id
_symmetry_equiv_pos_as_xyz
1 x,y,z
2 1/2-x,1/2+y,1/2-z
3 -x,-y,-z
4 1/2+x,1/2-y,1/2+z
_cell_length_a                   17.4283(6)
_cell_length_b                   9.6165(2)
_cell_length_c                   19.5792(7)
_cell_angle_alpha                90
_cell_angle_beta                 115.005(4)
_cell_angle_gamma                90
_cell_volume                     2973.89
_exptl_crystal_colour            colorless
_exptl_crystal_description       plate
_cell_formula_units_Z            4
loop_
_atom_site_label
_atom_site_type_symbol
_atom_site_fract_x
_atom_site_fract_y
_atom_site_fract_z
S1 S 0.58834(3) 0.32496(5) 0.64748(3)
O1 O 0.61088(9) 0.31791(15) 0.58493(8)
O2 O 0.53982(8) 0.21145(14) 0.65714(8)
O3 O 0.43714(8) 0.62973(14) 0.59828(7)
N1 N 0.54333(10) 0.47489(17) 0.64755(9)
C1 C 0.46938(11) 0.50553(19) 0.59699(10)
C2 C 0.40936(11) 0.4195(2) 0.53166(10)
H1 H 0.4393 0.3357 0.5262
H2 H 0.3915 0.4744 0.4846
C3 C 0.48899(14) 0.7258(2) 0.65810(13)
H3 H 0.5465 0.7332 0.6600
H4 H 0.4940 0.6922 0.7076
C4 C 0.44544(15) 0.8649(2) 0.64003(16)
H5 H 0.4406 0.8966 0.5908
H6 H 0.4786 0.9324 0.6788
H7 H 0.3888 0.8563 0.6387
C5 C 0.11496(12) 0.2615(2) 0.58376(11)
C6 C 0.18678(12) 0.2977(2) 0.56414(10)
C7 C 0.18556(12) 0.4134(2) 0.52063(10)
H8 H 0.1351 0.4665 0.4976
C8 C 0.25684(12) 0.4525(2) 0.51030(10)
H9 H 0.2547 0.5326 0.4811
C9 C 0.33132(11) 0.3752(2) 0.54240(10)
C10 C 0.33267(11) 0.2574(2) 0.58371(10)
H10 H 0.3823 0.2017 0.6044
C11 C 0.26189(12) 0.2204(2) 0.59494(10)
H11 H 0.2645 0.1405 0.6243
C12 C 0.03317(12) 0.2584(2) 0.53264(11)
C13 C 0.01095(12) 0.2626(2) 0.44985(11)
C14 C -0.05209(13) 0.3500(2) 0.40126(11)
H12 H -0.0805 0.4118 0.4207
C15 C -0.07385(14) 0.3473(2) 0.32377(12)
H13 H -0.1159 0.4088 0.2909
C16 C -0.03409(14) 0.2553(3) 0.29533(12)
H14 H -0.0487 0.2539 0.2428
C17 C 0.02618(14) 0.1659(2) 0.34222(12)
H15 H 0.0523 0.1011 0.3221
C18 C 0.04896(12) 0.1702(2) 0.41894(12)
H16 H 0.0915 0.1087 0.4512
C19 C 0.14247(11) 0.2309(2) 0.66578(10)
C20 C 0.19913(12) 0.3216(2) 0.71920(11)
H17 H 0.2169 0.4036 0.7029
C21 C 0.22970(13) 0.2933(2) 0.79572(12)
H18 H 0.2678 0.3561 0.8315
C22 C 0.20438(14) 0.1729(2) 0.81996(11)
H19 H 0.2251 0.1532 0.8723
C23 C 0.14895(13) 0.0823(2) 0.76760(11)
H20 H 0.1316 0.0000 0.7840
C24 C 0.11834(12) 0.1107(2) 0.69092(11)
H21 H 0.0806 0.0472 0.6554
C25 C -0.03983(12) 0.2443(2) 0.55319(11)
C26 C -0.04261(13) 0.3130(2) 0.61490(11)
H22 H 0.0033 0.3710 0.6453
C27 C -0.11133(14) 0.2978(2) 0.63264(12)
H23 H -0.1117 0.3447 0.6752
C28 C -0.17931(14) 0.2148(2) 0.58883(14)
H24 H -0.2258 0.2035 0.6015
C29 C -0.17871(13) 0.1489(2) 0.52657(13)
H25 H -0.2255 0.0929 0.4957
C30 C -0.10988(13) 0.1639(2) 0.50858(12)
H26 H -0.1106 0.1186 0.4652
C31 C 0.89431(15) 0.4342(3) 0.93932(12)
H27 H 0.8784 0.4199 0.9812
H28 H 0.9102 0.5317 0.9383
H29 H 0.9424 0.3742 0.9461
C32 C 0.68112(12) 0.3454(2) 0.73121(11)
C33 C 0.74524(12) 0.4303(2) 0.73104(11)
H30 H 0.7415 0.4704 0.6854
C34 C 0.81481(13) 0.4558(2) 0.79829(12)
H31 H 0.8594 0.5129 0.7986
C35 C 0.82023(13) 0.3984(2) 0.86601(11)
C36 C 0.75627(13) 0.3112(2) 0.86392(12)
H32 H 0.7601 0.2697 0.9093
C37 C 0.68696(13) 0.2834(2) 0.79711(12)
H33 H 0.6437 0.2223 0.7963
loop_
_geom_bond_atom_site_label_1
_geom_bond_atom_site_label_2
_geom_bond_site_symmetry_1
_geom_bond_site_symmetry_2
S1 O1 1_555 1_555
O2 S1 1_555 1_555
O3 C1 1_555 1_555
N1 S1 1_555 1_555
C1 N1 1_555 1_555
C2 C1 1_555 1_555
H1 C2 1_555 1_555
H2 C2 1_555 1_555
C3 O3 1_555 1_555
H3 C3 1_555 1_555
H4 C3 1_555 1_555
C4 C3 1_555 1_555
H5 C4 1_555 1_555
H6 C4 1_555 1_555
H7 C4 1_555 1_555
C5 C6 1_555 1_555
C6 C7 1_555 1_555
C7 H8 1_555 1_555
C8 C7 1_555 1_555
H9 C8 1_555 1_555
C9 C2 1_555 1_555
C10 C9 1_555 1_555
H10 C10 1_555 1_555
C11 C6 1_555 1_555
H11 C11 1_555 1_555
C12 C5 1_555 1_555
C13 C12 1_555 1_555
C14 C13 1_555 1_555
H12 C14 1_555 1_555
C15 C14 1_555 1_555
H13 C15 1_555 1_555
C16 C15 1_555 1_555
H14 C16 1_555 1_555
C17 C16 1_555 1_555
H15 C17 1_555 1_555
C18 C13 1_555 1_555
H16 C18 1_555 1_555
C19 C5 1_555 1_555
C20 C19 1_555 1_555
H17 C20 1_555 1_555
C21 C20 1_555 1_555
H18 C21 1_555 1_555
C22 C21 1_555 1_555
H19 C22 1_555 1_555
C23 C22 1_555 1_555
H20 C23 1_555 1_555
C24 C19 1_555 1_555
H21 C24 1_555 1_555
C25 C12 1_555 1_555
C26 C25 1_555 1_555
H22 C26 1_555 1_555
C27 C26 1_555 1_555
H23 C27 1_555 1_555
C28 C27 1_555 1_555
H24 C28 1_555 1_555
C29 C28 1_555 1_555
H25 C29 1_555 1_555
C30 C25 1_555 1_555
H26 C30 1_555 1_555
C31 H27 1_555 1_555
H28 C31 1_555 1_555
H29 C31 1_555 1_555
C32 S1 1_555 1_555
C33 C32 1_555 1_555
H30 C33 1_555 1_555
C34 C33 1_555 1_555
H31 C34 1_555 1_555
C35 C31 1_555 1_555
C36 C35 1_555 1_555
H32 C36 1_555 1_555
C37 C32 1_555 1_555
H33 C37 1_555 1_555
C8 C9 1_555 1_555
C10 C11 1_555 1_555
C17 C18 1_555 1_555
C23 C24 1_555 1_555
C29 C30 1_555 1_555
C34 C35 1_555 1_555
C36 C37 1_555 1_555

#END
