
#######################################################################
#
#                 Cambridge Crystallographic Data Centre
#                                CCDC 
#
#######################################################################
#
# If this CIF has been generated from an entry in the Cambridge 
# Structural Database, then it will include bibliographic, chemical, 
# crystal, experimental, refinement or atomic coordinate data resulting 
# from the CCDC's data processing and validation procedures.
#
#######################################################################

data_EMOMUP
_chemical_formula_moiety         'C19 H14 F2 N2 O3'
_chemical_name_systematic        
5-(2,4-Difluorophenyl)-N'-(2-methoxybenzylidene)-2-furohydrazide
_symmetry_cell_setting           triclinic
_symmetry_space_group_name_H-M   'P -1'
_symmetry_Int_Tables_number      2
_space_group_name_Hall           '-P 1'
loop_
_symmetry_equiv_pos_site_id
_symmetry_equiv_pos_as_xyz
1 x,y,z
2 -x,-y,-z
_cell_length_a                   8.767(4)
_cell_length_b                   13.404(7)
_cell_length_c                   16.815(8)
_cell_angle_alpha                105.334(9)
_cell_angle_beta                 99.257(9)
_cell_angle_gamma                107.126(10)
_cell_volume                     1758.98
_cell_formula_units_Z            4
loop_
_atom_site_label
_atom_site_type_symbol
_atom_site_fract_x
_atom_site_fract_y
_atom_site_fract_z
F1 F 0.0972(3) 0.3190(2) 0.56787(13)
F2 F 0.5305(3) 0.21621(19) 0.67343(12)
O1 O 0.5961(2) 0.10373(16) 0.43007(12)
O2 O 0.8799(3) -0.00994(19) 0.34845(13)
O3 O 0.2739(3) -0.1808(2) 0.01150(14)
N1 N 0.6467(3) 0.0047(2) 0.27893(16)
H1 H 0.5610 0.0226 0.2829
N2 N 0.6729(3) -0.0361(2) 0.20023(17)
C1 C 0.4333(4) 0.2242(3) 0.6055(2)
C2 C 0.3135(5) 0.2676(3) 0.6219(2)
H3 H 0.2998 0.2908 0.6766
C3 C 0.2165(5) 0.2749(3) 0.5539(3)
C4 C 0.2331(5) 0.2400(3) 0.4732(2)
H4 H 0.1636 0.2452 0.4277
C5 C 0.3551(5) 0.1968(3) 0.4603(2)
H5 H 0.3672 0.1733 0.4052
C6 C 0.4603(4) 0.1873(3) 0.5263(2)
C7 C 0.5893(4) 0.1415(3) 0.5134(2)
C8 C 0.7102(4) 0.1261(3) 0.5642(2)
H6 H 0.7325 0.1446 0.6233
C9 C 0.7966(4) 0.0770(3) 0.5115(2)
H7 H 0.8861 0.0572 0.5292
C10 C 0.7250(4) 0.0645(3) 0.4313(2)
C11 C 0.7576(4) 0.0164(3) 0.3502(2)
C12 C 0.5509(4) -0.0615(2) 0.1367(2)
H8 H 0.4526 -0.0548 0.1467
C13 C 0.5604(5) -0.1009(3) 0.0489(2)
C14 C 0.7084(5) -0.0797(3) 0.0261(2)
H9 H 0.8073 -0.0430 0.0684
C15 C 0.7118(6) -0.1123(3) -0.0585(3)
H10 H 0.8123 -0.0977 -0.0729
C16 C 0.5657(7) -0.1664(3) -0.1213(3)
H11 H 0.5676 -0.1873 -0.1784
C17 C 0.4175(5) -0.1899(3) -0.1004(2)
H12 H 0.3191 -0.2269 -0.1431
C18 C 0.4150(5) -0.1582(3) -0.0160(2)
C19 C 0.1173(5) -0.2321(4) -0.0487(3)
H13 H 0.1054 -0.1872 -0.0836
H14 H 0.0318 -0.2401 -0.0191
H15 H 0.1087 -0.3036 -0.0841
F3 F 0.2119(3) -0.5558(2) 0.06667(17)
F4 F 0.7602(4) -0.5334(2) 0.1370(2)
O4 O 0.9224(3) -0.19473(18) 0.18219(12)
O5 O 1.3187(3) 0.0173(2) 0.24894(14)
O6 O 0.8263(4) 0.2958(2) 0.32092(18)
N3 N 1.0618(3) 0.0274(2) 0.22454(14)
H2 H 0.9567 -0.0075 0.2087
N4 N 1.1270(3) 0.1418(2) 0.24734(15)
C20 C 0.6504(7) -0.4826(4) 0.1266(3)
C21 C 0.4874(8) -0.5460(4) 0.1029(3)
H16 H 0.4531 -0.6214 0.0948
C22 C 0.3759(6) -0.4949(4) 0.0915(3)
C23 C 0.4238(6) -0.3844(4) 0.1029(2)
H17 H 0.3462 -0.3510 0.0942
C24 C 0.5895(5) -0.3244(3) 0.1273(2)
H18 H 0.6235 -0.2487 0.1363
C25 C 0.7087(5) -0.3715(3) 0.1390(2)
C26 C 0.8835(5) -0.3073(3) 0.1630(2)
C27 C 1.0270(6) -0.3278(4) 0.1715(2)
H19 H 1.0366 -0.3970 0.1621
C28 C 1.1567(5) -0.2276(4) 0.1966(2)
H20 H 1.2687 -0.2172 0.2069
C29 C 1.0902(4) -0.1476(3) 0.20307(19)
C30 C 1.1684(5) -0.0276(3) 0.22805(19)
C31 C 1.0229(4) 0.1900(3) 0.25861(18)
H21 H 0.9130 0.1482 0.2512
C32 C 1.0743(4) 0.3096(3) 0.2829(2)
C33 C 1.2232(5) 0.3732(3) 0.2756(3)
H22 H 1.2923 0.3387 0.2535
C34 C 1.2720(6) 0.4866(4) 0.3002(4)
H23 H 1.3720 0.5287 0.2941
C35 C 1.1693(8) 0.5362(4) 0.3339(3)
H24 H 1.2025 0.6129 0.3515
C36 C 1.0208(7) 0.4772(4) 0.3425(3)
H25 H 0.9539 0.5127 0.3659
C37 C 0.9723(5) 0.3637(3) 0.3156(2)
C38 C 0.7218(6) 0.3443(4) 0.3612(3)
H26 H 0.7776 0.3849 0.4202
H27 H 0.6215 0.2871 0.3571
H28 H 0.6961 0.3935 0.3334
loop_
_geom_bond_atom_site_label_1
_geom_bond_atom_site_label_2
_geom_bond_site_symmetry_1
_geom_bond_site_symmetry_2
F1 C3 1_555 1_555
F2 C1 1_555 1_555
F3 C22 1_555 1_555
F4 C20 1_555 1_555
O1 C7 1_555 1_555
O2 C11 1_555 1_555
O3 C18 1_555 1_555
O4 C26 1_555 1_555
O5 C30 1_555 1_555
O6 C37 1_555 1_555
N1 H1 1_555 1_555
N2 N1 1_555 1_555
N3 H2 1_555 1_555
N4 N3 1_555 1_555
C1 C2 1_555 1_555
C2 H3 1_555 1_555
C3 C2 1_555 1_555
C4 C3 1_555 1_555
H4 C4 1_555 1_555
C5 C4 1_555 1_555
H5 C5 1_555 1_555
C6 C1 1_555 1_555
C7 C6 1_555 1_555
C8 C7 1_555 1_555
H6 C8 1_555 1_555
C9 C8 1_555 1_555
H7 C9 1_555 1_555
C10 O1 1_555 1_555
C11 N1 1_555 1_555
C12 N2 1_555 1_555
H8 C12 1_555 1_555
C13 C12 1_555 1_555
C14 C13 1_555 1_555
H9 C14 1_555 1_555
C15 C14 1_555 1_555
H10 C15 1_555 1_555
C16 C15 1_555 1_555
H11 C16 1_555 1_555
C17 C16 1_555 1_555
H12 C17 1_555 1_555
C18 C13 1_555 1_555
C19 O3 1_555 1_555
H13 C19 1_555 1_555
H14 C19 1_555 1_555
H15 C19 1_555 1_555
C20 C21 1_555 1_555
C21 H16 1_555 1_555
C22 C21 1_555 1_555
C23 C22 1_555 1_555
H17 C23 1_555 1_555
C24 C23 1_555 1_555
H18 C24 1_555 1_555
C25 C20 1_555 1_555
C26 C25 1_555 1_555
C27 C26 1_555 1_555
H19 C27 1_555 1_555
C28 C27 1_555 1_555
H20 C28 1_555 1_555
C29 O4 1_555 1_555
C30 N3 1_555 1_555
C31 N4 1_555 1_555
H21 C31 1_555 1_555
C32 C31 1_555 1_555
C33 C32 1_555 1_555
H22 C33 1_555 1_555
C34 C33 1_555 1_555
H23 C34 1_555 1_555
C35 C34 1_555 1_555
H24 C35 1_555 1_555
C36 C35 1_555 1_555
H25 C36 1_555 1_555
C37 C32 1_555 1_555
C38 O6 1_555 1_555
H26 C38 1_555 1_555
H27 C38 1_555 1_555
H28 C38 1_555 1_555
C5 C6 1_555 1_555
C9 C10 1_555 1_555
C10 C11 1_555 1_555
C17 C18 1_555 1_555
C24 C25 1_555 1_555
C28 C29 1_555 1_555
C29 C30 1_555 1_555
C36 C37 1_555 1_555

#END
