
#######################################################################
#
#                 Cambridge Crystallographic Data Centre
#                                CCDC 
#
#######################################################################
#
# If this CIF has been generated from an entry in the Cambridge 
# Structural Database, then it will include bibliographic, chemical, 
# crystal, experimental, refinement or atomic coordinate data resulting 
# from the CCDC's data processing and validation procedures.
#
#######################################################################

data_EMOMOJ
_chemical_formula_moiety         'C18 H13 Cl1 N2 O2,C1 H4 O1'
_chemical_name_systematic        
"N'-Benzylidene-5-(4-chlorophenyl)-2-furohydrazide methanol solvate"
_symmetry_cell_setting           triclinic
_symmetry_space_group_name_H-M   'P -1'
_symmetry_Int_Tables_number      2
_space_group_name_Hall           '-P 1'
loop_
_symmetry_equiv_pos_site_id
_symmetry_equiv_pos_as_xyz
1 x,y,z
2 -x,-y,-z
_cell_length_a                   6.4301(13)
_cell_length_b                   9.1796(18)
_cell_length_c                   15.822(3)
_cell_angle_alpha                103.54(3)
_cell_angle_beta                 91.42(3)
_cell_angle_gamma                110.24(3)
_cell_volume                     846.138
_exptl_crystal_colour            colorless
_exptl_crystal_description       prism
_cell_formula_units_Z            2
loop_
_atom_site_label
_atom_site_type_symbol
_atom_site_fract_x
_atom_site_fract_y
_atom_site_fract_z
Cl1 Cl 0.2327(5) -0.3313(3) -0.29597(17)
N1 N 0.9833(15) 0.6919(11) 0.2088(6)
H1 H 1.1194 0.6969 0.2091
N2 N 0.9269(15) 0.8056(11) 0.2659(6)
O1 O 0.7225(13) 0.3295(9) 0.0353(5)
O2 O 0.6268(14) 0.5695(11) 0.1454(5)
C1 C 0.4689(19) 0.0900(14) -0.1136(8)
H3 H 0.4179 0.1730 -0.0913
C2 C 0.342(2) -0.0408(16) -0.1805(8)
H4 H 0.2077 -0.0419 -0.2049
C3 C 0.405(2) -0.1665(15) -0.2114(8)
C4 C 0.612(2) -0.1638(13) -0.1770(8)
H5 H 0.6576 -0.2503 -0.1974
C5 C 0.7445(19) -0.0326(15) -0.1134(8)
H6 H 0.8827 -0.0293 -0.0922
C6 C 0.6779(18) 0.0957(13) -0.0796(8)
C7 C 0.823(2) 0.2284(14) -0.0101(7)
C8 C 1.0367(18) 0.2802(13) 0.0222(7)
H7 H 1.1366 0.2298 0.0036
C9 C 1.0878(19) 0.4235(15) 0.0888(8)
H8 H 1.2259 0.4868 0.1207
C10 C 0.8846(18) 0.4509(13) 0.0969(7)
C11 C 0.8176(16) 0.5706(13) 0.1516(7)
C12 C 1.099(2) 0.9269(13) 0.3124(8)
H9 H 1.2448 0.9349 0.3040
C13 C 1.0489(17) 1.0511(14) 0.3791(7)
C14 C 0.840(2) 1.0328(14) 0.4079(8)
H10 H 0.7191 0.9389 0.3831
C15 C 0.810(2) 1.1507(15) 0.4722(7)
H11 H 0.6695 1.1336 0.4912
C16 C 0.982(2) 1.2936(15) 0.5093(8)
H12 H 0.9613 1.3714 0.5542
C17 C 1.195(2) 1.3189(16) 0.4765(8)
H13 H 1.3116 1.4173 0.4959
C18 C 1.2206(18) 1.1971(14) 0.4171(8)
H14 H 1.3623 1.2112 0.4002
O3 O 0.4126(13) 0.7094(11) 0.2713(5)
H2 H 0.4776 0.6671 0.2331
C19 C 0.391(2) 0.5977(16) 0.3236(9)
H15 H 0.5350 0.5933 0.3372
H16 H 0.2913 0.4930 0.2917
H17 H 0.3334 0.6321 0.3769
loop_
_geom_bond_atom_site_label_1
_geom_bond_atom_site_label_2
_geom_bond_site_symmetry_1
_geom_bond_site_symmetry_2
Cl1 C3 1_555 1_555
N1 H1 1_555 1_555
N2 N1 1_555 1_555
O1 C7 1_555 1_555
O2 C11 1_555 1_555
O3 H2 1_555 1_555
C1 H3 1_555 1_555
C2 C1 1_555 1_555
H4 C2 1_555 1_555
C3 C2 1_555 1_555
C4 C3 1_555 1_555
H5 C4 1_555 1_555
C5 C4 1_555 1_555
H6 C5 1_555 1_555
C6 C1 1_555 1_555
C7 C6 1_555 1_555
C8 C7 1_555 1_555
H7 C8 1_555 1_555
C9 C8 1_555 1_555
H8 C9 1_555 1_555
C10 O1 1_555 1_555
C11 N1 1_555 1_555
C12 N2 1_555 1_555
H9 C12 1_555 1_555
C13 C12 1_555 1_555
C14 C13 1_555 1_555
H10 C14 1_555 1_555
C15 C14 1_555 1_555
H11 C15 1_555 1_555
C16 C15 1_555 1_555
H12 C16 1_555 1_555
C17 C16 1_555 1_555
H13 C17 1_555 1_555
C18 C13 1_555 1_555
H14 C18 1_555 1_555
C19 O3 1_555 1_555
H15 C19 1_555 1_555
H16 C19 1_555 1_555
H17 C19 1_555 1_555
C5 C6 1_555 1_555
C9 C10 1_555 1_555
C10 C11 1_555 1_555
C17 C18 1_555 1_555

#END
