
#######################################################################
#
#                 Cambridge Crystallographic Data Centre
#                                CCDC 
#
#######################################################################
#
# If this CIF has been generated from an entry in the Cambridge 
# Structural Database, then it will include bibliographic, chemical, 
# crystal, experimental, refinement or atomic coordinate data resulting 
# from the CCDC's data processing and validation procedures.
#
#######################################################################

data_EMOPOL
_chemical_formula_moiety         'C28 H41 I1 O4 S1'
_chemical_name_systematic        
8,8-Ethylenedioxy-5-(1-isopropyl-2-p-tosylethyl)-10-(1-(iodomethyl)ethyl)-3-methylbicyclo(4.4.0)dec-2-ene
_symmetry_cell_setting           orthorhombic
_symmetry_space_group_name_H-M   'P 21 21 21'
_symmetry_Int_Tables_number      19
_space_group_name_Hall           'P 2ac 2ab'
loop_
_symmetry_equiv_pos_site_id
_symmetry_equiv_pos_as_xyz
1 x,y,z
2 1/2-x,-y,1/2+z
3 1/2+x,1/2-y,-z
4 -x,1/2+y,1/2-z
_cell_length_a                   10.2837(2)
_cell_length_b                   13.7065(3)
_cell_length_c                   19.2052(1)
_cell_angle_alpha                90
_cell_angle_beta                 90
_cell_angle_gamma                90
_cell_volume                     2707.04
_exptl_crystal_colour            colorless
_chemical_melting_point          '193 deg.C'
_cell_formula_units_Z            4
loop_
_atom_site_label
_atom_site_type_symbol
_atom_site_fract_x
_atom_site_fract_y
_atom_site_fract_z
I1 I 0.2993(1) 0.5335(1) 0.1431(1)
S1 S -0.4827(1) 0.6844(1) 0.3761(1)
O1 O -0.3370(3) 0.5904(2) -0.0120(2)
O2 O -0.2191(3) 0.4741(2) 0.0426(2)
O3 O -0.5869(3) 0.6135(3) 0.3729(2)
O4 O -0.4939(4) 0.7732(3) 0.3359(2)
C1 C -0.2389(5) 0.5767(4) 0.0402(2)
C2 C -0.1144(5) 0.6246(4) 0.0170(2)
C3 C -0.0031(4) 0.6138(3) 0.0708(2)
C4 C -0.0491(4) 0.6532(3) 0.1423(3)
C5 C -0.0619(4) 0.7630(3) 0.1439(3)
C6 C -0.1482(4) 0.8102(4) 0.1844(2)
C7 C -0.2418(4) 0.7570(3) 0.2311(2)
C8 C -0.2158(4) 0.6462(3) 0.2375(2)
C9 C -0.1779(4) 0.6045(3) 0.1658(2)
C10 C -0.2848(5) 0.6164(3) 0.1105(2)
C11 C -0.4175(5) 0.5056(4) -0.0113(3)
C12 C -0.3446(5) 0.4310(4) 0.0324(3)
C13 C 0.1254(5) 0.6598(3) 0.0441(2)
C14 C 0.1793(5) 0.6073(4) -0.0199(2)
C15 C 0.2306(4) 0.6698(4) 0.1004(3)
C16 C -0.1587(5) 0.9195(3) 0.1843(3)
C17 C -0.3303(4) 0.5927(4) 0.2743(2)
C18 C -0.3255(4) 0.4794(4) 0.2675(2)
C19 C -0.4481(5) 0.4305(4) 0.2974(3)
C20 C -0.2017(6) 0.4351(3) 0.2993(2)
C21 C -0.3346(4) 0.6243(3) 0.3523(2)
C22 C -0.4578(5) 0.7173(4) 0.4648(2)
C23 C -0.3773(5) 0.7959(4) 0.4804(3)
C24 C -0.3562(5) 0.8194(4) 0.5494(3)
C25 C -0.4127(5) 0.7662(4) 0.6029(3)
C26 C -0.4953(6) 0.6898(4) 0.5864(2)
C27 C -0.5177(5) 0.6653(4) 0.5169(2)
C28 C -0.3811(6) 0.7892(5) 0.6782(3)
H1 H -0.1309(5) 0.6949(4) 0.0088(2)
H2 H -0.0866(5) 0.5954(4) -0.0277(2)
H3 H 0.0132(4) 0.5423(3) 0.0767(2)
H4 H 0.0189(4) 0.6351(3) 0.1772(3)
H5 H -0.0063(4) 0.8006(3) 0.1149(3)
H6 H -0.3310(4) 0.7667(3) 0.2131(2)
H7 H -0.2378(4) 0.7864(3) 0.2782(2)
H8 H -0.1380(4) 0.6386(3) 0.2683(2)
H9 H -0.1611(4) 0.5331(3) 0.1717(2)
H10 H -0.3073(5) 0.6863(3) 0.1058(2)
H11 H -0.3638(5) 0.5809(3) 0.1255(2)
H12 H -0.4311(5) 0.4809(4) -0.0592(3)
H13 H -0.5032(5) 0.5204(4) 0.0097(3)
H14 H -0.3889(5) 0.4201(4) 0.0775(3)
H15 H -0.3373(5) 0.3680(4) 0.0075(3)
H16 H 0.1035(5) 0.7276(3) 0.0289(2)
H17 H 0.1162(15) 0.6115(21) -0.0580(6)
H18 H 0.1952(31) 0.5387(7) -0.0085(6)
H19 H 0.2610(18) 0.6381(16) -0.0342(11)
H20 H 0.1956(4) 0.7100(4) 0.1389(3)
H21 H 0.3056(4) 0.7052(4) 0.0803(3)
H22 H -0.2263(5) 0.9398(3) 0.2173(3)
H23 H -0.1816(5) 0.9421(3) 0.1375(3)
H24 H -0.0752(5) 0.9480(3) 0.1982(3)
H25 H -0.4128(4) 0.6154(4) 0.2520(2)
H26 H -0.3236(4) 0.4642(4) 0.2166(2)
H27 H -0.4445(17) 0.3601(5) 0.2887(16)
H28 H -0.5255(6) 0.4580(18) 0.2750(13)
H29 H -0.4525(18) 0.4423(22) 0.3477(4)
H30 H -0.1993(16) 0.3649(5) 0.2896(14)
H31 H -0.2020(16) 0.4455(20) 0.3498(3)
H32 H -0.1251(6) 0.4665(16) 0.2789(12)
H33 H -0.2607(4) 0.6687(3) 0.3617(2)
H34 H -0.3235(4) 0.5658(3) 0.3819(2)
H35 H -0.3375(5) 0.8327(4) 0.4443(3)
H36 H -0.3016(5) 0.8731(4) 0.5605(3)
H37 H -0.5367(5) 0.6540(4) 0.6224(2)
H38 H -0.5742(5) 0.6127(4) 0.5057(2)
H39 H -0.4364(25) 0.7497(20) 0.7088(3)
H40 H -0.3969(34) 0.8585(7) 0.6872(6)
H41 H -0.2896(11) 0.7740(25) 0.6873(6)
loop_
_geom_bond_atom_site_label_1
_geom_bond_atom_site_label_2
_geom_bond_site_symmetry_1
_geom_bond_site_symmetry_2
I1 C15 1_555 1_555
S1 O3 1_555 1_555
O1 C1 1_555 1_555
O2 C1 1_555 1_555
O4 S1 1_555 1_555
C1 C2 1_555 1_555
C2 C3 1_555 1_555
C3 C4 1_555 1_555
C4 C5 1_555 1_555
C5 C6 1_555 1_555
C6 C7 1_555 1_555
C7 C8 1_555 1_555
C8 C9 1_555 1_555
C9 C4 1_555 1_555
C10 C1 1_555 1_555
C11 O1 1_555 1_555
C12 O2 1_555 1_555
C13 C3 1_555 1_555
C14 C13 1_555 1_555
C15 C13 1_555 1_555
C16 C6 1_555 1_555
C17 C8 1_555 1_555
C18 C17 1_555 1_555
C19 C18 1_555 1_555
C20 C18 1_555 1_555
C21 S1 1_555 1_555
C22 S1 1_555 1_555
C23 C22 1_555 1_555
C24 C23 1_555 1_555
C25 C24 1_555 1_555
C26 C25 1_555 1_555
C27 C22 1_555 1_555
C28 C25 1_555 1_555
H1 C2 1_555 1_555
H2 C2 1_555 1_555
H3 C3 1_555 1_555
H4 C4 1_555 1_555
H5 C5 1_555 1_555
H6 C7 1_555 1_555
H7 C7 1_555 1_555
H8 C8 1_555 1_555
H9 C9 1_555 1_555
H10 C10 1_555 1_555
H11 C10 1_555 1_555
H12 C11 1_555 1_555
H13 C11 1_555 1_555
H14 C12 1_555 1_555
H15 C12 1_555 1_555
H16 C13 1_555 1_555
H17 C14 1_555 1_555
H18 C14 1_555 1_555
H19 C14 1_555 1_555
H20 C15 1_555 1_555
H21 C15 1_555 1_555
H22 C16 1_555 1_555
H23 C16 1_555 1_555
H24 C16 1_555 1_555
H25 C17 1_555 1_555
H26 C18 1_555 1_555
H27 C19 1_555 1_555
H28 C19 1_555 1_555
H29 C19 1_555 1_555
H30 C20 1_555 1_555
H31 C20 1_555 1_555
H32 C20 1_555 1_555
H33 C21 1_555 1_555
H34 C21 1_555 1_555
H35 C23 1_555 1_555
H36 C24 1_555 1_555
H37 C26 1_555 1_555
H38 C27 1_555 1_555
H39 C28 1_555 1_555
H40 C28 1_555 1_555
H41 C28 1_555 1_555
C9 C10 1_555 1_555
C11 C12 1_555 1_555
C17 C21 1_555 1_555
C26 C27 1_555 1_555

#END
