
#######################################################################
#
#                 Cambridge Crystallographic Data Centre
#                                CCDC 
#
#######################################################################
#
# If this CIF has been generated from an entry in the Cambridge 
# Structural Database, then it will include bibliographic, chemical, 
# crystal, experimental, refinement or atomic coordinate data resulting 
# from the CCDC's data processing and validation procedures.
#
#######################################################################

data_EMORAB
_chemical_formula_moiety         'C8 H4 Br2 N2 O2'
_chemical_name_systematic        6,7-dibromo-4-hydroxyphthalazin-1(2H)-one
_symmetry_cell_setting           monoclinic
_symmetry_space_group_name_H-M   'P 21/c'
_symmetry_Int_Tables_number      14
_space_group_name_Hall           '-P 2ybc'
loop_
_symmetry_equiv_pos_site_id
_symmetry_equiv_pos_as_xyz
1 x,y,z
2 -x,1/2+y,1/2-z
3 -x,-y,-z
4 x,1/2-y,1/2+z
_cell_length_a                   7.2706(15)
_cell_length_b                   9.2779(19)
_cell_length_c                   13.493(3)
_cell_angle_alpha                90
_cell_angle_beta                 99.38(3)
_cell_angle_gamma                90
_cell_volume                     898.013
_exptl_crystal_colour            yellow
_exptl_crystal_description       columnar
_cell_formula_units_Z            4
loop_
_atom_site_label
_atom_site_type_symbol
_atom_site_fract_x
_atom_site_fract_y
_atom_site_fract_z
Br1 Br 0.34791(5) 0.37369(4) 0.78614(3)
Br2 Br 0.40543(5) 0.17389(3) 0.58477(3)
N1 N 0.0835(3) 0.8375(2) 0.43424(18)
H1 H 0.0439 0.9244 0.4241
N2 N 0.1032(3) 0.7591(3) 0.34956(18)
C1 C 0.2327(4) 0.5889(3) 0.6432(2)
H2 H 0.2169 0.6434 0.6991
C2 C 0.2967(4) 0.4494(3) 0.6545(2)
C3 C 0.3187(4) 0.3657(3) 0.5701(2)
C4 C 0.2775(4) 0.4230(3) 0.4755(2)
H3 H 0.2920 0.3675 0.4199
C5 C 0.2135(4) 0.5651(3) 0.4627(2)
C6 C 0.1914(4) 0.6477(3) 0.5463(2)
C7 C 0.1186(4) 0.7944(3) 0.5305(2)
C8 C 0.1659(4) 0.6304(3) 0.3642(2)
O1 O 0.0864(3) 0.8774(2) 0.59857(16)
O2 O 0.1919(3) 0.5480(2) 0.28646(15)
H4 H 0.1198 0.4795 0.2818
loop_
_geom_bond_atom_site_label_1
_geom_bond_atom_site_label_2
_geom_bond_site_symmetry_1
_geom_bond_site_symmetry_2
Br1 C2 1_555 1_555
Br2 C3 1_555 1_555
N1 H1 1_555 1_555
N2 N1 1_555 1_555
C1 H2 1_555 1_555
C2 C1 1_555 1_555
C3 C2 1_555 1_555
C4 C3 1_555 1_555
H3 C4 1_555 1_555
C5 C4 1_555 1_555
C6 C1 1_555 1_555
C7 N1 1_555 1_555
C8 N2 1_555 1_555
O1 C7 1_555 1_555
O2 C8 1_555 1_555
H4 O2 1_555 1_555
C5 C6 1_555 1_555
C5 C8 1_555 1_555
C6 C7 1_555 1_555

#END
