
#######################################################################
#
#                 Cambridge Crystallographic Data Centre
#                                CCDC 
#
#######################################################################
#
# If this CIF has been generated from an entry in the Cambridge 
# Structural Database, then it will include bibliographic, chemical, 
# crystal, experimental, refinement or atomic coordinate data resulting 
# from the CCDC's data processing and validation procedures.
#
#######################################################################

data_EMOSEE
_chemical_formula_moiety         'C18 H21 N8 O7 P1 S1'
_chemical_name_systematic        
O,O'-bis(2-Azidoethyl)-(\a-(p-toluenesulfonamido)-p-nitrobenzyl)phosphonate
_symmetry_cell_setting           triclinic
_symmetry_space_group_name_H-M   'P -1'
_symmetry_Int_Tables_number      2
_space_group_name_Hall           '-P 1'
loop_
_symmetry_equiv_pos_site_id
_symmetry_equiv_pos_as_xyz
1 x,y,z
2 -x,-y,-z
_cell_length_a                   8.136(1)
_cell_length_b                   11.872(1)
_cell_length_c                   13.412(1)
_cell_angle_alpha                109.455(7)
_cell_angle_beta                 90.880(8)
_cell_angle_gamma                96.863(9)
_cell_volume                     1210.65
_cell_formula_units_Z            2
loop_
_atom_site_label
_atom_site_type_symbol
_atom_site_fract_x
_atom_site_fract_y
_atom_site_fract_z
S1 S 0.2907(2) -0.0006(2) 0.2464(2)
P1 P 0.3587(2) 0.1985(2) 0.5683(2)
N1 N 0.3483(6) 0.0475(5) 0.3729(4)
N2 N 0.0552(17) 0.3121(18) 0.7654(10)
N3 N 0.1343(21) 0.4350(18) 0.8442(16)
N4 N 0.2050(50) 0.5510(30) 0.9630(40)
N5 N 0.5670(23) 0.4870(17) 0.8078(13)
N6 N 0.6262(21) 0.5958(17) 0.9170(19)
N7 N 0.7459(22) 0.6889(15) 1.0190(30)
N8 N 1.0194(7) 0.4075(5) 0.3672(6)
O1 O 0.1594(6) 0.0638(5) 0.2341(4)
O2 O 0.2634(7) -0.1305(5) 0.2184(5)
O3 O 0.4254(6) 0.1065(4) 0.6013(4)
O4 O 0.1672(5) 0.2013(5) 0.5758(4)
O5 O 0.4364(6) 0.3311(4) 0.6310(4)
O6 O 1.0237(8) 0.5035(6) 0.3571(8)
O7 O 1.1404(7) 0.3639(6) 0.3738(7)
C1 C 0.4586(9) 0.0397(6) 0.1800(5)
C2 C 0.4643(11) 0.1372(8) 0.1469(7)
C3 C 0.6078(12) 0.1744(8) 0.1040(7)
C4 C 0.7453(10) 0.1156(7) 0.0974(6)
C5 C 0.7347(11) 0.0183(8) 0.1275(7)
C6 C 0.5929(11) -0.0230(8) 0.1698(7)
C7 C 0.9021(12) 0.1605(9) 0.0556(7)
C8 C 0.3860(8) 0.1793(6) 0.4294(5)
C9 C 0.5553(7) 0.2384(5) 0.4142(5)
C10 C 0.5690(8) 0.3485(6) 0.4003(6)
C11 C 0.7210(8) 0.4060(6) 0.3863(6)
C12 C 0.8568(8) 0.3485(6) 0.3851(5)
C13 C 0.8509(8) 0.2400(6) 0.3986(6)
C14 C 0.6953(8) 0.1840(6) 0.4138(6)
C15 C 0.0725(10) 0.1640(9) 0.6511(7)
C16 C 0.1230(30) 0.2459(15) 0.7778(15)
C17 C 0.6048(10) 0.3564(7) 0.6745(8)
C18 C 0.6083(21) 0.3967(13) 0.8110(30)
loop_
_geom_bond_atom_site_label_1
_geom_bond_atom_site_label_2
_geom_bond_site_symmetry_1
_geom_bond_site_symmetry_2
S1 N1 1_555 1_555
P1 O3 1_555 1_555
N1 C8 1_555 1_555
N2 N3 1_555 1_555
N3 N4 1_555 1_555
N5 N6 1_555 1_555
N6 N7 1_555 1_555
N8 O6 1_555 1_555
O1 S1 1_555 1_555
O2 S1 1_555 1_555
O4 P1 1_555 1_555
O5 P1 1_555 1_555
O7 N8 1_555 1_555
C1 S1 1_555 1_555
C2 C1 1_555 1_555
C3 C2 1_555 1_555
C4 C3 1_555 1_555
C5 C4 1_555 1_555
C6 C1 1_555 1_555
C7 C4 1_555 1_555
C8 P1 1_555 1_555
C9 C8 1_555 1_555
C10 C9 1_555 1_555
C11 C10 1_555 1_555
C12 N8 1_555 1_555
C13 C12 1_555 1_555
C14 C9 1_555 1_555
C15 O4 1_555 1_555
C16 N2 1_555 1_555
C17 O5 1_555 1_555
C18 N5 1_555 1_555
C5 C6 1_555 1_555
C11 C12 1_555 1_555
C13 C14 1_555 1_555
C15 C16 1_555 1_555
C17 C18 1_555 1_555

#END
