
#######################################################################
#
#                 Cambridge Crystallographic Data Centre
#                                CCDC 
#
#######################################################################
#
# If this CIF has been generated from an entry in the Cambridge 
# Structural Database, then it will include bibliographic, chemical, 
# crystal, experimental, refinement or atomic coordinate data resulting 
# from the CCDC's data processing and validation procedures.
#
#######################################################################

data_EMOXIN
_chemical_formula_moiety         'C25 H25 N5 O2,C4 H8 O2'
_chemical_name_systematic        
'4,5-bis(4-Dimethylaminophenyl)-2-(4-nitrophenyl)imidazole ethyl acetate solvate'
_symmetry_cell_setting           monoclinic
_symmetry_space_group_name_H-M   'P 21/c'
_symmetry_Int_Tables_number      14
_space_group_name_Hall           '-P 2ybc'
loop_
_symmetry_equiv_pos_site_id
_symmetry_equiv_pos_as_xyz
1 x,y,z
2 -x,1/2+y,1/2-z
3 -x,-y,-z
4 x,1/2-y,1/2+z
_cell_length_a                   16.3324(8)
_cell_length_b                   7.4308(3)
_cell_length_c                   22.0366(10)
_cell_angle_alpha                90
_cell_angle_beta                 102.211(1)
_cell_angle_gamma                90
_cell_volume                     2613.92
_cell_formula_units_Z            4
loop_
_atom_site_label
_atom_site_type_symbol
_atom_site_fract_x
_atom_site_fract_y
_atom_site_fract_z
O1 O 0.1792(1) 0.9674(2) 0.5786(1)
O2 O 0.1636(1) 0.9998(1) 0.4794(1)
N1 N 0.5845(1) 1.3006(2) 0.5268(1)
N2 N 0.5991(1) 1.2082(2) 0.6240(1)
N3 N 0.2065(1) 1.0059(2) 0.5323(1)
N4 N 0.9089(1) 1.6166(2) 0.4285(1)
N5 N 0.9713(1) 1.2672(2) 0.8052(1)
C1 C 0.6674(1) 1.3301(2) 0.5543(1)
C2 C 0.6752(1) 1.2688(2) 0.6146(1)
C3 C 0.5460(1) 1.2274(2) 0.5700(1)
C4 C 0.4582(1) 1.1718(2) 0.5584(1)
C5 C 0.4255(1) 1.1110(2) 0.6085(1)
C6 C 0.3434(1) 1.0576(2) 0.6003(1)
C7 C 0.2936(1) 1.0627(2) 0.5410(1)
C8 C 0.3238(1) 1.1196(2) 0.4907(1)
C9 C 0.4064(1) 1.1756(2) 0.4997(1)
C10 C 0.7266(1) 1.4120(2) 0.5211(1)
C11 C 0.7148(1) 1.4072(2) 0.4567(1)
C12 C 0.7724(1) 1.4787(2) 0.4256(1)
C13 C 0.8471(1) 1.5582(2) 0.4581(1)
C14 C 0.8569(1) 1.5697(2) 0.5228(1)
C15 C 0.7986(1) 1.4999(2) 0.5530(1)
C16 C 0.7508(1) 1.2582(2) 0.6651(1)
C17 C 0.8261(1) 1.1892(2) 0.6550(1)
C18 C 0.8977(1) 1.1850(2) 0.7013(1)
C19 C 0.8981(1) 1.2537(2) 0.7606(1)
C20 C 0.8211(1) 1.3129(2) 0.7721(1)
C21 C 0.7494(1) 1.3148(2) 0.7251(1)
C22 C 0.8886(1) 1.6424(2) 0.3619(1)
C23 C 0.9769(1) 1.7283(2) 0.4621(1)
C24 C 1.0477(1) 1.1854(2) 0.7962(1)
C25 C 0.9701(1) 1.3406(2) 0.8651(1)
O3 O 0.4170(1) 0.3287(1) 0.2977(1)
O4 O 0.5001(1) 0.3506(2) 0.3921(1)
C26 C 0.2818(1) 0.1933(2) 0.2730(1)
C27 C 0.3533(1) 0.2416(2) 0.3252(1)
C28 C 0.4876(1) 0.3757(2) 0.3368(1)
C29 C 0.5484(1) 0.4611(3) 0.3035(1)
loop_
_geom_bond_atom_site_label_1
_geom_bond_atom_site_label_2
_geom_bond_site_symmetry_1
_geom_bond_site_symmetry_2
O1 N3 1_555 1_555
O2 N3 1_555 1_555
O3 C27 1_555 1_555
O4 C28 1_555 1_555
N1 C1 1_555 1_555
N2 C2 1_555 1_555
N3 C7 1_555 1_555
N4 C13 1_555 1_555
N5 C19 1_555 1_555
C1 C2 1_555 1_555
C2 C16 1_555 1_555
C3 N1 1_555 1_555
C4 C3 1_555 1_555
C5 C4 1_555 1_555
C6 C5 1_555 1_555
C7 C6 1_555 1_555
C8 C7 1_555 1_555
C9 C4 1_555 1_555
C10 C1 1_555 1_555
C11 C10 1_555 1_555
C12 C11 1_555 1_555
C13 C12 1_555 1_555
C14 C13 1_555 1_555
C15 C10 1_555 1_555
C16 C17 1_555 1_555
C17 C18 1_555 1_555
C18 C19 1_555 1_555
C19 C20 1_555 1_555
C20 C21 1_555 1_555
C21 C16 1_555 1_555
C22 N4 1_555 1_555
C23 N4 1_555 1_555
C24 N5 1_555 1_555
C25 N5 1_555 1_555
C26 C27 1_555 1_555
C28 O3 1_555 1_555
C29 C28 1_555 1_555
N2 C3 1_555 1_555
C8 C9 1_555 1_555
C14 C15 1_555 1_555

#END
