
#######################################################################
#
#                 Cambridge Crystallographic Data Centre
#                                CCDC 
#
#######################################################################
#
# If this CIF has been generated from an entry in the Cambridge 
# Structural Database, then it will include bibliographic, chemical, 
# crystal, experimental, refinement or atomic coordinate data resulting 
# from the CCDC's data processing and validation procedures.
#
#######################################################################

data_EMOXAF
_chemical_formula_moiety         'C9 H16 N2 O3'
_chemical_name_systematic        4,4'-Carbonyl-di-morpholine
_symmetry_cell_setting           monoclinic
_symmetry_space_group_name_H-M   'C 2/c'
_symmetry_Int_Tables_number      15
_space_group_name_Hall           '-C 2yn'
loop_
_symmetry_equiv_pos_site_id
_symmetry_equiv_pos_as_xyz
1 x,y,z
2 -x,y,1/2-z
3 1/2+x,1/2+y,z
4 1/2-x,1/2+y,1/2-z
5 -x,-y,-z
6 x,-y,1/2+z
7 1/2-x,1/2-y,-z
8 1/2+x,1/2-y,1/2+z
_cell_length_a                   16.388(8)
_cell_length_b                   6.422(3)
_cell_length_c                   9.860(5)
_cell_angle_alpha                90
_cell_angle_beta                 105.272(10)
_cell_angle_gamma                90
_cell_volume                     1001.06
_exptl_crystal_colour            colorless
_exptl_crystal_description       platelet
_chemical_melting_point          '141-143 deg.C'
_cell_formula_units_Z            4
_exptl_crystal_recrystallization_method benzene
loop_
_atom_site_label
_atom_site_type_symbol
_atom_site_fract_x
_atom_site_fract_y
_atom_site_fract_z
O1 O 0.19420(6) 0.1315(1) 0.12807(10)
O2 O 0.0000 0.6368(2) 0.2500
N1 N 0.05762(6) 0.3306(2) 0.20116(10)
C1 C 0.0000 0.4461(2) 0.2500
C2 C 0.11429(7) 0.4485(2) 0.13685(13)
C3 C 0.15041(8) 0.3016(2) 0.04790(13)
C4 C 0.13822(8) 0.0168(2) 0.1886(1)
C5 C 0.10130(8) 0.1528(2) 0.28257(13)
H1 H 0.08346(7) 0.5563(2) 0.07970(13)
H2 H 0.15898(7) 0.5076(2) 0.20806(13)
H3 H 0.18853(8) 0.3760(2) 0.00799(13)
H4 H 0.10538(8) 0.2478(2) -0.02513(13)
H5 H 0.09349(8) -0.0378(2) 0.1154(1)
H6 H 0.16864(8) -0.0945(2) 0.2425(1)
H7 H 0.14541(8) 0.2020(2) 0.35892(13)
H8 H 0.06217(8) 0.0743(2) 0.31774(13)
N1A N -0.05762(6) 0.3306(2) 0.29884(10)
C2A C -0.11429(7) 0.4485(2) 0.36315(13)
C3A C -0.15041(8) 0.3016(2) 0.45210(13)
O1A O -0.19420(6) 0.1315(1) 0.37193(10)
C4A C -0.13822(8) 0.0168(2) 0.3114(1)
C5A C -0.10130(8) 0.1528(2) 0.21743(13)
H7A H -0.14541(8) 0.2020(2) 0.14108(13)
H8A H -0.06217(8) 0.0743(2) 0.18226(13)
H5A H -0.09349(8) -0.0378(2) 0.3846(1)
H6A H -0.16864(8) -0.0945(2) 0.2575(1)
H3A H -0.18853(8) 0.3760(2) 0.49201(13)
H4A H -0.10538(8) 0.2478(2) 0.52513(13)
H1A H -0.08346(7) 0.5563(2) 0.42030(13)
H2A H -0.15898(7) 0.5076(2) 0.29194(13)
loop_
_geom_bond_atom_site_label_1
_geom_bond_atom_site_label_2
_geom_bond_site_symmetry_1
_geom_bond_site_symmetry_2
O1 C3 1_555 1_555
O2 C1 1_555 1_555
N1 C1 1_555 1_555
C1 N1A 1_555 1_555
C2 N1 1_555 1_555
C3 C2 1_555 1_555
C4 O1 1_555 1_555
C5 N1 1_555 1_555
H1 C2 1_555 1_555
H2 C2 1_555 1_555
H3 C3 1_555 1_555
H4 C3 1_555 1_555
H5 C4 1_555 1_555
H6 C4 1_555 1_555
H7 C5 1_555 1_555
H8 C5 1_555 1_555
N1A C2A 1_555 1_555
C2A C3A 1_555 1_555
C3A O1A 1_555 1_555
O1A C4A 1_555 1_555
C4A C5A 1_555 1_555
C5A N1A 1_555 1_555
H7A C5A 1_555 1_555
H8A C5A 1_555 1_555
H5A C4A 1_555 1_555
H6A C4A 1_555 1_555
H3A C3A 1_555 1_555
H4A C3A 1_555 1_555
H1A C2A 1_555 1_555
H2A C2A 1_555 1_555
C4 C5 1_555 1_555

#END
