
#######################################################################
#
#                 Cambridge Crystallographic Data Centre
#                                CCDC 
#
#######################################################################
#
# If this CIF has been generated from an entry in the Cambridge 
# Structural Database, then it will include bibliographic, chemical, 
# crystal, experimental, refinement or atomic coordinate data resulting 
# from the CCDC's data processing and validation procedures.
#
#######################################################################

data_EMOYOV
_chemical_formula_moiety         'C15 H14 N4 S1'
_chemical_name_systematic        
4-(2,4-Dimethyl-1,3-thiazol-5-yl)-N-phenylpyrimidin-2-amine
_symmetry_cell_setting           monoclinic
_symmetry_space_group_name_H-M   'P 21/c'
_symmetry_Int_Tables_number      14
_space_group_name_Hall           '-P 2ybc'
loop_
_symmetry_equiv_pos_site_id
_symmetry_equiv_pos_as_xyz
1 x,y,z
2 -x,1/2+y,1/2-z
3 -x,-y,-z
4 x,1/2-y,1/2+z
_cell_length_a                   18.561(2)
_cell_length_b                   10.3417(14)
_cell_length_c                   14.496(2)
_cell_angle_alpha                90
_cell_angle_beta                 96.973(3)
_cell_angle_gamma                90
_cell_volume                     2761.96
_cell_formula_units_Z            8
loop_
_atom_site_label
_atom_site_type_symbol
_atom_site_fract_x
_atom_site_fract_y
_atom_site_fract_z
N1 N 0.9270(1) 0.4350(1) 1.0862(1)
C1 C 0.8593(1) 0.4675(1) 1.0514(1)
N2 N 0.8236(1) 0.5767(1) 1.0714(1)
C2 C 0.8619(1) 0.6566(1) 1.1308(1)
C3 C 0.9323(1) 0.6335(1) 1.1709(1)
C4 C 1.0798(1) 0.6291(1) 1.3166(1)
C5 C 1.0892(1) 0.5255(1) 1.2468(1)
N3 N 1.1567(1) 0.4683(1) 1.2506(1)
C6 C 1.1579(1) 0.3807(1) 1.1858(1)
S1 S 1.0764(1) 0.3586(1) 1.1164(1)
C7 C 1.0383(1) 0.4791(1) 1.1780(1)
C8 C 0.9638(1) 0.5178(1) 1.1461(1)
N4 N 0.8206(1) 0.3853(1) 0.9903(1)
C9 C 0.8432(1) 0.2618(1) 0.9631(1)
C10 C 0.9132(1) 0.2375(1) 0.9412(1)
C11 C 0.9313(1) 0.1146(1) 0.9137(1)
C12 C 0.8808(1) 0.0151(1) 0.9066(1)
C13 C 0.8110(1) 0.0392(1) 0.9275(1)
C14 C 0.7924(1) 0.1617(1) 0.9560(1)
C15 C 1.2237(1) 0.3029(1) 1.1722(1)
H1 H 0.8394 0.7346 1.1467
H2 H 0.9578 0.6930 1.2128
H3 H 1.1167 0.6187 1.3705
H4 H 1.0314 0.6222 1.3365
H5 H 1.0853 0.7141 1.2884
H6 H 0.7690(2) 0.4053(15) 0.9740(10)
H7 H 0.9482 0.3049 0.9452
H8 H 0.9790 0.0982 0.8993
H9 H 0.8938 -0.0687 0.8877
H10 H 0.7759 -0.0282 0.9223
H11 H 0.7447 0.1775 0.9707
H12 H 1.2674 0.3500 1.1981
H13 H 1.2251 0.2882 1.1057
H14 H 1.2217 0.2196 1.2040
N5 N 0.5557(1) 0.5678(1) 0.9143(1)
C16 C 0.6251(1) 0.5460(1) 0.9480(1)
N6 N 0.6654(1) 0.4425(1) 0.9278(1)
C17 C 0.6305(1) 0.3561(1) 0.8705(1)
C18 C 0.5589(1) 0.3676(1) 0.8323(1)
C19 C 0.4083(1) 0.3289(1) 0.7016(1)
C20 C 0.3970(1) 0.4464(1) 0.7587(1)
N7 N 0.3288(1) 0.5018(1) 0.7474(1)
C21 C 0.3258(1) 0.6035(1) 0.8002(1)
S2 S 0.4066(1) 0.6405(1) 0.8680(1)
C22 C 0.4469(1) 0.5079(1) 0.8219(1)
C23 C 0.5225(1) 0.4788(1) 0.8560(1)
N8 N 0.6612(1) 0.6328(1) 1.0078(1)
C24 C 0.6367(1) 0.7511(1) 1.0415(1)
C25 C 0.5640(1) 0.7817(1) 1.0458(1)
C26 C 0.5462(1) 0.8997(1) 1.0829(1)
C27 C 0.5993(1) 0.9879(1) 1.1161(1)
C28 C 0.6715(1) 0.9576(1) 1.1120(1)
C29 C 0.6901(1) 0.8406(1) 1.0747(1)
C30 C 0.2590(1) 0.6839(1) 0.8025(1)
H15 H 0.6566 0.2817 0.8550
H16 H 0.5357 0.3035 0.7921
H17 H 0.4112 0.2520 0.7415
H18 H 0.4535 0.3381 0.6736
H19 H 0.3675 0.3196 0.6524
H20 H 0.7132(2) 0.6181(14) 1.0254(10)
H21 H 0.5269 0.7222 1.0235
H22 H 0.4966 0.9203 1.0856
H23 H 0.5863 1.0682 1.1414
H24 H 0.7084 1.0172 1.1348
H25 H 0.7398 0.8210 1.0717
H26 H 0.2638 0.7643 0.7680
H27 H 0.2529 0.7043 0.8671
H28 H 0.2166 0.6357 0.7740
loop_
_geom_bond_atom_site_label_1
_geom_bond_atom_site_label_2
_geom_bond_site_symmetry_1
_geom_bond_site_symmetry_2
N1 C1 1_555 1_555
C1 N2 1_555 1_555
N2 C2 1_555 1_555
C2 C3 1_555 1_555
C3 C8 1_555 1_555
C4 C5 1_555 1_555
C5 N3 1_555 1_555
N3 C6 1_555 1_555
C6 S1 1_555 1_555
S1 C7 1_555 1_555
C7 C5 1_555 1_555
C8 N1 1_555 1_555
N4 C1 1_555 1_555
C9 N4 1_555 1_555
C10 C9 1_555 1_555
C11 C10 1_555 1_555
C12 C11 1_555 1_555
C13 C12 1_555 1_555
C14 C9 1_555 1_555
C15 C6 1_555 1_555
N5 C16 1_555 1_555
C16 N6 1_555 1_555
N6 C17 1_555 1_555
C17 C18 1_555 1_555
C18 C23 1_555 1_555
C19 C20 1_555 1_555
C20 N7 1_555 1_555
N7 C21 1_555 1_555
C21 S2 1_555 1_555
S2 C22 1_555 1_555
C22 C20 1_555 1_555
C23 N5 1_555 1_555
N8 C16 1_555 1_555
C24 N8 1_555 1_555
C25 C24 1_555 1_555
C26 C25 1_555 1_555
C27 C26 1_555 1_555
C28 C27 1_555 1_555
C29 C24 1_555 1_555
C30 C21 1_555 1_555
H1 C2 1_555 1_555
H2 C3 1_555 1_555
H3 C4 1_555 1_555
H4 C4 1_555 1_555
H5 C4 1_555 1_555
H6 N4 1_555 1_555
H7 C10 1_555 1_555
H8 C11 1_555 1_555
H9 C12 1_555 1_555
H10 C13 1_555 1_555
H11 C14 1_555 1_555
H12 C15 1_555 1_555
H13 C15 1_555 1_555
H14 C15 1_555 1_555
H15 C17 1_555 1_555
H16 C18 1_555 1_555
H17 C19 1_555 1_555
H18 C19 1_555 1_555
H19 C19 1_555 1_555
H20 N8 1_555 1_555
H21 C25 1_555 1_555
H22 C26 1_555 1_555
H23 C27 1_555 1_555
H24 C28 1_555 1_555
H25 C29 1_555 1_555
H26 C30 1_555 1_555
H27 C30 1_555 1_555
H28 C30 1_555 1_555
C7 C8 1_555 1_555
C13 C14 1_555 1_555
C22 C23 1_555 1_555
C28 C29 1_555 1_555

#END
