
#######################################################################
#
#                 Cambridge Crystallographic Data Centre
#                                CCDC 
#
#######################################################################
#
# If this CIF has been generated from an entry in the Cambridge 
# Structural Database, then it will include bibliographic, chemical, 
# crystal, experimental, refinement or atomic coordinate data resulting 
# from the CCDC's data processing and validation procedures.
#
#######################################################################

data_EMUFUO
_chemical_formula_moiety         'C21 H16 N2 Se1'
_chemical_name_systematic        
N-(4-Benzylidene-1,4-dihydro-2H-3,1-benzoselenazin-2-ylidene)aniline
_symmetry_cell_setting           monoclinic
_symmetry_space_group_name_H-M   'P 21/n'
_symmetry_Int_Tables_number      14
_space_group_name_Hall           '-P 2yn'
loop_
_symmetry_equiv_pos_site_id
_symmetry_equiv_pos_as_xyz
1 x,y,z
2 1/2-x,1/2+y,1/2-z
3 -x,-y,-z
4 1/2+x,1/2-y,1/2+z
_cell_length_a                   10.3882(7)
_cell_length_b                   8.3928(5)
_cell_length_c                   19.432(1)
_cell_angle_alpha                90
_cell_angle_beta                 91.164(1)
_cell_angle_gamma                90
_cell_volume                     1693.85
_exptl_crystal_colour            colorless
_exptl_crystal_description       prism
_cell_formula_units_Z            4
loop_
_atom_site_label
_atom_site_type_symbol
_atom_site_fract_x
_atom_site_fract_y
_atom_site_fract_z
N1 N 0.16690(19) 0.1147(2) 0.00294(10)
H1 H 0.1339 0.0266 -0.0132
C1 C 0.0924(2) 0.1984(3) 0.04689(11)
Se1 Se 0.17216(2) 0.36266(3) 0.102275(12)
C2 C 0.3454(2) 0.2912(3) 0.09143(12)
C3 C 0.3779(2) 0.2418(3) 0.02094(12)
C4 C 0.4985(3) 0.2763(3) -0.00539(13)
H2 H 0.5569 0.3381 0.0208
C5 C 0.5339(3) 0.2211(3) -0.06948(14)
H3 H 0.6154 0.2460 -0.0867
C6 C 0.4491(3) 0.1297(3) -0.10761(14)
H4 H 0.4738 0.0896 -0.1505
C7 C 0.3280(2) 0.0963(3) -0.08340(12)
H5 H 0.2704 0.0347 -0.1102
C8 C 0.2908(2) 0.1533(3) -0.01963(12)
N2 N -0.0269(2) 0.1670(2) 0.05196(10)
C9 C -0.1013(2) 0.2561(3) 0.09950(12)
C10 C -0.1739(3) 0.3838(3) 0.07644(14)
H6 H -0.1716 0.4143 0.0299
C11 C -0.2503(3) 0.4670(3) 0.12168(16)
H7 H -0.2992 0.5544 0.1060
C12 C -0.2545(3) 0.4218(3) 0.18956(16)
H8 H -0.3063 0.4784 0.2203
C13 C -0.1836(3) 0.2945(3) 0.21244(14)
H9 H -0.1873 0.2636 0.2589
C14 C -0.1061(3) 0.2104(3) 0.16785(12)
H10 H -0.0573 0.1231 0.1839
C15 C 0.4301(2) 0.2835(3) 0.14442(12)
H11 H 0.5141 0.2539 0.1326
C16 C 0.4119(2) 0.3142(3) 0.21817(12)
C17 C 0.3268(2) 0.4264(3) 0.24454(13)
H12 H 0.2807 0.4944 0.2145
C18 C 0.3102(3) 0.4375(3) 0.31490(14)
H13 H 0.2509 0.5113 0.3322
C19 C 0.3793(3) 0.3422(3) 0.35997(14)
H14 H 0.3666 0.3501 0.4076
C20 C 0.4671(3) 0.2352(3) 0.33479(13)
H15 H 0.5159 0.1714 0.3653
C21 C 0.4833(2) 0.2219(3) 0.26476(13)
H16 H 0.5438 0.1489 0.2481
loop_
_geom_bond_atom_site_label_1
_geom_bond_atom_site_label_2
_geom_bond_site_symmetry_1
_geom_bond_site_symmetry_2
N1 H1 1_555 1_555
C1 N1 1_555 1_555
Se1 C1 1_555 1_555
C2 Se1 1_555 1_555
C3 C2 1_555 1_555
C4 C3 1_555 1_555
H2 C4 1_555 1_555
C5 C4 1_555 1_555
H3 C5 1_555 1_555
C6 C5 1_555 1_555
H4 C6 1_555 1_555
C7 C6 1_555 1_555
H5 C7 1_555 1_555
C8 N1 1_555 1_555
N2 C1 1_555 1_555
C9 N2 1_555 1_555
C10 C9 1_555 1_555
H6 C10 1_555 1_555
C11 C10 1_555 1_555
H7 C11 1_555 1_555
C12 C11 1_555 1_555
H8 C12 1_555 1_555
C13 C12 1_555 1_555
H9 C13 1_555 1_555
C14 C9 1_555 1_555
H10 C14 1_555 1_555
C15 C2 1_555 1_555
H11 C15 1_555 1_555
C16 C15 1_555 1_555
C17 C16 1_555 1_555
H12 C17 1_555 1_555
C18 C17 1_555 1_555
H13 C18 1_555 1_555
C19 C18 1_555 1_555
H14 C19 1_555 1_555
C20 C19 1_555 1_555
H15 C20 1_555 1_555
C21 C16 1_555 1_555
H16 C21 1_555 1_555
C3 C8 1_555 1_555
C7 C8 1_555 1_555
C13 C14 1_555 1_555
C20 C21 1_555 1_555

#END
