
#######################################################################
#
#                 Cambridge Crystallographic Data Centre
#                                CCDC 
#
#######################################################################
#
# If this CIF has been generated from an entry in the Cambridge 
# Structural Database, then it will include bibliographic, chemical, 
# crystal, experimental, refinement or atomic coordinate data resulting 
# from the CCDC's data processing and validation procedures.
#
#######################################################################

data_EMUHUQ
_chemical_formula_moiety         'C15 H37 N5 4+,4(Cl1 1-)'
_chemical_name_systematic        
'2-(2-(1,3-bis(dimethylammonio)propan-2-yl)-4-(dimethylammonio)but-2-en-1-ylidene)-1,1-dimethylhydrazinium tetrachloride'
_symmetry_cell_setting           monoclinic
_symmetry_space_group_name_H-M   'P 21/c'
_symmetry_Int_Tables_number      14
_space_group_name_Hall           '-P 2ybc'
loop_
_symmetry_equiv_pos_site_id
_symmetry_equiv_pos_as_xyz
1 x,y,z
2 -x,1/2+y,1/2-z
3 -x,-y,-z
4 x,1/2-y,1/2+z
_cell_length_a                   10.723(2)
_cell_length_b                   11.961(3)
_cell_length_c                   18.460(4)
_cell_angle_alpha                90
_cell_angle_beta                 103.190(5)
_cell_angle_gamma                90
_cell_volume                     2305.18
_exptl_crystal_colour            colorless
_exptl_crystal_description       prism
_cell_formula_units_Z            4
loop_
_atom_site_label
_atom_site_type_symbol
_atom_site_fract_x
_atom_site_fract_y
_atom_site_fract_z
C1 C 0.6590(2) 0.78222(17) 0.83058(12)
H1 H 0.6205 0.8542 0.8264
C2 C 0.78600(19) 0.76567(15) 0.88014(11)
C3 C 0.84064(19) 0.84815(16) 0.92591(12)
H2 H 0.9229 0.8341 0.9568
C4 C 0.7823(2) 0.96072(16) 0.93224(12)
H3 H 0.7089 0.9724 0.8894
H4 H 0.8464 1.0198 0.9310
C5 C 0.8588(2) 0.65625(16) 0.87848(13)
H5 H 0.9392 0.6615 0.9184
C6 C 0.8989(2) 0.63961(19) 0.80526(14)
H6 H 0.9484 0.5692 0.8080
H7 H 0.8211 0.6314 0.7648
C7 C 0.7883(2) 0.55097(18) 0.89437(14)
H8 H 0.7143 0.5377 0.8522
H9 H 0.8467 0.4861 0.8976
C8 C 0.4949(3) 0.7451(2) 0.66848(14)
H10 H 0.5334 0.6769 0.6537
H11 H 0.5513 0.8088 0.6664
H12 H 0.4115 0.7580 0.6345
C9 C 0.3834(2) 0.6418(2) 0.75076(17)
H13 H 0.3764 0.6332 0.8025
H14 H 0.4126 0.5714 0.7332
H15 H 0.2994 0.6616 0.7196
C10 C 0.6499(2) 1.06758(17) 1.00130(14)
H16 H 0.6939 1.1357 0.9914
H17 H 0.6262 1.0746 1.0493
H18 H 0.5726 1.0567 0.9618
C11 C 0.8471(2) 0.9750(2) 1.06953(13)
H19 H 0.8146 0.9793 1.1149
H20 H 0.8987 1.0415 1.0658
H21 H 0.9003 0.9080 1.0713
C12 C 0.9973(3) 0.7210(3) 0.70876(16)
H22 H 0.9141 0.7243 0.6732
H23 H 1.0382 0.6489 0.7040
H24 H 1.0520 0.7817 0.6983
C13 C 1.1082(3) 0.7398(2) 0.83944(16)
H25 H 1.1575 0.8014 0.8248
H26 H 1.1542 0.6693 0.8382
H27 H 1.0969 0.7530 0.8900
C14 C 0.6463(3) 0.4664(2) 0.9657(2)
H28 H 0.6131 0.4730 1.0107
H29 H 0.6882 0.3937 0.9653
H30 H 0.5755 0.4728 0.9217
C15 C 0.8471(3) 0.5521(2) 1.03300(15)
H31 H 0.9105 0.6103 1.0308
H32 H 0.8881 0.4785 1.0361
H33 H 0.8119 0.5639 1.0770
N1 N 0.60054(18) 0.70134(15) 0.79345(11)
N2 N 0.47707(17) 0.73205(15) 0.74625(11)
H34 H 0.4493 0.7992 0.7625
N3 N 0.73732(17) 0.96921(14) 1.00344(10)
H35 H 0.6908 0.9050 1.0078
N4 N 0.97822(19) 0.73327(15) 0.78601(11)
H36 H 0.9352 0.8001 0.7888
N5 N 0.74142(17) 0.55773(14) 0.96456(11)
H37 H 0.6996 0.6258 0.9648
Cl1 Cl 0.37114(5) 0.94330(4) 0.79989(3)
Cl2 Cl 1.11801(5) 0.74681(4) 1.05223(3)
Cl3 Cl 0.83883(6) 0.95303(5) 0.74244(4)
Cl4 Cl 0.58356(6) 0.74919(4) 1.00598(4)
loop_
_geom_bond_atom_site_label_1
_geom_bond_atom_site_label_2
_geom_bond_site_symmetry_1
_geom_bond_site_symmetry_2
C1 H1 1_555 1_555
C2 C1 1_555 1_555
C3 C2 1_555 1_555
H2 C3 1_555 1_555
C4 C3 1_555 1_555
H3 C4 1_555 1_555
H4 C4 1_555 1_555
C5 C2 1_555 1_555
H5 C5 1_555 1_555
C6 C5 1_555 1_555
H6 C6 1_555 1_555
H7 C6 1_555 1_555
C7 C5 1_555 1_555
H8 C7 1_555 1_555
H9 C7 1_555 1_555
C8 H10 1_555 1_555
H11 C8 1_555 1_555
H12 C8 1_555 1_555
C9 H13 1_555 1_555
H14 C9 1_555 1_555
H15 C9 1_555 1_555
C10 H16 1_555 1_555
H17 C10 1_555 1_555
H18 C10 1_555 1_555
C11 H19 1_555 1_555
H20 C11 1_555 1_555
H21 C11 1_555 1_555
C12 H22 1_555 1_555
H23 C12 1_555 1_555
H24 C12 1_555 1_555
C13 H25 1_555 1_555
H26 C13 1_555 1_555
H27 C13 1_555 1_555
C14 H28 1_555 1_555
H29 C14 1_555 1_555
H30 C14 1_555 1_555
C15 H31 1_555 1_555
H32 C15 1_555 1_555
H33 C15 1_555 1_555
N1 C1 1_555 1_555
N2 C8 1_555 1_555
H34 N2 1_555 1_555
N3 C4 1_555 1_555
H35 N3 1_555 1_555
N4 C6 1_555 1_555
H36 N4 1_555 1_555
N5 C7 1_555 1_555
H37 N5 1_555 1_555
C9 N2 1_555 1_555
C10 N3 1_555 1_555
C11 N3 1_555 1_555
C12 N4 1_555 1_555
C13 N4 1_555 1_555
C14 N5 1_555 1_555
C15 N5 1_555 1_555
N1 N2 1_555 1_555

#END
