
#######################################################################
#
#                 Cambridge Crystallographic Data Centre
#                                CCDC 
#
#######################################################################
#
# If this CIF has been generated from an entry in the Cambridge 
# Structural Database, then it will include bibliographic, chemical, 
# crystal, experimental, refinement or atomic coordinate data resulting 
# from the CCDC's data processing and validation procedures.
#
#######################################################################

data_EMUHIE
_chemical_formula_moiety         'C14 H21 N4 O2 1+,Cl1 1-'
_chemical_name_systematic        
'4-(Dimethylhydrazono)-N,N-dimethyl-2-(4-nitrophenyl)but-2-en-1-aminium chloride'
_symmetry_cell_setting           triclinic
_symmetry_space_group_name_H-M   'P -1'
_symmetry_Int_Tables_number      2
_space_group_name_Hall           '-P 1'
loop_
_symmetry_equiv_pos_site_id
_symmetry_equiv_pos_as_xyz
1 x,y,z
2 -x,-y,-z
_cell_length_a                   6.824(3)
_cell_length_b                   7.589(4)
_cell_length_c                   15.182(7)
_cell_angle_alpha                87.897(12)
_cell_angle_beta                 81.134(11)
_cell_angle_gamma                85.203(10)
_cell_volume                     773.894
_exptl_crystal_colour            orange
_exptl_crystal_description       platelet
_cell_formula_units_Z            2
loop_
_atom_site_label
_atom_site_type_symbol
_atom_site_fract_x
_atom_site_fract_y
_atom_site_fract_z
C1 C 0.4850(3) 0.6936(3) 0.29446(14)
H1 H 0.5652 0.6896 0.2375
C2 C 0.2925(3) 0.7879(3) 0.30854(14)
H2 H 0.2252 0.7878 0.3682
C3 C 0.1937(3) 0.8777(3) 0.24727(14)
C4 C -0.0081(3) 0.9658(3) 0.27341(13)
C5 C -0.1172(3) 1.0430(3) 0.20858(14)
H3 H -0.0575 1.0437 0.1478
C6 C -0.3100(3) 1.1182(3) 0.23135(14)
H4 H -0.3827 1.1679 0.1866
C7 C -0.3946(3) 1.1197(3) 0.32001(14)
C8 C -0.2923(3) 1.0476(3) 0.38630(14)
H5 H -0.3529 1.0499 0.4470
C9 C -0.1016(3) 0.9723(3) 0.36320(14)
H6 H -0.0310 0.9235 0.4088
C10 C 0.2882(3) 0.8899(3) 0.15088(13)
H7 H 0.4346 0.8752 0.1477
H8 H 0.2535 1.0095 0.1267
C11 C 0.8536(3) 0.5105(3) 0.27247(15)
H9 H 0.7848 0.4782 0.2240
H10 H 0.9660 0.4236 0.2776
H11 H 0.9025 0.6280 0.2596
C12 C 0.7976(4) 0.4770(3) 0.43818(16)
H12 H 0.8701 0.5768 0.4510
H13 H 0.8883 0.3695 0.4321
H14 H 0.6886 0.4600 0.4871
C13 C 0.2896(3) 0.5676(3) 0.11826(14)
H15 H 0.2304 0.4849 0.0839
H16 H 0.2457 0.5468 0.1821
H17 H 0.4350 0.5493 0.1054
C14 C 0.3009(3) 0.7897(3) -0.00323(14)
H18 H 0.4467 0.7787 -0.0126
H19 H 0.2534 0.9098 -0.0201
H20 H 0.2524 0.7042 -0.0400
N1 N -0.5999(3) 1.1973(2) 0.34334(12)
N2 N 0.2249(2) 0.7538(2) 0.09282(11)
H21 H 0.0866 0.7640 0.0998
N3 N 0.5440(3) 0.6133(2) 0.36461(12)
N4 N 0.7168(3) 0.5134(2) 0.35552(12)
O1 O -0.6784(2) 1.2781(2) 0.28437(10)
O2 O -0.6833(2) 1.1767(2) 0.42040(10)
Cl1 Cl -0.19813(8) 0.73325(7) 0.05431(4)
loop_
_geom_bond_atom_site_label_1
_geom_bond_atom_site_label_2
_geom_bond_site_symmetry_1
_geom_bond_site_symmetry_2
C1 H1 1_555 1_555
C2 C1 1_555 1_555
H2 C2 1_555 1_555
C3 C2 1_555 1_555
C4 C3 1_555 1_555
C5 C4 1_555 1_555
H3 C5 1_555 1_555
C6 C5 1_555 1_555
H4 C6 1_555 1_555
C7 C6 1_555 1_555
C8 C7 1_555 1_555
H5 C8 1_555 1_555
C9 C4 1_555 1_555
H6 C9 1_555 1_555
C10 C3 1_555 1_555
H7 C10 1_555 1_555
H8 C10 1_555 1_555
C11 H9 1_555 1_555
H10 C11 1_555 1_555
H11 C11 1_555 1_555
C12 H12 1_555 1_555
H13 C12 1_555 1_555
H14 C12 1_555 1_555
C13 H15 1_555 1_555
H16 C13 1_555 1_555
H17 C13 1_555 1_555
C14 H18 1_555 1_555
H19 C14 1_555 1_555
H20 C14 1_555 1_555
N1 C7 1_555 1_555
N2 C10 1_555 1_555
H21 N2 1_555 1_555
N3 C1 1_555 1_555
N4 C11 1_555 1_555
O1 N1 1_555 1_555
O2 N1 1_555 1_555
C8 C9 1_555 1_555
C12 N4 1_555 1_555
C13 N2 1_555 1_555
C14 N2 1_555 1_555
N3 N4 1_555 1_555

#END
