
#######################################################################
#
#                 Cambridge Crystallographic Data Centre
#                                CCDC 
#
#######################################################################
#
# If this CIF has been generated from an entry in the Cambridge 
# Structural Database, then it will include bibliographic, chemical, 
# crystal, experimental, refinement or atomic coordinate data resulting 
# from the CCDC's data processing and validation procedures.
#
#######################################################################

data_EMUJUT
_chemical_formula_moiety         'C50 H66 O4 2-,2(K1 1+)'
_chemical_name_systematic        
'di-potassium (5,11,17,23-tetra-t-butyl-26,28-dipropoxy-25,27-dioxidocalix(4)arene)'
_symmetry_cell_setting           orthorhombic
_symmetry_space_group_name_H-M   'P n m a'
_symmetry_Int_Tables_number      62
_space_group_name_Hall           '-P 2ac 2n'
loop_
_symmetry_equiv_pos_site_id
_symmetry_equiv_pos_as_xyz
1 x,y,z
2 1/2-x,-y,1/2+z
3 1/2+x,1/2-y,1/2-z
4 -x,1/2+y,-z
5 -x,-y,-z
6 1/2+x,y,1/2-z
7 1/2-x,1/2+y,1/2+z
8 x,1/2-y,z
_cell_length_a                   12.2579(5)
_cell_length_b                   17.9504(9)
_cell_length_c                   21.1486(6)
_cell_angle_alpha                90
_cell_angle_beta                 90
_cell_angle_gamma                90
_cell_volume                     4653.42
_exptl_crystal_description       block
_cell_formula_units_Z            4
loop_
_atom_site_label
_atom_site_type_symbol
_atom_site_fract_x
_atom_site_fract_y
_atom_site_fract_z
K1 K 0.69107(6) 0.2500 0.54941(3)
K2 K 0.50101(7) 0.2500 0.70185(4)
C1 C 0.2544(7) 0.1691(4) 0.3222(3)
C2 C 0.1661(5) 0.2833(4) 0.3598(4)
C3 C 0.3418(9) 0.2892(5) 0.2959(3)
O1 O 0.6978(2) 0.2500 0.67851(11)
O2 O 0.4902(2) 0.2500 0.58490(11)
O3 O 0.56244(17) 0.09869(14) 0.65145(9)
C4 C 0.6262(2) 0.09728(15) 0.59768(13)
C5 C 0.7394(2) 0.09783(14) 0.60313(13)
C6 C 0.8012(2) 0.09378(14) 0.54820(13)
H1 H 0.8808 0.0908 0.5518
C7 C 0.7542(2) 0.09052(14) 0.48829(13)
C8 C 0.6403(2) 0.09539(14) 0.48486(13)
H2 H 0.6072 0.0959 0.4453
C9 C 0.5751(2) 0.09944(15) 0.53826(13)
C10 C 0.7985(2) 0.10955(17) 0.66589(13)
H3 H 0.7455 0.1102 0.7000
H4 H 0.8480 0.0683 0.6732
C11 C 0.8253(3) 0.08398(17) 0.42873(15)
C12 C 0.4482(3) 0.2500 0.52829(16)
C13 C 0.4246(2) 0.18260(16) 0.49669(11)
C14 C 0.3735(2) 0.18405(16) 0.43814(12)
H5 H 0.3576 0.1391 0.4184
C15 C 0.3453(3) 0.2500 0.40785(16)
C16 C 0.4521(2) 0.11021(17) 0.52995(13)
H6 H 0.4174 0.1097 0.5712
H7 H 0.4229 0.0689 0.5057
C17 C 0.2786(4) 0.2500 0.34597(18)
C18 C 0.8032(3) 0.2500 0.67214(15)
C19 C 0.8623(2) 0.18221(15) 0.66620(10)
C20 C 0.9743(2) 0.18402(16) 0.65511(11)
H8 H 1.0112 0.1372 0.6447
C21 C 1.0326(3) 0.2500 0.64890(15)
C22 C 1.1525(3) 0.2500 0.62728(19)
C23 C 0.5402(3) 0.0204(3) 0.66852(10)
H9 H 0.4944 -0.0020 0.6363
H10 H 0.6083 -0.0070 0.6698
C24 C 0.4892(4) 0.0147(2) 0.72614(12)
H11 H 0.4230 0.0443 0.7244
H12 H 0.5364 0.0374 0.7576
C25 C 0.4596(3) -0.06051(19) 0.74895(17)
H13 H 0.4414 -0.0916 0.7135
H14 H 0.3979 -0.0570 0.7767
H15 H 0.5202 -0.0817 0.7714
C26 C 1.2148(3) 0.1826(2) 0.65269(18)
H16 H 1.2896 0.1855 0.6395
H17 H 1.2112 0.1823 0.6980
H18 H 1.1826 0.1378 0.6365
C27 C 1.1519(4) 0.2500 0.5555(2)
H19 H 1.1042 0.2886 0.5405
H20 H 1.2245 0.2588 0.5402
H21 H 1.1267 0.2026 0.5404
C28 C 0.9380(6) 0.1127(5) 0.4343(3)
H22 H 0.9366 0.1609 0.4540
H23 H 0.9699 0.1168 0.3930
H24 H 0.9806 0.0792 0.4596
C29 C 0.8291(8) 0.0064(4) 0.4036(4)
H25 H 0.8649 -0.0254 0.4337
H26 H 0.8688 0.0057 0.3645
H27 H 0.7562 -0.0112 0.3966
C30 C 0.7840(8) 0.1391(6) 0.3749(3)
H28 H 0.7195 0.1190 0.3556
H29 H 0.8399 0.1447 0.3435
H30 H 0.7676 0.1867 0.3932
C1G C 0.2544(7) 0.3309(4) 0.3222(3)
C2G C 0.1661(5) 0.2167(4) 0.3598(4)
C3G C 0.3418(9) 0.2108(5) 0.2959(3)
O3G O 0.56244(17) 0.40131(14) 0.65145(9)
C4G C 0.6262(2) 0.40272(15) 0.59768(13)
C5G C 0.7394(2) 0.40217(14) 0.60313(13)
C6G C 0.8012(2) 0.40622(14) 0.54820(13)
H1G H 0.8808 0.4092 0.5518
C7G C 0.7542(2) 0.40948(14) 0.48829(13)
C8G C 0.6403(2) 0.40461(14) 0.48486(13)
H2G H 0.6072 0.4041 0.4453
C9G C 0.5751(2) 0.40056(15) 0.53826(13)
C10G C 0.7985(2) 0.39045(17) 0.66589(13)
H3G H 0.7455 0.3898 0.7000
H4G H 0.8480 0.4317 0.6732
C11G C 0.8253(3) 0.41602(17) 0.42873(15)
C13G C 0.4246(2) 0.31740(16) 0.49669(11)
C14G C 0.3735(2) 0.31595(16) 0.43814(12)
H5G H 0.3576 0.3609 0.4184
C16G C 0.4521(2) 0.38979(17) 0.52995(13)
H6G H 0.4174 0.3903 0.5712
H7G H 0.4229 0.4311 0.5057
C19G C 0.8623(2) 0.31779(15) 0.66620(10)
C20G C 0.9743(2) 0.31598(16) 0.65511(11)
H8G H 1.0112 0.3628 0.6447
C23G C 0.5402(3) 0.4796(3) 0.66852(10)
H9G H 0.4944 0.5020 0.6363
H10G H 0.6083 0.5070 0.6698
C24G C 0.4892(4) 0.4853(2) 0.72614(12)
H11G H 0.4230 0.4557 0.7244
H12G H 0.5364 0.4626 0.7576
C25G C 0.4596(3) 0.56051(19) 0.74895(17)
H13G H 0.4414 0.5916 0.7135
H14G H 0.3979 0.5570 0.7767
H15G H 0.5202 0.5817 0.7714
C26G C 1.2148(3) 0.3174(2) 0.65269(18)
H16G H 1.2896 0.3145 0.6395
H17G H 1.2112 0.3177 0.6980
H18G H 1.1826 0.3622 0.6365
H19G H 1.1042 0.2114 0.5405
H20G H 1.2245 0.2412 0.5402
H21G H 1.1267 0.2974 0.5404
C28G C 0.9380(6) 0.3873(5) 0.4343(3)
H22G H 0.9366 0.3391 0.4540
H23G H 0.9699 0.3832 0.3930
H24G H 0.9806 0.4208 0.4596
C29G C 0.8291(8) 0.4936(4) 0.4036(4)
H25G H 0.8649 0.5254 0.4337
H26G H 0.8688 0.4943 0.3645
H27G H 0.7562 0.5112 0.3966
C30G C 0.7840(8) 0.3609(6) 0.3749(3)
H28G H 0.7195 0.3810 0.3556
H29G H 0.8399 0.3553 0.3435
H30G H 0.7676 0.3133 0.3932
C31? C 0.9005(10) 0.1505(7) 0.4286(6)
H31? H 0.8603 0.1942 0.4404
H32? H 0.9305 0.1571 0.3871
H33? H 0.9586 0.1424 0.4583
C32? C 0.7559(6) 0.0706(6) 0.3736(3)
H34? H 0.7122 0.1140 0.3655
H35? H 0.7091 0.0288 0.3818
H36? H 0.8007 0.0602 0.3375
C33? C 0.8885(10) 0.0107(6) 0.4440(5)
H37? H 0.8572 -0.0123 0.4807
H38? H 0.9637 0.0222 0.4520
H39? H 0.8833 -0.0227 0.4087
H40? H 0.2130 0.1713 0.2838
H41? H 0.3220 0.1436 0.3145
H42? H 0.2135 0.1427 0.3538
H43? H 0.1742 0.3341 0.3731
H44? H 0.1222 0.2814 0.3223
H45? H 0.1314 0.2552 0.3928
H46? H 0.4074 0.2725 0.2754
H47? H 0.3572 0.3330 0.3203
H48? H 0.2877 0.3005 0.2645
loop_
_geom_bond_atom_site_label_1
_geom_bond_atom_site_label_2
_geom_bond_site_symmetry_1
_geom_bond_site_symmetry_2
C1 C17 1_555 1_555
C2 C17 1_555 1_555
C3 C17 1_555 1_555
O1 C18 1_555 1_555
O2 C12 1_555 1_555
O3 C4 1_555 1_555
C4 C5 1_555 1_555
C5 C6 1_555 1_555
C6 H1 1_555 1_555
C7 C6 1_555 1_555
C8 C7 1_555 1_555
H2 C8 1_555 1_555
C9 C4 1_555 1_555
C10 C5 1_555 1_555
H3 C10 1_555 1_555
H4 C10 1_555 1_555
C11 C7 1_555 1_555
C12 C13 1_555 1_555
C13 C14 1_555 1_555
C14 H5 1_555 1_555
C15 C14 1_555 1_555
C16 C9 1_555 1_555
H6 C16 1_555 1_555
H7 C16 1_555 1_555
C17 C15 1_555 1_555
C18 C19 1_555 1_555
C19 C10 1_555 1_555
C20 C19 1_555 1_555
H8 C20 1_555 1_555
C21 C20 1_555 1_555
C22 C21 1_555 1_555
C23 O3 1_555 1_555
H9 C23 1_555 1_555
H10 C23 1_555 1_555
C24 C23 1_555 1_555
H11 C24 1_555 1_555
H12 C24 1_555 1_555
C25 C24 1_555 1_555
H13 C25 1_555 1_555
H14 C25 1_555 1_555
H15 C25 1_555 1_555
C26 C22 1_555 1_555
H16 C26 1_555 1_555
H17 C26 1_555 1_555
H18 C26 1_555 1_555
C27 C22 1_555 1_555
H19 C27 1_555 1_555
H20 C27 1_555 1_555
H21 C27 1_555 1_555
C28 C11 1_555 1_555
H22 C28 1_555 1_555
H23 C28 1_555 1_555
H24 C28 1_555 1_555
C29 C11 1_555 1_555
H25 C29 1_555 1_555
H26 C29 1_555 1_555
H27 C29 1_555 1_555
C30 C11 1_555 1_555
H28 C30 1_555 1_555
H29 C30 1_555 1_555
H30 C30 1_555 1_555
C1G C17 1_555 1_555
C2G C17 1_555 1_555
C3G C17 1_555 1_555
O3G C4G 1_555 1_555
C4G C5G 1_555 1_555
C5G C6G 1_555 1_555
C6G H1G 1_555 1_555
C7G C6G 1_555 1_555
C8G C7G 1_555 1_555
H2G C8G 1_555 1_555
C9G C4G 1_555 1_555
C10G C5G 1_555 1_555
H3G C10G 1_555 1_555
H4G C10G 1_555 1_555
C11G C7G 1_555 1_555
C13G C12 1_555 1_555
C14G C15 1_555 1_555
H5G C14G 1_555 1_555
C16G C9G 1_555 1_555
H6G C16G 1_555 1_555
H7G C16G 1_555 1_555
C19G C18 1_555 1_555
C20G C21 1_555 1_555
H8G C20G 1_555 1_555
C23G O3G 1_555 1_555
H9G C23G 1_555 1_555
H10G C23G 1_555 1_555
C24G C23G 1_555 1_555
H11G C24G 1_555 1_555
H12G C24G 1_555 1_555
C25G C24G 1_555 1_555
H13G C25G 1_555 1_555
H14G C25G 1_555 1_555
H15G C25G 1_555 1_555
C26G C22 1_555 1_555
H16G C26G 1_555 1_555
H17G C26G 1_555 1_555
H18G C26G 1_555 1_555
H19G C27 1_555 1_555
H20G C27 1_555 1_555
H21G C27 1_555 1_555
C28G C11G 1_555 1_555
H22G C28G 1_555 1_555
H23G C28G 1_555 1_555
H24G C28G 1_555 1_555
C29G C11G 1_555 1_555
H25G C29G 1_555 1_555
H26G C29G 1_555 1_555
H27G C29G 1_555 1_555
C30G C11G 1_555 1_555
H28G C30G 1_555 1_555
H29G C30G 1_555 1_555
H30G C30G 1_555 1_555
C8 C9 1_555 1_555
C13 C16 1_555 1_555
C8G C9G 1_555 1_555
C10G C19G 1_555 1_555
C13G C14G 1_555 1_555
C13G C16G 1_555 1_555
C19G C20G 1_555 1_555

#END
