
#######################################################################
#
#                 Cambridge Crystallographic Data Centre
#                                CCDC 
#
#######################################################################
#
# If this CIF has been generated from an entry in the Cambridge 
# Structural Database, then it will include bibliographic, chemical, 
# crystal, experimental, refinement or atomic coordinate data resulting 
# from the CCDC's data processing and validation procedures.
#
#######################################################################

data_EMUJON
_chemical_formula_moiety         'C62 H90 K2 O10'
_chemical_name_systematic        
(\m-5,11,17,23-tetra-t-butyl-26,28-dipropoxy-25,27-dioxidocalix(4)arene)-(18-crown-6)-di-potassium
_symmetry_cell_setting           monoclinic
_symmetry_space_group_name_H-M   'C 2/c'
_symmetry_Int_Tables_number      15
_space_group_name_Hall           '-C 2yn'
loop_
_symmetry_equiv_pos_site_id
_symmetry_equiv_pos_as_xyz
1 x,y,z
2 -x,y,1/2-z
3 1/2+x,1/2+y,z
4 1/2-x,1/2+y,1/2-z
5 -x,-y,-z
6 x,-y,1/2+z
7 1/2-x,1/2-y,-z
8 1/2+x,1/2-y,1/2+z
_cell_length_a                   11.1093(3)
_cell_length_b                   26.4085(9)
_cell_length_c                   20.4600(7)
_cell_angle_alpha                90
_cell_angle_beta                 92.614(3)
_cell_angle_gamma                90
_cell_volume                     5996.31
_exptl_crystal_colour            colorless
_exptl_crystal_description       block
_cell_formula_units_Z            4
loop_
_atom_site_label
_atom_site_type_symbol
_atom_site_fract_x
_atom_site_fract_y
_atom_site_fract_z
K1 K 0.5000 -0.05125(2) 0.2500
K2 K 0.5000 0.09812(2) 0.2500
O1 O 0.37992(10) 0.02037(5) 0.19981(6)
O2 O 0.32163(10) 0.00204(5) 0.35221(6)
O3 O 0.34159(13) -0.12400(6) 0.30156(8)
O4 O 0.25672(15) -0.11446(6) 0.17059(8)
O5 O 0.47218(15) -0.11076(6) 0.09609(9)
C1 C 0.31323(15) 0.05127(7) 0.16433(9)
C2 C 0.34608(15) 0.06709(7) 0.10115(9)
C3 C 0.27374(15) 0.10070(7) 0.06506(9)
H1 H 0.2963 0.1098 0.0235
C4 C 0.16828(16) 0.12147(7) 0.08857(9)
C5 C 0.13834(15) 0.10695(7) 0.15140(9)
H2 H 0.0692 0.1205 0.1686
C6 C 0.20700(14) 0.07322(7) 0.18939(9)
C7 C 0.17501(15) 0.05903(7) 0.25834(9)
H3 H 0.1781 0.0225 0.2630
H4 H 0.0932 0.0698 0.2655
C8 C 0.25987(14) 0.08305(7) 0.30993(8)
C9 C 0.26887(15) 0.13582(7) 0.31266(9)
H5 H 0.2114 0.1561 0.2860
C10 C 0.35142(16) 0.16069(7) 0.35466(9)
C11 C 0.43250(15) 0.13016(7) 0.39124(9)
H6 H 0.4912 0.1459 0.4180
C12 C 0.42958(15) 0.07757(7) 0.38951(8)
C13 C 0.33584(14) 0.05410(7) 0.35181(8)
C14 C 0.46604(15) 0.04832(7) 0.07719(9)
H7 H 0.4675 0.0527 0.0302
H8 H 0.4749 0.0125 0.0868
C15 C 0.08978(19) 0.15872(9) 0.04800(11)
C16 C 0.0721(3) 0.20647(14) 0.08515(18)
H9 H 0.0199 0.2287 0.0599
H10 H 0.1486 0.2227 0.0937
H11 H 0.0365 0.1988 0.1259
C17 C 0.1342(3) 0.16863(14) -0.01904(17)
H12 H 0.1401 0.1372 -0.0422
H13 H 0.2121 0.1844 -0.0152
H14 H 0.0788 0.1907 -0.0425
C18 C -0.0401(3) 0.13285(14) 0.03619(18)
H15 H -0.0916 0.1549 0.0102
H16 H -0.0751 0.1270 0.0776
H17 H -0.0315 0.1012 0.0138
C19 C 0.35825(18) 0.21844(7) 0.36103(10)
C20 C 0.2692(2) 0.24511(8) 0.31332(13)
H18 H 0.2866 0.2361 0.2693
H19 H 0.2766 0.2811 0.3187
H20 H 0.1886 0.2348 0.3220
C21 C 0.4858(2) 0.23700(9) 0.34823(12)
H21 H 0.5417 0.2230 0.3806
H22 H 0.4881 0.2733 0.3506
H23 H 0.5074 0.2263 0.3055
C22 C 0.3283(2) 0.23332(9) 0.43099(11)
H24 H 0.2488 0.2217 0.4398
H25 H 0.3319 0.2695 0.4354
H26 H 0.3857 0.2180 0.4615
C23 C 0.2167(2) -0.12396(10) 0.28218(12)
H27 H 0.1700 -0.1110 0.3174
H28 H 0.1901 -0.1582 0.2724
C24 C 0.1980(2) -0.09129(10) 0.22278(12)
H29 H 0.1126 -0.0878 0.2116
H30 H 0.2313 -0.0578 0.2312
C25 C 0.2677(2) -0.08283(9) 0.11509(12)
H31 H 0.2991 -0.0500 0.1286
H32 H 0.1893 -0.0779 0.0932
C26 C 0.3513(2) -0.10743(10) 0.06948(12)
H33 H 0.3221 -0.1412 0.0591
H34 H 0.3508 -0.0882 0.0291
C27 C 0.4978(2) -0.15691(9) 0.12977(14)
H35 H 0.4751 -0.1854 0.1020
H36 H 0.4518 -0.1587 0.1689
C28 C 0.3703(2) -0.15929(10) 0.35201(13)
H37 H 0.3491 -0.1932 0.3373
H38 H 0.3243 -0.1516 0.3900
C29 C 0.28693(17) -0.01811(8) 0.41448(10)
H39 H 0.3492 -0.0097 0.4475
H40 H 0.2831 -0.0547 0.4113
C30 C 0.16762(19) 0.00107(10) 0.43699(12)
H41 H 0.1572 -0.0111 0.4811
H42 H 0.1707 0.0378 0.4388
C31 C 0.0586(2) -0.01430(12) 0.39478(13)
H43 H 0.0693 -0.0039 0.3505
H44 H -0.0119 0.0017 0.4107
H45 H 0.0493 -0.0504 0.3964
O1A O 0.62008(10) 0.02037(5) 0.30019(6)
O2A O 0.67837(10) 0.00204(5) 0.14779(6)
C1A C 0.68677(15) 0.05127(7) 0.33567(9)
C2A C 0.65392(15) 0.06709(7) 0.39885(9)
C3A C 0.72626(15) 0.10070(7) 0.43494(9)
H1A H 0.7037 0.1098 0.4765
C4A C 0.83172(16) 0.12147(7) 0.41143(9)
C5A C 0.86166(15) 0.10695(7) 0.34860(9)
H2A H 0.9308 0.1205 0.3314
C6A C 0.79300(14) 0.07322(7) 0.31061(9)
C7A C 0.82499(15) 0.05903(7) 0.24166(9)
H3A H 0.8219 0.0225 0.2370
H4A H 0.9068 0.0698 0.2345
C8A C 0.74013(14) 0.08305(7) 0.19007(8)
C9A C 0.73113(15) 0.13582(7) 0.18734(9)
H5A H 0.7886 0.1561 0.2140
C10A C 0.64858(16) 0.16069(7) 0.14534(9)
C11A C 0.56750(15) 0.13016(7) 0.10876(9)
H6A H 0.5088 0.1459 0.0820
C12A C 0.57042(15) 0.07757(7) 0.11049(8)
C13A C 0.66416(14) 0.05410(7) 0.14819(8)
C14A C 0.53396(15) 0.04832(7) 0.42281(9)
H7A H 0.5325 0.0527 0.4698
H8A H 0.5251 0.0125 0.4132
C15A C 0.91022(19) 0.15872(9) 0.45200(11)
C16A C 0.9279(3) 0.20647(14) 0.41485(18)
H9A H 0.9801 0.2287 0.4401
H10A H 0.8514 0.2227 0.4063
H11A H 0.9635 0.1988 0.3741
C17A C 0.8658(3) 0.16863(14) 0.51904(17)
H12A H 0.8599 0.1372 0.5422
H13A H 0.7879 0.1844 0.5152
H14A H 0.9212 0.1907 0.5425
C18A C 1.0401(3) 0.13285(14) 0.46381(18)
H15A H 1.0916 0.1549 0.4898
H16A H 1.0751 0.1270 0.4224
H17A H 1.0315 0.1012 0.4862
C19A C 0.64175(18) 0.21844(7) 0.13897(10)
C20A C 0.7308(2) 0.24511(8) 0.18668(13)
H18A H 0.7134 0.2361 0.2307
H19A H 0.7234 0.2811 0.1813
H20A H 0.8114 0.2348 0.1780
C21A C 0.5142(2) 0.23700(9) 0.15177(12)
H21A H 0.4583 0.2230 0.1194
H22A H 0.5119 0.2733 0.1494
H23A H 0.4926 0.2263 0.1945
C22A C 0.6717(2) 0.23332(9) 0.06901(11)
H24A H 0.7512 0.2217 0.0602
H25A H 0.6681 0.2695 0.0646
H26A H 0.6143 0.2180 0.0385
C29A C 0.71307(17) -0.01811(8) 0.08552(10)
H39A H 0.6508 -0.0097 0.0525
H40A H 0.7169 -0.0547 0.0887
C30A C 0.83238(19) 0.00107(10) 0.06301(12)
H41A H 0.8428 -0.0111 0.0189
H42A H 0.8293 0.0378 0.0612
C31A C 0.9414(2) -0.01430(12) 0.10522(13)
H43A H 0.9307 -0.0039 0.1495
H44A H 1.0119 0.0017 0.0893
H45A H 0.9507 -0.0504 0.1036
O3A O 0.65841(13) -0.12400(6) 0.19844(8)
O4A O 0.74328(15) -0.11446(6) 0.32941(8)
O5A O 0.52782(15) -0.11076(6) 0.40391(9)
C23A C 0.7833(2) -0.12396(10) 0.21782(12)
H27A H 0.8300 -0.1110 0.1826
H28A H 0.8099 -0.1582 0.2276
C24A C 0.8020(2) -0.09129(10) 0.27722(12)
H29A H 0.8874 -0.0878 0.2884
H30A H 0.7687 -0.0578 0.2688
C25A C 0.7323(2) -0.08283(9) 0.38491(12)
H31A H 0.7009 -0.0500 0.3714
H32A H 0.8107 -0.0779 0.4068
C26A C 0.6487(2) -0.10743(10) 0.43052(12)
H33A H 0.6779 -0.1412 0.4409
H34A H 0.6492 -0.0882 0.4709
C27A C 0.5022(2) -0.15691(9) 0.37023(14)
H35A H 0.5249 -0.1854 0.3980
H36A H 0.5482 -0.1587 0.3311
C28A C 0.6297(2) -0.15929(10) 0.14799(13)
H37A H 0.6509 -0.1932 0.1627
H38A H 0.6757 -0.1516 0.1100
C32? C 0.0481(5) 0.1363(2) -0.0144(3)
H46? H -0.0025 0.1077 -0.0063
H47? H 0.1163 0.1255 -0.0380
H48? H 0.0031 0.1610 -0.0398
C33? C -0.0101(5) 0.1835(2) 0.0849(3)
H49? H -0.0447 0.2107 0.0592
H50? H 0.0225 0.1966 0.1258
H51? H -0.0712 0.1589 0.0931
C34? C 0.1771(5) 0.2067(2) 0.0300(3)
H52? H 0.2442 0.1945 0.0065
H53? H 0.2062 0.2229 0.0696
H54? H 0.1319 0.2306 0.0034
loop_
_geom_bond_atom_site_label_1
_geom_bond_atom_site_label_2
_geom_bond_site_symmetry_1
_geom_bond_site_symmetry_2
K1 O1 1_555 1_555
K2 O1 1_555 1_555
O1 C1 1_555 1_555
O2 K1 1_555 1_555
O3 K1 1_555 1_555
O4 C24 1_555 1_555
O5 C26 1_555 1_555
C1 C2 1_555 1_555
C2 C3 1_555 1_555
C3 H1 1_555 1_555
C4 C3 1_555 1_555
C5 C4 1_555 1_555
H2 C5 1_555 1_555
C6 C1 1_555 1_555
C7 C6 1_555 1_555
H3 C7 1_555 1_555
H4 C7 1_555 1_555
C8 K2 1_555 1_555
C9 K2 1_555 1_555
H5 C9 1_555 1_555
C10 K2 1_555 1_555
C11 K2 1_555 1_555
H6 C11 1_555 1_555
C12 K2 1_555 1_555
C13 K2 1_555 1_555
C14 C2 1_555 1_555
H7 C14 1_555 1_555
H8 C14 1_555 1_555
C15 C4 1_555 1_555
C16 C15 1_555 1_555
H9 C16 1_555 1_555
H10 C16 1_555 1_555
H11 C16 1_555 1_555
C17 C15 1_555 1_555
H12 C17 1_555 1_555
H13 C17 1_555 1_555
H14 C17 1_555 1_555
C18 C15 1_555 1_555
H15 C18 1_555 1_555
H16 C18 1_555 1_555
H17 C18 1_555 1_555
C19 C10 1_555 1_555
C20 C19 1_555 1_555
H18 C20 1_555 1_555
H19 C20 1_555 1_555
H20 C20 1_555 1_555
C21 C19 1_555 1_555
H21 C21 1_555 1_555
H22 C21 1_555 1_555
H23 C21 1_555 1_555
C22 C19 1_555 1_555
H24 C22 1_555 1_555
H25 C22 1_555 1_555
H26 C22 1_555 1_555
C23 O3 1_555 1_555
H27 C23 1_555 1_555
H28 C23 1_555 1_555
C24 C23 1_555 1_555
H29 C24 1_555 1_555
H30 C24 1_555 1_555
C25 O4 1_555 1_555
H31 C25 1_555 1_555
H32 C25 1_555 1_555
C26 C25 1_555 1_555
H33 C26 1_555 1_555
H34 C26 1_555 1_555
C27 O5 1_555 1_555
H35 C27 1_555 1_555
H36 C27 1_555 1_555
C28 O3 1_555 1_555
H37 C28 1_555 1_555
H38 C28 1_555 1_555
C29 O2 1_555 1_555
H39 C29 1_555 1_555
H40 C29 1_555 1_555
C30 C29 1_555 1_555
H41 C30 1_555 1_555
H42 C30 1_555 1_555
C31 C30 1_555 1_555
H43 C31 1_555 1_555
H44 C31 1_555 1_555
H45 C31 1_555 1_555
O1A K1 1_555 1_555
O2A K1 1_555 1_555
C1A O1A 1_555 1_555
C2A C1A 1_555 1_555
C3A C2A 1_555 1_555
H1A C3A 1_555 1_555
C4A C3A 1_555 1_555
C5A C4A 1_555 1_555
H2A C5A 1_555 1_555
C6A C1A 1_555 1_555
C7A C6A 1_555 1_555
H3A C7A 1_555 1_555
H4A C7A 1_555 1_555
C8A K2 1_555 1_555
C9A K2 1_555 1_555
H5A C9A 1_555 1_555
C10A K2 1_555 1_555
C11A K2 1_555 1_555
H6A C11A 1_555 1_555
C12A K2 1_555 1_555
C13A K2 1_555 1_555
C14A C12 1_555 1_555
H7A C14A 1_555 1_555
H8A C14A 1_555 1_555
C15A C4A 1_555 1_555
C16A C15A 1_555 1_555
H9A C16A 1_555 1_555
H10A C16A 1_555 1_555
H11A C16A 1_555 1_555
C17A C15A 1_555 1_555
H12A C17A 1_555 1_555
H13A C17A 1_555 1_555
H14A C17A 1_555 1_555
C18A C15A 1_555 1_555
H15A C18A 1_555 1_555
H16A C18A 1_555 1_555
H17A C18A 1_555 1_555
C19A C10A 1_555 1_555
C20A C19A 1_555 1_555
H18A C20A 1_555 1_555
H19A C20A 1_555 1_555
H20A C20A 1_555 1_555
C21A C19A 1_555 1_555
H21A C21A 1_555 1_555
H22A C21A 1_555 1_555
H23A C21A 1_555 1_555
C22A C19A 1_555 1_555
H24A C22A 1_555 1_555
H25A C22A 1_555 1_555
H26A C22A 1_555 1_555
C29A O2A 1_555 1_555
H39A C29A 1_555 1_555
H40A C29A 1_555 1_555
C30A C29A 1_555 1_555
H41A C30A 1_555 1_555
H42A C30A 1_555 1_555
C31A C30A 1_555 1_555
H43A C31A 1_555 1_555
H44A C31A 1_555 1_555
H45A C31A 1_555 1_555
O3A K1 1_555 1_555
O4A C24A 1_555 1_555
O5A C26A 1_555 1_555
C23A O3A 1_555 1_555
H27A C23A 1_555 1_555
H28A C23A 1_555 1_555
C24A C23A 1_555 1_555
H29A C24A 1_555 1_555
H30A C24A 1_555 1_555
C25A O4A 1_555 1_555
H31A C25A 1_555 1_555
H32A C25A 1_555 1_555
C26A C25A 1_555 1_555
H33A C26A 1_555 1_555
H34A C26A 1_555 1_555
C27A C28 1_555 1_555
H35A C27A 1_555 1_555
H36A C27A 1_555 1_555
C28A C27 1_555 1_555
H37A C28A 1_555 1_555
H38A C28A 1_555 1_555
K2 O1A 1_555 1_555
O2 C13 1_555 1_555
C5 C6 1_555 1_555
C7 C8 1_555 1_555
C8 C9 1_555 1_555
C8 C13 1_555 1_555
C9 C10 1_555 1_555
C10 C11 1_555 1_555
C11 C12 1_555 1_555
C12 C13 1_555 1_555
C14 C12A 1_555 1_555
O2A C13A 1_555 1_555
C2A C14A 1_555 1_555
C5A C6A 1_555 1_555
C7A C8A 1_555 1_555
C8A C9A 1_555 1_555
C8A C13A 1_555 1_555
C9A C10A 1_555 1_555
C10A C11A 1_555 1_555
C11A C12A 1_555 1_555
C12A C13A 1_555 1_555
O3A C28A 1_555 1_555
O5A C27A 1_555 1_555

#END
