
#######################################################################
#
#                 Cambridge Crystallographic Data Centre
#                                CCDC 
#
#######################################################################
#
# If this CIF has been generated from an entry in the Cambridge 
# Structural Database, then it will include bibliographic, chemical, 
# crystal, experimental, refinement or atomic coordinate data resulting 
# from the CCDC's data processing and validation procedures.
#
#######################################################################

data_EMUJIH
_chemical_formula_moiety         'C56 H77 K1 O8,5(C4 H8 O1)'
_chemical_name_systematic        
"(\m-5,11,17,23-tetra-t-butyl-25-oxy-26-hydroxy-27,28-(2,2'-{oxybis[(ethane-2,1-diyl)oxy]}diethoxy)calix(4)arene)-potassium tetrahydrofuran solvate"
_symmetry_cell_setting           monoclinic
_symmetry_space_group_name_H-M   'P 21/c'
_symmetry_Int_Tables_number      14
_space_group_name_Hall           '-P 2ybc'
loop_
_symmetry_equiv_pos_site_id
_symmetry_equiv_pos_as_xyz
1 x,y,z
2 -x,1/2+y,1/2-z
3 -x,-y,-z
4 x,1/2-y,1/2+z
_cell_length_a                   16.3022(3)
_cell_length_b                   29.2158(5)
_cell_length_c                   15.5007(3)
_cell_angle_alpha                90
_cell_angle_beta                 94.8725(19)
_cell_angle_gamma                90
_cell_volume                     7356.02
_exptl_crystal_colour            colorless
_exptl_crystal_description       block
_cell_formula_units_Z            4
loop_
_atom_site_label
_atom_site_type_symbol
_atom_site_fract_x
_atom_site_fract_y
_atom_site_fract_z
K1 K 0.13252(3) 0.25661(2) 0.71294(3)
O1 O 0.09469(12) 0.34496(6) 0.72677(11)
H1 H 0.1392(19) 0.3327(11) 0.791(2)
O2 O 0.19394(11) 0.31448(6) 0.83499(11)
O3 O 0.29976(11) 0.25953(6) 0.70515(12)
O4 O 0.23567(12) 0.18744(6) 0.79776(13)
O5 O 0.10375(13) 0.16055(6) 0.67595(12)
O6 O 0.05331(11) 0.22976(6) 0.55463(11)
O7 O 0.17864(11) 0.29845(6) 0.55857(10)
O8 O -0.00620(14) 0.23446(8) 0.80260(16)
C1 C 0.08964(14) 0.39034(8) 0.72166(16)
C2 C 0.09611(15) 0.41797(8) 0.79649(15)
C3 C 0.08588(16) 0.46528(9) 0.78827(16)
H2 H 0.0907 0.4833 0.8379
C4 C 0.06865(18) 0.48640(9) 0.70787(17)
C5 C 0.06470(16) 0.45836(9) 0.63514(16)
H3 H 0.0537 0.4717 0.5809
C6 C 0.07649(15) 0.41142(9) 0.63986(15)
C7 C 0.08137(15) 0.38247(9) 0.55911(15)
H4 H 0.0464 0.3956 0.5117
H5 H 0.0617 0.3518 0.5696
C8 C 0.17007(15) 0.38033(9) 0.53473(14)
C9 C 0.20767(16) 0.41982(9) 0.50762(16)
H6 H 0.1770 0.4467 0.5025
C10 C 0.28905(17) 0.42092(9) 0.48781(16)
C11 C 0.33464(16) 0.38074(9) 0.50114(16)
H7 H 0.3901 0.3810 0.4913
C12 C 0.29970(16) 0.34021(9) 0.52871(15)
C13 C 0.21572(15) 0.33996(8) 0.54104(14)
C14 C 0.35468(16) 0.29892(9) 0.54998(17)
H8 H 0.3942 0.2958 0.5069
H9 H 0.3215 0.2713 0.5491
C15 C 0.39993(15) 0.30521(8) 0.63944(17)
C16 C 0.47221(16) 0.33067(9) 0.64927(18)
H10 H 0.4956 0.3407 0.6000
C17 C 0.51079(16) 0.34173(10) 0.7301(2)
C18 C 0.47231(16) 0.32827(9) 0.80256(18)
H11 H 0.4955 0.3367 0.8571
C19 C 0.39949(15) 0.30234(9) 0.79623(17)
C20 C 0.36689(15) 0.28922(8) 0.71463(17)
C21 C 0.35886(16) 0.29160(9) 0.87950(16)
H12 H 0.3174 0.2681 0.8678
H13 H 0.4000 0.2798 0.9227
C22 C 0.31920(16) 0.33384(9) 0.91464(16)
C23 C 0.36378(16) 0.36372(10) 0.97071(17)
H14 H 0.4176 0.3563 0.9902
C24 C 0.33010(18) 0.40466(10) 0.99864(17)
C25 C 0.24889(18) 0.41405(9) 0.96900(16)
H15 H 0.2251 0.4410 0.9868
C26 C 0.20197(16) 0.38499(9) 0.91409(15)
C27 C 0.23688(15) 0.34410(8) 0.88646(15)
C28 C 0.11249(16) 0.39659(9) 0.88549(15)
H16 H 0.0804 0.3687 0.8868
H17 H 0.0924 0.4174 0.9277
C29 C 0.59394(18) 0.36659(12) 0.7393(2)
C30 C 0.6615(2) 0.33071(18) 0.7488(5)
H18 H 0.7141 0.3456 0.7565
H19 H 0.6591 0.3121 0.6976
H20 H 0.6540 0.3118 0.7981
C31 C 0.6061(3) 0.39656(19) 0.6611(3)
H21 H 0.5604 0.4172 0.6515
H22 H 0.6094 0.3776 0.6109
H23 H 0.6561 0.4138 0.6715
C32 C 0.6007(3) 0.3980(2) 0.8177(3)
H24 H 0.6052 0.3799 0.8696
H25 H 0.5525 0.4169 0.8168
H26 H 0.6486 0.4170 0.8162
C33 C 0.3829(2) 0.43763(13) 1.0577(2)
C34 C 0.4689(6) 0.4419(3) 1.0189(6)
H27 H 0.4892 0.4119 1.0070
H28 H 0.5072 0.4570 1.0599
H29 H 0.4628 0.4593 0.9663
C35 C 0.4072(6) 0.4113(3) 1.1465(4)
H30 H 0.3584 0.4048 1.1748
H31 H 0.4434 0.4302 1.1834
H32 H 0.4346 0.3832 1.1347
C36 C 0.3484(6) 0.4803(3) 1.0717(8)
H33 H 0.3387 0.4961 1.0176
H34 H 0.3854 0.4978 1.1102
H35 H 0.2972 0.4763 1.0972
C37 C 0.0537(2) 0.53802(10) 0.69796(19)
C38 C 0.0669(3) 0.56323(11) 0.7844(2)
H36 H 0.1221 0.5581 0.8092
H37 H 0.0286 0.5520 0.8231
H38 H 0.0583 0.5954 0.7751
C39 C -0.0357(3) 0.54538(13) 0.6600(2)
H39 H -0.0728 0.5339 0.6997
H40 H -0.0446 0.5294 0.6059
H41 H -0.0455 0.5775 0.6506
C40 C 0.1117(3) 0.55843(11) 0.6354(3)
H42 H 0.0984 0.5901 0.6255
H43 H 0.1055 0.5421 0.5815
H44 H 0.1675 0.5559 0.6601
C41 C 0.3260(2) 0.46482(10) 0.4515(2)
C42 C 0.3253(8) 0.5032(3) 0.5132(6)
H45 H 0.2698 0.5091 0.5265
H46 H 0.3473 0.5301 0.4879
H47 H 0.3584 0.4955 0.5654
C43 C 0.2725(8) 0.4794(3) 0.3657(6)
H48 H 0.2743 0.4555 0.3233
H49 H 0.2943 0.5071 0.3434
H50 H 0.2166 0.4843 0.3783
C44 C 0.4123(6) 0.4578(3) 0.4224(10)
H51 H 0.4490 0.4488 0.4711
H52 H 0.4313 0.4859 0.3989
H53 H 0.4107 0.4344 0.3788
C45 C 0.32206(18) 0.21279(10) 0.6899(2)
H54 H 0.3777 0.2116 0.6723
H55 H 0.2853 0.2001 0.6436
C46 C 0.31680(19) 0.18504(10) 0.7708(2)
H56 H 0.3308 0.1534 0.7599
H57 H 0.3558 0.1967 0.8163
C47 C 0.1937(2) 0.14472(9) 0.79977(19)
H58 H 0.1476 0.1478 0.8349
H59 H 0.2308 0.1220 0.8268
C48 C 0.16262(19) 0.12832(9) 0.71097(19)
H60 H 0.2078 0.1260 0.6743
H61 H 0.1374 0.0984 0.7146
C49 C 0.0693(2) 0.14813(10) 0.59210(18)
H62 H 0.0385 0.1198 0.5948
H63 H 0.1127 0.1436 0.5538
C50 C 0.01288(19) 0.18648(10) 0.55853(19)
H64 H -0.0109 0.1785 0.5010
H65 H -0.0318 0.1893 0.5957
C51 C 0.11750(17) 0.22963(9) 0.49798(16)
H66 H 0.0987 0.2146 0.4441
H67 H 0.1645 0.2128 0.5243
C52 C 0.14218(17) 0.27789(9) 0.48021(16)
H68 H 0.1814 0.2781 0.4365
H69 H 0.0942 0.2954 0.4584
C53 C -0.0445(2) 0.19106(12) 0.8112(3)
H70 H -0.0357 0.1801 0.8703
H71 H -0.0222 0.1688 0.7731
C54 C -0.1334(3) 0.19855(17) 0.7868(3)
H72 H -0.1668 0.1781 0.8186
H73 H -0.1465 0.1938 0.7252
C55 C -0.1470(3) 0.24769(19) 0.8110(4)
H74 H -0.1765 0.2641 0.7636
H75 H -0.1780 0.2496 0.8616
C56 C -0.0622(3) 0.26673(15) 0.8300(4)
H76 H -0.0569 0.2954 0.7995
H77 H -0.0514 0.2724 0.8916
O9 O 0.4240(4) 0.4559(3) 0.6993(5)
C63 C 0.4243(10) 0.4944(9) 0.7381(14)
H96 H 0.4499 0.5165 0.7021
H97 H 0.4599 0.4914 0.7912
C64 C 0.3472(10) 0.5138(5) 0.7604(8)
H98 H 0.3263 0.5367 0.7189
H99 H 0.3517 0.5268 0.8182
C65 C 0.2925(19) 0.4679(15) 0.755(2)
H100 H 0.2702 0.4607 0.8091
H101 H 0.2484 0.4693 0.7086
C66 C 0.3643(8) 0.4327(5) 0.7328(9)
H102 H 0.3858 0.4171 0.7851
H103 H 0.3421 0.4098 0.6918
O11 O 0.8654(4) 0.4459(3) 0.8188(3)
C71 C 0.8741(4) 0.40440(19) 0.8664(5)
H112 H 0.9189 0.3864 0.8467
H113 H 0.8239 0.3865 0.8580
C72 C 0.8907(5) 0.4156(3) 0.9553(4)
H114 H 0.9434 0.4029 0.9774
H115 H 0.8483 0.4030 0.9887
C73 C 0.8922(5) 0.4641(3) 0.9627(4)
H116 H 0.8506 0.4742 0.9995
H117 H 0.9456 0.4741 0.9882
C74 C 0.8766(4) 0.48278(18) 0.8783(6)
H118 H 0.8275 0.5017 0.8755
H119 H 0.9226 0.5016 0.8643
O12 O 0.8796(3) 0.3456(2) 0.6371(4)
C75 C 0.8474(3) 0.3855(2) 0.5832(4)
H120 H 0.8191 0.4072 0.6177
H121 H 0.8918 0.4012 0.5574
C76 C 0.7906(4) 0.3647(3) 0.5168(4)
H122 H 0.7363 0.3619 0.5375
H123 H 0.7862 0.3835 0.4650
C77 C 0.8198(5) 0.3240(3) 0.4994(5)
H124 H 0.8475 0.3256 0.4466
H125 H 0.7746 0.3025 0.4901
C78 C 0.8738(5) 0.3085(3) 0.5652(6)
H126 H 0.9275 0.3033 0.5444
H127 H 0.8543 0.2799 0.5878
O13 O 0.5272(5) 0.3374(5) 0.4112(6)
C79 C 0.5625(7) 0.3723(3) 0.3623(7)
H128 H 0.5200 0.3875 0.3252
H129 H 0.5895 0.3948 0.4008
C80 C 0.6207(7) 0.3514(4) 0.3114(7)
H130 H 0.6055 0.3569 0.2504
H131 H 0.6749 0.3643 0.3260
C81 C 0.6212(8) 0.3037(4) 0.3288(8)
H132 H 0.6063 0.2868 0.2760
H133 H 0.6758 0.2941 0.3516
C82 C 0.5635(8) 0.2950(3) 0.3905(9)
H134 H 0.5909 0.2814 0.4421
H135 H 0.5215 0.2740 0.3666
O14 O 0.6089(10) 0.3427(6) 0.0597(9)
C83 C 0.6903(14) 0.3603(5) 0.0633(10)
H136 H 0.7029 0.3769 0.1169
H137 H 0.6957 0.3811 0.0153
C84 C 0.7451(6) 0.3228(8) 0.0584(10)
H138 H 0.7834 0.3218 0.1097
H139 H 0.7763 0.3259 0.0081
C85 C 0.6975(11) 0.2820(5) 0.0518(10)
H140 H 0.7064 0.2660 -0.0015
H141 H 0.7136 0.2619 0.1001
C86 C 0.6133(8) 0.2943(5) 0.0527(11)
H142 H 0.5827 0.2841 -0.0002
H143 H 0.5898 0.2800 0.1014
C57? C 0.4677(7) 0.4287(5) 1.0694(11)
H78? H 0.4773 0.4028 1.1070
H79? H 0.4957 0.4549 1.0948
H80? H 0.4881 0.4222 1.0144
C58? C 0.3406(8) 0.4464(4) 1.1429(5)
H81? H 0.2875 0.4599 1.1291
H82? H 0.3741 0.4668 1.1796
H83? H 0.3344 0.4179 1.1725
C59? C 0.3717(9) 0.4889(3) 1.0130(8)
H84? H 0.3873 0.4877 0.9546
H85? H 0.4062 0.5104 1.0458
H86? H 0.3153 0.4983 1.0125
C60? C 0.2825(13) 0.5070(4) 0.4827(17)
H87? H 0.2284 0.5090 0.4532
H88? H 0.3135 0.5338 0.4706
H89? H 0.2782 0.5047 0.5439
C61? C 0.3275(16) 0.4608(6) 0.3585(8)
H90? H 0.3596 0.4346 0.3452
H91? H 0.3514 0.4879 0.3362
H92? H 0.2723 0.4573 0.3325
C62? C 0.4167(9) 0.4699(5) 0.4924(17)
H93? H 0.4173 0.4694 0.5544
H94? H 0.4390 0.4984 0.4744
H95? H 0.4494 0.4451 0.4736
O10? O 0.3020(13) 0.5057(7) 0.7768(17)
C67? C 0.4339(14) 0.4858(10) 0.7613(17)
H104? H 0.4755 0.4818 0.8094
H105? H 0.4600 0.4905 0.7081
C68? C 0.3845(13) 0.5160(8) 0.775(2)
H106? H 0.3888 0.5392 0.7305
H107? H 0.4028 0.5300 0.8297
C69? C 0.2933(8) 0.4633(4) 0.7420(9)
H108? H 0.2534 0.4456 0.7710
H109? H 0.2752 0.4650 0.6808
C70? C 0.368(2) 0.4443(8) 0.7538(17)
H110? H 0.3780 0.4246 0.7053
H111? H 0.3728 0.4260 0.8063
loop_
_geom_bond_atom_site_label_1
_geom_bond_atom_site_label_2
_geom_bond_site_symmetry_1
_geom_bond_site_symmetry_2
K1 O1 1_555 1_555
O1 C1 1_555 1_555
H1 O2 1_555 1_555
O2 K1 1_555 1_555
O3 K1 1_555 1_555
O4 K1 1_555 1_555
O5 K1 1_555 1_555
O6 K1 1_555 1_555
O7 K1 1_555 1_555
O8 K1 1_555 1_555
C1 C2 1_555 1_555
C2 C3 1_555 1_555
C3 H2 1_555 1_555
C4 C3 1_555 1_555
C5 C4 1_555 1_555
H3 C5 1_555 1_555
C6 C1 1_555 1_555
C7 C6 1_555 1_555
H4 C7 1_555 1_555
H5 C7 1_555 1_555
C8 C7 1_555 1_555
C9 C8 1_555 1_555
H6 C9 1_555 1_555
C10 C9 1_555 1_555
C11 C10 1_555 1_555
H7 C11 1_555 1_555
C12 C11 1_555 1_555
C13 O7 1_555 1_555
C14 C12 1_555 1_555
H8 C14 1_555 1_555
H9 C14 1_555 1_555
C15 C14 1_555 1_555
C16 C15 1_555 1_555
H10 C16 1_555 1_555
C17 C16 1_555 1_555
C18 C17 1_555 1_555
H11 C18 1_555 1_555
C19 C18 1_555 1_555
C20 O3 1_555 1_555
C21 C19 1_555 1_555
H12 C21 1_555 1_555
H13 C21 1_555 1_555
C22 C21 1_555 1_555
C23 C22 1_555 1_555
H14 C23 1_555 1_555
C24 C23 1_555 1_555
C25 C24 1_555 1_555
H15 C25 1_555 1_555
C26 C25 1_555 1_555
C27 O2 1_555 1_555
C28 C2 1_555 1_555
H16 C28 1_555 1_555
H17 C28 1_555 1_555
C29 C17 1_555 1_555
C30 C29 1_555 1_555
H18 C30 1_555 1_555
H19 C30 1_555 1_555
H20 C30 1_555 1_555
C31 C29 1_555 1_555
H21 C31 1_555 1_555
H22 C31 1_555 1_555
H23 C31 1_555 1_555
C32 C29 1_555 1_555
H24 C32 1_555 1_555
H25 C32 1_555 1_555
H26 C32 1_555 1_555
C33 C24 1_555 1_555
C34 C33 1_555 1_555
H27 C34 1_555 1_555
H28 C34 1_555 1_555
H29 C34 1_555 1_555
C35 C33 1_555 1_555
H30 C35 1_555 1_555
H31 C35 1_555 1_555
H32 C35 1_555 1_555
C36 C33 1_555 1_555
H33 C36 1_555 1_555
H34 C36 1_555 1_555
H35 C36 1_555 1_555
C37 C4 1_555 1_555
C38 C37 1_555 1_555
H36 C38 1_555 1_555
H37 C38 1_555 1_555
H38 C38 1_555 1_555
C39 C37 1_555 1_555
H39 C39 1_555 1_555
H40 C39 1_555 1_555
H41 C39 1_555 1_555
C40 C37 1_555 1_555
H42 C40 1_555 1_555
H43 C40 1_555 1_555
H44 C40 1_555 1_555
C41 C10 1_555 1_555
C42 C41 1_555 1_555
H45 C42 1_555 1_555
H46 C42 1_555 1_555
H47 C42 1_555 1_555
C43 C41 1_555 1_555
H48 C43 1_555 1_555
H49 C43 1_555 1_555
H50 C43 1_555 1_555
C44 C41 1_555 1_555
H51 C44 1_555 1_555
H52 C44 1_555 1_555
H53 C44 1_555 1_555
C45 O3 1_555 1_555
H54 C45 1_555 1_555
H55 C45 1_555 1_555
C46 O4 1_555 1_555
H56 C46 1_555 1_555
H57 C46 1_555 1_555
C47 O4 1_555 1_555
H58 C47 1_555 1_555
H59 C47 1_555 1_555
C48 O5 1_555 1_555
H60 C48 1_555 1_555
H61 C48 1_555 1_555
C49 O5 1_555 1_555
H62 C49 1_555 1_555
H63 C49 1_555 1_555
C50 O6 1_555 1_555
H64 C50 1_555 1_555
H65 C50 1_555 1_555
C51 O6 1_555 1_555
H66 C51 1_555 1_555
H67 C51 1_555 1_555
C52 O7 1_555 1_555
H68 C52 1_555 1_555
H69 C52 1_555 1_555
C53 O8 1_555 1_555
H70 C53 1_555 1_555
H71 C53 1_555 1_555
C54 C53 1_555 1_555
H72 C54 1_555 1_555
H73 C54 1_555 1_555
C55 C54 1_555 1_555
H74 C55 1_555 1_555
H75 C55 1_555 1_555
C56 O8 1_555 1_555
H76 C56 1_555 1_555
H77 C56 1_555 1_555
O9 C63 1_555 1_555
C63 H96 1_555 1_555
H97 C63 1_555 1_555
C64 C63 1_555 1_555
H98 C64 1_555 1_555
H99 C64 1_555 1_555
C65 C64 1_555 1_555
H100 C65 1_555 1_555
H101 C65 1_555 1_555
C66 O9 1_555 1_555
H102 C66 1_555 1_555
H103 C66 1_555 1_555
O11 C71 1_555 1_555
C71 H112 1_555 1_555
H113 C71 1_555 1_555
C72 C71 1_555 1_555
H114 C72 1_555 1_555
H115 C72 1_555 1_555
C73 C72 1_555 1_555
H116 C73 1_555 1_555
H117 C73 1_555 1_555
C74 O11 1_555 1_555
H118 C74 1_555 1_555
H119 C74 1_555 1_555
O12 C75 1_555 1_555
C75 H120 1_555 1_555
H121 C75 1_555 1_555
C76 C75 1_555 1_555
H122 C76 1_555 1_555
H123 C76 1_555 1_555
C77 C76 1_555 1_555
H124 C77 1_555 1_555
H125 C77 1_555 1_555
C78 O12 1_555 1_555
H126 C78 1_555 1_555
H127 C78 1_555 1_555
O13 C79 1_555 1_555
C79 H128 1_555 1_555
H129 C79 1_555 1_555
C80 C79 1_555 1_555
H130 C80 1_555 1_555
H131 C80 1_555 1_555
C81 C80 1_555 1_555
H132 C81 1_555 1_555
H133 C81 1_555 1_555
C82 O13 1_555 1_555
H134 C82 1_555 1_555
H135 C82 1_555 1_555
O14 C83 1_555 1_555
C83 H136 1_555 1_555
H137 C83 1_555 1_555
C84 C83 1_555 1_555
H138 C84 1_555 1_555
H139 C84 1_555 1_555
C85 C84 1_555 1_555
H140 C85 1_555 1_555
H141 C85 1_555 1_555
C86 O14 1_555 1_555
H142 C86 1_555 1_555
H143 C86 1_555 1_555
C5 C6 1_555 1_555
C8 C13 1_555 1_555
C12 C13 1_555 1_555
C15 C20 1_555 1_555
C19 C20 1_555 1_555
C22 C27 1_555 1_555
C26 C27 1_555 1_555
C26 C28 1_555 1_555
C45 C46 1_555 1_555
C47 C48 1_555 1_555
C49 C50 1_555 1_555
C51 C52 1_555 1_555
C55 C56 1_555 1_555
C65 C66 1_555 1_555
C73 C74 1_555 1_555
C77 C78 1_555 1_555
C81 C82 1_555 1_555
C85 C86 1_555 1_555

#END
