
#######################################################################
#
#                 Cambridge Crystallographic Data Centre
#                                CCDC 
#
#######################################################################
#
# If this CIF has been generated from an entry in the Cambridge 
# Structural Database, then it will include bibliographic, chemical, 
# crystal, experimental, refinement or atomic coordinate data resulting 
# from the CCDC's data processing and validation procedures.
#
#######################################################################

data_EMUJEC
_chemical_formula_moiety         'C12 H15 N2 O3 1+,Cl1 1-'
_chemical_name_systematic        
'2-Hydroxy-1,1-dimethyl-4-(4-nitrophenyl)-2,5-dihydro-1H-pyrrolium chloride'
_symmetry_cell_setting           monoclinic
_symmetry_space_group_name_H-M   'P 21/n'
_symmetry_Int_Tables_number      14
_space_group_name_Hall           '-P 2yn'
loop_
_symmetry_equiv_pos_site_id
_symmetry_equiv_pos_as_xyz
1 x,y,z
2 1/2-x,1/2+y,1/2-z
3 -x,-y,-z
4 1/2+x,1/2-y,1/2+z
_cell_length_a                   5.9292(7)
_cell_length_b                   19.371(2)
_cell_length_c                   10.7356(11)
_cell_angle_alpha                90
_cell_angle_beta                 101.189(2)
_cell_angle_gamma                90
_cell_volume                     1209.6
_exptl_crystal_colour            colorless
_exptl_crystal_description       platelet
_cell_formula_units_Z            4
_exptl_crystal_recrystallization_method methanol
loop_
_atom_site_label
_atom_site_type_symbol
_atom_site_fract_x
_atom_site_fract_y
_atom_site_fract_z
C1 C 0.1969(3) 0.10652(8) 0.50109(16)
H1 H 0.2970 0.1020 0.5871
C2 C 0.2378(3) 0.04729(8) 0.42127(17)
H2 H 0.1713 0.0030 0.4258
C3 C 0.3774(3) 0.06279(8) 0.34269(16)
C4 C 0.4490(3) 0.13728(8) 0.35629(16)
H3 H 0.4363 0.1595 0.2722
H4 H 0.6091 0.1418 0.4036
C5 C 0.3922(3) 0.22272(9) 0.52033(17)
H5 H 0.4454 0.2607 0.4731
H6 H 0.5236 0.2026 0.5786
H7 H 0.2805 0.2402 0.5689
C6 C 0.0871(3) 0.20047(9) 0.33818(17)
H8 H -0.0278 0.2181 0.3846
H9 H 0.0164 0.1655 0.2768
H10 H 0.1451 0.2386 0.2932
C7 C 0.4669(3) 0.01605(8) 0.25679(15)
C8 C 0.3588(3) -0.04677(8) 0.22069(16)
H11 H 0.2261 -0.0594 0.2527
C9 C 0.4416(3) -0.09061(8) 0.13934(16)
H12 H 0.3668 -0.1332 0.1143
C10 C 0.6361(3) -0.07143(8) 0.09471(16)
C11 C 0.7490(3) -0.01027(8) 0.12866(16)
H13 H 0.8830 0.0016 0.0972
C12 C 0.6629(3) 0.03356(9) 0.20974(16)
H14 H 0.7382 0.0762 0.2338
N1 N 0.2816(2) 0.16879(7) 0.42959(13)
N2 N 0.7190(2) -0.11655(7) 0.00428(14)
O1 O -0.02673(19) 0.11352(6) 0.51360(12)
O2 O 0.8944(2) -0.09976(7) -0.03311(13)
O3 O 0.6091(2) -0.16839(7) -0.03181(13)
H15 H -0.021(5) 0.1396(14) 0.590(3)
Cl1 Cl 0.00838(7) 0.19167(2) 0.74511(4)
loop_
_geom_bond_atom_site_label_1
_geom_bond_atom_site_label_2
_geom_bond_site_symmetry_1
_geom_bond_site_symmetry_2
C1 H1 1_555 1_555
C2 C1 1_555 1_555
H2 C2 1_555 1_555
C3 C2 1_555 1_555
C4 C3 1_555 1_555
H3 C4 1_555 1_555
H4 C4 1_555 1_555
C5 H5 1_555 1_555
H6 C5 1_555 1_555
H7 C5 1_555 1_555
C6 H8 1_555 1_555
H9 C6 1_555 1_555
H10 C6 1_555 1_555
C7 C3 1_555 1_555
C8 C7 1_555 1_555
H11 C8 1_555 1_555
C9 C8 1_555 1_555
H12 C9 1_555 1_555
C10 C9 1_555 1_555
C11 C10 1_555 1_555
H13 C11 1_555 1_555
C12 C7 1_555 1_555
H14 C12 1_555 1_555
N1 C1 1_555 1_555
N2 C10 1_555 1_555
O1 C1 1_555 1_555
O2 N2 1_555 1_555
O3 N2 1_555 1_555
H15 O1 1_555 1_555
C4 N1 1_555 1_555
C5 N1 1_555 1_555
C6 N1 1_555 1_555
C11 C12 1_555 1_555

#END
