
#######################################################################
#
#                 Cambridge Crystallographic Data Centre
#                                CCDC 
#
#######################################################################
#
# If this CIF has been generated from an entry in the Cambridge 
# Structural Database, then it will include bibliographic, chemical, 
# crystal, experimental, refinement or atomic coordinate data resulting 
# from the CCDC's data processing and validation procedures.
#
#######################################################################

data_EMUKIH
_chemical_formula_moiety         'C21 H19 N1 O2 S1'
_chemical_name_systematic        
'2-(4,5-Dimethyl-1,3-thiazol-2-yl)-1-phenylprop-1-en-1-yl benzoate'
_symmetry_cell_setting           triclinic
_symmetry_space_group_name_H-M   'P -1'
_symmetry_Int_Tables_number      2
_space_group_name_Hall           '-P 1'
loop_
_symmetry_equiv_pos_site_id
_symmetry_equiv_pos_as_xyz
1 x,y,z
2 -x,-y,-z
_cell_length_a                   11.2298(5)
_cell_length_b                   11.3133(5)
_cell_length_c                   15.4529(6)
_cell_angle_alpha                79.820(2)
_cell_angle_beta                 76.492(2)
_cell_angle_gamma                72.466(2)
_cell_volume                     1808.21
_exptl_crystal_colour            white
_chemical_melting_point          '403-405 K'
_cell_formula_units_Z            4
_chemical_properties_physical    moisture-sensitive
_exptl_crystal_recrystallization_method hexane/acetone
loop_
_atom_site_label
_atom_site_type_symbol
_atom_site_fract_x
_atom_site_fract_y
_atom_site_fract_z
S1 S 0.35531(4) 0.46923(3) 0.11512(3)
O1 O 0.15804(9) 0.67757(9) 0.07661(6)
N1 N 0.41068(11) 0.35527(11) -0.02408(9)
O2 O -0.00506(10) 0.59487(9) 0.14289(7)
C1 C -0.04505(13) 0.69143(13) -0.06960(9)
H1 H -0.0403 0.6068 -0.0606
C2 C 0.24772(14) 0.51646(14) -0.13264(10)
H2 H 0.2132 0.4473 -0.1286
H3 H 0.3349 0.4955 -0.1632
H4 H 0.1996 0.5881 -0.1652
C3 C -0.15302(14) 0.90293(14) -0.11883(9)
H5 H -0.2204 0.9595 -0.1421
C4 C -0.05969(14) 0.94439(13) -0.09845(9)
H6 H -0.0639 1.0289 -0.1087
C5 C 0.06614(13) 0.65311(12) 0.14784(9)
C6 C 0.06756(13) 0.70548(12) 0.22887(9)
C7 C 0.33477(13) 0.45686(13) 0.00946(10)
C8 C -0.03403(15) 0.74836(14) 0.37985(10)
H7 H -0.1000 0.7457 0.4288
C9 C 0.04000(13) 0.86020(13) -0.06287(9)
H8 H 0.1017 0.8888 -0.0487
C10 C 0.15300(13) 0.64441(13) -0.00648(9)
C11 C -0.14541(14) 0.77643(14) -0.10437(9)
H9 H -0.2079 0.7484 -0.1181
C12 C 0.04843(13) 0.73266(13) -0.04820(9)
C13 C 0.48728(14) 0.28304(14) 0.03450(11)
C14 C 0.16425(14) 0.75587(13) 0.23413(10)
H10 H 0.2308 0.7582 0.1856
C15 C 0.24060(13) 0.54548(13) -0.03980(10)
C16 C -0.03169(14) 0.70256(13) 0.30176(10)
H11 H -0.0968 0.6698 0.2981
C17 C 0.58067(17) 0.16273(16) 0.00683(13)
H12 H 0.6604 0.1783 -0.0234
H13 H 0.5479 0.1294 -0.0327
H14 H 0.5932 0.1038 0.0590
C18 C 0.54016(16) 0.27343(16) 0.18953(12)
H15 H 0.5332 0.1899 0.2089
H16 H 0.5030 0.3233 0.2383
H17 H 0.6283 0.2719 0.1702
C19 C 0.16092(16) 0.80245(14) 0.31184(11)
H18 H 0.2250 0.8368 0.3153
C20 C 0.06267(16) 0.79816(14) 0.38444(10)
H19 H 0.0615 0.8289 0.4367
C21 C 0.47127(14) 0.32862(14) 0.11308(11)
S2 S 0.24881(3) 0.88920(3) 0.53560(2)
O3 O 0.30968(10) 1.03421(9) 0.28828(7)
N2 N 0.29786(11) 0.65749(11) 0.51787(8)
C22 C 0.59139(15) 0.81325(13) 0.20435(10)
H20 H 0.5346 0.7701 0.2004
C23 C 0.19937(13) 0.68179(13) 0.59064(9)
C24 C 0.49554(14) 0.62719(13) 0.36880(10)
H21 H 0.4385 0.6093 0.3385
H22 H 0.5109 0.5648 0.4188
H23 H 0.5746 0.6269 0.3281
C25 C 0.77287(15) 0.89067(14) 0.13724(10)
H24 H 0.8383 0.8984 0.0889
C26 C 0.22460(14) 1.27920(13) 0.33622(10)
H25 H 0.1871 1.2613 0.2942
C27 C 0.47640(13) 0.85412(12) 0.36128(9)
C28 C 0.34387(13) 1.05840(13) 0.34950(9)
C29 C 0.31053(13) 1.18386(13) 0.37879(9)
C30 C 0.43672(13) 0.75411(12) 0.40185(9)
C31 C 0.66345(14) 0.93089(13) 0.28662(10)
H26 H 0.6550 0.9670 0.3381
C32 C 0.57876(13) 0.86441(12) 0.28283(9)
C33 C 0.76014(14) 0.94346(14) 0.21420(10)
H27 H 0.8166 0.9875 0.2174
C34 C 0.15959(14) 0.80161(14) 0.61047(9)
C35 C 0.19504(15) 1.40033(14) 0.35642(10)
H28 H 0.1373 1.4637 0.3282
C36 C 0.33436(13) 0.75788(12) 0.48102(9)
C37 C 0.36617(14) 1.21049(14) 0.44163(10)
H29 H 0.4229 1.1472 0.4707
O4 O 0.42148(9) 0.96825(8) 0.39947(6)
C38 C 0.05595(16) 0.85897(15) 0.68368(11)
H30 H -0.0250 0.8757 0.6667
H31 H 0.0684 0.9356 0.6934
H32 H 0.0581 0.8024 0.7378
C39 C 0.33610(16) 1.33280(14) 0.46067(11)
H33 H 0.3736 1.3514 0.5024
C40 C 0.14532(15) 0.57680(14) 0.63901(11)
H34 H 0.0837 0.6043 0.6911
H35 H 0.2125 0.5079 0.6570
H36 H 0.1051 0.5510 0.6000
C41 C 0.68823(15) 0.82647(14) 0.13218(10)
H37 H 0.6963 0.7919 0.0801
C42 C 0.25103(15) 1.42715(14) 0.41826(11)
H38 H 0.2316 1.5087 0.4315
loop_
_geom_bond_atom_site_label_1
_geom_bond_atom_site_label_2
_geom_bond_site_symmetry_1
_geom_bond_site_symmetry_2
S1 C7 1_555 1_555
O1 C5 1_555 1_555
N1 C7 1_555 1_555
O2 C5 1_555 1_555
C1 H1 1_555 1_555
C2 H2 1_555 1_555
H3 C2 1_555 1_555
H4 C2 1_555 1_555
C3 H5 1_555 1_555
C4 C3 1_555 1_555
H6 C4 1_555 1_555
C5 C6 1_555 1_555
C6 C14 1_555 1_555
C7 C15 1_555 1_555
C8 H7 1_555 1_555
C9 C4 1_555 1_555
H8 C9 1_555 1_555
C10 O1 1_555 1_555
C11 C1 1_555 1_555
H9 C11 1_555 1_555
C12 C1 1_555 1_555
C13 N1 1_555 1_555
C14 H10 1_555 1_555
C15 C2 1_555 1_555
C16 C6 1_555 1_555
H11 C16 1_555 1_555
C17 C13 1_555 1_555
H12 C17 1_555 1_555
H13 C17 1_555 1_555
H14 C17 1_555 1_555
C18 H15 1_555 1_555
H16 C18 1_555 1_555
H17 C18 1_555 1_555
C19 C14 1_555 1_555
H18 C19 1_555 1_555
C20 C8 1_555 1_555
H19 C20 1_555 1_555
C21 S1 1_555 1_555
S2 C34 1_555 1_555
O3 C28 1_555 1_555
N2 C23 1_555 1_555
C22 H20 1_555 1_555
C23 C34 1_555 1_555
C24 H21 1_555 1_555
H22 C24 1_555 1_555
H23 C24 1_555 1_555
C25 H24 1_555 1_555
C26 H25 1_555 1_555
C27 C30 1_555 1_555
C28 C29 1_555 1_555
C29 C26 1_555 1_555
C30 C24 1_555 1_555
C31 H26 1_555 1_555
C32 C22 1_555 1_555
C33 C25 1_555 1_555
H27 C33 1_555 1_555
C34 C38 1_555 1_555
C35 C26 1_555 1_555
H28 C35 1_555 1_555
C36 S2 1_555 1_555
C37 C29 1_555 1_555
H29 C37 1_555 1_555
O4 C27 1_555 1_555
C38 H30 1_555 1_555
H31 C38 1_555 1_555
H32 C38 1_555 1_555
C39 C37 1_555 1_555
H33 C39 1_555 1_555
C40 C23 1_555 1_555
H34 C40 1_555 1_555
H35 C40 1_555 1_555
H36 C40 1_555 1_555
C41 C22 1_555 1_555
H37 C41 1_555 1_555
C42 C35 1_555 1_555
H38 C42 1_555 1_555
C3 C11 1_555 1_555
C8 C16 1_555 1_555
C9 C12 1_555 1_555
C10 C12 1_555 1_555
C10 C15 1_555 1_555
C13 C21 1_555 1_555
C18 C21 1_555 1_555
C19 C20 1_555 1_555
N2 C36 1_555 1_555
C25 C41 1_555 1_555
C27 C32 1_555 1_555
C28 O4 1_555 1_555
C30 C36 1_555 1_555
C31 C32 1_555 1_555
C31 C33 1_555 1_555
C39 C42 1_555 1_555

#END
