
#######################################################################
#
#                 Cambridge Crystallographic Data Centre
#                                CCDC 
#
#######################################################################
#
# If this CIF has been generated from an entry in the Cambridge 
# Structural Database, then it will include bibliographic, chemical, 
# crystal, experimental, refinement or atomic coordinate data resulting 
# from the CCDC's data processing and validation procedures.
#
#######################################################################

data_EMULAB
_chemical_formula_moiety         'C26 H18 O2'
_chemical_name_systematic        
trans-1-(4-methoxyphenyl)-3-(pyren-1-yl)prop-2-en-1-one
_symmetry_cell_setting           monoclinic
_symmetry_space_group_name_H-M   'P 21/c'
_symmetry_Int_Tables_number      14
_space_group_name_Hall           '-P 2ybc'
loop_
_symmetry_equiv_pos_site_id
_symmetry_equiv_pos_as_xyz
1 x,y,z
2 -x,1/2+y,1/2-z
3 -x,-y,-z
4 x,1/2-y,1/2+z
_cell_length_a                   11.343(2)
_cell_length_b                   7.9890(16)
_cell_length_c                   21.559(4)
_cell_angle_alpha                90
_cell_angle_beta                 104.06(3)
_cell_angle_gamma                90
_cell_volume                     1895.13
_exptl_crystal_colour            orange
_exptl_crystal_description       rhombohedral
_cell_formula_units_Z            4
loop_
_atom_site_label
_atom_site_type_symbol
_atom_site_fract_x
_atom_site_fract_y
_atom_site_fract_z
C1 C 0.0796(2) 0.3043(4) 0.15528(13)
O1 O 0.29582(18) -0.1269(3) 0.16232(9)
O2 O 0.43171(18) -0.4979(3) 0.42813(9)
C2 C 0.1067(3) 0.4266(4) 0.20362(14)
H1 H 0.1630 0.4012 0.2416
C3 C 0.0537(3) 0.5808(5) 0.19687(16)
H2 H 0.0748 0.6580 0.2300
C4 C -0.0325(3) 0.6248(4) 0.14045(15)
C5 C -0.0628(2) 0.5029(4) 0.09094(13)
C6 C -0.0078(2) 0.3429(3) 0.09784(12)
C7 C -0.0876(3) 0.7868(4) 0.13023(18)
H3 H -0.0656 0.8673 0.1621
C8 C -0.1690(3) 0.8262(4) 0.0768(2)
H4 H -0.2031 0.9327 0.0722
C9 C -0.2049(3) 0.7071(4) 0.02622(18)
C10 C -0.1516(2) 0.5458(4) 0.03359(14)
C11 C -0.2910(3) 0.7452(4) -0.0312(2)
H5 H -0.3265 0.8508 -0.0368
C12 C -0.3225(3) 0.6282(5) -0.07855(17)
H6 H -0.3808 0.6552 -0.1156
C13 C -0.2708(3) 0.4731(4) -0.07297(14)
H7 H -0.2927 0.3969 -0.1064
C14 C -0.1840(2) 0.4278(4) -0.01648(13)
C15 C -0.1281(2) 0.2687(3) -0.00835(13)
H8 H -0.1499 0.1899 -0.0409
C16 C -0.0427(2) 0.2273(3) 0.04613(13)
H9 H -0.0068 0.1220 0.0495
C17 C 0.1470(2) 0.1470(4) 0.16263(13)
H10 H 0.1469 0.0907 0.1249
C18 C 0.2085(3) 0.0735(4) 0.21590(14)
H11 H 0.2081 0.1204 0.2553
C19 C 0.2769(2) -0.0803(4) 0.21337(13)
C20 C 0.3212(2) -0.1845(4) 0.27129(12)
C21 C 0.3886(2) -0.3265(4) 0.26709(13)
H12 H 0.4079 -0.3500 0.2285
C22 C 0.4282(2) -0.4345(4) 0.31760(14)
H13 H 0.4739 -0.5286 0.3133
C23 C 0.3988(2) -0.4005(4) 0.37516(13)
C24 C 0.3320(3) -0.2588(4) 0.38037(14)
H14 H 0.3123 -0.2356 0.4189
C25 C 0.2947(2) -0.1527(4) 0.32997(13)
H15 H 0.2508 -0.0573 0.3348
C26 C 0.4894(3) -0.6538(4) 0.42361(15)
H16 H 0.5072 -0.7084 0.4645
H17 H 0.4363 -0.7232 0.3926
H18 H 0.5635 -0.6350 0.4107
loop_
_geom_bond_atom_site_label_1
_geom_bond_atom_site_label_2
_geom_bond_site_symmetry_1
_geom_bond_site_symmetry_2
C1 C2 1_555 1_555
O1 C19 1_555 1_555
O2 C23 1_555 1_555
C2 H1 1_555 1_555
C3 C2 1_555 1_555
H2 C3 1_555 1_555
C4 C3 1_555 1_555
C5 C4 1_555 1_555
C6 C1 1_555 1_555
C7 C4 1_555 1_555
H3 C7 1_555 1_555
C8 C7 1_555 1_555
H4 C8 1_555 1_555
C9 C8 1_555 1_555
C10 C5 1_555 1_555
C11 C9 1_555 1_555
H5 C11 1_555 1_555
C12 C11 1_555 1_555
H6 C12 1_555 1_555
C13 C12 1_555 1_555
H7 C13 1_555 1_555
C14 C10 1_555 1_555
C15 C14 1_555 1_555
H8 C15 1_555 1_555
C16 C6 1_555 1_555
H9 C16 1_555 1_555
C17 C1 1_555 1_555
H10 C17 1_555 1_555
C18 C17 1_555 1_555
H11 C18 1_555 1_555
C19 C18 1_555 1_555
C20 C19 1_555 1_555
C21 C20 1_555 1_555
H12 C21 1_555 1_555
C22 C21 1_555 1_555
H13 C22 1_555 1_555
C23 C22 1_555 1_555
C24 C23 1_555 1_555
H14 C24 1_555 1_555
C25 C20 1_555 1_555
H15 C25 1_555 1_555
C26 O2 1_555 1_555
H16 C26 1_555 1_555
H17 C26 1_555 1_555
H18 C26 1_555 1_555
C5 C6 1_555 1_555
C9 C10 1_555 1_555
C13 C14 1_555 1_555
C15 C16 1_555 1_555
C24 C25 1_555 1_555

#END
