
#######################################################################
#
#                 Cambridge Crystallographic Data Centre
#                                CCDC 
#
#######################################################################
#
# If this CIF has been generated from an entry in the Cambridge 
# Structural Database, then it will include bibliographic, chemical, 
# crystal, experimental, refinement or atomic coordinate data resulting 
# from the CCDC's data processing and validation procedures.
#
#######################################################################

data_EMULIJ
_chemical_formula_moiety         'C24 H18 O2'
_chemical_name_systematic        
trans-3-(9-anthryl)-1-(4-methoxyphenyl)prop-2-en-1-one
_symmetry_cell_setting           orthorhombic
_symmetry_space_group_name_H-M   'P 21 21 21'
_symmetry_Int_Tables_number      19
_space_group_name_Hall           'P 2ac 2ab'
loop_
_symmetry_equiv_pos_site_id
_symmetry_equiv_pos_as_xyz
1 x,y,z
2 1/2-x,-y,1/2+z
3 1/2+x,1/2-y,-z
4 -x,1/2+y,1/2-z
_cell_length_a                   10.669(2)
_cell_length_b                   11.771(2)
_cell_length_c                   14.278(3)
_cell_angle_alpha                90
_cell_angle_beta                 90
_cell_angle_gamma                90
_cell_volume                     1793.1
_exptl_crystal_colour            colorless
_exptl_crystal_description       block
_cell_formula_units_Z            4
loop_
_atom_site_label
_atom_site_type_symbol
_atom_site_fract_x
_atom_site_fract_y
_atom_site_fract_z
O1 O 0.3369(4) 0.2794(3) -0.0316(3)
O2 O 0.6573(4) 0.5910(4) -0.2981(3)
C1 C 0.5888(6) -0.0865(5) 0.0469(4)
C2 C 0.5553(7) -0.1071(7) -0.0491(5)
H1 H 0.5064 -0.0547 -0.0813
C3 C 0.5948(9) -0.2028(8) -0.0929(6)
H2 H 0.5726 -0.2149 -0.1551
C4 C 0.6690(10) -0.2843(7) -0.0462(7)
H3 H 0.6953 -0.3493 -0.0776
C5 C 0.7016(8) -0.2678(6) 0.0443(6)
H4 H 0.7513 -0.3215 0.0744
C6 C 0.6617(6) -0.1703(5) 0.0943(5)
C7 C 0.6857(6) -0.1570(5) 0.1889(5)
H5 H 0.7311 -0.2129 0.2199
C8 C 0.6451(5) -0.0646(5) 0.2387(4)
C9 C 0.6666(6) -0.0536(6) 0.3364(5)
H6 H 0.7074 -0.1121 0.3678
C10 C 0.6304(7) 0.0374(7) 0.3845(5)
H7 H 0.6435 0.0416 0.4488
C11 C 0.5708(6) 0.1288(6) 0.3356(5)
H8 H 0.5490 0.1945 0.3680
C12 C 0.5459(5) 0.1210(5) 0.2433(5)
H9 H 0.5053 0.1810 0.2138
C13 C 0.5795(5) 0.0241(5) 0.1898(4)
C14 C 0.5516(5) 0.0122(5) 0.0944(4)
C15 C 0.4829(6) 0.1036(6) 0.0455(4)
H10 H 0.3959 0.0990 0.0481
C16 C 0.5267(5) 0.1871(5) 0.0008(4)
H11 H 0.6134 0.1936 -0.0035
C17 C 0.4496(5) 0.2755(4) -0.0454(3)
C18 C 0.5101(5) 0.3575(4) -0.1097(4)
C19 C 0.4347(5) 0.4356(5) -0.1578(4)
H12 H 0.3485 0.4356 -0.1482
C20 C 0.4873(6) 0.5122(5) -0.2189(4)
H13 H 0.4367 0.5647 -0.2495
C21 C 0.6153(5) 0.5115(5) -0.2351(4)
C22 C 0.6909(5) 0.4364(4) -0.1888(4)
H14 H 0.7770 0.4369 -0.1988
C23 C 0.6379(5) 0.3595(4) -0.1267(4)
H15 H 0.6894 0.3079 -0.0958
C24 C 0.7872(6) 0.5974(6) -0.3155(6)
H16 H 0.8031 0.6547 -0.3619
H17 H 0.8166 0.5253 -0.3380
H18 H 0.8302 0.6166 -0.2586
loop_
_geom_bond_atom_site_label_1
_geom_bond_atom_site_label_2
_geom_bond_site_symmetry_1
_geom_bond_site_symmetry_2
O1 C17 1_555 1_555
O2 C21 1_555 1_555
C1 C2 1_555 1_555
C2 H1 1_555 1_555
C3 C2 1_555 1_555
H2 C3 1_555 1_555
C4 C3 1_555 1_555
H3 C4 1_555 1_555
C5 C4 1_555 1_555
H4 C5 1_555 1_555
C6 C1 1_555 1_555
C7 C6 1_555 1_555
H5 C7 1_555 1_555
C8 C7 1_555 1_555
C9 C8 1_555 1_555
H6 C9 1_555 1_555
C10 C9 1_555 1_555
H7 C10 1_555 1_555
C11 C10 1_555 1_555
H8 C11 1_555 1_555
C12 C11 1_555 1_555
H9 C12 1_555 1_555
C13 C8 1_555 1_555
C14 C1 1_555 1_555
C15 C14 1_555 1_555
H10 C15 1_555 1_555
C16 C15 1_555 1_555
H11 C16 1_555 1_555
C17 C16 1_555 1_555
C18 C17 1_555 1_555
C19 C18 1_555 1_555
H12 C19 1_555 1_555
C20 C19 1_555 1_555
H13 C20 1_555 1_555
C21 C20 1_555 1_555
C22 C21 1_555 1_555
H14 C22 1_555 1_555
C23 C18 1_555 1_555
H15 C23 1_555 1_555
C24 O2 1_555 1_555
H16 C24 1_555 1_555
H17 C24 1_555 1_555
H18 C24 1_555 1_555
C5 C6 1_555 1_555
C12 C13 1_555 1_555
C13 C14 1_555 1_555
C22 C23 1_555 1_555

#END
