
#######################################################################
#
#                 Cambridge Crystallographic Data Centre
#                                CCDC 
#
#######################################################################
#
# If this CIF has been generated from an entry in the Cambridge 
# Structural Database, then it will include bibliographic, chemical, 
# crystal, experimental, refinement or atomic coordinate data resulting 
# from the CCDC's data processing and validation procedures.
#
#######################################################################

data_EMUPIL
_chemical_formula_moiety         'C23 H18 O3'
_chemical_name_systematic        "10-(2',5 '-Dimethoxybenzylidene)anthrone"
_symmetry_cell_setting           monoclinic
_symmetry_space_group_name_H-M   'P 21/c'
_symmetry_Int_Tables_number      14
_space_group_name_Hall           '-P 2ybc'
loop_
_symmetry_equiv_pos_site_id
_symmetry_equiv_pos_as_xyz
1 x,y,z
2 x,1/2-y,1/2+z
3 -x,-y,-z
4 -x,1/2+y,1/2-z
_cell_length_a                   13.046(4)
_cell_length_b                   8.937(2)
_cell_length_c                   15.549(4)
_cell_angle_alpha                90
_cell_angle_beta                 106.52(3)
_cell_angle_gamma                90
_cell_volume                     1738.06
_exptl_crystal_colour            yellow
_exptl_crystal_description       prismatic
_chemical_melting_point          148-150deg.C
_cell_formula_units_Z            4
_exptl_crystal_recrystallization_method butanol
loop_
_atom_site_label
_atom_site_type_symbol
_atom_site_fract_x
_atom_site_fract_y
_atom_site_fract_z
C1 C 0.83783(16) 0.0325(2) 0.08998(14)
H1 H 0.7884 -0.0235 0.0472
C2 C 0.91897(17) 0.1035(3) 0.06663(15)
H2 H 0.9241 0.0946 0.0084
C3 C 0.99315(17) 0.1878(3) 0.12818(19)
H3 H 1.0473 0.2372 0.1116
C4 C 0.98616(15) 0.1981(3) 0.21361(17)
H4 H 1.0362 0.2547 0.2555
C5 C 0.90306(14) 0.1339(2) 0.33328(14)
C6 C 0.85191(17) -0.0016(3) 0.45390(14)
H5 H 0.9020 0.0551 0.4957
C7 C 0.7965(2) -0.1108(3) 0.48261(15)
H6 H 0.8093 -0.1291 0.5436
C8 C 0.72127(17) -0.1943(3) 0.42096(16)
H7 H 0.6841 -0.2696 0.4405
C9 C 0.70106(15) -0.1664(2) 0.33054(14)
H8 H 0.6500 -0.2232 0.2896
C10 C 0.73687(13) -0.0237(2) 0.20280(12)
C11 C 0.90528(13) 0.1251(2) 0.23949(13)
C12 C 0.83433(14) 0.0258(2) 0.36274(13)
C13 C 0.75591(13) -0.0544(2) 0.29941(12)
C14 C 0.82783(13) 0.0426(2) 0.17679(12)
C15 C 0.64322(14) -0.0448(2) 0.13977(13)
H9 H 0.6465 -0.0340 0.0811
C16 C 0.53685(13) -0.0820(2) 0.14760(12)
C17 C 0.49511(14) -0.0174(2) 0.21110(12)
H10 H 0.5371 0.0484 0.2528
C18 C 0.39235(15) -0.0485(2) 0.21395(13)
C19 C 0.32949(15) -0.1446(3) 0.15159(15)
H11 H 0.2604 -0.1665 0.1532
C20 C 0.36896(16) -0.2080(3) 0.08712(15)
H12 H 0.3259 -0.2723 0.0450
C21 C 0.47091(14) -0.1780(2) 0.08386(13)
C22 C 0.25255(18) 0.0052(4) 0.2805(2)
H13 H 0.2066 0.0315 0.2225
H14 H 0.2382 0.0697 0.3251
H15 H 0.2395 -0.0968 0.2937
C23 C 0.45024(19) -0.3212(3) -0.04961(16)
H16 H 0.4241 -0.4077 -0.0258
H17 H 0.4910 -0.3525 -0.0890
H18 H 0.3910 -0.2611 -0.0823
O1 O 0.95956(12) 0.2221(2) 0.38632(11)
O2 O 0.36107(11) 0.02156(18) 0.28091(10)
O3 O 0.51650(11) -0.23580(19) 0.02209(9)
loop_
_geom_bond_atom_site_label_1
_geom_bond_atom_site_label_2
_geom_bond_site_symmetry_1
_geom_bond_site_symmetry_2
C1 H1 1_555 1_555
C2 C1 1_555 1_555
H2 C2 1_555 1_555
C3 C2 1_555 1_555
H3 C3 1_555 1_555
C4 C3 1_555 1_555
H4 C4 1_555 1_555
C5 C11 1_555 1_555
C6 H5 1_555 1_555
C7 C6 1_555 1_555
H6 C7 1_555 1_555
C8 C7 1_555 1_555
H7 C8 1_555 1_555
C9 C8 1_555 1_555
H8 C9 1_555 1_555
C10 C13 1_555 1_555
C11 C4 1_555 1_555
C12 C5 1_555 1_555
C13 C9 1_555 1_555
C14 C1 1_555 1_555
C15 C10 1_555 1_555
H9 C15 1_555 1_555
C16 C15 1_555 1_555
C17 C16 1_555 1_555
H10 C17 1_555 1_555
C18 C17 1_555 1_555
C19 C18 1_555 1_555
H11 C19 1_555 1_555
C20 C19 1_555 1_555
H12 C20 1_555 1_555
C21 C16 1_555 1_555
C22 H13 1_555 1_555
H14 C22 1_555 1_555
H15 C22 1_555 1_555
C23 H16 1_555 1_555
H17 C23 1_555 1_555
H18 C23 1_555 1_555
O1 C5 1_555 1_555
O2 C18 1_555 1_555
O3 C21 1_555 1_555
C6 C12 1_555 1_555
C10 C14 1_555 1_555
C11 C14 1_555 1_555
C12 C13 1_555 1_555
C20 C21 1_555 1_555
C22 O2 1_555 1_555
C23 O3 1_555 1_555

#END
