
#######################################################################
#
#                 Cambridge Crystallographic Data Centre
#                                CCDC 
#
#######################################################################
#
# If this CIF has been generated from an entry in the Cambridge 
# Structural Database, then it will include bibliographic, chemical, 
# crystal, experimental, refinement or atomic coordinate data resulting 
# from the CCDC's data processing and validation procedures.
#
#######################################################################

data_EMUQEI
_chemical_formula_moiety         'C28 H33 N2 O2 P1'
_chemical_name_systematic        
(+)(S~P~)-2,4-Dibenzyl-1,8,8-trimethyl-3-oxo-3-phenoxy-2,4,3-diazaphosphabicyclo(3.2.1)octane
_symmetry_cell_setting           orthorhombic
_symmetry_space_group_name_H-M   'P 21 21 21'
_symmetry_Int_Tables_number      19
_space_group_name_Hall           'P 2ac 2ab'
loop_
_symmetry_equiv_pos_site_id
_symmetry_equiv_pos_as_xyz
1 x,y,z
2 1/2-x,-y,1/2+z
3 -x,1/2+y,1/2-z
4 1/2+x,1/2-y,-z
_cell_length_a                   11.518(4)
_cell_length_b                   13.449(4)
_cell_length_c                   16.539(5)
_cell_angle_alpha                90
_cell_angle_beta                 90
_cell_angle_gamma                90
_cell_volume                     2561.98
_exptl_crystal_colour            colorless
_chemical_melting_point          125-126deg.C
_cell_formula_units_Z            4
_exptl_crystal_recrystallization_method 'petroleum ether/ethyl acetate'
loop_
_atom_site_label
_atom_site_type_symbol
_atom_site_fract_x
_atom_site_fract_y
_atom_site_fract_z
P1 P 0.94145(8) 0.44120(5) 0.12699(4)
N1 N 0.9996(2) 0.45879(15) 0.21639(12)
N2 N 0.8124(2) 0.48818(14) 0.13677(12)
O1 O 0.92941(17) 0.32092(11) 0.12348(9)
O2 O 1.00722(18) 0.47710(12) 0.05678(9)
C1 C 0.9274(3) 0.47086(19) 0.29171(14)
C2 C 0.8361(3) 0.5529(2) 0.27434(15)
C3 C 0.7559(3) 0.4967(2) 0.21664(15)
H1 H 0.6812 0.5311 0.2117
C4 C 0.8524(3) 0.3771(2) 0.30548(14)
H2 H 0.8355 0.3685 0.3625
H3 H 0.8922 0.3183 0.2859
C5 C 0.7394(3) 0.3951(2) 0.25711(16)
H4 H 0.7284 0.3435 0.2168
H5 H 0.6727 0.3959 0.2928
C6 C 1.0070(3) 0.4944(2) 0.36381(16)
H6 H 1.0561 0.4383 0.3745
H7 H 0.9605 0.5083 0.4106
H8 H 1.0540 0.5513 0.3513
C7 C 0.7655(3) 0.5798(2) 0.35158(15)
H9 H 0.7025 0.6230 0.3373
H10 H 0.8153 0.6128 0.3896
H11 H 0.7353 0.5201 0.3755
C8 C 0.8858(3) 0.6497(2) 0.24041(18)
H12 H 0.9306 0.6355 0.1928
H13 H 0.9346 0.6804 0.2803
H14 H 0.8233 0.6939 0.2268
C9 C 1.1155(3) 0.4136(2) 0.22441(16)
H15 H 1.1320 0.3763 0.1755
H16 H 1.1134 0.3665 0.2688
C10 C 1.2146(3) 0.4856(2) 0.23896(18)
C11 C 1.2230(3) 0.5728(2) 0.19420(17)
H17 H 1.1653 0.5889 0.1572
C12 C 1.3168(4) 0.6355(3) 0.2045(2)
H18 H 1.3213 0.6940 0.1746
C13 C 1.4025(4) 0.6128(4) 0.2577(3)
H19 H 1.4665 0.6545 0.2629
C14 C 1.3945(4) 0.5281(4) 0.3039(2)
H20 H 1.4513 0.5138 0.3421
C15 C 1.3011(4) 0.4637(3) 0.2932(2)
H21 H 1.2973 0.4052 0.3231
C16 C 0.7371(3) 0.4984(2) 0.06538(16)
H22 H 0.6693 0.4564 0.0720
H23 H 0.7788 0.4757 0.0179
C17 C 0.6987(3) 0.6044(2) 0.05267(16)
C18 C 0.7782(3) 0.6760(3) 0.02936(17)
H24 H 0.8556 0.6585 0.0220
C19 C 0.7435(4) 0.7734(3) 0.01684(18)
H25 H 0.7981 0.8206 0.0014
C20 C 0.6308(5) 0.8010(3) 0.0268(2)
H26 H 0.6069 0.8658 0.0162
C21 C 0.5542(4) 0.7311(4) 0.0527(2)
H27 H 0.4776 0.7494 0.0627
C22 C 0.5872(4) 0.6342(3) 0.06439(19)
H28 H 0.5321 0.5878 0.0807
C23 C 0.9117(3) 0.26350(18) 0.05420(16)
C24 C 0.8206(3) 0.1978(2) 0.05496(19)
H29 H 0.7692 0.1966 0.0983
C25 C 0.8059(3) 0.1331(3) -0.0099(2)
H30 H 0.7444 0.0884 -0.0100
C26 C 0.8820(4) 0.1353(3) -0.0733(2)
H31 H 0.8721 0.0917 -0.1165
C27 C 0.9718(4) 0.2008(3) -0.07362(19)
H32 H 1.0230 0.2023 -0.1171
C28 C 0.9875(3) 0.2658(2) -0.00873(18)
H33 H 1.0494 0.3102 -0.0086
loop_
_geom_bond_atom_site_label_1
_geom_bond_atom_site_label_2
_geom_bond_site_symmetry_1
_geom_bond_site_symmetry_2
P1 N1 1_555 1_555
N1 C1 1_555 1_555
N2 P1 1_555 1_555
O1 P1 1_555 1_555
O2 P1 1_555 1_555
C1 C2 1_555 1_555
C2 C3 1_555 1_555
C3 N2 1_555 1_555
H1 C3 1_555 1_555
C4 C1 1_555 1_555
H2 C4 1_555 1_555
H3 C4 1_555 1_555
C5 C3 1_555 1_555
H4 C5 1_555 1_555
H5 C5 1_555 1_555
C6 C1 1_555 1_555
H6 C6 1_555 1_555
H7 C6 1_555 1_555
H8 C6 1_555 1_555
C7 C2 1_555 1_555
H9 C7 1_555 1_555
H10 C7 1_555 1_555
H11 C7 1_555 1_555
C8 C2 1_555 1_555
H12 C8 1_555 1_555
H13 C8 1_555 1_555
H14 C8 1_555 1_555
C9 N1 1_555 1_555
H15 C9 1_555 1_555
H16 C9 1_555 1_555
C10 C9 1_555 1_555
C11 C10 1_555 1_555
H17 C11 1_555 1_555
C12 C11 1_555 1_555
H18 C12 1_555 1_555
C13 C12 1_555 1_555
H19 C13 1_555 1_555
C14 C13 1_555 1_555
H20 C14 1_555 1_555
C15 C10 1_555 1_555
H21 C15 1_555 1_555
C16 N2 1_555 1_555
H22 C16 1_555 1_555
H23 C16 1_555 1_555
C17 C16 1_555 1_555
C18 C17 1_555 1_555
H24 C18 1_555 1_555
C19 C18 1_555 1_555
H25 C19 1_555 1_555
C20 C19 1_555 1_555
H26 C20 1_555 1_555
C21 C20 1_555 1_555
H27 C21 1_555 1_555
C22 C17 1_555 1_555
H28 C22 1_555 1_555
C23 O1 1_555 1_555
C24 C23 1_555 1_555
H29 C24 1_555 1_555
C25 C24 1_555 1_555
H30 C25 1_555 1_555
C26 C25 1_555 1_555
H31 C26 1_555 1_555
C27 C26 1_555 1_555
H32 C27 1_555 1_555
C28 C23 1_555 1_555
H33 C28 1_555 1_555
C4 C5 1_555 1_555
C14 C15 1_555 1_555
C21 C22 1_555 1_555
C27 C28 1_555 1_555

#END
