
#######################################################################
#
#                 Cambridge Crystallographic Data Centre
#                                CCDC 
#
#######################################################################
#
# If this CIF has been generated from an entry in the Cambridge 
# Structural Database, then it will include bibliographic, chemical, 
# crystal, experimental, refinement or atomic coordinate data resulting 
# from the CCDC's data processing and validation procedures.
#
#######################################################################

data_EMURUB
_chemical_formula_moiety         'C15 H15 Cl1 O2'
_chemical_name_systematic        
6-chloro-10b-methyl-6a,7a,9,10,10a,10b-hexahydrofuro[2,3-b]naphtho[1,2-d]furan
_symmetry_cell_setting           orthorhombic
_symmetry_space_group_name_H-M   'P 21 21 21'
_symmetry_Int_Tables_number      19
_space_group_name_Hall           'P 2ac 2ab'
loop_
_symmetry_equiv_pos_site_id
_symmetry_equiv_pos_as_xyz
1 x,y,z
2 1/2-x,-y,1/2+z
3 1/2+x,1/2-y,-z
4 -x,1/2+y,1/2-z
_cell_length_a                   7.0128(4)
_cell_length_b                   10.7833(4)
_cell_length_c                   17.0391(9)
_cell_angle_alpha                90
_cell_angle_beta                 90
_cell_angle_gamma                90
_cell_volume                     1288.52
_exptl_crystal_colour            colorless
_exptl_crystal_description       block
_cell_formula_units_Z            4
loop_
_atom_site_label
_atom_site_type_symbol
_atom_site_fract_x
_atom_site_fract_y
_atom_site_fract_z
Cl1 Cl 0.2664(2) 0.86124(9) 0.09388(7)
O1 O 0.3669(4) 0.7097(2) 0.23757(17)
O2 O 0.6846(5) 0.6636(3) 0.21077(19)
C1 C 0.2325(6) 0.7028(3) 0.1058(2)
C2 C 0.2199(6) 0.6589(3) 0.1885(2)
H1 H 0.0960 0.6842 0.2098
C3 C 0.2392(6) 0.5161(3) 0.19799(18)
C4 C 0.1699(5) 0.4431(3) 0.1274(2)
C5 C 0.1257(6) 0.3169(3) 0.1332(3)
H2 H 0.1321 0.2778 0.1818
C6 C 0.0724(7) 0.2495(4) 0.0676(3)
H3 H 0.0426 0.1659 0.0729
C7 C 0.0631(7) 0.3037(4) -0.0042(3)
H4 H 0.0272 0.2576 -0.0478
C8 C 0.1071(6) 0.4275(4) -0.0118(2)
H5 H 0.1014 0.4646 -0.0610
C9 C 0.1605(5) 0.4983(3) 0.0534(2)
C10 C 0.2040(6) 0.6301(3) 0.0443(2)
H6 H 0.2120 0.6637 -0.0059
C11 C 0.4564(6) 0.5008(3) 0.2116(2)
H7 H 0.4792 0.4332 0.2489
C12 C 0.5192(6) 0.6246(4) 0.2482(3)
H8 H 0.5440 0.6133 0.3044
C13 C 0.6838(7) 0.6126(4) 0.1340(3)
H9 H 0.8129 0.6042 0.1142
H10 H 0.6120 0.6650 0.0984
C14 C 0.5908(6) 0.4877(4) 0.1418(3)
H11 H 0.6853 0.4238 0.1515
H12 H 0.5206 0.4668 0.0945
C15 C 0.1314(7) 0.4794(4) 0.2731(2)
H13 H -0.0033 0.4875 0.2645
H14 H 0.1695 0.5328 0.3153
H15 H 0.1608 0.3950 0.2862
loop_
_geom_bond_atom_site_label_1
_geom_bond_atom_site_label_2
_geom_bond_site_symmetry_1
_geom_bond_site_symmetry_2
Cl1 C1 1_555 1_555
O1 C2 1_555 1_555
O2 C12 1_555 1_555
C1 C2 1_555 1_555
C2 H1 1_555 1_555
C3 C2 1_555 1_555
C4 C3 1_555 1_555
C5 C4 1_555 1_555
H2 C5 1_555 1_555
C6 C5 1_555 1_555
H3 C6 1_555 1_555
C7 C6 1_555 1_555
H4 C7 1_555 1_555
C8 C7 1_555 1_555
H5 C8 1_555 1_555
C9 C4 1_555 1_555
C10 C1 1_555 1_555
H6 C10 1_555 1_555
C11 C3 1_555 1_555
H7 C11 1_555 1_555
C12 O1 1_555 1_555
H8 C12 1_555 1_555
C13 O2 1_555 1_555
H9 C13 1_555 1_555
H10 C13 1_555 1_555
C14 C11 1_555 1_555
H11 C14 1_555 1_555
H12 C14 1_555 1_555
C15 C3 1_555 1_555
H13 C15 1_555 1_555
H14 C15 1_555 1_555
H15 C15 1_555 1_555
C8 C9 1_555 1_555
C9 C10 1_555 1_555
C11 C12 1_555 1_555
C13 C14 1_555 1_555

#END
