
#######################################################################
#
#                 Cambridge Crystallographic Data Centre
#                                CCDC 
#
#######################################################################
#
# If this CIF has been generated from an entry in the Cambridge 
# Structural Database, then it will include bibliographic, chemical, 
# crystal, experimental, refinement or atomic coordinate data resulting 
# from the CCDC's data processing and validation procedures.
#
#######################################################################

data_EMUROV
_chemical_formula_moiety         'C17 H15 Cl1 O5'
_chemical_name_systematic        
'dimethyl 2-(3-chloro-1-methyl-2-oxo-1,2-dihydronaphthalen-1-yl)but-2-enedioate'
_symmetry_cell_setting           monoclinic
_symmetry_space_group_name_H-M   'P 21'
_symmetry_Int_Tables_number      4
_space_group_name_Hall           'P 2yb'
loop_
_symmetry_equiv_pos_site_id
_symmetry_equiv_pos_as_xyz
1 x,y,z
2 -x,1/2+y,-z
_cell_length_a                   6.6763(5)
_cell_length_b                   14.5486(9)
_cell_length_c                   9.0015(7)
_cell_angle_alpha                90
_cell_angle_beta                 110.546(10)
_cell_angle_gamma                90
_cell_volume                     818.708
_exptl_crystal_colour            colorless
_exptl_crystal_description       block
_cell_formula_units_Z            2
loop_
_atom_site_label
_atom_site_type_symbol
_atom_site_fract_x
_atom_site_fract_y
_atom_site_fract_z
Cl1 Cl -0.82524(18) -0.20666(11) -0.61153(12)
O1 O -0.6280(5) -0.0998(2) -0.7994(4)
O2 O -1.0623(4) -0.1345(2) -1.1272(3)
O3 O -1.0078(4) -0.1417(3) -1.3578(3)
O4 O -0.8394(6) 0.0418(3) -1.2968(4)
O5 O -0.5427(5) 0.0246(2) -1.3513(4)
C1 C -0.6818(6) -0.1762(3) -0.8547(5)
C2 C -0.7895(6) -0.2410(3) -0.7853(5)
C3 C -0.8599(7) -0.3215(3) -0.8496(5)
H1 H -0.9286 -0.3594 -0.7993
C4 C -0.8357(6) -0.3539(3) -0.9952(5)
C5 C -0.9250(9) -0.4375(3) -1.0625(7)
H2 H -1.0007 -0.4730 -1.0142
C6 C -0.9011(9) -0.4675(4) -1.1999(7)
H3 H -0.9598 -0.5235 -1.2440
C7 C -0.7906(10) -0.4151(4) -1.2726(7)
H4 H -0.7759 -0.4358 -1.3660
C8 C -0.7012(8) -0.3320(3) -1.2081(6)
H5 H -0.6261 -0.2974 -1.2580
C9 C -0.7229(6) -0.2998(3) -1.0689(5)
C10 C -0.6265(5) -0.2087(3) -0.9997(4)
C11 C -0.3789(5) -0.2179(4) -0.9346(5)
H6 H -0.3163 -0.1613 -0.8849
H7 H -0.3296 -0.2313 -1.0204
H8 H -0.3378 -0.2668 -0.8582
C12 C -0.7057(5) -0.1344(3) -1.1249(4)
C13 C -0.5851(6) -0.0721(3) -1.1622(5)
H9 H -0.4374 -0.0768 -1.1145
C14 C -0.6721(7) 0.0036(3) -1.2746(5)
C15 C -0.6146(9) 0.0954(4) -1.4715(6)
H10 H -0.6868 0.0675 -1.5729
H11 H -0.4936 0.1296 -1.4754
H12 H -0.7111 0.1360 -1.4460
C16 C -0.9438(5) -0.1350(3) -1.2020(4)
C17 C -1.2371(7) -0.1410(5) -1.4434(5)
H13 H -1.2659 -0.1612 -1.5505
H14 H -1.2911 -0.0798 -1.4442
H15 H -1.3058 -0.1816 -1.3921
loop_
_geom_bond_atom_site_label_1
_geom_bond_atom_site_label_2
_geom_bond_site_symmetry_1
_geom_bond_site_symmetry_2
Cl1 C2 1_555 1_555
O1 C1 1_555 1_555
O2 C16 1_555 1_555
O3 C16 1_555 1_555
O4 C14 1_555 1_555
O5 C14 1_555 1_555
C1 C2 1_555 1_555
C2 C3 1_555 1_555
C3 H1 1_555 1_555
C4 C3 1_555 1_555
C5 C4 1_555 1_555
H2 C5 1_555 1_555
C6 C5 1_555 1_555
H3 C6 1_555 1_555
C7 C6 1_555 1_555
H4 C7 1_555 1_555
C8 C7 1_555 1_555
H5 C8 1_555 1_555
C9 C4 1_555 1_555
C10 C1 1_555 1_555
C11 C10 1_555 1_555
H6 C11 1_555 1_555
H7 C11 1_555 1_555
H8 C11 1_555 1_555
C12 C10 1_555 1_555
C13 C12 1_555 1_555
H9 C13 1_555 1_555
C14 C13 1_555 1_555
C15 O5 1_555 1_555
H10 C15 1_555 1_555
H11 C15 1_555 1_555
H12 C15 1_555 1_555
C16 C12 1_555 1_555
C17 O3 1_555 1_555
H13 C17 1_555 1_555
H14 C17 1_555 1_555
H15 C17 1_555 1_555
C8 C9 1_555 1_555
C9 C10 1_555 1_555

#END
