
#######################################################################
#
#                 Cambridge Crystallographic Data Centre
#                                CCDC 
#
#######################################################################
#
# If this CIF has been generated from an entry in the Cambridge 
# Structural Database, then it will include bibliographic, chemical, 
# crystal, experimental, refinement or atomic coordinate data resulting 
# from the CCDC's data processing and validation procedures.
#
#######################################################################

data_EMUXAM
_chemical_name_common            
'2-(Acetoxymethyl)-6-(((4-chlorophenyl)(5-oxo-2,5-dihydrofuran-2-yl)methyl)amino)tetrahydro-2H-pyran-3,4,5-triyl triacetate'
_chemical_formula_moiety         'C37 H52 Cl1 N1 O11'
_chemical_name_systematic        
(S)-5-((R)-(2,3,4,6-tetra-O-pivaloyl-\b-D-galactopyranosyl)amino(4-chlorophenyl)methyl)-5H-furan-2-one
_symmetry_cell_setting           monoclinic
_symmetry_space_group_name_H-M   'P 21'
_symmetry_Int_Tables_number      4
_space_group_name_Hall           'P 2yb'
loop_
_symmetry_equiv_pos_site_id
_symmetry_equiv_pos_as_xyz
1 x,y,z
2 -x,1/2+y,-z
_cell_length_a                   9.772(2)
_cell_length_b                   17.250(4)
_cell_length_c                   11.937(2)
_cell_angle_alpha                90
_cell_angle_beta                 97.60(3)
_cell_angle_gamma                90
_cell_volume                     1994.51
_exptl_crystal_colour            colorless
_chemical_melting_point          96-98deg.C
_cell_formula_units_Z            2
loop_
_atom_site_label
_atom_site_type_symbol
_atom_site_fract_x
_atom_site_fract_y
_atom_site_fract_z
Cl1 Cl 1.12690(12) 0.64764(6) 1.23141(10)
O1 O 0.55396(19) 0.64675(12) 1.00989(17)
O2 O 0.5812(2) 0.57776(14) 1.23024(19)
O3 O 0.7988(3) 0.54433(19) 1.2902(2)
O4 O 0.5695(2) 0.50522(11) 0.89083(17)
O5 O 0.5057(3) 0.38050(13) 0.8909(2)
O6 O 0.33738(19) 0.53321(12) 0.73964(17)
O7 O 0.1064(4) 0.5491(5) 0.7242(5)
O9 O 0.3297(2) 0.69746(12) 0.75106(19)
O10 O 0.4918(2) 0.73877(13) 0.64665(19)
O11 O 0.6974(2) 0.90212(12) 0.89997(19)
O12 O 0.8399(3) 0.99724(15) 0.9691(3)
N1 N 0.5388(2) 0.76678(13) 0.9137(2)
H1 H 0.5005 0.8118 0.9250
C1 C 0.4833(3) 0.57818(17) 1.0375(3)
H2 H 0.3980 0.5929 1.0705
C2 C 0.4443(3) 0.52828(18) 0.9339(3)
H3 H 0.3920 0.4815 0.9537
C3 C 0.3571(3) 0.57589(17) 0.8447(2)
H4 H 0.2656 0.5875 0.8697
C4 C 0.4300(3) 0.65119(16) 0.8215(2)
H5 H 0.5131 0.6410 0.7831
C5 C 0.4687(3) 0.69594(17) 0.9320(3)
H6 H 0.3823 0.7085 0.9648
C6 C 0.5823(4) 0.5362(2) 1.1264(3)
H7 H 0.5518 0.4820 1.1349
H8 H 0.6765 0.5355 1.1045
C7 C 0.6969(3) 0.58032(19) 1.3040(3)
C8 C 0.6770(3) 0.6289(2) 1.4058(3)
C9 C 0.8114(12) 0.6231(11) 1.4905(12)
H9 H 0.8439 0.5693 1.4945
H10 H 0.7929 0.6398 1.5655
H11 H 0.8824 0.6565 1.4651
C10 C 0.5670(16) 0.5880(10) 1.4650(14)
H12 H 0.6047 0.5394 1.4985
H13 H 0.4860 0.5768 1.4097
H14 H 0.5400 0.6216 1.5245
C11 C 0.642(2) 0.7118(6) 1.3790(17)
H15 H 0.7274 0.7423 1.3840
H16 H 0.5838 0.7319 1.4330
H17 H 0.5926 0.7155 1.3023
C15 C 0.5893(3) 0.42941(17) 0.8753(3)
C16 C 0.7299(3) 0.41374(19) 0.8393(3)
C17 C 0.8423(8) 0.4254(8) 0.9394(7)
H27 H 0.8858 0.4761 0.9332
H28 H 0.9120 0.3845 0.9393
H29 H 0.8013 0.4230 1.0099
C18 C 0.7230(17) 0.3307(5) 0.7933(11)
H30 H 0.6765 0.3307 0.7154
H31 H 0.6714 0.2981 0.8403
H32 H 0.8168 0.3102 0.7948
C19 C 0.7549(9) 0.4720(4) 0.7463(7)
H33 H 0.6743 0.4729 0.6880
H34 H 0.8367 0.4564 0.7125
H35 H 0.7696 0.5238 0.7795
C23 C 0.2117(4) 0.5122(3) 0.6953(4)
C24 C 0.2094(4) 0.4668(2) 0.5874(3)
C25 C 0.3435(5) 0.4209(3) 0.5806(4)
H45 H 0.4119 0.4549 0.5526
H46 H 0.3239 0.3770 0.5289
H47 H 0.3800 0.4017 0.6559
C26 C 0.0883(6) 0.4107(4) 0.5705(6)
H48 H 0.0225 0.4275 0.5060
H49 H 0.0425 0.4097 0.6387
H50 H 0.1221 0.3586 0.5560
C27 C 0.2009(6) 0.5275(3) 0.4918(4)
H51 H 0.2739 0.5662 0.5098
H52 H 0.1106 0.5530 0.4843
H53 H 0.2128 0.5017 0.4206
C31 C 0.3769(3) 0.74245(18) 0.6715(3)
C32 C 0.2643(3) 0.79653(19) 0.6161(3)
C33 C 0.1776(8) 0.7505(4) 0.5257(7)
H63 H 0.2210 0.7513 0.4563
H64 H 0.0852 0.7735 0.5110
H65 H 0.1702 0.6969 0.5512
C34 C 0.3344(6) 0.8641(4) 0.5597(6)
H66 H 0.4214 0.8776 0.6061
H67 H 0.2731 0.9093 0.5528
H68 H 0.3530 0.8481 0.4844
C35 C 0.1838(10) 0.8318(6) 0.7044(7)
H69 H 0.2398 0.8721 0.7465
H70 H 0.1617 0.7913 0.7567
H71 H 0.0981 0.8548 0.6669
C39 C 0.6756(3) 0.76314(17) 0.8757(3)
H81 H 0.6696 0.7227 0.8152
C40 C 0.7924(3) 0.73866(17) 0.9658(3)
C41 C 0.8875(4) 0.6838(2) 0.9397(3)
H82 H 0.8810 0.6646 0.8646
C42 C 0.9913(4) 0.6562(2) 1.0198(4)
H83 H 1.0545 0.6183 1.0003
C43 C 1.0014(4) 0.6845(2) 1.1277(3)
C44 C 0.9108(4) 0.7410(2) 1.1563(3)
H84 H 0.9198 0.7614 1.2308
C45 C 0.8077(3) 0.7671(2) 1.0752(3)
H85 H 0.7454 0.8055 1.0949
C46 C 0.6994(3) 0.84042(19) 0.8185(3)
H86 H 0.6231 0.8490 0.7552
C47 C 0.8338(3) 0.8508(2) 0.7752(3)
H87 H 0.8673 0.8182 0.7207
C48 C 0.9006(3) 0.9114(2) 0.8229(3)
H88 H 0.9869 0.9305 0.8064
C49 C 0.8188(3) 0.94381(19) 0.9051(3)
O8? O 0.1382(12) 0.4862(10) 0.7664(10)
C12? C 0.8149(12) 0.6607(12) 1.4639(13)
H18? H 0.8765 0.6175 1.4889
H19? H 0.7987 0.6921 1.5293
H20? H 0.8576 0.6930 1.4104
C13? C 0.6048(19) 0.5803(11) 1.4861(15)
H21? H 0.6629 0.5357 1.5119
H22? H 0.5163 0.5619 1.4470
H23? H 0.5886 0.6118 1.5514
C14? C 0.5880(17) 0.7002(6) 1.3661(10)
H24? H 0.5097 0.6838 1.3114
H25? H 0.6441 0.7376 1.3305
H26? H 0.5537 0.7244 1.4313
C20? C 0.8119(17) 0.3852(12) 0.9536(9)
H36? H 0.7573 0.3462 0.9877
H37? H 0.8300 0.4292 1.0053
H38? H 0.8998 0.3623 0.9393
C21? C 0.732(3) 0.3430(9) 0.7629(16)
H39? H 0.6824 0.3550 0.6880
H40? H 0.6861 0.2995 0.7957
H41? H 0.8273 0.3290 0.7560
C22? C 0.799(2) 0.4819(8) 0.792(2)
H42? H 0.7440 0.4985 0.7212
H43? H 0.8914 0.4670 0.7771
H44? H 0.8054 0.5246 0.8464
C28? C 0.328(2) 0.490(2) 0.525(2)
H54? H 0.3258 0.5464 0.5123
H55? H 0.3201 0.4634 0.4519
H56? H 0.4159 0.4761 0.5700
C29? C 0.161(3) 0.3910(10) 0.643(2)
H57? H 0.2389 0.3690 0.6937
H58? H 0.1293 0.3533 0.5841
H59? H 0.0858 0.4033 0.6867
C30? C 0.0657(19) 0.4872(19) 0.519(2)
H60? H 0.0730 0.5357 0.4778
H61? H -0.0027 0.4934 0.5719
H62? H 0.0367 0.4454 0.4660
C36? C 0.1301(13) 0.7474(9) 0.5891(18)
H72? H 0.1258 0.7090 0.6490
H73? H 0.1308 0.7208 0.5167
H74? H 0.0494 0.7815 0.5848
C37? C 0.297(2) 0.8252(15) 0.5041(14)
H75? H 0.3807 0.8568 0.5154
H76? H 0.2196 0.8568 0.4682
H77? H 0.3106 0.7809 0.4555
C38? C 0.234(3) 0.8487(15) 0.7141(18)
H78? H 0.3132 0.8826 0.7367
H79? H 0.2167 0.8165 0.7783
H80? H 0.1521 0.8804 0.6896
loop_
_geom_bond_atom_site_label_1
_geom_bond_atom_site_label_2
_geom_bond_site_symmetry_1
_geom_bond_site_symmetry_2
Cl1 C43 1_555 1_555
O1 C1 1_555 1_555
O2 C6 1_555 1_555
O3 C7 1_555 1_555
O4 C2 1_555 1_555
O5 C15 1_555 1_555
O6 C3 1_555 1_555
O7 C23 1_555 1_555
O9 C4 1_555 1_555
O10 C31 1_555 1_555
O11 C46 1_555 1_555
O12 C49 1_555 1_555
N1 H1 1_555 1_555
C1 H2 1_555 1_555
C2 C1 1_555 1_555
H3 C2 1_555 1_555
C3 C2 1_555 1_555
H4 C3 1_555 1_555
C4 C3 1_555 1_555
H5 C4 1_555 1_555
C5 O1 1_555 1_555
H6 C5 1_555 1_555
C6 C1 1_555 1_555
H7 C6 1_555 1_555
H8 C6 1_555 1_555
C7 O2 1_555 1_555
C8 C7 1_555 1_555
C9 C8 1_555 1_555
H9 C9 1_555 1_555
H10 C9 1_555 1_555
H11 C9 1_555 1_555
C10 C8 1_555 1_555
H12 C10 1_555 1_555
H13 C10 1_555 1_555
H14 C10 1_555 1_555
C11 C8 1_555 1_555
H15 C11 1_555 1_555
H16 C11 1_555 1_555
H17 C11 1_555 1_555
C15 O4 1_555 1_555
C16 C15 1_555 1_555
C17 C16 1_555 1_555
H27 C17 1_555 1_555
H28 C17 1_555 1_555
H29 C17 1_555 1_555
C18 C16 1_555 1_555
H30 C18 1_555 1_555
H31 C18 1_555 1_555
H32 C18 1_555 1_555
C19 C16 1_555 1_555
H33 C19 1_555 1_555
H34 C19 1_555 1_555
H35 C19 1_555 1_555
C23 O6 1_555 1_555
C24 C23 1_555 1_555
C25 C24 1_555 1_555
H45 C25 1_555 1_555
H46 C25 1_555 1_555
H47 C25 1_555 1_555
C26 C24 1_555 1_555
H48 C26 1_555 1_555
H49 C26 1_555 1_555
H50 C26 1_555 1_555
C27 C24 1_555 1_555
H51 C27 1_555 1_555
H52 C27 1_555 1_555
H53 C27 1_555 1_555
C31 O9 1_555 1_555
C32 C31 1_555 1_555
C33 C32 1_555 1_555
H63 C33 1_555 1_555
H64 C33 1_555 1_555
H65 C33 1_555 1_555
C34 C32 1_555 1_555
H66 C34 1_555 1_555
H67 C34 1_555 1_555
H68 C34 1_555 1_555
C35 C32 1_555 1_555
H69 C35 1_555 1_555
H70 C35 1_555 1_555
H71 C35 1_555 1_555
C39 N1 1_555 1_555
H81 C39 1_555 1_555
C40 C39 1_555 1_555
C41 C40 1_555 1_555
H82 C41 1_555 1_555
C42 C41 1_555 1_555
H83 C42 1_555 1_555
C43 C42 1_555 1_555
C44 C43 1_555 1_555
H84 C44 1_555 1_555
C45 C40 1_555 1_555
H85 C45 1_555 1_555
C46 C39 1_555 1_555
H86 C46 1_555 1_555
C47 C46 1_555 1_555
H87 C47 1_555 1_555
C48 C47 1_555 1_555
H88 C48 1_555 1_555
C49 O11 1_555 1_555
N1 C5 1_555 1_555
C4 C5 1_555 1_555
C44 C45 1_555 1_555
C48 C49 1_555 1_555

#END
