
#######################################################################
#
#                 Cambridge Crystallographic Data Centre
#                                CCDC 
#
#######################################################################
#
# If this CIF has been generated from an entry in the Cambridge 
# Structural Database, then it will include bibliographic, chemical, 
# crystal, experimental, refinement or atomic coordinate data resulting 
# from the CCDC's data processing and validation procedures.
#
#######################################################################

data_EMUYUI
_chemical_formula_moiety         'C33 H28 B1 F2 N3 O4,C1 H2 Cl2,2(H2 O1)'
_chemical_name_systematic        
"ethyl 2-cyano-3-(17,17-difluoro-3,13-dimethoxy-5,10,11,17-tetrahydro-6H-18,17-benzo[g]benzo[6',7']indolo[1',2':3,4][1,3,2]diazaborinino[1,6-a]indol-8-yl)acrylate dichloromethane solvate dihydrate"
_symmetry_cell_setting           triclinic
_symmetry_space_group_name_H-M   'P -1'
_symmetry_Int_Tables_number      2
_space_group_name_Hall           '-P 1'
loop_
_symmetry_equiv_pos_site_id
_symmetry_equiv_pos_as_xyz
1 x,y,z
2 -x,-y,-z
_cell_length_a                   8.020(3)
_cell_length_b                   14.330(6)
_cell_length_c                   16.578(7)
_cell_angle_alpha                112.088(7)
_cell_angle_beta                 101.887(7)
_cell_angle_gamma                90.329(8)
_cell_volume                     1720.28
_exptl_crystal_colour            coppery
_exptl_crystal_description       block
_cell_formula_units_Z            2
loop_
_atom_site_label
_atom_site_type_symbol
_atom_site_fract_x
_atom_site_fract_y
_atom_site_fract_z
Cl1 Cl 0.3453(5) 0.3096(2) 0.77832(19)
Cl2 Cl 0.4792(10) 0.2401(6) 0.9196(5)
C1 C 0.3424(19) 0.1960(10) 0.8220(9)
F1 F 0.2994(2) -0.06456(13) 0.27919(12)
F2 F 0.0107(2) -0.07203(14) 0.26121(12)
O1 O 0.1108(4) 0.45540(19) 0.66363(18)
O2 O -0.1045(4) 0.49969(18) 0.5805(2)
O3 O 0.3896(4) -0.46094(17) 0.32406(18)
O4 O 0.2365(4) -0.1269(2) -0.11779(17)
N1 N -0.2320(4) 0.3126(3) 0.3761(2)
N2 N 0.1841(3) 0.00485(17) 0.40969(16)
N3 N 0.1649(3) 0.08931(17) 0.30024(16)
C3 C 0.2617(11) 0.5673(6) 0.8057(4)
H1 H 0.2691 0.5145 0.8283
H2 H 0.2628 0.6312 0.8537
H3 H 0.3574 0.5685 0.7795
C4 C 0.1056(8) 0.5487(3) 0.7391(3)
H4 H 0.0926 0.6046 0.7195
H5 H 0.0086 0.5429 0.7641
C5 C -0.0026(5) 0.4413(2) 0.5899(3)
C6 C 0.0063(4) 0.3438(2) 0.5156(2)
C7 C -0.1228(5) 0.3258(2) 0.4372(3)
C8 C 0.1200(4) 0.2776(2) 0.5232(2)
H6 H 0.1923 0.2937 0.5791
C9 C 0.1420(4) 0.1829(2) 0.4527(2)
C10 C 0.1678(4) 0.0977(2) 0.4744(2)
C11 C 0.1968(4) 0.0896(2) 0.5574(2)
H7 H 0.1897 0.1405 0.6113
C12 C 0.2377(4) -0.0072(2) 0.5451(2)
C13 C 0.2262(4) -0.0595(2) 0.4526(2)
C14 C 0.2913(4) -0.0580(2) 0.6081(2)
H8 H 0.1929 -0.0942 0.6123
H9 H 0.3428 -0.0084 0.6672
C15 C 0.4210(4) -0.1317(2) 0.5731(2)
H10 H 0.5268 -0.0936 0.5799
H11 H 0.4454 -0.1723 0.6089
C16 C 0.3597(4) -0.2000(2) 0.4778(2)
C17 C 0.2607(4) -0.1644(2) 0.4167(2)
C18 C 0.4039(4) -0.2992(2) 0.4480(2)
H12 H 0.4707 -0.3225 0.4882
C19 C 0.3497(5) -0.3633(2) 0.3595(2)
C20 C 0.2448(5) -0.3298(3) 0.3002(2)
H13 H 0.2034 -0.3738 0.2412
C21 C 0.2021(5) -0.2324(2) 0.3283(2)
H14 H 0.1325 -0.2108 0.2877
C22 C 0.4880(6) -0.5002(3) 0.3845(3)
H15 H 0.5969 -0.4611 0.4117
H16 H 0.5052 -0.5694 0.3524
H17 H 0.4279 -0.4964 0.4299
C23 C 0.1494(4) 0.1798(2) 0.3688(2)
C24 C 0.1658(4) 0.2597(2) 0.3397(2)
H18 H 0.1601 0.3280 0.3724
C25 C 0.1912(4) 0.2189(2) 0.2555(2)
C26 C 0.2131(5) 0.2656(3) 0.1913(2)
H19 H 0.2625 0.3350 0.2237
H20 H 0.1028 0.2658 0.1541
C27 C 0.3297(6) 0.2053(3) 0.1337(3)
H21 H 0.4451 0.2154 0.1697
H22 H 0.3319 0.2295 0.0865
C28 C 0.2700(4) 0.0934(3) 0.0926(2)
C29 C 0.2065(4) 0.0465(2) 0.1421(2)
C30 C 0.1897(4) 0.1125(2) 0.2310(2)
C31 C 0.2823(5) 0.0367(3) 0.0056(2)
H23 H 0.3247 0.0678 -0.0271
C32 C 0.2322(5) -0.0655(3) -0.0326(2)
C33 C 0.1710(5) -0.1119(3) 0.0167(2)
H24 H 0.1388 -0.1810 -0.0088
C34 C 0.1573(5) -0.0577(3) 0.1018(2)
H25 H 0.1149 -0.0901 0.1336
C35 C 0.2732(6) -0.0803(4) -0.1753(3)
H26 H 0.1916 -0.0324 -0.1787
H27 H 0.2665 -0.1310 -0.2338
H28 H 0.3863 -0.0460 -0.1520
B1 B 0.1639(4) -0.0152(2) 0.3095(2)
O5 O 0.2365(15) 0.4413(5) 0.0861(5)
O6 O 0.0111(19) 0.3275(9) 0.9388(11)
C2? C 0.455(3) 0.2305(14) 0.8041(13)
loop_
_geom_bond_atom_site_label_1
_geom_bond_atom_site_label_2
_geom_bond_site_symmetry_1
_geom_bond_site_symmetry_2
Cl1 C1 1_555 1_555
Cl2 C1 1_555 1_555
F1 B1 1_555 1_555
F2 B1 1_555 1_555
O1 C4 1_555 1_555
O2 C5 1_555 1_555
O3 C19 1_555 1_555
O4 C32 1_555 1_555
N1 C7 1_555 1_555
N2 C10 1_555 1_555
N3 C23 1_555 1_555
C3 H1 1_555 1_555
H2 C3 1_555 1_555
H3 C3 1_555 1_555
C4 C3 1_555 1_555
H4 C4 1_555 1_555
H5 C4 1_555 1_555
C5 O1 1_555 1_555
C6 C5 1_555 1_555
C7 C6 1_555 1_555
C8 C6 1_555 1_555
H6 C8 1_555 1_555
C9 C8 1_555 1_555
C10 C9 1_555 1_555
C11 C10 1_555 1_555
H7 C11 1_555 1_555
C12 C11 1_555 1_555
C13 N2 1_555 1_555
C14 C12 1_555 1_555
H8 C14 1_555 1_555
H9 C14 1_555 1_555
C15 C14 1_555 1_555
H10 C15 1_555 1_555
H11 C15 1_555 1_555
C16 C15 1_555 1_555
C17 C13 1_555 1_555
C18 C16 1_555 1_555
H12 C18 1_555 1_555
C19 C18 1_555 1_555
C20 C19 1_555 1_555
H13 C20 1_555 1_555
C21 C17 1_555 1_555
H14 C21 1_555 1_555
C22 O3 1_555 1_555
H15 C22 1_555 1_555
H16 C22 1_555 1_555
H17 C22 1_555 1_555
C23 C9 1_555 1_555
C24 C23 1_555 1_555
H18 C24 1_555 1_555
C25 C24 1_555 1_555
C26 C25 1_555 1_555
H19 C26 1_555 1_555
H20 C26 1_555 1_555
C27 C26 1_555 1_555
H21 C27 1_555 1_555
H22 C27 1_555 1_555
C28 C27 1_555 1_555
C29 C28 1_555 1_555
C30 N3 1_555 1_555
C31 C28 1_555 1_555
H23 C31 1_555 1_555
C32 C31 1_555 1_555
C33 C32 1_555 1_555
H24 C33 1_555 1_555
C34 C29 1_555 1_555
H25 C34 1_555 1_555
C35 O4 1_555 1_555
H26 C35 1_555 1_555
H27 C35 1_555 1_555
H28 C35 1_555 1_555
B1 N2 1_555 1_555
N3 B1 1_555 1_555
C12 C13 1_555 1_555
C16 C17 1_555 1_555
C20 C21 1_555 1_555
C25 C30 1_555 1_555
C29 C30 1_555 1_555
C33 C34 1_555 1_555

#END
