
#######################################################################
#
#                 Cambridge Crystallographic Data Centre
#                                CCDC 
#
#######################################################################
#
# If this CIF has been generated from an entry in the Cambridge 
# Structural Database, then it will include bibliographic, chemical, 
# crystal, experimental, refinement or atomic coordinate data resulting 
# from the CCDC's data processing and validation procedures.
#
#######################################################################

data_EMUYOC
_chemical_formula_moiety         'C18 H16 Br1 N1 O1'
_chemical_name_systematic        
N-(4-(4-bromophenyl)-2-methylbut-3-yn-1-yl)benzamide
_symmetry_cell_setting           monoclinic
_symmetry_space_group_name_H-M   'P 21'
_symmetry_Int_Tables_number      4
_space_group_name_Hall           'P 2yb'
loop_
_symmetry_equiv_pos_site_id
_symmetry_equiv_pos_as_xyz
1 x,y,z
2 -x,1/2+y,-z
_cell_length_a                   5.082(3)
_cell_length_b                   18.212(9)
_cell_length_c                   8.549(4)
_cell_angle_alpha                90
_cell_angle_beta                 91.926(8)
_cell_angle_gamma                90
_cell_volume                     790.792
_exptl_crystal_colour            colorless
_exptl_crystal_description       plate
_cell_formula_units_Z            2
loop_
_atom_site_label
_atom_site_type_symbol
_atom_site_fract_x
_atom_site_fract_y
_atom_site_fract_z
Br1 Br 0.38861(14) 0.06942(6) 0.26052(8)
O1 O 0.5341(9) 0.6580(3) 0.3268(8)
N1 N 0.9728(10) 0.6367(3) 0.3189(7)
H1 H 1.1282 0.6553 0.3171
C1 C 0.9069(12) 0.5258(4) 0.1533(9)
H2 H 0.7665 0.5535 0.0984
C2 C 0.9429(13) 0.5578(4) 0.3187(8)
H3 H 0.7915 0.5449 0.3791
H4 H 1.0973 0.5359 0.3695
C3 C 0.7628(12) 0.6818(4) 0.3218(8)
C4 C 0.8157(12) 0.7627(4) 0.3232(8)
C5 C 1.0222(13) 0.7942(4) 0.2413(9)
H5 H 1.1337 0.7645 0.1849
C6 C 1.0600(16) 0.8693(5) 0.2441(10)
H6 H 1.1899 0.8902 0.1843
C7 C 0.9037(17) 0.9143(5) 0.3366(11)
H7 H 0.9356 0.9645 0.3430
C8 C 0.6995(15) 0.8826(5) 0.4191(11)
H8 H 0.5934 0.9118 0.4802
C9 C 0.6557(13) 0.8079(4) 0.4094(10)
H9 H 0.5160 0.7874 0.4618
C10 C 1.1583(15) 0.5347(5) 0.0621(10)
H10 H 1.2109 0.5853 0.0635
H11 H 1.1262 0.5192 -0.0441
H12 H 1.2957 0.5052 0.1097
C11 C 0.8245(13) 0.4486(4) 0.1606(9)
C12 C 0.7593(14) 0.3858(4) 0.1697(9)
C13 C 0.6788(13) 0.3103(4) 0.1843(8)
C14 C 0.8134(15) 0.2627(5) 0.2863(9)
H13 H 0.9622 0.2795 0.3417
C15 C 0.7315(15) 0.1911(5) 0.3074(10)
H14 H 0.8231 0.1601 0.3764
C16 C 0.5086(15) 0.1662(4) 0.2232(8)
C17 C 0.3766(16) 0.2107(4) 0.1182(11)
H15 H 0.2320 0.1931 0.0602
C18 C 0.4619(15) 0.2834(4) 0.0988(10)
H16 H 0.3722 0.3139 0.0279
loop_
_geom_bond_atom_site_label_1
_geom_bond_atom_site_label_2
_geom_bond_site_symmetry_1
_geom_bond_site_symmetry_2
Br1 C16 1_555 1_555
O1 C3 1_555 1_555
N1 H1 1_555 1_555
C1 H2 1_555 1_555
C2 N1 1_555 1_555
H3 C2 1_555 1_555
H4 C2 1_555 1_555
C3 N1 1_555 1_555
C4 C3 1_555 1_555
C5 C4 1_555 1_555
H5 C5 1_555 1_555
C6 C5 1_555 1_555
H6 C6 1_555 1_555
C7 C6 1_555 1_555
H7 C7 1_555 1_555
C8 C7 1_555 1_555
H8 C8 1_555 1_555
C9 C4 1_555 1_555
H9 C9 1_555 1_555
C10 C1 1_555 1_555
H10 C10 1_555 1_555
H11 C10 1_555 1_555
H12 C10 1_555 1_555
C11 C1 1_555 1_555
C12 C11 1_555 1_555
C13 C12 1_555 1_555
C14 C13 1_555 1_555
H13 C14 1_555 1_555
C15 C14 1_555 1_555
H14 C15 1_555 1_555
C16 C15 1_555 1_555
C17 C16 1_555 1_555
H15 C17 1_555 1_555
C18 C13 1_555 1_555
H16 C18 1_555 1_555
C1 C2 1_555 1_555
C8 C9 1_555 1_555
C17 C18 1_555 1_555

#END
