
#######################################################################
#
#                 Cambridge Crystallographic Data Centre
#                                CCDC 
#
#######################################################################
#
# If this CIF has been generated from an entry in the Cambridge 
# Structural Database, then it will include bibliographic, chemical, 
# crystal, experimental, refinement or atomic coordinate data resulting 
# from the CCDC's data processing and validation procedures.
#
#######################################################################

data_EMUZOC
_chemical_formula_moiety         'C31 H29 N1 O7,C7 H8'
_chemical_name_systematic        
'1,13-bis(methoxycarbonyl)-6,8,22-trioxo-7-phenyl-7-azapentacyclo[11.8.1.0^3,11^.0^5,9^.0^15,20^]docosa-3(11),15,17,19-tetraene toluene solvate'
_symmetry_cell_setting           triclinic
_symmetry_space_group_name_H-M   'P -1'
_symmetry_Int_Tables_number      2
_space_group_name_Hall           '-P 1'
loop_
_symmetry_equiv_pos_site_id
_symmetry_equiv_pos_as_xyz
1 x,y,z
2 -x,-y,-z
_cell_length_a                   9.851(2)
_cell_length_b                   11.303(2)
_cell_length_c                   15.868(3)
_cell_angle_alpha                82.36(3)
_cell_angle_beta                 76.88(3)
_cell_angle_gamma                64.54(3)
_cell_volume                     1552.35
_exptl_crystal_colour            colorless
_exptl_crystal_description       plate
_cell_formula_units_Z            2
loop_
_atom_site_label
_atom_site_type_symbol
_atom_site_fract_x
_atom_site_fract_y
_atom_site_fract_z
O1 O 0.7776(3) 0.0187(2) 0.30999(14)
O2 O 0.7860(2) 0.1372(2) 0.18573(14)
O3 O 0.7449(3) 0.4501(2) -0.06325(14)
O4 O 1.2339(2) 0.2047(2) -0.19563(14)
O5 O 1.3678(3) -0.1068(2) 0.02271(15)
O6 O 1.4272(3) -0.2678(2) 0.12380(16)
O7 O 1.0789(2) -0.0984(2) 0.15675(14)
N1 N 0.9792(3) 0.3391(2) -0.14920(15)
C1 C 1.4321(4) -0.0071(3) 0.35091(19)
H1 H 1.5339 -0.0480 0.3196
C2 C 1.4031(4) 0.0696(3) 0.4194(2)
H2 H 1.4840 0.0823 0.4342
C3 C 1.2556(4) 0.1279(3) 0.4664(2)
H3 H 1.2354 0.1774 0.5152
C4 C 1.1375(4) 0.1132(3) 0.44145(19)
H4 H 1.0359 0.1560 0.4726
C5 C 1.1638(3) 0.0375(3) 0.37199(19)
C6 C 1.0316(3) 0.0226(3) 0.34905(19)
H5 H 0.9717 -0.0145 0.3894
C7 C 0.9977(3) 0.0707(3) 0.25621(18)
C8 C 0.9914(3) 0.2111(3) 0.23066(19)
H6 H 0.8858 0.2767 0.2505
H7 H 1.0598 0.2256 0.2612
C9 C 1.0380(3) 0.2333(3) 0.13453(19)
C10 C 0.9224(3) 0.3247(3) 0.08078(19)
H8 H 0.9364 0.4073 0.0667
H9 H 0.8176 0.3465 0.1147
C11 C 0.9407(3) 0.2618(3) -0.00339(19)
H10 H 0.8882 0.2011 0.0099
C12 C 0.8715(4) 0.3619(3) -0.0718(2)
C13 C 1.1206(3) 0.2380(3) -0.1393(2)
C14 C 1.1082(3) 0.1839(3) -0.04701(19)
H11 H 1.1296 0.0890 -0.0465
C15 C 1.2219(4) 0.1993(3) -0.0020(2)
H12 H 1.3275 0.1369 -0.0254
H13 H 1.2165 0.2893 -0.0132
C16 C 1.1830(3) 0.1726(3) 0.09415(19)
C17 C 1.3037(3) 0.0790(3) 0.14343(19)
H14 H 1.2986 0.1221 0.1951
H15 H 1.4059 0.0584 0.1064
C18 C 1.2852(3) -0.0509(3) 0.17273(19)
C19 C 1.3149(3) -0.0257(3) 0.32672(19)
C20 C 1.1167(3) -0.0303(3) 0.19065(18)
C21 C 0.8423(3) 0.0700(3) 0.25534(19)
C22 C 0.6377(4) 0.1446(4) 0.1799(2)
H16 H 0.6077 0.1931 0.1264
H17 H 0.5615 0.1900 0.2298
H18 H 0.6437 0.0559 0.1796
C23 C 1.3628(3) -0.1436(3) 0.0977(2)
C24 C 1.5124(4) -0.3623(4) 0.0564(3)
H19 H 1.5582 -0.4503 0.0831
H20 H 1.5934 -0.3396 0.0204
H21 H 1.4430 -0.3608 0.0204
C25 C 0.9425(3) 0.4045(3) -0.22986(19)
C26 C 0.8636(4) 0.5399(3) -0.2346(2)
H22 H 0.8373 0.5899 -0.1851
C27 C 0.8234(4) 0.6015(3) -0.3126(2)
H23 H 0.7689 0.6941 -0.3165
C28 C 1.3559(4) -0.1160(3) 0.25473(19)
H24 H 1.3229 -0.1872 0.2776
H25 H 1.4688 -0.1567 0.2369
C29 C 0.8619(4) 0.5295(3) -0.3841(2)
H26 H 0.8340 0.5723 -0.4372
C30 C 0.9417(4) 0.3940(3) -0.3792(2)
H27 H 0.9686 0.3444 -0.4289
C31 C 0.9820(4) 0.3312(3) -0.3018(2)
H28 H 1.0363 0.2385 -0.2981
C32 C 1.6437(4) -0.6364(3) 0.4275(2)
C33 C 1.5538(4) -0.6209(4) 0.3676(3)
H29 H 1.4944 -0.6705 0.3755
C34 C 1.5488(4) -0.5354(4) 0.2971(3)
H30 H 1.4867 -0.5270 0.2568
C35 C 1.6326(4) -0.4623(3) 0.2844(2)
H31 H 1.6281 -0.4024 0.2360
C36 C 1.7236(4) -0.4766(3) 0.3428(2)
H32 H 1.7830 -0.4270 0.3343
C37 C 1.7286(4) -0.5622(4) 0.4133(2)
H33 H 1.7915 -0.5708 0.4531
C38 C 1.6455(5) -0.7280(4) 0.5058(3)
H34 H 1.7161 -0.7270 0.5401
H35 H 1.6793 -0.8172 0.4871
H36 H 1.5422 -0.6995 0.5412
loop_
_geom_bond_atom_site_label_1
_geom_bond_atom_site_label_2
_geom_bond_site_symmetry_1
_geom_bond_site_symmetry_2
O1 C21 1_555 1_555
O2 C21 1_555 1_555
O3 C12 1_555 1_555
O4 C13 1_555 1_555
O5 C23 1_555 1_555
O6 C23 1_555 1_555
O7 C20 1_555 1_555
N1 C12 1_555 1_555
C1 H1 1_555 1_555
C2 C1 1_555 1_555
H2 C2 1_555 1_555
C3 C2 1_555 1_555
H3 C3 1_555 1_555
C4 C3 1_555 1_555
H4 C4 1_555 1_555
C5 C4 1_555 1_555
C6 C5 1_555 1_555
H5 C6 1_555 1_555
C7 C6 1_555 1_555
C8 C7 1_555 1_555
H6 C8 1_555 1_555
H7 C8 1_555 1_555
C9 C8 1_555 1_555
C10 C9 1_555 1_555
H8 C10 1_555 1_555
H9 C10 1_555 1_555
C11 C10 1_555 1_555
H10 C11 1_555 1_555
C12 C11 1_555 1_555
C13 N1 1_555 1_555
C14 C11 1_555 1_555
H11 C14 1_555 1_555
C15 C14 1_555 1_555
H12 C15 1_555 1_555
H13 C15 1_555 1_555
C16 C9 1_555 1_555
C17 C16 1_555 1_555
H14 C17 1_555 1_555
H15 C17 1_555 1_555
C18 C17 1_555 1_555
C19 C1 1_555 1_555
C20 C7 1_555 1_555
C21 C7 1_555 1_555
C22 O2 1_555 1_555
H16 C22 1_555 1_555
H17 C22 1_555 1_555
H18 C22 1_555 1_555
C23 C18 1_555 1_555
C24 O6 1_555 1_555
H19 C24 1_555 1_555
H20 C24 1_555 1_555
H21 C24 1_555 1_555
C25 N1 1_555 1_555
C26 C25 1_555 1_555
H22 C26 1_555 1_555
C27 C26 1_555 1_555
H23 C27 1_555 1_555
C28 C18 1_555 1_555
H24 C28 1_555 1_555
H25 C28 1_555 1_555
C29 C27 1_555 1_555
H26 C29 1_555 1_555
C30 C29 1_555 1_555
H27 C30 1_555 1_555
C31 C25 1_555 1_555
H28 C31 1_555 1_555
C32 C33 1_555 1_555
C33 H29 1_555 1_555
C34 C33 1_555 1_555
H30 C34 1_555 1_555
C35 C34 1_555 1_555
H31 C35 1_555 1_555
C36 C35 1_555 1_555
H32 C36 1_555 1_555
C37 C32 1_555 1_555
H33 C37 1_555 1_555
C38 C32 1_555 1_555
H34 C38 1_555 1_555
H35 C38 1_555 1_555
H36 C38 1_555 1_555
C5 C19 1_555 1_555
C13 C14 1_555 1_555
C15 C16 1_555 1_555
C18 C20 1_555 1_555
C19 C28 1_555 1_555
C30 C31 1_555 1_555
C36 C37 1_555 1_555

#END
