
#######################################################################
#
#                 Cambridge Crystallographic Data Centre
#                                CCDC 
#
#######################################################################
#
# If this CIF has been generated from an entry in the Cambridge 
# Structural Database, then it will include bibliographic, chemical, 
# crystal, experimental, refinement or atomic coordinate data resulting 
# from the CCDC's data processing and validation procedures.
#
#######################################################################

data_ENACIF
_chemical_formula_moiety         'C24 H39 N3 O5'
_chemical_name_systematic        
2-Benzyl-N,6-di-isobutyl-10,10-dimethyl-5,9-dioxo-3,7-dioxa-4,8-diazaundecan-1-amide
_symmetry_cell_setting           monoclinic
_symmetry_space_group_name_H-M   'P 21'
_symmetry_Int_Tables_number      4
_space_group_name_Hall           'P 2yb'
loop_
_symmetry_equiv_pos_site_id
_symmetry_equiv_pos_as_xyz
1 x,y,z
2 -x,1/2+y,-z
_cell_length_a                   9.175(2)
_cell_length_b                   13.370(2)
_cell_length_c                   11.119(2)
_cell_angle_alpha                90
_cell_angle_beta                 103.68(2)
_cell_angle_gamma                90
_cell_volume                     1325.27
_exptl_crystal_colour            colorless
_exptl_crystal_description       prism
_chemical_melting_point          113-116deg.C
_cell_formula_units_Z            2
_exptl_crystal_recrystallization_method dichloromethane
loop_
_atom_site_label
_atom_site_type_symbol
_atom_site_fract_x
_atom_site_fract_y
_atom_site_fract_z
O1 O 0.0411(8) 0.0124 0.2403(6)
O2 O 0.3208(8) -0.2139(8) 0.3869(8)
O3 O 0.3553(10) -0.0326(8) 0.4971(8)
O4 O -0.0557(9) -0.1709(8) 0.1918(7)
O5 O 0.153(1) -0.3570(8) 0.592(1)
N1 N -0.068(1) -0.0277(8) 0.2995(9)
N2 N 0.233(1) -0.1301(9) 0.3433(9)
N3 N 0.290(1) -0.214(1) 0.620(1)
C1 C -0.221(2) -0.264(1) 0.352(1)
C2 C -0.310(2) -0.090(1) 0.385(2)
C3 C -0.383(2) -0.171(2) 0.170(2)
C4 C -0.260(1) -0.157(1) 0.299(1)
C5 C -0.122(1) -0.120(1) 0.253(1)
C6 C 0.174(1) 0.0419(9) 0.338(1)
C7 C 0.275(2) 0.096(1) 0.253(2)
C8 C 0.221(2) 0.191(1) 0.205(1)
C9 C 0.270(3) 0.276(2) 0.295(3)
C10 C 0.275(3) 0.217(2) 0.090(2)
C11 C 0.261(1) -0.044(1) 0.400(1)
C12 C 0.230(1) -0.294(1) 0.417(1)
C13 C 0.304(2) -0.390(1) 0.390(1)
C14 C 0.303(2) -0.404(1) 0.255(1)
C15 C 0.171(2) -0.389(2) 0.162(2)
C16 C 0.169(3) -0.404(2) 0.043(2)
C17 C 0.291(3) -0.434(1) 0.010(2)
C18 C 0.430(2) -0.448(1) 0.099(2)
C19 C 0.429(2) -0.437(1) 0.221(2)
C20 C 0.222(2) -0.293(1) 0.554(2)
C21 C 0.291(2) -0.199(2) 0.750(2)
C22 C 0.175(3) -0.140(2) 0.783(2)
C23 C 0.180(3) -0.126(2) 0.911(2)
C24 C 0.111(3) -0.056(2) 0.695(3)
H1 H -0.1255 0.0262 0.3494
H2 H 0.1677 -0.1325 0.2892
H3 H 0.3366 -0.1653 0.5832
H4 H -0.3027 -0.2888 0.3824
H5 H -0.2044 -0.3065 0.2884
H6 H -0.1335 -0.2616 0.4177
H7 H -0.2328 -0.0845 0.4597
H8 H -0.3307 -0.0261 0.3491
H9 H -0.3974 -0.1169 0.4046
H10 H -0.3994 -0.1084 0.1289
H11 H -0.3474 -0.2181 0.1206
H12 H -0.4737 -0.1940 0.1874
H13 H 0.1487 0.0873 0.3955
H14 H 0.3737 0.1044 0.3026
H15 H 0.2769 0.0533 0.1853
H16 H 0.1154 0.1887 0.1842
H17 H 0.3763 0.2812 0.3114
H18 H 0.2250 0.3351 0.2584
H19 H 0.2402 0.2615 0.3685
H20 H 0.3803 0.2235 0.1095
H21 H 0.2459 0.1646 0.0300
H22 H 0.2293 0.2775 0.0558
H23 H 0.1315 -0.2900 0.3654
H24 H 0.4061 -0.3900 0.4353
H25 H 0.2537 -0.4454 0.4152
H26 H 0.0819 -0.3662 0.1837
H27 H 0.0782 -0.3949 -0.0181
H28 H 0.2868 -0.4453 -0.0756
H29 H 0.5195 -0.4646 0.0739
H30 H 0.5169 -0.4519 0.2816
H31 H 0.2870 -0.2641 0.7833
H32 H 0.3839 -0.1687 0.7857
H33 H 0.0950 -0.1867 0.7638
H34 H 0.1745 -0.1896 0.9484
H35 H 0.2708 -0.0941 0.9497
H36 H 0.0971 -0.0865 0.9182
H37 H 0.1680 0.0029 0.7198
H38 H 0.1151 -0.0742 0.6142
H39 H 0.0098 -0.0448 0.6991
loop_
_geom_bond_atom_site_label_1
_geom_bond_atom_site_label_2
_geom_bond_site_symmetry_1
_geom_bond_site_symmetry_2
O1 N1 1_555 1_555
O2 N2 1_555 1_555
O3 C11 1_555 1_555
O4 C5 1_555 1_555
O5 C20 1_555 1_555
N1 C5 1_555 1_555
N2 C11 1_555 1_555
N3 C20 1_555 1_555
C1 C4 1_555 1_555
C2 C4 1_555 1_555
C3 C4 1_555 1_555
C4 C5 1_555 1_555
C6 O1 1_555 1_555
C7 C6 1_555 1_555
C8 C7 1_555 1_555
C9 C8 1_555 1_555
C10 C8 1_555 1_555
C11 C6 1_555 1_555
C12 O2 1_555 1_555
C13 C12 1_555 1_555
C14 C13 1_555 1_555
C15 C14 1_555 1_555
C16 C15 1_555 1_555
C17 C16 1_555 1_555
C18 C17 1_555 1_555
C19 C14 1_555 1_555
C20 C12 1_555 1_555
C21 N3 1_555 1_555
C22 C21 1_555 1_555
C23 C22 1_555 1_555
C24 C22 1_555 1_555
H1 N1 1_555 1_555
H2 N2 1_555 1_555
H3 N3 1_555 1_555
H4 C1 1_555 1_555
H5 C1 1_555 1_555
H6 C1 1_555 1_555
H7 C2 1_555 1_555
H8 C2 1_555 1_555
H9 C2 1_555 1_555
H10 C3 1_555 1_555
H11 C3 1_555 1_555
H12 C3 1_555 1_555
H13 C6 1_555 1_555
H14 C7 1_555 1_555
H15 C7 1_555 1_555
H16 C8 1_555 1_555
H17 C9 1_555 1_555
H18 C9 1_555 1_555
H19 C9 1_555 1_555
H20 C10 1_555 1_555
H21 C10 1_555 1_555
H22 C10 1_555 1_555
H23 C12 1_555 1_555
H24 C13 1_555 1_555
H25 C13 1_555 1_555
H26 C15 1_555 1_555
H27 C16 1_555 1_555
H28 C17 1_555 1_555
H29 C18 1_555 1_555
H30 C19 1_555 1_555
H31 C21 1_555 1_555
H32 C21 1_555 1_555
H33 C22 1_555 1_555
H34 C23 1_555 1_555
H35 C23 1_555 1_555
H36 C23 1_555 1_555
H37 C24 1_555 1_555
H38 C24 1_555 1_555
H39 C24 1_555 1_555
C18 C19 1_555 1_555

#END
