
#######################################################################
#
#                 Cambridge Crystallographic Data Centre
#                                CCDC 
#
#######################################################################
#
# If this CIF has been generated from an entry in the Cambridge 
# Structural Database, then it will include bibliographic, chemical, 
# crystal, experimental, refinement or atomic coordinate data resulting 
# from the CCDC's data processing and validation procedures.
#
#######################################################################

data_ENAKUB
_chemical_formula_moiety         'C39 H38 N1 O1 P1 S1'
_chemical_name_systematic        
N-(1-(2-(9-anthryl)phenyl)-2-(diphenylphosphino)ethyl)-N,2-dimethylpropane-2-sulfinamide
_symmetry_cell_setting           orthorhombic
_symmetry_space_group_name_H-M   'P 21 21 21'
_symmetry_Int_Tables_number      19
_space_group_name_Hall           'P 2ac 2ab'
loop_
_symmetry_equiv_pos_site_id
_symmetry_equiv_pos_as_xyz
1 x,y,z
2 1/2-x,-y,1/2+z
3 -x,1/2+y,1/2-z
4 1/2+x,1/2-y,-z
_cell_length_a                   8.9660(4)
_cell_length_b                   10.6824(4)
_cell_length_c                   34.6972(13)
_cell_angle_alpha                90
_cell_angle_beta                 90
_cell_angle_gamma                90
_cell_volume                     3323.24
_exptl_crystal_colour            colorless
_exptl_crystal_description       block
_cell_formula_units_Z            4
loop_
_atom_site_label
_atom_site_type_symbol
_atom_site_fract_x
_atom_site_fract_y
_atom_site_fract_z
S1 S 1.01880(10) 0.27060(8) 0.89983(2)
P1 P 0.76563(11) 0.04664(8) 0.80577(2)
O1 O 1.0112(3) 0.4067(2) 0.90754(8)
N1 N 0.8768(3) 0.2305(2) 0.87120(7)
C1 C 0.8541(4) -0.1075(3) 0.80804(9)
C2 C 0.8744(5) -0.1804(3) 0.83990(10)
H1 H 0.8360 -0.1538 0.8634
C3 C 0.9508(5) -0.2935(4) 0.83817(11)
H2 H 0.9633 -0.3415 0.8603
C4 C 1.0075(5) -0.3338(4) 0.80375(12)
H3 H 1.0595 -0.4090 0.8023
C5 C 0.9872(6) -0.2629(4) 0.77155(12)
H4 H 1.0243 -0.2905 0.7480
C6 C 0.9126(5) -0.1514(4) 0.77367(10)
H5 H 0.9009 -0.1038 0.7514
C7 C 0.5900(5) 0.0107(3) 0.78141(10)
C8 C 0.4909(6) -0.0812(4) 0.79423(16)
H6 H 0.5175 -0.1333 0.8146
C9 C 0.3518(6) -0.0947(6) 0.7765(2)
H7 H 0.2856 -0.1556 0.7851
C10 C 0.3128(9) -0.0184(7) 0.7463(2)
H8 H 0.2213 -0.0281 0.7340
C11 C 0.4060(10) 0.0681(10) 0.7350(2)
H9 H 0.3800 0.1196 0.7145
C12 C 0.5424(8) 0.0848(6) 0.75282(17)
H10 H 0.6035 0.1500 0.7446
C13 C 0.7038(3) 0.1466(3) 0.92286(8)
C14 C 0.6715(4) 0.2685(3) 0.93486(9)
H11 H 0.7084 0.3354 0.9206
C15 C 0.5869(4) 0.2924(3) 0.96710(10)
H12 H 0.5672 0.3746 0.9742
C16 C 0.5320(5) 0.1967(4) 0.98859(11)
H13 H 0.4742 0.2129 1.0103
C17 C 0.5634(5) 0.0737(4) 0.97773(10)
H14 H 0.5258 0.0078 0.9923
C18 C 0.6500(4) 0.0483(3) 0.94549(9)
C19 C 0.6153(5) -0.2971(3) 0.91558(11)
C20 C 0.5063(6) -0.3740(4) 0.89840(16)
H15 H 0.5275 -0.4584 0.8947
C21 C 0.3722(7) -0.3297(5) 0.88712(18)
H16 H 0.3031 -0.3830 0.8757
C22 C 0.3374(5) -0.2022(4) 0.89265(16)
H17 H 0.2453 -0.1715 0.8848
C23 C 0.4370(5) -0.1248(4) 0.90932(12)
H18 H 0.4116 -0.0412 0.9129
C24 C 0.5791(5) -0.1668(3) 0.92149(10)
C25 C 0.6872(4) -0.0876(3) 0.93737(9)
C26 C 0.8276(5) -0.1338(3) 0.94814(9)
C27 C 0.9410(5) -0.0590(4) 0.96507(10)
H19 H 0.9222 0.0253 0.9697
C28 C 1.0767(6) -0.1074(4) 0.97468(12)
H20 H 1.1492 -0.0559 0.9854
C29 C 1.1076(6) -0.2358(4) 0.96839(11)
H21 H 1.1998 -0.2686 0.9754
C30 C 1.0046(5) -0.3098(4) 0.95241(10)
H22 H 1.0276 -0.3934 0.9480
C31 C 0.8619(5) -0.2648(3) 0.94206(9)
C32 C 0.7536(5) -0.3407(3) 0.92591(11)
H23 H 0.7755 -0.4248 0.9219
C33 C 0.6863(3) 0.0719(3) 0.85442(8)
H24 H 0.6036 0.1299 0.8520
H25 H 0.6456 -0.0071 0.8633
C34 C 0.7906(3) 0.1218(3) 0.88579(8)
H26 H 0.8626 0.0553 0.8915
C35 C 0.8031(4) 0.3277(3) 0.84853(10)
H27 H 0.7250 0.2909 0.8334
H28 H 0.8746 0.3668 0.8318
H29 H 0.7613 0.3894 0.8655
C36 C 1.1793(4) 0.2497(4) 0.86792(11)
C37 C 1.1741(6) 0.3373(6) 0.83432(14)
H30 H 1.2595 0.3234 0.8182
H31 H 1.1747 0.4221 0.8434
H32 H 1.0848 0.3225 0.8198
C38 C 1.1808(5) 0.1123(4) 0.85673(16)
H33 H 1.2631 0.0966 0.8397
H34 H 1.0891 0.0916 0.8440
H35 H 1.1912 0.0618 0.8795
C39 C 1.3140(5) 0.2795(4) 0.89357(16)
H36 H 1.4040 0.2709 0.8788
H37 H 1.3162 0.2225 0.9150
H38 H 1.3060 0.3637 0.9030
loop_
_geom_bond_atom_site_label_1
_geom_bond_atom_site_label_2
_geom_bond_site_symmetry_1
_geom_bond_site_symmetry_2
S1 O1 1_555 1_555
P1 C1 1_555 1_555
N1 S1 1_555 1_555
C1 C2 1_555 1_555
C2 H1 1_555 1_555
C3 C2 1_555 1_555
H2 C3 1_555 1_555
C4 C3 1_555 1_555
H3 C4 1_555 1_555
C5 C4 1_555 1_555
H4 C5 1_555 1_555
C6 C1 1_555 1_555
H5 C6 1_555 1_555
C7 P1 1_555 1_555
C8 C7 1_555 1_555
H6 C8 1_555 1_555
C9 C8 1_555 1_555
H7 C9 1_555 1_555
C10 C9 1_555 1_555
H8 C10 1_555 1_555
C11 C10 1_555 1_555
H9 C11 1_555 1_555
C12 C7 1_555 1_555
H10 C12 1_555 1_555
C13 C14 1_555 1_555
C14 H11 1_555 1_555
C15 C14 1_555 1_555
H12 C15 1_555 1_555
C16 C15 1_555 1_555
H13 C16 1_555 1_555
C17 C16 1_555 1_555
H14 C17 1_555 1_555
C18 C13 1_555 1_555
C19 C20 1_555 1_555
C20 H15 1_555 1_555
C21 C20 1_555 1_555
H16 C21 1_555 1_555
C22 C21 1_555 1_555
H17 C22 1_555 1_555
C23 C22 1_555 1_555
H18 C23 1_555 1_555
C24 C19 1_555 1_555
C25 C18 1_555 1_555
C26 C25 1_555 1_555
C27 C26 1_555 1_555
H19 C27 1_555 1_555
C28 C27 1_555 1_555
H20 C28 1_555 1_555
C29 C28 1_555 1_555
H21 C29 1_555 1_555
C30 C29 1_555 1_555
H22 C30 1_555 1_555
C31 C26 1_555 1_555
C32 C19 1_555 1_555
H23 C32 1_555 1_555
C33 P1 1_555 1_555
H24 C33 1_555 1_555
H25 C33 1_555 1_555
C34 N1 1_555 1_555
H26 C34 1_555 1_555
C35 N1 1_555 1_555
H27 C35 1_555 1_555
H28 C35 1_555 1_555
H29 C35 1_555 1_555
C36 S1 1_555 1_555
C37 C36 1_555 1_555
H30 C37 1_555 1_555
H31 C37 1_555 1_555
H32 C37 1_555 1_555
C38 C36 1_555 1_555
H33 C38 1_555 1_555
H34 C38 1_555 1_555
H35 C38 1_555 1_555
C39 C36 1_555 1_555
H36 C39 1_555 1_555
H37 C39 1_555 1_555
H38 C39 1_555 1_555
C5 C6 1_555 1_555
C11 C12 1_555 1_555
C13 C34 1_555 1_555
C17 C18 1_555 1_555
C23 C24 1_555 1_555
C24 C25 1_555 1_555
C30 C31 1_555 1_555
C31 C32 1_555 1_555
C33 C34 1_555 1_555

#END
