
#######################################################################
#
#                 Cambridge Crystallographic Data Centre
#                                CCDC 
#
#######################################################################
#
# If this CIF has been generated from an entry in the Cambridge 
# Structural Database, then it will include bibliographic, chemical, 
# crystal, experimental, refinement or atomic coordinate data resulting 
# from the CCDC's data processing and validation procedures.
#
#######################################################################

data_ENAKOV
_chemical_formula_moiety         'C21 H20 O4'
_chemical_name_systematic        
'ethyl 2-(2-(biphenyl-4-yl)-2-oxoethyl)-3-formylbut-3-enoate'
_symmetry_cell_setting           orthorhombic
_symmetry_space_group_name_H-M   'P 21 21 21'
_symmetry_Int_Tables_number      19
_space_group_name_Hall           'P 2ac 2ab'
loop_
_symmetry_equiv_pos_site_id
_symmetry_equiv_pos_as_xyz
1 x,y,z
2 1/2+x,1/2-y,-z
3 -x,1/2+y,1/2-z
4 1/2-x,-y,1/2+z
_cell_length_a                   5.96380(10)
_cell_length_b                   7.40110(10)
_cell_length_c                   40.7678(5)
_cell_angle_alpha                90
_cell_angle_beta                 90
_cell_angle_gamma                90
_cell_volume                     1799.44
_exptl_crystal_colour            colorless
_exptl_crystal_description       block
_cell_formula_units_Z            4
loop_
_atom_site_label
_atom_site_type_symbol
_atom_site_fract_x
_atom_site_fract_y
_atom_site_fract_z
O1 O 1.0878(3) 0.0475(4) 0.14233(5)
O2 O 0.7484(5) 0.2867(3) 0.09351(7)
O3 O 1.0108(4) 0.1748(3) 0.06100(5)
O4 O 0.9186(4) -0.2305(4) 0.03288(5)
C1 C 0.8490(6) 0.0710(6) 0.31325(7)
H1 H 0.9855 0.1174 0.3061
C2 C 0.8047(7) 0.0641(7) 0.34635(8)
H2 H 0.9116 0.1061 0.3611
C3 C 0.6084(6) -0.0027(4) 0.35782(6)
H3 H 0.5797 -0.0070 0.3802
C4 C 0.4541(6) -0.0634(5) 0.33589(7)
H4 H 0.3184 -0.1098 0.3434
C5 C 0.4969(5) -0.0569(4) 0.30271(6)
H5 H 0.3889 -0.0992 0.2882
C6 C 0.6962(4) 0.0110(3) 0.29044(5)
C7 C 0.7447(4) 0.0137(3) 0.25461(5)
C8 C 0.9437(4) 0.0847(3) 0.24221(6)
H6 H 1.0469 0.1354 0.2566
C9 C 0.9919(4) 0.0816(3) 0.20914(6)
H7 H 1.1278 0.1276 0.2017
C10 C 0.8401(4) 0.0110(3) 0.18688(6)
C11 C 0.6396(4) -0.0578(4) 0.19880(6)
H8 H 0.5346 -0.1048 0.1843
C12 C 0.5944(4) -0.0573(4) 0.23187(6)
H9 H 0.4596 -0.1057 0.2393
C13 C 0.9002(4) 0.0077(4) 0.15138(6)
C14 C 0.7209(4) -0.0464(4) 0.12699(6)
H10 H 0.5918 0.0319 0.1297
H11 H 0.6734 -0.1692 0.1316
C15 C 0.8024(4) -0.0349(3) 0.09173(5)
H12 H 0.9424 -0.1035 0.0899
C16 C 0.8504(5) 0.1599(4) 0.08286(6)
C17 C 0.6358(4) -0.1118(4) 0.06749(6)
C18 C 0.7231(6) -0.2030(5) 0.03838(7)
H13 H 0.6198 -0.2428 0.0229
C19 C 0.4172(5) -0.1008(7) 0.07046(9)
H14 H 0.3247 -0.1500 0.0544
H15 H 0.3546 -0.0439 0.0886
C20 C 1.0667(9) 0.3559(6) 0.05070(11)
H16 H 1.0982 0.4307 0.0697
H17 H 0.9418 0.4088 0.0389
C21 C 1.2637(10) 0.3466(9) 0.02955(16)
H18 H 1.2369 0.2619 0.0122
H19 H 1.3909 0.3082 0.0422
H20 H 1.2928 0.4638 0.0204
loop_
_geom_bond_atom_site_label_1
_geom_bond_atom_site_label_2
_geom_bond_site_symmetry_1
_geom_bond_site_symmetry_2
O1 C13 1_555 1_555
O2 C16 1_555 1_555
O3 C16 1_555 1_555
O4 C18 1_555 1_555
C1 H1 1_555 1_555
C2 C1 1_555 1_555
H2 C2 1_555 1_555
C3 C2 1_555 1_555
H3 C3 1_555 1_555
C4 C3 1_555 1_555
H4 C4 1_555 1_555
C5 C4 1_555 1_555
H5 C5 1_555 1_555
C6 C1 1_555 1_555
C7 C6 1_555 1_555
C8 C7 1_555 1_555
H6 C8 1_555 1_555
C9 C8 1_555 1_555
H7 C9 1_555 1_555
C10 C9 1_555 1_555
C11 C10 1_555 1_555
H8 C11 1_555 1_555
C12 C7 1_555 1_555
H9 C12 1_555 1_555
C13 C10 1_555 1_555
C14 C13 1_555 1_555
H10 C14 1_555 1_555
H11 C14 1_555 1_555
C15 C14 1_555 1_555
H12 C15 1_555 1_555
C16 C15 1_555 1_555
C17 C15 1_555 1_555
C18 C17 1_555 1_555
H13 C18 1_555 1_555
C19 C17 1_555 1_555
H14 C19 1_555 1_555
H15 C19 1_555 1_555
C20 O3 1_555 1_555
H16 C20 1_555 1_555
H17 C20 1_555 1_555
C21 C20 1_555 1_555
H18 C21 1_555 1_555
H19 C21 1_555 1_555
H20 C21 1_555 1_555
C5 C6 1_555 1_555
C11 C12 1_555 1_555

#END
