
#######################################################################
#
#                 Cambridge Crystallographic Data Centre
#                                CCDC 
#
#######################################################################
#
# If this CIF has been generated from an entry in the Cambridge 
# Structural Database, then it will include bibliographic, chemical, 
# crystal, experimental, refinement or atomic coordinate data resulting 
# from the CCDC's data processing and validation procedures.
#
#######################################################################

data_ENALOU
_chemical_formula_moiety         'C13 H13 N1 O1'
_chemical_name_systematic        4-(4-Aminobenzyl)phenol
_symmetry_cell_setting           monoclinic
_symmetry_space_group_name_H-M   'P 21/n'
_symmetry_Int_Tables_number      14
_space_group_name_Hall           '-P 2yn'
loop_
_symmetry_equiv_pos_site_id
_symmetry_equiv_pos_as_xyz
1 x,y,z
2 1/2+x,1/2-y,1/2+z
3 -x,-y,-z
4 1/2-x,1/2+y,1/2-z
_cell_length_a                   5.9820(3)
_cell_length_b                   19.3670(9)
_cell_length_c                   9.7390(4)
_cell_angle_alpha                90
_cell_angle_beta                 100.860(2)
_cell_angle_gamma                90
_cell_volume                     1108.09
_exptl_crystal_colour            'light yellow'
_exptl_crystal_description       block
_chemical_melting_point          '147.59 deg.C'
_cell_formula_units_Z            4
loop_
_atom_site_label
_atom_site_type_symbol
_atom_site_fract_x
_atom_site_fract_y
_atom_site_fract_z
O1 O 0.7765(2) 0.05238(6) 0.06408(12)
H1 H 0.793(4) 0.0055(13) 0.078(2)
N1 N 0.1353(2) 0.08672(7) 0.90841(14)
H2 H -0.002(3) 0.0830(10) 0.9322(19)
H3 H 0.232(4) 0.1081(11) 0.980(2)
C1 C 0.6363(2) 0.08339(8) 0.14123(15)
C2 C 0.5121(3) 0.04666(8) 0.22505(15)
H4 H 0.527(3) -0.0021(10) 0.2305(19)
C3 C 0.3665(3) 0.08181(8) 0.29674(15)
H5 H 0.277(3) 0.0545(9) 0.3520(17)
C4 C 0.3420(2) 0.15348(7) 0.28768(14)
C5 C 0.4707(3) 0.18944(7) 0.20541(15)
H6 H 0.460(3) 0.2398(9) 0.2010(17)
C6 C 0.6159(3) 0.15488(8) 0.13260(15)
H7 H 0.707(3) 0.1796(9) 0.0774(18)
C7 C 0.1775(3) 0.19222(8) 0.36166(16)
H8 H 0.024(3) 0.1899(9) 0.3058(19)
H9 H 0.225(3) 0.2429(11) 0.3699(18)
C8 C 0.1399(2) 0.11472(7) 0.77448(15)
C9 C 0.3380(2) 0.14630(8) 0.74837(16)
H10 H 0.470(3) 0.1503(9) 0.8248(18)
C10 C 0.3480(2) 0.17075(7) 0.61586(15)
H11 H 0.487(3) 0.1927(8) 0.5982(17)
C11 C 0.1631(2) 0.16445(7) 0.50513(15)
C12 C -0.0328(3) 0.13234(8) 0.53184(16)
H12 H -0.160(3) 0.1272(9) 0.4591(19)
C13 C -0.0451(3) 0.10754(7) 0.66476(16)
H13 H -0.182(3) 0.0849(10) 0.6836(19)
loop_
_geom_bond_atom_site_label_1
_geom_bond_atom_site_label_2
_geom_bond_site_symmetry_1
_geom_bond_site_symmetry_2
O1 H1 1_555 1_555
N1 H2 1_555 1_555
H3 N1 1_555 1_555
C1 O1 1_555 1_555
C2 C1 1_555 1_555
H4 C2 1_555 1_555
C3 C2 1_555 1_555
H5 C3 1_555 1_555
C4 C3 1_555 1_555
C5 C4 1_555 1_555
H6 C5 1_555 1_555
C6 C1 1_555 1_555
H7 C6 1_555 1_555
C7 C4 1_555 1_555
H8 C7 1_555 1_555
H9 C7 1_555 1_555
C8 N1 1_555 1_555
C9 C8 1_555 1_555
H10 C9 1_555 1_555
C10 C9 1_555 1_555
H11 C10 1_555 1_555
C11 C7 1_555 1_555
C12 C11 1_555 1_555
H12 C12 1_555 1_555
C13 C8 1_555 1_555
H13 C13 1_555 1_555
C5 C6 1_555 1_555
C10 C11 1_555 1_555
C12 C13 1_555 1_555

#END
