
#######################################################################
#
#                 Cambridge Crystallographic Data Centre
#                                CCDC 
#
#######################################################################
#
# If this CIF has been generated from an entry in the Cambridge 
# Structural Database, then it will include bibliographic, chemical, 
# crystal, experimental, refinement or atomic coordinate data resulting 
# from the CCDC's data processing and validation procedures.
#
#######################################################################

data_ENALUC
_chemical_formula_moiety         'C26 H24 F3 N7 S1,C1 H2 Cl2'
_chemical_name_systematic        
'2,8,14,20-tetramethyl-28-((trifluoromethyl)sulfanyl)-2,8,14,20,25,26,27-heptaazapentacyclo[19.3.1.1^3,7^.1^9,13^.1^15,19^]octacosa-1(25),3(28),4,6,9(27),10,12,15(26),16,18,21,23-dodecaene dichloromethane solvate'
_symmetry_cell_setting           orthorhombic
_symmetry_space_group_name_H-M   'P b c a'
_symmetry_Int_Tables_number      61
_space_group_name_Hall           '-P 2ac 2ab'
loop_
_symmetry_equiv_pos_site_id
_symmetry_equiv_pos_as_xyz
1 x,y,z
2 1/2-x,-y,1/2+z
3 -x,1/2+y,1/2-z
4 1/2+x,1/2-y,-z
5 -x,-y,-z
6 1/2+x,y,1/2-z
7 x,1/2-y,1/2+z
8 1/2-x,1/2+y,z
_cell_length_a                   16.558(3)
_cell_length_b                   17.307(4)
_cell_length_c                   19.571(4)
_cell_angle_alpha                90
_cell_angle_beta                 90
_cell_angle_gamma                90
_cell_volume                     5608.45
_exptl_crystal_colour            colorless
_exptl_crystal_description       block
_cell_formula_units_Z            8
loop_
_atom_site_label
_atom_site_type_symbol
_atom_site_fract_x
_atom_site_fract_y
_atom_site_fract_z
S1 S 0.96838(5) 0.20841(5) 0.38938(4)
N1 N 0.90534(16) 0.33130(17) 0.49044(14)
N2 N 0.95951(16) 0.41195(16) 0.40937(14)
N3 N 1.0258(2) 0.49181(19) 0.33406(16)
N4 N 1.12894(19) 0.40152(17) 0.31094(14)
N5 N 1.2218(2) 0.30231(18) 0.28676(16)
N6 N 1.17069(17) 0.21606(16) 0.36559(14)
N7 N 1.12083(18) 0.13919(15) 0.45112(15)
C1 C 0.8887(2) 0.1487(2) 0.42051(18)
C2 C 1.01574(18) 0.24012(18) 0.46560(15)
C3 C 0.98490(18) 0.30260(18) 0.50316(16)
C4 C 1.0293(2) 0.3320(2) 0.55715(18)
H1 H 1.0094 0.3738 0.5818
C5 C 1.1030(2) 0.2999(2) 0.57498(18)
H2 H 1.1325 0.3204 0.6111
C6 C 1.1325(2) 0.2373(2) 0.53877(17)
H3 H 1.1816 0.2155 0.5513
C7 C 1.09009(19) 0.20646(17) 0.48410(16)
C8 C 0.8444(2) 0.3148(2) 0.54269(19)
H4 H 0.8643 0.2755 0.5730
H5 H 0.7958 0.2970 0.5211
H6 H 0.8333 0.3609 0.5682
C9 C 0.89350(19) 0.38906(18) 0.44325(16)
C10 C 0.8170(2) 0.4223(2) 0.43169(19)
H7 H 0.7714 0.4061 0.4555
C11 C 0.8135(2) 0.4804(2) 0.3829(2)
H8 H 0.7639 0.5034 0.3736
C12 C 0.8800(2) 0.5050(2) 0.34794(19)
H9 H 0.8765 0.5439 0.3153
C13 C 0.9540(2) 0.46919(19) 0.36329(17)
C14 C 1.0288(3) 0.5377(3) 0.2718(2)
H10 H 0.9863 0.5217 0.2416
H11 H 1.0801 0.5303 0.2498
H12 H 1.0220 0.5913 0.2830
C15 C 1.0979(2) 0.45222(19) 0.35498(17)
C16 C 1.1930(2) 0.36153(19) 0.33157(17)
C17 C 1.2297(2) 0.3719(2) 0.39470(18)
H13 H 1.2756 0.3440 0.4066
C18 C 1.1966(2) 0.4244(2) 0.43903(18)
H14 H 1.2193 0.4322 0.4819
C19 C 1.1287(2) 0.46577(19) 0.41930(18)
H15 H 1.1049 0.5015 0.4485
C20 C 1.2308(4) 0.3216(3) 0.2145(2)
H16 H 1.1837 0.3048 0.1899
H17 H 1.2776 0.2961 0.1964
H18 H 1.2368 0.3764 0.2096
C21 C 1.2104(2) 0.2261(2) 0.30657(17)
C22 C 1.2389(2) 0.1642(2) 0.26719(19)
H19 H 1.2658 0.1723 0.2261
C23 C 1.2253(2) 0.0910(2) 0.29178(19)
H20 H 1.2442 0.0487 0.2671
C24 C 1.1845(2) 0.07857(19) 0.35217(19)
H21 H 1.1744 0.0289 0.3683
C25 C 1.15874(19) 0.14412(19) 0.38818(17)
C26 C 1.1003(2) 0.0644(2) 0.4802(2)
H22 H 1.0619 0.0389 0.4511
H23 H 1.0772 0.0716 0.5247
H24 H 1.1481 0.0334 0.4838
F1 F 0.8178(4) 0.1860(7) 0.4150(8)
F2 F 0.8950(4) 0.1264(6) 0.4850(3)
F3 F 0.8706(4) 0.0952(5) 0.3754(4)
Cl1 Cl 0.96810(14) 0.11481(10) 0.63893(9)
C27 C 0.9664(5) 0.1589(3) 0.7182(3)
H25 H 1.0204 0.1581 0.7375
H26 H 0.9312 0.1300 0.7484
Cl2 Cl 0.9330(4) 0.25344(16) 0.71323(12)
F4? F 0.905(3) 0.0756(8) 0.403(2)
F5? F 0.9207(14) 0.0928(13) 0.4596(18)
F6? F 0.8220(9) 0.1825(8) 0.4430(17)
H27? H 0.9138 0.1504 0.7386
H28? H 1.0061 0.1339 0.7471
Cl3? Cl 0.985(2) 0.2558(6) 0.7176(7)
loop_
_geom_bond_atom_site_label_1
_geom_bond_atom_site_label_2
_geom_bond_site_symmetry_1
_geom_bond_site_symmetry_2
S1 C1 1_555 1_555
N1 C3 1_555 1_555
N2 C9 1_555 1_555
N3 C13 1_555 1_555
N4 C15 1_555 1_555
N5 C16 1_555 1_555
N6 C21 1_555 1_555
N7 C7 1_555 1_555
C1 F1 1_555 1_555
C2 S1 1_555 1_555
C3 C2 1_555 1_555
C4 C3 1_555 1_555
H1 C4 1_555 1_555
C5 C4 1_555 1_555
H2 C5 1_555 1_555
C6 C5 1_555 1_555
H3 C6 1_555 1_555
C7 C2 1_555 1_555
C8 N1 1_555 1_555
H4 C8 1_555 1_555
H5 C8 1_555 1_555
H6 C8 1_555 1_555
C9 N1 1_555 1_555
C10 C9 1_555 1_555
H7 C10 1_555 1_555
C11 C10 1_555 1_555
H8 C11 1_555 1_555
C12 C11 1_555 1_555
H9 C12 1_555 1_555
C13 N2 1_555 1_555
C14 N3 1_555 1_555
H10 C14 1_555 1_555
H11 C14 1_555 1_555
H12 C14 1_555 1_555
C15 N3 1_555 1_555
C16 N4 1_555 1_555
C17 C16 1_555 1_555
H13 C17 1_555 1_555
C18 C17 1_555 1_555
H14 C18 1_555 1_555
C19 C15 1_555 1_555
H15 C19 1_555 1_555
C20 N5 1_555 1_555
H16 C20 1_555 1_555
H17 C20 1_555 1_555
H18 C20 1_555 1_555
C21 N5 1_555 1_555
C22 C21 1_555 1_555
H19 C22 1_555 1_555
C23 C22 1_555 1_555
H20 C23 1_555 1_555
C24 C23 1_555 1_555
H21 C24 1_555 1_555
C25 N6 1_555 1_555
C26 N7 1_555 1_555
H22 C26 1_555 1_555
H23 C26 1_555 1_555
H24 C26 1_555 1_555
F2 C1 1_555 1_555
F3 C1 1_555 1_555
Cl1 C27 1_555 1_555
C27 H25 1_555 1_555
H26 C27 1_555 1_555
Cl2 C27 1_555 1_555
N7 C25 1_555 1_555
C6 C7 1_555 1_555
C12 C13 1_555 1_555
C18 C19 1_555 1_555
C24 C25 1_555 1_555

#END
