
#######################################################################
#
#                 Cambridge Crystallographic Data Centre
#                                CCDC 
#
#######################################################################
#
# If this CIF has been generated from an entry in the Cambridge 
# Structural Database, then it will include bibliographic, chemical, 
# crystal, experimental, refinement or atomic coordinate data resulting 
# from the CCDC's data processing and validation procedures.
#
#######################################################################

data_ENAMOW
_chemical_formula_moiety         'C13 H16 O2'
_chemical_name_systematic        3-(1-Phenylethyl)pentane-2,4-dione
_symmetry_cell_setting           monoclinic
_symmetry_space_group_name_H-M   'P 21/n'
_symmetry_Int_Tables_number      14
_space_group_name_Hall           '-P 2yn'
loop_
_symmetry_equiv_pos_site_id
_symmetry_equiv_pos_as_xyz
1 x,y,z
2 1/2-x,1/2+y,1/2-z
3 -x,-y,-z
4 1/2+x,1/2-y,1/2+z
_cell_length_a                   13.286(3)
_cell_length_b                   5.6083(12)
_cell_length_c                   15.808(3)
_cell_angle_alpha                90
_cell_angle_beta                 95.142(4)
_cell_angle_gamma                90
_cell_volume                     1173.14
_exptl_crystal_colour            colorless
_exptl_crystal_description       needle
_chemical_melting_point          '46-47 deg.C'
_cell_formula_units_Z            4
_exptl_crystal_recrystallization_method sublimation
loop_
_atom_site_label
_atom_site_type_symbol
_atom_site_fract_x
_atom_site_fract_y
_atom_site_fract_z
O1 O 0.8402(3) 0.5999(6) 0.5391(2)
O2 O 0.8669(3) 0.0903(7) 0.3588(2)
C1 C 0.6534(3) 0.2233(9) 0.5731(3)
C2 C 0.6816(3) 0.0443(8) 0.6312(3)
H1 H 0.7215 -0.0809 0.6148
C3 C 0.6521(4) 0.0479(9) 0.7122(3)
H2 H 0.6726 -0.0722 0.7505
C4 C 0.5919(4) 0.2307(9) 0.7363(3)
H3 H 0.5703 0.2336 0.7906
C5 C 0.5644(4) 0.4062(9) 0.6803(3)
H4 H 0.5237 0.5301 0.6965
C6 C 0.5955(4) 0.4042(9) 0.5997(3)
H5 H 0.5767 0.5286 0.5627
C7 C 0.6830(4) 0.2196(13) 0.4822(3)
H6 H 0.6597 0.3770 0.4619
C8 C 0.7863(4) 0.2339(12) 0.4719(3)
H7 H 0.8097 0.0738 0.4890
C9 C 0.8537(3) 0.3903(8) 0.5310(2)
C10 C 0.9381(4) 0.2634(11) 0.5779(3)
H8 H 0.9734 0.3703 0.6176
H9 H 0.9837 0.2059 0.5387
H10 H 0.9123 0.1312 0.6079
C11 C 0.8202(3) 0.2527(9) 0.3832(3)
C12 C 0.7968(5) 0.4657(10) 0.3308(4)
H11 H 0.8365 0.4643 0.2830
H12 H 0.8122 0.6062 0.3641
H13 H 0.7263 0.4655 0.3110
C13 C 0.6178(3) 0.0610(9) 0.4262(3)
H14 H 0.6330 0.0820 0.3684
H15 H 0.5481 0.0998 0.4309
H16 H 0.6299 -0.1019 0.4428
loop_
_geom_bond_atom_site_label_1
_geom_bond_atom_site_label_2
_geom_bond_site_symmetry_1
_geom_bond_site_symmetry_2
O1 C9 1_555 1_555
O2 C11 1_555 1_555
C1 C2 1_555 1_555
C2 H1 1_555 1_555
C3 C2 1_555 1_555
H2 C3 1_555 1_555
C4 C3 1_555 1_555
H3 C4 1_555 1_555
C5 C4 1_555 1_555
H4 C5 1_555 1_555
C6 C1 1_555 1_555
H5 C6 1_555 1_555
C7 C1 1_555 1_555
H6 C7 1_555 1_555
C8 C7 1_555 1_555
H7 C8 1_555 1_555
C9 C8 1_555 1_555
C10 C9 1_555 1_555
H8 C10 1_555 1_555
H9 C10 1_555 1_555
H10 C10 1_555 1_555
C11 C8 1_555 1_555
C12 C11 1_555 1_555
H11 C12 1_555 1_555
H12 C12 1_555 1_555
H13 C12 1_555 1_555
C13 C7 1_555 1_555
H14 C13 1_555 1_555
H15 C13 1_555 1_555
H16 C13 1_555 1_555
C5 C6 1_555 1_555

#END
