
#######################################################################
#
#                 Cambridge Crystallographic Data Centre
#                                CCDC 
#
#######################################################################
#
# If this CIF has been generated from an entry in the Cambridge 
# Structural Database, then it will include bibliographic, chemical, 
# crystal, experimental, refinement or atomic coordinate data resulting 
# from the CCDC's data processing and validation procedures.
#
#######################################################################

data_ENAMOV
_chemical_formula_moiety         'C12 H11 N1 O1 S1'
_chemical_name_systematic        4-(4-Aminophenylsulfanyl)phenol
_symmetry_cell_setting           monoclinic
_symmetry_space_group_name_H-M   'P 21/n'
_symmetry_Int_Tables_number      14
_space_group_name_Hall           '-P 2yn'
loop_
_symmetry_equiv_pos_site_id
_symmetry_equiv_pos_as_xyz
1 x,y,z
2 1/2+x,1/2-y,1/2+z
3 -x,-y,-z
4 1/2-x,1/2+y,1/2-z
_cell_length_a                   9.8597(3)
_cell_length_b                   10.0879(3)
_cell_length_c                   21.8081(7)
_cell_angle_alpha                90
_cell_angle_beta                 102.8090(10)
_cell_angle_gamma                90
_cell_volume                     2115.13
_exptl_crystal_colour            brown
_exptl_crystal_description       plate
_chemical_melting_point          '147-148 deg.C'
_cell_formula_units_Z            8
loop_
_atom_site_label
_atom_site_type_symbol
_atom_site_fract_x
_atom_site_fract_y
_atom_site_fract_z
S1 S 0.36667(5) 0.43383(5) 0.15261(2)
O1 O 0.13888(15) 0.87741(13) -0.01699(7)
H1 H 0.043(3) 0.873(3) -0.0384(13)
N1 N 0.36846(18) 0.6137(2) 0.41574(8)
H2 H 0.322(2) 0.688(2) 0.4170(10)
H3 H 0.344(2) 0.561(2) 0.4382(12)
C13 C 0.09929(19) 0.67359(18) 0.03483(8)
H15 H 0.0029 0.6745 0.0155
C14 C 0.15417(19) 0.57264(18) 0.07614(8)
H16 H 0.0949 0.5047 0.0853
C15 C 0.18623(18) 0.77367(18) 0.02177(8)
C16 C 0.29565(19) 0.57007(17) 0.10434(8)
C17 C 0.38184(18) 0.67048(18) 0.09125(8)
H17 H 0.4784 0.6692 0.1102
C18 C 0.32680(19) 0.77246(18) 0.05056(8)
H18 H 0.3856 0.8418 0.0424
C19 C 0.35617(19) 0.62549(18) 0.24434(9)
H19 H 0.3481 0.6906 0.2122
C20 C 0.35698(18) 0.66390(19) 0.30545(8)
H20 H 0.3501 0.7553 0.3148
C21 C 0.36763(18) 0.57120(19) 0.35309(8)
C22 C 0.38223(19) 0.43809(19) 0.33917(9)
H21 H 0.3922 0.3735 0.3716
C23 C 0.38223(18) 0.39944(18) 0.27807(9)
H22 H 0.3927 0.3083 0.2691
C24 C 0.36710(17) 0.49237(18) 0.22973(8)
C1 C 0.8648(2) 0.45932(19) 0.22394(9)
C2 C 0.7423(2) 0.4970(2) 0.24134(9)
H4 H 0.6557 0.4878 0.2121
C3 C 0.9903(2) 0.4713(2) 0.26754(10)
H5 H 1.0748 0.4478 0.2561
C4 C 0.9928(2) 0.5174(2) 0.32778(9)
H6 H 1.0788 0.5220 0.3577
C5 C 0.8716(2) 0.5569(2) 0.34487(9)
C6 C 0.7453(2) 0.5474(2) 0.30017(10)
H7 H 0.6614 0.5759 0.3107
C7 C 0.7956(2) 0.55246(18) 0.10347(9)
C8 C 0.7053(2) 0.54224(19) 0.04500(9)
H8 H 0.6771 0.4574 0.0279
C9 C 0.6559(2) 0.6562(2) 0.01126(9)
H9 H 0.5954 0.6492 -0.0291
C10 C 0.69519(19) 0.77948(19) 0.03674(9)
C11 C 0.7873(2) 0.79007(19) 0.09472(9)
H10 H 0.8161 0.8749 0.1116
C12 C 0.8370(2) 0.67710(19) 0.12779(9)
H11 H 0.9001 0.6845 0.1675
S2 S 0.85948(5) 0.40541(5) 0.14567(2)
O2 O 0.64048(15) 0.89110(14) 0.00399(7)
H12 H 0.648(3) 0.969(3) 0.0307(15)
N2 N 0.8723(2) 0.5976(2) 0.40686(9)
H13 H 0.964(3) 0.621(3) 0.4289(14)
H14 H 0.815(3) 0.660(3) 0.4046(15)
loop_
_geom_bond_atom_site_label_1
_geom_bond_atom_site_label_2
_geom_bond_site_symmetry_1
_geom_bond_site_symmetry_2
S1 C16 1_555 1_555
O1 H1 1_555 1_555
N1 H2 1_555 1_555
H3 N1 1_555 1_555
C1 C2 1_555 1_555
C2 H4 1_555 1_555
C3 C1 1_555 1_555
H5 C3 1_555 1_555
C4 C3 1_555 1_555
H6 C4 1_555 1_555
C5 C4 1_555 1_555
C6 C2 1_555 1_555
H7 C6 1_555 1_555
C7 C8 1_555 1_555
C8 H8 1_555 1_555
C9 C8 1_555 1_555
H9 C9 1_555 1_555
C10 C9 1_555 1_555
C11 C10 1_555 1_555
H10 C11 1_555 1_555
C12 C7 1_555 1_555
H11 C12 1_555 1_555
S2 C1 1_555 1_555
O2 C10 1_555 1_555
H12 O2 1_555 1_555
N2 C5 1_555 1_555
H13 N2 1_555 1_555
H14 N2 1_555 1_555
C13 H15 1_555 1_555
C14 C13 1_555 1_555
H16 C14 1_555 1_555
C15 O1 1_555 1_555
C16 C14 1_555 1_555
C17 C16 1_555 1_555
H17 C17 1_555 1_555
C18 C15 1_555 1_555
H18 C18 1_555 1_555
C19 H19 1_555 1_555
C20 C19 1_555 1_555
H20 C20 1_555 1_555
C21 N1 1_555 1_555
C22 C21 1_555 1_555
H21 C22 1_555 1_555
C23 C22 1_555 1_555
H22 C23 1_555 1_555
C24 S1 1_555 1_555
C5 C6 1_555 1_555
C7 S2 1_555 1_555
C11 C12 1_555 1_555
C13 C15 1_555 1_555
C17 C18 1_555 1_555
C19 C24 1_555 1_555
C20 C21 1_555 1_555
C23 C24 1_555 1_555

#END
