
#######################################################################
#
#                 Cambridge Crystallographic Data Centre
#                                CCDC 
#
#######################################################################
#
# If this CIF has been generated from an entry in the Cambridge 
# Structural Database, then it will include bibliographic, chemical, 
# crystal, experimental, refinement or atomic coordinate data resulting 
# from the CCDC's data processing and validation procedures.
#
#######################################################################

data_ENANUC
_chemical_formula_moiety         'C12 H11 N1 O2'
_chemical_name_systematic        4-(4-Aminophenoxy)phenol
_symmetry_cell_setting           monoclinic
_symmetry_space_group_name_H-M   'C c'
_symmetry_Int_Tables_number      9
_space_group_name_Hall           'C -2yc'
loop_
_symmetry_equiv_pos_site_id
_symmetry_equiv_pos_as_xyz
1 x,y,z
2 x,-y,1/2+z
3 1/2+x,1/2+y,z
4 1/2+x,1/2-y,1/2+z
_cell_length_a                   22.4911(11)
_cell_length_b                   5.4647(2)
_cell_length_c                   8.0466(4)
_cell_angle_alpha                90
_cell_angle_beta                 95.674(2)
_cell_angle_gamma                90
_cell_volume                     984.139
_exptl_crystal_colour            brown
_exptl_crystal_description       plate
_chemical_melting_point          '155-157 deg.C'
_cell_formula_units_Z            4
loop_
_atom_site_label
_atom_site_type_symbol
_atom_site_fract_x
_atom_site_fract_y
_atom_site_fract_z
O1 O 0.92718(5) 0.7725(2) -0.09835(12)
O2 O 0.70197(5) 0.7173(2) 0.12127(13)
N1 N 1.15842(5) 0.7713(3) 0.23064(15)
C1 C 0.80275(6) 0.5530(3) 0.12867(17)
C2 C 0.75993(6) 0.7297(2) 0.07882(15)
C3 C 0.83236(6) 0.9473(3) -0.06684(16)
C4 C 1.05708(6) 0.9393(3) 0.19544(17)
C5 C 0.77503(6) 0.9291(3) -0.01592(17)
C6 C 0.86013(6) 0.5699(3) 0.07766(16)
C7 C 1.02099(7) 0.5756(3) -0.03498(18)
C8 C 0.99894(6) 0.9387(3) 0.11684(17)
C9 C 0.98179(6) 0.7591(2) 0.00019(16)
C10 C 1.07921(6) 0.5766(3) 0.04450(17)
C11 C 0.87395(6) 0.7654(3) -0.02328(16)
C12 C 1.09766(6) 0.7596(3) 0.15765(15)
H1 H 1.0685(11) 1.061(4) 0.274(3)
H2 H 0.7933(9) 0.420(4) 0.200(3)
H3 H 0.7449(9) 1.051(4) -0.048(3)
H4 H 0.9717(9) 1.063(4) 0.141(3)
H5 H 0.8413(9) 1.085(4) -0.138(3)
H6 H 0.8915(10) 0.450(4) 0.109(2)
H7 H 1.0076(10) 0.454(5) -0.114(3)
H8 H 1.1075(10) 0.438(4) 0.022(3)
H9 H 1.1599(9) 0.804(4) 0.342(3)
H10 H 1.1771(10) 0.625(4) 0.212(3)
H11 H 0.6953(11) 0.571(5) 0.159(3)
loop_
_geom_bond_atom_site_label_1
_geom_bond_atom_site_label_2
_geom_bond_site_symmetry_1
_geom_bond_site_symmetry_2
O1 C9 1_555 1_555
O2 C2 1_555 1_555
N1 C12 1_555 1_555
C1 C2 1_555 1_555
C2 C5 1_555 1_555
C3 C5 1_555 1_555
C4 C8 1_555 1_555
C5 H3 1_555 1_555
C6 C1 1_555 1_555
C7 C9 1_555 1_555
C8 C9 1_555 1_555
C10 C7 1_555 1_555
C11 O1 1_555 1_555
C12 C4 1_555 1_555
H1 C4 1_555 1_555
H2 C1 1_555 1_555
H4 C8 1_555 1_555
H5 C3 1_555 1_555
H6 C6 1_555 1_555
H7 C7 1_555 1_555
H8 C10 1_555 1_555
H9 N1 1_555 1_555
H10 N1 1_555 1_555
H11 O2 1_555 1_555
C3 C11 1_555 1_555
C6 C11 1_555 1_555
C10 C12 1_555 1_555

#END
