
#######################################################################
#
#                 Cambridge Crystallographic Data Centre
#                                CCDC 
#
#######################################################################
#
# If this CIF has been generated from an entry in the Cambridge 
# Structural Database, then it will include bibliographic, chemical, 
# crystal, experimental, refinement or atomic coordinate data resulting 
# from the CCDC's data processing and validation procedures.
#
#######################################################################

data_ENANOW
_chemical_formula_moiety         'C14 H13 N1 O1'
_chemical_name_systematic        4-((E)-2-(4-Aminophenyl)ethenyl)phenol
_symmetry_cell_setting           monoclinic
_symmetry_space_group_name_H-M   'P c'
_symmetry_Int_Tables_number      7
_space_group_name_Hall           'P -2yc'
loop_
_symmetry_equiv_pos_site_id
_symmetry_equiv_pos_as_xyz
1 x,y,z
2 x,-y,1/2+z
_cell_length_a                   12.951(8)
_cell_length_b                   5.226(3)
_cell_length_c                   8.046(3)
_cell_angle_alpha                90
_cell_angle_beta                 98.12(3)
_cell_angle_gamma                90
_cell_volume                     539.109
_exptl_crystal_colour            yellow
_exptl_crystal_description       plate
_chemical_melting_point          '272-275 deg.C'
_cell_formula_units_Z            2
loop_
_atom_site_label
_atom_site_type_symbol
_atom_site_fract_x
_atom_site_fract_y
_atom_site_fract_z
C1 C -0.1386(2) 0.4428(6) 0.0645(4)
C2 C 0.4666(3) 0.0367(6) 0.3341(4)
C3 C 0.4640(3) 0.4144(7) 0.5032(4)
O1 O 0.62223(17) 0.1762(4) 0.5167(3)
C4 C 0.3590(3) 0.4477(6) 0.4398(4)
C5 C 0.1967(2) 0.3231(6) 0.2591(4)
C6 C 0.1385(3) 0.1912(6) 0.1380(4)
N1 N -0.2958(2) 0.2756(6) -0.1047(3)
C7 C -0.1274(3) 0.0682(6) -0.1041(4)
C8 C -0.0217(3) 0.0516(6) -0.0433(4)
C9 C 0.0282(2) 0.2251(5) 0.0737(4)
C10 C 0.3066(2) 0.2788(5) 0.3230(4)
C11 C 0.3635(3) 0.0710(6) 0.2713(4)
C12 C -0.0334(3) 0.4246(6) 0.1253(4)
C13 C 0.5174(2) 0.2071(6) 0.4511(4)
C14 C -0.1871(2) 0.2651(6) -0.0501(4)
H1 H 0.165(3) 0.474(7) 0.307(5)
H2 H 0.324(2) 0.606(5) 0.476(4)
H3 H 0.501(3) 0.526(6) 0.576(5)
H4 H 0.027(2) -0.084(6) -0.081(4)
H5 H 0.328(3) -0.063(6) 0.175(5)
H6 H 0.164(3) 0.062(7) 0.088(5)
H7 H -0.183(3) 0.576(6) 0.101(5)
H8 H 0.001(3) 0.548(6) 0.201(4)
H9 H 0.509(3) -0.113(7) 0.296(5)
H10 H -0.169(3) -0.068(7) -0.195(5)
H11 H -0.325(3) 0.420(8) -0.088(6)
H12 H 0.650(3) 0.036(8) 0.465(6)
H13 H -0.314(3) 0.234(7) -0.220(4)
loop_
_geom_bond_atom_site_label_1
_geom_bond_atom_site_label_2
_geom_bond_site_symmetry_1
_geom_bond_site_symmetry_2
C1 C12 1_555 1_555
C2 C11 1_555 1_555
C3 C4 1_555 1_555
O1 C13 1_555 1_555
C4 C10 1_555 1_555
C5 C6 1_555 1_555
C6 C9 1_555 1_555
N1 C14 1_555 1_555
C7 C8 1_555 1_555
C8 C9 1_555 1_555
C9 C12 1_555 1_555
C10 C5 1_555 1_555
C11 C10 1_555 1_555
C12 H8 1_555 1_555
C13 C2 1_555 1_555
C14 C1 1_555 1_555
H1 C5 1_555 1_555
H2 C4 1_555 1_555
H3 C3 1_555 1_555
H4 C8 1_555 1_555
H5 C11 1_555 1_555
H6 C6 1_555 1_555
H7 C1 1_555 1_555
H9 C2 1_555 1_555
H10 C7 1_555 1_555
H11 N1 1_555 1_555
H12 O1 1_555 1_555
H13 N1 1_555 1_555
C3 C13 1_555 1_555
C7 C14 1_555 1_555

#END
