
#######################################################################
#
#                 Cambridge Crystallographic Data Centre
#                                CCDC 
#
#######################################################################
#
# If this CIF has been generated from an entry in the Cambridge 
# Structural Database, then it will include bibliographic, chemical, 
# crystal, experimental, refinement or atomic coordinate data resulting 
# from the CCDC's data processing and validation procedures.
#
#######################################################################

data_ENAPAK
_chemical_formula_moiety         'C12 H11 N1 O1'
_chemical_name_systematic        4-(3-Aminophenyl)phenol
_symmetry_cell_setting           orthorhombic
_symmetry_space_group_name_H-M   'P c a 21'
_symmetry_Int_Tables_number      29
_space_group_name_Hall           'P 2c -2ac'
loop_
_symmetry_equiv_pos_site_id
_symmetry_equiv_pos_as_xyz
1 x,y,z
2 -x,-y,1/2+z
3 1/2+x,-y,z
4 1/2-x,y,1/2+z
_cell_length_a                   19.2352(8)
_cell_length_b                   6.0039(3)
_cell_length_c                   8.1627(4)
_cell_angle_alpha                90
_cell_angle_beta                 90
_cell_angle_gamma                90
_cell_volume                     942.679
_exptl_crystal_colour            brown
_exptl_crystal_description       plate
_chemical_melting_point          '180-185 deg.C'
_cell_formula_units_Z            4
loop_
_atom_site_label
_atom_site_type_symbol
_atom_site_fract_x
_atom_site_fract_y
_atom_site_fract_z
O1 O 0.31922(6) 1.0099(2) 0.19993(18)
H1 H 0.3066(9) 0.917(3) 0.284(3)
N1 N 0.76189(8) 1.2374(3) 0.4411(2)
H2 H 0.7459(14) 1.143(3) 0.515(3)
H3 H 0.7946(11) 1.334(4) 0.489(3)
C1 C 0.38487(8) 1.0934(3) 0.2158(2)
C2 C 0.40384(10) 1.2713(3) 0.1190(2)
H4 H 0.3711 1.3343 0.0452
C3 C 0.47037(9) 1.3589(3) 0.1286(2)
H5 H 0.4825 1.4805 0.0598
C4 C 0.52001(9) 1.2740(3) 0.2364(2)
C5 C 0.49886(9) 1.0969(3) 0.3349(3)
H6 H 0.5309 1.0370 0.4116
C6 C 0.43293(8) 1.0049(3) 0.3253(3)
H7 H 0.4206 0.8824 0.3930
C7 C 0.59105(9) 1.3718(3) 0.2485(2)
C8 C 0.64353(9) 1.2624(3) 0.3363(2)
H8 H 0.6341 1.1211 0.3838
C9 C 0.70919(9) 1.3567(3) 0.3554(2)
C10 C 0.72411(10) 1.5617(3) 0.2838(2)
H9 H 0.7688 1.6270 0.2965
C11 C 0.67326(9) 1.6689(3) 0.1943(3)
H10 H 0.6835 1.8077 0.1439
C12 C 0.60728(10) 1.5769(3) 0.1766(2)
H11 H 0.5729 1.6541 0.1151
loop_
_geom_bond_atom_site_label_1
_geom_bond_atom_site_label_2
_geom_bond_site_symmetry_1
_geom_bond_site_symmetry_2
O1 H1 1_555 1_555
N1 H2 1_555 1_555
H3 N1 1_555 1_555
C1 O1 1_555 1_555
C2 C1 1_555 1_555
H4 C2 1_555 1_555
C3 C2 1_555 1_555
H5 C3 1_555 1_555
C4 C3 1_555 1_555
C5 C4 1_555 1_555
H6 C5 1_555 1_555
C6 C1 1_555 1_555
H7 C6 1_555 1_555
C7 C4 1_555 1_555
C8 C7 1_555 1_555
H8 C8 1_555 1_555
C9 N1 1_555 1_555
C10 C9 1_555 1_555
H9 C10 1_555 1_555
C11 C10 1_555 1_555
H10 C11 1_555 1_555
C12 C7 1_555 1_555
H11 C12 1_555 1_555
C5 C6 1_555 1_555
C8 C9 1_555 1_555
C11 C12 1_555 1_555

#END
