
#######################################################################
#
#                 Cambridge Crystallographic Data Centre
#                                CCDC 
#
#######################################################################
#
# If this CIF has been generated from an entry in the Cambridge 
# Structural Database, then it will include bibliographic, chemical, 
# crystal, experimental, refinement or atomic coordinate data resulting 
# from the CCDC's data processing and validation procedures.
#
#######################################################################

data_ENASAP
_chemical_formula_moiety         'C19 H15 O1 P1'
_chemical_name_systematic        4-(diphenylphosphino)benzaldehyde
_symmetry_cell_setting           orthorhombic
_symmetry_space_group_name_H-M   'P b c a'
_symmetry_Int_Tables_number      61
_space_group_name_Hall           '-P 2ac 2ab'
loop_
_symmetry_equiv_pos_site_id
_symmetry_equiv_pos_as_xyz
1 x,y,z
2 1/2-x,-y,1/2+z
3 -x,1/2+y,1/2-z
4 1/2+x,1/2-y,-z
5 -x,-y,-z
6 1/2+x,y,1/2-z
7 x,1/2-y,1/2+z
8 1/2-x,1/2+y,z
_cell_length_a                   10.1947(6)
_cell_length_b                   8.7300(5)
_cell_length_c                   34.4274(16)
_cell_angle_alpha                90
_cell_angle_beta                 90
_cell_angle_gamma                90
_cell_volume                     3064.03
_exptl_crystal_colour            colorless
_exptl_crystal_description       block
_cell_formula_units_Z            8
loop_
_atom_site_label
_atom_site_type_symbol
_atom_site_fract_x
_atom_site_fract_y
_atom_site_fract_z
C1 C 0.6432(3) -0.1884(3) 0.50054(8)
H1 H 0.5676 -0.2400 0.5081
C2 C 0.4428(3) 0.5967(3) 0.35420(8)
H2 H 0.4421 0.6835 0.3385
C3 C 0.5170(3) 0.4710(3) 0.34345(7)
H3 H 0.5669 0.4748 0.3209
C4 C 0.5177(2) 0.3391(2) 0.36607(6)
C5 C 0.4438(2) 0.3405(3) 0.39989(7)
H4 H 0.4434 0.2545 0.4158
C6 C 0.3707(3) 0.4670(3) 0.41030(8)
H5 H 0.3213 0.4649 0.4330
C7 C 0.3704(3) 0.5948(3) 0.38769(8)
H6 H 0.3214 0.6800 0.3949
C8 C 0.3184(3) 0.0032(3) 0.28615(7)
H7 H 0.2294 0.0209 0.2823
C9 C 0.3789(3) -0.1126(3) 0.26639(7)
H8 H 0.3317 -0.1732 0.2491
C10 C 0.5093(3) -0.1385(3) 0.27226(7)
H9 H 0.5514 -0.2171 0.2590
C11 C 0.5788(3) -0.0480(3) 0.29789(7)
H10 H 0.6677 -0.0665 0.3016
C12 C 0.5190(2) 0.0695(3) 0.31822(5)
C13 C 0.3872(2) 0.0941(3) 0.31175(7)
H11 H 0.3443 0.1729 0.3248
C14 C 0.7448(3) -0.0173(3) 0.45135(7)
H12 H 0.8210 -0.0148 0.4662
C15 C 0.7387(2) 0.0641(3) 0.41680(6)
H13 H 0.8107 0.1212 0.4087
C16 C 0.6263(2) 0.0612(2) 0.39411(6)
C17 C 0.5214(2) -0.0283(3) 0.40639(7)
H14 H 0.4466 -0.0351 0.3910
C18 C 0.5269(2) -0.1077(3) 0.44122(7)
H15 H 0.4551 -0.1650 0.4494
C19 C 0.6388(3) -0.1017(3) 0.46381(7)
O1 O 0.7372(3) -0.1974(3) 0.52150(5)
P1 P 0.62431(5) 0.18189(7) 0.35051(2)
loop_
_geom_bond_atom_site_label_1
_geom_bond_atom_site_label_2
_geom_bond_site_symmetry_1
_geom_bond_site_symmetry_2
C1 H1 1_555 1_555
C2 H2 1_555 1_555
C3 C2 1_555 1_555
H3 C3 1_555 1_555
C4 C3 1_555 1_555
C5 C4 1_555 1_555
H4 C5 1_555 1_555
C6 C5 1_555 1_555
H5 C6 1_555 1_555
C7 C2 1_555 1_555
H6 C7 1_555 1_555
C8 H7 1_555 1_555
C9 C8 1_555 1_555
H8 C9 1_555 1_555
C10 C9 1_555 1_555
H9 C10 1_555 1_555
C11 C10 1_555 1_555
H10 C11 1_555 1_555
C12 C11 1_555 1_555
C13 C8 1_555 1_555
H11 C13 1_555 1_555
C14 H12 1_555 1_555
C15 C14 1_555 1_555
H13 C15 1_555 1_555
C16 C15 1_555 1_555
C17 C16 1_555 1_555
H14 C17 1_555 1_555
C18 C17 1_555 1_555
H15 C18 1_555 1_555
C19 C1 1_555 1_555
O1 C1 1_555 1_555
P1 C4 1_555 1_555
C6 C7 1_555 1_555
C12 C13 1_555 1_555
C12 P1 1_555 1_555
C14 C19 1_555 1_555
C16 P1 1_555 1_555
C18 C19 1_555 1_555

#END
