
#######################################################################
#
#                 Cambridge Crystallographic Data Centre
#                                CCDC 
#
#######################################################################
#
# If this CIF has been generated from an entry in the Cambridge 
# Structural Database, then it will include bibliographic, chemical, 
# crystal, experimental, refinement or atomic coordinate data resulting 
# from the CCDC's data processing and validation procedures.
#
#######################################################################

data_ENEBEE
_chemical_name_common            
'C-Methylcalix(4)resorcinarene bis(bis(1-(pyridin-4-yl)ethylidene)hydrazine) benzil ethanol clathrate'
_chemical_formula_moiety         'C32 H32 O8,2(C14 H14 N4),C14 H10 O2,C2 H6 O1'
_chemical_name_systematic        
'2,8,14,20-Tetramethyl-4,6,10,12,16,18,22,24-octahydroxycalix(4)arene bis(bis(1-(pyridin-4-yl)ethylidene)hydrazine) benzil ethanol clathrate'
_symmetry_cell_setting           monoclinic
_symmetry_space_group_name_H-M   'P 21/m'
_symmetry_Int_Tables_number      11
_space_group_name_Hall           '-P 2yb'
loop_
_symmetry_equiv_pos_site_id
_symmetry_equiv_pos_as_xyz
1 x,y,z
2 -x,1/2+y,-z
3 -x,-y,-z
4 x,1/2-y,z
_cell_length_a                   11.1489(13)
_cell_length_b                   22.831(3)
_cell_length_c                   13.3360(13)
_cell_angle_alpha                90
_cell_angle_beta                 103.368(3)
_cell_angle_gamma                90
_cell_volume                     3302.58
_exptl_crystal_colour            orange
_exptl_crystal_description       block
_cell_formula_units_Z            2
loop_
_atom_site_label
_atom_site_type_symbol
_atom_site_fract_x
_atom_site_fract_y
_atom_site_fract_z
O3 O 0.5830(4) 0.7500 0.5136(3)
H8 H 0.5091 0.7500 0.4864
C12 C 0.6499(5) 0.7500 0.4381(3)
C13 C 0.7824(6) 0.7500 0.4914(4)
H9 H 0.866(2) 0.7201(11) 0.5331(18)
H10 H 0.633(4) 0.7136(19) 0.387(3)
H11 H 0.854(11) 0.7500 0.457(3)
H9C H 0.866(2) 0.7799(11) 0.5331(18)
H10C H 0.633(4) 0.7864(19) 0.387(3)
N1 N 0.89960(12) 0.54915(6) 0.53008(10)
N2 N 1.40883(13) 0.43267(7) 1.33584(10)
N3 N 1.10138(13) 0.50173(6) 0.89129(10)
N4 N 1.18289(13) 0.49504(6) 0.98709(10)
C14 C 0.88059(15) 0.50685(7) 0.59445(12)
C15 C 0.95969(14) 0.49648(7) 0.68893(12)
H12 H 0.942(2) 0.4661(11) 0.7338(18)
C16 C 1.06504(14) 0.53100(7) 0.71927(11)
C17 C 1.08547(15) 0.57467(8) 0.65228(12)
C18 C 1.00045(15) 0.58240(8) 0.55942(13)
H13 H 1.012(2) 0.6114(10) 0.5136(17)
C19 C 1.15162(14) 0.52083(7) 0.82044(12)
C20 C 1.28712(16) 0.53138(10) 0.83351(15)
C21 C 1.16199(14) 0.45007(7) 1.03822(11)
C22 C 1.06509(17) 0.40522(8) 0.99942(14)
C23 C 1.24640(14) 0.44364(7) 1.14182(11)
C24 C 1.22510(16) 0.40320(8) 1.21380(12)
H14 H 1.153(2) 0.3767(11) 1.2005(19)
C25 C 1.30786(16) 0.39941(8) 1.30905(13)
C26 C 1.42902(15) 0.47166(7) 1.26645(12)
C27 C 1.35145(15) 0.47850(7) 1.17005(12)
H15 H 0.804(2) 0.4840(11) 0.5683(18)
H16 H 1.504(2) 0.4958(10) 1.2889(16)
H17 H 1.373(2) 0.5084(10) 1.1223(17)
H18 H 1.292(2) 0.3726(12) 1.361(2)
H19 H 1.152(2) 0.6016(11) 0.6704(18)
H20 H 1.308(3) 0.5530(14) 0.780(2)
H21 H 0.995(3) 0.4220(14) 0.948(2)
H22 H 1.316(3) 0.5539(14) 0.895(2)
H23 H 1.028(3) 0.3904(15) 1.050(2)
H24 H 1.334(3) 0.4914(16) 0.841(3)
H25 H 1.099(3) 0.3729(18) 0.971(3)
O4 O 0.23280(11) 0.64701(6) 0.51534(9)
O5 O 0.42479(10) 0.58163(5) 0.48345(9)
O6 O 0.78161(10) 0.57494(5) 0.34130(9)
O7 O 0.93025(11) 0.64711(6) 0.26610(10)
C28 C 0.2299(2) 0.7500 0.50938(17)
C29 C 0.24381(13) 0.69729(7) 0.46160(12)
C30 C 0.26875(13) 0.69618(7) 0.36324(11)
C31 C 0.28198(18) 0.7500 0.31738(16)
H26 H 0.304(3) 0.7500 0.248(2)
C32 C 0.28041(13) 0.63864(6) 0.30827(11)
H27 H 0.2430(18) 0.6082(9) 0.3423(15)
C33 C 0.20446(14) 0.63879(7) 0.19655(12)
H28 H 0.2331(18) 0.6691(9) 0.1545(15)
C34 C 0.41485(13) 0.62271(6) 0.31705(11)
C35 C 0.48252(13) 0.59502(7) 0.40558(11)
C36 C 0.60460(14) 0.57888(7) 0.41399(11)
H29 H 0.645(2) 0.5583(10) 0.4721(17)
C37 C 0.66242(13) 0.59194(7) 0.33471(11)
C38 C 0.59935(13) 0.62097(6) 0.24562(11)
C39 C 0.47608(13) 0.63511(6) 0.23939(11)
H30 H 0.4310(19) 0.6556(9) 0.1777(16)
C40 C 0.66744(13) 0.63848(7) 0.16326(11)
H31 H 0.7285(18) 0.6063(9) 0.1627(15)
C41 C 0.58412(15) 0.63985(7) 0.05421(12)
H32 H 0.5199(19) 0.6686(9) 0.0441(16)
H33 H 0.632(2) 0.6484(10) 0.0032(17)
C42 C 0.73636(13) 0.69620(7) 0.19146(11)
C43 C 0.67684(19) 0.7500 0.17037(16)
H34 H 0.592(3) 0.7500 0.137(2)
C44 C 0.86226(14) 0.69727(7) 0.23996(12)
C45 C 0.9244(2) 0.7500 0.26274(17)
H35 H 1.011(3) 0.7500 0.295(2)
H36 H 0.216(3) 0.7500 0.579(2)
H37 H 0.285(2) 0.6210(12) 0.5003(19)
H38 H 0.117(2) 0.6457(10) 0.1980(18)
H39 H 0.542(2) 0.6011(10) 0.0381(17)
H40 H 0.213(2) 0.5995(11) 0.1626(18)
H41 H 0.815(3) 0.5634(14) 0.406(2)
H42 H 0.884(2) 0.6217(12) 0.2849(19)
H43 H 0.482(3) 0.5758(13) 0.544(2)
C29C C 0.24381(13) 0.80271(7) 0.46160(12)
O4C O 0.23280(11) 0.85299(6) 0.51534(9)
H37C H 0.285(2) 0.8790(12) 0.5003(19)
C30C C 0.26875(13) 0.80382(7) 0.36324(11)
C42C C 0.73636(13) 0.80380(7) 0.19146(11)
C40C C 0.66744(13) 0.86152(7) 0.16326(11)
C38C C 0.59935(13) 0.87903(6) 0.24562(11)
C37C C 0.66242(13) 0.90806(7) 0.33471(11)
O6C O 0.78161(10) 0.92506(5) 0.34130(9)
H41C H 0.815(3) 0.9366(14) 0.406(2)
C36C C 0.60460(14) 0.92112(7) 0.41399(11)
C35C C 0.48252(13) 0.90498(7) 0.40558(11)
O5C O 0.42479(10) 0.91837(5) 0.48345(9)
H43C H 0.482(3) 0.9242(13) 0.544(2)
C34C C 0.41485(13) 0.87729(6) 0.31705(11)
C32C C 0.28041(13) 0.86136(6) 0.30827(11)
H27C H 0.2430(18) 0.8918(9) 0.3423(15)
C33C C 0.20446(14) 0.86121(7) 0.19655(12)
H28C H 0.2331(18) 0.8309(9) 0.1545(15)
H38C H 0.117(2) 0.8543(10) 0.1980(18)
H40C H 0.213(2) 0.9005(11) 0.1626(18)
C39C C 0.47608(13) 0.86489(6) 0.23939(11)
H30C H 0.4310(19) 0.8444(9) 0.1777(16)
H29C H 0.645(2) 0.9417(10) 0.4721(17)
H31C H 0.7285(18) 0.8937(9) 0.1627(15)
C41C C 0.58412(15) 0.86015(7) 0.05421(12)
H32C H 0.5199(19) 0.8314(9) 0.0441(16)
H33C H 0.632(2) 0.8516(10) 0.0032(17)
H39C H 0.542(2) 0.8989(10) 0.0381(17)
C44C C 0.86226(14) 0.80273(7) 0.23996(12)
O7C O 0.93025(11) 0.85289(6) 0.26610(10)
H42C H 0.884(2) 0.8783(12) 0.2849(19)
O1 O 0.2682(2) 0.7500 0.02685(15)
O2 O 0.2160(3) 0.65269(12) -0.1479(3)
C1 C 0.0616(3) 0.7500 -0.0746(2)
C2 C 0.0043(3) 0.7500 0.00729(19)
C3 C -0.1228(3) 0.7500 -0.0125(2)
C4 C -0.1933(3) 0.7500 -0.1129(2)
C5 C -0.1365(3) 0.7500 -0.1948(2)
C6 C -0.0100(3) 0.7500 -0.1757(2)
C7 C 0.1973(3) 0.7500 -0.0530(3)
C8 C 0.2513(4) 0.70318(15) -0.1323(3)
C9 C 0.3530(3) 0.72010(16) -0.17601(18)
C10 C 0.4198(4) 0.69074(15) -0.2341(2)
C11 C 0.4886(2) 0.72003(10) -0.29146(17)
H1 H 0.532(3) 0.7012(13) -0.339(2)
H2 H 0.058(4) 0.7500 0.079(3)
H3 H -0.284(4) 0.7500 -0.128(3)
H4 H -0.164(4) 0.7500 0.045(4)
H5 H -0.181(4) 0.7500 -0.266(3)
H6 H 0.040(6) 0.7500 -0.226(5)
H7 H 0.427(4) 0.653(2) -0.236(4)
C9C C 0.3530(3) 0.77990(16) -0.17601(18)
C8C C 0.2513(4) 0.79682(15) -0.1323(3)
O2C O 0.2160(3) 0.84731(12) -0.1479(3)
C10C C 0.4198(4) 0.80926(15) -0.2341(2)
C11C C 0.4886(2) 0.77997(10) -0.29146(17)
H1C H 0.532(3) 0.7988(13) -0.339(2)
H7C H 0.427(4) 0.847(2) -0.236(4)
loop_
_geom_bond_atom_site_label_1
_geom_bond_atom_site_label_2
_geom_bond_site_symmetry_1
_geom_bond_site_symmetry_2
O1 C7 1_555 1_555
O2 C8 1_555 1_555
C1 C2 1_555 1_555
C2 C3 1_555 1_555
C3 C4 1_555 1_555
C4 C5 1_555 1_555
C5 C6 1_555 1_555
C6 C1 1_555 1_555
C7 C1 1_555 1_555
C8 C7 1_555 1_555
C9 C8 1_555 1_555
C10 C9 1_555 1_555
C11 C10 1_555 1_555
H1 C11 1_555 1_555
H2 C2 1_555 1_555
H3 C4 1_555 1_555
H4 C3 1_555 1_555
H5 C5 1_555 1_555
H6 C6 1_555 1_555
H7 C10 1_555 1_555
O3 H8 1_555 1_555
C12 O3 1_555 1_555
C13 C12 1_555 1_555
H9 C13 1_555 1_555
H10 C12 1_555 1_555
H11 C13 1_555 1_555
N1 C14 1_555 1_555
N2 C25 1_555 1_555
N3 N4 1_555 1_555
N4 C21 1_555 1_555
C14 C15 1_555 1_555
C15 H12 1_555 1_555
C16 C15 1_555 1_555
C17 C16 1_555 1_555
C18 N1 1_555 1_555
H13 C18 1_555 1_555
C19 N3 1_555 1_555
C20 C19 1_555 1_555
C21 C22 1_555 1_555
C22 H21 1_555 1_555
C23 C21 1_555 1_555
C24 C23 1_555 1_555
H14 C24 1_555 1_555
C25 C24 1_555 1_555
C26 N2 1_555 1_555
C27 C23 1_555 1_555
H15 C14 1_555 1_555
H16 C26 1_555 1_555
H17 C27 1_555 1_555
H18 C25 1_555 1_555
H19 C17 1_555 1_555
H20 C20 1_555 1_555
H22 C20 1_555 1_555
H23 C22 1_555 1_555
H24 C20 1_555 1_555
H25 C22 1_555 1_555
O4 C29 1_555 1_555
O5 C35 1_555 1_555
O6 C37 1_555 1_555
O7 C44 1_555 1_555
C28 C29 1_555 1_555
C29 C30 1_555 1_555
C30 C31 1_555 1_555
C31 H26 1_555 1_555
C32 C30 1_555 1_555
H27 C32 1_555 1_555
C33 C32 1_555 1_555
H28 C33 1_555 1_555
C34 C32 1_555 1_555
C35 C34 1_555 1_555
C36 C35 1_555 1_555
H29 C36 1_555 1_555
C37 C36 1_555 1_555
C38 C37 1_555 1_555
C39 C34 1_555 1_555
H30 C39 1_555 1_555
C40 C38 1_555 1_555
H31 C40 1_555 1_555
C41 C40 1_555 1_555
H32 C41 1_555 1_555
H33 C41 1_555 1_555
C42 C40 1_555 1_555
C43 C42 1_555 1_555
H34 C43 1_555 1_555
C44 C42 1_555 1_555
C45 C44 1_555 1_555
H35 C45 1_555 1_555
H36 C28 1_555 1_555
H37 O4 1_555 1_555
H38 C33 1_555 1_555
H39 C41 1_555 1_555
H40 C33 1_555 1_555
H41 O6 1_555 1_555
H42 O7 1_555 1_555
H43 O5 1_555 1_555
C9C C9 1_555 1_555
C8C C7 1_555 1_555
O2C C8C 1_555 1_555
C10C C9C 1_555 1_555
C11C C11 1_555 1_555
H1C C11C 1_555 1_555
H7C C10C 1_555 1_555
H9C C13 1_555 1_555
H10C C12 1_555 1_555
C29C C28 1_555 1_555
O4C C29C 1_555 1_555
H37C O4C 1_555 1_555
C30C C31 1_555 1_555
C42C C43 1_555 1_555
C40C C42C 1_555 1_555
C38C C40C 1_555 1_555
C37C C38C 1_555 1_555
O6C C37C 1_555 1_555
H41C O6C 1_555 1_555
C36C C37C 1_555 1_555
C35C C36C 1_555 1_555
O5C C35C 1_555 1_555
H43C O5C 1_555 1_555
C34C C35C 1_555 1_555
C32C C30C 1_555 1_555
H27C C32C 1_555 1_555
C33C C32C 1_555 1_555
H28C C33C 1_555 1_555
H38C C33C 1_555 1_555
H40C C33C 1_555 1_555
C39C C38C 1_555 1_555
H30C C39C 1_555 1_555
H29C C36C 1_555 1_555
H31C C40C 1_555 1_555
C41C C40C 1_555 1_555
H32C C41C 1_555 1_555
H33C C41C 1_555 1_555
H39C C41C 1_555 1_555
C44C C45 1_555 1_555
O7C C44C 1_555 1_555
H42C O7C 1_555 1_555
C16 C19 1_555 1_555
C17 C18 1_555 1_555
C26 C27 1_555 1_555
C38 C39 1_555 1_555
C9C C8C 1_555 1_555
C10C C11C 1_555 1_555
C29C C30C 1_555 1_555
C42C C44C 1_555 1_555
C34C C32C 1_555 1_555
C34C C39C 1_555 1_555

#END
