
#######################################################################
#
#                 Cambridge Crystallographic Data Centre
#                                CCDC 
#
#######################################################################
#
# If this CIF has been generated from an entry in the Cambridge 
# Structural Database, then it will include bibliographic, chemical, 
# crystal, experimental, refinement or atomic coordinate data resulting 
# from the CCDC's data processing and validation procedures.
#
#######################################################################

data_ENEJOX
_chemical_formula_moiety         'C19 H13 Br1 Cl3 N1 O2'
_chemical_name_systematic        
4-(4-Bromophenyl)-2-hydroxy-6-phenyl-2-(trichloromethyl)-3,4-dihydro-2H-pyran-5-carbonitrile
_symmetry_cell_setting           orthorhombic
_symmetry_space_group_name_H-M   'P 21 21 21'
_symmetry_Int_Tables_number      19
_space_group_name_Hall           'P 2ac 2ab'
loop_
_symmetry_equiv_pos_site_id
_symmetry_equiv_pos_as_xyz
1 x,y,z
2 1/2-x,-y,1/2+z
3 -x,1/2+y,1/2-z
4 1/2+x,1/2-y,-z
_cell_length_a                   10.0693(5)
_cell_length_b                   16.8728(9)
_cell_length_c                   35.2969(18)
_cell_angle_alpha                90
_cell_angle_beta                 90
_cell_angle_gamma                90
_cell_volume                     5996.85
_exptl_crystal_colour            colorless
_exptl_crystal_description       prismatic
_cell_formula_units_Z            12
loop_
_atom_site_label
_atom_site_type_symbol
_atom_site_fract_x
_atom_site_fract_y
_atom_site_fract_z
Br1 Br 0.69078(5) 0.37738(3) 0.897208(12)
Cl1 Cl 0.66358(12) 0.32482(7) 0.63368(3)
Cl2 Cl 0.56771(12) 0.18038(7) 0.60117(3)
Cl3 Cl 0.39513(10) 0.27632(7) 0.64656(3)
N1 N 0.9115(4) 0.0971(2) 0.78887(10)
O1 O 0.7362(2) 0.17554(14) 0.66908(6)
O2 O 0.5249(2) 0.13021(15) 0.68240(7)
H1 H 0.5479 0.0956 0.6675
C1 C 0.6022(3) 0.1960(2) 0.67740(10)
C2 C 0.5967(4) 0.2442(2) 0.71373(10)
H4 H 0.5060 0.2605 0.7188
H5 H 0.6509 0.2914 0.7112
C3 C 0.6483(4) 0.1930(2) 0.74620(10)
H6 H 0.5848 0.1498 0.7502
C4 C 0.7797(4) 0.15670(19) 0.73428(10)
C5 C 0.8171(4) 0.15196(19) 0.69749(10)
C6 C 0.5594(4) 0.2423(2) 0.64183(10)
C7 C 0.8576(4) 0.1228(2) 0.76361(11)
C8 C 0.6590(4) 0.2396(2) 0.78292(10)
C9 C 0.5663(4) 0.2300(2) 0.81075(11)
H7 H 0.4964 0.1949 0.8069
C10 C 0.5741(5) 0.2716(3) 0.84468(12)
H8 H 0.5093 0.2651 0.8632
C11 C 0.6771(4) 0.3217(2) 0.85040(10)
C12 C 0.7699(4) 0.3333(2) 0.82359(11)
H9 H 0.8392 0.3687 0.8277
C13 C 0.7612(4) 0.2920(2) 0.78952(11)
H10 H 0.8254 0.2999 0.7710
C14 C 0.9455(3) 0.1247(2) 0.68205(10)
C15 C 1.0619(4) 0.1282(3) 0.70216(11)
H11 H 1.0592 0.1466 0.7270
C16 C 1.1817(4) 0.1058(3) 0.68732(13)
H12 H 1.2585 0.1088 0.7019
C17 C 1.1869(4) 0.0788(3) 0.65051(13)
H13 H 1.2671 0.0629 0.6399
C18 C 1.0732(4) 0.0759(3) 0.63005(13)
H14 H 1.0763 0.0573 0.6053
C19 C 0.9532(4) 0.0996(3) 0.64489(11)
H15 H 0.8773 0.0988 0.6299
Br2 Br 1.25831(5) 0.04948(3) 0.531461(13)
Cl4 Cl 0.46113(11) 0.07680(7) 0.31983(3)
Cl5 Cl 0.58262(11) 0.18791(6) 0.37002(4)
Cl6 Cl 0.41207(10) 0.06805(6) 0.39970(3)
N2 N 1.1131(4) -0.1118(2) 0.37774(9)
O3 O 0.7431(2) 0.05083(13) 0.34081(6)
O4 O 0.6083(3) -0.04695(14) 0.36552(7)
H2 H 0.5905 -0.0545 0.3431
C20 C 0.6516(3) 0.0293(2) 0.37024(10)
C21 C 0.7185(3) 0.0361(2) 0.40824(9)
H16 H 0.6554 0.0244 0.4282
H17 H 0.7509 0.0897 0.4119
C22 C 0.8343(3) -0.0222(2) 0.41007(9)
H18 H 0.7977 -0.0751 0.4148
C23 C 0.9068(3) -0.0244(2) 0.37232(9)
C24 C 0.8646(3) 0.01353(19) 0.34152(9)
C25 C 0.5348(4) 0.0889(2) 0.36503(10)
C26 C 1.0235(4) -0.0714(2) 0.37325(9)
C27 C 0.9325(3) -0.0040(2) 0.44131(9)
C28 C 0.9899(4) 0.0698(2) 0.44413(10)
H19 H 0.9616 0.1098 0.4279
C29 C 1.0881(4) 0.0862(2) 0.47025(11)
H20 H 1.1262 0.1363 0.4716
C30 C 1.1278(4) 0.0271(2) 0.49396(10)
C31 C 1.0752(4) -0.0469(2) 0.49209(10)
H21 H 1.1045 -0.0866 0.5083
C32 C 0.9770(4) -0.0621(2) 0.46554(10)
H22 H 0.9404 -0.1126 0.4641
C33 C 0.9345(4) 0.02182(19) 0.30510(9)
C34 C 1.0703(4) 0.0144(2) 0.30167(11)
H23 H 1.1215 0.0049 0.3231
C35 C 1.1309(4) 0.0210(3) 0.26699(12)
H24 H 1.2226 0.0157 0.2652
C36 C 1.0580(5) 0.0353(2) 0.23493(11)
H25 H 1.0998 0.0390 0.2115
C37 C 0.9240(5) 0.0439(3) 0.23762(11)
H26 H 0.8739 0.0541 0.2160
C38 C 0.8627(4) 0.0376(2) 0.27229(10)
H27 H 0.7711 0.0441 0.2738
Br3 Br 0.75801(8) 1.22639(3) 0.489609(17)
Cl7 Cl 0.91037(11) 0.61269(6) 0.56623(3)
Cl8 Cl 0.87699(11) 0.68913(6) 0.49442(3)
Cl9 Cl 1.06942(11) 0.74712(6) 0.54740(3)
N3 N 0.6034(4) 0.9954(2) 0.64156(9)
O5 O 0.8462(2) 0.77086(13) 0.59848(6)
O6 O 0.6798(2) 0.72386(14) 0.55982(7)
H3 H 0.6810 0.6855 0.5741
C39 C 0.8016(4) 0.7601(2) 0.56018(9)
C40 C 0.7914(3) 0.83808(18) 0.54003(9)
H28 H 0.7618 0.8292 0.5142
H29 H 0.8784 0.8627 0.5390
C41 C 0.6946(4) 0.89373(18) 0.55995(9)
H30 H 0.6038 0.8751 0.5554
C42 C 0.7227(3) 0.88993(19) 0.60204(9)
C43 C 0.7939(3) 0.8325(2) 0.61835(9)
C44 C 0.9103(4) 0.7046(2) 0.54314(9)
C45 C 0.6584(4) 0.9485(2) 0.62533(10)
C46 C 0.7084(4) 0.9771(2) 0.54441(9)
C47 C 0.6111(4) 1.0078(2) 0.52110(10)
H31 H 0.5358 0.9779 0.5158
C48 C 0.6242(5) 1.0831(3) 0.50546(11)
H32 H 0.5580 1.1040 0.4901
C49 C 0.7366(6) 1.1255(2) 0.51317(12)
C50 C 0.8322(5) 1.0978(2) 0.53661(12)
H33 H 0.9060 1.1286 0.5423
C51 C 0.8184(4) 1.0227(2) 0.55191(10)
H34 H 0.8848 1.0028 0.5676
C52 C 0.8245(4) 0.8256(2) 0.65905(10)
C53 C 0.8751(4) 0.8880(2) 0.67957(11)
H35 H 0.8942 0.9356 0.6674
C54 C 0.8975(4) 0.8807(3) 0.71774(12)
H36 H 0.9316 0.9234 0.7313
C55 C 0.8705(5) 0.8121(3) 0.73576(12)
H37 H 0.8850 0.8078 0.7617
C56 C 0.8211(5) 0.7479(3) 0.71568(12)
H38 H 0.8020 0.7007 0.7281
C57 C 0.8006(4) 0.7546(2) 0.67734(10)
H39 H 0.7705 0.7111 0.6636
loop_
_geom_bond_atom_site_label_1
_geom_bond_atom_site_label_2
_geom_bond_site_symmetry_1
_geom_bond_site_symmetry_2
Br1 C11 1_555 1_555
Br2 C30 1_555 1_555
Br3 C49 1_555 1_555
Cl1 C6 1_555 1_555
Cl2 C6 1_555 1_555
Cl3 C6 1_555 1_555
Cl4 C25 1_555 1_555
Cl5 C25 1_555 1_555
Cl6 C25 1_555 1_555
Cl7 C44 1_555 1_555
Cl8 C44 1_555 1_555
Cl9 C44 1_555 1_555
N1 C7 1_555 1_555
N2 C26 1_555 1_555
N3 C45 1_555 1_555
O1 C1 1_555 1_555
O2 H1 1_555 1_555
O3 C20 1_555 1_555
O4 H2 1_555 1_555
O5 C39 1_555 1_555
O6 H3 1_555 1_555
C1 O2 1_555 1_555
C2 C1 1_555 1_555
H4 C2 1_555 1_555
H5 C2 1_555 1_555
C3 C2 1_555 1_555
H6 C3 1_555 1_555
C4 C3 1_555 1_555
C5 O1 1_555 1_555
C6 C1 1_555 1_555
C7 C4 1_555 1_555
C8 C3 1_555 1_555
C9 C8 1_555 1_555
H7 C9 1_555 1_555
C10 C9 1_555 1_555
H8 C10 1_555 1_555
C11 C10 1_555 1_555
C12 C11 1_555 1_555
H9 C12 1_555 1_555
C13 C8 1_555 1_555
H10 C13 1_555 1_555
C14 C5 1_555 1_555
C15 C14 1_555 1_555
H11 C15 1_555 1_555
C16 C15 1_555 1_555
H12 C16 1_555 1_555
C17 C16 1_555 1_555
H13 C17 1_555 1_555
C18 C17 1_555 1_555
H14 C18 1_555 1_555
C19 C14 1_555 1_555
H15 C19 1_555 1_555
C20 O4 1_555 1_555
C21 C20 1_555 1_555
H16 C21 1_555 1_555
H17 C21 1_555 1_555
C22 C21 1_555 1_555
H18 C22 1_555 1_555
C23 C22 1_555 1_555
C24 O3 1_555 1_555
C25 C20 1_555 1_555
C26 C23 1_555 1_555
C27 C22 1_555 1_555
C28 C27 1_555 1_555
H19 C28 1_555 1_555
C29 C28 1_555 1_555
H20 C29 1_555 1_555
C30 C29 1_555 1_555
C31 C30 1_555 1_555
H21 C31 1_555 1_555
C32 C27 1_555 1_555
H22 C32 1_555 1_555
C33 C24 1_555 1_555
C34 C33 1_555 1_555
H23 C34 1_555 1_555
C35 C34 1_555 1_555
H24 C35 1_555 1_555
C36 C35 1_555 1_555
H25 C36 1_555 1_555
C37 C36 1_555 1_555
H26 C37 1_555 1_555
C38 C33 1_555 1_555
H27 C38 1_555 1_555
C39 O6 1_555 1_555
C40 C39 1_555 1_555
H28 C40 1_555 1_555
H29 C40 1_555 1_555
C41 C40 1_555 1_555
H30 C41 1_555 1_555
C42 C41 1_555 1_555
C43 O5 1_555 1_555
C44 C39 1_555 1_555
C45 C42 1_555 1_555
C46 C41 1_555 1_555
C47 C46 1_555 1_555
H31 C47 1_555 1_555
C48 C47 1_555 1_555
H32 C48 1_555 1_555
C49 C48 1_555 1_555
C50 C49 1_555 1_555
H33 C50 1_555 1_555
C51 C46 1_555 1_555
H34 C51 1_555 1_555
C52 C43 1_555 1_555
C53 C52 1_555 1_555
H35 C53 1_555 1_555
C54 C53 1_555 1_555
H36 C54 1_555 1_555
C55 C54 1_555 1_555
H37 C55 1_555 1_555
C56 C55 1_555 1_555
H38 C56 1_555 1_555
C57 C52 1_555 1_555
H39 C57 1_555 1_555
C4 C5 1_555 1_555
C12 C13 1_555 1_555
C18 C19 1_555 1_555
C23 C24 1_555 1_555
C31 C32 1_555 1_555
C37 C38 1_555 1_555
C42 C43 1_555 1_555
C50 C51 1_555 1_555
C56 C57 1_555 1_555

#END
