
#######################################################################
#
#                 Cambridge Crystallographic Data Centre
#                                CCDC 
#
#######################################################################
#
# If this CIF has been generated from an entry in the Cambridge 
# Structural Database, then it will include bibliographic, chemical, 
# crystal, experimental, refinement or atomic coordinate data resulting 
# from the CCDC's data processing and validation procedures.
#
#######################################################################

data_ENEKIR
_chemical_formula_moiety         'C20 H22 N3 O2 S1 1+,Cl1 1-'
_chemical_name_systematic        
'(R)-Benzylammonio-2-((2R,4R)-3-methoxycarbonyl-2-phenyl-thiazolidin-4-yl)acetonitrile chloride'
_symmetry_cell_setting           monoclinic
_symmetry_space_group_name_H-M   'P 21'
_symmetry_Int_Tables_number      4
_space_group_name_Hall           'P 2yb'
loop_
_symmetry_equiv_pos_site_id
_symmetry_equiv_pos_as_xyz
1 x,y,z
2 -x,1/2+y,-z
_cell_length_a                   12.703(1)
_cell_length_b                   6.745(2)
_cell_length_c                   12.755(2)
_cell_angle_alpha                90
_cell_angle_beta                 108.0(1)
_cell_angle_gamma                90
_cell_volume                     1039.38
_exptl_crystal_colour            yellow
_exptl_crystal_description       plate
_chemical_melting_point          167deg.C
_cell_formula_units_Z            2
loop_
_atom_site_label
_atom_site_type_symbol
_atom_site_fract_x
_atom_site_fract_y
_atom_site_fract_z
Cl1 Cl -0.60873(7) -0.18442(11) -0.46770(7)
S1 S -0.48568(7) -0.45284(17) -0.09986(7)
O1 O -0.1377(2) -0.6466(4) -0.1549(2)
O2 O -0.1463(2) -0.6958(4) 0.01840(18)
N1 N -0.2866(2) -0.5426(4) -0.10522(18)
N2 N -0.3557(4) 0.0059(5) -0.1828(3)
N3 N -0.3654(2) -0.3173(4) -0.38957(19)
C1 C -0.3495(3) -0.5514(5) -0.0255(2)
C2 C -0.3524(3) -0.5192(4) -0.2223(2)
C3 C -0.4748(3) -0.5356(5) -0.2296(3)
C4 C -0.3030(3) -0.4274(5) 0.0778(2)
C5 C -0.3249(3) -0.4885(6) 0.1727(2)
C6 C -0.2928(3) -0.3688(6) 0.2675(3)
C7 C -0.2397(3) -0.1974(7) 0.2669(3)
C8 C -0.2176(3) -0.1349(6) 0.1727(3)
C9 C -0.2485(3) -0.2508(6) 0.0782(3)
C10 C -0.1860(3) -0.6304(5) -0.0863(3)
C11 C -0.0392(4) -0.7882(8) 0.0494(4)
C12 C -0.3154(3) -0.3278(5) -0.2661(2)
C13 C -0.3410(4) -0.1428(5) -0.2178(3)
C14 C -0.3121(3) -0.1661(5) -0.4443(3)
C15 C -0.1871(3) -0.1817(6) -0.4101(3)
C16 C -0.1221(4) -0.0243(7) -0.3551(4)
C17 C -0.0073(5) -0.0397(10) -0.3256(5)
C18 C 0.0427(4) -0.2099(10) -0.3504(4)
C19 C -0.0210(4) -0.3630(8) -0.4020(4)
C20 C -0.1348(3) -0.3502(6) -0.4321(3)
H1 H -0.3567 -0.6851 -0.0056
H2 H -0.3354 -0.6274 -0.2622
H3 H -0.5186 -0.4539 -0.2873
H4 H -0.4990 -0.6691 -0.2425
H5 H -0.3613 -0.6110 0.1736
H6 H -0.3089 -0.4098 0.3322
H7 H -0.2170 -0.1185 0.3317
H8 H -0.1804 -0.0121 0.1728
H9 H -0.2321 -0.2082 0.0142
H10 H -0.0280 -0.8601 0.1160
H11 H 0.0165 -0.6895 0.0599
H12 H -0.0348 -0.8765 -0.0073
H13 H -0.2374 -0.3340 -0.2503
H14 H -0.4419 -0.2850 -0.4061
H15 H -0.3309 -0.0374 -0.4253
H16 H -0.3402 -0.1834 -0.5217
H17 H -0.1557 0.0918 -0.3379
H18 H 0.0378 0.0665 -0.2882
H19 H 0.1213 -0.2178 -0.3309
H20 H 0.0130 -0.4804 -0.4176
H21 H -0.1783 -0.4594 -0.4686
H22 H -0.3589 -0.4444 -0.4194
loop_
_geom_bond_atom_site_label_1
_geom_bond_atom_site_label_2
_geom_bond_site_symmetry_1
_geom_bond_site_symmetry_2
S1 C1 1_555 1_555
O1 C10 1_555 1_555
O2 C10 1_555 1_555
N1 C1 1_555 1_555
N2 C13 1_555 1_555
N3 C12 1_555 1_555
C1 C4 1_555 1_555
C2 N1 1_555 1_555
C3 S1 1_555 1_555
C4 C5 1_555 1_555
C5 C6 1_555 1_555
C6 C7 1_555 1_555
C7 C8 1_555 1_555
C8 C9 1_555 1_555
C9 C4 1_555 1_555
C10 N1 1_555 1_555
C11 O2 1_555 1_555
C12 C2 1_555 1_555
C13 C12 1_555 1_555
C14 N3 1_555 1_555
C15 C14 1_555 1_555
C16 C15 1_555 1_555
C17 C16 1_555 1_555
C18 C17 1_555 1_555
C19 C18 1_555 1_555
C20 C15 1_555 1_555
H1 C1 1_555 1_555
H2 C2 1_555 1_555
H3 C3 1_555 1_555
H4 C3 1_555 1_555
H5 C5 1_555 1_555
H6 C6 1_555 1_555
H7 C7 1_555 1_555
H8 C8 1_555 1_555
H9 C9 1_555 1_555
H10 C11 1_555 1_555
H11 C11 1_555 1_555
H12 C11 1_555 1_555
H13 C12 1_555 1_555
H14 N3 1_555 1_555
H15 C14 1_555 1_555
H16 C14 1_555 1_555
H17 C16 1_555 1_555
H18 C17 1_555 1_555
H19 C18 1_555 1_555
H20 C19 1_555 1_555
H21 C20 1_555 1_555
H22 N3 1_555 1_555
C2 C3 1_555 1_555
C19 C20 1_555 1_555

#END
