
#######################################################################
#
#                 Cambridge Crystallographic Data Centre
#                                CCDC 
#
#######################################################################
#
# If this CIF has been generated from an entry in the Cambridge 
# Structural Database, then it will include bibliographic, chemical, 
# crystal, experimental, refinement or atomic coordinate data resulting 
# from the CCDC's data processing and validation procedures.
#
#######################################################################

data_ENEPUK
_chemical_formula_moiety         'C19 H18 N2 O3'
_chemical_name_systematic        
'Methyl 3-oxo-2-(prop-2-yn-1-yl)-2,3,6,11-tetrahydro-1H-indolizino[8,7-b]indole-11b(5H)-carboxylate'
_symmetry_cell_setting           tetragonal
_symmetry_space_group_name_H-M   'P 43 21 2'
_symmetry_Int_Tables_number      96
_space_group_name_Hall           'P 4nw 2abw'
loop_
_symmetry_equiv_pos_site_id
_symmetry_equiv_pos_as_xyz
1 x,y,z
2 1/2-y,1/2+x,3/4+z
3 -x,-y,1/2+z
4 1/2+y,1/2-x,1/4+z
5 1/2+x,1/2-y,1/4-z
6 1/2-x,1/2+y,3/4-z
7 y,x,-z
8 -y,-x,1/2-z
_cell_length_a                   9.37666(19)
_cell_length_b                   9.37666(19)
_cell_length_c                   36.6305(12)
_cell_angle_alpha                90
_cell_angle_beta                 90
_cell_angle_gamma                90
_cell_volume                     3220.62
_exptl_crystal_colour            white
_cell_formula_units_Z            8
_exptl_crystal_recrystallization_method dichloromethane/methanol
loop_
_atom_site_label
_atom_site_type_symbol
_atom_site_fract_x
_atom_site_fract_y
_atom_site_fract_z
C1 C 0.4278(3) 0.7274(3) 0.05314(8)
C2 C 0.4777(3) 0.8387(3) 0.03260(7)
C3 C 0.3876(3) 0.9313(3) 0.00865(7)
C4 C 0.4296(3) 0.9426(3) -0.03183(7)
H1 H 0.4979 1.0215 -0.0360
H2 H 0.4717 0.8524 -0.0408
C5 C 0.2864(3) 0.9729(3) -0.04994(8)
H3 H 0.2640 1.0761 -0.0462
C6 C 0.1840(3) 0.8865(3) -0.02655(8)
C7 C 0.1801(3) 0.7970(4) 0.03766(8)
H4 H 0.0869 0.7561 0.0305
H5 H 0.1629 0.8693 0.0569
C8 C 0.2755(3) 0.6791(4) 0.05280(9)
H6 H 0.2451 0.6547 0.0779
H7 H 0.2662 0.5926 0.0375
C9 C 0.5463(3) 0.6761(3) 0.07408(7)
C10 C 0.5625(4) 0.5700(4) 0.10070(8)
H8 H 0.4849 0.5097 0.1070
C11 C 0.6933(4) 0.5546(4) 0.11756(8)
H9 H 0.7053 0.4827 0.1356
C12 C 0.8087(4) 0.6428(4) 0.10859(9)
H10 H 0.8970 0.6302 0.1209
C13 C 0.7971(3) 0.7481(3) 0.08223(8)
H11 H 0.8754 0.8078 0.0761
C14 C 0.6654(3) 0.7624(3) 0.06506(8)
C15 C 0.3752(3) 1.0797(3) 0.02651(8)
C16 C 0.5029(4) 1.2900(3) 0.04108(10)
H12 H 0.4186 1.3461 0.0344
H13 H 0.5892 1.3406 0.0333
H14 H 0.5049 1.2766 0.0676
C17 C 0.2717(4) 0.9410(4) -0.09062(8)
H15 H 0.3064 0.8432 -0.0955
H16 H 0.1697 0.9452 -0.0975
C18 C 0.3524(4) 1.0424(4) -0.11312(8)
C19 C 0.4175(4) 1.1239(4) -0.13145(9)
H17 H 0.4696 1.1892 -0.1461
N1 N 0.2461(3) 0.8648(3) 0.00620(6)
N2 N 0.6212(3) 0.8604(3) 0.03918(6)
O1 O 0.0651(2) 0.8441(2) -0.03584(6)
O2 O 0.4967(2) 1.1524(2) 0.02328(6)
O3 O 0.2726(3) 1.1215(3) 0.04285(9)
H18 H 0.673(4) 0.933(5) 0.0311(10)
loop_
_geom_bond_atom_site_label_1
_geom_bond_atom_site_label_2
_geom_bond_site_symmetry_1
_geom_bond_site_symmetry_2
C1 C2 1_555 1_555
C2 C3 1_555 1_555
C3 C4 1_555 1_555
C4 H1 1_555 1_555
H2 C4 1_555 1_555
C5 C4 1_555 1_555
H3 C5 1_555 1_555
C6 C5 1_555 1_555
C7 H4 1_555 1_555
H5 C7 1_555 1_555
C8 C1 1_555 1_555
H6 C8 1_555 1_555
H7 C8 1_555 1_555
C9 C1 1_555 1_555
C10 C9 1_555 1_555
H8 C10 1_555 1_555
C11 C10 1_555 1_555
H9 C11 1_555 1_555
C12 C11 1_555 1_555
H10 C12 1_555 1_555
C13 C12 1_555 1_555
H11 C13 1_555 1_555
C14 C9 1_555 1_555
C15 C3 1_555 1_555
C16 H12 1_555 1_555
H13 C16 1_555 1_555
H14 C16 1_555 1_555
C17 C5 1_555 1_555
H15 C17 1_555 1_555
H16 C17 1_555 1_555
C18 C17 1_555 1_555
C19 C18 1_555 1_555
H17 C19 1_555 1_555
N1 C3 1_555 1_555
N2 C2 1_555 1_555
O1 C6 1_555 1_555
O2 C15 1_555 1_555
O3 C15 1_555 1_555
H18 N2 1_555 1_555
C6 N1 1_555 1_555
C7 C8 1_555 1_555
C7 N1 1_555 1_555
C13 C14 1_555 1_555
C14 N2 1_555 1_555
C16 O2 1_555 1_555

#END
