
#######################################################################
#
#                 Cambridge Crystallographic Data Centre
#                                CCDC 
#
#######################################################################
#
# If this CIF has been generated from an entry in the Cambridge 
# Structural Database, then it will include bibliographic, chemical, 
# crystal, experimental, refinement or atomic coordinate data resulting 
# from the CCDC's data processing and validation procedures.
#
#######################################################################

data_ENEQEV
_chemical_formula_moiety         'C18 H19 N3'
_chemical_name_systematic        
3,13-Diazapentacyclo[13.3.1.0^2,10^.0^4,9^.0^13,18^]nonadeca-2(10),4,6,8-tetraene-17-carbonitrile
_symmetry_cell_setting           orthorhombic
_symmetry_space_group_name_H-M   'A b a 2'
_symmetry_Int_Tables_number      41
_space_group_name_Hall           'A 2 -2ac'
loop_
_symmetry_equiv_pos_site_id
_symmetry_equiv_pos_as_xyz
1 x,y,z
2 -x,-y,z
3 1/2-x,y,1/2+z
4 1/2+x,-y,1/2+z
5 x,1/2+y,1/2+z
6 -x,1/2-y,1/2+z
7 1/2-x,1/2+y,z
8 1/2+x,1/2-y,z
_cell_length_a                   12.2491(9)
_cell_length_b                   35.949(3)
_cell_length_c                   13.0880(13)
_cell_angle_alpha                90
_cell_angle_beta                 90
_cell_angle_gamma                90
_cell_volume                     5763.21
_cell_formula_units_Z            16
loop_
_atom_site_label
_atom_site_type_symbol
_atom_site_fract_x
_atom_site_fract_y
_atom_site_fract_z
C1 C 1.1504(3) 0.79248(9) 0.8542(3)
C2 C 1.2399(3) 0.78245(9) 0.7955(3)
H1 H 1.2316 0.7735 0.7277
C3 C 1.3418(3) 0.78602(9) 0.8399(3)
H2 H 1.4048 0.7799 0.8012
C4 C 1.3541(3) 0.79847(10) 0.9401(3)
H3 H 1.4253 0.8004 0.9686
C5 C 1.2651(3) 0.80799(9) 0.9985(3)
H4 H 1.2745 0.8163 1.0668
C6 C 1.1606(3) 0.80527(9) 0.9563(3)
C7 C 1.0532(2) 0.81355(9) 0.9935(3)
C8 C 1.0309(3) 0.83013(10) 1.0966(3)
H5 H 1.0323 0.8576 1.0899
H6 H 1.0912 0.8230 1.1430
C9 C 0.9229(3) 0.81903(10) 1.1469(3)
H7 H 0.9270 0.7923 1.1642
H8 H 0.9165 0.8329 1.2120
C10 C 0.8044(3) 0.86366(10) 1.0561(3)
H9 H 0.8752 0.8766 1.0488
H10 H 0.7607 0.8769 1.1083
C11 C 0.7445(3) 0.86392(9) 0.9551(3)
H11 H 0.7230 0.8900 0.9374
C12 C 0.6427(3) 0.83968(9) 0.9628(3)
H12 H 0.6013 0.8406 0.8980
H13 H 0.5949 0.8488 1.0184
C13 C 0.6800(2) 0.79894(9) 0.9856(3)
H14 H 0.6649 0.7833 0.9240
C14 C 0.8037(2) 0.79901(9) 1.0053(3)
H15 H 0.8270 0.7736 1.0271
C15 C 0.8612(2) 0.80907(9) 0.9052(3)
H16 H 0.8370 0.7909 0.8519
C16 C 0.9820(2) 0.80589(8) 0.9154(3)
C17 C 0.8207(3) 0.84858(10) 0.8725(3)
H17 H 0.8839 0.8654 0.8636
H18 H 0.7813 0.8470 0.8066
C18 C 0.6204(3) 0.78337(9) 1.0724(3)
N1 N 1.0408(2) 0.79310(7) 0.8319(2)
H19 H 1.0121 0.7864 0.7731
N2 N 0.8229(2) 0.82510(7) 1.0887(2)
N3 N 0.5727(2) 0.77187(8) 1.1405(3)
C19 C -0.1693(2) 0.95940(8) 0.9132(3)
C20 C -0.2584(2) 0.97002(9) 0.9720(3)
H20 H -0.2494 0.9790 1.0398
C21 C -0.3607(3) 0.96708(9) 0.9282(3)
H21 H -0.4231 0.9739 0.9671
C22 C -0.3745(3) 0.95442(9) 0.8287(3)
H22 H -0.4459 0.9529 0.8007
C23 C -0.2866(2) 0.94407(9) 0.7704(3)
H23 H -0.2970 0.9354 0.7025
C24 C -0.1812(2) 0.94631(9) 0.8117(3)
C25 C -0.0744(2) 0.93780(9) 0.7733(3)
C26 C -0.0527(3) 0.91940(10) 0.6730(3)
H24 H -0.1126 0.9261 0.6256
H25 H -0.0558 0.8921 0.6833
C27 C 0.0559(3) 0.92878(11) 0.6210(3)
H26 H 0.0611 0.9137 0.5578
H27 H 0.0533 0.9552 0.6000
C28 C 0.1744(3) 0.88495(10) 0.7163(4)
H28 H 0.2189 0.8710 0.6661
H29 H 0.1038 0.8719 0.7245
C29 C 0.2336(3) 0.88647(9) 0.8184(4)
H30 H 0.2541 0.8607 0.8401
C30 C 0.1568(3) 0.90352(10) 0.8971(3)
H31 H 0.1947 0.9059 0.9635
H32 H 0.0925 0.8872 0.9066
C31 C 0.1189(2) 0.94260(9) 0.8599(3)
H33 H 0.1444 0.9614 0.9109
C32 C -0.0029(2) 0.94583(8) 0.8514(3)
C33 C 0.1765(2) 0.95057(9) 0.7587(3)
H34 H 0.1543 0.9757 0.7336
C34 C 0.3008(2) 0.95017(9) 0.7771(3)
H35 H 0.3189 0.9677 0.8339
C35 C 0.3351(3) 0.90995(9) 0.8084(3)
H36 H 0.3840 0.8992 0.7559
H37 H 0.3748 0.9105 0.8742
C36 C 0.3585(3) 0.96179(9) 0.6846(3)
N4 N -0.0602(2) 0.95866(7) 0.9353(2)
H38 H -0.0309 0.9653 0.9939
N5 N 0.1555(2) 0.92311(8) 0.6792(2)
N6 N 0.4055(2) 0.97015(8) 0.6131(2)
loop_
_geom_bond_atom_site_label_1
_geom_bond_atom_site_label_2
_geom_bond_site_symmetry_1
_geom_bond_site_symmetry_2
C1 C2 1_555 1_555
C2 H1 1_555 1_555
C3 C2 1_555 1_555
H2 C3 1_555 1_555
C4 C3 1_555 1_555
H3 C4 1_555 1_555
C5 C4 1_555 1_555
H4 C5 1_555 1_555
C6 C1 1_555 1_555
C7 C6 1_555 1_555
C8 C7 1_555 1_555
H5 C8 1_555 1_555
H6 C8 1_555 1_555
C9 C8 1_555 1_555
H7 C9 1_555 1_555
H8 C9 1_555 1_555
C10 H9 1_555 1_555
H10 C10 1_555 1_555
C11 C10 1_555 1_555
H11 C11 1_555 1_555
C12 C11 1_555 1_555
H12 C12 1_555 1_555
H13 C12 1_555 1_555
C13 C12 1_555 1_555
H14 C13 1_555 1_555
C14 C13 1_555 1_555
H15 C14 1_555 1_555
C15 C14 1_555 1_555
H16 C15 1_555 1_555
C16 C7 1_555 1_555
C17 C11 1_555 1_555
H17 C17 1_555 1_555
H18 C17 1_555 1_555
C18 C13 1_555 1_555
N1 C1 1_555 1_555
H19 N1 1_555 1_555
N2 C9 1_555 1_555
N3 C18 1_555 1_555
C19 C20 1_555 1_555
C20 H20 1_555 1_555
C21 C20 1_555 1_555
H21 C21 1_555 1_555
C22 C21 1_555 1_555
H22 C22 1_555 1_555
C23 C22 1_555 1_555
H23 C23 1_555 1_555
C24 C19 1_555 1_555
C25 C24 1_555 1_555
C26 C25 1_555 1_555
H24 C26 1_555 1_555
H25 C26 1_555 1_555
C27 C26 1_555 1_555
H26 C27 1_555 1_555
H27 C27 1_555 1_555
C28 H28 1_555 1_555
H29 C28 1_555 1_555
C29 C28 1_555 1_555
H30 C29 1_555 1_555
C30 C29 1_555 1_555
H31 C30 1_555 1_555
H32 C30 1_555 1_555
C31 C30 1_555 1_555
H33 C31 1_555 1_555
C32 C25 1_555 1_555
C33 C31 1_555 1_555
H34 C33 1_555 1_555
C34 C33 1_555 1_555
H35 C34 1_555 1_555
C35 C29 1_555 1_555
H36 C35 1_555 1_555
H37 C35 1_555 1_555
C36 C34 1_555 1_555
N4 C19 1_555 1_555
H38 N4 1_555 1_555
N5 C27 1_555 1_555
N6 C36 1_555 1_555
C5 C6 1_555 1_555
C10 N2 1_555 1_555
C14 N2 1_555 1_555
C15 C16 1_555 1_555
C15 C17 1_555 1_555
C16 N1 1_555 1_555
C23 C24 1_555 1_555
C28 N5 1_555 1_555
C31 C32 1_555 1_555
C32 N4 1_555 1_555
C33 N5 1_555 1_555
C34 C35 1_555 1_555

#END
