
#######################################################################
#
#                 Cambridge Crystallographic Data Centre
#                                CCDC 
#
#######################################################################
#
# If this CIF has been generated from an entry in the Cambridge 
# Structural Database, then it will include bibliographic, chemical, 
# crystal, experimental, refinement or atomic coordinate data resulting 
# from the CCDC's data processing and validation procedures.
#
#######################################################################

data_ENEWIF
_chemical_formula_moiety         'C22 H15 N5'
_chemical_name_systematic        
2-(4-(dimethylamino)phenyl)-3-phenylbuta-1,3-diene-1,1,4,4-tetracarbonitrile
_symmetry_cell_setting           triclinic
_symmetry_space_group_name_H-M   'P -1'
_symmetry_Int_Tables_number      2
_space_group_name_Hall           '-P 1'
loop_
_symmetry_equiv_pos_site_id
_symmetry_equiv_pos_as_xyz
1 x,y,z
2 -x,-y,-z
_cell_length_a                   8.9748(11)
_cell_length_b                   13.7091(18)
_cell_length_c                   15.428(2)
_cell_angle_alpha                84.953(6)
_cell_angle_beta                 89.762(5)
_cell_angle_gamma                84.996(6)
_cell_volume                     1883.63
_exptl_crystal_colour            'dark red'
_exptl_crystal_description       prismatic
_cell_formula_units_Z            4
loop_
_atom_site_label
_atom_site_type_symbol
_atom_site_fract_x
_atom_site_fract_y
_atom_site_fract_z
C1 C 0.2161(2) 0.95287(13) 0.50781(11)
C2 C 0.2890(3) 1.03614(14) 0.47834(12)
H1 H 0.31 1.0807 0.5177
C3 C 0.3295(2) 1.05327(14) 0.39371(12)
H2 H 0.377 1.1095 0.3769
C4 C 0.3021(2) 0.98888(12) 0.33099(10)
C5 C 0.2328(2) 0.90448(13) 0.36136(11)
H3 H 0.2137 0.8592 0.3222
C6 C 0.1924(2) 0.88647(14) 0.44643(12)
H4 H 0.1484 0.829 0.4638
C7 C 0.1920(3) 1.01189(16) 0.65295(13)
H5 H 0.295 1.0258 0.6525
H6 H 0.1656 0.986 0.7102
H7 H 0.13 1.0713 0.6369
C8 C 0.0912(3) 0.85630(17) 0.62221(14)
H8 H 0.0062 0.8525 0.5855
H9 H 0.0581 0.8634 0.6808
H10 H 0.157 0.7974 0.621
C9 C 0.33595(19) 1.00764(12) 0.24033(10)
C10 C 0.41837(19) 1.07841(12) 0.20078(11)
C11 C 0.5022(2) 1.14393(14) 0.24367(12)
C12 C 0.4230(2) 1.09440(13) 0.10777(13)
C13 C 0.27030(19) 0.94330(12) 0.17914(10)
C14 C 0.11599(19) 0.96897(13) 0.15020(10)
C15 C 0.0569(2) 1.06680(15) 0.14394(11)
H11 H 0.1146 1.1152 0.1605
C16 C -0.0860(2) 1.09219(19) 0.11342(13)
H12 H -0.1241 1.1577 0.1086
C17 C -0.1724(2) 1.0212(2) 0.09006(13)
H13 H -0.2683 1.0389 0.0682
C18 C -0.1184(2) 0.9242(2) 0.09872(13)
H14 H -0.1786 0.8761 0.0842
C19 C 0.0249(2) 0.89761(16) 0.12888(12)
H15 H 0.0609 0.8317 0.135
C20 C 0.3606(2) 0.86654(12) 0.15449(11)
C21 C 0.5051(2) 0.84098(13) 0.19338(12)
C22 C 0.3241(2) 0.80379(13) 0.08957(12)
N1 N 0.1699(2) 0.94019(12) 0.59126(10)
N2 N 0.5735(2) 1.19689(14) 0.27435(12)
N3 N 0.4253(2) 1.10966(13) 0.03351(11)
N4 N 0.6186(2) 0.81687(13) 0.22539(12)
N5 N 0.3027(2) 0.75319(13) 0.03694(12)
C23 C 0.7246(2) 0.53289(13) -0.00718(11)
C24 C 0.6792(2) 0.60008(14) 0.05372(11)
H16 H 0.6181 0.6564 0.0357
C25 C 0.7230(2) 0.58411(14) 0.13837(11)
H17 H 0.6903 0.6303 0.1765
C26 C 0.81513(18) 0.50144(12) 0.17073(10)
C27 C 0.8643(2) 0.43660(13) 0.10897(11)
H18 H 0.9281 0.3814 0.1268
C28 C 0.8220(2) 0.45169(14) 0.02399(11)
H19 H 0.8585 0.407 -0.0146
C29 C 0.5699(3) 0.62674(17) -0.12080(13)
H20 H 0.4836 0.6275 -0.0838
H21 H 0.5403 0.619 -0.1793
H22 H 0.6152 0.6875 -0.1194
C30 C 0.7255(3) 0.47708(15) -0.15363(12)
H23 H 0.832 0.4628 -0.1496
H24 H 0.6992 0.5058 -0.2111
H25 H 0.6775 0.4174 -0.1419
C31 C 0.84936(17) 0.48612(11) 0.26175(10)
C32 C 0.94703(18) 0.41546(12) 0.30486(10)
C33 C 1.0464(2) 0.34515(14) 0.26522(12)
C34 C 0.95092(19) 0.40354(13) 0.39802(12)
C35 C 0.76302(18) 0.55302(12) 0.32024(10)
C36 C 0.61407(18) 0.52792(13) 0.34826(10)
C37 C 0.5792(2) 0.43083(14) 0.35399(11)
H26 H 0.6492 0.3821 0.337
C38 C 0.4422(2) 0.40612(17) 0.38459(13)
H27 H 0.4204 0.3408 0.3893
C39 C 0.3378(2) 0.4779(2) 0.40812(13)
H28 H 0.2462 0.4609 0.4303
C40 C 0.3674(2) 0.57438(19) 0.39913(13)
H29 H 0.2948 0.6229 0.4134
C41 C 0.5035(2) 0.59971(15) 0.36929(12)
H30 H 0.5225 0.6656 0.3629
C42 C 0.83066(19) 0.63070(12) 0.34429(10)
C43 C 0.7733(2) 0.69414(13) 0.40825(12)
C44 C 0.9694(2) 0.65737(13) 0.30679(12)
N6 N 0.67651(19) 0.54570(12) -0.09040(9)
N7 N 0.95249(19) 0.39043(13) 0.47231(11)
N8 N 1.1285(2) 0.28793(13) 0.23737(12)
N9 N 1.0770(2) 0.68275(13) 0.27609(12)
N10 N 0.7332(3) 0.74406(14) 0.46042(13)
loop_
_geom_bond_atom_site_label_1
_geom_bond_atom_site_label_2
_geom_bond_site_symmetry_1
_geom_bond_site_symmetry_2
C1 C2 1_555 1_555
C2 H1 1_555 1_555
C3 C2 1_555 1_555
H2 C3 1_555 1_555
C4 C3 1_555 1_555
C5 C4 1_555 1_555
H3 C5 1_555 1_555
C6 C1 1_555 1_555
H4 C6 1_555 1_555
C7 H5 1_555 1_555
H6 C7 1_555 1_555
H7 C7 1_555 1_555
C8 H8 1_555 1_555
H9 C8 1_555 1_555
H10 C8 1_555 1_555
C9 C4 1_555 1_555
C10 C9 1_555 1_555
C11 C10 1_555 1_555
C12 C10 1_555 1_555
C13 C9 1_555 1_555
C14 C13 1_555 1_555
C15 C14 1_555 1_555
H11 C15 1_555 1_555
C16 C15 1_555 1_555
H12 C16 1_555 1_555
C17 C16 1_555 1_555
H13 C17 1_555 1_555
C18 C17 1_555 1_555
H14 C18 1_555 1_555
C19 C14 1_555 1_555
H15 C19 1_555 1_555
C20 C13 1_555 1_555
C21 C20 1_555 1_555
C22 C20 1_555 1_555
N1 C1 1_555 1_555
N2 C11 1_555 1_555
N3 C12 1_555 1_555
N4 C21 1_555 1_555
N5 C22 1_555 1_555
C23 C24 1_555 1_555
C24 H16 1_555 1_555
C25 C24 1_555 1_555
H17 C25 1_555 1_555
C26 C25 1_555 1_555
C27 C26 1_555 1_555
H18 C27 1_555 1_555
C28 C23 1_555 1_555
H19 C28 1_555 1_555
C29 H20 1_555 1_555
H21 C29 1_555 1_555
H22 C29 1_555 1_555
C30 H23 1_555 1_555
H24 C30 1_555 1_555
H25 C30 1_555 1_555
C31 C26 1_555 1_555
C32 C31 1_555 1_555
C33 C32 1_555 1_555
C34 C32 1_555 1_555
C35 C31 1_555 1_555
C36 C35 1_555 1_555
C37 C36 1_555 1_555
H26 C37 1_555 1_555
C38 C37 1_555 1_555
H27 C38 1_555 1_555
C39 C38 1_555 1_555
H28 C39 1_555 1_555
C40 C39 1_555 1_555
H29 C40 1_555 1_555
C41 C36 1_555 1_555
H30 C41 1_555 1_555
C42 C35 1_555 1_555
C43 C42 1_555 1_555
C44 C42 1_555 1_555
N6 C23 1_555 1_555
N7 C34 1_555 1_555
N8 C33 1_555 1_555
N9 C44 1_555 1_555
N10 C43 1_555 1_555
C5 C6 1_555 1_555
C7 N1 1_555 1_555
C8 N1 1_555 1_555
C18 C19 1_555 1_555
C27 C28 1_555 1_555
C29 N6 1_555 1_555
C30 N6 1_555 1_555
C40 C41 1_555 1_555

#END
