
#######################################################################
#
#                 Cambridge Crystallographic Data Centre
#                                CCDC 
#
#######################################################################
#
# If this CIF has been generated from an entry in the Cambridge 
# Structural Database, then it will include bibliographic, chemical, 
# crystal, experimental, refinement or atomic coordinate data resulting 
# from the CCDC's data processing and validation procedures.
#
#######################################################################

data_ENIGOY
_chemical_formula_moiety         'C14 H10 N2 O1'
_chemical_name_systematic        9-diazo-4-(hydroxymethyl)-9H-fluorene
_symmetry_cell_setting           monoclinic
_symmetry_space_group_name_H-M   'P 21'
_symmetry_Int_Tables_number      4
_space_group_name_Hall           'P 2yb'
loop_
_symmetry_equiv_pos_site_id
_symmetry_equiv_pos_as_xyz
1 x,y,z
2 -x,1/2+y,-z
_cell_length_a                   13.4838(8)
_cell_length_b                   4.8605(3)
_cell_length_c                   16.9548(11)
_cell_angle_alpha                90
_cell_angle_beta                 110.044(3)
_cell_angle_gamma                90
_cell_volume                     1043.88
_exptl_crystal_colour            'intense orange'
_exptl_crystal_description       plate
_cell_formula_units_Z            4
loop_
_atom_site_label
_atom_site_type_symbol
_atom_site_fract_x
_atom_site_fract_y
_atom_site_fract_z
O1 O 0.6277(2) 0.2607(7) -0.06274(17)
C1 C 0.7315(3) 0.2917(10) -0.0046(2)
C2 C 0.7375(3) 0.5049(10) 0.0621(2)
C3 C 0.6467(3) 0.6118(10) 0.0719(3)
C4 C 0.6504(3) 0.8115(11) 0.1311(3)
C5 C 0.7464(3) 0.9146(10) 0.1840(3)
C6 C 0.8379(3) 0.8123(9) 0.1749(2)
C7 C 0.8358(3) 0.6024(9) 0.1154(2)
C8 C 0.9456(3) 0.5444(9) 0.1227(2)
C9 C 1.0137(3) 0.7151(10) 0.1860(3)
C10 C 0.9475(3) 0.8811(9) 0.2181(2)
N1 N 0.9798(3) 1.0756(8) 0.2742(2)
N2 N 1.0079(3) 1.2470(11) 0.3232(2)
C11 C 1.1231(3) 0.7031(11) 0.2067(3)
C12 C 1.1640(3) 0.5168(10) 0.1652(3)
C13 C 1.0980(3) 0.3457(10) 0.1025(3)
C14 C 0.9897(3) 0.3553(9) 0.0822(3)
H1 H 0.6085 0.1006 -0.0796
H2 H 0.7527 0.1160 0.0238
H3 H 0.7813 0.3434 -0.0333
H4 H 0.5809 0.5486 0.0368
H5 H 0.5856 0.8730 0.1353
H6 H 0.7498 1.0515 0.2234
H7 H 1.1658 0.8241 0.2473
H8 H 1.2370 0.5026 0.1776
H9 H 1.1276 0.2199 0.0738
H10 H 0.9451 0.2411 0.0395
O2 O 0.5852(2) 0.7652(8) 0.85777(17)
C15 C 0.4962(3) 0.8110(10) 0.7838(2)
C16 C 0.4966(3) 0.6197(9) 0.7147(3)
C17 C 0.5835(3) 0.4540(10) 0.7214(3)
C18 C 0.5828(3) 0.2706(11) 0.6582(3)
C19 C 0.4963(3) 0.2478(11) 0.5847(3)
C20 C 0.4101(3) 0.4179(10) 0.5764(2)
C21 C 0.4092(3) 0.6027(9) 0.6409(2)
C22 C 0.3078(3) 0.7537(10) 0.6115(3)
C23 C 0.2651(3) 0.9606(10) 0.6477(3)
C24 C 0.1658(3) 1.0666(10) 0.6028(3)
C25 C 0.1096(3) 0.9703(11) 0.5233(3)
C26 C 0.1494(3) 0.7649(11) 0.4861(3)
C27 C 0.2488(3) 0.6584(10) 0.5307(3)
C28 C 0.3111(3) 0.4499(10) 0.5081(2)
N3 N 0.2809(3) 0.3111(9) 0.4377(2)
N4 N 0.2536(3) 0.1947(10) 0.3761(2)
H11 H 0.5819 0.6202 0.8794
H12 H 0.4980 1.0056 0.7643
H13 H 0.4315 0.7830 0.7975
H14 H 0.6417 0.4694 0.7705
H15 H 0.6432 0.1601 0.6670
H16 H 0.4971 0.1221 0.5419
H17 H 0.3036 1.0327 0.7014
H18 H 0.1353 1.2056 0.6261
H19 H 0.0444 1.0486 0.4941
H20 H 0.1113 0.6995 0.4318
loop_
_geom_bond_atom_site_label_1
_geom_bond_atom_site_label_2
_geom_bond_site_symmetry_1
_geom_bond_site_symmetry_2
O1 C1 1_555 1_555
C1 C2 1_555 1_555
C2 C3 1_555 1_555
C3 C4 1_555 1_555
C4 C5 1_555 1_555
C5 C6 1_555 1_555
C6 C7 1_555 1_555
C7 C2 1_555 1_555
C8 C7 1_555 1_555
C9 C8 1_555 1_555
C10 C6 1_555 1_555
N1 C10 1_555 1_555
N2 N1 1_555 1_555
C11 C9 1_555 1_555
C12 C11 1_555 1_555
C13 C12 1_555 1_555
C14 C8 1_555 1_555
O2 C15 1_555 1_555
C15 C16 1_555 1_555
C16 C17 1_555 1_555
C17 C18 1_555 1_555
C18 C19 1_555 1_555
C19 C20 1_555 1_555
C20 C21 1_555 1_555
C21 C16 1_555 1_555
C22 C21 1_555 1_555
C23 C22 1_555 1_555
C24 C23 1_555 1_555
C25 C24 1_555 1_555
C26 C25 1_555 1_555
C27 C22 1_555 1_555
C28 C20 1_555 1_555
N3 C28 1_555 1_555
N4 N3 1_555 1_555
H1 O1 1_555 1_555
H2 C1 1_555 1_555
H3 C1 1_555 1_555
H4 C3 1_555 1_555
H5 C4 1_555 1_555
H6 C5 1_555 1_555
H7 C11 1_555 1_555
H8 C12 1_555 1_555
H9 C13 1_555 1_555
H10 C14 1_555 1_555
H11 O2 1_555 1_555
H12 C15 1_555 1_555
H13 C15 1_555 1_555
H14 C17 1_555 1_555
H15 C18 1_555 1_555
H16 C19 1_555 1_555
H17 C23 1_555 1_555
H18 C24 1_555 1_555
H19 C25 1_555 1_555
H20 C26 1_555 1_555
C9 C10 1_555 1_555
C13 C14 1_555 1_555
C26 C27 1_555 1_555
C27 C28 1_555 1_555

#END
