
#######################################################################
#
#                 Cambridge Crystallographic Data Centre
#                                CCDC 
#
#######################################################################
#
# If this CIF has been generated from an entry in the Cambridge 
# Structural Database, then it will include bibliographic, chemical, 
# crystal, experimental, refinement or atomic coordinate data resulting 
# from the CCDC's data processing and validation procedures.
#
#######################################################################

data_ENIKIW
_chemical_formula_moiety         'C26 H17 N1 O3'
_chemical_name_systematic        
(3-Benzoylpyrrolo[2,1-a]isoquinolin-1-yl)(2-hydroxyphenyl)methanone
_symmetry_cell_setting           monoclinic
_symmetry_space_group_name_H-M   'C 2/c'
_symmetry_Int_Tables_number      15
_space_group_name_Hall           '-C 2yn'
loop_
_symmetry_equiv_pos_site_id
_symmetry_equiv_pos_as_xyz
1 x,y,z
2 -x,y,1/2-z
3 1/2+x,1/2+y,z
4 1/2-x,1/2+y,1/2-z
5 -x,-y,-z
6 x,-y,1/2+z
7 1/2-x,1/2-y,-z
8 1/2+x,1/2-y,1/2+z
_cell_length_a                   19.0353(17)
_cell_length_b                   13.6879(12)
_cell_length_c                   15.4572(12)
_cell_angle_alpha                90
_cell_angle_beta                 108.350(4)
_cell_angle_gamma                90
_cell_volume                     3822.63
_exptl_crystal_colour            yellow
_exptl_crystal_description       rectangular
_chemical_melting_point          '172 deg.C'
_cell_formula_units_Z            8
loop_
_atom_site_label
_atom_site_type_symbol
_atom_site_fract_x
_atom_site_fract_y
_atom_site_fract_z
C1 C 0.03678(9) 0.34082(12) 0.15948(10)
H1 H -0.0091 0.3593 0.1634
C2 C 0.05728(11) 0.24770(12) 0.16935(12)
H2 H 0.0254 0.2018 0.1810
C3 C 0.12620(10) 0.21614(11) 0.16261(10)
C4 C 0.14644(11) 0.11711(12) 0.17034(11)
H3 H 0.1151 0.0715 0.1836
C5 C 0.21071(12) 0.08662(12) 0.15887(12)
H4 H 0.2234 0.0208 0.1647
C6 C 0.25732(10) 0.15390(12) 0.13851(11)
H5 H 0.3008 0.1327 0.1292
C7 C 0.24032(9) 0.25137(10) 0.13186(10)
H6 H 0.2728 0.2957 0.1191
C8 C 0.17468(8) 0.28516(10) 0.14404(9)
C9 C 0.15254(7) 0.38613(9) 0.13536(8)
C10 C 0.18258(7) 0.47304(9) 0.11277(9)
C11 C 0.13153(8) 0.54736(10) 0.10907(9)
H7 H 0.1372 0.6122 0.0947
C12 C 0.07157(8) 0.51048(10) 0.12974(9)
C13 C 0.00577(8) 0.56045(12) 0.13475(9)
C14 C 0.00517(8) 0.66914(11) 0.13139(9)
C15 C 0.06440(8) 0.72560(11) 0.18216(10)
H8 H 0.1073 0.6956 0.2186
C16 C 0.05972(10) 0.82558(13) 0.17870(12)
H9 H 0.0992 0.8632 0.2136
C17 C -0.00311(11) 0.87031(14) 0.12373(13)
H10 H -0.0054 0.9381 0.1199
C18 C -0.06223(11) 0.81566(14) 0.07472(11)
H11 H -0.1049 0.8463 0.0383
C19 C -0.05872(9) 0.71561(13) 0.07915(10)
H12 H -0.0996 0.6787 0.0468
C20 C 0.25609(7) 0.49210(9) 0.10512(9)
C21 C 0.26389(7) 0.56082(9) 0.03556(9)
C22 C 0.33317(8) 0.60113(10) 0.04263(10)
C23 C 0.33990(10) 0.66560(11) -0.02355(12)
H13 H 0.3856 0.6935 -0.0180
C24 C 0.28002(11) 0.68841(12) -0.09667(12)
H14 H 0.2854 0.7319 -0.1404
C25 C 0.21209(10) 0.64795(12) -0.10631(11)
H15 H 0.1718 0.6630 -0.1569
C26 C 0.20380(8) 0.58500(10) -0.04077(10)
H16 H 0.1575 0.5581 -0.0473
N1 N 0.08414(6) 0.41030(8) 0.14330(7)
O1 O -0.04923(6) 0.51729(9) 0.13993(10)
O2 O 0.31197(6) 0.45392(7) 0.15880(7)
O3 O 0.39450(6) 0.57958(9) 0.11252(9)
H17 H 0.3852 0.5354 0.1431
loop_
_geom_bond_atom_site_label_1
_geom_bond_atom_site_label_2
_geom_bond_site_symmetry_1
_geom_bond_site_symmetry_2
C1 H1 1_555 1_555
C2 C1 1_555 1_555
H2 C2 1_555 1_555
C3 C2 1_555 1_555
C4 C3 1_555 1_555
H3 C4 1_555 1_555
C5 C4 1_555 1_555
H4 C5 1_555 1_555
C6 C5 1_555 1_555
H5 C6 1_555 1_555
C7 C6 1_555 1_555
H6 C7 1_555 1_555
C8 C3 1_555 1_555
C9 C8 1_555 1_555
C10 C9 1_555 1_555
C11 C10 1_555 1_555
H7 C11 1_555 1_555
C12 C11 1_555 1_555
C13 C12 1_555 1_555
C14 C13 1_555 1_555
C15 C14 1_555 1_555
H8 C15 1_555 1_555
C16 C15 1_555 1_555
H9 C16 1_555 1_555
C17 C16 1_555 1_555
H10 C17 1_555 1_555
C18 C17 1_555 1_555
H11 C18 1_555 1_555
C19 C14 1_555 1_555
H12 C19 1_555 1_555
C20 C10 1_555 1_555
C21 C20 1_555 1_555
C22 C21 1_555 1_555
C23 C22 1_555 1_555
H13 C23 1_555 1_555
C24 C23 1_555 1_555
H14 C24 1_555 1_555
C25 C24 1_555 1_555
H15 C25 1_555 1_555
C26 C21 1_555 1_555
H16 C26 1_555 1_555
N1 C1 1_555 1_555
O1 C13 1_555 1_555
O2 C20 1_555 1_555
O3 C22 1_555 1_555
H17 O3 1_555 1_555
C7 C8 1_555 1_555
C9 N1 1_555 1_555
C12 N1 1_555 1_555
C18 C19 1_555 1_555
C25 C26 1_555 1_555

#END
