
#######################################################################
#
#                 Cambridge Crystallographic Data Centre
#                                CCDC 
#
#######################################################################
#
# If this CIF has been generated from an entry in the Cambridge 
# Structural Database, then it will include bibliographic, chemical, 
# crystal, experimental, refinement or atomic coordinate data resulting 
# from the CCDC's data processing and validation procedures.
#
#######################################################################

data_ENILUJ
_chemical_formula_moiety         'C29 H19 N3 O2'
_chemical_name_systematic        
N-(1-Benzoyl-2-cyano-2-phenyl-1,2-dihydro-3H-indol-3-ylidene)benzamide
_symmetry_cell_setting           monoclinic
_symmetry_space_group_name_H-M   'P 21/c'
_symmetry_Int_Tables_number      14
_space_group_name_Hall           '-P 2ybc'
loop_
_symmetry_equiv_pos_site_id
_symmetry_equiv_pos_as_xyz
1 x,y,z
2 -x,1/2+y,1/2-z
3 -x,-y,-z
4 x,1/2-y,1/2+z
_cell_length_a                   8.959(2)
_cell_length_b                   21.637(5)
_cell_length_c                   11.593(3)
_cell_angle_alpha                90
_cell_angle_beta                 93.785(14)
_cell_angle_gamma                90
_cell_volume                     2242.35
_exptl_crystal_colour            colorless
_exptl_crystal_description       block
_cell_formula_units_Z            4
loop_
_atom_site_label
_atom_site_type_symbol
_atom_site_fract_x
_atom_site_fract_y
_atom_site_fract_z
O1 O 0.49112(10) 0.41433(5) 0.69340(9)
O2 O -0.03513(13) 0.37340(6) 0.21006(10)
N1 N 0.24977(12) 0.41457(5) 0.62799(9)
N2 N 0.46837(15) 0.43511(6) 0.39507(12)
C1 C 0.13329(14) 0.37301(6) 0.45615(11)
C2 C 0.02411(14) 0.40372(6) 0.52283(11)
C3 C -0.12876(15) 0.41195(7) 0.49703(13)
H1 H -0.1766 0.3933 0.4325
C4 C -0.20711(16) 0.44823(7) 0.56896(13)
H2 H -0.3098 0.4533 0.5549
C5 C -0.13312(16) 0.47727(7) 0.66234(13)
H3 H -0.1874 0.5031 0.7082
C6 C 0.01811(16) 0.46951(7) 0.69051(12)
H4 H 0.0657 0.4895 0.7538
C7 C 0.09585(14) 0.43070(6) 0.62046(11)
C8 C 0.36311(15) 0.42722(6) 0.71149(12)
C9 C 0.31997(15) 0.45449(7) 0.82255(11)
C10 C 0.24016(18) 0.42004(7) 0.89774(13)
H5 H 0.2137 0.3795 0.8795
C11 C 0.1997(2) 0.44582(8) 0.99984(14)
H6 H 0.1473 0.4225 1.0511
C12 C 0.2366(2) 0.50569(9) 1.02565(16)
H7 H 0.2076 0.5233 1.0938
C13 C 0.3165(3) 0.53996(10) 0.95148(18)
H8 H 0.3411 0.5808 0.9695
C14 C 0.3604(2) 0.51415(9) 0.85017(15)
H9 H 0.4170 0.5370 0.8010
C15 C 0.28624(14) 0.37819(6) 0.52641(11)
C16 C 0.39055(15) 0.41173(6) 0.45565(12)
C17 C 0.34376(14) 0.31316(6) 0.55402(11)
C18 C 0.43839(17) 0.28401(7) 0.48194(13)
H10 H 0.4749 0.3054 0.4202
C19 C 0.4790(2) 0.22287(8) 0.50138(16)
H11 H 0.5422 0.2033 0.4523
C20 C 0.4264(2) 0.19107(8) 0.59260(16)
H12 H 0.4540 0.1501 0.6057
C21 C 0.3328(2) 0.22002(8) 0.66453(16)
H13 H 0.2980 0.1986 0.7269
C22 C 0.28972(17) 0.28084(7) 0.64534(13)
H14 H 0.2247 0.2998 0.6937
N3 N 0.12742(13) 0.34606(6) 0.35977(10)
C23 C -0.00027(17) 0.33664(7) 0.28586(12)
C24 C -0.07490(16) 0.27590(7) 0.29837(12)
C25 C -0.03495(18) 0.23530(8) 0.38758(14)
H15 H 0.0416 0.2457 0.4422
C26 C -0.1083(2) 0.17936(8) 0.39583(16)
H16 H -0.0813 0.1524 0.4561
C27 C -0.22111(19) 0.16365(8) 0.31483(15)
H17 H -0.2701 0.1260 0.3202
C28 C -0.2615(2) 0.20351(8) 0.22618(16)
H18 H -0.3377 0.1927 0.1716
C29 C -0.18942(19) 0.25965(8) 0.21755(14)
H19 H -0.2177 0.2866 0.1575
loop_
_geom_bond_atom_site_label_1
_geom_bond_atom_site_label_2
_geom_bond_site_symmetry_1
_geom_bond_site_symmetry_2
O1 C8 1_555 1_555
O2 C23 1_555 1_555
N1 C7 1_555 1_555
N2 C16 1_555 1_555
C1 C2 1_555 1_555
C2 C3 1_555 1_555
C3 H1 1_555 1_555
C4 C3 1_555 1_555
H2 C4 1_555 1_555
C5 C4 1_555 1_555
H3 C5 1_555 1_555
C6 C5 1_555 1_555
H4 C6 1_555 1_555
C7 C2 1_555 1_555
C8 N1 1_555 1_555
C9 C8 1_555 1_555
C10 C9 1_555 1_555
H5 C10 1_555 1_555
C11 C10 1_555 1_555
H6 C11 1_555 1_555
C12 C11 1_555 1_555
H7 C12 1_555 1_555
C13 C12 1_555 1_555
H8 C13 1_555 1_555
C14 C9 1_555 1_555
H9 C14 1_555 1_555
C15 N1 1_555 1_555
C16 C15 1_555 1_555
C17 C15 1_555 1_555
C18 C17 1_555 1_555
H10 C18 1_555 1_555
C19 C18 1_555 1_555
H11 C19 1_555 1_555
C20 C19 1_555 1_555
H12 C20 1_555 1_555
C21 C20 1_555 1_555
H13 C21 1_555 1_555
C22 C17 1_555 1_555
H14 C22 1_555 1_555
N3 C1 1_555 1_555
C23 N3 1_555 1_555
C24 C23 1_555 1_555
C25 C24 1_555 1_555
H15 C25 1_555 1_555
C26 C25 1_555 1_555
H16 C26 1_555 1_555
C27 C26 1_555 1_555
H17 C27 1_555 1_555
C28 C27 1_555 1_555
H18 C28 1_555 1_555
C29 C24 1_555 1_555
H19 C29 1_555 1_555
C1 C15 1_555 1_555
C6 C7 1_555 1_555
C13 C14 1_555 1_555
C21 C22 1_555 1_555
C28 C29 1_555 1_555

#END
