
#######################################################################
#
#                 Cambridge Crystallographic Data Centre
#                                CCDC 
#
#######################################################################
#
# If this CIF has been generated from an entry in the Cambridge 
# Structural Database, then it will include bibliographic, chemical, 
# crystal, experimental, refinement or atomic coordinate data resulting 
# from the CCDC's data processing and validation procedures.
#
#######################################################################

data_ENIPUO
_chemical_formula_moiety         'C17 H17 F6 N2 O1 1+,C10 H8 F3 O3 1-'
_chemical_name_systematic        
'2-((2,8-bis(trifluoromethyl)quinolin-4-yl)(hydroxy)methyl)piperidinium 3,3,3-trifluoro-2-methoxy-2-phenylpropanoate'
_symmetry_cell_setting           triclinic
_symmetry_space_group_name_H-M   'P 1'
_symmetry_Int_Tables_number      1
_space_group_name_Hall           'P 1'
loop_
_symmetry_equiv_pos_site_id
_symmetry_equiv_pos_as_xyz
1 x,y,z
_cell_length_a                   7.52100(10)
_cell_length_b                   13.3056(3)
_cell_length_c                   14.8445(4)
_cell_angle_alpha                69.2830(10)
_cell_angle_beta                 76.336(2)
_cell_angle_gamma                85.759(2)
_cell_volume                     1350.06
_exptl_crystal_colour            colorless
_exptl_crystal_description       prism
_cell_formula_units_Z            2
loop_
_atom_site_label
_atom_site_type_symbol
_atom_site_fract_x
_atom_site_fract_y
_atom_site_fract_z
F1 F 0.8444(4) 0.1170(3) 0.5300(2)
F2 F 0.5631(4) 0.1485(2) 0.5833(2)
F3 F 0.6947(4) 0.0119(2) 0.66921(19)
F4 F 0.1398(4) 0.0877(2) 0.8274(2)
F5 F 0.0908(3) 0.1205(2) 0.9628(2)
F6 F 0.2499(3) -0.0157(2) 0.94808(19)
O1 O 0.4889(4) 0.3672(2) 0.9949(2)
H1 H 0.4170 0.4042 0.9608
N1 N 0.4983(5) 0.1398(3) 0.7841(2)
N2 N 0.8065(4) 0.3602(3) 1.0487(2)
H2 H 0.6967 0.3831 1.0756
H3 H 0.8680 0.4185 1.0010
C1 C 0.3912(5) 0.1540(3) 0.8621(3)
C2 C 0.4296(5) 0.2180(3) 0.9126(3)
H4 H 0.3435 0.2243 0.9686
C3 C 0.5949(5) 0.2716(3) 0.8793(3)
C4 C 0.7182(6) 0.2603(3) 0.7942(3)
C5 C 0.8905(6) 0.3123(3) 0.7521(3)
H5 H 0.9307 0.3562 0.7820
C6 C 1.0004(7) 0.3003(4) 0.6688(3)
H6 H 1.1161 0.3357 0.6416
C7 C 0.9433(7) 0.2360(4) 0.6233(3)
H7 H 1.0202 0.2291 0.5650
C8 C 0.7797(6) 0.1838(3) 0.6615(3)
C9 C 0.6618(6) 0.1942(3) 0.7480(3)
C10 C 0.7198(6) 0.1147(4) 0.6118(3)
C11 C 0.2171(6) 0.0878(4) 0.8987(3)
C12 C 0.6438(5) 0.3415(3) 0.9326(3)
H8 H 0.7044 0.4093 0.8826
C13 C 0.7726(5) 0.2830(3) 1.0011(3)
H9 H 0.8910 0.2685 0.9602
C14 C 0.9133(5) 0.3145(3) 1.1276(3)
H10 H 0.9263 0.3690 1.1570
H11 H 1.0373 0.2947 1.0984
C15 C 0.8136(5) 0.2153(4) 1.2075(3)
H12 H 0.8828 0.1852 1.2601
H13 H 0.6908 0.2355 1.2377
C16 C 0.7948(6) 0.1313(3) 1.1626(3)
H14 H 0.7274 0.0679 1.2144
H15 H 0.9178 0.1077 1.1364
C17 C 0.6924(5) 0.1771(3) 1.0791(3)
H16 H 0.6942 0.1235 1.0466
H17 H 0.5631 0.1884 1.1081
F7 F 0.8231(4) 0.9969(2) 0.3955(2)
F8 F 0.9419(5) 0.8584(3) 0.4868(2)
F9 F 0.6569(4) 0.8912(3) 0.5290(2)
F10 F 1.3944(4) 0.9275(2) 0.2510(2)
F11 F 1.3021(3) 1.0328(2) 0.1238(2)
F12 F 1.4637(3) 0.8949(2) 0.1148(2)
O2 O 1.0924(4) 0.6563(2) 0.0590(2)
H18 H 1.1678 0.6251 0.0933
N3 N 1.0378(5) 0.8743(3) 0.2826(2)
N4 N 0.7693(4) 0.6547(2) 0.0053(2)
H19 H 0.8799 0.6369 -0.0258
H20 H 0.7169 0.5937 0.0533
C18 C 1.1552(5) 0.8637(3) 0.2051(3)
C19 C 1.1274(5) 0.8010(3) 0.1509(3)
H21 H 1.2198 0.7963 0.0965
C20 C 0.9646(5) 0.7468(3) 0.1778(3)
C21 C 0.8330(6) 0.7544(3) 0.2612(3)
C22 C 0.6619(6) 0.6970(3) 0.2991(3)
H22 H 0.6314 0.6523 0.2671
C23 C 0.5429(6) 0.7059(4) 0.3806(3)
H23 H 0.4301 0.6673 0.4048
C24 C 0.5843(6) 0.7714(4) 0.4295(3)
H24 H 0.4993 0.7768 0.4861
C25 C 0.7464(6) 0.8271(3) 0.3960(3)
C26 C 0.8764(5) 0.8192(3) 0.3114(3)
C27 C 0.7921(7) 0.8934(4) 0.4511(3)
C28 C 1.3288(6) 0.9288(3) 0.1746(3)
C29 C 0.9309(5) 0.6777(3) 0.1210(3)
H25 H 0.8751 0.6078 0.1694
C30 C 0.7994(5) 0.7324(3) 0.0531(3)
H26 H 0.6800 0.7448 0.0945
C31 C 0.6510(5) 0.6972(3) -0.0679(3)
H27 H 0.5274 0.7127 -0.0343
H28 H 0.6384 0.6427 -0.0974
C32 C 0.7361(6) 0.7986(3) -0.1480(3)
H29 H 0.6579 0.8269 -0.1965
H30 H 0.8576 0.7823 -0.1832
C33 C 0.7570(5) 0.8833(3) -0.1033(3)
H31 H 0.6346 0.9033 -0.0723
H32 H 0.8163 0.9486 -0.1562
C34 C 0.8727(5) 0.8399(3) -0.0256(3)
H33 H 1.0002 0.8306 -0.0588
H34 H 0.8744 0.8931 0.0070
F13 F 0.3672(4) 0.5765(2) 0.60704(18)
F14 F 0.0856(3) 0.5380(2) 0.68169(18)
F15 F 0.2970(4) 0.4249(2) 0.7246(2)
O3 O 0.1897(4) 0.4383(3) 0.9334(2)
O4 O -0.0273(4) 0.5472(2) 0.8791(2)
O5 O 0.4526(3) 0.5488(2) 0.7955(2)
C35 C 0.1349(5) 0.5153(3) 0.8714(3)
C36 C 0.2780(5) 0.5775(3) 0.7733(3)
C37 C 0.2558(5) 0.5295(3) 0.6963(3)
C38 C 0.6112(6) 0.6000(4) 0.7201(3)
H35 H 0.6417 0.5635 0.6715
H36 H 0.7150 0.5957 0.7506
H37 H 0.5844 0.6756 0.6870
C39 C 0.2475(5) 0.6981(3) 0.7428(3)
C40 C 0.1796(6) 0.7609(3) 0.6613(3)
H38 H 0.1443 0.7283 0.6205
C41 C 0.1635(6) 0.8714(3) 0.6393(3)
H39 H 0.1158 0.9136 0.5840
C42 C 0.2157(6) 0.9205(3) 0.6970(3)
H40 H 0.2072 0.9963 0.6805
C43 C 0.2807(6) 0.8583(3) 0.7790(3)
H41 H 0.3160 0.8912 0.8194
C44 C 0.2942(5) 0.7479(3) 0.8021(3)
H42 H 0.3360 0.7057 0.8595
F16 F 0.0661(3) 0.4909(2) 0.28770(18)
F17 F 0.2010(3) 0.5936(2) 0.33665(19)
F18 F 0.1071(3) 0.4363(2) 0.43606(17)
O6 O 0.3771(4) 0.5882(2) 0.1512(2)
O7 O 0.6151(4) 0.4788(2) 0.1645(2)
O8 O 0.4715(4) 0.4555(2) 0.3726(2)
C45 C 0.4594(5) 0.5098(3) 0.1971(3)
C46 C 0.3690(5) 0.4435(3) 0.3076(3)
C47 C 0.1852(5) 0.4921(3) 0.3418(3)
C48 C 0.6521(5) 0.4112(3) 0.3692(3)
H43 H 0.6482 0.3364 0.3729
H44 H 0.6968 0.4141 0.4252
H45 H 0.7346 0.4530 0.3072
C49 C 0.3369(5) 0.3262(3) 0.3213(3)
C50 C 0.3397(5) 0.2466(3) 0.4118(3)
H46 H 0.3636 0.2650 0.4641
C51 C 0.3074(6) 0.1395(4) 0.4259(3)
H47 H 0.3121 0.0850 0.4874
C52 C 0.2689(6) 0.1130(4) 0.3511(4)
H48 H 0.2460 0.0402 0.3609
C53 C 0.2636(5) 0.1926(3) 0.2613(3)
H49 H 0.2352 0.1743 0.2099
C54 C 0.2994(5) 0.2989(3) 0.2460(3)
H50 H 0.2983 0.3530 0.1838
loop_
_geom_bond_atom_site_label_1
_geom_bond_atom_site_label_2
_geom_bond_site_symmetry_1
_geom_bond_site_symmetry_2
F1 C10 1_555 1_555
F2 C10 1_555 1_555
F3 C10 1_555 1_555
F4 C11 1_555 1_555
F5 C11 1_555 1_555
F6 C11 1_555 1_555
O1 H1 1_555 1_555
N1 C1 1_555 1_555
N2 H2 1_555 1_555
H3 N2 1_555 1_555
C1 C2 1_555 1_555
C2 H4 1_555 1_555
C3 C2 1_555 1_555
C4 C3 1_555 1_555
C5 C4 1_555 1_555
H5 C5 1_555 1_555
C6 C5 1_555 1_555
H6 C6 1_555 1_555
C7 C6 1_555 1_555
H7 C7 1_555 1_555
C8 C7 1_555 1_555
C9 N1 1_555 1_555
C10 C8 1_555 1_555
C11 C1 1_555 1_555
C12 O1 1_555 1_555
H8 C12 1_555 1_555
C13 N2 1_555 1_555
H9 C13 1_555 1_555
C14 N2 1_555 1_555
H10 C14 1_555 1_555
H11 C14 1_555 1_555
C15 C14 1_555 1_555
H12 C15 1_555 1_555
H13 C15 1_555 1_555
C16 C15 1_555 1_555
H14 C16 1_555 1_555
H15 C16 1_555 1_555
C17 C13 1_555 1_555
H16 C17 1_555 1_555
H17 C17 1_555 1_555
F7 C27 1_555 1_555
F8 C27 1_555 1_555
F9 C27 1_555 1_555
F10 C28 1_555 1_555
F11 C28 1_555 1_555
F12 C28 1_555 1_555
O2 H18 1_555 1_555
N3 C18 1_555 1_555
N4 H19 1_555 1_555
H20 N4 1_555 1_555
C18 C19 1_555 1_555
C19 H21 1_555 1_555
C20 C19 1_555 1_555
C21 C20 1_555 1_555
C22 C21 1_555 1_555
H22 C22 1_555 1_555
C23 C22 1_555 1_555
H23 C23 1_555 1_555
C24 C23 1_555 1_555
H24 C24 1_555 1_555
C25 C24 1_555 1_555
C26 N3 1_555 1_555
C27 C25 1_555 1_555
C28 C18 1_555 1_555
C29 O2 1_555 1_555
H25 C29 1_555 1_555
C30 N4 1_555 1_555
H26 C30 1_555 1_555
C31 N4 1_555 1_555
H27 C31 1_555 1_555
H28 C31 1_555 1_555
C32 C31 1_555 1_555
H29 C32 1_555 1_555
H30 C32 1_555 1_555
C33 C32 1_555 1_555
H31 C33 1_555 1_555
H32 C33 1_555 1_555
C34 C30 1_555 1_555
H33 C34 1_555 1_555
H34 C34 1_555 1_555
F13 C37 1_555 1_555
F14 C37 1_555 1_555
F15 C37 1_555 1_555
O3 C35 1_555 1_555
O4 C35 1_555 1_555
O5 C36 1_555 1_555
C35 C36 1_555 1_555
C36 C37 1_555 1_555
C38 O5 1_555 1_555
H35 C38 1_555 1_555
H36 C38 1_555 1_555
H37 C38 1_555 1_555
C39 C36 1_555 1_555
C40 C39 1_555 1_555
H38 C40 1_555 1_555
C41 C40 1_555 1_555
H39 C41 1_555 1_555
C42 C41 1_555 1_555
H40 C42 1_555 1_555
C43 C42 1_555 1_555
H41 C43 1_555 1_555
C44 C39 1_555 1_555
H42 C44 1_555 1_555
F16 C47 1_555 1_555
F17 C47 1_555 1_555
F18 C47 1_555 1_555
O6 C45 1_555 1_555
O7 C45 1_555 1_555
O8 C46 1_555 1_555
C45 C46 1_555 1_555
C46 C47 1_555 1_555
C48 O8 1_555 1_555
H43 C48 1_555 1_555
H44 C48 1_555 1_555
H45 C48 1_555 1_555
C49 C46 1_555 1_555
C50 C49 1_555 1_555
H46 C50 1_555 1_555
C51 C50 1_555 1_555
H47 C51 1_555 1_555
C52 C51 1_555 1_555
H48 C52 1_555 1_555
C53 C52 1_555 1_555
H49 C53 1_555 1_555
C54 C49 1_555 1_555
H50 C54 1_555 1_555
C3 C12 1_555 1_555
C4 C9 1_555 1_555
C8 C9 1_555 1_555
C12 C13 1_555 1_555
C16 C17 1_555 1_555
C20 C29 1_555 1_555
C21 C26 1_555 1_555
C25 C26 1_555 1_555
C29 C30 1_555 1_555
C33 C34 1_555 1_555
C43 C44 1_555 1_555
C53 C54 1_555 1_555

#END
