
#######################################################################
#
#                 Cambridge Crystallographic Data Centre
#                                CCDC 
#
#######################################################################
#
# If this CIF has been generated from an entry in the Cambridge 
# Structural Database, then it will include bibliographic, chemical, 
# crystal, experimental, refinement or atomic coordinate data resulting 
# from the CCDC's data processing and validation procedures.
#
#######################################################################

data_ENIQAT
_chemical_formula_moiety         'C15 H24 N4 O7'
_chemical_name_systematic        
'Isopropyl 6-amino-2,5-anhydro-3,6-dideoxy-6-N-(2,5-anhydro-6-azido-3,6-dideoxy-L-arabino-hexonyl)-L-arabino-hexonate'
_symmetry_cell_setting           monoclinic
_symmetry_space_group_name_H-M   'P 21'
_symmetry_Int_Tables_number      4
_space_group_name_Hall           'P 2yb'
loop_
_symmetry_equiv_pos_site_id
_symmetry_equiv_pos_as_xyz
1 x,y,z
2 -x,1/2+y,-z
_cell_length_a                   9.7238(3)
_cell_length_b                   5.6312(2)
_cell_length_c                   16.2836(5)
_cell_angle_alpha                90
_cell_angle_beta                 92.0137(14)
_cell_angle_gamma                90
_cell_volume                     891.085
_exptl_crystal_colour            colorless
_exptl_crystal_description       plate
_cell_formula_units_Z            2
_exptl_crystal_recrystallization_method 'dichloromethane/40-60 petroleum ether'
loop_
_atom_site_label
_atom_site_type_symbol
_atom_site_fract_x
_atom_site_fract_y
_atom_site_fract_z
N1 N 0.7869(4) 0.6875(7) 1.4509(2)
N2 N 0.8679(3) 0.5564(6) 1.43180(14)
N3 N 0.9659(3) 0.4331(6) 1.41502(16)
C1 C 0.9289(3) 0.2011(7) 1.37722(18)
C2 C 0.9001(3) 0.2205(6) 1.28524(16)
O1 O 0.7937(2) 0.3929(4) 1.26945(11)
C3 C 0.6763(3) 0.2819(6) 1.22909(16)
C4 C 0.6629(3) 0.3389(5) 1.13810(16)
N4 N 0.7566(2) 0.4861(5) 1.10799(13)
C5 C 0.7451(3) 0.5813(6) 1.02492(15)
C6 C 0.8231(3) 0.4371(5) 0.96212(15)
O2 O 0.80336(19) 0.5540(4) 0.88280(10)
C7 C 0.6931(3) 0.4391(6) 0.83712(15)
C8 C 0.7458(3) 0.3541(6) 0.75626(16)
O3 O 0.64492(19) 0.2535(6) 0.71156(12)
C9 C 0.6840(4) 0.1374(8) 0.6346(2)
C10 C 0.6905(7) -0.1120(10) 0.6489(3)
C11 C 0.5769(8) 0.2126(13) 0.5716(3)
O4 O 0.8610(2) 0.3760(5) 0.73379(12)
C12 C 0.6441(3) 0.2354(6) 0.89128(16)
C13 C 0.7685(3) 0.1897(5) 0.94767(16)
O5 O 0.8731(2) 0.0606(4) 0.90686(14)
O6 O 0.56542(19) 0.2547(5) 1.09749(12)
C14 C 0.6935(3) 0.0168(6) 1.24604(17)
C15 C 0.8494(3) -0.0147(6) 1.24915(16)
O7 O 0.8910(2) -0.0483(5) 1.16649(11)
H1 H 1.0059 0.0859 1.38742
H2 H 0.8438 0.1412 1.40331
H3 H 0.9881 0.2663 1.25914
H4 H 0.5885 0.3444 1.25121
H5 H 0.820(4) 0.543(8) 1.141(2)
H6 H 0.7828 0.7465 1.02549
H7 H 0.6454 0.5850 1.00757
H8 H 0.9202 0.4271 0.98419
H9 H 0.6139 0.5475 0.82376
H10 H 0.7748 0.1877 0.6131
H11 H 0.7162 -0.198 0.5980
H12 H 0.7627 -0.140 0.6929
H13 H 0.5997 -0.172 0.6675
H14 H 0.5990 0.1369 0.5182
H15 H 0.5753 0.3891 0.5650
H16 H 0.4846 0.1566 0.5891
H17 H 0.5627 0.2852 0.92323
H18 H 0.6197 0.0916 0.85799
H19 H 0.7448 0.0972 0.99755
H20 H 0.846(4) -0.066(9) 0.894(2)
H21 H 0.6513 -0.0293 1.29882
H22 H 0.6510 -0.0790 1.20025
H23 H 0.8849 -0.1511 1.28287
H24 H 0.978(4) -0.056(8) 1.170(2)
loop_
_geom_bond_atom_site_label_1
_geom_bond_atom_site_label_2
_geom_bond_site_symmetry_1
_geom_bond_site_symmetry_2
N1 N2 1_555 1_555
N2 N3 1_555 1_555
N3 C1 1_555 1_555
C1 C2 1_555 1_555
C2 O1 1_555 1_555
O1 C3 1_555 1_555
C3 C4 1_555 1_555
C4 N4 1_555 1_555
N4 C5 1_555 1_555
C5 C6 1_555 1_555
C6 O2 1_555 1_555
O2 C7 1_555 1_555
C7 C8 1_555 1_555
C8 O3 1_555 1_555
O3 C9 1_555 1_555
C9 C10 1_555 1_555
C10 H11 1_555 1_555
C11 C9 1_555 1_555
O4 C8 1_555 1_555
C12 C7 1_555 1_555
C13 C6 1_555 1_555
O5 C13 1_555 1_555
O6 C4 1_555 1_555
C14 C3 1_555 1_555
C15 C2 1_555 1_555
O7 C15 1_555 1_555
H1 C1 1_555 1_555
H2 C1 1_555 1_555
H3 C2 1_555 1_555
H4 C3 1_555 1_555
H5 N4 1_555 1_555
H6 C5 1_555 1_555
H7 C5 1_555 1_555
H8 C6 1_555 1_555
H9 C7 1_555 1_555
H10 C9 1_555 1_555
H12 C10 1_555 1_555
H13 C10 1_555 1_555
H14 C11 1_555 1_555
H15 C11 1_555 1_555
H16 C11 1_555 1_555
H17 C12 1_555 1_555
H18 C12 1_555 1_555
H19 C13 1_555 1_555
H20 O5 1_555 1_555
H21 C14 1_555 1_555
H22 C14 1_555 1_555
H23 C15 1_555 1_555
H24 O7 1_555 1_555
C12 C13 1_555 1_555
C14 C15 1_555 1_555

#END
