
#######################################################################
#
#                 Cambridge Crystallographic Data Centre
#                                CCDC 
#
#######################################################################
#
# If this CIF has been generated from an entry in the Cambridge 
# Structural Database, then it will include bibliographic, chemical, 
# crystal, experimental, refinement or atomic coordinate data resulting 
# from the CCDC's data processing and validation procedures.
#
#######################################################################

data_ENIQOH
_chemical_formula_moiety         'C38 H40 P2'
_chemical_name_systematic        1,2-bis(bis(p-Ethylbenzene)phosphino)benzene
_symmetry_cell_setting           triclinic
_symmetry_space_group_name_H-M   'P -1'
_symmetry_Int_Tables_number      2
_space_group_name_Hall           '-P 1'
loop_
_symmetry_equiv_pos_site_id
_symmetry_equiv_pos_as_xyz
1 x,y,z
2 -x,-y,-z
_cell_length_a                   11.0970(7)
_cell_length_b                   11.6441(7)
_cell_length_c                   13.5466(8)
_cell_angle_alpha                69.2790(10)
_cell_angle_beta                 72.8180(10)
_cell_angle_gamma                89.6040(10)
_cell_volume                     1554.77
_exptl_crystal_colour            colorless
_exptl_crystal_description       block
_cell_formula_units_Z            2
_exptl_crystal_recrystallization_method 'THF-diethyl ether'
loop_
_atom_site_label
_atom_site_type_symbol
_atom_site_fract_x
_atom_site_fract_y
_atom_site_fract_z
P1 P 0.33572(2) 0.98668(2) 0.45550(2)
P2 P 0.48121(2) 1.14800(3) 0.20292(2)
C1 C 0.28254(9) 1.12861(9) 0.47524(8)
C2 C 0.26805(9) 0.97951(9) 0.34822(8)
C3 C 0.19536(10) 1.33270(10) 0.53098(9)
C4 C 0.22486(10) 0.87155(9) 0.58080(8)
C5 C 0.60379(10) 1.04671(10) 0.17686(9)
C6 C 0.58416(10) 0.93872(10) 0.15866(9)
H1 H 0.4998(16) 0.9131(15) 0.1576(13)
C7 C 0.15871(10) 0.90226(10) 0.37263(9)
H2 H 0.1107(14) 0.8572(14) 0.4470(13)
C8 C 0.33601(9) 1.04750(9) 0.23565(9)
C9 C 0.05785(11) 0.68264(10) 0.76699(9)
C10 C 0.19151(10) 1.19447(10) 0.43333(9)
H3 H 0.1575(14) 1.1709(14) 0.3876(13)
C11 C 0.29290(10) 1.03609(10) 0.15226(9)
H4 H 0.3397(15) 1.0804(15) 0.0742(13)
C12 C 0.49204(10) 1.25302(10) 0.06221(9)
C13 C 0.02206(10) 0.80131(10) 0.72702(9)
H5 H -0.0620(14) 0.8187(13) 0.7617(12)
C14 C 0.33191(10) 1.16765(10) 0.54302(9)
H6 H 0.3975(15) 1.1256(14) 0.5712(13)
C15 C 0.72515(10) 1.08050(11) 0.17632(9)
H7 H 0.7404(14) 1.1557(14) 0.1897(12)
C16 C 0.10419(10) 0.89409(10) 0.63559(9)
H8 H 0.0772(14) 0.9742(14) 0.6102(12)
C17 C 0.68280(11) 0.86712(10) 0.13888(9)
H9 H 0.6676(14) 0.7961(14) 0.1254(12)
C18 C 0.82337(11) 1.00940(11) 0.15570(10)
H10 H 0.9074(16) 1.0336(15) 0.1577(13)
C19 C 0.40989(11) 1.42735(11) -0.05122(11)
H11 H 0.3486(15) 1.4871(14) -0.0555(13)
C20 C 0.40571(11) 1.34134(11) 0.05187(10)
H12 H 0.3435(15) 1.3436(15) 0.1203(14)
C21 C 0.14867(10) 1.29509(10) 0.46108(9)
H13 H 0.0856(15) 1.3374(14) 0.4320(13)
C22 C 0.18467(10) 0.95755(10) 0.17820(9)
H14 H 0.1589(14) 0.9500(13) 0.1188(12)
C23 C 0.11719(10) 0.89114(10) 0.28866(9)
H15 H 0.0416(15) 0.8387(14) 0.3075(13)
C24 C 0.14651(12) 1.44085(11) 0.56187(10)
H16 H 0.1679(16) 1.4394(15) 0.6272(14)
H17 H 0.0519(16) 1.4310(15) 0.5849(13)
C25 C 0.80423(10) 0.90179(11) 0.13656(9)
C26 C 0.50256(11) 1.42987(10) -0.14800(10)
C27 C -0.03397(13) 0.57945(11) 0.86180(10)
H18 H -0.0937(17) 0.6134(16) 0.9104(14)
H19 H 0.0158(16) 0.5267(15) 0.9046(14)
C28 C 0.17982(12) 0.66128(10) 0.71469(10)
H20 H 0.2111(17) 0.5810(17) 0.7436(15)
C29 C 0.26256(11) 0.75408(10) 0.62345(10)
H21 H 0.3467(16) 0.7368(15) 0.5917(13)
C30 C 0.58837(11) 1.34177(11) -0.13792(10)
H22 H 0.6519(16) 1.3412(15) -0.2032(14)
C31 C 0.58366(11) 1.25425(11) -0.03493(10)
H23 H 0.6415(15) 1.1960(14) -0.0306(13)
C32 C 0.28830(11) 1.26841(10) 0.57054(9)
H24 H 0.3221(14) 1.2940(14) 0.6192(13)
C33 C 0.50879(13) 1.52425(11) -0.26044(11)
H25 H 0.5946(18) 1.5542(17) -0.3025(15)
H26 H 0.4646(15) 1.5927(15) -0.2492(13)
C34 C 0.90351(13) 0.74454(12) 0.05220(12)
H27 H 0.9848(17) 0.7075(16) 0.0333(14)
H28 H 0.8857(18) 0.7936(17) -0.0176(16)
H29 H 0.8378(19) 0.6753(19) 0.0972(17)
C35 C 0.19981(14) 1.56523(11) 0.46861(12)
H30 H 0.1632(17) 1.6356(17) 0.4887(15)
H31 H 0.1813(16) 1.5694(16) 0.3970(15)
H32 H 0.2914(18) 1.5758(16) 0.4520(15)
C36 C -0.10732(13) 0.50358(12) 0.82277(11)
H33 H -0.1654(16) 0.4371(16) 0.8878(14)
H34 H -0.0473(18) 0.4660(17) 0.7719(15)
H35 H -0.1550(17) 0.5556(16) 0.7790(15)
C37 C 0.91362(12) 0.82571(12) 0.11641(11)
H36 H 0.9196(17) 0.7721(16) 0.1900(15)
H37 H 0.9962(17) 0.8856(16) 0.0732(14)
C38 C 0.45073(13) 1.46990(12) -0.32567(11)
H38 H 0.4567(16) 1.5291(16) -0.3979(15)
H39 H 0.3634(16) 1.4413(15) -0.2836(14)
H40 H 0.4934(16) 1.3995(16) -0.3361(13)
loop_
_geom_bond_atom_site_label_1
_geom_bond_atom_site_label_2
_geom_bond_site_symmetry_1
_geom_bond_site_symmetry_2
P1 C1 1_555 1_555
P2 C5 1_555 1_555
C1 C10 1_555 1_555
C2 P1 1_555 1_555
C3 C21 1_555 1_555
C4 P1 1_555 1_555
C5 C6 1_555 1_555
C6 H1 1_555 1_555
C7 C2 1_555 1_555
H2 C7 1_555 1_555
C8 P2 1_555 1_555
C9 C13 1_555 1_555
C10 H3 1_555 1_555
C11 C8 1_555 1_555
H4 C11 1_555 1_555
C12 P2 1_555 1_555
C13 H5 1_555 1_555
C14 C1 1_555 1_555
H6 C14 1_555 1_555
C15 C5 1_555 1_555
H7 C15 1_555 1_555
C16 C4 1_555 1_555
H8 C16 1_555 1_555
C17 C6 1_555 1_555
H9 C17 1_555 1_555
C18 C15 1_555 1_555
H10 C18 1_555 1_555
C19 H11 1_555 1_555
C20 C12 1_555 1_555
H12 C20 1_555 1_555
C21 C10 1_555 1_555
H13 C21 1_555 1_555
C22 C11 1_555 1_555
H14 C22 1_555 1_555
C23 C7 1_555 1_555
H15 C23 1_555 1_555
C24 C3 1_555 1_555
H16 C24 1_555 1_555
H17 C24 1_555 1_555
C25 C17 1_555 1_555
C26 C19 1_555 1_555
C27 C9 1_555 1_555
H18 C27 1_555 1_555
H19 C27 1_555 1_555
C28 C9 1_555 1_555
H20 C28 1_555 1_555
C29 C4 1_555 1_555
H21 C29 1_555 1_555
C30 C26 1_555 1_555
H22 C30 1_555 1_555
C31 C12 1_555 1_555
H23 C31 1_555 1_555
C32 C3 1_555 1_555
H24 C32 1_555 1_555
C33 C26 1_555 1_555
H25 C33 1_555 1_555
H26 C33 1_555 1_555
C34 H27 1_555 1_555
H28 C34 1_555 1_555
H29 C34 1_555 1_555
C35 C24 1_555 1_555
H30 C35 1_555 1_555
H31 C35 1_555 1_555
H32 C35 1_555 1_555
C36 C27 1_555 1_555
H33 C36 1_555 1_555
H34 C36 1_555 1_555
H35 C36 1_555 1_555
C37 C25 1_555 1_555
H36 C37 1_555 1_555
H37 C37 1_555 1_555
C38 C33 1_555 1_555
H38 C38 1_555 1_555
H39 C38 1_555 1_555
H40 C38 1_555 1_555
C2 C8 1_555 1_555
C13 C16 1_555 1_555
C14 C32 1_555 1_555
C18 C25 1_555 1_555
C19 C20 1_555 1_555
C22 C23 1_555 1_555
C28 C29 1_555 1_555
C30 C31 1_555 1_555
C34 C37 1_555 1_555

#END
