
#######################################################################
#
#                 Cambridge Crystallographic Data Centre
#                                CCDC 
#
#######################################################################
#
# If this CIF has been generated from an entry in the Cambridge 
# Structural Database, then it will include bibliographic, chemical, 
# crystal, experimental, refinement or atomic coordinate data resulting 
# from the CCDC's data processing and validation procedures.
#
#######################################################################

data_ENIQUN
_chemical_formula_moiety         'C30 H32 P2'
_chemical_name_systematic        1,2-bis(Di(p-tolyl)phosphino)ethane
_symmetry_cell_setting           monoclinic
_symmetry_space_group_name_H-M   'P 21/c'
_symmetry_Int_Tables_number      14
_space_group_name_Hall           '-P 2ybc'
loop_
_symmetry_equiv_pos_site_id
_symmetry_equiv_pos_as_xyz
1 x,y,z
2 x,1/2-y,1/2+z
3 -x,-y,-z
4 -x,1/2+y,1/2-z
_cell_length_a                   9.5469(5)
_cell_length_b                   11.8565(6)
_cell_length_c                   14.3645(7)
_cell_angle_alpha                90
_cell_angle_beta                 128.7310(10)
_cell_angle_gamma                90
_cell_volume                     1268.4
_exptl_crystal_colour            colorless
_exptl_crystal_description       block
_cell_formula_units_Z            2
_exptl_crystal_recrystallization_method toluene-hexane
loop_
_atom_site_label
_atom_site_type_symbol
_atom_site_fract_x
_atom_site_fract_y
_atom_site_fract_z
P1 P 0.24214(6) 0.91172(3) 0.42721(3)
C1 C 0.35232(17) 0.78303(12) 0.51218(11)
C2 C 0.10568(16) 0.86330(10) 0.27282(11)
C3 C 0.07017(16) 0.75011(11) 0.23957(11)
H1 H 0.1189 0.6935 0.2993
C4 C 0.30200(17) 0.73993(12) 0.57746(11)
H2 H 0.2124 0.7776 0.5755
C5 C 0.4862(2) 0.72661(15) 0.51881(13)
H3 H 0.5232 0.7544 0.4752
C6 C -0.07493(19) 0.91217(16) 0.06423(15)
H4 H -0.1250 0.9685 0.0042
C7 C -0.03533(17) 0.71911(13) 0.12051(12)
H5 H -0.0591 0.6415 0.0996
C8 C 0.5148(2) 0.58766(15) 0.65240(12)
C9 C 0.38061(18) 0.64299(14) 0.64521(11)
H6 H 0.3419 0.6140 0.6874
C10 C 0.02831(19) 0.94389(12) 0.18260(14)
H7 H 0.0468 1.0217 0.2028
C11 C 0.4234(3) 0.98155(15) 0.43614(14)
H8 H 0.4704 0.9289 0.4081
H9 H 0.3742 1.0483 0.3831
C12 C -0.10667(18) 0.79954(17) 0.03162(12)
C13 C 0.5657(2) 0.63115(18) 0.58762(14)
H10 H 0.6570 0.5943 0.5909
C14 C 0.6051(3) 0.4843(2) 0.72847(17)
H11 H 0.5626 0.4706 0.7743
H12 H 0.7354 0.4959 0.7834
H13 H 0.5763 0.4191 0.6773
C15 C -0.2118(3) 0.7640(3) -0.09684(15)
H14 H -0.1285 0.7436 -0.1123
H15 H -0.2883 0.8265 -0.1492
H16 H -0.2869 0.6987 -0.1125
C11B C 0.5766(3) 1.01845(15) 0.56386(14)
P1B P 0.75786(6) 1.08828(3) 0.57279(3)
C1B C 0.64768(17) 1.21697(12) 0.48782(11)
C4B C 0.69800(17) 1.26007(12) 0.42254(11)
H2B H 0.7876 1.2224 0.4245
C9B C 0.61939(18) 1.35701(14) 0.35479(11)
C8B C 0.4852(2) 1.41234(15) 0.34760(12)
C13B C 0.4343(2) 1.36885(18) 0.41238(14)
C5B C 0.5138(2) 1.27339(15) 0.48119(13)
H3B H 0.4768 1.2456 0.5248
H10B H 0.3430 1.4057 0.4091
C14B C 0.3949(3) 1.5157(2) 0.27153(17)
H11B H 0.4374 1.5294 0.2257
H12B H 0.2646 1.5041 0.2166
H13B H 0.4237 1.5809 0.3227
H6B H 0.6581 1.3860 0.3126
C2B C 0.89432(16) 1.13670(10) 0.72718(11)
C3B C 0.92983(16) 1.24989(11) 0.76043(11)
H1B H 0.8811 1.3065 0.7007
C7B C 1.03533(17) 1.28089(13) 0.87949(12)
H5B H 1.0591 1.3585 0.9004
C12B C 1.10667(18) 1.20046(17) 0.96838(12)
C6B C 1.07493(19) 1.08783(16) 0.93577(15)
H4B H 1.1250 1.0315 0.9958
C10B C 0.97169(19) 1.05611(12) 0.81740(14)
H7B H 0.9532 0.9783 0.7972
C15B C 1.2118(3) 1.2360(3) 1.09684(15)
H14B H 1.1285 1.2564 1.1123
H15B H 1.2883 1.1735 1.1492
H16B H 1.2869 1.3013 1.1125
H8B H 0.5296 1.0711 0.5919
H9B H 0.6258 0.9517 0.6169
loop_
_geom_bond_atom_site_label_1
_geom_bond_atom_site_label_2
_geom_bond_site_symmetry_1
_geom_bond_site_symmetry_2
P1 C1 1_555 1_555
C1 C4 1_555 1_555
C2 P1 1_555 1_555
C3 C2 1_555 1_555
H1 C3 1_555 1_555
C4 H2 1_555 1_555
C5 C1 1_555 1_555
H3 C5 1_555 1_555
C6 H4 1_555 1_555
C7 C3 1_555 1_555
H5 C7 1_555 1_555
C8 C9 1_555 1_555
C9 C4 1_555 1_555
H6 C9 1_555 1_555
C10 C2 1_555 1_555
H7 C10 1_555 1_555
C11 P1 1_555 1_555
H8 C11 1_555 1_555
H9 C11 1_555 1_555
C12 C6 1_555 1_555
C13 C5 1_555 1_555
H10 C13 1_555 1_555
C14 C8 1_555 1_555
H11 C14 1_555 1_555
H12 C14 1_555 1_555
H13 C14 1_555 1_555
C15 C12 1_555 1_555
H14 C15 1_555 1_555
H15 C15 1_555 1_555
H16 C15 1_555 1_555
C11B C11 1_555 1_555
P1B C11B 1_555 1_555
C1B P1B 1_555 1_555
C4B C1B 1_555 1_555
H2B C4B 1_555 1_555
C9B C4B 1_555 1_555
C8B C9B 1_555 1_555
C13B C8B 1_555 1_555
C5B C1B 1_555 1_555
H3B C5B 1_555 1_555
H10B C13B 1_555 1_555
C14B C8B 1_555 1_555
H11B C14B 1_555 1_555
H12B C14B 1_555 1_555
H13B C14B 1_555 1_555
H6B C9B 1_555 1_555
C2B P1B 1_555 1_555
C3B C2B 1_555 1_555
H1B C3B 1_555 1_555
C7B C3B 1_555 1_555
H5B C7B 1_555 1_555
C12B C7B 1_555 1_555
C6B C12B 1_555 1_555
H4B C6B 1_555 1_555
C10B C2B 1_555 1_555
H7B C10B 1_555 1_555
C15B C12B 1_555 1_555
H14B C15B 1_555 1_555
H15B C15B 1_555 1_555
H16B C15B 1_555 1_555
H8B C11B 1_555 1_555
H9B C11B 1_555 1_555
C6 C10 1_555 1_555
C7 C12 1_555 1_555
C8 C13 1_555 1_555
C13B C5B 1_555 1_555
C6B C10B 1_555 1_555

#END
