
#######################################################################
#
#                 Cambridge Crystallographic Data Centre
#                                CCDC 
#
#######################################################################
#
# If this CIF has been generated from an entry in the Cambridge 
# Structural Database, then it will include bibliographic, chemical, 
# crystal, experimental, refinement or atomic coordinate data resulting 
# from the CCDC's data processing and validation procedures.
#
#######################################################################

data_ENISOJ
_chemical_formula_moiety         'C16 H12 O2'
_chemical_name_systematic        
Dispiro(cyclopropane-1,1'(2'H)-cyclobuta(b)naphthalene-2',1''-cyclopropane)-3',8'-dione
_symmetry_cell_setting           monoclinic
_symmetry_space_group_name_H-M   'P 21'
_symmetry_Int_Tables_number      4
_space_group_name_Hall           'P 2yb'
loop_
_symmetry_equiv_pos_site_id
_symmetry_equiv_pos_as_xyz
1 x,y,z
2 -x,1/2+y,-z
_cell_length_a                   8.7281(5)
_cell_length_b                   8.2720(4)
_cell_length_c                   16.9772(9)
_cell_angle_alpha                90
_cell_angle_beta                 102.0473(9)
_cell_angle_gamma                90
_cell_volume                     1198.74
_exptl_crystal_colour            yellow
_exptl_crystal_description       block
_chemical_melting_point          '376-377 K'
_cell_formula_units_Z            4
_exptl_crystal_recrystallization_method 'petroleum ether-acetone'
loop_
_atom_site_label
_atom_site_type_symbol
_atom_site_fract_x
_atom_site_fract_y
_atom_site_fract_z
O1 O 0.4316(2) 0.9273(2) 0.04930(8)
O2 O 0.69988(19) 0.9227(3) 0.36950(8)
C1 C 0.6100(2) 1.0530(3) 0.15811(11)
C2 C 0.6529(3) 1.1716(3) 0.10926(14)
H1 H 0.6093 1.1715 0.0544
C3 C 0.7598(3) 1.2900(3) 0.14117(17)
H2 H 0.7891 1.3678 0.1076
C4 C 0.8234(3) 1.2930(3) 0.22332(18)
H3 H 0.8937 1.3740 0.2447
C5 C 0.7828(3) 1.1761(3) 0.27331(14)
H4 H 0.8264 1.1785 0.3282
C6 C 0.6770(2) 1.0544(3) 0.24214(12)
C7 C 0.6422(2) 0.9249(3) 0.29724(11)
C8 C 0.5375(2) 0.7986(3) 0.25666(11)
C9 C 0.4657(2) 0.6423(3) 0.27142(11)
C10 C 0.3963(2) 0.6374(3) 0.18020(11)
C11 C 0.4740(2) 0.7969(3) 0.17626(11)
C12 C 0.4971(2) 0.9243(3) 0.12045(11)
C13 C 0.2399(2) 0.5771(3) 0.13621(13)
H5 H 0.1830 0.6422 0.0922
H6 H 0.1748 0.5208 0.1672
C14 C 0.3866(3) 0.4948(3) 0.12468(13)
H7 H 0.4183 0.5104 0.0737
H8 H 0.4101 0.3889 0.1487
C15 C 0.3892(3) 0.5975(4) 0.33999(14)
H9 H 0.2888 0.5428 0.3271
H10 H 0.4024 0.6706 0.3856
C16 C 0.5312(3) 0.5067(3) 0.32665(13)
H11 H 0.6296 0.5250 0.3643
H12 H 0.5160 0.3973 0.3059
O3 O -0.0766(2) 0.6523(2) 0.31542(10)
O4 O 0.2452(3) 1.1503(3) 0.21864(12)
C17 C -0.0311(2) 0.8134(3) 0.20593(11)
C18 C -0.1380(3) 0.7243(3) 0.14923(14)
H13 H -0.1970 0.6431 0.1665
C19 C -0.1562(3) 0.7562(4) 0.06804(16)
H14 H -0.2275 0.6975 0.0304
C20 C -0.0672(4) 0.8763(5) 0.04343(13)
H15 H -0.0773 0.8957 -0.0114
C21 C 0.0371(4) 0.9691(4) 0.09813(14)
H16 H 0.0944 1.0508 0.0801
C22 C 0.0555(3) 0.9387(3) 0.18075(12)
C23 C 0.1677(3) 1.0429(3) 0.23977(14)
C24 C 0.1719(2) 1.0013(2) 0.32377(12)
C25 C 0.2512(2) 1.0433(3) 0.40827(12)
C26 C 0.1562(2) 0.9059(3) 0.43496(10)
C27 C 0.0899(2) 0.8799(2) 0.34740(10)
C28 C -0.0131(2) 0.7701(3) 0.29325(11)
C29 C 0.2040(3) 0.7829(3) 0.50079(12)
H17 H 0.3036 0.7984 0.5379
H18 H 0.1754 0.6710 0.4885
C30 C 0.0744(2) 0.9009(3) 0.50456(12)
H19 H -0.0320 0.8599 0.4945
H20 H 0.0961 0.9873 0.5440
C31 C 0.4208(3) 1.0856(4) 0.43899(16)
H21 H 0.4760 1.0317 0.4874
H22 H 0.4840 1.1083 0.3996
C32 C 0.2955(3) 1.2051(3) 0.44722(17)
H23 H 0.2832 1.2998 0.4127
H24 H 0.2753 1.2231 0.5006
loop_
_geom_bond_atom_site_label_1
_geom_bond_atom_site_label_2
_geom_bond_site_symmetry_1
_geom_bond_site_symmetry_2
O1 C12 1_555 1_555
O2 C7 1_555 1_555
C1 C2 1_555 1_555
C2 H1 1_555 1_555
C3 C2 1_555 1_555
H2 C3 1_555 1_555
C4 C3 1_555 1_555
H3 C4 1_555 1_555
C5 C4 1_555 1_555
H4 C5 1_555 1_555
C6 C1 1_555 1_555
C7 C6 1_555 1_555
C8 C7 1_555 1_555
C9 C8 1_555 1_555
C10 C9 1_555 1_555
C11 C8 1_555 1_555
C12 C1 1_555 1_555
C13 C10 1_555 1_555
H5 C13 1_555 1_555
H6 C13 1_555 1_555
C14 C10 1_555 1_555
H7 C14 1_555 1_555
H8 C14 1_555 1_555
C15 C9 1_555 1_555
H9 C15 1_555 1_555
H10 C15 1_555 1_555
C16 C9 1_555 1_555
H11 C16 1_555 1_555
H12 C16 1_555 1_555
O3 C28 1_555 1_555
O4 C23 1_555 1_555
C17 C18 1_555 1_555
C18 H13 1_555 1_555
C19 C18 1_555 1_555
H14 C19 1_555 1_555
C20 C19 1_555 1_555
H15 C20 1_555 1_555
C21 C20 1_555 1_555
H16 C21 1_555 1_555
C22 C17 1_555 1_555
C23 C22 1_555 1_555
C24 C23 1_555 1_555
C25 C24 1_555 1_555
C26 C25 1_555 1_555
C27 C24 1_555 1_555
C28 C17 1_555 1_555
C29 C26 1_555 1_555
H17 C29 1_555 1_555
H18 C29 1_555 1_555
C30 C26 1_555 1_555
H19 C30 1_555 1_555
H20 C30 1_555 1_555
C31 C25 1_555 1_555
H21 C31 1_555 1_555
H22 C31 1_555 1_555
C32 C25 1_555 1_555
H23 C32 1_555 1_555
H24 C32 1_555 1_555
C5 C6 1_555 1_555
C10 C11 1_555 1_555
C11 C12 1_555 1_555
C13 C14 1_555 1_555
C15 C16 1_555 1_555
C21 C22 1_555 1_555
C26 C27 1_555 1_555
C27 C28 1_555 1_555
C29 C30 1_555 1_555
C31 C32 1_555 1_555

#END
