
#######################################################################
#
#                 Cambridge Crystallographic Data Centre
#                                CCDC 
#
#######################################################################
#
# If this CIF has been generated from an entry in the Cambridge 
# Structural Database, then it will include bibliographic, chemical, 
# crystal, experimental, refinement or atomic coordinate data resulting 
# from the CCDC's data processing and validation procedures.
#
#######################################################################

data_ENOHOF
_chemical_name_common            
1-Benzyl-6-methyl-3-(trimethylsilyl)-5,6-dihydropyridine-2(1H)-thione
_chemical_formula_moiety         'C16 H23 N1 S1 Si1'
_chemical_name_systematic        
1-Benzyl-1,2,5,6-tetrahydro-6-methyl-3-trimethylsilyl-2-pyridinthione
_symmetry_cell_setting           monoclinic
_symmetry_space_group_name_H-M   'P 21/c'
_symmetry_Int_Tables_number      14
_space_group_name_Hall           '-P 2ybc'
loop_
_symmetry_equiv_pos_site_id
_symmetry_equiv_pos_as_xyz
1 x,y,z
2 -x,1/2+y,1/2-z
3 -x,-y,-z
4 x,1/2-y,1/2+z
_cell_length_a                   9.514(1)
_cell_length_b                   11.237(2)
_cell_length_c                   15.947(2)
_cell_angle_alpha                90
_cell_angle_beta                 97.93(2)
_cell_angle_gamma                90
_cell_volume                     1688.57
_exptl_crystal_colour            yellow
_cell_formula_units_Z            4
loop_
_atom_site_label
_atom_site_type_symbol
_atom_site_fract_x
_atom_site_fract_y
_atom_site_fract_z
S1 S 0.7397(1) 0.1804(1) 0.98359(6)
Si1 Si 0.8278(1) 0.1295(1) 0.78938(6)
N1 N 0.4716(3) 0.1617(3) 0.9117(2)
C1 C 0.6098(3) 0.1687(3) 0.9023(2)
C2 C 0.6458(3) 0.1709(3) 0.8144(2)
C3 C 0.5469(4) 0.2089(4) 0.7526(2)
C4 C 0.3985(4) 0.2386(4) 0.7687(2)
C5 C 0.3591(3) 0.1543(4) 0.8368(2)
C6 C 0.4206(4) 0.1492(3) 0.9944(2)
C7 C 0.3387(3) 0.2569(3) 1.0173(2)
C8 C 0.4021(4) 0.3642(4) 1.0375(2)
C9 C 0.3262(5) 0.4604(4) 1.0600(3)
C10 C 0.1828(5) 0.4490(4) 1.0624(2)
C11 C 0.1192(4) 0.3441(4) 1.0424(2)
C12 C 0.1941(4) 0.2479(4) 1.0199(2)
C13 C 0.8036(5) 0.0844(5) 0.6756(3)
C14 C 0.9088(5) 0.0031(4) 0.8512(3)
C15 C 0.9455(5) 0.2621(4) 0.8030(3)
C16 C 0.3340(4) 0.0284(4) 0.8085(3)
H1 H 0.570(3) 0.210(3) 0.693(2)
H2 H 0.290(3) 0.202(3) 0.851(2)
H3 H 0.491(3) 0.370(3) 1.037(2)
H4 H 0.366(3) 0.539(3) 1.065(2)
H5 H 0.141(4) 0.526(3) 1.073(2)
H6 H 0.036(4) 0.338(4) 1.042(2)
H7 H 0.164(4) 0.164(3) 1.014(2)
H8 H 0.331(3) 0.228(3) 0.718(2)
H9 H 0.393(4) 0.334(3) 0.788(2)
H10 H 0.358(3) 0.063(3) 0.995(2)
H11 H 0.493(3) 0.135(3) 1.036(2)
H12 H 0.887(4) 0.044(4) 0.667(3)
H13 H 0.778(4) 0.145(3) 0.648(2)
H14 H 0.744(5) 0.002(4) 0.665(3)
H15 H 0.924(4) 0.016(4) 0.913(3)
H16 H 0.972(4) -0.025(4) 0.828(3)
H17 H 0.856(4) -0.059(4) 0.842(2)
H18 H 1.002(5) 0.259(4) 0.771(3)
H19 H 0.967(4) 0.293(4) 0.854(3)
H20 H 0.893(4) 0.334(4) 0.777(3)
H21 H 0.262(4) 0.033(4) 0.757(2)
H22 H 0.418(4) -0.001(4) 0.783(2)
H23 H 0.309(4) -0.022(4) 0.849(2)
loop_
_geom_bond_atom_site_label_1
_geom_bond_atom_site_label_2
_geom_bond_site_symmetry_1
_geom_bond_site_symmetry_2
S1 C1 1_555 1_555
Si1 C2 1_555 1_555
N1 C1 1_555 1_555
C1 C2 1_555 1_555
C2 C3 1_555 1_555
C3 C4 1_555 1_555
C4 C5 1_555 1_555
C5 N1 1_555 1_555
C6 N1 1_555 1_555
C7 C6 1_555 1_555
C8 C7 1_555 1_555
C9 C8 1_555 1_555
C10 C9 1_555 1_555
C11 C10 1_555 1_555
C12 C7 1_555 1_555
C13 Si1 1_555 1_555
C14 Si1 1_555 1_555
C15 Si1 1_555 1_555
C16 C5 1_555 1_555
H1 C3 1_555 1_555
H2 C5 1_555 1_555
H3 C8 1_555 1_555
H4 C9 1_555 1_555
H5 C10 1_555 1_555
H6 C11 1_555 1_555
H7 C12 1_555 1_555
H8 C4 1_555 1_555
H9 C4 1_555 1_555
H10 C6 1_555 1_555
H11 C6 1_555 1_555
H12 C13 1_555 1_555
H13 C13 1_555 1_555
H14 C13 1_555 1_555
H15 C14 1_555 1_555
H16 C14 1_555 1_555
H17 C14 1_555 1_555
H18 C15 1_555 1_555
H19 C15 1_555 1_555
H20 C15 1_555 1_555
H21 C16 1_555 1_555
H22 C16 1_555 1_555
H23 C16 1_555 1_555
C11 C12 1_555 1_555

#END
