
#######################################################################
#
#                 Cambridge Crystallographic Data Centre
#                                CCDC 
#
#######################################################################
#
# If this CIF has been generated from an entry in the Cambridge 
# Structural Database, then it will include bibliographic, chemical, 
# crystal, experimental, refinement or atomic coordinate data resulting 
# from the CCDC's data processing and validation procedures.
#
#######################################################################

data_ENOHEV
_chemical_name_common            
'Methyl 1-ethanethioyl-5-hydroxy-2,4-dimethyl-2-phenylpyrrolidine-3-carboxylate'
_chemical_formula_moiety         'C16 H21 N1 O3 S1'
_chemical_name_systematic        
'Methyl 5t-hydroxy-2t,4t-dimethyl-2c-phenyl-1-(1-thioxoethyl)pyrrolidine-3r-carboxylate'
_symmetry_cell_setting           monoclinic
_symmetry_space_group_name_H-M   'P 21/c'
_symmetry_Int_Tables_number      14
_space_group_name_Hall           '-P 2ybc'
loop_
_symmetry_equiv_pos_site_id
_symmetry_equiv_pos_as_xyz
1 x,y,z
2 -x,1/2+y,1/2-z
3 -x,-y,-z
4 x,1/2-y,1/2+z
_cell_length_a                   15.267(1)
_cell_length_b                   10.388(1)
_cell_length_c                   10.397(1)
_cell_angle_alpha                90
_cell_angle_beta                 99.63(1)
_cell_angle_gamma                90
_cell_volume                     1625.66
_cell_formula_units_Z            4
loop_
_atom_site_label
_atom_site_type_symbol
_atom_site_fract_x
_atom_site_fract_y
_atom_site_fract_z
S1 S 0.16057(7) 0.14226(8) 0.4844(9)
O1 O 0.3521(1) 0.2214(2) 0.4494(2)
O2 O 0.3593(1) 0.6812(2) 0.2733(2)
O3 O 0.3912(1) 0.7225(2) 0.4867(2)
N1 N 0.2327(1) 0.3678(2) 0.4567(2)
C1 C 0.2909(2) 0.3037(3) 0.3740(3)
C2 C 0.3373(2) 0.4138(3) 0.3192(2)
C3 C 0.3467(2) 0.5130(3) 0.4270(2)
C4 C 0.2576(2) 0.5056(2) 0.4853(2)
C5 C 0.1692(2) 0.3017(3) 0.5009(3)
C6 C 0.1037(2) 0.3722(3) 0.5671(3)
C7 C 0.4252(2) 0.3778(4) 0.2744(3)
C8 C 0.3663(2) 0.6466(3) 0.3840(2)
C9 C 0.4049(2) 0.8573(3) 0.4632(3)
C10 C 0.1874(2) 0.5958(2) 0.4100(2)
C11 C 0.1356(2) 0.5572(3) 0.2937(2)
C12 C 0.0763(2) 0.6418(3) 0.2232(3)
C13 C 0.0673(2) 0.7642(3) 0.2658(3)
C14 C 0.1173(2) 0.8040(3) 0.3808(3)
C15 C 0.1775(2) 0.7201(3) 0.4539(3)
C16 C 0.2780(2) 0.5302(3) 0.6315(2)
H1 H 0.249(1) 0.241(2) 0.297(2)
H2 H 0.295(1) 0.450(2) 0.234(2)
H3 H 0.392(1) 0.487(2) 0.495(2)
H4 H 0.328(3) 0.143(4) 0.484(4)
H5 H 0.140(1) 0.470(2) 0.260(2)
H6 H 0.049(2) 0.610(3) 0.150(3)
H7 H 0.038 0.833(3) 0.213(3)
H8 H 0.118(2) 0.893(3) 0.417(3)
H9 H 0.213(2) 0.745(2) 0.544(2)
H10 H 0.127(2) 0.374(3) 0.680(3)
H11 H 0.105(2) 0.468(3) 0.555(3)
H12 H 0.067(2) 0.339(4) 0.567(3)
H13 H 0.403(2) 0.302(3) 0.195(3)
H14 H 0.458(2) 0.343(3) 0.338(3)
H15 H 0.441(2) 0.462(4) 0.221(4)
H16 H 0.403(2) 0.903(4) 0.543(3)
H17 H 0.426(2) 0.863(3) 0.412(3)
H18 H 0.345(3) 0.913(4) 0.385(4)
H19 H 0.313(2) 0.610(2) 0.649(2)
H20 H 0.226(2) 0.540(3) 0.669(3)
H21 H 0.313(2) 0.455(3) 0.674(2)
loop_
_geom_bond_atom_site_label_1
_geom_bond_atom_site_label_2
_geom_bond_site_symmetry_1
_geom_bond_site_symmetry_2
S1 C5 1_555 1_555
O1 C1 1_555 1_555
O2 C8 1_555 1_555
O3 C8 1_555 1_555
N1 C1 1_555 1_555
C1 C2 1_555 1_555
C2 C3 1_555 1_555
C3 C4 1_555 1_555
C4 N1 1_555 1_555
C5 N1 1_555 1_555
C6 C5 1_555 1_555
C7 C2 1_555 1_555
C8 C3 1_555 1_555
C9 O3 1_555 1_555
C10 C4 1_555 1_555
C11 C10 1_555 1_555
C12 C11 1_555 1_555
C13 C12 1_555 1_555
C14 C13 1_555 1_555
C15 C10 1_555 1_555
C16 C4 1_555 1_555
H1 C1 1_555 1_555
H2 C2 1_555 1_555
H3 C3 1_555 1_555
H4 O1 1_555 1_555
H5 C11 1_555 1_555
H6 C12 1_555 1_555
H7 C13 1_555 1_555
H8 C14 1_555 1_555
H9 C15 1_555 1_555
H10 C6 1_555 1_555
H11 C6 1_555 1_555
H12 C6 1_555 1_555
H13 C7 1_555 1_555
H14 C7 1_555 1_555
H15 C7 1_555 1_555
H16 C9 1_555 1_555
H17 C9 1_555 1_555
H18 C9 1_555 1_555
H19 C16 1_555 1_555
H20 C16 1_555 1_555
H21 C16 1_555 1_555
C14 C15 1_555 1_555

#END
