
#######################################################################
#
#                 Cambridge Crystallographic Data Centre
#                                CCDC 
#
#######################################################################
#
# If this CIF has been generated from an entry in the Cambridge 
# Structural Database, then it will include bibliographic, chemical, 
# crystal, experimental, refinement or atomic coordinate data resulting 
# from the CCDC's data processing and validation procedures.
#
#######################################################################

data_ENONIG
_chemical_name_common            'Daedatrin B'
_chemical_formula_moiety         'C16 H21 N1 O4'
_chemical_name_systematic        
'4-(5-(2-methoxy-2-methylpropylidene)-2-oxo-2,5-dihydro-1H-pyrrol-3-yl)cyclohex-1-ene-1-carboxylic acid'
_symmetry_cell_setting           monoclinic
_symmetry_space_group_name_H-M   'P 21'
_symmetry_Int_Tables_number      4
_space_group_name_Hall           'P 2yb'
loop_
_symmetry_equiv_pos_site_id
_symmetry_equiv_pos_as_xyz
1 x,y,z
2 -x,1/2+y,-z
_cell_length_a                   6.50440(10)
_cell_length_b                   18.0530(3)
_cell_length_c                   13.0427(2)
_cell_angle_alpha                90
_cell_angle_beta                 100.9960(10)
_cell_angle_gamma                90
_cell_volume                     1503.41
_exptl_crystal_colour            colorless
_exptl_crystal_description       prism
_cell_formula_units_Z            4
loop_
_atom_site_label
_atom_site_type_symbol
_atom_site_fract_x
_atom_site_fract_y
_atom_site_fract_z
O1 O 0.2753(2) 1.15128(7) 0.38002(10)
O2 O 1.2161(2) 0.83202(8) -0.09929(11)
O3 O 0.0855(2) 1.04853(8) 0.37829(12)
H1 H 0.0155 1.0753 0.4117
O4 O 0.8287(2) 1.03943(8) -0.02129(12)
C1 C 0.2332(3) 1.08848(10) 0.34910(13)
C2 C 0.3451(3) 1.04877(10) 0.27542(13)
C3 C 0.2527(3) 0.97803(11) 0.22459(17)
H2 H 0.1323 0.9903 0.1685
H3 H 0.2000 0.9475 0.2771
C4 C 0.4122(3) 0.93301(11) 0.17834(15)
H4 H 0.5097 0.9081 0.2355
H5 H 0.3380 0.8942 0.1318
C5 C 0.5366(3) 0.98151(10) 0.11682(14)
H6 H 0.4358 1.0071 0.0605
C6 C 0.6868(3) 0.93792(10) 0.06675(13)
C7 C 0.7367(3) 0.86580(11) 0.07285(14)
H7 H 0.6771 0.8301 0.1120
C8 C 0.8950(3) 0.85014(10) 0.01104(14)
C9 C 0.9787(3) 0.78352(11) -0.00224(15)
H8 H 0.9302 0.7438 0.0346
C10 C 1.1372(3) 0.76305(10) -0.06659(15)
C11 C 1.3643(4) 0.82778(13) -0.16404(17)
H9 H 1.4843 0.7983 -0.1296
H10 H 1.4115 0.8778 -0.1775
H11 H 1.3009 0.8043 -0.2303
N1 N 0.9378(2) 0.91812(9) -0.03154(12)
H12 H 1.0279 0.9246 -0.0732
C12 C 0.8210(3) 0.97287(11) 0.00032(14)
C13 C 1.0289(3) 0.71687(13) -0.16005(16)
H13 H 0.9275 0.7478 -0.2064
H14 H 0.9561 0.6750 -0.1351
H15 H 1.1340 0.6983 -0.1984
C14 C 1.3128(3) 0.71913(11) 0.00106(15)
H16 H 1.4168 0.7050 -0.0407
H17 H 1.2547 0.6744 0.0273
H18 H 1.3798 0.7497 0.0601
C15 C 0.6547(3) 1.04063(12) 0.18919(18)
H19 H 0.7795 1.0177 0.2331
H20 H 0.7041 1.0796 0.1462
C16 C 0.5239(3) 1.07582(11) 0.25870(16)
H21 H 0.5731 1.1206 0.2930
O5 O 0.2245(2) -0.00023(8) 0.85357(11)
O6 O 1.2681(2) 0.32094(8) 0.42839(12)
O7 O 0.1065(2) 0.11026(8) 0.89523(11)
H22 H 0.0208 0.0840 0.9198
O8 O 0.8567(2) 0.11597(8) 0.49227(11)
C17 C 0.2219(3) 0.06710(10) 0.84492(13)
C18 C 0.3471(3) 0.10726(10) 0.77926(13)
C19 C 0.3166(3) 0.17873(11) 0.75702(13)
H23 H 0.2103 0.2037 0.7843
C20 C 0.4393(3) 0.22242(10) 0.69156(14)
H24 H 0.5343 0.2568 0.7372
H25 H 0.3415 0.2525 0.6407
C21 C 0.5684(3) 0.17334(11) 0.63260(13)
H26 H 0.4701 0.1496 0.5734
C22 C 0.7266(3) 0.21677(10) 0.58740(14)
C23 C 0.7822(3) 0.28847(11) 0.59622(14)
H27 H 0.7258 0.3240 0.6370
C24 C 0.9410(3) 0.30395(10) 0.53436(15)
C25 C 1.0268(3) 0.37015(11) 0.52283(15)
H28 H 0.9847 0.4096 0.5625
C26 C 1.1817(3) 0.38995(10) 0.45482(15)
C27 C 1.4107(4) 0.32432(13) 0.36066(18)
H29 H 1.3450 0.3490 0.2957
H30 H 1.4523 0.2740 0.3450
H31 H 1.5347 0.3523 0.3938
C28 C 0.5087(3) 0.06183(11) 0.73840(16)
H32 H 0.4390 0.0318 0.6782
H33 H 0.5777 0.0275 0.7936
C29 C 0.6734(3) 0.11171(11) 0.70449(16)
H34 H 0.7638 0.0818 0.6674
H35 H 0.7629 0.1338 0.7669
C30 C 0.8572(3) 0.18214(11) 0.51845(14)
N2 N 0.9787(2) 0.23598(9) 0.48933(12)
H36 H 1.0691 0.2293 0.4478
C31 C 1.0648(3) 0.42983(13) 0.35793(16)
H37 H 1.1645 0.4454 0.3146
H38 H 0.9934 0.4734 0.3791
H39 H 0.9612 0.3962 0.3178
C32 C 1.3529(3) 0.43969(11) 0.51520(15)
H40 H 1.4257 0.4135 0.5774
H41 H 1.2897 0.4851 0.5363
H42 H 1.4531 0.4524 0.4706
loop_
_geom_bond_atom_site_label_1
_geom_bond_atom_site_label_2
_geom_bond_site_symmetry_1
_geom_bond_site_symmetry_2
O1 C1 1_555 1_555
O2 C10 1_555 1_555
O3 H1 1_555 1_555
O4 C12 1_555 1_555
C1 O3 1_555 1_555
C2 C1 1_555 1_555
C3 C2 1_555 1_555
H2 C3 1_555 1_555
H3 C3 1_555 1_555
C4 C3 1_555 1_555
H4 C4 1_555 1_555
H5 C4 1_555 1_555
C5 C4 1_555 1_555
H6 C5 1_555 1_555
C6 C5 1_555 1_555
C7 C6 1_555 1_555
H7 C7 1_555 1_555
C8 C7 1_555 1_555
C9 C8 1_555 1_555
H8 C9 1_555 1_555
C10 C9 1_555 1_555
C11 O2 1_555 1_555
H9 C11 1_555 1_555
H10 C11 1_555 1_555
H11 C11 1_555 1_555
N1 C8 1_555 1_555
H12 N1 1_555 1_555
C12 C6 1_555 1_555
C13 C10 1_555 1_555
H13 C13 1_555 1_555
H14 C13 1_555 1_555
H15 C13 1_555 1_555
C14 C10 1_555 1_555
H16 C14 1_555 1_555
H17 C14 1_555 1_555
H18 C14 1_555 1_555
C15 C5 1_555 1_555
H19 C15 1_555 1_555
H20 C15 1_555 1_555
C16 C2 1_555 1_555
H21 C16 1_555 1_555
O5 C17 1_555 1_555
O6 C26 1_555 1_555
O7 H22 1_555 1_555
O8 C30 1_555 1_555
C17 O7 1_555 1_555
C18 C17 1_555 1_555
C19 C18 1_555 1_555
H23 C19 1_555 1_555
C20 C19 1_555 1_555
H24 C20 1_555 1_555
H25 C20 1_555 1_555
C21 C20 1_555 1_555
H26 C21 1_555 1_555
C22 C21 1_555 1_555
C23 C22 1_555 1_555
H27 C23 1_555 1_555
C24 C23 1_555 1_555
C25 C24 1_555 1_555
H28 C25 1_555 1_555
C26 C25 1_555 1_555
C27 O6 1_555 1_555
H29 C27 1_555 1_555
H30 C27 1_555 1_555
H31 C27 1_555 1_555
C28 C18 1_555 1_555
H32 C28 1_555 1_555
H33 C28 1_555 1_555
C29 C21 1_555 1_555
H34 C29 1_555 1_555
H35 C29 1_555 1_555
C30 C22 1_555 1_555
N2 C24 1_555 1_555
H36 N2 1_555 1_555
C31 C26 1_555 1_555
H37 C31 1_555 1_555
H38 C31 1_555 1_555
H39 C31 1_555 1_555
C32 C26 1_555 1_555
H40 C32 1_555 1_555
H41 C32 1_555 1_555
H42 C32 1_555 1_555
N1 C12 1_555 1_555
C15 C16 1_555 1_555
C28 C29 1_555 1_555
C30 N2 1_555 1_555

#END
