
#######################################################################
#
#                 Cambridge Crystallographic Data Centre
#                                CCDC 
#
#######################################################################
#
# If this CIF has been generated from an entry in the Cambridge 
# Structural Database, then it will include bibliographic, chemical, 
# crystal, experimental, refinement or atomic coordinate data resulting 
# from the CCDC's data processing and validation procedures.
#
#######################################################################

data_ENUHEC
_chemical_name_common            
4,4'-(3-methylcyclohexane-1,1-diyl)bis(2,6-dimethylaniline)
_chemical_formula_moiety         'C23 H32 N2'
_chemical_name_systematic        
4-(1-(4-amino-3,5-dimethylphenyl)-3-methylcyclohexyl)-2,6-dimethylaniline
_symmetry_cell_setting           monoclinic
_symmetry_space_group_name_H-M   'P 21'
_symmetry_Int_Tables_number      4
_space_group_name_Hall           'P 2yb'
loop_
_symmetry_equiv_pos_site_id
_symmetry_equiv_pos_as_xyz
1 x,y,z
2 -x,1/2+y,-z
_cell_length_a                   10.0850(9)
_cell_length_b                   10.0622(10)
_cell_length_c                   10.5872(8)
_cell_angle_alpha                90
_cell_angle_beta                 112.077(5)
_cell_angle_gamma                90
_cell_volume                     995.588
_exptl_crystal_colour            colorless
_exptl_crystal_description       blocks
_cell_formula_units_Z            2
loop_
_atom_site_label
_atom_site_type_symbol
_atom_site_fract_x
_atom_site_fract_y
_atom_site_fract_z
N1 N 0.3687(3) 0.2946(3) 1.0197(2)
H1 H 0.433(4) 0.360(4) 1.053(3)
H2 H 0.306(4) 0.274(4) 1.054(4)
N2 N 0.5896(3) 0.4671(3) 0.2557(2)
H3 H 0.675(4) 0.432(4) 0.299(3)
H4 H 0.584(4) 0.553(4) 0.245(3)
C1 C 0.3162(3) 0.2839(3) 0.8784(2)
C2 C 0.1988(2) 0.2021(3) 0.8111(2)
C3 C 0.1528(2) 0.1884(2) 0.6693(2)
H5 H 0.0717 0.1345 0.6233
C4 C 0.2217(2) 0.2511(2) 0.5924(2)
C5 C 0.3364(2) 0.3327(2) 0.6637(2)
H6 H 0.3842 0.3780 0.6143
C6 C 0.3849(3) 0.3515(2) 0.8042(2)
C7 C 0.1266(3) 0.1291(3) 0.8906(2)
H7 H 0.0475 0.0761 0.8283
H8 H 0.0894 0.1930 0.9388
H9 H 0.1957 0.0702 0.9568
C8 C 0.5118(3) 0.4399(3) 0.8760(2)
H10 H 0.5488 0.4755 0.8095
H11 H 0.5868 0.3883 0.9450
H12 H 0.4822 0.5135 0.9201
C9 C 0.1728(2) 0.2274(3) 0.4379(2)
C10 C 0.0202(2) 0.2855(3) 0.3661(2)
H13 H -0.0426 0.2503 0.4110
H14 H 0.0245 0.3833 0.3774
C11 C -0.0463(3) 0.2520(4) 0.2122(3)
H15 H -0.1463 0.2845 0.1741
H16 H 0.0077 0.2989 0.1646
C12 C -0.0447(3) 0.1057(4) 0.1861(3)
H17 H -0.0802 0.0895 0.0866
H18 H -0.1096 0.0597 0.2225
C13 C 0.1064(3) 0.0492(4) 0.2535(3)
H19 H 0.1688 0.0968 0.2139
C14 C 0.1643(3) 0.0784(3) 0.4063(2)
H20 H 0.2611 0.0392 0.4490
H21 H 0.1018 0.0352 0.4472
C15 C 0.1105(4) -0.0923(4) 0.2232(4)
H22 H 0.0723 -0.1055 0.1243
H23 H 0.2096 -0.1240 0.2621
H24 H 0.0524 -0.1422 0.2632
C16 C 0.2821(2) 0.2931(3) 0.3866(2)
C17 C 0.2614(2) 0.4170(3) 0.3261(2)
H25 H 0.1741 0.4621 0.3115
C18 C 0.3618(3) 0.4785(3) 0.2857(2)
C19 C 0.4916(2) 0.4134(3) 0.3089(2)
C20 C 0.5186(2) 0.2891(3) 0.3735(2)
C21 C 0.4134(2) 0.2311(3) 0.4097(2)
H26 H 0.4310 0.1460 0.4517
C22 C 0.3317(3) 0.6106(3) 0.2158(3)
H27 H 0.2358 0.6404 0.2059
H28 H 0.3370 0.6026 0.1256
H29 H 0.4027 0.6755 0.2703
C23 C 0.6580(3) 0.2192(3) 0.4002(3)
H30 H 0.6596 0.1354 0.4479
H31 H 0.7372 0.2757 0.4568
H32 H 0.6683 0.2008 0.3134
loop_
_geom_bond_atom_site_label_1
_geom_bond_atom_site_label_2
_geom_bond_site_symmetry_1
_geom_bond_site_symmetry_2
N1 H1 1_555 1_555
H2 N1 1_555 1_555
N2 H3 1_555 1_555
H4 N2 1_555 1_555
C1 N1 1_555 1_555
C2 C1 1_555 1_555
C3 C2 1_555 1_555
H5 C3 1_555 1_555
C4 C3 1_555 1_555
C5 C4 1_555 1_555
H6 C5 1_555 1_555
C6 C1 1_555 1_555
C7 C2 1_555 1_555
H7 C7 1_555 1_555
H8 C7 1_555 1_555
H9 C7 1_555 1_555
C8 C6 1_555 1_555
H10 C8 1_555 1_555
H11 C8 1_555 1_555
H12 C8 1_555 1_555
C9 C4 1_555 1_555
C10 C9 1_555 1_555
H13 C10 1_555 1_555
H14 C10 1_555 1_555
C11 C10 1_555 1_555
H15 C11 1_555 1_555
H16 C11 1_555 1_555
C12 C11 1_555 1_555
H17 C12 1_555 1_555
H18 C12 1_555 1_555
C13 C12 1_555 1_555
H19 C13 1_555 1_555
C14 C9 1_555 1_555
H20 C14 1_555 1_555
H21 C14 1_555 1_555
C15 C13 1_555 1_555
H22 C15 1_555 1_555
H23 C15 1_555 1_555
H24 C15 1_555 1_555
C16 C9 1_555 1_555
C17 C16 1_555 1_555
H25 C17 1_555 1_555
C18 C17 1_555 1_555
C19 N2 1_555 1_555
C20 C19 1_555 1_555
C21 C16 1_555 1_555
H26 C21 1_555 1_555
C22 C18 1_555 1_555
H27 C22 1_555 1_555
H28 C22 1_555 1_555
H29 C22 1_555 1_555
C23 C20 1_555 1_555
H30 C23 1_555 1_555
H31 C23 1_555 1_555
H32 C23 1_555 1_555
C5 C6 1_555 1_555
C13 C14 1_555 1_555
C18 C19 1_555 1_555
C20 C21 1_555 1_555

#END
