
#######################################################################
#
#                 Cambridge Crystallographic Data Centre
#                                CCDC 
#
#######################################################################
#
# If this CIF has been generated from an entry in the Cambridge 
# Structural Database, then it will include bibliographic, chemical, 
# crystal, experimental, refinement or atomic coordinate data resulting 
# from the CCDC's data processing and validation procedures.
#
#######################################################################

data_ENUHAY
_chemical_formula_moiety         'C6 H8 N2 2+,C2 H8 N2 2+,4(Cl1 O4 1-)'
_chemical_name_systematic        
'1,4-diazoniabicyclo[2.2.2]octane ethane-1,2-diaminium tetraperchlorate'
_symmetry_cell_setting           orthorhombic
_symmetry_space_group_name_H-M   'C m c 21'
_symmetry_Int_Tables_number      36
_space_group_name_Hall           'C 2n -2'
loop_
_symmetry_equiv_pos_site_id
_symmetry_equiv_pos_as_xyz
1 x,y,z
2 -x,-y,1/2+z
3 -x,y,z
4 x,-y,1/2+z
5 1/2+x,1/2+y,z
6 1/2-x,1/2-y,1/2+z
7 1/2-x,1/2+y,z
8 1/2+x,1/2-y,1/2+z
_cell_length_a                   8.1030(16)
_cell_length_b                   24.725(5)
_cell_length_c                   10.195(2)
_cell_angle_alpha                90
_cell_angle_beta                 90
_cell_angle_gamma                90
_cell_volume                     2042.53
_cell_formula_units_Z            4
loop_
_atom_site_label
_atom_site_type_symbol
_atom_site_fract_x
_atom_site_fract_y
_atom_site_fract_z
N1 N 0.1564(6) -0.1909(2) -0.2248(5)
H1 H 0.2687 -0.1911 -0.2227
C1 C 0.0929(9) -0.1362(3) -0.2057(9)
H2 H 0.1580 -0.1056 -0.1950
C2 C 0.0953(10) -0.2076(4) -0.3564(8)
H3 H 0.1612 -0.2165 -0.4279
C3 C 0.0871(9) -0.2264(3) -0.1171(8)
H4 H 0.1511 -0.2459 -0.0579
N1B N -0.1564(6) -0.1909(2) -0.2248(5)
H1B H -0.2687 -0.1911 -0.2227
C1B C -0.0929(9) -0.1362(3) -0.2057(9)
H2B H -0.1580 -0.1056 -0.1950
C2B C -0.0953(10) -0.2076(4) -0.3564(8)
H3B H -0.1612 -0.2165 -0.4279
C3B C -0.0871(9) -0.2264(3) -0.1171(8)
H4B H -0.1511 -0.2459 -0.0579
N2 N 0.2031(5) -0.55888(16) -0.7323(4)
H5 H 0.1697 -0.5899 -0.7049
H6 H 0.3070 -0.5523 -0.7382
C4 C 0.0830(8) -0.5171(2) -0.7707(11)
H7 H 0.1299 -0.4849 -0.7992
N2B N -0.2031(5) -0.55888(16) -0.7323(4)
H5B H -0.1697 -0.5899 -0.7049
H6B H -0.3070 -0.5523 -0.7382
C4B C -0.0830(8) -0.5171(2) -0.7707(11)
H7B H -0.1299 -0.4849 -0.7992
Cl1 Cl 0.0000 -0.35557(8) -0.5000(2)
O1 O 0.0000 -0.4057(3) -0.5714(9)
O2 O 0.1454(8) -0.3544(2) -0.4287(6)
O3 O 0.0000 -0.3104(2) -0.5764(7)
O2B O -0.1454(8) -0.3544(2) -0.4287(6)
Cl2 Cl 0.0000 -0.37641(7) -0.95141(18)
O4 O 0.0000 -0.3344(3) -0.8664(8)
O5 O 0.1370(6) -0.4050(2) -0.9255(5)
O6 O 0.0000 -0.3627(3) -1.0908(6)
O5B O -0.1370(6) -0.4050(2) -0.9255(5)
Cl3 Cl 0.0000 0.00380(6) -0.97256(15)
O7 O 0.0000 0.0125(2) -0.8355(5)
O8 O 0.1456(6) -0.02473(18) -1.0131(6)
O9 O 0.0000 0.0548(2) -1.0393(5)
O8B O -0.1456(6) -0.02473(18) -1.0131(6)
Cl4 Cl 0.0000 -0.17301(7) -0.73847(18)
O10 O 0.0000 -0.2185(2) -0.8167(7)
O11 O 0.1427(6) -0.1707(2) -0.6592(6)
O12 O 0.0000 -0.12581(19) -0.8250(7)
O11B O -0.1427(6) -0.1707(2) -0.6592(6)
loop_
_geom_bond_atom_site_label_1
_geom_bond_atom_site_label_2
_geom_bond_site_symmetry_1
_geom_bond_site_symmetry_2
N1 H1 1_555 1_555
C1 N1 1_555 1_555
H2 C1 1_555 1_555
C2 N1 1_555 1_555
H3 C2 1_555 1_555
C3 N1 1_555 1_555
H4 C3 1_555 1_555
N2 H5 1_555 1_555
H6 N2 1_555 1_555
C4 N2 1_555 1_555
H7 C4 1_555 1_555
Cl1 O1 1_555 1_555
O2 Cl1 1_555 1_555
O3 Cl1 1_555 1_555
Cl2 O4 1_555 1_555
O5 Cl2 1_555 1_555
O6 Cl2 1_555 1_555
Cl3 O7 1_555 1_555
O8 Cl3 1_555 1_555
O9 Cl3 1_555 1_555
Cl4 O10 1_555 1_555
O11 Cl4 1_555 1_555
O12 Cl4 1_555 1_555
N1B H1B 1_555 1_555
C1B C1 1_555 1_555
H2B C1B 1_555 1_555
C2B C2 1_555 1_555
H3B C2B 1_555 1_555
C3B C3 1_555 1_555
H4B C3B 1_555 1_555
N2B H5B 1_555 1_555
H6B N2B 1_555 1_555
C4B C4 1_555 1_555
H7B C4B 1_555 1_555
O2B Cl1 1_555 1_555
O5B Cl2 1_555 1_555
O8B Cl3 1_555 1_555
O11B Cl4 1_555 1_555
N1B C1B 1_555 1_555
N1B C2B 1_555 1_555
N1B C3B 1_555 1_555
N2B C4B 1_555 1_555

#END
