
#######################################################################
#
#                 Cambridge Crystallographic Data Centre
#                                CCDC 
#
#######################################################################
#
# If this CIF has been generated from an entry in the Cambridge 
# Structural Database, then it will include bibliographic, chemical, 
# crystal, experimental, refinement or atomic coordinate data resulting 
# from the CCDC's data processing and validation procedures.
#
#######################################################################

data_ENUJOO
_chemical_formula_moiety         'C15 H14 N4 O1'
_chemical_name_systematic        
1-(1-(1H-imidazol-1-yl)-2-(4-methoxyphenyl)vinyl)-1H-pyrazole
_symmetry_cell_setting           monoclinic
_symmetry_space_group_name_H-M   'P 21'
_symmetry_Int_Tables_number      4
_space_group_name_Hall           'P 2yb'
loop_
_symmetry_equiv_pos_site_id
_symmetry_equiv_pos_as_xyz
1 x,y,z
2 -x,1/2+y,-z
_cell_length_a                   7.3446(11)
_cell_length_b                   10.3043(16)
_cell_length_c                   9.2757(14)
_cell_angle_alpha                90
_cell_angle_beta                 101.418(3)
_cell_angle_gamma                90
_cell_volume                     688.101
_exptl_crystal_colour            colorless
_exptl_crystal_description       prismatic
_cell_formula_units_Z            2
_exptl_crystal_recrystallization_method 'hexane / dichloromethane'
loop_
_atom_site_label
_atom_site_type_symbol
_atom_site_fract_x
_atom_site_fract_y
_atom_site_fract_z
N1 N 0.0595(5) 0.1391(4) 0.2769(4)
N2 N 0.1204(6) 0.2057(5) 0.1697(4)
N3 N 0.0139(5) 0.1293(4) 0.5222(4)
N4 N -0.0915(7) 0.0103(5) 0.6704(5)
O1 O 0.6199(6) 0.4192(4) 1.0314(4)
C1 C 0.1338(6) 0.1707(4) 0.4255(5)
C2 C 0.2891(6) 0.2363(5) 0.4723(5)
H1 H 0.3557 0.2582 0.4003
C3 C 0.3696(6) 0.2786(4) 0.6196(5)
C4 C 0.4787(7) 0.3917(5) 0.6415(5)
H2 H 0.4949 0.4384 0.5592
C5 C 0.5605(8) 0.4358(6) 0.7741(7)
H3 H 0.6343 0.5098 0.7821
C6 C 0.5340(7) 0.3688(6) 0.9037(6)
C7 C 0.4272(7) 0.2582(6) 0.8873(5)
H4 H 0.4101 0.2126 0.9701
C8 C 0.3451(7) 0.2142(5) 0.7491(5)
H5 H 0.2715 0.1401 0.7409
C9 C -0.0658(8) 0.0473(6) 0.2238(6)
H6 H -0.1239 -0.0094 0.2783
C10 C -0.0905(9) 0.0537(7) 0.0761(6)
H7 H -0.1695 0.0027 0.0081
C11 C 0.0258(8) 0.1518(7) 0.0464(6)
H8 H 0.0367 0.1770 -0.0478
C12 C -0.1104(7) 0.2023(5) 0.5734(5)
H9 H -0.1424 0.2876 0.5467
C13 C -0.1808(6) 0.1302(6) 0.6702(5)
H10 H -0.2687 0.1546 0.7247
C14 C 0.0298(6) 0.0097(4) 0.5832(5)
H11 H 0.1082 -0.0574 0.5674
C15 C 0.6018(11) 0.3501(8) 1.1626(6)
H12 H 0.4735 0.3298 1.1590
H13 H 0.6474 0.4032 1.2471
H14 H 0.6726 0.2713 1.1692
loop_
_geom_bond_atom_site_label_1
_geom_bond_atom_site_label_2
_geom_bond_site_symmetry_1
_geom_bond_site_symmetry_2
N1 N2 1_555 1_555
N2 C11 1_555 1_555
N3 C1 1_555 1_555
N4 C13 1_555 1_555
O1 C6 1_555 1_555
C1 N1 1_555 1_555
C2 C1 1_555 1_555
H1 C2 1_555 1_555
C3 C2 1_555 1_555
C4 C3 1_555 1_555
H2 C4 1_555 1_555
C5 C4 1_555 1_555
H3 C5 1_555 1_555
C6 C5 1_555 1_555
C7 C6 1_555 1_555
H4 C7 1_555 1_555
C8 C3 1_555 1_555
H5 C8 1_555 1_555
C9 N1 1_555 1_555
H6 C9 1_555 1_555
C10 C9 1_555 1_555
H7 C10 1_555 1_555
C11 C10 1_555 1_555
H8 C11 1_555 1_555
C12 N3 1_555 1_555
H9 C12 1_555 1_555
C13 C12 1_555 1_555
H10 C13 1_555 1_555
C14 N3 1_555 1_555
H11 C14 1_555 1_555
C15 O1 1_555 1_555
H12 C15 1_555 1_555
H13 C15 1_555 1_555
H14 C15 1_555 1_555
N4 C14 1_555 1_555
C7 C8 1_555 1_555

#END
