
#######################################################################
#
#                 Cambridge Crystallographic Data Centre
#                                CCDC 
#
#######################################################################
#
# If this CIF has been generated from an entry in the Cambridge 
# Structural Database, then it will include bibliographic, chemical, 
# crystal, experimental, refinement or atomic coordinate data resulting 
# from the CCDC's data processing and validation procedures.
#
#######################################################################

data_ENUKAA
_chemical_formula_moiety         'C13 H8 Cl1 F2 N1 O1'
_chemical_name_systematic        2-Chloro-5-fluoro-N-(4-fluorophenyl)benzamide
_symmetry_cell_setting           triclinic
_symmetry_space_group_name_H-M   'P -1'
_symmetry_Int_Tables_number      2
_space_group_name_Hall           '-P 1'
loop_
_symmetry_equiv_pos_site_id
_symmetry_equiv_pos_as_xyz
1 x,y,z
2 -x,-y,-z
_cell_length_a                   5.0624(7)
_cell_length_b                   8.6997(8)
_cell_length_c                   13.5339(13)
_cell_angle_alpha                77.5240(10)
_cell_angle_beta                 87.022(2)
_cell_angle_gamma                84.251(2)
_cell_volume                     578.767
_exptl_crystal_colour            colorless
_exptl_crystal_description       block
_cell_formula_units_Z            2
loop_
_atom_site_label
_atom_site_type_symbol
_atom_site_fract_x
_atom_site_fract_y
_atom_site_fract_z
Cl1 Cl 1.9256(2) 1.04217(14) 0.84543(9)
F1 F 1.0541(6) 1.5171(4) 0.8823(2)
F2 F 1.5567(6) 1.1946(4) 0.20123(19)
N1 N 1.4509(5) 1.2560(4) 0.5993(2)
H1 H 1.2905 1.2591 0.6236
O1 O 1.8793(5) 1.2633(4) 0.6356(2)
C1 C 1.6451(7) 1.2632(4) 0.6619(3)
C2 C 1.5500(7) 1.2780(4) 0.7662(3)
C3 C 1.6693(7) 1.1873(5) 0.8531(3)
C4 C 1.5815(9) 1.2084(6) 0.9480(3)
H2 H 1.6623 1.1463 1.0052
C5 C 1.3758(9) 1.3204(6) 0.9592(3)
H3 H 1.3189 1.3368 1.0229
C6 C 1.2588(8) 1.4062(5) 0.8737(3)
C7 C 1.3399(7) 1.3871(5) 0.7788(3)
H4 H 1.2534 1.4478 0.7226
C8 C 1.4887(7) 1.2437(4) 0.4957(3)
C9 C 1.3015(8) 1.3187(5) 0.4280(3)
H5 H 1.1589 1.3814 0.4489
C10 C 1.3239(9) 1.3014(6) 0.3284(3)
H6 H 1.1970 1.3520 0.2821
C11 C 1.5335(9) 1.2097(5) 0.2995(3)
C12 C 1.7208(9) 1.1331(5) 0.3648(3)
H7 H 1.8623 1.0702 0.3433
C13 C 1.6970(8) 1.1504(5) 0.4643(3)
H8 H 1.8235 1.0983 0.5103
loop_
_geom_bond_atom_site_label_1
_geom_bond_atom_site_label_2
_geom_bond_site_symmetry_1
_geom_bond_site_symmetry_2
Cl1 C3 1_555 1_555
F1 C6 1_555 1_555
F2 C11 1_555 1_555
N1 H1 1_555 1_555
O1 C1 1_555 1_555
C1 N1 1_555 1_555
C2 C1 1_555 1_555
C3 C2 1_555 1_555
C4 C3 1_555 1_555
H2 C4 1_555 1_555
C5 C4 1_555 1_555
H3 C5 1_555 1_555
C6 C5 1_555 1_555
C7 C2 1_555 1_555
H4 C7 1_555 1_555
C8 N1 1_555 1_555
C9 C8 1_555 1_555
H5 C9 1_555 1_555
C10 C9 1_555 1_555
H6 C10 1_555 1_555
C11 C10 1_555 1_555
C12 C11 1_555 1_555
H7 C12 1_555 1_555
C13 C8 1_555 1_555
H8 C13 1_555 1_555
C6 C7 1_555 1_555
C12 C13 1_555 1_555

#END
