
#######################################################################
#
#                 Cambridge Crystallographic Data Centre
#                                CCDC 
#
#######################################################################
#
# If this CIF has been generated from an entry in the Cambridge 
# Structural Database, then it will include bibliographic, chemical, 
# crystal, experimental, refinement or atomic coordinate data resulting 
# from the CCDC's data processing and validation procedures.
#
#######################################################################

data_ENULUW
_chemical_formula_moiety         'C18 H21 Br1 N2 O3'
_chemical_name_systematic        
'ethyl 2-((4-bromobenzoyl)hydrazono)-1,4-dimethylcyclohex-3-ene-1-carboxylate'
_symmetry_cell_setting           monoclinic
_symmetry_space_group_name_H-M   'P 21'
_symmetry_Int_Tables_number      4
_space_group_name_Hall           'P 2yb'
loop_
_symmetry_equiv_pos_site_id
_symmetry_equiv_pos_as_xyz
1 x,y,z
2 -x,1/2+y,-z
_cell_length_a                   7.425(2)
_cell_length_b                   29.523(7)
_cell_length_c                   8.348(2)
_cell_angle_alpha                90
_cell_angle_beta                 107.871(4)
_cell_angle_gamma                90
_cell_volume                     1741.66
_exptl_crystal_colour            colorless
_exptl_crystal_description       plate
_cell_formula_units_Z            4
loop_
_atom_site_label
_atom_site_type_symbol
_atom_site_fract_x
_atom_site_fract_y
_atom_site_fract_z
Br1 Br 0.86603(4) 0.513919(11) 0.80317(4)
O1 O 0.0018(4) 0.41203(9) 0.6217(3)
O2 O -0.3083(3) 0.39661(9) 0.5314(3)
O3 O 0.0858(3) 0.58803(8) 0.1948(3)
N1 N -0.0398(4) 0.48068(9) 0.2968(3)
N2 N -0.0575(4) 0.52513(9) 0.2446(3)
H1 H -0.1703 0.5362 0.1924
C1 C -0.1517(5) 0.40579(11) 0.3212(4)
C2 C -0.3090(5) 0.37472(11) 0.2106(4)
H2 H -0.2825 0.3694 0.1029
H3 H -0.3003 0.3451 0.2678
C3 C -0.5114(5) 0.39170(11) 0.1705(4)
H4 H -0.5943 0.3735 0.0773
H5 H -0.5549 0.3873 0.2703
C4 C -0.5302(5) 0.44105(11) 0.1213(4)
C5 C -0.3795(5) 0.46866(11) 0.1589(4)
H6 H -0.3986 0.4990 0.1199
C6 C -0.1882(5) 0.45500(11) 0.2559(4)
C7 C 0.0413(5) 0.38950(11) 0.3140(4)
H7 H 0.0664 0.3591 0.3625
H8 H 0.1400 0.4103 0.3783
H9 H 0.0412 0.3887 0.1966
C8 C -0.1419(5) 0.40602(11) 0.5088(4)
C9 C -0.3081(5) 0.39251(13) 0.7059(4)
H10 H -0.2884 0.4225 0.7615
H11 H -0.2054 0.3720 0.7692
C10 C -0.4966(6) 0.37367(17) 0.7015(5)
H12 H -0.5970 0.3940 0.6368
H13 H -0.5031 0.3709 0.8166
H14 H -0.5133 0.3437 0.6482
C11 C -0.7252(5) 0.45808(12) 0.0292(4)
H15 H -0.7739 0.4420 -0.0781
H16 H -0.7196 0.4906 0.0077
H17 H -0.8092 0.4528 0.0977
C12 C 0.0964(5) 0.55184(11) 0.2726(4)
C13 C 0.2789(5) 0.53896(11) 0.4013(4)
C14 C 0.4453(5) 0.55325(11) 0.3721(4)
H18 H 0.4382 0.5688 0.2707
C15 C 0.6216(5) 0.54509(11) 0.4892(4)
H19 H 0.7347 0.5540 0.4672
C16 C 0.6276(4) 0.52364(11) 0.6387(4)
C17 C 0.4635(4) 0.50939(12) 0.6720(4)
H20 H 0.4706 0.4948 0.7752
C18 C 0.2900(4) 0.51680(12) 0.5520(4)
H21 H 0.1775 0.5067 0.5724
Br2 Br -0.16154(5) 0.659281(12) 0.41555(4)
O4 O 0.9565(4) 0.82149(8) 1.0205(3)
O5 O 0.8347(4) 0.76742(8) 1.1453(3)
O6 O 0.5991(3) 0.57256(7) 1.0263(3)
N3 N 0.7376(4) 0.67750(9) 0.9093(3)
N4 N 0.7501(4) 0.63354(9) 0.9699(3)
H22 H 0.8612 0.6223 1.0263
C19 C 0.8703(5) 0.74957(11) 0.8778(4)
C20 C 1.0352(5) 0.75708(12) 0.8055(4)
H23 H 1.0221 0.7358 0.7110
H24 H 1.0279 0.7883 0.7604
C21 C 1.2275(5) 0.75019(14) 0.9358(5)
H25 H 1.3224 0.7446 0.8767
H26 H 1.2638 0.7784 1.0020
C22 C 1.2332(5) 0.71180(11) 1.0538(4)
C23 C 1.0774(5) 0.68887(11) 1.0532(4)
H27 H 1.0904 0.6631 1.1242
C24 C 0.8879(5) 0.70184(11) 0.9478(4)
C25 C 0.6808(5) 0.75885(11) 0.7417(4)
H28 H 0.6771 0.7905 0.7048
H29 H 0.5765 0.7533 0.7880
H30 H 0.6682 0.7387 0.6455
C26 C 0.8938(5) 0.78381(12) 1.0200(4)
C27 C 0.8874(6) 0.79369(14) 1.3003(5)
H31 H 0.8050 0.7855 1.3692
H32 H 0.8710 0.8264 1.2738
C28 C 1.0922(6) 0.78394(13) 1.3976(5)
H33 H 1.1730 0.7921 1.3287
H34 H 1.1070 0.7516 1.4255
H35 H 1.1290 0.8018 1.5015
C29 C 1.4256(5) 0.69903(12) 1.1691(5)
H36 H 1.5144 0.6962 1.1037
H37 H 1.4174 0.6700 1.2236
H38 H 1.4704 0.7225 1.2551
C30 C 0.5926(5) 0.60767(11) 0.9433(4)
C31 C 0.4126(5) 0.62116(11) 0.8108(4)
C32 C 0.4104(5) 0.64186(10) 0.6599(4)
H39 H 0.5261 0.6485 0.6386
C33 C 0.2404(5) 0.65265(11) 0.5415(4)
H40 H 0.2379 0.6667 0.4385
C34 C 0.0729(5) 0.64254(11) 0.5756(4)
C35 C 0.0716(5) 0.62117(11) 0.7216(4)
H41 H -0.0446 0.6142 0.7415
C36 C 0.2433(5) 0.61000(11) 0.8396(4)
H42 H 0.2449 0.5947 0.9402
loop_
_geom_bond_atom_site_label_1
_geom_bond_atom_site_label_2
_geom_bond_site_symmetry_1
_geom_bond_site_symmetry_2
Br1 C16 1_555 1_555
O1 C8 1_555 1_555
O2 C8 1_555 1_555
O3 C12 1_555 1_555
N1 N2 1_555 1_555
N2 H1 1_555 1_555
C1 C2 1_555 1_555
C2 H2 1_555 1_555
H3 C2 1_555 1_555
C3 C2 1_555 1_555
H4 C3 1_555 1_555
H5 C3 1_555 1_555
C4 C3 1_555 1_555
C5 C4 1_555 1_555
H6 C5 1_555 1_555
C6 N1 1_555 1_555
C7 C1 1_555 1_555
H7 C7 1_555 1_555
H8 C7 1_555 1_555
H9 C7 1_555 1_555
C8 C1 1_555 1_555
C9 O2 1_555 1_555
H10 C9 1_555 1_555
H11 C9 1_555 1_555
C10 C9 1_555 1_555
H12 C10 1_555 1_555
H13 C10 1_555 1_555
H14 C10 1_555 1_555
C11 C4 1_555 1_555
H15 C11 1_555 1_555
H16 C11 1_555 1_555
H17 C11 1_555 1_555
C12 N2 1_555 1_555
C13 C12 1_555 1_555
C14 C13 1_555 1_555
H18 C14 1_555 1_555
C15 C14 1_555 1_555
H19 C15 1_555 1_555
C16 C15 1_555 1_555
C17 C16 1_555 1_555
H20 C17 1_555 1_555
C18 C13 1_555 1_555
H21 C18 1_555 1_555
Br2 C34 1_555 1_555
O4 C26 1_555 1_555
O5 C26 1_555 1_555
O6 C30 1_555 1_555
N3 N4 1_555 1_555
N4 H22 1_555 1_555
C19 C20 1_555 1_555
C20 H23 1_555 1_555
H24 C20 1_555 1_555
C21 C20 1_555 1_555
H25 C21 1_555 1_555
H26 C21 1_555 1_555
C22 C21 1_555 1_555
C23 C22 1_555 1_555
H27 C23 1_555 1_555
C24 N3 1_555 1_555
C25 C19 1_555 1_555
H28 C25 1_555 1_555
H29 C25 1_555 1_555
H30 C25 1_555 1_555
C26 C19 1_555 1_555
C27 O5 1_555 1_555
H31 C27 1_555 1_555
H32 C27 1_555 1_555
C28 C27 1_555 1_555
H33 C28 1_555 1_555
H34 C28 1_555 1_555
H35 C28 1_555 1_555
C29 C22 1_555 1_555
H36 C29 1_555 1_555
H37 C29 1_555 1_555
H38 C29 1_555 1_555
C30 N4 1_555 1_555
C31 C30 1_555 1_555
C32 C31 1_555 1_555
H39 C32 1_555 1_555
C33 C32 1_555 1_555
H40 C33 1_555 1_555
C34 C33 1_555 1_555
C35 C34 1_555 1_555
H41 C35 1_555 1_555
C36 C31 1_555 1_555
H42 C36 1_555 1_555
C1 C6 1_555 1_555
C5 C6 1_555 1_555
C17 C18 1_555 1_555
C19 C24 1_555 1_555
C23 C24 1_555 1_555
C35 C36 1_555 1_555

#END
