
#######################################################################
#
#                 Cambridge Crystallographic Data Centre
#                                CCDC 
#
#######################################################################
#
# If this CIF has been generated from an entry in the Cambridge 
# Structural Database, then it will include bibliographic, chemical, 
# crystal, experimental, refinement or atomic coordinate data resulting 
# from the CCDC's data processing and validation procedures.
#
#######################################################################

data_ENUNOR
_chemical_formula_moiety         'C33 H30 O3'
_chemical_name_systematic        1,3,5-tris(1-(4-Methoxyphenyl)vinyl)benzene
_symmetry_cell_setting           monoclinic
_symmetry_space_group_name_H-M   'P 21'
_symmetry_Int_Tables_number      4
_space_group_name_Hall           'P 2yb'
loop_
_symmetry_equiv_pos_site_id
_symmetry_equiv_pos_as_xyz
1 x,y,z
2 -x,1/2+y,-z
_cell_length_a                   10.0023(3)
_cell_length_b                   9.2100(3)
_cell_length_c                   14.5901(5)
_cell_angle_alpha                90
_cell_angle_beta                 100.7870(10)
_cell_angle_gamma                90
_cell_volume                     1320.31
_exptl_crystal_colour            colorless
_exptl_crystal_description       platelet
_chemical_melting_point          '389 K'
_cell_formula_units_Z            2
loop_
_atom_site_label
_atom_site_type_symbol
_atom_site_fract_x
_atom_site_fract_y
_atom_site_fract_z
O1 O 0.94334(16) 0.4538(2) 0.69975(10)
O2 O 0.1155(3) -0.0524(3) 0.07147(17)
O3 O 0.7315(2) 0.98727(19) 0.66910(10)
C1 C 1.0726(3) 0.4072(4) 0.74710(17)
H1 H 1.0855 0.3070 0.7327
H2 H 1.0779 0.4179 0.8131
H3 H 1.1421 0.4649 0.7276
C2 C 0.91210(19) 0.4386(2) 0.60480(13)
C3 C 0.77895(19) 0.4709(2) 0.56409(13)
H4 H 0.7174 0.4997 0.6011
C4 C 0.73820(18) 0.4604(2) 0.46950(13)
H5 H 0.6483 0.4817 0.4433
C5 C 0.82678(17) 0.41883(19) 0.41111(12)
C6 C 0.78109(19) 0.4058(2) 0.30854(13)
C7 C 0.66780(19) 0.5026(2) 0.26178(12)
C8 C 0.5709(2) 0.4533(2) 0.18748(13)
H6 H 0.5737 0.3574 0.1680
C9 C 0.4696(2) 0.5458(3) 0.14163(13)
C10 C 0.3729(2) 0.4947(3) 0.05702(14)
C11 C 0.3119(2) 0.3487(3) 0.05835(14)
C12 C 0.2894(3) 0.2593(4) -0.02030(17)
H7 H 0.3177 0.2890 -0.0745
C13 C 0.2239(3) 0.1242(4) -0.0179(2)
H8 H 0.2085 0.0656 -0.0707
C14 C 0.1834(3) 0.0794(3) 0.0606(2)
C15 C 0.0777(5) -0.1357(5) -0.0057(3)
H9 H 0.0167 -0.0817 -0.0520
H10 H 0.0327 -0.2215 0.0104
H11 H 0.1569 -0.1628 -0.0301
C16 C 0.8121(3) 1.1105(3) 0.70190(19)
H12 H 0.8944 1.1089 0.6771
H13 H 0.8341 1.1083 0.7688
H14 H 0.7621 1.1974 0.6820
C17 C 0.6867(2) 0.9733(2) 0.57535(14)
C18 C 0.7082(2) 1.0741(2) 0.50979(15)
H15 H 0.7535 1.1604 0.5286
C19 C 0.6626(2) 1.0467(2) 0.41640(15)
H16 H 0.6779 1.1155 0.3729
C20 C 0.59415(18) 0.9192(2) 0.38517(14)
C21 C 0.5482(2) 0.8905(2) 0.28401(14)
C22 C 0.55569(19) 0.7387(2) 0.25016(13)
C23 C 0.65864(19) 0.6445(2) 0.29198(13)
H17 H 0.7233 0.6781 0.3418
C24 C 0.8375(3) 0.3119(3) 0.25870(16)
H18 H 0.9077 0.2520 0.2878
H19 H 0.8071 0.3058 0.1946
C25 C 1.00162(19) 0.3951(3) 0.54949(14)
H20 H 1.0908 0.3715 0.5763
C26 C 0.95906(19) 0.3863(2) 0.45398(14)
H21 H 1.0211 0.3576 0.4173
C27 C 0.2705(2) 0.2950(3) 0.13733(14)
H22 H 0.2870 0.3504 0.1916
C28 C 0.2063(2) 0.1639(3) 0.13884(17)
H23 H 0.1786 0.1325 0.1929
C29 C 0.3465(4) 0.5817(4) -0.01736(19)
H24 H 0.2878 0.5512 -0.0710
H25 H 0.3869 0.6729 -0.0155
C30 C 0.4619(2) 0.6859(3) 0.17463(14)
H26 H 0.3923 0.7464 0.1456
C31 C 0.5041(3) 0.9974(3) 0.22505(19)
H27 H 0.5016 1.0921 0.2469
H28 H 0.4757 0.9777 0.1619
C32 C 0.57170(19) 0.8206(2) 0.45329(15)
H29 H 0.5251 0.7349 0.4350
C33 C 0.6167(2) 0.8469(2) 0.54661(15)
H30 H 0.6000 0.7795 0.5906
loop_
_geom_bond_atom_site_label_1
_geom_bond_atom_site_label_2
_geom_bond_site_symmetry_1
_geom_bond_site_symmetry_2
O1 C1 1_555 1_555
O2 C14 1_555 1_555
O3 C16 1_555 1_555
C1 H1 1_555 1_555
H2 C1 1_555 1_555
H3 C1 1_555 1_555
C2 O1 1_555 1_555
C3 C2 1_555 1_555
H4 C3 1_555 1_555
C4 C3 1_555 1_555
H5 C4 1_555 1_555
C5 C4 1_555 1_555
C6 C5 1_555 1_555
C7 C6 1_555 1_555
C8 C7 1_555 1_555
H6 C8 1_555 1_555
C9 C8 1_555 1_555
C10 C9 1_555 1_555
C11 C10 1_555 1_555
C12 C11 1_555 1_555
H7 C12 1_555 1_555
C13 C12 1_555 1_555
H8 C13 1_555 1_555
C14 C13 1_555 1_555
C15 O2 1_555 1_555
H9 C15 1_555 1_555
H10 C15 1_555 1_555
H11 C15 1_555 1_555
C16 H12 1_555 1_555
H13 C16 1_555 1_555
H14 C16 1_555 1_555
C17 O3 1_555 1_555
C18 C17 1_555 1_555
H15 C18 1_555 1_555
C19 C18 1_555 1_555
H16 C19 1_555 1_555
C20 C19 1_555 1_555
C21 C20 1_555 1_555
C22 C21 1_555 1_555
C23 C7 1_555 1_555
H17 C23 1_555 1_555
C24 C6 1_555 1_555
H18 C24 1_555 1_555
H19 C24 1_555 1_555
C25 C2 1_555 1_555
H20 C25 1_555 1_555
C26 C5 1_555 1_555
H21 C26 1_555 1_555
C27 C11 1_555 1_555
H22 C27 1_555 1_555
C28 C14 1_555 1_555
H23 C28 1_555 1_555
C29 C10 1_555 1_555
H24 C29 1_555 1_555
H25 C29 1_555 1_555
C30 C9 1_555 1_555
H26 C30 1_555 1_555
C31 C21 1_555 1_555
H27 C31 1_555 1_555
H28 C31 1_555 1_555
C32 C20 1_555 1_555
H29 C32 1_555 1_555
C33 C17 1_555 1_555
H30 C33 1_555 1_555
C22 C23 1_555 1_555
C22 C30 1_555 1_555
C25 C26 1_555 1_555
C27 C28 1_555 1_555
C32 C33 1_555 1_555

#END
