
#######################################################################
#
#                 Cambridge Crystallographic Data Centre
#                                CCDC 
#
#######################################################################
#
# If this CIF has been generated from an entry in the Cambridge 
# Structural Database, then it will include bibliographic, chemical, 
# crystal, experimental, refinement or atomic coordinate data resulting 
# from the CCDC's data processing and validation procedures.
#
#######################################################################

data_ENUPUA
_chemical_formula_moiety         
'C24 H19 N3 O1 2+,x(C1 H4 O1),2(N1 O3 1-),x(H2 O1)'
_chemical_name_systematic        
"(2,2'-(4-{4-[(prop-2-yn-1-yl)oxy]phenyl}pyridine-2,6-diyl)di(pyridin-1-ium)) bis(nitrate) methanol solvate hydrate"
_symmetry_cell_setting           triclinic
_symmetry_space_group_name_H-M   'P -1'
_symmetry_Int_Tables_number      2
_space_group_name_Hall           '-P 1'
loop_
_symmetry_equiv_pos_site_id
_symmetry_equiv_pos_as_xyz
1 x,y,z
2 -x,-y,-z
_cell_length_a                   7.856(5)
_cell_length_b                   11.799(7)
_cell_length_c                   14.315(8)
_cell_angle_alpha                66.980(14)
_cell_angle_beta                 77.401(15)
_cell_angle_gamma                74.377(16)
_cell_volume                     1166.55
_exptl_crystal_colour            'pale yellow'
_exptl_crystal_description       block
_cell_formula_units_Z            2
loop_
_atom_site_label
_atom_site_type_symbol
_atom_site_fract_x
_atom_site_fract_y
_atom_site_fract_z
O1 O 0.0493(9) 0.6397(7) -0.0082(4)
O2 O 0.1563(7) 0.6695(5) 0.1040(4)
N1 N 0.0802(10) 0.7159(9) 0.0230(6)
O3 O 0.0398(9) 0.8297(7) -0.0189(5)
O4 O 0.3818(7) 0.3057(5) 0.9450(4)
N2 N 0.2265(8) 0.8125(7) 0.1964(5)
H1 H 0.1879 0.7596 0.1831
N3 N 0.1984(8) 0.5796(7) 0.3261(5)
N4 N 0.1080(8) 0.4361(7) 0.2449(4)
H2 H 0.1243 0.5116 0.2117
C1 C 0.5216(12) 0.2583(9) 1.1706(7)
H3 H 0.5568 0.2169 1.2356
C2 C 0.4777(10) 0.3099(8) 1.0895(6)
C3 C 0.4279(11) 0.3854(8) 0.9852(5)
H4 H 0.3274 0.4536 0.9879
H5 H 0.5271 0.4216 0.9411
C4 C 0.3485(11) 0.3596(9) 0.8455(6)
C5 C 0.3754(10) 0.4781(9) 0.7803(6)
H6 H 0.4135 0.5291 0.8039
C6 C 0.3445(10) 0.5195(9) 0.6788(6)
H7 H 0.3614 0.5994 0.6353
C7 C 0.2894(10) 0.4459(9) 0.6405(6)
C8 C 0.2602(10) 0.4901(9) 0.5311(6)
C9 C 0.2710(9) 0.6143(8) 0.4661(6)
H8 H 0.2962 0.6696 0.4905
C10 C 0.2433(10) 0.6521(9) 0.3650(6)
C11 C 0.2640(11) 0.7811(9) 0.2933(6)
C12 C 0.2468(13) 0.9219(10) 0.1209(7)
H9 H 0.2210 0.9385 0.0559
C13 C 0.3057(13) 1.0084(10) 0.1402(8)
H10 H 0.3197 1.0846 0.0885
C14 C 0.1883(10) 0.4618(9) 0.3891(6)
C15 C 0.1380(10) 0.3837(9) 0.3431(6)
C16 C 0.0547(11) 0.3795(10) 0.1948(6)
H11 H 0.0350 0.4215 0.1268
C17 C 0.0297(11) 0.2597(10) 0.2449(7)
H12 H -0.0086 0.2196 0.2113
C18 C 0.0604(11) 0.1987(9) 0.3435(6)
H13 H 0.0459 0.1161 0.3772
C19 C 0.1141(11) 0.2606(9) 0.3947(6)
H14 H 0.1336 0.2196 0.4629
C20 C 0.2197(9) 0.4134(8) 0.4901(6)
H15 H 0.2138 0.3303 0.5300
C21 C 0.3447(12) 0.9813(9) 0.2381(8)
H16 H 0.3836 1.0398 0.2525
C22 C 0.3252(12) 0.8669(9) 0.3137(6)
H17 H 0.3537 0.8478 0.3786
C23 C 0.2596(10) 0.3263(9) 0.7091(6)
H18 H 0.2194 0.2756 0.6862
C24 C 0.2897(11) 0.2847(8) 0.8093(6)
H19 H 0.2707 0.2056 0.8535
O5 O 0.197(3) 0.9381(19) 0.6818(18)
O6 O 0.1320(13) 1.1223(11) 0.6443(6)
N5 N 0.222(5) 1.0275(15) 0.630(2)
O7 O 0.4098(18) 1.002(2) 0.6100(11)
C25 C 0.296(4) 0.938(3) 0.5051(17)
O8 O 0.4320(10) 0.8114(8) 0.5496(6)
O9 O -0.824(3) 1.027(2) 0.823(4)
loop_
_geom_bond_atom_site_label_1
_geom_bond_atom_site_label_2
_geom_bond_site_symmetry_1
_geom_bond_site_symmetry_2
O1 N1 1_555 1_555
O2 N1 1_555 1_555
N1 O3 1_555 1_555
O4 C3 1_555 1_555
N2 H1 1_555 1_555
N3 C10 1_555 1_555
N4 H2 1_555 1_555
C1 H3 1_555 1_555
C2 C1 1_555 1_555
C3 C2 1_555 1_555
H4 C3 1_555 1_555
H5 C3 1_555 1_555
C4 O4 1_555 1_555
C5 C4 1_555 1_555
H6 C5 1_555 1_555
C6 C5 1_555 1_555
H7 C6 1_555 1_555
C7 C6 1_555 1_555
C8 C7 1_555 1_555
C9 C8 1_555 1_555
H8 C9 1_555 1_555
C10 C9 1_555 1_555
C11 N2 1_555 1_555
C12 N2 1_555 1_555
H9 C12 1_555 1_555
C13 C12 1_555 1_555
H10 C13 1_555 1_555
C14 N3 1_555 1_555
C15 N4 1_555 1_555
C16 N4 1_555 1_555
H11 C16 1_555 1_555
C17 C16 1_555 1_555
H12 C17 1_555 1_555
C18 C17 1_555 1_555
H13 C18 1_555 1_555
C19 C15 1_555 1_555
H14 C19 1_555 1_555
C20 C8 1_555 1_555
H15 C20 1_555 1_555
C21 C13 1_555 1_555
H16 C21 1_555 1_555
C22 C11 1_555 1_555
H17 C22 1_555 1_555
C23 C7 1_555 1_555
H18 C23 1_555 1_555
C24 C4 1_555 1_555
H19 C24 1_555 1_555
O5 N5 1_555 1_555
O6 N5 1_555 1_555
N5 O7 1_555 1_555
C25 O8 1_555 1_555
C10 C11 1_555 1_555
C14 C15 1_555 1_555
C14 C20 1_555 1_555
C18 C19 1_555 1_555
C21 C22 1_555 1_555
C23 C24 1_555 1_555

#END
