
#######################################################################
#
#                 Cambridge Crystallographic Data Centre
#                                CCDC 
#
#######################################################################
#
# If this CIF has been generated from an entry in the Cambridge 
# Structural Database, then it will include bibliographic, chemical, 
# crystal, experimental, refinement or atomic coordinate data resulting 
# from the CCDC's data processing and validation procedures.
#
#######################################################################

data_ENURIP
_chemical_formula_moiety         'C46 H80 D2 Li4 N6 Si4'
_chemical_name_systematic        
bis(\m~3~-\h^5^-2-(2,6-Di-isopropylphenylamino(deutero)methyl)pyrrolyl)-bis(bis(trimethylsilyl)amide)-tetra-lithium
_symmetry_cell_setting           orthorhombic
_symmetry_space_group_name_H-M   'P b c a'
_symmetry_Int_Tables_number      61
_space_group_name_Hall           '-P 2ac 2ab'
loop_
_symmetry_equiv_pos_site_id
_symmetry_equiv_pos_as_xyz
1 x,y,z
2 1/2-x,-y,1/2+z
3 1/2+x,1/2-y,-z
4 -x,1/2+y,1/2-z
5 -x,-y,-z
6 1/2+x,y,1/2-z
7 1/2-x,1/2+y,z
8 x,1/2-y,1/2+z
_cell_length_a                   13.1310(12)
_cell_length_b                   18.5260(16)
_cell_length_c                   22.191(2)
_cell_angle_alpha                90
_cell_angle_beta                 90
_cell_angle_gamma                90
_cell_volume                     5398.29
_exptl_crystal_colour            colorless
_exptl_crystal_description       prism
_cell_formula_units_Z            4
loop_
_atom_site_label
_atom_site_type_symbol
_atom_site_fract_x
_atom_site_fract_y
_atom_site_fract_z
Si1 Si 0.79562(3) 0.21082(2) 0.015599(17)
Si2 Si 0.68555(3) 0.07588(2) -0.019775(18)
N1 N 0.93392(9) 0.12145(6) 0.14252(5)
N2 N 0.93893(9) -0.00512(6) 0.06141(5)
N3 N 0.78896(8) 0.11947(6) 0.00861(5)
C1 C 0.92422(11) 0.12122(7) 0.20781(6)
C2 C 0.97368(13) 0.17471(8) 0.24186(7)
C3 C 0.96092(15) 0.17378(9) 0.30415(7)
H1 H 0.9937 0.2095 0.3280
C4 C 0.90197(15) 0.12235(9) 0.33184(7)
H2 H 0.8942 0.1228 0.3744
C5 C 0.85396(14) 0.06986(9) 0.29789(7)
H3 H 0.8135 0.0344 0.3175
C6 C 0.86390(12) 0.06802(7) 0.23528(6)
C7 C 1.03519(13) 0.23535(8) 0.21351(7)
H4 H 1.0455 0.2230 0.1701
C8 C 1.14024(15) 0.24468(10) 0.24197(9)
H5 H 1.1325 0.2592 0.2842
H6 H 1.1781 0.2819 0.2201
H7 H 1.1775 0.1989 0.2399
C9 C 0.97448(15) 0.30563(9) 0.21602(8)
H8 H 0.9085 0.2987 0.1962
H9 H 1.0124 0.3438 0.1953
H10 H 0.9636 0.3194 0.2582
C10 C 0.80645(11) 0.01214(8) 0.19846(7)
H11 H 0.8466 0.0033 0.1609
C11 C 0.79345(14) -0.06046(9) 0.22995(8)
H12 H 0.8598 -0.0774 0.2444
H13 H 0.7652 -0.0956 0.2015
H14 H 0.7470 -0.0550 0.2642
C12 C 0.70253(13) 0.04157(10) 0.17934(9)
H15 H 0.6596 0.0482 0.2150
H16 H 0.6698 0.0073 0.1518
H17 H 0.7116 0.0880 0.1589
C13 C 1.03115(11) 0.08773(7) 0.12018(6)
D1 D 1.0561 0.1144 0.0845
H18 H 1.0839 0.0905 0.1520
C14 C 1.01269(10) 0.01065(7) 0.10383(6)
C15 C 1.05091(11) -0.05169(8) 0.12943(6)
H19 H 1.1022 -0.0549 0.1595
C16 C 0.99878(12) -0.10963(8) 0.10212(6)
H20 H 1.0083 -0.1596 0.1100
C17 C 0.93124(11) -0.07941(7) 0.06175(6)
H21 H 0.8854 -0.1062 0.0373
C18 C 0.93143(12) 0.24319(8) 0.01891(7)
H22 H 0.9702 0.2127 0.0468
H23 H 0.9329 0.2933 0.0330
H24 H 0.9618 0.2404 -0.0214
C19 C 0.73303(13) 0.24434(8) 0.08669(7)
H25 H 0.6605 0.2318 0.0860
H26 H 0.7405 0.2969 0.0893
H27 H 0.7655 0.2218 0.1217
C20 C 0.73580(13) 0.26409(8) -0.04706(8)
H28 H 0.7662 0.2498 -0.0856
H29 H 0.7476 0.3157 -0.0403
H30 H 0.6624 0.2546 -0.0480
C21 C 0.71435(12) -0.02335(8) -0.02343(8)
H31 H 0.7756 -0.0311 -0.0478
H32 H 0.6567 -0.0488 -0.0418
H33 H 0.7257 -0.0419 0.0174
C22 C 0.56806(11) 0.08558(8) 0.02774(8)
H34 H 0.5771 0.0590 0.0655
H35 H 0.5093 0.0661 0.0059
H36 H 0.5564 0.1367 0.0366
C23 C 0.64773(14) 0.10263(10) -0.09817(7)
H37 H 0.6182 0.1512 -0.0975
H38 H 0.5973 0.0683 -0.1137
H39 H 0.7079 0.1023 -0.1243
Li1 Li 0.83197(19) 0.07251(13) 0.08410(11)
Li2 Li 0.90937(19) 0.05789(13) -0.01982(10)
H40 H 0.9347(12) 0.1654(9) 0.1313(7)
Si1D Si 1.20438(3) -0.21082(2) -0.015599(17)
Si2D Si 1.31445(3) -0.07588(2) 0.019775(18)
N1D N 1.06608(9) -0.12145(6) -0.14252(5)
N2D N 1.06107(9) 0.00512(6) -0.06141(5)
N3D N 1.21104(8) -0.11947(6) -0.00861(5)
C1D C 1.07578(11) -0.12122(7) -0.20781(6)
C2D C 1.02632(13) -0.17471(8) -0.24186(7)
C3D C 1.03908(15) -0.17378(9) -0.30415(7)
H1D H 1.0063 -0.2095 -0.3280
C4D C 1.09803(15) -0.12235(9) -0.33184(7)
H2D H 1.1058 -0.1228 -0.3744
C5D C 1.14604(14) -0.06986(9) -0.29789(7)
H3D H 1.1865 -0.0344 -0.3175
C6D C 1.13610(12) -0.06802(7) -0.23528(6)
C7D C 0.96481(13) -0.23535(8) -0.21351(7)
H4D H 0.9545 -0.2230 -0.1701
C8D C 0.85976(15) -0.24468(10) -0.24197(9)
H5D H 0.8675 -0.2592 -0.2842
H6D H 0.8219 -0.2819 -0.2201
H7D H 0.8225 -0.1989 -0.2399
C9D C 1.02552(15) -0.30563(9) -0.21602(8)
H8D H 1.0915 -0.2987 -0.1962
H9D H 0.9876 -0.3438 -0.1953
H10D H 1.0364 -0.3194 -0.2582
C10D C 1.19355(11) -0.01214(8) -0.19846(7)
H11D H 1.1534 -0.0033 -0.1609
C11D C 1.20655(14) 0.06046(9) -0.22995(8)
H12D H 1.1402 0.0774 -0.2444
H13D H 1.2348 0.0956 -0.2015
H14D H 1.2530 0.0550 -0.2642
C12D C 1.29747(13) -0.04157(10) -0.17934(9)
H15D H 1.3404 -0.0482 -0.2150
H16D H 1.3302 -0.0073 -0.1518
H17D H 1.2884 -0.0880 -0.1589
C13D C 0.96885(11) -0.08773(7) -0.12018(6)
D1D D 0.9439 -0.1144 -0.0845
H18D H 0.9161 -0.0905 -0.1520
C14D C 0.98731(10) -0.01065(7) -0.10383(6)
C15D C 0.94909(11) 0.05169(8) -0.12943(6)
H19D H 0.8978 0.0549 -0.1595
C16D C 1.00122(12) 0.10963(8) -0.10212(6)
H20D H 0.9917 0.1596 -0.1100
C17D C 1.06876(11) 0.07941(7) -0.06175(6)
H21D H 1.1146 0.1062 -0.0373
C18D C 1.06857(12) -0.24319(8) -0.01891(7)
H22D H 1.0298 -0.2127 -0.0468
H23D H 1.0671 -0.2933 -0.0330
H24D H 1.0382 -0.2404 0.0214
C19D C 1.26697(13) -0.24434(8) -0.08669(7)
H25D H 1.3395 -0.2318 -0.0860
H26D H 1.2595 -0.2969 -0.0893
H27D H 1.2345 -0.2218 -0.1217
C20D C 1.26420(13) -0.26409(8) 0.04706(8)
H28D H 1.2338 -0.2498 0.0856
H29D H 1.2524 -0.3157 0.0403
H30D H 1.3376 -0.2546 0.0480
C21D C 1.28565(12) 0.02335(8) 0.02343(8)
H31D H 1.2244 0.0311 0.0478
H32D H 1.3433 0.0488 0.0418
H33D H 1.2743 0.0419 -0.0174
C22D C 1.43194(11) -0.08558(8) -0.02774(8)
H34D H 1.4229 -0.0590 -0.0655
H35D H 1.4907 -0.0661 -0.0059
H36D H 1.4436 -0.1367 -0.0366
C23D C 1.35227(14) -0.10263(10) 0.09817(7)
H37D H 1.3818 -0.1512 0.0975
H38D H 1.4027 -0.0683 0.1137
H39D H 1.2921 -0.1023 0.1243
Li1D Li 1.16803(19) -0.07251(13) -0.08410(11)
Li2D Li 1.09063(19) -0.05789(13) 0.01982(10)
H40D H 1.0653(12) -0.1654(9) -0.1313(7)
loop_
_geom_bond_atom_site_label_1
_geom_bond_atom_site_label_2
_geom_bond_site_symmetry_1
_geom_bond_site_symmetry_2
Si1 N3 1_555 1_555
Si2 N3 1_555 1_555
N1 C1 1_555 1_555
N2 C14 1_555 1_555
N3 Li1 1_555 1_555
C1 C2 1_555 1_555
C2 C3 1_555 1_555
C3 H1 1_555 1_555
C4 C3 1_555 1_555
H2 C4 1_555 1_555
C5 C4 1_555 1_555
H3 C5 1_555 1_555
C6 C1 1_555 1_555
C7 C2 1_555 1_555
H4 C7 1_555 1_555
C8 C7 1_555 1_555
H5 C8 1_555 1_555
H6 C8 1_555 1_555
H7 C8 1_555 1_555
C9 C7 1_555 1_555
H8 C9 1_555 1_555
H9 C9 1_555 1_555
H10 C9 1_555 1_555
C10 C6 1_555 1_555
H11 C10 1_555 1_555
C11 C10 1_555 1_555
H12 C11 1_555 1_555
H13 C11 1_555 1_555
H14 C11 1_555 1_555
C12 C10 1_555 1_555
H15 C12 1_555 1_555
H16 C12 1_555 1_555
H17 C12 1_555 1_555
C13 N1 1_555 1_555
D1 C13 1_555 1_555
H18 C13 1_555 1_555
C14 C13 1_555 1_555
C15 C14 1_555 1_555
H19 C15 1_555 1_555
C16 C15 1_555 1_555
H20 C16 1_555 1_555
C17 N2 1_555 1_555
H21 C17 1_555 1_555
C18 Si1 1_555 1_555
H22 C18 1_555 1_555
H23 C18 1_555 1_555
H24 C18 1_555 1_555
C19 Si1 1_555 1_555
H25 C19 1_555 1_555
H26 C19 1_555 1_555
H27 C19 1_555 1_555
C20 Si1 1_555 1_555
H28 C20 1_555 1_555
H29 C20 1_555 1_555
H30 C20 1_555 1_555
C21 Si2 1_555 1_555
H31 C21 1_555 1_555
H32 C21 1_555 1_555
H33 C21 1_555 1_555
C22 Si2 1_555 1_555
H34 C22 1_555 1_555
H35 C22 1_555 1_555
H36 C22 1_555 1_555
C23 Si2 1_555 1_555
H37 C23 1_555 1_555
H38 C23 1_555 1_555
H39 C23 1_555 1_555
Li1 N1 1_555 1_555
Li2 N2 1_555 1_555
H40 N1 1_555 1_555
Si1D N3D 1_555 1_555
Si2D N3D 1_555 1_555
N1D C1D 1_555 1_555
N2D Li2 1_555 1_555
N3D Li1D 1_555 1_555
C1D C2D 1_555 1_555
C2D C3D 1_555 1_555
C3D H1D 1_555 1_555
C4D C3D 1_555 1_555
H2D C4D 1_555 1_555
C5D C4D 1_555 1_555
H3D C5D 1_555 1_555
C6D C1D 1_555 1_555
C7D C2D 1_555 1_555
H4D C7D 1_555 1_555
C8D C7D 1_555 1_555
H5D C8D 1_555 1_555
H6D C8D 1_555 1_555
H7D C8D 1_555 1_555
C9D C7D 1_555 1_555
H8D C9D 1_555 1_555
H9D C9D 1_555 1_555
H10D C9D 1_555 1_555
C10D C6D 1_555 1_555
H11D C10D 1_555 1_555
C11D C10D 1_555 1_555
H12D C11D 1_555 1_555
H13D C11D 1_555 1_555
H14D C11D 1_555 1_555
C12D C10D 1_555 1_555
H15D C12D 1_555 1_555
H16D C12D 1_555 1_555
H17D C12D 1_555 1_555
C13D N1D 1_555 1_555
D1D C13D 1_555 1_555
H18D C13D 1_555 1_555
C14D Li2 1_555 1_555
C15D Li2 1_555 1_555
H19D C15D 1_555 1_555
C16D Li2 1_555 1_555
H20D C16D 1_555 1_555
C17D Li2 1_555 1_555
H21D C17D 1_555 1_555
C18D Si1D 1_555 1_555
H22D C18D 1_555 1_555
H23D C18D 1_555 1_555
H24D C18D 1_555 1_555
C19D Si1D 1_555 1_555
H25D C19D 1_555 1_555
H26D C19D 1_555 1_555
H27D C19D 1_555 1_555
C20D Si1D 1_555 1_555
H28D C20D 1_555 1_555
H29D C20D 1_555 1_555
H30D C20D 1_555 1_555
C21D Si2D 1_555 1_555
H31D C21D 1_555 1_555
H32D C21D 1_555 1_555
H33D C21D 1_555 1_555
C22D Si2D 1_555 1_555
H34D C22D 1_555 1_555
H35D C22D 1_555 1_555
H36D C22D 1_555 1_555
C23D Si2D 1_555 1_555
H37D C23D 1_555 1_555
H38D C23D 1_555 1_555
H39D C23D 1_555 1_555
Li1D N1D 1_555 1_555
Li2D N2 1_555 1_555
H40D N1D 1_555 1_555
N2 Li1 1_555 1_555
N3 Li2 1_555 1_555
C5 C6 1_555 1_555
C14 Li2D 1_555 1_555
C15 Li2D 1_555 1_555
C16 C17 1_555 1_555
C16 Li2D 1_555 1_555
C17 Li2D 1_555 1_555
N2D C14D 1_555 1_555
N2D C17D 1_555 1_555
N2D Li1D 1_555 1_555
N2D Li2D 1_555 1_555
N3D Li2D 1_555 1_555
C5D C6D 1_555 1_555
C13D C14D 1_555 1_555
C14D C15D 1_555 1_555
C15D C16D 1_555 1_555
C16D C17D 1_555 1_555

#END
