
#######################################################################
#
#                 Cambridge Crystallographic Data Centre
#                                CCDC 
#
#######################################################################
#
# If this CIF has been generated from an entry in the Cambridge 
# Structural Database, then it will include bibliographic, chemical, 
# crystal, experimental, refinement or atomic coordinate data resulting 
# from the CCDC's data processing and validation procedures.
#
#######################################################################

data_ENURAH
_chemical_formula_moiety         'C34 H42 Li2 N4 O2'
_chemical_name_systematic        
bis(\m~2~-2-(2,6-Dimethylphenyliminomethyl)pyrrolyl)-bis(tetrahydrofuran)-di-lithium
_symmetry_cell_setting           triclinic
_symmetry_space_group_name_H-M   'P -1'
_symmetry_Int_Tables_number      2
_space_group_name_Hall           '-P 1'
loop_
_symmetry_equiv_pos_site_id
_symmetry_equiv_pos_as_xyz
1 x,y,z
2 -x,-y,-z
_cell_length_a                   9.0400(17)
_cell_length_b                   9.5066(18)
_cell_length_c                   10.267(2)
_cell_angle_alpha                72.076(2)
_cell_angle_beta                 75.103(2)
_cell_angle_gamma                82.501(2)
_cell_volume                     810.034
_cell_formula_units_Z            1
loop_
_atom_site_label
_atom_site_type_symbol
_atom_site_fract_x
_atom_site_fract_y
_atom_site_fract_z
C1 C 0.3462(2) -0.1225(2) -0.1322(2)
H1 H 0.4241 -0.1254 -0.2109
C2 C 0.2109(3) -0.1910(3) -0.0969(3)
H2 H 0.1819 -0.2471 -0.1451
C3 C 0.1272(2) -0.1602(3) 0.0239(3)
H3 H 0.0298 -0.1911 0.0733
C4 C 0.21539(19) -0.07405(19) 0.0584(2)
C5 C 0.1757(2) -0.0046(2) 0.1681(2)
H4 H 0.0859 -0.0293 0.2368
C6 C 0.21052(19) 0.1498(2) 0.2935(2)
C7 C 0.2316(2) 0.0662(2) 0.4267(2)
C8 C 0.1878(3) 0.1303(3) 0.5365(2)
H5 H 0.2019 0.0760 0.6252
C9 C 0.1245(3) 0.2717(3) 0.5167(3)
H6 H 0.0944 0.3123 0.5918
C10 C 0.1055(3) 0.3538(3) 0.3854(3)
H7 H 0.0623 0.4499 0.3727
C11 C 0.1495(2) 0.2959(2) 0.2712(2)
C12 C 0.3004(4) -0.0898(3) 0.4520(3)
H8 H 0.2259 -0.1547 0.4551
H9 H 0.3311 -0.1197 0.5398
H10 H 0.3883 -0.0945 0.3771
C13 C 0.1328(3) 0.3879(2) 0.1272(3)
H11 H 0.0920 0.4855 0.1306
H12 H 0.0645 0.3426 0.0964
H13 H 0.2313 0.3944 0.0627
C14 C 0.3423(3) 0.3418(3) -0.2463(3)
H14 H 0.2396 0.3141 -0.1940
H15 H 0.3744 0.2925 -0.3196
C15 C 0.3451(4) 0.5005(3) -0.3069(4)
H16 H 0.2554 0.5497 -0.2607
H17 H 0.3477 0.5275 -0.4066
C16 C 0.4869(4) 0.5416(3) -0.2837(4)
H18 H 0.5576 0.5810 -0.3731
H19 H 0.4628 0.6167 -0.2342
C17 C 0.5536(4) 0.4119(3) -0.2026(4)
H20 H 0.5776 0.4310 -0.1230
H21 H 0.6476 0.3799 -0.2594
Li1 Li 0.4352(4) 0.1242(3) -0.0044(3)
N1 N 0.35294(17) -0.05056(16) -0.03966(16)
N2 N 0.25851(17) 0.09062(16) 0.17655(16)
O1 O 0.4450(2) 0.30103(17) -0.15535(18)
C1A C 0.6538(2) 0.1225(2) 0.1322(2)
H1A H 0.5759 0.1254 0.2109
C2A C 0.7891(3) 0.1910(3) 0.0969(3)
H2A H 0.8181 0.2471 0.1451
C3A C 0.8728(2) 0.1602(3) -0.0239(3)
H3A H 0.9702 0.1911 -0.0733
C4A C 0.78461(19) 0.07405(19) -0.0584(2)
C5A C 0.8243(2) 0.0046(2) -0.1681(2)
H4A H 0.9141 0.0293 -0.2368
C6A C 0.78948(19) -0.1498(2) -0.2935(2)
C7A C 0.7684(2) -0.0662(2) -0.4267(2)
C8A C 0.8122(3) -0.1303(3) -0.5365(2)
H5A H 0.7981 -0.0760 -0.6252
C9A C 0.8755(3) -0.2717(3) -0.5167(3)
H6A H 0.9056 -0.3123 -0.5918
C10A C 0.8945(3) -0.3538(3) -0.3854(3)
H7A H 0.9377 -0.4499 -0.3727
C11A C 0.8505(2) -0.2959(2) -0.2712(2)
C12A C 0.6996(4) 0.0898(3) -0.4520(3)
H8A H 0.7741 0.1547 -0.4551
H9A H 0.6689 0.1197 -0.5398
H10A H 0.6117 0.0945 -0.3771
C13A C 0.8672(3) -0.3879(2) -0.1272(3)
H11A H 0.9080 -0.4855 -0.1306
H12A H 0.9355 -0.3426 -0.0964
H13A H 0.7687 -0.3944 -0.0627
C14A C 0.6577(3) -0.3418(3) 0.2463(3)
H14A H 0.7604 -0.3141 0.1940
H15A H 0.6256 -0.2925 0.3196
C15A C 0.6549(4) -0.5005(3) 0.3069(4)
H16A H 0.7446 -0.5497 0.2607
H17A H 0.6523 -0.5275 0.4066
C16A C 0.5131(4) -0.5416(3) 0.2837(4)
H18A H 0.4424 -0.5810 0.3731
H19A H 0.5372 -0.6167 0.2342
C17A C 0.4464(4) -0.4119(3) 0.2026(4)
H20A H 0.4224 -0.4310 0.1230
H21A H 0.3524 -0.3799 0.2594
Li1A Li 0.5648(4) -0.1242(3) 0.0044(3)
N1A N 0.64706(17) 0.05056(16) 0.03966(16)
N2A N 0.74149(17) -0.09062(16) -0.17655(16)
O1A O 0.5550(2) -0.30103(17) 0.15535(18)
loop_
_geom_bond_atom_site_label_1
_geom_bond_atom_site_label_2
_geom_bond_site_symmetry_1
_geom_bond_site_symmetry_2
C1 H1 1_555 1_555
C2 C1 1_555 1_555
H2 C2 1_555 1_555
C3 C2 1_555 1_555
H3 C3 1_555 1_555
C4 C3 1_555 1_555
C5 C4 1_555 1_555
H4 C5 1_555 1_555
C6 C7 1_555 1_555
C7 C8 1_555 1_555
C8 H5 1_555 1_555
C9 C8 1_555 1_555
H6 C9 1_555 1_555
C10 C9 1_555 1_555
H7 C10 1_555 1_555
C11 C6 1_555 1_555
C12 C7 1_555 1_555
H8 C12 1_555 1_555
H9 C12 1_555 1_555
H10 C12 1_555 1_555
C13 C11 1_555 1_555
H11 C13 1_555 1_555
H12 C13 1_555 1_555
H13 C13 1_555 1_555
C14 H14 1_555 1_555
H15 C14 1_555 1_555
C15 C14 1_555 1_555
H16 C15 1_555 1_555
H17 C15 1_555 1_555
C16 C15 1_555 1_555
H18 C16 1_555 1_555
H19 C16 1_555 1_555
C17 C16 1_555 1_555
H20 C17 1_555 1_555
H21 C17 1_555 1_555
Li1 N1 1_555 1_555
N1 C1 1_555 1_555
N2 C5 1_555 1_555
O1 C14 1_555 1_555
C1A H1A 1_555 1_555
C2A C1A 1_555 1_555
H2A C2A 1_555 1_555
C3A C2A 1_555 1_555
H3A C3A 1_555 1_555
C4A C3A 1_555 1_555
C5A C4A 1_555 1_555
H4A C5A 1_555 1_555
C6A C7A 1_555 1_555
C7A C8A 1_555 1_555
C8A H5A 1_555 1_555
C9A C8A 1_555 1_555
H6A C9A 1_555 1_555
C10A C9A 1_555 1_555
H7A C10A 1_555 1_555
C11A C6A 1_555 1_555
C12A C7A 1_555 1_555
H8A C12A 1_555 1_555
H9A C12A 1_555 1_555
H10A C12A 1_555 1_555
C13A C11A 1_555 1_555
H11A C13A 1_555 1_555
H12A C13A 1_555 1_555
H13A C13A 1_555 1_555
C14A H14A 1_555 1_555
H15A C14A 1_555 1_555
C15A C14A 1_555 1_555
H16A C15A 1_555 1_555
H17A C15A 1_555 1_555
C16A C15A 1_555 1_555
H18A C16A 1_555 1_555
H19A C16A 1_555 1_555
C17A C16A 1_555 1_555
H20A C17A 1_555 1_555
H21A C17A 1_555 1_555
Li1A N1 1_555 1_555
N1A Li1 1_555 1_555
N2A C5A 1_555 1_555
O1A C14A 1_555 1_555
C4 N1 1_555 1_555
C6 N2 1_555 1_555
C10 C11 1_555 1_555
C17 O1 1_555 1_555
Li1 N2 1_555 1_555
Li1 O1 1_555 1_555
C1A N1A 1_555 1_555
C4A N1A 1_555 1_555
C6A N2A 1_555 1_555
C10A C11A 1_555 1_555
C17A O1A 1_555 1_555
Li1A N1A 1_555 1_555
Li1A N2A 1_555 1_555
Li1A O1A 1_555 1_555

#END
