
#######################################################################
#
#                 Cambridge Crystallographic Data Centre
#                                CCDC 
#
#######################################################################
#
# If this CIF has been generated from an entry in the Cambridge 
# Structural Database, then it will include bibliographic, chemical, 
# crystal, experimental, refinement or atomic coordinate data resulting 
# from the CCDC's data processing and validation procedures.
#
#######################################################################

data_ENUXAN
_chemical_formula_moiety         'C20 H30 O6 Si1'
_chemical_name_systematic        
2-((t-Butyl(dimethyl)silyl)oxy)-10-hydroxy-6-methyl-8,12-dioxatetracyclo[9.3.1.0^1,5^.0^6,10^]pentadec-4-ene-9,13-dione
_symmetry_cell_setting           orthorhombic
_symmetry_space_group_name_H-M   'P 21 21 21'
_symmetry_Int_Tables_number      19
_space_group_name_Hall           'P 2ac 2ab'
loop_
_symmetry_equiv_pos_site_id
_symmetry_equiv_pos_as_xyz
1 x,y,z
2 1/2+x,1/2-y,-z
3 -x,1/2+y,1/2-z
4 1/2-x,-y,1/2+z
_cell_length_a                   6.7585(3)
_cell_length_b                   11.3996(4)
_cell_length_c                   27.2963(11)
_cell_angle_alpha                90
_cell_angle_beta                 90
_cell_angle_gamma                90
_cell_volume                     2103.02
_exptl_crystal_colour            colorless
_exptl_crystal_description       needle
_cell_formula_units_Z            4
_exptl_crystal_recrystallization_method tetrahydrofuran
loop_
_atom_site_label
_atom_site_type_symbol
_atom_site_fract_x
_atom_site_fract_y
_atom_site_fract_z
Si1 Si 0.17832(7) 0.47682(4) 0.963978(16)
O1 O 0.27538(17) 0.57723(10) 0.92705(4)
O2 O 0.00641(17) 0.85496(10) 0.80893(4)
O3 O 0.20070(19) 0.97815(10) 0.84688(4)
O4 O -0.09591(18) 0.59904(10) 0.73684(4)
H1 H -0.0940 0.5865 0.7065
O5 O 0.1733(2) 0.84945(10) 0.70217(4)
O6 O -0.1496(2) 0.82168(12) 0.68840(5)
C1 C 0.2938(2) 0.55515(14) 0.87614(6)
H2 H 0.2199 0.4816 0.8681
C2 C 0.5080(2) 0.54122(15) 0.85895(6)
H3 H 0.5978 0.5957 0.8764
H4 H 0.5556 0.4597 0.8633
C3 C 0.4889(3) 0.57280(15) 0.80547(6)
H5 H 0.5826 0.5517 0.7811
C4 C 0.3247(2) 0.63372(13) 0.79663(6)
C5 C 0.2118(2) 0.65540(13) 0.84418(6)
C6 C -0.0111(2) 0.64964(14) 0.83681(6)
H6 H -0.0511 0.5697 0.8266
H7 H -0.0805 0.6693 0.8677
C7 C -0.0623(2) 0.73766(14) 0.79730(6)
H8 H -0.2097 0.7405 0.7944
C8 C 0.0215(3) 0.69698(14) 0.74759(6)
C9 C 0.2489(2) 0.67548(14) 0.74769(6)
C10 C 0.2570(2) 0.77609(14) 0.86588(6)
H9 H 0.2168 0.7762 0.9008
H10 H 0.4017 0.7891 0.8647
C11 C 0.1561(3) 0.87670(14) 0.84043(6)
C12 C -0.0017(3) 0.79522(14) 0.70987(6)
C13 C 0.3254(3) 0.79849(14) 0.73335(6)
H11 H 0.3460 0.8473 0.7629
H12 H 0.4523 0.7924 0.7154
C14 C 0.3050(3) 0.59032(15) 0.70659(6)
H13 H 0.4494 0.5858 0.7040
H14 H 0.2498 0.6183 0.6755
H15 H 0.2517 0.5124 0.7140
C15 C 0.3031(4) 0.33330(17) 0.95405(8)
H16 H 0.2794 0.3069 0.9204
H17 H 0.2498 0.2753 0.9770
H18 H 0.4456 0.3421 0.9595
C16 C -0.0900(3) 0.4595(2) 0.94991(9)
H19 H -0.1568 0.5353 0.9538
H20 H -0.1484 0.4023 0.9725
H21 H -0.1057 0.4319 0.9161
C17 C 0.2219(3) 0.53569(18) 1.02720(7)
C18 C 0.1436(5) 0.6612(2) 1.03086(9)
H22 H 0.1698 0.6921 1.0637
H23 H 0.0007 0.6615 1.0247
H24 H 0.2101 0.7105 1.0065
C19 C 0.1140(5) 0.4601(2) 1.06539(8)
H25 H 0.1636 0.3794 1.0637
H26 H -0.0283 0.4607 1.0586
H27 H 0.1380 0.4920 1.0982
C20 C 0.4431(4) 0.5365(2) 1.03760(9)
H28 H 0.5117 0.5801 1.0117
H29 H 0.4925 0.4557 1.0385
H30 H 0.4676 0.5742 1.0693
loop_
_geom_bond_atom_site_label_1
_geom_bond_atom_site_label_2
_geom_bond_site_symmetry_1
_geom_bond_site_symmetry_2
Si1 O1 1_555 1_555
O1 C1 1_555 1_555
O2 C7 1_555 1_555
O3 C11 1_555 1_555
O4 H1 1_555 1_555
O5 C12 1_555 1_555
O6 C12 1_555 1_555
C1 H2 1_555 1_555
C2 C1 1_555 1_555
H3 C2 1_555 1_555
H4 C2 1_555 1_555
C3 C2 1_555 1_555
H5 C3 1_555 1_555
C4 C3 1_555 1_555
C5 C1 1_555 1_555
C6 C5 1_555 1_555
H6 C6 1_555 1_555
H7 C6 1_555 1_555
C7 C6 1_555 1_555
H8 C7 1_555 1_555
C8 O4 1_555 1_555
C9 C4 1_555 1_555
C10 C5 1_555 1_555
H9 C10 1_555 1_555
H10 C10 1_555 1_555
C11 O2 1_555 1_555
C12 C8 1_555 1_555
C13 O5 1_555 1_555
H11 C13 1_555 1_555
H12 C13 1_555 1_555
C14 C9 1_555 1_555
H13 C14 1_555 1_555
H14 C14 1_555 1_555
H15 C14 1_555 1_555
C15 Si1 1_555 1_555
H16 C15 1_555 1_555
H17 C15 1_555 1_555
H18 C15 1_555 1_555
C16 Si1 1_555 1_555
H19 C16 1_555 1_555
H20 C16 1_555 1_555
H21 C16 1_555 1_555
C17 Si1 1_555 1_555
C18 C17 1_555 1_555
H22 C18 1_555 1_555
H23 C18 1_555 1_555
H24 C18 1_555 1_555
C19 C17 1_555 1_555
H25 C19 1_555 1_555
H26 C19 1_555 1_555
H27 C19 1_555 1_555
C20 C17 1_555 1_555
H28 C20 1_555 1_555
H29 C20 1_555 1_555
H30 C20 1_555 1_555
C4 C5 1_555 1_555
C7 C8 1_555 1_555
C8 C9 1_555 1_555
C9 C13 1_555 1_555
C10 C11 1_555 1_555

#END
