
#######################################################################
#
#                 Cambridge Crystallographic Data Centre
#                                CCDC 
#
#######################################################################
#
# If this CIF has been generated from an entry in the Cambridge 
# Structural Database, then it will include bibliographic, chemical, 
# crystal, experimental, refinement or atomic coordinate data resulting 
# from the CCDC's data processing and validation procedures.
#
#######################################################################

data_EPANEQ02
_chemical_formula_moiety         'C32 H28 N2 O6 S4'
_chemical_name_systematic        
"di-t-butyl 3,6-bis(2,2'-bithiophen-5-yl)-1,4-dioxopyrrolo[3,4-c]pyrrole-2,5(1H,4H)-dicarboxylate"
_symmetry_cell_setting           monoclinic
_symmetry_space_group_name_H-M   'P 21/c'
_symmetry_Int_Tables_number      14
_space_group_name_Hall           '-P 2ybc'
loop_
_symmetry_equiv_pos_site_id
_symmetry_equiv_pos_as_xyz
1 x,y,z
2 -x,1/2+y,1/2-z
3 -x,-y,-z
4 x,1/2-y,1/2+z
_cell_length_a                   11.1947(6)
_cell_length_b                   5.6858(3)
_cell_length_c                   23.9486(16)
_cell_angle_alpha                90
_cell_angle_beta                 101.642(6)
_cell_angle_gamma                90
_cell_volume                     1492.99
_exptl_crystal_colour            green
_exptl_crystal_description       'fine needle'
_cell_formula_units_Z            2
loop_
_atom_site_label
_atom_site_type_symbol
_atom_site_fract_x
_atom_site_fract_y
_atom_site_fract_z
S1 S 0.86058(8) -0.11801(17) 0.59242(4)
S2 S 0.50242(8) -0.40574(18) 0.57926(4)
O1 O 0.7710(2) 0.4694(4) 0.41342(10)
O2 O 0.8144(2) 0.9037(4) 0.35540(9)
O3 O 0.9883(2) 0.7429(4) 0.33759(10)
N1 N 0.9411(2) 0.7141(5) 0.42639(11)
C1 C 0.8698(3) 0.5248(6) 0.44208(14)
C2 C 0.9445(3) 0.4356(6) 0.49401(14)
C3 C 0.9453(3) 0.2642(6) 0.53565(14)
C4 C 0.8546(3) 0.0914(6) 0.53888(14)
C5 C 0.7470(3) 0.0728(6) 0.50005(14)
H1 H 0.7266 0.1706 0.4673
C6 C 0.6700(3) -0.1036(6) 0.51305(14)
H2 H 0.5919 -0.1356 0.4903
C7 C 0.7182(3) -0.2261(6) 0.56172(14)
C8 C 0.6604(3) -0.4084(6) 0.58896(14)
C9 C 0.7071(3) -0.5951(6) 0.62146(14)
H3 H 0.7920 -0.6263 0.6322
C10 C 0.6175(3) -0.7374(6) 0.63764(14)
H4 H 0.6355 -0.8760 0.6599
C11 C 0.5028(3) -0.6572(6) 0.61834(14)
H5 H 0.4314 -0.7314 0.6256
C12 C 0.9185(3) 0.7888(6) 0.36783(15)
C13 C 0.7688(3) 0.9857(6) 0.29531(14)
C14 C 0.7420(3) 0.7741(6) 0.25661(14)
H6 H 0.6951 0.6587 0.2737
H7 H 0.8189 0.7029 0.2516
H8 H 0.6948 0.8233 0.2194
C15 C 0.6520(3) 1.1138(7) 0.30005(15)
H9 H 0.5951 1.0028 0.3120
H10 H 0.6148 1.1809 0.2629
H11 H 0.6709 1.2401 0.3283
C16 C 0.8605(3) 1.1531(6) 0.27837(15)
H12 H 0.8254 1.2251 0.2415
H13 H 0.9345 1.0662 0.2752
H14 H 0.8811 1.2761 0.3074
S1B S 1.13942(8) 1.11801(17) 0.40758(4)
S2B S 1.49758(8) 1.40574(18) 0.42074(4)
O1B O 1.2290(2) 0.5306(4) 0.58658(10)
O2B O 1.1856(2) 0.0963(4) 0.64460(9)
O3B O 1.0117(2) 0.2571(4) 0.66241(10)
N1B N 1.0589(2) 0.2859(5) 0.57361(11)
C1B C 1.1302(3) 0.4752(6) 0.55792(14)
C2B C 1.0555(3) 0.5644(6) 0.50599(14)
C3B C 1.0547(3) 0.7358(6) 0.46435(14)
C4B C 1.1454(3) 0.9086(6) 0.46112(14)
C5B C 1.2530(3) 0.9272(6) 0.49995(14)
H1B H 1.2734 0.8294 0.5327
C6B C 1.3300(3) 1.1036(6) 0.48695(14)
H2B H 1.4081 1.1356 0.5097
C7B C 1.2818(3) 1.2261(6) 0.43828(14)
C8B C 1.3396(3) 1.4084(6) 0.41104(14)
C9B C 1.2929(3) 1.5951(6) 0.37854(14)
H3B H 1.2080 1.6263 0.3678
C10B C 1.3825(3) 1.7374(6) 0.36236(14)
H4B H 1.3645 1.8760 0.3401
C11B C 1.4972(3) 1.6572(6) 0.38166(14)
H5B H 1.5686 1.7314 0.3744
C12B C 1.0815(3) 0.2112(6) 0.63217(15)
C13B C 1.2312(3) 0.0143(6) 0.70469(14)
C14B C 1.2580(3) 0.2259(6) 0.74339(14)
H6B H 1.3049 0.3413 0.7263
H7B H 1.1811 0.2971 0.7484
H8B H 1.3052 0.1767 0.7806
C15B C 1.3480(3) -0.1138(7) 0.69995(15)
H9B H 1.4049 -0.0028 0.6880
H10B H 1.3852 -0.1809 0.7371
H11B H 1.3291 -0.2401 0.6717
C16B C 1.1395(3) -0.1531(6) 0.72163(15)
H12B H 1.1746 -0.2251 0.7585
H13B H 1.0655 -0.0662 0.7248
H14B H 1.1189 -0.2761 0.6926
loop_
_geom_bond_atom_site_label_1
_geom_bond_atom_site_label_2
_geom_bond_site_symmetry_1
_geom_bond_site_symmetry_2
S1 C4 1_555 1_555
S2 C8 1_555 1_555
O1 C1 1_555 1_555
O2 C12 1_555 1_555
O3 C12 1_555 1_555
N1 C1 1_555 1_555
C1 C2 1_555 1_555
C2 C3 1_555 1_555
C3 C4 1_555 1_555
C4 C5 1_555 1_555
C5 H1 1_555 1_555
C6 C5 1_555 1_555
H2 C6 1_555 1_555
C7 S1 1_555 1_555
C8 C7 1_555 1_555
C9 C8 1_555 1_555
H3 C9 1_555 1_555
C10 C9 1_555 1_555
H4 C10 1_555 1_555
C11 S2 1_555 1_555
H5 C11 1_555 1_555
C12 N1 1_555 1_555
C13 O2 1_555 1_555
C14 C13 1_555 1_555
H6 C14 1_555 1_555
H7 C14 1_555 1_555
H8 C14 1_555 1_555
C15 C13 1_555 1_555
H9 C15 1_555 1_555
H10 C15 1_555 1_555
H11 C15 1_555 1_555
C16 C13 1_555 1_555
H12 C16 1_555 1_555
H13 C16 1_555 1_555
H14 C16 1_555 1_555
S1B C4B 1_555 1_555
S2B C8B 1_555 1_555
O1B C1B 1_555 1_555
O2B C12B 1_555 1_555
O3B C12B 1_555 1_555
N1B C3 1_555 1_555
C1B N1B 1_555 1_555
C2B C2 1_555 1_555
C3B N1 1_555 1_555
C4B C3B 1_555 1_555
C5B C4B 1_555 1_555
H1B C5B 1_555 1_555
C6B C5B 1_555 1_555
H2B C6B 1_555 1_555
C7B S1B 1_555 1_555
C8B C7B 1_555 1_555
C9B C8B 1_555 1_555
H3B C9B 1_555 1_555
C10B C9B 1_555 1_555
H4B C10B 1_555 1_555
C11B S2B 1_555 1_555
H5B C11B 1_555 1_555
C12B N1B 1_555 1_555
C13B O2B 1_555 1_555
C14B C13B 1_555 1_555
H6B C14B 1_555 1_555
H7B C14B 1_555 1_555
H8B C14B 1_555 1_555
C15B C13B 1_555 1_555
H9B C15B 1_555 1_555
H10B C15B 1_555 1_555
H11B C15B 1_555 1_555
C16B C13B 1_555 1_555
H12B C16B 1_555 1_555
H13B C16B 1_555 1_555
H14B C16B 1_555 1_555
C6 C7 1_555 1_555
C10 C11 1_555 1_555
C1B C2B 1_555 1_555
C2B C3B 1_555 1_555
C6B C7B 1_555 1_555
C10B C11B 1_555 1_555

#END
