
#######################################################################
#
#                 Cambridge Crystallographic Data Centre
#                                CCDC 
#
#######################################################################
#
# If this CIF has been generated from an entry in the Cambridge 
# Structural Database, then it will include bibliographic, chemical, 
# crystal, experimental, refinement or atomic coordinate data resulting 
# from the CCDC's data processing and validation procedures.
#
#######################################################################

data_EPANEQ01
_chemical_formula_moiety         'C32 H28 N2 O6 S4'
_chemical_name_systematic        
"di-t-butyl 3,6-bis(2,2'-bithiophen-5-yl)-1,4-dioxopyrrolo[3,4-c]pyrrole-2,5(1H,4H)-dicarboxylate"
_symmetry_cell_setting           monoclinic
_symmetry_space_group_name_H-M   'P 21/c'
_symmetry_Int_Tables_number      14
_space_group_name_Hall           '-P 2ybc'
loop_
_symmetry_equiv_pos_site_id
_symmetry_equiv_pos_as_xyz
1 x,y,z
2 -x,1/2+y,1/2-z
3 -x,-y,-z
4 x,1/2-y,1/2+z
_cell_length_a                   11.1731(19)
_cell_length_b                   5.6806(10)
_cell_length_c                   23.906(3)
_cell_angle_alpha                90
_cell_angle_beta                 101.665(17)
_cell_angle_gamma                90
_cell_volume                     1485.97
_exptl_crystal_colour            green
_exptl_crystal_description       'fine needle'
_cell_formula_units_Z            2
loop_
_atom_site_label
_atom_site_type_symbol
_atom_site_fract_x
_atom_site_fract_y
_atom_site_fract_z
S1 S 0.86045(14) -0.1178(3) 0.59225(6)
S2 S 0.50275(14) -0.4043(3) 0.57929(7)
O1 O 0.7708(4) 0.4678(8) 0.41367(16)
O2 O 0.8144(4) 0.9021(8) 0.35548(14)
O3 O 0.9887(4) 0.7415(8) 0.33769(16)
N1 N 0.9403(4) 0.7152(9) 0.42673(18)
C1 C 0.8700(6) 0.5248(12) 0.4415(2)
C2 C 0.9457(5) 0.4381(11) 0.4939(2)
C3 C 0.9442(5) 0.2668(11) 0.5356(2)
C4 C 0.8560(5) 0.0934(11) 0.5388(2)
C5 C 0.7460(5) 0.0725(12) 0.5001(2)
H1 H 0.7244 0.1708 0.4675
C6 C 0.6703(6) -0.1037(12) 0.5130(2)
H2 H 0.5928 -0.1386 0.4898
C7 C 0.7178(5) -0.2230(11) 0.5622(2)
C8 C 0.6577(6) -0.4080(11) 0.5886(2)
C9 C 0.7086(6) -0.5926(11) 0.6212(2)
H3 H 0.7939 -0.6214 0.6317
C10 C 0.6177(6) -0.7369(12) 0.6377(2)
H4 H 0.6361 -0.8752 0.6601
C11 C 0.5027(6) -0.6585(12) 0.6183(2)
H5 H 0.4312 -0.7338 0.6254
C12 C 0.9177(5) 0.7912(12) 0.3676(2)
C13 C 0.7679(6) 0.9877(13) 0.2950(2)
C14 C 0.7425(6) 0.7721(11) 0.2564(2)
H6 H 0.6920 0.6602 0.2726
H7 H 0.8200 0.6971 0.2535
H8 H 0.6991 0.8206 0.2183
C15 C 0.6505(6) 1.1096(13) 0.2996(3)
H9 H 0.5968 0.9985 0.3140
H10 H 0.6099 1.1669 0.2619
H11 H 0.6686 1.2429 0.3260
C16 C 0.8600(6) 1.1525(13) 0.2785(2)
H12 H 0.8259 1.2237 0.2414
H13 H 0.9343 1.0649 0.2760
H14 H 0.8800 1.2765 0.3074
S1B S 1.13955(14) 1.1178(3) 0.40775(6)
S2B S 1.49725(14) 1.4043(3) 0.42071(7)
O1B O 1.2292(4) 0.5322(8) 0.58633(16)
O2B O 1.1856(4) 0.0979(8) 0.64452(14)
O3B O 1.0113(4) 0.2585(8) 0.66231(16)
N1B N 1.0597(4) 0.2848(9) 0.57327(18)
C1B C 1.1300(6) 0.4752(12) 0.5585(2)
C2B C 1.0543(5) 0.5619(11) 0.5061(2)
C3B C 1.0558(5) 0.7332(11) 0.4644(2)
C4B C 1.1440(5) 0.9066(11) 0.4612(2)
C5B C 1.2540(5) 0.9275(12) 0.4999(2)
H1B H 1.2756 0.8292 0.5325
C6B C 1.3297(6) 1.1037(12) 0.4870(2)
H2B H 1.4072 1.1386 0.5102
C7B C 1.2822(5) 1.2230(11) 0.4378(2)
C8B C 1.3423(6) 1.4080(11) 0.4114(2)
C9B C 1.2914(6) 1.5926(11) 0.3788(2)
H3B H 1.2061 1.6214 0.3683
C10B C 1.3823(6) 1.7369(12) 0.3623(2)
H4B H 1.3639 1.8752 0.3399
C11B C 1.4973(6) 1.6585(12) 0.3817(2)
H5B H 1.5688 1.7338 0.3746
C12B C 1.0823(5) 0.2088(12) 0.6324(2)
C13B C 1.2321(6) 0.0123(13) 0.7050(2)
C14B C 1.2575(6) 0.2279(11) 0.7436(2)
H6B H 1.3080 0.3398 0.7274
H7B H 1.1800 0.3029 0.7465
H8B H 1.3009 0.1794 0.7817
C15B C 1.3495(6) -0.1096(13) 0.7004(3)
H9B H 1.4032 0.0015 0.6860
H10B H 1.3901 -0.1669 0.7381
H11B H 1.3314 -0.2429 0.6740
C16B C 1.1400(6) -0.1525(13) 0.7215(2)
H12B H 1.1741 -0.2237 0.7586
H13B H 1.0657 -0.0649 0.7240
H14B H 1.1200 -0.2765 0.6926
loop_
_geom_bond_atom_site_label_1
_geom_bond_atom_site_label_2
_geom_bond_site_symmetry_1
_geom_bond_site_symmetry_2
S1 C4 1_555 1_555
S2 C8 1_555 1_555
O1 C1 1_555 1_555
O2 C12 1_555 1_555
O3 C12 1_555 1_555
N1 C1 1_555 1_555
C1 C2 1_555 1_555
C2 C3 1_555 1_555
C3 C4 1_555 1_555
C4 C5 1_555 1_555
C5 H1 1_555 1_555
C6 C5 1_555 1_555
H2 C6 1_555 1_555
C7 S1 1_555 1_555
C8 C7 1_555 1_555
C9 C8 1_555 1_555
H3 C9 1_555 1_555
C10 C9 1_555 1_555
H4 C10 1_555 1_555
C11 S2 1_555 1_555
H5 C11 1_555 1_555
C12 N1 1_555 1_555
C13 O2 1_555 1_555
C14 C13 1_555 1_555
H6 C14 1_555 1_555
H7 C14 1_555 1_555
H8 C14 1_555 1_555
C15 C13 1_555 1_555
H9 C15 1_555 1_555
H10 C15 1_555 1_555
H11 C15 1_555 1_555
C16 C13 1_555 1_555
H12 C16 1_555 1_555
H13 C16 1_555 1_555
H14 C16 1_555 1_555
S1B C4B 1_555 1_555
S2B C8B 1_555 1_555
O1B C1B 1_555 1_555
O2B C12B 1_555 1_555
O3B C12B 1_555 1_555
N1B C3 1_555 1_555
C1B N1B 1_555 1_555
C2B C2 1_555 1_555
C3B N1 1_555 1_555
C4B C3B 1_555 1_555
C5B C4B 1_555 1_555
H1B C5B 1_555 1_555
C6B C5B 1_555 1_555
H2B C6B 1_555 1_555
C7B S1B 1_555 1_555
C8B C7B 1_555 1_555
C9B C8B 1_555 1_555
H3B C9B 1_555 1_555
C10B C9B 1_555 1_555
H4B C10B 1_555 1_555
C11B S2B 1_555 1_555
H5B C11B 1_555 1_555
C12B N1B 1_555 1_555
C13B O2B 1_555 1_555
C14B C13B 1_555 1_555
H6B C14B 1_555 1_555
H7B C14B 1_555 1_555
H8B C14B 1_555 1_555
C15B C13B 1_555 1_555
H9B C15B 1_555 1_555
H10B C15B 1_555 1_555
H11B C15B 1_555 1_555
C16B C13B 1_555 1_555
H12B C16B 1_555 1_555
H13B C16B 1_555 1_555
H14B C16B 1_555 1_555
C6 C7 1_555 1_555
C10 C11 1_555 1_555
C1B C2B 1_555 1_555
C2B C3B 1_555 1_555
C6B C7B 1_555 1_555
C10B C11B 1_555 1_555

#END
