
#######################################################################
#
#                 Cambridge Crystallographic Data Centre
#                                CCDC 
#
#######################################################################
#
# If this CIF has been generated from an entry in the Cambridge 
# Structural Database, then it will include bibliographic, chemical, 
# crystal, experimental, refinement or atomic coordinate data resulting 
# from the CCDC's data processing and validation procedures.
#
#######################################################################

data_EPAZEC
_chemical_formula_moiety         
'C114 H28 F30 N6 S24,1.7(C1 H1 Cl3),1.7(C4 H10 O1)'
_chemical_name_systematic        
'6,14,22,30,38,46-hexakis(1,3-benzodithiol-2-ylidene)-2,10,18,26,34,42-hexakis(pentafluorophenyl)-5,7,13,15,21,23,29,31,37,39,45,47-dodecathia-49,50,51,52,53,54-hexaazatridecacyclo[41.5.1.1^3,9^.1^11,17^.1^19,25^.1^27,33^.1^35,41^.0^4,8^.0^12,16^.0^20,24^.0^28,32^.0^36,40^.0^44,48^]tetrapentaconta-1(49),2,4(8),9,11,16,18,20(24),25(52),26,28(32),33,35,40,42,44(48)-hexadecaene chloroform diethyl ether solvate'
_symmetry_cell_setting           monoclinic
_symmetry_space_group_name_H-M   'C 2/c'
_symmetry_Int_Tables_number      15
_space_group_name_Hall           '-C 2yn'
loop_
_symmetry_equiv_pos_site_id
_symmetry_equiv_pos_as_xyz
1 x,y,z
2 -x,y,1/2-z
3 1/2+x,1/2+y,z
4 1/2-x,1/2+y,1/2-z
5 -x,-y,-z
6 x,-y,1/2+z
7 1/2-x,1/2-y,-z
8 1/2+x,1/2-y,1/2+z
_cell_length_a                   20.732(2)
_cell_length_b                   24.908(2)
_cell_length_c                   28.820(3)
_cell_angle_alpha                90
_cell_angle_beta                 104.276(3)
_cell_angle_gamma                90
_cell_volume                     14422.9
_exptl_crystal_colour            black
_exptl_crystal_description       prisms
_chemical_melting_point          '428 K'
_cell_formula_units_Z            4
loop_
_atom_site_label
_atom_site_type_symbol
_atom_site_fract_x
_atom_site_fract_y
_atom_site_fract_z
C1 C 0.5846(2) 0.30799(18) 0.31877(16)
C2 C 0.5781(3) 0.3546(2) 0.34388(18)
C3 C 0.5988(3) 0.39906(19) 0.32055(17)
C4 C 0.6192(3) 0.37895(18) 0.28044(16)
C5 C 0.6496(3) 0.40610(17) 0.24736(16)
C6 C 0.6614(7) 0.4656(4) 0.2557(6)
C7 C 0.6181(7) 0.5043(4) 0.2309(5)
C8 C 0.6308(7) 0.5594(4) 0.2445(5)
C9 C 0.6816(8) 0.5737(4) 0.2800(5)
C10 C 0.7251(7) 0.5372(4) 0.3026(5)
C11 C 0.7136(6) 0.4837(4) 0.2910(5)
F1 F 0.7576(6) 0.4469(4) 0.3168(4)
F2 F 0.7748(5) 0.5537(4) 0.3377(3)
F3 F 0.6920(5) 0.6253(3) 0.2921(4)
F4 F 0.5874(5) 0.5957(3) 0.2221(4)
F5 F 0.5656(5) 0.4914(4) 0.1960(4)
C12 C 0.6638(3) 0.38058(18) 0.20859(16)
C13 C 0.7064(3) 0.39671(18) 0.17788(17)
C14 C 0.7083(3) 0.35456(17) 0.14776(17)
C15 C 0.3379(2) 0.31354(17) 0.34276(16)
C16 C 0.3613(2) 0.26529(17) 0.36929(16)
C17 C 0.3138(7) 0.2376(9) 0.3918(4)
C18 C 0.3318(6) 0.2311(7) 0.4417(4)
C19 C 0.2904(6) 0.2044(6) 0.4659(4)
C20 C 0.2287(6) 0.1865(5) 0.4401(4)
C21 C 0.2094(6) 0.1934(6) 0.3922(4)
C22 C 0.2525(6) 0.2187(8) 0.3683(4)
F6 F 0.3906(6) 0.2494(7) 0.4670(5)
F7 F 0.3095(6) 0.1990(5) 0.5139(3)
F8 F 0.1893(4) 0.1626(4) 0.4652(3)
F9 F 0.1480(5) 0.1784(6) 0.3685(3)
F10 F 0.2283(8) 0.2282(7) 0.3214(3)
C23 C 0.4213(2) 0.24395(17) 0.36819(16)
C24 C 0.4513(3) 0.19264(18) 0.38436(18)
C25 C 0.5105(3) 0.18716(18) 0.37186(18)
C26 C 0.5239(2) 0.23683(17) 0.34921(16)
C27 C 0.5829(3) 0.4356(2) 0.39989(19)
C28 C 0.5877(3) 0.4662(2) 0.43885(19)
C29 C 0.5856(3) 0.5012(2) 0.5239(2)
C30 C 0.5796(3) 0.5051(2) 0.57135(19)
H1 H 0.5756 0.4742 0.5899
C31 C 0.5797(3) 0.5572(3) 0.5896(2)
H2 H 0.5748 0.5617 0.6212
C32 C 0.5865(3) 0.6015(3) 0.5637(2)
H3 H 0.5858 0.6360 0.5776
C33 C 0.5946(3) 0.5976(2) 0.5178(2)
H4 H 0.6002 0.6288 0.5002
C34 C 0.5942(3) 0.5466(2) 0.49774(19)
C35 C 0.7604(3) 0.4334(2) 0.11416(18)
C36 C 0.7686(3) 0.4681(2) 0.08029(18)
C37 C 0.7661(3) 0.5542(2) 0.0295(2)
C38 C 0.7568(3) 0.6072(2) 0.0105(2)
H5 H 0.7539 0.6366 0.0310
C39 C 0.7520(3) 0.6160(2) -0.0369(2)
H6 H 0.7459 0.6515 -0.0491
C40 C 0.7560(3) 0.5743(3) -0.0671(2)
H7 H 0.7537 0.5813 -0.0999
C41 C 0.7633(3) 0.5222(2) -0.0501(2)
H8 H 0.7648 0.4933 -0.0713
C42 C 0.7684(3) 0.5121(2) -0.00162(19)
C43 C 0.4926(3) 0.0977(2) 0.4097(2)
S1 S 0.4372(3) 0.0207(2) 0.4562(2)
S2 S 0.5642(4) 0.0039(3) 0.4266(3)
C44 C 0.5008(5) 0.0485(4) 0.4325(5)
C45 C 0.4655(6) -0.0461(4) 0.4554(5)
C46 C 0.4333(6) -0.0892(4) 0.4720(5)
H9 H 0.3936 -0.0838 0.4823
C47 C 0.4615(7) -0.1400(4) 0.4728(6)
H10 H 0.4427 -0.1694 0.4859
C48 C 0.5177(6) -0.1483(5) 0.4546(6)
H11 H 0.5337 -0.1838 0.4531
C49 C 0.5503(6) -0.1064(4) 0.4387(5)
H12 H 0.5892 -0.1122 0.4276
C50 C 0.5232(6) -0.0543(4) 0.4398(5)
C51 C 0.5761(2) 0.25218(18) 0.33070(16)
C52 C 0.6249(3) 0.21239(18) 0.32269(19)
C53 C 0.6811(3) 0.2003(2) 0.3584(2)
C54 C 0.7290(3) 0.1633(2) 0.3510(3)
C55 C 0.7195(4) 0.1389(2) 0.3071(3)
C56 C 0.6674(4) 0.1504(3) 0.2726(3)
C57 C 0.6207(3) 0.1873(2) 0.2795(2)
N1 N 0.6085(2) 0.32381(14) 0.28050(13)
H13 H 0.6161 0.3017 0.2586
N2 N 0.6382(2) 0.32956(14) 0.19494(13)
N3 N 0.4695(2) 0.26943(14) 0.34942(13)
H14 H 0.4657 0.3027 0.3388
F11 F 0.69063(18) 0.22296(15) 0.40194(12)
F12 F 0.78312(19) 0.15280(16) 0.38753(15)
F13 F 0.7674(2) 0.10327(17) 0.30218(17)
F14 F 0.6610(3) 0.1289(2) 0.22817(17)
F15 F 0.5691(2) 0.19970(17) 0.24240(14)
S3 S 0.55726(9) 0.36736(5) 0.39789(5)
S4 S 0.59575(9) 0.46219(5) 0.34537(5)
S5 S 0.58178(8) 0.43904(6) 0.49429(5)
S6 S 0.60148(8) 0.53600(5) 0.43858(5)
S7 S 0.74992(8) 0.45488(5) 0.17085(5)
S8 S 0.75446(7) 0.36206(5) 0.10484(5)
S9 S 0.77139(8) 0.53809(5) 0.08936(5)
S10 S 0.77910(7) 0.44741(5) 0.02390(5)
S11 S 0.42541(9) 0.13976(6) 0.41546(7)
S12 S 0.55666(8) 0.12882(6) 0.38815(7)
C1A C 0.4154(2) 0.30799(18) 0.18123(16)
C2A C 0.4219(3) 0.3546(2) 0.15612(18)
C3A C 0.4012(3) 0.39906(19) 0.17945(17)
C4A C 0.3808(3) 0.37895(18) 0.21956(16)
C5A C 0.3504(3) 0.40610(17) 0.25264(16)
C6A C 0.3386(7) 0.4656(4) 0.2443(6)
C7A C 0.3819(7) 0.5043(4) 0.2691(5)
C8A C 0.3692(7) 0.5594(4) 0.2555(5)
C9A C 0.3184(8) 0.5737(4) 0.2200(5)
C10A C 0.2749(7) 0.5372(4) 0.1974(5)
C11A C 0.2864(6) 0.4837(4) 0.2090(5)
F1A F 0.2424(6) 0.4469(4) 0.1832(4)
F2A F 0.2252(5) 0.5537(4) 0.1623(3)
F3A F 0.3080(5) 0.6253(3) 0.2079(4)
F4A F 0.4126(5) 0.5957(3) 0.2779(4)
F5A F 0.4344(5) 0.4914(4) 0.3040(4)
C12A C 0.3362(3) 0.38058(18) 0.29141(16)
C13A C 0.2936(3) 0.39671(18) 0.32212(17)
C14A C 0.2917(3) 0.35456(17) 0.35224(17)
C15A C 0.6621(2) 0.31354(17) 0.15724(16)
C16A C 0.6387(2) 0.26529(17) 0.13071(16)
C17A C 0.6862(7) 0.2376(9) 0.1082(4)
C18A C 0.6682(6) 0.2311(7) 0.0583(4)
C19A C 0.7096(6) 0.2044(6) 0.0341(4)
C20A C 0.7713(6) 0.1865(5) 0.0599(4)
C21A C 0.7906(6) 0.1934(6) 0.1078(4)
C22A C 0.7475(6) 0.2187(8) 0.1317(4)
F6A F 0.6094(6) 0.2494(7) 0.0330(5)
F7A F 0.6905(6) 0.1990(5) -0.0139(3)
F8A F 0.8107(4) 0.1626(4) 0.0348(3)
F9A F 0.8520(5) 0.1784(6) 0.1315(3)
F10A F 0.7717(8) 0.2282(7) 0.1786(3)
C23A C 0.5787(2) 0.24395(17) 0.13181(16)
C24A C 0.5487(3) 0.19264(18) 0.11564(18)
C25A C 0.4895(3) 0.18716(18) 0.12814(18)
C26A C 0.4761(2) 0.23683(17) 0.15079(16)
C27A C 0.4171(3) 0.4356(2) 0.10011(19)
C28A C 0.4123(3) 0.4662(2) 0.06115(19)
C29A C 0.4144(3) 0.5012(2) -0.0239(2)
C30A C 0.4204(3) 0.5051(2) -0.07135(19)
H1A H 0.4244 0.4742 -0.0899
C31A C 0.4203(3) 0.5572(3) -0.0896(2)
H2A H 0.4252 0.5617 -0.1212
C32A C 0.4135(3) 0.6015(3) -0.0637(2)
H3A H 0.4142 0.6360 -0.0776
C33A C 0.4054(3) 0.5976(2) -0.0178(2)
H4A H 0.3998 0.6288 -0.0002
C34A C 0.4058(3) 0.5466(2) 0.00226(19)
C35A C 0.2396(3) 0.4334(2) 0.38584(18)
C36A C 0.2314(3) 0.4681(2) 0.41971(18)
C37A C 0.2339(3) 0.5542(2) 0.4705(2)
C38A C 0.2432(3) 0.6072(2) 0.4895(2)
H5A H 0.2461 0.6366 0.4690
C39A C 0.2480(3) 0.6160(2) 0.5369(2)
H6A H 0.2541 0.6515 0.5491
C40A C 0.2440(3) 0.5743(3) 0.5671(2)
H7A H 0.2463 0.5813 0.5999
C41A C 0.2367(3) 0.5222(2) 0.5501(2)
H8A H 0.2352 0.4933 0.5713
C42A C 0.2316(3) 0.5121(2) 0.50162(19)
C43A C 0.5074(3) 0.0977(2) 0.0903(2)
S1A S 0.5628(3) 0.0207(2) 0.0438(2)
S2A S 0.4358(4) 0.0039(3) 0.0734(3)
C44A C 0.4992(5) 0.0485(4) 0.0675(5)
C45A C 0.5345(6) -0.0461(4) 0.0446(5)
C46A C 0.5667(6) -0.0892(4) 0.0280(5)
H9A H 0.6064 -0.0838 0.0177
C47A C 0.5385(7) -0.1400(4) 0.0272(6)
H10A H 0.5573 -0.1694 0.0141
C48A C 0.4823(6) -0.1483(5) 0.0454(6)
H11A H 0.4663 -0.1838 0.0469
C49A C 0.4497(6) -0.1064(4) 0.0613(5)
H12A H 0.4108 -0.1122 0.0724
C50A C 0.4768(6) -0.0543(4) 0.0602(5)
C51A C 0.4239(2) 0.25218(18) 0.16930(16)
C52A C 0.3751(3) 0.21239(18) 0.17731(19)
C53A C 0.3189(3) 0.2003(2) 0.1416(2)
C54A C 0.2710(3) 0.1633(2) 0.1490(3)
C55A C 0.2805(4) 0.1389(2) 0.1929(3)
C56A C 0.3326(4) 0.1504(3) 0.2274(3)
C57A C 0.3793(3) 0.1873(2) 0.2205(2)
N1A N 0.3915(2) 0.32381(14) 0.21950(13)
H13A H 0.3839 0.3017 0.2414
N2A N 0.3618(2) 0.32956(14) 0.30506(13)
N3A N 0.5305(2) 0.26943(14) 0.15058(13)
H14A H 0.5343 0.3027 0.1612
F11A F 0.30937(18) 0.22296(15) 0.09806(12)
F12A F 0.21688(19) 0.15280(16) 0.11247(15)
F13A F 0.2326(2) 0.10327(17) 0.19782(17)
F14A F 0.3390(3) 0.1289(2) 0.27183(17)
F15A F 0.4309(2) 0.19970(17) 0.25760(14)
S3A S 0.44274(9) 0.36736(5) 0.10211(5)
S4A S 0.40425(9) 0.46219(5) 0.15463(5)
S5A S 0.41822(8) 0.43904(6) 0.00571(5)
S6A S 0.39852(8) 0.53600(5) 0.06142(5)
S7A S 0.25008(8) 0.45488(5) 0.32915(5)
S8A S 0.24554(7) 0.36206(5) 0.39516(5)
S9A S 0.22861(8) 0.53809(5) 0.41064(5)
S10A S 0.22090(7) 0.44741(5) 0.47610(5)
S11A S 0.57459(9) 0.13976(6) 0.08454(7)
S12A S 0.44334(8) 0.12882(6) 0.11185(7)
C58? C 0.6767(7) 0.4608(4) 0.2620(7)
C59? C 0.6334(7) 0.5035(4) 0.2475(5)
C60? C 0.6534(7) 0.5559(5) 0.2672(6)
C61? C 0.7114(8) 0.5639(5) 0.2975(6)
C62? C 0.7539(7) 0.5233(5) 0.3109(5)
C63? C 0.7352(7) 0.4724(4) 0.2945(6)
F16? F 0.7796(5) 0.4313(4) 0.3098(4)
F17? F 0.8104(5) 0.5332(4) 0.3423(4)
F18? F 0.7306(6) 0.6132(4) 0.3145(4)
F19? F 0.6117(6) 0.5964(4) 0.2536(4)
F20? F 0.5740(5) 0.4956(5) 0.2179(4)
C64? C 0.3232(7) 0.2406(9) 0.4022(4)
C65? C 0.3466(7) 0.2367(7) 0.4521(4)
C66? C 0.3078(6) 0.2127(5) 0.4795(3)
C67? C 0.2454(6) 0.1927(5) 0.4576(4)
C68? C 0.2214(6) 0.1964(6) 0.4097(4)
C69? C 0.2609(6) 0.2207(7) 0.3822(4)
F21? F 0.4049(7) 0.2585(8) 0.4745(5)
F22? F 0.3314(5) 0.2102(5) 0.5274(3)
F23? F 0.2087(5) 0.1719(4) 0.4862(3)
F24? F 0.1622(5) 0.1745(6) 0.3893(4)
F25? F 0.2368(7) 0.2209(7) 0.3345(3)
S13? S 0.4258(3) 0.0096(2) 0.4319(2)
S14? S 0.5570(4) 0.0028(3) 0.4071(3)
C70? C 0.4884(5) 0.0425(3) 0.4108(5)
C71? C 0.4587(6) -0.0550(4) 0.4272(6)
C72? C 0.4277(6) -0.1015(4) 0.4396(6)
H15? H 0.3887 -0.0994 0.4512
C73? C 0.4569(7) -0.1503(4) 0.4340(6)
H16? H 0.4357 -0.1825 0.4399
C74? C 0.5165(6) -0.1536(4) 0.4199(6)
H17? H 0.5351 -0.1880 0.4173
C75? C 0.5496(6) -0.1086(4) 0.4096(5)
H18? H 0.5898 -0.1110 0.3995
C76? C 0.5193(6) -0.0588(4) 0.4151(5)
loop_
_geom_bond_atom_site_label_1
_geom_bond_atom_site_label_2
_geom_bond_site_symmetry_1
_geom_bond_site_symmetry_2
C1 C2 1_555 1_555
C2 C3 1_555 1_555
C3 C4 1_555 1_555
C4 C5 1_555 1_555
C5 C6 1_555 1_555
C6 C7 1_555 1_555
C7 C8 1_555 1_555
C8 C9 1_555 1_555
C9 C10 1_555 1_555
C10 C11 1_555 1_555
C11 C6 1_555 1_555
F1 C11 1_555 1_555
F2 C10 1_555 1_555
F3 C9 1_555 1_555
F4 C8 1_555 1_555
F5 C7 1_555 1_555
C12 C5 1_555 1_555
C13 C12 1_555 1_555
C14 C13 1_555 1_555
C15 C16 1_555 1_555
C16 C17 1_555 1_555
C17 C18 1_555 1_555
C18 C19 1_555 1_555
C19 C20 1_555 1_555
C20 C21 1_555 1_555
C21 C22 1_555 1_555
C22 C17 1_555 1_555
F6 C18 1_555 1_555
F7 C19 1_555 1_555
F8 C20 1_555 1_555
F9 C21 1_555 1_555
F10 C22 1_555 1_555
C23 C16 1_555 1_555
C24 C23 1_555 1_555
C25 C24 1_555 1_555
C26 C25 1_555 1_555
C27 C28 1_555 1_555
C28 S5 1_555 1_555
C29 C30 1_555 1_555
C30 H1 1_555 1_555
C31 C30 1_555 1_555
H2 C31 1_555 1_555
C32 C31 1_555 1_555
H3 C32 1_555 1_555
C33 C32 1_555 1_555
H4 C33 1_555 1_555
C34 C29 1_555 1_555
C35 C36 1_555 1_555
C36 S9 1_555 1_555
C37 C38 1_555 1_555
C38 H5 1_555 1_555
C39 C38 1_555 1_555
H6 C39 1_555 1_555
C40 C39 1_555 1_555
H7 C40 1_555 1_555
C41 C40 1_555 1_555
H8 C41 1_555 1_555
C42 C37 1_555 1_555
C43 C44 1_555 1_555
S1 C44 1_555 1_555
S2 C44 1_555 1_555
C45 S1 1_555 1_555
C46 C45 1_555 1_555
H9 C46 1_555 1_555
C47 C46 1_555 1_555
H10 C47 1_555 1_555
C48 C47 1_555 1_555
H11 C48 1_555 1_555
C49 C48 1_555 1_555
H12 C49 1_555 1_555
C50 S2 1_555 1_555
C51 C1 1_555 1_555
C52 C51 1_555 1_555
C53 C52 1_555 1_555
C54 C53 1_555 1_555
C55 C54 1_555 1_555
C56 C55 1_555 1_555
C57 C52 1_555 1_555
N1 C1 1_555 1_555
H13 N1 1_555 1_555
N2 C12 1_555 1_555
N3 C23 1_555 1_555
H14 N3 1_555 1_555
F11 C53 1_555 1_555
F12 C54 1_555 1_555
F13 C55 1_555 1_555
F14 C56 1_555 1_555
F15 C57 1_555 1_555
S3 C2 1_555 1_555
S4 C3 1_555 1_555
S5 C29 1_555 1_555
S6 C28 1_555 1_555
S7 C13 1_555 1_555
S8 C14 1_555 1_555
S9 C37 1_555 1_555
S10 C36 1_555 1_555
S11 C24 1_555 1_555
S12 C25 1_555 1_555
C1A C2A 1_555 1_555
C2A C3A 1_555 1_555
C3A C4A 1_555 1_555
C4A C5A 1_555 1_555
C5A C6A 1_555 1_555
C6A C7A 1_555 1_555
C7A C8A 1_555 1_555
C8A C9A 1_555 1_555
C9A C10A 1_555 1_555
C10A C11A 1_555 1_555
C11A C6A 1_555 1_555
F1A C11A 1_555 1_555
F2A C10A 1_555 1_555
F3A C9A 1_555 1_555
F4A C8A 1_555 1_555
F5A C7A 1_555 1_555
C12A C5A 1_555 1_555
C13A C12A 1_555 1_555
C14A C15 1_555 1_555
C15A C14 1_555 1_555
C16A C15A 1_555 1_555
C17A C16A 1_555 1_555
C18A C17A 1_555 1_555
C19A C18A 1_555 1_555
C20A C19A 1_555 1_555
C21A C20A 1_555 1_555
C22A C17A 1_555 1_555
F6A C18A 1_555 1_555
F7A C19A 1_555 1_555
F8A C20A 1_555 1_555
F9A C21A 1_555 1_555
F10A C22A 1_555 1_555
C23A C16A 1_555 1_555
C24A C23A 1_555 1_555
C25A C24A 1_555 1_555
C26A C25A 1_555 1_555
C27A C28A 1_555 1_555
C28A S5A 1_555 1_555
C29A C30A 1_555 1_555
C30A H1A 1_555 1_555
C31A C30A 1_555 1_555
H2A C31A 1_555 1_555
C32A C31A 1_555 1_555
H3A C32A 1_555 1_555
C33A C32A 1_555 1_555
H4A C33A 1_555 1_555
C34A C29A 1_555 1_555
C35A C36A 1_555 1_555
C36A S9A 1_555 1_555
C37A C38A 1_555 1_555
C38A H5A 1_555 1_555
C39A C38A 1_555 1_555
H6A C39A 1_555 1_555
C40A C39A 1_555 1_555
H7A C40A 1_555 1_555
C41A C40A 1_555 1_555
H8A C41A 1_555 1_555
C42A C37A 1_555 1_555
C43A C44A 1_555 1_555
S1A C44A 1_555 1_555
S2A C44A 1_555 1_555
C45A S1A 1_555 1_555
C46A C45A 1_555 1_555
H9A C46A 1_555 1_555
C47A C46A 1_555 1_555
H10A C47A 1_555 1_555
C48A C47A 1_555 1_555
H11A C48A 1_555 1_555
C49A C48A 1_555 1_555
H12A C49A 1_555 1_555
C50A S2A 1_555 1_555
C51A C1A 1_555 1_555
C52A C51A 1_555 1_555
C53A C52A 1_555 1_555
C54A C53A 1_555 1_555
C55A C54A 1_555 1_555
C56A C55A 1_555 1_555
C57A C52A 1_555 1_555
N1A C1A 1_555 1_555
H13A N1A 1_555 1_555
N2A C15 1_555 1_555
N3A C23A 1_555 1_555
H14A N3A 1_555 1_555
F11A C53A 1_555 1_555
F12A C54A 1_555 1_555
F13A C55A 1_555 1_555
F14A C56A 1_555 1_555
F15A C57A 1_555 1_555
S3A C2A 1_555 1_555
S4A C3A 1_555 1_555
S5A C29A 1_555 1_555
S6A C28A 1_555 1_555
S7A C13A 1_555 1_555
S8A C14A 1_555 1_555
S9A C37A 1_555 1_555
S10A C36A 1_555 1_555
S11A C24A 1_555 1_555
S12A C25A 1_555 1_555
C4 N1 1_555 1_555
C26 C51 1_555 1_555
C26 N3 1_555 1_555
C27 S3 1_555 1_555
C27 S4 1_555 1_555
C33 C34 1_555 1_555
C34 S6 1_555 1_555
C35 S7 1_555 1_555
C35 S8 1_555 1_555
C41 C42 1_555 1_555
C42 S10 1_555 1_555
C43 S11 1_555 1_555
C43 S12 1_555 1_555
C45 C50 1_555 1_555
C49 C50 1_555 1_555
C56 C57 1_555 1_555
N2 C15A 1_555 1_555
C4A N1A 1_555 1_555
C12A N2A 1_555 1_555
C13A C14A 1_555 1_555
C21A C22A 1_555 1_555
C26A C51A 1_555 1_555
C26A N3A 1_555 1_555
C27A S3A 1_555 1_555
C27A S4A 1_555 1_555
C33A C34A 1_555 1_555
C34A S6A 1_555 1_555
C35A S7A 1_555 1_555
C35A S8A 1_555 1_555
C41A C42A 1_555 1_555
C42A S10A 1_555 1_555
C43A S11A 1_555 1_555
C43A S12A 1_555 1_555
C45A C50A 1_555 1_555
C49A C50A 1_555 1_555
C56A C57A 1_555 1_555

#END
