
#######################################################################
#
#                 Cambridge Crystallographic Data Centre
#                                CCDC 
#
#######################################################################
#
# If this CIF has been generated from an entry in the Cambridge 
# Structural Database, then it will include bibliographic, chemical, 
# crystal, experimental, refinement or atomic coordinate data resulting 
# from the CCDC's data processing and validation procedures.
#
#######################################################################

data_EPELAN
_chemical_compound_source        'leaves of Gelsemium elegans'
_chemical_name_common            
'(2aR,3S,4S,4aS,7S,7aS,7bS)-3,4a,7-Trihydroxy-4-methyloctahydro-1H-2,6-dioxacyclopenta[cd]inden-1-one hemihydrate'
_chemical_formula_moiety         'C10 H14 O6,0.5(H2 O1)'
_chemical_name_systematic        'Geleganoid A'
_chemical_properties_biological  
'Tested for PC12 cell neurite outgrowth activity'
_symmetry_cell_setting           trigonal
_symmetry_space_group_name_H-M   'P 32'
_symmetry_Int_Tables_number      145
_space_group_name_Hall           'P 32'
loop_
_symmetry_equiv_pos_site_id
_symmetry_equiv_pos_as_xyz
1 x,y,z
2 -y,x-y,2/3+z
3 -x+y,-x,1/3+z
_cell_length_a                   7.2304(6)
_cell_length_b                   7.2304(6)
_cell_length_c                   34.904(4)
_cell_angle_alpha                90
_cell_angle_beta                 90
_cell_angle_gamma                120
_cell_volume                     1580.27
_exptl_crystal_colour            colorless
_exptl_crystal_description       prismatic
_chemical_melting_point          '120.5-122.0 deg.C'
_cell_formula_units_Z            6
loop_
_atom_site_label
_atom_site_type_symbol
_atom_site_fract_x
_atom_site_fract_y
_atom_site_fract_z
O1 O 0.9769(3) 0.4271(4) 0.11013(6)
H1 H 0.9854 0.3296 0.0999
O2 O 0.6042(3) 0.2271(3) 0.11396(5)
O3 O 0.6042(3) 0.6598(4) 0.06180(6)
O4 O 0.5403(3) 0.7298(3) 0.12055(6)
O5 O 0.2288(4) 0.6151(4) 0.17626(6)
H2 H 0.1774 0.5713 0.1550
O6 O 0.6365(3) 0.3822(3) 0.21499(5)
H3 H 0.6499 0.2783 0.2196
C1 C 0.6058(4) 0.2071(4) 0.15478(7)
H4 H 0.7394 0.2173 0.1626
H5 H 0.4907 0.0674 0.1623
C2 C 0.7821(4) 0.4129(4) 0.10018(7)
H6 H 0.7727 0.4152 0.0722
C3 C 0.7885(4) 0.6124(4) 0.11630(7)
H7 H 0.9335 0.7328 0.1127
C4 C 0.7314(4) 0.6045(3) 0.15889(7)
H8 H 0.8608 0.6801 0.1745
C5 C 0.6008(4) 0.7201(4) 0.16016(7)
H9 H 0.6816 0.8623 0.1717
C6 C 0.3986(4) 0.5754(4) 0.18248(7)
H10 H 0.4347 0.5992 0.2098
C7 C 0.3561(4) 0.3514(4) 0.17272(7)
H11 H 0.3094 0.3214 0.1460
C8 C 0.5800(4) 0.3781(4) 0.17542(6)
C9 C 0.1858(6) 0.1770(6) 0.19741(11)
H12 H 0.1815 0.0444 0.1923
H13 H 0.0494 0.1625 0.1916
H14 H 0.2186 0.2136 0.2239
C10 C 0.6357(4) 0.6653(4) 0.09578(7)
O7 O 0.6498(4) 1.0307(4) 0.24102(6)
H15 H 0.715(7) 0.967(7) 0.2426(12)
H16 H 0.585(5) 0.986(6) 0.2616(7)
O8 O 0.4469(3) 0.6900(3) 0.36242(5)
H17 H 0.3432 0.5996 0.3744
O9 O 0.6374(3) 0.5098(3) 0.35470(5)
O10 O 1.0268(3) 0.9100(4) 0.41994(6)
O11 O 1.1945(3) 1.0253(3) 0.36480(5)
O12 O 1.4332(3) 0.9645(3) 0.30925(6)
H18 H 1.4304 0.9069 0.3296
O13 O 0.8185(3) 0.7517(3) 0.25993(5)
H19 H 0.7768 0.6412 0.2476
C11 C 0.6415(4) 0.5251(4) 0.31391(8)
H20 H 0.5212 0.5388 0.3054
H21 H 0.6262 0.3947 0.3030
C12 C 0.6296(4) 0.6795(4) 0.37291(7)
H22 H 0.6277 0.6594 0.4007
C13 C 0.8240(4) 0.8939(4) 0.36262(6)
H23 H 0.7896 1.0060 0.3684
C14 C 0.9026(3) 0.9237(3) 0.32096(6)
H24 H 0.8546 1.0080 0.3065
C15 C 1.1480(4) 1.0457(4) 0.32496(7)
H25 H 1.2114 1.1954 0.3171
C16 C 1.2256(4) 0.9242(4) 0.30031(7)
H26 H 1.2275 0.9678 0.2737
C17 C 1.0466(4) 0.6920(4) 0.30396(7)
H27 H 1.0482 0.6442 0.3302
C18 C 0.8470(4) 0.7142(4) 0.29927(6)
C19 C 1.0667(5) 0.5405(5) 0.27657(9)
H28 H 1.0670 0.5856 0.2507
H29 H 0.9482 0.3988 0.2801
H30 H 1.1976 0.5412 0.2815
C20 C 1.0188(4) 0.9383(4) 0.38614(7)
loop_
_geom_bond_atom_site_label_1
_geom_bond_atom_site_label_2
_geom_bond_site_symmetry_1
_geom_bond_site_symmetry_2
O1 H1 1_555 1_555
O2 C1 1_555 1_555
O3 C10 1_555 1_555
O4 C5 1_555 1_555
O5 H2 1_555 1_555
O6 H3 1_555 1_555
C1 H4 1_555 1_555
H5 C1 1_555 1_555
C2 O1 1_555 1_555
H6 C2 1_555 1_555
C3 C2 1_555 1_555
H7 C3 1_555 1_555
C4 C3 1_555 1_555
H8 C4 1_555 1_555
C5 C4 1_555 1_555
H9 C5 1_555 1_555
C6 O5 1_555 1_555
H10 C6 1_555 1_555
C7 C6 1_555 1_555
H11 C7 1_555 1_555
C8 O6 1_555 1_555
C9 C7 1_555 1_555
H12 C9 1_555 1_555
H13 C9 1_555 1_555
H14 C9 1_555 1_555
C10 O4 1_555 1_555
O7 H15 1_555 1_555
H16 O7 1_555 1_555
O8 H17 1_555 1_555
O9 C11 1_555 1_555
O10 C20 1_555 1_555
O11 C15 1_555 1_555
O12 H18 1_555 1_555
O13 H19 1_555 1_555
C11 H20 1_555 1_555
H21 C11 1_555 1_555
C12 O8 1_555 1_555
H22 C12 1_555 1_555
C13 C12 1_555 1_555
H23 C13 1_555 1_555
C14 C13 1_555 1_555
H24 C14 1_555 1_555
C15 C14 1_555 1_555
H25 C15 1_555 1_555
C16 O12 1_555 1_555
H26 C16 1_555 1_555
C17 C16 1_555 1_555
H27 C17 1_555 1_555
C18 O13 1_555 1_555
C19 C17 1_555 1_555
H28 C19 1_555 1_555
H29 C19 1_555 1_555
H30 C19 1_555 1_555
C20 O11 1_555 1_555
O2 C2 1_555 1_555
C1 C8 1_555 1_555
C3 C10 1_555 1_555
C4 C8 1_555 1_555
C5 C6 1_555 1_555
C7 C8 1_555 1_555
O9 C12 1_555 1_555
C11 C18 1_555 1_555
C13 C20 1_555 1_555
C14 C18 1_555 1_555
C15 C16 1_555 1_555
C17 C18 1_555 1_555

#END
