
#######################################################################
#
#                 Cambridge Crystallographic Data Centre
#                                CCDC 
#
#######################################################################
#
# If this CIF has been generated from an entry in the Cambridge 
# Structural Database, then it will include bibliographic, chemical, 
# crystal, experimental, refinement or atomic coordinate data resulting 
# from the CCDC's data processing and validation procedures.
#
#######################################################################

data_EPFRED02
_chemical_formula_moiety         'C30 H52 O1'
_chemical_name_systematic        Epifriedelinol
_chemical_properties_biological  'inactive against the para3 virus'
_symmetry_cell_setting           monoclinic
_symmetry_space_group_name_H-M   'C 2'
_symmetry_Int_Tables_number      5
_space_group_name_Hall           'C 2y'
loop_
_symmetry_equiv_pos_site_id
_symmetry_equiv_pos_as_xyz
1 x,y,z
2 -x,y,-z
3 1/2+x,1/2+y,z
4 1/2-x,1/2+y,-z
_cell_length_a                   13.4402(10)
_cell_length_b                   6.4089(5)
_cell_length_c                   29.594(2)
_cell_angle_alpha                90
_cell_angle_beta                 92.290(2)
_cell_angle_gamma                90
_cell_volume                     2547.1
_exptl_crystal_colour            colorless
_exptl_crystal_description       block
_cell_formula_units_Z            4
loop_
_atom_site_label
_atom_site_type_symbol
_atom_site_fract_x
_atom_site_fract_y
_atom_site_fract_z
O1 O 0.40829(13) 0.7440(4) 0.47314(6)
H1 H 0.4601 0.7585 0.4884
C1 C 0.45672(16) 0.6810(4) 0.37298(8)
H2 H 0.4569 0.5523 0.3903
H3 H 0.5074 0.6699 0.3506
C2 C 0.48104(17) 0.8627(5) 0.40440(8)
H4 H 0.5442 0.8359 0.4203
H5 H 0.4885 0.9880 0.3864
C3 C 0.40238(19) 0.9011(5) 0.43877(8)
H6 H 0.4161 1.0364 0.4531
C4 C 0.29835(17) 0.9099(4) 0.41636(7)
H7 H 0.2990 1.0324 0.3966
C5 C 0.27153(15) 0.7235(4) 0.38449(7)
C6 C 0.17237(16) 0.7703(4) 0.35922(7)
H8 H 0.1191 0.7584 0.3803
H9 H 0.1734 0.9135 0.3486
C7 C 0.14925(15) 0.6276(4) 0.31912(7)
H10 H 0.0862 0.6674 0.3045
H11 H 0.1436 0.4847 0.3295
C8 C 0.23190(14) 0.6430(3) 0.28522(7)
H12 H 0.2410 0.7932 0.2807
C9 C 0.33327(14) 0.5672(3) 0.30718(7)
C10 C 0.35500(14) 0.7110(4) 0.34912(6)
H13 H 0.3577 0.8520 0.3364
C11 C 0.41387(14) 0.6024(4) 0.27209(7)
H14 H 0.4255 0.7511 0.2693
H15 H 0.4755 0.5388 0.2833
C12 C 0.38692(15) 0.5129(4) 0.22500(7)
H16 H 0.3809 0.3625 0.2273
H17 H 0.4406 0.5428 0.2050
C13 C 0.28927(15) 0.6019(3) 0.20398(7)
C14 C 0.20324(14) 0.5564(4) 0.23703(7)
C15 C 0.10755(15) 0.6695(4) 0.21843(8)
H18 H 0.0501 0.5933 0.2285
H19 H 0.1057 0.8074 0.2319
C16 C 0.09718(18) 0.6935(5) 0.16677(8)
H20 H 0.1168 0.8348 0.1594
H21 H 0.0271 0.6799 0.1581
C17 C 0.15561(17) 0.5436(4) 0.13686(8)
C18 C 0.26361(15) 0.4929(4) 0.15755(7)
H22 H 0.2652 0.3424 0.1634
C19 C 0.34372(17) 0.5360(5) 0.12288(7)
H23 H 0.3508 0.6859 0.1198
H24 H 0.4068 0.4822 0.1350
C20 C 0.32403(19) 0.4425(5) 0.07556(8)
C21 C 0.2190(2) 0.5107(6) 0.05712(9)
H25 H 0.2258 0.5878 0.0292
H26 H 0.1795 0.3872 0.0502
C22 C 0.16421(19) 0.6458(5) 0.09037(8)
H27 H 0.0979 0.6752 0.0779
H28 H 0.1990 0.7776 0.0940
C23 C 0.25991(17) 0.5215(4) 0.41219(8)
H29 H 0.2081 0.5398 0.4332
H30 H 0.3214 0.4910 0.4284
H31 H 0.2430 0.4080 0.3921
C24 C 0.22042(19) 0.9597(5) 0.45142(8)
H32 H 0.2427 1.0761 0.4696
H33 H 0.2117 0.8403 0.4705
H34 H 0.1582 0.9937 0.4361
C25 C 0.33843(18) 0.3356(4) 0.32059(8)
H35 H 0.3248 0.2506 0.2943
H36 H 0.2900 0.3074 0.3428
H37 H 0.4038 0.3041 0.3330
C26 C 0.30498(18) 0.8390(4) 0.19718(8)
H38 H 0.3207 0.9034 0.2259
H39 H 0.2452 0.8996 0.1841
H40 H 0.3588 0.8609 0.1774
C27 C 0.17957(17) 0.3227(4) 0.24042(8)
H41 H 0.1266 0.3025 0.2608
H42 H 0.2378 0.2491 0.2515
H43 H 0.1595 0.2703 0.2111
C28 C 0.09309(19) 0.3421(5) 0.13005(9)
H44 H 0.0284 0.3773 0.1174
H45 H 0.0862 0.2743 0.1587
H46 H 0.1259 0.2500 0.1099
C29 C 0.4027(2) 0.5287(7) 0.04466(9)
H47 H 0.4677 0.4888 0.0562
H48 H 0.3981 0.6781 0.0437
H49 H 0.3917 0.4733 0.0147
C30 C 0.3336(2) 0.2056(6) 0.07710(9)
H50 H 0.3990 0.1683 0.0887
H51 H 0.3232 0.1500 0.0472
H52 H 0.2846 0.1493 0.0964
loop_
_geom_bond_atom_site_label_1
_geom_bond_atom_site_label_2
_geom_bond_site_symmetry_1
_geom_bond_site_symmetry_2
O1 H1 1_555 1_555
C1 H2 1_555 1_555
H3 C1 1_555 1_555
C2 C1 1_555 1_555
H4 C2 1_555 1_555
H5 C2 1_555 1_555
C3 O1 1_555 1_555
H6 C3 1_555 1_555
C4 C3 1_555 1_555
H7 C4 1_555 1_555
C5 C4 1_555 1_555
C6 C5 1_555 1_555
H8 C6 1_555 1_555
H9 C6 1_555 1_555
C7 C6 1_555 1_555
H10 C7 1_555 1_555
H11 C7 1_555 1_555
C8 C7 1_555 1_555
H12 C8 1_555 1_555
C9 C8 1_555 1_555
C10 C1 1_555 1_555
H13 C10 1_555 1_555
C11 C9 1_555 1_555
H14 C11 1_555 1_555
H15 C11 1_555 1_555
C12 C11 1_555 1_555
H16 C12 1_555 1_555
H17 C12 1_555 1_555
C13 C12 1_555 1_555
C14 C8 1_555 1_555
C15 C14 1_555 1_555
H18 C15 1_555 1_555
H19 C15 1_555 1_555
C16 C15 1_555 1_555
H20 C16 1_555 1_555
H21 C16 1_555 1_555
C17 C16 1_555 1_555
C18 C13 1_555 1_555
H22 C18 1_555 1_555
C19 C18 1_555 1_555
H23 C19 1_555 1_555
H24 C19 1_555 1_555
C20 C19 1_555 1_555
C21 C20 1_555 1_555
H25 C21 1_555 1_555
H26 C21 1_555 1_555
C22 C17 1_555 1_555
H27 C22 1_555 1_555
H28 C22 1_555 1_555
C23 C5 1_555 1_555
H29 C23 1_555 1_555
H30 C23 1_555 1_555
H31 C23 1_555 1_555
C24 C4 1_555 1_555
H32 C24 1_555 1_555
H33 C24 1_555 1_555
H34 C24 1_555 1_555
C25 C9 1_555 1_555
H35 C25 1_555 1_555
H36 C25 1_555 1_555
H37 C25 1_555 1_555
C26 C13 1_555 1_555
H38 C26 1_555 1_555
H39 C26 1_555 1_555
H40 C26 1_555 1_555
C27 C14 1_555 1_555
H41 C27 1_555 1_555
H42 C27 1_555 1_555
H43 C27 1_555 1_555
C28 C17 1_555 1_555
H44 C28 1_555 1_555
H45 C28 1_555 1_555
H46 C28 1_555 1_555
C29 C20 1_555 1_555
H47 C29 1_555 1_555
H48 C29 1_555 1_555
H49 C29 1_555 1_555
C30 C20 1_555 1_555
H50 C30 1_555 1_555
H51 C30 1_555 1_555
H52 C30 1_555 1_555
C2 C3 1_555 1_555
C5 C10 1_555 1_555
C9 C10 1_555 1_555
C13 C14 1_555 1_555
C17 C18 1_555 1_555
C21 C22 1_555 1_555

#END
