
#######################################################################
#
#                 Cambridge Crystallographic Data Centre
#                                CCDC 
#
#######################################################################
#
# If this CIF has been generated from an entry in the Cambridge 
# Structural Database, then it will include bibliographic, chemical, 
# crystal, experimental, refinement or atomic coordinate data resulting 
# from the CCDC's data processing and validation procedures.
#
#######################################################################

data_EPHTEB
_chemical_formula_moiety         'C16 H18 Br6 O2 Te2'
_chemical_name_systematic        
bis(\m-Bromo)-bis(dibromo-4-ethoxyphenyl-tellurium(iv))
_symmetry_cell_setting           triclinic
_symmetry_space_group_name_H-M   'P -1'
_symmetry_Int_Tables_number      2
_space_group_name_Hall           '-P 1'
loop_
_symmetry_equiv_pos_site_id
_symmetry_equiv_pos_as_xyz
1 x,y,z
2 -x,-y,-z
_cell_length_a                   10.280(4)
_cell_length_b                   11.209(8)
_cell_length_c                   11.715(6)
_cell_angle_alpha                71.93(5)
_cell_angle_beta                 102.01(5)
_cell_angle_gamma                99.29(5)
_cell_volume                     1248.4
_cell_formula_units_Z            2
loop_
_atom_site_label
_atom_site_type_symbol
_atom_site_fract_x
_atom_site_fract_y
_atom_site_fract_z
Te1 Te 0.24630 0.50730 0.26710
Te2 Te 0.08230 0.33940 -0.02120
Br1 Br 0.19670 0.46420 0.47950
Br2 Br 0.41990 0.68990 0.27970
Br3 Br 0.03680 0.30030 0.22310
Br4 Br 0.27790 0.54960 0.01340
Br5 Br -0.09200 0.15790 -0.04880
Br6 Br 0.12370 0.39360 -0.23950
C1 C 0.38520 0.37460 0.32490
C2 C 0.50190 0.40440 0.27740
C3 C 0.60580 0.32230 0.32270
C4 C 0.58350 0.21490 0.42220
C5 C 0.46500 0.18450 0.46860
C6 C 0.36630 0.26560 0.41930
C7 C 0.82250 0.18360 0.46050
C8 C 0.90420 0.10480 0.55730
O1 O 0.68250 0.13580 0.47990
C9 C 0.23760 0.22150 0.05280
C10 C 0.35470 0.25520 0.00060
C11 C 0.46210 0.17980 0.05170
C12 C 0.44720 0.07720 0.15380
C13 C 0.33160 0.04170 0.20210
C14 C 0.22360 0.11760 0.15220
C15 C 0.67740 0.03070 0.16410
C16 C 0.76110 -0.07120 0.24670
O2 O 0.55040 0.00180 0.21220
loop_
_geom_bond_atom_site_label_1
_geom_bond_atom_site_label_2
_geom_bond_site_symmetry_1
_geom_bond_site_symmetry_2
Te1 Br1 1_555 1_555
Te2 Br3 1_555 1_555
Br2 Te1 1_555 1_555
Br3 Te1 1_555 1_555
Br4 Te1 1_555 1_555
Br5 Te2 1_555 1_555
Br6 Te2 1_555 1_555
C1 Te1 1_555 1_555
C2 C1 1_555 1_555
C3 C2 1_555 1_555
C4 C3 1_555 1_555
C5 C4 1_555 1_555
C6 C1 1_555 1_555
C7 C8 1_555 1_555
O1 C4 1_555 1_555
C9 Te2 1_555 1_555
C10 C9 1_555 1_555
C11 C10 1_555 1_555
C12 C11 1_555 1_555
C13 C12 1_555 1_555
C14 C9 1_555 1_555
C15 C16 1_555 1_555
O2 C12 1_555 1_555
Te2 Br4 1_555 1_555
C5 C6 1_555 1_555
C7 O1 1_555 1_555
C13 C14 1_555 1_555
C15 O2 1_555 1_555

#END
