
#######################################################################
#
#                 Cambridge Crystallographic Data Centre
#                                CCDC 
#
#######################################################################
#
# If this CIF has been generated from an entry in the Cambridge 
# Structural Database, then it will include bibliographic, chemical, 
# crystal, experimental, refinement or atomic coordinate data resulting 
# from the CCDC's data processing and validation procedures.
#
#######################################################################

data_EPIQUQ
_chemical_formula_moiety         'C27 H21 N7'
_chemical_name_systematic        
Dicyano-(2,3,3-tricyano-5-(4-(dimethylamino)phenyl)-9-(dimethyliminio)-spiro[5.5]undeca-1,4,7,10-tetraen-1-yl)methanide
_symmetry_cell_setting           orthorhombic
_symmetry_space_group_name_H-M   'P b c a'
_symmetry_Int_Tables_number      61
_space_group_name_Hall           '-P 2ac 2ab'
loop_
_symmetry_equiv_pos_site_id
_symmetry_equiv_pos_as_xyz
1 x,y,z
2 1/2-x,-y,1/2+z
3 1/2+x,1/2-y,-z
4 -x,1/2+y,1/2-z
5 -x,-y,-z
6 1/2+x,y,1/2-z
7 1/2-x,1/2+y,z
8 x,1/2-y,1/2+z
_cell_length_a                   11.2924(4)
_cell_length_b                   15.4265(7)
_cell_length_c                   25.3239(11)
_cell_angle_alpha                90
_cell_angle_beta                 90
_cell_angle_gamma                90
_cell_volume                     4411.48
_exptl_crystal_colour            amber
_exptl_crystal_description       plate
_cell_formula_units_Z            8
loop_
_atom_site_label
_atom_site_type_symbol
_atom_site_fract_x
_atom_site_fract_y
_atom_site_fract_z
N1 N 0.1099(2) 0.21444(16) 0.14920(10)
N2 N 0.1009(3) 0.4547(2) 0.24343(11)
N3 N 0.2111(2) 0.61503(18) -0.10248(11)
N4 N 0.5101(2) 0.44471(16) -0.09506(10)
N5 N 0.2411(2) 0.38205(19) -0.18602(11)
N6 N -0.0062(2) 0.26986(18) -0.17103(11)
N7 N 0.0216(2) 0.13239(17) -0.02652(11)
C1 C 0.1640(2) 0.33734(18) 0.00539(11)
C2 C 0.2215(2) 0.42304(18) 0.02691(11)
C3 C 0.2806(2) 0.4775(2) -0.00296(11)
C4 C 0.2911(2) 0.46905(19) -0.06255(11)
C5 C 0.2187(2) 0.39364(19) -0.08509(11)
C6 C 0.1552(2) 0.33633(18) -0.05515(11)
C7 C 0.2437(2) 0.26517(18) 0.02441(12)
C8 C 0.2229(2) 0.21956(19) 0.06820(12)
C9 C 0.1177(2) 0.23816(18) 0.09978(11)
C10 C 0.0223(2) 0.28503(19) 0.07409(12)
C11 C 0.0431(2) 0.33003(18) 0.03011(12)
C12 C 0.2008(3) 0.1600(2) 0.17438(14)
C13 C 0.0087(3) 0.2398(2) 0.18286(13)
C14 C 0.2039(2) 0.44014(18) 0.08433(12)
C15 C 0.2737(3) 0.40312(19) 0.12341(12)
C16 C 0.2417(3) 0.4096(2) 0.17635(13)
C17 C 0.1390(3) 0.4541(2) 0.19197(13)
C18 C 0.0751(3) 0.4984(2) 0.15287(13)
C19 C 0.1065(3) 0.48962(19) 0.10040(12)
C20 C 0.1653(4) 0.4091(3) 0.28340(15)
C21 C 0.0091(3) 0.5156(3) 0.25935(16)
C22 C 0.2486(2) 0.5517(2) -0.08538(12)
C23 C 0.4170(2) 0.45721(18) -0.07919(11)
C24 C 0.2270(2) 0.38618(19) -0.14097(12)
C25 C 0.0805(2) 0.27103(19) -0.07680(11)
C26 C 0.0360(2) 0.27141(19) -0.12937(12)
C27 C 0.0487(2) 0.19572(19) -0.04804(12)
H1 H 0.317(3) 0.529(2) 0.0140(14)
H2 H 0.311(3) 0.258(2) 0.0066(13)
H3 H 0.279(3) 0.178(2) 0.0818(13)
H4 H -0.063(3) 0.289(2) 0.0902(13)
H5 H -0.013(3) 0.364(2) 0.0138(13)
H6 H 0.277(3) 0.185(2) 0.1703(13)
H7 H 0.211(4) 0.097(4) 0.153(2)
H8 H 0.182(4) 0.155(3) 0.213(2)
H9 H -0.027(3) 0.293(3) 0.1724(16)
H10 H 0.037(4) 0.239(3) 0.222(2)
H11 H -0.058(3) 0.195(2) 0.1772(14)
H12 H 0.347(3) 0.370(2) 0.1128(14)
H13 H 0.291(3) 0.378(2) 0.2019(15)
H14 H 0.000(3) 0.532(2) 0.1640(15)
H15 H 0.059(3) 0.521(2) 0.0711(16)
H16 H 0.249(4) 0.425(3) 0.2882(17)
H17 H 0.204(3) 0.354(3) 0.2728(14)
H18 H 0.108(6) 0.419(4) 0.322(3)
H19 H -0.070(4) 0.503(3) 0.2404(18)
H20 H 0.036(3) 0.581(3) 0.2538(16)
H21 H -0.005(4) 0.510(3) 0.299(2)
loop_
_geom_bond_atom_site_label_1
_geom_bond_atom_site_label_2
_geom_bond_site_symmetry_1
_geom_bond_site_symmetry_2
N1 C9 1_555 1_555
N2 C17 1_555 1_555
N3 C22 1_555 1_555
N4 C23 1_555 1_555
N5 C24 1_555 1_555
N6 C26 1_555 1_555
N7 C27 1_555 1_555
C1 C2 1_555 1_555
C2 C3 1_555 1_555
C3 C4 1_555 1_555
C4 C5 1_555 1_555
C5 C6 1_555 1_555
C6 C1 1_555 1_555
C7 C1 1_555 1_555
C8 C7 1_555 1_555
C9 C8 1_555 1_555
C10 C9 1_555 1_555
C11 C1 1_555 1_555
C12 N1 1_555 1_555
C13 N1 1_555 1_555
C14 C2 1_555 1_555
C15 C14 1_555 1_555
C16 C15 1_555 1_555
C17 C16 1_555 1_555
C18 C17 1_555 1_555
C19 C14 1_555 1_555
C20 N2 1_555 1_555
C21 N2 1_555 1_555
C22 C4 1_555 1_555
C23 C4 1_555 1_555
C24 C5 1_555 1_555
C25 C6 1_555 1_555
C26 C25 1_555 1_555
C27 C25 1_555 1_555
H1 C3 1_555 1_555
H2 C7 1_555 1_555
H3 C8 1_555 1_555
H4 C10 1_555 1_555
H5 C11 1_555 1_555
H6 C12 1_555 1_555
H7 C12 1_555 1_555
H8 C12 1_555 1_555
H9 C13 1_555 1_555
H10 C13 1_555 1_555
H11 C13 1_555 1_555
H12 C15 1_555 1_555
H13 C16 1_555 1_555
H14 C18 1_555 1_555
H15 C19 1_555 1_555
H16 C20 1_555 1_555
H17 C20 1_555 1_555
H18 C20 1_555 1_555
H19 C21 1_555 1_555
H20 C21 1_555 1_555
H21 C21 1_555 1_555
C10 C11 1_555 1_555
C18 C19 1_555 1_555

#END
