
#######################################################################
#
#                 Cambridge Crystallographic Data Centre
#                                CCDC 
#
#######################################################################
#
# If this CIF has been generated from an entry in the Cambridge 
# Structural Database, then it will include bibliographic, chemical, 
# crystal, experimental, refinement or atomic coordinate data resulting 
# from the CCDC's data processing and validation procedures.
#
#######################################################################

data_EPIREB
_chemical_formula_moiety         'C25 H21 N5,0.5(C2 H4 Cl2)'
_chemical_name_systematic        
"4,4''-bis(dimethylamino)-1,1':3',1''-terphenyl-2',4',5'-tricarbonitrile 1,2-dichloroethane solvate"
_symmetry_cell_setting           triclinic
_symmetry_space_group_name_H-M   'P -1'
_symmetry_Int_Tables_number      2
_space_group_name_Hall           '-P 1'
loop_
_symmetry_equiv_pos_site_id
_symmetry_equiv_pos_as_xyz
1 x,y,z
2 -x,-y,-z
_cell_length_a                   9.8044(6)
_cell_length_b                   12.8651(10)
_cell_length_c                   18.011(2)
_cell_angle_alpha                93.245(5)
_cell_angle_beta                 91.748(5)
_cell_angle_gamma                109.113(3)
_cell_volume                     2140.24
_exptl_crystal_colour            'dark red'
_exptl_crystal_description       needle
_cell_formula_units_Z            4
loop_
_atom_site_label
_atom_site_type_symbol
_atom_site_fract_x
_atom_site_fract_y
_atom_site_fract_z
N1 N 0.1857(3) 0.5121(2) 0.03962(15)
N2 N 0.2219(3) 0.3586(2) 0.21615(15)
N3 N 0.0286(3) 0.9088(2) 0.26622(13)
N4 N 0.0832(3) 0.9428(2) -0.07222(13)
N5 N 0.1711(3) 0.8534(2) 0.61743(13)
C1 C 0.1350(3) 0.7036(2) 0.17773(15)
C2 C 0.1586(3) 0.6023(2) 0.16835(15)
C3 C 0.1752(3) 0.5448(2) 0.23057(16)
C4 C 0.1732(3) 0.5897(2) 0.30213(15)
C5 C 0.1502(3) 0.6912(2) 0.31537(15)
C6 C 0.1259(3) 0.7442(2) 0.25175(15)
C7 C 0.1720(3) 0.5537(3) 0.09614(17)
C8 C 0.2000(3) 0.4410(3) 0.22102(16)
C9 C 0.0756(3) 0.8370(3) 0.26033(15)
C10 C 0.1216(3) 0.7666(2) 0.11319(14)
C11 C 0.1999(3) 0.8793(2) 0.11207(15)
C12 C 0.1903(3) 0.9373(2) 0.05115(15)
C13 C 0.0985(3) 0.8861(2) -0.01206(15)
C14 C 0.0226(3) 0.7719(2) -0.01103(15)
C15 C 0.0341(3) 0.7145(2) 0.05010(15)
C16 C 0.1702(3) 1.0586(3) -0.07615(16)
C17 C -0.0042(3) 0.8847(3) -0.13781(15)
C18 C 0.1537(3) 0.7357(2) 0.39277(15)
C19 C 0.1090(3) 0.6641(3) 0.44986(15)
C20 C 0.1144(3) 0.7018(3) 0.52337(16)
C21 C 0.1653(3) 0.8152(3) 0.54454(15)
C22 C 0.2116(3) 0.8877(3) 0.48744(15)
C23 C 0.2055(3) 0.8476(3) 0.41387(15)
C24 C 0.1353(4) 0.7761(3) 0.67593(17)
C25 C 0.2176(4) 0.9710(3) 0.63857(17)
H1 H 0.1894 0.5464 0.3481
H2 H 0.2678 0.9207 0.1590
H3 H 0.2529 1.0219 0.0517
H4 H -0.0443 0.7296 -0.0580
H5 H -0.0247 0.6291 0.0491
H6 H 0.1684 1.1036 -0.0239
H7 H 0.1264 1.0931 -0.1206
H8 H 0.2803 1.0646 -0.0869
H9 H 0.0403 0.8241 -0.1609
H10 H -0.0042 0.9428 -0.1788
H11 H -0.1136 0.8439 -0.1226
H12 H 0.0697 0.5779 0.4359
H13 H 0.0796 0.6444 0.5645
H14 H 0.2515 0.9740 0.5010
H15 H 0.2417 0.9044 0.3724
H16 H 0.0233 0.7248 0.6682
H17 H 0.1529 0.8214 0.7297
H18 H 0.2032 0.7248 0.6732
H19 H 0.3301 1.0079 0.6271
H20 H 0.2040 0.9837 0.6973
H21 H 0.1533 1.0087 0.6070
N6 N 0.8071(4) 0.4819(3) 0.36775(17)
N7 N 0.8374(3) 0.3693(2) 0.17192(16)
N8 N 0.5314(3) 0.8675(2) 0.22891(14)
N9 N 0.6668(3) 0.8483(2) 0.56408(14)
N10 N 0.4852(3) 0.8271(2) -0.13148(13)
C26 C 0.6638(3) 0.6590(2) 0.27028(16)
C27 C 0.7190(3) 0.5714(3) 0.25955(17)
C28 C 0.7215(3) 0.5235(3) 0.18697(17)
C29 C 0.6682(3) 0.5593(3) 0.12577(17)
C30 C 0.6131(3) 0.6480(3) 0.13254(16)
C31 C 0.6125(3) 0.6958(3) 0.20510(16)
C32 C 0.7672(4) 0.5237(3) 0.32102(18)
C33 C 0.7832(4) 0.4359(3) 0.17779(18)
C34 C 0.5675(3) 0.7916(3) 0.21761(15)
C35 C 0.6638(3) 0.7104(2) 0.34528(16)
C36 C 0.7894(3) 0.7439(3) 0.39242(16)
C37 C 0.7908(3) 0.7889(3) 0.46417(17)
C38 C 0.6660(3) 0.8026(3) 0.49337(16)
C39 C 0.5393(3) 0.7696(3) 0.44534(16)
C40 C 0.5401(3) 0.7255(3) 0.37394(16)
C41 C 0.5347(4) 0.8558(3) 0.59366(18)
C42 C 0.7908(4) 0.8651(3) 0.61529(19)
C43 C 0.5684(3) 0.6881(2) 0.06395(16)
C44 C 0.4682(3) 0.7441(3) 0.06042(15)
C45 C 0.4370(3) 0.7872(3) -0.00347(15)
C46 C 0.5078(3) 0.7771(3) -0.06981(15)
C47 C 0.6018(3) 0.7144(3) -0.06838(16)
C48 C 0.6307(3) 0.6725(3) -0.00337(16)
C49 C 0.3944(4) 0.8957(3) -0.13013(18)
C50 C 0.5440(4) 0.8070(4) -0.20148(17)
H22 H 0.6682 0.5198 0.0725
H23 H 0.8856 0.7344 0.3726
H24 H 0.8881 0.8137 0.4978
H25 H 0.461(4) 0.774(3) 0.4629(18)
H26 H 0.4438 0.7023 0.3395
H27 H 0.4858 0.8974 0.5559
H28 H 0.5587 0.9016 0.6473
H29 H 0.4608 0.7738 0.5999
H30 H 0.8106 0.7879 0.6199
H31 H 0.7691 0.8950 0.6694
H32 H 0.8847 0.9248 0.5946
H33 H 0.4141 0.7536 0.1090
H34 H 0.3594 0.8284 -0.0032
H35 H 0.6505 0.6995 -0.1178
H36 H 0.7029 0.6266 -0.0040
H37 H 0.2832 0.8450 -0.1254
H38 H 0.4041 0.9378 -0.1809
H39 H 0.4278 0.9557 -0.0830
H40 H 0.6600 0.8452 -0.1975
H41 H 0.4986 0.8414 -0.2454
H42 H 0.5171 0.7192 -0.2138
Cl1 Cl 0.39385(14) 0.43475(9) 0.39352(6)
C51 C 0.4293(6) 0.4921(5) 0.5010(4)
H43 H 0.4053 0.5676 0.5119
H44 H 0.3751 0.4315 0.5389
Cl1A Cl 0.60615(14) 0.56525(9) 0.60648(6)
C51A C 0.5707(6) 0.5079(5) 0.4990(4)
H43A H 0.5947 0.4324 0.4881
H44A H 0.6249 0.5685 0.4611
loop_
_geom_bond_atom_site_label_1
_geom_bond_atom_site_label_2
_geom_bond_site_symmetry_1
_geom_bond_site_symmetry_2
N1 C7 1_555 1_555
N2 C8 1_555 1_555
N3 C9 1_555 1_555
N4 C13 1_555 1_555
N5 C21 1_555 1_555
N6 C32 1_555 1_555
N7 C33 1_555 1_555
N8 C34 1_555 1_555
N9 C38 1_555 1_555
N10 C46 1_555 1_555
C1 C2 1_555 1_555
C2 C3 1_555 1_555
C3 C4 1_555 1_555
C4 C5 1_555 1_555
C5 C6 1_555 1_555
C6 C1 1_555 1_555
C7 C2 1_555 1_555
C8 C3 1_555 1_555
C9 C6 1_555 1_555
C10 C1 1_555 1_555
C11 C10 1_555 1_555
C12 C11 1_555 1_555
C13 C12 1_555 1_555
C14 C13 1_555 1_555
C15 C10 1_555 1_555
C16 N4 1_555 1_555
C17 N4 1_555 1_555
C18 C5 1_555 1_555
C19 C18 1_555 1_555
C20 C19 1_555 1_555
C21 C20 1_555 1_555
C22 C21 1_555 1_555
C23 C18 1_555 1_555
C24 N5 1_555 1_555
C25 N5 1_555 1_555
C26 C27 1_555 1_555
C27 C28 1_555 1_555
C28 C29 1_555 1_555
C29 C30 1_555 1_555
C30 C31 1_555 1_555
C31 C26 1_555 1_555
C32 C27 1_555 1_555
C33 C28 1_555 1_555
C34 C31 1_555 1_555
C35 C26 1_555 1_555
C36 C35 1_555 1_555
C37 C36 1_555 1_555
C38 C37 1_555 1_555
C39 C38 1_555 1_555
C40 C35 1_555 1_555
C41 N9 1_555 1_555
C42 N9 1_555 1_555
C43 C30 1_555 1_555
C44 C43 1_555 1_555
C45 C44 1_555 1_555
C46 C45 1_555 1_555
C47 C46 1_555 1_555
C48 C43 1_555 1_555
C49 N10 1_555 1_555
C50 N10 1_555 1_555
Cl1 C51 1_555 1_555
C51 H43 1_555 1_555
H1 C4 1_555 1_555
H2 C11 1_555 1_555
H3 C12 1_555 1_555
H4 C14 1_555 1_555
H5 C15 1_555 1_555
H6 C16 1_555 1_555
H7 C16 1_555 1_555
H8 C16 1_555 1_555
H9 C17 1_555 1_555
H10 C17 1_555 1_555
H11 C17 1_555 1_555
H12 C19 1_555 1_555
H13 C20 1_555 1_555
H14 C22 1_555 1_555
H15 C23 1_555 1_555
H16 C24 1_555 1_555
H17 C24 1_555 1_555
H18 C24 1_555 1_555
H19 C25 1_555 1_555
H20 C25 1_555 1_555
H21 C25 1_555 1_555
H22 C29 1_555 1_555
H23 C36 1_555 1_555
H24 C37 1_555 1_555
H25 C39 1_555 1_555
H26 C40 1_555 1_555
H27 C41 1_555 1_555
H28 C41 1_555 1_555
H29 C41 1_555 1_555
H30 C42 1_555 1_555
H31 C42 1_555 1_555
H32 C42 1_555 1_555
H33 C44 1_555 1_555
H34 C45 1_555 1_555
H35 C47 1_555 1_555
H36 C48 1_555 1_555
H37 C49 1_555 1_555
H38 C49 1_555 1_555
H39 C49 1_555 1_555
H40 C50 1_555 1_555
H41 C50 1_555 1_555
H42 C50 1_555 1_555
H44 C51 1_555 1_555
Cl1A C51A 1_555 1_555
C51A C51 1_555 1_555
H43A C51A 1_555 1_555
H44A C51A 1_555 1_555
C14 C15 1_555 1_555
C22 C23 1_555 1_555
C39 C40 1_555 1_555
C47 C48 1_555 1_555

#END
