
#######################################################################
#
#                 Cambridge Crystallographic Data Centre
#                                CCDC 
#
#######################################################################
#
# If this CIF has been generated from an entry in the Cambridge 
# Structural Database, then it will include bibliographic, chemical, 
# crystal, experimental, refinement or atomic coordinate data resulting 
# from the CCDC's data processing and validation procedures.
#
#######################################################################

data_EPIREC
_chemical_formula_moiety         'C32 H34 N8 O2'
_chemical_name_systematic        
2,2'-(((2-(dimethylamino)ethyl)imino)bis(methylene))bis(6-(2H-benzotriazol-2-yl)-4-methylphenol)
_symmetry_cell_setting           triclinic
_symmetry_space_group_name_H-M   'P -1'
_symmetry_Int_Tables_number      2
_space_group_name_Hall           '-P 1'
loop_
_symmetry_equiv_pos_site_id
_symmetry_equiv_pos_as_xyz
1 x,y,z
2 -x,-y,-z
_cell_length_a                   10.2090(3)
_cell_length_b                   15.6603(5)
_cell_length_c                   19.1412(6)
_cell_angle_alpha                77.598(2)
_cell_angle_beta                 80.191(2)
_cell_angle_gamma                73.079(2)
_cell_volume                     2840.3
_exptl_crystal_colour            yellow
_exptl_crystal_description       block
_cell_formula_units_Z            4
loop_
_atom_site_label
_atom_site_type_symbol
_atom_site_fract_x
_atom_site_fract_y
_atom_site_fract_z
O1 O 0.66503(16) 0.60097(9) 0.37204(7)
H1 H 0.7177 0.6022 0.4040
O2 O 0.47603(14) 0.41812(9) 0.12347(8)
H2 H 0.5680 0.4231 0.1292
N1 N 0.77354(18) 0.43001(11) 0.56777(9)
N2 N 0.74338(17) 0.48316(11) 0.50513(9)
N3 N 0.78985(18) 0.55763(11) 0.48758(9)
N4 N 0.2583(2) 0.38666(12) 0.03637(9)
N5 N 0.22458(18) 0.40069(11) 0.10424(9)
N6 N 0.17365(19) 0.33955(11) 0.15186(10)
N7 N 0.57188(18) 0.52540(11) 0.21753(9)
N8 N 0.73809(18) 0.39968(12) 0.13312(9)
C1 C 0.6299(2) 0.52095(13) 0.39445(11)
C2 C 0.6664(2) 0.46176(13) 0.45836(11)
C3 C 0.6271(2) 0.38134(13) 0.47916(11)
H3 H 0.6529 0.3424 0.5228
C4 C 0.5507(2) 0.35742(13) 0.43688(11)
C5 C 0.5147(2) 0.41620(14) 0.37330(11)
H4 H 0.4627 0.4003 0.3438
C6 C 0.5521(2) 0.49744(13) 0.35148(11)
C7 C 0.5045(2) 0.56035(14) 0.28355(11)
H5 H 0.4036 0.5709 0.2854
H6 H 0.5231 0.6195 0.2817
C8 C 0.5075(2) 0.58444(14) 0.15489(11)
H7 H 0.5696 0.5720 0.1104
H8 H 0.4951 0.6485 0.1584
C9 C 0.3701(2) 0.57053(13) 0.14977(11)
C10 C 0.3641(2) 0.48857(13) 0.13270(11)
C11 C 0.2351(2) 0.48190(14) 0.12425(11)
C12 C 0.1163(2) 0.55095(14) 0.13240(11)
H9 H 0.0308 0.5435 0.1253
C13 C 0.1204(2) 0.63079(14) 0.15082(11)
C14 C 0.2494(2) 0.63812(14) 0.15910(11)
H10 H 0.2549 0.6923 0.1718
C15 C 0.8459(2) 0.47367(13) 0.59398(11)
C16 C 0.9054(2) 0.45122(15) 0.65873(11)
H11 H 0.8971 0.3988 0.6930
C17 C 0.9758(2) 0.50810(15) 0.67028(12)
H12 H 1.0175 0.4946 0.7135
C18 C 0.9885(2) 0.58672(14) 0.61953(12)
H13 H 1.0391 0.6240 0.6296
C19 C 0.9301(2) 0.61064(14) 0.55653(12)
H14 H 0.9388 0.6635 0.5229
C20 C 0.8563(2) 0.55310(13) 0.54380(11)
C21 C 0.2260(2) 0.30790(14) 0.03980(12)
C22 C 0.2350(3) 0.25852(16) -0.01524(13)
H15 H 0.2716 0.2775 -0.0633
C23 C 0.1889(3) 0.18234(15) 0.00366(14)
H16 H 0.1925 0.1481 -0.0323
C24 C 0.1361(3) 0.15281(15) 0.07497(15)
H17 H 0.1046 0.0995 0.0855
C25 C 0.1291(3) 0.19852(15) 0.12915(14)
H18 H 0.0953 0.1775 0.1772
C26 C 0.1742(2) 0.27857(14) 0.11071(12)
C27 C 0.5062(2) 0.27078(14) 0.46038(12)
H19 H 0.4664 0.2662 0.5109
H20 H 0.5863 0.2188 0.4550
H21 H 0.4372 0.2710 0.4305
C28 C -0.0075(2) 0.70706(16) 0.16075(13)
H22 H -0.0877 0.6900 0.1523
H23 H 0.0023 0.7617 0.1265
H24 H -0.0202 0.7191 0.2100
C29 C 0.7207(2) 0.51455(15) 0.20893(12)
H25 H 0.7595 0.4759 0.2527
H26 H 0.7383 0.5746 0.2039
C30 C 0.7932(2) 0.47215(15) 0.14368(11)
H27 H 0.7844 0.5200 0.1002
H28 H 0.8925 0.4471 0.1491
C31 C 0.7644(2) 0.32313(15) 0.19329(12)
H29 H 0.7101 0.3416 0.2376
H30 H 0.8626 0.3046 0.1994
H31 H 0.7379 0.2722 0.1830
C32 C 0.8022(3) 0.37103(16) 0.06409(12)
H32 H 0.7797 0.4224 0.0247
H33 H 0.7673 0.3217 0.0573
H34 H 0.9025 0.3499 0.0643
O3 O -0.10056(15) 0.19410(9) 0.50271(7)
H35 H -0.0330 0.2007 0.4682
O4 O -0.15267(14) 0.05211(10) 0.82567(7)
H36 H -0.2443 0.0615 0.8142
N9 N 0.14088(19) 0.16701(11) 0.42663(9)
N10 N 0.18129(18) 0.09149(11) 0.47479(9)
N11 N 0.31384(18) 0.04623(12) 0.46692(10)
N12 N 0.23695(19) -0.07532(12) 0.81820(9)
N13 N 0.13183(17) -0.00584(11) 0.83351(9)
N14 N 0.09742(19) 0.00207(12) 0.90257(9)
N15 N -0.32416(17) 0.13481(11) 0.69339(9)
N16 N -0.42370(19) 0.05083(13) 0.82866(10)
C33 C -0.0489(2) 0.11137(13) 0.54327(11)
C34 C 0.0869(2) 0.05989(13) 0.53154(11)
C35 C 0.1348(2) -0.02453(13) 0.57410(11)
H37 H 0.2273 -0.0589 0.5645
C36 C 0.0489(2) -0.05837(13) 0.62987(11)
C37 C -0.0861(2) -0.00585(13) 0.64224(11)
H38 H -0.1459 -0.0285 0.6807
C38 C -0.1364(2) 0.07793(13) 0.60067(11)
C39 C -0.2834(2) 0.13199(14) 0.61643(11)
H39 H -0.2947 0.1947 0.5895
H40 H -0.3456 0.1050 0.5991
C40 C -0.2714(2) 0.20063(14) 0.71662(12)
H41 H -0.3205 0.2129 0.7642
H42 H -0.2905 0.2583 0.6819
C41 C -0.1195(2) 0.16742(13) 0.72194(11)
C42 C -0.0693(2) 0.09436(13) 0.77592(11)
C43 C 0.0731(2) 0.06446(13) 0.77732(11)
C44 C 0.1628(2) 0.10094(14) 0.72527(11)
H43 H 0.2593 0.0770 0.7267
C45 C 0.1139(2) 0.17209(14) 0.67087(11)
C46 C -0.0282(2) 0.20480(14) 0.67137(11)
H44 H -0.0641 0.2547 0.6356
C47 C 0.2581(2) 0.17148(14) 0.38236(11)
C48 C 0.2826(2) 0.23498(16) 0.32046(12)
H45 H 0.2107 0.2849 0.3028
C49 C 0.4139(3) 0.22127(17) 0.28736(13)
H46 H 0.4341 0.2631 0.2459
C50 C 0.5218(3) 0.14637(17) 0.31288(13)
H47 H 0.6120 0.1397 0.2880
C51 C 0.5002(2) 0.08354(16) 0.37201(12)
H48 H 0.5729 0.0333 0.3885
C52 C 0.3652(2) 0.09673(14) 0.40749(11)
C53 C 0.2749(2) -0.11753(14) 0.88421(11)
C54 C 0.3833(2) -0.19483(15) 0.90410(13)
H49 H 0.4434 -0.2270 0.8692
C55 C 0.3975(2) -0.22101(15) 0.97545(13)
H50 H 0.4694 -0.2726 0.9906
C56 C 0.3084(2) -0.17359(16) 1.02760(12)
H51 H 0.3220 -0.1948 1.0769
C57 C 0.2037(2) -0.09854(16) 1.01008(12)
H52 H 0.1445 -0.0670 1.0456
C58 C 0.1880(2) -0.07040(14) 0.93600(11)
C59 C 0.0996(2) -0.14913(14) 0.67657(12)
H53 H 0.1825 -0.1847 0.6515
H54 H 0.0277 -0.1816 0.6867
H55 H 0.1213 -0.1401 0.7219
C60 C 0.2107(3) 0.21147(17) 0.61301(12)
H56 H 0.2809 0.2243 0.6353
H57 H 0.1587 0.2678 0.5855
H58 H 0.2555 0.1679 0.5807
C61 C -0.4734(2) 0.15227(15) 0.71146(12)
H59 H -0.5075 0.1136 0.6881
H60 H -0.5176 0.2164 0.6923
C62 C -0.5146(2) 0.13331(16) 0.79243(12)
H61 H -0.5130 0.1855 0.8133
H62 H -0.6102 0.1273 0.8015
C63 C -0.4729(3) 0.03516(18) 0.90606(13)
H63 H -0.4765 0.0880 0.9267
H64 H -0.4097 -0.0186 0.9304
H65 H -0.5652 0.0256 0.9126
C64 C -0.4211(2) -0.02813(15) 0.79813(13)
H66 H -0.3780 -0.0216 0.7481
H67 H -0.5155 -0.0321 0.7995
H68 H -0.3679 -0.0834 0.8264
loop_
_geom_bond_atom_site_label_1
_geom_bond_atom_site_label_2
_geom_bond_site_symmetry_1
_geom_bond_site_symmetry_2
O1 H1 1_555 1_555
O2 H2 1_555 1_555
N1 N2 1_555 1_555
N2 N3 1_555 1_555
N3 C20 1_555 1_555
N4 N5 1_555 1_555
N5 N6 1_555 1_555
N6 C26 1_555 1_555
N7 C7 1_555 1_555
N8 C30 1_555 1_555
C1 O1 1_555 1_555
C2 N2 1_555 1_555
C3 C2 1_555 1_555
H3 C3 1_555 1_555
C4 C3 1_555 1_555
C5 C4 1_555 1_555
H4 C5 1_555 1_555
C6 C1 1_555 1_555
C7 C6 1_555 1_555
H5 C7 1_555 1_555
H6 C7 1_555 1_555
C8 N7 1_555 1_555
H7 C8 1_555 1_555
H8 C8 1_555 1_555
C9 C8 1_555 1_555
C10 O2 1_555 1_555
C11 N5 1_555 1_555
C12 C11 1_555 1_555
H9 C12 1_555 1_555
C13 C12 1_555 1_555
C14 C9 1_555 1_555
H10 C14 1_555 1_555
C15 N1 1_555 1_555
C16 C15 1_555 1_555
H11 C16 1_555 1_555
C17 C16 1_555 1_555
H12 C17 1_555 1_555
C18 C17 1_555 1_555
H13 C18 1_555 1_555
C19 C18 1_555 1_555
H14 C19 1_555 1_555
C20 C15 1_555 1_555
C21 N4 1_555 1_555
C22 C21 1_555 1_555
H15 C22 1_555 1_555
C23 C22 1_555 1_555
H16 C23 1_555 1_555
C24 C23 1_555 1_555
H17 C24 1_555 1_555
C25 C24 1_555 1_555
H18 C25 1_555 1_555
C26 C21 1_555 1_555
C27 C4 1_555 1_555
H19 C27 1_555 1_555
H20 C27 1_555 1_555
H21 C27 1_555 1_555
C28 C13 1_555 1_555
H22 C28 1_555 1_555
H23 C28 1_555 1_555
H24 C28 1_555 1_555
C29 N7 1_555 1_555
H25 C29 1_555 1_555
H26 C29 1_555 1_555
C30 C29 1_555 1_555
H27 C30 1_555 1_555
H28 C30 1_555 1_555
C31 N8 1_555 1_555
H29 C31 1_555 1_555
H30 C31 1_555 1_555
H31 C31 1_555 1_555
C32 N8 1_555 1_555
H32 C32 1_555 1_555
H33 C32 1_555 1_555
H34 C32 1_555 1_555
O3 H35 1_555 1_555
O4 H36 1_555 1_555
N9 N10 1_555 1_555
N10 N11 1_555 1_555
N11 C52 1_555 1_555
N12 N13 1_555 1_555
N13 N14 1_555 1_555
N14 C58 1_555 1_555
N15 C39 1_555 1_555
N16 C62 1_555 1_555
C33 O3 1_555 1_555
C34 N10 1_555 1_555
C35 C34 1_555 1_555
H37 C35 1_555 1_555
C36 C35 1_555 1_555
C37 C36 1_555 1_555
H38 C37 1_555 1_555
C38 C33 1_555 1_555
C39 C38 1_555 1_555
H39 C39 1_555 1_555
H40 C39 1_555 1_555
C40 N15 1_555 1_555
H41 C40 1_555 1_555
H42 C40 1_555 1_555
C41 C40 1_555 1_555
C42 O4 1_555 1_555
C43 N13 1_555 1_555
C44 C43 1_555 1_555
H43 C44 1_555 1_555
C45 C44 1_555 1_555
C46 C41 1_555 1_555
H44 C46 1_555 1_555
C47 N9 1_555 1_555
C48 C47 1_555 1_555
H45 C48 1_555 1_555
C49 C48 1_555 1_555
H46 C49 1_555 1_555
C50 C49 1_555 1_555
H47 C50 1_555 1_555
C51 C50 1_555 1_555
H48 C51 1_555 1_555
C52 C47 1_555 1_555
C53 N12 1_555 1_555
C54 C53 1_555 1_555
H49 C54 1_555 1_555
C55 C54 1_555 1_555
H50 C55 1_555 1_555
C56 C55 1_555 1_555
H51 C56 1_555 1_555
C57 C56 1_555 1_555
H52 C57 1_555 1_555
C58 C53 1_555 1_555
C59 C36 1_555 1_555
H53 C59 1_555 1_555
H54 C59 1_555 1_555
H55 C59 1_555 1_555
C60 C45 1_555 1_555
H56 C60 1_555 1_555
H57 C60 1_555 1_555
H58 C60 1_555 1_555
C61 N15 1_555 1_555
H59 C61 1_555 1_555
H60 C61 1_555 1_555
C62 C61 1_555 1_555
H61 C62 1_555 1_555
H62 C62 1_555 1_555
C63 N16 1_555 1_555
H63 C63 1_555 1_555
H64 C63 1_555 1_555
H65 C63 1_555 1_555
C64 N16 1_555 1_555
H66 C64 1_555 1_555
H67 C64 1_555 1_555
H68 C64 1_555 1_555
C1 C2 1_555 1_555
C5 C6 1_555 1_555
C9 C10 1_555 1_555
C10 C11 1_555 1_555
C13 C14 1_555 1_555
C19 C20 1_555 1_555
C25 C26 1_555 1_555
C33 C34 1_555 1_555
C37 C38 1_555 1_555
C41 C42 1_555 1_555
C42 C43 1_555 1_555
C45 C46 1_555 1_555
C51 C52 1_555 1_555
C57 C58 1_555 1_555

#END
