
#######################################################################
#
#                 Cambridge Crystallographic Data Centre
#                                CCDC 
#
#######################################################################
#
# If this CIF has been generated from an entry in the Cambridge 
# Structural Database, then it will include bibliographic, chemical, 
# crystal, experimental, refinement or atomic coordinate data resulting 
# from the CCDC's data processing and validation procedures.
#
#######################################################################

data_EPISAZ
_chemical_formula_moiety         'C28 H80 N4 O3 Si8 Sr2'
_chemical_name_systematic        
tris(\m-N,N-bis(dimethylsilyl)amino)-(N,N-bis(dimethylsilyl)amino)-tris(tetrahydrofuran)-di-strontium
_symmetry_cell_setting           triclinic
_symmetry_space_group_name_H-M   'P -1'
_symmetry_Int_Tables_number      2
_space_group_name_Hall           '-P 1'
loop_
_symmetry_equiv_pos_site_id
_symmetry_equiv_pos_as_xyz
1 x,y,z
2 -x,-y,-z
_cell_length_a                   12.283(4)
_cell_length_b                   12.875(4)
_cell_length_c                   16.823(6)
_cell_angle_alpha                90.404(5)
_cell_angle_beta                 93.805(5)
_cell_angle_gamma                110.259(5)
_cell_volume                     2489.08
_exptl_crystal_colour            colorless
_exptl_crystal_description       plate
_cell_formula_units_Z            2
loop_
_atom_site_label
_atom_site_type_symbol
_atom_site_fract_x
_atom_site_fract_y
_atom_site_fract_z
Sr1 Sr 0.82731(5) 0.45172(4) 0.74673(3)
Sr2 Sr 0.56070(5) 0.20316(4) 0.77224(3)
Si1 Si 0.67795(14) 0.50171(14) 0.88685(9)
H1 H 0.729(5) 0.567(4) 0.822(3)
Si2 Si 0.71939(15) 0.29988(14) 0.94352(9)
H2 H 0.677(5) 0.187(4) 0.917(3)
Si3 Si 0.70187(14) 0.31625(13) 0.58031(9)
H3 H 0.819(5) 0.341(4) 0.616(3)
Si4 Si 0.52124(14) 0.39172(13) 0.65093(9)
H4 H 0.447(4) 0.335(4) 0.715(3)
Si5 Si 1.00496(16) 0.70027(14) 0.78649(10)
H5 H 0.982(5) 0.603(5) 0.845(3)
Si6 Si 0.90941(16) 0.69650(15) 0.61464(10)
H6 H 0.800(5) 0.647(5) 0.577(4)
Si7 Si 0.79858(15) 0.12738(14) 0.76496(10)
H7 H 0.820(5) 0.242(5) 0.772(3)
Si8 Si 0.57543(16) -0.07399(14) 0.74359(10)
H8 H 0.458(5) -0.088(5) 0.755(3)
O1 O 1.0266(3) 0.4286(3) 0.7447(2)
O2 O 0.4105(4) 0.1469(3) 0.8784(2)
O3 O 0.3652(4) 0.1011(3) 0.6890(2)
N1 N 0.6941(4) 0.3778(4) 0.8688(2)
N2 N 0.6347(4) 0.3455(4) 0.6586(2)
N3 N 0.9253(4) 0.6421(4) 0.7027(3)
N4 N 0.6550(4) 0.0608(4) 0.7537(3)
C1 C 0.7022(6) 0.3953(5) 0.4870(4)
H9 H 0.6252 0.3662 0.4581
H10 H 0.7608 0.3870 0.4531
H11 H 0.7206 0.4738 0.5009
C2 C 0.6530(6) 0.1675(5) 0.5488(3)
H12 H 0.6431 0.1220 0.5961
H13 H 0.7115 0.1547 0.5170
H14 H 0.5787 0.1475 0.5167
C3 C 1.0238(7) 0.7000(6) 0.5458(4)
H15 H 1.1009 0.7383 0.5726
H16 H 1.0138 0.7393 0.4978
H17 H 1.0167 0.6241 0.5309
C4 C 0.9061(8) 0.8387(6) 0.6213(5)
H18 H 0.8346 0.8372 0.6447
H19 H 0.9081 0.8688 0.5679
H20 H 0.9738 0.8856 0.6549
C5 C 1.1658(6) 0.7536(6) 0.7798(4)
H21 H 1.1894 0.6967 0.7544
H22 H 1.2047 0.7718 0.8334
H23 H 1.1879 0.8202 0.7480
C6 C 0.9662(6) 0.8121(5) 0.8373(4)
H24 H 0.9940 0.8804 0.8076
H25 H 1.0030 0.8256 0.8917
H26 H 0.8816 0.7886 0.8391
C7 C 0.5564(5) 0.5434(5) 0.6652(3)
H27 H 0.5976 0.5678 0.7176
H28 H 0.4842 0.5601 0.6618
H29 H 0.6059 0.5824 0.6236
C8 C 0.4239(5) 0.3474(5) 0.5567(3)
H30 H 0.4621 0.3914 0.5126
H31 H 0.3503 0.3590 0.5636
H32 H 0.4086 0.2687 0.5449
C9 C 0.5241(5) 0.4953(5) 0.8870(4)
H33 H 0.4820 0.4619 0.8364
H34 H 0.5223 0.5704 0.8937
H35 H 0.4872 0.4503 0.9311
C10 C 0.7612(5) 0.5836(5) 0.9782(3)
H36 H 0.7242 0.5493 1.0259
H37 H 0.7613 0.6597 0.9757
H38 H 0.8415 0.5846 0.9806
C11 C 0.8756(5) 0.3321(5) 0.9763(3)
H39 H 0.9180 0.3241 0.9307
H40 H 0.8826 0.2809 1.0176
H41 H 0.9086 0.4083 0.9980
C12 C 0.6394(6) 0.2971(6) 1.0356(4)
H42 H 0.6758 0.3671 1.0661
H43 H 0.6429 0.2356 1.0685
H44 H 0.5580 0.2870 1.0201
C13 C 0.8791(5) 0.0914(5) 0.8532(4)
H45 H 0.8396 0.0943 0.9014
H46 H 0.9589 0.1445 0.8591
H47 H 0.8807 0.0165 0.8450
C14 C 0.8873(6) 0.1270(5) 0.6788(4)
H48 H 0.8802 0.0507 0.6652
H49 H 0.9691 0.1709 0.6933
H50 H 0.8590 0.1592 0.6328
C15 C 0.6147(7) -0.1667(5) 0.8164(4)
H51 H 0.6897 -0.1722 0.8048
H52 H 0.5546 -0.2405 0.8121
H53 H 0.6205 -0.1359 0.8706
C16 C 0.5729(7) -0.1359(6) 0.6426(4)
H54 H 0.5575 -0.0877 0.6019
H55 H 0.5116 -0.2091 0.6374
H56 H 0.6484 -0.1435 0.6355
C17 C 1.1030(6) 0.4193(6) 0.8103(4)
H57 H 1.0717 0.3459 0.8345
H58 H 1.1133 0.4776 0.8518
C18 C 1.2148(8) 0.4333(11) 0.7754(5)
H59 H 1.2742 0.5042 0.7953
H60 H 1.2422 0.3725 0.7921
C19 C 1.2014(7) 0.4329(8) 0.6930(5)
H61 H 1.1991 0.3612 0.6698
H62 H 1.2666 0.4930 0.6718
C20 C 1.0894(6) 0.4504(6) 0.6733(3)
H63 H 1.1037 0.5275 0.6570
H64 H 1.0440 0.3993 0.6291
C21 C 0.3327(6) 0.1905(5) 0.9160(4)
H65 H 0.3026 0.2345 0.8782
H66 H 0.3730 0.2383 0.9630
C22 C 0.2349(6) 0.0905(6) 0.9407(4)
H67 H 0.2041 0.1067 0.9904
H68 H 0.1706 0.0660 0.8984
C23 C 0.2909(7) 0.0047(6) 0.9533(5)
H69 H 0.3146 0.0020 1.0104
H70 H 0.2363 -0.0695 0.9350
C24 C 0.3912(7) 0.0376(6) 0.9069(5)
H71 H 0.4605 0.0369 0.9402
H72 H 0.3784 -0.0152 0.8612
C25 C 0.2533(6) 0.1085(6) 0.7043(4)
H73 H 0.2630 0.1790 0.7328
H74 H 0.2085 0.0460 0.7365
C26 C 0.1928(6) 0.1029(6) 0.6214(4)
H75 H 0.2129 0.1775 0.5990
H76 H 0.1072 0.0699 0.6229
C27 C 0.2394(6) 0.0291(6) 0.5728(4)
H77 H 0.1803 -0.0460 0.5642
H78 H 0.2609 0.0610 0.5203
C28 C 0.3444(6) 0.0244(6) 0.6211(4)
H79 H 0.3305 -0.0516 0.6396
H80 H 0.4126 0.0460 0.5887
loop_
_geom_bond_atom_site_label_1
_geom_bond_atom_site_label_2
_geom_bond_site_symmetry_1
_geom_bond_site_symmetry_2
Sr1 H1 1_555 1_555
Sr2 H4 1_555 1_555
Si1 H1 1_555 1_555
Si2 H2 1_555 1_555
Si3 H3 1_555 1_555
H3 Sr1 1_555 1_555
Si4 H4 1_555 1_555
Si5 H5 1_555 1_555
H5 Sr1 1_555 1_555
Si6 H6 1_555 1_555
Si7 H7 1_555 1_555
H7 Sr1 1_555 1_555
Si8 H8 1_555 1_555
O1 Sr1 1_555 1_555
O2 Sr2 1_555 1_555
O3 Sr2 1_555 1_555
N1 Sr1 1_555 1_555
N2 Sr1 1_555 1_555
N3 Sr1 1_555 1_555
N4 Sr2 1_555 1_555
C1 Si3 1_555 1_555
H9 C1 1_555 1_555
H10 C1 1_555 1_555
H11 C1 1_555 1_555
C2 Si3 1_555 1_555
H12 C2 1_555 1_555
H13 C2 1_555 1_555
H14 C2 1_555 1_555
C3 Si6 1_555 1_555
H15 C3 1_555 1_555
H16 C3 1_555 1_555
H17 C3 1_555 1_555
C4 Si6 1_555 1_555
H18 C4 1_555 1_555
H19 C4 1_555 1_555
H20 C4 1_555 1_555
C5 Si5 1_555 1_555
H21 C5 1_555 1_555
H22 C5 1_555 1_555
H23 C5 1_555 1_555
C6 Si5 1_555 1_555
H24 C6 1_555 1_555
H25 C6 1_555 1_555
H26 C6 1_555 1_555
C7 Si4 1_555 1_555
H27 C7 1_555 1_555
H28 C7 1_555 1_555
H29 C7 1_555 1_555
C8 Si4 1_555 1_555
H30 C8 1_555 1_555
H31 C8 1_555 1_555
H32 C8 1_555 1_555
C9 Si1 1_555 1_555
H33 C9 1_555 1_555
H34 C9 1_555 1_555
H35 C9 1_555 1_555
C10 Si1 1_555 1_555
H36 C10 1_555 1_555
H37 C10 1_555 1_555
H38 C10 1_555 1_555
C11 Si2 1_555 1_555
H39 C11 1_555 1_555
H40 C11 1_555 1_555
H41 C11 1_555 1_555
C12 Si2 1_555 1_555
H42 C12 1_555 1_555
H43 C12 1_555 1_555
H44 C12 1_555 1_555
C13 Si7 1_555 1_555
H45 C13 1_555 1_555
H46 C13 1_555 1_555
H47 C13 1_555 1_555
C14 Si7 1_555 1_555
H48 C14 1_555 1_555
H49 C14 1_555 1_555
H50 C14 1_555 1_555
C15 Si8 1_555 1_555
H51 C15 1_555 1_555
H52 C15 1_555 1_555
H53 C15 1_555 1_555
C16 Si8 1_555 1_555
H54 C16 1_555 1_555
H55 C16 1_555 1_555
H56 C16 1_555 1_555
C17 O1 1_555 1_555
H57 C17 1_555 1_555
H58 C17 1_555 1_555
C18 C17 1_555 1_555
H59 C18 1_555 1_555
H60 C18 1_555 1_555
C19 C18 1_555 1_555
H61 C19 1_555 1_555
H62 C19 1_555 1_555
C20 O1 1_555 1_555
H63 C20 1_555 1_555
H64 C20 1_555 1_555
C21 O2 1_555 1_555
H65 C21 1_555 1_555
H66 C21 1_555 1_555
C22 C21 1_555 1_555
H67 C22 1_555 1_555
H68 C22 1_555 1_555
C23 C22 1_555 1_555
H69 C23 1_555 1_555
H70 C23 1_555 1_555
C24 O2 1_555 1_555
H71 C24 1_555 1_555
H72 C24 1_555 1_555
C25 O3 1_555 1_555
H73 C25 1_555 1_555
H74 C25 1_555 1_555
C26 C25 1_555 1_555
H75 C26 1_555 1_555
H76 C26 1_555 1_555
C27 C26 1_555 1_555
H77 C27 1_555 1_555
H78 C27 1_555 1_555
C28 O3 1_555 1_555
H79 C28 1_555 1_555
H80 C28 1_555 1_555
Sr2 N1 1_555 1_555
Sr2 N2 1_555 1_555
Si1 N1 1_555 1_555
Si2 N1 1_555 1_555
Si3 N2 1_555 1_555
Si4 N2 1_555 1_555
Si5 N3 1_555 1_555
Si6 N3 1_555 1_555
Si7 N4 1_555 1_555
Si8 N4 1_555 1_555
C19 C20 1_555 1_555
C23 C24 1_555 1_555
C27 C28 1_555 1_555

#END
