
#######################################################################
#
#                 Cambridge Crystallographic Data Centre
#                                CCDC 
#
#######################################################################
#
# If this CIF has been generated from an entry in the Cambridge 
# Structural Database, then it will include bibliographic, chemical, 
# crystal, experimental, refinement or atomic coordinate data resulting 
# from the CCDC's data processing and validation procedures.
#
#######################################################################

data_EPISAY
_chemical_formula_moiety         'C21 H16 N3 O1 1+,C6 H2 N3 O7 1-'
_chemical_name_systematic        
"N'-(Anthracen-9-ylmethylene)pyridinium-4-carbohydrazine 2,4,6-trinitrophenolate clathrate"
_symmetry_cell_setting           monoclinic
_symmetry_space_group_name_H-M   'P 21/n'
_symmetry_Int_Tables_number      14
_space_group_name_Hall           '-P 2yn'
loop_
_symmetry_equiv_pos_site_id
_symmetry_equiv_pos_as_xyz
1 x,y,z
2 1/2-x,1/2+y,1/2-z
3 -x,-y,-z
4 1/2+x,1/2-y,1/2+z
_cell_length_a                   7.394(5)
_cell_length_b                   23.675(16)
_cell_length_c                   14.376(10)
_cell_angle_alpha                90
_cell_angle_beta                 97.916(8)
_cell_angle_gamma                90
_cell_volume                     2492.58
_exptl_crystal_colour            orange
_exptl_crystal_description       block
_cell_formula_units_Z            4
loop_
_atom_site_label
_atom_site_type_symbol
_atom_site_fract_x
_atom_site_fract_y
_atom_site_fract_z
C1 C 1.0590(4) 0.18215(13) 0.5633(2)
H1 H 1.0650 0.1458 0.5395
C2 C 1.1287(4) 0.19373(14) 0.6543(2)
H2 H 1.1832 0.1650 0.6925
C3 C 1.0405(5) 0.28748(15) 0.6369(2)
H3 H 1.0356 0.3234 0.6625
C4 C 0.9665(4) 0.27749(13) 0.5456(2)
H4 H 0.9072 0.3064 0.5096
C5 C 0.9800(4) 0.22490(12) 0.50744(19)
C6 C 0.9074(4) 0.21853(13) 0.4050(2)
C7 C 0.9675(4) 0.12282(14) 0.2298(2)
H5 H 1.0463 0.0985 0.2665
C8 C 0.9097(4) 0.10909(14) 0.1305(2)
C9 C 0.9016(4) 0.15063(14) 0.0595(2)
C10 C 0.9650(4) 0.20691(14) 0.0739(2)
H6 H 1.0159 0.2180 0.1339
C11 C 0.9534(5) 0.24502(16) 0.0028(3)
H7 H 0.9991 0.2813 0.0146
C12 C 0.8733(5) 0.23044(18) -0.0884(3)
H8 H 0.8607 0.2573 -0.1360
C13 C 0.8157(5) 0.17782(18) -0.1058(3)
H9 H 0.7654 0.1681 -0.1666
C14 C 0.8285(4) 0.13584(15) -0.0343(2)
C15 C 0.7732(5) 0.08079(17) -0.0530(2)
H10 H 0.7226 0.0717 -0.1140
C16 C 0.7888(5) 0.03870(16) 0.0136(3)
C17 C 0.7355(6) -0.01790(18) -0.0072(3)
H11 H 0.6886 -0.0275 -0.0685
C18 C 0.7512(6) -0.05775(18) 0.0593(4)
H12 H 0.7156 -0.0946 0.0438
C19 C 0.8209(6) -0.04422(17) 0.1522(3)
H13 H 0.8326 -0.0723 0.1979
C20 C 0.8712(5) 0.00921(15) 0.1761(3)
H14 H 0.9146 0.0174 0.2384
C21 C 0.8595(5) 0.05311(14) 0.1086(2)
N1 N 0.9721(3) 0.17441(10) 0.36134(16)
H17 H 1.0487 0.1512 0.3912
N2 N 0.9118(3) 0.16740(11) 0.26678(16)
N3 N 1.1195(4) 0.24527(12) 0.68841(17)
H18 H 1.1660 0.2517 0.7456
O1 O 0.7971(3) 0.25237(9) 0.36661(14)
C22 C 0.3968(4) 0.04241(12) 0.3450(2)
C23 C 0.4338(4) -0.00959(12) 0.3129(2)
H15 H 0.4921 -0.0138 0.2600
C24 C 0.3824(4) -0.05601(12) 0.3611(2)
C25 C 0.3002(4) -0.05043(13) 0.4408(2)
H16 H 0.2688 -0.0823 0.4730
C26 C 0.2650(4) 0.00239(13) 0.4723(2)
C27 C 0.3026(4) 0.05414(13) 0.4244(2)
N4 N 0.4575(4) 0.09075(12) 0.2938(2)
N5 N 0.4209(4) -0.11204(12) 0.3285(2)
N6 N 0.1836(4) 0.00478(13) 0.55873(19)
O2 O 0.2555(3) 0.10225(9) 0.44512(15)
O3 O 0.5155(4) 0.13206(11) 0.3369(2)
O4 O 0.4540(5) 0.08686(12) 0.2105(2)
O5 O 0.5145(3) -0.11631(9) 0.26468(18)
O6 O 0.3563(4) -0.15295(10) 0.3647(2)
O7 O 0.1340(3) -0.03984(10) 0.59069(17)
O8 O 0.1686(3) 0.05017(11) 0.59798(16)
loop_
_geom_bond_atom_site_label_1
_geom_bond_atom_site_label_2
_geom_bond_site_symmetry_1
_geom_bond_site_symmetry_2
C1 H1 1_555 1_555
C2 C1 1_555 1_555
H2 C2 1_555 1_555
C3 H3 1_555 1_555
C4 C3 1_555 1_555
H4 C4 1_555 1_555
C5 C1 1_555 1_555
C6 C5 1_555 1_555
C7 H5 1_555 1_555
C8 C7 1_555 1_555
C9 C8 1_555 1_555
C10 C9 1_555 1_555
H6 C10 1_555 1_555
C11 C10 1_555 1_555
H7 C11 1_555 1_555
C12 C11 1_555 1_555
H8 C12 1_555 1_555
C13 C12 1_555 1_555
H9 C13 1_555 1_555
C14 C9 1_555 1_555
C15 C14 1_555 1_555
H10 C15 1_555 1_555
C16 C15 1_555 1_555
C17 C16 1_555 1_555
H11 C17 1_555 1_555
C18 C17 1_555 1_555
H12 C18 1_555 1_555
C19 C18 1_555 1_555
H13 C19 1_555 1_555
C20 C19 1_555 1_555
H14 C20 1_555 1_555
C21 C8 1_555 1_555
C22 C23 1_555 1_555
C23 H15 1_555 1_555
C24 C23 1_555 1_555
C25 C24 1_555 1_555
H16 C25 1_555 1_555
C26 C25 1_555 1_555
C27 C22 1_555 1_555
N1 C6 1_555 1_555
H17 N1 1_555 1_555
N2 C7 1_555 1_555
N3 C2 1_555 1_555
H18 N3 1_555 1_555
N4 C22 1_555 1_555
N5 C24 1_555 1_555
N6 C26 1_555 1_555
O1 C6 1_555 1_555
O2 C27 1_555 1_555
O3 N4 1_555 1_555
O4 N4 1_555 1_555
O5 N5 1_555 1_555
O6 N5 1_555 1_555
O7 N6 1_555 1_555
O8 N6 1_555 1_555
C3 N3 1_555 1_555
C4 C5 1_555 1_555
C13 C14 1_555 1_555
C16 C21 1_555 1_555
C20 C21 1_555 1_555
C26 C27 1_555 1_555
N1 N2 1_555 1_555

#END
