
#######################################################################
#
#                 Cambridge Crystallographic Data Centre
#                                CCDC 
#
#######################################################################
#
# If this CIF has been generated from an entry in the Cambridge 
# Structural Database, then it will include bibliographic, chemical, 
# crystal, experimental, refinement or atomic coordinate data resulting 
# from the CCDC's data processing and validation procedures.
#
#######################################################################

data_EPITED01
_chemical_formula_moiety         'C30 H36 N4 O2'
_chemical_name_systematic        
trans-5,10,10,15,20,20-Hexamethyl-5,15-diacetyl-5,10,15,20,22,24-hexahydroporphyrin
_symmetry_cell_setting           orthorhombic
_symmetry_space_group_name_H-M   'P b c a'
_symmetry_Int_Tables_number      61
_space_group_name_Hall           '-P 2ac 2ab'
loop_
_symmetry_equiv_pos_site_id
_symmetry_equiv_pos_as_xyz
1 x,y,z
2 1/2-x,-y,1/2+z
3 -x,1/2+y,1/2-z
4 1/2+x,1/2-y,-z
5 -x,-y,-z
6 1/2+x,y,1/2-z
7 x,1/2-y,1/2+z
8 1/2-x,1/2+y,z
_cell_length_a                   11.3085(18)
_cell_length_b                   19.412(3)
_cell_length_c                   23.713(4)
_cell_angle_alpha                90
_cell_angle_beta                 90
_cell_angle_gamma                90
_cell_volume                     5205.49
_exptl_crystal_colour            colorless
_exptl_crystal_description       plate
_cell_formula_units_Z            8
_exptl_crystal_recrystallization_method acetonitrile
loop_
_atom_site_label
_atom_site_type_symbol
_atom_site_fract_x
_atom_site_fract_y
_atom_site_fract_z
N1 N 0.6056(4) 1.0317(2) 0.6181(2)
N2 N 0.4088(5) 0.8290(2) 0.64035(19)
N3 N 0.6225(5) 0.8813(3) 0.5613(2)
N4 N 0.3766(4) 0.9858(2) 0.6839(2)
O1 O 0.6321(4) 1.0232(2) 0.44526(16)
C1 C 0.6411(5) 1.0416(3) 0.5631(2)
C2 C 0.7235(5) 0.9212(3) 0.5598(2)
C3 C 0.4298(5) 1.0338(3) 0.7178(2)
O2 O 0.1088(4) 0.8373(2) 0.76219(18)
C4 C 0.5998(5) 1.1046(3) 0.5472(2)
H1 H 0.6107 1.1252 0.5122
C5 C 0.4331(5) 0.7873(2) 0.5949(2)
C6 C 0.3994(5) 1.0187(3) 0.7715(2)
H2 H 0.4216 1.0435 0.8034
C7 C 0.5539(5) 0.7595(3) 0.5821(2)
C8 C 0.2355(5) 0.8846(3) 0.6913(2)
C9 C 0.3279(5) 0.9585(3) 0.7711(2)
H3 H 0.2967 0.9362 0.8025
C10 C 0.3260(6) 0.7761(3) 0.5698(2)
H4 H 0.3133 0.7493 0.5379
C11 C 0.2909(5) 0.8441(3) 0.6436(2)
C12 C 0.6469(5) 0.8161(3) 0.5807(2)
C13 C 0.5000(5) 1.0953(3) 0.6965(2)
C14 C 0.2050(6) 0.8359(3) 0.7395(3)
C15 C 0.8115(5) 0.8795(3) 0.5785(2)
H5 H 0.8905 0.8922 0.5823
C16 C 0.5514(5) 0.7235(3) 0.5242(2)
H6 H 0.4971 0.6856 0.5254
H7 H 0.6290 0.7069 0.5152
H8 H 0.5264 0.7558 0.4959
C17 C 0.6085(5) 1.1044(3) 0.7354(2)
H9 H 0.6559 1.0634 0.7344
H10 H 0.5824 1.1126 0.7733
H11 H 0.6547 1.1428 0.7226
C18 C 0.1192(5) 0.9179(3) 0.6697(2)
H12 H 0.1359 0.9457 0.6371
H13 H 0.0858 0.9462 0.6988
H14 H 0.0640 0.8823 0.6597
C19 C 0.6995(6) 0.9849(3) 0.4705(3)
C20 C 0.7642(5) 0.8138(3) 0.5914(2)
H15 H 0.8062 0.7760 0.6047
C21 C 0.3135(5) 0.9394(3) 0.7165(2)
C22 C 0.2380(5) 0.8117(3) 0.6002(2)
H16 H 0.1577 0.8127 0.5918
C23 C 0.5884(5) 0.7060(3) 0.6271(2)
H17 H 0.5889 0.7275 0.6636
H18 H 0.6656 0.6881 0.6189
H19 H 0.5320 0.6690 0.6269
C24 C 0.5376(5) 1.1330(3) 0.5931(3)
H20 H 0.5001 1.1757 0.5935
C25 C 0.5418(5) 1.0875(3) 0.6365(2)
C26 C 0.8516(5) 1.0227(3) 0.5383(3)
H21 H 0.8545 1.0660 0.5187
H22 H 0.9062 0.9912 0.5211
H23 H 0.8728 1.0295 0.5771
C27 C 0.2988(5) 0.7864(3) 0.7574(2)
H24 H 0.2754 0.7644 0.7918
H25 H 0.3716 0.8108 0.7632
H26 H 0.3096 0.7522 0.7286
C28 C 0.7236(5) 0.9925(3) 0.5347(2)
C29 C 0.7640(6) 0.9288(3) 0.4395(2)
H27 H 0.7213 0.8863 0.4432
H28 H 0.8418 0.9235 0.4551
H29 H 0.7701 0.9408 0.4003
C30 C 0.4218(5) 1.1597(3) 0.7013(2)
H30 H 0.4671 1.1997 0.6914
H31 H 0.3939 1.1642 0.7394
H32 H 0.3555 1.1555 0.6763
H33 H 0.461(3) 0.8408(19) 0.6657(16)
H34 H 0.379(4) 0.984(2) 0.6452(19)
H35 H 0.561(3) 0.893(2) 0.5536(17)
H36 H 0.625(5) 0.991(3) 0.642(3)
loop_
_geom_bond_atom_site_label_1
_geom_bond_atom_site_label_2
_geom_bond_site_symmetry_1
_geom_bond_site_symmetry_2
N1 C1 1_555 1_555
N2 C5 1_555 1_555
N3 C2 1_555 1_555
N4 C3 1_555 1_555
O1 C19 1_555 1_555
C1 C4 1_555 1_555
C2 C15 1_555 1_555
C3 C6 1_555 1_555
O2 C14 1_555 1_555
C4 H1 1_555 1_555
C5 C7 1_555 1_555
C6 H2 1_555 1_555
C7 C12 1_555 1_555
C8 C11 1_555 1_555
C9 C6 1_555 1_555
H3 C9 1_555 1_555
C10 C5 1_555 1_555
H4 C10 1_555 1_555
C11 N2 1_555 1_555
C12 N3 1_555 1_555
C13 C3 1_555 1_555
C14 C8 1_555 1_555
C15 H5 1_555 1_555
C16 C7 1_555 1_555
H6 C16 1_555 1_555
H7 C16 1_555 1_555
H8 C16 1_555 1_555
C17 C13 1_555 1_555
H9 C17 1_555 1_555
H10 C17 1_555 1_555
H11 C17 1_555 1_555
C18 C8 1_555 1_555
H12 C18 1_555 1_555
H13 C18 1_555 1_555
H14 C18 1_555 1_555
C19 C28 1_555 1_555
C20 C12 1_555 1_555
H15 C20 1_555 1_555
C21 N4 1_555 1_555
C22 C10 1_555 1_555
H16 C22 1_555 1_555
C23 C7 1_555 1_555
H17 C23 1_555 1_555
H18 C23 1_555 1_555
H19 C23 1_555 1_555
C24 C4 1_555 1_555
H20 C24 1_555 1_555
C25 N1 1_555 1_555
C26 H21 1_555 1_555
H22 C26 1_555 1_555
H23 C26 1_555 1_555
C27 C14 1_555 1_555
H24 C27 1_555 1_555
H25 C27 1_555 1_555
H26 C27 1_555 1_555
C28 C1 1_555 1_555
C29 C19 1_555 1_555
H27 C29 1_555 1_555
H28 C29 1_555 1_555
H29 C29 1_555 1_555
C30 C13 1_555 1_555
H30 C30 1_555 1_555
H31 C30 1_555 1_555
H32 C30 1_555 1_555
H33 N2 1_555 1_555
H34 N4 1_555 1_555
H35 N3 1_555 1_555
H36 N1 1_555 1_555
C2 C28 1_555 1_555
C8 C21 1_555 1_555
C9 C21 1_555 1_555
C11 C22 1_555 1_555
C13 C25 1_555 1_555
C15 C20 1_555 1_555
C24 C25 1_555 1_555
C26 C28 1_555 1_555

#END
