
#######################################################################
#
#                 Cambridge Crystallographic Data Centre
#                                CCDC 
#
#######################################################################
#
# If this CIF has been generated from an entry in the Cambridge 
# Structural Database, then it will include bibliographic, chemical, 
# crystal, experimental, refinement or atomic coordinate data resulting 
# from the CCDC's data processing and validation procedures.
#
#######################################################################

data_EPIYEJ
_chemical_formula_moiety         'C64 H64 N4 Na4 O10'
_chemical_name_systematic        
'tetrakis(\m-2-(((2-methoxyphenyl)imino)methyl)phenolato)-bis(tetrahydrofuran)-tetra-sodium unknown solvate'
_symmetry_cell_setting           triclinic
_symmetry_space_group_name_H-M   'P -1'
_symmetry_Int_Tables_number      2
_space_group_name_Hall           '-P 1'
loop_
_symmetry_equiv_pos_site_id
_symmetry_equiv_pos_as_xyz
1 x,y,z
2 -x,-y,-z
_cell_length_a                   12.3496(2)
_cell_length_b                   22.1400(5)
_cell_length_c                   24.1563(5)
_cell_angle_alpha                94.865(2)
_cell_angle_beta                 98.374(2)
_cell_angle_gamma                99.712(2)
_cell_volume                     6400.11
_exptl_crystal_colour            colorless
_exptl_crystal_description       parallel
_cell_formula_units_Z            4
loop_
_atom_site_label
_atom_site_type_symbol
_atom_site_fract_x
_atom_site_fract_y
_atom_site_fract_z
Na1 Na -0.10108(8) 0.28518(5) 0.75571(5)
Na2 Na 0.07213(9) 0.24861(5) 0.84050(5)
Na3 Na 0.06946(8) 0.40671(5) 0.83814(5)
Na4 Na 0.16583(8) 0.34060(5) 0.74960(5)
O1 O -0.05995(15) 0.31745(9) 0.84796(8)
O2 O -0.22769(16) 0.23319(10) 0.67801(9)
O3 O 0.05637(15) 0.24496(9) 0.74151(8)
O4 O -0.01001(16) 0.18722(10) 0.90763(9)
O5 O 0.20110(15) 0.33902(9) 0.84223(8)
O6 O 0.22285(16) 0.35772(10) 0.66528(9)
O7 O -0.00136(15) 0.37944(9) 0.74268(8)
O8 O 0.21561(15) 0.48695(9) 0.89353(8)
O9 O 0.20177(17) 0.18140(10) 0.84943(10)
O10 O -0.05695(16) 0.47119(10) 0.86343(9)
N1 N -0.28525(19) 0.26950(11) 0.77736(11)
N2 N -0.09053(19) 0.16764(11) 0.79856(10)
N3 N 0.36333(19) 0.35914(11) 0.76044(10)
N4 N 0.19442(18) 0.46908(10) 0.78179(10)
C1 C -0.1177(2) 0.31452(13) 0.88868(12)
C2 C -0.0652(3) 0.33473(14) 0.94529(13)
H1 H 0.0108 0.3506 0.9520
C3 C -0.1204(3) 0.33196(16) 0.99010(14)
H2 H -0.0822 0.3465 1.0261
C4 C -0.2345(3) 0.30726(16) 0.98216(14)
H3 H -0.2726 0.3046 1.0126
C5 C -0.2884(3) 0.28727(14) 0.92882(14)
H4 H -0.3640 0.2705 0.9238
C6 C -0.2358(2) 0.29064(13) 0.88083(13)
C7 C -0.3065(2) 0.26705(13) 0.82760(13)
H5 H -0.3779 0.2472 0.8302
C8 C -0.3706(2) 0.24295(13) 0.73123(13)
C9 C -0.4843(2) 0.23706(14) 0.73393(15)
H6 H -0.5067 0.2497 0.7675
C10 C -0.5637(3) 0.21268(16) 0.68752(16)
H7 H -0.6389 0.2089 0.6901
C11 C -0.5320(3) 0.19400(16) 0.63754(16)
H8 H -0.5857 0.1772 0.6065
C12 C -0.4194(3) 0.20030(15) 0.63361(14)
H9 H -0.3977 0.1880 0.5998
C13 C -0.3400(2) 0.22479(13) 0.67979(13)
C14 C -0.1946(3) 0.21828(17) 0.62483(14)
H10 H -0.2168 0.1748 0.6136
H11 H -0.1152 0.2296 0.6282
H12 H -0.2296 0.2405 0.5971
C15 C 0.0499(2) 0.19551(13) 0.70813(12)
C16 C 0.1160(2) 0.19423(14) 0.66464(13)
H13 H 0.1669 0.2294 0.6617
C17 C 0.1077(3) 0.14293(15) 0.62672(13)
H14 H 0.1523 0.1444 0.5988
C18 C 0.0335(3) 0.08901(14) 0.62950(13)
H15 H 0.0277 0.0545 0.6037
C19 C -0.0311(2) 0.08804(14) 0.67132(13)
H16 H -0.0807 0.0520 0.6734
C20 C -0.0255(2) 0.13907(13) 0.71114(12)
C21 C -0.0945(2) 0.13020(13) 0.75447(12)
H17 H -0.1468 0.0938 0.7499
C22 C -0.1635(2) 0.14953(13) 0.83676(13)
C23 C -0.2753(2) 0.12407(13) 0.82002(14)
H18 H -0.3048 0.1165 0.7819
C24 C -0.3435(3) 0.10979(15) 0.85981(16)
H19 H -0.4184 0.0926 0.8483
C25 C -0.3001(3) 0.12119(16) 0.91624(16)
H20 H -0.3458 0.1114 0.9428
C26 C -0.1897(3) 0.14692(15) 0.93374(15)
H21 H -0.1612 0.1545 0.9720
C27 C -0.1209(2) 0.16161(13) 0.89450(13)
C28 C 0.0387(3) 0.19919(17) 0.96613(14)
H22 H -0.0026 0.1715 0.9873
H23 H 0.0367 0.2409 0.9797
H24 H 0.1145 0.1932 0.9705
C29 C 0.2919(2) 0.34759(12) 0.87872(12)
C30 C 0.2871(2) 0.34262(14) 0.93629(13)
H25 H 0.2176 0.3329 0.9472
C31 C 0.3804(3) 0.35151(15) 0.97707(13)
H26 H 0.3727 0.3483 1.0145
C32 C 0.4858(2) 0.36528(14) 0.96264(14)
H27 H 0.5493 0.3706 0.9898
C33 C 0.4941(2) 0.37083(14) 0.90724(13)
H28 H 0.5647 0.3809 0.8977
C34 C 0.4012(2) 0.36200(13) 0.86395(12)
C35 C 0.4274(2) 0.36881(13) 0.80815(13)
H29 H 0.5024 0.3823 0.8067
C36 C 0.4089(2) 0.37042(13) 0.71069(13)
C37 C 0.5224(3) 0.38097(16) 0.70705(15)
H30 H 0.5740 0.3818 0.7393
C38 C 0.5599(3) 0.39036(18) 0.65627(17)
H31 H 0.6358 0.3976 0.6549
C39 C 0.4844(3) 0.38886(16) 0.60824(16)
H32 H 0.5093 0.3949 0.5743
C40 C 0.3713(3) 0.37838(15) 0.61008(14)
H33 H 0.3204 0.3776 0.5775
C41 C 0.3345(2) 0.36900(13) 0.66058(13)
C42 C 0.1440(3) 0.34749(16) 0.61413(13)
H34 H 0.1523 0.3837 0.5948
H35 H 0.0699 0.3388 0.6228
H36 H 0.1569 0.3131 0.5906
C43 C -0.0151(2) 0.41174(12) 0.70089(12)
C44 C -0.1093(2) 0.39494(13) 0.65772(13)
H37 H -0.1645 0.3620 0.6613
C45 C -0.1214(3) 0.42576(14) 0.61096(13)
H38 H -0.1840 0.4128 0.5834
C46 C -0.0421(3) 0.47612(14) 0.60376(13)
H39 H -0.0502 0.4963 0.5716
C47 C 0.0482(2) 0.49505(13) 0.64558(13)
H40 H 0.1008 0.5291 0.6415
C48 C 0.0642(2) 0.46500(13) 0.69429(12)
C49 C 0.1646(2) 0.48920(13) 0.73462(12)
H41 H 0.2123 0.5227 0.7254
C50 C 0.2999(2) 0.49648(12) 0.81275(13)
C51 C 0.3943(2) 0.51243(13) 0.78788(14)
H42 H 0.3879 0.5079 0.7488
C52 C 0.4981(2) 0.53505(14) 0.82079(15)
H43 H 0.5605 0.5459 0.8039
C53 C 0.5072(2) 0.54109(14) 0.87819(15)
H44 H 0.5766 0.5557 0.9001
C54 C 0.4155(2) 0.52593(14) 0.90444(14)
H45 H 0.4230 0.5309 0.9435
C55 C 0.3116(2) 0.50316(13) 0.87164(13)
C56 C 0.2231(3) 0.49729(16) 0.95310(13)
H46 H 0.2844 0.5301 0.9680
H47 H 0.2346 0.4603 0.9694
H48 H 0.1553 0.5084 0.9620
C57 C 0.1657(3) 0.11562(15) 0.84302(16)
H49 H 0.0854 0.1051 0.8327
H50 H 0.1874 0.0989 0.8780
C58 C 0.2211(3) 0.09034(16) 0.79746(17)
H51 H 0.1798 0.0919 0.7604
H52 H 0.2303 0.0482 0.8017
C59 C 0.3328(3) 0.13437(16) 0.80760(18)
H53 H 0.3838 0.1234 0.8380
H54 H 0.3668 0.1351 0.7739
C60 C 0.2996(3) 0.19520(15) 0.82332(16)
H55 H 0.3593 0.2218 0.8493
H56 H 0.2833 0.2158 0.7901
C61 C -0.1523(2) 0.45302(16) 0.81997(14)
H57 H -0.1681 0.4086 0.8106
H58 H -0.1399 0.4723 0.7863
C62 C -0.2475(2) 0.47471(15) 0.84415(14)
H59 H -0.2498 0.5174 0.8386
H60 H -0.3185 0.4492 0.8275
C63 C -0.2187(2) 0.46727(16) 0.90559(14)
H61 H -0.2434 0.4251 0.9128
H62 H -0.2516 0.4947 0.9288
C64 C -0.0925(2) 0.48444(14) 0.91648(13)
H63 H -0.0690 0.5278 0.9301
H64 H -0.0611 0.4604 0.9443
Na5 Na -0.16204(9) 0.25115(5) 1.23112(5)
Na6 Na -0.21816(9) 0.14102(5) 1.31711(5)
Na7 Na -0.03848(8) 0.24930(5) 1.36662(5)
Na8 Na 0.00754(9) 0.16884(5) 1.25422(5)
O11 O -0.22316(15) 0.24278(9) 1.31800(8)
O12 O -0.29984(16) 0.04609(9) 1.34451(10)
O13 O -0.02687(15) 0.14349(9) 1.34163(8)
O14 O -0.09610(16) 0.30638(10) 1.44585(9)
O15 O 0.02701(15) 0.26956(9) 1.28368(8)
O16 O 0.07533(17) 0.09077(9) 1.20737(10)
O17 O -0.18417(15) 0.14039(9) 1.22570(8)
O18 O -0.08557(16) 0.33011(9) 1.17260(9)
O19 O 0.13784(16) 0.26746(11) 1.42007(9)
O20 O -0.32927(17) 0.27344(11) 1.18237(9)
N5 N -0.40775(19) 0.13893(11) 1.32776(10)
N6 N -0.13806(19) 0.18470(11) 1.42885(10)
N7 N 0.19668(19) 0.20223(11) 1.24201(10)
N8 N -0.07151(19) 0.21220(11) 1.15236(10)
C65 C -0.2955(2) 0.27611(13) 1.32932(11)
C66 C -0.2689(2) 0.34109(14) 1.33266(12)
H65 H -0.1981 0.3589 1.3271
C67 C -0.3417(2) 0.37948(14) 1.34358(13)
H66 H -0.3198 0.4220 1.3450
C68 C -0.4481(3) 0.35480(14) 1.35246(14)
H67 H -0.4984 0.3803 1.3595
C69 C -0.4772(2) 0.29184(14) 1.35060(13)
H68 H -0.5482 0.2754 1.3569
C70 C -0.4053(2) 0.25117(13) 1.33976(12)
C71 C -0.4498(2) 0.18629(13) 1.34033(12)
H69 H -0.5192 0.1779 1.3515
C72 C -0.4720(2) 0.07987(13) 1.32956(12)
C73 C -0.5873(2) 0.06616(14) 1.32134(13)
H70 H -0.6274 0.0977 1.3157
C74 C -0.6443(3) 0.00631(15) 1.32134(14)
H71 H -0.7218 -0.0019 1.3150
C75 C -0.5865(3) -0.04086(15) 1.33069(15)
H72 H -0.6245 -0.0806 1.3317
C76 C -0.4709(3) -0.02859(14) 1.33855(14)
H73 H -0.4315 -0.0604 1.3443
C77 C -0.4140(2) 0.03093(14) 1.33785(13)
C78 C -0.2383(3) -0.00307(15) 1.34960(18)
H74 H -0.2491 -0.0213 1.3835
H75 H -0.1606 0.0129 1.3509
H76 H -0.2641 -0.0337 1.3178
C79 C 0.0215(2) 0.11577(13) 1.38069(12)
C80 C 0.1151(2) 0.08843(14) 1.37264(13)
H77 H 0.1425 0.0916 1.3389
C81 C 0.1666(3) 0.05761(15) 1.41250(14)
H78 H 0.2288 0.0414 1.4057
C82 C 0.1272(3) 0.05013(15) 1.46313(14)
H79 H 0.1607 0.0280 1.4896
C83 C 0.0380(3) 0.07624(14) 1.47286(13)
H80 H 0.0109 0.0711 1.5065
C84 C -0.0145(2) 0.11040(13) 1.43449(13)
C85 C -0.0983(2) 0.14197(14) 1.45303(12)
H81 H -0.1257 0.1303 1.4852
C86 C -0.2152(2) 0.21414(15) 1.45391(12)
C87 C -0.3127(2) 0.18281(17) 1.46763(13)
H82 H -0.3281 0.1399 1.4628
C88 C -0.3882(3) 0.21542(19) 1.48868(14)
H83 H -0.4536 0.1941 1.4979
C89 C -0.3667(3) 0.27841(18) 1.49579(14)
H84 H -0.4174 0.2997 1.5099
C90 C -0.2692(3) 0.31083(16) 1.48206(13)
H85 H -0.2544 0.3537 1.4869
C91 C -0.1947(2) 0.27865(15) 1.46117(12)
C92 C -0.0615(3) 0.37091(15) 1.46003(16)
H86 H -0.0930 0.3840 1.4920
H87 H -0.0862 0.3919 1.4287
H88 H 0.0183 0.3806 1.4689
C93 C 0.1026(2) 0.31709(13) 1.28229(11)
C94 C 0.0872(2) 0.37746(13) 1.30125(12)
H89 H 0.0223 0.3815 1.3153
C95 C 0.1632(2) 0.42964(13) 1.29972(13)
H90 H 0.1484 0.4678 1.3122
C96 C 0.2628(2) 0.42637(14) 1.27966(13)
H91 H 0.3149 0.4618 1.2789
C97 C 0.2815(2) 0.36929(14) 1.26102(13)
H92 H 0.3474 0.3668 1.2474
C98 C 0.2058(2) 0.31451(13) 1.26154(12)
C99 C 0.2401(2) 0.25870(13) 1.24022(12)
H93 H 0.3027 0.2648 1.2227
C100 C 0.2500(2) 0.15605(13) 1.21974(12)
C101 C 0.3636(2) 0.16409(14) 1.21659(13)
H94 H 0.4085 0.2022 1.2294
C102 C 0.4109(3) 0.11679(15) 1.19496(14)
H95 H 0.4864 0.1236 1.1927
C103 C 0.3461(3) 0.05959(15) 1.17673(15)
H96 H 0.3776 0.0278 1.1619
C104 C 0.2336(3) 0.04954(15) 1.18063(14)
H97 H 0.1898 0.0108 1.1689
C105 C 0.1864(2) 0.09737(13) 1.20216(13)
C106 C 0.0102(3) 0.02969(16) 1.1997(2)
H98 H 0.0086 0.0113 1.1620
H99 H -0.0644 0.0317 1.2056
H100 H 0.0427 0.0052 1.2261
C107 C -0.2361(2) 0.10775(12) 1.17987(12)
C108 C -0.3276(2) 0.05953(13) 1.18040(13)
H101 H -0.3505 0.0521 1.2146
C109 C -0.3837(3) 0.02343(14) 1.13245(14)
H102 H -0.4434 -0.0075 1.1350
C110 C -0.3529(3) 0.03222(16) 1.08013(15)
H103 H -0.3907 0.0075 1.0477
C111 C -0.2649(3) 0.07855(15) 1.07798(14)
H104 H -0.2433 0.0847 1.0433
C112 C -0.2062(2) 0.11704(13) 1.12579(13)
C113 C -0.1202(2) 0.16630(13) 1.11670(12)
H105 H -0.0981 0.1644 1.0815
C114 C 0.0089(2) 0.25676(13) 1.13512(12)
C115 C 0.0961(2) 0.24269(14) 1.10915(13)
H106 H 0.1018 0.2016 1.1012
C116 C 0.1749(2) 0.28847(15) 1.09478(13)
H107 H 0.2322 0.2783 1.0769
C117 C 0.1672(2) 0.34953(15) 1.10735(14)
H108 H 0.2200 0.3805 1.0980
C118 C 0.0820(2) 0.36518(14) 1.13367(13)
H109 H 0.0776 0.4064 1.1419
C119 C 0.0034(2) 0.31940(13) 1.14765(12)
C120 C -0.1051(3) 0.39199(14) 1.17881(15)
H110 H -0.0690 0.4153 1.1527
H111 H -0.0756 0.4106 1.2165
H112 H -0.1837 0.3917 1.1714
C121 C 0.1589(3) 0.26742(16) 1.47991(13)
H113 H 0.0914 0.2507 1.4937
H114 H 0.1868 0.3089 1.4983
C122 C 0.2456(3) 0.22706(18) 1.49082(15)
H115 H 0.2902 0.2387 1.5279
H116 H 0.2113 0.1839 1.4874
C123 C 0.3142(3) 0.2399(2) 1.44528(16)
H117 H 0.3467 0.2046 1.4347
H118 H 0.3734 0.2753 1.4574
C124 C 0.2318(2) 0.25284(16) 1.39636(14)
H119 H 0.2652 0.2872 1.3783
H120 H 0.2091 0.2169 1.3686
C125 C -0.4164(2) 0.30505(16) 1.19641(14)
H121 H -0.3875 0.3486 1.2073
H122 H -0.4486 0.2878 1.2272
C126 C -0.5024(2) 0.29548(15) 1.14361(14)
H123 H -0.5435 0.3291 1.1416
H124 H -0.5541 0.2568 1.1412
C127 C -0.4300(3) 0.29448(16) 1.09799(14)
H125 H -0.4723 0.2739 1.0625
H126 H -0.3953 0.3358 1.0926
C128 C -0.3450(3) 0.25823(17) 1.12233(15)
H127 H -0.3719 0.2143 1.1123
H128 H -0.2755 0.2696 1.1083
loop_
_geom_bond_atom_site_label_1
_geom_bond_atom_site_label_2
_geom_bond_site_symmetry_1
_geom_bond_site_symmetry_2
Na1 O1 1_555 1_555
Na2 O1 1_555 1_555
Na3 O1 1_555 1_555
Na4 O3 1_555 1_555
O1 C1 1_555 1_555
O2 Na1 1_555 1_555
O3 Na1 1_555 1_555
O4 Na2 1_555 1_555
O5 Na2 1_555 1_555
O6 Na4 1_555 1_555
O7 Na1 1_555 1_555
O8 Na3 1_555 1_555
O9 Na2 1_555 1_555
O10 Na3 1_555 1_555
N1 Na1 1_555 1_555
N2 Na2 1_555 1_555
N3 Na4 1_555 1_555
N4 Na3 1_555 1_555
C1 C2 1_555 1_555
C2 H1 1_555 1_555
C3 C2 1_555 1_555
H2 C3 1_555 1_555
C4 C3 1_555 1_555
H3 C4 1_555 1_555
C5 C4 1_555 1_555
H4 C5 1_555 1_555
C6 C1 1_555 1_555
C7 N1 1_555 1_555
H5 C7 1_555 1_555
C8 N1 1_555 1_555
C9 C8 1_555 1_555
H6 C9 1_555 1_555
C10 C9 1_555 1_555
H7 C10 1_555 1_555
C11 C10 1_555 1_555
H8 C11 1_555 1_555
C12 C11 1_555 1_555
H9 C12 1_555 1_555
C13 O2 1_555 1_555
C14 O2 1_555 1_555
H10 C14 1_555 1_555
H11 C14 1_555 1_555
H12 C14 1_555 1_555
C15 O3 1_555 1_555
C16 C15 1_555 1_555
H13 C16 1_555 1_555
C17 C16 1_555 1_555
H14 C17 1_555 1_555
C18 C17 1_555 1_555
H15 C18 1_555 1_555
C19 C18 1_555 1_555
H16 C19 1_555 1_555
C20 C15 1_555 1_555
C21 N2 1_555 1_555
H17 C21 1_555 1_555
C22 N2 1_555 1_555
C23 C22 1_555 1_555
H18 C23 1_555 1_555
C24 C23 1_555 1_555
H19 C24 1_555 1_555
C25 C24 1_555 1_555
H20 C25 1_555 1_555
C26 C25 1_555 1_555
H21 C26 1_555 1_555
C27 O4 1_555 1_555
C28 O4 1_555 1_555
H22 C28 1_555 1_555
H23 C28 1_555 1_555
H24 C28 1_555 1_555
C29 O5 1_555 1_555
C30 C29 1_555 1_555
H25 C30 1_555 1_555
C31 C30 1_555 1_555
H26 C31 1_555 1_555
C32 C31 1_555 1_555
H27 C32 1_555 1_555
C33 C32 1_555 1_555
H28 C33 1_555 1_555
C34 C29 1_555 1_555
C35 N3 1_555 1_555
H29 C35 1_555 1_555
C36 N3 1_555 1_555
C37 C36 1_555 1_555
H30 C37 1_555 1_555
C38 C37 1_555 1_555
H31 C38 1_555 1_555
C39 C38 1_555 1_555
H32 C39 1_555 1_555
C40 C39 1_555 1_555
H33 C40 1_555 1_555
C41 O6 1_555 1_555
C42 O6 1_555 1_555
H34 C42 1_555 1_555
H35 C42 1_555 1_555
H36 C42 1_555 1_555
C43 O7 1_555 1_555
C44 C43 1_555 1_555
H37 C44 1_555 1_555
C45 C44 1_555 1_555
H38 C45 1_555 1_555
C46 C45 1_555 1_555
H39 C46 1_555 1_555
C47 C46 1_555 1_555
H40 C47 1_555 1_555
C48 C43 1_555 1_555
C49 N4 1_555 1_555
H41 C49 1_555 1_555
C50 N4 1_555 1_555
C51 C50 1_555 1_555
H42 C51 1_555 1_555
C52 C51 1_555 1_555
H43 C52 1_555 1_555
C53 C52 1_555 1_555
H44 C53 1_555 1_555
C54 C53 1_555 1_555
H45 C54 1_555 1_555
C55 O8 1_555 1_555
C56 O8 1_555 1_555
H46 C56 1_555 1_555
H47 C56 1_555 1_555
H48 C56 1_555 1_555
C57 O9 1_555 1_555
H49 C57 1_555 1_555
H50 C57 1_555 1_555
C58 C57 1_555 1_555
H51 C58 1_555 1_555
H52 C58 1_555 1_555
C59 C58 1_555 1_555
H53 C59 1_555 1_555
H54 C59 1_555 1_555
C60 O9 1_555 1_555
H55 C60 1_555 1_555
H56 C60 1_555 1_555
C61 O10 1_555 1_555
H57 C61 1_555 1_555
H58 C61 1_555 1_555
C62 C61 1_555 1_555
H59 C62 1_555 1_555
H60 C62 1_555 1_555
C63 C62 1_555 1_555
H61 C63 1_555 1_555
H62 C63 1_555 1_555
C64 O10 1_555 1_555
H63 C64 1_555 1_555
H64 C64 1_555 1_555
Na5 O11 1_555 1_555
Na6 O11 1_555 1_555
Na7 O11 1_555 1_555
Na8 O13 1_555 1_555
O11 C65 1_555 1_555
O12 Na6 1_555 1_555
O13 Na6 1_555 1_555
O14 Na7 1_555 1_555
O15 Na5 1_555 1_555
O16 Na8 1_555 1_555
O17 Na5 1_555 1_555
O18 Na5 1_555 1_555
O19 Na7 1_555 1_555
O20 Na5 1_555 1_555
N5 Na6 1_555 1_555
N6 Na7 1_555 1_555
N7 Na8 1_555 1_555
N8 Na5 1_555 1_555
C65 C66 1_555 1_555
C66 H65 1_555 1_555
C67 C66 1_555 1_555
H66 C67 1_555 1_555
C68 C67 1_555 1_555
H67 C68 1_555 1_555
C69 C68 1_555 1_555
H68 C69 1_555 1_555
C70 C65 1_555 1_555
C71 N5 1_555 1_555
H69 C71 1_555 1_555
C72 N5 1_555 1_555
C73 C72 1_555 1_555
H70 C73 1_555 1_555
C74 C73 1_555 1_555
H71 C74 1_555 1_555
C75 C74 1_555 1_555
H72 C75 1_555 1_555
C76 C75 1_555 1_555
H73 C76 1_555 1_555
C77 O12 1_555 1_555
C78 O12 1_555 1_555
H74 C78 1_555 1_555
H75 C78 1_555 1_555
H76 C78 1_555 1_555
C79 O13 1_555 1_555
C80 C79 1_555 1_555
H77 C80 1_555 1_555
C81 C80 1_555 1_555
H78 C81 1_555 1_555
C82 C81 1_555 1_555
H79 C82 1_555 1_555
C83 C82 1_555 1_555
H80 C83 1_555 1_555
C84 C79 1_555 1_555
C85 N6 1_555 1_555
H81 C85 1_555 1_555
C86 N6 1_555 1_555
C87 C86 1_555 1_555
H82 C87 1_555 1_555
C88 C87 1_555 1_555
H83 C88 1_555 1_555
C89 C88 1_555 1_555
H84 C89 1_555 1_555
C90 C89 1_555 1_555
H85 C90 1_555 1_555
C91 O14 1_555 1_555
C92 O14 1_555 1_555
H86 C92 1_555 1_555
H87 C92 1_555 1_555
H88 C92 1_555 1_555
C93 O15 1_555 1_555
C94 C93 1_555 1_555
H89 C94 1_555 1_555
C95 C94 1_555 1_555
H90 C95 1_555 1_555
C96 C95 1_555 1_555
H91 C96 1_555 1_555
C97 C96 1_555 1_555
H92 C97 1_555 1_555
C98 C93 1_555 1_555
C99 N7 1_555 1_555
H93 C99 1_555 1_555
C100 N7 1_555 1_555
C101 C100 1_555 1_555
H94 C101 1_555 1_555
C102 C101 1_555 1_555
H95 C102 1_555 1_555
C103 C102 1_555 1_555
H96 C103 1_555 1_555
C104 C103 1_555 1_555
H97 C104 1_555 1_555
C105 O16 1_555 1_555
C106 O16 1_555 1_555
H98 C106 1_555 1_555
H99 C106 1_555 1_555
H100 C106 1_555 1_555
C107 O17 1_555 1_555
C108 C107 1_555 1_555
H101 C108 1_555 1_555
C109 C108 1_555 1_555
H102 C109 1_555 1_555
C110 C109 1_555 1_555
H103 C110 1_555 1_555
C111 C110 1_555 1_555
H104 C111 1_555 1_555
C112 C107 1_555 1_555
C113 N8 1_555 1_555
H105 C113 1_555 1_555
C114 N8 1_555 1_555
C115 C114 1_555 1_555
H106 C115 1_555 1_555
C116 C115 1_555 1_555
H107 C116 1_555 1_555
C117 C116 1_555 1_555
H108 C117 1_555 1_555
C118 C117 1_555 1_555
H109 C118 1_555 1_555
C119 O18 1_555 1_555
C120 O18 1_555 1_555
H110 C120 1_555 1_555
H111 C120 1_555 1_555
H112 C120 1_555 1_555
C121 O19 1_555 1_555
H113 C121 1_555 1_555
H114 C121 1_555 1_555
C122 C121 1_555 1_555
H115 C122 1_555 1_555
H116 C122 1_555 1_555
C123 C122 1_555 1_555
H117 C123 1_555 1_555
H118 C123 1_555 1_555
C124 O19 1_555 1_555
H119 C124 1_555 1_555
H120 C124 1_555 1_555
C125 O20 1_555 1_555
H121 C125 1_555 1_555
H122 C125 1_555 1_555
C126 C125 1_555 1_555
H123 C126 1_555 1_555
H124 C126 1_555 1_555
C127 C126 1_555 1_555
H125 C127 1_555 1_555
H126 C127 1_555 1_555
C128 O20 1_555 1_555
H127 C128 1_555 1_555
H128 C128 1_555 1_555
Na2 O3 1_555 1_555
Na3 O5 1_555 1_555
Na3 O7 1_555 1_555
Na4 O5 1_555 1_555
Na4 O7 1_555 1_555
C5 C6 1_555 1_555
C6 C7 1_555 1_555
C8 C13 1_555 1_555
C12 C13 1_555 1_555
C19 C20 1_555 1_555
C20 C21 1_555 1_555
C22 C27 1_555 1_555
C26 C27 1_555 1_555
C33 C34 1_555 1_555
C34 C35 1_555 1_555
C36 C41 1_555 1_555
C40 C41 1_555 1_555
C47 C48 1_555 1_555
C48 C49 1_555 1_555
C50 C55 1_555 1_555
C54 C55 1_555 1_555
C59 C60 1_555 1_555
C63 C64 1_555 1_555
Na6 O17 1_555 1_555
Na7 O13 1_555 1_555
Na7 O15 1_555 1_555
Na8 O15 1_555 1_555
Na8 O17 1_555 1_555
C69 C70 1_555 1_555
C70 C71 1_555 1_555
C72 C77 1_555 1_555
C76 C77 1_555 1_555
C83 C84 1_555 1_555
C84 C85 1_555 1_555
C86 C91 1_555 1_555
C90 C91 1_555 1_555
C97 C98 1_555 1_555
C98 C99 1_555 1_555
C100 C105 1_555 1_555
C104 C105 1_555 1_555
C111 C112 1_555 1_555
C112 C113 1_555 1_555
C114 C119 1_555 1_555
C118 C119 1_555 1_555
C123 C124 1_555 1_555
C127 C128 1_555 1_555

#END
