
#######################################################################
#
#                 Cambridge Crystallographic Data Centre
#                                CCDC 
#
#######################################################################
#
# If this CIF has been generated from an entry in the Cambridge 
# Structural Database, then it will include bibliographic, chemical, 
# crystal, experimental, refinement or atomic coordinate data resulting 
# from the CCDC's data processing and validation procedures.
#
#######################################################################

data_EPOBER
_chemical_formula_moiety         'C15 H20 N2 O2 2+,2(Br1 1-)'
_chemical_name_systematic        
"1,1'-(2,2-bis(hydroxymethyl)propane-1,3-diyl)dipyridinium dibromide"
_symmetry_cell_setting           orthorhombic
_symmetry_space_group_name_H-M   'P b c n'
_symmetry_Int_Tables_number      60
_space_group_name_Hall           '-P 2n 2ab'
loop_
_symmetry_equiv_pos_site_id
_symmetry_equiv_pos_as_xyz
1 x,y,z
2 1/2-x,1/2-y,1/2+z
3 1/2+x,1/2-y,-z
4 -x,y,1/2-z
5 -x,-y,-z
6 1/2+x,1/2+y,1/2-z
7 1/2-x,1/2+y,z
8 x,-y,1/2+z
_cell_length_a                   9.339(8)
_cell_length_b                   15.689(14)
_cell_length_c                   12.461(11)
_cell_angle_alpha                90
_cell_angle_beta                 90
_cell_angle_gamma                90
_cell_volume                     1825.78
_exptl_crystal_colour            colorless
_exptl_crystal_description       prism
_cell_formula_units_Z            4
loop_
_atom_site_label
_atom_site_type_symbol
_atom_site_fract_x
_atom_site_fract_y
_atom_site_fract_z
C1 C 0.6769(5) 0.3407(2) 0.1333(3)
H1 H 0.6497 0.3265 0.2028
C2 C 0.5788(5) 0.3737(3) 0.0639(4)
H2 H 0.4845 0.3813 0.0858
C3 C 0.6186(5) 0.3953(2) -0.0371(4)
H3 H 0.5521 0.4180 -0.0847
C4 C 0.7571(5) 0.3835(3) -0.0680(3)
H4 H 0.7859 0.3989 -0.1368
C5 C 0.8548(4) 0.3488(2) 0.0025(3)
H5 H 0.9489 0.3396 -0.0189
C6 C 0.9159(4) 0.28738(19) 0.1770(3)
H6 H 0.9841 0.2542 0.1357
H7 H 0.8632 0.2481 0.2223
C7 C 1.0000 0.3501(2) 0.2500
C8 C 0.8999(4) 0.40599(18) 0.3153(3)
H8 H 0.9548 0.4392 0.3665
H9 H 0.8498 0.4451 0.2682
N1 N 0.8135(3) 0.32859(16) 0.1014(2)
O1 O 0.7992(3) 0.3540(2) 0.3707(2)
H10 H 0.7914 0.3707 0.4328
C1C C 1.3231(5) 0.3407(2) 0.3667(3)
H1C H 1.3503 0.3265 0.2972
C2C C 1.4212(5) 0.3737(3) 0.4361(4)
H2C H 1.5155 0.3813 0.4142
C3C C 1.3814(5) 0.3953(2) 0.5371(4)
H3C H 1.4479 0.4180 0.5847
C4C C 1.2429(5) 0.3835(3) 0.5680(3)
H4C H 1.2141 0.3989 0.6368
C5C C 1.1452(4) 0.3488(2) 0.4975(3)
H5C H 1.0511 0.3396 0.5189
C6C C 1.0841(4) 0.28738(19) 0.3230(3)
H6C H 1.0159 0.2542 0.3643
H7C H 1.1368 0.2481 0.2777
C8C C 1.1001(4) 0.40599(18) 0.1847(3)
H8C H 1.0452 0.4392 0.1335
H9C H 1.1502 0.4451 0.2318
N1C N 1.1865(3) 0.32859(16) 0.3986(2)
O1C O 1.2008(3) 0.3540(2) 0.1293(2)
H10C H 1.2086 0.3707 0.0672
Br1 Br 0.77440(4) 0.41267(2) 0.61588(3)
loop_
_geom_bond_atom_site_label_1
_geom_bond_atom_site_label_2
_geom_bond_site_symmetry_1
_geom_bond_site_symmetry_2
C1 H1 1_555 1_555
C2 C1 1_555 1_555
H2 C2 1_555 1_555
C3 C2 1_555 1_555
H3 C3 1_555 1_555
C4 C3 1_555 1_555
H4 C4 1_555 1_555
C5 C4 1_555 1_555
H5 C5 1_555 1_555
C6 H6 1_555 1_555
H7 C6 1_555 1_555
C7 C6 1_555 1_555
C8 C7 1_555 1_555
H8 C8 1_555 1_555
H9 C8 1_555 1_555
N1 C1 1_555 1_555
O1 C8 1_555 1_555
H10 O1 1_555 1_555
C1C H1C 1_555 1_555
C2C C1C 1_555 1_555
H2C C2C 1_555 1_555
C3C C2C 1_555 1_555
H3C C3C 1_555 1_555
C4C C3C 1_555 1_555
H4C C4C 1_555 1_555
C5C C4C 1_555 1_555
H5C C5C 1_555 1_555
C6C C7 1_555 1_555
H6C C6C 1_555 1_555
H7C C6C 1_555 1_555
C8C C7 1_555 1_555
H8C C8C 1_555 1_555
H9C C8C 1_555 1_555
N1C C1C 1_555 1_555
O1C C8C 1_555 1_555
H10C O1C 1_555 1_555
C5 N1 1_555 1_555
C6 N1 1_555 1_555
C5C N1C 1_555 1_555
C6C N1C 1_555 1_555

#END
