
#######################################################################
#
#                 Cambridge Crystallographic Data Centre
#                                CCDC 
#
#######################################################################
#
# If this CIF has been generated from an entry in the Cambridge 
# Structural Database, then it will include bibliographic, chemical, 
# crystal, experimental, refinement or atomic coordinate data resulting 
# from the CCDC's data processing and validation procedures.
#
#######################################################################

data_EPOBIV
_chemical_formula_moiety         'C10 H13 Br3 N1 1+,Br1 1-'
_chemical_name_systematic        
'1-(3-Bromo-2,2-bis(bromomethyl)propyl)pyridinium bromide'
_symmetry_cell_setting           monoclinic
_symmetry_space_group_name_H-M   'P 21/c'
_symmetry_Int_Tables_number      14
_space_group_name_Hall           '-P 2ybc'
loop_
_symmetry_equiv_pos_site_id
_symmetry_equiv_pos_as_xyz
1 x,y,z
2 -x,1/2+y,1/2-z
3 -x,-y,-z
4 x,1/2-y,1/2+z
_cell_length_a                   13.284(3)
_cell_length_b                   9.1181(18)
_cell_length_c                   11.576(2)
_cell_angle_alpha                90
_cell_angle_beta                 97.245(7)
_cell_angle_gamma                90
_cell_volume                     1390.95
_exptl_crystal_colour            colorless
_exptl_crystal_description       diamond
_cell_formula_units_Z            4
loop_
_atom_site_label
_atom_site_type_symbol
_atom_site_fract_x
_atom_site_fract_y
_atom_site_fract_z
C1 C 0.1893(5) 0.7529(7) 0.6531(5)
H1 H 0.2201 0.7300 0.7276
C2 C 0.1701(5) 0.8997(7) 0.6230(6)
H2 H 0.1882 0.9743 0.6764
C3 C 0.1242(5) 0.9315(7) 0.5133(6)
H3 H 0.1118 1.0284 0.4909
C4 C 0.0967(5) 0.8200(7) 0.4368(6)
H4 H 0.0644 0.8407 0.3626
C5 C 0.1166(5) 0.6782(7) 0.4696(5)
H5 H 0.0972 0.6031 0.4172
C6 C 0.1819(5) 0.4899(6) 0.6104(5)
H6 H 0.1346 0.4293 0.5606
H7 H 0.1664 0.4779 0.6895
C7 C 0.2903(4) 0.4317(6) 0.6042(5)
C8 C 0.2768(4) 0.2666(6) 0.6286(5)
H8 H 0.2325 0.2248 0.5640
H9 H 0.2428 0.2570 0.6976
C9 C 0.3234(5) 0.4404(6) 0.4824(5)
H10 H 0.2673 0.4088 0.4261
H11 H 0.3787 0.3719 0.4785
C10 C 0.3717(5) 0.5033(6) 0.6906(5)
H12 H 0.3720 0.6079 0.6754
H13 H 0.4374 0.4648 0.6776
N1 N 0.1639(4) 0.6444(5) 0.5763(4)
Br1 Br 0.40030(6) 0.15302(8) 0.65115(7)
Br2 Br 0.36737(6) 0.63521(8) 0.43677(6)
Br3 Br 0.35319(6) 0.47225(8) 0.85261(6)
Br4 Br 0.08066(5) 0.29565(7) 0.33426(5)
loop_
_geom_bond_atom_site_label_1
_geom_bond_atom_site_label_2
_geom_bond_site_symmetry_1
_geom_bond_site_symmetry_2
C1 H1 1_555 1_555
C2 C1 1_555 1_555
H2 C2 1_555 1_555
C3 C2 1_555 1_555
H3 C3 1_555 1_555
C4 C3 1_555 1_555
H4 C4 1_555 1_555
C5 C4 1_555 1_555
H5 C5 1_555 1_555
C6 H6 1_555 1_555
H7 C6 1_555 1_555
C7 C6 1_555 1_555
C8 C7 1_555 1_555
H8 C8 1_555 1_555
H9 C8 1_555 1_555
C9 C7 1_555 1_555
H10 C9 1_555 1_555
H11 C9 1_555 1_555
C10 C7 1_555 1_555
H12 C10 1_555 1_555
H13 C10 1_555 1_555
N1 C1 1_555 1_555
Br1 C8 1_555 1_555
Br2 C9 1_555 1_555
Br3 C10 1_555 1_555
C5 N1 1_555 1_555
C6 N1 1_555 1_555

#END
