
#######################################################################
#
#                 Cambridge Crystallographic Data Centre
#                                CCDC 
#
#######################################################################
#
# If this CIF has been generated from an entry in the Cambridge 
# Structural Database, then it will include bibliographic, chemical, 
# crystal, experimental, refinement or atomic coordinate data resulting 
# from the CCDC's data processing and validation procedures.
#
#######################################################################

data_EPOBOB
_chemical_formula_moiety         
'C48 H48 N32 O16,C18 H24 N2 O2 2+,2(Br1 1-),16(H2 O1)'
_chemical_name_systematic        
"Cucurbit(8)uril 1,1'-((2,2-dimethyl-1,3-dioxane-5,5-diyl)bis(methylene))dipyridinium clathrate dibromide hexadecahydrate"
_symmetry_cell_setting           monoclinic
_symmetry_space_group_name_H-M   'P 21'
_symmetry_Int_Tables_number      4
_space_group_name_Hall           'P 2yb'
loop_
_symmetry_equiv_pos_site_id
_symmetry_equiv_pos_as_xyz
1 x,y,z
2 -x,1/2+y,-z
_cell_length_a                   18.139(5)
_cell_length_b                   21.311(5)
_cell_length_c                   22.340(6)
_cell_angle_alpha                90
_cell_angle_beta                 90.915(3)
_cell_angle_gamma                90
_cell_volume                     8634.65
_cell_formula_units_Z            4
loop_
_atom_site_label
_atom_site_type_symbol
_atom_site_fract_x
_atom_site_fract_y
_atom_site_fract_z
Br2 Br 0.95408(5) 0.42482(4) 1.01969(3)
Br3 Br 0.50351(6) 0.57078(6) 0.49488(5)
Br5 Br 0.99541(10) 0.67640(9) 0.04833(10)
C1 C 0.9511(3) 0.5620(3) 0.7036(2)
C2 C 0.9622(3) 0.6134(3) 0.6575(2)
H1 H 0.9148 0.6342 0.6496
H2 H 0.9961 0.6449 0.6742
C3 C 0.9455(4) 0.5704(3) 0.5557(2)
H3 H 0.8942 0.5747 0.5601
C4 C 0.9729(4) 0.5435(3) 0.5042(2)
H4 H 0.9411 0.5268 0.4747
C5 C 1.0482(4) 0.5420(3) 0.4976(3)
H5 H 1.0677 0.5254 0.4623
C6 C 1.0950(4) 0.5640(3) 0.5411(3)
H6 H 1.1463 0.5624 0.5357
C7 C 1.0661(3) 0.5887(3) 0.5935(3)
H7 H 1.0977 0.6039 0.6240
C8 C 0.9257(3) 0.5952(3) 0.7609(2)
H8 H 0.8818 0.6201 0.7510
H9 H 0.9112 0.5631 0.7898
C9 C 0.9791(3) 0.6997(3) 0.7801(2)
H10 H 0.9423 0.7164 0.7545
C10 C 1.0310(3) 0.7398(3) 0.8071(3)
H11 H 1.0297 0.7832 0.7997
C11 C 1.0831(4) 0.7149(3) 0.8438(3)
H12 H 1.1169 0.7414 0.8636
C12 C 1.0871(4) 0.6508(3) 0.8525(3)
H13 H 1.1250 0.6334 0.8765
C13 C 1.0347(3) 0.6125(3) 0.8257(2)
H14 H 1.0363 0.5689 0.8321
C14 C 1.0191(3) 0.5220(3) 0.7161(2)
H15 H 1.0624 0.5491 0.7209
H16 H 1.0127 0.4986 0.7534
C15 C 0.9712(3) 0.4372(3) 0.6559(3)
C16 C 0.8878(3) 0.5174(3) 0.6874(3)
H17 H 0.8739 0.4940 0.7233
H18 H 0.8449 0.5422 0.6743
C17 C 0.9597(4) 0.3923(3) 0.7076(3)
H19 H 0.9194 0.3640 0.6978
H20 H 0.9479 0.4159 0.7433
H21 H 1.0044 0.3683 0.7147
C18 C 0.9897(4) 0.4018(3) 0.5993(3)
H22 H 0.9512 0.3714 0.5905
H23 H 1.0364 0.3802 0.6049
H24 H 0.9933 0.4311 0.5662
N1 N 0.9917(3) 0.5906(2) 0.60002(19)
N2 N 0.9813(2) 0.6373(2) 0.79036(18)
O1 O 1.03045(19) 0.47875(17) 0.66747(15)
O2 O 0.9061(2) 0.4742(2) 0.64153(18)
C19 C 0.5065(3) 0.6107(3) 0.1537(2)
C20 C 0.4991(4) 0.6789(3) 0.1623(3)
H25 H 0.4698 0.6958 0.1287
H26 H 0.5483 0.6977 0.1602
C21 C 0.3907(3) 0.6995(3) 0.2262(3)
H27 H 0.3614 0.6849 0.1941
C22 C 0.3579(4) 0.7189(3) 0.2768(3)
H28 H 0.3062 0.7200 0.2791
C23 C 0.4011(5) 0.7369(4) 0.3247(3)
H29 H 0.3791 0.7488 0.3608
C24 C 0.4748(4) 0.7375(4) 0.3199(3)
H30 H 0.5043 0.7516 0.3521
C25 C 0.5066(4) 0.7179(3) 0.2690(3)
H31 H 0.5583 0.7161 0.2667
C26 C 0.5559(4) 0.5826(3) 0.2059(3)
H32 H 0.6046 0.6024 0.2045
H33 H 0.5339 0.5942 0.2442
C27 C 0.5213(4) 0.4791(3) 0.2362(3)
H34 H 0.4871 0.4982 0.2617
C28 C 0.5243(4) 0.4125(3) 0.2318(3)
H35 H 0.4892 0.3873 0.2509
C29 C 0.5787(4) 0.3866(4) 0.1996(3)
H36 H 0.5837 0.3427 0.1988
C30 C 0.6266(4) 0.4229(4) 0.1679(3)
H37 H 0.6636 0.4044 0.1448
C31 C 0.6189(3) 0.4895(4) 0.1709(4)
H38 H 0.6505 0.5158 0.1493
C32 C 0.5435(5) 0.6035(3) 0.0914(3)
H39 H 0.5184 0.6307 0.0622
H40 H 0.5951 0.6168 0.0945
C33 C 0.4675(5) 0.5160(4) 0.0665(3)
C34 C 0.4302(4) 0.5774(4) 0.1489(3)
H41 H 0.4089 0.5750 0.1889
H42 H 0.3970 0.6027 0.1237
C35 C 0.4768(5) 0.4467(4) 0.0509(4)
H43 H 0.4971 0.4430 0.0111
H44 H 0.4293 0.4260 0.0518
H45 H 0.5100 0.4272 0.0798
C36 C 0.4218(6) 0.5468(4) 0.0211(3)
H46 H 0.4454 0.5437 -0.0175
H47 H 0.4158 0.5907 0.0315
H48 H 0.3739 0.5267 0.0190
N3 N 0.5660(3) 0.5137(3) 0.2050(2)
N4 N 0.4635(3) 0.7008(2) 0.2208(2)
O3 O 0.5403(3) 0.5415(2) 0.07167(19)
O4 O 0.4345(2) 0.5170(2) 0.12504(18)
C37 C 0.7577(3) 0.4780(3) 0.8148(2)
C38 C 0.7398(3) 0.3683(2) 0.8071(2)
H49 H 0.7080 0.3458 0.8355
C39 C 0.6940(3) 0.4020(3) 0.7588(2)
H50 H 0.6409 0.3923 0.7627
C40 C 0.7708(3) 0.3281(3) 0.7139(2)
C41 C 0.6637(3) 0.5185(3) 0.7457(2)
H51 H 0.6692 0.5545 0.7727
H52 H 0.6118 0.5059 0.7457
C42 C 0.6894(4) 0.3870(3) 0.6450(2)
H53 H 0.6357 0.3832 0.6484
H54 H 0.7060 0.3546 0.6172
C43 C 0.7072(3) 0.5964(3) 0.6717(2)
C44 C 0.6612(3) 0.5024(3) 0.6324(2)
H55 H 0.6083 0.4910 0.6333
C45 C 0.6779(3) 0.5481(2) 0.5808(2)
H56 H 0.6324 0.5600 0.5585
C46 C 0.7387(3) 0.4542(3) 0.5647(2)
C47 C 0.7146(3) 0.6621(3) 0.5821(2)
H57 H 0.7259 0.6946 0.6119
H58 H 0.6664 0.6718 0.5639
C48 C 0.7283(3) 0.5263(3) 0.4800(2)
H59 H 0.7462 0.4889 0.4591
H60 H 0.6777 0.5342 0.4660
C49 C 0.8301(3) 0.7042(2) 0.5401(2)
C50 C 0.7538(3) 0.6438(2) 0.4753(2)
H61 H 0.7023 0.6531 0.4631
C51 C 0.8110(3) 0.6813(2) 0.4376(2)
H62 H 0.7870 0.7131 0.4115
C52 C 0.8244(3) 0.5740(3) 0.4186(2)
C53 C 0.9101(3) 0.7608(2) 0.4696(2)
H63 H 0.8884 0.7868 0.4377
H64 H 0.9172 0.7873 0.5050
C54 C 0.8945(3) 0.6448(3) 0.3545(2)
H65 H 0.8750 0.6805 0.3316
H66 H 0.8942 0.6082 0.3280
C55 C 1.0442(3) 0.7526(2) 0.4822(2)
C56 C 0.9935(3) 0.7222(2) 0.3897(2)
H67 H 0.9745 0.7544 0.3615
C57 C 1.0793(3) 0.7161(2) 0.38778(19)
H68 H 1.1005 0.7413 0.3550
C58 C 1.0256(3) 0.6182(2) 0.3644(2)
C59 C 1.1775(3) 0.7491(3) 0.4639(2)
H69 H 1.1799 0.7792 0.4970
H70 H 1.2043 0.7670 0.4302
C60 C 1.1619(3) 0.6237(3) 0.3590(2)
H71 H 1.1529 0.5871 0.3334
H72 H 1.1860 0.6558 0.3347
C61 C 1.2413(3) 0.6863(3) 0.5396(2)
C62 C 1.2552(3) 0.6523(3) 0.4415(2)
H73 H 1.2861 0.6784 0.4152
C63 C 1.3021(3) 0.6088(3) 0.4819(2)
H74 H 1.3547 0.6094 0.4708
C64 C 1.2199(3) 0.5467(2) 0.4288(2)
C65 C 1.3395(3) 0.6238(3) 0.5914(2)
H75 H 1.3389 0.6596 0.6189
H76 H 1.3900 0.6190 0.5772
C66 C 1.3055(3) 0.4909(3) 0.4968(2)
H77 H 1.2878 0.4550 0.4733
H78 H 1.3588 0.4945 0.4909
C67 C 1.2961(3) 0.5692(3) 0.6818(2)
C68 C 1.3403(3) 0.5054(2) 0.6055(2)
H79 H 1.3929 0.5038 0.5944
C69 C 1.3247(3) 0.4647(2) 0.6603(2)
H80 H 1.3703 0.4463 0.6777
C70 C 1.2599(3) 0.4229(3) 0.5771(2)
C71 C 1.2880(3) 0.4946(3) 0.7651(3)
H81 H 1.3364 0.4783 0.7775
H82 H 1.2799 0.5339 0.7869
C72 C 1.2656(3) 0.3568(3) 0.6686(2)
H83 H 1.2479 0.3253 0.6399
H84 H 1.3145 0.3436 0.6831
C73 C 1.1752(3) 0.4667(3) 0.8192(2)
C74 C 1.2420(3) 0.3836(3) 0.7749(2)
H85 H 1.2929 0.3702 0.7852
C75 C 1.1844(3) 0.3564(3) 0.8191(2)
H86 H 1.2089 0.3338 0.8526
C76 C 1.1623(3) 0.3152(3) 0.7236(2)
C77 C 1.0932(3) 0.4092(3) 0.8870(2)
H87 H 1.0873 0.4517 0.9031
H88 H 1.1124 0.3826 0.9194
C78 C 1.0950(3) 0.2643(3) 0.8054(3)
H89 H 1.1185 0.2478 0.8419
H90 H 1.0924 0.2301 0.7762
C79 C 0.9615(3) 0.4244(3) 0.8684(2)
C80 C 1.0020(3) 0.3208(3) 0.8722(2)
H91 H 1.0225 0.3013 0.9091
C81 C 0.9191(3) 0.3202(3) 0.8717(2)
H92 H 0.8999 0.3007 0.9085
C82 C 0.9600(3) 0.2621(2) 0.7896(2)
C83 C 0.8285(3) 0.4091(3) 0.8860(2)
H93 H 0.8354 0.4489 0.9073
H94 H 0.8062 0.3792 0.9137
C84 C 0.8235(3) 0.2715(2) 0.7998(2)
H95 H 0.7960 0.2578 0.8348
H96 H 0.8231 0.2369 0.7710
N5 N 0.7783(2) 0.4190(2) 0.83569(19)
N6 N 0.7079(2) 0.4678(2) 0.76821(18)
N7 N 0.7851(2) 0.3248(2) 0.77287(18)
N8 N 0.7230(3) 0.3766(2) 0.70241(17)
N9 N 0.6835(2) 0.5380(2) 0.68470(18)
N10 N 0.7109(2) 0.6018(2) 0.6116(2)
N11 N 0.7071(2) 0.4487(2) 0.62087(18)
N12 N 0.7274(3) 0.5134(2) 0.54391(18)
N13 N 0.7705(3) 0.6637(2) 0.53570(19)
N14 N 0.8582(2) 0.7097(2) 0.48393(18)
N15 N 0.7740(2) 0.5794(2) 0.46370(19)
N16 N 0.8461(2) 0.6326(2) 0.40381(18)
N17 N 0.9799(2) 0.7383(2) 0.45084(19)
N18 N 1.1012(2) 0.73955(19) 0.44616(17)
N19 N 0.9700(2) 0.6583(2) 0.37229(18)
N20 N 1.0909(2) 0.6482(2) 0.37896(17)
N21 N 1.2129(2) 0.69013(19) 0.48262(18)
N22 N 1.2907(3) 0.6369(2) 0.54059(18)
N23 N 1.2112(3) 0.6059(2) 0.40714(18)
N24 N 1.2698(2) 0.5479(2) 0.47379(18)
N25 N 1.3185(2) 0.5672(2) 0.62381(18)
N26 N 1.2890(3) 0.5080(2) 0.70188(18)
N27 N 1.2927(3) 0.4786(2) 0.55942(19)
N28 N 1.2727(2) 0.4158(2) 0.63826(18)
N29 N 1.2323(2) 0.4501(2) 0.78153(19)
N30 N 1.1463(3) 0.4111(2) 0.8401(2)
N31 N 1.2169(2) 0.3585(2) 0.71781(19)
N32 N 1.1402(2) 0.3137(2) 0.78193(19)
N33 N 1.0214(2) 0.3858(2) 0.86853(19)
N34 N 0.8997(2) 0.3855(2) 0.86825(18)
N35 N 1.0200(2) 0.2844(2) 0.81924(19)
N36 N 0.8985(2) 0.2834(2) 0.81814(17)
O5 O 0.7794(2) 0.52778(19) 0.83309(17)
O6 O 0.7219(2) 0.63904(19) 0.70874(16)
O7 O 0.8535(2) 0.7286(2) 0.58517(16)
O8 O 1.0486(2) 0.77458(18) 0.53240(15)
O9 O 1.2239(2) 0.71713(18) 0.58256(15)
O10 O 1.2795(2) 0.61511(17) 0.70979(17)
O11 O 1.1570(2) 0.51928(19) 0.83295(17)
O12 O 0.9604(2) 0.48145(18) 0.86710(16)
O13 O 0.7962(2) 0.29322(17) 0.67598(14)
O14 O 0.7719(2) 0.41276(18) 0.53882(16)
O15 O 0.8453(2) 0.52493(17) 0.39643(15)
O16 O 1.0207(2) 0.56394(17) 0.34517(16)
O17 O 1.1859(2) 0.50040(19) 0.40910(16)
O18 O 1.2208(2) 0.3882(2) 0.54748(17)
O19 O 1.1375(2) 0.28343(19) 0.68269(16)
O20 O 0.9580(2) 0.22831(17) 0.74517(16)
C85 C 0.5503(3) 0.3898(3) 0.3829(2)
C86 C 0.6044(3) 0.2913(3) 0.3629(2)
H97 H 0.6283 0.2682 0.3964
C87 C 0.5195(3) 0.2850(3) 0.3646(2)
H98 H 0.5042 0.2544 0.3954
C88 C 0.5626(3) 0.2475(3) 0.2729(2)
C89 C 0.4189(3) 0.3627(3) 0.3961(2)
H99 H 0.3989 0.3282 0.4198
H100 H 0.4203 0.4002 0.4216
C90 C 0.4286(3) 0.2413(3) 0.2873(3)
H101 H 0.4080 0.2173 0.3205
H102 H 0.4332 0.2127 0.2531
C91 C 0.3397(3) 0.4319(3) 0.3345(2)
C92 C 0.3333(3) 0.3243(3) 0.3136(2)
H103 H 0.3091 0.2947 0.3413
C93 C 0.2767(3) 0.3592(3) 0.2756(2)
H104 H 0.2260 0.3461 0.2856
C94 C 0.3532(3) 0.2992(3) 0.2152(2)
C95 C 0.2332(3) 0.4715(3) 0.2778(2)
H105 H 0.2439 0.5083 0.3028
H106 H 0.1852 0.4548 0.2896
C96 C 0.2451(3) 0.3453(3) 0.1650(2)
H107 H 0.1970 0.3289 0.1769
H108 H 0.2636 0.3181 0.1332
C97 C 0.2279(3) 0.5541(3) 0.1993(2)
C98 C 0.1905(3) 0.4537(3) 0.1708(2)
H109 H 0.1460 0.4341 0.1878
C99 C 0.1697(3) 0.5007(3) 0.1223(2)
H110 H 0.1156 0.5031 0.1162
C100 C 0.2375(3) 0.4184(3) 0.0806(2)
C101 C 0.1758(3) 0.6189(3) 0.1185(2)
H111 H 0.1227 0.6165 0.1098
H112 H 0.1834 0.6515 0.1489
C102 C 0.1861(3) 0.4962(3) 0.0096(2)
H113 H 0.2004 0.4632 -0.0185
H114 H 0.1323 0.5001 0.0071
C103 C 0.2645(3) 0.6817(2) 0.0631(2)
C104 C 0.1893(3) 0.6160(3) 0.0055(2)
H115 H 0.1352 0.6190 -0.0007
C105 C 0.2310(3) 0.6598(3) -0.0363(2)
H116 H 0.1974 0.6888 -0.0582
C106 C 0.2616(3) 0.5559(3) -0.0596(2)
C107 C 0.3198(3) 0.7505(3) -0.0120(2)
H117 H 0.2902 0.7713 -0.0434
H118 H 0.3233 0.7792 0.0222
C108 C 0.3127(3) 0.6377(3) -0.1254(2)
H119 H 0.3152 0.6037 -0.1548
H120 H 0.2880 0.6734 -0.1449
C109 C 0.4551(3) 0.7519(3) -0.0027(2)
C110 C 0.4062(3) 0.7205(3) -0.0947(2)
H121 H 0.3840 0.7503 -0.1238
C111 C 0.4917(3) 0.7206(2) -0.0981(2)
H122 H 0.5099 0.7502 -0.1287
C112 C 0.4443(3) 0.6212(3) -0.1235(2)
C113 C 0.5875(3) 0.7621(3) -0.0238(2)
H123 H 0.5850 0.7914 0.0099
H124 H 0.6061 0.7852 -0.0583
C114 C 0.5789(3) 0.6332(3) -0.1298(2)
H125 H 0.6010 0.6633 -0.1575
H126 H 0.5730 0.5933 -0.1510
C115 C 0.6741(3) 0.7073(3) 0.0450(2)
C116 C 0.6746(3) 0.6726(3) -0.0542(2)
H127 H 0.6971 0.6982 -0.0860
C117 C 0.7332(3) 0.6358(3) -0.0171(2)
H128 H 0.7834 0.6422 -0.0328
C118 C 0.6510(3) 0.5647(3) -0.0623(2)
C119 C 0.7873(3) 0.6590(3) 0.0868(3)
H129 H 0.8338 0.6674 0.0665
H130 H 0.7806 0.6915 0.1173
C120 C 0.7607(4) 0.5193(3) -0.0111(3)
H131 H 0.8079 0.5285 -0.0299
H132 H 0.7400 0.4819 -0.0306
C121 C 0.7902(3) 0.5920(3) 0.1764(3)
C122 C 0.8252(3) 0.5446(3) 0.0867(2)
H133 H 0.8686 0.5570 0.0630
C123 C 0.8466(3) 0.5011(3) 0.1393(2)
H134 H 0.9008 0.4969 0.1436
C124 C 0.7744(3) 0.4444(3) 0.0703(2)
C125 C 0.8281(3) 0.5135(3) 0.2508(2)
H135 H 0.8113 0.5469 0.2774
H136 H 0.8811 0.5078 0.2578
C126 C 0.8403(3) 0.3828(3) 0.1480(2)
H137 H 0.8937 0.3871 0.1542
H138 H 0.8322 0.3499 0.1180
C127 C 0.7376(3) 0.4579(3) 0.3107(2)
C128 C 0.8225(3) 0.3936(3) 0.2622(2)
H139 H 0.8754 0.3937 0.2736
C129 C 0.7765(3) 0.3542(3) 0.3043(2)
H140 H 0.8080 0.3312 0.3335
C130 C 0.7577(3) 0.3158(3) 0.2071(2)
C131 C 0.6856(3) 0.3859(3) 0.3858(2)
H141 H 0.7124 0.3575 0.4130
H142 H 0.6765 0.4251 0.4073
C132 C 0.6974(3) 0.2545(2) 0.2869(2)
H143 H 0.6962 0.2234 0.2546
H144 H 0.7264 0.2367 0.3202
N37 N 0.6157(3) 0.3575(2) 0.36845(18)
N38 N 0.4954(2) 0.3468(2) 0.3787(2)
N39 N 0.6228(2) 0.2647(2) 0.30675(18)
N40 N 0.5005(2) 0.2631(2) 0.30457(17)
N41 N 0.3712(3) 0.3741(2) 0.3465(2)
N42 N 0.2881(3) 0.4253(2) 0.28857(18)
N43 N 0.3781(2) 0.2910(2) 0.27117(18)
N44 N 0.2943(2) 0.3417(2) 0.21493(19)
N45 N 0.2290(3) 0.4907(2) 0.21512(19)
N46 N 0.1995(2) 0.5598(2) 0.14319(19)
N47 N 0.2349(2) 0.4079(2) 0.14110(17)
N48 N 0.2060(3) 0.4759(2) 0.06930(18)
N49 N 0.2123(3) 0.6377(2) 0.0652(2)
N50 N 0.2824(2) 0.6943(2) 0.00618(19)
N51 N 0.2174(3) 0.5536(2) -0.00989(19)
N52 N 0.2682(2) 0.6171(2) -0.07628(19)
N53 N 0.3919(2) 0.7393(2) -0.03401(19)
N54 N 0.5135(2) 0.7392(2) -0.0379(2)
N55 N 0.3864(3) 0.6561(2) -0.10942(18)
N56 N 0.5084(3) 0.6555(2) -0.11292(19)
N57 N 0.6396(3) 0.7116(2) -0.00834(19)
N58 N 0.7262(2) 0.6620(2) 0.04316(19)
N59 N 0.6291(2) 0.6242(2) -0.07813(19)
N60 N 0.7110(3) 0.5717(3) -0.02157(19)
N61 N 0.7910(3) 0.5979(2) 0.1155(2)
N62 N 0.8156(3) 0.5321(2) 0.1900(2)
N63 N 0.7741(3) 0.5054(2) 0.0523(2)
N64 N 0.8120(3) 0.4410(2) 0.12449(19)
N65 N 0.7898(3) 0.4553(2) 0.26548(19)
N66 N 0.7311(2) 0.3989(2) 0.33314(18)
N67 N 0.8082(2) 0.3625(2) 0.20390(17)
N68 N 0.7351(2) 0.3111(2) 0.26534(16)
O21 O 0.5465(2) 0.4436(2) 0.3961(2)
O22 O 0.3543(2) 0.4808(2) 0.36000(18)
O23 O 0.2495(2) 0.59769(19) 0.23119(17)
O24 O 0.2930(2) 0.7090(2) 0.10774(16)
O25 O 0.4584(2) 0.7697(3) 0.04857(18)
O26 O 0.6594(2) 0.7390(2) 0.09027(16)
O27 O 0.7689(3) 0.6307(2) 0.21159(19)
O28 O 0.7016(2) 0.5043(2) 0.32474(19)
O29 O 0.5625(2) 0.22428(19) 0.22345(15)
O30 O 0.3766(2) 0.2723(2) 0.17035(17)
O31 O 0.2670(2) 0.38396(19) 0.04376(16)
O32 O 0.2886(2) 0.51125(19) -0.08450(16)
O33 O 0.4434(2) 0.56909(19) -0.14759(17)
O34 O 0.6282(3) 0.5152(2) -0.07971(18)
O35 O 0.7455(2) 0.4001(2) 0.04610(17)
O36 O 0.7356(2) 0.28361(19) 0.16505(14)
Br1 Br 1.37734(4) 0.78076(4) 0.48129(3)
Br4? Br 0.52647(13) 0.61573(13) 0.62975(13)
Br6? Br 1.0208(9) 0.7094(8) 0.0101(10)
Br7? Br 0.97714(6) 0.62532(6) 0.12371(6)
Br8? Br 0.9749(9) 0.6158(9) 0.1868(8)
loop_
_geom_bond_atom_site_label_1
_geom_bond_atom_site_label_2
_geom_bond_site_symmetry_1
_geom_bond_site_symmetry_2
C1 C2 1_555 1_555
C2 H1 1_555 1_555
H2 C2 1_555 1_555
C3 H3 1_555 1_555
C4 C3 1_555 1_555
H4 C4 1_555 1_555
C5 C4 1_555 1_555
H5 C5 1_555 1_555
C6 C5 1_555 1_555
H6 C6 1_555 1_555
C7 C6 1_555 1_555
H7 C7 1_555 1_555
C8 C1 1_555 1_555
H8 C8 1_555 1_555
H9 C8 1_555 1_555
C9 H10 1_555 1_555
C10 C9 1_555 1_555
H11 C10 1_555 1_555
C11 C10 1_555 1_555
H12 C11 1_555 1_555
C12 C11 1_555 1_555
H13 C12 1_555 1_555
C13 C12 1_555 1_555
H14 C13 1_555 1_555
C14 C1 1_555 1_555
H15 C14 1_555 1_555
H16 C14 1_555 1_555
C15 C17 1_555 1_555
C16 C1 1_555 1_555
H17 C16 1_555 1_555
H18 C16 1_555 1_555
C17 H19 1_555 1_555
H20 C17 1_555 1_555
H21 C17 1_555 1_555
C18 C15 1_555 1_555
H22 C18 1_555 1_555
H23 C18 1_555 1_555
H24 C18 1_555 1_555
C19 C20 1_555 1_555
C20 H25 1_555 1_555
H26 C20 1_555 1_555
C21 H27 1_555 1_555
C22 C21 1_555 1_555
H28 C22 1_555 1_555
C23 C22 1_555 1_555
H29 C23 1_555 1_555
C24 C23 1_555 1_555
H30 C24 1_555 1_555
C25 C24 1_555 1_555
H31 C25 1_555 1_555
C26 C19 1_555 1_555
H32 C26 1_555 1_555
H33 C26 1_555 1_555
C27 H34 1_555 1_555
C28 C27 1_555 1_555
H35 C28 1_555 1_555
C29 C28 1_555 1_555
H36 C29 1_555 1_555
C30 C29 1_555 1_555
H37 C30 1_555 1_555
C31 C30 1_555 1_555
H38 C31 1_555 1_555
C32 C19 1_555 1_555
H39 C32 1_555 1_555
H40 C32 1_555 1_555
C33 C35 1_555 1_555
C34 C19 1_555 1_555
H41 C34 1_555 1_555
H42 C34 1_555 1_555
C35 H43 1_555 1_555
H44 C35 1_555 1_555
H45 C35 1_555 1_555
C36 C33 1_555 1_555
H46 C36 1_555 1_555
H47 C36 1_555 1_555
H48 C36 1_555 1_555
N1 C2 1_555 1_555
N2 C8 1_555 1_555
N3 C26 1_555 1_555
N4 C20 1_555 1_555
O1 C14 1_555 1_555
O2 C15 1_555 1_555
O3 C32 1_555 1_555
O4 C33 1_555 1_555
C37 N5 1_555 1_555
C38 H49 1_555 1_555
C39 C38 1_555 1_555
H50 C39 1_555 1_555
C40 N7 1_555 1_555
C41 H51 1_555 1_555
H52 C41 1_555 1_555
C42 H53 1_555 1_555
H54 C42 1_555 1_555
C43 N9 1_555 1_555
C44 H55 1_555 1_555
C45 C44 1_555 1_555
H56 C45 1_555 1_555
C46 N11 1_555 1_555
C47 H57 1_555 1_555
H58 C47 1_555 1_555
C48 H59 1_555 1_555
H60 C48 1_555 1_555
C49 N13 1_555 1_555
C50 H61 1_555 1_555
C51 C50 1_555 1_555
H62 C51 1_555 1_555
C52 N15 1_555 1_555
C53 H63 1_555 1_555
H64 C53 1_555 1_555
C54 H65 1_555 1_555
H66 C54 1_555 1_555
C55 N17 1_555 1_555
C56 H67 1_555 1_555
C57 C56 1_555 1_555
H68 C57 1_555 1_555
C58 N19 1_555 1_555
C59 H69 1_555 1_555
H70 C59 1_555 1_555
C60 H71 1_555 1_555
H72 C60 1_555 1_555
C61 N21 1_555 1_555
C62 H73 1_555 1_555
C63 C62 1_555 1_555
H74 C63 1_555 1_555
C64 N23 1_555 1_555
C65 H75 1_555 1_555
H76 C65 1_555 1_555
C66 H77 1_555 1_555
H78 C66 1_555 1_555
C67 N25 1_555 1_555
C68 H79 1_555 1_555
C69 C68 1_555 1_555
H80 C69 1_555 1_555
C70 N27 1_555 1_555
C71 H81 1_555 1_555
H82 C71 1_555 1_555
C72 H83 1_555 1_555
H84 C72 1_555 1_555
C73 N29 1_555 1_555
C74 H85 1_555 1_555
C75 C74 1_555 1_555
H86 C75 1_555 1_555
C76 N31 1_555 1_555
C77 H87 1_555 1_555
H88 C77 1_555 1_555
C78 H89 1_555 1_555
H90 C78 1_555 1_555
C79 N33 1_555 1_555
C80 H91 1_555 1_555
C81 C80 1_555 1_555
H92 C81 1_555 1_555
C82 N35 1_555 1_555
C83 H93 1_555 1_555
H94 C83 1_555 1_555
C84 H95 1_555 1_555
H96 C84 1_555 1_555
C85 N37 1_555 1_555
C86 H97 1_555 1_555
C87 C86 1_555 1_555
H98 C87 1_555 1_555
C88 N39 1_555 1_555
C89 H99 1_555 1_555
H100 C89 1_555 1_555
C90 H101 1_555 1_555
H102 C90 1_555 1_555
C91 N41 1_555 1_555
C92 H103 1_555 1_555
C93 C92 1_555 1_555
H104 C93 1_555 1_555
C94 N43 1_555 1_555
C95 H105 1_555 1_555
H106 C95 1_555 1_555
C96 H107 1_555 1_555
H108 C96 1_555 1_555
C97 N45 1_555 1_555
C98 H109 1_555 1_555
C99 C98 1_555 1_555
H110 C99 1_555 1_555
C100 N47 1_555 1_555
C101 H111 1_555 1_555
H112 C101 1_555 1_555
C102 H113 1_555 1_555
H114 C102 1_555 1_555
C103 N49 1_555 1_555
C104 H115 1_555 1_555
C105 C104 1_555 1_555
H116 C105 1_555 1_555
C106 N51 1_555 1_555
C107 H117 1_555 1_555
H118 C107 1_555 1_555
C108 H119 1_555 1_555
H120 C108 1_555 1_555
C109 N53 1_555 1_555
C110 H121 1_555 1_555
C111 C110 1_555 1_555
H122 C111 1_555 1_555
C112 N55 1_555 1_555
C113 H123 1_555 1_555
H124 C113 1_555 1_555
C114 H125 1_555 1_555
H126 C114 1_555 1_555
C115 N57 1_555 1_555
C116 H127 1_555 1_555
C117 C116 1_555 1_555
H128 C117 1_555 1_555
C118 N59 1_555 1_555
C119 H129 1_555 1_555
H130 C119 1_555 1_555
C120 H131 1_555 1_555
H132 C120 1_555 1_555
C121 N61 1_555 1_555
C122 H133 1_555 1_555
C123 C122 1_555 1_555
H134 C123 1_555 1_555
C124 N63 1_555 1_555
C125 H135 1_555 1_555
H136 C125 1_555 1_555
C126 H137 1_555 1_555
H138 C126 1_555 1_555
C127 N65 1_555 1_555
C128 H139 1_555 1_555
C129 C128 1_555 1_555
H140 C129 1_555 1_555
C130 N67 1_555 1_555
C131 H141 1_555 1_555
H142 C131 1_555 1_555
C132 H143 1_555 1_555
H144 C132 1_555 1_555
N5 C38 1_555 1_555
N6 C37 1_555 1_555
N7 C38 1_555 1_555
N8 C39 1_555 1_555
N9 C41 1_555 1_555
N10 C43 1_555 1_555
N11 C42 1_555 1_555
N12 C45 1_555 1_555
N13 C47 1_555 1_555
N14 C49 1_555 1_555
N15 C48 1_555 1_555
N16 C51 1_555 1_555
N17 C53 1_555 1_555
N18 C55 1_555 1_555
N19 C54 1_555 1_555
N20 C57 1_555 1_555
N21 C59 1_555 1_555
N22 C61 1_555 1_555
N23 C60 1_555 1_555
N24 C63 1_555 1_555
N25 C65 1_555 1_555
N26 C67 1_555 1_555
N27 C66 1_555 1_555
N28 C69 1_555 1_555
N29 C71 1_555 1_555
N30 C73 1_555 1_555
N31 C72 1_555 1_555
N32 C75 1_555 1_555
N33 C77 1_555 1_555
N34 C79 1_555 1_555
N35 C78 1_555 1_555
N36 C81 1_555 1_555
N37 C86 1_555 1_555
N38 C85 1_555 1_555
N39 C86 1_555 1_555
N40 C87 1_555 1_555
N41 C89 1_555 1_555
N42 C91 1_555 1_555
N43 C90 1_555 1_555
N44 C93 1_555 1_555
N45 C95 1_555 1_555
N46 C97 1_555 1_555
N47 C96 1_555 1_555
N48 C99 1_555 1_555
N49 C101 1_555 1_555
N50 C103 1_555 1_555
N51 C102 1_555 1_555
N52 C105 1_555 1_555
N53 C107 1_555 1_555
N54 C109 1_555 1_555
N55 C108 1_555 1_555
N56 C111 1_555 1_555
N57 C113 1_555 1_555
N58 C115 1_555 1_555
N59 C114 1_555 1_555
N60 C117 1_555 1_555
N61 C119 1_555 1_555
N62 C121 1_555 1_555
N63 C120 1_555 1_555
N64 C123 1_555 1_555
N65 C125 1_555 1_555
N66 C127 1_555 1_555
N67 C126 1_555 1_555
N68 C129 1_555 1_555
O5 C37 1_555 1_555
O6 C43 1_555 1_555
O7 C49 1_555 1_555
O8 C55 1_555 1_555
O9 C61 1_555 1_555
O10 C67 1_555 1_555
O11 C73 1_555 1_555
O12 C79 1_555 1_555
O13 C40 1_555 1_555
O14 C46 1_555 1_555
O15 C52 1_555 1_555
O16 C58 1_555 1_555
O17 C64 1_555 1_555
O18 C70 1_555 1_555
O19 C76 1_555 1_555
O20 C82 1_555 1_555
O21 C85 1_555 1_555
O22 C91 1_555 1_555
O23 C97 1_555 1_555
O24 C103 1_555 1_555
O25 C109 1_555 1_555
O26 C115 1_555 1_555
O27 C121 1_555 1_555
O28 C127 1_555 1_555
O29 C88 1_555 1_555
O30 C94 1_555 1_555
O31 C100 1_555 1_555
O32 C106 1_555 1_555
O33 C112 1_555 1_555
O34 C118 1_555 1_555
O35 C124 1_555 1_555
O36 C130 1_555 1_555
C3 N1 1_555 1_555
C7 N1 1_555 1_555
C9 N2 1_555 1_555
C13 N2 1_555 1_555
C15 O1 1_555 1_555
C16 O2 1_555 1_555
C21 N4 1_555 1_555
C25 N4 1_555 1_555
C27 N3 1_555 1_555
C31 N3 1_555 1_555
C33 O3 1_555 1_555
C34 O4 1_555 1_555
C39 N6 1_555 1_555
C40 N8 1_555 1_555
C41 N6 1_555 1_555
C42 N8 1_555 1_555
C44 N9 1_555 1_555
C44 N11 1_555 1_555
C45 N10 1_555 1_555
C46 N12 1_555 1_555
C47 N10 1_555 1_555
C48 N12 1_555 1_555
C50 N13 1_555 1_555
C50 N15 1_555 1_555
C51 N14 1_555 1_555
C52 N16 1_555 1_555
C53 N14 1_555 1_555
C54 N16 1_555 1_555
C56 N17 1_555 1_555
C56 N19 1_555 1_555
C57 N18 1_555 1_555
C58 N20 1_555 1_555
C59 N18 1_555 1_555
C60 N20 1_555 1_555
C62 N21 1_555 1_555
C62 N23 1_555 1_555
C63 N22 1_555 1_555
C64 N24 1_555 1_555
C65 N22 1_555 1_555
C66 N24 1_555 1_555
C68 N25 1_555 1_555
C68 N27 1_555 1_555
C69 N26 1_555 1_555
C70 N28 1_555 1_555
C71 N26 1_555 1_555
C72 N28 1_555 1_555
C74 N29 1_555 1_555
C74 N31 1_555 1_555
C75 N30 1_555 1_555
C76 N32 1_555 1_555
C77 N30 1_555 1_555
C78 N32 1_555 1_555
C80 N33 1_555 1_555
C80 N35 1_555 1_555
C81 N34 1_555 1_555
C82 N36 1_555 1_555
C83 N5 1_555 1_555
C83 N34 1_555 1_555
C84 N7 1_555 1_555
C84 N36 1_555 1_555
C87 N38 1_555 1_555
C88 N40 1_555 1_555
C89 N38 1_555 1_555
C90 N40 1_555 1_555
C92 N41 1_555 1_555
C92 N43 1_555 1_555
C93 N42 1_555 1_555
C94 N44 1_555 1_555
C95 N42 1_555 1_555
C96 N44 1_555 1_555
C98 N45 1_555 1_555
C98 N47 1_555 1_555
C99 N46 1_555 1_555
C100 N48 1_555 1_555
C101 N46 1_555 1_555
C102 N48 1_555 1_555
C104 N49 1_555 1_555
C104 N51 1_555 1_555
C105 N50 1_555 1_555
C106 N52 1_555 1_555
C107 N50 1_555 1_555
C108 N52 1_555 1_555
C110 N53 1_555 1_555
C110 N55 1_555 1_555
C111 N54 1_555 1_555
C112 N56 1_555 1_555
C113 N54 1_555 1_555
C114 N56 1_555 1_555
C116 N57 1_555 1_555
C116 N59 1_555 1_555
C117 N58 1_555 1_555
C118 N60 1_555 1_555
C119 N58 1_555 1_555
C120 N60 1_555 1_555
C122 N61 1_555 1_555
C122 N63 1_555 1_555
C123 N62 1_555 1_555
C124 N64 1_555 1_555
C125 N62 1_555 1_555
C126 N64 1_555 1_555
C128 N65 1_555 1_555
C128 N67 1_555 1_555
C129 N66 1_555 1_555
C130 N68 1_555 1_555
C131 N37 1_555 1_555
C131 N66 1_555 1_555
C132 N39 1_555 1_555
C132 N68 1_555 1_555

#END
