
#######################################################################
#
#                 Cambridge Crystallographic Data Centre
#                                CCDC 
#
#######################################################################
#
# If this CIF has been generated from an entry in the Cambridge 
# Structural Database, then it will include bibliographic, chemical, 
# crystal, experimental, refinement or atomic coordinate data resulting 
# from the CCDC's data processing and validation procedures.
#
#######################################################################

data_EPOFEW
_chemical_formula_moiety         'C50 H46 N4 O4 S4'
_chemical_name_systematic        
"dimethyl 3,3'-(7,8-bis(2,2'-bithiophen-5-yl)-17,18-diethyl-3,12-dimethylporphyrin-2,13-diyl)dipropanoate"
_symmetry_cell_setting           monoclinic
_symmetry_space_group_name_H-M   'P 21/c'
_symmetry_Int_Tables_number      14
_space_group_name_Hall           '-P 2ybc'
loop_
_symmetry_equiv_pos_site_id
_symmetry_equiv_pos_as_xyz
1 x,y,z
2 -x,1/2+y,1/2-z
3 -x,-y,-z
4 x,1/2-y,1/2+z
_cell_length_a                   17.7560(10)
_cell_length_b                   21.9782(12)
_cell_length_c                   11.5593(7)
_cell_angle_alpha                90
_cell_angle_beta                 100.667(4)
_cell_angle_gamma                90
_cell_volume                     4433.01
_exptl_crystal_colour            red
_exptl_crystal_description       plate
_cell_formula_units_Z            4
loop_
_atom_site_label
_atom_site_type_symbol
_atom_site_fract_x
_atom_site_fract_y
_atom_site_fract_z
C1 C 0.2229(3) 0.6330(2) 0.4358(4)
C2 C 0.2182(3) 0.5659(2) 0.4247(5)
C3 C 0.2641(3) 0.5511(2) 0.3450(5)
C4 C 0.2946(3) 0.6076(2) 0.3080(4)
C5 C 0.3430(3) 0.6104(2) 0.2256(4)
H1 H 0.3593 0.5726 0.1992
C6 C 0.3811(3) 0.8239(2) 0.1479(5)
H2 H 0.4113 0.8465 0.1032
C7 C 0.3422(3) 0.8578(2) 0.2195(5)
C8 C 0.3423(3) 0.9243(3) 0.2209(5)
C9 C 0.2990(3) 0.9404(2) 0.2995(5)
C10 C 0.2730(3) 0.8844(2) 0.3458(4)
C11 C 0.2263(3) 0.8816(2) 0.4303(4)
H3 H 0.2100 0.9195 0.4566
C12 C 0.2008(3) 0.8298(2) 0.4805(4)
C13 C 0.1534(3) 0.8255(2) 0.5668(4)
C14 C 0.1436(3) 0.7652(2) 0.5902(4)
C15 C 0.1835(3) 0.7307(2) 0.5162(4)
C16 C 0.1857(3) 0.6675(2) 0.5069(4)
H4 H 0.1580 0.6455 0.5560
S1 S 0.01731(13) 0.34907(8) 0.6370(3)
C17 C 0.0936(3) 0.3688(2) 0.5743(5)
C18 C 0.1275(4) 0.3178(3) 0.5450(6)
H5 H 0.1714 0.3178 0.5088
C19 C 0.0906(4) 0.2634(3) 0.5742(6)
H6 H 0.1074 0.2237 0.5586
C20 C 0.0328(3) 0.2735(2) 0.6232(5)
H7 H 0.0024 0.2425 0.6487
C21 C 0.2767(3) 0.4893(2) 0.2934(4)
C22 C 0.3259(3) 0.4502(3) 0.3279(6)
H8 H 0.3642 0.4549 0.3965
C23 C 0.3195(4) 0.3963(3) 0.2531(6)
H9 H 0.3528 0.3622 0.2685
C24 C 0.2621(3) 0.3997(2) 0.1608(5)
C25 C 0.3843(4) 0.9647(3) 0.1478(6)
H10 H 0.3617 1.0060 0.1433
H11 H 0.3777 0.9483 0.0667
C26 C 0.4694(4) 0.9687(3) 0.1999(7)
H12 H 0.4761 0.9824 0.2818
H13 H 0.4940 0.9978 0.1543
H14 H 0.4930 0.9286 0.1971
C27 C 0.2816(4) 1.0050(3) 0.3368(6)
H15 H 0.2741 1.0319 0.2668
H16 H 0.2332 1.0046 0.3676
C28 C 0.3439(4) 1.0305(3) 0.4286(7)
H17 H 0.3486 1.0062 0.5006
H18 H 0.3316 1.0727 0.4456
H19 H 0.3925 1.0295 0.3999
C29 C 0.1201(3) 0.8789(2) 0.6216(5)
H20 H 0.1523 0.9151 0.6156
H21 H 0.1225 0.8704 0.7063
C30 C 0.0381(3) 0.8939(3) 0.5665(5)
H22 H 0.0063 0.8568 0.5642
H23 H 0.0177 0.9246 0.6153
C31 C 0.0329(4) 0.9183(3) 0.4428(6)
C32 C -0.0217(8) 0.9041(5) 0.2429(7)
H24 H -0.0498 0.9427 0.2363
H25 H -0.0513 0.8738 0.1912
H26 H 0.0281 0.9101 0.2198
O1 O -0.0102(4) 0.8827(2) 0.3642(4)
O2 O 0.0638(3) 0.9638(2) 0.4191(4)
C33 C 0.0989(3) 0.7385(3) 0.6745(4)
H27 H 0.0953 0.7682 0.7366
H28 H 0.1247 0.7018 0.7098
H29 H 0.0473 0.7281 0.6328
N1 N 0.2688(2) 0.65563(19) 0.3618(4)
N2 N 0.2185(2) 0.77124(18) 0.4518(3)
H30 H 0.2475 0.7613 0.4006
N3 N 0.3008(2) 0.83515(19) 0.2972(4)
N4 N 0.3510(2) 0.72049(18) 0.2042(3)
H31 H 0.3238 0.7305 0.2576
C34 C 0.3702(2) 0.6622(2) 0.1779(4)
C35 C 0.4553(4) 0.6127(3) 0.0435(7)
H32 H 0.4208 0.5981 -0.0272
H33 H 0.4642 0.5800 0.1021
H34 H 0.5041 0.6251 0.0230
C36 C 0.4155(3) 0.6662(3) 0.0857(5)
C37 C 0.4215(3) 0.7276(3) 0.0601(5)
C38 C 0.3814(3) 0.7608(3) 0.1334(6)
C39 C 0.4638(4) 0.7555(4) -0.0298(6)
H35 H 0.4307 0.7866 -0.0759
H36 H 0.4743 0.7235 -0.0849
C40 C 0.5402(5) 0.7853(4) 0.0289(8)
H37 H 0.5346 0.8040 0.1048
H38 H 0.5810 0.7541 0.0446
C41 C 0.5616(4) 0.8337(4) -0.0528(7)
C42 C 0.6328(7) 0.8494(5) -0.2044(10)
H39 H 0.6176 0.8916 -0.1942
H40 H 0.6157 0.8371 -0.2866
H41 H 0.6887 0.8459 -0.1838
O3 O 0.5985(6) 0.8107(5) -0.1296(9)
O4 O 0.5477(5) 0.8857(4) -0.0519(8)
S2 S 0.19229(18) 0.44800(14) 0.4896(3)
C43 C 0.1186(7) 0.5327(6) 0.5105(7)
H42 H 0.1023 0.5738 0.5123
C44 C 0.0713(7) 0.4814(5) 0.5463(8)
H43 H 0.0211 0.4844 0.5632
C45 C 0.1716(3) 0.5210(2) 0.4827(5)
C46 C 0.1142(3) 0.4300(2) 0.5497(5)
S3 S 0.21582(9) 0.46846(7) 0.16500(13)
S4 S 0.1787(3) 0.3687(2) -0.0657(5)
C47 C 0.2472(7) 0.3595(5) 0.0586(7)
C48 C 0.2874(9) 0.3081(7) 0.0498(14)
H44 H 0.3280 0.2944 0.1095
C49 C 0.2624(8) 0.2762(6) -0.0592(14)
H45 H 0.2849 0.2394 -0.0792
C50 C 0.2062(7) 0.3028(5) -0.1270(11)
H46 H 0.1826 0.2878 -0.2020
C51? C 0.4339(4) 0.6653(4) 0.1175(6)
C52? C 0.4509(4) 0.7263(4) 0.1089(7)
C53? C 0.3950(8) 0.7607(3) 0.1529(15)
C54? C 0.5149(7) 0.7467(8) 0.0523(11)
H47? H 0.5533 0.7664 0.1139
H48? H 0.5393 0.7098 0.0269
C55? C 0.5008(7) 0.7875(8) -0.0467(12)
H49? H 0.4827 0.8266 -0.0192
H50? H 0.4581 0.7704 -0.1050
C56? C 0.5649(5) 0.8011(4) -0.1092(10)
C57? C 0.6688(9) 0.8637(8) -0.1355(15)
H51? H 0.6550 0.8465 -0.2148
H52? H 0.7238 0.8582 -0.1066
H53? H 0.6565 0.9072 -0.1380
O5? O 0.6251(6) 0.8321(6) -0.0554(10)
O6? O 0.5622(7) 0.7843(6) -0.2072(9)
S5? S 0.1547(3) 0.4530(2) 0.4487(4)
C58? C 0.1415(5) 0.5343(6) 0.6037(10)
H54? H 0.1448 0.5724 0.6430
C59? C 0.1105(6) 0.4823(6) 0.6418(11)
H55? H 0.0902 0.4786 0.7120
S6? S 0.2902(3) 0.29649(17) 0.0504(4)
C60? C 0.2412(6) 0.3618(4) 0.0597(8)
C61? C 0.1851(8) 0.3708(6) -0.0337(12)
H56? H 0.1515 0.4047 -0.0436
C62? C 0.1829(7) 0.3217(6) -0.1174(10)
H57? H 0.1469 0.3196 -0.1892
C63? C 0.2351(6) 0.2806(5) -0.0846(9)
H58? H 0.2420 0.2458 -0.1301
H59? H 0.2935 0.7966 0.3127
H60? H 0.2793 0.6942 0.3516
loop_
_geom_bond_atom_site_label_1
_geom_bond_atom_site_label_2
_geom_bond_site_symmetry_1
_geom_bond_site_symmetry_2
C1 C2 1_555 1_555
C2 C3 1_555 1_555
C3 C4 1_555 1_555
C4 C5 1_555 1_555
C5 H1 1_555 1_555
C6 H2 1_555 1_555
C7 C6 1_555 1_555
C8 C7 1_555 1_555
C9 C8 1_555 1_555
C10 C9 1_555 1_555
C11 C10 1_555 1_555
H3 C11 1_555 1_555
C12 C11 1_555 1_555
C13 C12 1_555 1_555
C14 C13 1_555 1_555
C15 C14 1_555 1_555
C16 C1 1_555 1_555
H4 C16 1_555 1_555
S1 C17 1_555 1_555
C17 C18 1_555 1_555
C18 H5 1_555 1_555
C19 C18 1_555 1_555
H6 C19 1_555 1_555
C20 S1 1_555 1_555
H7 C20 1_555 1_555
C21 C3 1_555 1_555
C22 C21 1_555 1_555
H8 C22 1_555 1_555
C23 C22 1_555 1_555
H9 C23 1_555 1_555
C24 C23 1_555 1_555
C25 C8 1_555 1_555
H10 C25 1_555 1_555
H11 C25 1_555 1_555
C26 C25 1_555 1_555
H12 C26 1_555 1_555
H13 C26 1_555 1_555
H14 C26 1_555 1_555
C27 C9 1_555 1_555
H15 C27 1_555 1_555
H16 C27 1_555 1_555
C28 C27 1_555 1_555
H17 C28 1_555 1_555
H18 C28 1_555 1_555
H19 C28 1_555 1_555
C29 C13 1_555 1_555
H20 C29 1_555 1_555
H21 C29 1_555 1_555
C30 C29 1_555 1_555
H22 C30 1_555 1_555
H23 C30 1_555 1_555
C31 C30 1_555 1_555
C32 H24 1_555 1_555
H25 C32 1_555 1_555
H26 C32 1_555 1_555
O1 C31 1_555 1_555
O2 C31 1_555 1_555
C33 C14 1_555 1_555
H27 C33 1_555 1_555
H28 C33 1_555 1_555
H29 C33 1_555 1_555
N1 C1 1_555 1_555
N2 C12 1_555 1_555
H30 N2 1_555 1_555
N3 C7 1_555 1_555
N4 H31 1_555 1_555
C34 C5 1_555 1_555
C35 H32 1_555 1_555
H33 C35 1_555 1_555
H34 C35 1_555 1_555
C36 C34 1_555 1_555
C37 C36 1_555 1_555
C38 C6 1_555 1_555
C39 C37 1_555 1_555
H35 C39 1_555 1_555
H36 C39 1_555 1_555
C40 C39 1_555 1_555
H37 C40 1_555 1_555
H38 C40 1_555 1_555
C41 C40 1_555 1_555
C42 H39 1_555 1_555
H40 C42 1_555 1_555
H41 C42 1_555 1_555
O3 C41 1_555 1_555
O4 C41 1_555 1_555
S2 C45 1_555 1_555
C43 H42 1_555 1_555
C44 C43 1_555 1_555
H43 C44 1_555 1_555
C45 C2 1_555 1_555
C46 C17 1_555 1_555
S3 C21 1_555 1_555
S4 C47 1_555 1_555
C47 C24 1_555 1_555
C48 C47 1_555 1_555
H44 C48 1_555 1_555
C49 C48 1_555 1_555
H45 C49 1_555 1_555
C50 S4 1_555 1_555
H46 C50 1_555 1_555
C4 N1 1_555 1_555
C10 N3 1_555 1_555
C15 C16 1_555 1_555
C15 N2 1_555 1_555
C19 C20 1_555 1_555
C24 S3 1_555 1_555
C32 O1 1_555 1_555
N4 C34 1_555 1_555
N4 C38 1_555 1_555
C35 C36 1_555 1_555
C37 C38 1_555 1_555
C42 O3 1_555 1_555
S2 C46 1_555 1_555
C43 C45 1_555 1_555
C44 C46 1_555 1_555
C49 C50 1_555 1_555

#END
