
#######################################################################
#
#                 Cambridge Crystallographic Data Centre
#                                CCDC 
#
#######################################################################
#
# If this CIF has been generated from an entry in the Cambridge 
# Structural Database, then it will include bibliographic, chemical, 
# crystal, experimental, refinement or atomic coordinate data resulting 
# from the CCDC's data processing and validation procedures.
#
#######################################################################

data_EPOMIH
_chemical_formula_moiety         'C29 H56 N3 O8 1+,Br1 1-'
_chemical_name_systematic        
'3-(bis(2-t-butoxy-2-oxoethyl)amino)-N-(2-(bis(2-t-butoxy-2-oxoethyl)amino)ethyl)propan-1-aminium bromide'
_symmetry_cell_setting           monoclinic
_symmetry_space_group_name_H-M   'P 21/n'
_symmetry_Int_Tables_number      14
_space_group_name_Hall           '-P 2yn'
loop_
_symmetry_equiv_pos_site_id
_symmetry_equiv_pos_as_xyz
1 x,y,z
2 1/2-x,1/2+y,1/2-z
3 -x,-y,-z
4 1/2+x,1/2-y,1/2+z
_cell_length_a                   11.957(4)
_cell_length_b                   11.822(3)
_cell_length_c                   26.391(4)
_cell_angle_alpha                90
_cell_angle_beta                 94.96(2)
_cell_angle_gamma                90
_cell_volume                     3716.55
_exptl_crystal_colour            colorless
_exptl_crystal_description       prism
_cell_formula_units_Z            4
loop_
_atom_site_label
_atom_site_type_symbol
_atom_site_fract_x
_atom_site_fract_y
_atom_site_fract_z
Br1 Br 0.38832(3) 0.59377(3) 0.698967(16)
C1 C 0.3474(3) 0.5609(4) 0.43887(14)
C2 C 0.4056(4) 0.4650(5) 0.41583(17)
H1 H 0.4709 0.4445 0.4376
H2 H 0.4277 0.4873 0.3832
H3 H 0.3557 0.4014 0.4119
C3 C 0.2443(4) 0.5994(5) 0.40733(19)
H4 H 0.2108 0.6613 0.4240
H5 H 0.1917 0.5380 0.4032
H6 H 0.2644 0.6234 0.3746
C4 C 0.4283(4) 0.6585(5) 0.45073(18)
H7 H 0.4928 0.6317 0.4715
H8 H 0.3917 0.7165 0.4686
H9 H 0.4516 0.6888 0.4196
C5 C 0.2487(3) 0.4462(3) 0.49944(13)
C6 C 0.2582(2) 0.4162(3) 0.55579(11)
H10 H 0.3182 0.3614 0.5621
H11 H 0.2799 0.4837 0.5751
C7 C 0.1226(3) 0.2613(3) 0.55377(12)
H12 H 0.1878 0.2206 0.5441
H13 H 0.0721 0.2729 0.5234
C8 C 0.0642(3) 0.1918(3) 0.59166(13)
C9 C -0.0333(4) 0.0096(3) 0.59948(13)
C10 C -0.1471(4) 0.0613(4) 0.60638(18)
H14 H -0.1380 0.1233 0.6299
H15 H -0.1950 0.0052 0.6194
H16 H -0.1802 0.0883 0.5742
C11 C -0.0452(5) -0.0886(4) 0.56266(16)
H17 H -0.0858 -0.0645 0.5316
H18 H -0.0853 -0.1490 0.5774
H19 H 0.0279 -0.1147 0.5557
C12 C 0.0301(4) -0.0235(4) 0.64929(15)
H20 H 0.0359 0.0408 0.6716
H21 H 0.1039 -0.0489 0.6431
H22 H -0.0093 -0.0832 0.6648
C13 C 0.0664(3) 0.4533(3) 0.57493(12)
H23 H -0.0045 0.4136 0.5754
H24 H 0.0640 0.4968 0.5437
C14 C 0.0794(3) 0.5340(3) 0.61988(13)
H25 H 0.1485 0.5763 0.6183
H26 H 0.0178 0.5876 0.6169
C15 C 0.0816(3) 0.4769(3) 0.67112(12)
H27 H 0.0741 0.5335 0.6972
H28 H 0.0185 0.4254 0.6713
C16 C 0.1926(3) 0.3409(3) 0.72854(12)
H29 H 0.1457 0.2747 0.7218
H30 H 0.1641 0.3824 0.7564
C17 C 0.3126(3) 0.3043(3) 0.74328(12)
H31 H 0.3558 0.3688 0.7567
H32 H 0.3133 0.2475 0.7698
C18 C 0.3409(3) 0.1397(3) 0.69012(12)
H33 H 0.2637 0.1246 0.6966
H34 H 0.3889 0.0946 0.7138
C19 C 0.3583(3) 0.1034(4) 0.63670(14)
C20 C 0.3816(5) -0.0687(4) 0.58655(17)
C21 C 0.3083(5) -0.0312(4) 0.54033(17)
H35 H 0.2310 -0.0435 0.5459
H36 H 0.3269 -0.0739 0.5113
H37 H 0.3204 0.0478 0.5344
C22 C 0.3546(8) -0.1894(5) 0.5999(2)
H38 H 0.2758 -0.1959 0.6038
H39 H 0.3967 -0.2100 0.6311
H40 H 0.3741 -0.2388 0.5731
C23 C 0.5043(5) -0.0517(7) 0.5806(2)
H41 H 0.5176 0.0262 0.5727
H42 H 0.5264 -0.0988 0.5536
H43 H 0.5472 -0.0714 0.6118
C24 C 0.4822(3) 0.2894(3) 0.69786(13)
H44 H 0.4877 0.3712 0.6991
H45 H 0.5062 0.2653 0.6654
C25 C 0.5629(3) 0.2410(3) 0.73967(14)
C26 C 0.7669(3) 0.2300(3) 0.76321(14)
C27 C 0.7736(3) 0.1032(3) 0.76154(18)
H46 H 0.7111 0.0713 0.7771
H47 H 0.8424 0.0786 0.7796
H48 H 0.7716 0.0786 0.7268
C28 C 0.8632(3) 0.2835(4) 0.73825(17)
H49 H 0.8571 0.3644 0.7398
H50 H 0.8606 0.2600 0.7034
H51 H 0.9331 0.2601 0.7558
C29 C 0.7613(4) 0.2746(4) 0.81647(16)
H52 H 0.6997 0.2398 0.8315
H53 H 0.7507 0.3551 0.8153
H54 H 0.8301 0.2573 0.8365
N1 N 0.1574(2) 0.3703(2) 0.57515(9)
N2 N 0.1880(2) 0.4132(3) 0.68273(10)
N3 N 0.3647(2) 0.2582(2) 0.69966(10)
O1 O 0.32221(18) 0.5260(2) 0.49093(8)
O2 O 0.1846(3) 0.4027(3) 0.46808(10)
O3 O 0.0322(2) 0.0924(2) 0.57165(8)
O4 O 0.0482(2) 0.2217(2) 0.63376(9)
O5 O 0.66777(17) 0.2694(2) 0.73045(9)
O6 O 0.53787(19) 0.1865(2) 0.77525(10)
O7 O 0.3532(3) -0.0079(2) 0.63291(10)
O8 O 0.3769(3) 0.1660(2) 0.60227(10)
H55 H 0.249(3) 0.465(3) 0.6834(12)
H56 H 0.199(2) 0.370(2) 0.6568(11)
loop_
_geom_bond_atom_site_label_1
_geom_bond_atom_site_label_2
_geom_bond_site_symmetry_1
_geom_bond_site_symmetry_2
C1 C2 1_555 1_555
C2 H1 1_555 1_555
H2 C2 1_555 1_555
H3 C2 1_555 1_555
C3 C1 1_555 1_555
H4 C3 1_555 1_555
H5 C3 1_555 1_555
H6 C3 1_555 1_555
C4 C1 1_555 1_555
H7 C4 1_555 1_555
H8 C4 1_555 1_555
H9 C4 1_555 1_555
C5 C6 1_555 1_555
C6 H10 1_555 1_555
H11 C6 1_555 1_555
C7 H12 1_555 1_555
H13 C7 1_555 1_555
C8 C7 1_555 1_555
C9 C10 1_555 1_555
C10 H14 1_555 1_555
H15 C10 1_555 1_555
H16 C10 1_555 1_555
C11 C9 1_555 1_555
H17 C11 1_555 1_555
H18 C11 1_555 1_555
H19 C11 1_555 1_555
C12 C9 1_555 1_555
H20 C12 1_555 1_555
H21 C12 1_555 1_555
H22 C12 1_555 1_555
C13 H23 1_555 1_555
H24 C13 1_555 1_555
C14 C13 1_555 1_555
H25 C14 1_555 1_555
H26 C14 1_555 1_555
C15 C14 1_555 1_555
H27 C15 1_555 1_555
H28 C15 1_555 1_555
C16 H29 1_555 1_555
H30 C16 1_555 1_555
C17 C16 1_555 1_555
H31 C17 1_555 1_555
H32 C17 1_555 1_555
C18 H33 1_555 1_555
H34 C18 1_555 1_555
C19 C18 1_555 1_555
C20 C21 1_555 1_555
C21 H35 1_555 1_555
H36 C21 1_555 1_555
H37 C21 1_555 1_555
C22 C20 1_555 1_555
H38 C22 1_555 1_555
H39 C22 1_555 1_555
H40 C22 1_555 1_555
C23 C20 1_555 1_555
H41 C23 1_555 1_555
H42 C23 1_555 1_555
H43 C23 1_555 1_555
C24 H44 1_555 1_555
H45 C24 1_555 1_555
C25 C24 1_555 1_555
C26 C27 1_555 1_555
C27 H46 1_555 1_555
H47 C27 1_555 1_555
H48 C27 1_555 1_555
C28 C26 1_555 1_555
H49 C28 1_555 1_555
H50 C28 1_555 1_555
H51 C28 1_555 1_555
C29 C26 1_555 1_555
H52 C29 1_555 1_555
H53 C29 1_555 1_555
H54 C29 1_555 1_555
N1 C6 1_555 1_555
N2 C15 1_555 1_555
N3 C17 1_555 1_555
O1 C1 1_555 1_555
O2 C5 1_555 1_555
O3 C8 1_555 1_555
O4 C8 1_555 1_555
O5 C25 1_555 1_555
O6 C25 1_555 1_555
O7 C19 1_555 1_555
O8 C19 1_555 1_555
H55 N2 1_555 1_555
H56 N2 1_555 1_555
C5 O1 1_555 1_555
C7 N1 1_555 1_555
C9 O3 1_555 1_555
C13 N1 1_555 1_555
C16 N2 1_555 1_555
C18 N3 1_555 1_555
C20 O7 1_555 1_555
C24 N3 1_555 1_555
C26 O5 1_555 1_555

#END
