
#######################################################################
#
#                 Cambridge Crystallographic Data Centre
#                                CCDC 
#
#######################################################################
#
# If this CIF has been generated from an entry in the Cambridge 
# Structural Database, then it will include bibliographic, chemical, 
# crystal, experimental, refinement or atomic coordinate data resulting 
# from the CCDC's data processing and validation procedures.
#
#######################################################################

data_EPUFIG
_chemical_formula_moiety         'C57 H45 N1 O5'
_chemical_name_systematic        
19-(2,6-bis(3,4,5-trimethylphenoxy)phenyl)-1,16-diphenyl-19-azahexacyclo[14.5.1.0^2,15^.0^3,8^.0^9,14^.0^17,21^]docosa-2(15),3,5,7,9,11,13-heptaene-18,20,22-trione
_symmetry_cell_setting           monoclinic
_symmetry_space_group_name_H-M   'P 21/c'
_symmetry_Int_Tables_number      14
_space_group_name_Hall           '-P 2ybc'
loop_
_symmetry_equiv_pos_site_id
_symmetry_equiv_pos_as_xyz
1 x,y,z
2 -x,1/2+y,1/2-z
3 -x,-y,-z
4 x,1/2-y,1/2+z
_cell_length_a                   20.9865(13)
_cell_length_b                   20.7679(12)
_cell_length_c                   23.5820(13)
_cell_angle_alpha                90
_cell_angle_beta                 109.906(3)
_cell_angle_gamma                90
_cell_volume                     9664.02
_exptl_crystal_colour            colorless
_exptl_crystal_description       plate
_cell_formula_units_Z            8
loop_
_atom_site_label
_atom_site_type_symbol
_atom_site_fract_x
_atom_site_fract_y
_atom_site_fract_z
O1 O 0.71012(11) 0.88654(10) 0.28315(9)
O2 O 0.69467(11) 0.62662(9) 0.22869(8)
O3 O 0.65302(11) 0.75934(10) 0.06587(8)
O4 O 0.54810(10) 0.62399(10) 0.12659(9)
O5 O 0.74819(10) 0.63332(10) 0.07940(9)
N1 N 0.66861(11) 0.68179(11) 0.13925(9)
C1 C 0.68265(14) 0.84301(13) 0.25104(12)
C2 C 0.67283(14) 0.77160(13) 0.26613(11)
C3 C 0.71452(14) 0.74236(13) 0.22864(12)
H1 H 0.7639 0.7420 0.2531
C4 C 0.69213(13) 0.67648(13) 0.20248(11)
C5 C 0.67148(14) 0.74411(13) 0.11829(12)
C6 C 0.70113(14) 0.78708(13) 0.17312(12)
H2 H 0.7444 0.8071 0.1729
C7 C 0.65167(14) 0.83992(13) 0.18084(12)
C8 C 0.58627(14) 0.80581(13) 0.17755(12)
C9 C 0.59790(14) 0.76682(13) 0.22721(12)
C10 C 0.54538(15) 0.72764(13) 0.23538(12)
C11 C 0.55761(15) 0.68038(14) 0.28124(12)
H3 H 0.6026 0.6733 0.3078
C12 C 0.50574(16) 0.64487(15) 0.28791(13)
H4 H 0.5150 0.6127 0.3183
C13 C 0.43906(16) 0.65589(15) 0.24998(14)
H5 H 0.4028 0.6326 0.2558
C14 C 0.42594(16) 0.70034(14) 0.20439(13)
H6 H 0.3805 0.7069 0.1786
C15 C 0.47817(14) 0.73645(13) 0.19489(12)
C16 C 0.46588(14) 0.77812(13) 0.14203(12)
C17 C 0.40062(15) 0.78538(14) 0.09844(13)
H7 H 0.3624 0.7685 0.1064
C18 C 0.39139(16) 0.81641(15) 0.04478(14)
H8 H 0.3471 0.8208 0.0161
C19 C 0.44664(16) 0.84137(16) 0.03244(15)
H9 H 0.4402 0.8607 -0.0056
C20 C 0.51065(16) 0.83829(15) 0.07491(13)
H10 H 0.5480 0.8561 0.0663
C21 C 0.52095(14) 0.80857(13) 0.13141(12)
C22 C 0.69519(15) 0.75832(14) 0.33268(12)
C23 C 0.74552(15) 0.71472(14) 0.36160(12)
H11 H 0.7668 0.6904 0.3389
C24 C 0.76538(18) 0.70629(16) 0.42421(13)
H12 H 0.8006 0.6769 0.4439
C25 C 0.73375(18) 0.74074(17) 0.45731(14)
H13 H 0.7468 0.7344 0.4996
C26 C 0.68351(18) 0.78406(16) 0.42905(14)
H14 H 0.6620 0.8078 0.4519
C27 C 0.66401(16) 0.79333(15) 0.36696(13)
H15 H 0.6294 0.8235 0.3477
C28 C 0.65020(15) 0.90408(14) 0.15127(13)
C29 C 0.61307(17) 0.95386(15) 0.16453(15)
H16 H 0.5863 0.9457 0.1891
C30 C 0.61502(19) 1.01557(16) 0.14191(18)
H17 H 0.5900 1.0494 0.1515
C31 C 0.6533(2) 1.02763(17) 0.10560(17)
H18 H 0.6549 1.0699 0.0907
C32 C 0.68874(19) 0.97886(17) 0.09096(16)
H19 H 0.7141 0.9873 0.0652
C33 C 0.68788(16) 0.91672(16) 0.11366(14)
H20 H 0.7129 0.8832 0.1036
C34 C 0.64597(14) 0.62742(13) 0.10011(11)
C35 C 0.58449(15) 0.59812(14) 0.09315(12)
C36 C 0.56362(15) 0.54498(15) 0.05607(14)
H21 H 0.5218 0.5245 0.0518
C37 C 0.60452(15) 0.52218(15) 0.02536(14)
H22 H 0.5899 0.4862 -0.0007
C38 C 0.66595(16) 0.55043(15) 0.03172(13)
H23 H 0.6934 0.5342 0.0102
C39 C 0.68734(14) 0.60299(14) 0.07000(12)
C40 C 0.48113(14) 0.60280(14) 0.11280(13)
C41 C 0.46668(16) 0.55174(15) 0.14357(13)
H24 H 0.5024 0.5290 0.1724
C42 C 0.39987(17) 0.53347(16) 0.13245(14)
C43 C 0.34723(15) 0.56784(15) 0.09064(13)
C44 C 0.36309(15) 0.61880(14) 0.05887(13)
C45 C 0.43012(15) 0.63598(14) 0.07013(12)
H25 H 0.4409 0.6705 0.0485
C46 C 0.3847(2) 0.4772(2) 0.1666(2)
H26 H 0.4271 0.4558 0.1899
H27 H 0.3552 0.4465 0.1379
H28 H 0.3619 0.4928 0.1939
C47 C 0.27420(17) 0.55073(18) 0.08014(17)
H29 H 0.2719 0.5076 0.0961
H30 H 0.2486 0.5514 0.0368
H31 H 0.2547 0.5821 0.1007
C48 C 0.30777(19) 0.65495(18) 0.01205(18)
H32 H 0.2813 0.6250 -0.0192
H33 H 0.3279 0.6881 -0.0062
H34 H 0.2780 0.6754 0.0310
C49 C 0.79891(15) 0.59290(14) 0.07269(13)
C50 C 0.81456(15) 0.59781(15) 0.02039(14)
H35 H 0.7920 0.6283 -0.0098
C51 C 0.86348(15) 0.55762(15) 0.01285(14)
C52 C 0.89825(16) 0.51371(16) 0.05833(15)
C53 C 0.88215(16) 0.51092(15) 0.11184(14)
C54 C 0.83163(15) 0.55025(14) 0.11746(14)
H36 H 0.8194 0.5477 0.1527
C55 C 0.8779(2) 0.56227(19) -0.04610(16)
H37 H 0.8454 0.5918 -0.0736
H38 H 0.8735 0.5195 -0.0647
H39 H 0.9240 0.5785 -0.0380
C56 C 0.9519(2) 0.4695(2) 0.05098(19)
H40 H 0.9514 0.4717 0.0093
H41 H 0.9426 0.4252 0.0602
H42 H 0.9964 0.4828 0.0786
C57 C 0.92060(19) 0.46746(18) 0.16272(16)
H43 H 0.9226 0.4241 0.1471
H44 H 0.8976 0.4658 0.1926
H45 H 0.9667 0.4841 0.1818
O6 O 0.53916(11) 0.45148(12) 0.27254(9)
O7 O 0.79468(12) 0.55910(11) 0.38070(10)
O8 O 0.77285(12) 0.44132(13) 0.21169(10)
O9 O 0.88009(12) 0.39961(11) 0.34674(12)
O10 O 0.85151(11) 0.61085(12) 0.27531(12)
N2 N 0.79834(13) 0.50132(12) 0.29858(11)
C58 C 0.59916(15) 0.44889(15) 0.28611(13)
C59 C 0.65624(15) 0.47706(15) 0.34159(13)
C60 C 0.69034(16) 0.51908(15) 0.30539(13)
H46 H 0.6662 0.5612 0.2946
C61 C 0.76537(16) 0.53012(14) 0.33436(14)
C62 C 0.75448(16) 0.47006(15) 0.24789(13)
C63 C 0.68297(15) 0.48014(15) 0.24730(13)
H47 H 0.6562 0.5053 0.2108
C64 C 0.64361(15) 0.41762(15) 0.25246(13)
C65 C 0.68925(15) 0.37957(14) 0.30745(13)
C66 C 0.69703(15) 0.41457(14) 0.35850(13)
C67 C 0.73899(15) 0.39228(15) 0.41725(13)
C68 C 0.75156(17) 0.43010(16) 0.46990(13)
H48 H 0.7328 0.4721 0.4670
C69 C 0.79087(19) 0.40633(18) 0.52546(15)
H49 H 0.7989 0.4319 0.5606
C70 C 0.81887(19) 0.34473(18) 0.53016(15)
H50 H 0.8452 0.3282 0.5686
C71 C 0.80846(17) 0.30823(16) 0.47959(14)
H51 H 0.8284 0.2667 0.4835
C72 C 0.76856(15) 0.33069(15) 0.42132(13)
C73 C 0.75911(16) 0.29236(15) 0.36719(13)
C74 C 0.78793(17) 0.23098(16) 0.36970(15)
H52 H 0.8125 0.2129 0.4079
C75 C 0.78160(19) 0.19631(17) 0.31841(16)
H53 H 0.8013 0.1547 0.3215
C76 C 0.74630(19) 0.22212(17) 0.26171(16)
H54 H 0.7428 0.1985 0.2263
C77 C 0.71660(17) 0.28193(17) 0.25718(14)
H55 H 0.6923 0.2991 0.2185
C78 C 0.72176(15) 0.31808(15) 0.30934(13)
C79 C 0.62963(15) 0.51120(15) 0.38557(13)
C80 C 0.64955(17) 0.57309(16) 0.40578(14)
H56 H 0.6831 0.5945 0.3940
C81 C 0.62048(19) 0.60411(18) 0.44346(15)
H57 H 0.6341 0.6465 0.4575
C82 C 0.57188(19) 0.5728(2) 0.46012(16)
H58 H 0.5512 0.5942 0.4850
C83 C 0.55272(18) 0.51045(19) 0.44123(15)
H59 H 0.5200 0.4889 0.4540
C84 C 0.58125(16) 0.47976(17) 0.40383(13)
H60 H 0.5679 0.4371 0.3905
C85 C 0.60358(16) 0.38439(16) 0.19476(13)
C86 C 0.55460(17) 0.33904(17) 0.19491(15)
H61 H 0.5479 0.3291 0.2318
C87 C 0.5158(2) 0.3085(2) 0.14296(17)
H62 H 0.4834 0.2771 0.1444
C88 C 0.5240(2) 0.3235(2) 0.08761(17)
H63 H 0.4975 0.3026 0.0514
C89 C 0.5710(2) 0.3690(2) 0.08723(16)
H64 H 0.5761 0.3804 0.0500
C90 C 0.61143(19) 0.39898(18) 0.13977(14)
H65 H 0.6445 0.4295 0.1383
C91 C 0.86965(15) 0.50602(15) 0.31124(13)
C92 C 0.91159(16) 0.45317(15) 0.33390(14)
C93 C 0.98043(17) 0.45719(16) 0.34425(15)
H66 H 1.0090 0.4212 0.3595
C94 C 1.00714(17) 0.51441(16) 0.33211(15)
H67 H 1.0544 0.5172 0.3391
C95 C 0.96655(16) 0.56757(16) 0.31007(15)
H68 H 0.9857 0.6067 0.3026
C96 C 0.89764(16) 0.56284(15) 0.29911(14)
C97 C 0.91305(17) 0.34057(17) 0.35191(17)
C98 C 0.9375(2) 0.3085(2) 0.4054(2)
H69 H 0.9357 0.3282 0.4411
C99 C 0.9659(2) 0.2457(2) 0.4082(2)
C100 C 0.9662(2) 0.2173(2) 0.3528(2)
C101 C 0.94264(18) 0.25125(19) 0.30013(19)
C102 C 0.91605(18) 0.31159(17) 0.2991(2)
H70 H 0.8993 0.3343 0.2620
C103 C 0.9911(4) 0.2095(4) 0.4662(3)
H71 H 0.9949 0.2388 0.4997
H72 H 1.0357 0.1912 0.4712
H73 H 0.9594 0.1748 0.4657
C104 C 0.9941(3) 0.1496(2) 0.3550(3)
H74 H 1.0408 0.1517 0.3552
H75 H 0.9662 0.1255 0.3194
H76 H 0.9932 0.1279 0.3916
C105 C 0.87359(15) 0.67222(15) 0.26713(14)
C106 C 0.86361(15) 0.69243(15) 0.20885(14)
H77 H 0.8477 0.6627 0.1764
C107 C 0.87650(15) 0.75542(15) 0.19738(14)
C108 C 0.89978(16) 0.79939(16) 0.24516(15)
C109 C 0.91005(17) 0.77856(18) 0.30380(16)
C110 C 0.89736(16) 0.71467(19) 0.31468(15)
H78 H 0.9051 0.7004 0.3547
C111 C 0.86567(19) 0.77544(19) 0.13285(15)
H79 H 0.9093 0.7874 0.1291
H80 H 0.8348 0.8124 0.1221
H81 H 0.8460 0.7395 0.1056
C112 C 0.9141(2) 0.86824(18) 0.2326(2)
H82 H 0.9594 0.8711 0.2295
H83 H 0.9118 0.8959 0.2655
H84 H 0.8803 0.8824 0.1945
C113 C 0.9355(3) 0.8241(3) 0.3569(2)
H85 H 0.9831 0.8348 0.3639
H86 H 0.9318 0.8034 0.3930
H87 H 0.9083 0.8635 0.3483
C114 C 0.9457(3) 0.2231(3) 0.2463(2)
H88 H 0.9924 0.2099 0.2523
H89 H 0.9308 0.2545 0.2134
H90 H 0.9160 0.1853 0.2360
loop_
_geom_bond_atom_site_label_1
_geom_bond_atom_site_label_2
_geom_bond_site_symmetry_1
_geom_bond_site_symmetry_2
O1 C1 1_555 1_555
O2 C4 1_555 1_555
O3 C5 1_555 1_555
O4 C35 1_555 1_555
O5 C39 1_555 1_555
N1 C4 1_555 1_555
C1 C2 1_555 1_555
C2 C3 1_555 1_555
C3 H1 1_555 1_555
C4 C3 1_555 1_555
C5 N1 1_555 1_555
C6 C3 1_555 1_555
H2 C6 1_555 1_555
C7 C1 1_555 1_555
C8 C7 1_555 1_555
C9 C2 1_555 1_555
C10 C9 1_555 1_555
C11 C10 1_555 1_555
H3 C11 1_555 1_555
C12 C11 1_555 1_555
H4 C12 1_555 1_555
C13 C12 1_555 1_555
H5 C13 1_555 1_555
C14 C13 1_555 1_555
H6 C14 1_555 1_555
C15 C10 1_555 1_555
C16 C15 1_555 1_555
C17 C16 1_555 1_555
H7 C17 1_555 1_555
C18 C17 1_555 1_555
H8 C18 1_555 1_555
C19 C18 1_555 1_555
H9 C19 1_555 1_555
C20 C19 1_555 1_555
H10 C20 1_555 1_555
C21 C8 1_555 1_555
C22 C2 1_555 1_555
C23 C22 1_555 1_555
H11 C23 1_555 1_555
C24 C23 1_555 1_555
H12 C24 1_555 1_555
C25 C24 1_555 1_555
H13 C25 1_555 1_555
C26 C25 1_555 1_555
H14 C26 1_555 1_555
C27 C22 1_555 1_555
H15 C27 1_555 1_555
C28 C7 1_555 1_555
C29 C28 1_555 1_555
H16 C29 1_555 1_555
C30 C29 1_555 1_555
H17 C30 1_555 1_555
C31 C30 1_555 1_555
H18 C31 1_555 1_555
C32 C31 1_555 1_555
H19 C32 1_555 1_555
C33 C28 1_555 1_555
H20 C33 1_555 1_555
C34 N1 1_555 1_555
C35 C34 1_555 1_555
C36 C35 1_555 1_555
H21 C36 1_555 1_555
C37 C36 1_555 1_555
H22 C37 1_555 1_555
C38 C37 1_555 1_555
H23 C38 1_555 1_555
C39 C34 1_555 1_555
C40 O4 1_555 1_555
C41 C40 1_555 1_555
H24 C41 1_555 1_555
C42 C41 1_555 1_555
C43 C42 1_555 1_555
C44 C43 1_555 1_555
C45 C40 1_555 1_555
H25 C45 1_555 1_555
C46 C42 1_555 1_555
H26 C46 1_555 1_555
H27 C46 1_555 1_555
H28 C46 1_555 1_555
C47 C43 1_555 1_555
H29 C47 1_555 1_555
H30 C47 1_555 1_555
H31 C47 1_555 1_555
C48 C44 1_555 1_555
H32 C48 1_555 1_555
H33 C48 1_555 1_555
H34 C48 1_555 1_555
C49 O5 1_555 1_555
C50 C49 1_555 1_555
H35 C50 1_555 1_555
C51 C50 1_555 1_555
C52 C51 1_555 1_555
C53 C52 1_555 1_555
C54 C49 1_555 1_555
H36 C54 1_555 1_555
C55 C51 1_555 1_555
H37 C55 1_555 1_555
H38 C55 1_555 1_555
H39 C55 1_555 1_555
C56 C52 1_555 1_555
H40 C56 1_555 1_555
H41 C56 1_555 1_555
H42 C56 1_555 1_555
C57 C53 1_555 1_555
H43 C57 1_555 1_555
H44 C57 1_555 1_555
H45 C57 1_555 1_555
O6 C58 1_555 1_555
O7 C61 1_555 1_555
O8 C62 1_555 1_555
O9 C92 1_555 1_555
O10 C96 1_555 1_555
N2 C61 1_555 1_555
C58 C59 1_555 1_555
C59 C60 1_555 1_555
C60 H46 1_555 1_555
C61 C60 1_555 1_555
C62 N2 1_555 1_555
C63 C60 1_555 1_555
H47 C63 1_555 1_555
C64 C58 1_555 1_555
C65 C64 1_555 1_555
C66 C59 1_555 1_555
C67 C66 1_555 1_555
C68 C67 1_555 1_555
H48 C68 1_555 1_555
C69 C68 1_555 1_555
H49 C69 1_555 1_555
C70 C69 1_555 1_555
H50 C70 1_555 1_555
C71 C70 1_555 1_555
H51 C71 1_555 1_555
C72 C67 1_555 1_555
C73 C72 1_555 1_555
C74 C73 1_555 1_555
H52 C74 1_555 1_555
C75 C74 1_555 1_555
H53 C75 1_555 1_555
C76 C75 1_555 1_555
H54 C76 1_555 1_555
C77 C76 1_555 1_555
H55 C77 1_555 1_555
C78 C65 1_555 1_555
C79 C59 1_555 1_555
C80 C79 1_555 1_555
H56 C80 1_555 1_555
C81 C80 1_555 1_555
H57 C81 1_555 1_555
C82 C81 1_555 1_555
H58 C82 1_555 1_555
C83 C82 1_555 1_555
H59 C83 1_555 1_555
C84 C79 1_555 1_555
H60 C84 1_555 1_555
C85 C64 1_555 1_555
C86 C85 1_555 1_555
H61 C86 1_555 1_555
C87 C86 1_555 1_555
H62 C87 1_555 1_555
C88 C87 1_555 1_555
H63 C88 1_555 1_555
C89 C88 1_555 1_555
H64 C89 1_555 1_555
C90 C85 1_555 1_555
H65 C90 1_555 1_555
C91 N2 1_555 1_555
C92 C91 1_555 1_555
C93 C92 1_555 1_555
H66 C93 1_555 1_555
C94 C93 1_555 1_555
H67 C94 1_555 1_555
C95 C94 1_555 1_555
H68 C95 1_555 1_555
C96 C91 1_555 1_555
C97 O9 1_555 1_555
C98 C97 1_555 1_555
H69 C98 1_555 1_555
C99 C98 1_555 1_555
C100 C99 1_555 1_555
C101 C100 1_555 1_555
C102 C97 1_555 1_555
H70 C102 1_555 1_555
C103 C99 1_555 1_555
H71 C103 1_555 1_555
H72 C103 1_555 1_555
H73 C103 1_555 1_555
C104 C100 1_555 1_555
H74 C104 1_555 1_555
H75 C104 1_555 1_555
H76 C104 1_555 1_555
C105 O10 1_555 1_555
C106 C105 1_555 1_555
H77 C106 1_555 1_555
C107 C106 1_555 1_555
C108 C107 1_555 1_555
C109 C108 1_555 1_555
C110 C105 1_555 1_555
H78 C110 1_555 1_555
C111 C107 1_555 1_555
H79 C111 1_555 1_555
H80 C111 1_555 1_555
H81 C111 1_555 1_555
C112 C108 1_555 1_555
H82 C112 1_555 1_555
H83 C112 1_555 1_555
H84 C112 1_555 1_555
C113 C109 1_555 1_555
H85 C113 1_555 1_555
H86 C113 1_555 1_555
H87 C113 1_555 1_555
C114 C101 1_555 1_555
H88 C114 1_555 1_555
H89 C114 1_555 1_555
H90 C114 1_555 1_555
C5 C6 1_555 1_555
C6 C7 1_555 1_555
C8 C9 1_555 1_555
C14 C15 1_555 1_555
C16 C21 1_555 1_555
C20 C21 1_555 1_555
C26 C27 1_555 1_555
C32 C33 1_555 1_555
C38 C39 1_555 1_555
C44 C45 1_555 1_555
C53 C54 1_555 1_555
C62 C63 1_555 1_555
C63 C64 1_555 1_555
C65 C66 1_555 1_555
C71 C72 1_555 1_555
C73 C78 1_555 1_555
C77 C78 1_555 1_555
C83 C84 1_555 1_555
C89 C90 1_555 1_555
C95 C96 1_555 1_555
C101 C102 1_555 1_555
C109 C110 1_555 1_555

#END
