
#######################################################################
#
#                 Cambridge Crystallographic Data Centre
#                                CCDC 
#
#######################################################################
#
# If this CIF has been generated from an entry in the Cambridge 
# Structural Database, then it will include bibliographic, chemical, 
# crystal, experimental, refinement or atomic coordinate data resulting 
# from the CCDC's data processing and validation procedures.
#
#######################################################################

data_EPUFOM
_chemical_formula_moiety         'C53 H37 N1 O5'
_chemical_name_systematic        
19-(2,6-bis(3-methylphenoxy)phenyl)-1,16-diphenyl-19-azahexacyclo[14.5.1.0^2,15^.0^3,8^.0^9,14^.0^17,21^]docosa-2(15),3,5,7,9,11,13-heptaene-18,20,22-trione
_symmetry_cell_setting           triclinic
_symmetry_space_group_name_H-M   'P -1'
_symmetry_Int_Tables_number      2
_space_group_name_Hall           '-P 1'
loop_
_symmetry_equiv_pos_site_id
_symmetry_equiv_pos_as_xyz
1 x,y,z
2 -x,-y,-z
_cell_length_a                   17.964(2)
_cell_length_b                   21.538(3)
_cell_length_c                   25.366(3)
_cell_angle_alpha                103.807(4)
_cell_angle_beta                 90.005(5)
_cell_angle_gamma                100.036(4)
_cell_volume                     9375.99
_exptl_crystal_colour            colorless
_exptl_crystal_description       needle
_cell_formula_units_Z            8
loop_
_atom_site_label
_atom_site_type_symbol
_atom_site_fract_x
_atom_site_fract_y
_atom_site_fract_z
O1 O 0.5249(4) 0.6972(3) 0.8270(2)
O2 O 0.2294(4) 0.7178(3) 0.8784(2)
O3 O 0.3696(4) 0.6854(3) 1.0148(2)
O4 O 0.2036(4) 0.5806(3) 0.9334(3)
N1 N 0.2866(4) 0.7014(3) 0.9539(2)
C1 C 0.4672(5) 0.6823(4) 0.8486(3)
C2 C 0.3841(5) 0.6815(4) 0.8326(3)
C3 C 0.3662(5) 0.7294(4) 0.8860(3)
H1 H 0.3807 0.7756 0.8837
C4 C 0.2858(5) 0.7157(4) 0.9033(3)
C5 C 0.3572(5) 0.6987(4) 0.9728(3)
C6 C 0.4137(5) 0.7156(4) 0.9326(3)
H2 H 0.4515 0.7551 0.9501
C7 C 0.4553(5) 0.6592(4) 0.9023(3)
C8 C 0.3933(5) 0.6000(4) 0.8784(3)
C9 C 0.3550(5) 0.6124(4) 0.8374(3)
C10 C 0.2941(5) 0.5645(4) 0.8064(3)
C11 C 0.2474(5) 0.5767(4) 0.7669(3)
H3 H 0.2534 0.6191 0.7606
C12 C 0.1936(5) 0.5281(4) 0.7376(3)
H4 H 0.1627 0.5369 0.7109
C13 C 0.1830(6) 0.4654(4) 0.7461(3)
H5 H 0.1460 0.4318 0.7248
C14 C 0.2259(5) 0.4532(4) 0.7848(3)
H6 H 0.2170 0.4108 0.7910
C15 C 0.2841(5) 0.5013(4) 0.8169(3)
C16 C 0.3257(5) 0.4885(4) 0.8608(3)
C17 C 0.3158(5) 0.4275(4) 0.8731(3)
H7 H 0.2855 0.3916 0.8487
C18 C 0.3472(5) 0.4173(4) 0.9178(3)
H8 H 0.3375 0.3755 0.9253
C19 C 0.3943(5) 0.4690(4) 0.9530(3)
H9 H 0.4158 0.4628 0.9852
C20 C 0.4095(5) 0.5288(4) 0.9411(3)
H10 H 0.4426 0.5635 0.9648
C21 C 0.3768(5) 0.5394(4) 0.8944(3)
C22 C 0.3764(5) 0.7010(4) 0.7805(3)
C23 C 0.3425(6) 0.7529(4) 0.7757(4)
H11 H 0.3202 0.7764 0.8063
C24 C 0.3412(6) 0.7704(5) 0.7268(4)
H12 H 0.3186 0.8063 0.7241
C25 C 0.3721(6) 0.7365(5) 0.6823(4)
H13 H 0.3711 0.7491 0.6489
C26 C 0.4048(6) 0.6836(4) 0.6857(3)
H14 H 0.4263 0.6601 0.6547
C27 C 0.4061(5) 0.6658(4) 0.7332(3)
H15 H 0.4273 0.6288 0.7349
C28 C 0.5283(5) 0.6504(4) 0.9261(3)
C29 C 0.5671(5) 0.6053(4) 0.8957(3)
H16 H 0.5442 0.5782 0.8625
C30 C 0.6377(5) 0.5978(4) 0.9116(3)
H17 H 0.6621 0.5653 0.8902
C31 C 0.6729(5) 0.6387(4) 0.9595(3)
H18 H 0.7223 0.6358 0.9708
C32 C 0.6338(6) 0.6836(5) 0.9900(4)
H19 H 0.6567 0.7110 1.0231
C33 C 0.5628(5) 0.6899(4) 0.9743(3)
H20 H 0.5375 0.7212 0.9964
C34 C 0.2184(5) 0.6889(4) 0.9830(3)
C35 C 0.1764(5) 0.6251(4) 0.9719(3)
C36 C 0.1129(5) 0.6118(4) 0.9998(3)
H21 H 0.0846 0.5689 0.9929
C37 C 0.0898(5) 0.6624(4) 1.0388(3)
H22 H 0.0462 0.6535 1.0588
C38 C 0.1296(5) 0.7237(4) 1.0479(4)
H23 H 0.1125 0.7579 1.0732
C39 C 0.1951(5) 0.7371(4) 1.0206(3)
C40 C 0.1627(6) 0.5177(5) 0.9211(4)
C41 C 0.1094(6) 0.4998(5) 0.8811(4)
H24 H 0.0947 0.5301 0.8632
C42 C 0.0745(7) 0.4298(5) 0.8661(4)
C43 C 0.1012(6) 0.3911(5) 0.8961(4)
H25 H 0.0790 0.3463 0.8869
C44 C 0.1530(7) 0.4093(6) 0.9351(5)
H26 H 0.1675 0.3793 0.9535
C45 C 0.1862(7) 0.4743(5) 0.9486(5)
H27 H 0.2249 0.4898 0.9766
C46 C 0.0189(7) 0.4087(7) 0.8231(5)
H28 H -0.0114 0.4427 0.8241
H29 H -0.0141 0.3689 0.8271
H30 H 0.0435 0.4000 0.7883
O5 O 0.2402(3) 0.7974(3) 1.0295(2)
C47 C 0.2087(5) 0.8515(4) 1.0534(3)
C48 C 0.1519(5) 0.8676(4) 1.0243(3)
H31 H 0.1316 0.8390 0.9909
C49 C 0.1248(5) 0.9247(4) 1.0438(3)
C50 C 0.1531(6) 0.9629(5) 1.0933(4)
H32 H 0.1328 1.0009 1.1084
C51 C 0.2114(6) 0.9475(4) 1.1228(4)
H33 H 0.2320 0.9760 1.1562
C52 C 0.2383(6) 0.8900(4) 1.1019(3)
H34 H 0.2766 0.8780 1.1213
C53 C 0.0653(6) 0.9448(5) 1.0134(4)
H35 H 0.0865 0.9851 1.0031
H36 H 0.0225 0.9520 1.0366
H37 H 0.0479 0.9105 0.9806
O6 O 0.0173(3) 0.5428(3) 0.7483(2)
O7 O 0.1583(4) 0.7981(3) 0.7613(2)
O8 O 0.0249(4) 0.7718(3) 0.9097(2)
N2 N 0.0915(4) 0.7982(3) 0.8389(3)
C54 C 0.0207(5) 0.5999(4) 0.7628(3)
C55 C 0.0565(5) 0.6567(4) 0.7374(3)
C56 C 0.1084(5) 0.6967(4) 0.7866(3)
H38 H 0.1568 0.6798 0.7870
C57 C 0.1241(5) 0.7692(4) 0.7920(3)
C58 C 0.0555(5) 0.7553(4) 0.8679(3)
C59 C 0.0622(5) 0.6876(4) 0.8368(3)
H39 H 0.0904 0.6668 0.8598
C60 C -0.0143(5) 0.6413(4) 0.8140(3)
C61 C -0.0550(5) 0.6768(4) 0.7818(3)
C62 C -0.0150(5) 0.6856(4) 0.7381(3)
C63 C -0.0380(5) 0.7210(4) 0.7021(3)
C64 C 0.0071(5) 0.7392(4) 0.6603(3)
H40 H 0.0568 0.7296 0.6568
C65 C -0.0195(5) 0.7707(4) 0.6245(3)
H41 H 0.0117 0.7825 0.5969
C66 C -0.0915(5) 0.7848(4) 0.6292(3)
H42 H -0.1099 0.8058 0.6042
C67 C -0.1370(5) 0.7691(4) 0.6691(3)
H43 H -0.1863 0.7798 0.6718
C68 C -0.1113(5) 0.7372(4) 0.7061(3)
C69 C -0.1571(5) 0.7229(4) 0.7512(3)
C70 C -0.2317(5) 0.7348(4) 0.7571(4)
H44 H -0.2543 0.7490 0.7293
C71 C -0.2730(6) 0.7268(4) 0.8009(4)
H45 H -0.3231 0.7354 0.8034
C72 C -0.2400(6) 0.7057(4) 0.8420(4)
H46 H -0.2670 0.7016 0.8736
C73 C -0.1702(5) 0.6911(4) 0.8366(4)
H47 H -0.1486 0.6766 0.8646
C74 C -0.1285(5) 0.6968(4) 0.7906(3)
C75 C 0.0939(5) 0.6336(4) 0.6836(3)
C76 C 0.1687(5) 0.6571(4) 0.6760(3)
H48 H 0.1977 0.6895 0.7041
C77 C 0.2016(5) 0.6336(4) 0.6276(3)
H49 H 0.2531 0.6498 0.6226
C78 C 0.1597(5) 0.5871(4) 0.5871(4)
H50 H 0.1825 0.5711 0.5540
C79 C 0.0856(5) 0.5633(4) 0.5936(3)
H51 H 0.0571 0.5314 0.5648
C80 C 0.0515(5) 0.5856(4) 0.6424(3)
H52 H 0.0004 0.5684 0.6474
C81 C -0.0538(5) 0.5999(4) 0.8491(3)
C82 C -0.1097(5) 0.5482(4) 0.8266(3)
H53 H -0.1227 0.5393 0.7889
C83 C -0.1484(5) 0.5079(4) 0.8577(3)
H54 H -0.1863 0.4717 0.8413
C84 C -0.1300(6) 0.5224(5) 0.9128(4)
H55 H -0.1561 0.4969 0.9351
C85 C -0.0742(6) 0.5733(5) 0.9345(4)
H56 H -0.0608 0.5820 0.9722
C86 C -0.0366(6) 0.6125(5) 0.9042(3)
H57 H 0.0013 0.6483 0.9210
C87 C 0.1002(5) 0.8678(4) 0.8573(3)
C88 C 0.0450(5) 0.8998(4) 0.8469(4)
C89 C 0.0553(6) 0.9684(4) 0.8634(4)
H58 H 0.0172 0.9914 0.8565
C90 C 0.1234(6) 1.0005(5) 0.8901(4)
H59 H 0.1312 1.0466 0.9023
C91 C 0.1804(6) 0.9690(4) 0.9000(4)
H60 H 0.2271 0.9927 0.9174
C92 C 0.1676(6) 0.9019(4) 0.8839(4)
O9 O -0.0185(12) 0.8596(16) 0.8223(12)
C93 C -0.0656(8) 0.8883(9) 0.7951(7)
C94 C -0.0375(10) 0.9147(9) 0.7521(7)
H61 H 0.0144 0.9163 0.7440
C95 C -0.0838(10) 0.9384(8) 0.7214(7)
C96 C -0.1576(10) 0.9353(8) 0.7338(8)
H62 H -0.1905 0.9509 0.7128
C97 C -0.1868(8) 0.9093(7) 0.7775(7)
H63 H -0.2384 0.9079 0.7861
C98 C -0.1382(7) 0.8857(8) 0.8076(7)
H64 H -0.1566 0.8678 0.8369
C99 C -0.0590(13) 0.9626(8) 0.6725(7)
H65 H -0.0173 0.9997 0.6831
H66 H -0.1015 0.9761 0.6568
H67 H -0.0419 0.9277 0.6455
O10 O 0.2182(6) 0.8620(6) 0.8882(6)
C100 C 0.2935(8) 0.8921(9) 0.8946(6)
C101 C 0.3289(9) 0.8923(12) 0.9446(7)
H68 H 0.2985 0.8807 0.9726
C102 C 0.4063(10) 0.9088(17) 0.9535(9)
C103 C 0.4469(11) 0.9291(14) 0.9135(8)
H69 H 0.5001 0.9427 0.9190
C104 C 0.4120(10) 0.9303(16) 0.8646(8)
H70 H 0.4420 0.9437 0.8371
C105 C 0.3338(10) 0.9121(14) 0.8556(8)
H71 H 0.3099 0.9139 0.8227
C106 C 0.4500(11) 0.9109(10) 1.0036(6)
H72 H 0.4328 0.9414 1.0343
H73 H 0.5039 0.9254 0.9990
H74 H 0.4422 0.8675 1.0105
O13 O 0.5108(4) 0.5338(3) 0.2489(2)
O14 O 0.5917(4) 0.7490(3) 0.4237(2)
O15 O 0.4823(4) 0.7948(3) 0.2789(2)
O16 O 0.6851(4) 0.8501(3) 0.3519(3)
O17 O 0.4383(4) 0.8488(3) 0.4116(3)
N3 N 0.5419(4) 0.7852(3) 0.3558(2)
C121 C 0.5331(5) 0.5910(4) 0.2655(3)
C122 C 0.5817(5) 0.6290(4) 0.3185(3)
C123 C 0.5234(5) 0.6721(4) 0.3440(3)
H89 H 0.4853 0.6477 0.3639
C124 C 0.5570(5) 0.7379(4) 0.3801(3)
C125 C 0.4995(5) 0.7608(4) 0.3063(3)
C126 C 0.4849(5) 0.6875(4) 0.2959(3)
H90 H 0.4292 0.6708 0.2948
C127 C 0.5206(5) 0.6499(4) 0.2439(3)
C128 C 0.6035(5) 0.6795(4) 0.2458(3)
C129 C 0.6397(5) 0.6681(4) 0.2888(3)
C130 C 0.7182(5) 0.6901(4) 0.2994(4)
C131 C 0.7560(6) 0.6834(4) 0.3463(4)
H91 H 0.7280 0.6675 0.3736
C132 C 0.8356(6) 0.7004(4) 0.3520(5)
H92 H 0.8610 0.6967 0.3836
C133 C 0.8773(6) 0.7226(4) 0.3120(4)
H93 H 0.9310 0.7318 0.3152
C134 C 0.8407(6) 0.7309(4) 0.2689(4)
H94 H 0.8700 0.7464 0.2420
C135 C 0.7608(5) 0.7177(4) 0.2611(4)
C136 C 0.7234(5) 0.7330(4) 0.2176(3)
C137 C 0.7618(6) 0.7652(4) 0.1806(4)
H95 H 0.8155 0.7748 0.1831
C138 C 0.7246(6) 0.7831(4) 0.1415(4)
H96 H 0.7524 0.8051 0.1174
C139 C 0.6462(6) 0.7690(4) 0.1367(4)
H97 H 0.6201 0.7829 0.1102
C140 C 0.6063(6) 0.7352(4) 0.1702(3)
H98 H 0.5528 0.7243 0.1659
C141 C 0.6437(5) 0.7166(4) 0.2106(3)
C142 C 0.6065(5) 0.5863(4) 0.3512(3)
C143 C 0.5915(6) 0.5943(4) 0.4063(3)
H99 H 0.5657 0.6280 0.4238
C144 C 0.6140(6) 0.5534(4) 0.4361(4)
H100 H 0.6042 0.5596 0.4736
C145 C 0.6504(6) 0.5041(4) 0.4108(4)
H101 H 0.6651 0.4759 0.4308
C146 C 0.6656(6) 0.4952(4) 0.3567(4)
H102 H 0.6911 0.4611 0.3396
C147 C 0.6440(5) 0.5358(4) 0.3275(4)
H103 H 0.6549 0.5292 0.2901
C148 C 0.4713(5) 0.6326(4) 0.1922(3)
C149 C 0.4875(5) 0.5837(4) 0.1489(3)
H104 H 0.5295 0.5632 0.1521
C150 C 0.4439(6) 0.5653(4) 0.1020(3)
H105 H 0.4553 0.5316 0.0732
C151 C 0.3829(6) 0.5949(4) 0.0957(4)
H106 H 0.3525 0.5814 0.0629
C152 C 0.3670(6) 0.6441(4) 0.1375(4)
H107 H 0.3261 0.6654 0.1335
C153 C 0.4113(5) 0.6624(4) 0.1854(3)
H108 H 0.3999 0.6962 0.2142
C154 C 0.5617(5) 0.8524(4) 0.3816(3)
C155 C 0.6353(6) 0.8859(4) 0.3786(4)
C156 C 0.6524(6) 0.9511(4) 0.4056(4)
H109 H 0.7022 0.9745 0.4046
C157 C 0.5996(6) 0.9824(4) 0.4333(4)
H110 H 0.6131 1.0265 0.4527
C158 C 0.5259(6) 0.9499(4) 0.4334(4)
H111 H 0.4880 0.9724 0.4505
C159 C 0.5077(5) 0.8840(4) 0.4081(3)
C160 C 0.7384(6) 0.8815(5) 0.3229(4)
C161 C 0.7157(7) 0.9099(5) 0.2848(4)
H112 H 0.6632 0.9088 0.2788
C162 C 0.7679(8) 0.9406(6) 0.2545(5)
C163 C 0.8428(7) 0.9379(5) 0.2626(5)
H113 H 0.8793 0.9564 0.2410
C164 C 0.8669(7) 0.9090(6) 0.3013(5)
H114 H 0.9190 0.9083 0.3066
C165 C 0.8119(6) 0.8805(5) 0.3326(5)
H115 H 0.8266 0.8611 0.3600
C166 C 0.7432(9) 0.9730(7) 0.2121(6)
H116 H 0.7830 1.0093 0.2091
H117 H 0.6965 0.9894 0.2230
H118 H 0.7342 0.9413 0.1769
C167 C 0.3753(6) 0.8773(4) 0.4093(5)
C168 C 0.3623(6) 0.8986(4) 0.3643(5)
H119 H 0.3983 0.8962 0.3368
C169 C 0.2968(7) 0.9241(5) 0.3576(5)
C170 C 0.2463(7) 0.9273(5) 0.4000(5)
H120 H 0.2018 0.9449 0.3977
C171 C 0.2608(7) 0.9053(5) 0.4449(5)
H121 H 0.2251 0.9069 0.4726
C172 C 0.3260(6) 0.8809(5) 0.4510(5)
H122 H 0.3362 0.8672 0.4828
C173 C 0.2812(8) 0.9469(6) 0.3081(5)
H123 H 0.3278 0.9530 0.2884
H124 H 0.2629 0.9882 0.3190
H125 H 0.2426 0.9144 0.2845
O18 O 0.0631(4) 0.6973(3) 0.3247(2)
O19 O 0.2095(4) 0.6751(3) 0.5098(2)
O20 O 0.3653(4) 0.7076(3) 0.3743(2)
O21 O 0.3355(4) 0.5700(3) 0.4188(3)
O22 O 0.3797(4) 0.7798(3) 0.5343(2)
N4 N 0.3011(4) 0.6902(3) 0.4490(3)
C174 C 0.1144(5) 0.6806(4) 0.3450(3)
C175 C 0.1154(5) 0.6539(4) 0.3967(3)
C176 C 0.1804(5) 0.7094(4) 0.4285(3)
H126 H 0.1604 0.7494 0.4465
C177 C 0.2276(6) 0.6881(4) 0.4676(3)
C178 C 0.3076(5) 0.7067(4) 0.3988(3)
C179 C 0.2356(5) 0.7218(4) 0.3828(3)
H127 H 0.2428 0.7687 0.3819
C180 C 0.1965(5) 0.6789(4) 0.3284(3)
C181 C 0.1959(5) 0.6082(4) 0.3299(3)
C182 C 0.1501(5) 0.5959(4) 0.3708(3)
C183 C 0.1416(5) 0.5346(4) 0.3868(3)
C184 C 0.1085(5) 0.5247(4) 0.4341(3)
H128 H 0.0913 0.5596 0.4585
C185 C 0.1001(5) 0.4643(4) 0.4464(3)
H129 H 0.0780 0.4576 0.4791
C186 C 0.1253(5) 0.4130(4) 0.4090(3)
H130 H 0.1163 0.3705 0.4150
C187 C 0.1629(5) 0.4242(4) 0.3637(3)
H131 H 0.1819 0.3896 0.3403
C188 C 0.1738(5) 0.4848(4) 0.3514(3)
C189 C 0.2200(5) 0.4976(4) 0.3071(3)
C190 C 0.2547(5) 0.4492(4) 0.2730(3)
H132 H 0.2434 0.4057 0.2766
C191 C 0.3035(5) 0.4642(4) 0.2354(3)
H133 H 0.3270 0.4311 0.2140
C192 C 0.3203(6) 0.5267(4) 0.2272(3)
H134 H 0.3549 0.5364 0.2007
C193 C 0.2855(5) 0.5739(4) 0.2584(3)
H135 H 0.2964 0.6167 0.2531
C194 C 0.2345(5) 0.5610(4) 0.2980(3)
C195 C 0.0381(5) 0.6450(4) 0.4213(3)
C196 C 0.0210(6) 0.6812(4) 0.4713(3)
H136 H 0.0592 0.7125 0.4937
C197 C -0.0517(6) 0.6713(5) 0.4882(4)
H137 H -0.0635 0.6959 0.5225
C198 C -0.1078(6) 0.6265(4) 0.4561(4)
H138 H -0.1579 0.6205 0.4683
C199 C -0.0914(6) 0.5908(5) 0.4071(4)
H139 H -0.1304 0.5598 0.3853
C200 C -0.0186(5) 0.5989(4) 0.3885(3)
H140 H -0.0074 0.5738 0.3542
C201 C 0.2140(5) 0.7012(4) 0.2769(3)
C202 C 0.1670(5) 0.6716(4) 0.2314(3)
H141 H 0.1273 0.6366 0.2328
C203 C 0.1774(6) 0.6927(5) 0.1834(4)
H142 H 0.1472 0.6705 0.1515
C204 C 0.2324(6) 0.7463(5) 0.1831(4)
H143 H 0.2377 0.7626 0.1514
C205 C 0.2795(6) 0.7762(5) 0.2280(4)
H144 H 0.3185 0.8117 0.2268
C206 C 0.2697(6) 0.7539(4) 0.2756(4)
H145 H 0.3013 0.7750 0.3071
C207 C 0.3608(6) 0.6738(5) 0.4774(3)
C208 C 0.3781(6) 0.6125(4) 0.4630(3)
C209 C 0.4344(5) 0.5943(5) 0.4896(3)
H146 H 0.4461 0.5519 0.4792
C210 C 0.4734(5) 0.6421(4) 0.5331(3)
H147 H 0.5130 0.6320 0.5524
C211 C 0.4559(6) 0.7023(5) 0.5480(4)
H148 H 0.4819 0.7329 0.5786
C212 C 0.4017(6) 0.7195(5) 0.5201(3)
C213 C 0.3620(9) 0.5109(5) 0.3977(6)
C214 C 0.3308(11) 0.4564(6) 0.4174(7)
H149 H 0.2966 0.4624 0.4460
C215 C 0.3470(12) 0.3950(6) 0.3977(7)
C216 C 0.3970(10) 0.3879(7) 0.3566(7)
H150 H 0.4077 0.3460 0.3407
C217 C 0.4328(10) 0.4417(6) 0.3372(7)
H151 H 0.4699 0.4366 0.3106
C218 C 0.4128(9) 0.5019(7) 0.3579(6)
H152 H 0.4350 0.5377 0.3439
C219 C 0.3131(10) 0.3373(7) 0.4183(7)
H153 H 0.2578 0.3304 0.4141
H154 H 0.3279 0.3449 0.4568
H155 H 0.3313 0.2987 0.3976
C220 C 0.4303(10) 0.8345(11) 0.5603(8)
C221 C 0.4101(13) 0.8675(11) 0.6114(8)
H156 H 0.3616 0.8533 0.6236
C222 C 0.4571(10) 0.9197(8) 0.6448(7)
C223 C 0.5275(10) 0.9373(9) 0.6265(8)
H157 H 0.5613 0.9727 0.6489
C224 C 0.5525(9) 0.9052(9) 0.5758(8)
H158 H 0.6019 0.9179 0.5642
C225 C 0.5009(10) 0.8542(10) 0.5440(9)
H159 H 0.5156 0.8323 0.5096
C226 C 0.4298(13) 0.9560(10) 0.6969(7)
H160 H 0.3822 0.9694 0.6898
H161 H 0.4678 0.9945 0.7128
H162 H 0.4216 0.9278 0.7223
O11? O -0.0221(19) 0.868(3) 0.8172(19)
C107? C -0.0592(12) 0.8961(15) 0.7827(10)
C108? C -0.0204(13) 0.9132(14) 0.7391(10)
H75? H 0.0304 0.9071 0.7336
C109? C -0.0572(14) 0.9391(12) 0.7042(10)
C110? C -0.1309(14) 0.9432(14) 0.7119(12)
H76? H -0.1565 0.9600 0.6872
C111? C -0.1726(12) 0.9238(13) 0.7551(12)
H77? H -0.2242 0.9277 0.7596
C112? C -0.1334(11) 0.8988(14) 0.7902(11)
H78? H -0.1583 0.8838 0.8190
C113? C -0.0167(18) 0.9588(13) 0.6577(10)
H79? H 0.0294 0.9903 0.6715
H80? H -0.0497 0.9786 0.6384
H81? H -0.0033 0.9204 0.6328
O12? O 0.2159(11) 0.8723(12) 0.9077(12)
C114? C 0.2946(12) 0.8858(18) 0.9060(10)
C115? C 0.3201(15) 0.905(3) 0.8590(13)
H82? H 0.2845 0.9034 0.8307
C116? C 0.3952(16) 0.927(3) 0.8533(13)
C117? C 0.4432(16) 0.931(3) 0.8960(14)
H83? H 0.4952 0.9483 0.8941
C118? C 0.4187(16) 0.910(3) 0.9436(15)
H84? H 0.4540 0.9128 0.9723
C119? C 0.3415(14) 0.886(2) 0.9473(12)
H85? H 0.3232 0.8710 0.9779
C120? C 0.4284(18) 0.9385(18) 0.8021(11)
H86? H 0.4220 0.8973 0.7744
H87? H 0.4824 0.9568 0.8088
H88? H 0.4027 0.9690 0.7893
C227? C 0.3394(10) 0.5039(5) 0.4130(6)
C228? C 0.3826(11) 0.4846(7) 0.3686(7)
H163? H 0.4046 0.5140 0.3480
C229? C 0.3919(12) 0.4203(7) 0.3559(7)
C230? C 0.3547(12) 0.3797(8) 0.3852(7)
H164? H 0.3573 0.3347 0.3743
C231? C 0.3126(11) 0.4012(7) 0.4309(6)
H165? H 0.2917 0.3726 0.4526
C232? C 0.3027(11) 0.4656(7) 0.4432(7)
H166? H 0.2715 0.4818 0.4715
C233? C 0.4329(10) 0.3947(8) 0.3068(6)
H167? H 0.4597 0.3613 0.3136
H168? H 0.4694 0.4302 0.2986
H169? H 0.3966 0.3757 0.2759
C234? C 0.4406(10) 0.8262(10) 0.5582(8)
C235? C 0.4274(12) 0.8706(9) 0.6058(8)
H170? H 0.3818 0.8633 0.6241
C236? C 0.4819(11) 0.9251(8) 0.6257(7)
C237? C 0.5450(9) 0.9335(8) 0.5963(7)
H171? H 0.5845 0.9692 0.6107
C238? C 0.5545(11) 0.8917(9) 0.5453(9)
H172? H 0.5978 0.9006 0.5250
C239? C 0.4990(11) 0.8373(10) 0.5258(9)
H173? H 0.5018 0.8090 0.4911
C240? C 0.4727(15) 0.9708(9) 0.6788(7)
H174? H 0.4288 0.9914 0.6758
H175? H 0.5183 1.0044 0.6881
H176? H 0.4651 0.9468 0.7072
loop_
_geom_bond_atom_site_label_1
_geom_bond_atom_site_label_2
_geom_bond_site_symmetry_1
_geom_bond_site_symmetry_2
O1 C1 1_555 1_555
O2 C4 1_555 1_555
O3 C5 1_555 1_555
O4 C35 1_555 1_555
N1 C4 1_555 1_555
C1 C2 1_555 1_555
C2 C3 1_555 1_555
C3 H1 1_555 1_555
C4 C3 1_555 1_555
C5 N1 1_555 1_555
C6 C3 1_555 1_555
H2 C6 1_555 1_555
C7 C1 1_555 1_555
C8 C7 1_555 1_555
C9 C2 1_555 1_555
C10 C9 1_555 1_555
C11 C10 1_555 1_555
H3 C11 1_555 1_555
C12 C11 1_555 1_555
H4 C12 1_555 1_555
C13 C12 1_555 1_555
H5 C13 1_555 1_555
C14 C13 1_555 1_555
H6 C14 1_555 1_555
C15 C10 1_555 1_555
C16 C15 1_555 1_555
C17 C16 1_555 1_555
H7 C17 1_555 1_555
C18 C17 1_555 1_555
H8 C18 1_555 1_555
C19 C18 1_555 1_555
H9 C19 1_555 1_555
C20 C19 1_555 1_555
H10 C20 1_555 1_555
C21 C8 1_555 1_555
C22 C2 1_555 1_555
C23 C22 1_555 1_555
H11 C23 1_555 1_555
C24 C23 1_555 1_555
H12 C24 1_555 1_555
C25 C24 1_555 1_555
H13 C25 1_555 1_555
C26 C25 1_555 1_555
H14 C26 1_555 1_555
C27 C22 1_555 1_555
H15 C27 1_555 1_555
C28 C7 1_555 1_555
C29 C28 1_555 1_555
H16 C29 1_555 1_555
C30 C29 1_555 1_555
H17 C30 1_555 1_555
C31 C30 1_555 1_555
H18 C31 1_555 1_555
C32 C31 1_555 1_555
H19 C32 1_555 1_555
C33 C28 1_555 1_555
H20 C33 1_555 1_555
C34 N1 1_555 1_555
C35 C34 1_555 1_555
C36 C35 1_555 1_555
H21 C36 1_555 1_555
C37 C36 1_555 1_555
H22 C37 1_555 1_555
C38 C37 1_555 1_555
H23 C38 1_555 1_555
C39 C34 1_555 1_555
C40 O4 1_555 1_555
C41 C40 1_555 1_555
H24 C41 1_555 1_555
C42 C41 1_555 1_555
C43 C42 1_555 1_555
H25 C43 1_555 1_555
C44 C43 1_555 1_555
H26 C44 1_555 1_555
C45 C40 1_555 1_555
H27 C45 1_555 1_555
C46 C42 1_555 1_555
H28 C46 1_555 1_555
H29 C46 1_555 1_555
H30 C46 1_555 1_555
O5 C39 1_555 1_555
C47 O5 1_555 1_555
C48 C47 1_555 1_555
H31 C48 1_555 1_555
C49 C48 1_555 1_555
C50 C49 1_555 1_555
H32 C50 1_555 1_555
C51 C50 1_555 1_555
H33 C51 1_555 1_555
C52 C47 1_555 1_555
H34 C52 1_555 1_555
C53 C49 1_555 1_555
H35 C53 1_555 1_555
H36 C53 1_555 1_555
H37 C53 1_555 1_555
O6 C54 1_555 1_555
O7 C57 1_555 1_555
O8 C58 1_555 1_555
N2 C57 1_555 1_555
C54 C55 1_555 1_555
C55 C56 1_555 1_555
C56 H38 1_555 1_555
C57 C56 1_555 1_555
C58 N2 1_555 1_555
C59 C56 1_555 1_555
H39 C59 1_555 1_555
C60 C54 1_555 1_555
C61 C60 1_555 1_555
C62 C55 1_555 1_555
C63 C62 1_555 1_555
C64 C63 1_555 1_555
H40 C64 1_555 1_555
C65 C64 1_555 1_555
H41 C65 1_555 1_555
C66 C65 1_555 1_555
H42 C66 1_555 1_555
C67 C66 1_555 1_555
H43 C67 1_555 1_555
C68 C63 1_555 1_555
C69 C68 1_555 1_555
C70 C69 1_555 1_555
H44 C70 1_555 1_555
C71 C70 1_555 1_555
H45 C71 1_555 1_555
C72 C71 1_555 1_555
H46 C72 1_555 1_555
C73 C72 1_555 1_555
H47 C73 1_555 1_555
C74 C61 1_555 1_555
C75 C55 1_555 1_555
C76 C75 1_555 1_555
H48 C76 1_555 1_555
C77 C76 1_555 1_555
H49 C77 1_555 1_555
C78 C77 1_555 1_555
H50 C78 1_555 1_555
C79 C78 1_555 1_555
H51 C79 1_555 1_555
C80 C75 1_555 1_555
H52 C80 1_555 1_555
C81 C60 1_555 1_555
C82 C81 1_555 1_555
H53 C82 1_555 1_555
C83 C82 1_555 1_555
H54 C83 1_555 1_555
C84 C83 1_555 1_555
H55 C84 1_555 1_555
C85 C84 1_555 1_555
H56 C85 1_555 1_555
C86 C81 1_555 1_555
H57 C86 1_555 1_555
C87 N2 1_555 1_555
C88 C87 1_555 1_555
C89 C88 1_555 1_555
H58 C89 1_555 1_555
C90 C89 1_555 1_555
H59 C90 1_555 1_555
C91 C90 1_555 1_555
H60 C91 1_555 1_555
C92 C87 1_555 1_555
O9 C88 1_555 1_555
C93 O9 1_555 1_555
C94 C93 1_555 1_555
H61 C94 1_555 1_555
C95 C94 1_555 1_555
C96 C95 1_555 1_555
H62 C96 1_555 1_555
C97 C96 1_555 1_555
H63 C97 1_555 1_555
C98 C93 1_555 1_555
H64 C98 1_555 1_555
C99 C95 1_555 1_555
H65 C99 1_555 1_555
H66 C99 1_555 1_555
H67 C99 1_555 1_555
O10 C92 1_555 1_555
C100 O10 1_555 1_555
C101 C100 1_555 1_555
H68 C101 1_555 1_555
C102 C101 1_555 1_555
C103 C102 1_555 1_555
H69 C103 1_555 1_555
C104 C103 1_555 1_555
H70 C104 1_555 1_555
C105 C100 1_555 1_555
H71 C105 1_555 1_555
C106 C102 1_555 1_555
H72 C106 1_555 1_555
H73 C106 1_555 1_555
H74 C106 1_555 1_555
O13 C121 1_555 1_555
O14 C124 1_555 1_555
O15 C125 1_555 1_555
O16 C155 1_555 1_555
O17 C159 1_555 1_555
N3 C124 1_555 1_555
C121 C122 1_555 1_555
C122 C123 1_555 1_555
C123 H89 1_555 1_555
C124 C123 1_555 1_555
C125 N3 1_555 1_555
C126 C123 1_555 1_555
H90 C126 1_555 1_555
C127 C121 1_555 1_555
C128 C127 1_555 1_555
C129 C122 1_555 1_555
C130 C129 1_555 1_555
C131 C130 1_555 1_555
H91 C131 1_555 1_555
C132 C131 1_555 1_555
H92 C132 1_555 1_555
C133 C132 1_555 1_555
H93 C133 1_555 1_555
C134 C133 1_555 1_555
H94 C134 1_555 1_555
C135 C130 1_555 1_555
C136 C135 1_555 1_555
C137 C136 1_555 1_555
H95 C137 1_555 1_555
C138 C137 1_555 1_555
H96 C138 1_555 1_555
C139 C138 1_555 1_555
H97 C139 1_555 1_555
C140 C139 1_555 1_555
H98 C140 1_555 1_555
C141 C128 1_555 1_555
C142 C122 1_555 1_555
C143 C142 1_555 1_555
H99 C143 1_555 1_555
C144 C143 1_555 1_555
H100 C144 1_555 1_555
C145 C144 1_555 1_555
H101 C145 1_555 1_555
C146 C145 1_555 1_555
H102 C146 1_555 1_555
C147 C142 1_555 1_555
H103 C147 1_555 1_555
C148 C127 1_555 1_555
C149 C148 1_555 1_555
H104 C149 1_555 1_555
C150 C149 1_555 1_555
H105 C150 1_555 1_555
C151 C150 1_555 1_555
H106 C151 1_555 1_555
C152 C151 1_555 1_555
H107 C152 1_555 1_555
C153 C148 1_555 1_555
H108 C153 1_555 1_555
C154 N3 1_555 1_555
C155 C154 1_555 1_555
C156 C155 1_555 1_555
H109 C156 1_555 1_555
C157 C156 1_555 1_555
H110 C157 1_555 1_555
C158 C157 1_555 1_555
H111 C158 1_555 1_555
C159 C154 1_555 1_555
C160 O16 1_555 1_555
C161 C160 1_555 1_555
H112 C161 1_555 1_555
C162 C161 1_555 1_555
C163 C162 1_555 1_555
H113 C163 1_555 1_555
C164 C163 1_555 1_555
H114 C164 1_555 1_555
C165 C160 1_555 1_555
H115 C165 1_555 1_555
C166 C162 1_555 1_555
H116 C166 1_555 1_555
H117 C166 1_555 1_555
H118 C166 1_555 1_555
C167 O17 1_555 1_555
C168 C167 1_555 1_555
H119 C168 1_555 1_555
C169 C168 1_555 1_555
C170 C169 1_555 1_555
H120 C170 1_555 1_555
C171 C170 1_555 1_555
H121 C171 1_555 1_555
C172 C167 1_555 1_555
H122 C172 1_555 1_555
C173 C169 1_555 1_555
H123 C173 1_555 1_555
H124 C173 1_555 1_555
H125 C173 1_555 1_555
O18 C174 1_555 1_555
O19 C177 1_555 1_555
O20 C178 1_555 1_555
O21 C208 1_555 1_555
O22 C212 1_555 1_555
N4 C177 1_555 1_555
C174 C175 1_555 1_555
C175 C176 1_555 1_555
C176 H126 1_555 1_555
C177 C176 1_555 1_555
C178 N4 1_555 1_555
C179 C176 1_555 1_555
H127 C179 1_555 1_555
C180 C174 1_555 1_555
C181 C180 1_555 1_555
C182 C175 1_555 1_555
C183 C182 1_555 1_555
C184 C183 1_555 1_555
H128 C184 1_555 1_555
C185 C184 1_555 1_555
H129 C185 1_555 1_555
C186 C185 1_555 1_555
H130 C186 1_555 1_555
C187 C186 1_555 1_555
H131 C187 1_555 1_555
C188 C183 1_555 1_555
C189 C188 1_555 1_555
C190 C189 1_555 1_555
H132 C190 1_555 1_555
C191 C190 1_555 1_555
H133 C191 1_555 1_555
C192 C191 1_555 1_555
H134 C192 1_555 1_555
C193 C192 1_555 1_555
H135 C193 1_555 1_555
C194 C181 1_555 1_555
C195 C175 1_555 1_555
C196 C195 1_555 1_555
H136 C196 1_555 1_555
C197 C196 1_555 1_555
H137 C197 1_555 1_555
C198 C197 1_555 1_555
H138 C198 1_555 1_555
C199 C198 1_555 1_555
H139 C199 1_555 1_555
C200 C195 1_555 1_555
H140 C200 1_555 1_555
C201 C180 1_555 1_555
C202 C201 1_555 1_555
H141 C202 1_555 1_555
C203 C202 1_555 1_555
H142 C203 1_555 1_555
C204 C203 1_555 1_555
H143 C204 1_555 1_555
C205 C204 1_555 1_555
H144 C205 1_555 1_555
C206 C201 1_555 1_555
H145 C206 1_555 1_555
C207 N4 1_555 1_555
C208 C207 1_555 1_555
C209 C208 1_555 1_555
H146 C209 1_555 1_555
C210 C209 1_555 1_555
H147 C210 1_555 1_555
C211 C210 1_555 1_555
H148 C211 1_555 1_555
C212 C207 1_555 1_555
C213 O21 1_555 1_555
C214 C213 1_555 1_555
H149 C214 1_555 1_555
C215 C214 1_555 1_555
C216 C215 1_555 1_555
H150 C216 1_555 1_555
C217 C216 1_555 1_555
H151 C217 1_555 1_555
C218 C213 1_555 1_555
H152 C218 1_555 1_555
C219 C215 1_555 1_555
H153 C219 1_555 1_555
H154 C219 1_555 1_555
H155 C219 1_555 1_555
C220 O22 1_555 1_555
C221 C220 1_555 1_555
H156 C221 1_555 1_555
C222 C221 1_555 1_555
C223 C222 1_555 1_555
H157 C223 1_555 1_555
C224 C223 1_555 1_555
H158 C224 1_555 1_555
C225 C220 1_555 1_555
H159 C225 1_555 1_555
C226 C222 1_555 1_555
H160 C226 1_555 1_555
H161 C226 1_555 1_555
H162 C226 1_555 1_555
C5 C6 1_555 1_555
C6 C7 1_555 1_555
C8 C9 1_555 1_555
C14 C15 1_555 1_555
C16 C21 1_555 1_555
C20 C21 1_555 1_555
C26 C27 1_555 1_555
C32 C33 1_555 1_555
C38 C39 1_555 1_555
C44 C45 1_555 1_555
C51 C52 1_555 1_555
C58 C59 1_555 1_555
C59 C60 1_555 1_555
C61 C62 1_555 1_555
C67 C68 1_555 1_555
C69 C74 1_555 1_555
C73 C74 1_555 1_555
C79 C80 1_555 1_555
C85 C86 1_555 1_555
C91 C92 1_555 1_555
C97 C98 1_555 1_555
C104 C105 1_555 1_555
C125 C126 1_555 1_555
C126 C127 1_555 1_555
C128 C129 1_555 1_555
C134 C135 1_555 1_555
C136 C141 1_555 1_555
C140 C141 1_555 1_555
C146 C147 1_555 1_555
C152 C153 1_555 1_555
C158 C159 1_555 1_555
C164 C165 1_555 1_555
C171 C172 1_555 1_555
C178 C179 1_555 1_555
C179 C180 1_555 1_555
C181 C182 1_555 1_555
C187 C188 1_555 1_555
C189 C194 1_555 1_555
C193 C194 1_555 1_555
C199 C200 1_555 1_555
C205 C206 1_555 1_555
C211 C212 1_555 1_555
C217 C218 1_555 1_555
C224 C225 1_555 1_555

#END
