
#######################################################################
#
#                 Cambridge Crystallographic Data Centre
#                                CCDC 
#
#######################################################################
#
# If this CIF has been generated from an entry in the Cambridge 
# Structural Database, then it will include bibliographic, chemical, 
# crystal, experimental, refinement or atomic coordinate data resulting 
# from the CCDC's data processing and validation procedures.
#
#######################################################################

data_EPUGED
_chemical_formula_moiety         'C67 H65 N1 O5,1.78(C2 H3 N1),0.25(C1 H2 Cl2)'
_chemical_name_systematic        
'19-(2,6-bis(3,5-di-t-butylphenoxy)phenyl)-1,16-diphenyl-19-azahexacyclo[14.5.1.0^2,15^.0^3,8^.0^9,14^.0^17,21^]docosa-2(15),3,5,7,9,11,13-heptaene-18,20,22-trione acetonitrile dichloromethane solvate'
_symmetry_cell_setting           monoclinic
_symmetry_space_group_name_H-M   'P 21/c'
_symmetry_Int_Tables_number      14
_space_group_name_Hall           '-P 2ybc'
loop_
_symmetry_equiv_pos_site_id
_symmetry_equiv_pos_as_xyz
1 x,y,z
2 -x,1/2+y,1/2-z
3 -x,-y,-z
4 x,1/2-y,1/2+z
_cell_length_a                   17.8889(12)
_cell_length_b                   21.6837(15)
_cell_length_c                   31.231(2)
_cell_angle_alpha                90
_cell_angle_beta                 94.708(2)
_cell_angle_gamma                90
_cell_volume                     12073.6
_exptl_crystal_colour            colorless
_exptl_crystal_description       plate
_cell_formula_units_Z            8
loop_
_atom_site_label
_atom_site_type_symbol
_atom_site_fract_x
_atom_site_fract_y
_atom_site_fract_z
O1 O 0.99275(12) 0.33233(10) 0.72425(7)
O2 O 0.85824(11) 0.45811(10) 0.58354(7)
O3 O 0.69329(11) 0.34881(10) 0.65746(7)
O4 O 0.71960(12) 0.30747(9) 0.56266(6)
O5 O 0.70242(12) 0.51701(9) 0.59708(6)
N1 N 0.76430(13) 0.40478(11) 0.61328(7)
C1 C 0.94514(17) 0.33677(13) 0.69556(9)
C2 C 0.94682(16) 0.36801(13) 0.65075(9)
C3 C 0.87935(15) 0.41246(13) 0.65486(9)
H1 H 0.8962 0.4506 0.6709
C4 C 0.83629(16) 0.42907(13) 0.61292(9)
C5 C 0.75171(16) 0.37281(13) 0.65076(9)
C6 C 0.82354(16) 0.37607(13) 0.68022(9)
H2 H 0.8143 0.3985 0.7073
C7 C 0.86277(16) 0.31272(13) 0.69118(9)
C8 C 0.86997(15) 0.27911(13) 0.64843(9)
C9 C 0.91731(15) 0.31191(13) 0.62504(9)
C10 C 0.93349(15) 0.29315(14) 0.58254(9)
C11 C 0.97379(16) 0.33080(15) 0.55560(10)
H3 H 0.9899 0.3706 0.5651
C12 C 0.98985(18) 0.31050(17) 0.51600(10)
H4 H 1.0167 0.3363 0.4981
C13 C 0.96702(18) 0.25205(17) 0.50179(10)
H5 H 0.9799 0.2376 0.4746
C14 C 0.92614(17) 0.21544(16) 0.52682(10)
H6 H 0.9103 0.1759 0.5165
C15 C 0.90684(16) 0.23501(14) 0.56766(9)
C16 C 0.85924(17) 0.19816(14) 0.59356(9)
C17 C 0.83284(19) 0.13989(15) 0.58031(10)
H7 H 0.8484 0.1230 0.5544
C18 C 0.7856(2) 0.10669(16) 0.60332(11)
H8 H 0.7694 0.0669 0.5937
C19 C 0.7609(2) 0.13102(16) 0.64109(11)
H9 H 0.7267 0.1083 0.6567
C20 C 0.78589(18) 0.18771(15) 0.65561(10)
H10 H 0.7684 0.2042 0.6812
C21 C 0.83709(16) 0.22173(13) 0.63317(9)
C22 C 1.02119(16) 0.39558(14) 0.64247(9)
C23 C 1.03001(18) 0.45776(15) 0.63362(10)
H11 H 0.9880 0.4846 0.6332
C24 C 1.09966(18) 0.48117(16) 0.62529(12)
H12 H 1.1052 0.5238 0.6193
C25 C 1.16060(19) 0.44241(16) 0.62567(12)
H13 H 1.2080 0.4581 0.6193
C26 C 1.15276(18) 0.38063(15) 0.63540(12)
H14 H 1.1950 0.3540 0.6361
C27 C 1.08369(17) 0.35753(15) 0.64406(10)
H15 H 1.0789 0.3152 0.6512
C28 C 0.83990(17) 0.27859(14) 0.72973(9)
C29 C 0.88369(18) 0.22942(14) 0.74580(10)
H16 H 0.9275 0.2183 0.7324
C30 C 0.8642(2) 0.19669(15) 0.78092(10)
H17 H 0.8945 0.1632 0.7915
C31 C 0.8012(2) 0.21218(16) 0.80071(10)
H18 H 0.7880 0.1896 0.8251
C32 C 0.7569(2) 0.26062(16) 0.78517(10)
H19 H 0.7131 0.2712 0.7988
C33 C 0.77613(18) 0.29397(15) 0.74973(10)
H20 H 0.7455 0.3274 0.7392
C34 C 0.70892(15) 0.41251(13) 0.57801(9)
C35 C 0.68710(16) 0.36296(13) 0.55189(9)
C36 C 0.63509(18) 0.37180(14) 0.51675(10)
H21 H 0.6192 0.3380 0.4989
C37 C 0.60706(19) 0.42994(15) 0.50820(10)
H22 H 0.5723 0.4359 0.4839
C38 C 0.62776(17) 0.47988(14) 0.53382(10)
H23 H 0.6074 0.5196 0.5274
C39 C 0.67891(16) 0.47094(13) 0.56908(9)
C40 C 0.69795(16) 0.25722(14) 0.53615(9)
C41 C 0.72972(17) 0.25059(14) 0.49760(9)
H24 H 0.7659 0.2794 0.4894
C42 C 0.70816(17) 0.20123(14) 0.47083(10)
C43 C 0.65663(18) 0.15969(15) 0.48495(10)
H25 H 0.6422 0.1255 0.4671
C44 C 0.6250(2) 0.16562(16) 0.52403(11)
C45 C 0.64697(19) 0.21607(15) 0.54995(10)
H26 H 0.6267 0.2218 0.5769
C46 C 0.73900(16) 0.19234(14) 0.42691(10)
C47 C 0.67440(18) 0.19176(17) 0.39132(10)
H27 H 0.6382 0.1597 0.3975
H28 H 0.6943 0.1831 0.3636
H29 H 0.6495 0.2320 0.3901
C48 C 0.7801(2) 0.13043(15) 0.42636(11)
H30 H 0.8197 0.1292 0.4500
H31 H 0.8024 0.1256 0.3989
H32 H 0.7445 0.0968 0.4299
C49 C 0.79364(19) 0.24336(16) 0.41662(11)
H33 H 0.7683 0.2834 0.4172
H34 H 0.8108 0.2363 0.3880
H35 H 0.8368 0.2431 0.4381
C50 C 0.5679(2) 0.1183(2) 0.53704(13)
C51 C 0.4971(3) 0.1228(3) 0.50652(18)
H36 H 0.4757 0.1642 0.5083
H37 H 0.4605 0.0922 0.5146
H38 H 0.5097 0.1150 0.4771
C52 C 0.6003(3) 0.0521(2) 0.53380(17)
H39 H 0.6115 0.0440 0.5041
H40 H 0.5635 0.0220 0.5424
H41 H 0.6465 0.0486 0.5528
C53 C 0.5478(4) 0.1279(3) 0.58295(16)
H42 H 0.5937 0.1295 0.6023
H43 H 0.5164 0.0936 0.5913
H44 H 0.5202 0.1667 0.5848
C54 C 0.68682(16) 0.57763(13) 0.58330(9)
C55 C 0.62676(17) 0.60759(15) 0.59864(10)
H45 H 0.5953 0.5870 0.6171
C56 C 0.61288(19) 0.66888(16) 0.58656(10)
C57 C 0.66209(19) 0.69670(15) 0.56028(10)
H46 H 0.6539 0.7387 0.5527
C58 C 0.72223(17) 0.66671(14) 0.54452(9)
C59 C 0.73429(16) 0.60564(14) 0.55671(9)
H47 H 0.7751 0.5833 0.5467
C60 C 0.5355(4) 0.6949(4) 0.5971(3)
C61 C 0.4703(4) 0.6486(3) 0.5932(3)
H48 H 0.4658 0.6309 0.5642
H49 H 0.4236 0.6697 0.5986
H50 H 0.4801 0.6155 0.6143
C62 C 0.5470(5) 0.7175(4) 0.6440(2)
H51 H 0.5591 0.6823 0.6630
H52 H 0.5008 0.7372 0.6521
H53 H 0.5882 0.7474 0.6468
C63 C 0.5143(4) 0.7509(4) 0.5686(2)
H54 H 0.5519 0.7834 0.5742
H55 H 0.4650 0.7663 0.5752
H56 H 0.5124 0.7387 0.5383
C64 C 0.77421(19) 0.70074(15) 0.51574(10)
C65 C 0.8343(2) 0.73513(17) 0.54412(11)
H57 H 0.8102 0.7640 0.5628
H58 H 0.8668 0.7580 0.5260
H59 H 0.8645 0.7054 0.5618
C66 C 0.7292(2) 0.74791(19) 0.48697(12)
H60 H 0.6861 0.7273 0.4717
H61 H 0.7614 0.7652 0.4661
H62 H 0.7114 0.7811 0.5049
C67 C 0.8121(2) 0.65571(18) 0.48644(12)
H63 H 0.8447 0.6276 0.5040
H64 H 0.8420 0.6789 0.4670
H65 H 0.7736 0.6318 0.4695
O6 O 0.84306(12) 0.77294(9) 0.66457(7)
O7 O 0.81282(12) 0.52126(9) 0.68873(7)
O8 O 0.64856(12) 0.63787(10) 0.75737(7)
O9 O 0.79478(12) 0.53672(10) 0.80726(7)
O10 O 0.62022(13) 0.50205(11) 0.69105(7)
N2 N 0.72961(13) 0.56965(11) 0.72928(7)
C68 C 0.83283(16) 0.72896(13) 0.68623(9)
C69 C 0.86194(16) 0.66175(13) 0.68363(9)
C70 C 0.78313(15) 0.63039(13) 0.67755(9)
H66 H 0.7648 0.6289 0.6464
C71 C 0.77966(16) 0.56704(13) 0.69767(9)
C72 C 0.69655(16) 0.62700(13) 0.73360(9)
C73 C 0.73082(16) 0.67037(13) 0.70299(9)
H67 H 0.6908 0.6896 0.6831
C74 C 0.78329(16) 0.72146(13) 0.72470(9)
C75 C 0.84265(16) 0.68929(13) 0.75482(9)
C76 C 0.88866(16) 0.65526(13) 0.73136(9)
C77 C 0.94968(16) 0.61941(13) 0.75106(9)
C78 C 0.99158(17) 0.57761(14) 0.72825(10)
H68 H 0.9779 0.5706 0.6986
C79 C 1.05180(19) 0.54680(15) 0.74807(11)
H69 H 1.0791 0.5182 0.7324
C80 C 1.07264(19) 0.55797(16) 0.79164(11)
H70 H 1.1160 0.5385 0.8051
C81 C 1.03135(18) 0.59654(15) 0.81506(11)
H71 H 1.0457 0.6026 0.8447
C82 C 0.96772(17) 0.62760(14) 0.79598(10)
C83 C 0.91913(17) 0.66456(14) 0.82114(9)
C84 C 0.93342(19) 0.67262(15) 0.86599(10)
H72 H 0.9789 0.6574 0.8799
C85 C 0.8833(2) 0.70172(15) 0.88970(10)
H73 H 0.8949 0.7076 0.9196
C86 C 0.8154(2) 0.72281(15) 0.87042(10)
H74 H 0.7792 0.7402 0.8875
C87 C 0.80058(18) 0.71861(14) 0.82672(10)
H75 H 0.7545 0.7341 0.8136
C88 C 0.85295(17) 0.69153(13) 0.80100(9)
C89 C 0.91550(16) 0.65072(13) 0.64981(9)
C90 C 0.90588(17) 0.60300(14) 0.62018(9)
H76 H 0.8639 0.5763 0.6207
C91 C 0.95743(18) 0.59408(15) 0.58972(10)
H77 H 0.9506 0.5615 0.5695
C92 C 1.01893(18) 0.63299(16) 0.58901(10)
H78 H 1.0546 0.6268 0.5685
C93 C 1.02813(18) 0.68068(15) 0.61826(11)
H79 H 1.0700 0.7075 0.6176
C94 C 0.97703(17) 0.68969(14) 0.64851(10)
H80 H 0.9839 0.7226 0.6685
C95 C 0.74697(18) 0.78007(13) 0.73820(9)
C96 C 0.7927(2) 0.83023(15) 0.74973(10)
H81 H 0.8456 0.8269 0.7493
C97 C 0.7607(2) 0.88516(16) 0.76183(11)
H82 H 0.7919 0.9194 0.7699
C98 C 0.6839(2) 0.89034(16) 0.76226(12)
H83 H 0.6625 0.9282 0.7705
C99 C 0.6382(2) 0.84097(15) 0.75090(11)
H84 H 0.5853 0.8447 0.7513
C100 C 0.66942(18) 0.78573(14) 0.73885(10)
H85 H 0.6379 0.7516 0.7310
C101 C 0.70531(16) 0.51585(13) 0.75062(9)
C102 C 0.73856(16) 0.49866(13) 0.79055(9)
C103 C 0.71237(18) 0.44735(14) 0.81102(10)
H86 H 0.7349 0.4349 0.8383
C104 C 0.65298(18) 0.41444(15) 0.79129(10)
H87 H 0.6347 0.3795 0.8055
C105 C 0.61934(18) 0.43075(15) 0.75150(10)
H88 H 0.5787 0.4075 0.7383
C106 C 0.64672(17) 0.48203(14) 0.73140(9)
C107 C 0.83840(18) 0.51536(14) 0.84393(10)
C108 C 0.89493(18) 0.47432(14) 0.83864(10)
H89 H 0.9031 0.4593 0.8108
C109 C 0.94044(18) 0.45464(14) 0.87441(10)
C110 C 0.92565(18) 0.47893(14) 0.91429(10)
H90 H 0.9567 0.4664 0.9389
C111 C 0.86802(18) 0.52042(14) 0.91989(10)
C112 C 0.82355(19) 0.53886(14) 0.88319(10)
H91 H 0.7836 0.5673 0.8854
C113 C 1.00408(19) 0.40846(16) 0.87107(11)
C114 C 1.0106(2) 0.38669(19) 0.82501(12)
H92 H 0.9636 0.3669 0.8141
H93 H 1.0519 0.3570 0.8245
H94 H 1.0205 0.4222 0.8069
C115 C 1.0789(2) 0.43792(18) 0.88784(12)
H95 H 1.0892 0.4736 0.8700
H96 H 1.1193 0.4076 0.8866
H97 H 1.0759 0.4513 0.9176
C116 C 0.9902(2) 0.35163(16) 0.89855(12)
H98 H 0.9878 0.3642 0.9286
H99 H 1.0312 0.3221 0.8966
H100 H 0.9426 0.3323 0.8881
C117 C 0.8561(2) 0.54608(16) 0.96460(11)
C118 C 0.8447(2) 0.49305(17) 0.99617(11)
H101 H 0.7994 0.4699 0.9865
H102 H 0.8393 0.5100 1.0248
H103 H 0.8883 0.4655 0.9973
C119 C 0.7875(2) 0.58809(19) 0.96409(12)
H104 H 0.7941 0.6232 0.9450
H105 H 0.7818 0.6031 0.9932
H106 H 0.7426 0.5649 0.9537
C120 C 0.9257(2) 0.58324(16) 0.98062(11)
H107 H 0.9692 0.5556 0.9844
H108 H 0.9174 0.6026 1.0082
H109 H 0.9352 0.6152 0.9595
C121 C 0.54748(15) 0.4921(3) 0.6801(2)
C122 C 0.4981(2) 0.5301(2) 0.69995(15)
H110 H 0.5168 0.5587 0.7213
C123 C 0.4215(2) 0.5262(2) 0.68863(13)
C124 C 0.39420(14) 0.4844(2) 0.65746(14)
H111 H 0.3418 0.4817 0.6497
C125 C 0.4435(2) 0.4464(2) 0.63761(14)
C126 C 0.52018(19) 0.4502(3) 0.64893(19)
H112 H 0.5539 0.4243 0.6354
C127 C 0.3687(4) 0.5691(3) 0.7119(2)
C128 C 0.3815(5) 0.5593(4) 0.7606(2)
H113 H 0.3713 0.5162 0.7674
H114 H 0.3478 0.5863 0.7752
H115 H 0.4337 0.5693 0.7701
C129 C 0.2868(5) 0.5553(6) 0.6960(5)
H116 H 0.2782 0.5668 0.6656
H117 H 0.2532 0.5791 0.7129
H118 H 0.2768 0.5112 0.6992
C130 C 0.3878(13) 0.6359(5) 0.7007(7)
H119 H 0.4411 0.6437 0.7089
H120 H 0.3571 0.6642 0.7163
H121 H 0.3776 0.6424 0.6697
C131 C 0.4180(4) 0.3970(3) 0.60402(19)
C132 C 0.3818(5) 0.4320(4) 0.5651(2)
H122 H 0.3390 0.4559 0.5737
H123 H 0.3645 0.4026 0.5426
H124 H 0.4187 0.4600 0.5541
C133 C 0.3702(5) 0.3433(4) 0.6225(3)
H125 H 0.4002 0.3223 0.6458
H126 H 0.3557 0.3138 0.5996
H127 H 0.3250 0.3607 0.6336
C134 C 0.4816(4) 0.3583(4) 0.5878(3)
H128 H 0.5170 0.3854 0.5746
H129 H 0.4608 0.3285 0.5665
H130 H 0.5078 0.3362 0.6120
N3 N 0.5458(2) 0.2856(2) 0.76281(18)
C135 C 0.5641(3) 0.2624(2) 0.7326(2)
C136 C 0.5887(4) 0.2323(3) 0.6940(2)
H131 H 0.5494 0.2360 0.6704
H132 H 0.5987 0.1886 0.7001
H133 H 0.6347 0.2522 0.6858
C137 C 0.2859(11) 0.3905(6) 0.8538(4)
Cl1 Cl 0.2719(2) 0.4690(2) 0.84324(14)
Cl2 Cl 0.2942(3) 0.3818(2) 0.90654(15)
C138? C 0.5512(4) 0.7112(4) 0.6025(3)
C139? C 0.5748(4) 0.7778(3) 0.6144(3)
H134? H 0.6186 0.7771 0.6354
H135? H 0.5333 0.7991 0.6267
H136? H 0.5875 0.7997 0.5885
C140? C 0.4933(4) 0.7119(4) 0.5633(2)
H137? H 0.5169 0.7275 0.5382
H138? H 0.4512 0.7386 0.5692
H139? H 0.4749 0.6699 0.5574
C141? C 0.5194(4) 0.6844(4) 0.6422(2)
H140? H 0.5013 0.6424 0.6360
H141? H 0.4776 0.7101 0.6502
H142? H 0.5586 0.6833 0.6660
C142? C 0.54432(16) 0.4931(3) 0.6788(2)
C143? C 0.4874(2) 0.5329(2) 0.68876(16)
H143? H 0.4984 0.5669 0.7074
C144? C 0.4142(2) 0.52290(18) 0.67153(15)
C145? C 0.39808(14) 0.47310(19) 0.64431(14)
H144? H 0.3481 0.4663 0.6325
C146? C 0.4550(2) 0.43332(19) 0.63431(15)
C147? C 0.52815(18) 0.4433(2) 0.6515(2)
H145? H 0.5671 0.4161 0.6447
C148? C 0.3507(3) 0.5704(3) 0.6790(2)
C149? C 0.3202(5) 0.5977(4) 0.6350(2)
H146? H 0.3618 0.6146 0.6202
H147? H 0.2841 0.6306 0.6397
H148? H 0.2952 0.5651 0.6174
C150? C 0.2832(6) 0.5424(6) 0.6992(5)
H149? H 0.2602 0.5105 0.6802
H150? H 0.2462 0.5748 0.7034
H151? H 0.2999 0.5240 0.7271
C151? C 0.3782(10) 0.6250(5) 0.7073(4)
H152? H 0.3952 0.6100 0.7361
H153? H 0.3371 0.6545 0.7094
H154? H 0.4199 0.6455 0.6946
C152? C 0.4305(3) 0.3791(3) 0.60352(19)
C153? C 0.4057(5) 0.4056(4) 0.5587(2)
H155? H 0.3631 0.4335 0.5609
H156? H 0.3908 0.3717 0.5390
H157? H 0.4475 0.4283 0.5477
C154? C 0.3566(5) 0.3573(5) 0.6206(3)
H158? H 0.3660 0.3448 0.6507
H159? H 0.3367 0.3222 0.6035
H160? H 0.3201 0.3911 0.6184
C155? C 0.4950(4) 0.3348(4) 0.5986(3)
H161? H 0.5367 0.3570 0.5871
H162? H 0.4782 0.3015 0.5789
H163? H 0.5118 0.3173 0.6267
N4? N 0.7558(5) 0.4088(4) 0.4168(3)
C156? C 0.7877(5) 0.4289(3) 0.4465(3)
C157? C 0.831(3) 0.451(8) 0.4860(15)
N5? N 0.9657(6) 0.4959(5) 0.4943(3)
C158? C 0.9060(6) 0.4792(5) 0.4884(3)
C159? C 0.827(3) 0.459(8) 0.4795(15)
N6? N 0.6204(10) 0.4965(8) 0.9087(4)
C160? C 0.6133(9) 0.5322(7) 0.8817(4)
C161? C 0.6124(9) 0.5828(6) 0.8495(4)
N7? N 0.6036(10) 0.4782(8) 0.9075(4)
C162? C 0.5886(11) 0.5068(9) 0.8771(4)
C163? C 0.5755(11) 0.5466(9) 0.8385(5)
N8? N 0.3997(11) 0.5285(9) 0.8187(7)
C164? C 0.4189(14) 0.4849(9) 0.8374(8)
C165? C 0.4235(16) 0.4238(9) 0.8587(8)
N9? N 0.5702(9) 0.4631(7) 0.9014(4)
C166? C 0.5256(9) 0.4442(8) 0.8771(5)
C167? C 0.4731(9) 0.4185(8) 0.8433(5)
N10? N 0.5055(10) 0.5829(9) 0.8142(6)
C168? C 0.5615(11) 0.5942(12) 0.8323(7)
C169? C 0.6313(11) 0.6140(13) 0.8565(7)
C170? C 0.293(3) 0.354(2) 0.8852(14)
Cl3? Cl 0.3155(8) 0.3509(7) 0.9036(4)
Cl4? Cl 0.2589(7) 0.4046(6) 0.8449(4)
loop_
_geom_bond_atom_site_label_1
_geom_bond_atom_site_label_2
_geom_bond_site_symmetry_1
_geom_bond_site_symmetry_2
O1 C1 1_555 1_555
O2 C4 1_555 1_555
O3 C5 1_555 1_555
O4 C35 1_555 1_555
O5 C39 1_555 1_555
N1 C4 1_555 1_555
C1 C2 1_555 1_555
C2 C3 1_555 1_555
C3 H1 1_555 1_555
C4 C3 1_555 1_555
C5 N1 1_555 1_555
C6 C3 1_555 1_555
H2 C6 1_555 1_555
C7 C1 1_555 1_555
C8 C7 1_555 1_555
C9 C2 1_555 1_555
C10 C9 1_555 1_555
C11 C10 1_555 1_555
H3 C11 1_555 1_555
C12 C11 1_555 1_555
H4 C12 1_555 1_555
C13 C12 1_555 1_555
H5 C13 1_555 1_555
C14 C13 1_555 1_555
H6 C14 1_555 1_555
C15 C10 1_555 1_555
C16 C15 1_555 1_555
C17 C16 1_555 1_555
H7 C17 1_555 1_555
C18 C17 1_555 1_555
H8 C18 1_555 1_555
C19 C18 1_555 1_555
H9 C19 1_555 1_555
C20 C19 1_555 1_555
H10 C20 1_555 1_555
C21 C8 1_555 1_555
C22 C2 1_555 1_555
C23 C22 1_555 1_555
H11 C23 1_555 1_555
C24 C23 1_555 1_555
H12 C24 1_555 1_555
C25 C24 1_555 1_555
H13 C25 1_555 1_555
C26 C25 1_555 1_555
H14 C26 1_555 1_555
C27 C22 1_555 1_555
H15 C27 1_555 1_555
C28 C7 1_555 1_555
C29 C28 1_555 1_555
H16 C29 1_555 1_555
C30 C29 1_555 1_555
H17 C30 1_555 1_555
C31 C30 1_555 1_555
H18 C31 1_555 1_555
C32 C31 1_555 1_555
H19 C32 1_555 1_555
C33 C28 1_555 1_555
H20 C33 1_555 1_555
C34 N1 1_555 1_555
C35 C34 1_555 1_555
C36 C35 1_555 1_555
H21 C36 1_555 1_555
C37 C36 1_555 1_555
H22 C37 1_555 1_555
C38 C37 1_555 1_555
H23 C38 1_555 1_555
C39 C34 1_555 1_555
C40 O4 1_555 1_555
C41 C40 1_555 1_555
H24 C41 1_555 1_555
C42 C41 1_555 1_555
C43 C42 1_555 1_555
H25 C43 1_555 1_555
C44 C43 1_555 1_555
C45 C40 1_555 1_555
H26 C45 1_555 1_555
C46 C42 1_555 1_555
C47 C46 1_555 1_555
H27 C47 1_555 1_555
H28 C47 1_555 1_555
H29 C47 1_555 1_555
C48 C46 1_555 1_555
H30 C48 1_555 1_555
H31 C48 1_555 1_555
H32 C48 1_555 1_555
C49 C46 1_555 1_555
H33 C49 1_555 1_555
H34 C49 1_555 1_555
H35 C49 1_555 1_555
C50 C44 1_555 1_555
C51 C50 1_555 1_555
H36 C51 1_555 1_555
H37 C51 1_555 1_555
H38 C51 1_555 1_555
C52 C50 1_555 1_555
H39 C52 1_555 1_555
H40 C52 1_555 1_555
H41 C52 1_555 1_555
C53 C50 1_555 1_555
H42 C53 1_555 1_555
H43 C53 1_555 1_555
H44 C53 1_555 1_555
C54 O5 1_555 1_555
C55 C54 1_555 1_555
H45 C55 1_555 1_555
C56 C55 1_555 1_555
C57 C56 1_555 1_555
H46 C57 1_555 1_555
C58 C57 1_555 1_555
C59 C54 1_555 1_555
H47 C59 1_555 1_555
C60 C56 1_555 1_555
C61 C60 1_555 1_555
H48 C61 1_555 1_555
H49 C61 1_555 1_555
H50 C61 1_555 1_555
C62 C60 1_555 1_555
H51 C62 1_555 1_555
H52 C62 1_555 1_555
H53 C62 1_555 1_555
C63 C60 1_555 1_555
H54 C63 1_555 1_555
H55 C63 1_555 1_555
H56 C63 1_555 1_555
C64 C58 1_555 1_555
C65 C64 1_555 1_555
H57 C65 1_555 1_555
H58 C65 1_555 1_555
H59 C65 1_555 1_555
C66 C64 1_555 1_555
H60 C66 1_555 1_555
H61 C66 1_555 1_555
H62 C66 1_555 1_555
C67 C64 1_555 1_555
H63 C67 1_555 1_555
H64 C67 1_555 1_555
H65 C67 1_555 1_555
O6 C68 1_555 1_555
O7 C71 1_555 1_555
O8 C72 1_555 1_555
O9 C102 1_555 1_555
O10 C106 1_555 1_555
N2 C71 1_555 1_555
C68 C69 1_555 1_555
C69 C70 1_555 1_555
C70 H66 1_555 1_555
C71 C70 1_555 1_555
C72 N2 1_555 1_555
C73 C70 1_555 1_555
H67 C73 1_555 1_555
C74 C68 1_555 1_555
C75 C74 1_555 1_555
C76 C69 1_555 1_555
C77 C76 1_555 1_555
C78 C77 1_555 1_555
H68 C78 1_555 1_555
C79 C78 1_555 1_555
H69 C79 1_555 1_555
C80 C79 1_555 1_555
H70 C80 1_555 1_555
C81 C80 1_555 1_555
H71 C81 1_555 1_555
C82 C77 1_555 1_555
C83 C82 1_555 1_555
C84 C83 1_555 1_555
H72 C84 1_555 1_555
C85 C84 1_555 1_555
H73 C85 1_555 1_555
C86 C85 1_555 1_555
H74 C86 1_555 1_555
C87 C86 1_555 1_555
H75 C87 1_555 1_555
C88 C75 1_555 1_555
C89 C69 1_555 1_555
C90 C89 1_555 1_555
H76 C90 1_555 1_555
C91 C90 1_555 1_555
H77 C91 1_555 1_555
C92 C91 1_555 1_555
H78 C92 1_555 1_555
C93 C92 1_555 1_555
H79 C93 1_555 1_555
C94 C89 1_555 1_555
H80 C94 1_555 1_555
C95 C74 1_555 1_555
C96 C95 1_555 1_555
H81 C96 1_555 1_555
C97 C96 1_555 1_555
H82 C97 1_555 1_555
C98 C97 1_555 1_555
H83 C98 1_555 1_555
C99 C98 1_555 1_555
H84 C99 1_555 1_555
C100 C95 1_555 1_555
H85 C100 1_555 1_555
C101 N2 1_555 1_555
C102 C101 1_555 1_555
C103 C102 1_555 1_555
H86 C103 1_555 1_555
C104 C103 1_555 1_555
H87 C104 1_555 1_555
C105 C104 1_555 1_555
H88 C105 1_555 1_555
C106 C101 1_555 1_555
C107 O9 1_555 1_555
C108 C107 1_555 1_555
H89 C108 1_555 1_555
C109 C108 1_555 1_555
C110 C109 1_555 1_555
H90 C110 1_555 1_555
C111 C110 1_555 1_555
C112 C107 1_555 1_555
H91 C112 1_555 1_555
C113 C109 1_555 1_555
C114 C113 1_555 1_555
H92 C114 1_555 1_555
H93 C114 1_555 1_555
H94 C114 1_555 1_555
C115 C113 1_555 1_555
H95 C115 1_555 1_555
H96 C115 1_555 1_555
H97 C115 1_555 1_555
C116 C113 1_555 1_555
H98 C116 1_555 1_555
H99 C116 1_555 1_555
H100 C116 1_555 1_555
C117 C111 1_555 1_555
C118 C117 1_555 1_555
H101 C118 1_555 1_555
H102 C118 1_555 1_555
H103 C118 1_555 1_555
C119 C117 1_555 1_555
H104 C119 1_555 1_555
H105 C119 1_555 1_555
H106 C119 1_555 1_555
C120 C117 1_555 1_555
H107 C120 1_555 1_555
H108 C120 1_555 1_555
H109 C120 1_555 1_555
C121 O10 1_555 1_555
C122 C121 1_555 1_555
H110 C122 1_555 1_555
C123 C122 1_555 1_555
C124 C123 1_555 1_555
H111 C124 1_555 1_555
C125 C124 1_555 1_555
C126 C121 1_555 1_555
H112 C126 1_555 1_555
C127 C123 1_555 1_555
C128 C127 1_555 1_555
H113 C128 1_555 1_555
H114 C128 1_555 1_555
H115 C128 1_555 1_555
C129 C127 1_555 1_555
H116 C129 1_555 1_555
H117 C129 1_555 1_555
H118 C129 1_555 1_555
C130 C127 1_555 1_555
H119 C130 1_555 1_555
H120 C130 1_555 1_555
H121 C130 1_555 1_555
C131 C125 1_555 1_555
C132 C131 1_555 1_555
H122 C132 1_555 1_555
H123 C132 1_555 1_555
H124 C132 1_555 1_555
C133 C131 1_555 1_555
H125 C133 1_555 1_555
H126 C133 1_555 1_555
H127 C133 1_555 1_555
C134 C131 1_555 1_555
H128 C134 1_555 1_555
H129 C134 1_555 1_555
H130 C134 1_555 1_555
N3 C135 1_555 1_555
C135 C136 1_555 1_555
C136 H131 1_555 1_555
H132 C136 1_555 1_555
H133 C136 1_555 1_555
C137 Cl1 1_555 1_555
Cl2 C137 1_555 1_555
C5 C6 1_555 1_555
C6 C7 1_555 1_555
C8 C9 1_555 1_555
C14 C15 1_555 1_555
C16 C21 1_555 1_555
C20 C21 1_555 1_555
C26 C27 1_555 1_555
C32 C33 1_555 1_555
C38 C39 1_555 1_555
C44 C45 1_555 1_555
C58 C59 1_555 1_555
C72 C73 1_555 1_555
C73 C74 1_555 1_555
C75 C76 1_555 1_555
C81 C82 1_555 1_555
C83 C88 1_555 1_555
C87 C88 1_555 1_555
C93 C94 1_555 1_555
C99 C100 1_555 1_555
C105 C106 1_555 1_555
C111 C112 1_555 1_555
C125 C126 1_555 1_555

#END
