
#######################################################################
#
#                 Cambridge Crystallographic Data Centre
#                                CCDC 
#
#######################################################################
#
# If this CIF has been generated from an entry in the Cambridge 
# Structural Database, then it will include bibliographic, chemical, 
# crystal, experimental, refinement or atomic coordinate data resulting 
# from the CCDC's data processing and validation procedures.
#
#######################################################################

data_EPUGUT
_chemical_formula_moiety         'C27 H19 F1 N1 O1 P1'
_chemical_name_systematic        
3-(diphenylphosphoryl)-4-(4-fluorophenyl)quinoline
_symmetry_cell_setting           monoclinic
_symmetry_space_group_name_H-M   'P 21/n'
_symmetry_Int_Tables_number      14
_space_group_name_Hall           '-P 2yn'
loop_
_symmetry_equiv_pos_site_id
_symmetry_equiv_pos_as_xyz
1 x,y,z
2 1/2-x,1/2+y,1/2-z
3 -x,-y,-z
4 1/2+x,1/2-y,1/2+z
_cell_length_a                   12.481(3)
_cell_length_b                   10.625(2)
_cell_length_c                   17.678(4)
_cell_angle_alpha                90
_cell_angle_beta                 108.484(3)
_cell_angle_gamma                90
_cell_volume                     2223.35
_exptl_crystal_colour            colorless
_exptl_crystal_description       block
_cell_formula_units_Z            4
loop_
_atom_site_label
_atom_site_type_symbol
_atom_site_fract_x
_atom_site_fract_y
_atom_site_fract_z
P1 P 0.95359(4) 0.54726(5) 0.22898(3)
O1 O 0.94996(13) 0.46832(14) 0.15950(9)
N1 N 1.15762(14) 0.85236(18) 0.26697(11)
C1 C 0.81736(17) 0.56657(19) 0.24033(12)
C2 C 0.94699(17) 0.78210(19) 0.15950(12)
F1 F 0.51366(13) 0.67017(18) -0.03693(9)
C3 C 0.99800(18) 0.89758(19) 0.14992(12)
C4 C 1.04564(17) 0.47678(19) 0.31808(13)
C5 C 0.83241(17) 0.75244(19) 0.10527(12)
C6 C 1.00572(16) 0.70387(18) 0.22125(12)
C7 C 0.73939(18) 0.8000(2) 0.12261(12)
H1 H 0.7500 0.8526 0.1664
C8 C 1.10354(17) 0.9292(2) 0.20545(13)
C9 C 1.10962(17) 0.7448(2) 0.27251(13)
H2 H 1.1478 0.6913 0.3139
C10 C 0.79828(19) 0.6490(2) 0.29536(13)
H3 H 0.8583 0.6931 0.3299
C11 C 1.0624(2) 0.5218(2) 0.39483(13)
H4 H 1.0257 0.5947 0.4023
C12 C 0.60247(19) 0.6013(2) 0.24701(15)
H5 H 0.5296 0.6137 0.2489
C13 C 0.6207(2) 0.5190(2) 0.19258(15)
H6 H 0.5604 0.4751 0.1580
C14 C 0.72811(19) 0.5013(2) 0.18917(13)
H7 H 0.7406 0.4454 0.1524
C15 C 1.1009(2) 0.3676(2) 0.30896(14)
H8 H 1.0904 0.3357 0.2581
C16 C 0.9973(2) 1.0936(2) 0.08172(15)
H9 H 0.9629 1.1489 0.0404
C17 C 0.63224(19) 0.7704(2) 0.07590(14)
H10 H 0.5697 0.7995 0.0885
C18 C 0.9465(2) 0.9838(2) 0.08832(13)
H11 H 0.8765 0.9646 0.0517
C19 C 0.61953(19) 0.6972(2) 0.01055(14)
C20 C 0.8156(2) 0.6788(2) 0.03806(12)
H12 H 0.8775 0.6479 0.0254
C21 C 1.1540(2) 1.0438(2) 0.19733(16)
H13 H 1.2238 1.0652 0.2334
C22 C 1.1325(2) 0.4596(2) 0.45935(14)
H14 H 1.1440 0.4911 0.5104
C23 C 0.6915(2) 0.6657(2) 0.29901(15)
H15 H 0.6789 0.7204 0.3364
C24 C 1.1019(2) 1.1241(2) 0.13727(16)
H16 H 1.1361 1.2004 0.1329
C25 C 1.1858(2) 0.3514(2) 0.44926(15)
H17 H 1.2322 0.3087 0.4934
C26 C 1.1709(2) 0.3061(2) 0.37416(15)
H18 H 1.2084 0.2335 0.3673
C27 C 0.7088(2) 0.6511(2) -0.00986(14)
H19 H 0.6972 0.6019 -0.0553
loop_
_geom_bond_atom_site_label_1
_geom_bond_atom_site_label_2
_geom_bond_site_symmetry_1
_geom_bond_site_symmetry_2
P1 O1 1_555 1_555
N1 C8 1_555 1_555
C1 P1 1_555 1_555
C2 C3 1_555 1_555
F1 C19 1_555 1_555
C3 C8 1_555 1_555
C4 P1 1_555 1_555
C5 C2 1_555 1_555
C6 P1 1_555 1_555
C7 C5 1_555 1_555
H1 C7 1_555 1_555
C8 C21 1_555 1_555
C9 N1 1_555 1_555
H2 C9 1_555 1_555
C10 C1 1_555 1_555
H3 C10 1_555 1_555
C11 C4 1_555 1_555
H4 C11 1_555 1_555
C12 H5 1_555 1_555
C13 C12 1_555 1_555
H6 C13 1_555 1_555
C14 C1 1_555 1_555
H7 C14 1_555 1_555
C15 C4 1_555 1_555
H8 C15 1_555 1_555
C16 H9 1_555 1_555
C17 C7 1_555 1_555
H10 C17 1_555 1_555
C18 C3 1_555 1_555
H11 C18 1_555 1_555
C19 C17 1_555 1_555
C20 C5 1_555 1_555
H12 C20 1_555 1_555
C21 H13 1_555 1_555
C22 C11 1_555 1_555
H14 C22 1_555 1_555
C23 C10 1_555 1_555
H15 C23 1_555 1_555
C24 C16 1_555 1_555
H16 C24 1_555 1_555
C25 C22 1_555 1_555
H17 C25 1_555 1_555
C26 C15 1_555 1_555
H18 C26 1_555 1_555
C27 C19 1_555 1_555
H19 C27 1_555 1_555
C2 C6 1_555 1_555
C6 C9 1_555 1_555
C12 C23 1_555 1_555
C13 C14 1_555 1_555
C16 C18 1_555 1_555
C20 C27 1_555 1_555
C21 C24 1_555 1_555
C25 C26 1_555 1_555

#END
