
#######################################################################
#
#                 Cambridge Crystallographic Data Centre
#                                CCDC 
#
#######################################################################
#
# If this CIF has been generated from an entry in the Cambridge 
# Structural Database, then it will include bibliographic, chemical, 
# crystal, experimental, refinement or atomic coordinate data resulting 
# from the CCDC's data processing and validation procedures.
#
#######################################################################

data_EPUNUA
_chemical_formula_moiety         'C16 H12 N2 S4 2+,2(C1 F3 O3 S1 1-),H2 O1'
_chemical_name_systematic        
'4-(2-(4-(pyridin-1-ium-4-yl)-2H-1,3-dithiol-2-ylidene)-2H-1,3-dithiol-4-yl)pyridin-1-ium bis(trifluoromethanesulfonate) monohydrate'
_symmetry_cell_setting           monoclinic
_symmetry_space_group_name_H-M   'C 2/c'
_symmetry_Int_Tables_number      15
_space_group_name_Hall           '-C 2yn'
loop_
_symmetry_equiv_pos_site_id
_symmetry_equiv_pos_as_xyz
1 x,y,z
2 -x,y,1/2-z
3 1/2+x,1/2+y,z
4 1/2-x,1/2+y,1/2-z
5 -x,-y,-z
6 x,-y,1/2+z
7 1/2-x,1/2-y,-z
8 1/2+x,1/2-y,1/2+z
_cell_length_a                   21.027(6)
_cell_length_b                   5.4802(11)
_cell_length_c                   23.594(6)
_cell_angle_alpha                90
_cell_angle_beta                 111.274(8)
_cell_angle_gamma                90
_cell_volume                     2533.52
_exptl_crystal_colour            black
_cell_formula_units_Z            4
loop_
_atom_site_label
_atom_site_type_symbol
_atom_site_fract_x
_atom_site_fract_y
_atom_site_fract_z
S1 S 0.49983(8) 0.2007(3) 0.06128(8)
S2 S 0.60530(8) 0.3856(3) 0.01746(9)
N1 N 0.6080(4) -0.5184(11) 0.2117(3)
C1 C 0.5227(3) 0.4132(10) 0.0172(3)
C2 C 0.5801(3) 0.0587(11) 0.0898(3)
C3 C 0.6274(3) 0.1462(12) 0.0681(3)
H1 H 0.6713 0.0772 0.0805
C4 C 0.5902(3) -0.1360(11) 0.1321(3)
C5 C 0.5363(4) -0.2283(11) 0.1473(3)
H2 H 0.4928 -0.1569 0.1305
C6 C 0.5461(4) -0.4199(13) 0.1863(3)
H3 H 0.5092 -0.4829 0.1952
C7 C 0.6620(5) -0.4307(15) 0.2006(3)
H4 H 0.7053 -0.5001 0.2205
C8 C 0.6552(4) -0.2450(14) 0.1614(3)
H5 H 0.6933 -0.1879 0.1534
H6 H 0.619(5) -0.621(15) 0.242(3)
S1D S 0.50017(8) 0.7993(3) -0.06128(8)
S2D S 0.39470(8) 0.6144(3) -0.01746(9)
N1D N 0.3920(4) 1.5184(11) -0.2117(3)
C1D C 0.4773(3) 0.5868(10) -0.0172(3)
C2D C 0.4199(3) 0.9413(11) -0.0898(3)
C3D C 0.3726(3) 0.8538(12) -0.0681(3)
H1D H 0.3287 0.9228 -0.0805
C4D C 0.4098(3) 1.1360(11) -0.1321(3)
C5D C 0.4637(4) 1.2283(11) -0.1473(3)
H2D H 0.5072 1.1569 -0.1305
C6D C 0.4539(4) 1.4199(13) -0.1863(3)
H3D H 0.4908 1.4829 -0.1952
C7D C 0.3380(5) 1.4307(15) -0.2006(3)
H4D H 0.2947 1.5001 -0.2205
C8D C 0.3448(4) 1.2450(14) -0.1614(3)
H5D H 0.3067 1.1879 -0.1534
H6D H 0.381(5) 1.621(15) -0.242(3)
S3 S 0.32961(8) -0.0704(3) 0.16504(8)
F1 F 0.2536(2) 0.2040(10) 0.0755(2)
F2 F 0.3100(5) -0.0653(16) 0.0510(3)
F3 F 0.3597(3) 0.2512(14) 0.0986(3)
O1 O 0.2763(2) -0.2456(9) 0.1541(3)
O2 O 0.3271(3) 0.1223(9) 0.2052(2)
O3 O 0.3974(2) -0.1687(10) 0.1780(2)
C9 C 0.3121(5) 0.088(2) 0.0936(4)
O4 O 0.5000 0.1561(14) 0.2500
H7 H 0.465(4) 0.07(2) 0.238(7)
H7A H 0.535(4) 0.07(2) 0.262(7)
loop_
_geom_bond_atom_site_label_1
_geom_bond_atom_site_label_2
_geom_bond_site_symmetry_1
_geom_bond_site_symmetry_2
S1 C1 1_555 1_555
S2 C1 1_555 1_555
N1 C6 1_555 1_555
C1 C1D 1_555 1_555
C2 S1 1_555 1_555
C3 S2 1_555 1_555
H1 C3 1_555 1_555
C4 C2 1_555 1_555
C5 C4 1_555 1_555
H2 C5 1_555 1_555
C6 C5 1_555 1_555
H3 C6 1_555 1_555
C7 N1 1_555 1_555
H4 C7 1_555 1_555
C8 C4 1_555 1_555
H5 C8 1_555 1_555
H6 N1 1_555 1_555
S3 O1 1_555 1_555
F1 C9 1_555 1_555
F2 C9 1_555 1_555
F3 C9 1_555 1_555
O2 S3 1_555 1_555
O3 S3 1_555 1_555
C9 S3 1_555 1_555
O4 H7 1_555 1_555
S1D C1D 1_555 1_555
S2D C1D 1_555 1_555
N1D C6D 1_555 1_555
C2D S1D 1_555 1_555
C3D S2D 1_555 1_555
H1D C3D 1_555 1_555
C4D C2D 1_555 1_555
C5D C4D 1_555 1_555
H2D C5D 1_555 1_555
C6D C5D 1_555 1_555
H3D C6D 1_555 1_555
C7D N1D 1_555 1_555
H4D C7D 1_555 1_555
C8D C4D 1_555 1_555
H5D C8D 1_555 1_555
H6D N1D 1_555 1_555
H7A O4 1_555 1_555
C2 C3 1_555 1_555
C7 C8 1_555 1_555
C2D C3D 1_555 1_555
C7D C8D 1_555 1_555

#END
