
#######################################################################
#
#                 Cambridge Crystallographic Data Centre
#                                CCDC 
#
#######################################################################
#
# If this CIF has been generated from an entry in the Cambridge 
# Structural Database, then it will include bibliographic, chemical, 
# crystal, experimental, refinement or atomic coordinate data resulting 
# from the CCDC's data processing and validation procedures.
#
#######################################################################

data_EPUPUB
_chemical_formula_moiety         'C10 H8 N2,2(C7 H6 O3)'
_chemical_name_systematic        "bis(4-Hydroxybenzoic acid) 4,4'-bipyridine"
_symmetry_cell_setting           monoclinic
_symmetry_space_group_name_H-M   'P 21/c'
_symmetry_Int_Tables_number      14
_space_group_name_Hall           '-P 2ybc'
loop_
_symmetry_equiv_pos_site_id
_symmetry_equiv_pos_as_xyz
1 x,y,z
2 -x,1/2+y,1/2-z
3 -x,-y,-z
4 x,1/2-y,1/2+z
_cell_length_a                   11.472(2)
_cell_length_b                   24.646(5)
_cell_length_c                   7.1110(10)
_cell_angle_alpha                90
_cell_angle_beta                 93.28(3)
_cell_angle_gamma                90
_cell_volume                     2007.26
_exptl_crystal_colour            colorless
_exptl_crystal_description       plate
_cell_formula_units_Z            4
loop_
_atom_site_label
_atom_site_type_symbol
_atom_site_fract_x
_atom_site_fract_y
_atom_site_fract_z
C1 C 0.0351(3) 0.75259(12) 0.6163(4)
C2 C 0.1556(3) 0.74474(13) 0.6401(4)
H1 H 0.2064 0.7751 0.6538
C3 C 0.2004(3) 0.69309(13) 0.6435(4)
H2 H 0.2825 0.6880 0.6598
C4 C 0.1274(3) 0.64782(12) 0.6234(4)
C5 C 0.0071(3) 0.65633(13) 0.6018(4)
H3 H -0.0440 0.6260 0.5903
C6 C -0.0383(3) 0.70779(13) 0.5971(4)
H4 H -0.1203 0.7129 0.5805
C7 C 0.1744(3) 0.59281(12) 0.6246(4)
O1 O -0.01445(18) 0.80230(9) 0.6083(3)
H5 H 0.0380 0.8261 0.6104
O2 O 0.28512(19) 0.58745(10) 0.6128(3)
O3 O 0.10801(18) 0.55214(9) 0.6389(3)
H6 H 0.314(6) 0.5581(17) 0.649(10)
C8 C 0.3059(3) 0.44846(12) 0.6423(4)
C9 C 0.3580(3) 0.39409(12) 0.6518(4)
C10 C 0.4785(3) 0.38806(13) 0.6434(4)
H7 H 0.5263 0.4193 0.6339
C11 C 0.5291(3) 0.33731(13) 0.6486(4)
H8 H 0.6113 0.3339 0.6425
C12 C 0.4608(3) 0.29102(12) 0.6626(4)
C13 C 0.3404(3) 0.29685(13) 0.6738(5)
H9 H 0.2930 0.2656 0.6863
C14 C 0.2894(3) 0.34770(12) 0.6668(4)
H10 H 0.2072 0.3511 0.6722
O4 O 0.19415(18) 0.45273(9) 0.6362(3)
O5 O 0.37101(18) 0.48975(9) 0.6402(3)
O6 O 0.51390(18) 0.24280(9) 0.6663(4)
H11 H 0.4635 0.2180 0.6628
H12 H 0.167(4) 0.4851(11) 0.642(7)
C15 C 0.2617(3) 0.14617(13) 0.6220(5)
H13 H 0.2130 0.1772 0.6045
C16 C 0.2100(3) 0.09579(12) 0.6139(4)
H14 H 0.1279 0.0926 0.5906
C17 C 0.2790(2) 0.04928(12) 0.6401(4)
C18 C 0.3987(3) 0.05718(12) 0.6716(4)
H15 H 0.4498 0.0270 0.6887
C19 C 0.4422(3) 0.10958(13) 0.6775(4)
H16 H 0.5240 0.1142 0.7005
C20 C 0.2272(2) -0.00585(12) 0.6354(4)
C21 C 0.1145(3) -0.01487(12) 0.6895(4)
H17 H 0.0684 0.0145 0.7300
C22 C 0.0701(3) -0.06688(13) 0.6838(4)
H18 H -0.0068 -0.0724 0.7232
C23 C 0.2370(3) -0.10100(13) 0.5725(4)
H19 H 0.2805 -0.1310 0.5306
C24 C 0.2885(3) -0.05088(12) 0.5750(4)
H20 H 0.3658 -0.0468 0.5357
N1 N 0.3765(2) 0.15408(10) 0.6530(4)
N2 N 0.1289(2) -0.10996(10) 0.6260(4)
loop_
_geom_bond_atom_site_label_1
_geom_bond_atom_site_label_2
_geom_bond_site_symmetry_1
_geom_bond_site_symmetry_2
C1 C2 1_555 1_555
C2 H1 1_555 1_555
C3 C2 1_555 1_555
H2 C3 1_555 1_555
C4 C3 1_555 1_555
C5 C4 1_555 1_555
H3 C5 1_555 1_555
C6 C1 1_555 1_555
H4 C6 1_555 1_555
C7 C4 1_555 1_555
O1 C1 1_555 1_555
H5 O1 1_555 1_555
O2 C7 1_555 1_555
O3 C7 1_555 1_555
H6 O2 1_555 1_555
C8 C9 1_555 1_555
C9 C10 1_555 1_555
C10 H7 1_555 1_555
C11 C10 1_555 1_555
H8 C11 1_555 1_555
C12 C11 1_555 1_555
C13 C12 1_555 1_555
H9 C13 1_555 1_555
C14 C9 1_555 1_555
H10 C14 1_555 1_555
O4 C8 1_555 1_555
O5 C8 1_555 1_555
O6 C12 1_555 1_555
H11 O6 1_555 1_555
H12 O4 1_555 1_555
C15 H13 1_555 1_555
C16 C15 1_555 1_555
H14 C16 1_555 1_555
C17 C16 1_555 1_555
C18 C17 1_555 1_555
H15 C18 1_555 1_555
C19 C18 1_555 1_555
H16 C19 1_555 1_555
C20 C17 1_555 1_555
C21 C20 1_555 1_555
H17 C21 1_555 1_555
C22 C21 1_555 1_555
H18 C22 1_555 1_555
C23 H19 1_555 1_555
C24 C20 1_555 1_555
H20 C24 1_555 1_555
N1 C15 1_555 1_555
N2 C22 1_555 1_555
C5 C6 1_555 1_555
C13 C14 1_555 1_555
C19 N1 1_555 1_555
C23 C24 1_555 1_555
C23 N2 1_555 1_555

#END
