
#######################################################################
#
#                 Cambridge Crystallographic Data Centre
#                                CCDC 
#
#######################################################################
#
# If this CIF has been generated from an entry in the Cambridge 
# Structural Database, then it will include bibliographic, chemical, 
# crystal, experimental, refinement or atomic coordinate data resulting 
# from the CCDC's data processing and validation procedures.
#
#######################################################################

data_EPXBIM
_chemical_formula_moiety         'C6 H11 N1 O2'
_chemical_name_systematic        2,3-Epoxy-1-hydroxy-2,3-dimethylbutanimine
_symmetry_cell_setting           triclinic
_symmetry_space_group_name_H-M   'P -1'
_symmetry_Int_Tables_number      2
_space_group_name_Hall           '-P 1'
loop_
_symmetry_equiv_pos_site_id
_symmetry_equiv_pos_as_xyz
1 x,y,z
2 -x,-y,-z
_cell_length_a                   6.962(2)
_cell_length_b                   11.377(6)
_cell_length_c                   5.106(1)
_cell_angle_alpha                97.77(2)
_cell_angle_beta                 108.26(2)
_cell_angle_gamma                97.16(2)
_cell_volume                     374.496
_chemical_melting_point          157-8deg.C
_cell_formula_units_Z            2
loop_
_atom_site_label
_atom_site_type_symbol
_atom_site_fract_x
_atom_site_fract_y
_atom_site_fract_z
O1 O 0.65100 0.11000 0.32200
O2 O 0.97100 0.30200 0.52900
N1 N 0.64400 0.11400 -0.13000
C1 C 0.71100 0.15400 0.10900
C2 C 0.85900 0.27500 0.22700
C3 C 1.08000 0.26800 0.34600
C4 C 0.79300 0.37300 0.08700
C5 C 1.24700 0.36700 0.33100
C6 C 1.15300 0.14700 0.37400
H1 H 0.91600 0.43200 0.09700
H2 H 0.70800 0.41500 0.18100
H3 H 0.71000 0.34000 -0.11300
H4 H 1.23900 0.44600 0.43600
H5 H 1.38600 0.34600 0.41700
H6 H 1.22500 0.37300 0.13100
H7 H 1.30700 0.16000 0.43700
H8 H 1.10500 0.11000 0.51600
H9 H 1.09500 0.09100 0.18900
loop_
_geom_bond_atom_site_label_1
_geom_bond_atom_site_label_2
_geom_bond_site_symmetry_1
_geom_bond_site_symmetry_2
O1 C1 1_555 1_555
O2 C2 1_555 1_555
N1 C1 1_555 1_555
C1 C2 1_555 1_555
C2 C3 1_555 1_555
C3 O2 1_555 1_555
C4 C2 1_555 1_555
C5 C3 1_555 1_555
C6 C3 1_555 1_555
H1 C4 1_555 1_555
H2 C4 1_555 1_555
H3 C4 1_555 1_555
H4 C5 1_555 1_555
H5 C5 1_555 1_555
H6 C5 1_555 1_555
H7 C6 1_555 1_555
H8 C6 1_555 1_555
H9 C6 1_555 1_555

#END
