
#######################################################################
#
#                 Cambridge Crystallographic Data Centre
#                                CCDC 
#
#######################################################################
#
# If this CIF has been generated from an entry in the Cambridge 
# Structural Database, then it will include bibliographic, chemical, 
# crystal, experimental, refinement or atomic coordinate data resulting 
# from the CCDC's data processing and validation procedures.
#
#######################################################################

data_EQAFIN
_chemical_formula_moiety         'C22 H26 O7'
_chemical_name_systematic        
(3S,4aR,5S,6aR,9S,11aS,11bS,14R,E)-5,14-dihydroxy-2-(methoxymethylene)-4,4-dimethyl-8-methyleneoctahydro-1H-3,11b-(epoxymethano)-6a,9-methanocyclohepta[a]naphthalene-1,6,7(2H,8H)-trione
_symmetry_cell_setting           monoclinic
_symmetry_space_group_name_H-M   'P 21'
_symmetry_Int_Tables_number      4
_space_group_name_Hall           'P 2yb'
loop_
_symmetry_equiv_pos_site_id
_symmetry_equiv_pos_as_xyz
1 x,y,z
2 -x,1/2+y,-z
_cell_length_a                   8.4083(11)
_cell_length_b                   10.1331(14)
_cell_length_c                   11.4610(13)
_cell_angle_alpha                90
_cell_angle_beta                 94.736(9)
_cell_angle_gamma                90
_cell_volume                     973.168
_exptl_crystal_colour            colorless
_exptl_crystal_description       'rectangular prism'
_cell_formula_units_Z            2
loop_
_atom_site_label
_atom_site_type_symbol
_atom_site_fract_x
_atom_site_fract_y
_atom_site_fract_z
O1 O 0.88376(15) 0.76853(14) 0.80782(11)
C1 C 0.8848(2) 0.6894(2) 0.91299(15)
C2 C 1.02062(19) 0.5942(2) 0.91259(14)
C3 C 1.01028(19) 0.5118(2) 0.80677(14)
O2 O 1.10628(14) 0.42852(18) 0.78233(12)
C4 C 0.85343(18) 0.54136(18) 0.73037(13)
C5 C 0.8504(2) 0.6911(2) 0.70357(15)
C6 C 0.72048(18) 0.51039(19) 0.81418(13)
C7 C 0.7242(2) 0.6159(2) 0.91625(14)
C8 C 0.7208(3) 0.5464(3) 1.03443(16)
C9 C 0.5899(2) 0.7183(2) 0.90327(18)
C10 C 0.55557(18) 0.4926(2) 0.74752(14)
O3 O 0.44865(14) 0.45258(18) 0.82971(11)
C11 C 0.56007(17) 0.39217(19) 0.64909(14)
O4 O 0.46818(16) 0.30119(18) 0.64142(13)
C12 C 0.68048(17) 0.41964(18) 0.56091(13)
C13 C 0.85001(17) 0.44897(18) 0.62243(13)
C14 C 0.9687(2) 0.4848(2) 0.53101(15)
C15 C 0.8991(3) 0.5660(2) 0.42544(16)
C16 C 0.7361(2) 0.5138(2) 0.37668(15)
C17 C 0.6192(2) 0.5280(2) 0.47185(14)
O5 O 0.46457(16) 0.48979(17) 0.42519(12)
C18 C 0.7366(2) 0.3656(2) 0.36059(14)
C19 C 0.70765(17) 0.30594(19) 0.47577(14)
O6 O 0.71636(15) 0.18978(15) 0.49969(12)
C20 C 0.7564(2) 0.2925(2) 0.26677(16)
C21 C 1.1392(2) 0.5751(2) 0.99680(16)
O7 O 1.14929(18) 0.64345(18) 1.09687(12)
C22 C 1.2719(3) 0.6021(3) 1.18335(19)
H1 H 0.9001 0.7492 0.9799
H2 H 0.9371 0.7104 0.6540
H3 H 0.7461 0.7150 0.6675
H4 H 0.7481 0.4277 0.8503
H5 H 0.6228 0.4980 1.0334
H6 H 0.7259 0.6108 1.0951
H7 H 0.8093 0.4836 1.0470
H8 H 0.4880 0.6762 0.9142
H9 H 0.6084 0.7878 0.9605
H10 H 0.5814 0.7596 0.8267
H11 H 0.5221 0.5765 0.7110
H12 H 0.8869 0.3661 0.6525
H13 H 1.0578 0.5334 0.5671
H14 H 1.0117 0.4023 0.5005
H15 H 0.8885 0.6568 0.4477
H16 H 0.9723 0.5631 0.3667
H17 H 0.6967 0.5556 0.3040
H18 H 0.6253 0.6171 0.5070
H19 H 0.7743 0.3325 0.1932
H20 H 0.7506 0.1975 0.2741
H21 H 1.2225 0.5131 0.9869
H22 H 1.2584 0.6494 1.2524
H23 H 1.3744 0.6191 1.1575
H24 H 1.2593 0.5093 1.1974
H25 H 0.3999 0.5479 0.4458
H26 H 0.3676 0.4305 0.7945
loop_
_geom_bond_atom_site_label_1
_geom_bond_atom_site_label_2
_geom_bond_site_symmetry_1
_geom_bond_site_symmetry_2
O1 C1 1_555 1_555
C1 C2 1_555 1_555
C2 C3 1_555 1_555
C3 O2 1_555 1_555
C4 C3 1_555 1_555
C5 O1 1_555 1_555
C6 C4 1_555 1_555
C7 C1 1_555 1_555
C8 C7 1_555 1_555
C9 C7 1_555 1_555
C10 C6 1_555 1_555
O3 C10 1_555 1_555
C11 C10 1_555 1_555
O4 C11 1_555 1_555
C12 C11 1_555 1_555
C13 C4 1_555 1_555
C14 C13 1_555 1_555
C15 C14 1_555 1_555
C16 C15 1_555 1_555
C17 C12 1_555 1_555
O5 C17 1_555 1_555
C18 C16 1_555 1_555
C19 C12 1_555 1_555
O6 C19 1_555 1_555
C20 C18 1_555 1_555
C21 C2 1_555 1_555
O7 C21 1_555 1_555
C22 O7 1_555 1_555
H1 C1 1_555 1_555
H2 C5 1_555 1_555
H3 C5 1_555 1_555
H4 C6 1_555 1_555
H5 C8 1_555 1_555
H6 C8 1_555 1_555
H7 C8 1_555 1_555
H8 C9 1_555 1_555
H9 C9 1_555 1_555
H10 C9 1_555 1_555
H11 C10 1_555 1_555
H12 C13 1_555 1_555
H13 C14 1_555 1_555
H14 C14 1_555 1_555
H15 C15 1_555 1_555
H16 C15 1_555 1_555
H17 C16 1_555 1_555
H18 C17 1_555 1_555
H19 C20 1_555 1_555
H20 C20 1_555 1_555
H21 C21 1_555 1_555
H22 C22 1_555 1_555
H23 C22 1_555 1_555
H24 C22 1_555 1_555
H25 O5 1_555 1_555
H26 O3 1_555 1_555
C4 C5 1_555 1_555
C6 C7 1_555 1_555
C12 C13 1_555 1_555
C16 C17 1_555 1_555
C18 C19 1_555 1_555

#END
