
#######################################################################
#
#                 Cambridge Crystallographic Data Centre
#                                CCDC 
#
#######################################################################
#
# If this CIF has been generated from an entry in the Cambridge 
# Structural Database, then it will include bibliographic, chemical, 
# crystal, experimental, refinement or atomic coordinate data resulting 
# from the CCDC's data processing and validation procedures.
#
#######################################################################

data_EQALEO
_chemical_formula_moiety         'C35 H46 O9'
_chemical_name_systematic        
7-Ethyl-1,4-dimethoxy-8,10-dimethyl-9,11-bis(2,4,5-trimethoxyphenyl)spiro[5.5]undeca-1,4-dien-3-one
_symmetry_cell_setting           monoclinic
_symmetry_space_group_name_H-M   'P 21/n'
_symmetry_Int_Tables_number      14
_space_group_name_Hall           '-P 2yn'
loop_
_symmetry_equiv_pos_site_id
_symmetry_equiv_pos_as_xyz
1 x,y,z
2 1/2-x,1/2+y,1/2-z
3 -x,-y,-z
4 1/2+x,1/2-y,1/2+z
_cell_length_a                   8.792(1)
_cell_length_b                   15.306(1)
_cell_length_c                   24.545(1)
_cell_angle_alpha                90
_cell_angle_beta                 96.91(4)
_cell_angle_gamma                90
_cell_volume                     3279.04
_exptl_crystal_colour            colorless
_exptl_crystal_description       block
_cell_formula_units_Z            4
loop_
_atom_site_label
_atom_site_type_symbol
_atom_site_fract_x
_atom_site_fract_y
_atom_site_fract_z
O1 O -0.1425(3) 0.24764(19) 0.17809(10)
O2 O -0.0372(3) 0.2930(2) 0.37538(11)
O3 O 0.2544(3) 0.27064(19) 0.37091(10)
O4 O -0.2042(3) -0.0030(2) 0.17550(13)
O5 O -0.0192(4) -0.0829(2) 0.25197(14)
O6 O 0.4081(3) 0.08565(18) 0.21623(10)
O7 O 0.5162(4) 0.2867(3) 0.03887(13)
O8 O 0.2662(4) 0.4704(2) -0.10672(14)
O9 O 0.0036(4) 0.4396(2) -0.07413(13)
C1 C 0.1837(4) 0.2108(2) 0.17179(13)
H1 H 0.2933 0.2221 0.1815
C2 C 0.1725(4) 0.1087(2) 0.15920(13)
C3 C 0.2577(4) 0.0874(2) 0.10736(14)
H2 H 0.3668 0.0966 0.1195
C4 C 0.2191(4) 0.1495(2) 0.05799(14)
H3 H 0.2975 0.1384 0.0336
C5 C 0.2440(4) 0.2454(2) 0.07737(13)
H4 H 0.3477 0.2469 0.0971
C6 C 0.1367(4) 0.2686(2) 0.12056(13)
H5 H 0.0302 0.2563 0.1059
C7 C 0.1106(4) 0.2348(2) 0.22326(13)
C8 C -0.0435(4) 0.2499(2) 0.22629(14)
C9 C -0.0961(4) 0.2695(3) 0.27652(14)
H6 H -0.2000 0.2793 0.2778
C10 C 0.0043(5) 0.2745(2) 0.32402(14)
C11 C 0.1605(4) 0.2622(2) 0.32211(13)
C12 C 0.2102(4) 0.2424(2) 0.27216(13)
H7 H 0.3144 0.2337 0.2710
C13 C -0.2948(6) 0.2754(4) 0.1793(2)
H8 H -0.3500 0.2706 0.1433
H9 H -0.2954 0.3351 0.1912
H10 H -0.3429 0.2394 0.2044
C14 C -0.1976(5) 0.2964(3) 0.37987(17)
H11 H -0.2129 0.3096 0.4170
H12 H -0.2432 0.2408 0.3696
H13 H -0.2445 0.3409 0.3559
C15 C 0.4142(5) 0.2716(3) 0.36738(16)
H14 H 0.4687 0.2776 0.4035
H15 H 0.4385 0.3199 0.3450
H16 H 0.4435 0.2180 0.3513
C16 C 0.0086(4) 0.0818(2) 0.15080(14)
H17 H -0.0550 0.1081 0.1225
C17 C -0.0531(4) 0.0221(3) 0.18142(16)
C18 C 0.0379(5) -0.0248(3) 0.22632(17)
C19 C 0.1965(5) 0.0006(3) 0.23715(15)
H18 H 0.2577 -0.0264 0.2658
C20 C 0.2593(4) 0.0615(2) 0.20752(14)
C21 C -0.3007(5) 0.0320(4) 0.1307(2)
H19 H -0.4025 0.0094 0.1309
H20 H -0.2627 0.0160 0.0971
H21 H -0.3027 0.0946 0.1338
C22 C 0.5062(5) 0.0432(3) 0.25974(19)
H22 H 0.6081 0.0662 0.2612
H23 H 0.5079 -0.0185 0.2528
H24 H 0.4677 0.0536 0.2941
C23 C 0.2427(5) -0.0101(2) 0.09236(16)
H25 H 0.1350 -0.0238 0.0830
H26 H 0.2800 -0.0444 0.1245
C24 C 0.3293(5) -0.0382(3) 0.04474(17)
H27 H 0.3127 -0.0993 0.0376
H28 H 0.4368 -0.0275 0.0542
H29 H 0.2925 -0.0053 0.0125
C25 C 0.0655(5) 0.1336(3) 0.02290(15)
H30 H 0.0582 0.0733 0.0121
H31 H 0.0588 0.1698 -0.0092
H32 H -0.0167 0.1476 0.0438
C26 C 0.2479(4) 0.3068(2) 0.02918(14)
C27 C 0.3870(5) 0.3259(3) 0.01090(16)
C28 C 0.3984(5) 0.3817(3) -0.03349(17)
H33 H 0.4939 0.3944 -0.0442
C29 C 0.2694(6) 0.4176(3) -0.06112(17)
C30 C 0.1268(5) 0.4004(2) -0.04416(16)
C31 C 0.1181(5) 0.3457(2) 0.00075(15)
H34 H 0.0228 0.3346 0.0121
C32 C 0.6502(7) 0.2819(5) 0.0195(2)
H35 H 0.7226 0.2525 0.0457
H36 H 0.6864 0.3398 0.0133
H37 H 0.6386 0.2500 -0.0144
C33 C 0.4102(7) 0.4845(4) -0.1282(2)
H38 H 0.3939 0.5216 -0.1599
H39 H 0.4510 0.4295 -0.1383
H40 H 0.4813 0.5120 -0.1007
C34 C -0.1435(6) 0.4249(3) -0.0579(2)
H41 H -0.2188 0.4562 -0.0820
H42 H -0.1452 0.4451 -0.0209
H43 H -0.1662 0.3636 -0.0598
C35 C 0.1534(6) 0.3653(2) 0.13687(16)
H44 H 0.1237 0.4012 0.1053
H45 H 0.2581 0.3772 0.1507
H46 H 0.0889 0.3779 0.1648
loop_
_geom_bond_atom_site_label_1
_geom_bond_atom_site_label_2
_geom_bond_site_symmetry_1
_geom_bond_site_symmetry_2
O1 C8 1_555 1_555
O2 C10 1_555 1_555
O3 C11 1_555 1_555
O4 C17 1_555 1_555
O5 C18 1_555 1_555
O6 C20 1_555 1_555
O7 C27 1_555 1_555
O8 C29 1_555 1_555
O9 C30 1_555 1_555
C1 H1 1_555 1_555
C2 C1 1_555 1_555
C3 C2 1_555 1_555
H2 C3 1_555 1_555
C4 C3 1_555 1_555
H3 C4 1_555 1_555
C5 C4 1_555 1_555
H4 C5 1_555 1_555
C6 C1 1_555 1_555
H5 C6 1_555 1_555
C7 C1 1_555 1_555
C8 C7 1_555 1_555
C9 C8 1_555 1_555
H6 C9 1_555 1_555
C10 C9 1_555 1_555
C11 C10 1_555 1_555
C12 C7 1_555 1_555
H7 C12 1_555 1_555
C13 O1 1_555 1_555
H8 C13 1_555 1_555
H9 C13 1_555 1_555
H10 C13 1_555 1_555
C14 O2 1_555 1_555
H11 C14 1_555 1_555
H12 C14 1_555 1_555
H13 C14 1_555 1_555
C15 O3 1_555 1_555
H14 C15 1_555 1_555
H15 C15 1_555 1_555
H16 C15 1_555 1_555
C16 C2 1_555 1_555
H17 C16 1_555 1_555
C17 C16 1_555 1_555
C18 C17 1_555 1_555
C19 C18 1_555 1_555
H18 C19 1_555 1_555
C20 C2 1_555 1_555
C21 O4 1_555 1_555
H19 C21 1_555 1_555
H20 C21 1_555 1_555
H21 C21 1_555 1_555
C22 O6 1_555 1_555
H22 C22 1_555 1_555
H23 C22 1_555 1_555
H24 C22 1_555 1_555
C23 C3 1_555 1_555
H25 C23 1_555 1_555
H26 C23 1_555 1_555
C24 C23 1_555 1_555
H27 C24 1_555 1_555
H28 C24 1_555 1_555
H29 C24 1_555 1_555
C25 C4 1_555 1_555
H30 C25 1_555 1_555
H31 C25 1_555 1_555
H32 C25 1_555 1_555
C26 C5 1_555 1_555
C27 C26 1_555 1_555
C28 C27 1_555 1_555
H33 C28 1_555 1_555
C29 C28 1_555 1_555
C30 C29 1_555 1_555
C31 C26 1_555 1_555
H34 C31 1_555 1_555
C32 O7 1_555 1_555
H35 C32 1_555 1_555
H36 C32 1_555 1_555
H37 C32 1_555 1_555
C33 O8 1_555 1_555
H38 C33 1_555 1_555
H39 C33 1_555 1_555
H40 C33 1_555 1_555
C34 O9 1_555 1_555
H41 C34 1_555 1_555
H42 C34 1_555 1_555
H43 C34 1_555 1_555
C35 C6 1_555 1_555
H44 C35 1_555 1_555
H45 C35 1_555 1_555
H46 C35 1_555 1_555
C5 C6 1_555 1_555
C11 C12 1_555 1_555
C19 C20 1_555 1_555
C30 C31 1_555 1_555

#END
