
#######################################################################
#
#                 Cambridge Crystallographic Data Centre
#                                CCDC 
#
#######################################################################
#
# If this CIF has been generated from an entry in the Cambridge 
# Structural Database, then it will include bibliographic, chemical, 
# crystal, experimental, refinement or atomic coordinate data resulting 
# from the CCDC's data processing and validation procedures.
#
#######################################################################

data_EQANUH
_chemical_formula_moiety         'C26 H26 N2 O5 S1,C1 H4 O1'
_chemical_name_systematic        
'N-(2-methoxy-8-(((4-methylphenyl)sulfonyl)amino)-6,6a-dihydrobenzo[b]naphtho[2,1-d]furan-11a(5H)-yl)acetamide methanol solvate'
_symmetry_cell_setting           orthorhombic
_symmetry_space_group_name_H-M   'P 21 21 21'
_symmetry_Int_Tables_number      19
_space_group_name_Hall           'P 2ac 2ab'
loop_
_symmetry_equiv_pos_site_id
_symmetry_equiv_pos_as_xyz
1 x,y,z
2 1/2+x,1/2-y,-z
3 -x,1/2+y,1/2-z
4 1/2-x,-y,1/2+z
_cell_length_a                   8.931(4)
_cell_length_b                   10.538(5)
_cell_length_c                   28.633(13)
_cell_angle_alpha                90
_cell_angle_beta                 90
_cell_angle_gamma                90
_cell_volume                     2694.79
_exptl_crystal_colour            colorless
_exptl_crystal_description       plate
_cell_formula_units_Z            4
loop_
_atom_site_label
_atom_site_type_symbol
_atom_site_fract_x
_atom_site_fract_y
_atom_site_fract_z
S1 S 0.60640(5) 0.55657(4) 0.167927(14)
O1 O -0.26654(17) 0.52593(19) -0.14868(6)
O2 O 0.73087(16) 0.50308(15) 0.19307(5)
O3 O 0.20740(12) 0.59772(9) -0.02593(4)
O4 O 0.19301(15) 0.24812(11) -0.09555(5)
O5 O 0.59138(19) 0.69271(12) 0.16564(5)
N1 N 0.26247(14) 0.45180(12) -0.08307(5)
H1 H 0.3202 0.5148 -0.0922
C1 C 0.0311(3) 0.3443(3) 0.24981(9)
H2 H 0.0234 0.3711 0.2825
H3 H 0.0335 0.2514 0.2482
H4 H -0.0557 0.3759 0.2324
C2 C 0.1728(2) 0.3974(3) 0.22870(7)
C3 C 0.1738(3) 0.5135(3) 0.20586(10)
H5 H 0.0829 0.5594 0.2026
C4 C 0.3051(3) 0.5638(2) 0.18770(9)
H6 H 0.3039 0.6439 0.1725
C5 C 0.4383(2) 0.49646(18) 0.19183(6)
N2 N 0.62101(15) 0.50254(12) 0.11500(5)
H7 H 0.6978 0.4544 0.1074
C6 C 0.50916(17) 0.53259(13) 0.08017(5)
C7 C 0.42199(16) 0.43343(13) 0.06181(5)
H8 H 0.4296 0.3497 0.0738
C8 C 0.32451(16) 0.46158(12) 0.02559(5)
C9 C 0.21704(16) 0.37774(13) -0.00130(5)
H9 H 0.2718 0.3032 -0.0145
C10 C 0.16887(15) 0.46994(12) -0.04168(5)
C11 C 0.00168(16) 0.47306(13) -0.05216(6)
C12 C -0.05030(17) 0.49475(16) -0.09746(6)
H10 H 0.0183 0.5023 -0.1227
C13 C -0.2047(2) 0.50526(18) -0.10541(7)
C14 C -0.1658(3) 0.5348(3) -0.18745(8)
H11 H -0.0960 0.6052 -0.1823
H12 H -0.2230 0.5500 -0.2161
H13 H -0.1096 0.4554 -0.1904
C15 C 0.3067(3) 0.3308(3) 0.23181(9)
H14 H 0.3078 0.2501 0.2466
C16 C 0.4388(2) 0.3794(2) 0.21380(9)
H15 H 0.5293 0.3326 0.2165
C17 C 0.49597(19) 0.65643(14) 0.06327(6)
H16 H 0.5569 0.7217 0.0760
C18 C 0.3944(2) 0.68525(13) 0.02784(6)
H17 H 0.3824 0.7696 0.0167
C19 C 0.31145(17) 0.58571(13) 0.00951(5)
C20 C 0.26448(17) 0.34299(15) -0.10797(6)
C21 C 0.3603(3) 0.3439(2) -0.15144(8)
H18 H 0.4342 0.2753 -0.1496
H19 H 0.4122 0.4256 -0.1539
H20 H 0.2968 0.3314 -0.1790
C22 C -0.09699(18) 0.46241(13) -0.01460(6)
C23 C -0.03528(19) 0.43552(16) 0.03333(6)
H21 H -0.1167 0.4069 0.0543
H22 H 0.0093 0.5135 0.0466
C24 C 0.08446(18) 0.33172(14) 0.02913(6)
H23 H 0.0397 0.2549 0.0149
H24 H 0.1214 0.3089 0.0606
C25 C -0.25111(19) 0.47334(16) -0.02366(8)
H25 H -0.3202 0.4661 0.0014
C26 C -0.30423(19) 0.49443(18) -0.06828(8)
H26 H -0.4089 0.5015 -0.0736
C27 C 0.0563(4) 0.2327(2) 0.38999(12)
H27 H 0.1103 0.1986 0.4170
H28 H 0.0347 0.1639 0.3680
H29 H -0.0378 0.2712 0.4004
O6 O 0.14582(19) 0.32626(13) 0.36759(6)
H30 H 0.2207 0.2914 0.3553
loop_
_geom_bond_atom_site_label_1
_geom_bond_atom_site_label_2
_geom_bond_site_symmetry_1
_geom_bond_site_symmetry_2
S1 O2 1_555 1_555
O1 C13 1_555 1_555
O3 C10 1_555 1_555
O4 C20 1_555 1_555
O5 S1 1_555 1_555
N1 H1 1_555 1_555
C1 H2 1_555 1_555
H3 C1 1_555 1_555
H4 C1 1_555 1_555
C2 C1 1_555 1_555
C3 C2 1_555 1_555
H5 C3 1_555 1_555
C4 C3 1_555 1_555
H6 C4 1_555 1_555
C5 S1 1_555 1_555
N2 S1 1_555 1_555
H7 N2 1_555 1_555
C6 N2 1_555 1_555
C7 C6 1_555 1_555
H8 C7 1_555 1_555
C8 C7 1_555 1_555
C9 C8 1_555 1_555
H9 C9 1_555 1_555
C10 N1 1_555 1_555
C11 C10 1_555 1_555
C12 C11 1_555 1_555
H10 C12 1_555 1_555
C13 C12 1_555 1_555
C14 O1 1_555 1_555
H11 C14 1_555 1_555
H12 C14 1_555 1_555
H13 C14 1_555 1_555
C15 C2 1_555 1_555
H14 C15 1_555 1_555
C16 C5 1_555 1_555
H15 C16 1_555 1_555
C17 C6 1_555 1_555
H16 C17 1_555 1_555
C18 C17 1_555 1_555
H17 C18 1_555 1_555
C19 O3 1_555 1_555
C20 N1 1_555 1_555
C21 C20 1_555 1_555
H18 C21 1_555 1_555
H19 C21 1_555 1_555
H20 C21 1_555 1_555
C22 C11 1_555 1_555
C23 C22 1_555 1_555
H21 C23 1_555 1_555
H22 C23 1_555 1_555
C24 C9 1_555 1_555
H23 C24 1_555 1_555
H24 C24 1_555 1_555
C25 C22 1_555 1_555
H25 C25 1_555 1_555
C26 C13 1_555 1_555
H26 C26 1_555 1_555
C27 H27 1_555 1_555
H28 C27 1_555 1_555
H29 C27 1_555 1_555
O6 C27 1_555 1_555
H30 O6 1_555 1_555
C4 C5 1_555 1_555
C8 C19 1_555 1_555
C9 C10 1_555 1_555
C15 C16 1_555 1_555
C18 C19 1_555 1_555
C23 C24 1_555 1_555
C25 C26 1_555 1_555

#END
