
#######################################################################
#
#                 Cambridge Crystallographic Data Centre
#                                CCDC 
#
#######################################################################
#
# If this CIF has been generated from an entry in the Cambridge 
# Structural Database, then it will include bibliographic, chemical, 
# crystal, experimental, refinement or atomic coordinate data resulting 
# from the CCDC's data processing and validation procedures.
#
#######################################################################

data_EQATIA
_chemical_formula_moiety         'C15 H15 N1 O2 S1'
_chemical_name_systematic        
'3-(3-Methylphenyl)-3,4-dihydro-2H-1,2-benzothiazine 1,1-dioxide'
_symmetry_cell_setting           orthorhombic
_symmetry_space_group_name_H-M   'P 21 21 21'
_symmetry_Int_Tables_number      19
_space_group_name_Hall           'P 2ac 2ab'
loop_
_symmetry_equiv_pos_site_id
_symmetry_equiv_pos_as_xyz
1 x,y,z
2 1/2-x,-y,1/2+z
3 -x,1/2+y,1/2-z
4 1/2+x,1/2-y,-z
_cell_length_a                   4.972(4)
_cell_length_b                   13.870(10)
_cell_length_c                   19.934(14)
_cell_angle_alpha                90
_cell_angle_beta                 90
_cell_angle_gamma                90
_cell_volume                     1374.68
_exptl_crystal_colour            colorless
_exptl_crystal_description       stick
_cell_formula_units_Z            4
loop_
_atom_site_label
_atom_site_type_symbol
_atom_site_fract_x
_atom_site_fract_y
_atom_site_fract_z
C1 C 0.6901(7) 0.9015(2) 0.17484(18)
C2 C 0.5101(8) 0.8960(3) 0.1232(2)
H1 H 0.4640 0.8363 0.1053
C3 C 0.3962(9) 0.9791(3) 0.0975(2)
H2 H 0.2729 0.9756 0.0625
C4 C 0.4669(9) 1.0669(3) 0.1240(2)
H3 H 0.3912 1.1229 0.1067
C5 C 0.6483(9) 1.0726(3) 0.17580(19)
H4 H 0.6940 1.1327 0.1931
C6 C 0.7652(6) 0.9900(2) 0.20290(16)
C7 C 0.9584(8) 0.9989(2) 0.26133(17)
H5 H 0.9024 1.0526 0.2892
H6 H 1.1359 1.0137 0.2440
C8 C 0.9774(7) 0.9091(2) 0.30485(16)
H7 H 0.8009 0.8989 0.3256
C9 C 1.1841(8) 0.9150(3) 0.36088(17)
C10 C 1.3123(8) 0.9992(3) 0.37752(18)
H8 H 1.2739 1.0545 0.3530
C11 C 1.4977(8) 1.0052(3) 0.42971(19)
C12 C 1.5567(9) 0.9217(3) 0.4656(2)
H9 H 1.6828 0.9229 0.5000
C13 C 1.4251(10) 0.8366(3) 0.4492(2)
H10 H 1.4624 0.7812 0.4738
C14 C 1.2424(8) 0.8321(3) 0.39813(19)
H11 H 1.1571 0.7741 0.3881
C15 C 1.6310(11) 1.0998(3) 0.4464(2)
H12 H 1.7171 1.1250 0.4070
H13 H 1.7629 1.0898 0.4809
H14 H 1.4980 1.1447 0.4619
N1 N 1.0373(6) 0.8230(2) 0.26216(17)
O1 O 0.9461(6) 0.73592(18) 0.15758(14)
O2 O 0.5929(5) 0.74944(18) 0.24280(14)
S1 S 0.81490(19) 0.79259(6) 0.20828(5)
H15 H 1.188(7) 0.821(2) 0.2499(16)
loop_
_geom_bond_atom_site_label_1
_geom_bond_atom_site_label_2
_geom_bond_site_symmetry_1
_geom_bond_site_symmetry_2
C1 C2 1_555 1_555
C2 H1 1_555 1_555
C3 C2 1_555 1_555
H2 C3 1_555 1_555
C4 C3 1_555 1_555
H3 C4 1_555 1_555
C5 C4 1_555 1_555
H4 C5 1_555 1_555
C6 C1 1_555 1_555
C7 C6 1_555 1_555
H5 C7 1_555 1_555
H6 C7 1_555 1_555
C8 C7 1_555 1_555
H7 C8 1_555 1_555
C9 C8 1_555 1_555
C10 C9 1_555 1_555
H8 C10 1_555 1_555
C11 C10 1_555 1_555
C12 C11 1_555 1_555
H9 C12 1_555 1_555
C13 C12 1_555 1_555
H10 C13 1_555 1_555
C14 C9 1_555 1_555
H11 C14 1_555 1_555
C15 C11 1_555 1_555
H12 C15 1_555 1_555
H13 C15 1_555 1_555
H14 C15 1_555 1_555
N1 C8 1_555 1_555
O1 S1 1_555 1_555
O2 S1 1_555 1_555
S1 C1 1_555 1_555
H15 N1 1_555 1_555
C5 C6 1_555 1_555
C13 C14 1_555 1_555
N1 S1 1_555 1_555

#END
