
#######################################################################
#
#                 Cambridge Crystallographic Data Centre
#                                CCDC 
#
#######################################################################
#
# If this CIF has been generated from an entry in the Cambridge 
# Structural Database, then it will include bibliographic, chemical, 
# crystal, experimental, refinement or atomic coordinate data resulting 
# from the CCDC's data processing and validation procedures.
#
#######################################################################

data_EQATAS
_chemical_formula_moiety         'C24 H27 N1 O7 S1'
_chemical_name_systematic        
'Dimethyl 6-((4-methylphenyl)sulfonyl)-5-phenylhexahydropyrano[2,3-c]pyrrole-7,7(2H)-dicarboxylate'
_symmetry_cell_setting           monoclinic
_symmetry_space_group_name_H-M   'P 21/n'
_symmetry_Int_Tables_number      14
_space_group_name_Hall           '-P 2yn'
loop_
_symmetry_equiv_pos_site_id
_symmetry_equiv_pos_as_xyz
1 x,y,z
2 1/2-x,1/2+y,1/2-z
3 -x,-y,-z
4 1/2+x,1/2-y,1/2+z
_cell_length_a                   11.3198(5)
_cell_length_b                   13.9651(7)
_cell_length_c                   14.8228(7)
_cell_angle_alpha                90
_cell_angle_beta                 104.0490(10)
_cell_angle_gamma                90
_cell_volume                     2273.13
_exptl_crystal_colour            colorless
_exptl_crystal_description       block
_cell_formula_units_Z            4
loop_
_atom_site_label
_atom_site_type_symbol
_atom_site_fract_x
_atom_site_fract_y
_atom_site_fract_z
S1 S 0.54131(4) 0.12432(3) 0.20623(3)
O1 O 0.41795(13) 0.12687(10) 0.15229(9)
O2 O 0.64040(14) 0.11720(10) 0.16219(10)
O3 O 0.23782(12) 0.03282(11) 0.24905(10)
O4 O 0.37089(12) 0.07813(10) 0.37871(9)
O5 O 0.30213(12) -0.12599(10) 0.16640(10)
O6 O 0.47895(11) -0.08318(10) 0.13540(8)
O7 O 0.43719(11) -0.18163(8) 0.35698(8)
N1 N 0.55026(12) 0.03338(10) 0.27764(9)
C1 C 0.56745(16) 0.22881(12) 0.27493(12)
C2 C 0.68617(17) 0.26217(13) 0.30623(14)
H1 H 0.7519 0.2292 0.2907
C3 C 0.70693(17) 0.34344(14) 0.35995(15)
H2 H 0.7880 0.3662 0.3815
C4 C 0.61252(18) 0.39311(13) 0.38358(15)
C5 C 0.49402(18) 0.35992(14) 0.34956(15)
H3 H 0.4280 0.3940 0.3635
C6 C 0.47112(16) 0.27785(13) 0.29565(13)
H4 H 0.3901 0.2554 0.2731
C7 C 0.6394(2) 0.48051(17) 0.4441(2)
H5 H 0.5632 0.5064 0.4543
H6 H 0.6789 0.5289 0.4135
H7 H 0.6937 0.4632 0.5041
C8 C 0.75249(15) 0.04142(12) 0.39166(12)
C9 C 0.87271(17) 0.05429(14) 0.38897(14)
H8 H 0.9014 0.0272 0.3395
C10 C 0.95167(19) 0.10611(17) 0.45757(17)
H9 H 1.0341 0.1143 0.4550
C11 C 0.91108(19) 0.14585(16) 0.52948(15)
H10 H 0.9652 0.1818 0.5763
C12 C 0.79224(18) 0.13339(14) 0.53345(14)
H11 H 0.7643 0.1602 0.5834
C13 C 0.71299(17) 0.08186(13) 0.46486(12)
H12 H 0.6307 0.0740 0.4678
C14 C 0.50120(18) -0.23841(13) 0.43553(14)
H13 H 0.4566 -0.2992 0.4369
H14 H 0.5023 -0.2033 0.4937
C15 C 0.63117(18) -0.26083(13) 0.43170(14)
H15 H 0.6298 -0.3036 0.3782
H16 H 0.6725 -0.2953 0.4891
C16 C 0.70362(16) -0.17071(13) 0.42215(13)
H17 H 0.7176 -0.1320 0.4797
H18 H 0.7836 -0.1881 0.4109
C17 C 0.62856(15) -0.11412(12) 0.33989(12)
H19 H 0.6182 -0.1555 0.2834
C18 C 0.50274(15) -0.09644(12) 0.35577(12)
H20 H 0.5117 -0.0630 0.4167
C19 C 0.44339(14) -0.02676(12) 0.27660(11)
C20 C 0.66980(15) -0.01525(12) 0.31492(11)
H21 H 0.7112 -0.0230 0.2630
C21 C 0.34619(16) 0.03390(12) 0.30733(12)
C22 C 0.1465(2) 0.0903(2) 0.27673(19)
H22 H 0.0694 0.0855 0.2295
H23 H 0.1730 0.1573 0.2830
H24 H 0.1351 0.0672 0.3365
C23 C 0.39617(15) -0.08315(13) 0.18589(12)
C24 C 0.4445(2) -0.1341(2) 0.04834(16)
H25 H 0.5104 -0.1299 0.0162
H26 H 0.3703 -0.1056 0.0094
H27 H 0.4293 -0.2015 0.0603
loop_
_geom_bond_atom_site_label_1
_geom_bond_atom_site_label_2
_geom_bond_site_symmetry_1
_geom_bond_site_symmetry_2
S1 O1 1_555 1_555
O2 S1 1_555 1_555
O3 C21 1_555 1_555
O4 C21 1_555 1_555
O5 C23 1_555 1_555
O6 C23 1_555 1_555
O7 C14 1_555 1_555
N1 S1 1_555 1_555
C1 S1 1_555 1_555
C2 C1 1_555 1_555
H1 C2 1_555 1_555
C3 C2 1_555 1_555
H2 C3 1_555 1_555
C4 C3 1_555 1_555
C5 C4 1_555 1_555
H3 C5 1_555 1_555
C6 C1 1_555 1_555
H4 C6 1_555 1_555
C7 C4 1_555 1_555
H5 C7 1_555 1_555
H6 C7 1_555 1_555
H7 C7 1_555 1_555
C8 C9 1_555 1_555
C9 H8 1_555 1_555
C10 C9 1_555 1_555
H9 C10 1_555 1_555
C11 C10 1_555 1_555
H10 C11 1_555 1_555
C12 C11 1_555 1_555
H11 C12 1_555 1_555
C13 C8 1_555 1_555
H12 C13 1_555 1_555
C14 H13 1_555 1_555
H14 C14 1_555 1_555
C15 C14 1_555 1_555
H15 C15 1_555 1_555
H16 C15 1_555 1_555
C16 C15 1_555 1_555
H17 C16 1_555 1_555
H18 C16 1_555 1_555
C17 C16 1_555 1_555
H19 C17 1_555 1_555
C18 O7 1_555 1_555
H20 C18 1_555 1_555
C19 N1 1_555 1_555
C20 N1 1_555 1_555
H21 C20 1_555 1_555
C21 C19 1_555 1_555
C22 O3 1_555 1_555
H22 C22 1_555 1_555
H23 C22 1_555 1_555
H24 C22 1_555 1_555
C23 C19 1_555 1_555
C24 O6 1_555 1_555
H25 C24 1_555 1_555
H26 C24 1_555 1_555
H27 C24 1_555 1_555
C5 C6 1_555 1_555
C8 C20 1_555 1_555
C12 C13 1_555 1_555
C17 C18 1_555 1_555
C17 C20 1_555 1_555
C18 C19 1_555 1_555

#END
