
#######################################################################
#
#                 Cambridge Crystallographic Data Centre
#                                CCDC 
#
#######################################################################
#
# If this CIF has been generated from an entry in the Cambridge 
# Structural Database, then it will include bibliographic, chemical, 
# crystal, experimental, refinement or atomic coordinate data resulting 
# from the CCDC's data processing and validation procedures.
#
#######################################################################

data_EQAXIF
_chemical_formula_moiety         'C10 H7 N3 O4 S1'
_chemical_name_systematic        
N'-((5-nitro-2-furyl)methylene)thiophene-2-carbohydrazide
_symmetry_cell_setting           tetragonal
_symmetry_space_group_name_H-M   'I 41 c d'
_symmetry_Int_Tables_number      110
_space_group_name_Hall           'I 4bw -2c'
loop_
_symmetry_equiv_pos_site_id
_symmetry_equiv_pos_as_xyz
1 x,y,z
2 -y,1/2+x,1/4+z
3 1/2-x,1/2-y,1/2+z
4 1/2+y,-x,3/4+z
5 -x,y,1/2+z
6 -y,1/2-x,3/4+z
7 1/2+x,1/2-y,z
8 1/2+y,x,1/4+z
9 1/2+x,1/2+y,1/2+z
10 1/2-y,x,3/4+z
11 -x,-y,z
12 y,1/2-x,1/4+z
13 1/2-x,1/2+y,z
14 1/2-y,-x,1/4+z
15 x,-y,1/2+z
16 y,1/2+x,3/4+z
_cell_length_a                   17.4072(16)
_cell_length_b                   17.4072(16)
_cell_length_c                   14.4881(10)
_cell_angle_alpha                90
_cell_angle_beta                 90
_cell_angle_gamma                90
_cell_volume                     4390.05
_exptl_crystal_colour            yellow
_exptl_crystal_description       rod
_cell_formula_units_Z            16
loop_
_atom_site_label
_atom_site_type_symbol
_atom_site_fract_x
_atom_site_fract_y
_atom_site_fract_z
S1 S 0.48085(6) 0.10242(6) 0.44233(8)
O1 O 0.36361(17) 0.16769(16) 0.56218(18)
O2 O 0.22698(16) 0.39128(15) 0.66600(18)
O3 O 0.25495(19) 0.40880(19) 0.8415(2)
O4 O 0.18400(18) 0.51202(19) 0.8477(2)
N1 N 0.31555(19) 0.25578(19) 0.4618(2)
H1 H 0.319(3) 0.278(2) 0.4082(17)
N2 N 0.28004(19) 0.29467(19) 0.5325(2)
N3 N 0.2125(2) 0.4568(2) 0.8067(2)
C1 C 0.4111(2) 0.1666(2) 0.4094(3)
C2 C 0.4137(2) 0.1857(2) 0.3137(3)
H2 H 0.3797 0.2195 0.2824
C3 C 0.4770(2) 0.1443(2) 0.2728(3)
H3 H 0.4901 0.1482 0.2093
C4 C 0.5164(3) 0.0990(2) 0.3336(3)
H4 H 0.5595 0.0686 0.3166
C5 C 0.3616(2) 0.1960(2) 0.4838(3)
C6 C 0.2361(2) 0.3499(2) 0.5074(3)
H5 H 0.2247 0.3576 0.4439
C7 C 0.2040(2) 0.4004(2) 0.5764(3)
C8 C 0.1580(2) 0.4633(2) 0.5673(3)
H6 H 0.1351 0.4815 0.5120
C9 C 0.1511(2) 0.4962(2) 0.6561(3)
H7 H 0.1228 0.5406 0.6731
C10 C 0.1940(2) 0.4502(2) 0.7116(3)
loop_
_geom_bond_atom_site_label_1
_geom_bond_atom_site_label_2
_geom_bond_site_symmetry_1
_geom_bond_site_symmetry_2
S1 C1 1_555 1_555
O1 C5 1_555 1_555
O2 C7 1_555 1_555
O3 N3 1_555 1_555
O4 N3 1_555 1_555
N1 H1 1_555 1_555
N2 N1 1_555 1_555
N3 C10 1_555 1_555
C1 C2 1_555 1_555
C2 H2 1_555 1_555
C3 C2 1_555 1_555
H3 C3 1_555 1_555
C4 S1 1_555 1_555
H4 C4 1_555 1_555
C5 N1 1_555 1_555
C6 N2 1_555 1_555
H5 C6 1_555 1_555
C7 C6 1_555 1_555
C8 C7 1_555 1_555
H6 C8 1_555 1_555
C9 C8 1_555 1_555
H7 C9 1_555 1_555
C10 O2 1_555 1_555
C1 C5 1_555 1_555
C3 C4 1_555 1_555
C9 C10 1_555 1_555

#END
