
#######################################################################
#
#                 Cambridge Crystallographic Data Centre
#                                CCDC 
#
#######################################################################
#
# If this CIF has been generated from an entry in the Cambridge 
# Structural Database, then it will include bibliographic, chemical, 
# crystal, experimental, refinement or atomic coordinate data resulting 
# from the CCDC's data processing and validation procedures.
#
#######################################################################

data_EQEFAJ
_chemical_formula_moiety         'C19 H26 O3'
_chemical_name_systematic        
6-phenyloctahydro-1H-benzo[c]chromene-4a,10a(2H,10bH)-diol
_symmetry_cell_setting           monoclinic
_symmetry_space_group_name_H-M   'P 21/c'
_symmetry_Int_Tables_number      14
_space_group_name_Hall           '-P 2ybc'
loop_
_symmetry_equiv_pos_site_id
_symmetry_equiv_pos_as_xyz
1 x,y,z
2 -x,1/2+y,1/2-z
3 -x,-y,-z
4 x,1/2-y,1/2+z
_cell_length_a                   10.032(2)
_cell_length_b                   18.500(4)
_cell_length_c                   9.118(2)
_cell_angle_alpha                90
_cell_angle_beta                 109.47(3)
_cell_angle_gamma                90
_cell_volume                     1595.46
_cell_formula_units_Z            4
loop_
_atom_site_label
_atom_site_type_symbol
_atom_site_fract_x
_atom_site_fract_y
_atom_site_fract_z
C1 C -0.31206(15) 0.08848(8) -0.19977(18)
H1 H -0.3509 0.1351 -0.2414
H2 H -0.3248 0.0558 -0.2865
C2 C -0.15486(14) 0.09664(6) -0.11005(15)
H3 H -0.1208 0.0482 -0.0723
C3 C -0.39118(17) 0.05956(9) -0.0967(2)
H4 H -0.3596 0.0107 -0.0647
H5 H -0.4914 0.0577 -0.1556
C4 C -0.36802(16) 0.10612(9) 0.0465(2)
H6 H -0.4149 0.0842 0.1128
H7 H -0.4096 0.1534 0.0153
C5 C -0.21122(15) 0.11457(8) 0.13730(17)
H8 H -0.1993 0.1474 0.2237
H9 H -0.1723 0.0681 0.1795
C6 C -0.13127(13) 0.14339(6) 0.03560(15)
O1 O -0.17701(10) 0.21472(5) -0.01551(11)
H10 H -0.1535 0.2423 0.0591
O2 O 0.01311(9) 0.14393(5) 0.12862(10)
C7 C 0.10827(14) 0.16894(7) 0.05178(15)
H11 H 0.0849 0.2193 0.0199
C8 C 0.09282(14) 0.12353(6) -0.09391(15)
H12 H 0.1183 0.0737 -0.0593
C9 C 0.19233(18) 0.14770(8) -0.17894(19)
H13 H 0.1726 0.1977 -0.2110
H14 H 0.2891 0.1449 -0.1088
C10 C 0.17604(19) 0.10105(9) -0.3211(2)
H15 H 0.2359 0.1199 -0.3765
H16 H 0.2069 0.0522 -0.2880
C11 C 0.02520(19) 0.09933(8) -0.42873(18)
H17 H 0.0173 0.0664 -0.5140
H18 H -0.0020 0.1471 -0.4721
C12 C -0.07448(17) 0.07525(7) -0.34393(16)
H19 H -0.0534 0.0256 -0.3101
H20 H -0.1710 0.0769 -0.4152
C13 C -0.06216(14) 0.12254(6) -0.20320(14)
O3 O -0.10539(12) 0.19403(5) -0.26385(11)
H21 H -0.1303 0.2172 -0.2008
C14 C 0.25387(14) 0.16683(7) 0.17110(16)
C15 C 0.35519(16) 0.21688(8) 0.1674(2)
H22 H 0.3331 0.2522 0.0904
C16 C 0.48901(17) 0.21485(9) 0.2773(2)
H23 H 0.5564 0.2486 0.2731
C17 C 0.52312(17) 0.16374(10) 0.3916(2)
H24 H 0.6132 0.1627 0.4654
C18 C 0.42393(18) 0.11387(10) 0.3973(2)
H25 H 0.4467 0.0790 0.4751
C19 C 0.29005(16) 0.11541(8) 0.28749(18)
H26 H 0.2234 0.0813 0.2921
loop_
_geom_bond_atom_site_label_1
_geom_bond_atom_site_label_2
_geom_bond_site_symmetry_1
_geom_bond_site_symmetry_2
C1 H1 1_555 1_555
H2 C1 1_555 1_555
C2 C1 1_555 1_555
H3 C2 1_555 1_555
C3 C1 1_555 1_555
H4 C3 1_555 1_555
H5 C3 1_555 1_555
C4 C3 1_555 1_555
H6 C4 1_555 1_555
H7 C4 1_555 1_555
C5 C4 1_555 1_555
H8 C5 1_555 1_555
H9 C5 1_555 1_555
C6 C2 1_555 1_555
O1 C6 1_555 1_555
H10 O1 1_555 1_555
O2 C6 1_555 1_555
C7 O2 1_555 1_555
H11 C7 1_555 1_555
C8 C7 1_555 1_555
H12 C8 1_555 1_555
C9 C8 1_555 1_555
H13 C9 1_555 1_555
H14 C9 1_555 1_555
C10 C9 1_555 1_555
H15 C10 1_555 1_555
H16 C10 1_555 1_555
C11 C10 1_555 1_555
H17 C11 1_555 1_555
H18 C11 1_555 1_555
C12 C11 1_555 1_555
H19 C12 1_555 1_555
H20 C12 1_555 1_555
C13 C2 1_555 1_555
O3 C13 1_555 1_555
H21 O3 1_555 1_555
C14 C7 1_555 1_555
C15 C14 1_555 1_555
H22 C15 1_555 1_555
C16 C15 1_555 1_555
H23 C16 1_555 1_555
C17 C16 1_555 1_555
H24 C17 1_555 1_555
C18 C17 1_555 1_555
H25 C18 1_555 1_555
C19 C14 1_555 1_555
H26 C19 1_555 1_555
C5 C6 1_555 1_555
C8 C13 1_555 1_555
C12 C13 1_555 1_555
C18 C19 1_555 1_555

#END
