
#######################################################################
#
#                 Cambridge Crystallographic Data Centre
#                                CCDC 
#
#######################################################################
#
# If this CIF has been generated from an entry in the Cambridge 
# Structural Database, then it will include bibliographic, chemical, 
# crystal, experimental, refinement or atomic coordinate data resulting 
# from the CCDC's data processing and validation procedures.
#
#######################################################################

data_EQEGIS
_chemical_formula_moiety         'C32 H26 Cl3 N1 O4 S2,2(C1 H1 Cl3),C1 H2 Cl2'
_chemical_name_systematic        
'methyl 2,3,8-tris(4-chlorophenyl)-5-(1,3-dithiolan-2-ylidene)-4,6-dioxooctahydrocyclohepta[b]pyrrole-8a(1H)-carboxylate chloroform dichloromethane solvate'
_symmetry_cell_setting           triclinic
_symmetry_space_group_name_H-M   'P -1'
_symmetry_Int_Tables_number      2
_space_group_name_Hall           '-P 1'
loop_
_symmetry_equiv_pos_site_id
_symmetry_equiv_pos_as_xyz
1 x,y,z
2 -x,-y,-z
_cell_length_a                   10.069(5)
_cell_length_b                   13.141(5)
_cell_length_c                   18.165(5)
_cell_angle_alpha                110.735(5)
_cell_angle_beta                 93.826(5)
_cell_angle_gamma                107.061(5)
_cell_volume                     2109.45
_exptl_crystal_colour            colorless
_exptl_crystal_description       needle
_chemical_melting_point          '150-152 deg.C'
_cell_formula_units_Z            2
loop_
_atom_site_label
_atom_site_type_symbol
_atom_site_fract_x
_atom_site_fract_y
_atom_site_fract_z
C1 C 0.0587(9) 0.0303(8) 0.8047(5)
C2 C 0.1799(9) 0.0079(10) 0.8347(5)
C3 C 0.2662(9) -0.0489(8) 0.7796(5)
C4 C 0.2902(8) -0.0283(8) 0.7066(5)
H1 H 0.2415 -0.1004 0.6611
H2 H 0.3906 -0.0100 0.7060
C5 C 0.2454(8) 0.0660(8) 0.6929(5)
H3 H 0.2654 0.1302 0.7451
C6 C 0.0820(8) 0.0214(7) 0.6603(4)
C7 C -0.0076(8) -0.0208(7) 0.7166(5)
H4 H -0.0915 0.0019 0.7136
C8 C -0.0602(8) -0.1537(7) 0.6738(5)
H5 H 0.0191 -0.1801 0.6816
C9 C -0.0867(8) -0.1673(7) 0.5871(5)
H6 H -0.1692 -0.1454 0.5773
C10 C 0.2155(10) 0.0387(12) 0.9167(6)
C11 C 0.2259(12) 0.1051(17) 1.0738(6)
H7 H 0.2277 0.1686 1.1223
H8 H 0.1798 0.0329 1.0793
C12 C 0.3721(12) 0.1143(15) 1.0603(6)
H9 H 0.4198 0.0934 1.0979
H10 H 0.4255 0.1932 1.0683
C13 C 0.3280(8) 0.1136(7) 0.6378(5)
C14 C 0.3976(10) 0.2306(7) 0.6639(6)
H11 H 0.3928 0.2786 0.7148
C15 C 0.4745(10) 0.2793(8) 0.6172(7)
H12 H 0.5214 0.3587 0.6363
C16 C 0.4800(10) 0.2070(9) 0.5415(6)
C17 C 0.4119(10) 0.0904(8) 0.5140(6)
H13 H 0.4184 0.0421 0.4636
C18 C 0.3328(9) 0.0442(8) 0.5614(5)
H14 H 0.2823 -0.0348 0.5414
C19 C -0.1079(8) -0.2866(7) 0.5249(5)
C20 C 0.0045(9) -0.3204(7) 0.4966(5)
H15 H 0.0968 -0.2686 0.5157
C21 C -0.0214(9) -0.4311(7) 0.4398(5)
H16 H 0.0530 -0.4525 0.4194
C22 C -0.1553(8) -0.5081(7) 0.4142(5)
C23 C -0.2697(10) -0.4791(8) 0.4417(5)
H17 H -0.3610 -0.5327 0.4238
C24 C -0.2436(8) -0.3689(8) 0.4964(5)
H18 H -0.3194 -0.3480 0.5153
C25 C -0.1851(8) -0.2218(8) 0.6989(5)
C26 C -0.1834(9) -0.3176(8) 0.7116(6)
H19 H -0.1037 -0.3395 0.7058
C27 C -0.2979(9) -0.3838(9) 0.7330(6)
H20 H -0.2940 -0.4481 0.7424
C28 C -0.4151(9) -0.3526(9) 0.7399(5)
C29 C -0.4229(9) -0.2559(9) 0.7284(5)
H21 H -0.5037 -0.2355 0.7341
C30 C -0.3091(8) -0.1908(9) 0.7086(5)
H22 H -0.3127 -0.1250 0.7013
C31 C 0.0442(8) 0.1213(7) 0.6489(4)
C32 C 0.0700(12) 0.3167(8) 0.7121(6)
H23 H 0.1017 0.3786 0.7642
H24 H -0.0275 0.3028 0.6931
H25 H 0.1262 0.3376 0.6756
N1 N 0.0418(7) -0.0795(6) 0.5847(4)
O1 O -0.0008(6) 0.0913(7) 0.8521(4)
O2 O 0.3318(7) -0.1013(6) 0.8030(4)
O3 O -0.0125(7) 0.1153(5) 0.5873(3)
O4 O 0.0844(6) 0.2140(5) 0.7171(3)
S1 S 0.1307(3) 0.1105(4) 0.98584(15)
S2 S 0.3615(3) 0.0184(4) 0.95945(16)
Cl1 Cl 0.5795(3) 0.2640(3) 0.4817(2)
Cl2 Cl -0.1873(2) -0.64806(19) 0.34341(15)
Cl3 Cl -0.5589(2) -0.4346(2) 0.76706(16)
H26 H 0.041(8) -0.066(6) 0.537(2)
C33 C -0.2413(13) 0.1965(11) 0.8095(7)
Cl4 Cl -0.2331(6) 0.3382(4) 0.8381(3)
Cl5 Cl -0.2915(3) 0.1254(3) 0.70300(16)
Cl6 Cl -0.3638(4) 0.1213(5) 0.8525(2)
C34 C 0.328(2) 0.3670(17) 0.8968(12)
Cl7 Cl 0.2552(18) 0.4605(14) 0.9357(10)
Cl8 Cl 0.4188(13) 0.3057(9) 0.9102(7)
Cl9 Cl 0.2782(8) 0.6904(6) 0.9307(5)
Cl10 Cl 0.0247(8) 0.6374(6) 0.9898(5)
Cl11 Cl 0.0168(11) 0.7187(9) 0.8633(7)
C35 C 0.124(3) 0.712(3) 0.9463(18)
C36? C 0.145(3) 0.691(2) 0.8683(18)
Cl12? Cl 0.0439(10) 0.5681(8) 0.8175(6)
Cl13? Cl 0.0625(15) 0.7866(12) 0.9335(9)
Cl14? Cl 0.3484(8) 0.4078(6) 1.0658(4)
loop_
_geom_bond_atom_site_label_1
_geom_bond_atom_site_label_2
_geom_bond_site_symmetry_1
_geom_bond_site_symmetry_2
C1 C2 1_555 1_555
C2 C3 1_555 1_555
C3 C4 1_555 1_555
C4 H1 1_555 1_555
H2 C4 1_555 1_555
C5 C4 1_555 1_555
H3 C5 1_555 1_555
C6 C5 1_555 1_555
C7 C1 1_555 1_555
H4 C7 1_555 1_555
C8 C7 1_555 1_555
H5 C8 1_555 1_555
C9 C8 1_555 1_555
H6 C9 1_555 1_555
C10 C2 1_555 1_555
C11 H7 1_555 1_555
H8 C11 1_555 1_555
C12 C11 1_555 1_555
H9 C12 1_555 1_555
H10 C12 1_555 1_555
C13 C5 1_555 1_555
C14 C13 1_555 1_555
H11 C14 1_555 1_555
C15 C14 1_555 1_555
H12 C15 1_555 1_555
C16 C15 1_555 1_555
C17 C16 1_555 1_555
H13 C17 1_555 1_555
C18 C13 1_555 1_555
H14 C18 1_555 1_555
C19 C9 1_555 1_555
C20 C19 1_555 1_555
H15 C20 1_555 1_555
C21 C20 1_555 1_555
H16 C21 1_555 1_555
C22 C21 1_555 1_555
C23 C22 1_555 1_555
H17 C23 1_555 1_555
C24 C19 1_555 1_555
H18 C24 1_555 1_555
C25 C8 1_555 1_555
C26 C25 1_555 1_555
H19 C26 1_555 1_555
C27 C26 1_555 1_555
H20 C27 1_555 1_555
C28 C27 1_555 1_555
C29 C28 1_555 1_555
H21 C29 1_555 1_555
C30 C25 1_555 1_555
H22 C30 1_555 1_555
C31 C6 1_555 1_555
C32 H23 1_555 1_555
H24 C32 1_555 1_555
H25 C32 1_555 1_555
N1 C6 1_555 1_555
O1 C1 1_555 1_555
O2 C3 1_555 1_555
O3 C31 1_555 1_555
O4 C31 1_555 1_555
S1 C10 1_555 1_555
S2 C10 1_555 1_555
Cl1 C16 1_555 1_555
Cl2 C22 1_555 1_555
Cl3 C28 1_555 1_555
H26 N1 1_555 1_555
C33 Cl4 1_555 1_555
Cl5 C33 1_555 1_555
Cl6 C33 1_555 1_555
C34 Cl7 1_555 1_555
Cl8 C34 1_555 1_555
Cl9 C35 1_555 1_555
Cl10 C35 1_555 1_555
Cl11 C35 1_555 1_555
C6 C7 1_555 1_555
C9 N1 1_555 1_555
C11 S1 1_555 1_555
C12 S2 1_555 1_555
C17 C18 1_555 1_555
C23 C24 1_555 1_555
C29 C30 1_555 1_555
C32 O4 1_555 1_555

#END
