
#######################################################################
#
#                 Cambridge Crystallographic Data Centre
#                                CCDC 
#
#######################################################################
#
# If this CIF has been generated from an entry in the Cambridge 
# Structural Database, then it will include bibliographic, chemical, 
# crystal, experimental, refinement or atomic coordinate data resulting 
# from the CCDC's data processing and validation procedures.
#
#######################################################################

data_EQEVAY
_chemical_formula_moiety         'C30 H28 O4 S1'
_chemical_name_systematic        
'3-Phenyl-2-(9H-xanthen-9-yl)butyl 4-methylbenzenesulfonate'
_symmetry_cell_setting           orthorhombic
_symmetry_space_group_name_H-M   'P 21 21 21'
_symmetry_Int_Tables_number      19
_space_group_name_Hall           'P 2ac 2ab'
loop_
_symmetry_equiv_pos_site_id
_symmetry_equiv_pos_as_xyz
1 x,y,z
2 1/2-x,-y,1/2+z
3 -x,1/2+y,1/2-z
4 1/2+x,1/2-y,-z
_cell_length_a                   6.2731(2)
_cell_length_b                   16.1518(6)
_cell_length_c                   24.6855(9)
_cell_angle_alpha                90
_cell_angle_beta                 90
_cell_angle_gamma                90
_cell_volume                     2501.18
_exptl_crystal_colour            colorless
_exptl_crystal_description       block
_cell_formula_units_Z            4
loop_
_atom_site_label
_atom_site_type_symbol
_atom_site_fract_x
_atom_site_fract_y
_atom_site_fract_z
S1 S 0.51566(12) 0.46443(5) 0.80759(3)
O1 O 0.7386(3) 0.44944(14) 0.81103(9)
O2 O 0.4389(4) 0.53554(12) 0.77959(7)
O3 O 0.4383(3) 0.46887(11) 0.86780(6)
O4 O -0.1724(3) 0.40321(11) 1.01704(7)
C1 C -0.0162(4) 0.43337(15) 1.05122(10)
C2 C -0.0738(5) 0.44479(17) 1.10459(11)
H1 H -0.2127 0.4342 1.1157
C3 C 0.0755(6) 0.4719(2) 1.14117(12)
H2 H 0.0378 0.4804 1.1772
C4 C 0.2799(6) 0.48653(19) 1.12446(12)
H3 H 0.3816 0.5042 1.1493
C5 C 0.3363(5) 0.47516(17) 1.07089(10)
H4 H 0.4760 0.4852 1.0601
C6 C 0.1879(4) 0.44906(14) 1.03285(10)
C7 C 0.2400(4) 0.43600(13) 0.97359(9)
H5 H 0.3893 0.4187 0.9708
C8 C 0.1015(4) 0.36663(14) 0.95259(9)
C9 C -0.1006(4) 0.35568(14) 0.97375(10)
C10 C -0.2399(5) 0.29637(16) 0.95463(11)
H6 H -0.3750 0.2906 0.9697
C11 C -0.1752(5) 0.24593(17) 0.91288(12)
H7 H -0.2687 0.2069 0.8987
C12 C 0.0277(5) 0.25310(16) 0.89201(11)
H8 H 0.0727 0.2178 0.8645
C13 C 0.1635(5) 0.31260(15) 0.91192(10)
H9 H 0.3004 0.3167 0.8977
C14 C 0.0990(5) 0.70822(17) 0.94653(12)
H10 H 0.0061 0.6820 0.9704
C15 C 0.0421(6) 0.7834(2) 0.92412(15)
H11 H -0.0895 0.8068 0.9323
C16 C 0.1791(8) 0.8236(2) 0.88997(16)
H12 H 0.1423 0.8748 0.8755
C17 C 0.3689(8) 0.7884(2) 0.87729(15)
H13 H 0.4622 0.8155 0.8540
C18 C 0.4244(6) 0.71243(18) 0.89876(13)
H14 H 0.5539 0.6886 0.8891
C19 C 0.2918(4) 0.67135(15) 0.93413(10)
C20 C 0.3514(4) 0.58964(15) 0.96067(10)
H15 H 0.3158 0.5961 0.9991
C21 C 0.2109(4) 0.51720(13) 0.94006(9)
H16 H 0.0634 0.5347 0.9464
C22 C 0.2276(4) 0.50321(15) 0.87960(10)
H17 H 0.1175 0.4651 0.8678
H18 H 0.2085 0.5552 0.8605
C23 C 0.3895(5) 0.37658(17) 0.78155(10)
C24 C 0.4882(5) 0.30047(18) 0.78407(12)
H19 H 0.6240 0.2956 0.7988
C25 C 0.3836(6) 0.23157(19) 0.76451(13)
H20 H 0.4506 0.1802 0.7660
C26 C 0.1818(6) 0.2373(2) 0.74281(13)
C27 C 0.0871(5) 0.3140(2) 0.74099(12)
H21 H -0.0492 0.3187 0.7265
C28 C 0.1878(5) 0.38380(19) 0.75988(11)
H22 H 0.1209 0.4351 0.7581
C29 C 0.0666(7) 0.1618(2) 0.72191(18)
H23 H -0.0721 0.1776 0.7091
H24 H 0.0519 0.1221 0.7506
H25 H 0.1466 0.1378 0.6927
C30 C 0.5914(4) 0.57331(17) 0.95904(12)
H26 H 0.6661 0.6208 0.9726
H27 H 0.6346 0.5628 0.9224
H28 H 0.6242 0.5260 0.9811
loop_
_geom_bond_atom_site_label_1
_geom_bond_atom_site_label_2
_geom_bond_site_symmetry_1
_geom_bond_site_symmetry_2
S1 O1 1_555 1_555
O2 S1 1_555 1_555
O3 S1 1_555 1_555
O4 C1 1_555 1_555
C1 C2 1_555 1_555
C2 H1 1_555 1_555
C3 C2 1_555 1_555
H2 C3 1_555 1_555
C4 C3 1_555 1_555
H3 C4 1_555 1_555
C5 C4 1_555 1_555
H4 C5 1_555 1_555
C6 C1 1_555 1_555
C7 C6 1_555 1_555
H5 C7 1_555 1_555
C8 C7 1_555 1_555
C9 O4 1_555 1_555
C10 C9 1_555 1_555
H6 C10 1_555 1_555
C11 C10 1_555 1_555
H7 C11 1_555 1_555
C12 C11 1_555 1_555
H8 C12 1_555 1_555
C13 C8 1_555 1_555
H9 C13 1_555 1_555
C14 H10 1_555 1_555
C15 C14 1_555 1_555
H11 C15 1_555 1_555
C16 C15 1_555 1_555
H12 C16 1_555 1_555
C17 C16 1_555 1_555
H13 C17 1_555 1_555
C18 C17 1_555 1_555
H14 C18 1_555 1_555
C19 C14 1_555 1_555
C20 C19 1_555 1_555
H15 C20 1_555 1_555
C21 C7 1_555 1_555
H16 C21 1_555 1_555
C22 O3 1_555 1_555
H17 C22 1_555 1_555
H18 C22 1_555 1_555
C23 S1 1_555 1_555
C24 C23 1_555 1_555
H19 C24 1_555 1_555
C25 C24 1_555 1_555
H20 C25 1_555 1_555
C26 C25 1_555 1_555
C27 C26 1_555 1_555
H21 C27 1_555 1_555
C28 C23 1_555 1_555
H22 C28 1_555 1_555
C29 C26 1_555 1_555
H23 C29 1_555 1_555
H24 C29 1_555 1_555
H25 C29 1_555 1_555
C30 C20 1_555 1_555
H26 C30 1_555 1_555
H27 C30 1_555 1_555
H28 C30 1_555 1_555
C5 C6 1_555 1_555
C8 C9 1_555 1_555
C12 C13 1_555 1_555
C18 C19 1_555 1_555
C20 C21 1_555 1_555
C21 C22 1_555 1_555
C27 C28 1_555 1_555

#END
