
#######################################################################
#
#                 Cambridge Crystallographic Data Centre
#                                CCDC 
#
#######################################################################
#
# If this CIF has been generated from an entry in the Cambridge 
# Structural Database, then it will include bibliographic, chemical, 
# crystal, experimental, refinement or atomic coordinate data resulting 
# from the CCDC's data processing and validation procedures.
#
#######################################################################

data_EQIFER
_chemical_formula_moiety         'C17 H16 F3 N1 S1'
_chemical_name_systematic        
2-(3-methylphenyl)-3-((trifluoromethyl)sulfanyl)-1,2,3,4-tetrahydroquinoline
_symmetry_cell_setting           orthorhombic
_symmetry_space_group_name_H-M   'P 21 21 21'
_symmetry_Int_Tables_number      19
_space_group_name_Hall           'P 2ac 2ab'
loop_
_symmetry_equiv_pos_site_id
_symmetry_equiv_pos_as_xyz
1 x,y,z
2 1/2-x,-y,1/2+z
3 -x,1/2+y,1/2-z
4 1/2+x,1/2-y,-z
_cell_length_a                   9.8932(13)
_cell_length_b                   15.009(2)
_cell_length_c                   21.270(3)
_cell_angle_alpha                90
_cell_angle_beta                 90
_cell_angle_gamma                90
_cell_volume                     3158.32
_exptl_crystal_colour            colorless
_exptl_crystal_description       prismatic
_cell_formula_units_Z            8
loop_
_atom_site_label
_atom_site_type_symbol
_atom_site_fract_x
_atom_site_fract_y
_atom_site_fract_z
S1 S 0.38375(12) 0.71450(8) 0.84809(5)
F1 F 0.6155(3) 0.7679(2) 0.81618(15)
F2 F 0.6236(3) 0.66214(19) 0.88334(17)
F3 F 0.5748(3) 0.79195(19) 0.91305(15)
N1 N 0.1066(5) 0.6640(3) 0.8759(2)
C1 C 0.0683(5) 0.7482(3) 0.8966(2)
C2 C -0.0483(5) 0.7874(3) 0.8734(2)
H1 H -0.1025 0.7559 0.8455
C3 C -0.0848(6) 0.8719(4) 0.8911(3)
H2 H -0.1634 0.8973 0.8751
C4 C -0.0057(7) 0.9192(3) 0.9322(3)
H3 H -0.0303 0.9765 0.9443
C5 C 0.1104(6) 0.8809(3) 0.9556(2)
H4 H 0.1640 0.9131 0.9834
C6 C 0.1489(5) 0.7957(3) 0.9387(2)
C7 C 0.2753(5) 0.7548(3) 0.9649(2)
H5 H 0.2580 0.7340 1.0073
H6 H 0.3457 0.7996 0.9669
C8 C 0.3237(5) 0.6767(3) 0.9246(2)
H7 H 0.3960 0.6446 0.9465
C9 C 0.2034(5) 0.6139(3) 0.9132(2)
H8 H 0.1616 0.6013 0.9540
C10 C 0.2396(5) 0.5262(3) 0.8834(2)
C11 C 0.2730(5) 0.4561(3) 0.9217(3)
H9 H 0.2717 0.4644 0.9650
C12 C 0.3086(5) 0.3731(3) 0.8983(3)
C13 C 0.3083(5) 0.3622(4) 0.8337(3)
H10 H 0.3294 0.3069 0.8166
C14 C 0.2776(6) 0.4310(3) 0.7949(3)
H11 H 0.2800 0.4224 0.7516
C15 C 0.2430(5) 0.5136(3) 0.8185(3)
H12 H 0.2223 0.5602 0.7914
C16 C 0.3431(8) 0.2968(4) 0.9417(4)
H13 H 0.3166 0.2416 0.9226
H14 H 0.2959 0.3042 0.9808
H15 H 0.4387 0.2963 0.9494
C17 C 0.5566(5) 0.7340(3) 0.8669(2)
H16 H 0.046(6) 0.632(3) 0.864(2)
S2 S 0.83315(13) 0.60486(8) 0.74078(6)
F4 F 0.9058(5) 0.6338(3) 0.6254(2)
F5 F 1.0605(4) 0.5841(2) 0.6816(2)
F6 F 0.9914(5) 0.7174(2) 0.6948(2)
N2 N 0.6260(5) 0.4884(3) 0.7934(2)
C18 C 0.7077(5) 0.4539(3) 0.8406(2)
C19 C 0.6622(6) 0.4508(3) 0.9019(2)
H17 H 0.5753 0.4703 0.9112
C20 C 0.7438(7) 0.4190(3) 0.9495(2)
H18 H 0.7114 0.4166 0.9905
C21 C 0.8717(6) 0.3912(3) 0.9363(3)
H19 H 0.9269 0.3694 0.9682
C22 C 0.9187(5) 0.3957(3) 0.8757(3)
H20 H 1.0070 0.3780 0.8672
C23 C 0.8386(5) 0.4257(3) 0.8269(2)
C24 C 0.8895(5) 0.4257(3) 0.7600(2)
H21 H 0.8852 0.3657 0.7433
H22 H 0.9833 0.4446 0.7594
C25 C 0.8063(5) 0.4875(3) 0.7189(2)
H23 H 0.8307 0.4786 0.6747
C26 C 0.6567(5) 0.4676(3) 0.7281(2)
H24 H 0.6437 0.4034 0.7223
C27 C 0.5663(5) 0.5145(3) 0.6826(2)
C28 C 0.5536(6) 0.4797(3) 0.6228(2)
H25 H 0.5999 0.4279 0.6122
C29 C 0.4729(7) 0.5209(4) 0.5786(3)
H26 H 0.4650 0.4968 0.5385
C30 C 0.4047(6) 0.5970(3) 0.5939(2)
H27 H 0.3494 0.6241 0.5641
C31 C 0.4168(5) 0.6340(3) 0.6528(2)
C32 C 0.4970(5) 0.5921(3) 0.6963(2)
H28 H 0.5049 0.6166 0.7363
C33 C 0.3427(6) 0.7195(3) 0.6694(3)
H29 H 0.4072 0.7650 0.6797
H30 H 0.2846 0.7091 0.7048
H31 H 0.2895 0.7384 0.6341
C34 C 0.9510(7) 0.6356(4) 0.6828(4)
H32 H 0.559(5) 0.485(3) 0.800(2)
loop_
_geom_bond_atom_site_label_1
_geom_bond_atom_site_label_2
_geom_bond_site_symmetry_1
_geom_bond_site_symmetry_2
S1 C8 1_555 1_555
F1 C17 1_555 1_555
F2 C17 1_555 1_555
F3 C17 1_555 1_555
N1 C1 1_555 1_555
C1 C2 1_555 1_555
C2 H1 1_555 1_555
C3 C2 1_555 1_555
H2 C3 1_555 1_555
C4 C3 1_555 1_555
H3 C4 1_555 1_555
C5 C4 1_555 1_555
H4 C5 1_555 1_555
C6 C1 1_555 1_555
C7 C6 1_555 1_555
H5 C7 1_555 1_555
H6 C7 1_555 1_555
C8 C7 1_555 1_555
H7 C8 1_555 1_555
C9 N1 1_555 1_555
H8 C9 1_555 1_555
C10 C9 1_555 1_555
C11 C10 1_555 1_555
H9 C11 1_555 1_555
C12 C11 1_555 1_555
C13 C12 1_555 1_555
H10 C13 1_555 1_555
C14 C13 1_555 1_555
H11 C14 1_555 1_555
C15 C10 1_555 1_555
H12 C15 1_555 1_555
C16 C12 1_555 1_555
H13 C16 1_555 1_555
H14 C16 1_555 1_555
H15 C16 1_555 1_555
C17 S1 1_555 1_555
H16 N1 1_555 1_555
S2 C25 1_555 1_555
F4 C34 1_555 1_555
F5 C34 1_555 1_555
F6 C34 1_555 1_555
N2 C18 1_555 1_555
C18 C19 1_555 1_555
C19 H17 1_555 1_555
C20 C19 1_555 1_555
H18 C20 1_555 1_555
C21 C20 1_555 1_555
H19 C21 1_555 1_555
C22 C21 1_555 1_555
H20 C22 1_555 1_555
C23 C18 1_555 1_555
C24 C23 1_555 1_555
H21 C24 1_555 1_555
H22 C24 1_555 1_555
C25 C24 1_555 1_555
H23 C25 1_555 1_555
C26 N2 1_555 1_555
H24 C26 1_555 1_555
C27 C26 1_555 1_555
C28 C27 1_555 1_555
H25 C28 1_555 1_555
C29 C28 1_555 1_555
H26 C29 1_555 1_555
C30 C29 1_555 1_555
H27 C30 1_555 1_555
C31 C30 1_555 1_555
C32 C27 1_555 1_555
H28 C32 1_555 1_555
C33 C31 1_555 1_555
H29 C33 1_555 1_555
H30 C33 1_555 1_555
H31 C33 1_555 1_555
C34 S2 1_555 1_555
H32 N2 1_555 1_555
C5 C6 1_555 1_555
C8 C9 1_555 1_555
C14 C15 1_555 1_555
C22 C23 1_555 1_555
C25 C26 1_555 1_555
C31 C32 1_555 1_555

#END
