
#######################################################################
#
#                 Cambridge Crystallographic Data Centre
#                                CCDC 
#
#######################################################################
#
# If this CIF has been generated from an entry in the Cambridge 
# Structural Database, then it will include bibliographic, chemical, 
# crystal, experimental, refinement or atomic coordinate data resulting 
# from the CCDC's data processing and validation procedures.
#
#######################################################################

data_EQIFIV
_chemical_formula_moiety         'C23 H20 N2 O1'
_chemical_name_systematic        
N,N-dimethyl-2,3-diphenyl-1H-indole-1-carboxamide
_symmetry_cell_setting           monoclinic
_symmetry_space_group_name_H-M   'P 21/n'
_symmetry_Int_Tables_number      14
_space_group_name_Hall           '-P 2yn'
loop_
_symmetry_equiv_pos_site_id
_symmetry_equiv_pos_as_xyz
1 x,y,z
2 1/2-x,1/2+y,1/2-z
3 -x,-y,-z
4 1/2+x,1/2-y,1/2+z
_cell_length_a                   10.4762(3)
_cell_length_b                   10.8341(3)
_cell_length_c                   15.5988(4)
_cell_angle_alpha                90
_cell_angle_beta                 99.3150(10)
_cell_angle_gamma                90
_cell_volume                     1747.12
_exptl_crystal_colour            colorless
_exptl_crystal_description       prism
_cell_formula_units_Z            4
loop_
_atom_site_label
_atom_site_type_symbol
_atom_site_fract_x
_atom_site_fract_y
_atom_site_fract_z
N1 N 0.22497(10) 0.31620(9) 0.40121(6)
N2 N 0.03179(10) 0.20761(9) 0.39825(7)
O1 O 0.19548(9) 0.18226(8) 0.51228(6)
C1 C 0.35335(11) 0.30039(11) 0.38765(8)
C2 C 0.40525(11) 0.41399(11) 0.37480(8)
C3 C 0.30856(11) 0.50569(11) 0.38436(7)
C4 C 0.30585(12) 0.63489(11) 0.38031(8)
H1 H 0.3795 0.6798 0.3695
C5 C 0.19436(12) 0.69590(12) 0.39224(8)
H2 H 0.192 0.7835 0.3902
C6 C 0.08450(12) 0.63055(12) 0.40737(8)
H3 H 0.0089 0.6748 0.4151
C7 C 0.08393(11) 0.50307(11) 0.41122(8)
H4 H 0.0095 0.4587 0.4211
C8 C 0.19725(11) 0.44245(11) 0.39993(7)
C9 C 0.15116(11) 0.22778(11) 0.44220(8)
C10 C -0.01024(12) 0.23796(13) 0.30707(8)
H5 H 0.0572 0.2861 0.2856
H6 H -0.0901 0.2865 0.301
H7 H -0.0261 0.1617 0.2733
C11 C -0.05910(13) 0.13330(12) 0.43758(9)
H8 H -0.0679 0.0519 0.4099
H9 H -0.1436 0.1743 0.4295
H10 H -0.027 0.1237 0.4998
C12 C 0.40876(12) 0.17620(11) 0.38413(8)
C13 C 0.33593(12) 0.07980(11) 0.34161(8)
H11 H 0.2489 0.0941 0.3153
C14 C 0.38953(12) -0.03659(12) 0.33747(8)
H12 H 0.3395 -0.1013 0.3077
C15 C 0.51635(12) -0.05889(12) 0.37679(8)
H13 H 0.5526 -0.139 0.3746
C16 C 0.58984(12) 0.03644(12) 0.41922(8)
H14 H 0.6766 0.0215 0.4459
C17 C 0.53682(12) 0.15337(12) 0.42267(8)
H15 H 0.5877 0.2183 0.4514
C18 C 0.53007(11) 0.44142(11) 0.34591(8)
C19 C 0.56559(12) 0.38113(12) 0.27385(8)
H16 H 0.5118 0.3178 0.2456
C20 C 0.67846(12) 0.41293(12) 0.24330(8)
H17 H 0.7013 0.3715 0.1943
C21 C 0.75825(12) 0.50530(12) 0.28416(8)
H18 H 0.8352 0.5274 0.263
C22 C 0.72475(12) 0.56493(12) 0.35597(8)
H19 H 0.7794 0.6276 0.3844
C23 C 0.61165(11) 0.53346(11) 0.38657(8)
H20 H 0.5895 0.575 0.4357
loop_
_geom_bond_atom_site_label_1
_geom_bond_atom_site_label_2
_geom_bond_site_symmetry_1
_geom_bond_site_symmetry_2
N1 C1 1_555 1_555
N2 C9 1_555 1_555
O1 C9 1_555 1_555
C1 C2 1_555 1_555
C2 C3 1_555 1_555
C3 C4 1_555 1_555
C4 H1 1_555 1_555
C5 C4 1_555 1_555
H2 C5 1_555 1_555
C6 C5 1_555 1_555
H3 C6 1_555 1_555
C7 C6 1_555 1_555
H4 C7 1_555 1_555
C8 N1 1_555 1_555
C9 N1 1_555 1_555
C10 N2 1_555 1_555
H5 C10 1_555 1_555
H6 C10 1_555 1_555
H7 C10 1_555 1_555
C11 N2 1_555 1_555
H8 C11 1_555 1_555
H9 C11 1_555 1_555
H10 C11 1_555 1_555
C12 C1 1_555 1_555
C13 C12 1_555 1_555
H11 C13 1_555 1_555
C14 C13 1_555 1_555
H12 C14 1_555 1_555
C15 C14 1_555 1_555
H13 C15 1_555 1_555
C16 C15 1_555 1_555
H14 C16 1_555 1_555
C17 C12 1_555 1_555
H15 C17 1_555 1_555
C18 C2 1_555 1_555
C19 C18 1_555 1_555
H16 C19 1_555 1_555
C20 C19 1_555 1_555
H17 C20 1_555 1_555
C21 C20 1_555 1_555
H18 C21 1_555 1_555
C22 C21 1_555 1_555
H19 C22 1_555 1_555
C23 C18 1_555 1_555
H20 C23 1_555 1_555
C3 C8 1_555 1_555
C7 C8 1_555 1_555
C16 C17 1_555 1_555
C22 C23 1_555 1_555

#END
