
#######################################################################
#
#                 Cambridge Crystallographic Data Centre
#                                CCDC 
#
#######################################################################
#
# If this CIF has been generated from an entry in the Cambridge 
# Structural Database, then it will include bibliographic, chemical, 
# crystal, experimental, refinement or atomic coordinate data resulting 
# from the CCDC's data processing and validation procedures.
#
#######################################################################

data_EQIROM
_chemical_formula_moiety         'C15 H11 Cl1 N2 O1'
_chemical_name_systematic        
1-((2-Chloroquinolin-3-yl)methyl)pyridin-2(1H)-one
_chemical_properties_biological  'tested for antibacterial activity'
_symmetry_cell_setting           triclinic
_symmetry_space_group_name_H-M   'P -1'
_symmetry_Int_Tables_number      2
_space_group_name_Hall           '-P 1'
loop_
_symmetry_equiv_pos_site_id
_symmetry_equiv_pos_as_xyz
1 x,y,z
2 -x,-y,-z
_cell_length_a                   7.2799(5)
_cell_length_b                   8.6022(6)
_cell_length_c                   10.2836(7)
_cell_angle_alpha                82.797(6)
_cell_angle_beta                 80.384(6)
_cell_angle_gamma                84.140(5)
_cell_volume                     627.76
_exptl_crystal_colour            colorless
_exptl_crystal_description       block
_cell_formula_units_Z            2
loop_
_atom_site_label
_atom_site_type_symbol
_atom_site_fract_x
_atom_site_fract_y
_atom_site_fract_z
Cl1 Cl 0.28915(5) 0.63556(5) 0.39189(4)
N1 N 0.41584(16) 0.77202(14) 0.56593(12)
N2 N 0.87398(16) 0.62657(13) 0.18385(11)
O1 O 0.81231(16) 0.87905(13) 0.09933(11)
C1 C 0.46582(19) 0.71243(16) 0.45452(15)
C2 C 0.64779(18) 0.70086(15) 0.37979(13)
C3 C 0.78351(19) 0.75600(16) 0.43380(13)
H1 H 0.9057 0.7518 0.3891
C4 C 0.8778(2) 0.87356(17) 0.62031(14)
H2 H 1.0027 0.8668 0.5812
C5 C 0.8274(2) 0.93508(18) 0.73786(16)
H3 H 0.9181 0.9687 0.7793
C6 C 0.6390(3) 0.94801(19) 0.79688(16)
H4 H 0.6054 0.9926 0.8762
C7 C 0.5051(2) 0.89614(19) 0.73949(16)
H5 H 0.3809 0.9051 0.7800
C8 C 0.55312(19) 0.82872(16) 0.61894(14)
C9 C 0.74176(18) 0.81963(15) 0.55684(13)
C10 C 0.6808(2) 0.62664(18) 0.25155(14)
H6 H 0.6469 0.5190 0.2701
H7 H 0.5994 0.6829 0.1926
C11 C 0.9934(2) 0.49363(17) 0.19353(15)
H8 H 0.9511 0.4043 0.2459
C12 C 1.1686(2) 0.4889(2) 0.12984(17)
H9 H 1.2479 0.3974 0.1369
C13 C 1.2311(2) 0.6252(2) 0.05162(16)
H10 H 1.3532 0.6240 0.0069
C14 C 1.1161(2) 0.75732(18) 0.04080(14)
H11 H 1.1612 0.8464 -0.0105
C15 C 0.9271(2) 0.76437(16) 0.10583(13)
loop_
_geom_bond_atom_site_label_1
_geom_bond_atom_site_label_2
_geom_bond_site_symmetry_1
_geom_bond_site_symmetry_2
Cl1 C1 1_555 1_555
N1 C1 1_555 1_555
N2 C10 1_555 1_555
O1 C15 1_555 1_555
C1 C2 1_555 1_555
C2 C3 1_555 1_555
C3 H1 1_555 1_555
C4 H2 1_555 1_555
C5 C4 1_555 1_555
H3 C5 1_555 1_555
C6 C5 1_555 1_555
H4 C6 1_555 1_555
C7 C6 1_555 1_555
H5 C7 1_555 1_555
C8 N1 1_555 1_555
C9 C3 1_555 1_555
C10 C2 1_555 1_555
H6 C10 1_555 1_555
H7 C10 1_555 1_555
C11 N2 1_555 1_555
H8 C11 1_555 1_555
C12 C11 1_555 1_555
H9 C12 1_555 1_555
C13 C12 1_555 1_555
H10 C13 1_555 1_555
C14 C13 1_555 1_555
H11 C14 1_555 1_555
C15 N2 1_555 1_555
C4 C9 1_555 1_555
C7 C8 1_555 1_555
C8 C9 1_555 1_555
C14 C15 1_555 1_555

#END
