
#######################################################################
#
#                 Cambridge Crystallographic Data Centre
#                                CCDC 
#
#######################################################################
#
# If this CIF has been generated from an entry in the Cambridge 
# Structural Database, then it will include bibliographic, chemical, 
# crystal, experimental, refinement or atomic coordinate data resulting 
# from the CCDC's data processing and validation procedures.
#
#######################################################################

data_EQIXEI
_chemical_formula_moiety         'C9 H6 N4 O1'
_chemical_name_systematic        '[1,2,4]Triazino[4,5-a]benzimidazol-4(3H)-one'
_symmetry_cell_setting           monoclinic
_symmetry_space_group_name_H-M   'P 21/c'
_symmetry_Int_Tables_number      14
_space_group_name_Hall           '-P 2ybc'
loop_
_symmetry_equiv_pos_site_id
_symmetry_equiv_pos_as_xyz
1 x,y,z
2 -x,1/2+y,1/2-z
3 -x,-y,-z
4 x,1/2-y,1/2+z
_cell_length_a                   9.1530(18)
_cell_length_b                   7.2260(14)
_cell_length_c                   12.604(3)
_cell_angle_alpha                90
_cell_angle_beta                 106.92(3)
_cell_angle_gamma                90
_cell_volume                     797.537
_exptl_crystal_colour            yellow
_exptl_crystal_description       planet
_cell_formula_units_Z            4
loop_
_atom_site_label
_atom_site_type_symbol
_atom_site_fract_x
_atom_site_fract_y
_atom_site_fract_z
O1 O 0.1663(3) 0.0667(4) 1.10476(19)
N1 N 0.4796(3) 0.2019(4) 1.1281(2)
C1 C 0.8411(4) 0.3844(6) 1.0905(3)
H1 H 0.9404 0.4191 1.1285
C2 C 0.7448(4) 0.3226(5) 1.1490(3)
H2 H 0.7777 0.3152 1.2260
N2 N 0.1262(3) 0.0938(5) 0.9186(2)
H3 H 0.0351 0.0524 0.9088
C3 C 0.5963(4) 0.2714(5) 1.0893(3)
N3 N 0.1649(3) 0.1383(5) 0.8246(2)
N4 N 0.4026(3) 0.2218(4) 0.9407(2)
C4 C 0.3662(4) 0.1759(5) 1.0372(3)
C5 C 0.2149(4) 0.1073(5) 1.0261(3)
C6 C 0.2983(4) 0.2010(5) 0.8373(3)
H4 H 0.3269 0.2341 0.7748
C7 C 0.5529(4) 0.2827(5) 0.9739(3)
C8 C 0.6477(4) 0.3458(5) 0.9141(3)
H5 H 0.6157 0.3541 0.8372
C9 C 0.7921(4) 0.3955(6) 0.9759(3)
H6 H 0.8600 0.4385 0.9391
loop_
_geom_bond_atom_site_label_1
_geom_bond_atom_site_label_2
_geom_bond_site_symmetry_1
_geom_bond_site_symmetry_2
O1 C5 1_555 1_555
N1 C3 1_555 1_555
C1 H1 1_555 1_555
C2 C1 1_555 1_555
H2 C2 1_555 1_555
N2 H3 1_555 1_555
C3 C2 1_555 1_555
N3 N2 1_555 1_555
N4 C4 1_555 1_555
C4 N1 1_555 1_555
C5 N2 1_555 1_555
C6 N3 1_555 1_555
H4 C6 1_555 1_555
C7 C3 1_555 1_555
C8 C7 1_555 1_555
H5 C8 1_555 1_555
C9 C1 1_555 1_555
H6 C9 1_555 1_555
N4 C6 1_555 1_555
N4 C7 1_555 1_555
C4 C5 1_555 1_555
C8 C9 1_555 1_555

#END
