
#######################################################################
#
#                 Cambridge Crystallographic Data Centre
#                                CCDC 
#
#######################################################################
#
# If this CIF has been generated from an entry in the Cambridge 
# Structural Database, then it will include bibliographic, chemical, 
# crystal, experimental, refinement or atomic coordinate data resulting 
# from the CCDC's data processing and validation procedures.
#
#######################################################################

data_EQOBIX
_chemical_formula_moiety         'C23 H26 O5'
_chemical_name_systematic        
'methyl 5-hydroxy-3-(4-methylphenyl)-7-phenylhexahydropyrano[4,3-c]pyran-4a(5H)-carboxylate'
_symmetry_cell_setting           triclinic
_symmetry_space_group_name_H-M   'P -1'
_symmetry_Int_Tables_number      2
_space_group_name_Hall           '-P 1'
loop_
_symmetry_equiv_pos_site_id
_symmetry_equiv_pos_as_xyz
1 x,y,z
2 -x,-y,-z
_cell_length_a                   6.1090(6)
_cell_length_b                   11.7023(11)
_cell_length_c                   15.2943(13)
_cell_angle_alpha                77.031(7)
_cell_angle_beta                 84.147(7)
_cell_angle_gamma                76.437(7)
_cell_volume                     1034.37
_exptl_crystal_colour            colorless
_exptl_crystal_description       needle
_cell_formula_units_Z            2
loop_
_atom_site_label
_atom_site_type_symbol
_atom_site_fract_x
_atom_site_fract_y
_atom_site_fract_z
C1 C 0.3436(6) 0.1861(4) 0.3790(3)
C2 C 0.2361(7) 0.1168(4) 0.4459(3)
H1 H 0.2969 0.0349 0.4620
C3 C 0.0393(8) 0.1658(5) 0.4900(3)
H2 H -0.0271 0.1161 0.5359
C4 C 0.2480(8) 0.3061(4) 0.3574(3)
H3 H 0.3160 0.3563 0.3124
C5 C 0.0508(9) 0.3533(5) 0.4021(4)
H4 H -0.0098 0.4354 0.3868
C6 C -0.0589(8) 0.2838(6) 0.4680(4)
C7 C -0.2783(8) 0.3361(6) 0.5139(4)
H5 H -0.3056 0.2812 0.5686
H6 H -0.3994 0.3492 0.4749
H7 H -0.2694 0.4112 0.5273
C8 C 0.5469(6) 0.1294(4) 0.3278(3)
H8 H 0.6381 0.0631 0.3691
C9 C 0.5452(8) 0.2865(4) -0.0533(3)
C10 C 0.3326(9) 0.3505(4) -0.0391(3)
H9 H 0.2534 0.3283 0.0149
C11 C 0.6561(9) 0.3192(5) -0.1345(4)
H10 H 0.7990 0.2750 -0.1471
C12 C 0.5578(13) 0.4167(6) -0.1975(4)
H11 H 0.6374 0.4395 -0.2512
C13 C 0.2306(10) 0.4479(5) -0.1026(5)
H12 H 0.0855 0.4906 -0.0913
C14 C 0.3470(13) 0.4798(5) -0.1822(4)
H13 H 0.2813 0.5448 -0.2256
C15 C 0.6573(7) 0.1844(4) 0.0165(3)
H14 H 0.7885 0.1374 -0.0117
O1 O 0.6766(5) 0.2177(2) 0.29185(17)
O2 O 0.6820(5) -0.1666(3) 0.27637(19)
O3 O 1.0134(5) -0.1131(3) 0.2590(2)
C16 C 0.8176(8) -0.0898(4) 0.2463(3)
C17 C 0.7901(8) -0.2865(4) 0.3207(3)
H15 H 0.9224 -0.3154 0.2855
H16 H 0.6875 -0.3390 0.3269
H17 H 0.8323 -0.2846 0.3790
C18 C 0.7343(7) 0.2256(4) 0.0926(3)
H18 H 0.6068 0.2764 0.1183
H19 H 0.8455 0.2734 0.0691
O4 O 0.4987(4) 0.1086(2) 0.05177(16)
O5 O 0.7752(4) -0.0690(3) 0.07090(18)
H20 H 0.7267 -0.0957 0.0334
C19 C 0.6862(6) 0.0291(3) 0.1941(3)
C20 C 0.5956(6) 0.0023(4) 0.1123(2)
H21 H 0.4794 -0.0441 0.1338
C21 C 0.8373(6) 0.1201(4) 0.1665(3)
H22 H 0.9822 0.0792 0.1426
C22 C 0.4807(6) 0.0805(3) 0.2515(2)
H23 H 0.3806 0.1447 0.2133
H24 H 0.3989 0.0180 0.2770
C23 C 0.8821(6) 0.1664(4) 0.2473(3)
H25 H 0.9679 0.1005 0.2895
H26 H 0.9718 0.2266 0.2274
loop_
_geom_bond_atom_site_label_1
_geom_bond_atom_site_label_2
_geom_bond_site_symmetry_1
_geom_bond_site_symmetry_2
C1 C2 1_555 1_555
C2 H1 1_555 1_555
C3 C2 1_555 1_555
H2 C3 1_555 1_555
C4 C1 1_555 1_555
H3 C4 1_555 1_555
C5 C4 1_555 1_555
H4 C5 1_555 1_555
C6 C3 1_555 1_555
C7 C6 1_555 1_555
H5 C7 1_555 1_555
H6 C7 1_555 1_555
H7 C7 1_555 1_555
C8 C1 1_555 1_555
H8 C8 1_555 1_555
C9 C10 1_555 1_555
C10 H9 1_555 1_555
C11 C9 1_555 1_555
H10 C11 1_555 1_555
C12 C11 1_555 1_555
H11 C12 1_555 1_555
C13 C10 1_555 1_555
H12 C13 1_555 1_555
C14 C12 1_555 1_555
H13 C14 1_555 1_555
C15 C9 1_555 1_555
H14 C15 1_555 1_555
O1 C8 1_555 1_555
O2 C16 1_555 1_555
O3 C16 1_555 1_555
C16 C19 1_555 1_555
C17 O2 1_555 1_555
H15 C17 1_555 1_555
H16 C17 1_555 1_555
H17 C17 1_555 1_555
C18 C15 1_555 1_555
H18 C18 1_555 1_555
H19 C18 1_555 1_555
O4 C15 1_555 1_555
O5 H20 1_555 1_555
C19 C20 1_555 1_555
C20 O4 1_555 1_555
H21 C20 1_555 1_555
C21 C18 1_555 1_555
H22 C21 1_555 1_555
C22 C8 1_555 1_555
H23 C22 1_555 1_555
H24 C22 1_555 1_555
C23 O1 1_555 1_555
H25 C23 1_555 1_555
H26 C23 1_555 1_555
C5 C6 1_555 1_555
C13 C14 1_555 1_555
O5 C20 1_555 1_555
C19 C21 1_555 1_555
C19 C22 1_555 1_555
C21 C23 1_555 1_555

#END
