
#######################################################################
#
#                 Cambridge Crystallographic Data Centre
#                                CCDC 
#
#######################################################################
#
# If this CIF has been generated from an entry in the Cambridge 
# Structural Database, then it will include bibliographic, chemical, 
# crystal, experimental, refinement or atomic coordinate data resulting 
# from the CCDC's data processing and validation procedures.
#
#######################################################################

data_EQOCAQ
_chemical_name_common            
"N,N'-((5,11,17,23-tetra-t-butyl-26,28-bis(2-methoxyethoxy)-2,8,14,20-tetrathiapentacyclo[19.3.1.1$3,7!.1$9,13!.1$15,19!]octacosa-1(25),3(28),4,6,9(27),10,12,15(26),16,18,21,23-dodecaene-25,27-diyl)bis(oxyethane-2,1-diyl))bis(7-nitro-2,1,3-benzoxadiazol-4-amine) dihydrate"
_chemical_formula_moiety         'C62 H72 N8 O12 S4,2(H2 O1)'
_chemical_name_systematic        
'5,11,17,23-tetra-t-butyl-25,27-bis(2-((7-nitro-2,1,3-benzoxadiazol-4-yl)amino)ethoxy)-26,28-bis(2-methoxyethoxy)-2,8,14,20-tetrathiacalix(4)arene dihydrate'
_symmetry_cell_setting           triclinic
_symmetry_space_group_name_H-M   'P -1'
_symmetry_Int_Tables_number      2
_space_group_name_Hall           '-P 1'
loop_
_symmetry_equiv_pos_site_id
_symmetry_equiv_pos_as_xyz
1 x,y,z
2 -x,-y,-z
_cell_length_a                   15.0051(12)
_cell_length_b                   15.7671(12)
_cell_length_c                   16.3982(12)
_cell_angle_alpha                86.672(3)
_cell_angle_beta                 72.877(3)
_cell_angle_gamma                61.950(3)
_cell_volume                     3257.23
_cell_formula_units_Z            2
loop_
_atom_site_label
_atom_site_type_symbol
_atom_site_fract_x
_atom_site_fract_y
_atom_site_fract_z
C1 C 0.8864(2) -0.0474(2) 0.12192(19)
H1 H 0.8409 -0.0583 0.0981
H2 H 0.9049 -0.0914 0.1645
H3 H 0.9495 -0.0578 0.0772
C2 C 0.72610(19) 0.0716(2) 0.23290(18)
H4 H 0.6824 0.0606 0.2069
H5 H 0.6881 0.1363 0.2601
H6 H 0.7441 0.0267 0.2749
C3 C 0.82794(17) 0.05761(19) 0.16375(15)
C4 C 0.7994(2) 0.1257(2) 0.09523(18)
H7 H 0.7537 0.1145 0.0720
H8 H 0.8628 0.1142 0.0503
H9 H 0.7637 0.1912 0.1201
C5 C 0.6935(4) 0.6864(5) 0.1337(3)
H10 H 0.7644 0.6474 0.0972
H11 H 0.6630 0.7485 0.1125
H12 H 0.6516 0.6552 0.1343
C6 C 0.5994(4) 0.7279(6) 0.2828(4)
H13 H 0.6101 0.7282 0.3377
H14 H 0.5722 0.6842 0.2802
H15 H 0.5498 0.7918 0.2750
C7 C 0.6955(2) 0.6982(2) 0.21848(17)
C8 C 1.5187(2) 0.1758(3) -0.0098(2)
H16 H 1.4815 0.2408 -0.0234
H17 H 1.5142 0.1327 -0.0455
H18 H 1.5918 0.1586 -0.0197
C9 C 1.5321(2) 0.0640(2) 0.1009(2)
H19 H 1.6045 0.0488 0.0915
H20 H 1.5294 0.0220 0.0627
H21 H 1.5021 0.0554 0.1591
C10 C 1.46933(18) 0.1683(2) 0.08387(17)
C11 C 1.4779(2) 0.2348(2) 0.1440(2)
H22 H 1.4385 0.3009 0.1339
H23 H 1.5509 0.2185 0.1327
H24 H 1.4496 0.2262 0.2026
C12 C 1.07424(18) 0.23642(18) 0.61786(15)
C13 C 1.0147(2) 0.3169(2) 0.69206(16)
H25 H 0.9480 0.3196 0.7226
H26 H 1.0025 0.3777 0.6696
H27 H 1.0563 0.3037 0.7303
C14 C 1.1804(2) 0.2310(2) 0.56869(18)
H28 H 1.2229 0.2166 0.6064
H29 H 1.1689 0.2918 0.5466
H30 H 1.2164 0.1812 0.5221
C15 C 0.90043(17) 0.07465(17) 0.20170(14)
C16 C 0.99408(17) 0.07073(17) 0.14838(14)
H31 H 1.0090 0.0609 0.0895
C17 C 1.06518(16) 0.08049(16) 0.17806(14)
C18 C 1.04709(16) 0.09479(16) 0.26644(14)
C19 C 0.95191(17) 0.10274(17) 0.32110(14)
C20 C 0.88146(17) 0.09146(17) 0.28837(14)
H32 H 0.8195 0.0954 0.3264
C21 C 0.93847(18) 0.20898(17) 0.46281(14)
C22 C 0.89758(17) 0.30002(18) 0.43439(14)
C23 C 0.91600(18) 0.36957(17) 0.46473(14)
C24 C 0.97045(17) 0.34830(17) 0.52413(14)
H33 H 0.9816 0.3957 0.5436
C25 C 1.00924(17) 0.25840(16) 0.55597(13)
C26 C 0.99245(18) 0.18971(17) 0.52357(14)
H34 H 1.0180 0.1286 0.5430
C27 C 0.96419(16) 0.45640(16) 0.27316(14)
C28 C 0.87010(17) 0.50687(17) 0.33681(14)
C29 C 0.78409(19) 0.58279(18) 0.31933(16)
H35 H 0.7207 0.6137 0.3635
C30 C 0.78881(18) 0.61476(18) 0.23797(15)
C31 C 0.88489(18) 0.56289(18) 0.17474(16)
H36 H 0.8909 0.5805 0.1190
C32 C 0.97301(17) 0.48539(16) 0.19094(15)
C33 C 1.17243(18) 0.32195(18) 0.11060(15)
C34 C 1.14041(16) 0.25146(17) 0.11218(15)
C35 C 1.21209(16) 0.15569(17) 0.11078(14)
C36 C 1.31726(17) 0.12990(18) 0.10411(15)
H37 H 1.3647 0.0651 0.1037
C37 C 1.27798(17) 0.29359(18) 0.10233(15)
H38 H 1.2992 0.3407 0.0995
C38 C 1.35298(17) 0.19681(17) 0.09814(15)
C39 C 0.8063(7) 0.3617(9) 0.1554(15)
H39 H 0.7314 0.3841 0.1724
H40 H 0.8204 0.4047 0.1824
H41 H 0.8412 0.2980 0.1726
C40 C 0.9138(3) 0.3291(6) 0.0372(3)
H42 H 0.9087 0.3799 -0.0005
H43 H 0.9140 0.2799 0.0043
C41 C 1.0144(2) 0.2894(3) 0.0380(2)
H44 H 1.0451 0.3277 0.0055
H45 H 1.0519 0.2259 0.0068
C42 C 0.6574(6) 0.4361(8) 0.4082(11)
H46 H 0.6855 0.4717 0.3682
H47 H 0.6233 0.4718 0.4645
C43 C 0.7340(3) 0.3470(4) 0.4107(3)
H48 H 0.7232 0.3025 0.3814
H49 H 0.7220 0.3336 0.4703
C44 C 1.11883(18) 0.39710(17) 0.31713(16)
H50 H 1.0811 0.4405 0.3694
H51 H 1.1496 0.4278 0.2731
C45 C 1.20421(17) 0.30359(17) 0.33222(16)
H52 H 1.1734 0.2712 0.3742
H53 H 1.2446 0.2614 0.2793
C46 C 1.35590(17) 0.26762(17) 0.38944(15)
C47 C 1.40333(19) 0.3060(2) 0.42614(17)
H54 H 1.3780 0.3724 0.4305
C48 C 1.4881(2) 0.2468(2) 0.45648(18)
H55 H 1.5153 0.2761 0.4825
C49 C 1.53382(18) 0.1481(2) 0.45044(16)
C50 C 1.49289(19) 0.10430(18) 0.41038(16)
C51 C 1.40243(17) 0.16546(17) 0.38159(15)
C52 C 1.1726(2) 0.0383(2) 0.34628(16)
H56 H 1.1327 0.0049 0.3726
H57 H 1.1765 0.0719 0.3917
C53 C 1.28240(18) -0.03401(19) 0.29541(18)
H58 H 1.3202 -0.0004 0.2646
H59 H 1.3201 -0.0730 0.3341
C54 C 1.2546(2) -0.22088(18) 0.18719(17)
C55 C 1.2529(2) -0.31005(19) 0.19515(18)
C56 C 1.2653(2) -0.35728(19) 0.27119(18)
C57 C 1.2747(2) -0.3102(2) 0.33293(19)
H60 H 1.2786 -0.3381 0.3842
C58 C 1.2790(2) -0.2225(2) 0.32508(18)
H61 H 1.2862 -0.1957 0.3702
C59 C 1.27278(18) -0.17592(18) 0.25127(16)
C60 C 0.7076(5) 0.7887(4) 0.2201(6)
H62 H 0.7084 0.8024 0.2761
H63 H 0.6492 0.8422 0.2069
H64 H 0.7727 0.7786 0.1784
C61 C 0.5576(2) 0.4208(7) 0.29406(11)
H65 H 0.4898 0.4247 0.3019
H66 H 0.6120 0.3638 0.2573
H67 H 0.5587 0.4768 0.2684
C62 C 1.0918(2) 0.1409(2) 0.65659(18)
H68 H 1.0245 0.1448 0.6872
H69 H 1.1327 0.1289 0.6953
H70 H 1.1291 0.0891 0.6115
N1 N 1.28068(16) -0.09642(15) 0.23479(14)
N2 N 1.2410(2) -0.18889(18) 0.11527(16)
N3 N 1.2350(2) -0.33118(19) 0.12695(17)
N4 N 1.26729(19) -0.44727(17) 0.28275(17)
N5 N 1.27238(15) 0.32611(14) 0.36346(14)
N6 N 1.37801(17) 0.11015(15) 0.34469(14)
N7 N 1.52213(18) 0.01361(17) 0.39054(16)
N8 N 1.62109(17) 0.0941(2) 0.48291(16)
O1 O 1.45116(16) 0.01867(14) 0.35052(14)
O2 O 1.64981(16) 0.1372(2) 0.52122(16)
O3 O 1.66319(19) 0.0057(2) 0.47231(18)
O4 O 1.22566(19) -0.25457(17) 0.07851(15)
O5 O 1.27282(18) -0.48244(15) 0.35117(15)
O6 O 1.26426(19) -0.48885(16) 0.22237(17)
O7 O 1.04782(11) 0.37692(11) 0.29057(10)
O8 O 1.11800(11) 0.10767(11) 0.29352(10)
O9 O 1.03712(12) 0.27817(13) 0.11688(12)
O10 O 0.84346(14) 0.32232(14) 0.37635(11)
O11 O 0.8372(4) 0.3598(7) 0.0830(3)
O12 O 0.5762(3) 0.4167(6) 0.37668(14)
S1 S 1.18619(4) 0.05918(5) 0.09994(4)
S2 S 0.85259(6) 0.49328(5) 0.44793(4)
S3 S 0.91583(5) 0.11537(5) 0.43473(4)
S4 S 1.09153(5) 0.44502(5) 0.10487(5)
H71 H 1.2777(15) -0.0767(15) 0.1949(13)
H72 H 1.2595(16) 0.3763(16) 0.3591(14)
O13 O 1.5322(4) -0.4354(4) 0.0742(4)
loop_
_geom_bond_atom_site_label_1
_geom_bond_atom_site_label_2
_geom_bond_site_symmetry_1
_geom_bond_site_symmetry_2
C1 H1 1_555 1_555
H2 C1 1_555 1_555
H3 C1 1_555 1_555
C2 H4 1_555 1_555
H5 C2 1_555 1_555
H6 C2 1_555 1_555
C3 C1 1_555 1_555
C4 C3 1_555 1_555
H7 C4 1_555 1_555
H8 C4 1_555 1_555
H9 C4 1_555 1_555
C5 H10 1_555 1_555
H11 C5 1_555 1_555
H12 C5 1_555 1_555
C6 H13 1_555 1_555
H14 C6 1_555 1_555
H15 C6 1_555 1_555
C7 C5 1_555 1_555
C8 H16 1_555 1_555
H17 C8 1_555 1_555
H18 C8 1_555 1_555
C9 H19 1_555 1_555
H20 C9 1_555 1_555
H21 C9 1_555 1_555
C10 C8 1_555 1_555
C11 C10 1_555 1_555
H22 C11 1_555 1_555
H23 C11 1_555 1_555
H24 C11 1_555 1_555
C12 C13 1_555 1_555
C13 H25 1_555 1_555
H26 C13 1_555 1_555
H27 C13 1_555 1_555
C14 C12 1_555 1_555
H28 C14 1_555 1_555
H29 C14 1_555 1_555
H30 C14 1_555 1_555
C15 C3 1_555 1_555
C16 C15 1_555 1_555
H31 C16 1_555 1_555
C17 C16 1_555 1_555
C18 C17 1_555 1_555
C19 C18 1_555 1_555
C20 C15 1_555 1_555
H32 C20 1_555 1_555
C21 C22 1_555 1_555
C22 C23 1_555 1_555
C23 C24 1_555 1_555
C24 H33 1_555 1_555
C25 C12 1_555 1_555
C26 C21 1_555 1_555
H34 C26 1_555 1_555
C27 C28 1_555 1_555
C28 C29 1_555 1_555
C29 H35 1_555 1_555
C30 C7 1_555 1_555
C31 C30 1_555 1_555
H36 C31 1_555 1_555
C32 C27 1_555 1_555
C33 C34 1_555 1_555
C34 C35 1_555 1_555
C35 C36 1_555 1_555
C36 H37 1_555 1_555
C37 C33 1_555 1_555
H38 C37 1_555 1_555
C38 C10 1_555 1_555
C39 H39 1_555 1_555
H40 C39 1_555 1_555
H41 C39 1_555 1_555
C40 H42 1_555 1_555
H43 C40 1_555 1_555
C41 C40 1_555 1_555
H44 C41 1_555 1_555
H45 C41 1_555 1_555
C42 H46 1_555 1_555
H47 C42 1_555 1_555
C43 C42 1_555 1_555
H48 C43 1_555 1_555
H49 C43 1_555 1_555
C44 H50 1_555 1_555
H51 C44 1_555 1_555
C45 C44 1_555 1_555
H52 C45 1_555 1_555
H53 C45 1_555 1_555
C46 C47 1_555 1_555
C47 H54 1_555 1_555
C48 C47 1_555 1_555
H55 C48 1_555 1_555
C49 C48 1_555 1_555
C50 C49 1_555 1_555
C51 C46 1_555 1_555
C52 H56 1_555 1_555
H57 C52 1_555 1_555
C53 C52 1_555 1_555
H58 C53 1_555 1_555
H59 C53 1_555 1_555
C54 C55 1_555 1_555
C55 C56 1_555 1_555
C56 C57 1_555 1_555
C57 H60 1_555 1_555
C58 C57 1_555 1_555
H61 C58 1_555 1_555
C59 C54 1_555 1_555
C60 C7 1_555 1_555
H62 C60 1_555 1_555
H63 C60 1_555 1_555
H64 C60 1_555 1_555
C61 H65 1_555 1_555
H66 C61 1_555 1_555
H67 C61 1_555 1_555
C62 C12 1_555 1_555
H68 C62 1_555 1_555
H69 C62 1_555 1_555
H70 C62 1_555 1_555
N1 C53 1_555 1_555
N2 C54 1_555 1_555
N3 C55 1_555 1_555
N4 C56 1_555 1_555
N5 C45 1_555 1_555
N6 C51 1_555 1_555
N7 C50 1_555 1_555
N8 C49 1_555 1_555
O1 N6 1_555 1_555
O2 N8 1_555 1_555
O3 N8 1_555 1_555
O4 N2 1_555 1_555
O5 N4 1_555 1_555
O6 N4 1_555 1_555
O7 C27 1_555 1_555
O8 C18 1_555 1_555
O9 C34 1_555 1_555
O10 C22 1_555 1_555
O11 C39 1_555 1_555
O12 C42 1_555 1_555
S1 C17 1_555 1_555
S2 C23 1_555 1_555
S3 C19 1_555 1_555
S4 C32 1_555 1_555
H71 N1 1_555 1_555
H72 N5 1_555 1_555
C2 C3 1_555 1_555
C6 C7 1_555 1_555
C9 C10 1_555 1_555
C19 C20 1_555 1_555
C21 S3 1_555 1_555
C24 C25 1_555 1_555
C25 C26 1_555 1_555
C28 S2 1_555 1_555
C29 C30 1_555 1_555
C31 C32 1_555 1_555
C33 S4 1_555 1_555
C35 S1 1_555 1_555
C36 C38 1_555 1_555
C37 C38 1_555 1_555
C40 O11 1_555 1_555
C41 O9 1_555 1_555
C43 O10 1_555 1_555
C44 O7 1_555 1_555
C46 N5 1_555 1_555
C50 C51 1_555 1_555
C52 O8 1_555 1_555
C58 C59 1_555 1_555
C59 N1 1_555 1_555
C61 O12 1_555 1_555
N3 O4 1_555 1_555
N7 O1 1_555 1_555

#END
