
#######################################################################
#
#                 Cambridge Crystallographic Data Centre
#                                CCDC 
#
#######################################################################
#
# If this CIF has been generated from an entry in the Cambridge 
# Structural Database, then it will include bibliographic, chemical, 
# crystal, experimental, refinement or atomic coordinate data resulting 
# from the CCDC's data processing and validation procedures.
#
#######################################################################

data_EQOCOD
_chemical_formula_moiety         'C23 H22 Br1 N1 O3'
_chemical_name_systematic        
4-(1-(4-Bromophenyl)-2-methylene-3-oxobutyl)-4-isopropyl-2-phenyl-1,3-oxazol-5(4H)-one
_symmetry_cell_setting           orthorhombic
_symmetry_space_group_name_H-M   'P 21 21 21'
_symmetry_Int_Tables_number      19
_space_group_name_Hall           'P 2ac 2ab'
loop_
_symmetry_equiv_pos_site_id
_symmetry_equiv_pos_as_xyz
1 x,y,z
2 1/2-x,-y,1/2+z
3 -x,1/2+y,1/2-z
4 1/2+x,1/2-y,-z
_cell_length_a                   10.5465(15)
_cell_length_b                   13.646(2)
_cell_length_c                   14.694(2)
_cell_angle_alpha                90
_cell_angle_beta                 90
_cell_angle_gamma                90
_cell_volume                     2114.72
_exptl_crystal_colour            colorless
_exptl_crystal_description       prismatic
_cell_formula_units_Z            4
loop_
_atom_site_label
_atom_site_type_symbol
_atom_site_fract_x
_atom_site_fract_y
_atom_site_fract_z
Br1 Br 0.64024(4) 0.25266(4) 1.07346(3)
O1 O 0.4705(2) 0.55621(18) 0.72167(18)
O2 O 0.6827(2) 0.54701(17) 0.72699(17)
O3 O 0.3011(3) 0.2309(2) 0.6356(2)
N1 N 0.7251(3) 0.4175(2) 0.6372(2)
C1 C 0.5661(3) 0.5171(3) 0.6965(3)
C2 C 0.7684(3) 0.4820(3) 0.6889(2)
C3 C 0.5868(3) 0.4316(2) 0.6328(2)
C4 C 0.5464(4) 0.4596(3) 0.5352(2)
H1 H 0.5753 0.4073 0.4945
C5 C 0.6083(3) 0.5538(3) 0.5044(3)
H2 H 0.5709 0.6081 0.5361
H3 H 0.5959 0.5619 0.4401
H4 H 0.6975 0.5513 0.5173
C6 C 0.4019(4) 0.4673(3) 0.5255(3)
H5 H 0.3691 0.5099 0.5719
H6 H 0.3648 0.4035 0.5318
H7 H 0.3814 0.4935 0.4666
C7 C 0.5149(3) 0.3416(3) 0.6712(2)
H8 H 0.4254 0.3609 0.6724
C8 C 0.5199(3) 0.2504(3) 0.6131(2)
C9 C 0.6210(4) 0.2210(3) 0.5680(3)
H9 H 0.6173 0.1647 0.5324
H10 H 0.6961 0.2565 0.5719
C10 C 0.3977(4) 0.1951(3) 0.6085(3)
C11 C 0.3993(4) 0.0944(3) 0.5674(3)
H11 H 0.3191 0.0630 0.5779
H12 H 0.4656 0.0564 0.5949
H13 H 0.4141 0.0993 0.5031
C12 C 0.5490(3) 0.3194(2) 0.7699(2)
C13 C 0.4652(4) 0.3435(3) 0.8381(3)
H14 H 0.3887 0.3732 0.8231
C14 C 0.4920(4) 0.3248(3) 0.9281(3)
H15 H 0.4344 0.3412 0.9735
C15 C 0.6044(4) 0.2817(3) 0.9492(2)
C16 C 0.6909(3) 0.2578(3) 0.8836(3)
H16 H 0.7682 0.2298 0.8995
C17 C 0.6621(3) 0.2758(3) 0.7944(2)
H17 H 0.7198 0.2583 0.7493
C18 C 0.9014(3) 0.4987(3) 0.7148(3)
C19 C 0.9349(4) 0.5811(3) 0.7621(3)
H18 H 0.8737 0.6263 0.7799
C20 C 1.0625(4) 0.5963(4) 0.7834(3)
H19 H 1.0868 0.6514 0.8162
C21 C 1.1514(4) 0.5298(5) 0.7558(3)
H20 H 1.2365 0.5411 0.7684
C22 C 1.1171(4) 0.4475(4) 0.7101(4)
H21 H 1.1786 0.4026 0.6921
C23 C 0.9921(4) 0.4304(3) 0.6904(3)
H22 H 0.9683 0.3730 0.6607
loop_
_geom_bond_atom_site_label_1
_geom_bond_atom_site_label_2
_geom_bond_site_symmetry_1
_geom_bond_site_symmetry_2
Br1 C15 1_555 1_555
O1 C1 1_555 1_555
O2 C1 1_555 1_555
O3 C10 1_555 1_555
N1 C2 1_555 1_555
C1 C3 1_555 1_555
C2 O2 1_555 1_555
C3 N1 1_555 1_555
C4 C3 1_555 1_555
H1 C4 1_555 1_555
C5 C4 1_555 1_555
H2 C5 1_555 1_555
H3 C5 1_555 1_555
H4 C5 1_555 1_555
C6 C4 1_555 1_555
H5 C6 1_555 1_555
H6 C6 1_555 1_555
H7 C6 1_555 1_555
C7 C3 1_555 1_555
H8 C7 1_555 1_555
C8 C7 1_555 1_555
C9 C8 1_555 1_555
H9 C9 1_555 1_555
H10 C9 1_555 1_555
C10 C8 1_555 1_555
C11 C10 1_555 1_555
H11 C11 1_555 1_555
H12 C11 1_555 1_555
H13 C11 1_555 1_555
C12 C7 1_555 1_555
C13 C12 1_555 1_555
H14 C13 1_555 1_555
C14 C13 1_555 1_555
H15 C14 1_555 1_555
C15 C14 1_555 1_555
C16 C15 1_555 1_555
H16 C16 1_555 1_555
C17 C12 1_555 1_555
H17 C17 1_555 1_555
C18 C2 1_555 1_555
C19 C18 1_555 1_555
H18 C19 1_555 1_555
C20 C19 1_555 1_555
H19 C20 1_555 1_555
C21 C20 1_555 1_555
H20 C21 1_555 1_555
C22 C21 1_555 1_555
H21 C22 1_555 1_555
C23 C18 1_555 1_555
H22 C23 1_555 1_555
C16 C17 1_555 1_555
C22 C23 1_555 1_555

#END
