
#######################################################################
#
#                 Cambridge Crystallographic Data Centre
#                                CCDC 
#
#######################################################################
#
# If this CIF has been generated from an entry in the Cambridge 
# Structural Database, then it will include bibliographic, chemical, 
# crystal, experimental, refinement or atomic coordinate data resulting 
# from the CCDC's data processing and validation procedures.
#
#######################################################################

data_EQOFIZ
_chemical_formula_moiety         'C34 H40 O8'
_chemical_name_systematic        
syn/anti-3,12,19,28-Tetramethoxy-6,9,22,25-tetraoxaheptacyclo(28.2.1.1^14,17^.0^2,29^.0^4,27^.0^11,20^.0^13,18^)-tetratriaconta-2(29),3,11(20),12,15,18,27,31-octaene
_symmetry_cell_setting           monoclinic
_symmetry_space_group_name_H-M   'C c'
_symmetry_Int_Tables_number      9
_space_group_name_Hall           'C -2yc'
loop_
_symmetry_equiv_pos_site_id
_symmetry_equiv_pos_as_xyz
1 x,y,z
2 x,-y,1/2+z
3 1/2+x,1/2+y,z
4 1/2+x,1/2-y,1/2+z
_cell_length_a                   26.700(4)
_cell_length_b                   9.0852(12)
_cell_length_c                   25.122(3)
_cell_angle_alpha                90
_cell_angle_beta                 91.585(4)
_cell_angle_gamma                90
_cell_volume                     6091.63
_exptl_crystal_colour            colorless
_exptl_crystal_description       cubic
_chemical_melting_point          176-177deg.C
_cell_formula_units_Z            8
_exptl_crystal_recrystallization_method ether/dichloromethane
loop_
_atom_site_label
_atom_site_type_symbol
_atom_site_fract_x
_atom_site_fract_y
_atom_site_fract_z
C1 C 0.7654(3) 0.9249(11) 0.7809(3)
H1 H 0.7591 1.0036 0.8053
H2 H 0.8002 0.8991 0.7829
H3 H 0.7455 0.8408 0.7899
C2 C 0.6717(3) 1.2499(9) 0.8290(3)
H4 H 0.6698 1.1946 0.8601
C3 C 0.8638(3) 0.5737(9) 0.3806(4)
H5 H 0.8602 0.4670 0.3762
C4 C 0.5538(3) 1.3143(10) 0.6810(3)
H6 H 0.5347 1.2251 0.6777
H7 H 0.5343 1.3951 0.6670
H8 H 0.5621 1.3321 0.7178
C5 C 0.9134(4) 0.7540(13) 0.4000(4)
H9 H 0.9412 0.8080 0.4117
C6 C 0.9071(3) 0.6344(13) 0.4121(4)
H10 H 0.9261 0.5830 0.4376
C7 C 0.7093(3) 1.4194(10) 0.7734(3)
H11 H 0.7290 1.4406 0.7424
H12 H 0.7145 1.4941 0.8005
C8 C 0.8762(3) 0.8128(8) 0.3664(3)
H13 H 0.8833 0.9075 0.3495
C9 C 0.8682(3) 0.6771(17) 0.3287(3)
H14 H 0.8969 0.6549 0.3073
H15 H 0.8377 0.6820 0.3069
C10 C 0.7141(2) 1.0421(7) 0.7182(2)
C11 C 0.6978(3) 1.1745(8) 0.7449(2)
C12 C 0.6387(4) 1.3252(9) 0.8083(3)
H16 H 0.6073 1.3388 0.8227
C13 C 0.6857(3) 0.6180(7) 0.6331(2)
H17 H 0.6674 0.5406 0.6507
H18 H 0.7211 0.6004 0.6399
C14 C 0.8464(3) 1.1303(8) 0.4315(3)
H19 H 0.8406 1.1589 0.4676
H20 H 0.8535 1.2161 0.4107
H21 H 0.8744 1.0642 0.4308
C15 C 0.8228(2) 0.6629(7) 0.4104(2)
C16 C 0.6194(2) 1.0599(7) 0.5065(2)
H22 H 0.5863 1.1040 0.5061
H23 H 0.6154 0.9538 0.5055
C17 C 0.7161(3) 1.2649(12) 0.7939(3)
H24 H 0.7490 1.2396 0.8096
C18 C 0.6595(2) 1.2571(7) 0.7235(2)
C19 C 0.7060(2) 0.8701(6) 0.6404(2)
H25 H 0.7031 0.8864 0.6023
H26 H 0.7405 0.8455 0.6495
C20 C 0.6343(2) 1.2140(7) 0.6756(2)
C21 C 0.6536(3) 1.3896(7) 0.7597(3)
H27 H 0.6336 1.4723 0.7459
O1 O 0.7538(2) 0.9658(6) 0.73404(19)
C22 C 0.7474(3) 0.3872(8) 0.4028(3)
H28 H 0.7132 0.4195 0.4006
H29 H 0.7484 0.2828 0.4087
H30 H 0.7636 0.4099 0.3702
C23 C 0.6216(2) 1.0415(8) 0.5986(2)
H31 H 0.6208 0.9350 0.5959
H32 H 0.5874 1.0769 0.5990
C24 C 0.6748(2) 0.6063(7) 0.5717(2)
H33 H 0.6718 0.5034 0.5618
H34 H 0.6431 0.6541 0.5629
C25 C 0.7028(2) 0.6669(6) 0.4883(2)
H35 H 0.6743 0.7295 0.4795
H36 H 0.6943 0.5671 0.4777
C26 C 0.6901(2) 1.0082(6) 0.6704(2)
C27 C 0.6467(2) 1.1092(7) 0.4589(2)
H37 H 0.6224 1.1341 0.4309
H38 H 0.6652 1.1981 0.4679
C28 C 0.75717(19) 0.8648(6) 0.4501(2)
C29 C 0.7225(2) 0.9812(7) 0.4742(2)
H39 H 0.7112 0.9480 0.5085
H40 H 0.7406 1.0730 0.4794
C30 C 0.6499(2) 1.0876(7) 0.6509(2)
C31 C 0.7480(2) 0.7183(7) 0.4577(2)
O2 O 0.67313(17) 0.7521(5) 0.65581(16)
O3 O 0.59594(18) 1.3014(5) 0.65361(17)
C32 C 0.7966(2) 0.9124(6) 0.4206(2)
C33 C 0.8305(2) 0.8051(6) 0.4000(2)
O4 O 0.68060(16) 1.0036(5) 0.43881(15)
O5 O 0.77338(18) 0.4621(5) 0.44694(17)
O6 O 0.80445(14) 1.0610(4) 0.41052(16)
C34 C 0.7804(2) 0.6124(6) 0.4395(2)
O7 O 0.71240(14) 0.6710(4) 0.54276(15)
O8 O 0.64595(14) 1.1008(5) 0.55417(14)
O9 O 1.04021(13) -0.0989(4) 0.43990(12)
O10 O 0.97309(15) 0.3281(4) 0.45082(14)
O11 O 1.01232(17) 0.2468(5) 0.34028(16)
O12 O 0.88264(16) -0.0589(5) 0.58415(17)
O13 O 1.08731(16) -0.3013(5) 0.34149(16)
C35 C 0.9393(2) 0.2831(6) 0.5368(2)
O14 O 0.91437(18) 0.5349(5) 0.54631(19)
O15 O 1.00411(15) -0.0097(4) 0.55602(15)
C36 C 0.9304(2) 0.1313(6) 0.5456(2)
C37 C 0.8870(2) 0.0893(6) 0.5744(2)
C38 C 0.9857(3) -0.1755(8) 0.2527(2)
C39 C 0.9624(2) 0.0189(6) 0.5215(2)
H41 H 0.9434 -0.0709 0.5156
H42 H 0.9739 0.0534 0.4874
C40 C 0.9705(2) -0.0603(8) 0.2776(3)
C41 C 1.0509(2) -0.2184(6) 0.3176(2)
C42 C 1.0365(2) -0.0901(6) 0.34571(19)
O16 O 0.92506(17) 0.0151(6) 0.2616(2)
C43 C 1.0122(2) 0.3965(7) 0.4210(2)
H43 H 1.0438 0.3472 0.4284
H44 H 1.0157 0.4989 0.4313
C44 C 1.06700(19) -0.0604(7) 0.4874(2)
H45 H 1.0711 0.0456 0.4893
H46 H 1.1000 -0.1050 0.4876
C45 C 1.1339(3) -0.3102(10) 0.3120(4)
H47 H 1.1377 -0.2227 0.2911
H48 H 1.1327 -0.3946 0.2890
H49 H 1.1619 -0.3192 0.3367
C46 C 0.9792(2) 0.1320(7) 0.3505(2)
H50 H 0.9459 0.1577 0.3373
H51 H 0.9777 0.1160 0.3886
C47 C 0.8202(2) 0.4211(6) 0.6061(2)
H52 H 0.8151 0.5246 0.5963
C48 C 1.0641(2) -0.0435(6) 0.3936(2)
H53 H 1.0982 -0.0800 0.3928
H54 H 1.0653 0.0632 0.3950
C49 C 1.0274(3) -0.2560(7) 0.2727(3)
C50 C 0.8658(3) 0.3439(7) 0.5833(3)
C51 C 0.9052(3) 0.3860(7) 0.5582(3)
C52 C 0.9961(2) -0.0041(6) 0.3242(2)
C53 C 0.9843(2) 0.3347(7) 0.5079(2)
H55 H 0.9925 0.4349 0.5183
H56 H 1.0128 0.2726 0.5168
C54 C 0.8573(2) 0.1885(7) 0.5926(3)
C55 C 1.0383(3) -0.1143(8) 0.5356(2)
H57 H 1.0198 -0.2025 0.5256
H58 H 1.0622 -0.1409 0.5637
C56 C 0.8077(3) 0.1833(7) 0.6247(3)
H59 H 0.7928 0.0864 0.6311
C57 C 1.0034(5) -0.2359(13) 0.1671(4)
H60 H 1.0002 -0.1748 0.1375
C58 C 0.9992(3) 0.3865(7) 0.3643(3)
H61 H 0.9634 0.4019 0.3594
H62 H 1.0161 0.4650 0.3457
C59 C 0.9770(4) -0.4269(9) 0.2214(3)
H63 H 0.9595 -0.4518 0.2535
H64 H 0.9717 -0.5010 0.1941
C60 C 0.9677(3) -0.2590(10) 0.2010(3)
H65 H 0.9336 -0.2363 0.1879
C61 C 0.9315(4) 0.1102(12) 0.2236(4)
H66 H 0.9559 0.1820 0.2350
H67 H 0.9003 0.1584 0.2151
H68 H 0.9431 0.0602 0.1926
C62 C 0.8237(3) 0.3870(12) 0.6642(4)
H69 H 0.8310 0.4550 0.6910
C63 C 1.0436(5) -0.3090(11) 0.1801(3)
H70 H 1.0727 -0.3146 0.1606
C64 C 0.9345(3) 0.6115(8) 0.5898(3)
H71 H 0.9105 0.6152 0.6175
H72 H 0.9428 0.7099 0.5791
H73 H 0.9643 0.5624 0.6028
C65 C 1.0348(3) -0.3817(10) 0.2317(3)
H74 H 1.0580 -0.4609 0.2422
C66 C 0.8385(3) -0.1229(10) 0.5613(4)
H75 H 0.8166 -0.1520 0.5891
H76 H 0.8473 -0.2076 0.5407
H77 H 0.8218 -0.0522 0.5386
C67 C 0.8169(3) 0.2761(10) 0.6701(4)
H78 H 0.8167 0.2373 0.7044
C68 C 0.7735(2) 0.3040(12) 0.5900(3)
H79 H 0.7415 0.3281 0.6053
H80 H 0.7699 0.2823 0.5523
loop_
_geom_bond_atom_site_label_1
_geom_bond_atom_site_label_2
_geom_bond_site_symmetry_1
_geom_bond_site_symmetry_2
C1 H1 1_555 1_555
H2 C1 1_555 1_555
H3 C1 1_555 1_555
C2 H4 1_555 1_555
C3 H5 1_555 1_555
C4 H6 1_555 1_555
H7 C4 1_555 1_555
H8 C4 1_555 1_555
C5 H9 1_555 1_555
C6 C3 1_555 1_555
H10 C6 1_555 1_555
C7 H11 1_555 1_555
H12 C7 1_555 1_555
C8 C5 1_555 1_555
H13 C8 1_555 1_555
C9 C3 1_555 1_555
H14 C9 1_555 1_555
H15 C9 1_555 1_555
C10 C11 1_555 1_555
C11 C17 1_555 1_555
C12 C2 1_555 1_555
H16 C12 1_555 1_555
C13 H17 1_555 1_555
H18 C13 1_555 1_555
C14 H19 1_555 1_555
H20 C14 1_555 1_555
H21 C14 1_555 1_555
C15 C3 1_555 1_555
C16 H22 1_555 1_555
H23 C16 1_555 1_555
C17 C2 1_555 1_555
H24 C17 1_555 1_555
C18 C11 1_555 1_555
C19 H25 1_555 1_555
H26 C19 1_555 1_555
C20 C18 1_555 1_555
C21 C7 1_555 1_555
H27 C21 1_555 1_555
O1 C1 1_555 1_555
C22 H28 1_555 1_555
H29 C22 1_555 1_555
H30 C22 1_555 1_555
C23 H31 1_555 1_555
H32 C23 1_555 1_555
C24 C13 1_555 1_555
H33 C24 1_555 1_555
H34 C24 1_555 1_555
C25 H35 1_555 1_555
H36 C25 1_555 1_555
C26 C10 1_555 1_555
C27 C16 1_555 1_555
H37 C27 1_555 1_555
H38 C27 1_555 1_555
C28 C29 1_555 1_555
C29 H39 1_555 1_555
H40 C29 1_555 1_555
C30 C20 1_555 1_555
C31 C25 1_555 1_555
O2 C13 1_555 1_555
O3 C4 1_555 1_555
C32 C28 1_555 1_555
C33 C8 1_555 1_555
O4 C27 1_555 1_555
O5 C22 1_555 1_555
O6 C14 1_555 1_555
C34 C15 1_555 1_555
O7 C24 1_555 1_555
O8 C16 1_555 1_555
O9 C44 1_555 1_555
O10 C43 1_555 1_555
O11 C46 1_555 1_555
O12 C37 1_555 1_555
O13 C41 1_555 1_555
C35 C36 1_555 1_555
O14 C51 1_555 1_555
O15 C39 1_555 1_555
C36 C37 1_555 1_555
C37 C54 1_555 1_555
C38 C40 1_555 1_555
C39 C36 1_555 1_555
H41 C39 1_555 1_555
H42 C39 1_555 1_555
C40 O16 1_555 1_555
C41 C42 1_555 1_555
C42 C48 1_555 1_555
O16 C61 1_555 1_555
C43 H43 1_555 1_555
H44 C43 1_555 1_555
C44 H45 1_555 1_555
H46 C44 1_555 1_555
C45 O13 1_555 1_555
H47 C45 1_555 1_555
H48 C45 1_555 1_555
H49 C45 1_555 1_555
C46 H50 1_555 1_555
H51 C46 1_555 1_555
C47 H52 1_555 1_555
C48 O9 1_555 1_555
H53 C48 1_555 1_555
H54 C48 1_555 1_555
C49 C38 1_555 1_555
C50 C47 1_555 1_555
C51 C35 1_555 1_555
C52 C40 1_555 1_555
C53 O10 1_555 1_555
H55 C53 1_555 1_555
H56 C53 1_555 1_555
C54 C50 1_555 1_555
C55 O15 1_555 1_555
H57 C55 1_555 1_555
H58 C55 1_555 1_555
C56 C54 1_555 1_555
H59 C56 1_555 1_555
C57 H60 1_555 1_555
C58 O11 1_555 1_555
H61 C58 1_555 1_555
H62 C58 1_555 1_555
C59 H63 1_555 1_555
H64 C59 1_555 1_555
C60 C38 1_555 1_555
H65 C60 1_555 1_555
C61 H66 1_555 1_555
H67 C61 1_555 1_555
H68 C61 1_555 1_555
C62 C47 1_555 1_555
H69 C62 1_555 1_555
C63 C57 1_555 1_555
H70 C63 1_555 1_555
C64 O14 1_555 1_555
H71 C64 1_555 1_555
H72 C64 1_555 1_555
H73 C64 1_555 1_555
C65 C49 1_555 1_555
H74 C65 1_555 1_555
C66 O12 1_555 1_555
H75 C66 1_555 1_555
H76 C66 1_555 1_555
H77 C66 1_555 1_555
C67 C56 1_555 1_555
H78 C67 1_555 1_555
C68 C47 1_555 1_555
H79 C68 1_555 1_555
H80 C68 1_555 1_555
C5 C6 1_555 1_555
C7 C17 1_555 1_555
C8 C9 1_555 1_555
C10 O1 1_555 1_555
C12 C21 1_555 1_555
C15 C33 1_555 1_555
C18 C21 1_555 1_555
C19 O2 1_555 1_555
C19 C26 1_555 1_555
C20 O3 1_555 1_555
C23 C30 1_555 1_555
C23 O8 1_555 1_555
C25 O7 1_555 1_555
C26 C30 1_555 1_555
C28 C31 1_555 1_555
C29 O4 1_555 1_555
C31 C34 1_555 1_555
C32 C33 1_555 1_555
C32 O6 1_555 1_555
O5 C34 1_555 1_555
C35 C53 1_555 1_555
C41 C49 1_555 1_555
C42 C52 1_555 1_555
C43 C58 1_555 1_555
C44 C55 1_555 1_555
C46 C52 1_555 1_555
C50 C51 1_555 1_555
C56 C68 1_555 1_555
C57 C60 1_555 1_555
C59 C65 1_555 1_555
C59 C60 1_555 1_555
C62 C67 1_555 1_555
C63 C65 1_555 1_555

#END
