
#######################################################################
#
#                 Cambridge Crystallographic Data Centre
#                                CCDC 
#
#######################################################################
#
# If this CIF has been generated from an entry in the Cambridge 
# Structural Database, then it will include bibliographic, chemical, 
# crystal, experimental, refinement or atomic coordinate data resulting 
# from the CCDC's data processing and validation procedures.
#
#######################################################################

data_EQOLUT
_chemical_formula_moiety         'C33 H34 N3 P1'
_chemical_name_systematic        
'N-(1,3-dimesityl-1,3-dihydro-2H-imidazol-2-ylidene)-P,P-diphenylphosphinous amide'
_symmetry_cell_setting           triclinic
_symmetry_space_group_name_H-M   'P -1'
_symmetry_Int_Tables_number      2
_space_group_name_Hall           '-P 1'
loop_
_symmetry_equiv_pos_site_id
_symmetry_equiv_pos_as_xyz
1 x,y,z
2 -x,-y,-z
_cell_length_a                   8.8079(6)
_cell_length_b                   10.3470(8)
_cell_length_c                   16.7289(12)
_cell_angle_alpha                89.195(6)
_cell_angle_beta                 80.155(6)
_cell_angle_gamma                69.595(7)
_cell_volume                     1406.17
_exptl_crystal_colour            colorless
_exptl_crystal_description       plate
_cell_formula_units_Z            2
loop_
_atom_site_label
_atom_site_type_symbol
_atom_site_fract_x
_atom_site_fract_y
_atom_site_fract_z
P1 P 0.89070(7) 0.37204(6) 0.26558(4)
N1 N 1.2621(2) 0.1126(2) 0.12095(10)
N2 N 1.0046(2) 0.2400(2) 0.19953(11)
N3 N 1.2682(2) 0.1562(2) 0.24755(11)
C1 C 1.2142(2) 0.1322(2) 0.04257(12)
C2 C 0.7199(3) 0.4496(2) 0.21008(14)
C3 C 1.2035(3) 0.0216(2) 0.00077(13)
C4 C 0.7792(3) 0.2967(3) 0.34548(14)
C5 C 1.1629(3) 0.1787(2) 0.19260(12)
C6 C 1.1632(3) 0.0421(3) -0.07649(13)
H1 H 1.1542 -0.0306 -0.1050
C7 C 0.7021(3) 0.3915(3) 0.14112(14)
H2 H 0.7818 0.3085 0.1193
C8 C 1.2207(3) 0.1918(3) 0.33321(13)
C9 C 1.1361(3) 0.1686(3) -0.11203(14)
C10 C 1.2297(3) 0.3135(3) 0.36266(14)
C11 C 1.1887(3) 0.2604(3) 0.00882(14)
C12 C 1.4281(3) 0.0754(3) 0.20988(15)
H3 H 1.5207 0.0458 0.2344
C13 C 1.1863(3) 0.3433(3) 0.44551(15)
H4 H 1.1880 0.4257 0.4661
C14 C 1.1505(3) 0.2755(3) -0.06892(15)
H5 H 1.1341 0.3601 -0.0926
C15 C 1.1757(3) 0.0986(3) 0.38432(14)
C16 C 1.1358(3) 0.1319(3) 0.46702(14)
H6 H 1.1054 0.0711 0.5020
C17 C 0.5983(3) 0.5776(3) 0.24092(17)
H7 H 0.6077 0.6210 0.2872
C18 C 1.1399(3) 0.2539(3) 0.49929(14)
C19 C 1.2434(3) -0.1182(3) 0.03602(16)
H8 H 1.3606 -0.1644 0.0271
H9 H 1.1941 -0.1718 0.0102
H10 H 1.2010 -0.1078 0.0933
C20 C 0.5693(3) 0.4522(3) 0.10271(16)
H11 H 0.5605 0.4102 0.0558
C21 C 1.4240(3) 0.0486(3) 0.13288(14)
H12 H 1.5128 -0.0034 0.0941
C22 C 0.4508(3) 0.5743(3) 0.13406(16)
H13 H 0.3600 0.6142 0.1090
C23 C 0.4651(3) 0.6382(3) 0.20211(18)
H14 H 0.3854 0.7223 0.2223
C24 C 1.2045(4) 0.3783(3) 0.05478(18)
H15 H 1.1076 0.4182 0.0953
H16 H 1.2165 0.4472 0.0177
H17 H 1.2993 0.3446 0.0806
C25 C 1.2854(4) 0.4098(3) 0.30622(17)
H18 H 1.3887 0.3588 0.2726
H19 H 1.2981 0.4811 0.3376
H20 H 1.2046 0.4506 0.2726
C26 C 0.7277(4) 0.3599(3) 0.42249(16)
H21 H 0.7514 0.4379 0.4334
C27 C 0.7395(4) 0.1814(3) 0.33140(17)
H22 H 0.7721 0.1377 0.2799
C28 C 1.1725(4) -0.0346(3) 0.35081(17)
H23 H 1.0876 -0.0147 0.3185
H24 H 1.1507 -0.0898 0.3948
H25 H 1.2770 -0.0841 0.3177
C29 C 1.0930(4) 0.1904(4) -0.19594(16)
H26 H 1.1919 0.1583 -0.2359
H27 H 1.0365 0.2870 -0.2017
H28 H 1.0231 0.1400 -0.2036
C30 C 0.6522(4) 0.1304(4) 0.3924(2)
H29 H 0.6269 0.0529 0.3818
C31 C 1.0985(5) 0.2863(4) 0.58951(17)
H30 H 1.1869 0.2284 0.6147
H31 H 0.9992 0.2697 0.6113
H32 H 1.0830 0.3814 0.6001
C32 C 0.6024(4) 0.1947(4) 0.4696(2)
H33 H 0.5437 0.1609 0.5109
C33 C 0.6406(5) 0.3078(4) 0.48383(19)
H34 H 0.6080 0.3511 0.5354
loop_
_geom_bond_atom_site_label_1
_geom_bond_atom_site_label_2
_geom_bond_site_symmetry_1
_geom_bond_site_symmetry_2
P1 N2 1_555 1_555
N1 C1 1_555 1_555
N2 C5 1_555 1_555
N3 C5 1_555 1_555
C1 C3 1_555 1_555
C2 P1 1_555 1_555
C3 C6 1_555 1_555
C4 P1 1_555 1_555
C5 N1 1_555 1_555
C6 H1 1_555 1_555
C7 C2 1_555 1_555
H2 C7 1_555 1_555
C8 N3 1_555 1_555
C9 C6 1_555 1_555
C10 C8 1_555 1_555
C11 C1 1_555 1_555
C12 N3 1_555 1_555
H3 C12 1_555 1_555
C13 C10 1_555 1_555
H4 C13 1_555 1_555
C14 C9 1_555 1_555
H5 C14 1_555 1_555
C15 C8 1_555 1_555
C16 C15 1_555 1_555
H6 C16 1_555 1_555
C17 C2 1_555 1_555
H7 C17 1_555 1_555
C18 C13 1_555 1_555
C19 C3 1_555 1_555
H8 C19 1_555 1_555
H9 C19 1_555 1_555
H10 C19 1_555 1_555
C20 C7 1_555 1_555
H11 C20 1_555 1_555
C21 N1 1_555 1_555
H12 C21 1_555 1_555
C22 C20 1_555 1_555
H13 C22 1_555 1_555
C23 C17 1_555 1_555
H14 C23 1_555 1_555
C24 C11 1_555 1_555
H15 C24 1_555 1_555
H16 C24 1_555 1_555
H17 C24 1_555 1_555
C25 C10 1_555 1_555
H18 C25 1_555 1_555
H19 C25 1_555 1_555
H20 C25 1_555 1_555
C26 C4 1_555 1_555
H21 C26 1_555 1_555
C27 C4 1_555 1_555
H22 C27 1_555 1_555
C28 C15 1_555 1_555
H23 C28 1_555 1_555
H24 C28 1_555 1_555
H25 C28 1_555 1_555
C29 C9 1_555 1_555
H26 C29 1_555 1_555
H27 C29 1_555 1_555
H28 C29 1_555 1_555
C30 C27 1_555 1_555
H29 C30 1_555 1_555
C31 C18 1_555 1_555
H30 C31 1_555 1_555
H31 C31 1_555 1_555
H32 C31 1_555 1_555
C32 C30 1_555 1_555
H33 C32 1_555 1_555
C33 C26 1_555 1_555
H34 C33 1_555 1_555
C11 C14 1_555 1_555
C12 C21 1_555 1_555
C16 C18 1_555 1_555
C22 C23 1_555 1_555
C32 C33 1_555 1_555

#END
