
#######################################################################
#
#                 Cambridge Crystallographic Data Centre
#                                CCDC 
#
#######################################################################
#
# If this CIF has been generated from an entry in the Cambridge 
# Structural Database, then it will include bibliographic, chemical, 
# crystal, experimental, refinement or atomic coordinate data resulting 
# from the CCDC's data processing and validation procedures.
#
#######################################################################

data_EQOMAA
_chemical_formula_moiety         'C33 H34 N3 O1 P1'
_chemical_name_systematic        
'N-(1,3-dimesityl-1,3-dihydro-2H-imidazol-2-ylidene)-P,P-diphenylphosphinic amide'
_symmetry_cell_setting           monoclinic
_symmetry_space_group_name_H-M   'P 21/c'
_symmetry_Int_Tables_number      14
_space_group_name_Hall           '-P 2ybc'
loop_
_symmetry_equiv_pos_site_id
_symmetry_equiv_pos_as_xyz
1 x,y,z
2 -x,1/2+y,1/2-z
3 -x,-y,-z
4 x,1/2-y,1/2+z
_cell_length_a                   8.4818(4)
_cell_length_b                   31.2129(18)
_cell_length_c                   14.0448(9)
_cell_angle_alpha                90
_cell_angle_beta                 103.174(6)
_cell_angle_gamma                90
_cell_volume                     3620.39
_exptl_crystal_colour            colorless
_exptl_crystal_description       block
_cell_formula_units_Z            4
loop_
_atom_site_label
_atom_site_type_symbol
_atom_site_fract_x
_atom_site_fract_y
_atom_site_fract_z
P1 P 0.01879(8) 0.67283(2) 0.87513(5)
O1 O 0.0873(2) 0.71185(6) 0.83951(16)
N1 N 0.0843(3) 0.70986(7) 1.11113(17)
C1 C 0.1121(3) 0.67096(8) 1.0726(2)
C2 C -0.1989(3) 0.67743(9) 0.8533(2)
N2 N 0.0857(3) 0.65622(8) 0.98393(18)
N3 N 0.1817(3) 0.64647(8) 1.15178(18)
C3 C 0.1080(4) 0.77461(10) 1.0183(2)
C4 C 0.0117(3) 0.74667(9) 1.0575(2)
C5 C 0.0571(3) 0.62692(10) 0.8047(2)
C6 C 0.2300(3) 0.60293(9) 1.1413(2)
C7 C -0.2935(4) 0.64469(12) 0.8753(3)
H1 H -0.2464 0.6189 0.9001
C8 C -0.1547(4) 0.75377(11) 1.0464(2)
C9 C 0.0356(5) 0.81018(11) 0.9696(3)
H2 H 0.0988 0.8295 0.9442
C10 C -0.2190(4) 0.79039(13) 0.9975(3)
H3 H -0.3282 0.7963 0.9917
C11 C 0.1974(5) 0.66963(12) 1.2384(2)
H4 H 0.2408 0.6598 1.3015
C12 C -0.2709(4) 0.71495(12) 0.8156(3)
H5 H -0.2078 0.7371 0.7998
C13 C 0.1369(4) 0.70921(11) 1.2125(3)
H6 H 0.1315 0.7318 1.2547
C14 C 0.3881(4) 0.59503(11) 1.1332(3)
C15 C 0.2866(4) 0.76636(13) 1.0296(3)
H7 H 0.3047 0.7537 0.9707
H8 H 0.3241 0.7472 1.0834
H9 H 0.3447 0.7929 1.0419
C16 C 0.1081(4) 0.58778(11) 0.8472(3)
H10 H 0.1179 0.5840 0.9139
C17 C -0.2592(4) 0.72235(14) 1.0866(3)
H11 H -0.3677 0.7332 1.0758
H12 H -0.2161 0.7186 1.1555
H13 H -0.2600 0.6953 1.0540
C18 C -0.1279(5) 0.81829(13) 0.9572(3)
C19 C 0.1204(4) 0.57025(12) 1.1405(3)
C20 C -0.4387(5) 0.72026(16) 0.8008(3)
H14 H -0.4871 0.7458 0.7751
C21 C 0.0472(5) 0.63259(14) 0.7059(3)
H15 H 0.0179 0.6591 0.6773
C22 C 0.1449(5) 0.55403(13) 0.7915(4)
H16 H 0.1800 0.5278 0.8202
C23 C 0.5028(5) 0.63125(15) 1.1317(4)
H17 H 0.4974 0.6510 1.1832
H18 H 0.4736 0.6457 1.0698
H19 H 0.6110 0.6203 1.1411
C24 C 0.4325(5) 0.55326(14) 1.1261(4)
H20 H 0.5385 0.5473 1.1229
C25 C -0.4618(5) 0.65055(17) 0.8601(4)
H21 H -0.5260 0.6285 0.8749
C26 C 0.1278(7) 0.56050(16) 0.6908(4)
H22 H 0.1493 0.5380 0.6521
C27 C -0.5308(4) 0.6878(2) 0.8242(4)
H23 H -0.6420 0.6915 0.8154
C28 C 0.1723(6) 0.52875(13) 1.1300(4)
H24 H 0.0991 0.5064 1.1271
C29 C 0.0808(7) 0.59874(18) 0.6490(3)
H25 H 0.0708 0.6025 0.5822
C30 C 0.3263(6) 0.51957(13) 1.1237(4)
C31 C -0.0531(5) 0.57999(17) 1.1476(5)
H26 H -0.0515 0.5955 1.2068
H27 H -0.1112 0.5536 1.1478
H28 H -0.1055 0.5970 1.0925
C32 C -0.2031(8) 0.85764(17) 0.8985(4)
H29 H -0.2921 0.8488 0.8470
H30 H -0.1229 0.8715 0.8708
H31 H -0.2412 0.8772 0.9410
C33 C 0.3810(9) 0.47305(17) 1.1140(6)
H32 H 0.4447 0.4634 1.1758
H33 H 0.4448 0.4717 1.0657
H34 H 0.2876 0.4550 1.0944
loop_
_geom_bond_atom_site_label_1
_geom_bond_atom_site_label_2
_geom_bond_site_symmetry_1
_geom_bond_site_symmetry_2
P1 O1 1_555 1_555
N1 C1 1_555 1_555
C1 N2 1_555 1_555
C2 P1 1_555 1_555
N2 P1 1_555 1_555
N3 C1 1_555 1_555
C3 C4 1_555 1_555
C4 N1 1_555 1_555
C5 P1 1_555 1_555
C6 N3 1_555 1_555
C7 C2 1_555 1_555
H1 C7 1_555 1_555
C8 C4 1_555 1_555
C9 C3 1_555 1_555
H2 C9 1_555 1_555
C10 C8 1_555 1_555
H3 C10 1_555 1_555
C11 N3 1_555 1_555
H4 C11 1_555 1_555
C12 C2 1_555 1_555
H5 C12 1_555 1_555
C13 N1 1_555 1_555
H6 C13 1_555 1_555
C14 C6 1_555 1_555
C15 C3 1_555 1_555
H7 C15 1_555 1_555
H8 C15 1_555 1_555
H9 C15 1_555 1_555
C16 C5 1_555 1_555
H10 C16 1_555 1_555
C17 C8 1_555 1_555
H11 C17 1_555 1_555
H12 C17 1_555 1_555
H13 C17 1_555 1_555
C18 C9 1_555 1_555
C19 C6 1_555 1_555
C20 C12 1_555 1_555
H14 C20 1_555 1_555
C21 C5 1_555 1_555
H15 C21 1_555 1_555
C22 C16 1_555 1_555
H16 C22 1_555 1_555
C23 C14 1_555 1_555
H17 C23 1_555 1_555
H18 C23 1_555 1_555
H19 C23 1_555 1_555
C24 C14 1_555 1_555
H20 C24 1_555 1_555
C25 C7 1_555 1_555
H21 C25 1_555 1_555
C26 C22 1_555 1_555
H22 C26 1_555 1_555
C27 C20 1_555 1_555
H23 C27 1_555 1_555
C28 C19 1_555 1_555
H24 C28 1_555 1_555
C29 C21 1_555 1_555
H25 C29 1_555 1_555
C30 C24 1_555 1_555
C31 C19 1_555 1_555
H26 C31 1_555 1_555
H27 C31 1_555 1_555
H28 C31 1_555 1_555
C32 C18 1_555 1_555
H29 C32 1_555 1_555
H30 C32 1_555 1_555
H31 C32 1_555 1_555
C33 C30 1_555 1_555
H32 C33 1_555 1_555
H33 C33 1_555 1_555
H34 C33 1_555 1_555
C10 C18 1_555 1_555
C11 C13 1_555 1_555
C25 C27 1_555 1_555
C26 C29 1_555 1_555
C28 C30 1_555 1_555

#END
