
#######################################################################
#
#                 Cambridge Crystallographic Data Centre
#                                CCDC 
#
#######################################################################
#
# If this CIF has been generated from an entry in the Cambridge 
# Structural Database, then it will include bibliographic, chemical, 
# crystal, experimental, refinement or atomic coordinate data resulting 
# from the CCDC's data processing and validation procedures.
#
#######################################################################

data_EQOMII
_chemical_formula_moiety         'C39 H46 N3 P1 Se1'
_chemical_name_systematic        
'N-(1,3-bis(2,6-diisopropylphenyl)-1,3-dihydro-2H-imidazol-2-ylidene)-P,P-diphenylphosphinoselenoic amide'
_symmetry_cell_setting           monoclinic
_symmetry_space_group_name_H-M   'P 21/c'
_symmetry_Int_Tables_number      14
_space_group_name_Hall           '-P 2ybc'
loop_
_symmetry_equiv_pos_site_id
_symmetry_equiv_pos_as_xyz
1 x,y,z
2 -x,1/2+y,1/2-z
3 -x,-y,-z
4 x,1/2-y,1/2+z
_cell_length_a                   11.5944(2)
_cell_length_b                   15.0183(3)
_cell_length_c                   21.3146(5)
_cell_angle_alpha                90
_cell_angle_beta                 108.205(2)
_cell_angle_gamma                90
_cell_volume                     3525.69
_exptl_crystal_colour            colorless
_exptl_crystal_description       chunk
_cell_formula_units_Z            4
loop_
_atom_site_label
_atom_site_type_symbol
_atom_site_fract_x
_atom_site_fract_y
_atom_site_fract_z
Se1 Se 0.186772(18) -0.302142(13) -0.249538(9)
P1 P 0.31751(4) -0.21753(3) -0.185394(19)
N1 N 0.27066(12) -0.13273(9) -0.15426(6)
N2 N 0.10403(12) -0.08218(9) -0.12254(6)
N3 N 0.09723(12) -0.04872(9) -0.22326(6)
C1 C 0.16492(14) -0.09341(10) -0.16777(7)
C2 C 0.00180(15) -0.02978(12) -0.14920(8)
H1 H -0.0535 -0.0123 -0.1280
C3 C -0.00271(15) -0.00893(12) -0.21127(8)
H2 H -0.0616 0.0257 -0.2408
C4 C 0.13124(14) -0.03232(11) -0.28191(8)
C5 C 0.06313(15) -0.07269(11) -0.34109(8)
C6 C 0.09375(16) -0.05041(12) -0.39780(8)
H3 H 0.0497 -0.0751 -0.4382
C7 C 0.18772(17) 0.00737(13) -0.39500(9)
H4 H 0.2068 0.0206 -0.4332
C8 C 0.25381(16) 0.04586(12) -0.33552(9)
H5 H 0.3173 0.0844 -0.3343
C9 C 0.22670(15) 0.02777(11) -0.27746(8)
C10 C 0.29440(17) 0.07477(12) -0.21325(9)
H6 H 0.2909 0.0364 -0.1767
C11 C 0.2329(2) 0.16250(16) -0.20721(12)
H7 H 0.2380 0.2023 -0.2415
H8 H 0.2728 0.1887 -0.1649
H9 H 0.1492 0.1518 -0.2115
C12 C 0.4282(2) 0.09141(18) -0.20562(13)
H10 H 0.4661 0.0363 -0.2110
H11 H 0.4682 0.1153 -0.1625
H12 H 0.4343 0.1331 -0.2386
C13 C -0.04184(16) -0.13549(12) -0.34608(8)
H13 H -0.0325 -0.1590 -0.3019
C14 C -0.16429(17) -0.08712(15) -0.37062(10)
H14 H -0.1665 -0.0404 -0.3403
H15 H -0.2287 -0.1286 -0.3735
H16 H -0.1743 -0.0621 -0.4134
C15 C -0.0444(2) -0.21436(14) -0.39206(10)
H17 H -0.0663 -0.1937 -0.4369
H18 H -0.1029 -0.2573 -0.3879
H19 H 0.0345 -0.2415 -0.3802
C16 C 0.15165(15) -0.10959(11) -0.05444(8)
C17 C 0.20723(16) -0.04521(12) -0.00769(8)
C18 C 0.25243(18) -0.07245(13) 0.05826(9)
H20 H 0.2894 -0.0310 0.0907
C19 C 0.2428(2) -0.16002(14) 0.07581(9)
H21 H 0.2728 -0.1770 0.1199
C20 C 0.18872(19) -0.22276(13) 0.02794(9)
H22 H 0.1838 -0.2817 0.0403
C21 C 0.14155(17) -0.19917(11) -0.03845(9)
C22 C 0.08066(19) -0.26631(13) -0.09154(9)
H23 H 0.0992 -0.2491 -0.1317
C23 C -0.0574(2) -0.26266(16) -0.10730(12)
H24 H -0.0788 -0.2806 -0.0691
H25 H -0.0947 -0.3022 -0.1433
H26 H -0.0852 -0.2030 -0.1193
C24 C 0.1257(2) -0.36141(14) -0.07483(12)
H27 H 0.2127 -0.3626 -0.0630
H28 H 0.0916 -0.3990 -0.1125
H29 H 0.1012 -0.3826 -0.0384
C25 C 0.22471(18) 0.05018(12) -0.02608(9)
H30 H 0.1772 0.0588 -0.0725
C26 C 0.3588(2) 0.06551(17) -0.01943(13)
H31 H 0.4071 0.0589 0.0260
H32 H 0.3690 0.1245 -0.0342
H33 H 0.3841 0.0227 -0.0459
C27 C 0.1793(3) 0.11667(15) 0.01493(11)
H34 H 0.0935 0.1090 0.0063
H35 H 0.1953 0.1761 0.0034
H36 H 0.2206 0.1067 0.0610
C28 C 0.40911(15) -0.27962(11) -0.11388(9)
C29 C 0.43035(16) -0.24702(12) -0.05033(9)
H37 H 0.4006 -0.1914 -0.0440
C30 C 0.49613(19) -0.29738(13) 0.00405(10)
H38 H 0.5095 -0.2756 0.0466
C31 C 0.54146(18) -0.37975(14) -0.00542(11)
H39 H 0.5854 -0.4134 0.0308
C32 C 0.52145(19) -0.41216(14) -0.06893(12)
H40 H 0.5524 -0.4674 -0.0751
C33 C 0.45559(17) -0.36265(13) -0.12309(10)
H41 H 0.4423 -0.3847 -0.1655
C34 C 0.42736(16) -0.17837(12) -0.22433(9)
C35 C 0.54710(18) -0.16006(15) -0.18666(10)
H42 H 0.5731 -0.1716 -0.1415
C36 C 0.6274(2) -0.12453(17) -0.21679(13)
H43 H 0.7070 -0.1121 -0.1917
C37 C 0.5894(2) -0.10761(16) -0.28374(13)
H44 H 0.6432 -0.0831 -0.3035
C38 C 0.4716(2) -0.12699(15) -0.32155(11)
H45 H 0.4466 -0.1164 -0.3668
C39 C 0.39024(18) -0.16232(12) -0.29207(9)
H46 H 0.3110 -0.1752 -0.3176
loop_
_geom_bond_atom_site_label_1
_geom_bond_atom_site_label_2
_geom_bond_site_symmetry_1
_geom_bond_site_symmetry_2
Se1 P1 1_555 1_555
P1 N1 1_555 1_555
N1 C1 1_555 1_555
N2 C1 1_555 1_555
N3 C1 1_555 1_555
C2 N2 1_555 1_555
H1 C2 1_555 1_555
C3 N3 1_555 1_555
H2 C3 1_555 1_555
C4 N3 1_555 1_555
C5 C4 1_555 1_555
C6 C5 1_555 1_555
H3 C6 1_555 1_555
C7 C6 1_555 1_555
H4 C7 1_555 1_555
C8 C7 1_555 1_555
H5 C8 1_555 1_555
C9 C4 1_555 1_555
C10 C9 1_555 1_555
H6 C10 1_555 1_555
C11 C10 1_555 1_555
H7 C11 1_555 1_555
H8 C11 1_555 1_555
H9 C11 1_555 1_555
C12 C10 1_555 1_555
H10 C12 1_555 1_555
H11 C12 1_555 1_555
H12 C12 1_555 1_555
C13 C5 1_555 1_555
H13 C13 1_555 1_555
C14 C13 1_555 1_555
H14 C14 1_555 1_555
H15 C14 1_555 1_555
H16 C14 1_555 1_555
C15 C13 1_555 1_555
H17 C15 1_555 1_555
H18 C15 1_555 1_555
H19 C15 1_555 1_555
C16 N2 1_555 1_555
C17 C16 1_555 1_555
C18 C17 1_555 1_555
H20 C18 1_555 1_555
C19 C18 1_555 1_555
H21 C19 1_555 1_555
C20 C19 1_555 1_555
H22 C20 1_555 1_555
C21 C16 1_555 1_555
C22 C21 1_555 1_555
H23 C22 1_555 1_555
C23 C22 1_555 1_555
H24 C23 1_555 1_555
H25 C23 1_555 1_555
H26 C23 1_555 1_555
C24 C22 1_555 1_555
H27 C24 1_555 1_555
H28 C24 1_555 1_555
H29 C24 1_555 1_555
C25 C17 1_555 1_555
H30 C25 1_555 1_555
C26 C25 1_555 1_555
H31 C26 1_555 1_555
H32 C26 1_555 1_555
H33 C26 1_555 1_555
C27 C25 1_555 1_555
H34 C27 1_555 1_555
H35 C27 1_555 1_555
H36 C27 1_555 1_555
C28 P1 1_555 1_555
C29 C28 1_555 1_555
H37 C29 1_555 1_555
C30 C29 1_555 1_555
H38 C30 1_555 1_555
C31 C30 1_555 1_555
H39 C31 1_555 1_555
C32 C31 1_555 1_555
H40 C32 1_555 1_555
C33 C28 1_555 1_555
H41 C33 1_555 1_555
C34 P1 1_555 1_555
C35 C34 1_555 1_555
H42 C35 1_555 1_555
C36 C35 1_555 1_555
H43 C36 1_555 1_555
C37 C36 1_555 1_555
H44 C37 1_555 1_555
C38 C37 1_555 1_555
H45 C38 1_555 1_555
C39 C34 1_555 1_555
H46 C39 1_555 1_555
C2 C3 1_555 1_555
C8 C9 1_555 1_555
C20 C21 1_555 1_555
C32 C33 1_555 1_555
C38 C39 1_555 1_555

#END
