
#######################################################################
#
#                 Cambridge Crystallographic Data Centre
#                                CCDC 
#
#######################################################################
#
# If this CIF has been generated from an entry in the Cambridge 
# Structural Database, then it will include bibliographic, chemical, 
# crystal, experimental, refinement or atomic coordinate data resulting 
# from the CCDC's data processing and validation procedures.
#
#######################################################################

data_EQOMOO
_chemical_formula_moiety         'C33 H34 N3 P1 Se1'
_chemical_name_systematic        
'N-(1,3-dimesityl-1,3-dihydro-2H-imidazol-2-ylidene)-P,P-diphenylphosphinoselenoic amide'
_symmetry_cell_setting           orthorhombic
_symmetry_space_group_name_H-M   'P 21 21 21'
_symmetry_Int_Tables_number      19
_space_group_name_Hall           'P 2ac 2ab'
loop_
_symmetry_equiv_pos_site_id
_symmetry_equiv_pos_as_xyz
1 x,y,z
2 1/2-x,-y,1/2+z
3 1/2+x,1/2-y,-z
4 -x,1/2+y,1/2-z
_cell_length_a                   8.9524(3)
_cell_length_b                   18.2570(8)
_cell_length_c                   18.5025(8)
_cell_angle_alpha                90
_cell_angle_beta                 90
_cell_angle_gamma                90
_cell_volume                     3024.12
_exptl_crystal_colour            colorless
_exptl_crystal_description       block
_cell_formula_units_Z            4
loop_
_atom_site_label
_atom_site_type_symbol
_atom_site_fract_x
_atom_site_fract_y
_atom_site_fract_z
Se1 Se -0.15069(4) -0.42977(3) -0.05594(2)
P1 P 0.04823(9) -0.47659(4) -0.01612(4)
N1 N 0.1344(3) -0.53553(14) -0.06589(12)
N2 N 0.1379(4) -0.60822(16) -0.16994(14)
N3 N 0.1726(4) -0.49197(16) -0.18912(13)
C1 C 0.1454(4) -0.54194(17) -0.13631(15)
C2 C 0.1641(7) -0.5987(2) -0.24364(18)
H1 H 0.1661 -0.6355 -0.2783
C3 C 0.1854(6) -0.5283(3) -0.25557(17)
H2 H 0.2054 -0.5066 -0.3000
C4 C 0.2111(4) -0.4159(2) -0.17901(16)
C5 C 0.3488(4) -0.3997(2) -0.14800(17)
C6 C 0.3847(5) -0.3261(2) -0.14034(19)
H3 H 0.4744 -0.3137 -0.1181
C7 C 0.2927(5) -0.2705(2) -0.1644(2)
C8 C 0.1589(5) -0.2898(2) -0.19720(19)
H4 H 0.0963 -0.2531 -0.2144
C9 C 0.1162(5) -0.3620(2) -0.20503(17)
C10 C -0.0302(6) -0.3802(3) -0.2412(3)
H5 H -0.0929 -0.3376 -0.2416
H6 H -0.0790 -0.4188 -0.2151
H7 H -0.0118 -0.3958 -0.2900
C11 C 0.4557(5) -0.4588(2) -0.1271(2)
H8 H 0.5459 -0.4371 -0.1089
H9 H 0.4783 -0.4882 -0.1686
H10 H 0.4115 -0.4889 -0.0903
C12 C 0.3375(7) -0.1904(2) -0.1554(3)
H11 H 0.3110 -0.1741 -0.1078
H12 H 0.2863 -0.1612 -0.1907
H13 H 0.4434 -0.1856 -0.1620
C13 C 0.1154(4) -0.67710(19) -0.13390(18)
C14 C 0.2381(5) -0.7195(2) -0.1178(2)
C15 C 0.2153(5) -0.7872(2) -0.0839(2)
H14 H 0.2971 -0.8166 -0.0728
C16 C 0.0740(5) -0.8110(2) -0.0670(2)
C17 C -0.0448(5) -0.7662(2) -0.0815(2)
H15 H -0.1399 -0.7815 -0.0680
C18 C -0.0289(5) -0.6983(2) -0.1159(2)
C19 C 0.3963(5) -0.6954(3) -0.1368(4)
H16 H 0.4145 -0.7042 -0.1872
H17 H 0.4667 -0.7227 -0.1084
H18 H 0.4074 -0.6441 -0.1267
C20 C -0.1600(5) -0.6508(3) -0.1314(3)
H19 H -0.1558 -0.6079 -0.1015
H20 H -0.2503 -0.6773 -0.1216
H21 H -0.1583 -0.6365 -0.1814
C21 C 0.0517(7) -0.8863(2) -0.0345(3)
H22 H -0.0406 -0.8874 -0.0082
H23 H 0.1330 -0.8971 -0.0024
H24 H 0.0487 -0.9222 -0.0724
C22 C 0.1800(4) -0.40790(16) 0.01568(15)
C23 C 0.3179(4) -0.4301(2) 0.04167(18)
H25 H 0.3417 -0.4797 0.0421
C24 C 0.4209(5) -0.3795(3) 0.0670(2)
H26 H 0.5136 -0.3948 0.0839
C25 C 0.3836(6) -0.3056(3) 0.0669(2)
H27 H 0.4516 -0.2711 0.0839
C26 C 0.2478(7) -0.2835(2) 0.0419(2)
H28 H 0.2233 -0.2340 0.0423
C27 C 0.1462(5) -0.33384(18) 0.0159(2)
H29 H 0.0543 -0.3180 -0.0017
C28 C 0.0131(4) -0.52855(17) 0.06634(16)
C29 C 0.0966(4) -0.5896(2) 0.08260(19)
H30 H 0.1687 -0.6062 0.0503
C30 C 0.0728(6) -0.6266(3) 0.1481(2)
H31 H 0.1312 -0.6669 0.1601
C31 C -0.0365(7) -0.6032(3) 0.1942(2)
H32 H -0.0545 -0.6288 0.2368
C32 C -0.1198(7) -0.5425(3) 0.1783(2)
H33 H -0.1925 -0.5264 0.2104
C33 C -0.0957(5) -0.5050(2) 0.1142(2)
H34 H -0.1528 -0.4639 0.1033
loop_
_geom_bond_atom_site_label_1
_geom_bond_atom_site_label_2
_geom_bond_site_symmetry_1
_geom_bond_site_symmetry_2
Se1 P1 1_555 1_555
P1 N1 1_555 1_555
N1 C1 1_555 1_555
N2 C1 1_555 1_555
N3 C1 1_555 1_555
C2 N2 1_555 1_555
H1 C2 1_555 1_555
C3 N3 1_555 1_555
H2 C3 1_555 1_555
C4 N3 1_555 1_555
C5 C4 1_555 1_555
C6 C5 1_555 1_555
H3 C6 1_555 1_555
C7 C6 1_555 1_555
C8 C7 1_555 1_555
H4 C8 1_555 1_555
C9 C4 1_555 1_555
C10 C9 1_555 1_555
H5 C10 1_555 1_555
H6 C10 1_555 1_555
H7 C10 1_555 1_555
C11 C5 1_555 1_555
H8 C11 1_555 1_555
H9 C11 1_555 1_555
H10 C11 1_555 1_555
C12 C7 1_555 1_555
H11 C12 1_555 1_555
H12 C12 1_555 1_555
H13 C12 1_555 1_555
C13 N2 1_555 1_555
C14 C13 1_555 1_555
C15 C14 1_555 1_555
H14 C15 1_555 1_555
C16 C15 1_555 1_555
C17 C16 1_555 1_555
H15 C17 1_555 1_555
C18 C13 1_555 1_555
C19 C14 1_555 1_555
H16 C19 1_555 1_555
H17 C19 1_555 1_555
H18 C19 1_555 1_555
C20 C18 1_555 1_555
H19 C20 1_555 1_555
H20 C20 1_555 1_555
H21 C20 1_555 1_555
C21 C16 1_555 1_555
H22 C21 1_555 1_555
H23 C21 1_555 1_555
H24 C21 1_555 1_555
C22 P1 1_555 1_555
C23 C22 1_555 1_555
H25 C23 1_555 1_555
C24 C23 1_555 1_555
H26 C24 1_555 1_555
C25 C24 1_555 1_555
H27 C25 1_555 1_555
C26 C25 1_555 1_555
H28 C26 1_555 1_555
C27 C22 1_555 1_555
H29 C27 1_555 1_555
C28 P1 1_555 1_555
C29 C28 1_555 1_555
H30 C29 1_555 1_555
C30 C29 1_555 1_555
H31 C30 1_555 1_555
C31 C30 1_555 1_555
H32 C31 1_555 1_555
C32 C31 1_555 1_555
H33 C32 1_555 1_555
C33 C28 1_555 1_555
H34 C33 1_555 1_555
C2 C3 1_555 1_555
C8 C9 1_555 1_555
C17 C18 1_555 1_555
C26 C27 1_555 1_555
C32 C33 1_555 1_555

#END
