
#######################################################################
#
#                 Cambridge Crystallographic Data Centre
#                                CCDC 
#
#######################################################################
#
# If this CIF has been generated from an entry in the Cambridge 
# Structural Database, then it will include bibliographic, chemical, 
# crystal, experimental, refinement or atomic coordinate data resulting 
# from the CCDC's data processing and validation procedures.
#
#######################################################################

data_EQOROS
_chemical_name_common            
1,3,5,7-tetramethyl-4,4-difluoro-8-(4-aminophenyl)-4-bora-3a,4a-diaza-s-indacene
_chemical_formula_moiety         'C19 H20 B1 F2 N3'
_chemical_name_systematic        
4-(5,5-Difluoro-1,3,7,9-tetramethyl-5H-4\l^5^,5\l^5^-dipyrrolo[1,2-c:2',1'-f][1,3,2]diazaborinin-10-yl)aniline
_symmetry_cell_setting           monoclinic
_symmetry_space_group_name_H-M   'P 21/n'
_symmetry_Int_Tables_number      14
_space_group_name_Hall           '-P 2yn'
loop_
_symmetry_equiv_pos_site_id
_symmetry_equiv_pos_as_xyz
1 x,y,z
2 1/2-x,1/2+y,1/2-z
3 -x,-y,-z
4 1/2+x,1/2-y,1/2+z
_cell_length_a                   10.8454(10)
_cell_length_b                   11.8897(11)
_cell_length_c                   13.9990(13)
_cell_angle_alpha                90
_cell_angle_beta                 105.2620(10)
_cell_angle_gamma                90
_cell_volume                     1741.49
_exptl_crystal_colour            'black red'
_exptl_crystal_description       block
_cell_formula_units_Z            4
loop_
_atom_site_label
_atom_site_type_symbol
_atom_site_fract_x
_atom_site_fract_y
_atom_site_fract_z
N1 N 0.93254(12) 0.32334(10) 0.01701(9)
F1 F 1.12377(9) 0.37610(9) -0.02939(6)
F2 F 1.13047(9) 0.22370(8) 0.06821(7)
N2 N 1.11711(12) 0.40614(10) 0.13891(9)
C1 C 1.03646(15) 0.43201(13) 0.19961(11)
C2 C 0.90790(14) 0.40090(12) 0.17120(11)
C3 C 0.82515(14) 0.42917(13) 0.23740(11)
C4 C 0.85561(15) 0.34761(12) 0.08055(11)
C5 C 0.67603(15) 0.48416(14) 0.36721(12)
C6 C 1.10956(16) 0.49471(13) 0.28192(12)
C7 C 0.72861(16) 0.31328(13) 0.03240(13)
C8 C 0.81427(16) 0.35637(15) 0.31239(12)
C9 C 0.85787(17) 0.27838(13) -0.06738(12)
C10 C 0.74010(17) 0.38213(15) 0.37534(13)
C11 C 1.23266(15) 0.45145(14) 0.17966(12)
C12 C 0.75909(17) 0.52991(15) 0.22864(14)
B1 B 1.07860(18) 0.33220(15) 0.04593(14)
N3 N 0.59930(18) 0.5102(2) 0.42996(15)
C13 C 0.9075(3) 0.2427(2) -0.15234(16)
C14 C 0.68661(18) 0.55665(16) 0.29282(14)
C15 C 1.3438(2) 0.4388(2) 0.1370(2)
C16 C 0.73305(19) 0.27096(16) -0.05846(14)
C17 C 1.22958(18) 0.50673(16) 0.26709(14)
C18 C 1.0698(3) 0.5434(3) 0.36771(18)
C19 C 0.6100(2) 0.3215(2) 0.0679(2)
H1 H 0.6635(16) 0.2415(15) -0.1094(12)
H2 H 0.6408(17) 0.6252(16) 0.2857(13)
H3 H 0.7683(16) 0.5816(15) 0.1748(13)
H4 H 0.8619(14) 0.2826(14) 0.3188(11)
H5 H 0.541(2) 0.282(2) 0.0215(17)
H6 H 0.7295(16) 0.3273(15) 0.4285(13)
H7 H 1.329(2) 0.4769(18) 0.0718(17)
H8 H 0.588(2) 0.399(2) 0.0714(16)
H9 H 1.2995(17) 0.5459(16) 0.3093(13)
H10 H 0.993(2) 0.589(2) 0.3501(17)
H11 H 0.836(2) 0.2381(19) -0.2095(16)
H12 H 1.419(3) 0.472(2) 0.1756(18)
H13 H 1.138(2) 0.590(2) 0.4087(17)
H14 H 0.584(2) 0.578(2) 0.4362(17)
H15 H 0.952(2) 0.169(2) -0.1387(15)
H16 H 0.609(2) 0.4678(19) 0.4850(17)
H17 H 1.357(2) 0.364(3) 0.1207(18)
H18 H 1.046(2) 0.489(2) 0.4097(19)
H19 H 0.971(2) 0.297(2) -0.1657(17)
H20 H 0.619(2) 0.2852(19) 0.1375(18)
loop_
_geom_bond_atom_site_label_1
_geom_bond_atom_site_label_2
_geom_bond_site_symmetry_1
_geom_bond_site_symmetry_2
N1 C4 1_555 1_555
F1 B1 1_555 1_555
F2 B1 1_555 1_555
N2 C1 1_555 1_555
C1 C2 1_555 1_555
C2 C3 1_555 1_555
C3 C8 1_555 1_555
C4 C2 1_555 1_555
C5 C10 1_555 1_555
C6 C1 1_555 1_555
C7 C4 1_555 1_555
C8 C10 1_555 1_555
C9 N1 1_555 1_555
C10 H6 1_555 1_555
C11 N2 1_555 1_555
C12 C3 1_555 1_555
B1 N1 1_555 1_555
N3 C5 1_555 1_555
C13 C9 1_555 1_555
C14 C5 1_555 1_555
C15 C11 1_555 1_555
C16 C7 1_555 1_555
C17 C6 1_555 1_555
C18 C6 1_555 1_555
C19 C7 1_555 1_555
H1 C16 1_555 1_555
H2 C14 1_555 1_555
H3 C12 1_555 1_555
H4 C8 1_555 1_555
H5 C19 1_555 1_555
H7 C15 1_555 1_555
H8 C19 1_555 1_555
H9 C17 1_555 1_555
H10 C18 1_555 1_555
H11 C13 1_555 1_555
H12 C15 1_555 1_555
H13 C18 1_555 1_555
H14 N3 1_555 1_555
H15 C13 1_555 1_555
H16 N3 1_555 1_555
H17 C15 1_555 1_555
H18 C18 1_555 1_555
H19 C13 1_555 1_555
H20 C19 1_555 1_555
N2 B1 1_555 1_555
C9 C16 1_555 1_555
C11 C17 1_555 1_555
C12 C14 1_555 1_555

#END
