
#######################################################################
#
#                 Cambridge Crystallographic Data Centre
#                                CCDC 
#
#######################################################################
#
# If this CIF has been generated from an entry in the Cambridge 
# Structural Database, then it will include bibliographic, chemical, 
# crystal, experimental, refinement or atomic coordinate data resulting 
# from the CCDC's data processing and validation procedures.
#
#######################################################################

data_EQOSAG
_chemical_formula_moiety         'C31 H27 N5 O1'
_chemical_name_systematic        
1-(4-(5-(4-tert-Butylphenyl)-1,3,4-oxadiazol-2-yl)benzyl)-2-(pyridin-2-yl)-1H-benzimidazole
_symmetry_cell_setting           triclinic
_symmetry_space_group_name_H-M   'P -1'
_symmetry_Int_Tables_number      2
_space_group_name_Hall           '-P 1'
loop_
_symmetry_equiv_pos_site_id
_symmetry_equiv_pos_as_xyz
1 x,y,z
2 -x,-y,-z
_cell_length_a                   6.2430(7)
_cell_length_b                   9.7305(11)
_cell_length_c                   20.938(2)
_cell_angle_alpha                92.008(2)
_cell_angle_beta                 94.428(2)
_cell_angle_gamma                94.767(2)
_cell_volume                     1262.65
_exptl_crystal_colour            colorless
_exptl_crystal_description       block
_cell_formula_units_Z            2
loop_
_atom_site_label
_atom_site_type_symbol
_atom_site_fract_x
_atom_site_fract_y
_atom_site_fract_z
C1 C 0.8374(3) 0.5158(2) 0.33529(10)
C2 C 0.6755(4) 0.4778(2) 0.28728(10)
H1 H 0.5447 0.5214 0.2840
C3 C 0.7143(4) 0.3738(2) 0.24467(11)
H2 H 0.6068 0.3445 0.2113
C4 C 0.9073(4) 0.3096(2) 0.24895(11)
H3 H 0.9284 0.2390 0.2181
C5 C 1.0660(4) 0.3468(2) 0.29677(11)
H4 H 1.1964 0.3027 0.2997
C6 C 1.0304(3) 0.4517(2) 0.34117(10)
C7 C 1.0452(3) 0.6014(2) 0.41979(10)
C8 C 1.1294(3) 0.6831(2) 0.47871(10)
C9 C 1.2936(3) 0.6343(2) 0.51751(10)
H5 H 1.3470 0.5484 0.5070
C10 C 1.3786(4) 0.7106(3) 0.57109(11)
H6 H 1.4938 0.6797 0.5976
C11 C 1.2946(5) 0.8323(3) 0.58566(13)
H7 H 1.3476 0.8865 0.6231
C12 C 1.1315(5) 0.8743(3) 0.54489(14)
H8 H 1.0744 0.9591 0.5552
C13 C 0.6709(3) 0.6948(2) 0.39949(10)
H9 H 0.7068 0.7470 0.4409
H10 H 0.5405 0.6317 0.4038
C14 C 0.6218(3) 0.7950(2) 0.34793(9)
C15 C 0.4178(3) 0.8446(2) 0.34133(10)
H11 H 0.3150 0.8186 0.3708
C16 C 0.3632(3) 0.9306(2) 0.29276(10)
H12 H 0.2239 0.9634 0.2891
C17 C 0.5123(3) 0.9691(2) 0.24909(9)
C18 C 0.7191(3) 0.9256(2) 0.25684(10)
H13 H 0.8241 0.9552 0.2286
C19 C 0.7716(3) 0.8392(2) 0.30578(10)
H14 H 0.9129 0.8096 0.3106
C20 C 0.4469(3) 1.0492(2) 0.19423(10)
C21 C 0.4719(3) 1.1457(2) 0.10492(10)
C22 C 0.5720(3) 1.1924(2) 0.04800(10)
C23 C 0.4751(4) 1.2862(3) 0.01010(12)
H15 H 0.3416 1.3176 0.0206
C24 C 0.5701(4) 1.3352(3) -0.04309(12)
H16 H 0.5005 1.4005 -0.0682
C25 C 0.7631(3) 1.2921(2) -0.06098(10)
C26 C 0.8556(4) 1.1964(3) -0.02253(12)
H17 H 0.9872 1.1630 -0.0335
C27 C 0.7640(4) 1.1477(3) 0.03113(12)
H18 H 0.8338 1.0830 0.0565
C28 C 0.8729(3) 1.3547(2) -0.11730(10)
C29 C 1.0123(4) 1.4862(3) -0.09232(11)
H19 H 0.9193 1.5545 -0.0770
H20 H 1.0924 1.5242 -0.1271
H21 H 1.1140 1.4637 -0.0570
C30 C 0.7079(4) 1.3926(3) -0.17049(11)
H22 H 0.6114 1.3107 -0.1845
H23 H 0.7835 1.4268 -0.2069
H24 H 0.6232 1.4646 -0.1541
C31 C 1.0188(4) 1.2554(3) -0.14707(12)
H25 H 1.1339 1.2357 -0.1151
H26 H 1.0823 1.2977 -0.1838
H27 H 0.9335 1.1692 -0.1614
N1 N 0.8501(3) 0.61301(17) 0.38589(8)
N2 N 1.1583(3) 0.50748(18) 0.39475(8)
N3 N 1.0480(4) 0.8027(2) 0.49131(10)
N4 N 0.2668(3) 1.1030(2) 0.18195(9)
N5 N 0.2833(3) 1.1668(2) 0.12289(9)
O1 O 0.5856(2) 1.07087(14) 0.14775(6)
loop_
_geom_bond_atom_site_label_1
_geom_bond_atom_site_label_2
_geom_bond_site_symmetry_1
_geom_bond_site_symmetry_2
C1 C2 1_555 1_555
C2 H1 1_555 1_555
C3 C2 1_555 1_555
H2 C3 1_555 1_555
C4 C3 1_555 1_555
H3 C4 1_555 1_555
C5 C4 1_555 1_555
H4 C5 1_555 1_555
C6 C1 1_555 1_555
C7 C8 1_555 1_555
C8 C9 1_555 1_555
C9 H5 1_555 1_555
C10 C9 1_555 1_555
H6 C10 1_555 1_555
C11 C10 1_555 1_555
H7 C11 1_555 1_555
C12 C11 1_555 1_555
H8 C12 1_555 1_555
C13 H9 1_555 1_555
H10 C13 1_555 1_555
C14 C13 1_555 1_555
C15 C14 1_555 1_555
H11 C15 1_555 1_555
C16 C15 1_555 1_555
H12 C16 1_555 1_555
C17 C16 1_555 1_555
C18 C17 1_555 1_555
H13 C18 1_555 1_555
C19 C14 1_555 1_555
H14 C19 1_555 1_555
C20 C17 1_555 1_555
C21 C22 1_555 1_555
C22 C23 1_555 1_555
C23 H15 1_555 1_555
C24 C23 1_555 1_555
H16 C24 1_555 1_555
C25 C24 1_555 1_555
C26 C25 1_555 1_555
H17 C26 1_555 1_555
C27 C22 1_555 1_555
H18 C27 1_555 1_555
C28 C25 1_555 1_555
C29 C28 1_555 1_555
H19 C29 1_555 1_555
H20 C29 1_555 1_555
H21 C29 1_555 1_555
C30 C28 1_555 1_555
H22 C30 1_555 1_555
H23 C30 1_555 1_555
H24 C30 1_555 1_555
C31 C28 1_555 1_555
H25 C31 1_555 1_555
H26 C31 1_555 1_555
H27 C31 1_555 1_555
N1 C1 1_555 1_555
N2 C6 1_555 1_555
N3 C8 1_555 1_555
N4 C20 1_555 1_555
N5 C21 1_555 1_555
O1 C20 1_555 1_555
C5 C6 1_555 1_555
C7 N1 1_555 1_555
C7 N2 1_555 1_555
C12 N3 1_555 1_555
C13 N1 1_555 1_555
C18 C19 1_555 1_555
C21 O1 1_555 1_555
C26 C27 1_555 1_555
N4 N5 1_555 1_555

#END
