
#######################################################################
#
#                 Cambridge Crystallographic Data Centre
#                                CCDC 
#
#######################################################################
#
# If this CIF has been generated from an entry in the Cambridge 
# Structural Database, then it will include bibliographic, chemical, 
# crystal, experimental, refinement or atomic coordinate data resulting 
# from the CCDC's data processing and validation procedures.
#
#######################################################################

data_EQUBAV
_chemical_compound_source        
'tuber of Icacina trichantha Oliv. (Icacinaceae)'
_chemical_name_common            'Icacinlactone K'
_chemical_formula_moiety         'C19 H20 O7'
_chemical_name_systematic        
3,14-dihydroxy-12-methoxy-15-oxo-3,17:6,15-diepoxypodocarpa-8,11,13-triene-13-carbaldehyde
_symmetry_cell_setting           orthorhombic
_symmetry_space_group_name_H-M   'P 21 21 21'
_symmetry_Int_Tables_number      19
_space_group_name_Hall           'P 2ac 2ab'
loop_
_symmetry_equiv_pos_site_id
_symmetry_equiv_pos_as_xyz
1 x,y,z
2 1/2-x,-y,1/2+z
3 1/2+x,1/2-y,-z
4 -x,1/2+y,1/2-z
_cell_length_a                   6.7010(10)
_cell_length_b                   12.6640(10)
_cell_length_c                   57.3840(10)
_cell_angle_alpha                90
_cell_angle_beta                 90
_cell_angle_gamma                90
_cell_volume                     4869.69
_exptl_crystal_colour            colorless
_exptl_crystal_description       needle
_chemical_melting_point          '188-189 deg.C'
_cell_formula_units_Z            12
loop_
_atom_site_label
_atom_site_type_symbol
_atom_site_fract_x
_atom_site_fract_y
_atom_site_fract_z
C1 C 0.3024(3) 0.35867(15) 0.10011(3)
H1 H 0.4400 0.3870 0.1004
H2 H 0.2169 0.4090 0.0915
C2 C 0.3001(3) 0.24941(16) 0.08782(3)
H3 H 0.2077 0.2514 0.0744
H4 H 0.4353 0.2326 0.0819
C3 C 0.2338(3) 0.16516(16) 0.10481(3)
O1 O 0.2197(3) 0.06793(12) 0.09359(3)
H5 H 0.2027 0.0201 0.1035
C4 C 0.3701(3) 0.16133(15) 0.12648(3)
C5 C 0.3712(3) 0.27157(14) 0.13785(3)
H6 H 0.5086 0.3019 0.1366
C6 C 0.3256(3) 0.25042(14) 0.16366(3)
H7 H 0.4541 0.2493 0.1725
O2 O 0.2356(3) 0.14468(11) 0.16453(3)
C7 C 0.1843(4) 0.32926(15) 0.17520(3)
H8 H 0.0461 0.3019 0.1744
H9 H 0.2205 0.3369 0.1918
C8 C 0.1935(3) 0.43608(14) 0.16351(3)
C9 C 0.2092(3) 0.44670(14) 0.13936(3)
C10 C 0.2239(3) 0.34578(14) 0.12528(3)
C11 C 0.2172(3) 0.54667(14) 0.12874(3)
H10 H 0.2263 0.5525 0.1123
C12 C 0.2117(3) 0.63677(14) 0.14251(3)
O3 O 0.2207(2) 0.73660(11) 0.13413(2)
C13 C 0.2354(4) 0.75086(17) 0.10949(4)
H11 H 0.3568 0.7165 0.1038
H12 H 0.2408 0.8265 0.1059
H13 H 0.1186 0.7194 0.1019
C14 C 0.1979(3) 0.62867(14) 0.16693(3)
C15 C 0.1886(3) 0.52759(15) 0.17723(3)
O4 O 0.1766(2) 0.51565(11) 0.20045(2)
H14 H 0.1830 0.5751 0.2069
C16 C 0.1924(3) 0.72257(15) 0.18138(4)
H15 H 0.1982 0.7894 0.1739
O5 O 0.1805(2) 0.72062(11) 0.20275(3)
C17 C 0.5790(3) 0.11895(16) 0.12137(3)
H16 H 0.6598 0.1218 0.1356
H17 H 0.6418 0.1622 0.1092
H18 H 0.5695 0.0457 0.1160
C18 C 0.2684(3) 0.09233(16) 0.14447(3)
O6 O 0.2196(3) 0.00113(12) 0.14200(3)
C19 C 0.0179(3) 0.29310(15) 0.12322(4)
H19 H -0.0426 0.2867 0.1389
H20 H -0.0707 0.3377 0.1136
O7 O 0.0351(2) 0.18952(12) 0.11280(3)
C20 C 0.7784(3) 0.80629(14) 0.23308(3)
H21 H 0.9083 0.7696 0.2317
H22 H 0.6795 0.7557 0.2394
C21 C 0.7986(4) 0.90182(15) 0.24983(3)
H23 H 0.7245 0.8877 0.2644
H24 H 0.9408 0.9132 0.2538
C22 C 0.7151(3) 0.99923(15) 0.23802(3)
O8 O 0.6991(3) 1.08234(11) 0.25388(3)
H25 H 0.6664 1.1377 0.2468
C23 C 0.8432(3) 1.02831(15) 0.21657(3)
C24 C 0.8603(3) 0.92986(14) 0.20084(3)
H26 H 0.9989 0.9009 0.2018
C25 C 0.8242(3) 0.97342(15) 0.17627(3)
H27 H 0.9559 0.9904 0.1690
O9 O 0.7118(3) 1.07247(11) 0.17963(3)
C26 C 0.7064(4) 0.90251(15) 0.15977(3)
H28 H 0.5669 0.9280 0.1590
H29 H 0.7641 0.9082 0.1439
C27 C 0.7062(3) 0.78808(14) 0.16707(3)
C28 C 0.7003(3) 0.75868(14) 0.19052(3)
C29 C 0.7108(3) 0.84515(14) 0.20887(3)
C30 C 0.6918(3) 0.65200(15) 0.19703(3)
H30 H 0.6848 0.6332 0.2130
C31 C 0.6936(3) 0.57435(14) 0.18013(4)
O10 O 0.6866(2) 0.46902(11) 0.18500(3)
C32 C 0.7037(3) 0.60100(15) 0.15620(3)
C33 C 0.7082(3) 0.70871(15) 0.15004(3)
O11 O 0.7178(2) 0.73893(12) 0.12754(2)
H31 H 0.7063 0.6857 0.1189
C34 C 0.6844(4) 0.44093(16) 0.20925(4)
H32 H 0.8058 0.4673 0.2168
H33 H 0.6786 0.3639 0.2108
H34 H 0.5672 0.4724 0.2168
C35 C 0.7130(3) 0.51960(16) 0.13850(4)
H35 H 0.7120 0.4482 0.1436
O12 O 0.7222(2) 0.53583(13) 0.11734(3)
C36 C 1.0461(4) 1.07762(19) 0.22263(4)
H36 H 1.1176 1.0950 0.2082
H37 H 1.1249 1.0272 0.2318
H38 H 1.0252 1.1421 0.2318
C37 C 0.7244(4) 1.10550(16) 0.20182(4)
O13 O 0.6502(3) 1.18691(12) 0.20829(3)
C38 C 0.5041(3) 0.89591(16) 0.21264(3)
H39 H 0.4562 0.9270 0.1978
H40 H 0.4074 0.8412 0.2176
O14 O 0.5161(2) 0.97716(12) 0.23025(3)
C39 C 0.7359(3) 0.00872(14) 0.06894(3)
H41 H 0.6015 0.0412 0.0691
H42 H 0.8293 0.0574 0.0769
C40 C 0.7306(3) -0.09873(15) 0.08191(3)
H43 H 0.8241 -0.0971 0.0953
H44 H 0.5946 -0.1120 0.0880
C41 C 0.7897(3) -0.18617(15) 0.06519(3)
O15 O 0.7993(2) -0.28276(11) 0.07706(2)
H45 H 0.8166 -0.3319 0.0674
C42 C 0.6474(3) -0.19093(14) 0.04407(3)
C43 C 0.6473(3) -0.08173(14) 0.03217(3)
H46 H 0.5122 -0.0491 0.0339
C44 C 0.6842(3) -0.10615(15) 0.00630(3)
H47 H 0.5528 -0.1086 -0.0019
O16 O 0.7739(2) -0.21216(11) 0.00573(2)
C45 C 0.8212(3) -0.02885(15) -0.00656(3)
H48 H 0.9585 -0.0576 -0.0068
H49 H 0.7754 -0.0218 -0.0229
C46 C 0.8236(3) 0.07879(15) 0.00476(3)
C47 C 0.8191(3) 0.09083(15) 0.02902(3)
C48 C 0.8039(3) -0.00892(14) 0.04363(3)
C49 C 0.8214(3) 0.19103(15) 0.03955(3)
H50 H 0.8197 0.1972 0.0560
C50 C 0.8259(3) 0.28083(15) 0.02571(4)
O17 O 0.8254(3) 0.38111(11) 0.03377(3)
C51 C 0.8290(3) 0.27157(15) 0.00112(4)
C52 C 0.8298(3) 0.17023(15) -0.00903(3)
O18 O 0.8333(2) 0.15950(12) -0.03248(2)
H51 H 0.8352 0.2195 -0.0387
C53 C 0.8013(4) 0.39724(17) 0.05810(4)
H52 H 0.6772 0.3638 0.0633
H53 H 0.7958 0.4731 0.0614
H54 H 0.9144 0.3659 0.0664
C54 C 0.8264(3) 0.36535(16) -0.01344(4)
H55 H 0.8213 0.4322 -0.0060
O19 O 0.8306(3) 0.36344(12) -0.03488(3)
C55 C 0.4386(3) -0.23188(16) 0.05004(3)
H56 H 0.3538 -0.2286 0.0361
H57 H 0.3805 -0.1881 0.0624
H58 H 0.4479 -0.3052 0.0554
C56 C 0.7428(3) -0.26243(15) 0.02603(3)
O20 O 0.7883(3) -0.35429(11) 0.02863(3)
C57 C 1.0078(3) -0.06520(15) 0.04496(3)
H59 H 1.0607 -0.0760 0.0290
H60 H 1.1036 -0.0206 0.0536
O21 O 0.9869(2) -0.16622(11) 0.05652(3)
loop_
_geom_bond_atom_site_label_1
_geom_bond_atom_site_label_2
_geom_bond_site_symmetry_1
_geom_bond_site_symmetry_2
C1 H1 1_555 1_555
H2 C1 1_555 1_555
C2 C1 1_555 1_555
H3 C2 1_555 1_555
H4 C2 1_555 1_555
C3 C2 1_555 1_555
O1 C3 1_555 1_555
H5 O1 1_555 1_555
C4 C3 1_555 1_555
C5 C4 1_555 1_555
H6 C5 1_555 1_555
C6 C5 1_555 1_555
H7 C6 1_555 1_555
O2 C6 1_555 1_555
C7 C6 1_555 1_555
H8 C7 1_555 1_555
H9 C7 1_555 1_555
C8 C7 1_555 1_555
C9 C8 1_555 1_555
C10 C1 1_555 1_555
C11 C9 1_555 1_555
H10 C11 1_555 1_555
C12 C11 1_555 1_555
O3 C12 1_555 1_555
C13 O3 1_555 1_555
H11 C13 1_555 1_555
H12 C13 1_555 1_555
H13 C13 1_555 1_555
C14 C12 1_555 1_555
C15 C8 1_555 1_555
O4 C15 1_555 1_555
H14 O4 1_555 1_555
C16 C14 1_555 1_555
H15 C16 1_555 1_555
O5 C16 1_555 1_555
C17 C4 1_555 1_555
H16 C17 1_555 1_555
H17 C17 1_555 1_555
H18 C17 1_555 1_555
C18 C4 1_555 1_555
O6 C18 1_555 1_555
C19 C10 1_555 1_555
H19 C19 1_555 1_555
H20 C19 1_555 1_555
O7 C3 1_555 1_555
C20 H21 1_555 1_555
H22 C20 1_555 1_555
C21 C20 1_555 1_555
H23 C21 1_555 1_555
H24 C21 1_555 1_555
C22 C21 1_555 1_555
O8 C22 1_555 1_555
H25 O8 1_555 1_555
C23 C22 1_555 1_555
C24 C23 1_555 1_555
H26 C24 1_555 1_555
C25 C24 1_555 1_555
H27 C25 1_555 1_555
O9 C25 1_555 1_555
C26 C25 1_555 1_555
H28 C26 1_555 1_555
H29 C26 1_555 1_555
C27 C26 1_555 1_555
C28 C27 1_555 1_555
C29 C20 1_555 1_555
C30 C28 1_555 1_555
H30 C30 1_555 1_555
C31 C30 1_555 1_555
O10 C31 1_555 1_555
C32 C31 1_555 1_555
C33 C27 1_555 1_555
O11 C33 1_555 1_555
H31 O11 1_555 1_555
C34 O10 1_555 1_555
H32 C34 1_555 1_555
H33 C34 1_555 1_555
H34 C34 1_555 1_555
C35 C32 1_555 1_555
H35 C35 1_555 1_555
O12 C35 1_555 1_555
C36 C23 1_555 1_555
H36 C36 1_555 1_555
H37 C36 1_555 1_555
H38 C36 1_555 1_555
C37 C23 1_555 1_555
O13 C37 1_555 1_555
C38 C29 1_555 1_555
H39 C38 1_555 1_555
H40 C38 1_555 1_555
O14 C22 1_555 1_555
C39 H41 1_555 1_555
H42 C39 1_555 1_555
C40 C39 1_555 1_555
H43 C40 1_555 1_555
H44 C40 1_555 1_555
C41 C40 1_555 1_555
O15 C41 1_555 1_555
H45 O15 1_555 1_555
C42 C41 1_555 1_555
C43 C42 1_555 1_555
H46 C43 1_555 1_555
C44 C43 1_555 1_555
H47 C44 1_555 1_555
O16 C44 1_555 1_555
C45 C44 1_555 1_555
H48 C45 1_555 1_555
H49 C45 1_555 1_555
C46 C45 1_555 1_555
C47 C46 1_555 1_555
C48 C39 1_555 1_555
C49 C47 1_555 1_555
H50 C49 1_555 1_555
C50 C49 1_555 1_555
O17 C50 1_555 1_555
C51 C50 1_555 1_555
C52 C46 1_555 1_555
O18 C52 1_555 1_555
H51 O18 1_555 1_555
C53 O17 1_555 1_555
H52 C53 1_555 1_555
H53 C53 1_555 1_555
H54 C53 1_555 1_555
C54 C51 1_555 1_555
H55 C54 1_555 1_555
O19 C54 1_555 1_555
C55 C42 1_555 1_555
H56 C55 1_555 1_555
H57 C55 1_555 1_555
H58 C55 1_555 1_555
C56 C42 1_555 1_555
O20 C56 1_555 1_555
C57 C48 1_555 1_555
H59 C57 1_555 1_555
H60 C57 1_555 1_555
O21 C41 1_555 1_555
C5 C10 1_555 1_555
O2 C18 1_555 1_555
C9 C10 1_555 1_555
C14 C15 1_555 1_555
C19 O7 1_555 1_555
C24 C29 1_555 1_555
O9 C37 1_555 1_555
C28 C29 1_555 1_555
C32 C33 1_555 1_555
C38 O14 1_555 1_555
C43 C48 1_555 1_555
O16 C56 1_555 1_555
C47 C48 1_555 1_555
C51 C52 1_555 1_555
C57 O21 1_555 1_555

#END
