
#######################################################################
#
#                 Cambridge Crystallographic Data Centre
#                                CCDC 
#
#######################################################################
#
# If this CIF has been generated from an entry in the Cambridge 
# Structural Database, then it will include bibliographic, chemical, 
# crystal, experimental, refinement or atomic coordinate data resulting 
# from the CCDC's data processing and validation procedures.
#
#######################################################################

data_EQUBEZ
_chemical_compound_source        
'tuber of Icacina trichantha Oliv. (Icacinaceae)'
_chemical_name_common            '7alpha-Hydroxyicacenone monohydrate'
_chemical_formula_moiety         'C19 H20 O8,H2 O1'
_chemical_name_systematic        
'11,16,20-trihydroxy-15-methyl-8,13,17-trioxahexacyclo[14.2.2.1^1,12^.0^2,10^.0^5,9^.0^15,21^]henicosa-5(9),6-diene-4,14-dione monohydrate'
_chemical_properties_biological  'cytotoxic activity'
_symmetry_cell_setting           monoclinic
_symmetry_space_group_name_H-M   'P 21'
_symmetry_Int_Tables_number      4
_space_group_name_Hall           'P 2yb'
loop_
_symmetry_equiv_pos_site_id
_symmetry_equiv_pos_as_xyz
1 x,y,z
2 -x,1/2+y,-z
_cell_length_a                   10.864(1)
_cell_length_b                   6.033(1)
_cell_length_c                   12.941(1)
_cell_angle_alpha                90
_cell_angle_beta                 100.710(1)
_cell_angle_gamma                90
_cell_volume                     833.411
_exptl_crystal_colour            colorless
_exptl_crystal_description       needle
_chemical_melting_point          '244-245 deg.C'
_cell_formula_units_Z            2
loop_
_atom_site_label
_atom_site_type_symbol
_atom_site_fract_x
_atom_site_fract_y
_atom_site_fract_z
C1 C 0.28665(16) 0.3585(4) 0.08608(13)
H1 H 0.2361 0.4950 0.0863
H2 H 0.2596 0.2828 0.0178
C2 C 0.42806(17) 0.4191(3) 0.10075(13)
H3 H 0.4395 0.5821 0.1130
O1 O 0.48029(12) 0.3544(3) 0.01255(10)
H4 H 0.4855 0.4655 -0.0256
C3 C 0.50177(16) 0.2899(3) 0.19485(14)
O2 O 0.62921(11) 0.3223(2) 0.20711(10)
H5 H 0.6513 0.3100 0.1485
C4 C 0.45797(16) 0.3476(3) 0.29796(13)
C5 C 0.31320(15) 0.3364(3) 0.27849(13)
H6 H 0.2777 0.4897 0.2716
C6 C 0.28918(16) 0.2311(3) 0.37985(14)
H7 H 0.2982 0.3484 0.4353
O3 O 0.39156(12) 0.0727(3) 0.40832(10)
C7 C 0.16266(16) 0.1180(3) 0.37487(14)
H8 H 0.1676 0.0139 0.4356
O4 O 0.07950(13) 0.2952(3) 0.38644(11)
H9 H 0.0145 0.2440 0.4040
C8 C 0.12019(16) -0.0113(3) 0.27072(14)
H10 H 0.1737 -0.1468 0.2734
C9 C 0.13135(15) 0.1180(3) 0.16929(14)
H11 H 0.1173 0.0075 0.1107
C10 C 0.26600(15) 0.2050(3) 0.17637(13)
C11 C 0.02776(16) 0.2947(3) 0.14152(15)
H12 H 0.0407 0.4115 0.1962
H13 H 0.0352 0.3647 0.0738
C12 C -0.10408(16) 0.1999(3) 0.13293(14)
O5 O -0.19352(13) 0.2890(3) 0.07560(11)
C13 C -0.11518(17) 0.0045(3) 0.19592(15)
C14 C -0.01185(17) -0.0848(3) 0.25861(14)
O6 O -0.04212(12) -0.2631(2) 0.31130(11)
C15 C -0.17062(18) -0.2902(4) 0.28042(16)
H14 H -0.2178 -0.4047 0.3050
C16 C -0.21961(17) -0.1328(4) 0.21097(15)
H15 H -0.3050 -0.1156 0.1786
C17 C 0.51352(17) 0.5661(3) 0.34507(14)
H16 H 0.6008 0.5426 0.3795
H17 H 0.4651 0.6195 0.3968
H18 H 0.5103 0.6764 0.2890
C18 C 0.49477(17) 0.1571(3) 0.37648(14)
O7 O 0.59721(13) 0.0840(3) 0.41011(10)
C19 C 0.34824(16) -0.0006(3) 0.16731(14)
H19 H 0.3410 -0.1056 0.2247
H20 H 0.3170 -0.0762 0.0996
O8 O 0.47832(11) 0.0570(2) 0.17310(10)
O9 O -0.13010(14) 0.1558(3) 0.45734(12)
H21 H -0.117(3) 0.061(4) 0.5053(19)
H22 H -0.1957(19) 0.147(6) 0.4124(19)
loop_
_geom_bond_atom_site_label_1
_geom_bond_atom_site_label_2
_geom_bond_site_symmetry_1
_geom_bond_site_symmetry_2
C1 H1 1_555 1_555
H2 C1 1_555 1_555
C2 C1 1_555 1_555
H3 C2 1_555 1_555
O1 C2 1_555 1_555
H4 O1 1_555 1_555
C3 C2 1_555 1_555
O2 C3 1_555 1_555
H5 O2 1_555 1_555
C4 C3 1_555 1_555
C5 C4 1_555 1_555
H6 C5 1_555 1_555
C6 C5 1_555 1_555
H7 C6 1_555 1_555
O3 C6 1_555 1_555
C7 C6 1_555 1_555
H8 C7 1_555 1_555
O4 C7 1_555 1_555
H9 O4 1_555 1_555
C8 C7 1_555 1_555
H10 C8 1_555 1_555
C9 C8 1_555 1_555
H11 C9 1_555 1_555
C10 C1 1_555 1_555
C11 C9 1_555 1_555
H12 C11 1_555 1_555
H13 C11 1_555 1_555
C12 C11 1_555 1_555
O5 C12 1_555 1_555
C13 C12 1_555 1_555
C14 C8 1_555 1_555
O6 C14 1_555 1_555
C15 O6 1_555 1_555
H14 C15 1_555 1_555
C16 C13 1_555 1_555
H15 C16 1_555 1_555
C17 C4 1_555 1_555
H16 C17 1_555 1_555
H17 C17 1_555 1_555
H18 C17 1_555 1_555
C18 C4 1_555 1_555
O7 C18 1_555 1_555
C19 C10 1_555 1_555
H19 C19 1_555 1_555
H20 C19 1_555 1_555
O8 C3 1_555 1_555
O9 H21 1_555 1_555
H22 O9 1_555 1_555
C5 C10 1_555 1_555
O3 C18 1_555 1_555
C9 C10 1_555 1_555
C13 C14 1_555 1_555
C15 C16 1_555 1_555
C19 O8 1_555 1_555

#END
