
#######################################################################
#
#                 Cambridge Crystallographic Data Centre
#                                CCDC 
#
#######################################################################
#
# If this CIF has been generated from an entry in the Cambridge 
# Structural Database, then it will include bibliographic, chemical, 
# crystal, experimental, refinement or atomic coordinate data resulting 
# from the CCDC's data processing and validation procedures.
#
#######################################################################

data_EQUCEA
_chemical_formula_moiety         'C42 H40 B1 N1'
_chemical_name_systematic        
4'-(dimesitylboryl)-N,N-diphenylbiphenyl-4-amine
_symmetry_cell_setting           monoclinic
_symmetry_space_group_name_H-M   'P 21/c'
_symmetry_Int_Tables_number      14
_space_group_name_Hall           '-P 2ybc'
loop_
_symmetry_equiv_pos_site_id
_symmetry_equiv_pos_as_xyz
1 x,y,z
2 -x,1/2+y,1/2-z
3 -x,-y,-z
4 x,1/2-y,1/2+z
_cell_length_a                   17.866(3)
_cell_length_b                   9.2669(17)
_cell_length_c                   21.413(4)
_cell_angle_alpha                90
_cell_angle_beta                 110.0574(19)
_cell_angle_gamma                90
_cell_volume                     3330.17
_exptl_crystal_description       needle
_cell_formula_units_Z            4
loop_
_atom_site_label
_atom_site_type_symbol
_atom_site_fract_x
_atom_site_fract_y
_atom_site_fract_z
B1 B 0.71088(14) 0.4545(3) 0.45484(12)
C1 C 0.65432(17) -0.0890(3) 0.57721(14)
H1 H 0.6505 -0.0692 0.6200
H2 H 0.6975 -0.1548 0.5822
H3 H 0.6054 -0.1313 0.5489
C2 C 0.66935(14) 0.0494(2) 0.54671(11)
C3 C 0.60867(13) 0.1463(2) 0.51812(11)
H4 H 0.5579 0.1251 0.5183
C4 C 0.62029(12) 0.2738(2) 0.48914(10)
C5 C 0.54988(13) 0.3714(3) 0.45981(14)
H5 H 0.5032 0.3271 0.4639
H6 H 0.5419 0.3878 0.4137
H7 H 0.5596 0.4619 0.4831
C6 C 0.69690(12) 0.3118(2) 0.48942(10)
C7 C 0.75980(12) 0.2144(3) 0.52041(11)
C8 C 0.74451(14) 0.0862(3) 0.54707(12)
H8 H 0.7864 0.0225 0.5660
C9 C 0.84443(14) 0.2408(3) 0.52328(14)
H9 H 0.8714 0.3003 0.5610
H10 H 0.8438 0.2886 0.4833
H11 H 0.8718 0.1502 0.5273
C10 C 0.61128(16) 0.7250(3) 0.41633(13)
H12 H 0.6508 0.7979 0.4201
H13 H 0.6226 0.6772 0.4583
H14 H 0.5596 0.7689 0.4037
C11 C 0.61273(13) 0.6161(2) 0.36413(11)
C12 C 0.56419(13) 0.6408(3) 0.29893(12)
H15 H 0.5324 0.7230 0.2892
C13 C 0.56147(14) 0.5473(3) 0.24794(11)
C14 C 0.50650(18) 0.5771(3) 0.17799(13)
H16 H 0.5192 0.5133 0.1477
H17 H 0.5130 0.6753 0.1665
H18 H 0.4523 0.5616 0.1752
C15 C 0.60967(14) 0.4272(3) 0.26405(12)
H19 H 0.6101 0.3649 0.2301
C16 C 0.65763(12) 0.3949(2) 0.32858(11)
C17 C 0.65973(12) 0.4902(2) 0.38062(10)
C18 C 0.70876(15) 0.2619(3) 0.34161(12)
H20 H 0.6947 0.2000 0.3718
H21 H 0.7638 0.2890 0.3608
H22 H 0.7004 0.2118 0.3005
C19 C 0.87713(13) 0.7413(2) 0.49695(11)
H23 H 0.9038 0.7943 0.4742
C20 C 0.81694(13) 0.6488(3) 0.46241(11)
H24 H 0.8026 0.6436 0.4164
C21 C 0.77685(12) 0.5628(2) 0.49392(10)
C22 C 0.79894(12) 0.5799(2) 0.56246(11)
H25 H 0.7734 0.5248 0.5854
C23 C 0.85738(12) 0.6756(2) 0.59751(10)
H26 H 0.8691 0.6859 0.6431
C24 C 0.89875(12) 0.7567(2) 0.56574(10)
C25 C 0.96197(13) 0.9318(2) 0.65783(11)
H27 H 0.9181 0.9222 0.6715
C26 C 0.96409(12) 0.8545(2) 0.60309(10)
C27 C 1.03105(12) 0.8711(2) 0.58478(11)
H28 H 1.0341 0.8208 0.5481
C28 C 1.09336(12) 0.9606(2) 0.61978(11)
H29 H 1.1379 0.9687 0.6069
C29 C 1.08952(12) 1.0372(2) 0.67330(11)
C30 C 1.02331(13) 1.0224(3) 0.69241(12)
H30 H 1.0202 1.0738 0.7288
C31 C 1.29707(15) 0.8877(3) 0.82779(11)
H31 H 1.2962 0.8099 0.8550
C32 C 1.36863(15) 0.9400(3) 0.82689(13)
H32 H 1.4162 0.8994 0.8542
C33 C 1.36940(14) 1.0521(3) 0.78570(13)
H33 H 1.4178 1.0862 0.7844
C34 C 1.29944(13) 1.1152(3) 0.74607(12)
H34 H 1.3008 1.1911 0.7181
C35 C 1.22657(13) 0.9501(2) 0.78848(11)
H35 H 1.1783 0.9141 0.7893
C36 C 1.22708(12) 1.0656(2) 0.74792(10)
C37 C 1.14107(12) 1.2806(2) 0.70685(11)
C38 C 1.19244(14) 1.3720(2) 0.75315(12)
H36 H 1.2365 1.3337 0.7863
C39 C 1.17937(17) 1.5182(3) 0.75096(14)
H37 H 1.2150 1.5778 0.7822
C40 C 1.11466(18) 1.5769(3) 0.70353(16)
H38 H 1.1058 1.6760 0.7024
C41 C 1.06299(17) 1.4884(3) 0.65762(14)
H39 H 1.0188 1.5277 0.6250
C42 C 1.07562(14) 1.3414(3) 0.65913(12)
H40 H 1.0397 1.2826 0.6277
N1 N 1.15402(10) 1.13096(19) 0.70859(9)
loop_
_geom_bond_atom_site_label_1
_geom_bond_atom_site_label_2
_geom_bond_site_symmetry_1
_geom_bond_site_symmetry_2
B1 C6 1_555 1_555
C1 H1 1_555 1_555
H2 C1 1_555 1_555
H3 C1 1_555 1_555
C2 C1 1_555 1_555
C3 C2 1_555 1_555
H4 C3 1_555 1_555
C4 C3 1_555 1_555
C5 C4 1_555 1_555
H5 C5 1_555 1_555
H6 C5 1_555 1_555
H7 C5 1_555 1_555
C6 C4 1_555 1_555
C7 C6 1_555 1_555
C8 C2 1_555 1_555
H8 C8 1_555 1_555
C9 C7 1_555 1_555
H9 C9 1_555 1_555
H10 C9 1_555 1_555
H11 C9 1_555 1_555
C10 H12 1_555 1_555
H13 C10 1_555 1_555
H14 C10 1_555 1_555
C11 C10 1_555 1_555
C12 C11 1_555 1_555
H15 C12 1_555 1_555
C13 C12 1_555 1_555
C14 C13 1_555 1_555
H16 C14 1_555 1_555
H17 C14 1_555 1_555
H18 C14 1_555 1_555
C15 C13 1_555 1_555
H19 C15 1_555 1_555
C16 C15 1_555 1_555
C17 B1 1_555 1_555
C18 C16 1_555 1_555
H20 C18 1_555 1_555
H21 C18 1_555 1_555
H22 C18 1_555 1_555
C19 H23 1_555 1_555
C20 C19 1_555 1_555
H24 C20 1_555 1_555
C21 B1 1_555 1_555
C22 C21 1_555 1_555
H25 C22 1_555 1_555
C23 C22 1_555 1_555
H26 C23 1_555 1_555
C24 C19 1_555 1_555
C25 H27 1_555 1_555
C26 C24 1_555 1_555
C27 C26 1_555 1_555
H28 C27 1_555 1_555
C28 C27 1_555 1_555
H29 C28 1_555 1_555
C29 C28 1_555 1_555
C30 C25 1_555 1_555
H30 C30 1_555 1_555
C31 H31 1_555 1_555
C32 C31 1_555 1_555
H32 C32 1_555 1_555
C33 C32 1_555 1_555
H33 C33 1_555 1_555
C34 C33 1_555 1_555
H34 C34 1_555 1_555
C35 C31 1_555 1_555
H35 C35 1_555 1_555
C36 C34 1_555 1_555
C37 C38 1_555 1_555
C38 H36 1_555 1_555
C39 C38 1_555 1_555
H37 C39 1_555 1_555
C40 C39 1_555 1_555
H38 C40 1_555 1_555
C41 C40 1_555 1_555
H39 C41 1_555 1_555
C42 C37 1_555 1_555
H40 C42 1_555 1_555
N1 C29 1_555 1_555
C7 C8 1_555 1_555
C11 C17 1_555 1_555
C16 C17 1_555 1_555
C20 C21 1_555 1_555
C23 C24 1_555 1_555
C25 C26 1_555 1_555
C29 C30 1_555 1_555
C35 C36 1_555 1_555
C36 N1 1_555 1_555
C37 N1 1_555 1_555
C41 C42 1_555 1_555

#END
