
#######################################################################
#
#                 Cambridge Crystallographic Data Centre
#                                CCDC 
#
#######################################################################
#
# If this CIF has been generated from an entry in the Cambridge 
# Structural Database, then it will include bibliographic, chemical, 
# crystal, experimental, refinement or atomic coordinate data resulting 
# from the CCDC's data processing and validation procedures.
#
#######################################################################

data_EQUFOL
_chemical_formula_moiety         'C22 H27 N1 O5 S1'
_chemical_name_systematic        
1-Benzyl-4-dimethoxymethyl-3-(toluene-4-sulfonyl)-piperidin-2-one
_symmetry_cell_setting           monoclinic
_symmetry_space_group_name_H-M   'P 21/c'
_symmetry_Int_Tables_number      14
_space_group_name_Hall           '-P 2ybc'
loop_
_symmetry_equiv_pos_site_id
_symmetry_equiv_pos_as_xyz
1 x,y,z
2 x,1/2-y,1/2+z
3 -x,-y,-z
4 -x,1/2+y,1/2-z
_cell_length_a                   10.634(2)
_cell_length_b                   24.581(4)
_cell_length_c                   8.383(2)
_cell_angle_alpha                90
_cell_angle_beta                 103.23(2)
_cell_angle_gamma                90
_cell_volume                     2133.11
_exptl_crystal_colour            colorless
_exptl_crystal_description       prism
_chemical_melting_point          '369-371 K'
_cell_formula_units_Z            4
_exptl_crystal_recrystallization_method 'ethyl acetate/dichloromethane'
loop_
_atom_site_label
_atom_site_type_symbol
_atom_site_fract_x
_atom_site_fract_y
_atom_site_fract_z
S1 S 0.57622(7) 0.37078(4) 1.22991(9)
O1 O 0.2678(2) 0.3852(1) 1.1238(3)
O2 O 0.4994(2) 0.44750(8) 0.7629(2)
O3 O 0.3331(2) 0.38801(8) 0.6965(2)
O4 O 0.5265(2) 0.3979(1) 1.3540(2)
O5 O 0.6037(2) 0.31358(9) 1.2479(3)
N1 N 0.2983(2) 0.3094(1) 0.9873(3)
C1 C 0.3335(3) 0.3591(1) 1.0506(3)
C2 C 0.4636(2) 0.3810(1) 1.0341(3)
C3 C 0.5170(2) 0.3593(1) 0.8924(3)
C4 C 0.4927(3) 0.2984(1) 0.8721(4)
C5 C 0.3579(3) 0.2805(1) 0.8716(4)
C6 C 0.1765(3) 0.2873(1) 1.0103(4)
C7 C 0.0564(3) 0.3030(1) 0.8813(4)
C8 C -0.0559(3) 0.2740(1) 0.8779(4)
C9 C -0.1692(3) 0.2878(2) 0.7680(5)
C10 C -0.1717(3) 0.3302(2) 0.6619(4)
C11 C -0.0615(3) 0.3586(1) 0.6640(4)
C12 C 0.0529(3) 0.3451(1) 0.7746(4)
C13 C 0.4681(3) 0.3921(1) 0.7375(3)
C14 C 0.6207(3) 0.4625(1) 0.7357(4)
C15 C 0.2777(3) 0.4041(2) 0.5311(4)
C16 C 0.7190(2) 0.4046(1) 1.2124(3)
C17 C 0.7237(3) 0.4603(1) 1.2276(4)
C18 C 0.8377(3) 0.4869(1) 1.2241(4)
C19 C 0.9458(3) 0.4590(1) 1.2080(4)
C20 C 0.9376(3) 0.4036(1) 1.1900(4)
C21 C 0.8246(3) 0.3759(1) 1.1917(4)
C22 C 1.0701(3) 0.4888(1) 1.2124(4)
H1 H 0.4538 0.4192 1.0187
H2 H 0.6080 0.3641 0.9224
H3 H 0.5112 0.2876 0.7711
H4 H 0.5499 0.2804 0.9598
H5 H 0.3601 0.2429 0.8977
H6 H 0.3059 0.2860 0.7645
H7 H 0.1830 0.2487 1.0110
H8 H 0.1651 0.2995 1.1136
H9 H -0.0549 0.2445 0.9514
H10 H -0.2458 0.2676 0.7662
H11 H -0.2499 0.3397 0.5870
H12 H -0.0628 0.3878 0.5894
H13 H 0.1292 0.3654 0.7758
H14 H 0.5030 0.3782 0.6511
H15 H 0.6867 0.4425 0.8072
H16 H 0.6229 0.4549 0.6253
H17 H 0.6342 0.5003 0.7563
H18 H 0.2995 0.4410 0.5161
H19 H 0.3106 0.3816 0.4580
H20 H 0.1865 0.4005 0.5096
H21 H 0.6500 0.4802 1.2402
H22 H 0.8412 0.5255 1.2331
H23 H 1.0110 0.3837 1.1760
H24 H 0.8203 0.3375 1.1787
H25 H 1.1345 0.4636 1.1990
H26 H 1.0569 0.5148 1.1263
H27 H 1.0972 0.5069 1.3147
loop_
_geom_bond_atom_site_label_1
_geom_bond_atom_site_label_2
_geom_bond_site_symmetry_1
_geom_bond_site_symmetry_2
S1 O4 1_555 1_555
O1 C1 1_555 1_555
O2 C13 1_555 1_555
O3 C13 1_555 1_555
O5 S1 1_555 1_555
N1 C1 1_555 1_555
C1 C2 1_555 1_555
C2 S1 1_555 1_555
C3 C2 1_555 1_555
C4 C3 1_555 1_555
C5 N1 1_555 1_555
C6 N1 1_555 1_555
C7 C6 1_555 1_555
C8 C7 1_555 1_555
C9 C8 1_555 1_555
C10 C9 1_555 1_555
C11 C10 1_555 1_555
C12 C7 1_555 1_555
C13 C3 1_555 1_555
C14 O2 1_555 1_555
C15 O3 1_555 1_555
C16 S1 1_555 1_555
C17 C16 1_555 1_555
C18 C17 1_555 1_555
C19 C18 1_555 1_555
C20 C19 1_555 1_555
C21 C16 1_555 1_555
C22 C19 1_555 1_555
H1 C2 1_555 1_555
H2 C3 1_555 1_555
H3 C4 1_555 1_555
H4 C4 1_555 1_555
H5 C5 1_555 1_555
H6 C5 1_555 1_555
H7 C6 1_555 1_555
H8 C6 1_555 1_555
H9 C8 1_555 1_555
H10 C9 1_555 1_555
H11 C10 1_555 1_555
H12 C11 1_555 1_555
H13 C12 1_555 1_555
H14 C13 1_555 1_555
H15 C14 1_555 1_555
H16 C14 1_555 1_555
H17 C14 1_555 1_555
H18 C15 1_555 1_555
H19 C15 1_555 1_555
H20 C15 1_555 1_555
H21 C17 1_555 1_555
H22 C18 1_555 1_555
H23 C20 1_555 1_555
H24 C21 1_555 1_555
H25 C22 1_555 1_555
H26 C22 1_555 1_555
H27 C22 1_555 1_555
C4 C5 1_555 1_555
C11 C12 1_555 1_555
C20 C21 1_555 1_555

#END
