
#######################################################################
#
#                 Cambridge Crystallographic Data Centre
#                                CCDC 
#
#######################################################################
#
# If this CIF has been generated from an entry in the Cambridge 
# Structural Database, then it will include bibliographic, chemical, 
# crystal, experimental, refinement or atomic coordinate data resulting 
# from the CCDC's data processing and validation procedures.
#
#######################################################################

data_EQUGOO
_chemical_formula_moiety         'C36 H57 N9 6+,6(Cl1 1-),9.2(H2 O1)'
_chemical_name_systematic        
'43,44,45-triaza-3,9,17,23,31,37-hexaazoniaheptacyclo[37.3.1.1^11,15^.1^25,29^.0^4,8^.0^18,22^.0^32,36^]pentatetraconta-1(43),11(45),12,14,25(44),26,28,39,41-nonaene hexachloride hydrate'
_symmetry_cell_setting           triclinic
_symmetry_space_group_name_H-M   'P -1'
_symmetry_Int_Tables_number      2
_space_group_name_Hall           '-P 1'
loop_
_symmetry_equiv_pos_site_id
_symmetry_equiv_pos_as_xyz
1 x,y,z
2 -x,-y,-z
_cell_length_a                   11.810(4)
_cell_length_b                   12.323(5)
_cell_length_c                   18.403(8)
_cell_angle_alpha                102.45(4)
_cell_angle_beta                 102.42(3)
_cell_angle_gamma                96.33(3)
_cell_volume                     2519.41
_exptl_crystal_colour            colorless
_exptl_crystal_description       plate
_cell_formula_units_Z            2
loop_
_atom_site_label
_atom_site_type_symbol
_atom_site_fract_x
_atom_site_fract_y
_atom_site_fract_z
Cl1 Cl 0.66242(7) 0.73388(7) 0.24062(5)
Cl2 Cl 0.59733(9) 1.07082(7) 0.16818(5)
Cl3 Cl 0.46871(9) 0.74043(9) 0.42162(5)
Cl4 Cl 1.00458(9) 0.74833(10) 0.21403(6)
Cl5 Cl 0.4322(8) 0.3947(10) 0.1470(5)
Cl6 Cl 0.92979(11) 0.32679(9) 0.41043(8)
N1 N 0.7902(3) 0.9114(3) 0.43978(17)
N2 N 0.6620(3) 0.9876(2) 0.32001(16)
H1 H 0.6466 1.0106 0.2756
H2 H 0.6742 0.9150 0.3078
N3 N 0.4274(2) 0.8081(2) 0.26912(16)
H3 H 0.4296 0.7834 0.3125
H4 H 0.4896 0.7876 0.2509
N4 N 0.4058(3) 0.7791(3) 0.10937(17)
N5 N 0.6204(2) 0.8270(2) 0.09027(16)
H5 H 0.6209 0.8966 0.1197
H6 H 0.6026 0.7765 0.1173
N6 N 0.7794(3) 0.6262(2) 0.08779(16)
H7 H 0.8439 0.6555 0.1274
H8 H 0.7161 0.6178 0.1081
N7 N 0.7625(3) 0.4394(2) 0.15210(17)
N8 N 0.6604(3) 0.4801(2) 0.26762(17)
H9 H 0.6017 0.4695 0.2244
H10 H 0.7141 0.5396 0.2685
N9 N 0.7259(3) 0.6922(2) 0.42264(17)
H11 H 0.7551 0.7105 0.3842
H12 H 0.6554 0.7166 0.4200
C1 C 0.9044(4) 1.0647(4) 0.5779(2)
H13 H 0.9437 1.1173 0.6249
C2 C 0.8646(4) 1.1013(3) 0.5125(2)
H14 H 0.8751 1.1794 0.5142
C3 C 0.8098(3) 1.0235(3) 0.4454(2)
C4 C 0.7738(3) 1.0580(3) 0.3711(2)
H15 H 0.7635 1.1380 0.3826
H16 H 0.8373 1.0510 0.3437
C5 C 0.5552(3) 0.9892(3) 0.3509(2)
H17 H 0.5641 0.9516 0.3943
C6 C 0.5316(4) 1.1106(3) 0.3782(2)
H18 H 0.5801 1.1469 0.4307
H19 H 0.5482 1.1573 0.3430
C7 C 0.4002(5) 1.0933(4) 0.3767(3)
H20 H 0.3901 1.0995 0.4294
H21 H 0.3623 1.1517 0.3559
C8 C 0.3439(4) 0.9765(4) 0.3260(2)
H22 H 0.2749 0.9810 0.2859
H23 H 0.3186 0.9263 0.3570
C9 C 0.4415(3) 0.9333(3) 0.2898(2)
H24 H 0.4407 0.9613 0.2426
C10 C 0.3162(3) 0.7497(3) 0.2105(2)
H25 H 0.2473 0.7675 0.2306
H26 H 0.3139 0.6671 0.1998
C11 C 0.3107(3) 0.7877(3) 0.1376(2)
C12 C 0.2148(3) 0.8305(3) 0.1029(2)
H27 H 0.1490 0.8370 0.1245
C13 C 0.2182(3) 0.8635(4) 0.0358(2)
H28 H 0.1534 0.8915 0.0100
C14 C 0.3168(3) 0.8553(3) 0.0067(2)
H29 H 0.3208 0.8776 -0.0391
C15 C 0.4092(3) 0.8137(3) 0.04581(19)
C16 C 0.5216(3) 0.8066(3) 0.0201(2)
H30 H 0.5176 0.7312 -0.0137
H31 H 0.5341 0.8639 -0.0089
C17 C 0.7426(3) 0.8208(3) 0.0823(2)
H32 H 0.7952 0.8375 0.1351
C18 C 0.7872(3) 0.9059(3) 0.0420(2)
H33 H 0.8041 0.9833 0.0754
H34 H 0.7299 0.9038 -0.0065
C19 C 0.8994(4) 0.8655(3) 0.0267(2)
H35 H 0.9657 0.8939 0.0728
H36 H 0.9204 0.8916 -0.0166
C20 C 0.8702(3) 0.7354(3) 0.0069(2)
H37 H 0.8524 0.7041 -0.0493
H38 H 0.9374 0.7036 0.0316
C21 C 0.7619(3) 0.7070(3) 0.03763(19)
H39 H 0.6922 0.6743 -0.0066
C22 C 0.7949(4) 0.5137(3) 0.0452(2)
H40 H 0.8591 0.5229 0.0191
H41 H 0.7217 0.4779 0.0055
C23 C 0.8239(3) 0.4387(3) 0.0996(2)
C24 C 0.9110(4) 0.3731(3) 0.0928(2)
H42 H 0.9545 0.3757 0.0551
C25 C 0.9330(4) 0.3029(4) 0.1431(3)
H43 H 0.9916 0.2563 0.1400
C26 C 0.8687(4) 0.3026(3) 0.1969(3)
H44 H 0.8806 0.2545 0.2309
C27 C 0.7867(3) 0.3733(3) 0.2007(2)
C28 C 0.7183(4) 0.3782(3) 0.2609(2)
H45 H 0.6580 0.3097 0.2469
H46 H 0.7718 0.3807 0.3109
C29 C 0.6093(3) 0.5120(3) 0.33592(19)
H47 H 0.5568 0.5684 0.3262
C30 C 0.5373(3) 0.4136(3) 0.3531(2)
H48 H 0.5281 0.3436 0.3125
H49 H 0.4584 0.4303 0.3569
C31 C 0.6094(4) 0.4017(3) 0.4309(2)
H50 H 0.5582 0.3681 0.4591
H51 H 0.6711 0.3550 0.4237
C32 C 0.6634(4) 0.5244(3) 0.4728(2)
H52 H 0.6039 0.5672 0.4902
H53 H 0.7293 0.5286 0.5175
C33 C 0.7062(3) 0.5667(3) 0.4099(2)
H54 H 0.7810 0.5384 0.4047
C34 C 0.8072(3) 0.7521(3) 0.4971(2)
H55 H 0.8828 0.7235 0.5017
H56 H 0.7733 0.7375 0.5395
C35 C 0.8282(3) 0.8765(3) 0.5034(2)
C36 C 0.8865(3) 0.9506(3) 0.5742(2)
H57 H 0.9129 0.9232 0.6183
O1 O 0.5303(3) 0.5765(2) 0.07063(15)
H58 H 0.5501 0.6166 0.1159
H59 H 0.4895 0.5150 0.0685
O2 O 0.8830(2) 0.6413(2) 0.32734(15)
H60 H 0.9395 0.6164 0.3509
H61 H 0.9069 0.6856 0.3029
O3 O 0.9397(3) 0.9957(3) 0.2395(2)
H62 H 0.9599 0.9330 0.2417
H63 H 0.9795 1.0284 0.2154
O4 O 0.9047(5) 0.4242(5) -0.0980(3)
O5 O 0.8303(5) 0.7006(4) 0.6723(2)
H64 H 0.8074 0.6371 0.6786
H65 H 0.8643 0.7456 0.7146
O6 O 0.7583(7) 0.4646(7) 0.6578(5)
O7 O 0.7974(15) 0.5556(14) 0.7732(12)
O8 O 1.0581(3) 0.5624(3) 0.4181(2)
H66 H 1.0133 0.5007 0.4094
H67 H 1.0758 0.5943 0.4652
O9 O 1.1288(4) 1.1160(4) 0.1932(3)
H68 H 1.1966 1.1252 0.1858
H69 H 1.0800 1.0801 0.1523
O10 O 1.3478(4) 1.1534(4) 0.1590(3)
H70 H 1.3710 1.1659 0.2069
H71 H 1.3587 1.2134 0.1448
O11? O 0.7989(11) 0.5935(11) 0.6857(7)
O12? O 0.7638(15) 0.3789(16) 0.6532(10)
O13? O 0.7934(14) 0.4854(13) 0.7067(11)
O14? O 0.8006(7) 0.5420(7) 0.8177(6)
Cl7? Cl 0.4042(12) 0.4326(17) 0.1562(3)
H72? H 0.5120 0.5293 0.0279
H73? H 0.4881 0.5588 0.0990
loop_
_geom_bond_atom_site_label_1
_geom_bond_atom_site_label_2
_geom_bond_site_symmetry_1
_geom_bond_site_symmetry_2
N1 C3 1_555 1_555
N2 H1 1_555 1_555
H2 N2 1_555 1_555
N3 H3 1_555 1_555
H4 N3 1_555 1_555
N4 C11 1_555 1_555
N5 H5 1_555 1_555
H6 N5 1_555 1_555
N6 H7 1_555 1_555
H8 N6 1_555 1_555
N7 C23 1_555 1_555
N8 H9 1_555 1_555
H10 N8 1_555 1_555
N9 H11 1_555 1_555
H12 N9 1_555 1_555
C1 H13 1_555 1_555
C2 C1 1_555 1_555
H14 C2 1_555 1_555
C3 C2 1_555 1_555
C4 N2 1_555 1_555
H15 C4 1_555 1_555
H16 C4 1_555 1_555
C5 N2 1_555 1_555
H17 C5 1_555 1_555
C6 C5 1_555 1_555
H18 C6 1_555 1_555
H19 C6 1_555 1_555
C7 C6 1_555 1_555
H20 C7 1_555 1_555
H21 C7 1_555 1_555
C8 C7 1_555 1_555
H22 C8 1_555 1_555
H23 C8 1_555 1_555
C9 N3 1_555 1_555
H24 C9 1_555 1_555
C10 N3 1_555 1_555
H25 C10 1_555 1_555
H26 C10 1_555 1_555
C11 C10 1_555 1_555
C12 C11 1_555 1_555
H27 C12 1_555 1_555
C13 C12 1_555 1_555
H28 C13 1_555 1_555
C14 C13 1_555 1_555
H29 C14 1_555 1_555
C15 N4 1_555 1_555
C16 N5 1_555 1_555
H30 C16 1_555 1_555
H31 C16 1_555 1_555
C17 N5 1_555 1_555
H32 C17 1_555 1_555
C18 C17 1_555 1_555
H33 C18 1_555 1_555
H34 C18 1_555 1_555
C19 C18 1_555 1_555
H35 C19 1_555 1_555
H36 C19 1_555 1_555
C20 C19 1_555 1_555
H37 C20 1_555 1_555
H38 C20 1_555 1_555
C21 N6 1_555 1_555
H39 C21 1_555 1_555
C22 N6 1_555 1_555
H40 C22 1_555 1_555
H41 C22 1_555 1_555
C23 C22 1_555 1_555
C24 C23 1_555 1_555
H42 C24 1_555 1_555
C25 C24 1_555 1_555
H43 C25 1_555 1_555
C26 C25 1_555 1_555
H44 C26 1_555 1_555
C27 N7 1_555 1_555
C28 N8 1_555 1_555
H45 C28 1_555 1_555
H46 C28 1_555 1_555
C29 N8 1_555 1_555
H47 C29 1_555 1_555
C30 C29 1_555 1_555
H48 C30 1_555 1_555
H49 C30 1_555 1_555
C31 C30 1_555 1_555
H50 C31 1_555 1_555
H51 C31 1_555 1_555
C32 C31 1_555 1_555
H52 C32 1_555 1_555
H53 C32 1_555 1_555
C33 N9 1_555 1_555
H54 C33 1_555 1_555
C34 N9 1_555 1_555
H55 C34 1_555 1_555
H56 C34 1_555 1_555
C35 N1 1_555 1_555
C36 C1 1_555 1_555
H57 C36 1_555 1_555
O1 H58 1_555 1_555
H59 O1 1_555 1_555
O2 H60 1_555 1_555
H61 O2 1_555 1_555
O3 H62 1_555 1_555
H63 O3 1_555 1_555
O5 H64 1_555 1_555
H65 O5 1_555 1_555
O8 H66 1_555 1_555
H67 O8 1_555 1_555
O9 H68 1_555 1_555
H69 O9 1_555 1_555
O10 H70 1_555 1_555
H71 O10 1_555 1_555
C3 C4 1_555 1_555
C5 C9 1_555 1_555
C8 C9 1_555 1_555
C14 C15 1_555 1_555
C15 C16 1_555 1_555
C17 C21 1_555 1_555
C20 C21 1_555 1_555
C26 C27 1_555 1_555
C27 C28 1_555 1_555
C29 C33 1_555 1_555
C32 C33 1_555 1_555
C34 C35 1_555 1_555
C35 C36 1_555 1_555

#END
