
#######################################################################
#
#                 Cambridge Crystallographic Data Centre
#                                CCDC 
#
#######################################################################
#
# If this CIF has been generated from an entry in the Cambridge 
# Structural Database, then it will include bibliographic, chemical, 
# crystal, experimental, refinement or atomic coordinate data resulting 
# from the CCDC's data processing and validation procedures.
#
#######################################################################

data_EQUGII
_chemical_formula_moiety         'C24 H38 N6 4+,4(Cl1 1-),2(C1 H4 O1)'
_chemical_name_systematic        
'29,30-diaza-3,9,17,23-tetraazoniapentacyclo[23.3.1.1^11,15^.0^4,8^.0^18,22^]triaconta-1(29),11(30),12,14,25,27-hexaene tetrachloride methanol solvate'
_symmetry_cell_setting           triclinic
_symmetry_space_group_name_H-M   'P -1'
_symmetry_Int_Tables_number      2
_space_group_name_Hall           '-P 1'
loop_
_symmetry_equiv_pos_site_id
_symmetry_equiv_pos_as_xyz
1 x,y,z
2 -x,-y,-z
_cell_length_a                   8.243(3)
_cell_length_b                   9.896(3)
_cell_length_c                   11.002(3)
_cell_angle_alpha                67.26(3)
_cell_angle_beta                 70.00(3)
_cell_angle_gamma                85.92(3)
_cell_volume                     775.853
_exptl_crystal_colour            colorless
_exptl_crystal_description       plate
_cell_formula_units_Z            1
loop_
_atom_site_label
_atom_site_type_symbol
_atom_site_fract_x
_atom_site_fract_y
_atom_site_fract_z
Cl1 Cl 0.28457(3) 0.64571(3) 0.49043(2)
Cl2 Cl -0.18246(3) 0.32193(3) 0.93230(3)
N1 N 0.30275(10) 0.31685(9) 0.41566(8)
N2 N 0.12857(10) 0.31138(9) 0.68459(8)
H1 H 0.0390 0.3260 0.7536
H2 H 0.1676 0.4004 0.6133
N3 N 0.43303(10) 0.46723(9) 0.72457(8)
H3 H 0.5348 0.4405 0.6763
H4 H 0.3850 0.5267 0.6612
C1 C 0.42677(12) 0.30696(11) 0.30345(10)
C2 C 0.45729(14) 0.17654(12) 0.28169(11)
H5 H 0.5458 0.1737 0.2005
C3 C 0.35480(16) 0.05053(13) 0.38198(12)
H6 H 0.3725 -0.0403 0.3705
C4 C 0.22604(15) 0.05926(12) 0.49937(11)
H7 H 0.1549 -0.0254 0.5697
C5 C 0.20406(12) 0.19460(11) 0.51132(10)
C6 C 0.06325(12) 0.21510(12) 0.63188(10)
H8 H -0.0344 0.2600 0.6010
H9 H 0.0198 0.1182 0.7090
C7 C 0.27135(11) 0.24887(11) 0.74089(9)
H10 H 0.3778 0.2489 0.6622
C8 C 0.22115(14) 0.09330(12) 0.85149(11)
H11 H 0.2307 0.0214 0.8074
H12 H 0.1014 0.0851 0.9169
C9 C 0.35192(16) 0.06864(13) 0.92739(14)
H13 H 0.4574 0.0290 0.8801
H14 H 0.3012 -0.0014 1.0259
C10 C 0.39512(14) 0.21968(12) 0.92131(11)
H15 H 0.5220 0.2409 0.8864
H16 H 0.3462 0.2231 1.0157
C11 C 0.31383(11) 0.33218(11) 0.82021(9)
H17 H 0.2037 0.3610 0.8761
C12 C 0.46928(13) 0.55157(11) 0.80074(10)
H18 H 0.5345 0.4922 0.8616
H19 H 0.3589 0.5731 0.8609
N1A N 0.69725(10) 0.68315(9) 0.58434(8)
N2A N 0.87143(10) 0.68862(9) 0.31541(8)
H1A H 0.9610 0.6740 0.2464
H2A H 0.8324 0.5996 0.3867
N3A N 0.56697(10) 0.53277(9) 0.27543(8)
H3A H 0.4652 0.5595 0.3237
H4A H 0.6150 0.4733 0.3388
C1A C 0.57323(12) 0.69304(11) 0.69655(10)
C2A C 0.54271(14) 0.82346(12) 0.71831(11)
H5A H 0.4542 0.8263 0.7995
C3A C 0.64520(16) 0.94947(13) 0.61802(12)
H6A H 0.6275 1.0403 0.6295
C4A C 0.77396(15) 0.94074(12) 0.50063(11)
H7A H 0.8451 1.0254 0.4303
C5A C 0.79594(12) 0.80540(11) 0.48868(10)
C6A C 0.93675(12) 0.78490(12) 0.36812(10)
H8A H 1.0344 0.7400 0.3990
H9A H 0.9802 0.8818 0.2910
C7A C 0.72865(11) 0.75113(11) 0.25911(9)
H10A H 0.6222 0.7511 0.3378
C8A C 0.77885(14) 0.90670(12) 0.14851(11)
H11A H 0.7693 0.9786 0.1926
H12A H 0.8986 0.9149 0.0831
C9A C 0.64808(16) 0.93136(13) 0.07261(14)
H13A H 0.5426 0.9710 0.1199
H14A H 0.6988 1.0014 -0.0259
C10A C 0.60488(14) 0.78032(12) 0.07869(11)
H15A H 0.4780 0.7591 0.1136
H16A H 0.6538 0.7769 -0.0157
C11A C 0.68617(11) 0.66782(11) 0.17979(9)
H17A H 0.7963 0.6390 0.1239
C12A C 0.53072(13) 0.44843(11) 0.19926(10)
H18A H 0.4655 0.5078 0.1384
H19A H 0.6411 0.4269 0.1391
O1 O -0.00416(13) 0.17446(10) 1.15886(10)
H20 H -0.0595 0.2036 1.1029
C13 C 0.02856(18) 0.29261(16) 1.19270(14)
H21 H -0.0811 0.3198 1.2463
H22 H 0.0847 0.3773 1.1061
H23 H 0.1046 0.2621 1.2490
loop_
_geom_bond_atom_site_label_1
_geom_bond_atom_site_label_2
_geom_bond_site_symmetry_1
_geom_bond_site_symmetry_2
N1 C1 1_555 1_555
N2 H1 1_555 1_555
H2 N2 1_555 1_555
N3 H3 1_555 1_555
H4 N3 1_555 1_555
C1 C2 1_555 1_555
C2 H5 1_555 1_555
C3 C2 1_555 1_555
H6 C3 1_555 1_555
C4 C3 1_555 1_555
H7 C4 1_555 1_555
C5 N1 1_555 1_555
C6 N2 1_555 1_555
H8 C6 1_555 1_555
H9 C6 1_555 1_555
C7 N2 1_555 1_555
H10 C7 1_555 1_555
C8 C7 1_555 1_555
H11 C8 1_555 1_555
H12 C8 1_555 1_555
C9 C8 1_555 1_555
H13 C9 1_555 1_555
H14 C9 1_555 1_555
C10 C9 1_555 1_555
H15 C10 1_555 1_555
H16 C10 1_555 1_555
C11 N3 1_555 1_555
H17 C11 1_555 1_555
C12 N3 1_555 1_555
H18 C12 1_555 1_555
H19 C12 1_555 1_555
O1 H20 1_555 1_555
C13 O1 1_555 1_555
H21 C13 1_555 1_555
H22 C13 1_555 1_555
H23 C13 1_555 1_555
N1A C1A 1_555 1_555
N2A H1A 1_555 1_555
H2A N2A 1_555 1_555
N3A H3A 1_555 1_555
H4A N3A 1_555 1_555
C1A C12 1_555 1_555
C2A C1A 1_555 1_555
H5A C2A 1_555 1_555
C3A C2A 1_555 1_555
H6A C3A 1_555 1_555
C4A C3A 1_555 1_555
H7A C4A 1_555 1_555
C5A N1A 1_555 1_555
C6A N2A 1_555 1_555
H8A C6A 1_555 1_555
H9A C6A 1_555 1_555
C7A N2A 1_555 1_555
H10A C7A 1_555 1_555
C8A C7A 1_555 1_555
H11A C8A 1_555 1_555
H12A C8A 1_555 1_555
C9A C8A 1_555 1_555
H13A C9A 1_555 1_555
H14A C9A 1_555 1_555
C10A C9A 1_555 1_555
H15A C10A 1_555 1_555
H16A C10A 1_555 1_555
C11A N3A 1_555 1_555
H17A C11A 1_555 1_555
C12A C1 1_555 1_555
H18A C12A 1_555 1_555
H19A C12A 1_555 1_555
C4 C5 1_555 1_555
C5 C6 1_555 1_555
C7 C11 1_555 1_555
C10 C11 1_555 1_555
N3A C12A 1_555 1_555
C4A C5A 1_555 1_555
C5A C6A 1_555 1_555
C7A C11A 1_555 1_555
C10A C11A 1_555 1_555

#END
