
#######################################################################
#
#                 Cambridge Crystallographic Data Centre
#                                CCDC 
#
#######################################################################
#
# If this CIF has been generated from an entry in the Cambridge 
# Structural Database, then it will include bibliographic, chemical, 
# crystal, experimental, refinement or atomic coordinate data resulting 
# from the CCDC's data processing and validation procedures.
#
#######################################################################

data_EQUHEF
_chemical_formula_moiety         'C96 H152 N24 16+,8(O4 S1 2-),31(H2 O1)'
_chemical_name_systematic        
'3,5,9,11,15,17,21,23,27,29,33,35,39,41,45,47-hexacosa-azonia-1,7,13,19,25,31,37,43(2,6)-octapyridina-4,10,16,22,28,34,40,46(1,2)-octacyclopentaoctatetracosaphane octasulfate henitriacontahydrate'
_symmetry_cell_setting           triclinic
_symmetry_space_group_name_H-M   'P -1'
_symmetry_Int_Tables_number      2
_space_group_name_Hall           '-P 1'
loop_
_symmetry_equiv_pos_site_id
_symmetry_equiv_pos_as_xyz
1 x,y,z
2 -x,-y,-z
_cell_length_a                   16.114(5)
_cell_length_b                   17.239(5)
_cell_length_c                   28.561(9)
_cell_angle_alpha                85.55(3)
_cell_angle_beta                 78.76(3)
_cell_angle_gamma                65.28(3)
_cell_volume                     7068.59
_exptl_crystal_colour            colorless
_exptl_crystal_description       block
_cell_formula_units_Z            2
loop_
_atom_site_label
_atom_site_type_symbol
_atom_site_fract_x
_atom_site_fract_y
_atom_site_fract_z
N1 N 0.5354(3) 0.1898(3) 0.43746(14)
N2 N 0.5369(3) 0.1254(3) 0.52519(12)
H1 H 0.4955 0.1066 0.5185
H2 H 0.5132 0.1829 0.5208
N3 N 0.4428(3) 0.2193(2) 0.63690(14)
H3 H 0.4818 0.1972 0.6583
H4 H 0.4634 0.2539 0.6170
N4 N 0.4256(3) 0.3585(3) 0.67761(15)
N5 N 0.5981(2) 0.3469(2) 0.67286(15)
H5 H 0.6000 0.3103 0.6978
H6 H 0.5861 0.3255 0.6480
N6 N 0.7830(2) 0.2187(2) 0.60629(13)
H7 H 0.8056 0.2469 0.5826
H8 H 0.7275 0.2231 0.6008
N7 N 0.8486(3) 0.1360(2) 0.52057(14)
N8 N 0.7902(3) 0.2475(2) 0.45175(13)
H9 H 0.8218 0.2640 0.4692
H10 H 0.7367 0.2508 0.4710
N9 N 0.7720(3) 0.4481(2) 0.42147(13)
H11 H 0.7385 0.4990 0.4370
H12 H 0.8216 0.4189 0.4361
N10 N 0.8583(3) 0.5482(3) 0.41387(15)
N11 N 0.8280(3) 0.6055(3) 0.50004(13)
H13 H 0.8469 0.5478 0.5005
H14 H 0.7726 0.6290 0.4898
N12 N 0.6437(3) 0.7011(3) 0.58106(15)
H15 H 0.6495 0.7452 0.5935
H16 H 0.6361 0.7146 0.5503
C1 C 0.5241(3) 0.2215(3) 0.39376(17)
C2 C 0.5834(4) 0.1813(3) 0.35327(17)
H17 H 0.5722 0.2047 0.3227
C3 C 0.6603(4) 0.1059(4) 0.35744(19)
H18 H 0.7033 0.0775 0.3299
C4 C 0.6729(4) 0.0729(3) 0.40247(18)
H19 H 0.7239 0.0205 0.4064
C5 C 0.6107(3) 0.1170(3) 0.44124(16)
C6 C 0.6244(3) 0.0860(3) 0.49097(15)
H20 H 0.6463 0.0231 0.4920
H21 H 0.6725 0.1005 0.5000
C7 C 0.5457(3) 0.1075(3) 0.57611(15)
H22 H 0.5873 0.1318 0.5847
C8 C 0.5833(5) 0.0120(3) 0.58723(19)
H23 H 0.5673 -0.0190 0.5652
H24 H 0.6516 -0.0128 0.5848
C9 C 0.5368(5) 0.0083(5) 0.6366(3)
H25 H 0.5678 0.0217 0.6596
H26 H 0.5378 -0.0491 0.6438
C10 C 0.4372(4) 0.0755(3) 0.63936(18)
H27 H 0.4082 0.0950 0.6726
H28 H 0.3988 0.0529 0.6265
C11 C 0.4493(3) 0.1477(3) 0.60819(15)
H29 H 0.4005 0.1701 0.5877
C12 C 0.3494(3) 0.2719(3) 0.66307(18)
H30 H 0.3267 0.2353 0.6854
H31 H 0.3062 0.2966 0.6401
C13 C 0.3493(3) 0.3424(3) 0.69037(18)
C14 C 0.2787(3) 0.3863(3) 0.72584(18)
H32 H 0.2267 0.3722 0.7348
C15 C 0.2832(3) 0.4514(3) 0.74868(19)
H33 H 0.2333 0.4843 0.7727
C16 C 0.3605(3) 0.4681(3) 0.73639(19)
H34 H 0.3651 0.5126 0.7519
C17 C 0.4310(3) 0.4198(3) 0.70154(18)
C18 C 0.5195(3) 0.4318(3) 0.6869(2)
H35 H 0.5314 0.4563 0.7138
H36 H 0.5142 0.4717 0.6597
C19 C 0.6907(3) 0.3490(3) 0.65880(17)
H37 H 0.6928 0.3805 0.6280
C20 C 0.7161(3) 0.3902(3) 0.6960(2)
H38 H 0.7019 0.3693 0.7285
H39 H 0.6836 0.4533 0.6956
C21 C 0.8208(4) 0.3603(4) 0.6790(4)
H40 H 0.8337 0.3985 0.6537
H41 H 0.8515 0.3602 0.7058
C22 C 0.8559(3) 0.2711(3) 0.65961(19)
H42 H 0.8890 0.2284 0.6823
H43 H 0.8988 0.2643 0.6288
C23 C 0.7688(3) 0.2594(3) 0.65288(16)
H44 H 0.7547 0.2225 0.6791
C24 C 0.8488(4) 0.1271(3) 0.60521(17)
H45 H 0.8254 0.0968 0.6317
H46 H 0.9099 0.1224 0.6100
C25 C 0.8605(3) 0.0853(3) 0.55851(17)
C26 C 0.8859(3) -0.0028(3) 0.55585(18)
H47 H 0.8953 -0.0373 0.5836
C27 C 0.8970(4) -0.0382(3) 0.51236(19)
H48 H 0.9124 -0.0974 0.5096
C28 C 0.8852(3) 0.0139(3) 0.47288(18)
H49 H 0.8941 -0.0093 0.4423
C29 C 0.8608(3) 0.0992(3) 0.47809(17)
C30 C 0.8470(4) 0.1582(3) 0.43597(17)
H50 H 0.9081 0.1530 0.4179
H51 H 0.8157 0.1417 0.4145
C31 C 0.7665(3) 0.3079(3) 0.41060(16)
H52 H 0.8249 0.3032 0.3886
C32 C 0.7040(4) 0.2904(3) 0.38277(18)
H53 H 0.7412 0.2473 0.3573
H54 H 0.6608 0.2703 0.4042
C33 C 0.6519(4) 0.3768(3) 0.36182(18)
H55 H 0.6913 0.3892 0.3337
H56 H 0.5946 0.3801 0.3524
C34 C 0.6297(4) 0.4370(3) 0.4024(2)
H57 H 0.5717 0.4419 0.4240
H58 H 0.6220 0.4945 0.3901
C35 C 0.7122(3) 0.3985(3) 0.42844(17)
H59 H 0.6879 0.3970 0.4633
C36 C 0.8081(4) 0.4661(4) 0.37133(17)
H60 H 0.7554 0.4973 0.3545
H61 H 0.8480 0.4115 0.3542
C37 C 0.8631(4) 0.5184(3) 0.37092(18)
C38 C 0.9127(4) 0.5346(3) 0.32976(19)
H62 H 0.9165 0.5105 0.3002
C39 C 0.9570(4) 0.5870(4) 0.3325(2)
H63 H 0.9905 0.6008 0.3043
C40 C 0.9528(4) 0.6194(4) 0.3759(2)
H64 H 0.9825 0.6560 0.3781
C41 C 0.9037(3) 0.5970(3) 0.41650(18)
C42 C 0.8969(3) 0.6268(4) 0.46557(17)
H65 H 0.9584 0.5991 0.4754
H66 H 0.8780 0.6893 0.4654
C43 C 0.8143(3) 0.6357(3) 0.54935(17)
H67 H 0.8009 0.6978 0.5483
C44 C 0.8976(3) 0.5881(4) 0.57436(19)
H68 H 0.9267 0.5262 0.5669
H69 H 0.9449 0.6117 0.5656
C45 C 0.8512(4) 0.6052(4) 0.6266(2)
H70 H 0.8385 0.6638 0.6360
H71 H 0.8910 0.5638 0.6475
C46 C 0.7604(5) 0.5946(7) 0.6297(3)
H72 H 0.7121 0.6306 0.6556
H73 H 0.7703 0.5343 0.6356
C47 C 0.7322(3) 0.6239(3) 0.58066(18)
H74 H 0.7253 0.5759 0.5667
C48 C 0.5592(3) 0.6949(4) 0.6076(2)
H75 H 0.5663 0.6795 0.6411
H76 H 0.5497 0.6493 0.5934
N1A N 0.4646(3) 0.8102(3) 0.56254(14)
N2A N 0.4631(3) 0.8746(3) 0.47481(12)
H1A H 0.5045 0.8934 0.4815
H2A H 0.4868 0.8171 0.4792
N3A N 0.5572(3) 0.7807(2) 0.36310(14)
H3A H 0.5182 0.8028 0.3417
H4A H 0.5366 0.7461 0.3830
N4A N 0.5744(3) 0.6415(3) 0.32239(15)
N5A N 0.4019(2) 0.6531(2) 0.32714(15)
H5A H 0.4000 0.6897 0.3022
H6A H 0.4139 0.6745 0.3520
N6A N 0.2170(2) 0.7813(2) 0.39371(13)
H7A H 0.1944 0.7531 0.4174
H8A H 0.2725 0.7769 0.3992
N7A N 0.1514(3) 0.8640(2) 0.47943(14)
N8A N 0.2098(3) 0.7525(2) 0.54825(13)
H9A H 0.1782 0.7360 0.5308
H10A H 0.2633 0.7492 0.5290
N9A N 0.2280(3) 0.5519(2) 0.57853(13)
H11A H 0.2615 0.5010 0.5630
H12A H 0.1784 0.5811 0.5639
N10A N 0.1417(3) 0.4518(3) 0.58613(15)
N11A N 0.1720(3) 0.3945(3) 0.49996(13)
H13A H 0.1531 0.4522 0.4995
H14A H 0.2274 0.3710 0.5102
N12A N 0.3563(3) 0.2989(3) 0.41894(15)
H15A H 0.3505 0.2548 0.4065
H16A H 0.3639 0.2854 0.4497
C1A C 0.4759(3) 0.7785(3) 0.60624(17)
C2A C 0.4166(4) 0.8187(3) 0.64673(17)
H17A H 0.4278 0.7953 0.6773
C3A C 0.3397(4) 0.8941(4) 0.64256(19)
H18A H 0.2967 0.9225 0.6701
C4A C 0.3271(4) 0.9271(3) 0.59753(18)
H19A H 0.2761 0.9795 0.5936
C5A C 0.3893(3) 0.8830(3) 0.55876(16)
C6A C 0.3756(3) 0.9140(3) 0.50903(15)
H20A H 0.3537 0.9769 0.5080
H21A H 0.3275 0.8995 0.5000
C7A C 0.4543(3) 0.8925(3) 0.42389(15)
H22A H 0.4127 0.8682 0.4153
C8A C 0.4167(5) 0.9880(3) 0.41277(19)
H23A H 0.4327 1.0190 0.4348
H24A H 0.3484 1.0128 0.4152
C9A C 0.4632(5) 0.9917(5) 0.3634(3)
H25A H 0.4322 0.9783 0.3404
H26A H 0.4622 1.0491 0.3562
C10A C 0.5628(4) 0.9245(3) 0.36064(18)
H27A H 0.5918 0.9050 0.3274
H28A H 0.6012 0.9471 0.3735
C11A C 0.5507(3) 0.8523(3) 0.39181(15)
H29A H 0.5995 0.8299 0.4123
C12A C 0.6506(3) 0.7281(3) 0.33693(18)
H30A H 0.6733 0.7647 0.3146
H31A H 0.6938 0.7034 0.3599
C13A C 0.6507(3) 0.6576(3) 0.30963(18)
C14A C 0.7213(3) 0.6137(3) 0.27416(18)
H32A H 0.7733 0.6278 0.2652
C15A C 0.7168(3) 0.5486(3) 0.25132(19)
H33A H 0.7667 0.5157 0.2273
C16A C 0.6395(3) 0.5319(3) 0.26361(19)
H34A H 0.6349 0.4874 0.2481
C17A C 0.5690(3) 0.5802(3) 0.29846(18)
C18A C 0.4805(3) 0.5682(3) 0.3131(2)
H35A H 0.4686 0.5437 0.2862
H36A H 0.4858 0.5283 0.3403
C19A C 0.3093(3) 0.6510(3) 0.34120(17)
H37A H 0.3072 0.6195 0.3720
C20A C 0.2839(3) 0.6098(3) 0.3040(2)
H38A H 0.2981 0.6307 0.2715
H39A H 0.3164 0.5467 0.3044
C21A C 0.1792(4) 0.6397(4) 0.3210(4)
H40A H 0.1663 0.6015 0.3463
H41A H 0.1485 0.6398 0.2942
C22A C 0.1441(3) 0.7289(3) 0.34039(19)
H42A H 0.1110 0.7716 0.3177
H43A H 0.1012 0.7357 0.3712
C23A C 0.2312(3) 0.7406(3) 0.34712(16)
H44A H 0.2453 0.7775 0.3209
C24A C 0.1512(4) 0.8729(3) 0.39479(17)
H45A H 0.1746 0.9032 0.3683
H46A H 0.0901 0.8776 0.3900
C25A C 0.1395(3) 0.9147(3) 0.44149(17)
C26A C 0.1141(3) 1.0028(3) 0.44415(18)
H47A H 0.1047 1.0373 0.4164
C27A C 0.1030(4) 1.0382(3) 0.48764(19)
H48A H 0.0876 1.0974 0.4904
C28A C 0.1148(3) 0.9861(3) 0.52712(18)
H49A H 0.1059 1.0093 0.5577
C29A C 0.1392(3) 0.9008(3) 0.52191(17)
C30A C 0.1530(4) 0.8418(3) 0.56403(17)
H50A H 0.0919 0.8470 0.5821
H51A H 0.1843 0.8583 0.5855
C31A C 0.2335(3) 0.6921(3) 0.58940(16)
H52A H 0.1751 0.6968 0.6114
C32A C 0.2960(4) 0.7096(3) 0.61723(18)
H53A H 0.2588 0.7527 0.6427
H54A H 0.3392 0.7297 0.5958
C33A C 0.3481(4) 0.6232(3) 0.63818(18)
H55A H 0.3087 0.6108 0.6663
H56A H 0.4054 0.6199 0.6476
C34A C 0.3703(4) 0.5630(3) 0.5976(2)
H57A H 0.4283 0.5581 0.5760
H58A H 0.3780 0.5055 0.6099
C35A C 0.2878(3) 0.6015(3) 0.57156(17)
H59A H 0.3121 0.6030 0.5367
C36A C 0.1919(4) 0.5339(4) 0.62867(17)
H60A H 0.2446 0.5027 0.6455
H61A H 0.1520 0.5885 0.6458
C37A C 0.1369(4) 0.4816(3) 0.62908(18)
C38A C 0.0873(4) 0.4654(3) 0.67024(19)
H62A H 0.0835 0.4895 0.6998
C39A C 0.0430(4) 0.4130(4) 0.6675(2)
H63A H 0.0095 0.3992 0.6957
C40A C 0.0472(4) 0.3806(4) 0.6241(2)
H64A H 0.0175 0.3440 0.6219
C41A C 0.0963(3) 0.4030(3) 0.58350(18)
C42A C 0.1031(3) 0.3732(4) 0.53443(17)
H65A H 0.0416 0.4009 0.5246
H66A H 0.1220 0.3107 0.5346
C43A C 0.1857(3) 0.3643(3) 0.45065(17)
H67A H 0.1991 0.3022 0.4517
C44A C 0.1024(3) 0.4119(4) 0.42564(19)
H68A H 0.0733 0.4738 0.4331
H69A H 0.0551 0.3883 0.4344
C45A C 0.1488(4) 0.3948(4) 0.3734(2)
H70A H 0.1615 0.3362 0.3640
H71A H 0.1090 0.4362 0.3525
C46A C 0.2396(5) 0.4054(7) 0.3703(3)
H72A H 0.2879 0.3694 0.3444
H73A H 0.2297 0.4657 0.3644
C47A C 0.2678(3) 0.3761(3) 0.41934(18)
H74A H 0.2747 0.4241 0.4333
C48A C 0.4408(3) 0.3051(4) 0.3924(2)
H75A H 0.4337 0.3205 0.3589
H76A H 0.4503 0.3507 0.4066
S1 S 0.56583(9) 0.31270(9) 0.54366(5)
O1 O 0.4785(2) 0.2988(2) 0.55276(12)
O2 O 0.6303(2) 0.2581(2) 0.50427(12)
O3 O 0.6070(2) 0.2864(3) 0.58673(13)
O4 O 0.5451(3) 0.4023(2) 0.53143(19)
S2 S 0.30664(16) 0.16144(16) 0.52053(9)
O5 O 0.3940(4) 0.0838(3) 0.5177(3)
O6 O 0.3272(4) 0.2377(3) 0.5119(2)
O7 O 0.2514(3) 0.1570(3) 0.48647(17)
O8 O 0.2522(4) 0.1684(4) 0.56945(17)
S3 S 0.60128(9) 0.14874(9) 0.72052(5)
O9 O 0.6101(2) 0.2218(2) 0.73944(12)
O10 O 0.5027(2) 0.1637(2) 0.72599(13)
O11 O 0.6457(3) 0.0738(3) 0.74872(17)
O12 O 0.6425(3) 0.1380(3) 0.67054(13)
S4 S 0.88523(9) 0.35030(9) 0.52162(5)
O13 O 0.9009(2) 0.3292(2) 0.47013(13)
O14 O 0.7975(2) 0.3452(2) 0.54434(13)
O15 O 0.8777(3) 0.4369(3) 0.52530(14)
O16 O 0.9614(3) 0.2889(3) 0.54321(16)
S5 S 0.63369(18) -0.0171(2) 0.89975(7)
O17 O 0.6711(3) 0.0460(4) 0.90579(15)
O18 O 0.5626(4) -0.0136(4) 0.9421(2)
O19 O 0.6018(4) -0.0010(4) 0.85418(17)
O20 O 0.7089(4) -0.1020(4) 0.89815(18)
S6 S 0.92210(11) 0.11289(15) 0.92003(6)
O21 O 0.9600(3) 0.0611(3) 0.87541(13)
O22 O 0.8267(2) 0.1209(3) 0.93746(14)
O23 O 0.9773(3) 0.0707(3) 0.95674(14)
O24 O 0.9228(4) 0.1983(4) 0.91025(19)
S7 S 0.4989(4) -0.2426(3) 0.86635(17)
O25 O 0.5755(4) -0.3047(6) 0.8899(3)
O26 O 0.5051(7) -0.1593(5) 0.8644(3)
O27 O 0.4123(4) -0.2374(5) 0.8958(4)
O28 O 0.5119(7) -0.2700(5) 0.8175(3)
S8 S 0.8359(3) -0.6833(3) 1.2181(2)
O29 O 0.8551(7) -0.6527(6) 1.2607(3)
O30 O 0.7371(4) -0.6616(6) 1.2236(4)
O31 O 0.8624(7) -0.6372(6) 1.1769(3)
O32 O 0.8884(6) -0.7761(4) 1.2127(3)
O33 O 0.8508(16) -0.2631(15) 1.2535(8)
O34 O 0.8964(9) -0.1643(8) 1.1293(4)
O35 O 0.8371(14) -0.2844(13) 1.1653(8)
O36 O 0.9090(17) -0.3822(19) 1.0836(9)
O37 O 0.9166(17) -0.5031(17) 1.1628(10)
O38 O 1.0150(16) -0.5533(16) 1.0817(9)
O39 O 0.854(2) -0.490(2) 1.0829(13)
O40 O 0.8949(14) -0.6148(14) 0.9403(8)
O41 O 0.8258(17) -0.4970(15) 0.9505(10)
O42 O 0.7793(19) -0.5218(18) 1.0312(12)
O43 O 0.7633(10) -0.5995(10) 1.1086(6)
O44 O 0.6639(2) 0.5857(2) 0.48464(14)
O45 O 0.6315(2) 0.4886(2) 0.55917(14)
O46 O 0.4089(2) -0.0352(3) 0.93251(13)
O47 O 0.3762(2) -0.1301(3) 1.00925(13)
O48 O 0.0902(3) 0.1589(2) 0.58229(15)
O49 O 0.2191(4) 0.1597(3) 0.3908(2)
O50 O 0.6487(9) 0.6901(5) 0.7371(2)
O51 O 0.5258(7) 0.6216(4) 0.7198(2)
O52 O 0.3602(15) -0.2459(12) 0.7676(3)
O53 O 0.2069(4) 0.0428(3) 1.33249(18)
O54 O -0.0971(4) -0.0480(5) 1.20131(19)
O55 O 0.8046(15) 0.128(2) 1.2499(5)
O56 O 0.5485(8) 0.5109(6) 0.7919(8)
O57 O 0.9701(19) 0.5668(11) 0.2060(5)
O58 O 0.9929(9) -0.1570(10) 0.6775(6)
O59 O 0.4048(7) 0.6036(8) 0.8710(7)
O60 O 1.0320(7) 0.2587(10) 0.3896(5)
O61 O 0.9259(7) -0.1070(6) 0.3280(4)
O62 O 0.8950(4) 0.0675(5) 0.3307(2)
O63 O 0.6850(11) 0.5781(11) 0.8034(6)
O64 O 0.3508(5) 0.2053(5) 0.3461(3)
O65 O 0.8041(7) 0.5412(7) 0.7537(3)
O66 O 0.2109(8) 0.1601(8) 0.6739(4)
O67 O 1.0484(12) 0.1913(11) 0.7433(6)
O68 O 0.8556(16) 0.4542(15) 0.8369(8)
O69 O 0.6899(18) 0.4159(16) 0.8173(9)
O70 O 0.8598(10) 0.2799(7) 0.8289(5)
N13 N 0.8780(5) -0.1104(4) 0.94558(19)
N14 N 0.8632(5) -0.0368(4) 0.86116(18)
H77 H 0.9024 -0.0155 0.8682
H78 H 0.8131 -0.0211 0.8852
N15 N 0.6894(3) 0.1392(4) 0.8291(3)
H79 H 0.6695 0.1318 0.8028
H80 H 0.6700 0.1099 0.8534
N16 N 0.5061(4) 0.2065(4) 0.8491(4)
N17 N 0.4536(5) 0.0967(5) 0.8143(3)
H81 H 0.4612 0.1207 0.7852
H82 H 0.5086 0.0773 0.8248
N18 N 0.5898(4) -0.1005(6) 0.7873(2)
H83 H 0.5754 -0.1377 0.8080
H84 H 0.6120 -0.0717 0.8032
N19 N 0.7412(4) -0.2361(6) 0.8081(2)
N20 N 0.7170(4) -0.2693(5) 0.89994(18)
H85 H 0.6706 -0.2714 0.8871
H86 H 0.7121 -0.2147 0.8976
N21 N 0.5473(4) -0.2843(5) 0.9876(3)
H87 H 0.4897 -0.2466 1.0012
H88 H 0.5422 -0.3006 0.9591
N22 N 0.4225(5) -0.3455(5) 1.0135(4)
N23 N 0.2760(5) -0.2344(4) 0.9830(3)
H89 H 0.3316 -0.2471 0.9632
H90 H 0.2752 -0.2054 1.0085
N24 N 0.1547(5) -0.0254(4) 0.9780(2)
H91 H 0.0939 -0.0096 0.9765
H92 H 0.1631 -0.0464 1.0078
C49 C 0.8891(7) -0.1397(6) 0.9897(2)
C50 C 0.9507(8) -0.2204(6) 0.9984(2)
H93 H 0.9616 -0.2373 1.0298
C51 C 0.9971(8) -0.2772(5) 0.9605(3)
H94 H 1.0342 -0.3356 0.9659
C52 C 0.9882(7) -0.2470(5) 0.9146(2)
H95 H 1.0245 -0.2823 0.8878
C53 C 0.9260(6) -0.1651(5) 0.9088(2)
C54 C 0.9108(8) -0.1307(4) 0.8598(2)
H96 H 0.9713 -0.1485 0.8379
H97 H 0.8728 -0.1545 0.8476
C55 C 0.8315(4) 0.0028(4) 0.8163(2)
H98 H 0.7821 -0.0140 0.8104
C56 C 0.9101(5) -0.0215(5) 0.7729(2)
H99 H 0.9689 -0.0267 0.7815
H100 H 0.9203 -0.0758 0.7584
C57 C 0.8750(7) 0.0511(6) 0.7404(2)
H101 H 0.8275 0.0464 0.7248
H102 H 0.9263 0.0528 0.7154
C58 C 0.8327(6) 0.1306(5) 0.7719(3)
H103 H 0.7832 0.1777 0.7582
H104 H 0.8806 0.1501 0.7760
C59 C 0.7929(4) 0.1009(4) 0.8195(2)
H105 H 0.8154 0.1167 0.8459
C60 C 0.6443(4) 0.2306(4) 0.8417(4)
H106 H 0.6685 0.2628 0.8167
H107 H 0.6603 0.2388 0.8722
C61 C 0.5412(4) 0.2656(4) 0.8466(4)
C62 C 0.4867(5) 0.3506(4) 0.8464(5)
H108 H 0.5137 0.3908 0.8432
C63 C 0.3923(5) 0.3780(4) 0.8509(6)
H109 H 0.3528 0.4373 0.8531
C64 C 0.3558(5) 0.3188(4) 0.8522(6)
H110 H 0.2910 0.3364 0.8540
C65 C 0.4143(4) 0.2339(4) 0.8508(4)
C66 C 0.3819(5) 0.1648(5) 0.8480(3)
H111 H 0.3726 0.1402 0.8800
H112 H 0.3220 0.1888 0.8365
C67 C 0.4324(4) 0.0225(4) 0.8084(3)
H113 H 0.4308 -0.0084 0.8395
C68 C 0.3409(4) 0.0467(6) 0.7911(4)
H114 H 0.3333 0.0893 0.7651
H115 H 0.2870 0.0695 0.8174
C69 C 0.3527(6) -0.0391(7) 0.7731(5)
H116 H 0.3351 -0.0725 0.7998
H117 H 0.3131 -0.0303 0.7489
C70 C 0.4537(6) -0.0851(7) 0.7512(4)
H118 H 0.4622 -0.0823 0.7160
H119 H 0.4778 -0.1459 0.7609
C71 C 0.5047(4) -0.0390(5) 0.7701(2)
H120 H 0.5231 -0.0049 0.7436
C72 C 0.6625(5) -0.1488(6) 0.7467(2)
H121 H 0.6767 -0.1080 0.7237
H122 H 0.6385 -0.1810 0.7299
C73 C 0.7504(5) -0.2100(8) 0.7630(3)
C74 C 0.8376(5) -0.2280(7) 0.7342(3)
H123 H 0.8431 -0.1982 0.7052
C75 C 0.9148(5) -0.2899(8) 0.7490(3)
H124 H 0.9752 -0.3036 0.7308
C76 C 0.9018(5) -0.3317(7) 0.7912(3)
H125 H 0.9495 -0.3838 0.7988
C77 C 0.8188(4) -0.2963(8) 0.8218(2)
C78 C 0.8075(5) -0.3263(7) 0.8725(2)
H126 H 0.8114 -0.3852 0.8729
H127 H 0.8583 -0.3270 0.8875
C79 C 0.7054(4) -0.2937(5) 0.9517(2)
H128 H 0.7142 -0.3547 0.9545
C80 C 0.7735(4) -0.2808(7) 0.9774(3)
H129 H 0.8325 -0.3326 0.9752
H130 H 0.7871 -0.2317 0.9641
C81 C 0.7222(6) -0.2635(8) 1.0285(2)
H131 H 0.7253 -0.3171 1.0450
H132 H 0.7477 -0.2345 1.0466
C82 C 0.6245(5) -0.2062(7) 1.0227(3)
H133 H 0.6164 -0.1460 1.0192
H134 H 0.5795 -0.2106 1.0507
C83 C 0.6100(4) -0.2374(5) 0.9776(2)
H135 H 0.5820 -0.1869 0.9571
C84 C 0.5753(6) -0.3614(7) 1.0189(5)
H136 H 0.5858 -0.3462 1.0493
H137 H 0.6343 -0.4063 1.0030
C85 C 0.5014(5) -0.3953(6) 1.0291(4)
C86 C 0.5126(6) -0.4678(7) 1.0551(4)
H138 H 0.5695 -0.5014 1.0656
C87 C 0.4387(6) -0.4908(7) 1.0655(5)
H139 H 0.4440 -0.5405 1.0839
C88 C 0.3571(6) -0.4419(7) 1.0494(4)
H140 H 0.3059 -0.4572 1.0565
C89 C 0.3517(5) -0.3694(6) 1.0226(4)
C90 C 0.2694(6) -0.3153(6) 1.0001(5)
H141 H 0.2673 -0.3465 0.9730
H142 H 0.2115 -0.3028 1.0238
C91 C 0.2010(4) -0.1780(4) 0.9574(2)
H143 H 0.1398 -0.1636 0.9792
C92 C 0.1995(7) -0.2174(5) 0.9114(3)
H144 H 0.2630 -0.2505 0.8939
H145 H 0.1655 -0.2545 0.9180
C93 C 0.1479(7) -0.1374(6) 0.8843(3)
H146 H 0.0805 -0.1131 0.8974
H147 H 0.1573 -0.1501 0.8500
C94 C 0.1906(7) -0.0757(6) 0.8918(2)
H148 H 0.1462 -0.0156 0.8892
H149 H 0.2480 -0.0864 0.8680
C95 C 0.2123(4) -0.0954(4) 0.9427(2)
H150 H 0.2789 -0.1068 0.9412
C96 C 0.1738(8) 0.0512(5) 0.9718(4)
H151 H 0.1595 0.0783 0.9409
H152 H 0.2405 0.0352 0.9718
N13A N 0.1220(5) 0.1104(4) 1.05442(19)
N14A N 0.1368(5) 0.0368(4) 1.13884(18)
H77A H 0.0976 0.0155 1.1318
H78A H 0.1869 0.0211 1.1148
N15A N 0.3106(3) -0.1392(4) 1.1709(3)
H79A H 0.3305 -0.1318 1.1972
H80A H 0.3300 -0.1099 1.1466
N16A N 0.4939(4) -0.2065(4) 1.1509(4)
N17A N 0.5464(5) -0.0967(5) 1.1857(3)
H81A H 0.5388 -0.1207 1.2148
H82A H 0.4914 -0.0773 1.1752
N18A N 0.4102(4) 0.1005(6) 1.2127(2)
H83A H 0.4246 0.1377 1.1920
H84A H 0.3880 0.0717 1.1968
N19A N 0.2588(4) 0.2361(6) 1.1919(2)
N20A N 0.2830(4) 0.2693(5) 1.10006(18)
H85A H 0.3294 0.2714 1.1129
H86A H 0.2879 0.2147 1.1024
N21A N 0.4527(4) 0.2843(5) 1.0124(3)
H87A H 0.5103 0.2466 0.9988
H88A H 0.4578 0.3006 1.0409
N22A N 0.5775(5) 0.3455(5) 0.9865(4)
N23A N 0.7240(5) 0.2344(4) 1.0170(3)
H89A H 0.6684 0.2471 1.0368
H90A H 0.7248 0.2054 0.9915
N24A N 0.8453(5) 0.0254(4) 1.0220(2)
H91A H 0.9061 0.0096 1.0235
H92A H 0.8369 0.0464 0.9922
C49A C 0.1109(7) 0.1397(6) 1.0103(2)
C50A C 0.0493(8) 0.2204(6) 1.0016(2)
H93A H 0.0384 0.2373 0.9702
C51A C 0.0029(8) 0.2772(5) 1.0395(3)
H94A H -0.0342 0.3356 1.0341
C52A C 0.0118(7) 0.2470(5) 1.0854(2)
H95A H -0.0245 0.2823 1.1122
C53A C 0.0740(6) 0.1651(5) 1.0912(2)
C54A C 0.0892(8) 0.1307(4) 1.1402(2)
H96A H 0.0287 0.1485 1.1621
H97A H 0.1272 0.1545 1.1524
C55A C 0.1685(4) -0.0028(4) 1.1837(2)
H98A H 0.2179 0.0140 1.1896
C56A C 0.0899(5) 0.0215(5) 1.2271(2)
H99A H 0.0311 0.0267 1.2185
H100A H 0.0797 0.0758 1.2416
C57A C 0.1250(7) -0.0511(6) 1.2596(2)
H101A H 0.1725 -0.0464 1.2752
H102A H 0.0737 -0.0528 1.2846
C58A C 0.1673(6) -0.1306(5) 1.2281(3)
H103A H 0.2168 -0.1777 1.2418
H104A H 0.1194 -0.1501 1.2240
C59A C 0.2071(4) -0.1009(4) 1.1805(2)
H105A H 0.1846 -0.1167 1.1541
C60A C 0.3557(4) -0.2306(4) 1.1583(4)
H106A H 0.3315 -0.2628 1.1833
H107A H 0.3397 -0.2388 1.1278
C61A C 0.4588(4) -0.2656(4) 1.1534(4)
C62A C 0.5133(5) -0.3506(4) 1.1536(5)
H108A H 0.4863 -0.3908 1.1568
C63A C 0.6077(5) -0.3780(4) 1.1491(6)
H109A H 0.6472 -0.4373 1.1469
C64A C 0.6442(5) -0.3188(4) 1.1478(6)
H110A H 0.7090 -0.3364 1.1460
C65A C 0.5857(4) -0.2339(4) 1.1492(4)
C66A C 0.6181(5) -0.1648(5) 1.1520(3)
H111A H 0.6274 -0.1402 1.1200
H112A H 0.6780 -0.1888 1.1635
C67A C 0.5676(4) -0.0225(4) 1.1916(3)
H113A H 0.5692 0.0084 1.1605
C68A C 0.6591(4) -0.0467(6) 1.2089(4)
H114A H 0.6667 -0.0893 1.2349
H115A H 0.7130 -0.0695 1.1826
C69A C 0.6473(6) 0.0391(7) 1.2269(5)
H116A H 0.6649 0.0725 1.2002
H117A H 0.6869 0.0303 1.2511
C70A C 0.5463(6) 0.0851(7) 1.2488(4)
H118A H 0.5378 0.0823 1.2840
H119A H 0.5222 0.1459 1.2391
C71A C 0.4953(4) 0.0390(5) 1.2299(2)
H120A H 0.4769 0.0049 1.2564
C72A C 0.3375(5) 0.1488(6) 1.2533(2)
H121A H 0.3233 0.1080 1.2763
H122A H 0.3615 0.1810 1.2701
C73A C 0.2496(5) 0.2100(8) 1.2370(3)
C74A C 0.1624(5) 0.2280(7) 1.2658(3)
H123A H 0.1569 0.1982 1.2948
C75A C 0.0852(5) 0.2899(8) 1.2510(3)
H124A H 0.0248 0.3036 1.2692
C76A C 0.0982(5) 0.3317(7) 1.2088(3)
H125A H 0.0505 0.3838 1.2012
C77A C 0.1812(4) 0.2963(8) 1.1782(2)
C78A C 0.1925(5) 0.3263(7) 1.1275(2)
H126A H 0.1886 0.3852 1.1271
H127A H 0.1417 0.3270 1.1125
C79A C 0.2946(4) 0.2937(5) 1.0483(2)
H128A H 0.2858 0.3547 1.0455
C80A C 0.2265(4) 0.2808(7) 1.0226(3)
H129A H 0.1675 0.3326 1.0248
H130A H 0.2129 0.2317 1.0359
C81A C 0.2778(6) 0.2635(8) 0.9715(2)
H131A H 0.2747 0.3171 0.9550
H132A H 0.2523 0.2345 0.9534
C82A C 0.3755(5) 0.2062(7) 0.9773(3)
H133A H 0.3836 0.1460 0.9808
H134A H 0.4205 0.2106 0.9493
C83A C 0.3900(4) 0.2374(5) 1.0224(2)
H135A H 0.4180 0.1869 1.0429
C84A C 0.4247(6) 0.3614(7) 0.9811(5)
H136A H 0.4142 0.3462 0.9507
H137A H 0.3657 0.4063 0.9970
C85A C 0.4986(5) 0.3953(6) 0.9709(4)
C86A C 0.4874(6) 0.4678(7) 0.9449(4)
H138A H 0.4305 0.5014 0.9344
C87A C 0.5613(6) 0.4908(7) 0.9345(5)
H139A H 0.5560 0.5405 0.9161
C88A C 0.6429(6) 0.4419(7) 0.9506(4)
H140A H 0.6941 0.4572 0.9435
C89A C 0.6483(5) 0.3694(6) 0.9774(4)
C90A C 0.7306(6) 0.3153(6) 0.9999(5)
H141A H 0.7327 0.3465 1.0270
H142A H 0.7885 0.3028 0.9762
C91A C 0.7990(4) 0.1780(4) 1.0426(2)
H143A H 0.8602 0.1636 1.0208
C92A C 0.8005(7) 0.2174(5) 1.0886(3)
H144A H 0.7370 0.2505 1.1061
H145A H 0.8345 0.2545 1.0820
C93A C 0.8521(7) 0.1374(6) 1.1157(3)
H146A H 0.9195 0.1131 1.1026
H147A H 0.8427 0.1501 1.1500
C94A C 0.8094(7) 0.0757(6) 1.1082(2)
H148A H 0.8538 0.0156 1.1108
H149A H 0.7520 0.0864 1.1320
C95A C 0.7877(4) 0.0954(4) 1.0573(2)
H150A H 0.7211 0.1068 1.0588
C96A C 0.8262(8) -0.0512(5) 1.0282(4)
H151A H 0.8405 -0.0783 1.0591
H152A H 0.7595 -0.0352 1.0282
C97? C 0.5833(5) 0.0120(3) 0.58723(19)
H153? H 0.6129 -0.0218 0.5574
H154? H 0.6301 -0.0031 0.6081
C98? C 0.5037(7) -0.0059(5) 0.6115(5)
H155? H 0.5240 -0.0550 0.6334
H156? H 0.4735 -0.0189 0.5880
C99? C 0.4372(4) 0.0755(3) 0.63936(18)
H157? H 0.4537 0.0754 0.6710
H158? H 0.3724 0.0813 0.6440
C100? C 0.7161(3) 0.3902(3) 0.6960(2)
H159? H 0.6782 0.3898 0.7277
H160? H 0.7040 0.4502 0.6873
C101? C 0.8191(8) 0.3391(16) 0.6976(10)
H161? H 0.8526 0.3767 0.6912
H162? H 0.8273 0.3128 0.7294
C102? C 0.8559(3) 0.2711(3) 0.65961(19)
H163? H 0.9026 0.2172 0.6702
H164? H 0.8844 0.2898 0.6296
C103? C 0.8512(4) 0.6052(4) 0.6266(2)
H165? H 0.8681 0.6467 0.6401
H166? H 0.8729 0.5516 0.6450
C104? C 0.7455(5) 0.641(2) 0.6302(4)
H167? H 0.7165 0.7033 0.6373
H168? H 0.7181 0.6119 0.6555
C105? C 0.7322(3) 0.6239(3) 0.58066(18)
H169? H 0.7289 0.5680 0.5770
N25? N 0.1281(6) 0.0812(5) 1.0552(2)
N26? N 0.1526(6) 0.0042(4) 1.13809(19)
H170? H 0.2031 -0.0094 1.1143
H171? H 0.1147 -0.0176 1.1299
N27? N 0.3296(4) -0.1708(4) 1.1729(3)
H172? H 0.3508 -0.1369 1.1526
H173? H 0.3432 -0.1678 1.2019
N28? N 0.5139(5) -0.2299(4) 1.1540(5)
N29? N 0.5566(5) -0.1128(5) 1.1855(4)
H174? H 0.5066 -0.0928 1.1706
H175? H 0.5404 -0.1346 1.2141
N30? N 0.4183(4) 0.0817(6) 1.2123(2)
H176? H 0.4078 0.0546 1.1894
H177? H 0.4287 0.1269 1.1985
N31? N 0.2629(5) 0.2101(7) 1.1902(2)
N32? N 0.2886(5) 0.2440(6) 1.0986(2)
H178? H 0.2977 0.1882 1.1017
H179? H 0.3325 0.2506 1.1116
N33? N 0.4586(4) 0.2591(5) 1.0122(3)
H180? H 0.4565 0.2815 1.0405
H181? H 0.5180 0.2203 1.0027
N34? N 0.5862(5) 0.3178(6) 0.9884(4)
N35? N 0.7274(5) 0.2084(5) 1.0235(3)
H182? H 0.7243 0.1804 0.9987
H183? H 0.6729 0.2231 1.0445
N36? N 0.8504(6) -0.0018(4) 1.0234(2)
H184? H 0.8399 0.0210 0.9942
H185? H 0.9113 -0.0167 1.0241
C106? C 0.1157(8) 0.1132(6) 1.0117(2)
C107? C 0.0566(10) 0.1956(7) 1.0044(3)
H186? H 0.0502 0.2165 0.9729
C108? C 0.0061(8) 0.2484(6) 1.0435(3)
H187? H -0.0395 0.3042 1.0396
C109? C 0.0237(10) 0.2180(5) 1.0884(3)
H188? H -0.0047 0.2544 1.1156
C110? C 0.0828(7) 0.1344(5) 1.0929(2)
C111? C 0.1027(8) 0.0979(4) 1.1410(2)
H189? H 0.1407 0.1223 1.1527
H190? H 0.0436 0.1136 1.1641
C112? C 0.1839(4) -0.0374(4) 1.1827(2)
H191? H 0.2312 -0.0191 1.1900
C113? C 0.1041(5) -0.0170(5) 1.2254(2)
H192? H 0.0935 0.0354 1.2422
H193? H 0.0459 -0.0098 1.2154
C114? C 0.1376(6) -0.0929(6) 1.2559(2)
H194? H 0.0854 -0.0966 1.2794
H195? H 0.1842 -0.0908 1.2732
C115? C 0.1811(6) -0.1689(5) 1.2215(3)
H196? H 0.1333 -0.1852 1.2138
H197? H 0.2279 -0.2189 1.2351
C116? C 0.2266(4) -0.1353(4) 1.1774(2)
H198? H 0.2109 -0.1505 1.1482
C117? C 0.3805(4) -0.2595(5) 1.1555(5)
H199? H 0.3685 -0.2630 1.1232
H200? H 0.3572 -0.2968 1.1768
C118? C 0.4827(4) -0.2911(4) 1.1534(5)
C119? C 0.5410(5) -0.3752(4) 1.1491(5)
H201? H 0.5173 -0.4168 1.1474
C120? C 0.6343(5) -0.3998(4) 1.1473(7)
H202? H 0.6757 -0.4585 1.1453
C121? C 0.6670(5) -0.3384(5) 1.1484(7)
H203? H 0.7315 -0.3539 1.1466
C122? C 0.6053(5) -0.2545(5) 1.1522(5)
C123? C 0.6345(6) -0.1836(6) 1.1559(5)
H204? H 0.6905 -0.2049 1.1708
H205? H 0.6499 -0.1622 1.1236
C124? C 0.5780(4) -0.0400(5) 1.1944(3)
H206? H 0.5850 -0.0090 1.1639
C125? C 0.6652(4) -0.0669(6) 1.2163(4)
H207? H 0.6677 -0.1100 1.2416
H208? H 0.7222 -0.0902 1.1917
C126? C 0.6529(5) 0.0172(7) 1.2368(5)
H209? H 0.6841 0.0063 1.2647
H210? H 0.6803 0.0480 1.2125
C127? C 0.5502(5) 0.0694(7) 1.2514(4)
H211? H 0.5323 0.1276 1.2380
H212? H 0.5326 0.0738 1.2866
C128? C 0.5018(4) 0.0218(5) 1.2314(3)
H213? H 0.4822 -0.0121 1.2577
C129? C 0.3350(5) 0.1129(6) 1.2507(3)
H214? H 0.3521 0.1283 1.2790
H215? H 0.3149 0.0660 1.2601
C130? C 0.2551(5) 0.1890(8) 1.2362(2)
C131? C 0.1804(7) 0.2394(7) 1.2709(2)
H216? H 0.1826 0.2304 1.3039
C132? C 0.1039(7) 0.3019(8) 1.2557(3)
H217? H 0.0536 0.3398 1.2778
C133? C 0.1030(5) 0.3077(9) 1.2073(3)
H218? H 0.0464 0.3362 1.1956
C134? C 0.1858(5) 0.2713(9) 1.1765(3)
C135? C 0.1957(6) 0.2978(8) 1.1252(3)
H219? H 0.1475 0.2924 1.1106
H220? H 0.1865 0.3584 1.1232
C136? C 0.3002(4) 0.2661(5) 1.0465(2)
H221? H 0.2887 0.3278 1.0427
C137? C 0.2351(5) 0.2475(8) 1.0211(3)
H222? H 0.2246 0.1973 1.0351
H223? H 0.1745 0.2973 1.0228
C138? C 0.2872(6) 0.2298(8) 0.9701(3)
H224? H 0.2647 0.1974 0.9526
H225? H 0.2811 0.2835 0.9529
C139? C 0.3858(5) 0.1774(6) 0.9764(3)
H226? H 0.4297 0.1840 0.9485
H227? H 0.3979 0.1162 0.9799
C140? C 0.3969(4) 0.2113(5) 1.0215(2)
H228? H 0.4247 0.1615 1.0425
C141? C 0.4382(6) 0.3297(7) 0.9763(4)
H229? H 0.3770 0.3763 0.9879
H230? H 0.4355 0.3081 0.9458
C142? C 0.5119(5) 0.3639(6) 0.9682(4)
C143? C 0.5016(6) 0.4375(6) 0.9435(4)
H231? H 0.4462 0.4707 0.9316
C144? C 0.5743(7) 0.4621(7) 0.9365(5)
H232? H 0.5701 0.5120 0.9186
C145? C 0.6530(7) 0.4145(8) 0.9553(5)
H233? H 0.7045 0.4295 0.9496
C146? C 0.6551(6) 0.3438(6) 0.9832(5)
C147? C 0.7372(7) 0.2875(6) 1.0053(5)
H234? H 0.7948 0.2728 0.9812
H235? H 0.7418 0.3184 1.0318
C148? C 0.8037(5) 0.1492(4) 1.0476(2)
H236? H 0.8640 0.1362 1.0253
C149? C 0.8078(7) 0.1844(5) 1.0943(3)
H237? H 0.8416 0.2217 1.0885
H238? H 0.7450 0.2162 1.1130
C150? C 0.8613(7) 0.1019(6) 1.1191(3)
H239? H 0.8541 0.1116 1.1536
H240? H 0.9282 0.0781 1.1049
C151? C 0.8170(7) 0.0419(6) 1.1106(3)
H241? H 0.7604 0.0517 1.1347
H242? H 0.8612 -0.0186 1.1118
C152? C 0.7932(5) 0.0657(4) 1.0602(2)
H243? H 0.7265 0.0770 1.0620
C153? C 0.8336(8) -0.0796(6) 1.0284(4)
H244? H 0.8486 -0.1072 1.0592
H245? H 0.7670 -0.0642 1.0288
S9? S 0.3160(4) 0.1576(4) 0.49630(19)
O71? O 0.3980(8) 0.0857(8) 0.5095(7)
O72? O 0.3041(11) 0.2374(8) 0.5180(6)
O73? O 0.2324(7) 0.1412(8) 0.5109(4)
O74? O 0.3325(7) 0.1677(7) 0.4437(3)
S10? S 0.6033(9) 0.0241(9) 0.9011(3)
O75? O 0.6403(14) 0.0894(13) 0.9016(7)
O76? O 0.5391(14) 0.0288(17) 0.9467(5)
O77? O 0.5629(16) 0.0360(16) 0.8583(6)
O78? O 0.6803(12) -0.0599(11) 0.8987(8)
S11? S 0.4859(5) -0.2478(6) 0.8735(3)
O79? O 0.5787(7) -0.3131(11) 0.8810(5)
O80? O 0.4963(13) -0.1685(9) 0.8572(5)
O81? O 0.4238(9) -0.2347(9) 0.9194(5)
O82? O 0.4554(9) -0.2766(7) 0.8361(4)
S12? S 1.1406(4) -0.2962(4) 0.7576(3)
O83? O 1.0824(6) -0.2035(4) 0.7688(4)
O84? O 1.2382(5) -0.3131(7) 0.7530(4)
O85? O 1.1241(7) -0.3117(7) 0.7114(3)
O86? O 1.1155(8) -0.3487(7) 0.7957(4)
S13? S 0.8240(6) 0.3690(6) 0.8290(3)
O87? O 0.8451(10) 0.4232(9) 0.8592(5)
O88? O 0.7437(9) 0.4227(9) 0.8076(5)
O89? O 0.7995(11) 0.3086(8) 0.8612(5)
O90? O 0.9042(8) 0.3264(10) 0.7913(5)
O91? O 0.291(3) 0.170(3) 0.3877(15)
O92? O 0.586(3) 0.6823(19) 0.7355(10)
O93? O 0.459(4) 0.640(3) 0.7309(15)
O94? O 0.329(4) -0.214(4) 0.7743(14)
O95? O 0.319(3) -0.270(2) 0.7722(12)
O96? O 0.408(7) -0.271(5) 0.765(2)
O97? O 0.248(2) 0.061(2) 1.3451(12)
O98? O -0.0523(16) -0.1318(17) 1.1959(8)
O99? O -0.1421(12) -0.0350(11) 1.2728(6)
O100? O 0.826(2) 0.098(3) 1.2466(6)
O101? O 0.563(3) 0.505(2) 0.809(2)
O102? O 1.021(3) 0.5448(17) 0.2114(8)
O103? O 0.9730(13) -0.1272(17) 0.6616(8)
O104? O 0.9837(12) -0.0814(14) 0.6595(6)
O105? O 1.0651(15) -0.2431(14) 0.6752(8)
O106? O 0.4008(12) 0.5899(13) 0.8518(12)
O107? O 1.0370(9) 0.2259(13) 0.4015(6)
O108? O 1.0819(11) 0.2242(11) 0.4465(6)
O109? O 0.9384(11) -0.0357(14) 0.3504(6)
O110? O 0.9476(16) -0.091(2) 0.3434(10)
O111? O 0.6830(11) 0.5422(11) 0.8340(7)
O112? O 0.7127(19) 0.5517(18) 0.8743(10)
O113? O 0.5267(14) 0.0244(13) 0.9149(8)
O114? O 0.749(2) -0.640(2) 1.1872(13)
O115? O 0.8522(14) -0.7406(14) 1.2635(8)
O116? O 0.7771(16) -0.6025(15) 1.1468(10)
O117? O 0.866(2) -0.573(2) 1.1277(12)
O118? O 0.749(2) -0.5767(19) 1.0843(11)
O119? O 0.8398(15) -0.2578(14) 1.2199(9)
O120? O 0.8876(16) -0.2956(15) 1.2316(9)
O121? O 0.8633(18) -0.201(2) 1.1387(10)
O122? O 0.8986(19) -0.219(2) 1.1194(10)
O123? O 0.8943(19) -0.2624(18) 1.1351(10)
O124? O 0.862(3) -0.316(3) 1.1195(15)
O125? O 0.9221(8) -0.4607(9) 1.0875(6)
O126? O 0.9280(9) -0.5260(9) 1.1322(5)
O127? O 0.7860(18) -0.4783(18) 1.0389(11)
O128? O 0.7930(10) -0.4976(10) 1.0065(6)
O129? O 0.8531(17) -0.5184(15) 0.9771(10)
O130? O 0.8686(17) -0.5347(16) 0.9264(9)
O131? O 1.0067(12) 0.2094(11) 0.7543(6)
loop_
_geom_bond_atom_site_label_1
_geom_bond_atom_site_label_2
_geom_bond_site_symmetry_1
_geom_bond_site_symmetry_2
N1 C1 1_555 1_555
N2 H1 1_555 1_555
H2 N2 1_555 1_555
N3 H3 1_555 1_555
H4 N3 1_555 1_555
N4 C13 1_555 1_555
N5 H5 1_555 1_555
H6 N5 1_555 1_555
N6 H7 1_555 1_555
H8 N6 1_555 1_555
N7 C25 1_555 1_555
N8 H9 1_555 1_555
H10 N8 1_555 1_555
N9 H11 1_555 1_555
H12 N9 1_555 1_555
N10 C37 1_555 1_555
N11 H13 1_555 1_555
H14 N11 1_555 1_555
N12 H15 1_555 1_555
H16 N12 1_555 1_555
C1 C2 1_555 1_555
C2 H17 1_555 1_555
C3 C2 1_555 1_555
H18 C3 1_555 1_555
C4 C3 1_555 1_555
H19 C4 1_555 1_555
C5 N1 1_555 1_555
C6 N2 1_555 1_555
H20 C6 1_555 1_555
H21 C6 1_555 1_555
C7 N2 1_555 1_555
H22 C7 1_555 1_555
C8 C7 1_555 1_555
H23 C8 1_555 1_555
H24 C8 1_555 1_555
C9 C8 1_555 1_555
H25 C9 1_555 1_555
H26 C9 1_555 1_555
C10 C9 1_555 1_555
H27 C10 1_555 1_555
H28 C10 1_555 1_555
C11 N3 1_555 1_555
H29 C11 1_555 1_555
C12 N3 1_555 1_555
H30 C12 1_555 1_555
H31 C12 1_555 1_555
C13 C12 1_555 1_555
C14 C13 1_555 1_555
H32 C14 1_555 1_555
C15 C14 1_555 1_555
H33 C15 1_555 1_555
C16 C15 1_555 1_555
H34 C16 1_555 1_555
C17 N4 1_555 1_555
C18 N5 1_555 1_555
H35 C18 1_555 1_555
H36 C18 1_555 1_555
C19 N5 1_555 1_555
H37 C19 1_555 1_555
C20 C19 1_555 1_555
H38 C20 1_555 1_555
H39 C20 1_555 1_555
C21 C20 1_555 1_555
H40 C21 1_555 1_555
H41 C21 1_555 1_555
C22 C21 1_555 1_555
H42 C22 1_555 1_555
H43 C22 1_555 1_555
C23 N6 1_555 1_555
H44 C23 1_555 1_555
C24 N6 1_555 1_555
H45 C24 1_555 1_555
H46 C24 1_555 1_555
C25 C24 1_555 1_555
C26 C25 1_555 1_555
H47 C26 1_555 1_555
C27 C26 1_555 1_555
H48 C27 1_555 1_555
C28 C27 1_555 1_555
H49 C28 1_555 1_555
C29 N7 1_555 1_555
C30 N8 1_555 1_555
H50 C30 1_555 1_555
H51 C30 1_555 1_555
C31 N8 1_555 1_555
H52 C31 1_555 1_555
C32 C31 1_555 1_555
H53 C32 1_555 1_555
H54 C32 1_555 1_555
C33 C32 1_555 1_555
H55 C33 1_555 1_555
H56 C33 1_555 1_555
C34 C33 1_555 1_555
H57 C34 1_555 1_555
H58 C34 1_555 1_555
C35 N9 1_555 1_555
H59 C35 1_555 1_555
C36 N9 1_555 1_555
H60 C36 1_555 1_555
H61 C36 1_555 1_555
C37 C36 1_555 1_555
C38 C37 1_555 1_555
H62 C38 1_555 1_555
C39 C38 1_555 1_555
H63 C39 1_555 1_555
C40 C39 1_555 1_555
H64 C40 1_555 1_555
C41 N10 1_555 1_555
C42 N11 1_555 1_555
H65 C42 1_555 1_555
H66 C42 1_555 1_555
C43 N11 1_555 1_555
H67 C43 1_555 1_555
C44 C43 1_555 1_555
H68 C44 1_555 1_555
H69 C44 1_555 1_555
C45 C44 1_555 1_555
H70 C45 1_555 1_555
H71 C45 1_555 1_555
C46 C45 1_555 1_555
H72 C46 1_555 1_555
H73 C46 1_555 1_555
C47 N12 1_555 1_555
H74 C47 1_555 1_555
C48 N12 1_555 1_555
H75 C48 1_555 1_555
H76 C48 1_555 1_555
S1 O1 1_555 1_555
O2 S1 1_555 1_555
O3 S1 1_555 1_555
O4 S1 1_555 1_555
S2 O5 1_555 1_555
O6 S2 1_555 1_555
O7 S2 1_555 1_555
O8 S2 1_555 1_555
S3 O9 1_555 1_555
O10 S3 1_555 1_555
O11 S3 1_555 1_555
O12 S3 1_555 1_555
S4 O13 1_555 1_555
O14 S4 1_555 1_555
O15 S4 1_555 1_555
O16 S4 1_555 1_555
S5 O17 1_555 1_555
O18 S5 1_555 1_555
O19 S5 1_555 1_555
O20 S5 1_555 1_555
S6 O21 1_555 1_555
O22 S6 1_555 1_555
O23 S6 1_555 1_555
O24 S6 1_555 1_555
S7 O25 1_555 1_555
O26 S7 1_555 1_555
O27 S7 1_555 1_555
O28 S7 1_555 1_555
S8 O29 1_555 1_555
O30 S8 1_555 1_555
O31 S8 1_555 1_555
O32 S8 1_555 1_555
N13 C49 1_555 1_555
N14 H77 1_555 1_555
H78 N14 1_555 1_555
N15 H79 1_555 1_555
H80 N15 1_555 1_555
N16 C61 1_555 1_555
N17 H81 1_555 1_555
H82 N17 1_555 1_555
N18 H83 1_555 1_555
H84 N18 1_555 1_555
N19 C73 1_555 1_555
N20 H85 1_555 1_555
H86 N20 1_555 1_555
N21 H87 1_555 1_555
H88 N21 1_555 1_555
N22 C85 1_555 1_555
N23 H89 1_555 1_555
H90 N23 1_555 1_555
N24 H91 1_555 1_555
H92 N24 1_555 1_555
C49 C50 1_555 1_555
C50 H93 1_555 1_555
C51 C50 1_555 1_555
H94 C51 1_555 1_555
C52 C51 1_555 1_555
H95 C52 1_555 1_555
C53 N13 1_555 1_555
C54 N14 1_555 1_555
H96 C54 1_555 1_555
H97 C54 1_555 1_555
C55 N14 1_555 1_555
H98 C55 1_555 1_555
C56 C55 1_555 1_555
H99 C56 1_555 1_555
H100 C56 1_555 1_555
C57 C56 1_555 1_555
H101 C57 1_555 1_555
H102 C57 1_555 1_555
C58 C57 1_555 1_555
H103 C58 1_555 1_555
H104 C58 1_555 1_555
C59 N15 1_555 1_555
H105 C59 1_555 1_555
C60 N15 1_555 1_555
H106 C60 1_555 1_555
H107 C60 1_555 1_555
C61 C60 1_555 1_555
C62 C61 1_555 1_555
H108 C62 1_555 1_555
C63 C62 1_555 1_555
H109 C63 1_555 1_555
C64 C63 1_555 1_555
H110 C64 1_555 1_555
C65 N16 1_555 1_555
C66 N17 1_555 1_555
H111 C66 1_555 1_555
H112 C66 1_555 1_555
C67 N17 1_555 1_555
H113 C67 1_555 1_555
C68 C67 1_555 1_555
H114 C68 1_555 1_555
H115 C68 1_555 1_555
C69 C68 1_555 1_555
H116 C69 1_555 1_555
H117 C69 1_555 1_555
C70 C69 1_555 1_555
H118 C70 1_555 1_555
H119 C70 1_555 1_555
C71 N18 1_555 1_555
H120 C71 1_555 1_555
C72 N18 1_555 1_555
H121 C72 1_555 1_555
H122 C72 1_555 1_555
C73 C72 1_555 1_555
C74 C73 1_555 1_555
H123 C74 1_555 1_555
C75 C74 1_555 1_555
H124 C75 1_555 1_555
C76 C75 1_555 1_555
H125 C76 1_555 1_555
C77 N19 1_555 1_555
C78 N20 1_555 1_555
H126 C78 1_555 1_555
H127 C78 1_555 1_555
C79 N20 1_555 1_555
H128 C79 1_555 1_555
C80 C79 1_555 1_555
H129 C80 1_555 1_555
H130 C80 1_555 1_555
C81 C80 1_555 1_555
H131 C81 1_555 1_555
H132 C81 1_555 1_555
C82 C81 1_555 1_555
H133 C82 1_555 1_555
H134 C82 1_555 1_555
C83 N21 1_555 1_555
H135 C83 1_555 1_555
C84 N21 1_555 1_555
H136 C84 1_555 1_555
H137 C84 1_555 1_555
C85 C84 1_555 1_555
C86 C85 1_555 1_555
H138 C86 1_555 1_555
C87 C86 1_555 1_555
H139 C87 1_555 1_555
C88 C87 1_555 1_555
H140 C88 1_555 1_555
C89 N22 1_555 1_555
C90 N23 1_555 1_555
H141 C90 1_555 1_555
H142 C90 1_555 1_555
C91 N23 1_555 1_555
H143 C91 1_555 1_555
C92 C91 1_555 1_555
H144 C92 1_555 1_555
H145 C92 1_555 1_555
C93 C92 1_555 1_555
H146 C93 1_555 1_555
H147 C93 1_555 1_555
C94 C93 1_555 1_555
H148 C94 1_555 1_555
H149 C94 1_555 1_555
C95 N24 1_555 1_555
H150 C95 1_555 1_555
C96 N24 1_555 1_555
H151 C96 1_555 1_555
H152 C96 1_555 1_555
N1A C1A 1_555 1_555
N2A H1A 1_555 1_555
H2A N2A 1_555 1_555
N3A H3A 1_555 1_555
H4A N3A 1_555 1_555
N4A C13A 1_555 1_555
N5A H5A 1_555 1_555
H6A N5A 1_555 1_555
N6A H7A 1_555 1_555
H8A N6A 1_555 1_555
N7A C25A 1_555 1_555
N8A H9A 1_555 1_555
H10A N8A 1_555 1_555
N9A H11A 1_555 1_555
H12A N9A 1_555 1_555
N10A C37A 1_555 1_555
N11A H13A 1_555 1_555
H14A N11A 1_555 1_555
N12A H15A 1_555 1_555
H16A N12A 1_555 1_555
C1A C48 1_555 1_555
C2A C1A 1_555 1_555
H17A C2A 1_555 1_555
C3A C2A 1_555 1_555
H18A C3A 1_555 1_555
C4A C3A 1_555 1_555
H19A C4A 1_555 1_555
C5A N1A 1_555 1_555
C6A N2A 1_555 1_555
H20A C6A 1_555 1_555
H21A C6A 1_555 1_555
C7A N2A 1_555 1_555
H22A C7A 1_555 1_555
C8A C7A 1_555 1_555
H23A C8A 1_555 1_555
H24A C8A 1_555 1_555
C9A C8A 1_555 1_555
H25A C9A 1_555 1_555
H26A C9A 1_555 1_555
C10A C9A 1_555 1_555
H27A C10A 1_555 1_555
H28A C10A 1_555 1_555
C11A N3A 1_555 1_555
H29A C11A 1_555 1_555
C12A N3A 1_555 1_555
H30A C12A 1_555 1_555
H31A C12A 1_555 1_555
C13A C12A 1_555 1_555
C14A C13A 1_555 1_555
H32A C14A 1_555 1_555
C15A C14A 1_555 1_555
H33A C15A 1_555 1_555
C16A C15A 1_555 1_555
H34A C16A 1_555 1_555
C17A N4A 1_555 1_555
C18A N5A 1_555 1_555
H35A C18A 1_555 1_555
H36A C18A 1_555 1_555
C19A N5A 1_555 1_555
H37A C19A 1_555 1_555
C20A C19A 1_555 1_555
H38A C20A 1_555 1_555
H39A C20A 1_555 1_555
C21A C20A 1_555 1_555
H40A C21A 1_555 1_555
H41A C21A 1_555 1_555
C22A C21A 1_555 1_555
H42A C22A 1_555 1_555
H43A C22A 1_555 1_555
C23A N6A 1_555 1_555
H44A C23A 1_555 1_555
C24A N6A 1_555 1_555
H45A C24A 1_555 1_555
H46A C24A 1_555 1_555
C25A C24A 1_555 1_555
C26A C25A 1_555 1_555
H47A C26A 1_555 1_555
C27A C26A 1_555 1_555
H48A C27A 1_555 1_555
C28A C27A 1_555 1_555
H49A C28A 1_555 1_555
C29A N7A 1_555 1_555
C30A N8A 1_555 1_555
H50A C30A 1_555 1_555
H51A C30A 1_555 1_555
C31A N8A 1_555 1_555
H52A C31A 1_555 1_555
C32A C31A 1_555 1_555
H53A C32A 1_555 1_555
H54A C32A 1_555 1_555
C33A C32A 1_555 1_555
H55A C33A 1_555 1_555
H56A C33A 1_555 1_555
C34A C33A 1_555 1_555
H57A C34A 1_555 1_555
H58A C34A 1_555 1_555
C35A N9A 1_555 1_555
H59A C35A 1_555 1_555
C36A N9A 1_555 1_555
H60A C36A 1_555 1_555
H61A C36A 1_555 1_555
C37A C36A 1_555 1_555
C38A C37A 1_555 1_555
H62A C38A 1_555 1_555
C39A C38A 1_555 1_555
H63A C39A 1_555 1_555
C40A C39A 1_555 1_555
H64A C40A 1_555 1_555
C41A N10A 1_555 1_555
C42A N11A 1_555 1_555
H65A C42A 1_555 1_555
H66A C42A 1_555 1_555
C43A N11A 1_555 1_555
H67A C43A 1_555 1_555
C44A C43A 1_555 1_555
H68A C44A 1_555 1_555
H69A C44A 1_555 1_555
C45A C44A 1_555 1_555
H70A C45A 1_555 1_555
H71A C45A 1_555 1_555
C46A C45A 1_555 1_555
H72A C46A 1_555 1_555
H73A C46A 1_555 1_555
C47A N12A 1_555 1_555
H74A C47A 1_555 1_555
C48A C1 1_555 1_555
H75A C48A 1_555 1_555
H76A C48A 1_555 1_555
N13A C49A 1_555 1_555
N14A H77A 1_555 1_555
H78A N14A 1_555 1_555
N15A H79A 1_555 1_555
H80A N15A 1_555 1_555
N16A C61A 1_555 1_555
N17A H81A 1_555 1_555
H82A N17A 1_555 1_555
N18A H83A 1_555 1_555
H84A N18A 1_555 1_555
N19A C73A 1_555 1_555
N20A H85A 1_555 1_555
H86A N20A 1_555 1_555
N21A H87A 1_555 1_555
H88A N21A 1_555 1_555
N22A C85A 1_555 1_555
N23A H89A 1_555 1_555
H90A N23A 1_555 1_555
N24A H91A 1_555 1_555
H92A N24A 1_555 1_555
C49A C96 1_555 1_555
C50A C49A 1_555 1_555
H93A C50A 1_555 1_555
C51A C50A 1_555 1_555
H94A C51A 1_555 1_555
C52A C51A 1_555 1_555
H95A C52A 1_555 1_555
C53A N13A 1_555 1_555
C54A N14A 1_555 1_555
H96A C54A 1_555 1_555
H97A C54A 1_555 1_555
C55A N14A 1_555 1_555
H98A C55A 1_555 1_555
C56A C55A 1_555 1_555
H99A C56A 1_555 1_555
H100A C56A 1_555 1_555
C57A C56A 1_555 1_555
H101A C57A 1_555 1_555
H102A C57A 1_555 1_555
C58A C57A 1_555 1_555
H103A C58A 1_555 1_555
H104A C58A 1_555 1_555
C59A N15A 1_555 1_555
H105A C59A 1_555 1_555
C60A N15A 1_555 1_555
H106A C60A 1_555 1_555
H107A C60A 1_555 1_555
C61A C60A 1_555 1_555
C62A C61A 1_555 1_555
H108A C62A 1_555 1_555
C63A C62A 1_555 1_555
H109A C63A 1_555 1_555
C64A C63A 1_555 1_555
H110A C64A 1_555 1_555
C65A N16A 1_555 1_555
C66A N17A 1_555 1_555
H111A C66A 1_555 1_555
H112A C66A 1_555 1_555
C67A N17A 1_555 1_555
H113A C67A 1_555 1_555
C68A C67A 1_555 1_555
H114A C68A 1_555 1_555
H115A C68A 1_555 1_555
C69A C68A 1_555 1_555
H116A C69A 1_555 1_555
H117A C69A 1_555 1_555
C70A C69A 1_555 1_555
H118A C70A 1_555 1_555
H119A C70A 1_555 1_555
C71A N18A 1_555 1_555
H120A C71A 1_555 1_555
C72A N18A 1_555 1_555
H121A C72A 1_555 1_555
H122A C72A 1_555 1_555
C73A C72A 1_555 1_555
C74A C73A 1_555 1_555
H123A C74A 1_555 1_555
C75A C74A 1_555 1_555
H124A C75A 1_555 1_555
C76A C75A 1_555 1_555
H125A C76A 1_555 1_555
C77A N19A 1_555 1_555
C78A N20A 1_555 1_555
H126A C78A 1_555 1_555
H127A C78A 1_555 1_555
C79A N20A 1_555 1_555
H128A C79A 1_555 1_555
C80A C79A 1_555 1_555
H129A C80A 1_555 1_555
H130A C80A 1_555 1_555
C81A C80A 1_555 1_555
H131A C81A 1_555 1_555
H132A C81A 1_555 1_555
C82A C81A 1_555 1_555
H133A C82A 1_555 1_555
H134A C82A 1_555 1_555
C83A N21A 1_555 1_555
H135A C83A 1_555 1_555
C84A N21A 1_555 1_555
H136A C84A 1_555 1_555
H137A C84A 1_555 1_555
C85A C84A 1_555 1_555
C86A C85A 1_555 1_555
H138A C86A 1_555 1_555
C87A C86A 1_555 1_555
H139A C87A 1_555 1_555
C88A C87A 1_555 1_555
H140A C88A 1_555 1_555
C89A N22A 1_555 1_555
C90A N23A 1_555 1_555
H141A C90A 1_555 1_555
H142A C90A 1_555 1_555
C91A N23A 1_555 1_555
H143A C91A 1_555 1_555
C92A C91A 1_555 1_555
H144A C92A 1_555 1_555
H145A C92A 1_555 1_555
C93A C92A 1_555 1_555
H146A C93A 1_555 1_555
H147A C93A 1_555 1_555
C94A C93A 1_555 1_555
H148A C94A 1_555 1_555
H149A C94A 1_555 1_555
C95A N24A 1_555 1_555
H150A C95A 1_555 1_555
C96A C49 1_555 1_555
H151A C96A 1_555 1_555
H152A C96A 1_555 1_555
C4 C5 1_555 1_555
C5 C6 1_555 1_555
C7 C11 1_555 1_555
C10 C11 1_555 1_555
C16 C17 1_555 1_555
C17 C18 1_555 1_555
C19 C23 1_555 1_555
C22 C23 1_555 1_555
C28 C29 1_555 1_555
C29 C30 1_555 1_555
C31 C35 1_555 1_555
C34 C35 1_555 1_555
C40 C41 1_555 1_555
C41 C42 1_555 1_555
C43 C47 1_555 1_555
C46 C47 1_555 1_555
C52 C53 1_555 1_555
C53 C54 1_555 1_555
C55 C59 1_555 1_555
C58 C59 1_555 1_555
C64 C65 1_555 1_555
C65 C66 1_555 1_555
C67 C71 1_555 1_555
C70 C71 1_555 1_555
C76 C77 1_555 1_555
C77 C78 1_555 1_555
C79 C83 1_555 1_555
C82 C83 1_555 1_555
C88 C89 1_555 1_555
C89 C90 1_555 1_555
C91 C95 1_555 1_555
C94 C95 1_555 1_555
N12A C48A 1_555 1_555
C4A C5A 1_555 1_555
C5A C6A 1_555 1_555
C7A C11A 1_555 1_555
C10A C11A 1_555 1_555
C16A C17A 1_555 1_555
C17A C18A 1_555 1_555
C19A C23A 1_555 1_555
C22A C23A 1_555 1_555
C28A C29A 1_555 1_555
C29A C30A 1_555 1_555
C31A C35A 1_555 1_555
C34A C35A 1_555 1_555
C40A C41A 1_555 1_555
C41A C42A 1_555 1_555
C43A C47A 1_555 1_555
C46A C47A 1_555 1_555
N24A C96A 1_555 1_555
C52A C53A 1_555 1_555
C53A C54A 1_555 1_555
C55A C59A 1_555 1_555
C58A C59A 1_555 1_555
C64A C65A 1_555 1_555
C65A C66A 1_555 1_555
C67A C71A 1_555 1_555
C70A C71A 1_555 1_555
C76A C77A 1_555 1_555
C77A C78A 1_555 1_555
C79A C83A 1_555 1_555
C82A C83A 1_555 1_555
C88A C89A 1_555 1_555
C89A C90A 1_555 1_555
C91A C95A 1_555 1_555
C94A C95A 1_555 1_555

#END
