
#######################################################################
#
#                 Cambridge Crystallographic Data Centre
#                                CCDC 
#
#######################################################################
#
# If this CIF has been generated from an entry in the Cambridge 
# Structural Database, then it will include bibliographic, chemical, 
# crystal, experimental, refinement or atomic coordinate data resulting 
# from the CCDC's data processing and validation procedures.
#
#######################################################################

data_EQUPOX
_chemical_formula_moiety         'C25 H25 Br1 O7'
_chemical_name_systematic        
1-(2-bromo-5'-hydroxy-3'',4,4'',5,5''-pentamethoxy-1,1':3',1''-terphenyl-4'-yl)ethanone
_symmetry_cell_setting           monoclinic
_symmetry_space_group_name_H-M   'P 2/n'
_symmetry_Int_Tables_number      13
_space_group_name_Hall           '-P 2yac'
loop_
_symmetry_equiv_pos_site_id
_symmetry_equiv_pos_as_xyz
1 x,y,z
2 1/2-x,y,1/2-z
3 -x,-y,-z
4 1/2+x,-y,1/2+z
_cell_length_a                   15.9740(16)
_cell_length_b                   8.1457(8)
_cell_length_c                   18.9892(18)
_cell_angle_alpha                90
_cell_angle_beta                 105.739(2)
_cell_angle_gamma                90
_cell_volume                     2378.22
_exptl_crystal_colour            colorless
_exptl_crystal_description       prismatic
_cell_formula_units_Z            4
loop_
_atom_site_label
_atom_site_type_symbol
_atom_site_fract_x
_atom_site_fract_y
_atom_site_fract_z
Br1 Br 0.11987(2) 0.32884(5) 0.676578(17)
O1 O 0.25914(15) 0.5340(3) 0.39915(13)
H1 H 0.3106 0.5511 0.4024
O2 O 0.41846(15) 0.4598(3) 0.43236(12)
O3 O -0.18334(13) 0.1280(3) 0.51828(10)
O4 O -0.14392(13) 0.1472(3) 0.39593(9)
O5 O 0.58678(13) 0.2026(3) 0.74376(11)
O6 O 0.55948(13) -0.1150(3) 0.76418(10)
O7 O 0.42162(13) -0.2732(2) 0.68056(10)
C1 C 0.04318(18) 0.2629(4) 0.58518(14)
C2 C -0.03913(18) 0.2156(3) 0.58681(14)
H2 H -0.0531 0.2100 0.6312
C3 C -0.10059(18) 0.1767(3) 0.52309(14)
C4 C -0.07898(18) 0.1877(3) 0.45666(14)
C5 C 0.00321(17) 0.2338(3) 0.45627(14)
H3 H 0.0167 0.2410 0.4117
C6 C 0.06806(18) 0.2707(3) 0.52091(14)
C7 C 0.15695(17) 0.3044(3) 0.51475(14)
C8 C 0.17055(19) 0.4091(4) 0.46203(15)
H4 H 0.1240 0.4676 0.4327
C9 C 0.25238(19) 0.4284(3) 0.45219(14)
C10 C 0.32454(17) 0.3376(3) 0.49353(13)
C11 C 0.31017(16) 0.2346(3) 0.54963(12)
C12 C 0.22832(17) 0.2210(3) 0.55874(14)
H5 H 0.2200 0.1534 0.5957
C13 C 0.40492(19) 0.3437(4) 0.46952(14)
C14 C 0.4672(2) 0.2045(4) 0.48135(18)
H6 H 0.4858 0.1872 0.4379
H7 H 0.4394 0.1070 0.4923
H8 H 0.5168 0.2294 0.5215
C15 C 0.38006(17) 0.1426(3) 0.60289(12)
C16 C 0.45363(17) 0.2218(3) 0.64487(13)
H9 H 0.4624 0.3325 0.6374
C17 C 0.51368(17) 0.1351(3) 0.69781(13)
C18 C 0.50189(16) -0.0310(3) 0.70859(13)
C19 C 0.42799(16) -0.1093(3) 0.66621(13)
C20 C 0.36717(16) -0.0232(3) 0.61391(12)
H10 H 0.3176 -0.0759 0.5860
C21 C -0.2025(2) 0.0757(4) 0.58397(15)
H11 H -0.1617 -0.0075 0.6072
H12 H -0.2604 0.0318 0.5724
H13 H -0.1981 0.1675 0.6164
C22 C -0.1233(2) 0.1522(5) 0.32727(15)
H14 H -0.1055 0.2613 0.3187
H15 H -0.1736 0.1220 0.2888
H16 H -0.0769 0.0767 0.3282
C23 C 0.5978(3) 0.3755(5) 0.73933(18)
H17 H 0.6011 0.4038 0.6911
H18 H 0.6504 0.4084 0.7746
H19 H 0.5492 0.4308 0.7493
C24 C 0.6319(3) -0.1793(5) 0.7443(2)
H20 H 0.6122 -0.2522 0.7034
H21 H 0.6683 -0.2385 0.7849
H22 H 0.6645 -0.0911 0.7310
C25 C 0.3444(2) -0.3557(4) 0.64254(19)
H23 H 0.2949 -0.2991 0.6502
H24 H 0.3455 -0.4661 0.6605
H25 H 0.3404 -0.3578 0.5912
loop_
_geom_bond_atom_site_label_1
_geom_bond_atom_site_label_2
_geom_bond_site_symmetry_1
_geom_bond_site_symmetry_2
Br1 C1 1_555 1_555
O1 H1 1_555 1_555
O2 C13 1_555 1_555
O3 C3 1_555 1_555
O4 C4 1_555 1_555
O5 C17 1_555 1_555
O6 C18 1_555 1_555
O7 C19 1_555 1_555
C1 C2 1_555 1_555
C2 H2 1_555 1_555
C3 C2 1_555 1_555
C4 C3 1_555 1_555
C5 C4 1_555 1_555
H3 C5 1_555 1_555
C6 C1 1_555 1_555
C7 C6 1_555 1_555
C8 C7 1_555 1_555
H4 C8 1_555 1_555
C9 O1 1_555 1_555
C10 C9 1_555 1_555
C11 C10 1_555 1_555
C12 C7 1_555 1_555
H5 C12 1_555 1_555
C13 C10 1_555 1_555
C14 C13 1_555 1_555
H6 C14 1_555 1_555
H7 C14 1_555 1_555
H8 C14 1_555 1_555
C15 C11 1_555 1_555
C16 C15 1_555 1_555
H9 C16 1_555 1_555
C17 C16 1_555 1_555
C18 C17 1_555 1_555
C19 C18 1_555 1_555
C20 C15 1_555 1_555
H10 C20 1_555 1_555
C21 O3 1_555 1_555
H11 C21 1_555 1_555
H12 C21 1_555 1_555
H13 C21 1_555 1_555
C22 O4 1_555 1_555
H14 C22 1_555 1_555
H15 C22 1_555 1_555
H16 C22 1_555 1_555
C23 O5 1_555 1_555
H17 C23 1_555 1_555
H18 C23 1_555 1_555
H19 C23 1_555 1_555
C24 O6 1_555 1_555
H20 C24 1_555 1_555
H21 C24 1_555 1_555
H22 C24 1_555 1_555
C25 O7 1_555 1_555
H23 C25 1_555 1_555
H24 C25 1_555 1_555
H25 C25 1_555 1_555
C5 C6 1_555 1_555
C8 C9 1_555 1_555
C11 C12 1_555 1_555
C19 C20 1_555 1_555

#END
