
#######################################################################
#
#                 Cambridge Crystallographic Data Centre
#                                CCDC 
#
#######################################################################
#
# If this CIF has been generated from an entry in the Cambridge 
# Structural Database, then it will include bibliographic, chemical, 
# crystal, experimental, refinement or atomic coordinate data resulting 
# from the CCDC's data processing and validation procedures.
#
#######################################################################

data_EQUPAJ
_chemical_formula_moiety         'C20 H17 Br1 O3'
_chemical_name_systematic        
5-((2-bromophenyl)(hydroxy)methylene)-4-phenylhept-3-ene-2,6-dione
_symmetry_cell_setting           monoclinic
_symmetry_space_group_name_H-M   'P 21/c'
_symmetry_Int_Tables_number      14
_space_group_name_Hall           '-P 2ybc'
loop_
_symmetry_equiv_pos_site_id
_symmetry_equiv_pos_as_xyz
1 x,y,z
2 -x,1/2+y,1/2-z
3 -x,-y,-z
4 x,1/2-y,1/2+z
_cell_length_a                   15.4725(14)
_cell_length_b                   8.5191(8)
_cell_length_c                   13.7986(13)
_cell_angle_alpha                90
_cell_angle_beta                 101.575(2)
_cell_angle_gamma                90
_cell_volume                     1781.83
_exptl_crystal_colour            colorless
_exptl_crystal_description       prismatic
_cell_formula_units_Z            4
loop_
_atom_site_label
_atom_site_type_symbol
_atom_site_fract_x
_atom_site_fract_y
_atom_site_fract_z
Br1 Br 0.41849(2) 0.71417(4) 0.47640(2)
O1 O 0.28764(12) 0.57338(18) 0.61307(14)
O2 O 0.13059(19) 0.8407(3) 0.76366(19)
O3 O 0.12712(12) 0.54299(19) 0.55532(15)
C1 C 0.42401(16) 0.8261(3) 0.59542(18)
C2 C 0.49844(17) 0.9148(3) 0.6293(2)
H1 H 0.5440 0.9177 0.5945
C3 C 0.50414(19) 0.9996(3) 0.7158(2)
H2 H 0.5541 1.0596 0.7396
C4 C 0.43703(19) 0.9960(3) 0.7669(2)
H3 H 0.4415 1.0532 0.8251
C5 C 0.36308(16) 0.9083(3) 0.73214(17)
H4 H 0.3175 0.9069 0.7670
C6 C 0.35507(14) 0.8213(2) 0.64578(16)
C7 C 0.27500(15) 0.7246(2) 0.61249(16)
C8 C 0.19208(14) 0.7907(2) 0.58500(17)
C9 C 0.18254(14) 0.9651(2) 0.58434(16)
C10 C 0.14433(15) 1.0417(3) 0.64940(18)
H5 H 0.1374 1.1496 0.6409
C11 C 0.11212(18) 0.9711(3) 0.7336(2)
C12 C 0.0556(3) 1.0733(4) 0.7826(3)
H6 H 0.0051 1.1071 0.7347
H7 H 0.0888 1.1633 0.8106
H8 H 0.0364 1.0154 0.8341
C13 C 0.11857(17) 0.6906(3) 0.5540(2)
C14 C 0.02919(18) 0.7540(3) 0.5121(3)
H9 H -0.0055 0.6744 0.4730
H10 H 0.0345 0.8432 0.4712
H11 H 0.0010 0.7851 0.5650
C15 C 0.21529(14) 1.0502(2) 0.50511(17)
C16 C 0.25511(19) 1.1967(3) 0.5222(2)
H12 H 0.2625 1.2417 0.5847
C17 C 0.2837(2) 1.2758(3) 0.4471(3)
H13 H 0.3100 1.3740 0.4590
C18 C 0.2733(2) 1.2095(4) 0.3556(3)
H14 H 0.2918 1.2635 0.3047
C19 C 0.2360(2) 1.0642(4) 0.3381(2)
H15 H 0.2300 1.0190 0.2757
C20 C 0.20739(17) 0.9848(3) 0.41241(19)
H16 H 0.1824 0.8857 0.4000
H17 H 0.2355(15) 0.535(4) 0.595(3)
loop_
_geom_bond_atom_site_label_1
_geom_bond_atom_site_label_2
_geom_bond_site_symmetry_1
_geom_bond_site_symmetry_2
Br1 C1 1_555 1_555
O1 C7 1_555 1_555
O2 C11 1_555 1_555
O3 C13 1_555 1_555
C1 C2 1_555 1_555
C2 H1 1_555 1_555
C3 C2 1_555 1_555
H2 C3 1_555 1_555
C4 C3 1_555 1_555
H3 C4 1_555 1_555
C5 C4 1_555 1_555
H4 C5 1_555 1_555
C6 C1 1_555 1_555
C7 C6 1_555 1_555
C8 C7 1_555 1_555
C9 C8 1_555 1_555
C10 C9 1_555 1_555
H5 C10 1_555 1_555
C11 C10 1_555 1_555
C12 C11 1_555 1_555
H6 C12 1_555 1_555
H7 C12 1_555 1_555
H8 C12 1_555 1_555
C13 C8 1_555 1_555
C14 C13 1_555 1_555
H9 C14 1_555 1_555
H10 C14 1_555 1_555
H11 C14 1_555 1_555
C15 C9 1_555 1_555
C16 C15 1_555 1_555
H12 C16 1_555 1_555
C17 C16 1_555 1_555
H13 C17 1_555 1_555
C18 C17 1_555 1_555
H14 C18 1_555 1_555
C19 C18 1_555 1_555
H15 C19 1_555 1_555
C20 C15 1_555 1_555
H16 C20 1_555 1_555
H17 O1 1_555 1_555
C5 C6 1_555 1_555
C19 C20 1_555 1_555

#END
