
#######################################################################
#
#                 Cambridge Crystallographic Data Centre
#                                CCDC 
#
#######################################################################
#
# If this CIF has been generated from an entry in the Cambridge 
# Structural Database, then it will include bibliographic, chemical, 
# crystal, experimental, refinement or atomic coordinate data resulting 
# from the CCDC's data processing and validation procedures.
#
#######################################################################

data_EQUQOY
_chemical_formula_moiety         'C51 H44 B1 N3,0.5(C6 H14)'
_chemical_name_systematic        
'4-(6-(4-(diphenylamino)-2,6-dimethylphenyl)-6H-5,6-pyrido[1,2-b][2,1]benzazaborol-6-yl)-3,5-dimethyl-N,N-diphenylaniline hexane solvate'
_symmetry_cell_setting           triclinic
_symmetry_space_group_name_H-M   'P -1'
_symmetry_Int_Tables_number      2
_space_group_name_Hall           '-P 1'
loop_
_symmetry_equiv_pos_site_id
_symmetry_equiv_pos_as_xyz
1 x,y,z
2 -x,-y,-z
_cell_length_a                   12.3695(4)
_cell_length_b                   13.1372(5)
_cell_length_c                   14.3831(5)
_cell_angle_alpha                66.725(2)
_cell_angle_beta                 76.654(2)
_cell_angle_gamma                77.864(2)
_cell_volume                     2070.47
_exptl_crystal_description       block
_cell_formula_units_Z            2
loop_
_atom_site_label
_atom_site_type_symbol
_atom_site_fract_x
_atom_site_fract_y
_atom_site_fract_z
B1 B 0.79208(15) 0.81444(15) 0.04012(14)
N1 N 0.76035(11) 0.93638(11) -0.04773(11)
N2 N 0.50428(11) 0.45687(11) 0.17629(12)
N3 N 0.89436(14) 0.85525(14) 0.40403(12)
C1 C 0.89333(12) 0.76951(13) -0.03704(12)
C2 C 0.96425(15) 0.66974(15) -0.02106(15)
H1 H 0.9615 0.6162 0.0450
C3 C 1.03848(16) 0.64753(17) -0.09986(17)
H2 H 1.0869 0.5807 -0.0863
C4 C 1.04167(17) 0.72410(18) -0.19938(17)
H3 H 1.0922 0.7090 -0.2527
C5 C 0.97003(16) 0.82229(17) -0.21896(15)
H4 H 0.9702 0.8736 -0.2857
C6 C 0.89697(14) 0.84430(15) -0.13763(13)
C7 C 0.81842(13) 0.94525(14) -0.14313(13)
C8 C 0.79982(15) 1.04040(15) -0.22849(14)
H5 H 0.8374 1.0440 -0.2934
C9 C 0.72512(16) 1.12946(16) -0.21601(16)
H6 H 0.7107 1.1934 -0.2727
C10 C 0.67141(16) 1.12358(15) -0.11864(16)
H7 H 0.6227 1.1844 -0.1092
C11 C 0.69078(14) 1.02676(14) -0.03575(14)
H8 H 0.6554 1.0233 0.0297
C12 C 0.81919(13) 0.84075(13) 0.13405(12)
C13 C 0.92797(13) 0.85254(13) 0.14141(13)
C14 C 0.94873(15) 0.86014(15) 0.22921(14)
H9 H 1.0210 0.8674 0.2319
C15 C 0.86549(15) 0.85729(15) 0.31268(14)
C16 C 0.75716(15) 0.85568(14) 0.30364(13)
H10 H 0.6991 0.8593 0.3569
C17 C 0.73288(13) 0.84872(13) 0.21629(13)
C18 C 0.61038(14) 0.84766(16) 0.21829(15)
H11 H 0.5653 0.9004 0.2473
H12 H 0.5908 0.7741 0.2593
H13 H 0.5972 0.8678 0.1496
C19 C 1.02746(14) 0.85449(16) 0.05747(14)
H14 H 1.0847 0.8879 0.0659
H15 H 1.0047 0.8973 -0.0081
H16 H 1.0563 0.7794 0.0612
C20 C 0.70402(13) 0.72225(13) 0.07802(12)
C21 C 0.61279(13) 0.73131(13) 0.02989(12)
C22 C 0.54647(13) 0.64593(14) 0.06426(13)
H17 H 0.4861 0.6554 0.0319
C23 C 0.56794(13) 0.54791(13) 0.14488(14)
C24 C 0.65681(14) 0.53637(14) 0.19237(13)
H18 H 0.6722 0.4705 0.2470
C25 C 0.72458(13) 0.62037(13) 0.16129(13)
C26 C 0.81596(15) 0.59438(14) 0.22445(14)
H19 H 0.8450 0.5164 0.2439
H20 H 0.7857 0.6119 0.2849
H21 H 0.8752 0.6383 0.1846
C27 C 0.58107(15) 0.83231(15) -0.06211(14)
H22 H 0.5177 0.8207 -0.0829
H23 H 0.6432 0.8425 -0.1176
H24 H 0.5622 0.8976 -0.0440
C28 C 0.98857(16) 0.77986(17) 0.44260(14)
C29 C 1.01513(19) 0.67665(19) 0.43426(17)
H25 H 0.9704 0.6549 0.4034
C30 C 1.1074(2) 0.6048(2) 0.4710(2)
H26 H 1.1243 0.5351 0.4648
C31 C 1.1740(2) 0.6350(3) 0.5164(2)
H27 H 1.2360 0.5864 0.5412
C32 C 1.1486(2) 0.7388(3) 0.52519(17)
H28 H 1.1939 0.7599 0.5560
C33 C 1.05630(18) 0.8116(2) 0.48867(16)
H29 H 1.0397 0.8813 0.4949
C34 C 0.81619(16) 0.90307(17) 0.46901(15)
C35 C 0.76123(18) 1.00949(19) 0.42793(17)
H30 H 0.7771 1.0502 0.3580
C36 C 0.6822(2) 1.0561(2) 0.4908(2)
H31 H 0.6432 1.1269 0.4628
C37 C 0.6614(2) 0.9965(3) 0.5957(2)
H32 H 0.6092 1.0277 0.6384
C38 C 0.7176(2) 0.8923(3) 0.63595(19)
H33 H 0.7043 0.8530 0.7064
C39 C 0.79325(18) 0.8449(2) 0.57439(16)
H34 H 0.8299 0.7731 0.6030
C40 C 0.38660(14) 0.47660(14) 0.18457(13)
C41 C 0.32825(15) 0.41048(15) 0.16374(14)
H35 H 0.3672 0.3524 0.1428
C42 C 0.21255(17) 0.43064(18) 0.17396(17)
H36 H 0.1744 0.3854 0.1605
C43 C 0.15316(17) 0.5168(2) 0.20379(19)
H37 H 0.0754 0.5295 0.2110
C44 C 0.21052(17) 0.58406(18) 0.22283(17)
H38 H 0.1711 0.6437 0.2412
C45 C 0.32562(15) 0.56376(15) 0.21491(15)
H39 H 0.3630 0.6085 0.2299
C46 C 0.56567(14) 0.35355(14) 0.17277(14)
C47 C 0.65547(14) 0.35254(15) 0.09418(14)
H40 H 0.6748 0.4196 0.0435
C48 C 0.71592(15) 0.25281(17) 0.09105(16)
H41 H 0.7761 0.2530 0.0385
C49 C 0.68796(17) 0.15298(16) 0.16511(18)
H42 H 0.7290 0.0858 0.1627
C50 C 0.59882(17) 0.15294(15) 0.24280(16)
H43 H 0.5795 0.0854 0.2925
C51 C 0.53776(15) 0.25213(15) 0.24785(15)
H44 H 0.4783 0.2513 0.3011
loop_
_geom_bond_atom_site_label_1
_geom_bond_atom_site_label_2
_geom_bond_site_symmetry_1
_geom_bond_site_symmetry_2
B1 N1 1_555 1_555
N1 C7 1_555 1_555
N2 C23 1_555 1_555
N3 C15 1_555 1_555
C1 B1 1_555 1_555
C2 C1 1_555 1_555
H1 C2 1_555 1_555
C3 C2 1_555 1_555
H2 C3 1_555 1_555
C4 C3 1_555 1_555
H3 C4 1_555 1_555
C5 C4 1_555 1_555
H4 C5 1_555 1_555
C6 C1 1_555 1_555
C7 C6 1_555 1_555
C8 C7 1_555 1_555
H5 C8 1_555 1_555
C9 C8 1_555 1_555
H6 C9 1_555 1_555
C10 C9 1_555 1_555
H7 C10 1_555 1_555
C11 N1 1_555 1_555
H8 C11 1_555 1_555
C12 B1 1_555 1_555
C13 C12 1_555 1_555
C14 C13 1_555 1_555
H9 C14 1_555 1_555
C15 C14 1_555 1_555
C16 C15 1_555 1_555
H10 C16 1_555 1_555
C17 C12 1_555 1_555
C18 C17 1_555 1_555
H11 C18 1_555 1_555
H12 C18 1_555 1_555
H13 C18 1_555 1_555
C19 C13 1_555 1_555
H14 C19 1_555 1_555
H15 C19 1_555 1_555
H16 C19 1_555 1_555
C20 B1 1_555 1_555
C21 C20 1_555 1_555
C22 C21 1_555 1_555
H17 C22 1_555 1_555
C23 C22 1_555 1_555
C24 C23 1_555 1_555
H18 C24 1_555 1_555
C25 C20 1_555 1_555
C26 C25 1_555 1_555
H19 C26 1_555 1_555
H20 C26 1_555 1_555
H21 C26 1_555 1_555
C27 C21 1_555 1_555
H22 C27 1_555 1_555
H23 C27 1_555 1_555
H24 C27 1_555 1_555
C28 N3 1_555 1_555
C29 C28 1_555 1_555
H25 C29 1_555 1_555
C30 C29 1_555 1_555
H26 C30 1_555 1_555
C31 C30 1_555 1_555
H27 C31 1_555 1_555
C32 C31 1_555 1_555
H28 C32 1_555 1_555
C33 C28 1_555 1_555
H29 C33 1_555 1_555
C34 N3 1_555 1_555
C35 C34 1_555 1_555
H30 C35 1_555 1_555
C36 C35 1_555 1_555
H31 C36 1_555 1_555
C37 C36 1_555 1_555
H32 C37 1_555 1_555
C38 C37 1_555 1_555
H33 C38 1_555 1_555
C39 C34 1_555 1_555
H34 C39 1_555 1_555
C40 N2 1_555 1_555
C41 C40 1_555 1_555
H35 C41 1_555 1_555
C42 C41 1_555 1_555
H36 C42 1_555 1_555
C43 C42 1_555 1_555
H37 C43 1_555 1_555
C44 C43 1_555 1_555
H38 C44 1_555 1_555
C45 C40 1_555 1_555
H39 C45 1_555 1_555
C46 N2 1_555 1_555
C47 C46 1_555 1_555
H40 C47 1_555 1_555
C48 C47 1_555 1_555
H41 C48 1_555 1_555
C49 C48 1_555 1_555
H42 C49 1_555 1_555
C50 C49 1_555 1_555
H43 C50 1_555 1_555
C51 C46 1_555 1_555
H44 C51 1_555 1_555
C5 C6 1_555 1_555
C10 C11 1_555 1_555
C16 C17 1_555 1_555
C24 C25 1_555 1_555
C32 C33 1_555 1_555
C38 C39 1_555 1_555
C44 C45 1_555 1_555
C50 C51 1_555 1_555

#END
