
#######################################################################
#
#                 Cambridge Crystallographic Data Centre
#                                CCDC 
#
#######################################################################
#
# If this CIF has been generated from an entry in the Cambridge 
# Structural Database, then it will include bibliographic, chemical, 
# crystal, experimental, refinement or atomic coordinate data resulting 
# from the CCDC's data processing and validation procedures.
#
#######################################################################

data_ERADUY
_chemical_name_common            
'(2.2.2-cryptand)-potassium 5-(tricyclo[3.3.1.1$3,7!]decan-1-yl)-1,2,3,4-triazaphosphol-4-ide tetrahydrofuran solvate'
_chemical_formula_moiety         'C18 H36 K1 N2 O6 1+,C11 H15 N3 P1 1-,C4 H8 O1'
_chemical_name_systematic        
'(4,7,13,16,21,24-hexaoxa-1,10-diazabicyclo[8.8.8]hexacosane)-potassium 5-(tricyclo[3.3.1.1^3,7^]decan-1-yl)-1,2,3,4-triazaphosphol-4-ide tetrahydrofuran solvate'
_symmetry_cell_setting           triclinic
_symmetry_space_group_name_H-M   'P -1'
_symmetry_Int_Tables_number      2
_space_group_name_Hall           '-P 1'
loop_
_symmetry_equiv_pos_site_id
_symmetry_equiv_pos_as_xyz
1 x,y,z
2 -x,-y,-z
_cell_length_a                   11.0044(17)
_cell_length_b                   12.0737(19)
_cell_length_c                   13.946(2)
_cell_angle_alpha                83.904(3)
_cell_angle_beta                 82.249(3)
_cell_angle_gamma                85.085(3)
_cell_volume                     1820.81
_exptl_crystal_colour            colorless
_exptl_crystal_description       needle
_cell_formula_units_Z            2
loop_
_atom_site_label
_atom_site_type_symbol
_atom_site_fract_x
_atom_site_fract_y
_atom_site_fract_z
N1 N 0.61255(9) 0.70349(8) 0.20493(7)
N2 N 0.66447(9) 0.73178(9) 0.28028(7)
N3 N 0.61963(9) 0.82769(8) 0.31309(7)
P1 P 0.50791(3) 0.89086(2) 0.25056(2)
C1 C 0.52420(10) 0.78019(9) 0.17850(8)
C2 C 0.45841(10) 0.76294(9) 0.09360(8)
C3 C 0.43592(10) 0.63855(9) 0.09282(8)
H1 H 0.5156 0.5934 0.0887
H2 H 0.3855 0.6127 0.1541
C4 C 0.36960(11) 0.62179(9) 0.00609(8)
H3 H 0.3553 0.5410 0.0069
C5 C 0.24595(11) 0.69106(10) 0.01305(9)
H4 H 0.1943 0.6666 0.0741
H5 H 0.2021 0.6795 -0.0422
C6 C 0.26740(10) 0.81514(10) 0.01112(8)
H6 H 0.1866 0.8602 0.0154
C7 C 0.34708(11) 0.85278(10) -0.08365(9)
H7 H 0.3045 0.8427 -0.1399
H8 H 0.3608 0.9330 -0.0852
C8 C 0.47078(11) 0.78352(10) -0.09019(8)
H9 H 0.5228 0.8081 -0.1520
C9 C 0.44877(11) 0.65975(10) -0.08888(8)
H10 H 0.5285 0.6147 -0.0941
H11 H 0.4065 0.6485 -0.1450
C10 C 0.33366(10) 0.83202(9) 0.09799(8)
H12 H 0.2816 0.8090 0.1593
H13 H 0.3470 0.9121 0.0975
C11 C 0.53670(10) 0.80053(10) -0.00325(8)
H14 H 0.5518 0.8804 -0.0046
H15 H 0.6173 0.7568 -0.0079
K1 K 0.92298(2) 0.26900(2) 0.39762(2)
N4 N 0.65108(9) 0.29475(8) 0.45945(7)
C12 C 0.60940(10) 0.18170(10) 0.48895(9)
H16 H 0.5184 0.1864 0.4975
H17 H 0.6366 0.1548 0.5527
C13 C 0.65600(10) 0.09736(10) 0.41804(9)
H18 H 0.6162 0.0266 0.4382
H19 H 0.6352 0.1256 0.3525
O1 O 0.78606(7) 0.07764(7) 0.41507(6)
C14 C 0.83321(11) 0.00410(10) 0.34281(9)
H20 H 0.8230 0.0413 0.2773
H21 H 0.7873 -0.0641 0.3530
C15 C 0.96638(11) -0.02657(10) 0.34984(10)
H22 H 0.9772 -0.0583 0.4168
H23 H 0.9979 -0.0837 0.3049
O2 O 1.03300(7) 0.07057(7) 0.32519(6)
C16 C 1.16191(11) 0.04470(10) 0.32331(10)
H24 H 1.1889 -0.0173 0.2824
H25 H 1.1818 0.0211 0.3899
C17 C 1.22753(11) 0.14760(10) 0.28213(10)
H26 H 1.3173 0.1292 0.2787
H27 H 1.2084 0.1688 0.2150
C18 C 0.62293(11) 0.36329(11) 0.54199(9)
H28 H 0.5380 0.3517 0.5731
H29 H 0.6258 0.4430 0.5170
C19 C 0.70918(12) 0.33784(12) 0.61804(9)
H30 H 0.6795 0.3805 0.6745
H31 H 0.7115 0.2573 0.6408
O3 O 0.82979(8) 0.36744(7) 0.57796(6)
C20 C 0.91193(12) 0.34730(10) 0.64978(8)
H32 H 0.9127 0.2680 0.6766
H33 H 0.8838 0.3942 0.7037
C21 C 1.03850(12) 0.37419(10) 0.60532(9)
H34 H 1.0373 0.4527 0.5762
H35 H 1.0945 0.3652 0.6559
O4 O 1.08118(8) 0.30101(7) 0.53230(6)
C22 C 1.21001(12) 0.30869(12) 0.50172(9)
H36 H 1.2561 0.2925 0.5585
H37 H 1.2255 0.3852 0.4721
C23 C 1.25259(11) 0.22588(11) 0.42879(9)
H38 H 1.3426 0.2284 0.4111
H39 H 1.2369 0.1501 0.4601
C24 C 0.58955(10) 0.34926(10) 0.37769(9)
H40 H 0.5065 0.3797 0.4032
H41 H 0.5795 0.2925 0.3336
C25 C 0.65850(11) 0.44231(10) 0.32026(9)
H42 H 0.6095 0.4807 0.2704
H43 H 0.6740 0.4977 0.3639
O5 O 0.77284(7) 0.39464(7) 0.27470(6)
C26 C 0.82944(11) 0.47224(9) 0.20146(8)
H44 H 0.8372 0.5432 0.2290
H45 H 0.7784 0.4883 0.1477
C27 C 0.95443(11) 0.42257(10) 0.16395(8)
H46 H 0.9471 0.3480 0.1428
H47 H 0.9903 0.4707 0.1070
O6 O 1.03326(7) 0.41268(7) 0.23846(6)
C28 C 1.15769(10) 0.38473(10) 0.19948(8)
H48 H 1.1925 0.4506 0.1604
H49 H 1.1605 0.3241 0.1565
C29 C 1.23252(10) 0.34719(10) 0.28194(9)
H50 H 1.3200 0.3356 0.2548
H51 H 1.2259 0.4074 0.3257
N5 N 1.19408(9) 0.24378(8) 0.33924(7)
O7 O 1.09834(10) 0.21093(8) 0.03593(7)
C30 C 1.13419(12) 0.09868(10) 0.01512(9)
H52 H 1.0699 0.0486 0.0450
H53 H 1.2119 0.0726 0.0416
C31 C 1.15158(12) 0.09790(11) -0.09511(9)
H54 H 1.1190 0.0309 -0.1147
H55 H 1.2394 0.1002 -0.1219
C32 C 1.07741(12) 0.20424(11) -0.12869(9)
H56 H 1.1097 0.2341 -0.1953
H57 H 0.9893 0.1918 -0.1263
C33 C 1.09804(12) 0.28043(10) -0.05377(9)
H58 H 1.1776 0.3146 -0.0719
H59 H 1.0313 0.3407 -0.0483
loop_
_geom_bond_atom_site_label_1
_geom_bond_atom_site_label_2
_geom_bond_site_symmetry_1
_geom_bond_site_symmetry_2
N1 N2 1_555 1_555
N2 N3 1_555 1_555
N3 P1 1_555 1_555
P1 C1 1_555 1_555
C1 N1 1_555 1_555
C2 C1 1_555 1_555
C3 C2 1_555 1_555
H1 C3 1_555 1_555
H2 C3 1_555 1_555
C4 C3 1_555 1_555
H3 C4 1_555 1_555
C5 C4 1_555 1_555
H4 C5 1_555 1_555
H5 C5 1_555 1_555
C6 C5 1_555 1_555
H6 C6 1_555 1_555
C7 C6 1_555 1_555
H7 C7 1_555 1_555
H8 C7 1_555 1_555
C8 C7 1_555 1_555
H9 C8 1_555 1_555
C9 C4 1_555 1_555
H10 C9 1_555 1_555
H11 C9 1_555 1_555
C10 C2 1_555 1_555
H12 C10 1_555 1_555
H13 C10 1_555 1_555
C11 C2 1_555 1_555
H14 C11 1_555 1_555
H15 C11 1_555 1_555
K1 N4 1_555 1_555
N4 C12 1_555 1_555
C12 H16 1_555 1_555
H17 C12 1_555 1_555
C13 C12 1_555 1_555
H18 C13 1_555 1_555
H19 C13 1_555 1_555
O1 K1 1_555 1_555
C14 O1 1_555 1_555
H20 C14 1_555 1_555
H21 C14 1_555 1_555
C15 C14 1_555 1_555
H22 C15 1_555 1_555
H23 C15 1_555 1_555
O2 K1 1_555 1_555
C16 O2 1_555 1_555
H24 C16 1_555 1_555
H25 C16 1_555 1_555
C17 C16 1_555 1_555
H26 C17 1_555 1_555
H27 C17 1_555 1_555
C18 N4 1_555 1_555
H28 C18 1_555 1_555
H29 C18 1_555 1_555
C19 C18 1_555 1_555
H30 C19 1_555 1_555
H31 C19 1_555 1_555
O3 K1 1_555 1_555
C20 O3 1_555 1_555
H32 C20 1_555 1_555
H33 C20 1_555 1_555
C21 C20 1_555 1_555
H34 C21 1_555 1_555
H35 C21 1_555 1_555
O4 K1 1_555 1_555
C22 O4 1_555 1_555
H36 C22 1_555 1_555
H37 C22 1_555 1_555
C23 C22 1_555 1_555
H38 C23 1_555 1_555
H39 C23 1_555 1_555
C24 N4 1_555 1_555
H40 C24 1_555 1_555
H41 C24 1_555 1_555
C25 C24 1_555 1_555
H42 C25 1_555 1_555
H43 C25 1_555 1_555
O5 K1 1_555 1_555
C26 O5 1_555 1_555
H44 C26 1_555 1_555
H45 C26 1_555 1_555
C27 C26 1_555 1_555
H46 C27 1_555 1_555
H47 C27 1_555 1_555
O6 K1 1_555 1_555
C28 O6 1_555 1_555
H48 C28 1_555 1_555
H49 C28 1_555 1_555
C29 C28 1_555 1_555
H50 C29 1_555 1_555
H51 C29 1_555 1_555
N5 K1 1_555 1_555
O7 C30 1_555 1_555
C30 H52 1_555 1_555
H53 C30 1_555 1_555
C31 C30 1_555 1_555
H54 C31 1_555 1_555
H55 C31 1_555 1_555
C32 C31 1_555 1_555
H56 C32 1_555 1_555
H57 C32 1_555 1_555
C33 O7 1_555 1_555
H58 C33 1_555 1_555
H59 C33 1_555 1_555
C6 C10 1_555 1_555
C8 C9 1_555 1_555
C8 C11 1_555 1_555
C13 O1 1_555 1_555
C15 O2 1_555 1_555
C17 N5 1_555 1_555
C19 O3 1_555 1_555
C21 O4 1_555 1_555
C23 N5 1_555 1_555
C25 O5 1_555 1_555
C27 O6 1_555 1_555
C29 N5 1_555 1_555
C32 C33 1_555 1_555

#END
