
#######################################################################
#
#                 Cambridge Crystallographic Data Centre
#                                CCDC 
#
#######################################################################
#
# If this CIF has been generated from an entry in the Cambridge 
# Structural Database, then it will include bibliographic, chemical, 
# crystal, experimental, refinement or atomic coordinate data resulting 
# from the CCDC's data processing and validation procedures.
#
#######################################################################

data_ERAFEK
_chemical_formula_moiety         'C33 H26 P2,2(C6 H6)'
_chemical_name_systematic        
'15-((triphenylphosphoranylidene)methyl)-15-phosphatetracyclo[6.6.1.0^2,7^.0^9,14^]pentadeca-2,4,6,9,11,13-hexaene benzene solvate'
_symmetry_cell_setting           monoclinic
_symmetry_space_group_name_H-M   'P 21/c'
_symmetry_Int_Tables_number      14
_space_group_name_Hall           '-P 2ybc'
loop_
_symmetry_equiv_pos_site_id
_symmetry_equiv_pos_as_xyz
1 x,y,z
2 -x,1/2+y,1/2-z
3 -x,-y,-z
4 x,1/2-y,1/2+z
_cell_length_a                   14.8855(8)
_cell_length_b                   11.3406(6)
_cell_length_c                   20.3764(11)
_cell_angle_alpha                90
_cell_angle_beta                 94.0410(11)
_cell_angle_gamma                90
_cell_volume                     3431.2
_exptl_crystal_colour            colorless
_exptl_crystal_description       block
_cell_formula_units_Z            4
loop_
_atom_site_label
_atom_site_type_symbol
_atom_site_fract_x
_atom_site_fract_y
_atom_site_fract_z
P1 P 0.71523(2) 1.00436(3) 0.25522(2)
P2 P 0.65512(2) 0.97038(3) 0.39071(2)
C1 C 0.73715(10) 0.96458(14) 0.33747(7)
H1 H 0.7959 0.9394 0.3525
C2 C 0.84637(9) 0.85266(13) 0.23169(7)
C3 C 0.88676(10) 0.74724(13) 0.25037(7)
H2 H 0.8570 0.6746 0.2406
C4 C 0.97230(10) 0.74885(14) 0.28388(7)
H3 H 1.0003 0.6768 0.2977
C5 C 1.01628(10) 0.85478(14) 0.29702(8)
H4 H 1.0749 0.8547 0.3188
C6 C 0.97527(10) 0.96212(13) 0.27857(7)
H5 H 1.0053 1.0347 0.2880
C7 C 0.89018(9) 0.96051(13) 0.24643(7)
C8 C 0.80331(9) 1.05377(13) 0.15350(7)
C9 C 0.81462(10) 1.13604(14) 0.10436(8)
H6 H 0.8451 1.2081 0.1143
C10 C 0.78066(11) 1.11172(15) 0.04014(8)
H7 H 0.7883 1.1673 0.0061
C11 C 0.73573(10) 1.00632(15) 0.02586(8)
H8 H 0.7119 0.9910 -0.0178
C12 C 0.72530(10) 0.92277(14) 0.07503(7)
H9 H 0.6952 0.8505 0.0649
C13 C 0.75932(9) 0.94629(13) 0.13877(7)
C14 C 0.75282(9) 0.87520(13) 0.20096(7)
H10 H 0.7117 0.8054 0.1975
C15 C 0.82800(9) 1.06186(13) 0.22655(7)
H11 H 0.8474 1.1414 0.2434
C16 C 0.58696(9) 1.10194(13) 0.38058(7)
C17 C 0.62970(10) 1.21030(14) 0.37274(8)
H12 H 0.6932 1.2134 0.3708
C18 C 0.57937(11) 1.31350(14) 0.36776(8)
H13 H 0.6087 1.3873 0.3635
C19 C 0.48616(11) 1.30889(14) 0.36904(8)
H14 H 0.4516 1.3792 0.3645
C20 C 0.44382(10) 1.20177(14) 0.37694(8)
H15 H 0.3801 1.1988 0.3778
C21 C 0.49380(10) 1.09855(14) 0.38355(7)
H16 H 0.4644 1.0256 0.3901
C22 C 0.57279(9) 0.85098(13) 0.38785(7)
C23 C 0.52991(10) 0.82154(14) 0.32660(8)
H17 H 0.5455 0.8619 0.2882
C24 C 0.46470(10) 0.73367(14) 0.32176(8)
H18 H 0.4356 0.7144 0.2801
C25 C 0.44208(11) 0.67398(15) 0.37782(9)
H19 H 0.3975 0.6139 0.3745
C26 C 0.48452(11) 0.70218(15) 0.43862(9)
H20 H 0.4692 0.6610 0.4769
C27 C 0.54949(10) 0.79072(14) 0.44366(8)
H21 H 0.5781 0.8101 0.4854
C28 C 0.70475(9) 0.97155(13) 0.47434(7)
C29 C 0.76685(10) 0.88425(14) 0.49471(8)
H22 H 0.7815 0.8238 0.4650
C30 C 0.80723(10) 0.88549(15) 0.55826(8)
H23 H 0.8493 0.8260 0.5720
C31 C 0.78596(10) 0.97384(14) 0.60155(8)
H24 H 0.8136 0.9747 0.6450
C32 C 0.72471(11) 1.06068(14) 0.58177(8)
H25 H 0.7106 1.1212 0.6116
C33 C 0.68365(10) 1.05974(14) 0.51828(7)
H26 H 0.6413 1.1192 0.5049
C40 C 0.8014(9) 0.4090(11) 0.3128(6)
H33 H 0.8468 0.3513 0.3220
C41 C 0.7404(9) 0.3960(11) 0.2587(7)
H34 H 0.7429 0.3284 0.2313
C42 C 0.6752(8) 0.4825(10) 0.2445(6)
H35 H 0.6331 0.4739 0.2076
C43 C 0.6723(7) 0.5809(8) 0.2845(6)
H36 H 0.6291 0.6409 0.2743
C44 C 0.7322(8) 0.5921(9) 0.3394(6)
H37 H 0.7292 0.6591 0.3672
C45 C 0.7961(9) 0.5061(11) 0.3536(6)
H38 H 0.8367 0.5135 0.3915
C46 C 1.0349(9) 0.3525(10) 0.4754(6)
H39 H 1.0657 0.4254 0.4820
C47 C 1.0233(9) 0.2778(11) 0.5282(5)
H40 H 1.0476 0.2986 0.5709
C48 C 0.9764(10) 0.1733(10) 0.5185(6)
H41 H 0.9675 0.1232 0.5549
C49 C 0.9426(11) 0.1415(11) 0.4567(6)
H42 H 0.9092 0.0704 0.4506
C50 C 0.9567(11) 0.2124(13) 0.4030(6)
H43 H 0.9362 0.1882 0.3599
C51 C 1.0012(11) 0.3194(11) 0.4129(6)
H44 H 1.0086 0.3702 0.3766
C34? C 0.7966(13) 0.3974(16) 0.3073(10)
H27? H 0.8342 0.3297 0.3100
C35? C 0.7296(15) 0.4069(17) 0.2570(10)
H28? H 0.7213 0.3460 0.2251
C36? C 0.6747(13) 0.5057(16) 0.2534(9)
H29? H 0.6290 0.5130 0.2187
C37? C 0.6863(11) 0.5938(14) 0.3004(9)
H30? H 0.6478 0.6607 0.2984
C38? C 0.7536(12) 0.5843(13) 0.3500(8)
H31? H 0.7620 0.6454 0.3817
C39? C 0.8092(13) 0.4864(16) 0.3540(10)
H32? H 0.8555 0.4800 0.3883
C52? C 1.0343(10) 0.3560(11) 0.4568(7)
H45? H 1.0647 0.4288 0.4521
C53? C 1.0321(10) 0.3046(12) 0.5183(6)
H46? H 1.0599 0.3433 0.5558
C54? C 0.9898(10) 0.1978(13) 0.5255(5)
H47? H 0.9906 0.1616 0.5676
C55? C 0.9462(12) 0.1433(12) 0.4719(6)
H48? H 0.9172 0.0696 0.4770
C56? C 0.9449(12) 0.1965(13) 0.4103(6)
H49? H 0.9118 0.1616 0.3738
C57? C 0.9922(11) 0.3011(12) 0.4021(6)
H50? H 0.9955 0.3343 0.3596
loop_
_geom_bond_atom_site_label_1
_geom_bond_atom_site_label_2
_geom_bond_site_symmetry_1
_geom_bond_site_symmetry_2
P1 C1 1_555 1_555
P2 C1 1_555 1_555
C1 H1 1_555 1_555
C2 C3 1_555 1_555
C3 H2 1_555 1_555
C4 C3 1_555 1_555
H3 C4 1_555 1_555
C5 C4 1_555 1_555
H4 C5 1_555 1_555
C6 C5 1_555 1_555
H5 C6 1_555 1_555
C7 C2 1_555 1_555
C8 C9 1_555 1_555
C9 H6 1_555 1_555
C10 C9 1_555 1_555
H7 C10 1_555 1_555
C11 C10 1_555 1_555
H8 C11 1_555 1_555
C12 C11 1_555 1_555
H9 C12 1_555 1_555
C13 C8 1_555 1_555
C14 P1 1_555 1_555
H10 C14 1_555 1_555
C15 P1 1_555 1_555
H11 C15 1_555 1_555
C16 P2 1_555 1_555
C17 C16 1_555 1_555
H12 C17 1_555 1_555
C18 C17 1_555 1_555
H13 C18 1_555 1_555
C19 C18 1_555 1_555
H14 C19 1_555 1_555
C20 C19 1_555 1_555
H15 C20 1_555 1_555
C21 C16 1_555 1_555
H16 C21 1_555 1_555
C22 P2 1_555 1_555
C23 C22 1_555 1_555
H17 C23 1_555 1_555
C24 C23 1_555 1_555
H18 C24 1_555 1_555
C25 C24 1_555 1_555
H19 C25 1_555 1_555
C26 C25 1_555 1_555
H20 C26 1_555 1_555
C27 C22 1_555 1_555
H21 C27 1_555 1_555
C28 P2 1_555 1_555
C29 C28 1_555 1_555
H22 C29 1_555 1_555
C30 C29 1_555 1_555
H23 C30 1_555 1_555
C31 C30 1_555 1_555
H24 C31 1_555 1_555
C32 C31 1_555 1_555
H25 C32 1_555 1_555
C33 C28 1_555 1_555
H26 C33 1_555 1_555
C40 H33 1_555 1_555
C41 C40 1_555 1_555
H34 C41 1_555 1_555
C42 C41 1_555 1_555
H35 C42 1_555 1_555
C43 C42 1_555 1_555
H36 C43 1_555 1_555
C44 C43 1_555 1_555
H37 C44 1_555 1_555
C45 C40 1_555 1_555
H38 C45 1_555 1_555
C46 H39 1_555 1_555
C47 C46 1_555 1_555
H40 C47 1_555 1_555
C48 C47 1_555 1_555
H41 C48 1_555 1_555
C49 C48 1_555 1_555
H42 C49 1_555 1_555
C50 C49 1_555 1_555
H43 C50 1_555 1_555
C51 C46 1_555 1_555
H44 C51 1_555 1_555
C2 C14 1_555 1_555
C6 C7 1_555 1_555
C7 C15 1_555 1_555
C8 C15 1_555 1_555
C12 C13 1_555 1_555
C13 C14 1_555 1_555
C20 C21 1_555 1_555
C26 C27 1_555 1_555
C32 C33 1_555 1_555
C44 C45 1_555 1_555
C50 C51 1_555 1_555

#END
