
#######################################################################
#
#                 Cambridge Crystallographic Data Centre
#                                CCDC 
#
#######################################################################
#
# If this CIF has been generated from an entry in the Cambridge 
# Structural Database, then it will include bibliographic, chemical, 
# crystal, experimental, refinement or atomic coordinate data resulting 
# from the CCDC's data processing and validation procedures.
#
#######################################################################

data_ERASUM
_chemical_formula_moiety         'C53 H46 N1 O2 1+,C8 H8 N1 O2 1-'
_chemical_name_systematic        
"(S)-2,6-bis[hydroxy(diphenyl)methyl]-4,5-dihydro-3H-spiro-(dinaphtho[2,1-c:1',2'-e]azepine-4,1'-piperidine)-4-ium N-methoxybenzamide unknown solvate"
_symmetry_cell_setting           orthorhombic
_symmetry_space_group_name_H-M   'P 21 21 21'
_symmetry_Int_Tables_number      19
_space_group_name_Hall           'P 2ac 2ab'
loop_
_symmetry_equiv_pos_site_id
_symmetry_equiv_pos_as_xyz
1 x,y,z
2 1/2+x,1/2-y,-z
3 -x,1/2+y,1/2-z
4 1/2-x,-y,1/2+z
_cell_length_a                   14.1677(3)
_cell_length_b                   14.7509(3)
_cell_length_c                   26.3244(5)
_cell_angle_alpha                90
_cell_angle_beta                 90
_cell_angle_gamma                90
_cell_volume                     5501.44
_exptl_crystal_colour            colorless
_exptl_crystal_description       block
_cell_formula_units_Z            4
loop_
_atom_site_label
_atom_site_type_symbol
_atom_site_fract_x
_atom_site_fract_y
_atom_site_fract_z
O1 O 0.7774(3) 0.86349(17) 0.48634(10)
O2 O 0.4002(3) 0.76740(18) 0.66649(10)
N1 N 0.6158(3) 0.83306(19) 0.58482(11)
C1 C 0.6108(4) 1.0426(3) 0.57981(15)
C2 C 0.6535(4) 0.9838(3) 0.54519(14)
C3 C 0.7376(4) 1.0102(3) 0.51971(15)
C4 C 0.7786(4) 1.0899(3) 0.53296(16)
C5 C 0.7411(4) 1.1487(3) 0.57034(17)
C6 C 0.7832(5) 1.2305(3) 0.58324(19)
C7 C 0.7449(5) 1.2873(4) 0.62004(18)
C8 C 0.6648(5) 1.2613(3) 0.64600(18)
C9 C 0.6184(4) 1.1819(3) 0.63356(16)
C10 C 0.6534(4) 1.1244(3) 0.59495(15)
C11 C 0.5132(4) 1.0209(3) 0.60118(15)
C12 C 0.5023(3) 0.9424(3) 0.62923(14)
C13 C 0.4132(3) 0.9269(3) 0.65542(14)
C14 C 0.3407(4) 0.9858(3) 0.64561(15)
C15 C 0.3478(4) 1.0621(3) 0.61350(16)
C16 C 0.2695(5) 1.1191(4) 0.60299(19)
C17 C 0.2800(6) 1.1914(4) 0.5725(3)
C18 C 0.3658(5) 1.2127(4) 0.5500(2)
C19 C 0.4447(5) 1.1580(3) 0.55784(17)
C20 C 0.4351(4) 1.0801(3) 0.59093(15)
C21 C 0.4001(3) 0.8506(3) 0.69342(14)
C22 C 0.3075(4) 0.8615(4) 0.72408(15)
C23 C 0.2925(4) 0.9358(4) 0.75652(17)
C24 C 0.2069(4) 0.9443(4) 0.78266(18)
C25 C 0.1378(4) 0.8791(5) 0.7772(2)
C26 C 0.1521(4) 0.8029(5) 0.7469(2)
C27 C 0.2368(4) 0.7958(4) 0.72038(18)
C28 C 0.4807(3) 0.8457(3) 0.73240(15)
C29 C 0.5090(4) 0.7618(4) 0.75133(16)
C30 C 0.5830(4) 0.7545(4) 0.78568(16)
C31 C 0.6302(4) 0.8317(4) 0.80165(18)
C32 C 0.6024(4) 0.9130(4) 0.78465(16)
C33 C 0.5283(4) 0.9218(4) 0.75015(16)
C34 C 0.7757(4) 0.9573(3) 0.47318(15)
C35 C 0.7131(4) 0.9758(3) 0.42745(15)
C36 C 0.6748(4) 1.0616(3) 0.41890(18)
C37 C 0.6267(4) 1.0815(4) 0.37487(19)
C38 C 0.6114(4) 1.0138(4) 0.3385(2)
C39 C 0.6490(4) 0.9290(4) 0.34705(18)
C40 C 0.6980(4) 0.9076(4) 0.39052(16)
C41 C 0.8788(4) 0.9861(3) 0.46242(15)
C42 C 0.9055(4) 1.0435(3) 0.42281(16)
C43 C 0.9969(4) 1.0729(3) 0.41721(18)
C44 C 1.0642(4) 1.0445(3) 0.45030(18)
C45 C 1.0429(4) 0.9866(4) 0.49001(18)
C46 C 0.9497(4) 0.9571(3) 0.49525(17)
C47 C 0.6037(3) 0.8929(3) 0.53811(13)
C48 C 0.5845(3) 0.8790(3) 0.63382(14)
C49 C 0.5568(3) 0.7479(3) 0.57463(15)
C50 C 0.5716(4) 0.6718(3) 0.61291(16)
C51 C 0.6774(4) 0.6495(3) 0.62010(18)
C52 C 0.7328(4) 0.7351(3) 0.63155(16)
C53 C 0.7172(3) 0.8047(3) 0.59048(15)
H1 H 0.7980 0.8333 0.4617
H2 H 0.3726 0.7743 0.6385
H3 H 0.8354 1.1070 0.5163
H4 H 0.8397 1.2482 0.5665
H5 H 0.7738 1.3440 0.6273
H6 H 0.6413 1.2983 0.6727
H7 H 0.5623 1.1658 0.6512
H8 H 0.2817 0.9745 0.6615
H9 H 0.2096 1.1060 0.6175
H10 H 0.2270 1.2293 0.5662
H11 H 0.3707 1.2650 0.5291
H12 H 0.5032 1.1715 0.5419
H13 H 0.3405 0.9802 0.7607
H14 H 0.1963 0.9950 0.8042
H15 H 0.0794 0.8863 0.7945
H16 H 0.1053 0.7571 0.7444
H17 H 0.2467 0.7446 0.6991
H18 H 0.4771 0.7085 0.7405
H19 H 0.6012 0.6967 0.7982
H20 H 0.6819 0.8269 0.8245
H21 H 0.6338 0.9658 0.7964
H22 H 0.5102 0.9803 0.7387
H23 H 0.6821 1.1073 0.4440
H24 H 0.6039 1.1412 0.3691
H25 H 0.5759 1.0260 0.3087
H26 H 0.6408 0.8835 0.3219
H27 H 0.7214 0.8479 0.3957
H28 H 0.8591 1.0627 0.3990
H29 H 1.0129 1.1130 0.3903
H30 H 1.1273 1.0649 0.4461
H31 H 1.0903 0.9673 0.5131
H32 H 0.9344 0.9163 0.5219
H33 H 0.5357 0.9034 0.5319
H34 H 0.6301 0.8616 0.5080
H35 H 0.5681 0.8313 0.6588
H36 H 0.6388 0.9132 0.6477
H37 H 0.4892 0.7649 0.5746
H38 H 0.5723 0.7248 0.5403
H39 H 0.5381 0.6169 0.6011
H40 H 0.5443 0.6899 0.6460
H41 H 0.6849 0.6060 0.6484
H42 H 0.7023 0.6209 0.5888
H43 H 0.7125 0.7601 0.6647
H44 H 0.8009 0.7205 0.6338
H45 H 0.7557 0.8590 0.5982
H46 H 0.7395 0.7797 0.5577
O3 O 0.3311(2) 0.76989(18) 0.57391(10)
O4 O 0.1654(3) 0.8172(2) 0.60692(12)
N2 N 0.2008(3) 0.8664(3) 0.56343(13)
C54 C 0.2847(4) 0.8354(3) 0.55198(16)
C55 C 0.3277(4) 0.8801(3) 0.50702(16)
C56 C 0.3926(4) 0.8345(4) 0.47637(17)
C57 C 0.4352(4) 0.8714(5) 0.43462(18)
C58 C 0.4168(5) 0.9605(5) 0.4238(3)
C59 C 0.3539(5) 1.0124(4) 0.4538(2)
C60 C 0.3101(4) 0.9706(4) 0.49474(18)
C61 C 0.0757(4) 0.8524(4) 0.6188(3)
H47 H 0.4083 0.7739 0.4851
H48 H 0.4760 0.8364 0.4138
H49 H 0.4470 0.9881 0.3955
H50 H 0.3420 1.0743 0.4461
H51 H 0.2670 1.0045 0.5149
H52 H 0.0335 0.8444 0.5897
H53 H 0.0813 0.9170 0.6268
H54 H 0.0499 0.8201 0.6482
loop_
_geom_bond_atom_site_label_1
_geom_bond_atom_site_label_2
_geom_bond_site_symmetry_1
_geom_bond_site_symmetry_2
O1 C34 1_555 1_555
O2 C21 1_555 1_555
N1 C47 1_555 1_555
C1 C2 1_555 1_555
C2 C3 1_555 1_555
C3 C4 1_555 1_555
C4 C5 1_555 1_555
C5 C6 1_555 1_555
C6 C7 1_555 1_555
C7 C8 1_555 1_555
C8 C9 1_555 1_555
C9 C10 1_555 1_555
C10 C1 1_555 1_555
C11 C1 1_555 1_555
C12 C11 1_555 1_555
C13 C12 1_555 1_555
C14 C13 1_555 1_555
C15 C14 1_555 1_555
C16 C15 1_555 1_555
C17 C16 1_555 1_555
C18 C17 1_555 1_555
C19 C18 1_555 1_555
C20 C11 1_555 1_555
C21 C13 1_555 1_555
C22 C21 1_555 1_555
C23 C22 1_555 1_555
C24 C23 1_555 1_555
C25 C24 1_555 1_555
C26 C25 1_555 1_555
C27 C22 1_555 1_555
C28 C21 1_555 1_555
C29 C28 1_555 1_555
C30 C29 1_555 1_555
C31 C30 1_555 1_555
C32 C31 1_555 1_555
C33 C28 1_555 1_555
C34 C3 1_555 1_555
C35 C34 1_555 1_555
C36 C35 1_555 1_555
C37 C36 1_555 1_555
C38 C37 1_555 1_555
C39 C38 1_555 1_555
C40 C35 1_555 1_555
C41 C34 1_555 1_555
C42 C41 1_555 1_555
C43 C42 1_555 1_555
C44 C43 1_555 1_555
C45 C44 1_555 1_555
C46 C41 1_555 1_555
C47 C2 1_555 1_555
C48 N1 1_555 1_555
C49 N1 1_555 1_555
C50 C49 1_555 1_555
C51 C50 1_555 1_555
C52 C51 1_555 1_555
C53 N1 1_555 1_555
H1 O1 1_555 1_555
H2 O2 1_555 1_555
H3 C4 1_555 1_555
H4 C6 1_555 1_555
H5 C7 1_555 1_555
H6 C8 1_555 1_555
H7 C9 1_555 1_555
H8 C14 1_555 1_555
H9 C16 1_555 1_555
H10 C17 1_555 1_555
H11 C18 1_555 1_555
H12 C19 1_555 1_555
H13 C23 1_555 1_555
H14 C24 1_555 1_555
H15 C25 1_555 1_555
H16 C26 1_555 1_555
H17 C27 1_555 1_555
H18 C29 1_555 1_555
H19 C30 1_555 1_555
H20 C31 1_555 1_555
H21 C32 1_555 1_555
H22 C33 1_555 1_555
H23 C36 1_555 1_555
H24 C37 1_555 1_555
H25 C38 1_555 1_555
H26 C39 1_555 1_555
H27 C40 1_555 1_555
H28 C42 1_555 1_555
H29 C43 1_555 1_555
H30 C44 1_555 1_555
H31 C45 1_555 1_555
H32 C46 1_555 1_555
H33 C47 1_555 1_555
H34 C47 1_555 1_555
H35 C48 1_555 1_555
H36 C48 1_555 1_555
H37 C49 1_555 1_555
H38 C49 1_555 1_555
H39 C50 1_555 1_555
H40 C50 1_555 1_555
H41 C51 1_555 1_555
H42 C51 1_555 1_555
H43 C52 1_555 1_555
H44 C52 1_555 1_555
H45 C53 1_555 1_555
H46 C53 1_555 1_555
O3 C54 1_555 1_555
O4 N2 1_555 1_555
N2 C54 1_555 1_555
C54 C55 1_555 1_555
C55 C56 1_555 1_555
C56 C57 1_555 1_555
C57 C58 1_555 1_555
C58 C59 1_555 1_555
C59 C60 1_555 1_555
C60 C55 1_555 1_555
C61 O4 1_555 1_555
H47 C56 1_555 1_555
H48 C57 1_555 1_555
H49 C58 1_555 1_555
H50 C59 1_555 1_555
H51 C60 1_555 1_555
H52 C61 1_555 1_555
H53 C61 1_555 1_555
H54 C61 1_555 1_555
C5 C10 1_555 1_555
C12 C48 1_555 1_555
C15 C20 1_555 1_555
C19 C20 1_555 1_555
C26 C27 1_555 1_555
C32 C33 1_555 1_555
C39 C40 1_555 1_555
C45 C46 1_555 1_555
C52 C53 1_555 1_555

#END
