
#######################################################################
#
#                 Cambridge Crystallographic Data Centre
#                                CCDC 
#
#######################################################################
#
# If this CIF has been generated from an entry in the Cambridge 
# Structural Database, then it will include bibliographic, chemical, 
# crystal, experimental, refinement or atomic coordinate data resulting 
# from the CCDC's data processing and validation procedures.
#
#######################################################################

data_EREFOX
_chemical_formula_moiety         'C38 H60 Li2 N6 O2 Si2'
_chemical_name_systematic        
'bis(\m~2~-[(dimethylamino)(methyl)(phenylamino)silyl](phenyl)aminato)-bis(diethyl ether)-di-lithium'
_symmetry_cell_setting           triclinic
_symmetry_space_group_name_H-M   'P -1'
_symmetry_Int_Tables_number      2
_space_group_name_Hall           '-P 1'
loop_
_symmetry_equiv_pos_site_id
_symmetry_equiv_pos_as_xyz
1 x,y,z
2 -x,-y,-z
_cell_length_a                   11.089(3)
_cell_length_b                   12.471(3)
_cell_length_c                   17.197(4)
_cell_angle_alpha                81.586(4)
_cell_angle_beta                 75.624(4)
_cell_angle_gamma                67.478(4)
_cell_volume                     2124.53
_exptl_crystal_colour            colorless
_exptl_crystal_description       block
_cell_formula_units_Z            2
loop_
_atom_site_label
_atom_site_type_symbol
_atom_site_fract_x
_atom_site_fract_y
_atom_site_fract_z
Li1 Li 0.2789(7) 0.2648(6) 0.1675(4)
Li2 Li 0.2053(7) 0.2413(6) 0.3170(5)
N1 N 0.1591(3) 0.3908(3) 0.2519(2)
N2 N -0.0201(3) 0.2980(3) 0.3413(2)
H1 H -0.0403 0.2543 0.3121
N3 N -0.0747(3) 0.4184(3) 0.1996(2)
N4 N 0.3001(3) 0.1101(3) 0.2384(2)
N5 N 0.1495(3) 0.2007(3) 0.1245(2)
H2 H 0.0643 0.2416 0.1492
N6 N 0.0643(3) 0.0643(3) 0.2521(2)
O1 O 0.4354(3) 0.2728(2) 0.08572(18)
O2 O 0.2679(3) 0.2221(3) 0.41929(19)
Si1 Si -0.00646(12) 0.42081(10) 0.27968(8)
Si2 Si 0.20760(12) 0.07619(10) 0.18859(8)
C1 C 0.2223(4) 0.4715(3) 0.2369(3)
C2 C 0.1655(4) 0.5891(4) 0.2142(3)
H3 H 0.0771 0.6187 0.2087
C3 C 0.2357(5) 0.6629(4) 0.1997(3)
H4 H 0.1930 0.7409 0.1856
C4 C 0.3666(5) 0.6239(4) 0.2057(3)
H5 H 0.4140 0.6738 0.1948
C5 C 0.4261(5) 0.5080(4) 0.2283(3)
H6 H 0.5146 0.4794 0.2335
C6 C 0.3559(4) 0.4343(4) 0.2431(3)
H7 H 0.3990 0.3566 0.2578
C7 C -0.1097(4) 0.5556(4) 0.3347(3)
H8 H -0.0599 0.5679 0.3687
H9 H -0.1900 0.5472 0.3671
H10 H -0.1322 0.6209 0.2968
C8 C -0.0492(4) 0.4898(4) 0.1263(3)
H11 H -0.0576 0.4579 0.0813
H12 H 0.0395 0.4903 0.1177
H13 H -0.1127 0.5678 0.1320
C9 C -0.2136(4) 0.4246(4) 0.2169(3)
H14 H -0.2727 0.5043 0.2215
H15 H -0.2310 0.3812 0.2666
H16 H -0.2279 0.3924 0.1742
C10 C -0.0984(4) 0.2994(4) 0.4202(3)
C11 C -0.0862(4) 0.3549(4) 0.4801(3)
H17 H -0.0262 0.3934 0.4684
C12 C -0.1614(5) 0.3542(4) 0.5570(3)
H18 H -0.1514 0.3918 0.5964
C13 C -0.2514(5) 0.2981(5) 0.5757(3)
H19 H -0.3022 0.2977 0.6276
C14 C -0.2650(5) 0.2431(4) 0.5173(4)
H20 H -0.3251 0.2046 0.5296
C15 C -0.1902(4) 0.2439(4) 0.4395(3)
H21 H -0.2016 0.2071 0.4001
C16 C 0.4449(5) 0.3552(5) 0.0213(4)
H22 H 0.4910 0.3145 -0.0277
H23 H 0.4987 0.3957 0.0308
C17 C 0.3203(5) 0.4384(4) 0.0095(4)
H24 H 0.2641 0.3992 0.0031
H25 H 0.3342 0.4871 -0.0379
H26 H 0.2782 0.4854 0.0552
C18 C 0.5545(4) 0.1712(4) 0.0802(3)
H27 H 0.5782 0.1422 0.0270
H28 H 0.5367 0.1113 0.1189
C19 C 0.6718(5) 0.1927(5) 0.0954(4)
H29 H 0.7040 0.2368 0.0502
H30 H 0.7417 0.1196 0.1027
H31 H 0.6439 0.2353 0.1429
C20 C 0.4100(4) 0.0288(4) 0.2667(3)
C21 C 0.5069(4) 0.0646(4) 0.2813(3)
H32 H 0.4967 0.1426 0.2714
C22 C 0.6177(4) -0.0115(4) 0.3098(3)
H33 H 0.6802 0.0158 0.3185
C23 C 0.6356(5) -0.1283(4) 0.3254(3)
H34 H 0.7096 -0.1799 0.3446
C24 C 0.5418(5) -0.1661(4) 0.3120(3)
H35 H 0.5527 -0.2442 0.3222
C25 C 0.4324(4) -0.0907(4) 0.2838(3)
H36 H 0.3706 -0.1192 0.2757
C26 C 0.2967(4) -0.0497(3) 0.1240(3)
H37 H 0.3839 -0.0496 0.0980
H38 H 0.2471 -0.0441 0.0841
H39 H 0.3052 -0.1206 0.1565
C27 C -0.0373(5) 0.0538(5) 0.2170(3)
H40 H -0.0181 -0.0268 0.2109
H41 H -0.0371 0.0951 0.1653
H42 H -0.1234 0.0861 0.2516
C28 C 0.0771(4) -0.0053(4) 0.3276(3)
H43 H -0.0066 0.0201 0.3656
H44 H 0.1448 0.0038 0.3488
H45 H 0.1015 -0.0857 0.3183
C29 C 0.1461(4) 0.1951(3) 0.0432(3)
C30 C 0.2629(4) 0.1588(3) -0.0153(3)
H46 H 0.3445 0.1401 -0.0011
C31 C 0.2609(5) 0.1498(4) -0.0934(3)
H47 H 0.3406 0.1248 -0.1312
C32 C 0.1415(6) 0.1777(4) -0.1161(3)
H48 H 0.1401 0.1697 -0.1687
C33 C 0.0242(5) 0.2174(4) -0.0600(3)
H49 H -0.0572 0.2389 -0.0750
C34 C 0.0275(5) 0.2255(4) 0.0183(3)
H50 H -0.0526 0.2522 0.0556
C35 C 0.2737(5) 0.3204(5) 0.4475(4)
H51 H 0.2171 0.3341 0.5008
H52 H 0.2376 0.3877 0.4125
C36 C 0.4114(6) 0.3099(6) 0.4514(4)
H53 H 0.4449 0.2482 0.4899
H54 H 0.4082 0.3817 0.4675
H55 H 0.4693 0.2931 0.3994
C37 C 0.3018(7) 0.1118(7) 0.4686(5)
H56 H 0.3551 0.0483 0.4337
H57 H 0.3554 0.1139 0.5048
C38 C 0.1833(7) 0.0900(7) 0.5156(5)
H58 H 0.2099 0.0149 0.5435
H59 H 0.1274 0.0921 0.4803
H60 H 0.1346 0.1486 0.5539
C39? C 0.241(3) 0.165(2) 0.5090(11)
C40? C 0.248(3) 0.0518(16) 0.4688(17)
H61? H 0.1544 0.2067 0.5416
H62? H 0.3120 0.1502 0.5374
H63? H 0.2566 -0.0119 0.5086
H64? H 0.3242 0.0306 0.4249
H65? H 0.1682 0.0698 0.4495
loop_
_geom_bond_atom_site_label_1
_geom_bond_atom_site_label_2
_geom_bond_site_symmetry_1
_geom_bond_site_symmetry_2
Li1 N1 1_555 1_555
Li2 N1 1_555 1_555
N1 Si1 1_555 1_555
N2 Li2 1_555 1_555
H1 N2 1_555 1_555
N3 Si1 1_555 1_555
N4 Li1 1_555 1_555
N5 Li1 1_555 1_555
H2 N5 1_555 1_555
N6 Si2 1_555 1_555
O1 Li1 1_555 1_555
O2 Li2 1_555 1_555
Si1 N2 1_555 1_555
Si2 N4 1_555 1_555
C1 N1 1_555 1_555
C2 C1 1_555 1_555
H3 C2 1_555 1_555
C3 C2 1_555 1_555
H4 C3 1_555 1_555
C4 C3 1_555 1_555
H5 C4 1_555 1_555
C5 C4 1_555 1_555
H6 C5 1_555 1_555
C6 C1 1_555 1_555
H7 C6 1_555 1_555
C7 Si1 1_555 1_555
H8 C7 1_555 1_555
H9 C7 1_555 1_555
H10 C7 1_555 1_555
C8 N3 1_555 1_555
H11 C8 1_555 1_555
H12 C8 1_555 1_555
H13 C8 1_555 1_555
C9 N3 1_555 1_555
H14 C9 1_555 1_555
H15 C9 1_555 1_555
H16 C9 1_555 1_555
C10 N2 1_555 1_555
C11 C10 1_555 1_555
H17 C11 1_555 1_555
C12 C11 1_555 1_555
H18 C12 1_555 1_555
C13 C12 1_555 1_555
H19 C13 1_555 1_555
C14 C13 1_555 1_555
H20 C14 1_555 1_555
C15 C10 1_555 1_555
H21 C15 1_555 1_555
C16 O1 1_555 1_555
H22 C16 1_555 1_555
H23 C16 1_555 1_555
C17 C16 1_555 1_555
H24 C17 1_555 1_555
H25 C17 1_555 1_555
H26 C17 1_555 1_555
C18 O1 1_555 1_555
H27 C18 1_555 1_555
H28 C18 1_555 1_555
C19 C18 1_555 1_555
H29 C19 1_555 1_555
H30 C19 1_555 1_555
H31 C19 1_555 1_555
C20 N4 1_555 1_555
C21 C20 1_555 1_555
H32 C21 1_555 1_555
C22 C21 1_555 1_555
H33 C22 1_555 1_555
C23 C22 1_555 1_555
H34 C23 1_555 1_555
C24 C23 1_555 1_555
H35 C24 1_555 1_555
C25 C20 1_555 1_555
H36 C25 1_555 1_555
C26 Si2 1_555 1_555
H37 C26 1_555 1_555
H38 C26 1_555 1_555
H39 C26 1_555 1_555
C27 N6 1_555 1_555
H40 C27 1_555 1_555
H41 C27 1_555 1_555
H42 C27 1_555 1_555
C28 N6 1_555 1_555
H43 C28 1_555 1_555
H44 C28 1_555 1_555
H45 C28 1_555 1_555
C29 N5 1_555 1_555
C30 C29 1_555 1_555
H46 C30 1_555 1_555
C31 C30 1_555 1_555
H47 C31 1_555 1_555
C32 C31 1_555 1_555
H48 C32 1_555 1_555
C33 C32 1_555 1_555
H49 C33 1_555 1_555
C34 C29 1_555 1_555
H50 C34 1_555 1_555
C35 O2 1_555 1_555
H51 C35 1_555 1_555
H52 C35 1_555 1_555
C36 C35 1_555 1_555
H53 C36 1_555 1_555
H54 C36 1_555 1_555
H55 C36 1_555 1_555
C37 O2 1_555 1_555
H56 C37 1_555 1_555
H57 C37 1_555 1_555
C38 C37 1_555 1_555
H58 C38 1_555 1_555
H59 C38 1_555 1_555
H60 C38 1_555 1_555
Li2 N4 1_555 1_555
N5 Si2 1_555 1_555
C5 C6 1_555 1_555
C14 C15 1_555 1_555
C24 C25 1_555 1_555
C33 C34 1_555 1_555

#END
