
#######################################################################
#
#                 Cambridge Crystallographic Data Centre
#                                CCDC 
#
#######################################################################
#
# If this CIF has been generated from an entry in the Cambridge 
# Structural Database, then it will include bibliographic, chemical, 
# crystal, experimental, refinement or atomic coordinate data resulting 
# from the CCDC's data processing and validation procedures.
#
#######################################################################

data_EREGEP
_chemical_formula_moiety         'C20 H17 Cl2 O1 P1'
_chemical_name_systematic        
'(1,2-dichloro-2-phenylethyl)(diphenyl)phosphine oxide'
_symmetry_cell_setting           monoclinic
_symmetry_space_group_name_H-M   'P 21/n'
_symmetry_Int_Tables_number      14
_space_group_name_Hall           '-P 2yn'
loop_
_symmetry_equiv_pos_site_id
_symmetry_equiv_pos_as_xyz
1 x,y,z
2 1/2-x,1/2+y,1/2-z
3 -x,-y,-z
4 1/2+x,1/2-y,1/2+z
_cell_length_a                   5.65192(16)
_cell_length_b                   18.5698(6)
_cell_length_c                   19.0554(5)
_cell_angle_alpha                90
_cell_angle_beta                 95.338(3)
_cell_angle_gamma                90
_cell_volume                     1991.29
_exptl_crystal_colour            colorless
_exptl_crystal_description       block
_cell_formula_units_Z            4
loop_
_atom_site_label
_atom_site_type_symbol
_atom_site_fract_x
_atom_site_fract_y
_atom_site_fract_z
P1 P 1.11563(17) 0.62014(6) 0.68610(5)
Cl1 Cl 1.0033(3) 0.55110(7) 0.81610(6)
O1 O 1.3736(5) 0.62997(18) 0.70655(19)
C1 C 1.0396(8) 0.5336(2) 0.6469(2)
Cl2 Cl 0.8026(3) 0.69877(8) 0.87752(6)
C2 C 0.8357(8) 0.4949(3) 0.6560(3)
H1 H 0.7269 0.5124 0.6856
C3 C 0.7932(10) 0.4298(3) 0.6209(3)
H2 H 0.6574 0.4034 0.6279
C4 C 0.9509(10) 0.4039(3) 0.5760(3)
H3 H 0.9219 0.3604 0.5526
C5 C 1.1521(11) 0.4432(3) 0.5661(3)
H4 H 1.2579 0.4264 0.5352
C6 C 1.1975(9) 0.5072(3) 0.6015(3)
H5 H 1.3350 0.5328 0.5950
C7 C 1.0038(7) 0.6837(2) 0.6195(2)
C8 C 0.7785(8) 0.6771(3) 0.5838(2)
H6 H 0.6769 0.6409 0.5963
C9 C 0.7047(9) 0.7241(3) 0.5298(3)
H7 H 0.5550 0.7190 0.5056
C10 C 0.8553(11) 0.7787(3) 0.5121(3)
H8 H 0.8051 0.8108 0.4763
C11 C 1.0769(11) 0.7859(3) 0.5467(3)
H9 H 1.1771 0.8225 0.5342
C12 C 1.1532(8) 0.7380(3) 0.6010(3)
H10 H 1.3041 0.7427 0.6246
C13 C 0.9356(8) 0.6291(2) 0.7615(2)
H11 H 0.7663 0.6293 0.7448
C14 C 0.9970(8) 0.6963(3) 0.8066(2)
H12 H 1.1607 0.6911 0.8279
C15 C 0.9783(8) 0.7668(2) 0.7687(2)
C16 C 0.7737(8) 0.7876(3) 0.7281(3)
H13 H 0.6424 0.7572 0.7236
C17 C 0.7645(11) 0.8534(3) 0.6943(3)
H14 H 0.6288 0.8666 0.6658
C18 C 0.9567(13) 0.8998(3) 0.7027(4)
H15 H 0.9493 0.9444 0.6804
C19 C 1.1589(12) 0.8799(3) 0.7440(4)
H16 H 1.2874 0.9113 0.7500
C20 C 1.1714(9) 0.8138(3) 0.7764(3)
H17 H 1.3094 0.8002 0.8036
loop_
_geom_bond_atom_site_label_1
_geom_bond_atom_site_label_2
_geom_bond_site_symmetry_1
_geom_bond_site_symmetry_2
P1 O1 1_555 1_555
Cl1 C13 1_555 1_555
C1 P1 1_555 1_555
Cl2 C14 1_555 1_555
C2 C1 1_555 1_555
H1 C2 1_555 1_555
C3 C2 1_555 1_555
H2 C3 1_555 1_555
C4 C3 1_555 1_555
H3 C4 1_555 1_555
C5 C4 1_555 1_555
H4 C5 1_555 1_555
C6 C1 1_555 1_555
H5 C6 1_555 1_555
C7 P1 1_555 1_555
C8 C7 1_555 1_555
H6 C8 1_555 1_555
C9 C8 1_555 1_555
H7 C9 1_555 1_555
C10 C9 1_555 1_555
H8 C10 1_555 1_555
C11 C10 1_555 1_555
H9 C11 1_555 1_555
C12 C7 1_555 1_555
H10 C12 1_555 1_555
C13 P1 1_555 1_555
H11 C13 1_555 1_555
C14 C13 1_555 1_555
H12 C14 1_555 1_555
C15 C14 1_555 1_555
C16 C15 1_555 1_555
H13 C16 1_555 1_555
C17 C16 1_555 1_555
H14 C17 1_555 1_555
C18 C17 1_555 1_555
H15 C18 1_555 1_555
C19 C18 1_555 1_555
H16 C19 1_555 1_555
C20 C15 1_555 1_555
H17 C20 1_555 1_555
C5 C6 1_555 1_555
C11 C12 1_555 1_555
C19 C20 1_555 1_555

#END
