
#######################################################################
#
#                 Cambridge Crystallographic Data Centre
#                                CCDC 
#
#######################################################################
#
# If this CIF has been generated from an entry in the Cambridge 
# Structural Database, then it will include bibliographic, chemical, 
# crystal, experimental, refinement or atomic coordinate data resulting 
# from the CCDC's data processing and validation procedures.
#
#######################################################################

data_EREMIZ
_chemical_formula_moiety         'C14 H19 N5 O4 S1'
_chemical_name_systematic        
(R)-5-((2,4-diaminopyrimidin-5-yl)oxy)-4-isopropyl-2-methoxybenzenesulfonamide
_symmetry_cell_setting           orthorhombic
_symmetry_space_group_name_H-M   'P 21 21 21'
_symmetry_Int_Tables_number      19
_space_group_name_Hall           'P 2ac 2ab'
loop_
_symmetry_equiv_pos_site_id
_symmetry_equiv_pos_as_xyz
1 x,y,z
2 1/2-x,-y,1/2+z
3 -x,1/2+y,1/2-z
4 1/2+x,1/2-y,-z
_cell_length_a                   10.0392(6)
_cell_length_b                   10.8961(6)
_cell_length_c                   15.9916(9)
_cell_angle_alpha                90
_cell_angle_beta                 90
_cell_angle_gamma                90
_cell_volume                     1749.29
_exptl_crystal_colour            colorless
_exptl_crystal_description       block
_cell_formula_units_Z            4
loop_
_atom_site_label
_atom_site_type_symbol
_atom_site_fract_x
_atom_site_fract_y
_atom_site_fract_z
S1 S 0.15912(5) 0.04539(5) 0.74069(3)
O1 O 0.05116(15) -0.03657(16) 0.72284(11)
O2 O 0.15078(17) 0.12492(15) 0.81226(10)
N1 N 0.2896(2) -0.03349(19) 0.75187(14)
H1 H 0.3531(19) 0.004(2) 0.7771(15)
H2 H 0.307(3) -0.0933(18) 0.7183(13)
O3 O 0.2219(2) -0.02565(15) 0.56978(11)
O4 O 0.14487(16) 0.47289(13) 0.60847(11)
N2 N 0.3426(2) 0.73922(17) 0.65690(13)
N3 N 0.4899(2) 0.56868(18) 0.65455(14)
N4 N 0.5664(2) 0.7637(2) 0.6779(2)
H3 H 0.6474(15) 0.736(3) 0.674(2)
H4 H 0.555(3) 0.8410(11) 0.672(2)
N5 N 0.1167(2) 0.7140(2) 0.63614(19)
H5 H 0.106(3) 0.7918(10) 0.641(2)
H6 H 0.047(2) 0.669(2) 0.6395(19)
C1 C 0.1754(2) 0.1446(2) 0.65374(14)
C2 C 0.2021(2) 0.0978(2) 0.57377(15)
C3 C 0.2066(2) 0.1759(2) 0.50640(16)
H7 H 0.2222 0.1437 0.4534
C4 C 0.1881(2) 0.3027(2) 0.51531(15)
C5 C 0.1646(2) 0.3464(2) 0.59544(15)
C6 C 0.1565(2) 0.2694(2) 0.66380(14)
H8 H 0.1383 0.3014 0.7165
C7 C 0.2652(3) -0.0755(3) 0.49192(18)
H9 H 0.1953 -0.0675 0.4513
H10 H 0.2868 -0.1606 0.4990
H11 H 0.3426 -0.0318 0.4730
C8 C 0.1934(3) 0.3867(3) 0.44014(17)
H12 H 0.1863 0.4713 0.4605
C9 C 0.0783(4) 0.3640(4) 0.3823(2)
H13 H 0.0842 0.4184 0.3352
H14 H -0.0038 0.3785 0.4115
H15 H 0.0807 0.2805 0.3631
C10 C 0.3237(4) 0.3754(5) 0.3939(3)
H16 H 0.3258 0.4335 0.3488
H17 H 0.3322 0.2938 0.3718
H18 H 0.3960 0.3916 0.4315
C11 C 0.2581(2) 0.5388(2) 0.62838(14)
C12 C 0.3833(2) 0.4956(2) 0.63707(17)
H19 H 0.3975 0.4118 0.6308
C13 C 0.4622(2) 0.6869(2) 0.66140(17)
C14 C 0.2380(2) 0.6655(2) 0.64119(16)
loop_
_geom_bond_atom_site_label_1
_geom_bond_atom_site_label_2
_geom_bond_site_symmetry_1
_geom_bond_site_symmetry_2
S1 O1 1_555 1_555
O2 S1 1_555 1_555
N1 S1 1_555 1_555
H1 N1 1_555 1_555
H2 N1 1_555 1_555
O3 C2 1_555 1_555
O4 C5 1_555 1_555
N2 C13 1_555 1_555
N3 C12 1_555 1_555
N4 H3 1_555 1_555
H4 N4 1_555 1_555
N5 H5 1_555 1_555
H6 N5 1_555 1_555
C1 S1 1_555 1_555
C2 C1 1_555 1_555
C3 C2 1_555 1_555
H7 C3 1_555 1_555
C4 C3 1_555 1_555
C5 C4 1_555 1_555
C6 C1 1_555 1_555
H8 C6 1_555 1_555
C7 O3 1_555 1_555
H9 C7 1_555 1_555
H10 C7 1_555 1_555
H11 C7 1_555 1_555
C8 C4 1_555 1_555
H12 C8 1_555 1_555
C9 C8 1_555 1_555
H13 C9 1_555 1_555
H14 C9 1_555 1_555
H15 C9 1_555 1_555
C10 C8 1_555 1_555
H16 C10 1_555 1_555
H17 C10 1_555 1_555
H18 C10 1_555 1_555
C11 O4 1_555 1_555
C12 C11 1_555 1_555
H19 C12 1_555 1_555
C13 N3 1_555 1_555
C14 N2 1_555 1_555
N4 C13 1_555 1_555
N5 C14 1_555 1_555
C5 C6 1_555 1_555
C11 C14 1_555 1_555

#END
