
#######################################################################
#
#                 Cambridge Crystallographic Data Centre
#                                CCDC 
#
#######################################################################
#
# If this CIF has been generated from an entry in the Cambridge 
# Structural Database, then it will include bibliographic, chemical, 
# crystal, experimental, refinement or atomic coordinate data resulting 
# from the CCDC's data processing and validation procedures.
#
#######################################################################

data_ERENUK
_chemical_formula_moiety         'C15 H13 Cl1 N2 O1 S1'
_chemical_name_systematic        
N-(4-Chlorobenzoyl)-N'-(4-methylphenyl)thiourea
_symmetry_cell_setting           monoclinic
_symmetry_space_group_name_H-M   'P 21/n'
_symmetry_Int_Tables_number      14
_space_group_name_Hall           '-P 2yn'
loop_
_symmetry_equiv_pos_site_id
_symmetry_equiv_pos_as_xyz
1 x,y,z
2 1/2+x,1/2-y,1/2+z
3 -x,-y,-z
4 1/2-x,1/2+y,1/2-z
_cell_length_a                   16.097(6)
_cell_length_b                   4.598(2)
_cell_length_c                   19.388(7)
_cell_angle_alpha                90
_cell_angle_beta                 89.299(6)
_cell_angle_gamma                90
_cell_volume                     1434.88
_exptl_crystal_colour            colorless
_exptl_crystal_description       prism
_chemical_melting_point          141-142deg.C
_cell_formula_units_Z            4
_exptl_crystal_recrystallization_method benzene
loop_
_atom_site_label
_atom_site_type_symbol
_atom_site_fract_x
_atom_site_fract_y
_atom_site_fract_z
Cl1 Cl -0.37312(3) -1.03341(11) 0.96941(2)
S1 S 0.07649(3) 0.17535(12) 0.92431(2)
O1 O -0.13016(7) -0.1458(3) 0.78619(6)
N1 N -0.05366(8) -0.1251(3) 0.88425(6)
N2 N -0.00229(8) 0.1914(3) 0.80192(7)
C1 C 0.04373(9) 0.3995(4) 0.76332(8)
C2 C 0.11493(10) 0.5436(4) 0.78488(9)
C3 C 0.15448(10) 0.7374(4) 0.74032(9)
C4 C 0.12549(10) 0.7935(4) 0.67412(8)
C5 C 0.05322(10) 0.6518(4) 0.65421(8)
C6 C 0.01293(10) 0.4571(4) 0.69762(8)
C7 C -0.17749(9) -0.4371(3) 0.87910(8)
C8 C -0.24968(10) -0.5005(4) 0.84258(8)
C9 C -0.30934(10) -0.6855(4) 0.86978(9)
C10 C -0.29680(10) -0.8084(4) 0.93405(8)
C11 C -0.22495(10) -0.7551(4) 0.97087(8)
C12 C -0.16546(10) -0.5702(4) 0.94281(8)
C13 C -0.11903(9) -0.2268(4) 0.84581(8)
C14 C 0.00596(9) 0.0855(4) 0.86562(8)
C15 C 0.17191(12) 0.9949(4) 0.62584(10)
H1 H 0.13628(10) 0.5097(4) 0.82963(9)
H2 H 0.20295(10) 0.8351(4) 0.75548(9)
H3 H 0.03108(10) 0.6895(4) 0.60990(8)
H4 H -0.03603(10) 0.3619(4) 0.68264(8)
H5 H -0.25782(10) -0.4154(4) 0.79853(8)
H6 H -0.35825(10) -0.7278(4) 0.84474(9)
H7 H -0.21668(10) -0.8438(4) 1.01451(8)
H8 H -0.11582(10) -0.5337(4) 0.96736(8)
H9 H 0.22635(12) 0.9216(4) 0.61779(10)
H10 H 0.14337(12) 1.0070(4) 0.58334(10)
H11 H 0.17525(12) 1.1828(4) 0.64598(10)
H12 H -0.04819(8) -0.2075(3) 0.92891(6)
H13 H -0.04794(8) 0.1116(3) 0.77774(7)
loop_
_geom_bond_atom_site_label_1
_geom_bond_atom_site_label_2
_geom_bond_site_symmetry_1
_geom_bond_site_symmetry_2
Cl1 C10 1_555 1_555
S1 C14 1_555 1_555
O1 C13 1_555 1_555
N1 C13 1_555 1_555
N2 C1 1_555 1_555
C1 C2 1_555 1_555
C2 C3 1_555 1_555
C3 C4 1_555 1_555
C4 C5 1_555 1_555
C5 C6 1_555 1_555
C6 C1 1_555 1_555
C7 C8 1_555 1_555
C8 C9 1_555 1_555
C9 C10 1_555 1_555
C10 C11 1_555 1_555
C11 C12 1_555 1_555
C12 C7 1_555 1_555
C13 C7 1_555 1_555
C14 N1 1_555 1_555
C15 C4 1_555 1_555
H1 C2 1_555 1_555
H2 C3 1_555 1_555
H3 C5 1_555 1_555
H4 C6 1_555 1_555
H5 C8 1_555 1_555
H6 C9 1_555 1_555
H7 C11 1_555 1_555
H8 C12 1_555 1_555
H9 C15 1_555 1_555
H10 C15 1_555 1_555
H11 C15 1_555 1_555
H12 N1 1_555 1_555
H13 N2 1_555 1_555
N2 C14 1_555 1_555

#END
