
#######################################################################
#
#                 Cambridge Crystallographic Data Centre
#                                CCDC 
#
#######################################################################
#
# If this CIF has been generated from an entry in the Cambridge 
# Structural Database, then it will include bibliographic, chemical, 
# crystal, experimental, refinement or atomic coordinate data resulting 
# from the CCDC's data processing and validation procedures.
#
#######################################################################

data_ERILAS
_chemical_formula_moiety         'C16 H20 N2 O6'
_chemical_name_systematic        
'Diethyl 2,5-bis(acetylamino)benzene-1,4-dicarboxylate'
_symmetry_cell_setting           triclinic
_symmetry_space_group_name_H-M   'P -1'
_symmetry_Int_Tables_number      2
_space_group_name_Hall           '-P 1'
loop_
_symmetry_equiv_pos_site_id
_symmetry_equiv_pos_as_xyz
1 x,y,z
2 -x,-y,-z
_cell_length_a                   4.9720(13)
_cell_length_b                   8.259(2)
_cell_length_c                   10.597(3)
_cell_angle_alpha                91.590(5)
_cell_angle_beta                 96.686(5)
_cell_angle_gamma                105.419(4)
_cell_volume                     415.853
_exptl_crystal_colour            colorless
_cell_formula_units_Z            1
_exptl_crystal_recrystallization_method chloroform
loop_
_atom_site_label
_atom_site_type_symbol
_atom_site_fract_x
_atom_site_fract_y
_atom_site_fract_z
O1 O 0.2540(4) 0.7800(3) 0.2092(2)
O2 O 0.6989(4) 0.7671(3) 0.6462(2)
O3 O 0.5074(4) 0.5840(3) 0.7799(2)
N1 N 0.4164(5) 0.7629(3) 0.4166(2)
C1 C -0.0429(5) 0.5535(3) 0.3792(3)
C2 C 0.2470(5) 0.5768(3) 0.5805(2)
C3 C 0.2067(5) 0.6320(3) 0.4573(3)
C4 C 0.5072(6) 0.6556(4) 0.6690(3)
C5 C 0.4360(6) 0.8248(3) 0.2993(3)
C6 C 0.7073(6) 0.9551(4) 0.2901(3)
H1 H 0.8489 0.9005 0.2737
H2 H 0.7665 1.0226 0.3687
H3 H 0.6802 1.0257 0.2219
C7 C 0.7633(7) 0.6423(5) 0.8755(4)
H4 H 0.7852 0.5512 0.9281
H5 H 0.9296 0.6795 0.8329
C8 C 0.7280(9) 0.7774(6) 0.9514(4)
H6 H 0.7253 0.8709 0.8999
H7 H 0.8810 0.8107 1.0192
H8 H 0.5537 0.7421 0.9866
H9 H -0.071(6) 0.596(3) 0.299(3)
H10 H 0.556(6) 0.799(3) 0.484(3)
C2A C -0.2470(5) 0.4232(3) 0.4195(2)
C3A C -0.2067(5) 0.3680(3) 0.5427(3)
N1A N -0.4164(5) 0.2371(3) 0.5834(2)
C5A C -0.4360(6) 0.1752(3) 0.7007(3)
O1A O -0.2540(4) 0.2200(3) 0.7908(2)
C6A C -0.7073(6) 0.0449(4) 0.7099(3)
H1A H -0.8489 0.0995 0.7263
H2A H -0.7665 -0.0226 0.6313
H3A H -0.6802 -0.0257 0.7781
H10A H -0.556(6) 0.201(3) 0.516(3)
C1A C 0.0429(5) 0.4465(3) 0.6208(3)
H9A H 0.071(6) 0.404(3) 0.701(3)
C4A C -0.5072(6) 0.3444(4) 0.3310(3)
O2A O -0.6989(4) 0.2329(3) 0.3538(2)
O3A O -0.5074(4) 0.4160(3) 0.2201(2)
C7A C -0.7633(7) 0.3577(5) 0.1245(4)
H4A H -0.7852 0.4488 0.0719
H5A H -0.9296 0.3205 0.1671
C8A C -0.7280(9) 0.2226(6) 0.0486(4)
H6A H -0.7253 0.1291 0.1001
H7A H -0.8810 0.1893 -0.0192
H8A H -0.5537 0.2579 0.0134
loop_
_geom_bond_atom_site_label_1
_geom_bond_atom_site_label_2
_geom_bond_site_symmetry_1
_geom_bond_site_symmetry_2
O1 C5 1_555 1_555
O2 C4 1_555 1_555
O3 C4 1_555 1_555
N1 C3 1_555 1_555
C1 C3 1_555 1_555
C2 C3 1_555 1_555
C4 C2 1_555 1_555
C5 N1 1_555 1_555
C6 C5 1_555 1_555
H1 C6 1_555 1_555
H2 C6 1_555 1_555
H3 C6 1_555 1_555
C7 O3 1_555 1_555
H4 C7 1_555 1_555
H5 C7 1_555 1_555
C8 C7 1_555 1_555
H6 C8 1_555 1_555
H7 C8 1_555 1_555
H8 C8 1_555 1_555
H9 C1 1_555 1_555
H10 N1 1_555 1_555
C2A C1 1_555 1_555
C3A C2A 1_555 1_555
N1A C3A 1_555 1_555
C5A N1A 1_555 1_555
O1A C5A 1_555 1_555
C6A C5A 1_555 1_555
H1A C6A 1_555 1_555
H2A C6A 1_555 1_555
H3A C6A 1_555 1_555
H10A N1A 1_555 1_555
C1A C2 1_555 1_555
H9A C1A 1_555 1_555
C4A C2A 1_555 1_555
O2A C4A 1_555 1_555
O3A C4A 1_555 1_555
C7A O3A 1_555 1_555
H4A C7A 1_555 1_555
H5A C7A 1_555 1_555
C8A C7A 1_555 1_555
H6A C8A 1_555 1_555
H7A C8A 1_555 1_555
H8A C8A 1_555 1_555
C3A C1A 1_555 1_555

#END
