
#######################################################################
#
#                 Cambridge Crystallographic Data Centre
#                                CCDC 
#
#######################################################################
#
# If this CIF has been generated from an entry in the Cambridge 
# Structural Database, then it will include bibliographic, chemical, 
# crystal, experimental, refinement or atomic coordinate data resulting 
# from the CCDC's data processing and validation procedures.
#
#######################################################################

data_ERIPUS
_chemical_formula_moiety         'C80 H76 N8 Na4 O4,C7 H8'
_chemical_name_systematic        
'tetrakis(\m-2-(((2,6-diethylphenyl)imino)methyl)quinolin-8-olato)-tetra-sodium toluene unknown solvate'
_symmetry_cell_setting           triclinic
_symmetry_space_group_name_H-M   'P -1'
_symmetry_Int_Tables_number      2
_space_group_name_Hall           '-P 1'
loop_
_symmetry_equiv_pos_site_id
_symmetry_equiv_pos_as_xyz
1 x,y,z
2 -x,-y,-z
_cell_length_a                   15.570(3)
_cell_length_b                   17.110(3)
_cell_length_c                   18.140(4)
_cell_angle_alpha                93.88(3)
_cell_angle_beta                 93.24(3)
_cell_angle_gamma                116.22(3)
_cell_volume                     4305.15
_exptl_crystal_colour            colorless
_exptl_crystal_description       Prism
_cell_formula_units_Z            2
loop_
_atom_site_label
_atom_site_type_symbol
_atom_site_fract_x
_atom_site_fract_y
_atom_site_fract_z
Na1 Na 0.98674(7) 0.86296(6) 0.26990(6)
Na2 Na 0.87422(7) 0.67777(7) 0.16218(6)
Na3 Na 1.03359(7) 0.69613(7) 0.30141(6)
Na4 Na 0.82505(7) 0.68767(6) 0.34190(6)
O1 O 0.82531(13) 0.77213(12) 0.24512(10)
O2 O 0.87793(12) 0.60205(11) 0.26190(10)
O3 O 0.98417(13) 0.77982(12) 0.37567(10)
O4 O 1.02930(12) 0.77646(12) 0.19388(10)
N1 N 0.71674(14) 0.53407(13) 0.33438(11)
N2 N 1.18003(15) 0.74790(14) 0.24340(12)
N3 N 0.68479(15) 0.64159(14) 0.44018(12)
N4 N 0.73987(15) 0.69056(14) 0.10798(12)
N5 N 0.80813(15) 0.58713(15) 0.03285(12)
N6 N 1.06076(15) 0.95692(14) 0.37812(12)
N7 N 1.15887(17) 0.65045(16) 0.36178(13)
N8 N 1.07166(17) 1.02824(15) 0.24495(13)
C1 C 1.0952(2) 1.04320(17) 0.37925(15)
C2 C 0.73541(17) 0.47981(16) 0.28763(13)
C3 C 0.63942(18) 0.50101(17) 0.37129(15)
C4 C 1.19142(18) 0.80057(15) 0.18852(14)
C5 C 0.7376(2) 0.59579(18) 0.00378(15)
H1 H 0.7102(2) 0.56761(18) -0.04328(15)
C6 C 0.82249(18) 0.51815(18) 0.25078(14)
C7 C 1.10980(18) 0.81504(16) 0.16456(13)
C8 C 0.69767(19) 0.64877(18) 0.04176(15)
C9 C 0.66437(18) 0.68955(16) 0.49917(14)
C10 C 1.28074(19) 0.84266(18) 0.15752(15)
C11 C 0.75573(19) 0.78544(16) 0.21641(15)
C12 C 0.69173(18) 0.68282(17) 0.57272(15)
C13 C 1.06387(19) 0.92227(17) 0.44295(15)
C14 C 1.1385(2) 1.06653(19) 0.51048(16)
H2 H 1.1643(2) 1.10369(19) 0.55421(16)
C15 C 1.1243(2) 0.87212(19) 0.10975(15)
H3 H 1.0742(2) 0.88404(19) 0.09305(15)
C16 C 0.62572(19) 0.56143(18) 0.42554(15)
H4 H 0.57060(19) 0.53957(18) 0.45051(15)
C17 C 0.70583(18) 0.74155(17) 0.14423(15)
C18 C 0.8417(2) 0.53491(18) -0.01198(15)
C19 C 1.25215(19) 0.73276(18) 0.26795(16)
C20 C 0.6225(2) 0.74484(18) 0.48168(15)
C21 C 1.3559(2) 0.8240(2) 0.18519(19)
H5 H 1.4152(2) 0.8491(2) 0.16604(19)
C22 C 0.6727(2) 0.38705(17) 0.27636(16)
C23 C 1.0832(2) 1.06765(17) 0.17707(15)
C24 C 0.6055(2) 0.79095(18) 0.54036(16)
H6 H 0.5770(2) 0.82724(18) 0.53040(16)
C25 C 0.67249(19) 0.73161(17) 0.62894(15)
H7 H 0.68909(19) 0.72804(17) 0.67822(15)
C26 C 1.3420(2) 0.7698(2) 0.23950(19)
H8 H 1.3913(2) 0.7574(2) 0.25749(19)
C27 C 1.02375(19) 0.82795(17) 0.43884(15)
C28 C 0.63011(19) 0.78416(18) 0.61337(17)
H9 H 0.61773(19) 0.81542(18) 0.65180(17)
C29 C 1.1739(2) 1.10462(18) 0.14965(17)
C30 C 0.6419(3) 0.8489(2) 0.2212(2)
H10 H 0.6213(3) 0.8852(2) 0.2472(2)
C31 C 1.1330(2) 1.10072(18) 0.44480(16)
H11 H 1.1540(2) 1.16062(18) 0.44378(16)
C32 C 0.7210(2) 0.83982(19) 0.25158(17)
H12 H 0.7520(2) 0.87114(19) 0.29698(17)
C33 C 0.8417(2) 0.46042(19) 0.20518(18)
H13 H 0.8967(2) 0.48252(19) 0.18010(18)
C34 C 0.5906(2) 0.3560(2) 0.31511(18)
H14 H 0.5474(2) 0.2968(2) 0.30853(18)
C35 C 0.7896(2) 0.44323(19) -0.02141(16)
C36 C 1.2895(2) 0.89905(19) 0.10188(16)
H15 H 1.3473(2) 0.92700(19) 0.08106(16)
C37 C 0.5734(2) 0.41213(18) 0.36270(17)
H16 H 0.5191(2) 0.39165(18) 0.38868(17)
C38 C 1.2345(2) 0.6767(2) 0.32866(18)
H17 H 1.2813(2) 0.6597(2) 0.34353(18)
C39 C 0.7442(2) 0.6294(2) 0.59117(17)
H18 H 0.7812(2) 0.6277(2) 0.55036(17)
H19 H 0.7891(2) 0.6586(2) 0.63481(17)
C40 C 0.6971(2) 0.3331(2) 0.22856(18)
H20 H 0.6568(2) 0.2733(2) 0.21958(18)
C41 C 0.6170(2) 0.6546(2) 0.00753(17)
H21 H 0.5878(2) 0.6239(2) -0.03843(17)
C42 C 1.1052(2) 0.97580(19) 0.51180(15)
C43 C 1.2129(2) 0.91196(19) 0.07925(16)
H22 H 1.2190(2) 0.94852(19) 0.04215(16)
C44 C 0.7812(2) 0.3699(2) 0.19551(18)
H23 H 0.7986(2) 0.3339(2) 0.16578(18)
C45 C 1.0972(2) 1.07749(18) 0.30692(16)
H24 H 1.1179(2) 1.13735(18) 0.30587(16)
C46 C 1.1479(2) 0.5957(2) 0.42097(16)
C47 C 0.6257(2) 0.7519(2) 0.11330(16)
C48 C 1.0933(2) 0.5062(2) 0.40364(18)
C49 C 0.9298(2) 0.5795(2) -0.04146(17)
C50 C 0.8266(2) 0.3976(2) -0.06520(19)
H25 H 0.7936(2) 0.3368(2) -0.07284(19)
C51 C 0.5987(3) 0.7533(2) 0.40252(18)
H26 H 0.6002(3) 0.8103(2) 0.39963(18)
H27 H 0.6483(3) 0.7513(2) 0.37355(18)
C52 C 0.9108(2) 0.4404(2) -0.0974(2)
H28 H 0.9339(2) 0.4088(2) -0.1271(2)
C53 C 1.2590(2) 1.1050(2) 0.19452(19)
H29 H 1.2668(2) 1.1366(2) 0.24280(19)
H30 H 1.2439(2) 1.0450(2) 0.20250(19)
C54 C 0.9831(2) 0.6784(2) -0.0279(2)
H31 H 0.9399(2) 0.7022(2) -0.0441(2)
H32 H 0.9991(2) 0.6946(2) 0.0252(2)
C55 C 1.0013(3) 1.0608(2) 0.13549(18)
C56 C 0.6971(2) 0.3984(2) 0.01476(19)
H33 H 0.7083(2) 0.4227(2) 0.06627(19)
H34 H 0.6489(2) 0.4121(2) -0.00945(19)
C57 C 0.5934(2) 0.8051(2) 0.1535(2)
H35 H 0.5399(2) 0.8109(2) 0.1348(2)
C58 C 1.1181(3) 0.4882(3) 0.5326(2)
H36 H 1.1086(3) 0.4515(3) 0.5701(2)
C59 C 1.1806(3) 1.1369(2) 0.0800(2)
H37 H 1.2399(3) 1.1619(2) 0.0609(2)
C60 C 0.9610(2) 0.5306(2) -0.0853(2)
H38 H 1.0176(2) 0.5591(2) -0.1076(2)
C61 C 0.5829(2) 0.7062(2) 0.04317(18)
H39 H 0.5306(2) 0.7113(2) 0.02090(18)
C62 C 1.0789(2) 0.4532(2) 0.4605(2)
H40 H 1.0422(2) 0.3929(2) 0.4503(2)
C63 C 1.1860(2) 0.6331(2) 0.49314(19)
C64 C 1.0748(2) 0.7216(2) -0.0659(2)
H41 H 1.0608(4) 0.7046(14) -0.1184(3)
H42 H 1.1006(10) 0.7841(2) -0.0567(12)
H43 H 1.1211(7) 0.7035(13) -0.0466(10)
C65 C 1.1098(3) 0.9357(2) 0.57658(18)
H44 H 1.1367(3) 0.9693(2) 0.62186(18)
C66 C 1.2442(3) 0.7318(3) 0.5133(2)
H45 H 1.2262(3) 0.7619(3) 0.4766(2)
H46 H 1.2277(3) 0.7476(3) 0.5610(2)
C67 C 0.6564(2) 0.2984(2) 0.0122(2)
H47 H 0.6356(17) 0.2727(2) -0.0383(3)
H48 H 0.7054(6) 0.2837(2) 0.0317(14)
H49 H 0.6028(12) 0.2763(3) 0.0415(12)
C68 C 0.6785(3) 0.5361(2) 0.60564(19)
H50 H 0.6375(12) 0.5050(5) 0.5613(4)
H51 H 0.7167(3) 0.5073(6) 0.6199(13)
H52 H 0.6399(13) 0.5369(2) 0.6448(9)
C69 C 1.1712(3) 0.5774(3) 0.5486(2)
H53 H 1.1974(3) 0.6007(3) 0.5970(2)
C70 C 1.1006(3) 1.1322(3) 0.0396(2)
H54 H 1.1064(3) 1.1548(3) -0.0060(2)
C71 C 1.0743(3) 0.8471(2) 0.57137(19)
H55 H 1.0786(3) 0.8208(2) 0.61373(19)
C72 C 1.0488(3) 0.4682(2) 0.3241(2)
H56 H 1.0057(3) 0.4930(2) 0.3099(2)
H57 H 1.0999(3) 0.4875(2) 0.2915(2)
C73 C 1.0315(3) 0.7940(2) 0.50474(18)
H58 H 1.0074(3) 0.7336(2) 0.50465(18)
C74 C 0.9937(3) 0.3698(2) 0.3107(2)
H59 H 0.9685(18) 0.3531(3) 0.2595(4)
H60 H 1.0359(6) 0.3442(3) 0.3225(16)
H61 H 0.9416(13) 0.3496(3) 0.3416(12)
C75 C 0.5028(3) 0.6843(3) 0.3681(2)
H62 H 0.4946(11) 0.6925(14) 0.3168(5)
H63 H 0.4998(10) 0.6274(3) 0.3716(17)
H64 H 0.4526(3) 0.6887(14) 0.3937(12)
C76 C 1.0134(3) 1.0945(3) 0.0662(2)
H65 H 0.9598(3) 1.0909(3) 0.0378(2)
C77 C 0.9046(3) 1.0200(3) 0.1641(2)
H66 H 0.8560(3) 0.9918(3) 0.1225(2)
H67 H 0.9020(3) 0.9749(3) 0.1950(2)
C78 C 1.3556(3) 1.1452(3) 0.1607(3)
H68 H 1.3497(7) 1.1138(13) 0.1133(8)
H69 H 1.3733(11) 1.2055(6) 0.1545(16)
H70 H 1.4042(5) 1.1415(19) 0.1932(9)
C79 C 1.3492(3) 0.7621(3) 0.5173(3)
H71 H 1.3678(5) 0.757(2) 0.4683(4)
H72 H 1.3816(3) 0.8221(8) 0.5384(18)
H73 H 1.3664(5) 0.7265(15) 0.5478(16)
C80 C 0.8805(5) 1.0855(5) 0.2096(3)
H74 H 0.876(4) 1.127(2) 0.1781(7)
H75 H 0.8199(17) 1.0546(6) 0.229(2)
H76 H 0.9300(18) 1.116(2) 0.2495(17)
C81 C 0.3673(3) 0.3967(3) 0.19345(19)
H77 H 0.3957(3) 0.3590(3) 0.19438(19)
C82 C 0.4250(3) 0.4861(3) 0.1909(2)
C83 C 0.3768(4) 0.5400(3) 0.18915(19)
H78 H 0.4117(4) 0.6000(3) 0.18670(19)
C84 C 0.2808(4) 0.5041(4) 0.1910(2)
H79 H 0.2508(4) 0.5406(4) 0.1907(2)
C85 C 0.2699(4) 0.3637(3) 0.1946(2)
H80 H 0.2333(4) 0.3038(3) 0.1962(2)
C86 C 0.2251(4) 0.4160(4) 0.1934(2)
H81 H 0.1588(4) 0.3929(4) 0.1942(2)
C87 C 0.5290(4) 0.5226(5) 0.1903(3)
H82 H 0.5584(5) 0.534(3) 0.2403(3)
H83 H 0.5447(4) 0.4815(14) 0.163(2)
H84 H 0.5523(6) 0.5762(17) 0.167(2)
loop_
_geom_bond_atom_site_label_1
_geom_bond_atom_site_label_2
_geom_bond_site_symmetry_1
_geom_bond_site_symmetry_2
Na1 O1 1_555 1_555
Na2 O1 1_555 1_555
Na3 O2 1_555 1_555
Na4 O1 1_555 1_555
O1 C11 1_555 1_555
O2 Na2 1_555 1_555
O3 Na1 1_555 1_555
O4 Na1 1_555 1_555
N1 Na4 1_555 1_555
N2 Na3 1_555 1_555
N3 Na4 1_555 1_555
N4 Na2 1_555 1_555
N5 Na2 1_555 1_555
N6 Na1 1_555 1_555
N7 Na3 1_555 1_555
N8 Na1 1_555 1_555
C1 N6 1_555 1_555
C2 N1 1_555 1_555
C3 N1 1_555 1_555
C4 N2 1_555 1_555
C5 N5 1_555 1_555
H1 C5 1_555 1_555
C6 O2 1_555 1_555
C7 O4 1_555 1_555
C8 N4 1_555 1_555
C9 N3 1_555 1_555
C10 C4 1_555 1_555
C11 C17 1_555 1_555
C12 C9 1_555 1_555
C13 N6 1_555 1_555
C14 H2 1_555 1_555
C15 C7 1_555 1_555
H3 C15 1_555 1_555
C16 N3 1_555 1_555
H4 C16 1_555 1_555
C17 N4 1_555 1_555
C18 N5 1_555 1_555
C19 N2 1_555 1_555
C20 C9 1_555 1_555
C21 C10 1_555 1_555
H5 C21 1_555 1_555
C22 C2 1_555 1_555
C23 N8 1_555 1_555
C24 C20 1_555 1_555
H6 C24 1_555 1_555
C25 C12 1_555 1_555
H7 C25 1_555 1_555
C26 C19 1_555 1_555
H8 C26 1_555 1_555
C27 O3 1_555 1_555
C28 C24 1_555 1_555
H9 C28 1_555 1_555
C29 C23 1_555 1_555
C30 H10 1_555 1_555
C31 C1 1_555 1_555
H11 C31 1_555 1_555
C32 C11 1_555 1_555
H12 C32 1_555 1_555
C33 C6 1_555 1_555
H13 C33 1_555 1_555
C34 C22 1_555 1_555
H14 C34 1_555 1_555
C35 C18 1_555 1_555
C36 C10 1_555 1_555
H15 C36 1_555 1_555
C37 C3 1_555 1_555
H16 C37 1_555 1_555
C38 N7 1_555 1_555
H17 C38 1_555 1_555
C39 C12 1_555 1_555
H18 C39 1_555 1_555
H19 C39 1_555 1_555
C40 C22 1_555 1_555
H20 C40 1_555 1_555
C41 C8 1_555 1_555
H21 C41 1_555 1_555
C42 C13 1_555 1_555
C43 C15 1_555 1_555
H22 C43 1_555 1_555
C44 C33 1_555 1_555
H23 C44 1_555 1_555
C45 N8 1_555 1_555
H24 C45 1_555 1_555
C46 N7 1_555 1_555
C47 C17 1_555 1_555
C48 C46 1_555 1_555
C49 C18 1_555 1_555
C50 C35 1_555 1_555
H25 C50 1_555 1_555
C51 C20 1_555 1_555
H26 C51 1_555 1_555
H27 C51 1_555 1_555
C52 C50 1_555 1_555
H28 C52 1_555 1_555
C53 C29 1_555 1_555
H29 C53 1_555 1_555
H30 C53 1_555 1_555
C54 C49 1_555 1_555
H31 C54 1_555 1_555
H32 C54 1_555 1_555
C55 C23 1_555 1_555
C56 C35 1_555 1_555
H33 C56 1_555 1_555
H34 C56 1_555 1_555
C57 C30 1_555 1_555
H35 C57 1_555 1_555
C58 H36 1_555 1_555
C59 C29 1_555 1_555
H37 C59 1_555 1_555
C60 C49 1_555 1_555
H38 C60 1_555 1_555
C61 C41 1_555 1_555
H39 C61 1_555 1_555
C62 C48 1_555 1_555
H40 C62 1_555 1_555
C63 C46 1_555 1_555
C64 C54 1_555 1_555
H41 C64 1_555 1_555
H42 C64 1_555 1_555
H43 C64 1_555 1_555
C65 C42 1_555 1_555
H44 C65 1_555 1_555
C66 C63 1_555 1_555
H45 C66 1_555 1_555
H46 C66 1_555 1_555
C67 C56 1_555 1_555
H47 C67 1_555 1_555
H48 C67 1_555 1_555
H49 C67 1_555 1_555
C68 C39 1_555 1_555
H50 C68 1_555 1_555
H51 C68 1_555 1_555
H52 C68 1_555 1_555
C69 C58 1_555 1_555
H53 C69 1_555 1_555
C70 C59 1_555 1_555
H54 C70 1_555 1_555
C71 C65 1_555 1_555
H55 C71 1_555 1_555
C72 C48 1_555 1_555
H56 C72 1_555 1_555
H57 C72 1_555 1_555
C73 C27 1_555 1_555
H58 C73 1_555 1_555
C74 C72 1_555 1_555
H59 C74 1_555 1_555
H60 C74 1_555 1_555
H61 C74 1_555 1_555
C75 C51 1_555 1_555
H62 C75 1_555 1_555
H63 C75 1_555 1_555
H64 C75 1_555 1_555
C76 C55 1_555 1_555
H65 C76 1_555 1_555
C77 C55 1_555 1_555
H66 C77 1_555 1_555
H67 C77 1_555 1_555
C78 C53 1_555 1_555
H68 C78 1_555 1_555
H69 C78 1_555 1_555
H70 C78 1_555 1_555
C79 C66 1_555 1_555
H71 C79 1_555 1_555
H72 C79 1_555 1_555
H73 C79 1_555 1_555
C80 C77 1_555 1_555
H74 C80 1_555 1_555
H75 C80 1_555 1_555
H76 C80 1_555 1_555
C81 H77 1_555 1_555
C82 C81 1_555 1_555
C83 C82 1_555 1_555
H78 C83 1_555 1_555
C84 C83 1_555 1_555
H79 C84 1_555 1_555
C85 C81 1_555 1_555
H80 C85 1_555 1_555
C86 C84 1_555 1_555
H81 C86 1_555 1_555
C87 C82 1_555 1_555
H82 C87 1_555 1_555
H83 C87 1_555 1_555
H84 C87 1_555 1_555
Na2 O4 1_555 1_555
Na3 O3 1_555 1_555
Na3 O4 1_555 1_555
Na4 O2 1_555 1_555
Na4 O3 1_555 1_555
C1 C45 1_555 1_555
C2 C6 1_555 1_555
C3 C16 1_555 1_555
C4 C7 1_555 1_555
C5 C8 1_555 1_555
C13 C27 1_555 1_555
C14 C31 1_555 1_555
C14 C42 1_555 1_555
C19 C38 1_555 1_555
C21 C26 1_555 1_555
C25 C28 1_555 1_555
C30 C32 1_555 1_555
C34 C37 1_555 1_555
C36 C43 1_555 1_555
C40 C44 1_555 1_555
C47 C57 1_555 1_555
C47 C61 1_555 1_555
C52 C60 1_555 1_555
C58 C62 1_555 1_555
C63 C69 1_555 1_555
C70 C76 1_555 1_555
C71 C73 1_555 1_555
C85 C86 1_555 1_555

#END
