
#######################################################################
#
#                 Cambridge Crystallographic Data Centre
#                                CCDC 
#
#######################################################################
#
# If this CIF has been generated from an entry in the Cambridge 
# Structural Database, then it will include bibliographic, chemical, 
# crystal, experimental, refinement or atomic coordinate data resulting 
# from the CCDC's data processing and validation procedures.
#
#######################################################################

data_ERISOO
_chemical_formula_moiety         'C9 H8 N2 O2,0.33(H2 O1)'
_chemical_name_systematic        
'(3-Hydroxyimino-1-methylindolin-2-one) hydrate'
_symmetry_cell_setting           triclinic
_symmetry_space_group_name_H-M   'P -1'
_symmetry_Int_Tables_number      2
_space_group_name_Hall           '-P 1'
loop_
_symmetry_equiv_pos_site_id
_symmetry_equiv_pos_as_xyz
1 x,y,z
2 -x,-y,-z
_cell_length_a                   8.920(3)
_cell_length_b                   10.811(4)
_cell_length_c                   14.915(5)
_cell_angle_alpha                91.335(3)
_cell_angle_beta                 101.013(3)
_cell_angle_gamma                112.784(3)
_cell_volume                     1294.12
_exptl_crystal_colour            yellow
_exptl_crystal_description       block
_cell_formula_units_Z            6
loop_
_atom_site_label
_atom_site_type_symbol
_atom_site_fract_x
_atom_site_fract_y
_atom_site_fract_z
C1 C 1.0271(3) -0.0706(3) 0.09769(15)
H1 H 0.9774 -0.0060 0.0908
H2 H 0.9527 -0.1539 0.0614
H3 H 1.1302 -0.0366 0.0774
C2 C 1.1891(3) -0.2589(2) 0.18264(15)
H4 H 1.1852 -0.2568 0.1200
C3 C 1.2550(3) -0.3391(2) 0.23265(16)
H5 H 1.2959 -0.3919 0.2030
C4 C 1.2614(3) -0.3426(2) 0.32544(16)
H6 H 1.3074 -0.3967 0.3576
C5 C 1.1999(3) -0.2663(2) 0.37148(15)
H7 H 1.2032 -0.2694 0.4341
C6 C 1.0575(2) -0.0964(2) 0.34600(13)
C7 C 1.0105(3) -0.0384(2) 0.25993(14)
C8 C 1.1296(2) -0.18248(19) 0.22847(13)
C9 C 1.1338(2) -0.18576(19) 0.32271(13)
N1 N 1.0252(2) -0.05933(18) 0.41960(11)
N2 N 1.0588(2) -0.09364(18) 0.19319(11)
O1 O 1.0755(2) -0.11735(17) 0.49500(10)
H22 H 1.0526 -0.0908 0.5404
O2 O 0.9441(2) 0.04077(16) 0.25021(11)
C10 C 0.8968(3) 0.2792(3) 0.09247(17)
H8 H 0.8865 0.2812 0.0273
H9 H 0.8290 0.1906 0.1050
H10 H 1.0111 0.3012 0.1215
C11 C 0.7880(3) 0.4583(2) 0.07539(15)
C12 C 0.7441(3) 0.5409(2) 0.13851(16)
C13 C 0.7619(3) 0.5382(2) 0.31557(18)
H11 H 0.7203 0.6035 0.3235
C14 C 0.8102(3) 0.4762(3) 0.38937(18)
H12 H 0.8017 0.5010 0.4477
C15 C 0.8700(3) 0.3796(3) 0.37811(17)
H13 H 0.9010 0.3399 0.4291
C16 C 0.8857(3) 0.3390(2) 0.29342(15)
H14 H 0.9263 0.2730 0.2861
C17 C 0.7775(3) 0.5000(2) 0.22938(15)
C18 C 0.8386(2) 0.4006(2) 0.22021(14)
N3 N 0.6924(2) 0.6279(2) 0.10394(15)
N4 N 0.8424(2) 0.37665(18) 0.12804(12)
O3 O 0.6579(2) 0.69901(18) 0.16874(15)
H23 H 0.6297 0.7564 0.1448
O4 O 0.7795(2) 0.46187(18) -0.00736(11)
C19 C 0.5818(3) 0.0036(2) 0.3080(2)
H15 H 0.6085 -0.0336 0.2572
H16 H 0.5085 -0.0682 0.3355
H17 H 0.6822 0.0540 0.3528
C20 C 0.4430(3) 0.1584(3) 0.42273(17)
H18 H 0.4850 0.1037 0.4570
C21 C 0.3780(4) 0.2375(3) 0.4624(2)
H19 H 0.3765 0.2360 0.5245
C22 C 0.3155(4) 0.3182(3) 0.4117(2)
H20 H 0.2712 0.3696 0.4399
C23 C 0.3178(3) 0.3241(2) 0.31945(18)
H21 H 0.2765 0.3796 0.2856
C24 C 0.4038(3) 0.2266(2) 0.18659(15)
C25 C 0.4784(3) 0.1244(2) 0.18822(17)
C26 C 0.4435(3) 0.1635(2) 0.33104(15)
C27 C 0.3819(3) 0.2464(2) 0.27895(15)
N5 N 0.3804(2) 0.27722(18) 0.11122(13)
N6 N 0.5003(2) 0.09227(17) 0.27555(13)
O5 O 0.3164(2) 0.37245(16) 0.12083(12)
H24 H 0.3017 0.4030 0.0716
O6 O 0.5143(2) 0.07832(18) 0.12371(13)
O7 O 0.5777(4) 0.8629(2) 0.06685(15)
H25 H 0.5613 0.9341 0.0977
H26 H 0.5520 0.8683 0.0019
loop_
_geom_bond_atom_site_label_1
_geom_bond_atom_site_label_2
_geom_bond_site_symmetry_1
_geom_bond_site_symmetry_2
C1 H1 1_555 1_555
H2 C1 1_555 1_555
H3 C1 1_555 1_555
C2 H4 1_555 1_555
C3 C2 1_555 1_555
H5 C3 1_555 1_555
C4 C3 1_555 1_555
H6 C4 1_555 1_555
C5 C4 1_555 1_555
H7 C5 1_555 1_555
C6 C7 1_555 1_555
C7 N2 1_555 1_555
C8 C2 1_555 1_555
C9 C5 1_555 1_555
C10 H8 1_555 1_555
H9 C10 1_555 1_555
H10 C10 1_555 1_555
C11 C12 1_555 1_555
C12 C17 1_555 1_555
C13 H11 1_555 1_555
C14 C13 1_555 1_555
H12 C14 1_555 1_555
C15 C14 1_555 1_555
H13 C15 1_555 1_555
C16 C15 1_555 1_555
H14 C16 1_555 1_555
C17 C13 1_555 1_555
C18 C16 1_555 1_555
C19 H15 1_555 1_555
H16 C19 1_555 1_555
H17 C19 1_555 1_555
C20 H18 1_555 1_555
C21 C20 1_555 1_555
H19 C21 1_555 1_555
C22 C21 1_555 1_555
H20 C22 1_555 1_555
C23 C22 1_555 1_555
H21 C23 1_555 1_555
C24 C25 1_555 1_555
C25 N6 1_555 1_555
C26 C20 1_555 1_555
C27 C23 1_555 1_555
N1 C6 1_555 1_555
N2 C1 1_555 1_555
N3 C12 1_555 1_555
N4 C10 1_555 1_555
N5 C24 1_555 1_555
N6 C19 1_555 1_555
O1 N1 1_555 1_555
H22 O1 1_555 1_555
O2 C7 1_555 1_555
O3 N3 1_555 1_555
H23 O3 1_555 1_555
O4 C11 1_555 1_555
O5 N5 1_555 1_555
H24 O5 1_555 1_555
O6 C25 1_555 1_555
O7 H25 1_555 1_555
H26 O7 1_555 1_555
C6 C9 1_555 1_555
C8 C9 1_555 1_555
C8 N2 1_555 1_555
C11 N4 1_555 1_555
C17 C18 1_555 1_555
C18 N4 1_555 1_555
C24 C27 1_555 1_555
C26 C27 1_555 1_555
C26 N6 1_555 1_555

#END
