
#######################################################################
#
#                 Cambridge Crystallographic Data Centre
#                                CCDC 
#
#######################################################################
#
# If this CIF has been generated from an entry in the Cambridge 
# Structural Database, then it will include bibliographic, chemical, 
# crystal, experimental, refinement or atomic coordinate data resulting 
# from the CCDC's data processing and validation procedures.
#
#######################################################################

data_ERISAA
_chemical_formula_moiety         'C30 H22 O7'
_chemical_name_systematic        
3,4-bis(4-(4-methoxyphenoxy)phenyl)-2,5-dihydrofuran-2,5-dione
_symmetry_cell_setting           orthorhombic
_symmetry_space_group_name_H-M   'P b c n'
_symmetry_Int_Tables_number      60
_space_group_name_Hall           '-P 2n 2ab'
loop_
_symmetry_equiv_pos_site_id
_symmetry_equiv_pos_as_xyz
1 x,y,z
2 1/2-x,1/2-y,1/2+z
3 1/2+x,1/2-y,-z
4 -x,y,1/2-z
5 -x,-y,-z
6 1/2+x,1/2+y,1/2-z
7 1/2-x,1/2+y,z
8 x,-y,1/2+z
_cell_length_a                   16.981(5)
_cell_length_b                   15.291(5)
_cell_length_c                   18.665(5)
_cell_angle_alpha                90
_cell_angle_beta                 90
_cell_angle_gamma                90
_cell_volume                     4846.49
_exptl_crystal_colour            yellow
_exptl_crystal_description       block
_cell_formula_units_Z            8
loop_
_atom_site_label
_atom_site_type_symbol
_atom_site_fract_x
_atom_site_fract_y
_atom_site_fract_z
C1 C 0.10558(15) 0.4872(2) 0.51111(18)
H1 H 0.1019 0.4253 0.5193
H2 H 0.0635 0.5054 0.4801
H3 H 0.1016 0.5176 0.5560
C2 C 0.24659(15) 0.49232(17) 0.51718(14)
C3 C 0.24878(16) 0.45835(19) 0.58530(16)
H4 H 0.2023 0.4422 0.6080
C4 C 0.32052(17) 0.44811(19) 0.62036(16)
H5 H 0.3221 0.4260 0.6668
C5 C 0.31599(14) 0.51489(18) 0.48274(15)
H6 H 0.3145 0.5374 0.4365
C6 C 0.38727(15) 0.50396(18) 0.51708(16)
H7 H 0.4339 0.5188 0.4939
C7 C 0.38916(15) 0.47097(17) 0.58578(16)
C8 C 0.49774(15) 0.38500(17) 0.62627(14)
C9 C 0.47156(15) 0.31190(18) 0.59006(15)
H8 H 0.4278 0.3154 0.5602
C10 C 0.51081(14) 0.23335(17) 0.59853(14)
H9 H 0.4924 0.1840 0.5747
C11 C 0.56429(15) 0.37990(17) 0.66916(14)
H10 H 0.5822 0.4294 0.6931
C12 C 0.60384(15) 0.30188(17) 0.67634(14)
H11 H 0.6489 0.2993 0.7046
C13 C 0.57726(14) 0.22642(16) 0.64184(13)
C14 C 0.61543(14) 0.14103(16) 0.65403(13)
C15 C 0.56624(16) 0.06282(18) 0.66906(14)
C16 C 0.69217(15) 0.11614(16) 0.65787(13)
C17 C 0.69275(17) 0.02296(18) 0.68064(14)
C18 C 0.76504(14) 0.16345(16) 0.64095(13)
C19 C 0.76455(15) 0.23214(19) 0.59134(15)
H12 H 0.7175 0.2476 0.5693
C20 C 0.83223(15) 0.27741(19) 0.57450(16)
H13 H 0.8305 0.3229 0.5415
C21 C 0.83686(15) 0.14187(18) 0.67179(15)
H14 H 0.8391 0.0961 0.7045
C22 C 0.90562(15) 0.18697(18) 0.65504(15)
H15 H 0.9531 0.1712 0.6763
C23 C 0.90295(15) 0.25499(17) 0.60682(15)
C24 C 1.04147(15) 0.28383(19) 0.61559(16)
C25 C 1.08571(16) 0.2206(2) 0.58285(17)
H16 H 1.0652 0.1894 0.5444
C26 C 1.16158(16) 0.20305(19) 0.60732(15)
H17 H 1.1917 0.1597 0.5855
C27 C 1.07113(17) 0.33074(19) 0.67234(16)
H18 H 1.0408 0.3739 0.6940
C28 C 1.14612(17) 0.31356(18) 0.69705(15)
H19 H 1.1660 0.3445 0.7359
C29 C 1.19195(15) 0.25009(17) 0.66392(14)
C30 C 1.31494(17) 0.1746(2) 0.65874(17)
H20 H 1.2911 0.1181 0.6644
H21 H 1.3657 0.1747 0.6814
H22 H 1.3209 0.1873 0.6087
O1 O 0.17880(9) 0.50672(13) 0.47858(10)
O2 O 0.46165(10) 0.46629(12) 0.62226(11)
O3 O 0.49621(12) 0.05362(13) 0.66781(11)
O4 O 0.61543(11) -0.00682(12) 0.68610(10)
O5 O 0.74626(11) -0.02544(13) 0.69449(11)
O6 O 0.96703(10) 0.30546(13) 0.58722(12)
O7 O 1.26653(10) 0.23887(13) 0.69087(10)
loop_
_geom_bond_atom_site_label_1
_geom_bond_atom_site_label_2
_geom_bond_site_symmetry_1
_geom_bond_site_symmetry_2
C1 H1 1_555 1_555
H2 C1 1_555 1_555
H3 C1 1_555 1_555
C2 C3 1_555 1_555
C3 H4 1_555 1_555
C4 C3 1_555 1_555
H5 C4 1_555 1_555
C5 C2 1_555 1_555
H6 C5 1_555 1_555
C6 C5 1_555 1_555
H7 C6 1_555 1_555
C7 C4 1_555 1_555
C8 C9 1_555 1_555
C9 H8 1_555 1_555
C10 C9 1_555 1_555
H9 C10 1_555 1_555
C11 C8 1_555 1_555
H10 C11 1_555 1_555
C12 C11 1_555 1_555
H11 C12 1_555 1_555
C13 C10 1_555 1_555
C14 C13 1_555 1_555
C15 C14 1_555 1_555
C16 C14 1_555 1_555
C17 C16 1_555 1_555
C18 C16 1_555 1_555
C19 C18 1_555 1_555
H12 C19 1_555 1_555
C20 C19 1_555 1_555
H13 C20 1_555 1_555
C21 C18 1_555 1_555
H14 C21 1_555 1_555
C22 C21 1_555 1_555
H15 C22 1_555 1_555
C23 C20 1_555 1_555
C24 C25 1_555 1_555
C25 H16 1_555 1_555
C26 C25 1_555 1_555
H17 C26 1_555 1_555
C27 C24 1_555 1_555
H18 C27 1_555 1_555
C28 C27 1_555 1_555
H19 C28 1_555 1_555
C29 C26 1_555 1_555
C30 H20 1_555 1_555
H21 C30 1_555 1_555
H22 C30 1_555 1_555
O1 C1 1_555 1_555
O2 C7 1_555 1_555
O3 C15 1_555 1_555
O4 C15 1_555 1_555
O5 C17 1_555 1_555
O6 C23 1_555 1_555
O7 C29 1_555 1_555
C2 O1 1_555 1_555
C6 C7 1_555 1_555
C8 O2 1_555 1_555
C12 C13 1_555 1_555
C17 O4 1_555 1_555
C22 C23 1_555 1_555
C24 O6 1_555 1_555
C28 C29 1_555 1_555
C30 O7 1_555 1_555

#END
