
#######################################################################
#
#                 Cambridge Crystallographic Data Centre
#                                CCDC 
#
#######################################################################
#
# If this CIF has been generated from an entry in the Cambridge 
# Structural Database, then it will include bibliographic, chemical, 
# crystal, experimental, refinement or atomic coordinate data resulting 
# from the CCDC's data processing and validation procedures.
#
#######################################################################

data_ERISEE
_chemical_formula_moiety         'C14 H24 N1 O1 1+,Cl1 1-'
_chemical_name_systematic        
'(S,E)-N-Methyl-4-[(S)2,6,6-trimethyl-4-oxocyclohex-2-enyl]but-3-en-2-aminium chloride'
_symmetry_cell_setting           monoclinic
_symmetry_space_group_name_H-M   'P 21'
_symmetry_Int_Tables_number      4
_space_group_name_Hall           'P 2yb'
loop_
_symmetry_equiv_pos_site_id
_symmetry_equiv_pos_as_xyz
1 x,y,z
2 -x,1/2+y,-z
_cell_length_a                   14.547(3)
_cell_length_b                   12.247(2)
_cell_length_c                   19.035(4)
_cell_angle_alpha                90
_cell_angle_beta                 112.46(3)
_cell_angle_gamma                90
_cell_volume                     3133.98
_exptl_crystal_colour            colorless
_exptl_crystal_description       block
_cell_formula_units_Z            8
loop_
_atom_site_label
_atom_site_type_symbol
_atom_site_fract_x
_atom_site_fract_y
_atom_site_fract_z
Cl1 Cl 0.60208(7) 0.40656(9) 0.85070(5)
Cl2 Cl 0.75173(7) 0.36146(9) 0.65009(5)
Cl3 Cl 0.10038(7) 0.36764(9) 0.84472(5)
Cl4 Cl 0.25369(7) 0.31672(9) 0.65341(6)
N1 N 0.3768(2) 0.3827(3) -0.18164(19)
H1 H 0.4425(16) 0.392(3) -0.176(2)
H2 H 0.352(2) 0.355(3) -0.2308(13)
O1 O 0.1485(2) 0.2664(3) 0.13065(18)
C1 C 0.4766(3) 0.1922(3) 0.1329(2)
H9 H 0.4704 0.1260 0.1598
H10 H 0.5352 0.2336 0.1650
H11 H 0.4837 0.1718 0.0855
C2 C 0.3856(3) 0.2610(3) 0.1153(2)
C3 C 0.3091(3) 0.2310(4) 0.1332(2)
H12 H 0.3130 0.1635 0.1588
C4 C 0.2191(3) 0.2975(4) 0.1151(2)
C5 C 0.2141(3) 0.4036(3) 0.0735(2)
H13 H 0.1752 0.4568 0.0899
H14 H 0.1778 0.3908 0.0184
C6 C 0.3160(3) 0.4543(3) 0.0858(2)
C7 C 0.3836(3) 0.3657(4) 0.0718(2)
H15 H 0.4529 0.3950 0.0889
C8 C 0.3653(3) 0.4953(4) 0.1683(2)
H16 H 0.3754 0.4336 0.2033
H17 H 0.3222 0.5496 0.1782
H18 H 0.4297 0.5286 0.1760
C9 C 0.3024(3) 0.5500(3) 0.0317(2)
H19 H 0.2632 0.6071 0.0434
H20 H 0.2675 0.5251 -0.0207
H21 H 0.3676 0.5793 0.0377
C10 C 0.3498(3) 0.3350(3) -0.0105(2)
H22 H 0.2809 0.3207 -0.0366
C11 C 0.4069(3) 0.3259(3) -0.0505(2)
H23 H 0.4756 0.3429 -0.0264
C12 C 0.3682(3) 0.2903(3) -0.1310(2)
H24 H 0.2963 0.2715 -0.1465
C13 C 0.4215(3) 0.1921(4) -0.1461(2)
H25 H 0.4920 0.2095 -0.1320
H26 H 0.3918 0.1734 -0.2002
H27 H 0.4150 0.1300 -0.1159
C14 C 0.3322(3) 0.4880(4) -0.1721(3)
H28 H 0.3730 0.5202 -0.1229
H29 H 0.2648 0.4751 -0.1740
H30 H 0.3294 0.5381 -0.2130
N2 N 0.5596(3) 0.3447(3) 0.68389(19)
H3 H 0.615(2) 0.356(3) 0.671(2)
H4 H 0.572(3) 0.359(3) 0.7333(12)
O2 O 0.0107(2) 0.3327(3) 0.3666(2)
C15 C 0.2916(3) 0.5499(3) 0.3735(2)
H31 H 0.3446 0.5748 0.4205
H32 H 0.2413 0.6074 0.3541
H33 H 0.3199 0.5335 0.3355
C16 C 0.2445(3) 0.4494(3) 0.3893(2)
C17 C 0.1473(3) 0.4395(4) 0.3716(2)
H34 H 0.1057 0.4996 0.3480
C18 C 0.1012(3) 0.3409(4) 0.3864(3)
C19 C 0.1689(3) 0.2496(3) 0.4276(2)
H35 H 0.1330 0.1795 0.4117
H36 H 0.1856 0.2581 0.4828
C20 C 0.2662(3) 0.2444(3) 0.4133(2)
C21 C 0.3162(3) 0.3575(4) 0.4300(2)
H37 H 0.3718 0.3574 0.4113
C22 C 0.2423(3) 0.2147(4) 0.3300(2)
H38 H 0.1941 0.2669 0.2969
H39 H 0.2142 0.1409 0.3200
H40 H 0.3035 0.2172 0.3198
C23 C 0.3339(3) 0.1579(3) 0.4649(2)
H41 H 0.3059 0.0853 0.4479
H42 H 0.3393 0.1699 0.5173
H43 H 0.4000 0.1629 0.4628
C24 C 0.3593(3) 0.3841(3) 0.5135(2)
H44 H 0.3143 0.3850 0.5388
C25 C 0.4529(3) 0.4062(3) 0.5550(2)
H45 H 0.4998 0.4066 0.5313
C26 C 0.4881(3) 0.4308(3) 0.6381(2)
H46 H 0.4291 0.4307 0.6529
C27 C 0.5398(3) 0.5411(3) 0.6596(2)
H47 H 0.4941 0.5991 0.6317
H48 H 0.5989 0.5421 0.6467
H49 H 0.5598 0.5530 0.7144
C28 C 0.5207(3) 0.2325(3) 0.6718(3)
H50 H 0.5089 0.2095 0.6198
H51 H 0.4580 0.2297 0.6798
H52 H 0.5691 0.1833 0.7079
N3 N 0.8777(2) 0.3890(3) -0.17864(18)
H5 H 0.9452(15) 0.386(3) -0.169(2)
H6 H 0.847(2) 0.378(3) -0.2302(11)
O3 O 0.6463(3) 0.3929(3) 0.1392(2)
C29 C 0.9222(3) 0.1765(4) 0.1326(3)
H53 H 0.8918 0.1190 0.1523
H54 H 0.9880 0.1945 0.1707
H55 H 0.9290 0.1509 0.0860
C30 C 0.8585(3) 0.2750(3) 0.1154(2)
C31 C 0.7785(3) 0.2854(4) 0.1344(2)
H56 H 0.7606 0.2254 0.1582
C32 C 0.7182(3) 0.3840(4) 0.1200(3)
C33 C 0.7455(3) 0.4763(3) 0.0787(2)
H57 H 0.7268 0.5464 0.0956
H58 H 0.7059 0.4689 0.0236
C34 C 0.8556(3) 0.4805(3) 0.0915(2)
C35 C 0.8889(3) 0.3661(4) 0.0745(2)
H59 H 0.9631 0.3660 0.0925
C36 C 0.9168(3) 0.5104(4) 0.1747(2)
H60 H 0.9871 0.5171 0.1824
H61 H 0.9092 0.4532 0.2081
H62 H 0.8931 0.5801 0.1868
C37 C 0.8720(3) 0.5684(3) 0.0399(2)
H63 H 0.9404 0.5639 0.0423
H64 H 0.8605 0.6407 0.0570
H65 H 0.8255 0.5566 -0.0126
C38 C 0.8472(3) 0.3421(3) -0.0090(2)
H66 H 0.7768 0.3428 -0.0339
C39 C 0.8991(3) 0.3197(3) -0.0518(2)
H67 H 0.9696 0.3167 -0.0282
C40 C 0.8508(3) 0.2994(4) -0.1352(2)
H68 H 0.7771 0.3003 -0.1498
C41 C 0.8787(3) 0.1929(3) -0.1608(2)
H69 H 0.8606 0.1326 -0.1348
H70 H 0.9506 0.1915 -0.1484
H71 H 0.8432 0.1852 -0.2158
C42 C 0.8539(3) 0.5010(3) -0.1619(3)
H72 H 0.8986 0.5216 -0.1104
H73 H 0.7849 0.5037 -0.1656
H74 H 0.8624 0.5520 -0.1987
N4 N 1.0515(3) 0.3390(3) 0.6733(2)
H7 H 1.102(3) 0.329(3) 0.662(2)
H8 H 1.064(3) 0.355(3) 0.726(2)
O4 O 0.5144(2) 0.4635(3) 0.36417(18)
C43 C 0.8362(3) 0.5329(4) 0.3550(3)
H75 H 0.8966 0.5460 0.4002
H76 H 0.8053 0.6030 0.3340
H77 H 0.8534 0.4937 0.3168
C44 C 0.7644(3) 0.4655(3) 0.3766(2)
C45 C 0.6707(3) 0.4961(4) 0.3592(2)
H78 H 0.6487 0.5624 0.3321
C46 C 0.5998(3) 0.4324(4) 0.3800(2)
C47 C 0.6372(3) 0.3269(3) 0.4227(2)
H79 H 0.5819 0.2735 0.4071
H80 H 0.6566 0.3409 0.4777
C48 C 0.7266(3) 0.2755(3) 0.4099(2)
C49 C 0.8074(3) 0.3643(4) 0.4227(2)
H81 H 0.8594 0.3341 0.4057
C50 C 0.6942(3) 0.2327(4) 0.3283(2)
H82 H 0.6652 0.2925 0.2925
H83 H 0.6447 0.1748 0.3200
H84 H 0.7522 0.2034 0.3203
C51 C 0.7669(3) 0.1809(3) 0.4647(2)
H85 H 0.7173 0.1224 0.4520
H86 H 0.7816 0.2060 0.5168
H87 H 0.8280 0.1534 0.4607
C52 C 0.8574(3) 0.3972(3) 0.5053(2)
H88 H 0.8153 0.4150 0.5314
C53 C 0.9535(3) 0.4034(3) 0.5440(2)
H89 H 0.9977 0.3878 0.5193
C54 C 0.9954(3) 0.4344(4) 0.6264(2)
H90 H 0.9389 0.4526 0.6421
C55 C 1.0666(3) 0.5323(3) 0.6449(3)
H91 H 1.0318 0.5958 0.6152
H92 H 1.1239 0.5145 0.6320
H93 H 1.0894 0.5492 0.6992
C56 C 0.9936(3) 0.2359(4) 0.6599(3)
H94 H 0.9828 0.2078 0.6092
H95 H 0.9292 0.2500 0.6635
H96 H 1.0305 0.1818 0.6983
loop_
_geom_bond_atom_site_label_1
_geom_bond_atom_site_label_2
_geom_bond_site_symmetry_1
_geom_bond_site_symmetry_2
N1 H1 1_555 1_555
H2 N1 1_555 1_555
N2 H3 1_555 1_555
H4 N2 1_555 1_555
N3 H5 1_555 1_555
H6 N3 1_555 1_555
N4 H7 1_555 1_555
H8 N4 1_555 1_555
O1 C4 1_555 1_555
O2 C18 1_555 1_555
O3 C32 1_555 1_555
O4 C46 1_555 1_555
C1 H9 1_555 1_555
H10 C1 1_555 1_555
H11 C1 1_555 1_555
C2 C1 1_555 1_555
C3 C2 1_555 1_555
H12 C3 1_555 1_555
C4 C3 1_555 1_555
C5 C4 1_555 1_555
H13 C5 1_555 1_555
H14 C5 1_555 1_555
C6 C5 1_555 1_555
C7 C2 1_555 1_555
H15 C7 1_555 1_555
C8 C6 1_555 1_555
H16 C8 1_555 1_555
H17 C8 1_555 1_555
H18 C8 1_555 1_555
C9 C6 1_555 1_555
H19 C9 1_555 1_555
H20 C9 1_555 1_555
H21 C9 1_555 1_555
C10 C7 1_555 1_555
H22 C10 1_555 1_555
C11 C10 1_555 1_555
H23 C11 1_555 1_555
C12 N1 1_555 1_555
H24 C12 1_555 1_555
C13 C12 1_555 1_555
H25 C13 1_555 1_555
H26 C13 1_555 1_555
H27 C13 1_555 1_555
C14 N1 1_555 1_555
H28 C14 1_555 1_555
H29 C14 1_555 1_555
H30 C14 1_555 1_555
C15 H31 1_555 1_555
H32 C15 1_555 1_555
H33 C15 1_555 1_555
C16 C15 1_555 1_555
C17 C16 1_555 1_555
H34 C17 1_555 1_555
C18 C17 1_555 1_555
C19 C18 1_555 1_555
H35 C19 1_555 1_555
H36 C19 1_555 1_555
C20 C19 1_555 1_555
C21 C16 1_555 1_555
H37 C21 1_555 1_555
C22 C20 1_555 1_555
H38 C22 1_555 1_555
H39 C22 1_555 1_555
H40 C22 1_555 1_555
C23 C20 1_555 1_555
H41 C23 1_555 1_555
H42 C23 1_555 1_555
H43 C23 1_555 1_555
C24 C21 1_555 1_555
H44 C24 1_555 1_555
C25 C24 1_555 1_555
H45 C25 1_555 1_555
C26 N2 1_555 1_555
H46 C26 1_555 1_555
C27 C26 1_555 1_555
H47 C27 1_555 1_555
H48 C27 1_555 1_555
H49 C27 1_555 1_555
C28 N2 1_555 1_555
H50 C28 1_555 1_555
H51 C28 1_555 1_555
H52 C28 1_555 1_555
C29 H53 1_555 1_555
H54 C29 1_555 1_555
H55 C29 1_555 1_555
C30 C29 1_555 1_555
C31 C30 1_555 1_555
H56 C31 1_555 1_555
C32 C31 1_555 1_555
C33 C32 1_555 1_555
H57 C33 1_555 1_555
H58 C33 1_555 1_555
C34 C33 1_555 1_555
C35 C30 1_555 1_555
H59 C35 1_555 1_555
C36 C34 1_555 1_555
H60 C36 1_555 1_555
H61 C36 1_555 1_555
H62 C36 1_555 1_555
C37 C34 1_555 1_555
H63 C37 1_555 1_555
H64 C37 1_555 1_555
H65 C37 1_555 1_555
C38 C35 1_555 1_555
H66 C38 1_555 1_555
C39 C38 1_555 1_555
H67 C39 1_555 1_555
C40 N3 1_555 1_555
H68 C40 1_555 1_555
C41 C40 1_555 1_555
H69 C41 1_555 1_555
H70 C41 1_555 1_555
H71 C41 1_555 1_555
C42 N3 1_555 1_555
H72 C42 1_555 1_555
H73 C42 1_555 1_555
H74 C42 1_555 1_555
C43 H75 1_555 1_555
H76 C43 1_555 1_555
H77 C43 1_555 1_555
C44 C43 1_555 1_555
C45 C44 1_555 1_555
H78 C45 1_555 1_555
C46 C45 1_555 1_555
C47 C46 1_555 1_555
H79 C47 1_555 1_555
H80 C47 1_555 1_555
C48 C47 1_555 1_555
C49 C44 1_555 1_555
H81 C49 1_555 1_555
C50 C48 1_555 1_555
H82 C50 1_555 1_555
H83 C50 1_555 1_555
H84 C50 1_555 1_555
C51 C48 1_555 1_555
H85 C51 1_555 1_555
H86 C51 1_555 1_555
H87 C51 1_555 1_555
C52 C49 1_555 1_555
H88 C52 1_555 1_555
C53 C52 1_555 1_555
H89 C53 1_555 1_555
C54 N4 1_555 1_555
H90 C54 1_555 1_555
C55 C54 1_555 1_555
H91 C55 1_555 1_555
H92 C55 1_555 1_555
H93 C55 1_555 1_555
C56 N4 1_555 1_555
H94 C56 1_555 1_555
H95 C56 1_555 1_555
H96 C56 1_555 1_555
C6 C7 1_555 1_555
C11 C12 1_555 1_555
C20 C21 1_555 1_555
C25 C26 1_555 1_555
C34 C35 1_555 1_555
C39 C40 1_555 1_555
C48 C49 1_555 1_555
C53 C54 1_555 1_555

#END
