
#######################################################################
#
#                 Cambridge Crystallographic Data Centre
#                                CCDC 
#
#######################################################################
#
# If this CIF has been generated from an entry in the Cambridge 
# Structural Database, then it will include bibliographic, chemical, 
# crystal, experimental, refinement or atomic coordinate data resulting 
# from the CCDC's data processing and validation procedures.
#
#######################################################################

data_ERIWAD
_chemical_formula_moiety         'C18 H15 N1 O3'
_chemical_name_systematic        
1-Benzyl-3-(\a-hydroxybenzylidene)pyrrolidine-2,4-dione
_chemical_properties_biological  'potent herbicide'
_symmetry_cell_setting           orthorhombic
_symmetry_space_group_name_H-M   'P 21 21 21'
_symmetry_Int_Tables_number      19
_space_group_name_Hall           'P 2ac 2ab'
loop_
_symmetry_equiv_pos_site_id
_symmetry_equiv_pos_as_xyz
1 x,y,z
2 1/2-x,-y,1/2+z
3 -x,1/2+y,1/2-z
4 1/2+x,1/2-y,-z
_cell_length_a                   5.569(3)
_cell_length_b                   15.062(7)
_cell_length_c                   18.245(9)
_cell_angle_alpha                90
_cell_angle_beta                 90
_cell_angle_gamma                90
_cell_volume                     1530.4
_exptl_crystal_colour            colorless
_exptl_crystal_description       prism
_cell_formula_units_Z            4
_exptl_crystal_recrystallization_method 'petroleum ether/ethyl acetate'
loop_
_atom_site_label
_atom_site_type_symbol
_atom_site_fract_x
_atom_site_fract_y
_atom_site_fract_z
N1 N 0.4162(5) 0.93032(19) 0.50795(15)
O1 O 0.0652(6) 0.8564(2) 0.69333(15)
H1 H 0.0445 0.8981 0.6650
O2 O 0.1031(5) 0.96084(19) 0.58696(14)
O3 O 0.6987(5) 0.7356(2) 0.57159(17)
C1 C 0.2485(7) 0.8076(3) 0.67039(19)
C2 C 0.2854(7) 0.7274(3) 0.71659(19)
C3 C 0.1150(8) 0.7062(3) 0.7693(2)
H2 H -0.0187 0.7425 0.7749
C4 C 0.1397(10) 0.6317(4) 0.8139(3)
H3 H 0.0225 0.6187 0.8486
C5 C 0.3339(10) 0.5779(4) 0.8070(3)
H4 H 0.3480 0.5276 0.8362
C6 C 0.5088(11) 0.5978(4) 0.7572(3)
H5 H 0.6438 0.5617 0.7534
C7 C 0.4859(9) 0.6726(3) 0.7114(2)
H6 H 0.6056 0.6855 0.6775
C8 C 0.3718(6) 0.8355(2) 0.60767(18)
C9 C 0.2828(6) 0.9146(3) 0.5680(2)
C10 C 0.6063(7) 0.8650(3) 0.4991(2)
H7 H 0.7630 0.8931 0.5009
H8 H 0.5902 0.8339 0.4528
C11 C 0.5726(7) 0.8011(3) 0.5638(2)
C12 C 0.3516(7) 0.9935(3) 0.4494(2)
H9 H 0.2121 1.0274 0.4646
H10 H 0.3085 0.9606 0.4056
C13 C 0.5537(7) 1.0570(2) 0.4312(2)
C14 C 0.6461(9) 1.1135(3) 0.4836(2)
H11 H 0.5838 1.1123 0.5309
C15 C 0.8302(9) 1.1720(3) 0.4669(3)
H12 H 0.8895 1.2098 0.5029
C16 C 0.9255(9) 1.1746(3) 0.3977(3)
H13 H 1.0484 1.2141 0.3866
C17 C 0.8380(10) 1.1183(4) 0.3452(3)
H14 H 0.9020 1.1196 0.2981
C18 C 0.6546(9) 1.0595(4) 0.3618(2)
H15 H 0.5983 1.0211 0.3257
loop_
_geom_bond_atom_site_label_1
_geom_bond_atom_site_label_2
_geom_bond_site_symmetry_1
_geom_bond_site_symmetry_2
N1 C9 1_555 1_555
O1 H1 1_555 1_555
O2 C9 1_555 1_555
O3 C11 1_555 1_555
C1 O1 1_555 1_555
C2 C1 1_555 1_555
C3 C2 1_555 1_555
H2 C3 1_555 1_555
C4 C3 1_555 1_555
H3 C4 1_555 1_555
C5 C4 1_555 1_555
H4 C5 1_555 1_555
C6 C5 1_555 1_555
H5 C6 1_555 1_555
C7 C2 1_555 1_555
H6 C7 1_555 1_555
C8 C1 1_555 1_555
C9 C8 1_555 1_555
C10 N1 1_555 1_555
H7 C10 1_555 1_555
H8 C10 1_555 1_555
C11 C8 1_555 1_555
C12 N1 1_555 1_555
H9 C12 1_555 1_555
H10 C12 1_555 1_555
C13 C12 1_555 1_555
C14 C13 1_555 1_555
H11 C14 1_555 1_555
C15 C14 1_555 1_555
H12 C15 1_555 1_555
C16 C15 1_555 1_555
H13 C16 1_555 1_555
C17 C16 1_555 1_555
H14 C17 1_555 1_555
C18 C13 1_555 1_555
H15 C18 1_555 1_555
C6 C7 1_555 1_555
C10 C11 1_555 1_555
C17 C18 1_555 1_555

#END
