
#######################################################################
#
#                 Cambridge Crystallographic Data Centre
#                                CCDC 
#
#######################################################################
#
# If this CIF has been generated from an entry in the Cambridge 
# Structural Database, then it will include bibliographic, chemical, 
# crystal, experimental, refinement or atomic coordinate data resulting 
# from the CCDC's data processing and validation procedures.
#
#######################################################################

data_EROBIY
_chemical_formula_moiety         'C28 H25 Cl1 F4 N2 O5'
_chemical_name_systematic        
"diethyl 2,2'-(5-(4-chlorophenyl)-2,6-dimethyl-1-oxo-1,2,3,6-tetrahydroazepino[4,3-b]indole-4,8-diyl)bis(difluoroacetate)"
_symmetry_cell_setting           monoclinic
_symmetry_space_group_name_H-M   'P 21/c'
_symmetry_Int_Tables_number      14
_space_group_name_Hall           '-P 2ybc'
loop_
_symmetry_equiv_pos_site_id
_symmetry_equiv_pos_as_xyz
1 x,y,z
2 -x,1/2+y,1/2-z
3 -x,-y,-z
4 x,1/2-y,1/2+z
_cell_length_a                   12.8985(11)
_cell_length_b                   14.8772(11)
_cell_length_c                   27.961(3)
_cell_angle_alpha                90
_cell_angle_beta                 97.992(8)
_cell_angle_gamma                90
_cell_volume                     5313.42
_exptl_crystal_colour            'light yellow'
_exptl_crystal_description       block
_chemical_melting_point          '158-160 deg.C'
_cell_formula_units_Z            8
loop_
_atom_site_label
_atom_site_type_symbol
_atom_site_fract_x
_atom_site_fract_y
_atom_site_fract_z
Cl1 Cl 0.88564(13) 0.78642(11) 0.18180(6)
F1 F 1.0124(2) 1.1042(2) 0.35010(10)
F2 F 0.8922(3) 1.2025(2) 0.35919(13)
F3 F 0.5985(2) 0.55836(18) 0.47972(12)
F4 F 0.5340(2) 0.6267(2) 0.53802(12)
O1 O 0.7665(3) 1.1173(3) 0.28025(15)
O2 O 0.9321(3) 1.1152(2) 0.26356(13)
O3 O 0.5728(3) 1.0712(2) 0.43776(13)
O4 O 0.4231(3) 0.5669(2) 0.42481(14)
O5 O 0.3500(3) 0.6442(2) 0.48068(16)
N1 N 0.7609(3) 0.8272(2) 0.40200(14)
N2 N 0.7377(3) 1.1151(3) 0.43024(15)
C1 C 0.7561(4) 0.8900(3) 0.28956(19)
H1 H 0.6891 0.8951 0.2980
C2 C 0.7694(4) 0.8478(4) 0.24754(19)
H2 H 0.7120 0.8250 0.2273
C3 C 0.8689(4) 0.8395(3) 0.23537(19)
C4 C 0.9551(4) 0.8716(3) 0.2648(2)
H3 H 1.0219 0.8646 0.2564
C5 C 0.9402(4) 0.9150(3) 0.30746(19)
H4 H 0.9977 0.9371 0.3278
C6 C 0.8405(4) 0.9256(3) 0.32008(18)
C7 C 0.8251(4) 0.9686(3) 0.36644(17)
C8 C 0.8589(4) 1.0538(3) 0.37883(18)
C9 C 0.8456(4) 1.0896(3) 0.42785(18)
H5 H 0.8669 1.0440 0.4520
H6 H 0.8906 1.1415 0.4351
C10 C 0.6640(4) 1.0518(3) 0.43240(17)
C11 C 0.6949(3) 0.9572(3) 0.42755(16)
C12 C 0.7648(3) 0.9213(3) 0.39948(17)
C13 C 0.7101(5) 1.2103(3) 0.4317(2)
H7 H 0.6424 1.2198 0.4134
H8 H 0.7613 1.2455 0.4182
H9 H 0.7086 1.2282 0.4646
C14 C 0.9070(4) 1.1143(3) 0.3457(2)
C15 C 0.8583(4) 1.1139(3) 0.2918(2)
C16 C 0.8951(5) 1.1180(4) 0.2120(2)
H10 H 0.8481 1.1685 0.2047
H11 H 0.8573 1.0633 0.2021
C17 C 0.9855(6) 1.1272(5) 0.1862(2)
H12 H 0.9621 1.1306 0.1521
H13 H 1.0306 1.0760 0.1928
H14 H 1.0232 1.1809 0.1966
C18 C 0.8334(4) 0.7642(3) 0.38529(19)
H15 H 0.8040 0.7408 0.3544
H16 H 0.8463 0.7157 0.4080
H17 H 0.8981 0.7943 0.3824
C19 C 0.6875(3) 0.8047(3) 0.43143(17)
C20 C 0.6450(3) 0.8832(3) 0.44846(17)
C21 C 0.5723(4) 0.8783(3) 0.48002(18)
H18 H 0.5456 0.9302 0.4923
C22 C 0.5402(4) 0.7948(3) 0.49296(18)
H19 H 0.4908 0.7905 0.5141
C23 C 0.5803(4) 0.7162(3) 0.47512(18)
C24 C 0.6546(3) 0.7192(3) 0.44420(18)
H20 H 0.6817 0.6670 0.4324
C25 C 0.5369(4) 0.6289(3) 0.4887(2)
C26 C 0.4252(4) 0.6142(3) 0.4659(2)
C27 C 0.3178(4) 0.5441(4) 0.4004(2)
H21 H 0.2811 0.5979 0.3880
H22 H 0.2774 0.5151 0.4228
C28 C 0.3328(5) 0.4819(4) 0.3602(2)
H23 H 0.3677 0.5132 0.3369
H24 H 0.2658 0.4611 0.3449
H25 H 0.3745 0.4316 0.3727
Cl2 Cl 0.42732(15) 0.15070(13) 0.18582(6)
F5 F 0.3672(3) -0.2453(2) 0.36766(12)
F6 F 0.4907(2) -0.1549(2) 0.35371(11)
F7 F 0.1790(2) 0.4398(2) 0.48642(13)
F8 F 0.0365(3) 0.3970(2) 0.51444(12)
O6 O 0.2374(3) -0.1613(3) 0.29036(15)
O7 O 0.3982(3) -0.1605(2) 0.26849(13)
O8 O 0.0519(3) -0.0601(2) 0.43844(13)
O9 O 0.0651(3) 0.4753(3) 0.40324(17)
O10 O -0.0711(3) 0.3995(3) 0.42712(17)
N3 N 0.2876(3) 0.1472(3) 0.40333(15)
N4 N 0.2045(3) -0.1309(3) 0.43227(15)
C29 C 0.4568(4) 0.0369(3) 0.3162(2)
H26 H 0.5107 0.0154 0.3388
C30 C 0.4795(4) 0.0738(4) 0.2730(2)
H27 H 0.5483 0.0771 0.2667
C31 C 0.3997(5) 0.1050(3) 0.2402(2)
C32 C 0.2974(5) 0.1023(4) 0.2490(2)
H28 H 0.2442 0.1253 0.2265
C33 C 0.2742(4) 0.0650(3) 0.29183(19)
H29 H 0.2052 0.0622 0.2979
C34 C 0.3543(4) 0.0321(3) 0.32546(18)
C35 C 0.3282(3) -0.0048(3) 0.37238(17)
C36 C 0.2761(3) 0.0532(3) 0.40347(17)
C37 C 0.1989(3) 0.0315(3) 0.43151(17)
C38 C 0.1456(4) -0.0567(3) 0.43464(18)
C39 C 0.3168(4) -0.1242(3) 0.43272(18)
H30 H 0.3483 -0.1826 0.4402
H31 H 0.3453 -0.0827 0.4580
C40 C 0.3452(4) -0.0924(3) 0.38547(18)
C41 C 0.3840(4) -0.1601(3) 0.35198(19)
C42 C 0.3303(4) -0.1594(3) 0.2995(2)
C43 C 0.3549(5) -0.1626(4) 0.2176(2)
H32 H 0.3109 -0.1104 0.2094
H33 H 0.3129 -0.2162 0.2104
C44 C 0.4456(6) -0.1623(6) 0.1895(3)
H34 H 0.4202 -0.1620 0.1556
H35 H 0.4874 -0.2151 0.1974
H36 H 0.4875 -0.1098 0.1977
C45 C 0.1542(4) -0.2180(3) 0.4249(2)
H37 H 0.1784 -0.2476 0.3980
H38 H 0.0797 -0.2100 0.4183
H39 H 0.1711 -0.2539 0.4534
C46 C 0.2180(3) 0.1832(3) 0.43146(17)
C47 C 0.1617(3) 0.1131(3) 0.44978(17)
C48 C 0.0873(4) 0.1330(4) 0.47976(19)
H40 H 0.0517 0.0876 0.4935
C49 C 0.0676(4) 0.2234(3) 0.48860(19)
H41 H 0.0175 0.2381 0.5082
C50 C 0.1205(4) 0.2913(3) 0.46896(18)
C51 C 0.1992(4) 0.2736(3) 0.44058(18)
H42 H 0.2370 0.3195 0.4284
C52 C 0.0913(4) 0.3870(4) 0.4758(2)
C53 C 0.0265(5) 0.4265(4) 0.4311(2)
C54 C -0.1406(5) 0.4285(6) 0.3834(3)
H43 H -0.1005 0.4626 0.3627
H44 H -0.1692 0.3761 0.3656
C55 C -0.2217(9) 0.4813(7) 0.3956(4)
H45 H -0.2580 0.5089 0.3671
H46 H -0.1937 0.5271 0.4180
H47 H -0.2695 0.4443 0.4103
C56 C 0.3689(4) 0.1990(3) 0.38495(18)
H48 H 0.3481 0.2117 0.3513
H49 H 0.4330 0.1652 0.3889
H50 H 0.3795 0.2545 0.4025
loop_
_geom_bond_atom_site_label_1
_geom_bond_atom_site_label_2
_geom_bond_site_symmetry_1
_geom_bond_site_symmetry_2
Cl1 C3 1_555 1_555
F1 C14 1_555 1_555
F2 C14 1_555 1_555
F3 C25 1_555 1_555
F4 C25 1_555 1_555
O1 C15 1_555 1_555
O2 C15 1_555 1_555
O3 C10 1_555 1_555
O4 C26 1_555 1_555
O5 C26 1_555 1_555
N1 C12 1_555 1_555
N2 C9 1_555 1_555
C1 H1 1_555 1_555
C2 C1 1_555 1_555
H2 C2 1_555 1_555
C3 C2 1_555 1_555
C4 C3 1_555 1_555
H3 C4 1_555 1_555
C5 C4 1_555 1_555
H4 C5 1_555 1_555
C6 C1 1_555 1_555
C7 C6 1_555 1_555
C8 C7 1_555 1_555
C9 C8 1_555 1_555
H5 C9 1_555 1_555
H6 C9 1_555 1_555
C10 N2 1_555 1_555
C11 C10 1_555 1_555
C12 C7 1_555 1_555
C13 N2 1_555 1_555
H7 C13 1_555 1_555
H8 C13 1_555 1_555
H9 C13 1_555 1_555
C14 C8 1_555 1_555
C15 C14 1_555 1_555
C16 O2 1_555 1_555
H10 C16 1_555 1_555
H11 C16 1_555 1_555
C17 C16 1_555 1_555
H12 C17 1_555 1_555
H13 C17 1_555 1_555
H14 C17 1_555 1_555
C18 N1 1_555 1_555
H15 C18 1_555 1_555
H16 C18 1_555 1_555
H17 C18 1_555 1_555
C19 N1 1_555 1_555
C20 C11 1_555 1_555
C21 C20 1_555 1_555
H18 C21 1_555 1_555
C22 C21 1_555 1_555
H19 C22 1_555 1_555
C23 C22 1_555 1_555
C24 C19 1_555 1_555
H20 C24 1_555 1_555
C25 C23 1_555 1_555
C26 C25 1_555 1_555
C27 O4 1_555 1_555
H21 C27 1_555 1_555
H22 C27 1_555 1_555
C28 C27 1_555 1_555
H23 C28 1_555 1_555
H24 C28 1_555 1_555
H25 C28 1_555 1_555
Cl2 C31 1_555 1_555
F5 C41 1_555 1_555
F6 C41 1_555 1_555
F7 C52 1_555 1_555
F8 C52 1_555 1_555
O6 C42 1_555 1_555
O7 C42 1_555 1_555
O8 C38 1_555 1_555
O9 C53 1_555 1_555
O10 C53 1_555 1_555
N3 C36 1_555 1_555
N4 C38 1_555 1_555
C29 H26 1_555 1_555
C30 C29 1_555 1_555
H27 C30 1_555 1_555
C31 C30 1_555 1_555
C32 C31 1_555 1_555
H28 C32 1_555 1_555
C33 C32 1_555 1_555
H29 C33 1_555 1_555
C34 C29 1_555 1_555
C35 C34 1_555 1_555
C36 C35 1_555 1_555
C37 C36 1_555 1_555
C38 C37 1_555 1_555
C39 N4 1_555 1_555
H30 C39 1_555 1_555
H31 C39 1_555 1_555
C40 C35 1_555 1_555
C41 C40 1_555 1_555
C42 C41 1_555 1_555
C43 O7 1_555 1_555
H32 C43 1_555 1_555
H33 C43 1_555 1_555
C44 C43 1_555 1_555
H34 C44 1_555 1_555
H35 C44 1_555 1_555
H36 C44 1_555 1_555
C45 N4 1_555 1_555
H37 C45 1_555 1_555
H38 C45 1_555 1_555
H39 C45 1_555 1_555
C46 N3 1_555 1_555
C47 C37 1_555 1_555
C48 C47 1_555 1_555
H40 C48 1_555 1_555
C49 C48 1_555 1_555
H41 C49 1_555 1_555
C50 C49 1_555 1_555
C51 C46 1_555 1_555
H42 C51 1_555 1_555
C52 C50 1_555 1_555
C53 C52 1_555 1_555
C54 O10 1_555 1_555
H43 C54 1_555 1_555
H44 C54 1_555 1_555
C55 C54 1_555 1_555
H45 C55 1_555 1_555
H46 C55 1_555 1_555
H47 C55 1_555 1_555
C56 N3 1_555 1_555
H48 C56 1_555 1_555
H49 C56 1_555 1_555
H50 C56 1_555 1_555
C5 C6 1_555 1_555
C11 C12 1_555 1_555
C19 C20 1_555 1_555
C23 C24 1_555 1_555
C33 C34 1_555 1_555
C39 C40 1_555 1_555
C46 C47 1_555 1_555
C50 C51 1_555 1_555

#END
