
#######################################################################
#
#                 Cambridge Crystallographic Data Centre
#                                CCDC 
#
#######################################################################
#
# If this CIF has been generated from an entry in the Cambridge 
# Structural Database, then it will include bibliographic, chemical, 
# crystal, experimental, refinement or atomic coordinate data resulting 
# from the CCDC's data processing and validation procedures.
#
#######################################################################

data_EROFOI
_chemical_formula_moiety         'C16 H10 N2 O2'
_chemical_name_systematic        3-(2H-indazol-2-yl)-2H-chromen-2-one
_symmetry_cell_setting           orthorhombic
_symmetry_space_group_name_H-M   'P b c a'
_symmetry_Int_Tables_number      61
_space_group_name_Hall           '-P 2ac 2ab'
loop_
_symmetry_equiv_pos_site_id
_symmetry_equiv_pos_as_xyz
1 x,y,z
2 1/2+x,1/2-y,-z
3 -x,1/2+y,1/2-z
4 1/2-x,-y,1/2+z
5 -x,-y,-z
6 1/2-x,1/2+y,z
7 x,1/2-y,1/2+z
8 1/2+x,y,1/2-z
_cell_length_a                   13.122(2)
_cell_length_b                   9.5421(17)
_cell_length_c                   19.374(3)
_cell_angle_alpha                90
_cell_angle_beta                 90
_cell_angle_gamma                90
_cell_volume                     2425.85
_exptl_crystal_colour            yellow
_exptl_crystal_description       needle
_chemical_melting_point          '151-152 deg.C'
_cell_formula_units_Z            8
loop_
_atom_site_label
_atom_site_type_symbol
_atom_site_fract_x
_atom_site_fract_y
_atom_site_fract_z
O1 O -0.04095(9) 0.79227(14) 0.50299(7)
O2 O -0.07847(10) 0.96481(16) 0.57305(8)
N1 N 0.12181(11) 0.97378(16) 0.62955(8)
N2 N 0.22361(11) 0.98468(18) 0.64271(8)
C1 C 0.20601(18) 1.2893(2) 0.79186(12)
H1 H 0.2006 1.3592 0.8251
C2 C 0.12074(17) 1.2405(2) 0.76083(11)
H2 H 0.0570 1.2758 0.7725
C3 C 0.13086(15) 1.1346(2) 0.71034(10)
C4 C 0.06445(15) 1.0611(2) 0.66894(10)
H3 H -0.0061 1.0695 0.6681
C5 C 0.09071(14) 0.8752(2) 0.57896(9)
C6 C 0.15557(15) 0.7805(2) 0.55304(10)
H4 H 0.2217 0.7757 0.5701
C7 C 0.12477(14) 0.6868(2) 0.49957(9)
C8 C 0.18883(16) 0.5856(2) 0.47074(11)
H5 H 0.2554 0.5767 0.4865
C9 C 0.15399(17) 0.4994(2) 0.41927(11)
H6 H 0.1969 0.4322 0.4003
C10 C 0.05484(17) 0.5125(2) 0.39560(11)
H7 H 0.0320 0.4540 0.3605
C11 C 0.30331(18) 1.2358(2) 0.77455(12)
H8 H 0.3603 1.2706 0.7974
C12 C 0.31611(17) 1.1354(2) 0.72572(11)
H9 H 0.3807 1.1023 0.7146
C13 C 0.22833(14) 1.0826(2) 0.69219(10)
C14 C 0.02599(15) 0.6962(2) 0.47492(9)
C15 C -0.01395(15) 0.8839(2) 0.55397(10)
C16 C -0.01040(16) 0.6106(2) 0.42311(10)
H10 H -0.0770 0.6189 0.4073
loop_
_geom_bond_atom_site_label_1
_geom_bond_atom_site_label_2
_geom_bond_site_symmetry_1
_geom_bond_site_symmetry_2
O1 C14 1_555 1_555
O2 C15 1_555 1_555
N1 N2 1_555 1_555
N2 C13 1_555 1_555
C1 H1 1_555 1_555
C2 C1 1_555 1_555
H2 C2 1_555 1_555
C3 C2 1_555 1_555
C4 N1 1_555 1_555
H3 C4 1_555 1_555
C5 N1 1_555 1_555
C6 C5 1_555 1_555
H4 C6 1_555 1_555
C7 C6 1_555 1_555
C8 C7 1_555 1_555
H5 C8 1_555 1_555
C9 C8 1_555 1_555
H6 C9 1_555 1_555
C10 C9 1_555 1_555
H7 C10 1_555 1_555
C11 C1 1_555 1_555
H8 C11 1_555 1_555
C12 C11 1_555 1_555
H9 C12 1_555 1_555
C13 C3 1_555 1_555
C14 C7 1_555 1_555
C15 O1 1_555 1_555
C16 C10 1_555 1_555
H10 C16 1_555 1_555
C3 C4 1_555 1_555
C5 C15 1_555 1_555
C12 C13 1_555 1_555
C14 C16 1_555 1_555

#END
