
#######################################################################
#
#                 Cambridge Crystallographic Data Centre
#                                CCDC 
#
#######################################################################
#
# If this CIF has been generated from an entry in the Cambridge 
# Structural Database, then it will include bibliographic, chemical, 
# crystal, experimental, refinement or atomic coordinate data resulting 
# from the CCDC's data processing and validation procedures.
#
#######################################################################

data_EROGUP01
_chemical_formula_moiety         'C40 H32 S2'
_chemical_name_systematic        
4'-(methylsulfanyl)-2-(2-(4'-(methylsulfanyl)biphenyl-2-yl)-1,2-diphenylvinyl)biphenyl
_symmetry_cell_setting           monoclinic
_symmetry_space_group_name_H-M   'P 21/c'
_symmetry_Int_Tables_number      14
_space_group_name_Hall           '-P 2ybc'
loop_
_symmetry_equiv_pos_site_id
_symmetry_equiv_pos_as_xyz
1 x,y,z
2 -x,1/2+y,1/2-z
3 -x,-y,-z
4 x,1/2-y,1/2+z
_cell_length_a                   16.2653(11)
_cell_length_b                   11.5962(6)
_cell_length_c                   18.2995(16)
_cell_angle_alpha                90
_cell_angle_beta                 115.900(2)
_cell_angle_gamma                90
_cell_volume                     3104.89
_exptl_crystal_description       block
_cell_formula_units_Z            4
loop_
_atom_site_label
_atom_site_type_symbol
_atom_site_fract_x
_atom_site_fract_y
_atom_site_fract_z
C1 C 0.21733(15) 0.63639(17) 0.51265(12)
C2 C 0.30725(15) 0.63916(17) 0.53100(12)
C3 C 0.14264(14) 0.66300(18) 0.42960(12)
C4 C 0.12386(15) 0.59678(18) 0.35926(13)
C5 C 0.04927(16) 0.6295(2) 0.28644(13)
H1 H 0.0361 0.5859 0.2386
C6 C -0.00557(16) 0.7230(2) 0.28208(14)
H2 H -0.0557 0.7426 0.2321
C7 C 0.01313(16) 0.7876(2) 0.35116(14)
H3 H -0.0237 0.8524 0.3489
C8 C 0.08582(15) 0.75692(18) 0.42340(13)
H4 H 0.0977 0.8012 0.4707
C9 C 0.27550(16) 0.29488(19) 0.35261(14)
C10 C 0.24344(17) 0.3730(2) 0.28874(14)
H5 H 0.2546 0.3597 0.2426
C11 C 0.19538(16) 0.4702(2) 0.29151(14)
H6 H 0.1746 0.5229 0.2473
C12 C 0.17680(15) 0.49245(18) 0.35823(13)
C13 C 0.20812(16) 0.41195(18) 0.42090(13)
H7 H 0.1957 0.4238 0.4665
C14 C 0.25674(16) 0.31539(19) 0.41889(14)
H8 H 0.2776 0.2625 0.4630
C15 C 0.41184(19) 0.1411(2) 0.44712(17)
H9 H 0.4438 0.2119 0.4737
H10 H 0.4565 0.0833 0.4485
H11 H 0.3776 0.1112 0.4757
C16 C 0.18137(15) 0.61594(18) 0.57436(12)
C17 C 0.11778(15) 0.52931(19) 0.56375(13)
H12 H 0.0985 0.4804 0.5176
C18 C 0.08219(16) 0.5133(2) 0.61950(14)
H13 H 0.0410 0.4517 0.6125
C19 C 0.10643(17) 0.5865(2) 0.68492(14)
H14 H 0.0807 0.5768 0.7222
C20 C 0.16840(17) 0.6742(2) 0.69612(13)
H15 H 0.1848 0.7254 0.7408
C21 C 0.20664(16) 0.68741(19) 0.64193(13)
H16 H 0.2508 0.7462 0.6511
C22 C 0.34248(15) 0.67799(18) 0.47182(12)
C23 C 0.32911(15) 0.79028(18) 0.43931(12)
C24 C 0.36186(16) 0.8162(2) 0.38192(13)
H17 H 0.3522 0.8913 0.3589
C25 C 0.40782(17) 0.7357(2) 0.35793(14)
H18 H 0.4287 0.7554 0.3185
C26 C 0.42341(17) 0.6263(2) 0.39155(14)
H19 H 0.4558 0.5707 0.3761
C27 C 0.39109(16) 0.59898(19) 0.44805(14)
H20 H 0.4023 0.5241 0.4714
C28 C 0.19070(16) 1.05588(19) 0.50877(13)
C29 C 0.17422(16) 1.04119(18) 0.42803(13)
H21 H 0.1318 1.0900 0.3873
C30 C 0.21926(15) 0.95594(17) 0.40678(13)
H22 H 0.2069 0.9472 0.3513
C31 C 0.28226(15) 0.88254(17) 0.46440(13)
C32 C 0.30025(16) 0.90058(18) 0.54551(13)
H23 H 0.3444 0.8538 0.5865
C33 C 0.25532(16) 0.98485(19) 0.56739(13)
H24 H 0.2685 0.9946 0.6230
C34 C 0.04323(19) 1.2086(2) 0.45332(16)
H25 H 0.0648 1.2434 0.4161
H26 H 0.0078 1.2654 0.4673
H27 H 0.0045 1.1419 0.4271
C35 C 0.37884(15) 0.60001(18) 0.61139(13)
C36 C 0.46088(15) 0.66067(18) 0.65072(13)
H28 H 0.4719 0.7261 0.6250
C37 C 0.52659(17) 0.6271(2) 0.72676(14)
H29 H 0.5812 0.6707 0.7532
C38 C 0.51267(18) 0.5307(2) 0.76386(15)
H30 H 0.5568 0.5087 0.8164
C39 C 0.43432(18) 0.4664(2) 0.72435(16)
H31 H 0.4259 0.3980 0.7489
C40 C 0.36771(17) 0.5003(2) 0.64929(14)
H32 H 0.3138 0.4554 0.6232
S1 S 0.33427(5) 0.17185(5) 0.34347(4)
S2 S 0.13905(5) 1.16284(6) 0.54364(4)
loop_
_geom_bond_atom_site_label_1
_geom_bond_atom_site_label_2
_geom_bond_site_symmetry_1
_geom_bond_site_symmetry_2
C1 C2 1_555 1_555
C2 C22 1_555 1_555
C3 C1 1_555 1_555
C4 C3 1_555 1_555
C5 C4 1_555 1_555
H1 C5 1_555 1_555
C6 C5 1_555 1_555
H2 C6 1_555 1_555
C7 C6 1_555 1_555
H3 C7 1_555 1_555
C8 C3 1_555 1_555
H4 C8 1_555 1_555
C9 C10 1_555 1_555
C10 H5 1_555 1_555
C11 C10 1_555 1_555
H6 C11 1_555 1_555
C12 C4 1_555 1_555
C13 C12 1_555 1_555
H7 C13 1_555 1_555
C14 C9 1_555 1_555
H8 C14 1_555 1_555
C15 H9 1_555 1_555
H10 C15 1_555 1_555
H11 C15 1_555 1_555
C16 C1 1_555 1_555
C17 C16 1_555 1_555
H12 C17 1_555 1_555
C18 C17 1_555 1_555
H13 C18 1_555 1_555
C19 C18 1_555 1_555
H14 C19 1_555 1_555
C20 C19 1_555 1_555
H15 C20 1_555 1_555
C21 C16 1_555 1_555
H16 C21 1_555 1_555
C22 C23 1_555 1_555
C23 C24 1_555 1_555
C24 H17 1_555 1_555
C25 C24 1_555 1_555
H18 C25 1_555 1_555
C26 C25 1_555 1_555
H19 C26 1_555 1_555
C27 C22 1_555 1_555
H20 C27 1_555 1_555
C28 C29 1_555 1_555
C29 H21 1_555 1_555
C30 C29 1_555 1_555
H22 C30 1_555 1_555
C31 C23 1_555 1_555
C32 C31 1_555 1_555
H23 C32 1_555 1_555
C33 C28 1_555 1_555
H24 C33 1_555 1_555
C34 H25 1_555 1_555
H26 C34 1_555 1_555
H27 C34 1_555 1_555
C35 C2 1_555 1_555
C36 C35 1_555 1_555
H28 C36 1_555 1_555
C37 C36 1_555 1_555
H29 C37 1_555 1_555
C38 C37 1_555 1_555
H30 C38 1_555 1_555
C39 C38 1_555 1_555
H31 C39 1_555 1_555
C40 C35 1_555 1_555
H32 C40 1_555 1_555
S1 C9 1_555 1_555
S2 C28 1_555 1_555
C7 C8 1_555 1_555
C11 C12 1_555 1_555
C13 C14 1_555 1_555
C15 S1 1_555 1_555
C20 C21 1_555 1_555
C26 C27 1_555 1_555
C30 C31 1_555 1_555
C32 C33 1_555 1_555
C34 S2 1_555 1_555
C39 C40 1_555 1_555

#END
