
#######################################################################
#
#                 Cambridge Crystallographic Data Centre
#                                CCDC 
#
#######################################################################
#
# If this CIF has been generated from an entry in the Cambridge 
# Structural Database, then it will include bibliographic, chemical, 
# crystal, experimental, refinement or atomic coordinate data resulting 
# from the CCDC's data processing and validation procedures.
#
#######################################################################

data_EROHUQ
_chemical_formula_moiety         'C18 H17 N1 O3'
_chemical_name_systematic        
9-phenyl-4',5'-dihydro-10H-spiro[8-azabicyclo[4.3.1]deca-2,4-diene-7,3'-furan]-2',10-dione
_symmetry_cell_setting           orthorhombic
_symmetry_space_group_name_H-M   'P b c a'
_symmetry_Int_Tables_number      61
_space_group_name_Hall           '-P 2ac 2ab'
loop_
_symmetry_equiv_pos_site_id
_symmetry_equiv_pos_as_xyz
1 x,y,z
2 1/2-x,-y,1/2+z
3 -x,1/2+y,1/2-z
4 1/2+x,1/2-y,-z
5 -x,-y,-z
6 1/2+x,y,1/2-z
7 x,1/2-y,1/2+z
8 1/2-x,1/2+y,z
_cell_length_a                   11.483(2)
_cell_length_b                   10.012(2)
_cell_length_c                   25.315(5)
_cell_angle_alpha                90
_cell_angle_beta                 90
_cell_angle_gamma                90
_cell_volume                     2910.41
_exptl_crystal_colour            colorless
_exptl_crystal_description       plate
_cell_formula_units_Z            8
loop_
_atom_site_label
_atom_site_type_symbol
_atom_site_fract_x
_atom_site_fract_y
_atom_site_fract_z
O1 O 0.45038(15) -0.12484(15) 0.43953(6)
O2 O 0.61467(14) -0.09797(15) 0.24795(6)
O3 O 0.50631(15) 0.08413(17) 0.23530(6)
N1 N 0.56952(15) 0.16077(17) 0.33983(6)
C1 C 0.55582(18) 0.0102(2) 0.26508(8)
C2 C 0.6738(2) -0.1626(2) 0.29221(8)
H1 H 0.7526 -0.1876 0.2826
H2 H 0.6319 -0.2419 0.3034
C3 C 0.67441(18) -0.0578(2) 0.33586(8)
H3 H 0.7425 -0.0008 0.3334
H4 H 0.6724 -0.0990 0.3705
C4 C 0.56286(17) 0.02078(19) 0.32500(8)
C5 C 0.45514(17) -0.0529(2) 0.35006(8)
H5 H 0.4640 -0.1487 0.3433
C6 C 0.45957(18) -0.0313(2) 0.40924(8)
C7 C 0.47628(18) 0.11005(19) 0.42814(8)
H6 H 0.4986 0.1064 0.4655
C8 C 0.57850(17) 0.17856(19) 0.39703(7)
H7 H 0.6506 0.1346 0.4082
C9 C 0.58880(16) 0.32377(19) 0.41265(8)
C10 C 0.64805(18) 0.3566(2) 0.45896(8)
H8 H 0.6823 0.2893 0.4789
C11 C 0.65660(19) 0.4881(2) 0.47562(9)
H9 H 0.6975 0.5085 0.5063
C12 C 0.60433(19) 0.5892(2) 0.44675(8)
H10 H 0.6094 0.6775 0.4580
C13 C 0.54461(19) 0.5573(2) 0.40110(9)
H11 H 0.5093 0.6247 0.3816
C14 C 0.53672(18) 0.4262(2) 0.38409(8)
H12 H 0.4962 0.4065 0.3533
C15 C 0.36520(19) 0.1882(2) 0.42432(8)
H13 H 0.3549 0.2542 0.4497
C16 C 0.27928(19) 0.1755(2) 0.38929(9)
H14 H 0.2165 0.2328 0.3943
C17 C 0.2689(2) 0.0853(3) 0.34440(9)
H15 H 0.2012 0.0955 0.3247
C18 C 0.34102(18) -0.0094(2) 0.32708(9)
H16 H 0.3174 -0.0544 0.2968
H17 H 0.507(2) 0.203(2) 0.3263(9)
loop_
_geom_bond_atom_site_label_1
_geom_bond_atom_site_label_2
_geom_bond_site_symmetry_1
_geom_bond_site_symmetry_2
O1 C6 1_555 1_555
O2 C1 1_555 1_555
O3 C1 1_555 1_555
N1 C4 1_555 1_555
C1 C4 1_555 1_555
C2 O2 1_555 1_555
H1 C2 1_555 1_555
H2 C2 1_555 1_555
C3 C2 1_555 1_555
H3 C3 1_555 1_555
H4 C3 1_555 1_555
C4 C3 1_555 1_555
C5 C4 1_555 1_555
H5 C5 1_555 1_555
C6 C5 1_555 1_555
C7 C6 1_555 1_555
H6 C7 1_555 1_555
C8 N1 1_555 1_555
H7 C8 1_555 1_555
C9 C8 1_555 1_555
C10 C9 1_555 1_555
H8 C10 1_555 1_555
C11 C10 1_555 1_555
H9 C11 1_555 1_555
C12 C11 1_555 1_555
H10 C12 1_555 1_555
C13 C12 1_555 1_555
H11 C13 1_555 1_555
C14 C9 1_555 1_555
H12 C14 1_555 1_555
C15 C7 1_555 1_555
H13 C15 1_555 1_555
C16 C15 1_555 1_555
H14 C16 1_555 1_555
C17 C16 1_555 1_555
H15 C17 1_555 1_555
C18 C5 1_555 1_555
H16 C18 1_555 1_555
H17 N1 1_555 1_555
C7 C8 1_555 1_555
C13 C14 1_555 1_555
C17 C18 1_555 1_555

#END
