
#######################################################################
#
#                 Cambridge Crystallographic Data Centre
#                                CCDC 
#
#######################################################################
#
# If this CIF has been generated from an entry in the Cambridge 
# Structural Database, then it will include bibliographic, chemical, 
# crystal, experimental, refinement or atomic coordinate data resulting 
# from the CCDC's data processing and validation procedures.
#
#######################################################################

data_EROJEB
_chemical_formula_moiety         'C16 H14 Br2 N2 O2'
_chemical_name_systematic        
(E,E)-1,2-bis(3-Bromo-4-methoxybenzylidene)hydrazine
_symmetry_cell_setting           monoclinic
_symmetry_space_group_name_H-M   'P 21/c'
_symmetry_Int_Tables_number      14
_space_group_name_Hall           '-P 2ybc'
loop_
_symmetry_equiv_pos_site_id
_symmetry_equiv_pos_as_xyz
1 x,y,z
2 -x,1/2+y,1/2-z
3 -x,-y,-z
4 x,1/2-y,1/2+z
_cell_length_a                   10.1354(8)
_cell_length_b                   10.550(1)
_cell_length_c                   15.6055(12)
_cell_angle_alpha                90
_cell_angle_beta                 96.680(7)
_cell_angle_gamma                90
_cell_volume                     1657.34
_exptl_crystal_colour            yellow
_exptl_crystal_description       block
_chemical_melting_point          '453-455 K'
_cell_formula_units_Z            4
_exptl_crystal_recrystallization_method dimethylformamide
loop_
_atom_site_label
_atom_site_type_symbol
_atom_site_fract_x
_atom_site_fract_y
_atom_site_fract_z
Br1 Br 0.58094(5) 0.79236(5) 1.06171(3)
Br2 Br 0.19292(5) 0.55086(6) 0.31176(3)
O1 O 0.7706(3) 0.5773(3) 1.09367(19)
O2 O -0.0712(3) 0.6690(3) 0.3128(2)
N1 N 0.3700(4) 0.6100(4) 0.7479(2)
N2 N 0.3124(4) 0.5901(4) 0.6626(2)
C1 C 0.8682(5) 0.4829(5) 1.1222(3)
H1 H 0.9152 0.5082 1.1781
H2 H 0.9319 0.4750 1.0799
H3 H 0.8241 0.4013 1.1283
C2 C 0.6994(4) 0.5613(4) 1.0151(3)
C3 C 0.6047(4) 0.6531(4) 0.9888(3)
C4 C 0.5291(4) 0.6453(4) 0.9104(3)
H4 H 0.4646 0.7088 0.8938
C5 C 0.5461(4) 0.5448(4) 0.8545(3)
C6 C 0.6410(4) 0.4535(4) 0.8803(3)
H5 H 0.6539 0.3847 0.8429
C7 C 0.7170(4) 0.4611(5) 0.9595(3)
H6 H 0.7815 0.3977 0.9761
C8 C 0.4677(5) 0.5372(5) 0.7703(3)
H7 H 0.4905 0.4751 0.7305
C9 C 0.2020(5) 0.6449(5) 0.6464(3)
H8 H 0.1649 0.6860 0.6922
C10 C 0.1288(4) 0.6482(4) 0.5605(3)
C11 C 0.1842(4) 0.6029(4) 0.4883(3)
H9 H 0.2701 0.5657 0.4953
C12 C 0.1157(4) 0.6119(4) 0.4083(3)
C13 C -0.0115(4) 0.6638(4) 0.3947(3)
C14 C -0.0675(4) 0.7078(5) 0.4665(3)
H10 H -0.1545 0.7427 0.4596
C15 C 0.0030(5) 0.7007(4) 0.5478(3)
H11 H -0.0358 0.7327 0.5959
C16 C -0.2036(5) 0.7208(5) 0.2988(3)
H12 H -0.2363 0.7163 0.2372
H13 H -0.2020 0.8094 0.3177
H14 H -0.2624 0.6718 0.3319
loop_
_geom_bond_atom_site_label_1
_geom_bond_atom_site_label_2
_geom_bond_site_symmetry_1
_geom_bond_site_symmetry_2
Br1 C3 1_555 1_555
Br2 C12 1_555 1_555
O1 C1 1_555 1_555
O2 C13 1_555 1_555
N1 N2 1_555 1_555
N2 C9 1_555 1_555
C1 H1 1_555 1_555
H2 C1 1_555 1_555
H3 C1 1_555 1_555
C2 O1 1_555 1_555
C3 C2 1_555 1_555
C4 C3 1_555 1_555
H4 C4 1_555 1_555
C5 C4 1_555 1_555
C6 C5 1_555 1_555
H5 C6 1_555 1_555
C7 C2 1_555 1_555
H6 C7 1_555 1_555
C8 N1 1_555 1_555
H7 C8 1_555 1_555
C9 H8 1_555 1_555
C10 C9 1_555 1_555
C11 C10 1_555 1_555
H9 C11 1_555 1_555
C12 C11 1_555 1_555
C13 C12 1_555 1_555
C14 C13 1_555 1_555
H10 C14 1_555 1_555
C15 C10 1_555 1_555
H11 C15 1_555 1_555
C16 O2 1_555 1_555
H12 C16 1_555 1_555
H13 C16 1_555 1_555
H14 C16 1_555 1_555
C5 C8 1_555 1_555
C6 C7 1_555 1_555
C14 C15 1_555 1_555

#END
