
#######################################################################
#
#                 Cambridge Crystallographic Data Centre
#                                CCDC 
#
#######################################################################
#
# If this CIF has been generated from an entry in the Cambridge 
# Structural Database, then it will include bibliographic, chemical, 
# crystal, experimental, refinement or atomic coordinate data resulting 
# from the CCDC's data processing and validation procedures.
#
#######################################################################

data_EROKIG
_chemical_formula_moiety         'C19 H16 Cl1 F1 N2 O2'
_chemical_name_systematic        
'Ethyl 1-(4-chlorobenzyl)-3-(4-fluorophenyl)-1H-pyrazole-5-carboxylate'
_symmetry_cell_setting           triclinic
_symmetry_space_group_name_H-M   'P -1'
_symmetry_Int_Tables_number      2
_space_group_name_Hall           '-P 1'
loop_
_symmetry_equiv_pos_site_id
_symmetry_equiv_pos_as_xyz
1 x,y,z
2 -x,-y,-z
_cell_length_a                   8.267(4)
_cell_length_b                   10.375(5)
_cell_length_c                   11.368(5)
_cell_angle_alpha                109.128(7)
_cell_angle_beta                 93.269(7)
_cell_angle_gamma                104.842(7)
_cell_volume                     879.796
_exptl_crystal_colour            colorless
_exptl_crystal_description       block
_cell_formula_units_Z            2
loop_
_atom_site_label
_atom_site_type_symbol
_atom_site_fract_x
_atom_site_fract_y
_atom_site_fract_z
Cl1 Cl 1.50553(8) 0.97753(7) 0.28534(7)
F1 F 0.58679(18) 0.70217(16) 1.03659(11)
O1 O 0.8333(2) 0.38223(15) 0.13974(12)
O2 O 0.85036(17) 0.24464(14) 0.25387(12)
N1 N 0.76250(18) 0.58191(16) 0.36486(13)
N2 N 0.72669(19) 0.64677(16) 0.47978(13)
C1 C 1.2960(3) 0.8828(2) 0.28289(19)
C2 C 1.2032(3) 0.7838(2) 0.17127(17)
H1 H 1.2510 0.7663 0.0976
C3 C 1.0381(3) 0.7106(2) 0.17021(16)
H2 H 0.9750 0.6430 0.0949
C4 C 0.9639(2) 0.73540(19) 0.27895(15)
C5 C 1.0613(3) 0.8359(2) 0.39014(17)
H3 H 1.0142 0.8537 0.4641
C6 C 1.2269(3) 0.9101(2) 0.39306(19)
H4 H 1.2910 0.9774 0.4681
C7 C 0.7810(2) 0.6583(2) 0.27612(17)
H5 H 0.7168 0.7269 0.2968
H6 H 0.7342 0.5910 0.1916
C8 C 0.7893(2) 0.45469(18) 0.35425(15)
C9 C 0.7673(2) 0.43606(18) 0.46724(15)
H7 H 0.7764 0.3590 0.4890
C10 C 0.7285(2) 0.55756(18) 0.54247(15)
C11 C 0.6912(2) 0.59545(18) 0.67292(15)
C12 C 0.7055(2) 0.5107(2) 0.74363(17)
H8 H 0.7390 0.4291 0.7082
C13 C 0.6705(3) 0.5465(2) 0.86630(18)
H9 H 0.6798 0.4896 0.9133
C14 C 0.6221(2) 0.6670(2) 0.91642(17)
C15 C 0.6065(3) 0.7534(2) 0.85037(18)
H10 H 0.5733 0.8349 0.8870
C16 C 0.6412(2) 0.7171(2) 0.72777(17)
H11 H 0.6309 0.7747 0.6817
C17 C 0.8260(2) 0.35999(19) 0.23761(16)
C18 C 0.8920(3) 0.1438(2) 0.1458(2)
H12 H 0.9889 0.1920 0.1161
H13 H 0.7970 0.1014 0.0776
C19 C 0.9320(3) 0.0317(3) 0.1868(3)
H14 H 1.0243 0.0751 0.2555
H15 H 0.9631 -0.0351 0.1177
H16 H 0.8343 -0.0171 0.2136
loop_
_geom_bond_atom_site_label_1
_geom_bond_atom_site_label_2
_geom_bond_site_symmetry_1
_geom_bond_site_symmetry_2
Cl1 C1 1_555 1_555
F1 C14 1_555 1_555
O1 C17 1_555 1_555
O2 C17 1_555 1_555
N1 N2 1_555 1_555
N2 C10 1_555 1_555
C1 C2 1_555 1_555
C2 H1 1_555 1_555
C3 C2 1_555 1_555
H2 C3 1_555 1_555
C4 C3 1_555 1_555
C5 C4 1_555 1_555
H3 C5 1_555 1_555
C6 C1 1_555 1_555
H4 C6 1_555 1_555
C7 N1 1_555 1_555
H5 C7 1_555 1_555
H6 C7 1_555 1_555
C8 N1 1_555 1_555
C9 C8 1_555 1_555
H7 C9 1_555 1_555
C10 C9 1_555 1_555
C11 C10 1_555 1_555
C12 C11 1_555 1_555
H8 C12 1_555 1_555
C13 C12 1_555 1_555
H9 C13 1_555 1_555
C14 C13 1_555 1_555
C15 C14 1_555 1_555
H10 C15 1_555 1_555
C16 C11 1_555 1_555
H11 C16 1_555 1_555
C17 C8 1_555 1_555
C18 O2 1_555 1_555
H12 C18 1_555 1_555
H13 C18 1_555 1_555
C19 C18 1_555 1_555
H14 C19 1_555 1_555
H15 C19 1_555 1_555
H16 C19 1_555 1_555
C4 C7 1_555 1_555
C5 C6 1_555 1_555
C15 C16 1_555 1_555

#END
