
#######################################################################
#
#                 Cambridge Crystallographic Data Centre
#                                CCDC 
#
#######################################################################
#
# If this CIF has been generated from an entry in the Cambridge 
# Structural Database, then it will include bibliographic, chemical, 
# crystal, experimental, refinement or atomic coordinate data resulting 
# from the CCDC's data processing and validation procedures.
#
#######################################################################

data_EROMIJ
_chemical_name_common            'ammonium (2RS,3RS)-2-amino-3-methylpentanoate'
_chemical_formula_moiety         'C8 H14 N1 O3 1-,H4 N1 1+'
_chemical_name_systematic        'ammonium 2-acetamido-3-methylpentanoate'
_symmetry_cell_setting           monoclinic
_symmetry_space_group_name_H-M   'P 21/n'
_symmetry_Int_Tables_number      14
_space_group_name_Hall           '-P 2yn'
loop_
_symmetry_equiv_pos_site_id
_symmetry_equiv_pos_as_xyz
1 x,y,z
2 1/2-x,1/2+y,1/2-z
3 -x,-y,-z
4 1/2+x,1/2-y,1/2+z
_cell_length_a                   7.907(4)
_cell_length_b                   5.843(3)
_cell_length_c                   23.633(10)
_cell_angle_alpha                90
_cell_angle_beta                 96.126(8)
_cell_angle_gamma                90
_cell_volume                     1085.62
_exptl_crystal_colour            colorless
_exptl_crystal_description       platelet
_cell_formula_units_Z            4
loop_
_atom_site_label
_atom_site_type_symbol
_atom_site_fract_x
_atom_site_fract_y
_atom_site_fract_z
O1 O 0.89245(9) 0.18584(13) 0.20210(3)
O2 O 0.91542(10) -0.12805(12) 0.14981(3)
O3 O 1.30302(10) 0.22752(13) 0.17066(3)
N1 N 1.08180(11) 0.43342(15) 0.13010(4)
C1 C 0.92986(12) 0.08429(17) 0.15791(4)
C2 C 0.99203(12) 0.22613(17) 0.10925(4)
C3 C 0.84557(14) 0.28604(19) 0.06323(5)
C4 C 0.78276(15) 0.0712(3) 0.02941(5)
C5 C 0.68242(19) 0.1286(3) -0.02759(6)
C6 C 0.69847(16) 0.4105(3) 0.08722(6)
C7 C 1.23479(13) 0.41703(17) 0.16026(4)
C8 C 1.31989(15) 0.6377(2) 0.18047(5)
H1 H 1.0755(17) 0.129(3) 0.0918(6)
H2 H 0.891(2) 0.398(3) 0.0329(7)
H3 H 0.709(2) -0.023(3) 0.0534(7)
H4 H 0.882(3) -0.027(3) 0.0230(7)
H5 H 0.579(3) 0.219(3) -0.0215(7)
H6 H 0.644(3) -0.021(4) -0.0510(8)
H7 H 0.754(3) 0.226(4) -0.0513(8)
H8 H 0.640(2) 0.304(3) 0.1122(7)
H9 H 0.609(3) 0.460(3) 0.0555(8)
H10 H 0.740(3) 0.551(3) 0.1091(7)
H11 H 1.034(2) 0.569(3) 0.1269(6)
H12 H 1.251(2) 0.768(3) 0.1699(7)
H13 H 1.345(3) 0.631(3) 0.2201(9)
H14 H 1.430(3) 0.646(3) 0.1658(8)
N2 N 0.91554(12) -0.37720(16) 0.25050(4)
H15 H 0.9255(19) -0.524(3) 0.2374(7)
H16 H 0.9098(19) -0.281(3) 0.2209(7)
H17 H 1.009(2) -0.338(3) 0.2773(7)
H18 H 0.816(3) -0.371(3) 0.2669(7)
loop_
_geom_bond_atom_site_label_1
_geom_bond_atom_site_label_2
_geom_bond_site_symmetry_1
_geom_bond_site_symmetry_2
O1 C1 1_555 1_555
O2 C1 1_555 1_555
O3 C7 1_555 1_555
N1 C2 1_555 1_555
C1 C2 1_555 1_555
C2 C3 1_555 1_555
C3 C4 1_555 1_555
C4 C5 1_555 1_555
C5 H5 1_555 1_555
C6 C3 1_555 1_555
C7 N1 1_555 1_555
C8 C7 1_555 1_555
H1 C2 1_555 1_555
H2 C3 1_555 1_555
H3 C4 1_555 1_555
H4 C4 1_555 1_555
H6 C5 1_555 1_555
H7 C5 1_555 1_555
H8 C6 1_555 1_555
H9 C6 1_555 1_555
H10 C6 1_555 1_555
H11 N1 1_555 1_555
H12 C8 1_555 1_555
H13 C8 1_555 1_555
H14 C8 1_555 1_555
N2 H15 1_555 1_555
H16 N2 1_555 1_555
H17 N2 1_555 1_555
H18 N2 1_555 1_555

#END
