
#######################################################################
#
#                 Cambridge Crystallographic Data Centre
#                                CCDC 
#
#######################################################################
#
# If this CIF has been generated from an entry in the Cambridge 
# Structural Database, then it will include bibliographic, chemical, 
# crystal, experimental, refinement or atomic coordinate data resulting 
# from the CCDC's data processing and validation procedures.
#
#######################################################################

data_EROMEF
_chemical_name_common            '(2RS,3SR)-2-amino-3-methylpentanoic acid'
_chemical_formula_moiety         'C8 H15 N1 O3'
_chemical_name_systematic        N-acetylisoleucine
_symmetry_cell_setting           orthorhombic
_symmetry_space_group_name_H-M   'P b c a'
_symmetry_Int_Tables_number      61
_space_group_name_Hall           '-P 2ac 2ab'
loop_
_symmetry_equiv_pos_site_id
_symmetry_equiv_pos_as_xyz
1 x,y,z
2 1/2-x,-y,1/2+z
3 1/2+x,1/2-y,-z
4 -x,1/2+y,1/2-z
5 -x,-y,-z
6 1/2+x,y,1/2-z
7 1/2-x,1/2+y,z
8 x,1/2-y,1/2+z
_cell_length_a                   11.6067(6)
_cell_length_b                   12.8312(5)
_cell_length_c                   13.3226(5)
_cell_angle_alpha                90
_cell_angle_beta                 90
_cell_angle_gamma                90
_cell_volume                     1984.11
_exptl_crystal_colour            colorless
_exptl_crystal_description       prism
_cell_formula_units_Z            8
loop_
_atom_site_label
_atom_site_type_symbol
_atom_site_fract_x
_atom_site_fract_y
_atom_site_fract_z
O1 O 0.18921(6) 0.03805(6) 0.44908(6)
O2 O 0.32409(6) 0.05948(6) 0.78215(5)
O3 O 0.36336(6) -0.03573(6) 0.46237(5)
N1 N 0.41309(7) 0.07249(6) 0.63229(6)
C1 C 0.29148(8) 0.02637(8) 0.49057(7)
C2 C 0.30870(8) 0.10077(7) 0.57840(7)
C3 C 0.52444(9) 0.01498(10) 0.77553(8)
C4 C 0.31017(10) 0.21531(9) 0.54170(9)
C5 C 0.31429(15) 0.29051(10) 0.63023(13)
C6 C 0.20950(19) 0.29089(14) 0.69605(14)
C7 C 0.40999(14) 0.23326(14) 0.46747(15)
C8 C 0.41291(8) 0.05116(7) 0.73041(7)
H1 H 0.2184(19) 0.3468(19) 0.751(2)
H2 H 0.1384(18) 0.3058(17) 0.6526(16)
H3 H 0.1991(17) 0.2244(17) 0.7313(16)
H4 H 0.3844(15) 0.2752(14) 0.6714(13)
H5 H 0.3283(14) 0.3611(16) 0.5996(14)
H6 H 0.2373(12) 0.2258(11) 0.5054(12)
H7 H 0.4835(19) 0.2265(15) 0.5024(16)
H8 H 0.4063(19) 0.3029(19) 0.4404(16)
H9 H 0.410(2) 0.190(2) 0.404(2)
H10 H 0.1831(15) 0.0003(15) 0.3911(15)
H11 H 0.2462(10) 0.0906(9) 0.6227(8)
H12 H 0.4750(12) 0.0607(10) 0.5999(10)
H13 H 0.5892(14) 0.0300(12) 0.7347(12)
H14 H 0.5367(15) 0.0443(13) 0.8383(14)
H15 H 0.5163(18) -0.0585(17) 0.7852(14)
loop_
_geom_bond_atom_site_label_1
_geom_bond_atom_site_label_2
_geom_bond_site_symmetry_1
_geom_bond_site_symmetry_2
O1 C1 1_555 1_555
O2 C8 1_555 1_555
O3 C1 1_555 1_555
N1 C2 1_555 1_555
C1 C2 1_555 1_555
C2 C4 1_555 1_555
C3 C8 1_555 1_555
C4 C5 1_555 1_555
C5 C6 1_555 1_555
C6 H1 1_555 1_555
C7 C4 1_555 1_555
C8 N1 1_555 1_555
H2 C6 1_555 1_555
H3 C6 1_555 1_555
H4 C5 1_555 1_555
H5 C5 1_555 1_555
H6 C4 1_555 1_555
H7 C7 1_555 1_555
H8 C7 1_555 1_555
H9 C7 1_555 1_555
H10 O1 1_555 1_555
H11 C2 1_555 1_555
H12 N1 1_555 1_555
H13 C3 1_555 1_555
H14 C3 1_555 1_555
H15 C3 1_555 1_555

#END
