
#######################################################################
#
#                 Cambridge Crystallographic Data Centre
#                                CCDC 
#
#######################################################################
#
# If this CIF has been generated from an entry in the Cambridge 
# Structural Database, then it will include bibliographic, chemical, 
# crystal, experimental, refinement or atomic coordinate data resulting 
# from the CCDC's data processing and validation procedures.
#
#######################################################################

data_EROMAA
_chemical_formula_moiety         'C8 H6 N2 O2,2(H2 O1)'
_chemical_name_systematic        '1H-Benzimidazol-3-ium-2-carboxylate dihydrate'
_symmetry_cell_setting           monoclinic
_symmetry_space_group_name_H-M   'P 21/c'
_symmetry_Int_Tables_number      14
_space_group_name_Hall           '-P 2ybc'
loop_
_symmetry_equiv_pos_site_id
_symmetry_equiv_pos_as_xyz
1 x,y,z
2 -x,1/2+y,1/2-z
3 -x,-y,-z
4 x,1/2-y,1/2+z
_cell_length_a                   6.8503(15)
_cell_length_b                   7.3679(17)
_cell_length_c                   18.939(4)
_cell_angle_alpha                90
_cell_angle_beta                 109.728(7)
_cell_angle_gamma                90
_cell_volume                     899.79
_exptl_crystal_colour            colorless
_exptl_crystal_description       block
_cell_formula_units_Z            4
_exptl_crystal_recrystallization_method ethanol
loop_
_atom_site_label
_atom_site_type_symbol
_atom_site_fract_x
_atom_site_fract_y
_atom_site_fract_z
O1 O 0.4666(2) 0.4099(2) 0.80063(6)
O2 O 0.36643(18) 0.48692(18) 0.89664(6)
N1 N 0.8395(2) 0.27481(18) 0.90210(7)
H1 H 0.8355 0.2552 0.8569
N2 N 0.74817(19) 0.35912(18) 0.99579(7)
H2 H 0.6754 0.4029 1.0209
C1 C 0.4882(3) 0.4223(2) 0.86784(9)
C2 C 0.6902(3) 0.3506(2) 0.92144(8)
C3 C 1.0037(2) 0.2319(2) 0.96623(9)
C4 C 1.1954(3) 0.1538(2) 0.97674(9)
H3 H 1.2351 0.1172 0.9366
C5 C 1.3236(3) 0.1332(2) 1.04979(10)
H4 H 1.4546 0.0830 1.0594
C6 C 1.2623(3) 0.1857(3) 1.11020(10)
H5 H 1.3532 0.1678 1.1588
C7 C 1.0734(3) 0.2625(2) 1.10005(9)
H6 H 1.0331 0.2970 1.1403
C8 C 0.9443(2) 0.2864(2) 1.02604(9)
O3 O 0.1521(2) 0.67445(19) 0.73470(6)
H7 H 0.0403 0.6248 0.7338
H8 H 0.2413 0.5942 0.7569
O4 O 0.7592(2) 0.5359(2) 0.70601(8)
H9 H 0.6747 0.5904 0.7228
H10 H 0.7617 0.4321 0.7248
loop_
_geom_bond_atom_site_label_1
_geom_bond_atom_site_label_2
_geom_bond_site_symmetry_1
_geom_bond_site_symmetry_2
O1 C1 1_555 1_555
O2 C1 1_555 1_555
N1 H1 1_555 1_555
N2 H2 1_555 1_555
C1 C2 1_555 1_555
C2 N1 1_555 1_555
C3 N1 1_555 1_555
C4 C3 1_555 1_555
H3 C4 1_555 1_555
C5 C4 1_555 1_555
H4 C5 1_555 1_555
C6 C5 1_555 1_555
H5 C6 1_555 1_555
C7 C6 1_555 1_555
H6 C7 1_555 1_555
C8 N2 1_555 1_555
O3 H7 1_555 1_555
H8 O3 1_555 1_555
O4 H9 1_555 1_555
H10 O4 1_555 1_555
N2 C2 1_555 1_555
C3 C8 1_555 1_555
C7 C8 1_555 1_555

#END
