
#######################################################################
#
#                 Cambridge Crystallographic Data Centre
#                                CCDC 
#
#######################################################################
#
# If this CIF has been generated from an entry in the Cambridge 
# Structural Database, then it will include bibliographic, chemical, 
# crystal, experimental, refinement or atomic coordinate data resulting 
# from the CCDC's data processing and validation procedures.
#
#######################################################################

data_EROMAA01
_chemical_formula_moiety         'C8 H6 N2 O2,2(H2 O1)'
_chemical_name_systematic        'Benzimidazolium-2-carboxylate dihydrate'
_symmetry_cell_setting           monoclinic
_symmetry_space_group_name_H-M   'P 21/c'
_symmetry_Int_Tables_number      14
_space_group_name_Hall           '-P 2ybc'
loop_
_symmetry_equiv_pos_site_id
_symmetry_equiv_pos_as_xyz
1 x,y,z
2 -x,1/2+y,1/2-z
3 -x,-y,-z
4 x,1/2-y,1/2+z
_cell_length_a                   6.860(2)
_cell_length_b                   7.368(2)
_cell_length_c                   18.967(5)
_cell_angle_alpha                90
_cell_angle_beta                 109.738(9)
_cell_angle_gamma                90
_cell_volume                     902.352
_exptl_crystal_colour            yellow
_exptl_crystal_description       block
_cell_formula_units_Z            4
loop_
_atom_site_label
_atom_site_type_symbol
_atom_site_fract_x
_atom_site_fract_y
_atom_site_fract_z
O1 O 0.6336(3) 0.9877(3) 0.10315(11)
O2 O 0.5353(3) 0.9099(3) 0.19975(11)
N1 N 0.1599(3) 0.7749(3) 0.09808(12)
H1 H 0.1638 0.7549 0.1432
N2 N 0.2517(4) 0.8594(3) 0.00427(12)
H2 H 0.3240 0.9034 -0.0209
C1 C 0.3107(4) 0.8511(4) 0.07848(15)
C2 C -0.0037(4) 0.7334(4) 0.03379(15)
C3 C -0.2636(5) 0.6853(4) -0.11041(17)
H3 H -0.3549 0.6677 -0.1589
C4 C 0.0544(4) 0.7856(4) -0.02619(15)
C5 C -0.3239(5) 0.6323(4) -0.04940(17)
H4 H -0.4538 0.5806 -0.0585
C6 C -0.1961(4) 0.6552(4) 0.02249(16)
H5 H -0.2361 0.6197 0.0626
C7 C -0.0729(5) 0.7627(4) -0.10019(16)
H6 H -0.0321 0.7974 -0.1403
C8 C 0.5129(5) 0.9234(4) 0.13229(16)
O3 O 0.1513(3) 0.6739(3) 0.23461(11)
H7 H 0.1811 0.6956 0.2811
H8 H 0.1531 0.5595 0.2292
O4 O 0.7601(4) 0.5331(4) 0.20669(14)
H9 H 0.6859 0.6128 0.1774
H10 H 0.7162 0.5215 0.2433
loop_
_geom_bond_atom_site_label_1
_geom_bond_atom_site_label_2
_geom_bond_site_symmetry_1
_geom_bond_site_symmetry_2
O1 C8 1_555 1_555
O2 C8 1_555 1_555
N1 H1 1_555 1_555
N2 H2 1_555 1_555
C1 N1 1_555 1_555
C2 N1 1_555 1_555
C3 H3 1_555 1_555
C4 N2 1_555 1_555
C5 C3 1_555 1_555
H4 C5 1_555 1_555
C6 C2 1_555 1_555
H5 C6 1_555 1_555
C7 C3 1_555 1_555
H6 C7 1_555 1_555
C8 C1 1_555 1_555
O3 H7 1_555 1_555
H8 O3 1_555 1_555
O4 H9 1_555 1_555
H10 O4 1_555 1_555
N2 C1 1_555 1_555
C2 C4 1_555 1_555
C4 C7 1_555 1_555
C5 C6 1_555 1_555

#END
