
#######################################################################
#
#                 Cambridge Crystallographic Data Centre
#                                CCDC 
#
#######################################################################
#
# If this CIF has been generated from an entry in the Cambridge 
# Structural Database, then it will include bibliographic, chemical, 
# crystal, experimental, refinement or atomic coordinate data resulting 
# from the CCDC's data processing and validation procedures.
#
#######################################################################

data_EROMUU
_chemical_formula_moiety         'C5 H4 O2 S3'
_chemical_name_systematic        
5,6-Dihydro-2H-1,3-dithiolo[4,5-b][1,4]dioxine-2-thione
_symmetry_cell_setting           monoclinic
_symmetry_space_group_name_H-M   'P 21/n'
_symmetry_Int_Tables_number      14
_space_group_name_Hall           '-P 2yn'
loop_
_symmetry_equiv_pos_site_id
_symmetry_equiv_pos_as_xyz
1 x,y,z
2 1/2-x,1/2+y,1/2-z
3 -x,-y,-z
4 1/2+x,1/2-y,1/2+z
_cell_length_a                   5.4645(8)
_cell_length_b                   13.430(2)
_cell_length_c                   9.8189(16)
_cell_angle_alpha                90
_cell_angle_beta                 91.294(3)
_cell_angle_gamma                90
_cell_volume                     720.408
_exptl_crystal_colour            yellow
_exptl_crystal_description       block
_cell_formula_units_Z            4
loop_
_atom_site_label
_atom_site_type_symbol
_atom_site_fract_x
_atom_site_fract_y
_atom_site_fract_z
S1 S 1.15131(11) 0.20574(4) 1.05803(6)
S2 S 0.77835(10) 0.36220(4) 0.99990(5)
S3 S 1.18427(10) 0.33798(4) 0.81841(6)
O1 O 0.6189(3) 0.51707(11) 0.85167(16)
O2 O 1.0238(3) 0.49167(11) 0.66988(16)
C1 C 1.0418(4) 0.29782(14) 0.9629(2)
C2 C 0.7954(4) 0.44643(15) 0.8651(2)
C3 C 0.9812(4) 0.43492(14) 0.7810(2)
C4 C 0.6183(4) 0.55689(18) 0.7147(2)
H1 H 0.5199 0.6179 0.7115
H2 H 0.5419 0.5086 0.6523
C5 C 0.8699(5) 0.57960(16) 0.6687(2)
H3 H 0.8607 0.6069 0.5761
H4 H 0.9437 0.6303 0.7286
loop_
_geom_bond_atom_site_label_1
_geom_bond_atom_site_label_2
_geom_bond_site_symmetry_1
_geom_bond_site_symmetry_2
S1 C1 1_555 1_555
S2 C1 1_555 1_555
S3 C1 1_555 1_555
O1 C2 1_555 1_555
O2 C3 1_555 1_555
C2 S2 1_555 1_555
C3 S3 1_555 1_555
C4 O1 1_555 1_555
H1 C4 1_555 1_555
H2 C4 1_555 1_555
C5 O2 1_555 1_555
H3 C5 1_555 1_555
H4 C5 1_555 1_555
C2 C3 1_555 1_555
C4 C5 1_555 1_555

#END
