
#######################################################################
#
#                 Cambridge Crystallographic Data Centre
#                                CCDC 
#
#######################################################################
#
# If this CIF has been generated from an entry in the Cambridge 
# Structural Database, then it will include bibliographic, chemical, 
# crystal, experimental, refinement or atomic coordinate data resulting 
# from the CCDC's data processing and validation procedures.
#
#######################################################################

data_EROMAB
_chemical_name_common            '(2RS,3RS)-2-amino-3-methylpentanoic acid'
_chemical_formula_moiety         'C8 H15 N1 O3'
_chemical_name_systematic        N-acetylisoleucine
_symmetry_cell_setting           orthorhombic
_symmetry_space_group_name_H-M   'P b c a'
_symmetry_Int_Tables_number      61
_space_group_name_Hall           '-P 2ac 2ab'
loop_
_symmetry_equiv_pos_site_id
_symmetry_equiv_pos_as_xyz
1 x,y,z
2 1/2-x,-y,1/2+z
3 1/2+x,1/2-y,-z
4 -x,1/2+y,1/2-z
5 -x,-y,-z
6 1/2+x,y,1/2-z
7 1/2-x,1/2+y,z
8 x,1/2-y,1/2+z
_cell_length_a                   7.0603(11)
_cell_length_b                   9.2687(12)
_cell_length_c                   29.062(4)
_cell_angle_alpha                90
_cell_angle_beta                 90
_cell_angle_gamma                90
_cell_volume                     1901.81
_exptl_crystal_colour            colorless
_exptl_crystal_description       platelet
_cell_formula_units_Z            8
loop_
_atom_site_label
_atom_site_type_symbol
_atom_site_fract_x
_atom_site_fract_y
_atom_site_fract_z
O1 O 1.39541(11) 0.16754(9) 0.64220(3)
O2 O 1.19724(12) 0.26372(9) 0.69415(3)
O3 O 0.84805(11) -0.15715(8) 0.67542(3)
N1 N 0.91168(13) 0.08375(10) 0.67145(3)
C1 C 1.23011(15) 0.17837(11) 0.66374(3)
C2 C 1.08400(15) 0.07395(11) 0.64389(4)
C3 C 1.05642(17) 0.10634(13) 0.59211(4)
C4 C 0.9958(2) 0.26325(15) 0.58455(5)
C5 C 1.0165(3) 0.3144(3) 0.53482(6)
C6 C 0.9173(3) -0.00089(19) 0.57092(5)
C7 C 0.81334(14) -0.02998(11) 0.68695(4)
C8 C 0.65529(16) 0.00067(12) 0.72016(4)
H1 H 1.470(3) 0.233(2) 0.6540(6)
H2 H 1.1317(19) -0.0249(15) 0.6471(5)
H3 H 1.183(3) 0.0924(15) 0.5774(5)
H4 H 0.861(3) 0.273(3) 0.5935(7)
H5 H 1.072(3) 0.330(2) 0.6054(7)
H6 H 0.983(4) 0.416(3) 0.5324(7)
H7 H 1.151(4) 0.309(3) 0.5222(8)
H8 H 0.937(4) 0.253(3) 0.5149(8)
H9 H 0.792(3) 0.015(2) 0.5864(7)
H10 H 0.968(3) -0.108(3) 0.5751(7)
H11 H 0.905(3) 0.014(2) 0.5369(7)
H12 H 0.872(3) 0.1697(17) 0.6808(5)
H13 H 0.681(3) -0.0524(17) 0.7478(6)
H14 H 0.538(3) -0.0394(17) 0.7085(6)
H15 H 0.641(3) 0.1049(17) 0.7266(5)
loop_
_geom_bond_atom_site_label_1
_geom_bond_atom_site_label_2
_geom_bond_site_symmetry_1
_geom_bond_site_symmetry_2
O1 C1 1_555 1_555
O2 C1 1_555 1_555
O3 C7 1_555 1_555
N1 C2 1_555 1_555
C1 C2 1_555 1_555
C2 C3 1_555 1_555
C3 C4 1_555 1_555
C4 C5 1_555 1_555
C5 H6 1_555 1_555
C6 C3 1_555 1_555
C7 N1 1_555 1_555
C8 C7 1_555 1_555
H1 O1 1_555 1_555
H2 C2 1_555 1_555
H3 C3 1_555 1_555
H4 C4 1_555 1_555
H5 C4 1_555 1_555
H7 C5 1_555 1_555
H8 C5 1_555 1_555
H9 C6 1_555 1_555
H10 C6 1_555 1_555
H11 C6 1_555 1_555
H12 N1 1_555 1_555
H13 C8 1_555 1_555
H14 C8 1_555 1_555
H15 C8 1_555 1_555

#END
