
#######################################################################
#
#                 Cambridge Crystallographic Data Centre
#                                CCDC 
#
#######################################################################
#
# If this CIF has been generated from an entry in the Cambridge 
# Structural Database, then it will include bibliographic, chemical, 
# crystal, experimental, refinement or atomic coordinate data resulting 
# from the CCDC's data processing and validation procedures.
#
#######################################################################

data_ERONIJ
_chemical_name_common            'Raspberry ketone'
_chemical_formula_moiety         'C10 H12 O2'
_chemical_name_systematic        4-(4-Hydroxyphenyl)butan-2-one
_symmetry_cell_setting           orthorhombic
_symmetry_space_group_name_H-M   'P n a 21'
_symmetry_Int_Tables_number      33
_space_group_name_Hall           'P 2c -2n'
loop_
_symmetry_equiv_pos_site_id
_symmetry_equiv_pos_as_xyz
1 x,y,z
2 -x,-y,1/2+z
3 1/2+x,1/2-y,z
4 1/2-x,1/2+y,1/2+z
_cell_length_a                   14.0242(13)
_cell_length_b                   12.4450(12)
_cell_length_c                   5.2706(5)
_cell_angle_alpha                90
_cell_angle_beta                 90
_cell_angle_gamma                90
_cell_volume                     919.884
_exptl_crystal_colour            colorless
_exptl_crystal_description       block
_cell_formula_units_Z            4
loop_
_atom_site_label
_atom_site_type_symbol
_atom_site_fract_x
_atom_site_fract_y
_atom_site_fract_z
C1 C 0.38120(16) 0.29404(19) 0.1522(5)
C2 C 0.38140(19) 0.3629(2) 0.3552(6)
H1 H 0.3252 0.3966 0.4048
C3 C 0.46513(19) 0.3825(2) 0.4863(5)
H2 H 0.4644 0.4300 0.6224
C4 C 0.54959(17) 0.33317(19) 0.4198(5)
C5 C 0.54753(17) 0.2641(2) 0.2135(6)
H3 H 0.6035 0.2298 0.1648
C6 C 0.46503(18) 0.2445(2) 0.0779(6)
H4 H 0.4658 0.1987 -0.0614
C7 C 0.6424(2) 0.3537(2) 0.5558(5)
H5 H 0.6750 0.2860 0.5835
H6 H 0.6293 0.3854 0.7203
C8 C 0.70702(18) 0.4287(2) 0.4049(5)
H7 H 0.7130 0.4007 0.2338
H8 H 0.6764 0.4984 0.3933
C9 C 0.80525(18) 0.4441(2) 0.5120(5)
C10 C 0.8711(2) 0.5121(3) 0.3595(8)
H9 H 0.9327 0.5135 0.4389
H10 H 0.8462 0.5839 0.3495
H11 H 0.8768 0.4828 0.1917
O1 O 0.29729(13) 0.27805(18) 0.0238(5)
H12 H 0.303(3) 0.230(4) -0.105(10)
O2 O 0.82901(17) 0.4040(2) 0.7093(5)
loop_
_geom_bond_atom_site_label_1
_geom_bond_atom_site_label_2
_geom_bond_site_symmetry_1
_geom_bond_site_symmetry_2
C1 C2 1_555 1_555
C2 H1 1_555 1_555
C3 C2 1_555 1_555
H2 C3 1_555 1_555
C4 C3 1_555 1_555
C5 C4 1_555 1_555
H3 C5 1_555 1_555
C6 C1 1_555 1_555
H4 C6 1_555 1_555
C7 C4 1_555 1_555
H5 C7 1_555 1_555
H6 C7 1_555 1_555
C8 C7 1_555 1_555
H7 C8 1_555 1_555
H8 C8 1_555 1_555
C9 C8 1_555 1_555
C10 C9 1_555 1_555
H9 C10 1_555 1_555
H10 C10 1_555 1_555
H11 C10 1_555 1_555
O1 C1 1_555 1_555
H12 O1 1_555 1_555
O2 C9 1_555 1_555
C5 C6 1_555 1_555

#END
