
#######################################################################
#
#                 Cambridge Crystallographic Data Centre
#                                CCDC 
#
#######################################################################
#
# If this CIF has been generated from an entry in the Cambridge 
# Structural Database, then it will include bibliographic, chemical, 
# crystal, experimental, refinement or atomic coordinate data resulting 
# from the CCDC's data processing and validation procedures.
#
#######################################################################

data_EROPAD
_chemical_formula_moiety         'C14 H19 I1'
_chemical_name_systematic        1-(4-(Iodomethyl)cyclohexyl)-4-methylbenzene
_symmetry_cell_setting           monoclinic
_symmetry_space_group_name_H-M   'P 21/c'
_symmetry_Int_Tables_number      14
_space_group_name_Hall           '-P 2ybc'
loop_
_symmetry_equiv_pos_site_id
_symmetry_equiv_pos_as_xyz
1 x,y,z
2 -x,1/2+y,1/2-z
3 -x,-y,-z
4 x,1/2-y,1/2+z
_cell_length_a                   17.593(4)
_cell_length_b                   5.7722(12)
_cell_length_c                   13.319(3)
_cell_angle_alpha                90
_cell_angle_beta                 105.71(3)
_cell_angle_gamma                90
_cell_volume                     1302.02
_exptl_crystal_colour            colorless
_exptl_crystal_description       prism
_chemical_melting_point          '318-319 K'
_cell_formula_units_Z            4
_exptl_crystal_recrystallization_method ethanol
loop_
_atom_site_label
_atom_site_type_symbol
_atom_site_fract_x
_atom_site_fract_y
_atom_site_fract_z
I1 I 0.069728(10) 1.27167(3) 0.586560(14)
C1 C 0.08795(15) 0.9476(4) 0.6716(2)
H1 H 0.0358 0.8786 0.6681
H2 H 0.1162 0.8396 0.6364
C2 C 0.13409(14) 0.9681(4) 0.78479(19)
H3 H 0.1054 1.0764 0.8205
C3 C 0.13670(19) 0.7272(4) 0.8348(2)
H4 H 0.0821 0.6747 0.8291
H5 H 0.1610 0.6158 0.7961
C4 C 0.18367(18) 0.7284(4) 0.9493(2)
H6 H 0.1856 0.5694 0.9777
H7 H 0.1567 0.8288 0.9892
C5 C 0.26817(15) 0.8169(4) 0.9629(2)
H8 H 0.2931 0.7121 0.9211
C6 C 0.26524(15) 1.0592(4) 0.9148(2)
H9 H 0.3197 1.1131 0.9206
H10 H 0.2407 1.1686 0.9540
C7 C 0.21762(14) 1.0587(4) 0.79919(19)
H11 H 0.2152 1.2184 0.7713
H12 H 0.2450 0.9606 0.7589
C8 C 0.31731(17) 0.8004(4) 1.0745(2)
C9 C 0.36274(15) 0.6031(4) 1.1085(2)
H13 H 0.3623 0.4812 1.0605
C10 C 0.40846(15) 0.5803(5) 1.2105(2)
H14 H 0.4389 0.4438 1.2307
C11 C 0.41059(18) 0.7517(4) 1.2830(3)
C12 C 0.36493(16) 0.9486(4) 1.2509(2)
H15 H 0.3654 1.0694 1.2995
C13 C 0.31856(15) 0.9713(4) 1.1484(2)
H16 H 0.2872 1.1063 1.1287
C14 C 0.4619(2) 0.7254(5) 1.3942(3)
H17 H 0.4348 0.6273 1.4337
H18 H 0.4719 0.8782 1.4272
H19 H 0.5123 0.6535 1.3935
loop_
_geom_bond_atom_site_label_1
_geom_bond_atom_site_label_2
_geom_bond_site_symmetry_1
_geom_bond_site_symmetry_2
I1 C1 1_555 1_555
C1 H1 1_555 1_555
H2 C1 1_555 1_555
C2 C1 1_555 1_555
H3 C2 1_555 1_555
C3 C2 1_555 1_555
H4 C3 1_555 1_555
H5 C3 1_555 1_555
C4 C3 1_555 1_555
H6 C4 1_555 1_555
H7 C4 1_555 1_555
C5 C4 1_555 1_555
H8 C5 1_555 1_555
C6 C5 1_555 1_555
H9 C6 1_555 1_555
H10 C6 1_555 1_555
C7 C2 1_555 1_555
H11 C7 1_555 1_555
H12 C7 1_555 1_555
C8 C5 1_555 1_555
C9 C8 1_555 1_555
H13 C9 1_555 1_555
C10 C9 1_555 1_555
H14 C10 1_555 1_555
C11 C10 1_555 1_555
C12 C11 1_555 1_555
H15 C12 1_555 1_555
C13 C8 1_555 1_555
H16 C13 1_555 1_555
C14 C11 1_555 1_555
H17 C14 1_555 1_555
H18 C14 1_555 1_555
H19 C14 1_555 1_555
C6 C7 1_555 1_555
C12 C13 1_555 1_555

#END
