
#######################################################################
#
#                 Cambridge Crystallographic Data Centre
#                                CCDC 
#
#######################################################################
#
# If this CIF has been generated from an entry in the Cambridge 
# Structural Database, then it will include bibliographic, chemical, 
# crystal, experimental, refinement or atomic coordinate data resulting 
# from the CCDC's data processing and validation procedures.
#
#######################################################################

data_EROPIM
_chemical_compound_source        'Fusarium proliferatum'
_chemical_name_common            'Enniatin B methanol solvate hydrate'
_chemical_formula_moiety         'C33 H57 N3 O9,0.67(C1 H4 O1),0.33(H2 O1)'
_chemical_name_systematic        
'3,6,9,12,15,18-hexaisopropyl-4,10,16-trimethyl-1,7,13-trioxa-4,10,16-triazacyclooctadecane-2,5,8,11,14,17-hexone methanol solvate hydrate'
_chemical_properties_biological  'antitumour activity'
_symmetry_cell_setting           rhombohedral
_symmetry_space_group_name_H-M   'R 3'
_symmetry_Int_Tables_number      146
_space_group_name_Hall           'R 3'
loop_
_symmetry_equiv_pos_site_id
_symmetry_equiv_pos_as_xyz
1 x,y,z
2 -y,x-y,z
3 -x+y,-x,z
4 2/3+x,1/3+y,1/3+z
5 2/3-y,1/3+x-y,1/3+z
6 2/3-x+y,1/3-x,1/3+z
7 1/3+x,2/3+y,2/3+z
8 1/3-y,2/3+x-y,2/3+z
9 1/3-x+y,2/3-x,2/3+z
_cell_length_a                   14.9371(4)
_cell_length_b                   14.9371(4)
_cell_length_c                   14.1547(4)
_cell_angle_alpha                90
_cell_angle_beta                 90
_cell_angle_gamma                120
_cell_volume                     2735.04
_cell_formula_units_Z            3
loop_
_atom_site_label
_atom_site_type_symbol
_atom_site_fract_x
_atom_site_fract_y
_atom_site_fract_z
O4 O 0.6667 0.3333 0.7377(4)
C12 C 0.6667 0.3333 0.6327(4)
H20 H 0.642(3) 0.379(3) 0.6099(17)
H20A H 0.621(3) 0.263(4) 0.6099(17)
H20B H 0.737(4) 0.358(3) 0.6099(17)
N1 N 0.42854(13) 0.17244(13) 0.82441(11)
O1 O 0.58808(10) 0.09036(10) 0.76048(9)
O2 O 0.62433(11) 0.08755(13) 0.91470(10)
O3 O 0.42486(14) 0.12664(13) 0.67145(10)
C1 C 0.44217(14) 0.11876(15) 0.75435(13)
C2 C 0.65153(15) 0.10524(14) 0.83337(13)
C3 C 0.47781(14) 0.04171(15) 0.78303(13)
H1 H 0.4669 0.0271 0.8523
C4 C 0.41799(16) -0.05914(15) 0.72702(15)
H2 H 0.4198 -0.0426 0.6583
C5 C 0.38177(14) 0.23659(14) 0.80139(13)
H3 H 0.3720 0.2357 0.7314
C6 C 0.27551(15) 0.19529(14) 0.85042(14)
H4 H 0.2865 0.1989 0.9203
C7 C 0.20169(17) 0.08285(16) 0.82362(16)
H5 H 0.1907 0.0776 0.7551
H6 H 0.1354 0.0585 0.8558
H7 H 0.2315 0.0402 0.8427
C8 C 0.30550(16) -0.11499(16) 0.76135(16)
H8 H 0.3030 -0.1348 0.8277
H9 H 0.2647 -0.1771 0.7230
H10 H 0.2769 -0.0688 0.7552
C9 C 0.22971(15) 0.26402(16) 0.82485(15)
H11 H 0.2736 0.3334 0.8508
H12 H 0.1600 0.2342 0.8514
H13 H 0.2263 0.2683 0.7560
C10 C 0.46448(17) -0.12876(16) 0.74111(16)
H14 H 0.5346 -0.0949 0.7150
H15 H 0.4217 -0.1947 0.7086
H16 H 0.4670 -0.1414 0.8087
C11 C 0.45716(18) 0.16858(17) 0.92288(13)
H17 H 0.4213 0.0967 0.9448
H18 H 0.4373 0.2096 0.9625
H19 H 0.5320 0.1968 0.9271
N1A N 0.82756(13) 0.25610(18) 0.82441(11)
O1A O 0.90964(10) 0.49772(14) 0.76048(9)
O2A O 0.91245(13) 0.53678(17) 0.91470(10)
O3A O 0.87336(13) 0.29822(19) 0.67145(10)
C1A C 0.88124(15) 0.32341(21) 0.75435(13)
C2A C 0.89476(14) 0.54629(21) 0.83337(13)
C3A C 0.95829(15) 0.43610(21) 0.78303(13)
H1A H 0.9729 0.4398 0.8523
C4A C 1.05914(15) 0.47713(22) 0.72702(15)
H2A H 1.0426 0.4624 0.6583
C5A C 0.76341(14) 0.14518(20) 0.80139(13)
H3A H 0.7643 0.1363 0.7314
C6A C 0.80471(14) 0.08022(21) 0.85042(14)
H4A H 0.8011 0.0876 0.9203
C7A C 0.91715(16) 0.11884(23) 0.82362(16)
H5A H 0.9224 0.1131 0.7551
H6A H 0.9415 0.0769 0.8558
H7A H 0.9598 0.1913 0.8427
C8A C 1.11499(16) 0.42049(23) 0.76135(16)
H8A H 1.1348 0.4378 0.8277
H9A H 1.1771 0.4418 0.7230
H10A H 1.0688 0.3457 0.7552
C9A C 0.73598(16) -0.03431(22) 0.82485(15)
H11A H 0.6666 -0.0598 0.8508
H12A H 0.7658 -0.0742 0.8514
H13A H 0.7317 -0.0420 0.7560
C10A C 1.12876(16) 0.59324(23) 0.74111(16)
H14A H 1.0949 0.6295 0.7150
H15A H 1.1947 0.6164 0.7086
H16A H 1.1414 0.6084 0.8087
C11A C 0.83142(17) 0.28858(25) 0.92288(13)
H17A H 0.9033 0.3246 0.9448
H18A H 0.7904 0.2277 0.9625
H19A H 0.8032 0.3352 0.9271
N1B N 0.74390(18) 0.57146(13) 0.82441(11)
O1B O 0.50228(14) 0.41192(10) 0.76048(9)
O2B O 0.46322(17) 0.37567(11) 0.91470(10)
O3B O 0.70178(19) 0.57514(14) 0.67145(10)
C1B C 0.67659(21) 0.55783(14) 0.75435(13)
C2B C 0.45371(21) 0.34847(15) 0.83337(13)
C3B C 0.56390(21) 0.52219(14) 0.78303(13)
H1B H 0.5602 0.5331 0.8523
C4B C 0.52287(22) 0.58201(16) 0.72702(15)
H2B H 0.5376 0.5802 0.6583
C5B C 0.85482(20) 0.61823(14) 0.80139(13)
H3B H 0.8637 0.6280 0.7314
C6B C 0.91978(21) 0.72449(15) 0.85042(14)
H4B H 0.9124 0.7135 0.9203
C7B C 0.88116(23) 0.79831(17) 0.82362(16)
H5B H 0.8869 0.8093 0.7551
H6B H 0.9231 0.8646 0.8558
H7B H 0.8087 0.7685 0.8427
C8B C 0.57951(23) 0.69450(16) 0.76135(16)
H8B H 0.5622 0.6970 0.8277
H9B H 0.5582 0.7353 0.7230
H10B H 0.6543 0.7231 0.7552
C9B C 1.03431(22) 0.77029(15) 0.82485(15)
H11B H 1.0598 0.7264 0.8508
H12B H 1.0742 0.8400 0.8514
H13B H 1.0420 0.7737 0.7560
C10B C 0.40676(23) 0.53552(17) 0.74111(16)
H14B H 0.3705 0.4654 0.7150
H15B H 0.3836 0.5783 0.7086
H16B H 0.3916 0.5330 0.8087
C11B C 0.71142(25) 0.54284(18) 0.92288(13)
H17B H 0.6754 0.5787 0.9448
H18B H 0.7723 0.5627 0.9625
H19B H 0.6648 0.4680 0.9271
O5? O 0.6667 0.3333 0.8087(4)
loop_
_geom_bond_atom_site_label_1
_geom_bond_atom_site_label_2
_geom_bond_site_symmetry_1
_geom_bond_site_symmetry_2
N1 C1 1_555 1_555
O1 C2 1_555 1_555
O2 C2 1_555 1_555
O3 C1 1_555 1_555
C1 C3 1_555 1_555
C2 C5A 1_555 1_555
C3 O1 1_555 1_555
H1 C3 1_555 1_555
C4 C3 1_555 1_555
H2 C4 1_555 1_555
C5 N1 1_555 1_555
H3 C5 1_555 1_555
C6 C5 1_555 1_555
H4 C6 1_555 1_555
C7 C6 1_555 1_555
H5 C7 1_555 1_555
H6 C7 1_555 1_555
H7 C7 1_555 1_555
C8 C4 1_555 1_555
H8 C8 1_555 1_555
H9 C8 1_555 1_555
H10 C8 1_555 1_555
C9 C6 1_555 1_555
H11 C9 1_555 1_555
H12 C9 1_555 1_555
H13 C9 1_555 1_555
C10 C4 1_555 1_555
H14 C10 1_555 1_555
H15 C10 1_555 1_555
H16 C10 1_555 1_555
C11 N1 1_555 1_555
H17 C11 1_555 1_555
H18 C11 1_555 1_555
H19 C11 1_555 1_555
O4 C12 1_555 1_555
C12 H20 1_555 1_555
N1A C1A 1_555 1_555
O1A C2A 1_555 1_555
O2A C2A 1_555 1_555
O3A C1A 1_555 1_555
C1A C3A 1_555 1_555
C2A C5B 1_555 1_555
C3A O1A 1_555 1_555
H1A C3A 1_555 1_555
C4A C3A 1_555 1_555
H2A C4A 1_555 1_555
C5A N1A 1_555 1_555
H3A C5A 1_555 1_555
C6A C5A 1_555 1_555
H4A C6A 1_555 1_555
C7A C6A 1_555 1_555
H5A C7A 1_555 1_555
H6A C7A 1_555 1_555
H7A C7A 1_555 1_555
C8A C4A 1_555 1_555
H8A C8A 1_555 1_555
H9A C8A 1_555 1_555
H10A C8A 1_555 1_555
C9A C6A 1_555 1_555
H11A C9A 1_555 1_555
H12A C9A 1_555 1_555
H13A C9A 1_555 1_555
C10A C4A 1_555 1_555
H14A C10A 1_555 1_555
H15A C10A 1_555 1_555
H16A C10A 1_555 1_555
C11A N1A 1_555 1_555
H17A C11A 1_555 1_555
H18A C11A 1_555 1_555
H19A C11A 1_555 1_555
N1B C1B 1_555 1_555
O1B C2B 1_555 1_555
O2B C2B 1_555 1_555
O3B C1B 1_555 1_555
C1B C3B 1_555 1_555
C2B C5 1_555 1_555
C3B O1B 1_555 1_555
H1B C3B 1_555 1_555
C4B C3B 1_555 1_555
H2B C4B 1_555 1_555
C5B N1B 1_555 1_555
H3B C5B 1_555 1_555
C6B C5B 1_555 1_555
H4B C6B 1_555 1_555
C7B C6B 1_555 1_555
H5B C7B 1_555 1_555
H6B C7B 1_555 1_555
H7B C7B 1_555 1_555
C8B C4B 1_555 1_555
H8B C8B 1_555 1_555
H9B C8B 1_555 1_555
H10B C8B 1_555 1_555
C9B C6B 1_555 1_555
H11B C9B 1_555 1_555
H12B C9B 1_555 1_555
H13B C9B 1_555 1_555
C10B C4B 1_555 1_555
H14B C10B 1_555 1_555
H15B C10B 1_555 1_555
H16B C10B 1_555 1_555
C11B N1B 1_555 1_555
H17B C11B 1_555 1_555
H18B C11B 1_555 1_555
H19B C11B 1_555 1_555
H20A C12 1_555 1_555
H20B C12 1_555 1_555

#END
