
#######################################################################
#
#                 Cambridge Crystallographic Data Centre
#                                CCDC 
#
#######################################################################
#
# If this CIF has been generated from an entry in the Cambridge 
# Structural Database, then it will include bibliographic, chemical, 
# crystal, experimental, refinement or atomic coordinate data resulting 
# from the CCDC's data processing and validation procedures.
#
#######################################################################

data_ERORUA
_chemical_formula_moiety         'C20 H20 N1 1+,B1 F4 1-'
_chemical_name_systematic        
'1-benzyl-9-methyl-2,3-dihydro-1H-pyrido[3,2,1-ij]quinolinium tetrafluoroborate'
_symmetry_cell_setting           triclinic
_symmetry_space_group_name_H-M   'P -1'
_symmetry_Int_Tables_number      2
_space_group_name_Hall           '-P 1'
loop_
_symmetry_equiv_pos_site_id
_symmetry_equiv_pos_as_xyz
1 x,y,z
2 -x,-y,-z
_cell_length_a                   9.0489(7)
_cell_length_b                   10.2453(9)
_cell_length_c                   10.8052(9)
_cell_angle_alpha                78.224(2)
_cell_angle_beta                 65.746(2)
_cell_angle_gamma                73.570(2)
_cell_volume                     871.585
_exptl_crystal_colour            yellow
_exptl_crystal_description       Tabular
_cell_formula_units_Z            2
loop_
_atom_site_label
_atom_site_type_symbol
_atom_site_fract_x
_atom_site_fract_y
_atom_site_fract_z
C1 C 0.3809(5) 0.6370(4) 0.6622(4)
H1 H 0.4588 0.6048 0.5739
C2 C 0.2818(6) 0.7787(4) 0.6333(5)
H2 H 0.3532 0.8433 0.6007
H3 H 0.2434 0.7769 0.5622
C3 C 0.1340(6) 0.8255(4) 0.7595(5)
H4 H 0.1721 0.8308 0.8298
H5 H 0.0736 0.9159 0.7381
C4 C -0.1390(6) 0.7763(5) 0.8716(5)
H6 H -0.1792 0.8696 0.8797
C5 C -0.2490(6) 0.6910(6) 0.9238(4)
H7 H -0.3622 0.7262 0.9671
C6 C -0.1908(6) 0.5573(6) 0.9115(4)
H8 H -0.2646 0.4995 0.9455
C7 C -0.0187(5) 0.5019(4) 0.8477(4)
C8 C 0.0493(6) 0.3595(5) 0.8360(4)
H9 H -0.0216 0.2993 0.8698
C9 C 0.2164(6) 0.3098(4) 0.7760(4)
C10 C 0.3194(5) 0.4036(4) 0.7235(4)
H10 H 0.4334 0.3699 0.6824
C11 C 0.2630(5) 0.5402(4) 0.7290(4)
C12 C 0.0899(5) 0.5918(4) 0.7950(3)
C13 C 0.2868(7) 0.1600(5) 0.7654(6)
H11 H 0.3381 0.1432 0.6711
H12 H 0.1993 0.1114 0.8119
H13 H 0.3684 0.1291 0.8065
C14 C 0.4826(5) 0.6338(4) 0.7446(4)
H14 H 0.5288 0.5394 0.7697
H15 H 0.4106 0.6761 0.8279
C15 C 0.6233(6) 0.7077(4) 0.6664(4)
C16 C 0.7705(6) 0.6442(5) 0.5705(5)
H16 H 0.7833 0.5553 0.5538
C17 C 0.8980(6) 0.7113(6) 0.4996(5)
H17 H 0.9973 0.6672 0.4370
C18 C 0.8777(7) 0.8436(6) 0.5218(5)
H18 H 0.9635 0.8891 0.4735
C19 C 0.7349(7) 0.9080(5) 0.6129(5)
H19 H 0.7214 0.9979 0.6269
C20 C 0.6081(6) 0.8394(4) 0.6855(5)
H20 H 0.5101 0.8841 0.7488
N1 N 0.0221(4) 0.7283(3) 0.8103(3)
B1 B 0.7214(14) 0.1842(12) 0.8519(13)
F1 F 0.8640(8) 0.1117(7) 0.8309(11)
F2 F 0.7065(9) 0.2420(10) 0.7316(8)
F3 F 0.6670(14) 0.2738(11) 0.9296(10)
F4 F 0.6283(12) 0.0934(11) 0.8776(12)
B2? B 0.7125(18) 0.1767(13) 0.8783(14)
F5? F 0.7896(13) 0.1264(9) 0.9558(12)
F6? F 0.7888(16) 0.1302(14) 0.7662(11)
F7? F 0.654(2) 0.3034(12) 0.8761(15)
F8? F 0.5784(14) 0.1134(17) 0.9369(15)
loop_
_geom_bond_atom_site_label_1
_geom_bond_atom_site_label_2
_geom_bond_site_symmetry_1
_geom_bond_site_symmetry_2
C1 H1 1_555 1_555
C2 C1 1_555 1_555
H2 C2 1_555 1_555
H3 C2 1_555 1_555
C3 C2 1_555 1_555
H4 C3 1_555 1_555
H5 C3 1_555 1_555
C4 H6 1_555 1_555
C5 C4 1_555 1_555
H7 C5 1_555 1_555
C6 C5 1_555 1_555
H8 C6 1_555 1_555
C7 C6 1_555 1_555
C8 C7 1_555 1_555
H9 C8 1_555 1_555
C9 C8 1_555 1_555
C10 C9 1_555 1_555
H10 C10 1_555 1_555
C11 C1 1_555 1_555
C12 C7 1_555 1_555
C13 C9 1_555 1_555
H11 C13 1_555 1_555
H12 C13 1_555 1_555
H13 C13 1_555 1_555
C14 C1 1_555 1_555
H14 C14 1_555 1_555
H15 C14 1_555 1_555
C15 C14 1_555 1_555
C16 C15 1_555 1_555
H16 C16 1_555 1_555
C17 C16 1_555 1_555
H17 C17 1_555 1_555
C18 C17 1_555 1_555
H18 C18 1_555 1_555
C19 C18 1_555 1_555
H19 C19 1_555 1_555
C20 C15 1_555 1_555
H20 C20 1_555 1_555
N1 C3 1_555 1_555
B1 F1 1_555 1_555
F2 B1 1_555 1_555
F3 B1 1_555 1_555
F4 B1 1_555 1_555
C4 N1 1_555 1_555
C10 C11 1_555 1_555
C11 C12 1_555 1_555
C12 N1 1_555 1_555
C19 C20 1_555 1_555

#END
