
#######################################################################
#
#                 Cambridge Crystallographic Data Centre
#                                CCDC 
#
#######################################################################
#
# If this CIF has been generated from an entry in the Cambridge 
# Structural Database, then it will include bibliographic, chemical, 
# crystal, experimental, refinement or atomic coordinate data resulting 
# from the CCDC's data processing and validation procedures.
#
#######################################################################

data_EROVOX
_chemical_formula_moiety         'C20 H15 N5 O3'
_chemical_name_systematic        
6-Amino-3-methyl-4-(3-nitrophenyl)-1-phenyl-1H,4H-pyrano[2,3-c]pyrazole-5-carbonitrile
_symmetry_cell_setting           monoclinic
_symmetry_space_group_name_H-M   'P 21/c'
_symmetry_Int_Tables_number      14
_space_group_name_Hall           '-P 2ybc'
loop_
_symmetry_equiv_pos_site_id
_symmetry_equiv_pos_as_xyz
1 x,y,z
2 -x,1/2+y,1/2-z
3 -x,-y,-z
4 x,1/2-y,1/2+z
_cell_length_a                   9.5089(8)
_cell_length_b                   13.9137(11)
_cell_length_c                   13.3747(12)
_cell_angle_alpha                90
_cell_angle_beta                 96.2630(10)
_cell_angle_gamma                90
_cell_volume                     1758.96
_exptl_crystal_colour            colorless
_exptl_crystal_description       plate
_cell_formula_units_Z            4
_exptl_crystal_recrystallization_method ethanol
loop_
_atom_site_label
_atom_site_type_symbol
_atom_site_fract_x
_atom_site_fract_y
_atom_site_fract_z
N1 N 0.71933(19) 0.52908(13) 0.63123(13)
N2 N 0.8060(2) 0.46605(13) 0.58687(15)
N3 N 0.3851(2) 0.75499(15) 0.52319(15)
H1 H 0.3339 0.7879 0.4785
H2 H 0.3776 0.7641 0.5860
N4 N 0.3550(2) 0.74422(18) 0.24916(17)
N5 N 1.0378(2) 0.80263(17) 0.3702(2)
O1 O 0.54812(16) 0.64832(11) 0.57873(10)
O2 O 1.0555(2) 0.79273(15) 0.46155(19)
O3 O 1.1104(2) 0.85581(18) 0.3254(2)
C1 C 0.6433(2) 0.57976(15) 0.55812(16)
C2 C 0.6769(2) 0.55266(16) 0.46700(16)
C3 C 0.7801(2) 0.48064(16) 0.48860(18)
C4 C 0.8571(3) 0.42635(18) 0.4160(2)
H3 H 0.9190 0.4691 0.3853
H4 H 0.7903 0.3987 0.3651
H5 H 0.9118 0.3761 0.4508
C5 C 0.4761(2) 0.68993(16) 0.49508(17)
C6 C 0.5006(2) 0.66700(16) 0.40010(16)
C7 C 0.6133(2) 0.59767(16) 0.37153(16)
H6 H 0.5673 0.5474 0.3283
C8 C 0.7221(2) 0.64836(16) 0.31459(16)
C9 C 0.8293(2) 0.70132(16) 0.36589(17)
H7 H 0.8368 0.7053 0.4357
C10 C 0.9247(2) 0.74805(16) 0.31350(19)
C11 C 0.9187(3) 0.74412(19) 0.2108(2)
H8 H 0.9848 0.7762 0.1767
C12 C 0.8126(3) 0.6916(2) 0.1602(2)
H9 H 0.8063 0.6875 0.0904
C13 C 0.7148(3) 0.64464(19) 0.21116(17)
H10 H 0.6426 0.6098 0.1752
C14 C 0.4173(3) 0.71120(18) 0.31880(18)
C15 C 0.7217(3) 0.52889(16) 0.73764(17)
C16 C 0.6181(3) 0.57274(18) 0.78491(18)
H11 H 0.5454 0.6060 0.7476
C17 C 0.6223(4) 0.5672(2) 0.8885(2)
H12 H 0.5521 0.5967 0.9208
C18 C 0.7290(4) 0.5184(2) 0.9436(2)
H13 H 0.7303 0.5137 1.0131
C19 C 0.8331(4) 0.4768(2) 0.8965(2)
H14 H 0.9066 0.4449 0.9343
C20 C 0.8312(3) 0.4813(2) 0.7935(2)
H15 H 0.9028 0.4527 0.7619
loop_
_geom_bond_atom_site_label_1
_geom_bond_atom_site_label_2
_geom_bond_site_symmetry_1
_geom_bond_site_symmetry_2
N1 N2 1_555 1_555
N2 C3 1_555 1_555
N3 H1 1_555 1_555
H2 N3 1_555 1_555
N4 C14 1_555 1_555
N5 O2 1_555 1_555
O1 C1 1_555 1_555
O3 N5 1_555 1_555
C1 N1 1_555 1_555
C2 C1 1_555 1_555
C3 C2 1_555 1_555
C4 C3 1_555 1_555
H3 C4 1_555 1_555
H4 C4 1_555 1_555
H5 C4 1_555 1_555
C5 N3 1_555 1_555
C6 C5 1_555 1_555
C7 C2 1_555 1_555
H6 C7 1_555 1_555
C8 C7 1_555 1_555
C9 C8 1_555 1_555
H7 C9 1_555 1_555
C10 N5 1_555 1_555
C11 C10 1_555 1_555
H8 C11 1_555 1_555
C12 C11 1_555 1_555
H9 C12 1_555 1_555
C13 C8 1_555 1_555
H10 C13 1_555 1_555
C14 C6 1_555 1_555
C15 N1 1_555 1_555
C16 C15 1_555 1_555
H11 C16 1_555 1_555
C17 C16 1_555 1_555
H12 C17 1_555 1_555
C18 C17 1_555 1_555
H13 C18 1_555 1_555
C19 C18 1_555 1_555
H14 C19 1_555 1_555
C20 C15 1_555 1_555
H15 C20 1_555 1_555
O1 C5 1_555 1_555
C6 C7 1_555 1_555
C9 C10 1_555 1_555
C12 C13 1_555 1_555
C19 C20 1_555 1_555

#END
