
#######################################################################
#
#                 Cambridge Crystallographic Data Centre
#                                CCDC 
#
#######################################################################
#
# If this CIF has been generated from an entry in the Cambridge 
# Structural Database, then it will include bibliographic, chemical, 
# crystal, experimental, refinement or atomic coordinate data resulting 
# from the CCDC's data processing and validation procedures.
#
#######################################################################

data_EROYIU
_chemical_formula_moiety         'C12 H10 N2 O3'
_chemical_name_systematic        1-(2-Nitrobenzyl)-1H-pyrrole-2-carbaldehyde
_symmetry_cell_setting           triclinic
_symmetry_space_group_name_H-M   'P -1'
_symmetry_Int_Tables_number      2
_space_group_name_Hall           '-P 1'
loop_
_symmetry_equiv_pos_site_id
_symmetry_equiv_pos_as_xyz
1 x,y,z
2 -x,-y,-z
_cell_length_a                   7.2643(8)
_cell_length_b                   8.3072(10)
_cell_length_c                   9.2570(12)
_cell_angle_alpha                104.10(2)
_cell_angle_beta                 96.463(11)
_cell_angle_gamma                96.92(2)
_cell_volume                     531.971
_exptl_crystal_colour            colorless
_exptl_crystal_description       prism
_cell_formula_units_Z            2
loop_
_atom_site_label
_atom_site_type_symbol
_atom_site_fract_x
_atom_site_fract_y
_atom_site_fract_z
O1 O 0.73782(17) 0.83214(12) 0.55982(12)
O2 O 0.80539(16) 0.77297(12) 0.33569(12)
O3 O 0.39124(13) 0.35491(12) 0.08896(11)
N1 N 0.76728(15) 0.73149(14) 0.44833(13)
N2 N 0.78470(15) 0.30999(13) 0.04974(12)
C1 C 0.75954(17) 0.55405(15) 0.45094(15)
C2 C 0.73377(18) 0.52045(17) 0.58762(15)
H1 H 0.7209 0.6085 0.6714
C3 C 0.72705(19) 0.35811(18) 0.60071(16)
H2 H 0.7088 0.3334 0.6935
C4 C 0.74712(19) 0.23132(17) 0.47785(16)
H3 H 0.7449 0.1196 0.4869
C5 C 0.77038(18) 0.26669(16) 0.34158(16)
H4 H 0.7827 0.1777 0.2583
C6 C 0.77633(17) 0.42904(16) 0.32299(14)
C7 C 0.79970(19) 0.46275(15) 0.17131(14)
H5 H 0.7028 0.5293 0.1451
H6 H 0.9238 0.5311 0.1800
C8 C 0.93194(19) 0.24383(17) -0.00619(15)
H7 H 1.0605 0.2868 0.0300
C9 C 0.86490(19) 0.10454(17) -0.12366(15)
H8 H 0.9382 0.0351 -0.1829
C10 C 0.66954(19) 0.08388(15) -0.14002(15)
H9 H 0.5857 -0.0025 -0.2124
C11 C 0.61976(18) 0.21166(15) -0.03203(14)
C12 C 0.43411(19) 0.24082(17) -0.00666(15)
H10 H 0.3335 0.1635 -0.0708
loop_
_geom_bond_atom_site_label_1
_geom_bond_atom_site_label_2
_geom_bond_site_symmetry_1
_geom_bond_site_symmetry_2
O1 N1 1_555 1_555
O2 N1 1_555 1_555
O3 C12 1_555 1_555
N1 C1 1_555 1_555
N2 C7 1_555 1_555
C1 C2 1_555 1_555
C2 H1 1_555 1_555
C3 C2 1_555 1_555
H2 C3 1_555 1_555
C4 C3 1_555 1_555
H3 C4 1_555 1_555
C5 C4 1_555 1_555
H4 C5 1_555 1_555
C6 C1 1_555 1_555
C7 C6 1_555 1_555
H5 C7 1_555 1_555
H6 C7 1_555 1_555
C8 N2 1_555 1_555
H7 C8 1_555 1_555
C9 C8 1_555 1_555
H8 C9 1_555 1_555
C10 C9 1_555 1_555
H9 C10 1_555 1_555
C11 N2 1_555 1_555
C12 C11 1_555 1_555
H10 C12 1_555 1_555
C5 C6 1_555 1_555
C10 C11 1_555 1_555

#END
