
#######################################################################
#
#                 Cambridge Crystallographic Data Centre
#                                CCDC 
#
#######################################################################
#
# If this CIF has been generated from an entry in the Cambridge 
# Structural Database, then it will include bibliographic, chemical, 
# crystal, experimental, refinement or atomic coordinate data resulting 
# from the CCDC's data processing and validation procedures.
#
#######################################################################

data_EROYAN
_chemical_compound_source        'leaves of Callicarpa kwangtungensis'
_chemical_name_common            'Callipene A'
_chemical_formula_moiety         'C20 H30 O5'
_chemical_name_systematic        
'(1R,2S,6R,7R,11S,12S)-11-hydroxy-12-isopropyl-2,6-dimethyl-13,14-dioxatetracyclo[10.2.2.0^1,10^.0^2,7^]hexadec-9-ene-6-carboxylic acid'
_chemical_properties_biological  'inhibits NO production in BV-2 cells'
_symmetry_cell_setting           orthorhombic
_symmetry_space_group_name_H-M   'P 21 21 21'
_symmetry_Int_Tables_number      19
_space_group_name_Hall           'P 2ac 2ab'
loop_
_symmetry_equiv_pos_site_id
_symmetry_equiv_pos_as_xyz
1 x,y,z
2 1/2-x,-y,1/2+z
3 1/2+x,1/2-y,-z
4 -x,1/2+y,1/2-z
_cell_length_a                   10.0970(2)
_cell_length_b                   13.2111(3)
_cell_length_c                   13.5268(3)
_cell_angle_alpha                90
_cell_angle_beta                 90
_cell_angle_gamma                90
_cell_volume                     1804.37
_exptl_crystal_colour            colorless
_exptl_crystal_description       block
_chemical_melting_point          '179-181 deg.C'
_cell_formula_units_Z            4
loop_
_atom_site_label
_atom_site_type_symbol
_atom_site_fract_x
_atom_site_fract_y
_atom_site_fract_z
O1 O 0.36689(14) 0.46705(10) 0.69529(10)
O2 O 0.30574(14) 0.57082(10) 0.69196(11)
O3 O 0.38293(15) 0.56369(11) 0.49680(12)
O4 O 0.2067(2) -0.03490(19) 0.53001(19)
O5 O 0.06025(16) 0.05876(13) 0.60988(12)
C1 C 0.3195(2) 0.26050(15) 0.78974(13)
H1 H 0.3739 0.3065 0.8308
H2 H 0.2255 0.2720 0.8071
C2 C 0.3559(2) 0.15145(16) 0.81424(14)
H3 H 0.3415 0.1387 0.8856
H4 H 0.4508 0.1398 0.7995
C3 C 0.2709(2) 0.07895(14) 0.75324(13)
H5 H 0.1764 0.0900 0.7696
H6 H 0.2936 0.0084 0.7711
C4 C 0.29095(19) 0.09367(13) 0.64078(14)
C5 C 0.26855(18) 0.20781(13) 0.61296(12)
H7 H 0.1719 0.2201 0.6235
C6 C 0.2924(2) 0.22871(13) 0.50302(13)
H8 H 0.3842 0.2090 0.4857
H9 H 0.2312 0.1867 0.4631
C7 C 0.2717(2) 0.33855(15) 0.47784(14)
H10 H 0.2617 0.3570 0.4104
C8 C 0.26675(18) 0.41067(14) 0.54599(13)
C9 C 0.27535(18) 0.39132(13) 0.65574(13)
C10 C 0.34050(18) 0.28695(13) 0.67990(13)
C11 C 0.1398(2) 0.41287(14) 0.70221(14)
H11 H 0.1487 0.4198 0.7748
H12 H 0.0782 0.3563 0.6883
C12 C 0.08584(19) 0.51166(14) 0.65758(14)
H13 H 0.0234 0.4960 0.6033
H14 H 0.0376 0.5505 0.7088
C13 C 0.20133(18) 0.57424(14) 0.61805(14)
C14 C 0.25546(19) 0.52269(14) 0.52408(14)
H15 H 0.1916 0.5331 0.4685
C15 C 0.1712(2) 0.68769(15) 0.60436(16)
H16 H 0.2443 0.7179 0.5642
C16 C 0.1638(3) 0.74536(18) 0.70284(18)
H17 H 0.1425 0.8165 0.6901
H18 H 0.2495 0.7409 0.7367
H19 H 0.0949 0.7154 0.7446
C17 C 0.0414(2) 0.70244(17) 0.54741(17)
H20 H -0.0332 0.6813 0.5889
H21 H 0.0431 0.6614 0.4870
H22 H 0.0313 0.7740 0.5299
C18 C 0.4263(2) 0.04962(16) 0.61093(16)
H23 H 0.4953 0.0777 0.6538
H24 H 0.4453 0.0673 0.5420
H25 H 0.4244 -0.0242 0.6179
C19 C 0.1842(2) 0.03287(15) 0.58688(15)
C20 C 0.4894(2) 0.29447(16) 0.65743(17)
H26 H 0.5308 0.3423 0.7034
H27 H 0.5020 0.3183 0.5895
H28 H 0.5303 0.2277 0.6651
H29 H -0.006(4) 0.015(3) 0.567(3)
H30 H 0.425(4) 0.565(3) 0.554(3)
loop_
_geom_bond_atom_site_label_1
_geom_bond_atom_site_label_2
_geom_bond_site_symmetry_1
_geom_bond_site_symmetry_2
O1 O2 1_555 1_555
O2 C13 1_555 1_555
O3 C14 1_555 1_555
O4 C19 1_555 1_555
O5 C19 1_555 1_555
C1 H1 1_555 1_555
H2 C1 1_555 1_555
C2 C1 1_555 1_555
H3 C2 1_555 1_555
H4 C2 1_555 1_555
C3 C2 1_555 1_555
H5 C3 1_555 1_555
H6 C3 1_555 1_555
C4 C3 1_555 1_555
C5 C4 1_555 1_555
H7 C5 1_555 1_555
C6 C5 1_555 1_555
H8 C6 1_555 1_555
H9 C6 1_555 1_555
C7 C6 1_555 1_555
H10 C7 1_555 1_555
C8 C7 1_555 1_555
C9 O1 1_555 1_555
C10 C1 1_555 1_555
C11 C9 1_555 1_555
H11 C11 1_555 1_555
H12 C11 1_555 1_555
C12 C11 1_555 1_555
H13 C12 1_555 1_555
H14 C12 1_555 1_555
C13 C12 1_555 1_555
C14 C8 1_555 1_555
H15 C14 1_555 1_555
C15 C13 1_555 1_555
H16 C15 1_555 1_555
C16 C15 1_555 1_555
H17 C16 1_555 1_555
H18 C16 1_555 1_555
H19 C16 1_555 1_555
C17 C15 1_555 1_555
H20 C17 1_555 1_555
H21 C17 1_555 1_555
H22 C17 1_555 1_555
C18 C4 1_555 1_555
H23 C18 1_555 1_555
H24 C18 1_555 1_555
H25 C18 1_555 1_555
C19 C4 1_555 1_555
C20 C10 1_555 1_555
H26 C20 1_555 1_555
H27 C20 1_555 1_555
H28 C20 1_555 1_555
H29 O5 1_555 1_555
H30 O3 1_555 1_555
C5 C10 1_555 1_555
C8 C9 1_555 1_555
C9 C10 1_555 1_555
C13 C14 1_555 1_555

#END
