
#######################################################################
#
#                 Cambridge Crystallographic Data Centre
#                                CCDC 
#
#######################################################################
#
# If this CIF has been generated from an entry in the Cambridge 
# Structural Database, then it will include bibliographic, chemical, 
# crystal, experimental, refinement or atomic coordinate data resulting 
# from the CCDC's data processing and validation procedures.
#
#######################################################################

data_EROYOA
_chemical_formula_moiety         'C9 H22 N1 O1 P1'
_chemical_name_systematic        'N,P,P-Triisopropylphosphinic amide'
_symmetry_cell_setting           monoclinic
_symmetry_space_group_name_H-M   'P 21/c'
_symmetry_Int_Tables_number      14
_space_group_name_Hall           '-P 2ybc'
loop_
_symmetry_equiv_pos_site_id
_symmetry_equiv_pos_as_xyz
1 x,y,z
2 -x,1/2+y,1/2-z
3 -x,-y,-z
4 x,1/2-y,1/2+z
_cell_length_a                   15.030(3)
_cell_length_b                   8.4813(17)
_cell_length_c                   10.071(2)
_cell_angle_alpha                90
_cell_angle_beta                 107.36(3)
_cell_angle_gamma                90
_cell_volume                     1225.31
_exptl_crystal_colour            colorless
_exptl_crystal_description       prism
_cell_formula_units_Z            4
loop_
_atom_site_label
_atom_site_type_symbol
_atom_site_fract_x
_atom_site_fract_y
_atom_site_fract_z
C1 C 0.70679(12) 0.5276(2) 0.6731(2)
H1 H 0.6513 0.5582 0.5941
C2 C 0.68976(19) 0.5848(2) 0.8073(3)
H2 H 0.7434 0.5574 0.8868
H3 H 0.6336 0.5342 0.8178
H4 H 0.6813 0.6995 0.8034
C3 C 0.79173(16) 0.6067(3) 0.6497(3)
H5 H 0.7812 0.7207 0.6396
H6 H 0.8021 0.5645 0.5650
H7 H 0.8466 0.5858 0.7294
C4 C 0.61524(11) 0.22776(19) 0.69367(17)
H8 H 0.6119 0.2607 0.7874
C5 C 0.52745(12) 0.2872(3) 0.5848(2)
H9 H 0.5320 0.2652 0.4915
H10 H 0.5213 0.4010 0.5960
H11 H 0.4727 0.2333 0.5971
C6 C 0.62213(15) 0.0496(2) 0.6924(2)
H12 H 0.5651 0.0034 0.7039
H13 H 0.6759 0.0151 0.7689
H14 H 0.6298 0.0150 0.6037
C7 C 0.89734(10) 0.2189(2) 0.79953(16)
H15 H 0.9106 0.2800 0.7226
C8 C 0.96785(13) 0.2667(3) 0.9330(2)
H16 H 0.9625 0.3801 0.9478
H17 H 1.0306 0.2429 0.9282
H18 H 0.9566 0.2083 1.0104
C9 C 0.90379(17) 0.0463(3) 0.7687(3)
H19 H 0.8915 -0.0166 0.8429
H20 H 0.9664 0.0226 0.7633
H21 H 0.8576 0.0206 0.6797
N1 N 0.80376(9) 0.26201(16) 0.80317(13)
H22 H 0.7925 0.2590 0.8840
O1 O 0.73426(8) 0.26804(15) 0.53446(11)
P1 P 0.71920(3) 0.31507(5) 0.66763(4)
loop_
_geom_bond_atom_site_label_1
_geom_bond_atom_site_label_2
_geom_bond_site_symmetry_1
_geom_bond_site_symmetry_2
C1 H1 1_555 1_555
C2 C1 1_555 1_555
H2 C2 1_555 1_555
H3 C2 1_555 1_555
H4 C2 1_555 1_555
C3 C1 1_555 1_555
H5 C3 1_555 1_555
H6 C3 1_555 1_555
H7 C3 1_555 1_555
C4 H8 1_555 1_555
C5 C4 1_555 1_555
H9 C5 1_555 1_555
H10 C5 1_555 1_555
H11 C5 1_555 1_555
C6 C4 1_555 1_555
H12 C6 1_555 1_555
H13 C6 1_555 1_555
H14 C6 1_555 1_555
C7 H15 1_555 1_555
C8 C7 1_555 1_555
H16 C8 1_555 1_555
H17 C8 1_555 1_555
H18 C8 1_555 1_555
C9 C7 1_555 1_555
H19 C9 1_555 1_555
H20 C9 1_555 1_555
H21 C9 1_555 1_555
N1 C7 1_555 1_555
H22 N1 1_555 1_555
O1 P1 1_555 1_555
P1 C1 1_555 1_555
C4 P1 1_555 1_555
N1 P1 1_555 1_555

#END
