
#######################################################################
#
#                 Cambridge Crystallographic Data Centre
#                                CCDC 
#
#######################################################################
#
# If this CIF has been generated from an entry in the Cambridge 
# Structural Database, then it will include bibliographic, chemical, 
# crystal, experimental, refinement or atomic coordinate data resulting 
# from the CCDC's data processing and validation procedures.
#
#######################################################################

data_EROYER
_chemical_compound_source        'leaves of Callicarpa kwangtungensis'
_chemical_name_common            'Callipene B'
_chemical_formula_moiety         'C21 H32 O5'
_chemical_name_systematic        
'(1R,2S,6R,7R,9R,13S)-12-isopropyl-9-methoxy-2,6-dimethyl-13,14-dioxatetracyclo[10.2.2.0^1,10^.0^2,7^]hexadec-10-ene-6-carboxylic acid'
_chemical_properties_biological  'inhibits NO production in BV-2 cells'
_symmetry_cell_setting           orthorhombic
_symmetry_space_group_name_H-M   'P 21 21 21'
_symmetry_Int_Tables_number      19
_space_group_name_Hall           'P 2ac 2ab'
loop_
_symmetry_equiv_pos_site_id
_symmetry_equiv_pos_as_xyz
1 x,y,z
2 1/2-x,-y,1/2+z
3 1/2+x,1/2-y,-z
4 -x,1/2+y,1/2-z
_cell_length_a                   7.7834(17)
_cell_length_b                   10.653(2)
_cell_length_c                   22.864(4)
_cell_angle_alpha                90
_cell_angle_beta                 90
_cell_angle_gamma                90
_cell_volume                     1895.8
_exptl_crystal_colour            colorless
_exptl_crystal_description       prism
_chemical_melting_point          '188-190 deg.C'
_cell_formula_units_Z            4
loop_
_atom_site_label
_atom_site_type_symbol
_atom_site_fract_x
_atom_site_fract_y
_atom_site_fract_z
O1 O 0.8914(3) 0.84207(16) 0.37735(11)
O2 O 0.7281(4) 0.73645(18) 0.31706(12)
O3 O 0.8384(2) 0.15967(13) 0.35991(8)
O4 O 0.7089(2) 0.05822(13) 0.35450(8)
O5 O 0.4362(2) 0.41233(15) 0.46176(7)
C1 C 1.0407(3) 0.3718(2) 0.31861(12)
H1 H 1.1011 0.2900 0.3198
H2 H 0.9807 0.3779 0.2806
C2 C 1.1733(3) 0.4780(2) 0.32312(14)
H3 H 1.2374 0.4705 0.3604
H4 H 1.2566 0.4714 0.2905
C3 C 1.0821(3) 0.6053(2) 0.32059(12)
H5 H 1.0243 0.6140 0.2822
H6 H 1.1688 0.6730 0.3237
C4 C 0.9475(3) 0.62156(18) 0.36984(10)
C5 C 0.8206(3) 0.50812(18) 0.36854(10)
H7 H 0.7628 0.5143 0.3296
C6 C 0.6729(3) 0.5224(2) 0.41356(12)
H8 H 0.7119 0.5799 0.4448
H9 H 0.5744 0.5629 0.3937
C7 C 0.6086(3) 0.40049(19) 0.44239(10)
H10 H 0.6831 0.3816 0.4769
C8 C 0.6158(3) 0.29108(18) 0.40095(9)
C9 C 0.7576(3) 0.28272(17) 0.35590(10)
C10 C 0.9074(3) 0.37650(18) 0.36831(10)
C11 C 0.6726(3) 0.2883(2) 0.29524(10)
H11 H 0.7606 0.2772 0.2644
H12 H 0.6174 0.3712 0.2896
C12 C 0.5364(3) 0.1832(2) 0.29058(10)
H13 H 0.4217 0.2203 0.2835
H14 H 0.5643 0.1270 0.2574
C13 C 0.5348(3) 0.10859(18) 0.34761(9)
C14 C 0.5006(3) 0.1991(2) 0.39674(10)
H15 H 0.4054 0.1913 0.4225
C15 C 0.4250(3) -0.0111(2) 0.34659(11)
H16 H 0.4750 -0.0686 0.3165
C16 C 0.2411(3) 0.0184(2) 0.32827(13)
H17 H 0.1908 0.0784 0.3559
H18 H 0.1732 -0.0591 0.3283
H19 H 0.2412 0.0547 0.2889
C17 C 0.4269(4) -0.0805(2) 0.40512(12)
H20 H 0.3695 -0.1618 0.4007
H21 H 0.3663 -0.0304 0.4346
H22 H 0.5459 -0.0937 0.4176
C18 C 0.8419(3) 0.73779(19) 0.35201(11)
C19 C 1.0387(4) 0.6441(2) 0.42859(11)
H23 H 1.1000 0.7244 0.4272
H24 H 1.1207 0.5761 0.4359
H25 H 0.9534 0.6462 0.4601
C20 C 0.9950(3) 0.3405(2) 0.42687(11)
H26 H 0.9450 0.3900 0.4587
H27 H 1.1185 0.3577 0.4243
H28 H 0.9770 0.2510 0.4346
C21 C 0.4175(3) 0.4944(2) 0.51038(11)
H29 H 0.3008 0.4872 0.5261
H30 H 0.4382 0.5811 0.4978
H31 H 0.5007 0.4715 0.5407
H32 H 0.845(6) 0.896(4) 0.3637(19)
loop_
_geom_bond_atom_site_label_1
_geom_bond_atom_site_label_2
_geom_bond_site_symmetry_1
_geom_bond_site_symmetry_2
O1 C18 1_555 1_555
O2 C18 1_555 1_555
O3 O4 1_555 1_555
O4 C13 1_555 1_555
O5 C7 1_555 1_555
C1 H1 1_555 1_555
H2 C1 1_555 1_555
C2 C1 1_555 1_555
H3 C2 1_555 1_555
H4 C2 1_555 1_555
C3 C2 1_555 1_555
H5 C3 1_555 1_555
H6 C3 1_555 1_555
C4 C3 1_555 1_555
C5 C4 1_555 1_555
H7 C5 1_555 1_555
C6 C5 1_555 1_555
H8 C6 1_555 1_555
H9 C6 1_555 1_555
C7 C6 1_555 1_555
H10 C7 1_555 1_555
C8 C7 1_555 1_555
C9 O3 1_555 1_555
C10 C1 1_555 1_555
C11 C9 1_555 1_555
H11 C11 1_555 1_555
H12 C11 1_555 1_555
C12 C11 1_555 1_555
H13 C12 1_555 1_555
H14 C12 1_555 1_555
C13 C12 1_555 1_555
C14 C8 1_555 1_555
H15 C14 1_555 1_555
C15 C13 1_555 1_555
H16 C15 1_555 1_555
C16 C15 1_555 1_555
H17 C16 1_555 1_555
H18 C16 1_555 1_555
H19 C16 1_555 1_555
C17 C15 1_555 1_555
H20 C17 1_555 1_555
H21 C17 1_555 1_555
H22 C17 1_555 1_555
C18 C4 1_555 1_555
C19 C4 1_555 1_555
H23 C19 1_555 1_555
H24 C19 1_555 1_555
H25 C19 1_555 1_555
C20 C10 1_555 1_555
H26 C20 1_555 1_555
H27 C20 1_555 1_555
H28 C20 1_555 1_555
C21 O5 1_555 1_555
H29 C21 1_555 1_555
H30 C21 1_555 1_555
H31 C21 1_555 1_555
H32 O1 1_555 1_555
C5 C10 1_555 1_555
C8 C9 1_555 1_555
C9 C10 1_555 1_555
C13 C14 1_555 1_555

#END
