
#######################################################################
#
#                 Cambridge Crystallographic Data Centre
#                                CCDC 
#
#######################################################################
#
# If this CIF has been generated from an entry in the Cambridge 
# Structural Database, then it will include bibliographic, chemical, 
# crystal, experimental, refinement or atomic coordinate data resulting 
# from the CCDC's data processing and validation procedures.
#
#######################################################################

data_ERUHEF
_chemical_name_common            
3-[(E)-1-(Benzyloxyimino)ethyl]-7-(3-methylbut-2-enyloxy)-2H-chromen-2-one
_chemical_formula_moiety         'C23 H23 N1 O4'
_chemical_name_systematic        
3-(N-(Benzyloxy)ethanimidoyl)-7-((3-methylbut-2-en-1-yl)oxy)-2H-chromen-2-one
_symmetry_cell_setting           triclinic
_symmetry_space_group_name_H-M   'P -1'
_symmetry_Int_Tables_number      2
_space_group_name_Hall           '-P 1'
loop_
_symmetry_equiv_pos_site_id
_symmetry_equiv_pos_as_xyz
1 x,y,z
2 -x,-y,-z
_cell_length_a                   7.3038(19)
_cell_length_b                   11.467(3)
_cell_length_c                   12.184(3)
_cell_angle_alpha                92.368(3)
_cell_angle_beta                 92.067(3)
_cell_angle_gamma                102.340(3)
_cell_volume                     994.961
_exptl_crystal_colour            colorless
_exptl_crystal_description       block
_cell_formula_units_Z            2
loop_
_atom_site_label
_atom_site_type_symbol
_atom_site_fract_x
_atom_site_fract_y
_atom_site_fract_z
N1 N 0.4410(2) 0.43803(16) 0.26381(14)
O1 O 0.59306(19) 0.46642(13) 0.19438(12)
O2 O 0.3010(2) 0.10766(13) 0.38943(12)
O3 O 0.04470(18) 0.14660(12) 0.45666(10)
O4 O -0.50894(19) 0.21552(13) 0.61925(11)
C1 C 0.9868(3) 0.6503(2) 0.19649(18)
H1 H 0.9821 0.6483 0.2726
C2 C 1.1555(3) 0.6776(2) 0.1505(2)
H2 H 1.2648 0.6934 0.1952
C3 C 1.1667(4) 0.6820(3) 0.0413(3)
H3 H 1.2835 0.7011 0.0107
C4 C 1.0072(5) 0.6584(3) -0.0255(2)
H4 H 1.0149 0.6616 -0.1014
C5 C 0.8327(4) 0.6296(2) 0.0215(2)
H5 H 0.7235 0.6132 -0.0232
C6 C 0.8222(3) 0.62545(18) 0.13341(18)
C7 C 0.6388(4) 0.5931(2) 0.1861(3)
H6 H 0.6471 0.6325 0.2587
H7 H 0.5422 0.6184 0.1423
C8 C 0.3842(3) 0.32488(19) 0.26814(16)
C9 C 0.4680(4) 0.2348(2) 0.2070(2)
H8 H 0.5063 0.2642 0.1369
H9 H 0.3765 0.1611 0.1961
H10 H 0.5750 0.2214 0.2486
C10 C 0.2208(3) 0.28938(17) 0.33767(15)
C11 C 0.1984(3) 0.17731(18) 0.39329(15)
C12 C -0.0825(3) 0.21796(17) 0.47168(14)
C13 C 0.0943(3) 0.35857(18) 0.35299(15)
H11 H 0.1091 0.4300 0.3175
C14 C -0.0610(3) 0.32596(17) 0.42160(15)
C15 C -0.1943(3) 0.39482(19) 0.44254(17)
H12 H -0.1839 0.4680 0.4104
C16 C -0.3389(3) 0.35666(19) 0.50912(17)
H13 H -0.4246 0.4042 0.5231
C17 C -0.2289(3) 0.17562(18) 0.53828(15)
H14 H -0.2400 0.1022 0.5699
C18 C -0.3581(3) 0.24560(18) 0.55642(15)
C19 C -0.5503(3) 0.0961(2) 0.65844(17)
H15 H -0.4576 0.0878 0.7150
H16 H -0.5481 0.0381 0.5985
C20 C -0.7401(3) 0.07576(19) 0.70411(16)
H17 H -0.8390 0.0794 0.6550
C21 C -0.7839(3) 0.05328(19) 0.80605(16)
C22 C -0.6452(4) 0.0473(3) 0.89720(19)
H18 H -0.5213 0.0617 0.8696
H19 H -0.6738 -0.0304 0.9268
H20 H -0.6510 0.1069 0.9539
C23 C -0.9843(3) 0.0309(2) 0.8392(2)
H21 H -1.0643 0.0390 0.7770
H22 H -0.9965 0.0879 0.8969
H23 H -1.0200 -0.0484 0.8648
loop_
_geom_bond_atom_site_label_1
_geom_bond_atom_site_label_2
_geom_bond_site_symmetry_1
_geom_bond_site_symmetry_2
N1 O1 1_555 1_555
O1 C7 1_555 1_555
O2 C11 1_555 1_555
O3 C11 1_555 1_555
O4 C18 1_555 1_555
C1 H1 1_555 1_555
C2 C1 1_555 1_555
H2 C2 1_555 1_555
C3 C2 1_555 1_555
H3 C3 1_555 1_555
C4 C3 1_555 1_555
H4 C4 1_555 1_555
C5 C4 1_555 1_555
H5 C5 1_555 1_555
C6 C1 1_555 1_555
C7 C6 1_555 1_555
H6 C7 1_555 1_555
H7 C7 1_555 1_555
C8 N1 1_555 1_555
C9 C8 1_555 1_555
H8 C9 1_555 1_555
H9 C9 1_555 1_555
H10 C9 1_555 1_555
C10 C8 1_555 1_555
C11 C10 1_555 1_555
C12 O3 1_555 1_555
C13 C10 1_555 1_555
H11 C13 1_555 1_555
C14 C12 1_555 1_555
C15 C14 1_555 1_555
H12 C15 1_555 1_555
C16 C15 1_555 1_555
H13 C16 1_555 1_555
C17 C12 1_555 1_555
H14 C17 1_555 1_555
C18 C16 1_555 1_555
C19 O4 1_555 1_555
H15 C19 1_555 1_555
H16 C19 1_555 1_555
C20 C19 1_555 1_555
H17 C20 1_555 1_555
C21 C20 1_555 1_555
C22 C21 1_555 1_555
H18 C22 1_555 1_555
H19 C22 1_555 1_555
H20 C22 1_555 1_555
C23 C21 1_555 1_555
H21 C23 1_555 1_555
H22 C23 1_555 1_555
H23 C23 1_555 1_555
C5 C6 1_555 1_555
C13 C14 1_555 1_555
C17 C18 1_555 1_555

#END
