
#######################################################################
#
#                 Cambridge Crystallographic Data Centre
#                                CCDC 
#
#######################################################################
#
# If this CIF has been generated from an entry in the Cambridge 
# Structural Database, then it will include bibliographic, chemical, 
# crystal, experimental, refinement or atomic coordinate data resulting 
# from the CCDC's data processing and validation procedures.
#
#######################################################################

data_ERUKOT
_chemical_compound_source        'aerial parts of Salvia plebeia R. Br.'
_chemical_name_common            'Eudebeiolide D'
_chemical_formula_moiety         'C15 H16 O3'
_chemical_name_systematic        
3,5,8a-trimethyl-4a,8a-dihydronaphtho[2,3-b]furan-2,6(4H,5H)-dione
_chemical_properties_biological  
'inhibitory effect with an IC50 value of 1.1 muM on IL6-induced STAT3 promoter activation in stably transfected Hep3B cells'
_symmetry_cell_setting           orthorhombic
_symmetry_space_group_name_H-M   'P 21 21 21'
_symmetry_Int_Tables_number      19
_space_group_name_Hall           'P 2ac 2ab'
loop_
_symmetry_equiv_pos_site_id
_symmetry_equiv_pos_as_xyz
1 x,y,z
2 1/2-x,-y,1/2+z
3 -x,1/2+y,1/2-z
4 1/2+x,1/2-y,-z
_cell_length_a                   5.9593(8)
_cell_length_b                   9.6312(12)
_cell_length_c                   22.406(3)
_cell_angle_alpha                90
_cell_angle_beta                 90
_cell_angle_gamma                90
_cell_volume                     1286
_exptl_crystal_colour            yellow
_exptl_crystal_description       block
_cell_formula_units_Z            4
loop_
_atom_site_label
_atom_site_type_symbol
_atom_site_fract_x
_atom_site_fract_y
_atom_site_fract_z
O1 O 0.6002(5) 0.8634(2) 0.43901(10)
C1 C 0.4275(8) 0.9379(4) 0.41133(16)
C2 C 0.2976(7) 0.8437(3) 0.37442(15)
C3 C 0.3873(6) 0.7164(3) 0.38027(14)
C4 C 0.3288(6) 0.5799(3) 0.35329(15)
H1 H 0.2867 0.5929 0.3119
H2 H 0.2017 0.5401 0.3742
C5 C 0.5295(5) 0.4809(3) 0.35714(14)
H3 H 0.6464 0.5207 0.3316
C6 C 0.4830(6) 0.3342(3) 0.33276(15)
H4 H 0.3803 0.2893 0.3609
C7 C 0.6988(7) 0.2509(3) 0.33363(17)
C8 C 0.8544(6) 0.2771(4) 0.38202(17)
H5 H 0.9798 0.2202 0.3856
C9 C 0.8266(6) 0.3774(3) 0.42099(16)
H6 H 0.9353 0.3888 0.4504
C10 C 0.6299(6) 0.4751(3) 0.42101(13)
C11 C 0.6975(6) 0.6201(3) 0.44007(15)
H7 H 0.8209 0.6347 0.4647
C12 C 0.5743(6) 0.7257(3) 0.42035(15)
O2 O 0.4067(6) 1.0598(2) 0.42151(12)
C13 C 0.1025(8) 0.8913(4) 0.3381(2)
H8 H 0.0577 0.8186 0.3113
H9 H 0.1446 0.9720 0.3155
H10 H -0.0202 0.9141 0.3640
C14 C 0.3679(8) 0.3329(4) 0.27238(17)
H11 H 0.2320 0.3862 0.2745
H12 H 0.3330 0.2389 0.2615
H13 H 0.4659 0.3727 0.2430
O3 O 0.7391(6) 0.1638(3) 0.29560(13)
C15 C 0.4615(6) 0.4199(3) 0.46804(15)
H14 H 0.3312 0.4785 0.4688
H15 H 0.5311 0.4199 0.5067
H16 H 0.4177 0.3269 0.4578
loop_
_geom_bond_atom_site_label_1
_geom_bond_atom_site_label_2
_geom_bond_site_symmetry_1
_geom_bond_site_symmetry_2
O1 C1 1_555 1_555
C1 C2 1_555 1_555
C2 C3 1_555 1_555
C3 C4 1_555 1_555
C4 H1 1_555 1_555
H2 C4 1_555 1_555
C5 C4 1_555 1_555
H3 C5 1_555 1_555
C6 C5 1_555 1_555
H4 C6 1_555 1_555
C7 C6 1_555 1_555
C8 C7 1_555 1_555
H5 C8 1_555 1_555
C9 C8 1_555 1_555
H6 C9 1_555 1_555
C10 C5 1_555 1_555
C11 C10 1_555 1_555
H7 C11 1_555 1_555
C12 O1 1_555 1_555
O2 C1 1_555 1_555
C13 C2 1_555 1_555
H8 C13 1_555 1_555
H9 C13 1_555 1_555
H10 C13 1_555 1_555
C14 C6 1_555 1_555
H11 C14 1_555 1_555
H12 C14 1_555 1_555
H13 C14 1_555 1_555
O3 C7 1_555 1_555
C15 C10 1_555 1_555
H14 C15 1_555 1_555
H15 C15 1_555 1_555
H16 C15 1_555 1_555
C3 C12 1_555 1_555
C9 C10 1_555 1_555
C11 C12 1_555 1_555

#END
