
#######################################################################
#
#                 Cambridge Crystallographic Data Centre
#                                CCDC 
#
#######################################################################
#
# If this CIF has been generated from an entry in the Cambridge 
# Structural Database, then it will include bibliographic, chemical, 
# crystal, experimental, refinement or atomic coordinate data resulting 
# from the CCDC's data processing and validation procedures.
#
#######################################################################

data_ERUPAI
_chemical_formula_moiety         '2(C16 H11 O7 S1 1-),H12 Mg1 O6 2+,10(H2 O1)'
_chemical_name_systematic        
"Hexa-aqua-magnesium bis(7-methoxy-4'-hydroxyisoflavone-3'-sulfonate) decahydrate"
_symmetry_cell_setting           triclinic
_symmetry_space_group_name_H-M   'P -1'
_symmetry_Int_Tables_number      2
_space_group_name_Hall           '-P 1'
loop_
_symmetry_equiv_pos_site_id
_symmetry_equiv_pos_as_xyz
1 x,y,z
2 -x,-y,-z
_cell_length_a                   7.359(1)
_cell_length_b                   9.935(1)
_cell_length_c                   16.335(2)
_cell_angle_alpha                91.16(1)
_cell_angle_beta                 92.07(1)
_cell_angle_gamma                106.53(1)
_cell_volume                     1143.59
_exptl_crystal_colour            colorless
_exptl_crystal_description       plate
_chemical_melting_point          '295.4 deg.C(dec.)'
_cell_formula_units_Z            1
loop_
_atom_site_label
_atom_site_type_symbol
_atom_site_fract_x
_atom_site_fract_y
_atom_site_fract_z
Mg1 Mg 1.0000 0.5000 0.0000
O1 O 0.7495(5) 0.5487(6) -0.0076(2)
O2 O 1.1286(8) 0.6989(4) 0.0437(3)
O3 O 1.0349(5) 0.5622(4) -0.1195(2)
O1A O 1.2505(5) 0.4513(6) 0.0076(2)
O2A O 0.8714(8) 0.3011(4) -0.0437(3)
O3A O 0.9651(5) 0.4378(4) 0.1195(2)
S1 S 0.6225(1) 0.6279(1) 0.2018(1)
O4 O 0.3114(4) 0.7581(3) 0.2124(2)
O5 O 0.2662(4) 0.2500(3) 0.5724(2)
O6 O 0.2214(4) 0.1479(3) 0.3280(2)
O7 O 0.2824(5) -0.2096(3) 0.6405(2)
O8 O 0.5416(4) 0.6027(3) 0.1187(2)
O9 O 0.7416(4) 0.5391(4) 0.2222(2)
O10 O 0.7137(4) 0.7760(3) 0.2172(2)
C1 C 0.2935(5) 0.6551(4) 0.2669(2)
C2 C 0.1462(5) 0.6160(4) 0.3190(2)
C3 C 0.1345(5) 0.5077(4) 0.3726(2)
C4 C 0.2720(5) 0.4363(4) 0.3754(2)
C5 C 0.4186(5) 0.4739(4) 0.3214(2)
C6 C 0.4316(5) 0.5821(4) 0.2685(2)
C7 C 0.2712(6) 0.3457(4) 0.5145(2)
C8 C 0.2624(5) 0.3214(4) 0.4334(2)
C9 C 0.2417(5) 0.1783(4) 0.4023(2)
C10 C 0.2457(5) 0.0773(4) 0.4646(2)
C11 C 0.2597(5) 0.1161(4) 0.5467(2)
C12 C 0.2714(6) 0.0269(4) 0.6092(2)
C13 C 0.2672(6) -0.1087(4) 0.5870(2)
C14 C 0.2514(6) -0.1528(4) 0.5044(3)
C15 C 0.2415(6) -0.0615(4) 0.4449(2)
C16 C 0.3064(9) -0.1706(6) 0.7261(3)
O11 O 0.8276(5) 0.7422(4) -0.1694(2)
O12 O 1.0769(7) 0.9143(5) -0.0472(3)
O13 O 0.5186(7) 0.7879(6) -0.0799(3)
O14 O 0.5690(9) 0.9385(5) 0.0865(3)
O15 O 0.0904(4) 0.0150(3) 0.2227(2)
loop_
_geom_bond_atom_site_label_1
_geom_bond_atom_site_label_2
_geom_bond_site_symmetry_1
_geom_bond_site_symmetry_2
Mg1 O1 1_555 1_555
O2 Mg1 1_555 1_555
O3 Mg1 1_555 1_555
S1 O8 1_555 1_555
O4 C1 1_555 1_555
O5 C7 1_555 1_555
O6 C9 1_555 1_555
O7 C13 1_555 1_555
O9 S1 1_555 1_555
O10 S1 1_555 1_555
C1 C2 1_555 1_555
C2 C3 1_555 1_555
C3 C4 1_555 1_555
C4 C5 1_555 1_555
C5 C6 1_555 1_555
C6 S1 1_555 1_555
C7 C8 1_555 1_555
C8 C4 1_555 1_555
C9 C8 1_555 1_555
C10 C9 1_555 1_555
C11 O5 1_555 1_555
C12 C11 1_555 1_555
C13 C12 1_555 1_555
C14 C13 1_555 1_555
C15 C10 1_555 1_555
C16 O7 1_555 1_555
O1A Mg1 1_555 1_555
O2A Mg1 1_555 1_555
O3A Mg1 1_555 1_555
C1 C6 1_555 1_555
C10 C11 1_555 1_555
C14 C15 1_555 1_555

#END
