
#######################################################################
#
#                 Cambridge Crystallographic Data Centre
#                                CCDC 
#
#######################################################################
#
# If this CIF has been generated from an entry in the Cambridge 
# Structural Database, then it will include bibliographic, chemical, 
# crystal, experimental, refinement or atomic coordinate data resulting 
# from the CCDC's data processing and validation procedures.
#
#######################################################################

data_ERUQOX
_chemical_formula_moiety         'C6 H5 N1 O3,C6 H12 N4,H3 O4 P1,3(H2 O1)'
_chemical_name_systematic        
'p-Nitrophenol hexamethylenetetramine phosphoric acid trihydrate clathrate'
_symmetry_cell_setting           monoclinic
_symmetry_space_group_name_H-M   'P 21/c'
_symmetry_Int_Tables_number      14
_space_group_name_Hall           '-P 2ybc'
loop_
_symmetry_equiv_pos_site_id
_symmetry_equiv_pos_as_xyz
1 x,y,z
2 -x,1/2+y,1/2-z
3 -x,-y,-z
4 x,1/2-y,1/2+z
_cell_length_a                   6.036(1)
_cell_length_b                   7.986(8)
_cell_length_c                   38.868(13)
_cell_angle_alpha                90
_cell_angle_beta                 89.90(2)
_cell_angle_gamma                90
_cell_volume                     1873.57
_exptl_crystal_colour            'pale yellow'
_cell_formula_units_Z            4
_exptl_crystal_preparation       'strong second harmonic generation effect'
loop_
_atom_site_label
_atom_site_type_symbol
_atom_site_fract_x
_atom_site_fract_y
_atom_site_fract_z
O1 O 1.1454(3) 0.4657(6) 0.21732(7)
P1 P 0.96186(12) 0.37299(14) 0.21707(2)
O2 O 0.8869(3) 0.3631(4) 0.25369(7)
O3 O 0.9885(4) 0.1331(4) 0.20266(7)
H1 H 1.030(8) 0.025(7) 0.2156(14)
H2 H 1.143(6) 0.567(6) 0.2236(11)
O4 O 0.8619(4) 0.4998(5) 0.19261(7)
H3 H 0.88(2) 0.210(15) 0.254(3)
H4 H 0.417(8) 0.250(5) 0.1938(11)
H5 H 0.270(8) 0.224(6) 0.1119(13)
H6 H 0.733(8) -0.019(6) 0.1578(12)
H7 H 0.562(7) 0.259(5) 0.0940(11)
H8 H 0.662(6) -0.259(5) 0.1507(9)
H9 H 0.476(8) -0.275(6) 0.1110(11)
H10 H 0.372(7) -0.302(6) 0.1695(10)
N1 N 0.3151(4) -0.0659(5) 0.13495(8)
N2 N 0.5219(4) -0.0344(5) 0.17844(7)
N3 N 0.4550(4) 0.2849(5) 0.14344(8)
N4 N 0.6107(4) -0.0243(6) 0.11782(8)
C1 C 0.4521(6) -0.1287(7) 0.10962(11)
H11 H 0.420(7) -0.064(6) 0.0866(12)
C2 C 0.3578(5) -0.1409(6) 0.16865(10)
H12 H 0.284(8) -0.078(6) 0.1864(12)
C3 C 0.5003(6) 0.2149(7) 0.17718(11)
H13 H 0.588(8) 0.292(5) 0.1828(10)
C4 C 0.5894(6) 0.2151(8) 0.11807(12)
H14 H 0.687(10) 0.295(7) 0.1249(13)
C5 C 0.2994(5) 0.1763(7) 0.13464(12)
H15 H 0.218(10) 0.215(7) 0.1513(14)
C6 C 0.6579(5) -0.1003(7) 0.15089(10)
O5 O 0.9786(4) 0.3503(6) 0.08240(10)
H16 H 0.978(9) 0.450(7) 0.0992(15)
O6 O 0.6065(7) 0.8272(8) -0.03294(11)
O7 O 0.6355(6) 0.5052(8) -0.05531(10)
C7 C 0.7278(6) 0.5571(8) -0.00068(11)
C8 C 0.7953(6) 0.3475(8) -0.00026(12)
H17 H 0.796(9) 0.237(6) -0.0162(14)
C9 C 0.8779(7) 0.2805(8) 0.02812(14)
H18 H 0.924(9) 0.141(7) 0.0305(12)
C10 C 0.8917(5) 0.4238(7) 0.05576(11)
C11 C 0.8184(6) 0.6293(8) 0.05540(11)
H19 H 0.824(8) 0.731(6) 0.0724(12)
C12 C 0.7364(6) 0.6984(8) 0.02689(11)
H20 H 0.688(9) 0.842(7) 0.0269(13)
N5 N 0.6515(6) 0.6336(8) -0.03169(11)
O8 O 0.0121(5) 0.6501(10) 0.13073(10)
H21 H -0.006(11) 0.594(9) 0.1493(19)
H22 H 0.041(10) 0.752(7) 0.1302(15)
O9 O 0.5693(6) -0.1031(7) 0.21432(10)
H23 H 0.460(13) -0.019(9) 0.2373(18)
O10 O 0.5749(4) -0.3279(7) 0.21679(9)
H24 H 0.591(10) -0.407(7) 0.2174(16)
loop_
_geom_bond_atom_site_label_1
_geom_bond_atom_site_label_2
_geom_bond_site_symmetry_1
_geom_bond_site_symmetry_2
O1 P1 1_555 1_555
P1 O2 1_555 1_555
O2 H3 1_555 1_555
O3 P1 1_555 1_555
H1 O3 1_555 1_555
H2 O1 1_555 1_555
O4 P1 1_555 1_555
H4 C3 1_555 1_555
H5 C5 1_555 1_555
H6 C6 1_555 1_555
H7 C4 1_555 1_555
H8 C6 1_555 1_555
H9 C1 1_555 1_555
H10 C2 1_555 1_555
N1 C1 1_555 1_555
N2 C2 1_555 1_555
N3 C3 1_555 1_555
N4 C1 1_555 1_555
C1 H11 1_555 1_555
C2 N1 1_555 1_555
H12 C2 1_555 1_555
C3 N2 1_555 1_555
H13 C3 1_555 1_555
C4 N3 1_555 1_555
H14 C4 1_555 1_555
C5 N1 1_555 1_555
H15 C5 1_555 1_555
C6 N2 1_555 1_555
O5 H16 1_555 1_555
O6 N5 1_555 1_555
O7 N5 1_555 1_555
C7 C8 1_555 1_555
C8 H17 1_555 1_555
C9 C8 1_555 1_555
H18 C9 1_555 1_555
C10 O5 1_555 1_555
C11 C10 1_555 1_555
H19 C11 1_555 1_555
C12 C7 1_555 1_555
H20 C12 1_555 1_555
N5 C7 1_555 1_555
O8 H21 1_555 1_555
H22 O8 1_555 1_555
O9 H23 1_555 1_555
O10 H24 1_555 1_555
N3 C5 1_555 1_555
N4 C4 1_555 1_555
N4 C6 1_555 1_555
C9 C10 1_555 1_555
C11 C12 1_555 1_555

#END
