
#######################################################################
#
#                 Cambridge Crystallographic Data Centre
#                                CCDC 
#
#######################################################################
#
# If this CIF has been generated from an entry in the Cambridge 
# Structural Database, then it will include bibliographic, chemical, 
# crystal, experimental, refinement or atomic coordinate data resulting 
# from the CCDC's data processing and validation procedures.
#
#######################################################################

data_ERUROA
_chemical_formula_moiety         'C27 H25 N2 O2 1+,Br1 1-'
_chemical_name_systematic        
'4,5-bis(hydroxymethyl)-1,3-bis(2-naphthylmethyl)-1H-imidazol-3-ium bromide'
_symmetry_cell_setting           orthorhombic
_symmetry_space_group_name_H-M   'P n a 21'
_symmetry_Int_Tables_number      33
_space_group_name_Hall           'P 2c -2n'
loop_
_symmetry_equiv_pos_site_id
_symmetry_equiv_pos_as_xyz
1 x,y,z
2 -x,-y,1/2+z
3 1/2+x,1/2-y,z
4 1/2-x,1/2+y,1/2+z
_cell_length_a                   26.4778(9)
_cell_length_b                   15.2081(2)
_cell_length_c                   5.6553(9)
_cell_angle_alpha                90
_cell_angle_beta                 90
_cell_angle_gamma                90
_cell_volume                     2277.26
_exptl_crystal_colour            colorless
_exptl_crystal_description       rod
_cell_formula_units_Z            4
_exptl_crystal_recrystallization_method 
'concentrated acetonitrile/diethyl ether slow evaporation'
loop_
_atom_site_label
_atom_site_type_symbol
_atom_site_fract_x
_atom_site_fract_y
_atom_site_fract_z
Br1 Br 0.75107(2) 0.50112(6) 1.0049(3)
O1 O 0.67887(18) 0.6297(4) 0.3414(12)
H1 H 0.6893 0.5804 0.2956
O2 O 0.84002(17) 0.6432(4) -0.0477(11)
H2 H 0.8168 0.6073 -0.0786
N1 N 0.71293(17) 0.8094(4) 0.1718(9)
N2 N 0.78619(16) 0.8147(3) -0.0004(11)
C1 C 0.74113(18) 0.8531(4) 0.0177(13)
H3 H 0.7308 0.9040 -0.0670
C2 C 0.74074(19) 0.7408(5) 0.2645(14)
C3 C 0.7870(2) 0.7432(4) 0.1581(12)
C4 C 0.7194(2) 0.6777(5) 0.4376(14)
H4 H 0.7462 0.6365 0.4888
H5 H 0.7075 0.7103 0.5787
C5 C 0.8307(2) 0.6828(5) 0.1758(15)
H6 H 0.8610 0.7159 0.2274
H7 H 0.8237 0.6367 0.2949
C6 C 0.6627(2) 0.8366(5) 0.2582(11)
H8 H 0.6670 0.8730 0.4018
H9 H 0.6434 0.7834 0.3037
C7 C 0.6323(2) 0.8880(5) 0.0796(11)
C8 C 0.6153(2) 0.8495(5) -0.1318(11)
H10 H 0.6249 0.7910 -0.1700
C9 C 0.5855(2) 0.8953(5) -0.2811(11)
H11 H 0.5740 0.8677 -0.4219
C10 C 0.5708(2) 0.9823(5) -0.2354(11)
C11 C 0.5389(2) 1.0315(5) -0.3869(12)
H12 H 0.5278 1.0059 -0.5311
C12 C 0.5236(2) 1.1144(5) -0.3313(12)
H13 H 0.5023 1.1459 -0.4364
C13 C 0.5395(2) 1.1536(5) -0.1170(11)
H14 H 0.5286 1.2113 -0.0776
C14 C 0.5709(2) 1.1079(4) 0.0354(12)
H15 H 0.5815 1.1344 0.1792
C15 C 0.58724(19) 1.0225(4) -0.0211(12)
C16 C 0.6187(2) 0.9722(5) 0.1333(11)
H16 H 0.6304 0.9980 0.2762
C17 C 0.8280(2) 0.8439(5) -0.1523(11)
H17 H 0.8174 0.8961 -0.2443
H18 H 0.8368 0.7965 -0.2653
C18 C 0.8744(2) 0.8669(4) -0.0020(13)
C19 C 0.8682(2) 0.9173(5) 0.2090(12)
H19 H 0.8356 0.9380 0.2520
C20 C 0.9083(2) 0.9356(5) 0.3478(11)
H20 H 0.9036 0.9695 0.4871
C21 C 0.9575(2) 0.9051(4) 0.2889(11)
C22 C 0.9998(2) 0.9215(5) 0.4344(12)
H21 H 0.9956 0.9506 0.5816
C23 C 1.0470(2) 0.8954(5) 0.3630(12)
H22 H 1.0753 0.9080 0.4602
C24 C 1.0541(2) 0.8505(5) 0.1494(12)
H23 H 1.0871 0.8330 0.1032
C25 C 1.01397(19) 0.8316(4) 0.0077(13)
H24 H 1.0191 0.8003 -0.1356
C26 C 0.9640(2) 0.8589(4) 0.0737(10)
C27 C 0.9212(2) 0.8392(4) -0.0674(11)
H25 H 0.9252 0.8063 -0.2089
loop_
_geom_bond_atom_site_label_1
_geom_bond_atom_site_label_2
_geom_bond_site_symmetry_1
_geom_bond_site_symmetry_2
O1 H1 1_555 1_555
O2 H2 1_555 1_555
N1 C1 1_555 1_555
N2 C1 1_555 1_555
C1 H3 1_555 1_555
C2 N1 1_555 1_555
C3 N2 1_555 1_555
C4 O1 1_555 1_555
H4 C4 1_555 1_555
H5 C4 1_555 1_555
C5 O2 1_555 1_555
H6 C5 1_555 1_555
H7 C5 1_555 1_555
C6 N1 1_555 1_555
H8 C6 1_555 1_555
H9 C6 1_555 1_555
C7 C6 1_555 1_555
C8 C7 1_555 1_555
H10 C8 1_555 1_555
C9 C8 1_555 1_555
H11 C9 1_555 1_555
C10 C9 1_555 1_555
C11 C10 1_555 1_555
H12 C11 1_555 1_555
C12 C11 1_555 1_555
H13 C12 1_555 1_555
C13 C12 1_555 1_555
H14 C13 1_555 1_555
C14 C13 1_555 1_555
H15 C14 1_555 1_555
C15 C10 1_555 1_555
C16 C7 1_555 1_555
H16 C16 1_555 1_555
C17 N2 1_555 1_555
H17 C17 1_555 1_555
H18 C17 1_555 1_555
C18 C17 1_555 1_555
C19 C18 1_555 1_555
H19 C19 1_555 1_555
C20 C19 1_555 1_555
H20 C20 1_555 1_555
C21 C20 1_555 1_555
C22 C21 1_555 1_555
H21 C22 1_555 1_555
C23 C22 1_555 1_555
H22 C23 1_555 1_555
C24 C23 1_555 1_555
H23 C24 1_555 1_555
C25 C24 1_555 1_555
H24 C25 1_555 1_555
C26 C21 1_555 1_555
C27 C18 1_555 1_555
H25 C27 1_555 1_555
C2 C3 1_555 1_555
C2 C4 1_555 1_555
C3 C5 1_555 1_555
C14 C15 1_555 1_555
C15 C16 1_555 1_555
C25 C26 1_555 1_555
C26 C27 1_555 1_555

#END
