
#######################################################################
#
#                 Cambridge Crystallographic Data Centre
#                                CCDC 
#
#######################################################################
#
# If this CIF has been generated from an entry in the Cambridge 
# Structural Database, then it will include bibliographic, chemical, 
# crystal, experimental, refinement or atomic coordinate data resulting 
# from the CCDC's data processing and validation procedures.
#
#######################################################################

data_ERUSOB
_chemical_formula_moiety         'C19 H13 N1 O1'
_chemical_name_systematic        6-phenylphenanthridin-9-ol
_symmetry_cell_setting           monoclinic
_symmetry_space_group_name_H-M   'P 21/c'
_symmetry_Int_Tables_number      14
_space_group_name_Hall           '-P 2ybc'
loop_
_symmetry_equiv_pos_site_id
_symmetry_equiv_pos_as_xyz
1 x,y,z
2 -x,1/2+y,1/2-z
3 -x,-y,-z
4 x,1/2-y,1/2+z
_cell_length_a                   10.0752(9)
_cell_length_b                   8.8819(7)
_cell_length_c                   15.9418(13)
_cell_angle_alpha                90
_cell_angle_beta                 105.370(2)
_cell_angle_gamma                90
_cell_volume                     1375.56
_exptl_crystal_description       block
_cell_formula_units_Z            4
loop_
_atom_site_label
_atom_site_type_symbol
_atom_site_fract_x
_atom_site_fract_y
_atom_site_fract_z
N1 N 0.7309(3) 0.3436(4) 0.23798(19)
O1 O 0.7777(4) 0.0039(3) 0.59849(18)
H1 H 0.7448 0.0648 0.6260
C1 C 0.7738(4) 0.2089(4) 0.2668(2)
C2 C 0.7705(4) 0.1552(4) 0.3517(2)
C3 C 0.8231(5) 0.0127(5) 0.3831(2)
H2 H 0.8584 -0.0503 0.3477
C4 C 0.8229(5) -0.0340(5) 0.4646(3)
H3 H 0.8575 -0.1284 0.4844
C5 C 0.7706(5) 0.0602(5) 0.5185(2)
C6 C 0.7197(4) 0.2002(4) 0.4902(2)
H4 H 0.6860 0.2622 0.5269
C7 C 0.7182(4) 0.2504(4) 0.4063(2)
C8 C 0.6713(4) 0.3991(4) 0.3745(2)
C9 C 0.6792(4) 0.4395(4) 0.2902(2)
C10 C 0.6363(4) 0.5839(5) 0.2579(3)
H5 H 0.6404 0.6103 0.2022
C11 C 0.5888(4) 0.6860(5) 0.3071(3)
H6 H 0.5612 0.7812 0.2851
C12 C 0.5819(5) 0.6470(5) 0.3906(3)
H7 H 0.5506 0.7166 0.4245
C13 C 0.6211(4) 0.5064(5) 0.4226(3)
H8 H 0.6143 0.4814 0.4780
C14 C 0.8318(4) 0.1136(4) 0.2085(2)
C15 C 0.9440(4) 0.1665(5) 0.1824(2)
H9 H 0.9812 0.2603 0.2013
C16 C 1.0011(5) 0.0802(6) 0.1284(3)
H10 H 1.0761 0.1164 0.1108
C17 C 0.9469(5) -0.0587(6) 0.1008(3)
H11 H 0.9857 -0.1166 0.0648
C18 C 0.8350(5) -0.1125(5) 0.1261(3)
H12 H 0.7987 -0.2067 0.1075
C19 C 0.7767(5) -0.0258(5) 0.1796(2)
H13 H 0.7005 -0.0615 0.1960
loop_
_geom_bond_atom_site_label_1
_geom_bond_atom_site_label_2
_geom_bond_site_symmetry_1
_geom_bond_site_symmetry_2
N1 C1 1_555 1_555
O1 H1 1_555 1_555
C1 C2 1_555 1_555
C2 C3 1_555 1_555
C3 H2 1_555 1_555
C4 C3 1_555 1_555
H3 C4 1_555 1_555
C5 O1 1_555 1_555
C6 C5 1_555 1_555
H4 C6 1_555 1_555
C7 C2 1_555 1_555
C8 C7 1_555 1_555
C9 N1 1_555 1_555
C10 C9 1_555 1_555
H5 C10 1_555 1_555
C11 C10 1_555 1_555
H6 C11 1_555 1_555
C12 C11 1_555 1_555
H7 C12 1_555 1_555
C13 C8 1_555 1_555
H8 C13 1_555 1_555
C14 C1 1_555 1_555
C15 C14 1_555 1_555
H9 C15 1_555 1_555
C16 C15 1_555 1_555
H10 C16 1_555 1_555
C17 C16 1_555 1_555
H11 C17 1_555 1_555
C18 C17 1_555 1_555
H12 C18 1_555 1_555
C19 C14 1_555 1_555
H13 C19 1_555 1_555
C4 C5 1_555 1_555
C6 C7 1_555 1_555
C8 C9 1_555 1_555
C12 C13 1_555 1_555
C18 C19 1_555 1_555

#END
