
#######################################################################
#
#                 Cambridge Crystallographic Data Centre
#                                CCDC 
#
#######################################################################
#
# If this CIF has been generated from an entry in the Cambridge 
# Structural Database, then it will include bibliographic, chemical, 
# crystal, experimental, refinement or atomic coordinate data resulting 
# from the CCDC's data processing and validation procedures.
#
#######################################################################

data_ERUWET01
_chemical_formula_moiety         'C44 H52 Cl2 Cs2 O20 S4'
_chemical_name_systematic        
(\m~2~-25,27:26,28-bis(3,6,9,12-Tetraoxatetradecane-1,14-diolato)-2,8,14,20-tetrathiacalix(4)arene)-(perchlorato-O,O')-(perchlorato-O)-di-cesium
_symmetry_cell_setting           triclinic
_symmetry_space_group_name_H-M   'P -1'
_symmetry_Int_Tables_number      2
_space_group_name_Hall           '-P 1'
loop_
_symmetry_equiv_pos_site_id
_symmetry_equiv_pos_as_xyz
1 x,y,z
2 -x,-y,-z
_cell_length_a                   14.012(5)
_cell_length_b                   17.389(5)
_cell_length_c                   12.931(5)
_cell_angle_alpha                94.858(5)
_cell_angle_beta                 109.550(5)
_cell_angle_gamma                111.602(5)
_cell_volume                     2681.7
_cell_formula_units_Z            2
loop_
_atom_site_label
_atom_site_type_symbol
_atom_site_fract_x
_atom_site_fract_y
_atom_site_fract_z
Cs1 Cs 0.73106(2) 0.120553(18) 0.30570(2)
Cs2 Cs 1.19871(3) 0.33512(2) 0.16971(3)
C1 C 1.0905(3) 0.1902(3) 0.4230(4)
O1 O 1.1733(2) 0.2344(2) 0.3877(3)
C2 C 1.2810(5) 0.2393(6) 0.4579(8)
H1 H 1.3022 0.2702 0.5340
H2 H 1.2738 0.1820 0.4613
C3 C 1.3663(5) 0.2781(6) 0.4226(10)
H3 H 1.4356 0.2857 0.4821
H4 H 1.3546 0.2384 0.3574
O2 O 1.3818(3) 0.3534(3) 0.3950(4)
C4 C 1.4890(5) 0.4031(6) 0.3986(6)
H5 H 1.5435 0.3999 0.4661
H6 H 1.4989 0.4619 0.4079
C5 C 1.5160(5) 0.3835(6) 0.3061(6)
H7 H 1.5901 0.4253 0.3191
H8 H 1.5180 0.3282 0.3027
O3 O 1.4411(3) 0.3824(3) 0.2033(4)
C6 C 1.4692(6) 0.3733(7) 0.1103(7)
H9 H 1.5448 0.4154 0.1293
H10 H 1.4691 0.3175 0.0964
C7 C 1.3988(7) 0.3820(8) 0.0109(7)
H11 H 1.4012 0.4386 0.0235
H12 H 1.4267 0.3770 -0.0474
O4 O 1.2885(4) 0.3226(4) -0.0279(4)
C8 C 1.2179(11) 0.3250(13) -0.1319(9)
H13 H 1.2635 0.3491 -0.1734
H14 H 1.1678 0.2667 -0.1736
C9 C 1.1539(8) 0.3691(6) -0.1334(6)
H15 H 1.1105 0.3654 -0.2114
H16 H 1.2033 0.4286 -0.0979
O5 O 1.0804(3) 0.3404(3) -0.0787(3)
C10 C 1.0181(8) 0.3814(7) -0.0724(8)
H17 H 0.9938 0.3963 -0.1443
H18 H 1.0676 0.4346 -0.0161
C11 C 0.9255(6) 0.3467(5) -0.0483(7)
H19 H 0.8661 0.3033 -0.1141
H20 H 0.9012 0.3908 -0.0353
O6 O 0.9399(2) 0.30873(19) 0.0486(2)
C12 C 0.8390(3) 0.2688(3) 0.0573(3)
C13 C 0.7688(3) 0.1841(3) -0.0014(3)
C14 C 0.6609(4) 0.1483(3) -0.0036(4)
H21 H 0.6126 0.0927 -0.0445
C15 C 0.6256(4) 0.1938(4) 0.0534(5)
H22 H 0.5525 0.1701 0.0486
C16 C 0.6973(4) 0.2745(4) 0.1177(5)
H23 H 0.6739 0.3039 0.1600
C17 C 0.8042(4) 0.3127(3) 0.1205(4)
S1 S 0.88567(12) 0.42157(8) 0.19079(13)
C18 C 1.0145(4) 0.4261(3) 0.2845(4)
C19 C 1.1127(4) 0.4813(3) 0.2786(4)
H24 H 1.1090 0.5112 0.2222
C20 C 1.2145(4) 0.4923(3) 0.3544(5)
H25 H 1.2795 0.5312 0.3512
C21 C 1.2208(4) 0.4464(3) 0.4345(4)
H26 H 1.2903 0.4519 0.4831
C22 C 1.1255(4) 0.3916(3) 0.4450(4)
S2 S 1.14317(11) 0.34392(9) 0.56158(10)
C23 C 1.0686(4) 0.2334(3) 0.5016(4)
C24 C 0.9914(4) 0.1870(4) 0.5432(4)
H27 H 0.9765 0.2152 0.5960
C25 C 0.9370(4) 0.1001(4) 0.5072(4)
H28 H 0.8895 0.0692 0.5394
C26 C 0.9527(4) 0.0590(3) 0.4244(4)
H29 H 0.9113 0.0005 0.3965
C27 C 1.0295(3) 0.1027(3) 0.3805(4)
S3 S 1.05503(11) 0.04242(9) 0.28447(12)
C28 C 1.0377(4) 0.0872(3) 0.1655(4)
C29 C 1.1232(5) 0.1081(3) 0.1266(5)
H30 H 1.1895 0.1049 0.1683
C30 C 1.1098(5) 0.1333(3) 0.0266(5)
H31 H 1.1660 0.1450 -0.0006
C31 C 1.0143(5) 0.1411(3) -0.0325(4)
H32 H 1.0069 0.1596 -0.0990
C32 C 0.9282(4) 0.1219(3) 0.0046(3)
C33 C 0.9387(3) 0.0921(2) 0.1042(3)
O7 O 0.8530(2) 0.06737(17) 0.1405(2)
C34 C 0.7569(4) -0.0101(3) 0.0684(4)
H33 H 0.7686 -0.0280 0.0023
H34 H 0.6910 0.0012 0.0431
C35 C 0.7379(4) -0.0804(3) 0.1294(4)
H35 H 0.6890 -0.1347 0.0754
H36 H 0.8085 -0.0823 0.1716
O8 O 0.6890(3) -0.06550(19) 0.2036(3)
C36 C 0.6526(6) -0.1375(3) 0.2505(5)
H37 H 0.7169 -0.1443 0.3004
H38 H 0.6066 -0.1889 0.1904
C37 C 0.5884(5) -0.1242(4) 0.3137(5)
H39 H 0.5280 -0.1127 0.2652
H40 H 0.5560 -0.1754 0.3379
O9 O 0.6579(3) -0.0553(2) 0.4089(3)
C38 C 0.6004(5) -0.0476(4) 0.4779(5)
H41 H 0.5758 -0.0994 0.5037
H42 H 0.5349 -0.0395 0.4346
C39 C 0.6751(5) 0.0259(3) 0.5767(4)
H43 H 0.6424 0.0242 0.6323
H44 H 0.7469 0.0241 0.6118
O10 O 0.6886(3) 0.1014(2) 0.5371(3)
C40 C 0.7336(5) 0.1747(4) 0.6254(4)
H45 H 0.8105 0.1871 0.6719
H46 H 0.6913 0.1643 0.6727
C41 C 0.7292(5) 0.2467(4) 0.5782(5)
H47 H 0.6537 0.2317 0.5247
H48 H 0.7489 0.2943 0.6381
O11 O 0.8040(3) 0.2708(2) 0.5232(3)
C42 C 0.7968(5) 0.3358(3) 0.4677(5)
H49 H 0.7781 0.3732 0.5091
H50 H 0.7377 0.3109 0.3926
C43 C 0.9019(5) 0.3847(3) 0.4589(6)
H51 H 0.9618 0.4057 0.5335
H52 H 0.8982 0.4334 0.4293
O12 O 0.9263(2) 0.33307(18) 0.3851(3)
C44 C 1.0209(4) 0.3824(3) 0.3712(4)
S4 S 0.80392(11) 0.12408(8) -0.08675(9)
Cl1 Cl 0.45127(9) 0.12759(8) 0.23175(10)
Cl2 Cl 1.37622(14) 0.61316(11) 0.18378(16)
O13 O 0.4038(4) 0.1596(3) 0.1414(4)
O14 O 0.4705(3) 0.0592(3) 0.1928(5)
O15 O 0.5535(4) 0.1925(3) 0.3047(5)
O16 O 0.3725(6) 0.1009(5) 0.2803(6)
O17 O 1.2957(8) 0.5344(5) 0.1448(7)
O18 O 1.4264(11) 0.6381(7) 0.1176(12)
O19 O 1.3388(10) 0.6661(7) 0.2134(11)
O20 O 1.4446(9) 0.6143(10) 0.2795(11)
loop_
_geom_bond_atom_site_label_1
_geom_bond_atom_site_label_2
_geom_bond_site_symmetry_1
_geom_bond_site_symmetry_2
Cs1 O7 1_555 1_555
Cs2 O1 1_555 1_555
C1 O1 1_555 1_555
O1 C2 1_555 1_555
C2 H1 1_555 1_555
H2 C2 1_555 1_555
C3 C2 1_555 1_555
H3 C3 1_555 1_555
H4 C3 1_555 1_555
O2 Cs2 1_555 1_555
C4 O2 1_555 1_555
H5 C4 1_555 1_555
H6 C4 1_555 1_555
C5 C4 1_555 1_555
H7 C5 1_555 1_555
H8 C5 1_555 1_555
O3 Cs2 1_555 1_555
C6 O3 1_555 1_555
H9 C6 1_555 1_555
H10 C6 1_555 1_555
C7 C6 1_555 1_555
H11 C7 1_555 1_555
H12 C7 1_555 1_555
O4 Cs2 1_555 1_555
C8 O4 1_555 1_555
H13 C8 1_555 1_555
H14 C8 1_555 1_555
C9 C8 1_555 1_555
H15 C9 1_555 1_555
H16 C9 1_555 1_555
O5 Cs2 1_555 1_555
C10 O5 1_555 1_555
H17 C10 1_555 1_555
H18 C10 1_555 1_555
C11 C10 1_555 1_555
H19 C11 1_555 1_555
H20 C11 1_555 1_555
O6 Cs2 1_555 1_555
C12 O6 1_555 1_555
C13 C12 1_555 1_555
C14 C13 1_555 1_555
H21 C14 1_555 1_555
C15 C14 1_555 1_555
H22 C15 1_555 1_555
C16 C15 1_555 1_555
H23 C16 1_555 1_555
C17 C12 1_555 1_555
S1 C17 1_555 1_555
C18 S1 1_555 1_555
C19 C18 1_555 1_555
H24 C19 1_555 1_555
C20 C19 1_555 1_555
H25 C20 1_555 1_555
C21 C20 1_555 1_555
H26 C21 1_555 1_555
C22 C21 1_555 1_555
S2 C22 1_555 1_555
C23 C1 1_555 1_555
C24 C23 1_555 1_555
H27 C24 1_555 1_555
C25 C24 1_555 1_555
H28 C25 1_555 1_555
C26 C25 1_555 1_555
H29 C26 1_555 1_555
C27 C1 1_555 1_555
S3 C27 1_555 1_555
C28 S3 1_555 1_555
C29 C28 1_555 1_555
H30 C29 1_555 1_555
C30 C29 1_555 1_555
H31 C30 1_555 1_555
C31 C30 1_555 1_555
H32 C31 1_555 1_555
C32 C31 1_555 1_555
C33 C28 1_555 1_555
O7 C33 1_555 1_555
C34 O7 1_555 1_555
H33 C34 1_555 1_555
H34 C34 1_555 1_555
C35 C34 1_555 1_555
H35 C35 1_555 1_555
H36 C35 1_555 1_555
O8 Cs1 1_555 1_555
C36 O8 1_555 1_555
H37 C36 1_555 1_555
H38 C36 1_555 1_555
C37 C36 1_555 1_555
H39 C37 1_555 1_555
H40 C37 1_555 1_555
O9 Cs1 1_555 1_555
C38 O9 1_555 1_555
H41 C38 1_555 1_555
H42 C38 1_555 1_555
C39 C38 1_555 1_555
H43 C39 1_555 1_555
H44 C39 1_555 1_555
O10 Cs1 1_555 1_555
C40 O10 1_555 1_555
H45 C40 1_555 1_555
H46 C40 1_555 1_555
C41 C40 1_555 1_555
H47 C41 1_555 1_555
H48 C41 1_555 1_555
O11 Cs1 1_555 1_555
C42 O11 1_555 1_555
H49 C42 1_555 1_555
H50 C42 1_555 1_555
C43 C42 1_555 1_555
H51 C43 1_555 1_555
H52 C43 1_555 1_555
O12 Cs1 1_555 1_555
C44 C18 1_555 1_555
S4 C13 1_555 1_555
Cl1 O13 1_555 1_555
Cl2 O17 1_555 1_555
O14 Cs1 1_555 1_555
O15 Cs1 1_555 1_555
O16 Cl1 1_555 1_555
O17 Cs2 1_555 1_555
O18 Cl2 1_555 1_555
O19 Cl2 1_555 1_555
O20 Cl2 1_555 1_555
C3 O2 1_555 1_555
C5 O3 1_555 1_555
C7 O4 1_555 1_555
C9 O5 1_555 1_555
C11 O6 1_555 1_555
C16 C17 1_555 1_555
C22 C44 1_555 1_555
S2 C23 1_555 1_555
C26 C27 1_555 1_555
C32 C33 1_555 1_555
C32 S4 1_555 1_555
C35 O8 1_555 1_555
C37 O9 1_555 1_555
C39 O10 1_555 1_555
C41 O11 1_555 1_555
C43 O12 1_555 1_555
O12 C44 1_555 1_555
Cl1 O14 1_555 1_555
Cl1 O15 1_555 1_555

#END
