
#######################################################################
#
#                 Cambridge Crystallographic Data Centre
#                                CCDC 
#
#######################################################################
#
# If this CIF has been generated from an entry in the Cambridge 
# Structural Database, then it will include bibliographic, chemical, 
# crystal, experimental, refinement or atomic coordinate data resulting 
# from the CCDC's data processing and validation procedures.
#
#######################################################################

data_ERUYAT
_chemical_formula_moiety         'C12 H8 N4 O2 Se1'
_chemical_name_systematic        
3-nitro-2-(pyridin-2-ylselanyl)imidazo[1,2-a]pyridine
_symmetry_cell_setting           monoclinic
_symmetry_space_group_name_H-M   'C 2/c'
_symmetry_Int_Tables_number      15
_space_group_name_Hall           '-C 2yn'
loop_
_symmetry_equiv_pos_site_id
_symmetry_equiv_pos_as_xyz
1 x,y,z
2 -x,y,1/2-z
3 1/2+x,1/2+y,z
4 1/2-x,1/2+y,1/2-z
5 -x,-y,-z
6 x,-y,1/2+z
7 1/2-x,1/2-y,-z
8 1/2+x,1/2-y,1/2+z
_cell_length_a                   19.9130(15)
_cell_length_b                   8.8665(7)
_cell_length_c                   16.599(2)
_cell_angle_alpha                90
_cell_angle_beta                 126.7922(17)
_cell_angle_gamma                90
_cell_volume                     2346.94
_exptl_crystal_colour            yellow
_exptl_crystal_description       block
_cell_formula_units_Z            8
loop_
_atom_site_label
_atom_site_type_symbol
_atom_site_fract_x
_atom_site_fract_y
_atom_site_fract_z
Se1 Se 0.16999(2) 0.41242(2) 0.39768(2)
N1 N 0.06942(10) 0.18113(18) 0.38335(14)
C1 C 0.00487(14) 0.1227(2) 0.3787(2)
H1 H -0.0032 0.0166 0.3709
C2 C -0.05008(12) 0.2062(2) 0.38450(17)
H2 H -0.0942 0.1589 0.3818
C3 C -0.03968(11) 0.3597(2) 0.39431(14)
H3 H -0.0766 0.4211 0.3984
C4 C 0.02544(11) 0.42322(19) 0.39807(14)
H4 H 0.0337 0.5293 0.4038
C5 C 0.07825(9) 0.32926(18) 0.39325(11)
C6 C 0.22646(9) 0.50165(17) 0.52592(11)
N2 N 0.20415(8) 0.48259(16) 0.58695(10)
C7 C 0.26087(10) 0.55981(18) 0.67118(12)
C8 C 0.26564(11) 0.57721(19) 0.75829(13)
H5 H 0.2259 0.5294 0.7638
C9 C 0.32808(11) 0.66365(19) 0.83521(13)
H6 H 0.3316 0.6770 0.8944
C10 C 0.38716(11) 0.73302(19) 0.82691(13)
H7 H 0.4304 0.7929 0.8809
C11 C 0.38351(10) 0.71607(18) 0.74314(12)
H8 H 0.4237 0.7632 0.7380
N3 N 0.32056(8) 0.62930(15) 0.66604(10)
C12 C 0.29760(10) 0.59226(16) 0.57119(12)
N4 N 0.34090(8) 0.63640(15) 0.53423(11)
O1 O 0.40640(8) 0.71146(14) 0.58795(10)
O2 O 0.31077(8) 0.59892(14) 0.44650(10)
loop_
_geom_bond_atom_site_label_1
_geom_bond_atom_site_label_2
_geom_bond_site_symmetry_1
_geom_bond_site_symmetry_2
Se1 C5 1_555 1_555
N1 C1 1_555 1_555
C1 H1 1_555 1_555
C2 C1 1_555 1_555
H2 C2 1_555 1_555
C3 C2 1_555 1_555
H3 C3 1_555 1_555
C4 C3 1_555 1_555
H4 C4 1_555 1_555
C5 N1 1_555 1_555
C6 Se1 1_555 1_555
N2 C6 1_555 1_555
C7 N2 1_555 1_555
C8 C7 1_555 1_555
H5 C8 1_555 1_555
C9 C8 1_555 1_555
H6 C9 1_555 1_555
C10 C9 1_555 1_555
H7 C10 1_555 1_555
C11 C10 1_555 1_555
H8 C11 1_555 1_555
N3 C7 1_555 1_555
C12 C6 1_555 1_555
N4 C12 1_555 1_555
O1 N4 1_555 1_555
O2 N4 1_555 1_555
C4 C5 1_555 1_555
C11 N3 1_555 1_555
N3 C12 1_555 1_555

#END
