
#######################################################################
#
#                 Cambridge Crystallographic Data Centre
#                                CCDC 
#
#######################################################################
#
# If this CIF has been generated from an entry in the Cambridge 
# Structural Database, then it will include bibliographic, chemical, 
# crystal, experimental, refinement or atomic coordinate data resulting 
# from the CCDC's data processing and validation procedures.
#
#######################################################################

data_ESAGOW
_chemical_formula_moiety         'C35 H27 N4 1+,C2 H6 O1,Br1 1-'
_chemical_name_systematic        
'4,5-diphenyl-1,3-bis(quinolin-2-ylmethyl)-1H-imidazol-3-ium bromide ethanol solvate'
_symmetry_cell_setting           monoclinic
_symmetry_space_group_name_H-M   'P 21/n'
_symmetry_Int_Tables_number      14
_space_group_name_Hall           '-P 2yn'
loop_
_symmetry_equiv_pos_site_id
_symmetry_equiv_pos_as_xyz
1 x,y,z
2 1/2-x,1/2+y,1/2-z
3 -x,-y,-z
4 1/2+x,1/2-y,1/2+z
_cell_length_a                   14.3836(5)
_cell_length_b                   10.9731(4)
_cell_length_c                   19.6587(7)
_cell_angle_alpha                90
_cell_angle_beta                 101.2972(13)
_cell_angle_gamma                90
_cell_volume                     3042.67
_exptl_crystal_colour            colorless
_exptl_crystal_description       block
_cell_formula_units_Z            4
loop_
_atom_site_label
_atom_site_type_symbol
_atom_site_fract_x
_atom_site_fract_y
_atom_site_fract_z
O1 O 0.63110(14) 0.20421(18) 0.04257(11)
H1 H 0.5721 0.2098 0.0391
C1 C 0.6584(2) 0.0792(3) 0.04922(16)
H2 H 0.6137 0.0292 0.0158
H3 H 0.6569 0.0500 0.0966
C2 C 0.7559(2) 0.0668(3) 0.03523(19)
H4 H 0.7572 0.0978 -0.0113
H5 H 0.7744 -0.0193 0.0381
H6 H 0.8002 0.1137 0.0697
N1 N 0.67255(15) 0.5043(2) 0.13537(11)
N2 N 0.52827(15) 0.5712(2) 0.11550(10)
N3 N 0.86566(15) 0.3479(2) 0.07395(11)
N4 N 0.40313(15) 0.5406(2) 0.20907(11)
C3 C 0.58295(17) 0.4776(2) 0.10672(12)
H7 H 0.5618 0.4035 0.0838
C4 C 0.67496(18) 0.6209(2) 0.16322(13)
C5 C 0.58448(18) 0.6625(2) 0.15122(13)
C6 C 0.75226(18) 0.4199(2) 0.13654(13)
H8 H 0.7288 0.3354 0.1383
H9 H 0.7999 0.4342 0.1795
C7 C 0.80032(17) 0.4316(2) 0.07486(13)
C8 C 0.77535(18) 0.5216(2) 0.02365(13)
H10 H 0.7292 0.5816 0.0277
C9 C 0.81880(19) 0.5207(3) -0.03183(14)
H11 H 0.8028 0.5802 -0.0673
C10 C 0.88751(18) 0.4315(3) -0.03674(14)
C11 C 0.9336(2) 0.4214(3) -0.09404(14)
H12 H 0.9179 0.4765 -0.1318
C12 C 1.0000(2) 0.3336(3) -0.09554(16)
H13 H 1.0302 0.3277 -0.1343
C13 C 1.0241(2) 0.2516(3) -0.03989(16)
H14 H 1.0712 0.1914 -0.0410
C14 C 0.98018(19) 0.2578(3) 0.01594(15)
H15 H 0.9970 0.2018 0.0531
C15 C 0.91009(18) 0.3470(3) 0.01853(13)
C16 C 0.76187(18) 0.6885(2) 0.19435(13)
C17 C 0.82494(18) 0.6474(3) 0.25292(13)
H16 H 0.8145 0.5713 0.2733
C18 C 0.90330(19) 0.7180(3) 0.28148(14)
H17 H 0.9462 0.6901 0.3215
C19 C 0.9188(2) 0.8279(3) 0.25203(15)
H18 H 0.9727 0.8754 0.2715
C20 C 0.8559(2) 0.8699(3) 0.19384(15)
H19 H 0.8665 0.9462 0.1739
C21 C 0.77767(19) 0.8000(3) 0.16493(15)
H20 H 0.7349 0.8283 0.1250
C22 C 0.42468(18) 0.5756(3) 0.09214(14)
H21 H 0.4019 0.4962 0.0715
H22 H 0.4082 0.6390 0.0559
C23 C 0.37617(18) 0.6038(2) 0.15184(14)
C24 C 0.30591(19) 0.6961(3) 0.14410(15)
H23 H 0.2878 0.7382 0.1013
C25 C 0.26478(19) 0.7234(3) 0.19903(16)
H24 H 0.2174 0.7848 0.1948
C26 C 0.29279(19) 0.6603(3) 0.26207(15)
C27 C 0.2553(2) 0.6846(3) 0.32214(16)
H25 H 0.2083 0.7459 0.3208
C28 C 0.2862(2) 0.6208(3) 0.38208(16)
H26 H 0.2607 0.6378 0.4221
C29 C 0.3557(2) 0.5297(3) 0.38438(15)
H27 H 0.3769 0.4860 0.4262
C30 C 0.39300(19) 0.5034(3) 0.32731(14)
H28 H 0.4396 0.4414 0.3297
C31 C 0.36254(18) 0.5682(3) 0.26482(14)
C32 C 0.54334(18) 0.7745(2) 0.17429(13)
C33 C 0.54335(18) 0.7889(3) 0.24478(14)
H29 H 0.5746 0.7308 0.2772
C34 C 0.49824(19) 0.8870(3) 0.26751(14)
H30 H 0.4983 0.8961 0.3156
C35 C 0.45279(19) 0.9723(3) 0.22072(14)
H31 H 0.4203 1.0387 0.2365
C36 C 0.45472(19) 0.9610(3) 0.15075(14)
H32 H 0.4250 1.0208 0.1188
C37 C 0.50001(18) 0.8624(2) 0.12750(14)
H33 H 0.5015 0.8548 0.0796
Br1 Br 0.408345(19) 0.25007(3) 0.032560(14)
loop_
_geom_bond_atom_site_label_1
_geom_bond_atom_site_label_2
_geom_bond_site_symmetry_1
_geom_bond_site_symmetry_2
O1 H1 1_555 1_555
C1 O1 1_555 1_555
H2 C1 1_555 1_555
H3 C1 1_555 1_555
C2 C1 1_555 1_555
H4 C2 1_555 1_555
H5 C2 1_555 1_555
H6 C2 1_555 1_555
N1 C3 1_555 1_555
N2 C3 1_555 1_555
N3 C7 1_555 1_555
N4 C23 1_555 1_555
C3 H7 1_555 1_555
C4 N1 1_555 1_555
C5 N2 1_555 1_555
C6 N1 1_555 1_555
H8 C6 1_555 1_555
H9 C6 1_555 1_555
C7 C6 1_555 1_555
C8 C7 1_555 1_555
H10 C8 1_555 1_555
C9 C8 1_555 1_555
H11 C9 1_555 1_555
C10 C9 1_555 1_555
C11 C10 1_555 1_555
H12 C11 1_555 1_555
C12 C11 1_555 1_555
H13 C12 1_555 1_555
C13 C12 1_555 1_555
H14 C13 1_555 1_555
C14 C13 1_555 1_555
H15 C14 1_555 1_555
C15 N3 1_555 1_555
C16 C4 1_555 1_555
C17 C16 1_555 1_555
H16 C17 1_555 1_555
C18 C17 1_555 1_555
H17 C18 1_555 1_555
C19 C18 1_555 1_555
H18 C19 1_555 1_555
C20 C19 1_555 1_555
H19 C20 1_555 1_555
C21 C16 1_555 1_555
H20 C21 1_555 1_555
C22 N2 1_555 1_555
H21 C22 1_555 1_555
H22 C22 1_555 1_555
C23 C22 1_555 1_555
C24 C23 1_555 1_555
H23 C24 1_555 1_555
C25 C24 1_555 1_555
H24 C25 1_555 1_555
C26 C25 1_555 1_555
C27 C26 1_555 1_555
H25 C27 1_555 1_555
C28 C27 1_555 1_555
H26 C28 1_555 1_555
C29 C28 1_555 1_555
H27 C29 1_555 1_555
C30 C29 1_555 1_555
H28 C30 1_555 1_555
C31 N4 1_555 1_555
C32 C5 1_555 1_555
C33 C32 1_555 1_555
H29 C33 1_555 1_555
C34 C33 1_555 1_555
H30 C34 1_555 1_555
C35 C34 1_555 1_555
H31 C35 1_555 1_555
C36 C35 1_555 1_555
H32 C36 1_555 1_555
C37 C32 1_555 1_555
H33 C37 1_555 1_555
C4 C5 1_555 1_555
C10 C15 1_555 1_555
C14 C15 1_555 1_555
C20 C21 1_555 1_555
C26 C31 1_555 1_555
C30 C31 1_555 1_555
C36 C37 1_555 1_555

#END
