
#######################################################################
#
#                 Cambridge Crystallographic Data Centre
#                                CCDC 
#
#######################################################################
#
# If this CIF has been generated from an entry in the Cambridge 
# Structural Database, then it will include bibliographic, chemical, 
# crystal, experimental, refinement or atomic coordinate data resulting 
# from the CCDC's data processing and validation procedures.
#
#######################################################################

data_ESAGUC
_chemical_formula_moiety         'C36 H28 N3 1+,H2 O1,Br1 1-'
_chemical_name_systematic        
'1-(2-naphthylmethyl)-4,5-diphenyl-3-(quinolin-2-ylmethyl)-1H-imidazol-3-ium bromide monohydrate'
_symmetry_cell_setting           monoclinic
_symmetry_space_group_name_H-M   'P 21/c'
_symmetry_Int_Tables_number      14
_space_group_name_Hall           '-P 2ybc'
loop_
_symmetry_equiv_pos_site_id
_symmetry_equiv_pos_as_xyz
1 x,y,z
2 -x,1/2+y,1/2-z
3 -x,-y,-z
4 x,1/2-y,1/2+z
_cell_length_a                   12.0212(5)
_cell_length_b                   23.5567(9)
_cell_length_c                   10.5859(5)
_cell_angle_alpha                90
_cell_angle_beta                 101.101(2)
_cell_angle_gamma                90
_cell_volume                     2941.62
_exptl_crystal_colour            colorless
_exptl_crystal_description       needle
_cell_formula_units_Z            4
loop_
_atom_site_label
_atom_site_type_symbol
_atom_site_fract_x
_atom_site_fract_y
_atom_site_fract_z
Br1 Br 0.48489(2) 0.291023(10) 0.98060(2)
O1 O 0.62232(15) 0.28662(8) 0.28621(17)
H1 H 0.592(2) 0.2637(10) 0.331(2)
H2 H 0.588(2) 0.2834(12) 0.2081(11)
N1 N 0.76405(16) 0.69210(7) 0.73421(18)
N2 N 0.65123(15) 0.62906(7) 0.78770(18)
N3 N 0.60338(16) 0.52366(8) 0.65847(19)
C1 C 0.6574(2) 0.67354(9) 0.7125(2)
H3 H 0.5960 0.6895 0.6531
C2 C 0.82951(19) 0.65816(9) 0.8281(2)
C3 C 0.75781(19) 0.61850(9) 0.8613(2)
C4 C 0.7984(2) 0.74574(9) 0.6806(2)
H4 H 0.7401 0.7573 0.6057
H5 H 0.8708 0.7401 0.6506
C5 C 0.81286(19) 0.79190(9) 0.7821(2)
C6 C 0.7173(2) 0.81135(10) 0.8294(2)
H6 H 0.6451 0.7948 0.7984
C7 C 0.7275(2) 0.85363(9) 0.9187(2)
H7 H 0.6625 0.8662 0.9495
C8 C 0.8342(2) 0.87901(9) 0.9662(2)
C9 C 0.8487(2) 0.92298(9) 1.0589(2)
H8 H 0.7856 0.9356 1.0933
C10 C 0.9524(2) 0.94740(10) 1.0995(2)
H9 H 0.9610 0.9770 1.1617
C11 C 1.0469(2) 0.92899(10) 1.0495(2)
H10 H 1.1185 0.9467 1.0770
C12 C 1.0364(2) 0.88597(10) 0.9621(2)
H11 H 1.1010 0.8735 0.9303
C13 C 0.9306(2) 0.85972(9) 0.9183(2)
C14 C 0.9167(2) 0.81535(9) 0.8264(2)
H12 H 0.9807 0.8017 0.7952
C15 C 0.95119(19) 0.66795(9) 0.8765(2)
C16 C 1.0271(2) 0.67371(9) 0.7923(2)
H13 H 1.0005 0.6702 0.7021
C17 C 1.1409(2) 0.68450(10) 0.8397(3)
H14 H 1.1919 0.6885 0.7820
C18 C 1.1797(2) 0.68933(11) 0.9700(3)
H15 H 1.2575 0.6972 1.0021
C19 C 1.1062(2) 0.68279(11) 1.0550(3)
H16 H 1.1338 0.6857 1.1451
C20 C 0.9920(2) 0.67201(10) 1.0081(2)
H17 H 0.9417 0.6674 1.0664
C21 C 0.54709(19) 0.59760(9) 0.7926(2)
H18 H 0.4831 0.6154 0.7329
H19 H 0.5309 0.6001 0.8807
C22 C 0.55518(19) 0.53595(9) 0.7567(2)
C23 C 0.5086(2) 0.49503(10) 0.8283(2)
H20 H 0.4704 0.5064 0.8948
C24 C 0.5188(2) 0.43901(11) 0.8011(3)
H21 H 0.4895 0.4108 0.8498
C25 C 0.5734(2) 0.42336(10) 0.6997(2)
C26 C 0.5887(2) 0.36591(11) 0.6658(3)
H22 H 0.5654 0.3361 0.7154
C27 C 0.6363(2) 0.35342(11) 0.5631(3)
H23 H 0.6464 0.3149 0.5414
C28 C 0.6709(2) 0.39702(11) 0.4885(3)
H24 H 0.7027 0.3877 0.4156
C29 C 0.6592(2) 0.45279(10) 0.5200(2)
H25 H 0.6834 0.4819 0.4692
C30 C 0.61152(19) 0.46735(9) 0.6274(2)
C31 C 0.78050(19) 0.57086(9) 0.9536(2)
C32 C 0.7538(2) 0.57512(10) 1.0749(2)
H26 H 0.7209 0.6090 1.0995
C33 C 0.7750(2) 0.52999(11) 1.1604(3)
H27 H 0.7577 0.5332 1.2440
C34 C 0.8213(2) 0.48032(11) 1.1238(3)
H28 H 0.8347 0.4492 1.1819
C35 C 0.8480(2) 0.47583(12) 1.0037(3)
H29 H 0.8798 0.4416 0.9788
C36 C 0.8287(2) 0.52115(11) 0.9189(3)
H30 H 0.8486 0.5182 0.8365
loop_
_geom_bond_atom_site_label_1
_geom_bond_atom_site_label_2
_geom_bond_site_symmetry_1
_geom_bond_site_symmetry_2
O1 H1 1_555 1_555
H2 O1 1_555 1_555
N1 C1 1_555 1_555
N2 C1 1_555 1_555
N3 C22 1_555 1_555
C1 H3 1_555 1_555
C2 N1 1_555 1_555
C3 N2 1_555 1_555
C4 N1 1_555 1_555
H4 C4 1_555 1_555
H5 C4 1_555 1_555
C5 C4 1_555 1_555
C6 C5 1_555 1_555
H6 C6 1_555 1_555
C7 C6 1_555 1_555
H7 C7 1_555 1_555
C8 C7 1_555 1_555
C9 C8 1_555 1_555
H8 C9 1_555 1_555
C10 C9 1_555 1_555
H9 C10 1_555 1_555
C11 C10 1_555 1_555
H10 C11 1_555 1_555
C12 C11 1_555 1_555
H11 C12 1_555 1_555
C13 C8 1_555 1_555
C14 C5 1_555 1_555
H12 C14 1_555 1_555
C15 C2 1_555 1_555
C16 C15 1_555 1_555
H13 C16 1_555 1_555
C17 C16 1_555 1_555
H14 C17 1_555 1_555
C18 C17 1_555 1_555
H15 C18 1_555 1_555
C19 C18 1_555 1_555
H16 C19 1_555 1_555
C20 C15 1_555 1_555
H17 C20 1_555 1_555
C21 N2 1_555 1_555
H18 C21 1_555 1_555
H19 C21 1_555 1_555
C22 C21 1_555 1_555
C23 C22 1_555 1_555
H20 C23 1_555 1_555
C24 C23 1_555 1_555
H21 C24 1_555 1_555
C25 C24 1_555 1_555
C26 C25 1_555 1_555
H22 C26 1_555 1_555
C27 C26 1_555 1_555
H23 C27 1_555 1_555
C28 C27 1_555 1_555
H24 C28 1_555 1_555
C29 C28 1_555 1_555
H25 C29 1_555 1_555
C30 N3 1_555 1_555
C31 C3 1_555 1_555
C32 C31 1_555 1_555
H26 C32 1_555 1_555
C33 C32 1_555 1_555
H27 C33 1_555 1_555
C34 C33 1_555 1_555
H28 C34 1_555 1_555
C35 C34 1_555 1_555
H29 C35 1_555 1_555
C36 C31 1_555 1_555
H30 C36 1_555 1_555
C2 C3 1_555 1_555
C12 C13 1_555 1_555
C13 C14 1_555 1_555
C19 C20 1_555 1_555
C25 C30 1_555 1_555
C29 C30 1_555 1_555
C35 C36 1_555 1_555

#END
