
#######################################################################
#
#                 Cambridge Crystallographic Data Centre
#                                CCDC 
#
#######################################################################
#
# If this CIF has been generated from an entry in the Cambridge 
# Structural Database, then it will include bibliographic, chemical, 
# crystal, experimental, refinement or atomic coordinate data resulting 
# from the CCDC's data processing and validation procedures.
#
#######################################################################

data_ESAPAR
_chemical_formula_moiety         'C26 H23 N2 1+,Br1 1-'
_chemical_name_systematic        
'5-methyl-1,3-bis(2-naphthylmethyl)-1H-imidazol-3-ium bromide'
_symmetry_cell_setting           monoclinic
_symmetry_space_group_name_H-M   'P 21/n'
_symmetry_Int_Tables_number      14
_space_group_name_Hall           '-P 2yn'
loop_
_symmetry_equiv_pos_site_id
_symmetry_equiv_pos_as_xyz
1 x,y,z
2 1/2-x,1/2+y,1/2-z
3 -x,-y,-z
4 1/2+x,1/2-y,1/2+z
_cell_length_a                   10.779(4)
_cell_length_b                   17.353(7)
_cell_length_c                   11.919(5)
_cell_angle_alpha                90
_cell_angle_beta                 111.99(2)
_cell_angle_gamma                90
_cell_volume                     2067.23
_exptl_crystal_colour            colorless
_exptl_crystal_description       plate
_cell_formula_units_Z            4
loop_
_atom_site_label
_atom_site_type_symbol
_atom_site_fract_x
_atom_site_fract_y
_atom_site_fract_z
Br1 Br 0.02491(4) 0.11929(2) 0.92818(4)
N1 N 0.6715(3) 0.08088(19) -0.0439(3)
N2 N 0.7697(3) 0.04730(19) 0.1414(3)
C1 C 0.7836(4) 0.0514(2) 0.0373(4)
H1 H 0.8604 0.0360 0.0220
C2 C 0.5824(4) 0.0953(2) 0.0115(4)
C3 C 0.6461(4) 0.0742(2) 0.1285(4)
H2 H 0.6111 0.0775 0.1905
C4 C 0.4480(4) 0.1306(2) -0.0533(4)
H3 H 0.3984 0.1322 0.0008
H4 H 0.3984 0.0997 -0.1249
H5 H 0.4591 0.1831 -0.0783
C5 C 0.6485(4) 0.0912(2) -0.1714(4)
H6 H 0.7355 0.0980 -0.1805
H7 H 0.5951 0.1386 -0.2016
C6 C 0.5757(4) 0.0234(2) -0.2466(4)
C7 C 0.4647(4) 0.0346(2) -0.3473(4)
H8 H 0.4297 0.0851 -0.3677
C8 C 0.3994(4) -0.0287(2) -0.4234(3)
C9 C 0.2889(4) -0.0176(2) -0.5311(4)
H9 H 0.2538 0.0327 -0.5541
C10 C 0.2314(4) -0.0795(3) -0.6033(4)
H10 H 0.1569 -0.0714 -0.6766
C11 C 0.2801(4) -0.1547(2) -0.5715(4)
H11 H 0.2379 -0.1966 -0.6230
C12 C 0.3867(4) -0.1680(2) -0.4679(4)
H12 H 0.4185 -0.2190 -0.4463
C13 C 0.4513(4) -0.1044(2) -0.3909(4)
C14 C 0.5653(4) -0.1149(3) -0.2840(4)
H13 H 0.5992 -0.1653 -0.2601
C15 C 0.6274(4) -0.0527(2) -0.2145(4)
H14 H 0.7057 -0.0604 -0.1442
C16 C 0.8730(4) 0.0185(2) 0.2537(3)
H15 H 0.9231 -0.0236 0.2337
H16 H 0.8292 -0.0030 0.3064
C17 C 0.9699(4) 0.0806(2) 0.3218(4)
C18 C 0.9816(4) 0.1008(2) 0.4352(4)
H17 H 0.9226 0.0787 0.4688
C19 C 1.0803(4) 0.1544(2) 0.5051(4)
C20 C 1.0963(4) 0.1733(2) 0.6250(4)
H18 H 1.0360 0.1527 0.6583
C21 C 1.1966(4) 0.2202(2) 0.6932(5)
H19 H 1.2059 0.2327 0.7736
C22 C 1.2859(4) 0.2500(3) 0.6451(5)
H20 H 1.3583 0.2810 0.6946
C23 C 1.2718(4) 0.2359(2) 0.5295(5)
H21 H 1.3322 0.2582 0.4977
C24 C 1.1660(4) 0.1875(2) 0.4554(4)
C25 C 1.1477(4) 0.1693(2) 0.3356(4)
H22 H 1.2015 0.1941 0.2990
C26 C 1.0533(4) 0.1161(2) 0.2697(4)
H23 H 1.0445 0.1034 0.1896
loop_
_geom_bond_atom_site_label_1
_geom_bond_atom_site_label_2
_geom_bond_site_symmetry_1
_geom_bond_site_symmetry_2
N1 C1 1_555 1_555
N2 C1 1_555 1_555
C1 H1 1_555 1_555
C2 N1 1_555 1_555
C3 N2 1_555 1_555
H2 C3 1_555 1_555
C4 C2 1_555 1_555
H3 C4 1_555 1_555
H4 C4 1_555 1_555
H5 C4 1_555 1_555
C5 N1 1_555 1_555
H6 C5 1_555 1_555
H7 C5 1_555 1_555
C6 C5 1_555 1_555
C7 C6 1_555 1_555
H8 C7 1_555 1_555
C8 C7 1_555 1_555
C9 C8 1_555 1_555
H9 C9 1_555 1_555
C10 C9 1_555 1_555
H10 C10 1_555 1_555
C11 C10 1_555 1_555
H11 C11 1_555 1_555
C12 C11 1_555 1_555
H12 C12 1_555 1_555
C13 C8 1_555 1_555
C14 C13 1_555 1_555
H13 C14 1_555 1_555
C15 C6 1_555 1_555
H14 C15 1_555 1_555
C16 N2 1_555 1_555
H15 C16 1_555 1_555
H16 C16 1_555 1_555
C17 C16 1_555 1_555
C18 C17 1_555 1_555
H17 C18 1_555 1_555
C19 C18 1_555 1_555
C20 C19 1_555 1_555
H18 C20 1_555 1_555
C21 C20 1_555 1_555
H19 C21 1_555 1_555
C22 C21 1_555 1_555
H20 C22 1_555 1_555
C23 C22 1_555 1_555
H21 C23 1_555 1_555
C24 C19 1_555 1_555
C25 C24 1_555 1_555
H22 C25 1_555 1_555
C26 C17 1_555 1_555
H23 C26 1_555 1_555
C2 C3 1_555 1_555
C12 C13 1_555 1_555
C14 C15 1_555 1_555
C23 C24 1_555 1_555
C25 C26 1_555 1_555

#END
