
#######################################################################
#
#                 Cambridge Crystallographic Data Centre
#                                CCDC 
#
#######################################################################
#
# If this CIF has been generated from an entry in the Cambridge 
# Structural Database, then it will include bibliographic, chemical, 
# crystal, experimental, refinement or atomic coordinate data resulting 
# from the CCDC's data processing and validation procedures.
#
#######################################################################

data_ESEJOC
_chemical_formula_moiety         'C86 H94 N8,2(C1 H1 Cl3)'
_chemical_name_systematic        
'1,2,4,5-tetrakis(5-(4-Heptylphenyl)-1H-pyrrolo(2,3-b)pyridin-1-yl)benzene chloroform solvate'
_symmetry_cell_setting           triclinic
_symmetry_space_group_name_H-M   'P -1'
_symmetry_Int_Tables_number      2
_space_group_name_Hall           '-P 1'
loop_
_symmetry_equiv_pos_site_id
_symmetry_equiv_pos_as_xyz
1 x,y,z
2 -x,-y,-z
_cell_length_a                   9.7299(13)
_cell_length_b                   12.4420(17)
_cell_length_c                   18.596(3)
_cell_angle_alpha                96.390(2)
_cell_angle_beta                 103.019(2)
_cell_angle_gamma                112.774(2)
_cell_volume                     1972.37
_exptl_crystal_description       block
_cell_formula_units_Z            1
loop_
_atom_site_label
_atom_site_type_symbol
_atom_site_fract_x
_atom_site_fract_y
_atom_site_fract_z
N1 N 0.8250(2) 1.12842(19) 0.54984(13)
N2 N 0.8434(3) 1.2875(2) 0.64322(13)
N3 N 0.6371(2) 1.23615(18) 0.48234(13)
N4 N 0.5640(3) 1.35040(19) 0.56862(13)
C1 C 0.9308(3) 1.1041(2) 0.51997(17)
H1 H 0.9047 1.0357 0.4821
C2 C 1.0770(3) 1.1918(2) 0.55244(17)
H2 H 1.1696 1.1953 0.5419
C3 C 1.0649(3) 1.2779(2) 0.60566(16)
C4 C 1.1643(3) 1.3886(2) 0.65311(16)
H3 H 1.2724 1.4223 0.6573
C5 C 1.1041(3) 1.4494(2) 0.69419(16)
C6 C 0.9439(3) 1.3932(2) 0.68761(16)
H4 H 0.9044 1.4344 0.7174
C7 C 0.9065(3) 1.2359(2) 0.60271(16)
C8 C 1.2030(3) 1.5715(2) 0.74177(16)
C9 C 1.3552(3) 1.6025(3) 0.78472(18)
H5 H 1.3949 1.5438 0.7854
C10 C 1.4497(4) 1.7181(3) 0.82659(19)
H6 H 1.5531 1.7368 0.8555
C11 C 1.3968(3) 1.8071(3) 0.82733(17)
C12 C 1.2447(3) 1.7747(3) 0.78433(17)
H7 H 1.2053 1.8337 0.7833
C13 C 1.1487(3) 1.6599(3) 0.74302(17)
H8 H 1.0445 1.6410 0.7151
C14 C 1.4986(4) 1.9346(3) 0.87081(18)
H9 H 1.5356 1.9830 0.8345
H10 H 1.4329 1.9656 0.8918
C15 C 1.6390(4) 1.9550(3) 0.93485(19)
H11 H 1.7083 1.9275 0.9146
H12 H 1.6042 1.9068 0.9716
C16 C 1.7301(4) 2.0859(3) 0.97538(18)
H13 H 1.6612 2.1123 0.9969
H14 H 1.7610 2.1341 0.9380
C17 C 1.8760(4) 2.1102(3) 1.0388(2)
H15 H 1.8445 2.0660 1.0778
H16 H 1.9417 2.0790 1.0179
C18 C 1.9725(4) 2.2416(3) 1.07617(18)
H17 H 2.0042 2.2856 1.0371
H18 H 1.9063 2.2728 1.0966
C19 C 2.1171(4) 2.2674(3) 1.1395(2)
H19 H 2.1804 2.2321 1.1200
H20 H 2.0854 2.2281 1.1802
C20 C 0.5934(3) 0.9439(2) 0.52799(15)
H21 H 0.657(3) 0.910(2) 0.5508(13)
C21 C 0.6605(3) 1.0635(2) 0.52356(15)
C22 C 0.5667(3) 1.1186(2) 0.49491(15)
C23 C 0.7388(3) 1.2661(2) 0.43922(16)
H22 H 0.7587 1.2104 0.4089
C24 C 0.8062(3) 1.3856(2) 0.44618(16)
H23 H 0.8789 1.4279 0.4214
C25 C 0.7477(3) 1.4363(2) 0.49775(16)
C26 C 0.7761(3) 1.5510(2) 0.53094(17)
H24 H 0.8453 1.6181 0.5174
C27 C 0.7026(3) 1.5667(2) 0.58415(16)
C28 C 0.5969(3) 1.4632(2) 0.59974(16)
H25 H 0.5446 1.4745 0.6353
C29 C 0.6409(3) 1.3412(2) 0.51968(15)
C30 C 0.7393(3) 1.6888(2) 0.62553(16)
C31 C 0.8866(4) 1.7812(2) 0.63685(17)
H26 H 0.9607 1.7649 0.6176
C32 C 0.9270(4) 1.8958(3) 0.67552(17)
H27 H 1.0270 1.9570 0.6810
C33 C 0.8242(4) 1.9230(3) 0.70651(18)
C34 C 0.6780(4) 1.8312(3) 0.69535(17)
H28 H 0.6048 1.8472 0.7156
C35 C 0.6360(3) 1.7169(3) 0.65544(17)
H29 H 0.5344 1.6567 0.6484
C36 C 0.8730(5) 2.0473(3) 0.7517(2)
H30 H 0.8990 2.1044 0.7185
H31 H 0.7830 2.0499 0.7670
C37 C 1.0049(6) 2.0873(5) 0.8191(3)
H32 H 1.072(5) 2.067(4) 0.821(2)
C38 C 1.0556(10) 2.2337(9) 0.8508(5)
H33 H 1.0591 2.2752 0.8084
H34 H 0.9788 2.2439 0.8746
C39 C 1.1916(19) 2.2772(16) 0.8999(10)
H35 H 1.2638 2.2626 0.8744
H36 H 1.1842 2.2310 0.9400
C40 C 1.2666(16) 2.4106(14) 0.9386(8)
H37 H 1.3223 2.4179 0.9917
H38 H 1.3470 2.4521 0.9143
C41 C 1.1771(13) 2.4756(10) 0.9403(6)
H39 H 1.0855 2.4322 0.9574
H40 H 1.1401 2.4890 0.8894
C42 C 1.2900(15) 2.6004(8) 0.9988(5)
H41 H 1.2273 2.6369 1.0165
H42 H 1.3571 2.6540 0.9737
H43 H 1.3548 2.5865 1.0421
C44 C 2.2167(4) 2.3995(3) 1.1725(2)
H45 H 2.3044 2.4101 1.2153
H46 H 2.1538 2.4360 1.1901
H47 H 2.2566 2.4379 1.1337
N1A N 0.1750(2) 0.87158(19) 0.45016(13)
N2A N 0.1566(3) 0.7125(2) 0.35678(13)
N3A N 0.3629(2) 0.76385(18) 0.51766(13)
N4A N 0.4360(3) 0.64960(19) 0.43138(13)
C1A C 0.0692(3) 0.8959(2) 0.48003(17)
H1A H 0.0953 0.9643 0.5179
C2A C -0.0770(3) 0.8082(2) 0.44756(17)
H2A H -0.1696 0.8047 0.4581
C3A C -0.0649(3) 0.7221(2) 0.39434(16)
C4A C -0.1643(3) 0.6114(2) 0.34689(16)
H3A H -0.2724 0.5777 0.3427
C5A C -0.1041(3) 0.5506(2) 0.30581(16)
C6A C 0.0561(3) 0.6068(2) 0.31239(16)
H4A H 0.0956 0.5656 0.2826
C7A C 0.0935(3) 0.7641(2) 0.39729(16)
C8A C -0.2030(3) 0.4285(2) 0.25823(16)
C9A C -0.3552(3) 0.3975(3) 0.21528(18)
H5A H -0.3949 0.4562 0.2146
C10A C -0.4497(4) 0.2819(3) 0.17341(19)
H6A H -0.5531 0.2632 0.1445
C11A C -0.3968(3) 0.1929(3) 0.17267(17)
C12A C -0.2447(3) 0.2253(3) 0.21567(17)
H7A H -0.2053 0.1663 0.2167
C13A C -0.1487(3) 0.3401(3) 0.25698(17)
H8A H -0.0445 0.3590 0.2849
C14A C -0.4986(4) 0.0654(3) 0.12919(18)
H9A H -0.5356 0.0170 0.1655
H10A H -0.4329 0.0344 0.1082
C15A C -0.6390(4) 0.0450(3) 0.06515(19)
H11A H -0.7083 0.0725 0.0854
H12A H -0.6042 0.0932 0.0284
C16A C -0.7301(4) -0.0859(3) 0.02462(18)
H13A H -0.6612 -0.1123 0.0031
H14A H -0.7610 -0.1341 0.0620
C17A C -0.8760(4) -0.1102(3) -0.0388(2)
H15A H -0.8445 -0.0660 -0.0778
H16A H -0.9417 -0.0790 -0.0179
C18A C -0.9725(4) -0.2416(3) -0.07617(18)
H17A H -1.0042 -0.2856 -0.0371
H18A H -0.9063 -0.2728 -0.0966
C19A C -1.1171(4) -0.2674(3) -0.1395(2)
H19A H -1.1804 -0.2321 -0.1200
H20A H -1.0854 -0.2281 -0.1802
C20A C 0.4066(3) 1.0561(2) 0.47201(15)
H21A H 0.343(3) 1.090(2) 0.4492(13)
C21A C 0.3395(3) 0.9365(2) 0.47644(15)
C22A C 0.4333(3) 0.8814(2) 0.50509(15)
C23A C 0.2612(3) 0.7339(2) 0.56078(16)
H22A H 0.2413 0.7896 0.5911
C24A C 0.1938(3) 0.6144(2) 0.55382(16)
H23A H 0.1211 0.5721 0.5786
C25A C 0.2523(3) 0.5637(2) 0.50225(16)
C26A C 0.2239(3) 0.4490(2) 0.46906(17)
H24A H 0.1547 0.3819 0.4826
C27A C 0.2974(3) 0.4333(2) 0.41585(16)
C28A C 0.4031(3) 0.5368(2) 0.40026(16)
H25A H 0.4554 0.5255 0.3647
C29A C 0.3591(3) 0.6588(2) 0.48032(15)
C30A C 0.2607(3) 0.3112(2) 0.37447(16)
C31A C 0.1134(4) 0.2188(2) 0.36315(17)
H26A H 0.0393 0.2351 0.3824
C32A C 0.0730(4) 0.1042(3) 0.32448(17)
H27A H -0.0270 0.0430 0.3190
C33A C 0.1758(4) 0.0770(3) 0.29349(18)
C34A C 0.3220(4) 0.1688(3) 0.30465(17)
H28A H 0.3952 0.1528 0.2844
C35A C 0.3640(3) 0.2831(3) 0.34456(17)
H29A H 0.4656 0.3433 0.3516
C36A C 0.1270(5) -0.0473(3) 0.2483(2)
H30A H 0.1010 -0.1044 0.2815
H31A H 0.2170 -0.0499 0.2330
C37A C -0.0049(6) -0.0873(5) 0.1809(3)
H32A H -0.072(5) -0.067(4) 0.179(2)
C38A C -0.0556(10) -0.2337(9) 0.1492(5)
H33A H -0.0591 -0.2752 0.1916
H34A H 0.0212 -0.2439 0.1254
C39A C -0.1916(19) -0.2772(16) 0.1001(10)
H35A H -0.2638 -0.2626 0.1256
H36A H -0.1842 -0.2310 0.0600
C40A C -0.2666(16) -0.4106(14) 0.0614(8)
H37A H -0.3223 -0.4179 0.0083
H38A H -0.3470 -0.4521 0.0857
C41A C -0.1771(13) -0.4756(10) 0.0597(6)
H39A H -0.0855 -0.4322 0.0426
H40A H -0.1401 -0.4890 0.1106
C42A C -0.2900(15) -0.6004(8) 0.0012(5)
H41A H -0.2273 -0.6369 -0.0165
H42A H -0.3571 -0.6540 0.0263
H43A H -0.3548 -0.5865 -0.0421
C44A C -1.2167(4) -0.3995(3) -0.1725(2)
H45A H -1.3044 -0.4101 -0.2153
H46A H -1.1538 -0.4360 -0.1901
H47A H -1.2566 -0.4379 -0.1337
C43 C 0.4707(4) 0.7961(3) 0.29008(18)
H44 H 0.4223 0.7591 0.3284
Cl1 Cl 0.32757(11) 0.74689(8) 0.20345(5)
Cl2 Cl 0.54767(13) 0.95202(8) 0.31958(6)
Cl3 Cl 0.61658(14) 0.75132(12) 0.28348(8)
C45? C 1.0516(16) 2.1879(12) 0.8838(9)
C46? C 1.171(3) 2.3058(17) 0.8634(12)
C47? C 1.208(2) 2.4297(16) 0.9285(10)
C48? C 1.367(2) 2.5210(17) 0.9770(10)
C49? C 1.386(3) 2.638(2) 1.0220(14)
H48? H 1.1039 2.1727 0.9311
H49? H 0.9593 2.1987 0.8903
H50? H 1.1236 2.3126 0.8121
H51? H 1.2691 2.2991 0.8642
H52? H 1.1588 2.4751 0.9007
H53? H 1.1482 2.3999 0.9643
H54? H 1.4353 2.5411 0.9434
H55? H 1.4097 2.4811 1.0134
H56? H 1.4962 2.6864 1.0504
H57? H 1.3236 2.6217 1.0574
H58? H 1.3511 2.6825 0.9873
loop_
_geom_bond_atom_site_label_1
_geom_bond_atom_site_label_2
_geom_bond_site_symmetry_1
_geom_bond_site_symmetry_2
N1 C1 1_555 1_555
N2 C6 1_555 1_555
N3 C22 1_555 1_555
N4 C28 1_555 1_555
C1 H1 1_555 1_555
C2 C1 1_555 1_555
H2 C2 1_555 1_555
C3 C2 1_555 1_555
C4 C3 1_555 1_555
H3 C4 1_555 1_555
C5 C4 1_555 1_555
C6 C5 1_555 1_555
H4 C6 1_555 1_555
C7 N1 1_555 1_555
C8 C5 1_555 1_555
C9 C8 1_555 1_555
H5 C9 1_555 1_555
C10 C9 1_555 1_555
H6 C10 1_555 1_555
C11 C10 1_555 1_555
C12 C11 1_555 1_555
H7 C12 1_555 1_555
C13 C8 1_555 1_555
H8 C13 1_555 1_555
C14 C11 1_555 1_555
H9 C14 1_555 1_555
H10 C14 1_555 1_555
C15 C14 1_555 1_555
H11 C15 1_555 1_555
H12 C15 1_555 1_555
C16 C15 1_555 1_555
H13 C16 1_555 1_555
H14 C16 1_555 1_555
C17 C16 1_555 1_555
H15 C17 1_555 1_555
H16 C17 1_555 1_555
C18 C17 1_555 1_555
H17 C18 1_555 1_555
H18 C18 1_555 1_555
C19 C18 1_555 1_555
H19 C19 1_555 1_555
H20 C19 1_555 1_555
C20 H21 1_555 1_555
C21 N1 1_555 1_555
C22 C21 1_555 1_555
C23 N3 1_555 1_555
H22 C23 1_555 1_555
C24 C23 1_555 1_555
H23 C24 1_555 1_555
C25 C24 1_555 1_555
C26 C25 1_555 1_555
H24 C26 1_555 1_555
C27 C26 1_555 1_555
C28 C27 1_555 1_555
H25 C28 1_555 1_555
C29 N3 1_555 1_555
C30 C27 1_555 1_555
C31 C30 1_555 1_555
H26 C31 1_555 1_555
C32 C31 1_555 1_555
H27 C32 1_555 1_555
C33 C32 1_555 1_555
C34 C33 1_555 1_555
H28 C34 1_555 1_555
C35 C30 1_555 1_555
H29 C35 1_555 1_555
C36 C33 1_555 1_555
H30 C36 1_555 1_555
H31 C36 1_555 1_555
C37 C36 1_555 1_555
H32 C37 1_555 1_555
C38 C37 1_555 1_555
H33 C38 1_555 1_555
H34 C38 1_555 1_555
C39 C38 1_555 1_555
H35 C39 1_555 1_555
H36 C39 1_555 1_555
C40 C39 1_555 1_555
H37 C40 1_555 1_555
H38 C40 1_555 1_555
C41 C40 1_555 1_555
H39 C41 1_555 1_555
H40 C41 1_555 1_555
C42 C41 1_555 1_555
H41 C42 1_555 1_555
H42 C42 1_555 1_555
H43 C42 1_555 1_555
C43 H44 1_555 1_555
C44 C19 1_555 1_555
H45 C44 1_555 1_555
H46 C44 1_555 1_555
H47 C44 1_555 1_555
Cl1 C43 1_555 1_555
Cl2 C43 1_555 1_555
Cl3 C43 1_555 1_555
N1A C1A 1_555 1_555
N2A C6A 1_555 1_555
N3A C22A 1_555 1_555
N4A C28A 1_555 1_555
C1A H1A 1_555 1_555
C2A C1A 1_555 1_555
H2A C2A 1_555 1_555
C3A C2A 1_555 1_555
C4A C3A 1_555 1_555
H3A C4A 1_555 1_555
C5A C4A 1_555 1_555
C6A C5A 1_555 1_555
H4A C6A 1_555 1_555
C7A N1A 1_555 1_555
C8A C5A 1_555 1_555
C9A C8A 1_555 1_555
H5A C9A 1_555 1_555
C10A C9A 1_555 1_555
H6A C10A 1_555 1_555
C11A C10A 1_555 1_555
C12A C11A 1_555 1_555
H7A C12A 1_555 1_555
C13A C8A 1_555 1_555
H8A C13A 1_555 1_555
C14A C11A 1_555 1_555
H9A C14A 1_555 1_555
H10A C14A 1_555 1_555
C15A C14A 1_555 1_555
H11A C15A 1_555 1_555
H12A C15A 1_555 1_555
C16A C15A 1_555 1_555
H13A C16A 1_555 1_555
H14A C16A 1_555 1_555
C17A C16A 1_555 1_555
H15A C17A 1_555 1_555
H16A C17A 1_555 1_555
C18A C17A 1_555 1_555
H17A C18A 1_555 1_555
H18A C18A 1_555 1_555
C19A C18A 1_555 1_555
H19A C19A 1_555 1_555
H20A C19A 1_555 1_555
C20A C22 1_555 1_555
H21A C20A 1_555 1_555
C21A N1A 1_555 1_555
C22A C20 1_555 1_555
C23A N3A 1_555 1_555
H22A C23A 1_555 1_555
C24A C23A 1_555 1_555
H23A C24A 1_555 1_555
C25A C24A 1_555 1_555
C26A C25A 1_555 1_555
H24A C26A 1_555 1_555
C27A C26A 1_555 1_555
C28A C27A 1_555 1_555
H25A C28A 1_555 1_555
C29A N3A 1_555 1_555
C30A C27A 1_555 1_555
C31A C30A 1_555 1_555
H26A C31A 1_555 1_555
C32A C31A 1_555 1_555
H27A C32A 1_555 1_555
C33A C32A 1_555 1_555
C34A C33A 1_555 1_555
H28A C34A 1_555 1_555
C35A C30A 1_555 1_555
H29A C35A 1_555 1_555
C36A C33A 1_555 1_555
H30A C36A 1_555 1_555
H31A C36A 1_555 1_555
C37A C36A 1_555 1_555
H32A C37A 1_555 1_555
C38A C37A 1_555 1_555
H33A C38A 1_555 1_555
H34A C38A 1_555 1_555
C39A C38A 1_555 1_555
H35A C39A 1_555 1_555
H36A C39A 1_555 1_555
C40A C39A 1_555 1_555
H37A C40A 1_555 1_555
H38A C40A 1_555 1_555
C41A C40A 1_555 1_555
H39A C41A 1_555 1_555
H40A C41A 1_555 1_555
C42A C41A 1_555 1_555
H41A C42A 1_555 1_555
H42A C42A 1_555 1_555
H43A C42A 1_555 1_555
C44A C19A 1_555 1_555
H45A C44A 1_555 1_555
H46A C44A 1_555 1_555
H47A C44A 1_555 1_555
N2 C7 1_555 1_555
N4 C29 1_555 1_555
C3 C7 1_555 1_555
C12 C13 1_555 1_555
C20 C21 1_555 1_555
C25 C29 1_555 1_555
C34 C35 1_555 1_555
N2A C7A 1_555 1_555
N4A C29A 1_555 1_555
C3A C7A 1_555 1_555
C12A C13A 1_555 1_555
C20A C21A 1_555 1_555
C21A C22A 1_555 1_555
C25A C29A 1_555 1_555
C34A C35A 1_555 1_555

#END
