
#######################################################################
#
#                 Cambridge Crystallographic Data Centre
#                                CCDC 
#
#######################################################################
#
# If this CIF has been generated from an entry in the Cambridge 
# Structural Database, then it will include bibliographic, chemical, 
# crystal, experimental, refinement or atomic coordinate data resulting 
# from the CCDC's data processing and validation procedures.
#
#######################################################################

data_ESEWUW
_chemical_formula_moiety         'C26 H22 N1 O2 P1 S1'
_chemical_name_systematic        
3-(diphenylphosphorothioyl)-3-(1-oxidopyridin-4-yl)-1-phenylpropan-1-one
_symmetry_cell_setting           orthorhombic
_symmetry_space_group_name_H-M   'P 21 21 21'
_symmetry_Int_Tables_number      19
_space_group_name_Hall           'P 2ac 2ab'
loop_
_symmetry_equiv_pos_site_id
_symmetry_equiv_pos_as_xyz
1 x,y,z
2 1/2-x,-y,1/2+z
3 -x,1/2+y,1/2-z
4 1/2+x,1/2-y,-z
_cell_length_a                   11.5111(8)
_cell_length_b                   17.2089(8)
_cell_length_c                   22.8522(15)
_cell_angle_alpha                90
_cell_angle_beta                 90
_cell_angle_gamma                90
_cell_volume                     4526.87
_exptl_crystal_colour            colorless
_exptl_crystal_description       plate
_cell_formula_units_Z            8
loop_
_atom_site_label
_atom_site_type_symbol
_atom_site_fract_x
_atom_site_fract_y
_atom_site_fract_z
C1 C 0.9945(6) 0.5501(3) 0.9020(3)
H1 H 1.0683 0.5749 0.9026
C2 C 0.9693(7) 0.4910(3) 0.9414(3)
H2 H 1.0264 0.475 0.9689
C3 C 0.8622(6) 0.4554(3) 0.9409(3)
H3 H 0.8454 0.4158 0.9686
C4 C 0.7793(5) 0.4768(3) 0.9006(3)
H4 H 0.7063 0.451 0.9001
C5 C 0.8018(5) 0.5362(3) 0.8605(3)
H5 H 0.7444 0.5515 0.8329
C6 C 0.9101(5) 0.5726(3) 0.8617(2)
C7 C 0.9393(5) 0.6348(3) 0.8175(2)
C8 C 0.8608(5) 0.6407(3) 0.7650(2)
H6 H 0.7837 0.6597 0.7778
H7 H 0.8502 0.5883 0.748
C9 C 0.9081(5) 0.6956(3) 0.7173(2)
H8 H 0.9922 0.6833 0.7113
C10 C 0.8979(5) 0.7814(3) 0.7300(2)
C11 C 0.8008(5) 0.8147(3) 0.7564(2)
H9 H 0.7398 0.7822 0.77
C12 C 0.7917(5) 0.8938(3) 0.7630(3)
H10 H 0.7254 0.9151 0.7819
C13 C 0.9728(6) 0.9114(3) 0.7179(3)
H11 H 1.0329 0.9451 0.7049
C14 C 0.9851(5) 0.8321(3) 0.7113(2)
H12 H 1.0535 0.8118 0.6938
C15 C 0.9083(5) 0.7254(3) 0.5912(2)
C16 C 0.8462(5) 0.7669(3) 0.5493(3)
H13 H 0.7645 0.773 0.5532
C17 C 0.9038(6) 0.7995(3) 0.5019(3)
H14 H 0.8616 0.8277 0.4731
C18 C 1.0226(6) 0.7909(3) 0.4966(3)
H15 H 1.0618 0.8121 0.4637
C19 C 1.0850(6) 0.7513(3) 0.5393(3)
H16 H 1.167 0.7469 0.5361
C20 C 1.0284(5) 0.7184(3) 0.5863(2)
H17 H 1.0712 0.691 0.6152
C21 C 0.8595(5) 0.5732(3) 0.6309(2)
C22 C 0.7777(6) 0.5328(3) 0.5982(3)
H18 H 0.7047 0.5559 0.5897
C23 C 0.8026(6) 0.4585(3) 0.5778(3)
H19 H 0.7475 0.4316 0.5543
C24 C 0.9077(6) 0.4236(3) 0.5915(3)
H20 H 0.9243 0.3727 0.5778
C25 C 0.9884(5) 0.4627(3) 0.6253(3)
H21 H 1.0602 0.4387 0.635
C26 C 0.9638(5) 0.5375(3) 0.6450(3)
H22 H 1.019 0.5643 0.6684
N1 N 0.8766(5) 0.9419(2) 0.7428(2)
O1 O 1.0237(4) 0.6766(2) 0.82359(19)
O2 O 0.8645(4) 1.01773(18) 0.7477(2)
P1 P 0.83034(12) 0.67409(7) 0.64840(7)
S1 S 0.66538(12) 0.70002(7) 0.65091(7)
C27 C 0.7335(5) 0.0416(3) 0.9024(2)
H23 H 0.7999 0.0739 0.9066
C28 C 0.7170(6) -0.0198(3) 0.9409(3)
H24 H 0.7716 -0.0295 0.9712
C29 C 0.6199(6) -0.0669(3) 0.9347(3)
H25 H 0.6084 -0.1094 0.9606
C30 C 0.5398(5) -0.0521(3) 0.8908(3)
H26 H 0.4732 -0.0843 0.8868
C31 C 0.5570(5) 0.0098(3) 0.8526(3)
H27 H 0.5019 0.0203 0.8227
C32 C 0.6551(5) 0.0564(3) 0.8583(2)
C33 C 0.6817(5) 0.1199(3) 0.8148(2)
C34 C 0.6057(5) 0.1245(3) 0.7611(2)
H28 H 0.5274 0.1426 0.7726
H29 H 0.5976 0.0719 0.7439
C35 C 0.6552(5) 0.1798(3) 0.7147(2)
H30 H 0.7378 0.1651 0.707
C36 C 0.6509(5) 0.2656(3) 0.7300(2)
C37 C 0.5579(5) 0.2989(3) 0.7597(2)
H31 H 0.4965 0.267 0.7736
C38 C 0.5542(5) 0.3776(3) 0.7692(3)
H32 H 0.4905 0.399 0.7901
C39 C 0.7310(5) 0.3944(3) 0.7217(3)
H33 H 0.7917 0.4274 0.7083
C40 C 0.7389(5) 0.3153(3) 0.7124(2)
H34 H 0.8057 0.2946 0.6935
C41 C 0.6492(5) 0.2199(3) 0.5896(2)
C42 C 0.5879(5) 0.2655(3) 0.5501(2)
H35 H 0.5071 0.2742 0.5555
C43 C 0.6453(5) 0.2984(3) 0.5024(3)
H36 H 0.6035 0.3297 0.4754
C44 C 0.7623(6) 0.2856(3) 0.4944(3)
H37 H 0.8009 0.3067 0.4613
C45 C 0.8237(5) 0.2419(3) 0.5352(3)
H38 H 0.905 0.2348 0.5305
C46 C 0.7682(5) 0.2086(3) 0.5822(3)
H39 H 0.8106 0.178 0.6094
C47 C 0.5894(5) 0.0673(3) 0.6212(2)
C48 C 0.5111(5) 0.0404(3) 0.5797(3)
H40 H 0.4474 0.072 0.5682
C49 C 0.5254(6) -0.0326(3) 0.5549(3)
H41 H 0.4729 -0.0502 0.5257
C50 C 0.6165(6) -0.0799(3) 0.5728(3)
H42 H 0.6252 -0.1304 0.5566
C51 C 0.6939(5) -0.0535(3) 0.6140(3)
H43 H 0.7561 -0.0861 0.6261
C52 C 0.6823(5) 0.0205(3) 0.6383(2)
H44 H 0.7371 0.0388 0.6662
N2 N 0.6389(5) 0.4258(2) 0.7495(2)
O3 O 0.7636(4) 0.16383(19) 0.82218(17)
O4 O 0.6300(4) 0.50085(19) 0.7562(2)
P2 P 0.57103(11) 0.16706(7) 0.64620(7)
S2 S 0.40888(11) 0.19945(7) 0.65234(7)
loop_
_geom_bond_atom_site_label_1
_geom_bond_atom_site_label_2
_geom_bond_site_symmetry_1
_geom_bond_site_symmetry_2
C1 H1 1_555 1_555
C2 C1 1_555 1_555
H2 C2 1_555 1_555
C3 C2 1_555 1_555
H3 C3 1_555 1_555
C4 C3 1_555 1_555
H4 C4 1_555 1_555
C5 C4 1_555 1_555
H5 C5 1_555 1_555
C6 C1 1_555 1_555
C7 C6 1_555 1_555
C8 C7 1_555 1_555
H6 C8 1_555 1_555
H7 C8 1_555 1_555
C9 C8 1_555 1_555
H8 C9 1_555 1_555
C10 C9 1_555 1_555
C11 C10 1_555 1_555
H9 C11 1_555 1_555
C12 C11 1_555 1_555
H10 C12 1_555 1_555
C13 H11 1_555 1_555
C14 C10 1_555 1_555
H12 C14 1_555 1_555
C15 C16 1_555 1_555
C16 H13 1_555 1_555
C17 C16 1_555 1_555
H14 C17 1_555 1_555
C18 C17 1_555 1_555
H15 C18 1_555 1_555
C19 C18 1_555 1_555
H16 C19 1_555 1_555
C20 C15 1_555 1_555
H17 C20 1_555 1_555
C21 C22 1_555 1_555
C22 H18 1_555 1_555
C23 C22 1_555 1_555
H19 C23 1_555 1_555
C24 C23 1_555 1_555
H20 C24 1_555 1_555
C25 C24 1_555 1_555
H21 C25 1_555 1_555
C26 C21 1_555 1_555
H22 C26 1_555 1_555
N1 C12 1_555 1_555
O1 C7 1_555 1_555
O2 N1 1_555 1_555
P1 C9 1_555 1_555
S1 P1 1_555 1_555
C27 H23 1_555 1_555
C28 C27 1_555 1_555
H24 C28 1_555 1_555
C29 C28 1_555 1_555
H25 C29 1_555 1_555
C30 C29 1_555 1_555
H26 C30 1_555 1_555
C31 C30 1_555 1_555
H27 C31 1_555 1_555
C32 C27 1_555 1_555
C33 C32 1_555 1_555
C34 C33 1_555 1_555
H28 C34 1_555 1_555
H29 C34 1_555 1_555
C35 C34 1_555 1_555
H30 C35 1_555 1_555
C36 C35 1_555 1_555
C37 C36 1_555 1_555
H31 C37 1_555 1_555
C38 C37 1_555 1_555
H32 C38 1_555 1_555
C39 H33 1_555 1_555
C40 C36 1_555 1_555
H34 C40 1_555 1_555
C41 C42 1_555 1_555
C42 H35 1_555 1_555
C43 C42 1_555 1_555
H36 C43 1_555 1_555
C44 C43 1_555 1_555
H37 C44 1_555 1_555
C45 C44 1_555 1_555
H38 C45 1_555 1_555
C46 C41 1_555 1_555
H39 C46 1_555 1_555
C47 C48 1_555 1_555
C48 H40 1_555 1_555
C49 C48 1_555 1_555
H41 C49 1_555 1_555
C50 C49 1_555 1_555
H42 C50 1_555 1_555
C51 C50 1_555 1_555
H43 C51 1_555 1_555
C52 C47 1_555 1_555
H44 C52 1_555 1_555
N2 C38 1_555 1_555
O3 C33 1_555 1_555
O4 N2 1_555 1_555
P2 C35 1_555 1_555
S2 P2 1_555 1_555
C5 C6 1_555 1_555
C13 C14 1_555 1_555
C13 N1 1_555 1_555
C15 P1 1_555 1_555
C19 C20 1_555 1_555
C21 P1 1_555 1_555
C25 C26 1_555 1_555
C31 C32 1_555 1_555
C39 C40 1_555 1_555
C39 N2 1_555 1_555
C41 P2 1_555 1_555
C45 C46 1_555 1_555
C47 P2 1_555 1_555
C51 C52 1_555 1_555

#END
