
#######################################################################
#
#                 Cambridge Crystallographic Data Centre
#                                CCDC 
#
#######################################################################
#
# If this CIF has been generated from an entry in the Cambridge 
# Structural Database, then it will include bibliographic, chemical, 
# crystal, experimental, refinement or atomic coordinate data resulting 
# from the CCDC's data processing and validation procedures.
#
#######################################################################

data_ESIBAK
_chemical_formula_moiety         'C72 H69 N3,C2 H3 N1'
_chemical_name_systematic        
'6,15,23,32,40,49-Hexa-t-butyl-2,19,36-triazadecacyclo[45.4.0.0^3,8^.0^4,51^.0^13,18^.0^17,21^.0^20,25^.0^30,35^.0^34,38^.0^37,42^]henpentaconta-1(51),3,5,7,13,15,17,20,22,24,30,32,34,37,39,41,47,49-octadecaene-9,11,26,28,43,45-hexayne acetonitrile solvate'
_symmetry_cell_setting           orthorhombic
_symmetry_space_group_name_H-M   'F d 2 d'
_symmetry_Int_Tables_number      43
_space_group_name_Hall           'F -2d -2d'
loop_
_symmetry_equiv_pos_site_id
_symmetry_equiv_pos_as_xyz
1 x,y,z
2 -x,y,-z
3 1/4-x,1/4+y,1/4+z
4 1/4+x,1/4+y,1/4-z
5 x,1/2+y,1/2+z
6 -x,1/2+y,1/2-z
7 1/4-x,3/4+y,3/4+z
8 1/4+x,3/4+y,3/4-z
9 1/2+x,y,1/2+z
10 1/2-x,y,1/2-z
11 3/4-x,1/4+y,3/4+z
12 3/4+x,1/4+y,3/4-z
13 1/2+x,1/2+y,z
14 1/2-x,1/2+y,-z
15 3/4-x,3/4+y,1/4+z
16 3/4+x,3/4+y,1/4-z
_cell_length_a                   11.372(2)
_cell_length_b                   41.472(9)
_cell_length_c                   52.791(10)
_cell_angle_alpha                90
_cell_angle_beta                 90
_cell_angle_gamma                90
_cell_volume                     24897.3
_exptl_crystal_colour            orange
_exptl_crystal_description       prism
_cell_formula_units_Z            16
loop_
_atom_site_label
_atom_site_type_symbol
_atom_site_fract_x
_atom_site_fract_y
_atom_site_fract_z
C1 C 0.3450(5) 0.12969(14) 0.06675(10)
C2 C 0.2798(5) 0.10825(16) 0.08165(10)
H1 H 0.2196 0.1168 0.0921
C3 C 0.2983(5) 0.07466(14) 0.08198(10)
C4 C 0.3833(5) 0.06265(15) 0.06583(9)
H2 H 0.3953 0.0400 0.0648
C5 C 0.4528(5) 0.08345(15) 0.05071(9)
C6 C 0.4313(5) 0.11674(14) 0.05200(10)
N1 N 0.5134(4) 0.13174(12) 0.03557(8)
H3 H 0.5190 0.1526 0.0326
C7 C 0.5833(4) 0.10785(15) 0.02493(10)
C8 C 0.5466(5) 0.07787(14) 0.03363(10)
C9 C 0.6018(5) 0.04956(14) 0.02554(10)
H4 H 0.5756 0.0291 0.0313
C10 C 0.6968(5) 0.05220(16) 0.00874(10)
C11 C 0.7321(5) 0.08244(15) 0.00141(10)
H5 H 0.7978 0.0838 -0.0097
C12 C 0.6797(5) 0.11145(15) 0.00885(10)
C13 C 0.7310(5) 0.14069(16) 0.00082(10)
C14 C 0.7882(5) 0.16328(16) -0.00676(10)
C15 C 0.8575(5) 0.18720(16) -0.01685(10)
C16 C 0.9291(5) 0.20499(16) -0.02656(11)
C17 C 1.0100(5) 0.22587(17) -0.03816(11)
C18 C 1.1053(5) 0.21309(19) -0.05213(12)
H6 H 1.1136 0.1903 -0.0533
C19 C 1.1886(6) 0.23295(19) -0.06431(12)
C20 C 1.1742(5) 0.26568(18) -0.06303(12)
H7 H 1.2299 0.2792 -0.0712
C21 C 1.0808(5) 0.27964(16) -0.05022(10)
C22 C 1.0018(5) 0.25878(18) -0.03747(11)
N2 N 0.9149(4) 0.27739(13) -0.02638(8)
H8 H 0.8546 0.2700 -0.0177
C23 C 0.9383(5) 0.30934(17) -0.03116(10)
C24 C 1.0400(5) 0.31159(16) -0.04610(10)
C25 C 1.0795(5) 0.34198(17) -0.05376(10)
H9 H 1.1494 0.3437 -0.0635
C26 C 1.0175(6) 0.36983(17) -0.04729(11)
C27 C 0.9173(5) 0.36610(17) -0.03239(11)
H10 H 0.8751 0.3849 -0.0276
C28 C 0.8760(5) 0.3365(2) -0.02419(11)
C29 C 0.7774(6) 0.33416(17) -0.00790(11)
C30 C 0.6943(6) 0.33392(17) 0.00640(11)
C31 C 0.6090(5) 0.33751(17) 0.02470(12)
C32 C 0.5383(6) 0.34544(16) 0.04025(11)
C33 C 0.4613(5) 0.35893(16) 0.05874(10)
C34 C 0.4839(5) 0.39027(17) 0.06638(11)
H11 H 0.5496 0.4013 0.0594
C35 C 0.4136(6) 0.40625(17) 0.08394(13)
C36 C 0.3193(6) 0.39020(16) 0.09440(11)
H12 H 0.2718 0.4005 0.1068
C37 C 0.2939(5) 0.35892(14) 0.08686(9)
C38 C 0.3669(5) 0.34271(16) 0.06964(10)
N3 N 0.3311(4) 0.31145(12) 0.06730(8)
H13 H 0.3633 0.2968 0.0574
C39 C 0.2354(5) 0.30659(15) 0.08313(9)
C40 C 0.2083(5) 0.33580(14) 0.09497(9)
C41 C 0.1170(5) 0.33716(15) 0.11262(9)
H14 H 0.0995 0.3569 0.1209
C42 C 0.0521(5) 0.30985(15) 0.11800(9)
C43 C 0.0806(5) 0.28122(15) 0.10614(10)
H15 H 0.0350 0.2626 0.1097
C44 C 0.1754(5) 0.27864(14) 0.08887(10)
C45 C 0.2152(5) 0.24814(16) 0.08013(10)
C46 C 0.2546(5) 0.22182(17) 0.07446(10)
C47 C 0.2915(5) 0.19108(17) 0.07083(10)
C48 C 0.3203(5) 0.16362(16) 0.06820(10)
C49 C 0.2298(5) 0.05317(15) 0.10012(10)
C50 C 0.2572(5) 0.06359(17) 0.12739(10)
H16 H 0.2158 0.0494 0.1393
H17 H 0.2311 0.0859 0.1299
H18 H 0.3421 0.0622 0.1304
C51 C 0.0967(5) 0.05713(17) 0.09552(11)
H19 H 0.0780 0.0510 0.0781
H20 H 0.0743 0.0797 0.0983
H21 H 0.0532 0.0433 0.1073
C52 C 0.2613(5) 0.01882(16) 0.09672(12)
H22 H 0.3460 0.0161 0.0994
H23 H 0.2408 0.0120 0.0795
H24 H 0.2180 0.0057 0.1090
C53 C 0.7621(5) 0.02146(17) 0.00026(11)
C54 C 0.8259(6) 0.00729(18) 0.02355(11)
H25 H 0.7677 -0.0010 0.0356
H26 H 0.8729 0.0242 0.0317
H27 H 0.8775 -0.0103 0.0181
C55 C 0.6723(6) -0.00258(17) -0.01075(13)
H28 H 0.7121 -0.0228 -0.0149
H29 H 0.6371 0.0065 -0.0261
H30 H 0.6106 -0.0067 0.0018
C56 C 0.8546(6) 0.02825(19) -0.02049(12)
H31 H 0.9160 0.0424 -0.0137
H32 H 0.8166 0.0388 -0.0349
H33 H 0.8899 0.0079 -0.0260
C57 C 1.2868(6) 0.21607(19) -0.07996(14)
C58 C 1.3399(7) 0.1887(2) -0.06603(17)
H34 H 1.3565 0.1952 -0.0485
H35 H 1.4133 0.1823 -0.0743
H36 H 1.2851 0.1705 -0.0660
C59 C 1.2379(9) 0.2037(3) -0.10430(18)
H37 H 1.1994 0.1829 -0.1014
H38 H 1.3017 0.2009 -0.1166
H39 H 1.1803 0.2191 -0.1110
C60 C 1.3811(8) 0.2399(3) -0.08731(19)
H40 H 1.3473 0.2565 -0.0983
H41 H 1.4442 0.2286 -0.0964
H42 H 1.4132 0.2500 -0.0720
C61 C 1.0608(6) 0.40247(17) -0.05523(12)
C62 C 1.1778(10) 0.4091(3) -0.0421(2)
H43 H 1.2341 0.3921 -0.0463
H44 H 1.1659 0.4096 -0.0237
H45 H 1.2087 0.4300 -0.0477
C63 C 1.0752(13) 0.4055(3) -0.0831(2)
H46 H 1.1418 0.3922 -0.0886
H47 H 1.0900 0.4281 -0.0875
H48 H 1.0034 0.3981 -0.0916
C64 C 0.9785(11) 0.4301(3) -0.0464(2)
H49 H 1.0102 0.4508 -0.0522
H50 H 0.9734 0.4301 -0.0279
H51 H 0.9000 0.4269 -0.0536
C65 C 0.4535(7) 0.44016(19) 0.09359(16)
C66 C 0.5661(8) 0.4362(2) 0.11035(18)
H52 H 0.5748 0.4551 0.1213
H53 H 0.6353 0.4342 0.0994
H54 H 0.5586 0.4168 0.1208
C67 C 0.4916(8) 0.4605(2) 0.07134(16)
H55 H 0.4294 0.4606 0.0585
H56 H 0.5636 0.4514 0.0640
H57 H 0.5067 0.4826 0.0770
C68 C 0.3680(11) 0.4539(4) 0.1118(3)
H58 H 0.3034 0.4641 0.1025
H59 H 0.4074 0.4701 0.1224
H60 H 0.3368 0.4367 0.1226
C69 C -0.0462(5) 0.31178(16) 0.13799(10)
C70 C 0.0136(8) 0.3176(3) 0.16383(14)
H61 H -0.0462 0.3182 0.1772
H62 H 0.0560 0.3381 0.1634
H63 H 0.0691 0.3000 0.1673
C71 C -0.1318(8) 0.3392(3) 0.13197(19)
H64 H -0.1606 0.3369 0.1146
H65 H -0.0912 0.3599 0.1337
H66 H -0.1983 0.3384 0.1438
C72 C -0.1183(8) 0.2804(2) 0.13953(19)
H67 H -0.1878 0.2839 0.1502
H68 H -0.0698 0.2633 0.1469
H69 H -0.1432 0.2740 0.1225
C76 C 0.9905(7) 0.1186(3) 0.04388(16)
H79 H 1.0626 0.1057 0.0429
H80 H 0.9928 0.1356 0.0310
H81 H 0.9222 0.1047 0.0409
C77 C 0.9814(7) 0.1334(2) 0.0694(2)
N4 N 0.9764(8) 0.1434(2) 0.08996(16)
C73? C -0.064(4) 0.3460(5) 0.1485(8)
H70? H -0.0552 0.3618 0.1348
H71? H -0.0054 0.3503 0.1617
H72? H -0.1431 0.3479 0.1558
C74? C -0.157(2) 0.3076(11) 0.1222(6)
H73? H -0.1610 0.2856 0.1156
H74? H -0.1561 0.3229 0.1080
H75? H -0.2265 0.3118 0.1328
C75? C -0.023(4) 0.2847(8) 0.1571(7)
H76? H -0.0933 0.2810 0.1673
H77? H 0.0427 0.2908 0.1681
H78? H -0.0024 0.2648 0.1479
C78? C 1.181(2) 0.4006(7) -0.0703(5)
C79? C 0.959(2) 0.4161(5) -0.0745(4)
C80? C 1.074(4) 0.4234(9) -0.0288(7)
H82? H 1.1694 0.3883 -0.0860
H83? H 1.2405 0.3898 -0.0599
H84? H 1.2077 0.4224 -0.0745
H85? H 0.9880 0.4357 -0.0828
H86? H 0.8881 0.4211 -0.0648
H87? H 0.9415 0.3997 -0.0873
H88? H 1.0658 0.4464 -0.0325
H89? H 1.1510 0.4193 -0.0212
H90? H 1.0120 0.4168 -0.0169
loop_
_geom_bond_atom_site_label_1
_geom_bond_atom_site_label_2
_geom_bond_site_symmetry_1
_geom_bond_site_symmetry_2
C1 C2 1_555 1_555
C2 H1 1_555 1_555
C3 C2 1_555 1_555
C4 C3 1_555 1_555
H2 C4 1_555 1_555
C5 C4 1_555 1_555
C6 C1 1_555 1_555
N1 C6 1_555 1_555
H3 N1 1_555 1_555
C7 N1 1_555 1_555
C8 C5 1_555 1_555
C9 C8 1_555 1_555
H4 C9 1_555 1_555
C10 C9 1_555 1_555
C11 C10 1_555 1_555
H5 C11 1_555 1_555
C12 C7 1_555 1_555
C13 C12 1_555 1_555
C14 C13 1_555 1_555
C15 C14 1_555 1_555
C16 C15 1_555 1_555
C17 C16 1_555 1_555
C18 C17 1_555 1_555
H6 C18 1_555 1_555
C19 C18 1_555 1_555
C20 C19 1_555 1_555
H7 C20 1_555 1_555
C21 C20 1_555 1_555
C22 C17 1_555 1_555
N2 C22 1_555 1_555
H8 N2 1_555 1_555
C23 N2 1_555 1_555
C24 C21 1_555 1_555
C25 C24 1_555 1_555
H9 C25 1_555 1_555
C26 C25 1_555 1_555
C27 C26 1_555 1_555
H10 C27 1_555 1_555
C28 C23 1_555 1_555
C29 C28 1_555 1_555
C30 C29 1_555 1_555
C31 C30 1_555 1_555
C32 C31 1_555 1_555
C33 C32 1_555 1_555
C34 C33 1_555 1_555
H11 C34 1_555 1_555
C35 C34 1_555 1_555
C36 C35 1_555 1_555
H12 C36 1_555 1_555
C37 C36 1_555 1_555
C38 C33 1_555 1_555
N3 C38 1_555 1_555
H13 N3 1_555 1_555
C39 N3 1_555 1_555
C40 C37 1_555 1_555
C41 C40 1_555 1_555
H14 C41 1_555 1_555
C42 C41 1_555 1_555
C43 C42 1_555 1_555
H15 C43 1_555 1_555
C44 C39 1_555 1_555
C45 C44 1_555 1_555
C46 C45 1_555 1_555
C47 C46 1_555 1_555
C48 C1 1_555 1_555
C49 C3 1_555 1_555
C50 C49 1_555 1_555
H16 C50 1_555 1_555
H17 C50 1_555 1_555
H18 C50 1_555 1_555
C51 C49 1_555 1_555
H19 C51 1_555 1_555
H20 C51 1_555 1_555
H21 C51 1_555 1_555
C52 C49 1_555 1_555
H22 C52 1_555 1_555
H23 C52 1_555 1_555
H24 C52 1_555 1_555
C53 C10 1_555 1_555
C54 C53 1_555 1_555
H25 C54 1_555 1_555
H26 C54 1_555 1_555
H27 C54 1_555 1_555
C55 C53 1_555 1_555
H28 C55 1_555 1_555
H29 C55 1_555 1_555
H30 C55 1_555 1_555
C56 C53 1_555 1_555
H31 C56 1_555 1_555
H32 C56 1_555 1_555
H33 C56 1_555 1_555
C57 C19 1_555 1_555
C58 C57 1_555 1_555
H34 C58 1_555 1_555
H35 C58 1_555 1_555
H36 C58 1_555 1_555
C59 C57 1_555 1_555
H37 C59 1_555 1_555
H38 C59 1_555 1_555
H39 C59 1_555 1_555
C60 C57 1_555 1_555
H40 C60 1_555 1_555
H41 C60 1_555 1_555
H42 C60 1_555 1_555
C61 C26 1_555 1_555
C62 C61 1_555 1_555
H43 C62 1_555 1_555
H44 C62 1_555 1_555
H45 C62 1_555 1_555
C63 C61 1_555 1_555
H46 C63 1_555 1_555
H47 C63 1_555 1_555
H48 C63 1_555 1_555
C64 C61 1_555 1_555
H49 C64 1_555 1_555
H50 C64 1_555 1_555
H51 C64 1_555 1_555
C65 C35 1_555 1_555
C66 C65 1_555 1_555
H52 C66 1_555 1_555
H53 C66 1_555 1_555
H54 C66 1_555 1_555
C67 C65 1_555 1_555
H55 C67 1_555 1_555
H56 C67 1_555 1_555
H57 C67 1_555 1_555
C68 C65 1_555 1_555
H58 C68 1_555 1_555
H59 C68 1_555 1_555
H60 C68 1_555 1_555
C69 C42 1_555 1_555
C70 C69 1_555 1_555
H61 C70 1_555 1_555
H62 C70 1_555 1_555
H63 C70 1_555 1_555
C71 C69 1_555 1_555
H64 C71 1_555 1_555
H65 C71 1_555 1_555
H66 C71 1_555 1_555
C72 C69 1_555 1_555
H67 C72 1_555 1_555
H68 C72 1_555 1_555
H69 C72 1_555 1_555
C76 H79 1_555 1_555
H80 C76 1_555 1_555
H81 C76 1_555 1_555
C77 C76 1_555 1_555
N4 C77 1_555 1_555
C5 C6 1_555 1_555
C7 C8 1_555 1_555
C11 C12 1_555 1_555
C21 C22 1_555 1_555
C23 C24 1_555 1_555
C27 C28 1_555 1_555
C37 C38 1_555 1_555
C39 C40 1_555 1_555
C43 C44 1_555 1_555
C47 C48 1_555 1_555

#END
