
#######################################################################
#
#                 Cambridge Crystallographic Data Centre
#                                CCDC 
#
#######################################################################
#
# If this CIF has been generated from an entry in the Cambridge 
# Structural Database, then it will include bibliographic, chemical, 
# crystal, experimental, refinement or atomic coordinate data resulting 
# from the CCDC's data processing and validation procedures.
#
#######################################################################

data_ESIBUF
_chemical_formula_moiety         'C17 H40 N1 O2 Si2 1+,Cl1 1-'
_chemical_name_systematic        
'(2S,4R)-4-[(t-butyldimethylsilyl)oxy]-2-([(t-butyldimethylsilyl)oxy]methyl)pyrrolidinium chloride'
_symmetry_cell_setting           orthorhombic
_symmetry_space_group_name_H-M   'P 21 21 21'
_symmetry_Int_Tables_number      19
_space_group_name_Hall           'P 2ac 2ab'
loop_
_symmetry_equiv_pos_site_id
_symmetry_equiv_pos_as_xyz
1 x,y,z
2 1/2+x,1/2-y,-z
3 -x,1/2+y,1/2-z
4 1/2-x,-y,1/2+z
_cell_length_a                   7.4334(3)
_cell_length_b                   10.9198(4)
_cell_length_c                   29.0006(12)
_cell_angle_alpha                90
_cell_angle_beta                 90
_cell_angle_gamma                90
_cell_volume                     2354.01
_exptl_crystal_colour            colorless
_exptl_crystal_description       plate
_cell_formula_units_Z            4
_exptl_crystal_recrystallization_method dichloromethane/methanol
loop_
_atom_site_label
_atom_site_type_symbol
_atom_site_fract_x
_atom_site_fract_y
_atom_site_fract_z
Cl1 Cl 0.34131(9) 0.20347(7) 0.44976(2)
Si1 Si 0.34618(11) 0.61367(7) 0.42138(3)
Si2 Si 0.20665(9) 0.35654(7) 0.69423(2)
O1 O 0.2890(3) 0.54874(17) 0.47081(6)
O2 O 0.2245(2) 0.35839(19) 0.63753(6)
N1 N 0.2489(3) 0.3464(2) 0.53892(7)
H1 H 0.1284 0.3435 0.5443
H2 H 0.2693 0.3247 0.5091
C1 C 0.0754(4) 0.4932(3) 0.37207(11)
H3 H -0.0439 0.4962 0.3577
H4 H 0.0722 0.4383 0.3988
H5 H 0.1634 0.4629 0.3496
C2 C 0.1294(3) 0.6219(2) 0.38776(9)
C3 C 0.4160(4) 0.5226(3) 0.50590(9)
H6 H 0.4831 0.5980 0.5140
H7 H 0.5034 0.4610 0.4947
C4 C 0.3200(3) 0.4744(2) 0.54789(9)
H8 H 0.2179 0.5300 0.5559
C5 C 0.4446(4) 0.4599(3) 0.58977(9)
H9 H 0.5720 0.4558 0.5800
H10 H 0.4297 0.5293 0.6114
C6 C 0.3866(3) 0.3407(2) 0.61204(9)
H11 H 0.4841 0.3049 0.6316
C7 C -0.0415(3) 0.3754(3) 0.70480(9)
C8 C -0.1446(4) 0.2640(3) 0.68615(10)
H12 H -0.2735 0.2745 0.6920
H13 H -0.1020 0.1897 0.7016
H14 H -0.1240 0.2567 0.6529
C9 C -0.1090(4) 0.4900(3) 0.67967(10)
H15 H -0.2374 0.5015 0.6860
H16 H -0.0909 0.4802 0.6464
H17 H -0.0419 0.5617 0.6905
C10 C 0.2934(4) 0.2084(3) 0.71686(10)
H18 H 0.2378 0.1407 0.6999
H19 H 0.2637 0.2013 0.7497
H20 H 0.4242 0.2053 0.7129
C11 C 0.3374(4) 0.4853(3) 0.71967(10)
H21 H 0.4647 0.4765 0.7115
H22 H 0.3246 0.4841 0.7533
H23 H 0.2918 0.5632 0.7076
C12 C 0.3453(4) 0.2610(2) 0.57072(9)
H24 H 0.4570 0.2296 0.5564
H25 H 0.2678 0.1910 0.5794
C13 C 0.1539(4) 0.7028(3) 0.34509(10)
H26 H 0.2515 0.6700 0.3260
H27 H 0.1838 0.7864 0.3547
H28 H 0.0420 0.7038 0.3272
C14 C -0.0186(4) 0.6761(3) 0.41811(12)
H29 H -0.1299 0.6834 0.4002
H30 H 0.0183 0.7573 0.4289
H31 H -0.0393 0.6225 0.4447
C15 C 0.5188(4) 0.5181(3) 0.39201(10)
H32 H 0.6312 0.5205 0.4097
H33 H 0.5401 0.5500 0.3609
H34 H 0.4760 0.4333 0.3900
C16 C 0.4396(4) 0.7691(3) 0.43302(11)
H35 H 0.3465 0.8204 0.4472
H36 H 0.4790 0.8063 0.4040
H37 H 0.5423 0.7622 0.4540
C17 C -0.0783(4) 0.3872(3) 0.75675(9)
H38 H -0.0097 0.4563 0.7692
H39 H -0.0417 0.3116 0.7724
H40 H -0.2070 0.4012 0.7618
loop_
_geom_bond_atom_site_label_1
_geom_bond_atom_site_label_2
_geom_bond_site_symmetry_1
_geom_bond_site_symmetry_2
Si1 O1 1_555 1_555
Si2 O2 1_555 1_555
O1 C3 1_555 1_555
O2 C6 1_555 1_555
N1 H1 1_555 1_555
H2 N1 1_555 1_555
C1 H3 1_555 1_555
H4 C1 1_555 1_555
H5 C1 1_555 1_555
C2 Si1 1_555 1_555
C3 H6 1_555 1_555
H7 C3 1_555 1_555
C4 N1 1_555 1_555
H8 C4 1_555 1_555
C5 C4 1_555 1_555
H9 C5 1_555 1_555
H10 C5 1_555 1_555
C6 C5 1_555 1_555
H11 C6 1_555 1_555
C7 Si2 1_555 1_555
C8 C7 1_555 1_555
H12 C8 1_555 1_555
H13 C8 1_555 1_555
H14 C8 1_555 1_555
C9 C7 1_555 1_555
H15 C9 1_555 1_555
H16 C9 1_555 1_555
H17 C9 1_555 1_555
C10 Si2 1_555 1_555
H18 C10 1_555 1_555
H19 C10 1_555 1_555
H20 C10 1_555 1_555
C11 Si2 1_555 1_555
H21 C11 1_555 1_555
H22 C11 1_555 1_555
H23 C11 1_555 1_555
C12 N1 1_555 1_555
H24 C12 1_555 1_555
H25 C12 1_555 1_555
C13 C2 1_555 1_555
H26 C13 1_555 1_555
H27 C13 1_555 1_555
H28 C13 1_555 1_555
C14 C2 1_555 1_555
H29 C14 1_555 1_555
H30 C14 1_555 1_555
H31 C14 1_555 1_555
C15 Si1 1_555 1_555
H32 C15 1_555 1_555
H33 C15 1_555 1_555
H34 C15 1_555 1_555
C16 Si1 1_555 1_555
H35 C16 1_555 1_555
H36 C16 1_555 1_555
H37 C16 1_555 1_555
C17 C7 1_555 1_555
H38 C17 1_555 1_555
H39 C17 1_555 1_555
H40 C17 1_555 1_555
C1 C2 1_555 1_555
C3 C4 1_555 1_555
C6 C12 1_555 1_555

#END
