
#######################################################################
#
#                 Cambridge Crystallographic Data Centre
#                                CCDC 
#
#######################################################################
#
# If this CIF has been generated from an entry in the Cambridge 
# Structural Database, then it will include bibliographic, chemical, 
# crystal, experimental, refinement or atomic coordinate data resulting 
# from the CCDC's data processing and validation procedures.
#
#######################################################################

data_ESIBEO
_chemical_formula_moiety         'C90 H90 N6,3(C1 H2 Cl2)'
_chemical_name_systematic        
'4,12,21,29,38,46-Hexa-t-butyl-52,53,54-triphenyl-8,25,42,52,53,54-hexa-azatridecacyclo[47.2.1.1^15,18^.1^32,35^.0^2,7^.0^6,10^.0^9,14^.0^19,24^.0^23,27^.0^26,31^.0^36,41^.0^40,44^.0^43,48^]tetrapentaconta-1(51),2,4,6,9,11,13,15,17,19,21,23,26,28,30,32,34,36,38,40,43,45,47,49-tetracosaene dichloromethane solvate'
_symmetry_cell_setting           monoclinic
_symmetry_space_group_name_H-M   'C 2/m'
_symmetry_Int_Tables_number      12
_space_group_name_Hall           '-C 2y'
loop_
_symmetry_equiv_pos_site_id
_symmetry_equiv_pos_as_xyz
1 x,y,z
2 -x,y,-z
3 1/2+x,1/2+y,z
4 1/2-x,1/2+y,-z
5 -x,-y,-z
6 x,-y,z
7 1/2-x,1/2-y,-z
8 1/2+x,1/2-y,z
_cell_length_a                   12.463(4)
_cell_length_b                   36.115(10)
_cell_length_c                   19.005(5)
_cell_angle_alpha                90
_cell_angle_beta                 98.903(5)
_cell_angle_gamma                90
_cell_volume                     8451.11
_exptl_crystal_colour            colorless
_exptl_crystal_description       prism
_cell_formula_units_Z            4
loop_
_atom_site_label
_atom_site_type_symbol
_atom_site_fract_x
_atom_site_fract_y
_atom_site_fract_z
C1 C 1.0068(3) 0.06943(14) 0.3771(2)
C2 C 1.0925(3) 0.08161(14) 0.4283(2)
H1 H 1.1218 0.0648 0.4648
C3 C 1.1372(3) 0.11696(14) 0.4290(2)
C4 C 1.0913(4) 0.14242(14) 0.3780(2)
H2 H 1.1187 0.1670 0.3779
C5 C 1.0051(3) 0.13138(14) 0.3275(2)
C6 C 0.9637(3) 0.09539(13) 0.3273(2)
C7 C 0.8648(3) 0.12540(14) 0.2356(2)
C8 C 0.9422(4) 0.15079(14) 0.2682(2)
C9 C 0.9484(4) 0.18581(15) 0.2382(3)
H3 H 1.0000 0.2031 0.2606
C10 C 0.8803(4) 0.19585(15) 0.1759(3)
C11 C 0.8048(4) 0.16977(15) 0.1458(3)
H4 H 0.7582 0.1762 0.1032
C12 C 0.7936(4) 0.13494(15) 0.1744(2)
C13 C 0.7134(4) 0.10876(15) 0.1379(2)
C14 C 0.7175(4) 0.08726(16) 0.0807(2)
H5 H 0.7766 0.0857 0.0547
C15 C 0.6186(4) 0.06720(16) 0.0656(2)
H6 H 0.5998 0.0498 0.0283
C16 C 0.5554(4) 0.07763(16) 0.1148(2)
C17 C 0.4417(4) 0.06799(18) 0.1179(2)
C18 C 0.3615(4) 0.0947(2) 0.1231(2)
H7 H 0.3812 0.1201 0.1268
C19 C 0.2516(4) 0.0844(2) 0.1229(3)
C20 C 0.2232(4) 0.0481(2) 0.1180(3)
H8 H 0.1494 0.0414 0.1173
C21 C 0.3017(3) 0.01991(17) 0.1140(2)
C22 C 0.4102(4) 0.03122(18) 0.1140(2)
C23 C 0.9641(3) 0.03160(13) 0.3761(2)
C24 C 0.8582(3) 0.01912(13) 0.3694(2)
H9 H 0.7955 0.0344 0.3655
C25 C 1.2327(4) 0.12735(15) 0.4865(2)
C26 C 1.3266(4) 0.10009(16) 0.4814(3)
H10 H 1.3058 0.0752 0.4951
H11 H 1.3916 0.1081 0.5135
H12 H 1.3419 0.0996 0.4324
C27 C 1.1989(4) 0.12433(16) 0.5597(3)
H13 H 1.1376 0.1410 0.5624
H14 H 1.2601 0.1313 0.5962
H15 H 1.1771 0.0988 0.5678
C28 C 1.2740(4) 0.16664(16) 0.4767(3)
H16 H 1.2935 0.1691 0.4289
H17 H 1.3380 0.1715 0.5124
H18 H 1.2168 0.1845 0.4825
C29 C 0.8882(5) 0.23316(16) 0.1416(3)
C30 C 0.9584(9) 0.2596(3) 0.1832(6)
H19 H 0.9630 0.2822 0.1551
H20 H 1.0310 0.2490 0.1960
H21 H 0.9286 0.2657 0.2265
C31 C 0.7689(9) 0.2502(3) 0.1254(6)
H22 H 0.7707 0.2734 0.0989
H23 H 0.7422 0.2550 0.1704
H24 H 0.7204 0.2325 0.0970
C32 C 0.9216(10) 0.2265(3) 0.0662(5)
H25 H 0.8686 0.2100 0.0385
H26 H 0.9937 0.2151 0.0718
H27 H 0.9232 0.2502 0.0414
C33 C 0.5797(4) 0.11625(16) 0.2233(3)
C34 C 0.5772(4) 0.15341(18) 0.2376(3)
H28 H 0.6011 0.1708 0.2059
C35 C 0.5395(4) 0.16561(18) 0.2990(3)
H29 H 0.5383 0.1913 0.3097
C36 C 0.5037(4) 0.13982(18) 0.3445(3)
H30 H 0.4762 0.1480 0.3858
C37 C 0.5075(4) 0.10304(18) 0.3305(3)
H31 H 0.4833 0.0857 0.3622
C38 C 0.5463(4) 0.09074(17) 0.2710(2)
H32 H 0.5504 0.0649 0.2621
C39 C 0.1704(4) 0.1151(2) 0.1305(3)
C40 C 0.1687(5) 0.1434(2) 0.0688(4)
H33 H 0.2431 0.1511 0.0653
H34 H 0.1260 0.1651 0.0783
H35 H 0.1358 0.1319 0.0239
C41 C 0.2056(5) 0.1354(2) 0.2018(3)
H36 H 0.2784 0.1459 0.2026
H37 H 0.2067 0.1179 0.2413
H38 H 0.1542 0.1554 0.2067
C42 C 0.0549(4) 0.1007(3) 0.1295(4)
H39 H 0.0055 0.1217 0.1312
H40 H 0.0528 0.0847 0.1708
H41 H 0.0324 0.0866 0.0857
C43 C 1.1439(5) 0.0000 0.3769(3)
C44 C 1.1760(6) 0.0000 0.3106(4)
H42 H 1.1236 0.0000 0.2685
C45 C 1.2856(6) 0.0000 0.3064(4)
H43 H 1.3089 0.0000 0.2611
C46 C 1.3608(6) 0.0000 0.3668(4)
H44 H 1.4360 0.0000 0.3632
C47 C 1.3290(5) 0.0000 0.4321(4)
H45 H 1.3820 0.0000 0.4739
C48 C 1.2181(5) 0.0000 0.4379(4)
H46 H 1.1951 0.0000 0.4833
N1 N 0.8768(3) 0.09232(11) 0.27148(18)
H49 H 0.8364 0.0725 0.2611
N2 N 0.4738(4) 0.0000 0.1118(3)
H50 H 0.5437 0.0000 0.1093
N3 N 0.6129(3) 0.10250(12) 0.16010(19)
N4 N 1.0296(4) 0.0000 0.3822(3)
C1E C 1.0068(3) -0.06943(14) 0.3771(2)
C2E C 1.0925(3) -0.08161(14) 0.4283(2)
H1E H 1.1218 -0.0648 0.4648
C3E C 1.1372(3) -0.11696(14) 0.4290(2)
C4E C 1.0913(4) -0.14242(14) 0.3780(2)
H2E H 1.1187 -0.1670 0.3779
C5E C 1.0051(3) -0.13138(14) 0.3275(2)
C6E C 0.9637(3) -0.09539(13) 0.3273(2)
C7E C 0.8648(3) -0.12540(14) 0.2356(2)
C8E C 0.9422(4) -0.15079(14) 0.2682(2)
C9E C 0.9484(4) -0.18581(15) 0.2382(3)
H3E H 1.0000 -0.2031 0.2606
C10E C 0.8803(4) -0.19585(15) 0.1759(3)
C11E C 0.8048(4) -0.16977(15) 0.1458(3)
H4E H 0.7582 -0.1762 0.1032
C12E C 0.7936(4) -0.13494(15) 0.1744(2)
C13E C 0.7134(4) -0.10876(15) 0.1379(2)
C14E C 0.7175(4) -0.08726(16) 0.0807(2)
H5E H 0.7766 -0.0857 0.0547
C15E C 0.6186(4) -0.06720(16) 0.0656(2)
H6E H 0.5998 -0.0498 0.0283
C16E C 0.5554(4) -0.07763(16) 0.1148(2)
C17E C 0.4417(4) -0.06799(18) 0.1179(2)
C18E C 0.3615(4) -0.0947(2) 0.1231(2)
H7E H 0.3812 -0.1201 0.1268
C19E C 0.2516(4) -0.0844(2) 0.1229(3)
C20E C 0.2232(4) -0.0481(2) 0.1180(3)
H8E H 0.1494 -0.0414 0.1173
C21E C 0.3017(3) -0.01991(17) 0.1140(2)
C22E C 0.4102(4) -0.03122(18) 0.1140(2)
C23E C 0.9641(3) -0.03160(13) 0.3761(2)
C24E C 0.8582(3) -0.01912(13) 0.3694(2)
H9E H 0.7955 -0.0344 0.3655
C25E C 1.2327(4) -0.12735(15) 0.4865(2)
C26E C 1.3266(4) -0.10009(16) 0.4814(3)
H10E H 1.3058 -0.0752 0.4951
H11E H 1.3916 -0.1081 0.5135
H12E H 1.3419 -0.0996 0.4324
C27E C 1.1989(4) -0.12433(16) 0.5597(3)
H13E H 1.1376 -0.1410 0.5624
H14E H 1.2601 -0.1313 0.5962
H15E H 1.1771 -0.0988 0.5678
C28E C 1.2740(4) -0.16664(16) 0.4767(3)
H16E H 1.2935 -0.1691 0.4289
H17E H 1.3380 -0.1715 0.5124
H18E H 1.2168 -0.1845 0.4825
C29E C 0.8882(5) -0.23316(16) 0.1416(3)
C30E C 0.9584(9) -0.2596(3) 0.1832(6)
H19E H 0.9630 -0.2822 0.1551
H20E H 1.0310 -0.2490 0.1960
H21E H 0.9286 -0.2657 0.2265
C31E C 0.7689(9) -0.2502(3) 0.1254(6)
H22E H 0.7707 -0.2734 0.0989
H23E H 0.7422 -0.2550 0.1704
H24E H 0.7204 -0.2325 0.0970
C32E C 0.9216(10) -0.2265(3) 0.0662(5)
H25E H 0.8686 -0.2100 0.0385
H26E H 0.9937 -0.2151 0.0718
H27E H 0.9232 -0.2502 0.0414
C33E C 0.5797(4) -0.11625(16) 0.2233(3)
C34E C 0.5772(4) -0.15341(18) 0.2376(3)
H28E H 0.6011 -0.1708 0.2059
C35E C 0.5395(4) -0.16561(18) 0.2990(3)
H29E H 0.5383 -0.1913 0.3097
C36E C 0.5037(4) -0.13982(18) 0.3445(3)
H30E H 0.4762 -0.1480 0.3858
C37E C 0.5075(4) -0.10304(18) 0.3305(3)
H31E H 0.4833 -0.0857 0.3622
C38E C 0.5463(4) -0.09074(17) 0.2710(2)
H32E H 0.5504 -0.0649 0.2621
C39E C 0.1704(4) -0.1151(2) 0.1305(3)
C40E C 0.1687(5) -0.1434(2) 0.0688(4)
H33E H 0.2431 -0.1511 0.0653
H34E H 0.1260 -0.1651 0.0783
H35E H 0.1358 -0.1319 0.0239
C41E C 0.2056(5) -0.1354(2) 0.2018(3)
H36E H 0.2784 -0.1459 0.2026
H37E H 0.2067 -0.1179 0.2413
H38E H 0.1542 -0.1554 0.2067
C42E C 0.0549(4) -0.1007(3) 0.1295(4)
H39E H 0.0055 -0.1217 0.1312
H40E H 0.0528 -0.0847 0.1708
H41E H 0.0324 -0.0866 0.0857
N1E N 0.8768(3) -0.09232(11) 0.27148(18)
H49E H 0.8364 -0.0725 0.2611
N3E N 0.6129(3) -0.10250(12) 0.16010(19)
C49 C 0.2914(5) 0.27915(19) 0.3594(4)
H47 H 0.2604 0.2988 0.3865
H48 H 0.3039 0.2899 0.3134
Cl1 Cl 0.41538(14) 0.26483(6) 0.40720(10)
Cl2 Cl 0.2005(2) 0.24382(8) 0.3435(2)
Cl3 Cl 0.4229(7) 0.17239(18) 0.0410(4)
C50 C 0.5000 0.1635(6) 0.0000
H51 H 0.5442 0.1466 0.0338
Cl3A Cl 0.5771(7) 0.17239(18) -0.0410(4)
H51A H 0.4558 0.1466 -0.0338
C51? C 1.0148(13) 0.2451(4) 0.1448(9)
C52? C 0.8561(15) 0.2653(5) 0.1928(9)
C53? C 0.8290(16) 0.2400(5) 0.0729(9)
H52? H 1.0511 0.2274 0.1172
H53? H 1.0508 0.2450 0.1944
H54? H 1.0186 0.2700 0.1247
H55? H 0.8726 0.2895 0.1737
H56? H 0.8977 0.2622 0.2406
H57? H 0.7783 0.2638 0.1954
H58? H 0.7522 0.2341 0.0727
H59? H 0.8577 0.2245 0.0378
H60? H 0.8361 0.2662 0.0606
loop_
_geom_bond_atom_site_label_1
_geom_bond_atom_site_label_2
_geom_bond_site_symmetry_1
_geom_bond_site_symmetry_2
C1 C2 1_555 1_555
C2 H1 1_555 1_555
C3 C2 1_555 1_555
C4 C3 1_555 1_555
H2 C4 1_555 1_555
C5 C4 1_555 1_555
C6 C1 1_555 1_555
C7 C8 1_555 1_555
C8 C5 1_555 1_555
C9 C8 1_555 1_555
H3 C9 1_555 1_555
C10 C9 1_555 1_555
C11 C10 1_555 1_555
H4 C11 1_555 1_555
C12 C7 1_555 1_555
C13 C12 1_555 1_555
C14 C13 1_555 1_555
H5 C14 1_555 1_555
C15 C14 1_555 1_555
H6 C15 1_555 1_555
C16 C15 1_555 1_555
C17 C16 1_555 1_555
C18 C17 1_555 1_555
H7 C18 1_555 1_555
C19 C18 1_555 1_555
C20 C19 1_555 1_555
H8 C20 1_555 1_555
C21 C20 1_555 1_555
C22 C17 1_555 1_555
C23 C1 1_555 1_555
C24 C23 1_555 1_555
H9 C24 1_555 1_555
C25 C3 1_555 1_555
C26 C25 1_555 1_555
H10 C26 1_555 1_555
H11 C26 1_555 1_555
H12 C26 1_555 1_555
C27 C25 1_555 1_555
H13 C27 1_555 1_555
H14 C27 1_555 1_555
H15 C27 1_555 1_555
C28 C25 1_555 1_555
H16 C28 1_555 1_555
H17 C28 1_555 1_555
H18 C28 1_555 1_555
C29 C10 1_555 1_555
C30 C29 1_555 1_555
H19 C30 1_555 1_555
H20 C30 1_555 1_555
H21 C30 1_555 1_555
C31 C29 1_555 1_555
H22 C31 1_555 1_555
H23 C31 1_555 1_555
H24 C31 1_555 1_555
C32 C29 1_555 1_555
H25 C32 1_555 1_555
H26 C32 1_555 1_555
H27 C32 1_555 1_555
C33 C34 1_555 1_555
C34 H28 1_555 1_555
C35 C34 1_555 1_555
H29 C35 1_555 1_555
C36 C35 1_555 1_555
H30 C36 1_555 1_555
C37 C36 1_555 1_555
H31 C37 1_555 1_555
C38 C33 1_555 1_555
H32 C38 1_555 1_555
C39 C19 1_555 1_555
C40 C39 1_555 1_555
H33 C40 1_555 1_555
H34 C40 1_555 1_555
H35 C40 1_555 1_555
C41 C39 1_555 1_555
H36 C41 1_555 1_555
H37 C41 1_555 1_555
H38 C41 1_555 1_555
C42 C39 1_555 1_555
H39 C42 1_555 1_555
H40 C42 1_555 1_555
H41 C42 1_555 1_555
C43 C44 1_555 1_555
C44 H42 1_555 1_555
C45 C44 1_555 1_555
H43 C45 1_555 1_555
C46 C45 1_555 1_555
H44 C46 1_555 1_555
C47 C46 1_555 1_555
H45 C47 1_555 1_555
C48 C43 1_555 1_555
H46 C48 1_555 1_555
C49 H47 1_555 1_555
H48 C49 1_555 1_555
Cl1 C49 1_555 1_555
Cl2 C49 1_555 1_555
N1 C6 1_555 1_555
H49 N1 1_555 1_555
N2 C22 1_555 1_555
H50 N2 1_555 1_555
N3 C13 1_555 1_555
N4 C23 1_555 1_555
Cl3 C50 1_555 1_555
C50 H51 1_555 1_555
C1E C2E 1_555 1_555
C2E H1E 1_555 1_555
C3E C2E 1_555 1_555
C4E C3E 1_555 1_555
H2E C4E 1_555 1_555
C5E C4E 1_555 1_555
C6E C1E 1_555 1_555
C7E C8E 1_555 1_555
C8E C5E 1_555 1_555
C9E C8E 1_555 1_555
H3E C9E 1_555 1_555
C10E C9E 1_555 1_555
C11E C10E 1_555 1_555
H4E C11E 1_555 1_555
C12E C7E 1_555 1_555
C13E C12E 1_555 1_555
C14E C13E 1_555 1_555
H5E C14E 1_555 1_555
C15E C14E 1_555 1_555
H6E C15E 1_555 1_555
C16E C15E 1_555 1_555
C17E C16E 1_555 1_555
C18E C17E 1_555 1_555
H7E C18E 1_555 1_555
C19E C18E 1_555 1_555
C20E C19E 1_555 1_555
H8E C20E 1_555 1_555
C21E C21 1_555 1_555
C22E N2 1_555 1_555
C23E N4 1_555 1_555
C24E C24 1_555 1_555
H9E C24E 1_555 1_555
C25E C3E 1_555 1_555
C26E C25E 1_555 1_555
H10E C26E 1_555 1_555
H11E C26E 1_555 1_555
H12E C26E 1_555 1_555
C27E C25E 1_555 1_555
H13E C27E 1_555 1_555
H14E C27E 1_555 1_555
H15E C27E 1_555 1_555
C28E C25E 1_555 1_555
H16E C28E 1_555 1_555
H17E C28E 1_555 1_555
H18E C28E 1_555 1_555
C29E C10E 1_555 1_555
C30E C29E 1_555 1_555
H19E C30E 1_555 1_555
H20E C30E 1_555 1_555
H21E C30E 1_555 1_555
C31E C29E 1_555 1_555
H22E C31E 1_555 1_555
H23E C31E 1_555 1_555
H24E C31E 1_555 1_555
C32E C29E 1_555 1_555
H25E C32E 1_555 1_555
H26E C32E 1_555 1_555
H27E C32E 1_555 1_555
C33E C34E 1_555 1_555
C34E H28E 1_555 1_555
C35E C34E 1_555 1_555
H29E C35E 1_555 1_555
C36E C35E 1_555 1_555
H30E C36E 1_555 1_555
C37E C36E 1_555 1_555
H31E C37E 1_555 1_555
C38E C33E 1_555 1_555
H32E C38E 1_555 1_555
C39E C19E 1_555 1_555
C40E C39E 1_555 1_555
H33E C40E 1_555 1_555
H34E C40E 1_555 1_555
H35E C40E 1_555 1_555
C41E C39E 1_555 1_555
H36E C41E 1_555 1_555
H37E C41E 1_555 1_555
H38E C41E 1_555 1_555
C42E C39E 1_555 1_555
H39E C42E 1_555 1_555
H40E C42E 1_555 1_555
H41E C42E 1_555 1_555
N1E C6E 1_555 1_555
H49E N1E 1_555 1_555
N3E C13E 1_555 1_555
Cl3A C50 1_555 1_555
H51A C50 1_555 1_555
C5 C6 1_555 1_555
C7 N1 1_555 1_555
C11 C12 1_555 1_555
C16 N3 1_555 1_555
C21 C22 1_555 1_555
C33 N3 1_555 1_555
C37 C38 1_555 1_555
C43 N4 1_555 1_555
C47 C48 1_555 1_555
C1E C23E 1_555 1_555
C5E C6E 1_555 1_555
C7E N1E 1_555 1_555
C11E C12E 1_555 1_555
C16E N3E 1_555 1_555
C17E C22E 1_555 1_555
C20E C21E 1_555 1_555
C21E C22E 1_555 1_555
C23E C24E 1_555 1_555
C33E N3E 1_555 1_555
C37E C38E 1_555 1_555

#END
