
#######################################################################
#
#                 Cambridge Crystallographic Data Centre
#                                CCDC 
#
#######################################################################
#
# If this CIF has been generated from an entry in the Cambridge 
# Structural Database, then it will include bibliographic, chemical, 
# crystal, experimental, refinement or atomic coordinate data resulting 
# from the CCDC's data processing and validation procedures.
#
#######################################################################

data_ESICAM
_chemical_formula_moiety         'C11 H17 N5 O3 2+,2(Cl1 1-),0.5(C4 H8 O2)'
_chemical_name_systematic        
'2-Amino-7-[(2S,3R,5S)-3-hydroxy-5-(hydroxymethyl)-2-pyrrolidinyl]-3,5-dihydro-4H-pyrrolo[3,2-d]pyrimidin-4-one  dichloride 1,4-dioxane solvate'
_symmetry_cell_setting           monoclinic
_symmetry_space_group_name_H-M   'P 21'
_symmetry_Int_Tables_number      4
_space_group_name_Hall           'P 2yb'
loop_
_symmetry_equiv_pos_site_id
_symmetry_equiv_pos_as_xyz
1 x,y,z
2 -x,1/2+y,-z
_cell_length_a                   17.2614(2)
_cell_length_b                   6.61300(10)
_cell_length_c                   29.5595(4)
_cell_angle_alpha                90
_cell_angle_beta                 91.6490(10)
_cell_angle_gamma                90
_cell_volume                     3372.81
_exptl_crystal_colour            colorless
_exptl_crystal_description       needle
_chemical_melting_point          '245 deg.C'
_cell_formula_units_Z            8
_exptl_crystal_recrystallization_method '1,4 dioxane, methanol'
loop_
_atom_site_label
_atom_site_type_symbol
_atom_site_fract_x
_atom_site_fract_y
_atom_site_fract_z
Cl1 Cl 0.97420(10) 0.4888(3) 0.84415(6)
Cl2 Cl 0.26934(10) 0.5303(3) 0.40547(6)
Cl3 Cl 0.81748(10) 0.9680(3) 0.36074(6)
Cl4 Cl 0.67106(10) 0.5439(3) 0.85756(6)
Cl5 Cl 0.77772(10) 0.4777(3) 0.09456(6)
Cl6 Cl 0.49059(10) 0.5244(3) 0.65817(6)
Cl7 Cl 0.28137(10) 0.4887(4) 0.97681(6)
Cl8 Cl 0.78324(10) 0.5125(4) 0.52215(6)
O1 O 0.2824(4) 0.6033(10) 0.1160(2)
H1 H 0.3033 0.7071 0.1273
O2 O -0.1217(3) 0.4749(11) -0.02654(18)
N1 N 0.0008(4) 0.4688(12) -0.0521(2)
H2 H -0.0187 0.4677 -0.0799
N2 N 0.1123(4) 0.4586(11) -0.0059(2)
H3 H 0.1631 0.4531 -0.0024
N3 N 0.1719(4) 0.2795(11) 0.1370(2)
H4 H 0.2112 0.1900 0.1330
H5 H 0.1269 0.2087 0.1387
O3 O 0.1519(4) 0.1156(11) 0.22935(19)
H6 H 0.1274 0.0403 0.2110
N4 N 0.1219(4) 0.4782(12) -0.0840(2)
H7 H 0.1728 0.4776 -0.0814
H8 H 0.0990 0.4849 -0.1109
N5 N -0.0444(4) 0.4628(11) 0.0682(2)
H9 H -0.0941 0.4666 0.0742
C1 C -0.0143(5) 0.4664(14) 0.0259(2)
C2 C 0.2000(5) 0.6214(14) 0.1178(3)
H10 H 0.1804 0.7436 0.1011
C3 C 0.0664(4) 0.4566(13) 0.0309(2)
C4 C 0.0797(5) 0.4689(13) -0.0472(2)
C5 C 0.1731(5) 0.6178(14) 0.1665(3)
H11 H 0.1177 0.6547 0.1680
H12 H 0.2042 0.7114 0.1858
C6 C 0.0861(5) 0.4429(13) 0.0781(3)
C7 C 0.1865(5) 0.3978(13) 0.1807(2)
H13 H 0.2421 0.3809 0.1905
C8 C 0.1669(5) 0.4260(13) 0.0973(2)
H14 H 0.2018 0.3779 0.0732
C9 C 0.0149(5) 0.4524(13) 0.0996(2)
H15 H 0.0088 0.4517 0.1315
C10 C -0.0516(5) 0.4702(13) -0.0174(3)
C11 C 0.1359(5) 0.3247(15) 0.2184(3)
H16 H 0.1454 0.4093 0.2456
H17 H 0.0807 0.3392 0.2089
O4 O -0.0315(3) 0.5538(10) 0.56818(18)
O5 O 0.2329(4) 1.1045(10) 0.3580(2)
H18 H 0.2464 1.2162 0.3692
N6 N -0.0708(4) 0.5572(11) 0.4659(2)
H19 H -0.1171 0.5526 0.4776
N7 N 0.0934(4) 0.5419(12) 0.5468(2)
H20 H 0.1075 0.5453 0.5757
N8 N 0.1219(4) 0.7937(11) 0.3792(2)
H21 H 0.1048 0.8773 0.4012
H22 H 0.1699 0.7483 0.3875
O6 O 0.0403(4) 0.5286(12) 0.29610(19)
H23 H 0.0076 0.5303 0.2745
N9 N 0.1337(4) 0.5411(12) 0.4732(2)
H24 H 0.1710 0.5386 0.4535
C12 C -0.0017(5) 0.5442(13) 0.4897(3)
C13 C 0.0234(5) 0.5792(13) 0.4147(3)
C14 C 0.0662(5) 0.6155(13) 0.3726(3)
H25 H 0.0976 0.4921 0.3662
C15 C 0.0567(5) 0.5524(13) 0.4582(3)
N10 N 0.2235(4) 0.5215(13) 0.5321(2)
H26 H 0.2614 0.5176 0.5128
H27 H 0.2339 0.5170 0.5613
C16 C -0.0564(5) 0.5786(13) 0.4207(3)
H28 H -0.0947 0.5911 0.3972
C17 C 0.0181(5) 0.6683(15) 0.3296(3)
H29 H -0.0386 0.6575 0.3352
C18 C 0.1248(5) 0.9046(15) 0.3351(3)
H30 H 0.1595 0.8316 0.3140
C19 C 0.1507(5) 0.5341(13) 0.5169(3)
C20 C 0.0403(5) 0.8878(16) 0.3178(3)
H31 H 0.0360 0.9113 0.2847
H32 H 0.0068 0.9859 0.3333
C21 C 0.0140(5) 0.5452(13) 0.5368(3)
C22 C 0.1539(5) 1.1150(15) 0.3429(3)
H33 H 0.1496 1.1938 0.3144
H34 H 0.1227 1.1831 0.3659
O7 O 0.4637(3) 0.4353(9) -0.07137(18)
O8 O 0.7492(4) -0.1011(10) 0.1449(2)
H35 H 0.7622 -0.2114 0.1332
N11 N 0.5915(4) 0.4534(12) -0.0501(2)
H36 H 0.6031 0.4498 -0.0788
N12 N 0.4341(4) 0.4331(11) 0.0310(2)
H37 H 0.3866 0.4352 0.0193
N13 N 0.6383(4) 0.4571(12) 0.0245(2)
H38 H 0.6771 0.4616 0.0444
N14 N 0.6348(4) 0.2050(11) 0.1195(2)
H39 H 0.6167 0.1181 0.0978
H40 H 0.6821 0.2510 0.1114
O9 O 0.5562(4) 0.4728(13) 0.2002(2)
H41 H 0.5212 0.4866 0.2191
N15 N 0.7224(4) 0.4839(13) -0.0349(2)
H42 H 0.7620 0.4911 -0.0155
H43 H 0.7302 0.4891 -0.0642
C23 C 0.5624(5) 0.4414(13) 0.0384(3)
C24 C 0.5006(5) 0.4469(13) 0.0066(3)
C25 C 0.5326(5) 0.4156(13) 0.0821(3)
C26 C 0.5122(5) 0.4462(13) -0.0402(3)
C27 C 0.4527(5) 0.4156(13) 0.0757(3)
H44 H 0.4164 0.4050 0.0991
C28 C 0.5789(5) 0.3807(13) 0.1248(3)
H45 H 0.6101 0.5052 0.1314
C29 C 0.5325(5) 0.3295(14) 0.1673(3)
H46 H 0.4755 0.3382 0.1607
C30 C 0.6703(6) -0.1125(15) 0.1580(3)
H47 H 0.6666 -0.1897 0.1865
H48 H 0.6387 -0.1823 0.1342
C31 C 0.6512(5) 0.4652(14) -0.0200(3)
C32 C 0.5565(6) 0.1144(16) 0.1796(3)
H49 H 0.5233 0.0144 0.1634
H50 H 0.5533 0.0911 0.2126
C33 C 0.6408(5) 0.1005(15) 0.1644(3)
H51 H 0.6761 0.1770 0.1857
O10 O 0.3806(3) 0.5413(11) 0.52865(18)
N16 N 0.5056(4) 0.5460(12) 0.5539(2)
H52 H 0.4889 0.5478 0.5817
O11 O 0.6425(4) 0.9161(11) 0.27537(19)
H53 H 0.6153 0.9874 0.2922
O12 O 0.7704(4) 0.4060(11) 0.3866(2)
H54 H 0.7900 0.3137 0.3711
N17 N 0.4488(4) 0.5512(11) 0.4331(2)
H55 H 0.3987 0.5463 0.4269
N18 N 0.6124(4) 0.5536(11) 0.5082(2)
H56 H 0.6628 0.5580 0.5049
N19 N 0.6299(4) 0.5312(12) 0.5858(2)
H57 H 0.6806 0.5287 0.5831
H58 H 0.6098 0.5251 0.6128
N20 N 0.6592(4) 0.7377(11) 0.3659(2)
H59 H 0.6973 0.8305 0.3713
H60 H 0.6132 0.8041 0.3633
C34 C 0.5626(5) 0.5567(13) 0.4702(2)
C35 C 0.4831(5) 0.5480(14) 0.4756(3)
C36 C 0.6746(5) 0.6243(14) 0.3222(3)
H61 H 0.7307 0.6382 0.3152
C37 C 0.5841(5) 0.5441(13) 0.5493(2)
C38 C 0.6572(5) 0.5876(13) 0.4046(3)
H62 H 0.6947 0.6322 0.4290
C39 C 0.5780(5) 0.5701(13) 0.4241(3)
C40 C 0.4493(4) 0.5453(13) 0.5193(3)
C41 C 0.6264(5) 0.7082(15) 0.2829(3)
H63 H 0.6372 0.6304 0.2552
H64 H 0.5707 0.6920 0.2893
C42 C 0.5058(5) 0.5633(13) 0.4021(2)
H65 H 0.4973 0.5665 0.3702
C43 C 0.6872(5) 0.3916(16) 0.3835(3)
H66 H 0.6674 0.2684 0.3991
C44 C 0.6584(5) 0.4047(14) 0.3345(3)
H67 H 0.6023 0.3741 0.3317
H68 H 0.6871 0.3106 0.3151
O13 O 0.7796(4) 0.4699(12) 0.2438(2)
O14 O 0.9376(4) 0.4641(12) 0.2218(2)
C45 C 0.8235(6) 0.6558(17) 0.2401(3)
H69 H 0.8458 0.6942 0.2701
H70 H 0.7890 0.7663 0.2293
C46 C 0.8874(6) 0.6255(18) 0.2074(3)
H71 H 0.8648 0.5942 0.1770
H72 H 0.9178 0.7519 0.2050
C47 C 0.8296(7) 0.3088(18) 0.2581(4)
H73 H 0.7992 0.1823 0.2602
H74 H 0.8520 0.3395 0.2886
C48 C 0.8939(7) 0.2795(18) 0.2255(4)
H75 H 0.9285 0.1691 0.2363
H76 H 0.8719 0.2410 0.1954
O15 O 0.2765(4) 0.5935(11) 0.2673(2)
O16 O 0.4386(3) 0.5396(11) 0.2602(2)
C49 C 0.3991(6) 0.7186(16) 0.2419(4)
H77 H 0.3828 0.6941 0.2099
H78 H 0.4349 0.8354 0.2427
C50 C 0.3286(6) 0.7653(16) 0.2696(4)
H79 H 0.3448 0.7919 0.3014
H80 H 0.3020 0.8873 0.2574
C51 C 0.3859(6) 0.3710(15) 0.2589(3)
H81 H 0.4120 0.2502 0.2720
H82 H 0.3706 0.3402 0.2271
C52 C 0.3150(6) 0.4193(17) 0.2853(3)
H83 H 0.2792 0.3025 0.2841
H84 H 0.3302 0.4439 0.3174
loop_
_geom_bond_atom_site_label_1
_geom_bond_atom_site_label_2
_geom_bond_site_symmetry_1
_geom_bond_site_symmetry_2
O1 H1 1_555 1_555
O2 C10 1_555 1_555
N1 H2 1_555 1_555
N2 H3 1_555 1_555
N3 H4 1_555 1_555
H5 N3 1_555 1_555
O3 H6 1_555 1_555
N4 H7 1_555 1_555
H8 N4 1_555 1_555
N5 H9 1_555 1_555
C1 N5 1_555 1_555
C2 O1 1_555 1_555
H10 C2 1_555 1_555
C3 N2 1_555 1_555
C4 N1 1_555 1_555
C5 C2 1_555 1_555
H11 C5 1_555 1_555
H12 C5 1_555 1_555
C6 C3 1_555 1_555
C7 N3 1_555 1_555
H13 C7 1_555 1_555
C8 N3 1_555 1_555
H14 C8 1_555 1_555
C9 N5 1_555 1_555
H15 C9 1_555 1_555
C10 N1 1_555 1_555
C11 O3 1_555 1_555
H16 C11 1_555 1_555
H17 C11 1_555 1_555
O4 C21 1_555 1_555
O5 H18 1_555 1_555
N6 H19 1_555 1_555
N7 H20 1_555 1_555
N8 H21 1_555 1_555
H22 N8 1_555 1_555
O6 H23 1_555 1_555
N9 H24 1_555 1_555
C12 N6 1_555 1_555
C13 C14 1_555 1_555
C14 N8 1_555 1_555
H25 C14 1_555 1_555
C15 N9 1_555 1_555
N10 H26 1_555 1_555
H27 N10 1_555 1_555
C16 N6 1_555 1_555
H28 C16 1_555 1_555
C17 O6 1_555 1_555
H29 C17 1_555 1_555
C18 N8 1_555 1_555
H30 C18 1_555 1_555
C19 N7 1_555 1_555
C20 C17 1_555 1_555
H31 C20 1_555 1_555
H32 C20 1_555 1_555
C21 N7 1_555 1_555
C22 O5 1_555 1_555
H33 C22 1_555 1_555
H34 C22 1_555 1_555
O7 C26 1_555 1_555
O8 H35 1_555 1_555
N11 H36 1_555 1_555
N12 H37 1_555 1_555
N13 H38 1_555 1_555
N14 H39 1_555 1_555
H40 N14 1_555 1_555
O9 H41 1_555 1_555
N15 H42 1_555 1_555
H43 N15 1_555 1_555
C23 N13 1_555 1_555
C24 N12 1_555 1_555
C25 C23 1_555 1_555
C26 N11 1_555 1_555
C27 N12 1_555 1_555
H44 C27 1_555 1_555
C28 N14 1_555 1_555
H45 C28 1_555 1_555
C29 O9 1_555 1_555
H46 C29 1_555 1_555
C30 O8 1_555 1_555
H47 C30 1_555 1_555
H48 C30 1_555 1_555
C31 N11 1_555 1_555
C32 C29 1_555 1_555
H49 C32 1_555 1_555
H50 C32 1_555 1_555
C33 N14 1_555 1_555
H51 C33 1_555 1_555
O10 C40 1_555 1_555
N16 H52 1_555 1_555
O11 H53 1_555 1_555
O12 H54 1_555 1_555
N17 H55 1_555 1_555
N18 H56 1_555 1_555
N19 H57 1_555 1_555
H58 N19 1_555 1_555
N20 H59 1_555 1_555
H60 N20 1_555 1_555
C34 N18 1_555 1_555
C35 N17 1_555 1_555
C36 N20 1_555 1_555
H61 C36 1_555 1_555
C37 N16 1_555 1_555
C38 N20 1_555 1_555
H62 C38 1_555 1_555
C39 C34 1_555 1_555
C40 N16 1_555 1_555
C41 O11 1_555 1_555
H63 C41 1_555 1_555
H64 C41 1_555 1_555
C42 N17 1_555 1_555
H65 C42 1_555 1_555
C43 O12 1_555 1_555
H66 C43 1_555 1_555
C44 C36 1_555 1_555
H67 C44 1_555 1_555
H68 C44 1_555 1_555
O13 C45 1_555 1_555
O14 C46 1_555 1_555
C45 H69 1_555 1_555
H70 C45 1_555 1_555
C46 C45 1_555 1_555
H71 C46 1_555 1_555
H72 C46 1_555 1_555
C47 O13 1_555 1_555
H73 C47 1_555 1_555
H74 C47 1_555 1_555
C48 O14 1_555 1_555
H75 C48 1_555 1_555
H76 C48 1_555 1_555
O15 C50 1_555 1_555
O16 C49 1_555 1_555
C49 H77 1_555 1_555
H78 C49 1_555 1_555
C50 C49 1_555 1_555
H79 C50 1_555 1_555
H80 C50 1_555 1_555
C51 O16 1_555 1_555
H81 C51 1_555 1_555
H82 C51 1_555 1_555
C52 O15 1_555 1_555
H83 C52 1_555 1_555
H84 C52 1_555 1_555
N2 C4 1_555 1_555
N4 C4 1_555 1_555
C1 C3 1_555 1_555
C1 C10 1_555 1_555
C2 C8 1_555 1_555
C5 C7 1_555 1_555
C6 C8 1_555 1_555
C6 C9 1_555 1_555
C7 C11 1_555 1_555
N9 C19 1_555 1_555
C12 C15 1_555 1_555
C12 C21 1_555 1_555
C13 C15 1_555 1_555
C13 C16 1_555 1_555
C14 C17 1_555 1_555
N10 C19 1_555 1_555
C18 C20 1_555 1_555
C18 C22 1_555 1_555
N13 C31 1_555 1_555
N15 C31 1_555 1_555
C23 C24 1_555 1_555
C24 C26 1_555 1_555
C25 C27 1_555 1_555
C25 C28 1_555 1_555
C28 C29 1_555 1_555
C30 C33 1_555 1_555
C32 C33 1_555 1_555
N18 C37 1_555 1_555
N19 C37 1_555 1_555
C34 C35 1_555 1_555
C35 C40 1_555 1_555
C36 C41 1_555 1_555
C38 C39 1_555 1_555
C38 C43 1_555 1_555
C39 C42 1_555 1_555
C43 C44 1_555 1_555
C47 C48 1_555 1_555
C51 C52 1_555 1_555

#END
