
#######################################################################
#
#                 Cambridge Crystallographic Data Centre
#                                CCDC 
#
#######################################################################
#
# If this CIF has been generated from an entry in the Cambridge 
# Structural Database, then it will include bibliographic, chemical, 
# crystal, experimental, refinement or atomic coordinate data resulting 
# from the CCDC's data processing and validation procedures.
#
#######################################################################

data_ESIFOD
_chemical_formula_moiety         'C34 H36 Cl2 N8,2(C1 H2 Cl2),H2 O1'
_chemical_name_systematic        
'4,7-dichloro-2,9-bis(5,5,8,8-tetramethyl-5,6,7,8-tetrahydro-1,2,4-benzotriazin-3-yl)-1,10-phenanthroline dichloromethane solvate monohydrate'
_symmetry_cell_setting           monoclinic
_symmetry_space_group_name_H-M   'P 21/n'
_symmetry_Int_Tables_number      14
_space_group_name_Hall           '-P 2yn'
loop_
_symmetry_equiv_pos_site_id
_symmetry_equiv_pos_as_xyz
1 x,y,z
2 1/2-x,1/2+y,1/2-z
3 -x,-y,-z
4 1/2+x,1/2-y,1/2+z
_cell_length_a                   7.4785(4)
_cell_length_b                   14.3009(12)
_cell_length_c                   38.100(3)
_cell_angle_alpha                90
_cell_angle_beta                 92.589(6)
_cell_angle_gamma                90
_cell_volume                     4070.61
_exptl_crystal_colour            colorless
_exptl_crystal_description       plate
_cell_formula_units_Z            4
loop_
_atom_site_label
_atom_site_type_symbol
_atom_site_fract_x
_atom_site_fract_y
_atom_site_fract_z
C1 C 0.0671(14) 0.7072(7) 0.6640(2)
H1 H -0.0019 0.7659 0.661
H2 H 0.1127 0.6897 0.6409
Cl1 Cl 0.2476(5) 0.7244(2) 0.69444(7)
Cl2 Cl -0.0709(6) 0.6192(3) 0.67864(10)
O1 O -0.0104(9) 0.7926(4) 0.58871(16)
H3 H 0.085(14) 0.776(6) 0.577(2)
H4 H 0.027(10) 0.833(5) 0.5989(18)
C2 C 0.2829(9) 0.9276(5) 0.52051(16)
C3 C 0.3975(9) 0.7797(5) 0.52672(17)
C4 C 0.4474(9) 0.7760(5) 0.49146(16)
H5 H 0.5082 0.7235 0.4825
C5 C 0.4043(9) 0.8517(4) 0.47069(16)
C6 C 0.3211(8) 0.9319(5) 0.48430(17)
C7 C 0.2791(9) 1.0148(5) 0.46477(16)
H6 H 0.3037 1.0169 0.4405
C8 C 0.2056(9) 1.0900(5) 0.47966(17)
H7 H 0.1817 1.1445 0.466
C9 C 0.1627(9) 1.0890(4) 0.51625(16)
C10 C 0.0868(9) 1.1638(4) 0.53410(17)
C11 C 0.0442(9) 1.1570(4) 0.56889(16)
H8 H -0.0069 1.208 0.5809
C12 C 0.0800(9) 1.0711(5) 0.58576(16)
C13 C 0.1983(9) 1.0068(4) 0.53621(16)
C14 C 0.4325(10) 0.6973(5) 0.54963(17)
C15 C 0.5920(10) 0.5675(5) 0.56343(17)
C16 C 0.7522(9) 0.5052(5) 0.55594(18)
C17 C 0.7413(11) 0.4117(5) 0.57557(19)
H9 H 0.6572 0.3696 0.5624
H10 H 0.8607 0.3817 0.5766
C18 C 0.6789(11) 0.4242(5) 0.61276(19)
H11 H 0.7664 0.4643 0.626
H12 H 0.6794 0.3623 0.6244
C19 C 0.4935(11) 0.4671(5) 0.61518(19)
C20 C 0.4794(10) 0.5517(5) 0.59116(17)
C21 C 0.9247(10) 0.5581(5) 0.5670(2)
H13 H 1.0287 0.5191 0.5624
H14 H 0.9308 0.6164 0.5536
H15 H 0.9243 0.5726 0.5922
C22 C 0.7574(10) 0.4848(5) 0.51595(18)
H16 H 0.8604 0.4449 0.5115
H17 H 0.6469 0.4528 0.508
H18 H 0.768 0.5438 0.5031
C23 C 0.4641(14) 0.4938(6) 0.6534(2)
H19 H 0.4741 0.4378 0.6682
H20 H 0.5548 0.5395 0.6613
H21 H 0.3447 0.5211 0.6551
C24 C 0.3502(11) 0.3965(5) 0.6030(2)
H22 H 0.3573 0.3413 0.6182
H23 H 0.2316 0.4251 0.6042
H24 H 0.37 0.3778 0.5787
C25 C 0.0304(10) 1.0565(5) 0.62270(17)
C26 C -0.0419(11) 1.1179(5) 0.67513(18)
C27 C -0.0986(14) 1.2015(6) 0.6967(2)
C28 C -0.0723(17) 1.1815(6) 0.7358(2)
H25 H 0.0562 1.1888 0.7428
H26 H -0.1397 1.2285 0.749
C29 C -0.1321(18) 1.0853(7) 0.7462(2)
H27 H -0.2629 1.0805 0.7413
H28 H -0.11 1.0781 0.7719
C30 C -0.0410(14) 1.0042(6) 0.7277(2)
C31 C -0.0271(11) 1.0273(5) 0.68896(18)
C32 C 0.0018(16) 1.2890(6) 0.6867(2)
H29 H -0.037 1.3417 0.7009
H30 H 0.1306 1.2791 0.6909
H31 H -0.0233 1.3027 0.6617
C33 C -0.2998(15) 1.2190(6) 0.6875(2)
H32 H -0.369 1.1636 0.6936
H33 H -0.3408 1.273 0.7007
H34 H -0.3168 1.2313 0.6622
C34 C 0.1521(18) 0.9920(8) 0.7427(2)
H35 H 0.1505 0.9769 0.7678
H36 H 0.2101 0.9411 0.7302
H37 H 0.2188 1.0502 0.7396
C35 C -0.1532(17) 0.9162(7) 0.7322(2)
H38 H -0.1609 0.9022 0.7572
H39 H -0.2737 0.9263 0.7217
H40 H -0.097 0.8636 0.7204
Cl3 Cl 0.4526(3) 0.84934(12) 0.42639(4)
Cl4 Cl 0.0483(3) 1.26903(13) 0.51228(5)
N1 N 0.3164(8) 0.8514(4) 0.54118(14)
N2 N 0.1580(7) 0.9986(4) 0.57050(13)
N3 N 0.5670(7) 0.6410(4) 0.54212(13)
N4 N 0.3449(9) 0.6101(4) 0.59662(15)
N5 N 0.3196(9) 0.6859(4) 0.57538(15)
N6 N -0.0107(9) 1.1328(4) 0.64145(14)
N7 N 0.0027(9) 0.9545(4) 0.66821(15)
N8 N 0.0321(9) 0.9682(4) 0.63439(15)
C36 C -0.0635(11) 0.6065(6) 0.1294(2)
H41 H -0.1404 0.5957 0.108
H42 H -0.1301 0.6468 0.1454
Cl5 Cl 0.1338(3) 0.66374(17) 0.11805(6)
Cl6 Cl -0.0157(4) 0.49786(17) 0.15028(6)
loop_
_geom_bond_atom_site_label_1
_geom_bond_atom_site_label_2
_geom_bond_site_symmetry_1
_geom_bond_site_symmetry_2
C1 H1 1_555 1_555
H2 C1 1_555 1_555
Cl1 C1 1_555 1_555
Cl2 C1 1_555 1_555
O1 H3 1_555 1_555
H4 O1 1_555 1_555
C2 C6 1_555 1_555
C3 C4 1_555 1_555
C4 H5 1_555 1_555
C5 C4 1_555 1_555
C6 C5 1_555 1_555
C7 C6 1_555 1_555
H6 C7 1_555 1_555
C8 C7 1_555 1_555
H7 C8 1_555 1_555
C9 C8 1_555 1_555
C10 C9 1_555 1_555
C11 C10 1_555 1_555
H8 C11 1_555 1_555
C12 C11 1_555 1_555
C13 C2 1_555 1_555
C14 C3 1_555 1_555
C15 C16 1_555 1_555
C16 C17 1_555 1_555
C17 H9 1_555 1_555
H10 C17 1_555 1_555
C18 C17 1_555 1_555
H11 C18 1_555 1_555
H12 C18 1_555 1_555
C19 C18 1_555 1_555
C20 C15 1_555 1_555
C21 C16 1_555 1_555
H13 C21 1_555 1_555
H14 C21 1_555 1_555
H15 C21 1_555 1_555
C22 C16 1_555 1_555
H16 C22 1_555 1_555
H17 C22 1_555 1_555
H18 C22 1_555 1_555
C23 C19 1_555 1_555
H19 C23 1_555 1_555
H20 C23 1_555 1_555
H21 C23 1_555 1_555
C24 C19 1_555 1_555
H22 C24 1_555 1_555
H23 C24 1_555 1_555
H24 C24 1_555 1_555
C25 C12 1_555 1_555
C26 C27 1_555 1_555
C27 C28 1_555 1_555
C28 H25 1_555 1_555
H26 C28 1_555 1_555
C29 C28 1_555 1_555
H27 C29 1_555 1_555
H28 C29 1_555 1_555
C30 C29 1_555 1_555
C31 C26 1_555 1_555
C32 C27 1_555 1_555
H29 C32 1_555 1_555
H30 C32 1_555 1_555
H31 C32 1_555 1_555
C33 C27 1_555 1_555
H32 C33 1_555 1_555
H33 C33 1_555 1_555
H34 C33 1_555 1_555
C34 C30 1_555 1_555
H35 C34 1_555 1_555
H36 C34 1_555 1_555
H37 C34 1_555 1_555
C35 C30 1_555 1_555
H38 C35 1_555 1_555
H39 C35 1_555 1_555
H40 C35 1_555 1_555
Cl3 C5 1_555 1_555
Cl4 C10 1_555 1_555
N1 C2 1_555 1_555
N2 C12 1_555 1_555
N3 C14 1_555 1_555
N4 C20 1_555 1_555
N5 C14 1_555 1_555
N6 C25 1_555 1_555
N7 C31 1_555 1_555
N8 C25 1_555 1_555
C36 H41 1_555 1_555
H42 C36 1_555 1_555
Cl5 C36 1_555 1_555
Cl6 C36 1_555 1_555
C3 N1 1_555 1_555
C9 C13 1_555 1_555
C13 N2 1_555 1_555
C15 N3 1_555 1_555
C19 C20 1_555 1_555
C26 N6 1_555 1_555
C30 C31 1_555 1_555
N4 N5 1_555 1_555
N7 N8 1_555 1_555

#END
