
#######################################################################
#
#                 Cambridge Crystallographic Data Centre
#                                CCDC 
#
#######################################################################
#
# If this CIF has been generated from an entry in the Cambridge 
# Structural Database, then it will include bibliographic, chemical, 
# crystal, experimental, refinement or atomic coordinate data resulting 
# from the CCDC's data processing and validation procedures.
#
#######################################################################

data_ESIGUK
_chemical_name_common            
'S6-corona[3]fluorene[3]pyridazine unknown solvate'
_chemical_formula_moiety         'C69 H66 N6 S6'
_chemical_name_systematic        
'8,8,25,25,42,42-hexapropyl-2,14,19,31,36,48-hexathia-16,17,33,34,50,51-hexaazatridecacyclo[47.2.2.2^15,18^.2^32,35^.1^3,7^.1^9,13^.1^20,24^.1^26,30^.1^37,41^.1^43,47^.0^6,10^.0^23,27^.0^40,44^]trihexaconta-1(51),3(63),4,6,9(62),10,12,15,17,20(59),21,23,26(58),27,29,32,34,37(55),38,40,43(54),44,46,49,52,56,60-heptacosaene unknown solvate'
_symmetry_cell_setting           orthorhombic
_symmetry_space_group_name_H-M   'P m n 21'
_symmetry_Int_Tables_number      31
_space_group_name_Hall           'P 2ac -2'
loop_
_symmetry_equiv_pos_site_id
_symmetry_equiv_pos_as_xyz
1 x,y,z
2 1/2-x,-y,1/2+z
3 1/2+x,-y,1/2+z
4 -x,y,z
_cell_length_a                   23.370(5)
_cell_length_b                   17.331(4)
_cell_length_c                   9.2866(19)
_cell_angle_alpha                90
_cell_angle_beta                 90
_cell_angle_gamma                90
_cell_volume                     3761.31
_exptl_crystal_colour            black
_exptl_crystal_description       block
_cell_formula_units_Z            2
loop_
_atom_site_label
_atom_site_type_symbol
_atom_site_fract_x
_atom_site_fract_y
_atom_site_fract_z
S1 S 0.72101(16) 1.0480(2) 0.2214(4)
S2 S 0.8487(2) 0.7624(3) 0.4507(4)
S3 S 0.6319(2) 0.5482(3) 1.3351(6)
N1 N 0.8034(6) 0.9512(6) 0.2613(11)
N2 N 0.8331(5) 0.8878(7) 0.3138(13)
N3 N 0.5305(6) 0.5246(7) 1.4248(12)
C1 C 0.5496(5) 1.0423(6) 0.1864(13)
C2 C 0.5316(6) 1.0538(7) 0.3318(13)
C3 C 0.5680(6) 1.0614(7) 0.4416(16)
H1 H 0.5547 1.0663 0.5355
C4 C 0.6292(5) 1.0618(7) 0.4104(14)
H2 H 0.6560 1.0706 0.4825
C5 C 0.6461(7) 1.0486(6) 0.2675(13)
C6 C 0.6083(6) 1.0403(6) 0.1568(14)
H3 H 0.6213 1.0334 0.0630
C7 C 0.5000 1.0338(9) 0.0841(18)
C8 C 0.5000 1.0881(11) -0.036(2)
H4 H 0.4666 1.0775 -0.0943
C9 C 0.5000 1.1758(14) 0.000(5)
H5 H 0.4665 1.1873 0.0584
C10 C 0.5000 1.2288(14) -0.130(3)
C11 C 0.5000 0.9530(9) 0.014(2)
H6 H 0.5335 0.9485 -0.0473
C12 C 0.5000 0.8848(12) 0.122(2)
H7 H 0.4666 0.8908 0.1836
C13 C 0.5000 0.8006(12) 0.066(4)
H8 H 0.5328 0.7737 0.1024
C14 C 0.7467(6) 0.9588(8) 0.2884(14)
C15 C 0.7101(8) 0.9034(9) 0.3717(13)
H9 H 0.6711 0.9090 0.3888
C16 C 0.7442(6) 0.8420(7) 0.4196(13)
H10 H 0.7270 0.8030 0.4729
C17 C 0.8046(7) 0.8362(8) 0.3906(14)
C18 C 0.8062(5) 0.7143(8) 0.5764(12)
C19 C 0.7740(5) 0.6481(10) 0.5315(17)
H11 H 0.7772 0.6303 0.4374
C20 C 0.7410(8) 0.6137(12) 0.620(2)
H12 H 0.7167 0.5757 0.5840
C21 C 0.7394(6) 0.6304(8) 0.7714(14)
C22 C 0.7077(6) 0.5993(6) 0.8960(16)
C23 C 0.6729(7) 0.5354(9) 0.909(2)
H13 H 0.6669 0.5022 0.8317
C24 C 0.6458(8) 0.5218(10) 1.048(3)
H14 H 0.6191 0.4827 1.0611
C25 C 0.6621(8) 0.5703(10) 1.1579(19)
C26 C 0.6954(6) 0.6312(10) 1.1462(19)
H15 H 0.7009 0.6647 1.2231
C27 C 0.7220(6) 0.6435(8) 1.0136(16)
C28 C 0.7597(6) 0.7116(7) 0.9770(13)
C29 C 0.7708(6) 0.6924(7) 0.8175(12)
C30 C 0.8025(6) 0.7343(8) 0.7183(15)
H16 H 0.8221 0.7779 0.7498
C31 C 0.8213(6) 0.7053(7) 1.0593(16)
H17 H 0.8473 0.7422 1.0161
H18 H 0.8159 0.7203 1.1590
C32 C 0.8484(6) 0.6294(8) 1.0566(16)
H19 H 0.8549 0.6144 0.9573
H20 H 0.8226 0.5919 1.0991
C33 C 0.9045(6) 0.6276(9) 1.1366(16)
H21 H 0.9290 0.6678 1.1009
H22 H 0.9226 0.5785 1.1224
H23 H 0.8977 0.6355 1.2375
C34 C 0.7348(6) 0.7847(8) 1.0038(16)
H24 H 0.7631 0.8240 0.9823
H25 H 0.7263 0.7882 1.1058
C35 C 0.6801(7) 0.8041(9) 0.9201(16)
H26 H 0.6522 0.7636 0.9360
H27 H 0.6888 0.8053 0.8180
C36 C 0.6539(9) 0.8817(8) 0.9640(18)
H28 H 0.6257 0.8967 0.8943
H29 H 0.6834 0.9202 0.9685
H30 H 0.6361 0.8767 1.0568
C37 C 0.5578(7) 0.5539(7) 1.3116(16)
C38 C 0.5280(5) 0.5909(6) 1.1988(13)
H31 H 0.5480 0.6151 1.1250
S1C S 0.27899(16) 1.0480(2) 0.2214(4)
S2C S 0.1513(2) 0.7624(3) 0.4507(4)
S3C S 0.3681(2) 0.5482(3) 1.3351(6)
N1C N 0.1966(6) 0.9512(6) 0.2613(11)
N2C N 0.1669(5) 0.8878(7) 0.3138(13)
N3C N 0.4695(6) 0.5246(7) 1.4248(12)
C1C C 0.4504(5) 1.0423(6) 0.1864(13)
C2C C 0.4684(6) 1.0538(7) 0.3318(13)
C3C C 0.4320(6) 1.0614(7) 0.4416(16)
H1C H 0.4453 1.0663 0.5355
C4C C 0.3708(5) 1.0618(7) 0.4104(14)
H2C H 0.3440 1.0706 0.4825
C5C C 0.3539(7) 1.0486(6) 0.2675(13)
C6C C 0.3917(6) 1.0403(6) 0.1568(14)
H3C H 0.3787 1.0334 0.0630
H4C H 0.5334 1.0775 -0.0943
H5C H 0.5335 1.1873 0.0584
H6C H 0.4665 0.9485 -0.0473
H7C H 0.5334 0.8908 0.1836
H8C H 0.4672 0.7737 0.1024
C14C C 0.2533(6) 0.9588(8) 0.2884(14)
C15C C 0.2899(8) 0.9034(9) 0.3717(13)
H9C H 0.3289 0.9090 0.3888
C16C C 0.2558(6) 0.8420(7) 0.4196(13)
H10C H 0.2730 0.8030 0.4729
C17C C 0.1954(7) 0.8362(8) 0.3906(14)
C18C C 0.1938(5) 0.7143(8) 0.5764(12)
C19C C 0.2260(5) 0.6481(10) 0.5315(17)
H11C H 0.2228 0.6303 0.4374
C20C C 0.2590(8) 0.6137(12) 0.620(2)
H12C H 0.2833 0.5757 0.5840
C21C C 0.2606(6) 0.6304(8) 0.7714(14)
C22C C 0.2923(6) 0.5993(6) 0.8960(16)
C23C C 0.3271(7) 0.5354(9) 0.909(2)
H13C H 0.3331 0.5022 0.8317
C24C C 0.3542(8) 0.5218(10) 1.048(3)
H14C H 0.3809 0.4827 1.0611
C25C C 0.3379(8) 0.5703(10) 1.1579(19)
C26C C 0.3046(6) 0.6312(10) 1.1462(19)
H15C H 0.2991 0.6647 1.2231
C27C C 0.2780(6) 0.6435(8) 1.0136(16)
C28C C 0.2403(6) 0.7116(7) 0.9770(13)
C29C C 0.2292(6) 0.6924(7) 0.8175(12)
C30C C 0.1975(6) 0.7343(8) 0.7183(15)
H16C H 0.1779 0.7779 0.7498
C31C C 0.1787(6) 0.7053(7) 1.0593(16)
H17C H 0.1527 0.7422 1.0161
H18C H 0.1841 0.7203 1.1590
C32C C 0.1516(6) 0.6294(8) 1.0566(16)
H19C H 0.1451 0.6144 0.9573
H20C H 0.1774 0.5919 1.0991
C33C C 0.0955(6) 0.6276(9) 1.1366(16)
H21C H 0.0710 0.6678 1.1009
H22C H 0.0774 0.5785 1.1224
H23C H 0.1023 0.6355 1.2375
C34C C 0.2652(6) 0.7847(8) 1.0038(16)
H24C H 0.2369 0.8240 0.9823
H25C H 0.2737 0.7882 1.1058
C35C C 0.3199(7) 0.8041(9) 0.9201(16)
H26C H 0.3478 0.7636 0.9360
H27C H 0.3112 0.8053 0.8180
C36C C 0.3461(9) 0.8817(8) 0.9640(18)
H28C H 0.3743 0.8967 0.8943
H29C H 0.3166 0.9202 0.9685
H30C H 0.3639 0.8767 1.0568
C37C C 0.4422(7) 0.5539(7) 1.3116(16)
C38C C 0.4720(5) 0.5909(6) 1.1988(13)
H31C H 0.4520 0.6151 1.1250
H32? H 0.4666 1.0775 -0.0943
H33? H 0.4665 1.1873 0.0584
H34? H 0.5335 0.9485 -0.0473
H35? H 0.4666 0.8908 0.1836
H36? H 0.4815 1.2034 -0.2095
H37? H 0.5387 1.2410 -0.1564
H38? H 0.4798 1.2755 -0.1078
H39? H 0.5014 0.8011 -0.0378
H40? H 0.4658 0.7749 0.0967
loop_
_geom_bond_atom_site_label_1
_geom_bond_atom_site_label_2
_geom_bond_site_symmetry_1
_geom_bond_site_symmetry_2
S1 C5 1_555 1_555
S2 C17 1_555 1_555
S3 C25 1_555 1_555
N1 N2 1_555 1_555
N2 C17 1_555 1_555
N3 C37 1_555 1_555
C1 C2 1_555 1_555
C2 C3 1_555 1_555
C3 H1 1_555 1_555
C4 C3 1_555 1_555
H2 C4 1_555 1_555
C5 C4 1_555 1_555
C6 C1 1_555 1_555
H3 C6 1_555 1_555
C7 C1 1_555 1_555
C8 C7 1_555 1_555
H4 C8 1_555 1_555
C9 C8 1_555 1_555
H5 C9 1_555 1_555
C10 C9 1_555 1_555
C11 C7 1_555 1_555
H6 C11 1_555 1_555
C12 C11 1_555 1_555
H7 C12 1_555 1_555
C13 C12 1_555 1_555
H8 C13 1_555 1_555
C14 S1 1_555 1_555
C15 C14 1_555 1_555
H9 C15 1_555 1_555
C16 C15 1_555 1_555
H10 C16 1_555 1_555
C17 C16 1_555 1_555
C18 S2 1_555 1_555
C19 C18 1_555 1_555
H11 C19 1_555 1_555
C20 C19 1_555 1_555
H12 C20 1_555 1_555
C21 C20 1_555 1_555
C22 C21 1_555 1_555
C23 C22 1_555 1_555
H13 C23 1_555 1_555
C24 C23 1_555 1_555
H14 C24 1_555 1_555
C25 C24 1_555 1_555
C26 C25 1_555 1_555
H15 C26 1_555 1_555
C27 C22 1_555 1_555
C28 C27 1_555 1_555
C29 C21 1_555 1_555
C30 C18 1_555 1_555
H16 C30 1_555 1_555
C31 C28 1_555 1_555
H17 C31 1_555 1_555
H18 C31 1_555 1_555
C32 C31 1_555 1_555
H19 C32 1_555 1_555
H20 C32 1_555 1_555
C33 C32 1_555 1_555
H21 C33 1_555 1_555
H22 C33 1_555 1_555
H23 C33 1_555 1_555
C34 C28 1_555 1_555
H24 C34 1_555 1_555
H25 C34 1_555 1_555
C35 C34 1_555 1_555
H26 C35 1_555 1_555
H27 C35 1_555 1_555
C36 C35 1_555 1_555
H28 C36 1_555 1_555
H29 C36 1_555 1_555
H30 C36 1_555 1_555
C37 S3 1_555 1_555
C38 C37 1_555 1_555
H31 C38 1_555 1_555
S1C C5C 1_555 1_555
S2C C17C 1_555 1_555
S3C C25C 1_555 1_555
N1C N2C 1_555 1_555
N2C C17C 1_555 1_555
N3C N3 1_555 1_555
C1C C7 1_555 1_555
C2C C2 1_555 1_555
C3C C2C 1_555 1_555
H1C C3C 1_555 1_555
C4C C3C 1_555 1_555
H2C C4C 1_555 1_555
C5C C4C 1_555 1_555
C6C C1C 1_555 1_555
H3C C6C 1_555 1_555
H4C C8 1_555 1_555
H5C C9 1_555 1_555
H6C C11 1_555 1_555
H7C C12 1_555 1_555
H8C C13 1_555 1_555
C14C S1C 1_555 1_555
C15C C14C 1_555 1_555
H9C C15C 1_555 1_555
C16C C15C 1_555 1_555
H10C C16C 1_555 1_555
C17C C16C 1_555 1_555
C18C S2C 1_555 1_555
C19C C18C 1_555 1_555
H11C C19C 1_555 1_555
C20C C19C 1_555 1_555
H12C C20C 1_555 1_555
C21C C20C 1_555 1_555
C22C C21C 1_555 1_555
C23C C22C 1_555 1_555
H13C C23C 1_555 1_555
C24C C23C 1_555 1_555
H14C C24C 1_555 1_555
C25C C24C 1_555 1_555
C26C C25C 1_555 1_555
H15C C26C 1_555 1_555
C27C C22C 1_555 1_555
C28C C27C 1_555 1_555
C29C C21C 1_555 1_555
C30C C18C 1_555 1_555
H16C C30C 1_555 1_555
C31C C28C 1_555 1_555
H17C C31C 1_555 1_555
H18C C31C 1_555 1_555
C32C C31C 1_555 1_555
H19C C32C 1_555 1_555
H20C C32C 1_555 1_555
C33C C32C 1_555 1_555
H21C C33C 1_555 1_555
H22C C33C 1_555 1_555
H23C C33C 1_555 1_555
C34C C28C 1_555 1_555
H24C C34C 1_555 1_555
H25C C34C 1_555 1_555
C35C C34C 1_555 1_555
H26C C35C 1_555 1_555
H27C C35C 1_555 1_555
C36C C35C 1_555 1_555
H28C C36C 1_555 1_555
H29C C36C 1_555 1_555
H30C C36C 1_555 1_555
C37C S3C 1_555 1_555
C38C C38 1_555 1_555
H31C C38C 1_555 1_555
N1 C14 1_555 1_555
C5 C6 1_555 1_555
C26 C27 1_555 1_555
C28 C29 1_555 1_555
C29 C30 1_555 1_555
N1C C14C 1_555 1_555
N3C C37C 1_555 1_555
C1C C2C 1_555 1_555
C5C C6C 1_555 1_555
C26C C27C 1_555 1_555
C28C C29C 1_555 1_555
C29C C30C 1_555 1_555
C37C C38C 1_555 1_555

#END
