
#######################################################################
#
#                 Cambridge Crystallographic Data Centre
#                                CCDC 
#
#######################################################################
#
# If this CIF has been generated from an entry in the Cambridge 
# Structural Database, then it will include bibliographic, chemical, 
# crystal, experimental, refinement or atomic coordinate data resulting 
# from the CCDC's data processing and validation procedures.
#
#######################################################################

data_ESIHEV
_chemical_formula_moiety         'C78 H78 N6 O12 S6'
_chemical_name_systematic        
'(SO2)6-corona[3]fluorene[3]pyridazine unknown solvate'
_symmetry_cell_setting           orthorhombic
_symmetry_space_group_name_H-M   'C m c 21'
_symmetry_Int_Tables_number      36
_space_group_name_Hall           'C 2n -2'
loop_
_symmetry_equiv_pos_site_id
_symmetry_equiv_pos_as_xyz
1 x,y,z
2 -x,-y,1/2+z
3 x,-y,1/2+z
4 -x,y,z
5 1/2+x,1/2+y,z
6 1/2-x,1/2-y,1/2+z
7 1/2+x,1/2-y,1/2+z
8 1/2-x,1/2+y,z
_cell_length_a                   22.379(5)
_cell_length_b                   17.129(3)
_cell_length_c                   26.568(5)
_cell_angle_alpha                90
_cell_angle_beta                 90
_cell_angle_gamma                90
_cell_volume                     10184.3
_exptl_crystal_colour            colorless
_exptl_crystal_description       Plate
_cell_formula_units_Z            4
loop_
_atom_site_label
_atom_site_type_symbol
_atom_site_fract_x
_atom_site_fract_y
_atom_site_fract_z
S1 S 0.63895(6) 0.65196(8) 0.67866(5)
S2 S 0.86245(5) 0.29090(7) 0.43432(4)
S3 S 0.72958(5) 0.05976(6) 0.29445(4)
O1 O 0.65855(18) 0.6146(3) 0.72416(14)
O2 O 0.65098(18) 0.7336(2) 0.67023(18)
O3 O 0.88491(16) 0.2359(2) 0.47062(13)
O4 O 0.90303(16) 0.3348(2) 0.40424(12)
O5 O 0.73723(15) -0.00979(19) 0.32347(12)
O6 O 0.75621(16) 0.06576(19) 0.24559(12)
N1 N 0.7928(2) 0.1728(3) 0.40995(14)
N2 N 0.7628(2) 0.1245(3) 0.37961(14)
N3 N 0.5302(2) 0.7029(3) 0.66457(19)
C1 C 0.5585(2) 0.6390(3) 0.67649(19)
C2 C 0.5317(2) 0.5695(3) 0.6893(2)
C3 C 0.5558(4) 0.4896(4) 0.7033(3)
H1 H 0.5780 0.4919 0.7347
H2 H 0.5818 0.4695 0.6771
C4 C 0.5000 0.4391(8) 0.7089(6)
H3 H 0.5000 0.3987 0.6833
H4 H 0.5000 0.4141 0.7416
C5 C 0.6660(2) 0.5992(3) 0.62680(18)
C6 C 0.6591(2) 0.6288(3) 0.5781(2)
H5 H 0.6389 0.6757 0.5730
C7 C 0.6819(2) 0.5888(3) 0.53815(19)
H6 H 0.6758 0.6067 0.5055
C8 C 0.7144(2) 0.5213(3) 0.54668(18)
C9 C 0.7221(2) 0.4912(3) 0.59580(17)
C10 C 0.6985(2) 0.5298(3) 0.63694(17)
H7 H 0.7036 0.5112 0.6695
C11 C 0.7452(2) 0.4677(3) 0.51180(16)
C12 C 0.7725(2) 0.4078(3) 0.53965(15)
C13 C 0.8059(2) 0.3509(3) 0.51635(16)
H8 H 0.8229 0.3103 0.5347
C14 C 0.8135(2) 0.3560(3) 0.46445(16)
C15 C 0.7883(2) 0.4169(3) 0.43651(17)
H9 H 0.7956 0.4203 0.4021
C16 C 0.7523(3) 0.4725(3) 0.46013(17)
H10 H 0.7337 0.5117 0.4417
C17 C 0.7601(2) 0.4182(3) 0.59606(16)
C18 C 0.7284(3) 0.3470(3) 0.61898(18)
H11 H 0.7556 0.3029 0.6182
H12 H 0.7194 0.3581 0.6540
C19 C 0.6720(3) 0.3243(4) 0.5930(2)
H13 H 0.6812 0.3112 0.5583
H14 H 0.6454 0.3690 0.5925
C20 C 0.6389(5) 0.2550(6) 0.6171(3)
H15 H 0.6556 0.2070 0.6049
H16 H 0.5973 0.2574 0.6084
H17 H 0.6431 0.2574 0.6530
C21 C 0.8195(2) 0.4335(3) 0.62541(17)
H18 H 0.8100 0.4415 0.6607
H19 H 0.8444 0.3872 0.6231
C22 C 0.8552(3) 0.5035(4) 0.6066(3)
H20 H 0.8300 0.5495 0.6066
H21 H 0.8681 0.4940 0.5723
C23 C 0.9106(4) 0.5184(6) 0.6403(4)
H22 H 0.9368 0.5548 0.6239
H23 H 0.9313 0.4701 0.6458
H24 H 0.8979 0.5395 0.6720
C24 C 0.8168(2) 0.2376(3) 0.39021(15)
C25 C 0.8127(2) 0.2576(3) 0.33936(16)
C26 C 0.7827(2) 0.2070(3) 0.30766(15)
C27 C 0.7607(2) 0.1384(3) 0.33073(16)
C28 C 0.7850(3) 0.2345(3) 0.25410(18)
H25 H 0.7461 0.2309 0.2382
H26 H 0.8137 0.2047 0.2347
C29 C 0.8047(3) 0.3196(3) 0.25948(19)
H27 H 0.8305 0.3343 0.2317
H28 H 0.7702 0.3539 0.2597
C30 C 0.8383(3) 0.3252(3) 0.30916(16)
H29 H 0.8810 0.3192 0.3042
H30 H 0.8307 0.3748 0.3257
C31 C 0.6535(2) 0.0789(3) 0.28890(16)
C32 C 0.6322(2) 0.1321(3) 0.25218(18)
H31 H 0.6594 0.1594 0.2325
C33 C 0.5736(2) 0.1439(3) 0.24528(19)
H32 H 0.5603 0.1788 0.2209
C34 C 0.5332(2) 0.1034(3) 0.27492(16)
C35 C 0.5527(2) 0.0493(3) 0.31244(16)
C36 C 0.6128(2) 0.0388(3) 0.31966(16)
H33 H 0.6265 0.0054 0.3447
C37 C 0.5000 0.0082(4) 0.3360(2)
C38 C 0.5000 -0.0796(4) 0.3183(3)
H34 H 0.5349 -0.1051 0.3323
C39 C 0.5000 -0.0923(5) 0.2615(3)
H35 H 0.4651 -0.0665 0.2476
C40 C 0.5000 -0.1753(6) 0.2434(4)
C41 C 0.5000 0.0098(4) 0.3935(2)
H36 H 0.4650 -0.0180 0.4055
C42 C 0.5000 0.0894(9) 0.4157(5)
H37 H 0.4649 0.1178 0.4047
C43 C 0.5000 0.0811(15) 0.4774(7)
S1C S 0.36105(6) 0.65196(8) 0.67866(5)
S2C S 0.13755(5) 0.29090(7) 0.43432(4)
S3C S 0.27042(5) 0.05976(6) 0.29445(4)
O1C O 0.34145(18) 0.6146(3) 0.72416(14)
O2C O 0.34902(18) 0.7336(2) 0.67023(18)
O3C O 0.11509(16) 0.2359(2) 0.47062(13)
O4C O 0.09697(16) 0.3348(2) 0.40424(12)
O5C O 0.26277(15) -0.00979(19) 0.32347(12)
O6C O 0.24379(16) 0.06576(19) 0.24559(12)
N1C N 0.2072(2) 0.1728(3) 0.40995(14)
N2C N 0.2372(2) 0.1245(3) 0.37961(14)
N3C N 0.4698(2) 0.7029(3) 0.66457(19)
C1C C 0.4415(2) 0.6390(3) 0.67649(19)
C2C C 0.4683(2) 0.5695(3) 0.6893(2)
C3C C 0.4442(4) 0.4896(4) 0.7033(3)
H1C H 0.4220 0.4919 0.7347
H2C H 0.4182 0.4695 0.6771
C5C C 0.3340(2) 0.5992(3) 0.62680(18)
C6C C 0.3409(2) 0.6288(3) 0.5781(2)
H5C H 0.3611 0.6757 0.5730
C7C C 0.3181(2) 0.5888(3) 0.53815(19)
H6C H 0.3242 0.6067 0.5055
C8C C 0.2856(2) 0.5213(3) 0.54668(18)
C9C C 0.2779(2) 0.4912(3) 0.59580(17)
C10C C 0.3015(2) 0.5298(3) 0.63694(17)
H7C H 0.2964 0.5112 0.6695
C11C C 0.2548(2) 0.4677(3) 0.51180(16)
C12C C 0.2275(2) 0.4078(3) 0.53965(15)
C13C C 0.1941(2) 0.3509(3) 0.51635(16)
H8C H 0.1771 0.3103 0.5347
C14C C 0.1865(2) 0.3560(3) 0.46445(16)
C15C C 0.2117(2) 0.4169(3) 0.43651(17)
H9C H 0.2044 0.4203 0.4021
C16C C 0.2477(3) 0.4725(3) 0.46013(17)
H10C H 0.2663 0.5117 0.4417
C17C C 0.2399(2) 0.4182(3) 0.59606(16)
C18C C 0.2716(3) 0.3470(3) 0.61898(18)
H11C H 0.2444 0.3029 0.6182
H12C H 0.2806 0.3581 0.6540
C19C C 0.3280(3) 0.3243(4) 0.5930(2)
H13C H 0.3188 0.3112 0.5583
H14C H 0.3546 0.3690 0.5925
C20C C 0.3611(5) 0.2550(6) 0.6171(3)
H15C H 0.3444 0.2070 0.6049
H16C H 0.4027 0.2574 0.6084
H17C H 0.3569 0.2574 0.6530
C21C C 0.1805(2) 0.4335(3) 0.62541(17)
H18C H 0.1900 0.4415 0.6607
H19C H 0.1556 0.3872 0.6231
C22C C 0.1448(3) 0.5035(4) 0.6066(3)
H20C H 0.1700 0.5495 0.6066
H21C H 0.1319 0.4940 0.5723
C23C C 0.0894(4) 0.5184(6) 0.6403(4)
H22C H 0.0632 0.5548 0.6239
H23C H 0.0687 0.4701 0.6458
H24C H 0.1021 0.5395 0.6720
C24C C 0.1832(2) 0.2376(3) 0.39021(15)
C25C C 0.1873(2) 0.2576(3) 0.33936(16)
C26C C 0.2173(2) 0.2070(3) 0.30766(15)
C27C C 0.2393(2) 0.1384(3) 0.33073(16)
C28C C 0.2150(3) 0.2345(3) 0.25410(18)
H25C H 0.2539 0.2309 0.2382
H26C H 0.1863 0.2047 0.2347
C29C C 0.1953(3) 0.3196(3) 0.25948(19)
H27C H 0.1695 0.3343 0.2317
H28C H 0.2298 0.3539 0.2597
C30C C 0.1617(3) 0.3252(3) 0.30916(16)
H29C H 0.1190 0.3192 0.3042
H30C H 0.1693 0.3748 0.3257
C31C C 0.3465(2) 0.0789(3) 0.28890(16)
C32C C 0.3678(2) 0.1321(3) 0.25218(18)
H31C H 0.3406 0.1594 0.2325
C33C C 0.4264(2) 0.1439(3) 0.24528(19)
H32C H 0.4397 0.1788 0.2209
C34C C 0.4668(2) 0.1034(3) 0.27492(16)
C35C C 0.4473(2) 0.0493(3) 0.31244(16)
C36C C 0.3872(2) 0.0388(3) 0.31966(16)
H33C H 0.3735 0.0054 0.3447
H34C H 0.4651 -0.1051 0.3323
H35C H 0.5349 -0.0665 0.2476
H36C H 0.5350 -0.0180 0.4055
H37C H 0.5351 0.1178 0.4047
H38? H 0.5349 -0.1051 0.3323
H39? H 0.4651 -0.0665 0.2476
H40? H 0.4650 -0.0180 0.4055
H41? H 0.4649 0.1178 0.4047
H42? H 0.4726 0.0407 0.4873
H43? H 0.4879 0.1297 0.4922
H44? H 0.5395 0.0680 0.4888
H45? H 0.5207 -0.2075 0.2673
H46? H 0.5197 -0.1783 0.2114
H47? H 0.4596 -0.1933 0.2401
loop_
_geom_bond_atom_site_label_1
_geom_bond_atom_site_label_2
_geom_bond_site_symmetry_1
_geom_bond_site_symmetry_2
S1 O1 1_555 1_555
S2 O3 1_555 1_555
S3 O5 1_555 1_555
O2 S1 1_555 1_555
O4 S2 1_555 1_555
O6 S3 1_555 1_555
N1 N2 1_555 1_555
N2 C27 1_555 1_555
N3 C1 1_555 1_555
C1 S1 1_555 1_555
C2 C1 1_555 1_555
C3 C2 1_555 1_555
H1 C3 1_555 1_555
H2 C3 1_555 1_555
C4 C3 1_555 1_555
H3 C4 1_555 1_555
H4 C4 1_555 1_555
C5 S1 1_555 1_555
C6 C5 1_555 1_555
H5 C6 1_555 1_555
C7 C6 1_555 1_555
H6 C7 1_555 1_555
C8 C7 1_555 1_555
C9 C8 1_555 1_555
C10 C5 1_555 1_555
H7 C10 1_555 1_555
C11 C8 1_555 1_555
C12 C11 1_555 1_555
C13 C12 1_555 1_555
H8 C13 1_555 1_555
C14 S2 1_555 1_555
C15 C14 1_555 1_555
H9 C15 1_555 1_555
C16 C11 1_555 1_555
H10 C16 1_555 1_555
C17 C9 1_555 1_555
C18 C17 1_555 1_555
H11 C18 1_555 1_555
H12 C18 1_555 1_555
C19 C18 1_555 1_555
H13 C19 1_555 1_555
H14 C19 1_555 1_555
C20 C19 1_555 1_555
H15 C20 1_555 1_555
H16 C20 1_555 1_555
H17 C20 1_555 1_555
C21 C17 1_555 1_555
H18 C21 1_555 1_555
H19 C21 1_555 1_555
C22 C21 1_555 1_555
H20 C22 1_555 1_555
H21 C22 1_555 1_555
C23 C22 1_555 1_555
H22 C23 1_555 1_555
H23 C23 1_555 1_555
H24 C23 1_555 1_555
C24 S2 1_555 1_555
C25 C24 1_555 1_555
C26 C25 1_555 1_555
C27 S3 1_555 1_555
C28 C26 1_555 1_555
H25 C28 1_555 1_555
H26 C28 1_555 1_555
C29 C28 1_555 1_555
H27 C29 1_555 1_555
H28 C29 1_555 1_555
C30 C25 1_555 1_555
H29 C30 1_555 1_555
H30 C30 1_555 1_555
C31 S3 1_555 1_555
C32 C31 1_555 1_555
H31 C32 1_555 1_555
C33 C32 1_555 1_555
H32 C33 1_555 1_555
C34 C33 1_555 1_555
C35 C34 1_555 1_555
C36 C31 1_555 1_555
H33 C36 1_555 1_555
C37 C35 1_555 1_555
C38 C37 1_555 1_555
H34 C38 1_555 1_555
C39 C38 1_555 1_555
H35 C39 1_555 1_555
C40 C39 1_555 1_555
C41 C37 1_555 1_555
H36 C41 1_555 1_555
C42 C41 1_555 1_555
H37 C42 1_555 1_555
C43 C42 1_555 1_555
S1C O1C 1_555 1_555
S2C O3C 1_555 1_555
S3C O5C 1_555 1_555
O2C S1C 1_555 1_555
O4C S2C 1_555 1_555
O6C S3C 1_555 1_555
N1C N2C 1_555 1_555
N2C C27C 1_555 1_555
N3C N3 1_555 1_555
C1C S1C 1_555 1_555
C2C C2 1_555 1_555
C3C C4 1_555 1_555
H1C C3C 1_555 1_555
H2C C3C 1_555 1_555
C5C S1C 1_555 1_555
C6C C5C 1_555 1_555
H5C C6C 1_555 1_555
C7C C6C 1_555 1_555
H6C C7C 1_555 1_555
C8C C7C 1_555 1_555
C9C C8C 1_555 1_555
C10C C5C 1_555 1_555
H7C C10C 1_555 1_555
C11C C8C 1_555 1_555
C12C C11C 1_555 1_555
C13C C12C 1_555 1_555
H8C C13C 1_555 1_555
C14C S2C 1_555 1_555
C15C C14C 1_555 1_555
H9C C15C 1_555 1_555
C16C C11C 1_555 1_555
H10C C16C 1_555 1_555
C17C C9C 1_555 1_555
C18C C17C 1_555 1_555
H11C C18C 1_555 1_555
H12C C18C 1_555 1_555
C19C C18C 1_555 1_555
H13C C19C 1_555 1_555
H14C C19C 1_555 1_555
C20C C19C 1_555 1_555
H15C C20C 1_555 1_555
H16C C20C 1_555 1_555
H17C C20C 1_555 1_555
C21C C17C 1_555 1_555
H18C C21C 1_555 1_555
H19C C21C 1_555 1_555
C22C C21C 1_555 1_555
H20C C22C 1_555 1_555
H21C C22C 1_555 1_555
C23C C22C 1_555 1_555
H22C C23C 1_555 1_555
H23C C23C 1_555 1_555
H24C C23C 1_555 1_555
C24C S2C 1_555 1_555
C25C C24C 1_555 1_555
C26C C25C 1_555 1_555
C27C S3C 1_555 1_555
C28C C26C 1_555 1_555
H25C C28C 1_555 1_555
H26C C28C 1_555 1_555
C29C C28C 1_555 1_555
H27C C29C 1_555 1_555
H28C C29C 1_555 1_555
C30C C25C 1_555 1_555
H29C C30C 1_555 1_555
H30C C30C 1_555 1_555
C31C S3C 1_555 1_555
C32C C31C 1_555 1_555
H31C C32C 1_555 1_555
C33C C32C 1_555 1_555
H32C C33C 1_555 1_555
C34C C34 1_555 1_555
C35C C37 1_555 1_555
C36C C31C 1_555 1_555
H33C C36C 1_555 1_555
H34C C38 1_555 1_555
H35C C39 1_555 1_555
H36C C41 1_555 1_555
H37C C42 1_555 1_555
N1 C24 1_555 1_555
C9 C10 1_555 1_555
C12 C17 1_555 1_555
C13 C14 1_555 1_555
C15 C16 1_555 1_555
C26 C27 1_555 1_555
C29 C30 1_555 1_555
C35 C36 1_555 1_555
N1C C24C 1_555 1_555
N3C C1C 1_555 1_555
C1C C2C 1_555 1_555
C2C C3C 1_555 1_555
C9C C10C 1_555 1_555
C12C C17C 1_555 1_555
C13C C14C 1_555 1_555
C15C C16C 1_555 1_555
C26C C27C 1_555 1_555
C29C C30C 1_555 1_555
C33C C34C 1_555 1_555
C34C C35C 1_555 1_555
C35C C36C 1_555 1_555

#END
