
#######################################################################
#
#                 Cambridge Crystallographic Data Centre
#                                CCDC 
#
#######################################################################
#
# If this CIF has been generated from an entry in the Cambridge 
# Structural Database, then it will include bibliographic, chemical, 
# crystal, experimental, refinement or atomic coordinate data resulting 
# from the CCDC's data processing and validation procedures.
#
#######################################################################

data_ESIHIZ
_chemical_formula_moiety         '0.5(C8 H18 N2 2+),F6 P1 1-,C57 H54 N6 O12 S6'
_chemical_name_systematic        
'hemikis(1,4-dimethyl-1,4-diazoniabicyclo[2.2.2]octane) hexafluorophosphate hexaethyl 2,7,15,20,28,33-hexathia-40,41,44,45,48,49-hexaazadecacyclo[32.5.2.2^3,6^.2^8,14^.2^16,19^.2^21,27^.2^29,32^.0^9,13^.0^22,26^.0^35,39^]henpentaconta-1(39),3,5,8,13,16,18,21,26,29,31,34,40,42,44,46,48,50-octadecaene-4,17,30,42,46,50-hexacarboxylate unknown solvate'
_symmetry_cell_setting           monoclinic
_symmetry_space_group_name_H-M   'P 21/n'
_symmetry_Int_Tables_number      14
_space_group_name_Hall           '-P 2yn'
loop_
_symmetry_equiv_pos_site_id
_symmetry_equiv_pos_as_xyz
1 x,y,z
2 1/2-x,1/2+y,1/2-z
3 -x,-y,-z
4 1/2+x,1/2-y,1/2+z
_cell_length_a                   17.507(4)
_cell_length_b                   38.196(8)
_cell_length_c                   23.972(5)
_cell_angle_alpha                90
_cell_angle_beta                 107.78(3)
_cell_angle_gamma                90
_cell_volume                     15264.4
_exptl_crystal_colour            colorless
_exptl_crystal_description       block
_cell_formula_units_Z            8
loop_
_atom_site_label
_atom_site_type_symbol
_atom_site_fract_x
_atom_site_fract_y
_atom_site_fract_z
C1 C -0.4316(3) 0.14666(13) 1.0288(2)
C2 C -0.4630(3) 0.15276(13) 0.9682(2)
C3 C -0.5418(3) 0.16247(13) 0.9476(2)
C4 C -0.5837(3) 0.16757(12) 0.9875(2)
C5 C -0.4275(3) 0.14811(16) 0.9191(2)
H1 H -0.3886 0.1663 0.9197
H2 H -0.4018 0.1254 0.9212
C6 C -0.4990(5) 0.1509(3) 0.8655(3)
H3 H -0.4866 0.1662 0.8372
H4 H -0.5121 0.1280 0.8477
C7 C -0.5692(4) 0.16512(18) 0.8814(2)
H5 H -0.6169 0.1512 0.8643
H6 H -0.5801 0.1892 0.8686
C8 C -0.7087(3) 0.20632(12) 1.00823(19)
C9 C -0.7897(3) 0.20953(12) 1.0111(2)
C10 C -0.8037(3) 0.23250(12) 1.0511(2)
H7 H -0.8556 0.2344 1.0534
C11 C -0.7439(3) 0.25295(11) 1.0882(2)
C12 C -0.6663(3) 0.25145(12) 1.0820(2)
C13 C -0.6524(3) 0.22830(12) 1.04175(19)
H8 H -0.6013 0.2278 1.0374
C14 C -0.8575(3) 0.19048(13) 0.9696(2)
C15 C -0.9990(3) 0.18267(16) 0.9360(2)
H9 H -0.9958 0.1574 0.9388
H10 H -1.0047 0.1895 0.8960
C16 C -1.0689(4) 0.1962(2) 0.9549(4)
H11 H -1.1163 0.1830 0.9357
H12 H -1.0780 0.2205 0.9444
H13 H -1.0567 0.1938 0.9966
C17 C -0.6004(4) 0.27429(16) 1.1153(2)
C18 C -0.5287(6) 0.3010(3) 1.2059(4)
H14 H -0.5158 0.3185 1.1809
H15 H -0.4800 0.2884 1.2263
C19 C -0.5641(6) 0.3187(4) 1.2506(5)
H16 H -0.5991 0.3374 1.2317
H17 H -0.5213 0.3279 1.2825
H18 H -0.5938 0.3018 1.2652
C20 C -0.7493(3) 0.26451(12) 1.2021(2)
C21 C -0.7696(3) 0.28203(11) 1.2463(2)
C22 C -0.7516(3) 0.26639(12) 1.3001(2)
C23 C -0.7103(3) 0.23479(12) 1.30833(19)
C24 C -0.8137(3) 0.31648(13) 1.2455(2)
H19 H -0.8587 0.3188 1.2100
H20 H -0.7781 0.3364 1.2488
C25 C -0.8421(3) 0.31308(15) 1.2994(2)
H21 H -0.8962 0.3037 1.2886
H22 H -0.8419 0.3357 1.3177
C26 C -0.7829(3) 0.28796(15) 1.3414(2)
H23 H -0.7399 0.3007 1.3692
H24 H -0.8099 0.2734 1.3627
C27 C -0.5855(3) 0.20504(12) 1.39806(19)
C28 C -0.5507(3) 0.18233(13) 1.4461(2)
C29 C -0.4683(3) 0.17744(13) 1.4642(2)
H25 H -0.4459 0.1625 1.4955
C30 C -0.4182(3) 0.19368(13) 1.4379(2)
C31 C -0.4523(3) 0.21662(13) 1.3902(2)
C32 C -0.5346(3) 0.22168(12) 1.37226(19)
H26 H -0.5567 0.2370 1.3414
C33 C -0.5994(3) 0.16463(14) 1.4786(2)
C34 C -0.5993(4) 0.13092(16) 1.5617(3)
H27 H -0.6373 0.1132 1.5411
H28 H -0.6287 0.1492 1.5744
C35 C -0.5384(5) 0.1150(2) 1.6137(3)
H29 H -0.5107 0.0965 1.6008
H30 H -0.5650 0.1057 1.6401
H31 H -0.5007 0.1326 1.6334
C36 C -0.4078(3) 0.23616(16) 1.3571(3)
C37 C -0.3000(4) 0.2370(2) 1.3168(3)
H32 H -0.3017 0.2247 1.2810
H33 H -0.3202 0.2605 1.3066
C38 C -0.2260(7) 0.2383(3) 1.3515(5)
H34 H -0.2258 0.2373 1.3915
H35 H -0.2015 0.2597 1.3448
H36 H -0.1963 0.2188 1.3434
C39 C -0.2903(3) 0.15567(14) 1.4261(2)
C40 C -0.2097(3) 0.14777(15) 1.4346(2)
C41 C -0.1919(3) 0.12279(14) 1.3991(2)
C42 C -0.2568(3) 0.10647(13) 1.3581(2)
C43 C -0.1337(4) 0.1637(2) 1.4766(3)
H37 H -0.1354 0.1891 1.4754
H38 H -0.1254 0.1559 1.5166
C44 C -0.0690(5) 0.1495(3) 1.4521(6)
H39 H -0.0525 0.1675 1.4296
H40 H -0.0224 0.1423 1.4839
C45 C -0.1031(3) 0.1185(2) 1.4133(3)
H41 H -0.0870 0.1190 1.3780
H42 H -0.0854 0.0966 1.4338
C46 C -0.2689(3) 0.08869(12) 1.2425(2)
C47 C -0.2632(3) 0.06888(12) 1.1948(2)
C48 C -0.2875(3) 0.08299(14) 1.1389(2)
H43 H -0.2845 0.0692 1.1076
C49 C -0.3164(3) 0.11727(15) 1.1277(2)
C50 C -0.3236(3) 0.13730(13) 1.1751(2)
C51 C -0.3007(3) 0.12272(13) 1.2304(2)
H44 H -0.3066 0.1360 1.2613
C52 C -0.2278(3) 0.03274(14) 1.1982(2)
C53 C -0.1579(4) -0.01319(15) 1.2592(3)
H45 H -0.1969 -0.0320 1.2477
H46 H -0.1218 -0.0146 1.2356
C54 C -0.1142(6) -0.0155(3) 1.3204(4)
H47 H -0.0863 -0.0374 1.3282
H48 H -0.1509 -0.0139 1.3430
H49 H -0.0763 0.0034 1.3310
C55 C -0.3516(3) 0.17457(14) 1.1708(2)
C56 C -0.3466(6) 0.2307(2) 1.1294(4)
H50 H -0.3622 0.2380 1.1631
H51 H -0.3004 0.2446 1.1288
C57 C -0.4062(12) 0.2376(4) 1.0814(7)
H52 H -0.4183 0.2621 1.0798
H53 H -0.4527 0.2244 1.0819
H54 H -0.3908 0.2311 1.0476
N1 N -0.4731(2) 0.15207(12) 1.06588(18)
N2 N -0.5507(2) 0.16248(11) 1.04484(18)
N3 N -0.7117(3) 0.23325(11) 1.21103(17)
N4 N -0.6922(3) 0.21880(11) 1.26449(18)
N5 N -0.3495(2) 0.13946(11) 1.38656(18)
N6 N -0.3329(2) 0.11422(11) 1.35249(18)
O1 O -0.9272(2) 0.19898(10) 0.97693(17)
O2 O -0.8504(2) 0.16971(11) 0.93306(17)
O3 O -0.5906(4) 0.27594(18) 1.1698(2)
O4 O -0.5523(5) 0.2865(2) 1.0954(3)
O5 O -0.5571(2) 0.14541(10) 1.52332(16)
O6 O -0.6716(3) 0.16865(12) 1.46675(17)
O7 O -0.3502(3) 0.21884(13) 1.3460(2)
O8 O -0.4228(3) 0.26568(14) 1.3409(3)
O9 O -0.3228(2) 0.19371(11) 1.1366(2)
O10 O -0.3931(2) 0.18571(9) 1.19935(18)
O11 O -0.1985(2) 0.02124(10) 1.25188(18)
O12 O -0.2258(3) 0.01663(11) 1.15513(19)
S1 S -0.33155(8) 0.13181(4) 1.05442(6)
S2 S -0.68863(8) 0.17523(4) 0.95946(6)
S3 S -0.77364(9) 0.28438(3) 1.13230(6)
S4 S -0.69021(8) 0.21249(4) 1.37634(5)
S5 S -0.31249(8) 0.18929(4) 1.46929(6)
S6 S -0.23633(8) 0.07198(3) 1.31499(6)
C58 C 0.2108(3) 0.12367(13) 1.3458(2)
C59 C 0.1739(3) 0.10498(16) 1.3819(2)
C60 C 0.2204(3) 0.07963(17) 1.4180(2)
C61 C 0.3002(3) 0.07541(13) 1.4182(2)
C62 C 0.0923(3) 0.1068(2) 1.3875(3)
H55 H 0.0521 0.1081 1.3494
H56 H 0.0866 0.1269 1.4107
C63 C 0.0858(4) 0.0716(3) 1.4192(4)
H57 H 0.0557 0.0750 1.4468
H58 H 0.0593 0.0539 1.3911
C64 C 0.1729(4) 0.0610(2) 1.4515(3)
H59 H 0.1887 0.0686 1.4920
H60 H 0.1798 0.0358 1.4502
C65 C 0.4466(3) 0.03892(13) 1.4494(2)
C66 C 0.5157(3) 0.05787(13) 1.4807(2)
H61 H 0.5117 0.0751 1.5070
C67 C 0.5906(3) 0.05097(13) 1.4725(2)
C68 C 0.5975(3) 0.02476(13) 1.43360(19)
C69 C 0.5278(3) 0.00560(12) 1.4042(2)
H62 H 0.5316 -0.0122 1.3787
C70 C 0.4544(3) 0.01239(13) 1.4120(2)
C71 C 0.6632(3) 0.06966(16) 1.5099(2)
C72 C 0.7136(5) 0.1153(3) 1.5768(3)
H63 H 0.7617 0.1016 1.5807
H64 H 0.7216 0.1383 1.5626
C73 C 0.7022(9) 0.1184(3) 1.6300(4)
H65 H 0.7440 0.1326 1.6549
H66 H 0.7034 0.0956 1.6471
H67 H 0.6512 0.1291 1.6256
C74 C 0.3857(3) -0.01006(14) 1.3770(2)
C75 C 0.2544(4) -0.01057(18) 1.3092(4)
H68 H 0.2494 -0.0067 1.2683
H69 H 0.2619 -0.0355 1.3169
C76 C 0.1838(7) 0.0002(5) 1.3199(8)
H70 H 0.1877 0.0245 1.3303
H71 H 0.1759 -0.0133 1.3515
H72 H 0.1391 -0.0033 1.2853
C77 C 0.6562(3) -0.00265(14) 1.3497(2)
C78 C 0.6845(3) -0.03570(14) 1.3389(2)
C79 C 0.6631(3) -0.04692(13) 1.2820(2)
C80 C 0.6176(3) -0.02489(13) 1.2386(2)
C81 C 0.7335(4) -0.06246(16) 1.3811(3)
H73 H 0.7044 -0.0713 1.4067
H74 H 0.7841 -0.0526 1.4048
C82 C 0.7469(6) -0.0914(2) 1.3403(3)
H75 H 0.8029 -0.0921 1.3419
H76 H 0.7328 -0.1140 1.3528
C83 C 0.6949(4) -0.08383(15) 1.2784(3)
H77 H 0.6513 -0.1005 1.2658
H78 H 0.7262 -0.0846 1.2513
C84 C 0.5418(3) -0.00407(12) 1.12412(19)
C85 C 0.5740(3) 0.01063(13) 1.08343(19)
H79 H 0.6245 0.0033 1.0832
C86 C 0.5344(3) 0.03570(12) 1.04306(19)
C87 C 0.4591(3) 0.04749(11) 1.04407(19)
C88 C 0.4292(3) 0.03489(12) 1.0880(2)
H80 H 0.3815 0.0441 1.0911
C89 C 0.4684(3) 0.00914(12) 1.1270(2)
C90 C 0.4278(3) -0.00113(13) 1.1716(2)
C91 C 0.3995(4) -0.04770(15) 1.2273(3)
H81 H 0.3420 -0.0438 1.2148
H82 H 0.4229 -0.0351 1.2636
C92 C 0.4174(5) -0.0859(2) 1.2360(3)
H83 H 0.3901 -0.0983 1.2008
H84 H 0.3995 -0.0943 1.2676
H85 H 0.4742 -0.0896 1.2453
C93 C 0.5712(3) 0.04898(12) 0.9989(2)
C94 C 0.6890(3) 0.04784(16) 0.9692(2)
H86 H 0.7029 0.0723 0.9765
H87 H 0.6567 0.0452 0.9286
C95 C 0.7624(5) 0.0260(2) 0.9820(4)
H88 H 0.7972 0.0353 0.9615
H89 H 0.7479 0.0024 0.9694
H90 H 0.7895 0.0262 1.0234
C96 C 0.3119(3) 0.08389(12) 1.0052(2)
C97 C 0.2398(3) 0.07781(12) 0.9602(2)
C98 C 0.1701(3) 0.08636(12) 0.9709(2)
C99 C 0.1750(3) 0.10024(12) 1.0264(2)
C100 C 0.2243(3) 0.06387(16) 0.9001(2)
H91 H 0.2557 0.0429 0.9002
H92 H 0.2368 0.0812 0.8746
C101 C 0.1347(3) 0.05560(19) 0.8807(3)
H93 H 0.1258 0.0312 0.8878
H94 H 0.1109 0.0605 0.8393
C102 C 0.0981(3) 0.07943(17) 0.9178(2)
H95 H 0.0772 0.1009 0.8972
H96 H 0.0556 0.0676 0.9285
C103 C 0.1131(3) 0.12242(13) 1.11343(19)
C104 C 0.0987(3) 0.15676(12) 1.1260(2)
H97 H 0.0802 0.1725 1.0953
C105 C 0.1110(3) 0.16860(11) 1.1833(2)
C106 C 0.1419(3) 0.14536(11) 1.23058(19)
C107 C 0.1577(3) 0.11089(12) 1.2172(2)
H98 H 0.1797 0.0953 1.2477
C108 C 0.1417(2) 0.09922(12) 1.1599(2)
C109 C 0.0872(3) 0.20508(12) 1.1932(2)
C110 C 0.0200(3) 0.25646(13) 1.1482(3)
H99 H 0.0608 0.2729 1.1696
H100 H -0.0197 0.2540 1.1686
C111 C -0.0182(5) 0.2690(2) 1.0872(3)
H101 H 0.0212 0.2699 1.0668
H102 H -0.0402 0.2919 1.0881
H103 H -0.0603 0.2531 1.0672
C112 C 0.1572(3) 0.06128(13) 1.1541(3)
C113 C 0.1040(6) 0.0069(3) 1.1101(4)
H104 H 0.1577 -0.0014 1.1138
H105 H 0.0857 -0.0041 1.1403
C114 C 0.0502(6) -0.0006(3) 1.0530(4)
H106 H 0.0480 -0.0254 1.0464
H107 H 0.0690 0.0108 1.0239
H108 H -0.0024 0.0080 1.0503
N7 N 0.2845(2) 0.11751(11) 1.34567(18)
N8 N 0.3313(2) 0.09340(10) 1.38291(17)
N9 N 0.6105(2) 0.01741(11) 1.30622(19)
N10 N 0.5900(2) 0.00607(11) 1.25026(17)
N11 N 0.3135(2) 0.09710(12) 1.05706(19)
N12 N 0.2443(2) 0.10520(12) 1.06728(18)
O13 O 0.6461(2) 0.09852(11) 1.53447(18)
O14 O 0.7295(3) 0.05849(15) 1.5176(2)
O15 O 0.3250(2) 0.00828(10) 1.3458(2)
O16 O 0.3902(3) -0.04130(10) 1.3772(2)
O17 O 0.4338(2) -0.03550(9) 1.18253(14)
O18 O 0.3930(2) 0.01888(9) 1.19350(17)
O19 O 0.6456(2) 0.03564(10) 1.00772(15)
O20 O 0.5398(2) 0.06940(10) 0.96038(15)
O21 O 0.0559(2) 0.22261(8) 1.14312(15)
O22 O 0.0934(2) 0.21704(9) 1.24080(16)
O23 O 0.1025(3) 0.04548(12) 1.1148(3)
O24 O 0.2111(4) 0.04646(14) 1.1889(4)
S7 S 0.15723(8) 0.15947(3) 1.30298(5)
S8 S 0.35754(8) 0.04495(4) 1.46914(6)
S9 S 0.68955(8) 0.01631(4) 1.42061(6)
S10 S 0.59630(8) -0.03937(3) 1.16575(5)
S11 S 0.40412(7) 0.07759(3) 0.98951(5)
S12 S 0.08345(8) 0.11080(4) 1.03816(5)
C115 C 0.4676(3) 0.06941(14) 1.3144(2)
H109 H 0.4483 0.0479 1.2945
H110 H 0.4426 0.0733 1.3443
H111 H 0.5247 0.0681 1.3319
C116 C 0.4985(3) 0.09657(11) 1.23110(19)
H112 H 0.4975 0.0729 1.2163
H113 H 0.5536 0.1026 1.2520
C117 C 0.4647(3) 0.12205(11) 1.18015(19)
H114 H 0.5082 0.1332 1.1697
H115 H 0.4315 0.1095 1.1462
C118 C 0.4634(3) 0.13348(12) 1.30410(19)
H116 H 0.5153 0.1330 1.3339
H117 H 0.4226 0.1377 1.3230
C119 C 0.4614(3) 0.16231(12) 1.2595(2)
H118 H 0.4362 0.1831 1.2691
H119 H 0.5157 0.1683 1.2606
C120 C 0.3603(3) 0.09815(12) 1.2350(2)
H120 H 0.3511 0.0791 1.2070
H121 H 0.3267 0.0944 1.2600
C121 C 0.3389(3) 0.13251(12) 1.20308(19)
H122 H 0.3125 0.1477 1.2239
H123 H 0.3025 0.1285 1.1640
C122 C 0.3952(4) 0.17876(14) 1.1566(2)
H124 H 0.4437 0.1906 1.1567
H125 H 0.3602 0.1949 1.1674
H126 H 0.3691 0.1697 1.1182
N13 N 0.4478(2) 0.09885(10) 1.27166(16)
N14 N 0.4150(2) 0.14956(9) 1.19934(16)
F1 F 0.7622(8) 0.2872(3) 1.2167(6)
F2 F 0.7948(9) 0.3201(3) 1.1494(4)
F3 F 0.9220(7) 0.3138(2) 1.1960(7)
F4 F 0.8886(12) 0.2815(3) 1.2624(5)
F5 F 0.8422(3) 0.26675(13) 1.1692(3)
F6 F 0.8394(3) 0.33451(10) 1.2444(2)
P1 P 0.84106(10) 0.30082(4) 1.20622(7)
F11 F 0.7936(4) 0.06411(16) 0.8575(4)
F12 F 0.7731(6) 0.1196(2) 0.8733(4)
F13 F 0.7783(4) 0.10204(15) 0.7860(2)
F14 F 0.8993(5) 0.0799(3) 0.8313(4)
F15 F 0.8920(4) 0.0960(2) 0.9156(3)
F16 F 0.8700(7) 0.1353(3) 0.8440(4)
P2 P 0.83373(14) 0.09950(6) 0.85148(12)
F7? F 0.7502(8) 0.3085(5) 1.1722(12)
F8? F 0.8701(14) 0.3227(6) 1.1658(8)
F9? F 0.9285(10) 0.2926(6) 1.2450(9)
F10? F 0.816(2) 0.2774(6) 1.2528(14)
loop_
_geom_bond_atom_site_label_1
_geom_bond_atom_site_label_2
_geom_bond_site_symmetry_1
_geom_bond_site_symmetry_2
C1 C2 1_555 1_555
C2 C3 1_555 1_555
C3 C4 1_555 1_555
C4 N2 1_555 1_555
C5 C2 1_555 1_555
H1 C5 1_555 1_555
H2 C5 1_555 1_555
C6 C5 1_555 1_555
H3 C6 1_555 1_555
H4 C6 1_555 1_555
C7 C3 1_555 1_555
H5 C7 1_555 1_555
H6 C7 1_555 1_555
C8 C9 1_555 1_555
C9 C10 1_555 1_555
C10 H7 1_555 1_555
C11 C10 1_555 1_555
C12 C11 1_555 1_555
C13 C8 1_555 1_555
H8 C13 1_555 1_555
C14 C9 1_555 1_555
C15 H9 1_555 1_555
H10 C15 1_555 1_555
C16 C15 1_555 1_555
H11 C16 1_555 1_555
H12 C16 1_555 1_555
H13 C16 1_555 1_555
C17 C12 1_555 1_555
C18 H14 1_555 1_555
H15 C18 1_555 1_555
C19 C18 1_555 1_555
H16 C19 1_555 1_555
H17 C19 1_555 1_555
H18 C19 1_555 1_555
C20 C21 1_555 1_555
C21 C22 1_555 1_555
C22 C23 1_555 1_555
C23 N4 1_555 1_555
C24 C21 1_555 1_555
H19 C24 1_555 1_555
H20 C24 1_555 1_555
C25 C24 1_555 1_555
H21 C25 1_555 1_555
H22 C25 1_555 1_555
C26 C22 1_555 1_555
H23 C26 1_555 1_555
H24 C26 1_555 1_555
C27 C28 1_555 1_555
C28 C29 1_555 1_555
C29 H25 1_555 1_555
C30 C29 1_555 1_555
C31 C30 1_555 1_555
C32 C27 1_555 1_555
H26 C32 1_555 1_555
C33 C28 1_555 1_555
C34 H27 1_555 1_555
H28 C34 1_555 1_555
C35 C34 1_555 1_555
H29 C35 1_555 1_555
H30 C35 1_555 1_555
H31 C35 1_555 1_555
C36 C31 1_555 1_555
C37 H32 1_555 1_555
H33 C37 1_555 1_555
C38 C37 1_555 1_555
H34 C38 1_555 1_555
H35 C38 1_555 1_555
H36 C38 1_555 1_555
C39 C40 1_555 1_555
C40 C41 1_555 1_555
C41 C42 1_555 1_555
C42 N6 1_555 1_555
C43 C40 1_555 1_555
H37 C43 1_555 1_555
H38 C43 1_555 1_555
C44 C43 1_555 1_555
H39 C44 1_555 1_555
H40 C44 1_555 1_555
C45 C41 1_555 1_555
H41 C45 1_555 1_555
H42 C45 1_555 1_555
C46 C47 1_555 1_555
C47 C48 1_555 1_555
C48 H43 1_555 1_555
C49 C48 1_555 1_555
C50 C49 1_555 1_555
C51 C46 1_555 1_555
H44 C51 1_555 1_555
C52 C47 1_555 1_555
C53 H45 1_555 1_555
H46 C53 1_555 1_555
C54 C53 1_555 1_555
H47 C54 1_555 1_555
H48 C54 1_555 1_555
H49 C54 1_555 1_555
C55 C50 1_555 1_555
C56 H50 1_555 1_555
H51 C56 1_555 1_555
C57 C56 1_555 1_555
H52 C57 1_555 1_555
H53 C57 1_555 1_555
H54 C57 1_555 1_555
N1 C1 1_555 1_555
N2 N1 1_555 1_555
N3 C20 1_555 1_555
N4 N3 1_555 1_555
N5 C39 1_555 1_555
N6 N5 1_555 1_555
O1 C14 1_555 1_555
O2 C14 1_555 1_555
O3 C17 1_555 1_555
O4 C17 1_555 1_555
O5 C33 1_555 1_555
O6 C33 1_555 1_555
O7 C36 1_555 1_555
O8 C36 1_555 1_555
O9 C55 1_555 1_555
O10 C55 1_555 1_555
O11 C52 1_555 1_555
O12 C52 1_555 1_555
S1 C1 1_555 1_555
S2 C4 1_555 1_555
S3 C11 1_555 1_555
S4 C23 1_555 1_555
S5 C30 1_555 1_555
S6 C42 1_555 1_555
C58 C59 1_555 1_555
C59 C60 1_555 1_555
C60 C61 1_555 1_555
C61 N8 1_555 1_555
C62 C59 1_555 1_555
H55 C62 1_555 1_555
H56 C62 1_555 1_555
C63 C62 1_555 1_555
H57 C63 1_555 1_555
H58 C63 1_555 1_555
C64 C60 1_555 1_555
H59 C64 1_555 1_555
H60 C64 1_555 1_555
C65 C66 1_555 1_555
C66 H61 1_555 1_555
C67 C66 1_555 1_555
C68 C67 1_555 1_555
C69 C68 1_555 1_555
H62 C69 1_555 1_555
C70 C65 1_555 1_555
C71 C67 1_555 1_555
C72 H63 1_555 1_555
H64 C72 1_555 1_555
C73 C72 1_555 1_555
H65 C73 1_555 1_555
H66 C73 1_555 1_555
H67 C73 1_555 1_555
C74 C70 1_555 1_555
C75 H68 1_555 1_555
H69 C75 1_555 1_555
C76 C75 1_555 1_555
H70 C76 1_555 1_555
H71 C76 1_555 1_555
H72 C76 1_555 1_555
C77 C78 1_555 1_555
C78 C79 1_555 1_555
C79 C80 1_555 1_555
C80 N10 1_555 1_555
C81 C78 1_555 1_555
H73 C81 1_555 1_555
H74 C81 1_555 1_555
C82 C81 1_555 1_555
H75 C82 1_555 1_555
H76 C82 1_555 1_555
C83 C79 1_555 1_555
H77 C83 1_555 1_555
H78 C83 1_555 1_555
C84 C85 1_555 1_555
C85 H79 1_555 1_555
C86 C85 1_555 1_555
C87 C86 1_555 1_555
C88 C87 1_555 1_555
H80 C88 1_555 1_555
C89 C84 1_555 1_555
C90 C89 1_555 1_555
C91 H81 1_555 1_555
H82 C91 1_555 1_555
C92 C91 1_555 1_555
H83 C92 1_555 1_555
H84 C92 1_555 1_555
H85 C92 1_555 1_555
C93 C86 1_555 1_555
C94 H86 1_555 1_555
H87 C94 1_555 1_555
C95 C94 1_555 1_555
H88 C95 1_555 1_555
H89 C95 1_555 1_555
H90 C95 1_555 1_555
C96 C97 1_555 1_555
C97 C98 1_555 1_555
C98 C99 1_555 1_555
C99 N12 1_555 1_555
C100 C97 1_555 1_555
H91 C100 1_555 1_555
H92 C100 1_555 1_555
C101 C100 1_555 1_555
H93 C101 1_555 1_555
H94 C101 1_555 1_555
C102 C98 1_555 1_555
H95 C102 1_555 1_555
H96 C102 1_555 1_555
C103 C104 1_555 1_555
C104 H97 1_555 1_555
C105 C104 1_555 1_555
C106 C105 1_555 1_555
C107 C106 1_555 1_555
H98 C107 1_555 1_555
C108 C103 1_555 1_555
C109 C105 1_555 1_555
C110 H99 1_555 1_555
H100 C110 1_555 1_555
C111 C110 1_555 1_555
H101 C111 1_555 1_555
H102 C111 1_555 1_555
H103 C111 1_555 1_555
C112 C108 1_555 1_555
C113 H104 1_555 1_555
H105 C113 1_555 1_555
C114 C113 1_555 1_555
H106 C114 1_555 1_555
H107 C114 1_555 1_555
H108 C114 1_555 1_555
N7 C58 1_555 1_555
N8 N7 1_555 1_555
N9 C77 1_555 1_555
N10 N9 1_555 1_555
N11 C96 1_555 1_555
N12 N11 1_555 1_555
O13 C71 1_555 1_555
O14 C71 1_555 1_555
O15 C74 1_555 1_555
O16 C74 1_555 1_555
O17 C90 1_555 1_555
O18 C90 1_555 1_555
O19 C93 1_555 1_555
O20 C93 1_555 1_555
O21 C109 1_555 1_555
O22 C109 1_555 1_555
O23 C112 1_555 1_555
O24 C112 1_555 1_555
S7 C58 1_555 1_555
S8 C61 1_555 1_555
S9 C68 1_555 1_555
S10 C80 1_555 1_555
S11 C87 1_555 1_555
S12 C99 1_555 1_555
C115 H109 1_555 1_555
H110 C115 1_555 1_555
H111 C115 1_555 1_555
C116 H112 1_555 1_555
H113 C116 1_555 1_555
C117 C116 1_555 1_555
H114 C117 1_555 1_555
H115 C117 1_555 1_555
C118 H116 1_555 1_555
H117 C118 1_555 1_555
C119 C118 1_555 1_555
H118 C119 1_555 1_555
H119 C119 1_555 1_555
C120 H120 1_555 1_555
H121 C120 1_555 1_555
C121 C120 1_555 1_555
H122 C121 1_555 1_555
H123 C121 1_555 1_555
C122 H124 1_555 1_555
H125 C122 1_555 1_555
H126 C122 1_555 1_555
N13 C115 1_555 1_555
N14 C117 1_555 1_555
F1 P1 1_555 1_555
F2 P1 1_555 1_555
F3 P1 1_555 1_555
F4 P1 1_555 1_555
F5 P1 1_555 1_555
F6 P1 1_555 1_555
F11 P2 1_555 1_555
F12 P2 1_555 1_555
F13 P2 1_555 1_555
F14 P2 1_555 1_555
F15 P2 1_555 1_555
F16 P2 1_555 1_555
C6 C7 1_555 1_555
C8 S2 1_555 1_555
C12 C13 1_555 1_555
C15 O1 1_555 1_555
C18 O3 1_555 1_555
C20 S3 1_555 1_555
C25 C26 1_555 1_555
C27 S4 1_555 1_555
C31 C32 1_555 1_555
C34 O5 1_555 1_555
C37 O7 1_555 1_555
C39 S5 1_555 1_555
C44 C45 1_555 1_555
C46 S6 1_555 1_555
C49 S1 1_555 1_555
C50 C51 1_555 1_555
C53 O11 1_555 1_555
C56 O9 1_555 1_555
C63 C64 1_555 1_555
C65 S8 1_555 1_555
C69 C70 1_555 1_555
C72 O13 1_555 1_555
C75 O15 1_555 1_555
C77 S9 1_555 1_555
C82 C83 1_555 1_555
C84 S10 1_555 1_555
C88 C89 1_555 1_555
C91 O17 1_555 1_555
C94 O19 1_555 1_555
C96 S11 1_555 1_555
C101 C102 1_555 1_555
C103 S12 1_555 1_555
C106 S7 1_555 1_555
C107 C108 1_555 1_555
C110 O21 1_555 1_555
C113 O23 1_555 1_555
C116 N13 1_555 1_555
C118 N13 1_555 1_555
C119 N14 1_555 1_555
C120 N13 1_555 1_555
C121 N14 1_555 1_555
C122 N14 1_555 1_555

#END
