
#######################################################################
#
#                 Cambridge Crystallographic Data Centre
#                                CCDC 
#
#######################################################################
#
# If this CIF has been generated from an entry in the Cambridge 
# Structural Database, then it will include bibliographic, chemical, 
# crystal, experimental, refinement or atomic coordinate data resulting 
# from the CCDC's data processing and validation procedures.
#
#######################################################################

data_ESIKEY
_chemical_formula_moiety         'C20 H26 N2 2+,2(Br1 1-),C1 H4 O1,H2 O1'
_chemical_name_systematic        
'1,4-dibenzyl-1,4-diazoniabicyclo[2.2.2]octane dibromide methanol solvate monohydrate'
_symmetry_cell_setting           orthorhombic
_symmetry_space_group_name_H-M   'P b c a'
_symmetry_Int_Tables_number      61
_space_group_name_Hall           '-P 2ac 2ab'
loop_
_symmetry_equiv_pos_site_id
_symmetry_equiv_pos_as_xyz
1 x,y,z
2 1/2-x,-y,1/2+z
3 1/2+x,1/2-y,-z
4 -x,1/2+y,1/2-z
5 -x,-y,-z
6 1/2+x,y,1/2-z
7 1/2-x,1/2+y,z
8 x,1/2-y,1/2+z
_cell_length_a                   16.4159(2)
_cell_length_b                   12.54563(16)
_cell_length_c                   21.6461(4)
_cell_angle_alpha                90
_cell_angle_beta                 90
_cell_angle_gamma                90
_cell_volume                     4457.97
_exptl_crystal_colour            colorless
_exptl_crystal_description       plate
_cell_formula_units_Z            8
loop_
_atom_site_label
_atom_site_type_symbol
_atom_site_fract_x
_atom_site_fract_y
_atom_site_fract_z
Br1 Br 0.38343(2) 0.11508(2) 0.52930(2)
Br2 Br 0.83696(2) 0.06905(2) 0.60001(2)
O1 O 0.38636(11) 0.17272(16) 0.37734(10)
H1 H 0.3734(17) 0.2362(16) 0.3800(15)
H2 H 0.3857(17) 0.149(3) 0.4159(15)
O2 O 0.89943(10) 0.05765(14) 0.45217(9)
C1 C 0.85207(17) 0.0999(2) 0.40337(14)
H3 H 0.8766 0.0802 0.3637
H4 H 0.8501 0.1778 0.4069
H5 H 0.7967 0.0711 0.4057
H6 H 0.867(2) 0.081(3) 0.4821(19)
N1 N 0.60071(9) 0.26274(13) 0.44914(8)
C2 C 0.60422(12) 0.14759(16) 0.46765(9)
H7 H 0.6503 0.1123 0.4464
H8 H 0.5533 0.1114 0.4550
N2 N 0.62995(9) 0.24662(13) 0.56433(7)
C3 C 0.61508(12) 0.13792(16) 0.53764(9)
H9 H 0.5656 0.1064 0.5563
H10 H 0.6618 0.0907 0.5470
C4 C 0.70160(11) 0.29653(17) 0.53167(9)
H11 H 0.7495 0.2490 0.5349
H12 H 0.7154 0.3653 0.5515
C5 C 0.68077(11) 0.31495(17) 0.46403(9)
H13 H 0.6773 0.3924 0.4557
H14 H 0.7242 0.2847 0.4375
C6 C 0.55529(11) 0.31414(16) 0.55426(10)
H15 H 0.5655 0.3875 0.5692
H16 H 0.5090 0.2844 0.5780
C7 C 0.65233(12) 0.24185(17) 0.63262(9)
H17 H 0.7052 0.2046 0.6367
H18 H 0.6599 0.3156 0.6479
C8 C 0.64182(14) 0.12288(18) 0.32017(10)
H19 H 0.6021 0.0763 0.3372
C9 C 0.69809(15) 0.08421(19) 0.27771(10)
H20 H 0.6969 0.0113 0.2659
C10 C 0.59129(11) 0.18705(17) 0.67297(9)
C11 C 0.70202(12) 0.29617(19) 0.31240(10)
H21 H 0.7038 0.3691 0.3242
C12 C 0.59660(13) 0.07804(18) 0.68355(10)
H22 H 0.6369 0.0373 0.6628
C13 C 0.54350(14) 0.0283(2) 0.72418(11)
H23 H 0.5471 -0.0465 0.7307
C14 C 0.53427(11) 0.31647(17) 0.48571(9)
H24 H 0.4819 0.2793 0.4787
H25 H 0.5282 0.3912 0.4718
C15 C 0.58028(12) 0.27457(17) 0.38089(9)
H26 H 0.5275 0.2389 0.3728
H27 H 0.5734 0.3513 0.3715
C16 C 0.64331(12) 0.22893(17) 0.33780(9)
C17 C 0.53194(12) 0.24546(19) 0.70412(10)
H28 H 0.5274 0.3200 0.6971
C18 C 0.75765(13) 0.2570(2) 0.27013(10)
H29 H 0.7975 0.3033 0.2530
C19 C 0.47966(13) 0.1960(2) 0.74513(10)
H30 H 0.4397 0.2366 0.7664
C20 C 0.48536(14) 0.0874(2) 0.75519(11)
H31 H 0.4494 0.0535 0.7834
C21 C 0.75578(14) 0.1519(2) 0.25271(11)
H32 H 0.7941 0.1256 0.2235
loop_
_geom_bond_atom_site_label_1
_geom_bond_atom_site_label_2
_geom_bond_site_symmetry_1
_geom_bond_site_symmetry_2
O1 H1 1_555 1_555
H2 O1 1_555 1_555
O2 C1 1_555 1_555
C1 H3 1_555 1_555
H4 C1 1_555 1_555
H5 C1 1_555 1_555
H6 O2 1_555 1_555
N1 C2 1_555 1_555
C2 H7 1_555 1_555
H8 C2 1_555 1_555
N2 C3 1_555 1_555
C3 C2 1_555 1_555
H9 C3 1_555 1_555
H10 C3 1_555 1_555
C4 N2 1_555 1_555
H11 C4 1_555 1_555
H12 C4 1_555 1_555
C5 N1 1_555 1_555
H13 C5 1_555 1_555
H14 C5 1_555 1_555
C6 N2 1_555 1_555
H15 C6 1_555 1_555
H16 C6 1_555 1_555
C7 N2 1_555 1_555
H17 C7 1_555 1_555
H18 C7 1_555 1_555
C8 H19 1_555 1_555
C9 C8 1_555 1_555
H20 C9 1_555 1_555
C10 C7 1_555 1_555
C11 H21 1_555 1_555
C12 C10 1_555 1_555
H22 C12 1_555 1_555
C13 C12 1_555 1_555
H23 C13 1_555 1_555
C14 N1 1_555 1_555
H24 C14 1_555 1_555
H25 C14 1_555 1_555
C15 N1 1_555 1_555
H26 C15 1_555 1_555
H27 C15 1_555 1_555
C16 C8 1_555 1_555
C17 C10 1_555 1_555
H28 C17 1_555 1_555
C18 C11 1_555 1_555
H29 C18 1_555 1_555
C19 C17 1_555 1_555
H30 C19 1_555 1_555
C20 C13 1_555 1_555
H31 C20 1_555 1_555
C21 C9 1_555 1_555
H32 C21 1_555 1_555
C4 C5 1_555 1_555
C6 C14 1_555 1_555
C11 C16 1_555 1_555
C15 C16 1_555 1_555
C18 C21 1_555 1_555
C19 C20 1_555 1_555

#END
