
#######################################################################
#
#                 Cambridge Crystallographic Data Centre
#                                CCDC 
#
#######################################################################
#
# If this CIF has been generated from an entry in the Cambridge 
# Structural Database, then it will include bibliographic, chemical, 
# crystal, experimental, refinement or atomic coordinate data resulting 
# from the CCDC's data processing and validation procedures.
#
#######################################################################

data_ESIKOI
_chemical_formula_moiety         'C15 H17 F6 N2 1+,Br1 1-'
_chemical_name_systematic        
'1-(3,5-bis(trifluoromethyl)benzyl)-4-aza-1-azoniabicyclo[2.2.2]octane bromide'
_symmetry_cell_setting           orthorhombic
_symmetry_space_group_name_H-M   'P b c a'
_symmetry_Int_Tables_number      61
_space_group_name_Hall           '-P 2ac 2ab'
loop_
_symmetry_equiv_pos_site_id
_symmetry_equiv_pos_as_xyz
1 x,y,z
2 1/2-x,-y,1/2+z
3 1/2+x,1/2-y,-z
4 -x,1/2+y,1/2-z
5 -x,-y,-z
6 1/2+x,y,1/2-z
7 1/2-x,1/2+y,z
8 x,1/2-y,1/2+z
_cell_length_a                   15.1941(4)
_cell_length_b                   10.9469(3)
_cell_length_c                   20.3260(5)
_cell_angle_alpha                90
_cell_angle_beta                 90
_cell_angle_gamma                90
_cell_volume                     3380.79
_exptl_crystal_colour            colorless
_exptl_crystal_description       plate
_cell_formula_units_Z            8
loop_
_atom_site_label
_atom_site_type_symbol
_atom_site_fract_x
_atom_site_fract_y
_atom_site_fract_z
Br1 Br 0.35076(3) 0.10702(3) 0.25088(2)
F1 F 0.19440(15) 0.2329(2) 0.12562(12)
F2 F 0.2196(2) 0.3063(3) 0.02937(13)
F3 F 0.27907(19) 0.1380(3) 0.05847(13)
F4 F 0.60218(19) 0.4970(2) 0.04811(14)
F5 F 0.56159(19) 0.3435(3) -0.00632(13)
F6 F 0.63230(16) 0.3215(3) 0.08421(13)
N1 N 0.4049(2) 0.4767(3) 0.30821(14)
N2 N 0.4268(2) 0.3851(3) 0.42374(15)
C1 C 0.4821(3) 0.3908(4) 0.30849(17)
H1 H 0.5349 0.4323 0.2907
H2 H 0.4694 0.3187 0.2806
C2 C 0.4989(3) 0.3504(4) 0.37996(19)
H3 H 0.5065 0.2606 0.3812
H4 H 0.5542 0.3881 0.3959
C3 C 0.3445(3) 0.3406(5) 0.3940(2)
H5 H 0.2953 0.3540 0.4251
H6 H 0.3494 0.2516 0.3860
C4 C 0.3239(3) 0.4062(4) 0.32844(18)
H7 H 0.3085 0.3456 0.2942
H8 H 0.2735 0.4625 0.3342
C5 C 0.4212(3) 0.5760(4) 0.35797(18)
H9 H 0.3740 0.6382 0.3553
H10 H 0.4781 0.6166 0.3488
C6 C 0.4228(4) 0.5184(4) 0.4275(2)
H11 H 0.4746 0.5492 0.4520
H12 H 0.3692 0.5431 0.4519
C7 C 0.3925(3) 0.5403(3) 0.24225(17)
H13 H 0.3339 0.5801 0.2420
H14 H 0.4373 0.6055 0.2383
C8 C 0.3990(3) 0.4587(3) 0.18279(17)
C9 C 0.3272(3) 0.3925(4) 0.16049(17)
H15 H 0.2726 0.3973 0.1831
C10 C 0.3350(3) 0.3191(4) 0.10506(17)
C11 C 0.4133(3) 0.3145(4) 0.07028(17)
H16 H 0.4181 0.2648 0.0321
C12 C 0.4844(3) 0.3828(3) 0.09158(17)
C13 C 0.4776(3) 0.4539(4) 0.14807(17)
H17 H 0.5270 0.4994 0.1630
C14 C 0.2575(3) 0.2487(4) 0.08038(19)
C15 C 0.5688(3) 0.3847(4) 0.05408(18)
loop_
_geom_bond_atom_site_label_1
_geom_bond_atom_site_label_2
_geom_bond_site_symmetry_1
_geom_bond_site_symmetry_2
F1 C14 1_555 1_555
F2 C14 1_555 1_555
F3 C14 1_555 1_555
F4 C15 1_555 1_555
F5 C15 1_555 1_555
F6 C15 1_555 1_555
N1 C1 1_555 1_555
N2 C2 1_555 1_555
C1 H1 1_555 1_555
H2 C1 1_555 1_555
C2 C1 1_555 1_555
H3 C2 1_555 1_555
H4 C2 1_555 1_555
C3 N2 1_555 1_555
H5 C3 1_555 1_555
H6 C3 1_555 1_555
C4 N1 1_555 1_555
H7 C4 1_555 1_555
H8 C4 1_555 1_555
C5 N1 1_555 1_555
H9 C5 1_555 1_555
H10 C5 1_555 1_555
C6 N2 1_555 1_555
H11 C6 1_555 1_555
H12 C6 1_555 1_555
C7 N1 1_555 1_555
H13 C7 1_555 1_555
H14 C7 1_555 1_555
C8 C7 1_555 1_555
C9 C8 1_555 1_555
H15 C9 1_555 1_555
C10 C9 1_555 1_555
C11 C10 1_555 1_555
H16 C11 1_555 1_555
C12 C11 1_555 1_555
C13 C8 1_555 1_555
H17 C13 1_555 1_555
C14 C10 1_555 1_555
C15 C12 1_555 1_555
C3 C4 1_555 1_555
C5 C6 1_555 1_555
C12 C13 1_555 1_555

#END
