
#######################################################################
#
#                 Cambridge Crystallographic Data Centre
#                                CCDC 
#
#######################################################################
#
# If this CIF has been generated from an entry in the Cambridge 
# Structural Database, then it will include bibliographic, chemical, 
# crystal, experimental, refinement or atomic coordinate data resulting 
# from the CCDC's data processing and validation procedures.
#
#######################################################################

data_ESIREF
_chemical_compound_source        'Flickingeria fimbriata (B1.) Hawkes'
_chemical_name_common            'Fimbriatol A monohydrate'
_chemical_formula_moiety         'C20 H32 O4,H2 O1'
_chemical_name_systematic        '16,17,18-trihydroxykauran-3-one monohydrate'
_symmetry_cell_setting           orthorhombic
_symmetry_space_group_name_H-M   'P 21 21 21'
_symmetry_Int_Tables_number      19
_space_group_name_Hall           'P 2ac 2ab'
loop_
_symmetry_equiv_pos_site_id
_symmetry_equiv_pos_as_xyz
1 x,y,z
2 1/2-x,-y,1/2+z
3 1/2+x,1/2-y,-z
4 -x,1/2+y,1/2-z
_cell_length_a                   6.083(3)
_cell_length_b                   11.417(3)
_cell_length_c                   26.629(8)
_cell_angle_alpha                90
_cell_angle_beta                 90
_cell_angle_gamma                90
_cell_volume                     1849.37
_exptl_crystal_colour            colorless
_exptl_crystal_description       Prism
_cell_formula_units_Z            4
loop_
_atom_site_label
_atom_site_type_symbol
_atom_site_fract_x
_atom_site_fract_y
_atom_site_fract_z
O1 O 0.3322(3) -0.15055(13) 0.37025(5)
O2 O 0.7639(2) -0.20618(9) 0.44353(4)
H1 H 0.7941 -0.2035 0.4735
O3 O 1.0175(4) 0.70321(14) 0.30353(5)
H2 H 1.0839 0.7361 0.3263
O4 O 1.0294(2) 0.62089(10) 0.40168(5)
H3 H 0.9461 0.6708 0.4130
C1 C 0.5879(3) 0.09160(15) 0.30967(6)
H4 H 0.4448 0.1290 0.3109
H5 H 0.6519 0.1081 0.2771
C2 C 0.5572(4) -0.04103(16) 0.31500(6)
H6 H 0.4529 -0.0675 0.2899
H7 H 0.6964 -0.0794 0.3083
C3 C 0.4766(3) -0.07793(14) 0.36611(6)
C4 C 0.5899(3) -0.02449(14) 0.41190(6)
C5 C 0.6362(3) 0.10856(13) 0.40215(5)
H8 H 0.4901 0.1446 0.4024
C6 C 0.7578(4) 0.16874(14) 0.44564(6)
H9 H 0.7033 0.1392 0.4774
H10 H 0.9137 0.1515 0.4436
C7 C 0.7220(4) 0.30054(14) 0.44285(6)
H11 H 0.7988 0.3377 0.4705
H12 H 0.5664 0.3170 0.4467
C8 C 0.8024(3) 0.35333(13) 0.39355(5)
C9 C 0.7113(3) 0.28258(13) 0.34806(5)
H13 H 0.5524 0.2965 0.3488
C10 C 0.7350(3) 0.14528(13) 0.35059(5)
C11 C 0.7898(3) 0.34045(15) 0.29852(6)
H14 H 0.7861 0.2816 0.2723
H15 H 0.6847 0.4008 0.2895
C12 C 1.0195(4) 0.39558(15) 0.29895(6)
H16 H 1.1273 0.3347 0.2926
H17 H 1.0292 0.4517 0.2717
C13 C 1.0780(3) 0.45726(14) 0.34803(7)
H18 H 1.2280 0.4884 0.3468
C14 C 1.0538(3) 0.36863(14) 0.39089(6)
H19 H 1.1122 0.3993 0.4221
H20 H 1.1266 0.2953 0.3830
C15 C 0.7261(3) 0.48305(14) 0.38872(6)
H21 H 0.5951 0.4879 0.3681
H22 H 0.6924 0.5150 0.4216
C16 C 0.9151(3) 0.55225(14) 0.36435(6)
C17 C 0.9715(3) 0.10343(14) 0.34141(6)
H23 H 0.9766 0.0195 0.3432
H24 H 1.0666 0.1361 0.3665
H25 H 1.0190 0.1285 0.3088
C18 C 0.4367(3) -0.03625(15) 0.45765(6)
H26 H 0.4075 -0.1176 0.4639
H27 H 0.3010 0.0038 0.4510
H28 H 0.5060 -0.0023 0.4866
C19 C 0.8045(3) -0.09434(14) 0.42114(6)
H29 H 0.8800 -0.1055 0.3894
H30 H 0.9002 -0.0493 0.4429
C20 C 0.8408(4) 0.63762(17) 0.32381(7)
H31 H 0.7698 0.5943 0.2970
H32 H 0.7333 0.6910 0.3380
O5 O 0.3847(3) 0.65147(13) 0.46338(5)
H33 H 0.481(5) 0.700(3) 0.4498(11)
H34 H 0.294(5) 0.630(3) 0.4405(9)
loop_
_geom_bond_atom_site_label_1
_geom_bond_atom_site_label_2
_geom_bond_site_symmetry_1
_geom_bond_site_symmetry_2
O1 C3 1_555 1_555
O2 H1 1_555 1_555
O3 H2 1_555 1_555
O4 H3 1_555 1_555
C1 H4 1_555 1_555
H5 C1 1_555 1_555
C2 C1 1_555 1_555
H6 C2 1_555 1_555
H7 C2 1_555 1_555
C3 C2 1_555 1_555
C4 C3 1_555 1_555
C5 C4 1_555 1_555
H8 C5 1_555 1_555
C6 C5 1_555 1_555
H9 C6 1_555 1_555
H10 C6 1_555 1_555
C7 C6 1_555 1_555
H11 C7 1_555 1_555
H12 C7 1_555 1_555
C8 C7 1_555 1_555
C9 C8 1_555 1_555
H13 C9 1_555 1_555
C10 C1 1_555 1_555
C11 C9 1_555 1_555
H14 C11 1_555 1_555
H15 C11 1_555 1_555
C12 C11 1_555 1_555
H16 C12 1_555 1_555
H17 C12 1_555 1_555
C13 C12 1_555 1_555
H18 C13 1_555 1_555
C14 C8 1_555 1_555
H19 C14 1_555 1_555
H20 C14 1_555 1_555
C15 C8 1_555 1_555
H21 C15 1_555 1_555
H22 C15 1_555 1_555
C16 O4 1_555 1_555
C17 C10 1_555 1_555
H23 C17 1_555 1_555
H24 C17 1_555 1_555
H25 C17 1_555 1_555
C18 C4 1_555 1_555
H26 C18 1_555 1_555
H27 C18 1_555 1_555
H28 C18 1_555 1_555
C19 O2 1_555 1_555
H29 C19 1_555 1_555
H30 C19 1_555 1_555
C20 O3 1_555 1_555
H31 C20 1_555 1_555
H32 C20 1_555 1_555
O5 H33 1_555 1_555
H34 O5 1_555 1_555
C4 C19 1_555 1_555
C5 C10 1_555 1_555
C9 C10 1_555 1_555
C13 C14 1_555 1_555
C13 C16 1_555 1_555
C15 C16 1_555 1_555
C16 C20 1_555 1_555

#END
