
#######################################################################
#
#                 Cambridge Crystallographic Data Centre
#                                CCDC 
#
#######################################################################
#
# If this CIF has been generated from an entry in the Cambridge 
# Structural Database, then it will include bibliographic, chemical, 
# crystal, experimental, refinement or atomic coordinate data resulting 
# from the CCDC's data processing and validation procedures.
#
#######################################################################

data_ESOCOG
_chemical_formula_moiety         'C29 H23 Cl1 N4 O4 S1,C1 H2 Cl2'
_chemical_name_systematic        
"1-benzyl-3'-(4-chlorophenyl)-1'',3''-dimethyl-5'-sulfanylidene-2''H-dispiro[indole-3,2'-pyrrolidine-4',5''-pyrimidine]-2,2'',4'',6''(1H,1''H,3''H)-tetrone dichloromethane solvate"
_symmetry_cell_setting           orthorhombic
_symmetry_space_group_name_H-M   'P 21 21 21'
_symmetry_Int_Tables_number      19
_space_group_name_Hall           'P 2ac 2ab'
loop_
_symmetry_equiv_pos_site_id
_symmetry_equiv_pos_as_xyz
1 x,y,z
2 1/2-x,-y,1/2+z
3 -x,1/2+y,1/2-z
4 1/2+x,1/2-y,-z
_cell_length_a                   9.1376(14)
_cell_length_b                   15.930(2)
_cell_length_c                   20.343(3)
_cell_angle_alpha                90
_cell_angle_beta                 90
_cell_angle_gamma                90
_cell_volume                     2961.17
_exptl_crystal_colour            colorless
_exptl_crystal_description       Prism
_cell_formula_units_Z            4
loop_
_atom_site_label
_atom_site_type_symbol
_atom_site_fract_x
_atom_site_fract_y
_atom_site_fract_z
Cl1 Cl 0.27205(5) 0.06081(3) 0.46891(2)
S1 S 0.64437(4) 0.31170(2) 0.064501(18)
O1 O 0.84291(14) 0.04794(7) 0.18616(6)
O2 O 0.46981(13) 0.12578(7) 0.08155(6)
O3 O 0.07438(13) 0.21894(8) 0.19461(6)
O4 O 0.50615(13) 0.35365(7) 0.22444(6)
N1 N 0.90658(16) 0.09911(9) 0.28830(7)
N2 N 0.77077(15) 0.23037(8) 0.16391(6)
H1 H 0.8590(13) 0.2466(12) 0.1512(9)
N3 N 0.27094(15) 0.17086(8) 0.13827(7)
N4 N 0.29192(15) 0.28274(8) 0.21544(6)
C1 C 0.84057(17) 0.10195(10) 0.22828(8)
C2 C 0.75058(16) 0.18536(9) 0.22524(7)
C3 C 0.80388(17) 0.23101(10) 0.28596(8)
C4 C 0.78842(19) 0.31330(11) 0.30590(9)
H2 H 0.7347 0.3523 0.2801
C5 C 0.8542(2) 0.33793(13) 0.36526(10)
H3 H 0.8444 0.3942 0.3801
C6 C 0.9331(2) 0.28073(14) 0.40227(9)
H4 H 0.9739 0.2980 0.4430
C7 C 0.9541(2) 0.19837(13) 0.38118(9)
H5 H 1.0097 0.1595 0.4063
C8 C 0.89055(18) 0.17584(11) 0.32218(8)
C9 C 0.9958(2) 0.02908(11) 0.31042(9)
H6 H 1.0878 0.0512 0.3294
H7 H 1.0219 -0.0060 0.2720
C10 C 0.9206(2) -0.02559(11) 0.36126(8)
C11 C 0.7739(2) -0.01683(11) 0.37690(9)
H8 H 0.7183 0.0271 0.3576
C12 C 0.7070(2) -0.07202(12) 0.42077(9)
H9 H 0.6062 -0.0657 0.4310
C13 C 0.7873(2) -0.13602(11) 0.44946(8)
H10 H 0.7413 -0.1743 0.4787
C14 C 0.9356(2) -0.14405(10) 0.43524(9)
H11 H 0.9915 -0.1871 0.4556
C15 C 1.0019(2) -0.08910(10) 0.39134(8)
H12 H 1.1032 -0.0948 0.3817
C16 C 0.58600(17) 0.15709(9) 0.21919(7)
H13 H 0.5898 0.1028 0.1946
C17 C 0.50570(17) 0.13662(9) 0.28200(7)
C18 C 0.48000(18) 0.19535(10) 0.33203(7)
H14 H 0.5122 0.2516 0.3267
C19 C 0.4081(2) 0.17219(10) 0.38928(8)
H15 H 0.3893 0.2124 0.4227
C20 C 0.36385(19) 0.08944(10) 0.39706(8)
C21 C 0.38770(18) 0.02980(10) 0.34879(8)
H16 H 0.3568 -0.0266 0.3548
C22 C 0.45790(17) 0.05425(10) 0.29120(8)
H17 H 0.4736 0.0140 0.2574
C23 C 0.65057(18) 0.25455(9) 0.13169(7)
C24 C 0.51655(16) 0.22143(9) 0.16919(7)
C25 C 0.41846(18) 0.17001(9) 0.12393(7)
C26 C 0.20488(17) 0.22372(10) 0.18396(8)
C27 C 0.43987(17) 0.29331(9) 0.20404(7)
C28 C 0.17313(19) 0.11294(12) 0.10252(9)
H18 H 0.2314 0.0771 0.0734
H19 H 0.1031 0.1454 0.0763
H20 H 0.1200 0.0779 0.1341
C29 C 0.2187(2) 0.34027(11) 0.26217(9)
H21 H 0.2240 0.3167 0.3066
H22 H 0.1160 0.3472 0.2495
H23 H 0.2678 0.3950 0.2614
Cl2 Cl 0.75302(9) 0.11678(4) 0.52633(4)
Cl3 Cl 1.00192(7) 0.07627(4) 0.60891(3)
C30 C 0.8596(2) 0.03506(12) 0.55950(10)
H24 H 0.9021 0.0013 0.5234
H25 H 0.7968 -0.0022 0.5864
loop_
_geom_bond_atom_site_label_1
_geom_bond_atom_site_label_2
_geom_bond_site_symmetry_1
_geom_bond_site_symmetry_2
Cl1 C20 1_555 1_555
S1 C23 1_555 1_555
O1 C1 1_555 1_555
O2 C25 1_555 1_555
O3 C26 1_555 1_555
O4 C27 1_555 1_555
N1 C1 1_555 1_555
N2 H1 1_555 1_555
N3 C25 1_555 1_555
N4 C26 1_555 1_555
C1 C2 1_555 1_555
C2 N2 1_555 1_555
C3 C2 1_555 1_555
C4 C3 1_555 1_555
H2 C4 1_555 1_555
C5 C4 1_555 1_555
H3 C5 1_555 1_555
C6 C5 1_555 1_555
H4 C6 1_555 1_555
C7 C6 1_555 1_555
H5 C7 1_555 1_555
C8 N1 1_555 1_555
C9 N1 1_555 1_555
H6 C9 1_555 1_555
H7 C9 1_555 1_555
C10 C9 1_555 1_555
C11 C10 1_555 1_555
H8 C11 1_555 1_555
C12 C11 1_555 1_555
H9 C12 1_555 1_555
C13 C12 1_555 1_555
H10 C13 1_555 1_555
C14 C13 1_555 1_555
H11 C14 1_555 1_555
C15 C10 1_555 1_555
H12 C15 1_555 1_555
C16 C2 1_555 1_555
H13 C16 1_555 1_555
C17 C16 1_555 1_555
C18 C17 1_555 1_555
H14 C18 1_555 1_555
C19 C18 1_555 1_555
H15 C19 1_555 1_555
C20 C19 1_555 1_555
C21 C20 1_555 1_555
H16 C21 1_555 1_555
C22 C17 1_555 1_555
H17 C22 1_555 1_555
C23 N2 1_555 1_555
C24 C16 1_555 1_555
C25 C24 1_555 1_555
C26 N3 1_555 1_555
C27 N4 1_555 1_555
C28 N3 1_555 1_555
H18 C28 1_555 1_555
H19 C28 1_555 1_555
H20 C28 1_555 1_555
C29 N4 1_555 1_555
H21 C29 1_555 1_555
H22 C29 1_555 1_555
H23 C29 1_555 1_555
Cl2 C30 1_555 1_555
Cl3 C30 1_555 1_555
C30 H24 1_555 1_555
H25 C30 1_555 1_555
C3 C8 1_555 1_555
C7 C8 1_555 1_555
C14 C15 1_555 1_555
C21 C22 1_555 1_555
C23 C24 1_555 1_555
C24 C27 1_555 1_555

#END
