
#######################################################################
#
#                 Cambridge Crystallographic Data Centre
#                                CCDC 
#
#######################################################################
#
# If this CIF has been generated from an entry in the Cambridge 
# Structural Database, then it will include bibliographic, chemical, 
# crystal, experimental, refinement or atomic coordinate data resulting 
# from the CCDC's data processing and validation procedures.
#
#######################################################################

data_ESOVAK
_chemical_formula_moiety         'C20 H18 Cl1 N1 O3'
_chemical_name_systematic        
'(S)-Methyl 4-(4-chlorophenyl)-2-hydroxy-2-(1-methyl-1H-indol-3-yl)but-3-enoate'
_symmetry_cell_setting           orthorhombic
_symmetry_space_group_name_H-M   'P 21 21 21'
_symmetry_Int_Tables_number      19
_space_group_name_Hall           'P 2ac 2ab'
loop_
_symmetry_equiv_pos_site_id
_symmetry_equiv_pos_as_xyz
1 x,y,z
2 1/2-x,-y,1/2+z
3 -x,1/2+y,1/2-z
4 1/2+x,1/2-y,-z
_cell_length_a                   7.4048(16)
_cell_length_b                   12.827(3)
_cell_length_c                   18.707(4)
_cell_angle_alpha                90
_cell_angle_beta                 90
_cell_angle_gamma                90
_cell_volume                     1776.82
_exptl_crystal_colour            colorless
_exptl_crystal_description       block
_cell_formula_units_Z            4
loop_
_atom_site_label
_atom_site_type_symbol
_atom_site_fract_x
_atom_site_fract_y
_atom_site_fract_z
Cl1 Cl 0.95570(10) 0.12551(5) 0.05448(4)
O1 O 0.6922(2) -0.53838(13) 0.08288(8)
H1 H 0.7435 -0.5785 0.0538
O2 O 1.0107(3) -0.63059(14) 0.06816(9)
O3 O 1.1167(2) -0.56610(14) 0.17186(10)
N1 N 0.6253(3) -0.51543(16) 0.31711(10)
C1 C 0.8415(3) -0.21958(18) 0.07590(12)
C2 C 0.7937(3) -0.16577(18) 0.01432(12)
H2 H 0.7358 -0.2020 -0.0236
C3 C 0.8292(4) -0.0599(2) 0.00720(13)
H3 H 0.7974 -0.0240 -0.0354
C4 C 0.9112(3) -0.00773(17) 0.06274(13)
C5 C 0.9550(3) -0.05840(19) 0.12528(13)
H4 H 1.0074 -0.0210 0.1639
C6 C 0.9221(3) -0.16418(19) 0.13142(13)
H5 H 0.9549 -0.1995 0.1741
C7 C 0.8049(3) -0.33197(18) 0.08124(12)
H6 H 0.7224 -0.3606 0.0477
C8 C 0.8759(3) -0.39701(18) 0.12832(12)
H7 H 0.9651 -0.3706 0.1600
C9 C 0.8246(3) -0.51061(18) 0.13508(12)
C10 C 0.9946(3) -0.57694(18) 0.12052(13)
C11 C 1.2789(4) -0.6303(2) 0.16568(18)
H8 H 1.3437 -0.6303 0.2114
H9 H 1.3573 -0.6018 0.1283
H10 H 1.2446 -0.7018 0.1533
C12 C 0.7503(3) -0.53463(17) 0.20825(12)
C13 C 0.6931(3) -0.46431(19) 0.25853(12)
H11 H 0.6996 -0.3907 0.2535
C14 C 0.6412(3) -0.6208(2) 0.30582(12)
C15 C 0.5952(3) -0.7043(2) 0.34989(13)
H12 H 0.5431 -0.6932 0.3957
C16 C 0.6280(3) -0.8032(2) 0.32483(14)
H13 H 0.5979 -0.8613 0.3540
C17 C 0.7048(4) -0.8207(2) 0.25725(14)
H14 H 0.7265 -0.8901 0.2417
C18 C 0.7493(3) -0.73792(18) 0.21298(12)
H15 H 0.7994 -0.7498 0.1669
C19 C 0.7188(3) -0.63624(18) 0.23765(12)
C20 C 0.5634(4) -0.4667(2) 0.38298(14)
H16 H 0.4461 -0.4960 0.3965
H17 H 0.5513 -0.3914 0.3756
H18 H 0.6513 -0.4798 0.4211
loop_
_geom_bond_atom_site_label_1
_geom_bond_atom_site_label_2
_geom_bond_site_symmetry_1
_geom_bond_site_symmetry_2
Cl1 C4 1_555 1_555
O1 H1 1_555 1_555
O2 C10 1_555 1_555
O3 C10 1_555 1_555
N1 C13 1_555 1_555
C1 C2 1_555 1_555
C2 H2 1_555 1_555
C3 C2 1_555 1_555
H3 C3 1_555 1_555
C4 C3 1_555 1_555
C5 C4 1_555 1_555
H4 C5 1_555 1_555
C6 C1 1_555 1_555
H5 C6 1_555 1_555
C7 C1 1_555 1_555
H6 C7 1_555 1_555
C8 C7 1_555 1_555
H7 C8 1_555 1_555
C9 O1 1_555 1_555
C10 C9 1_555 1_555
C11 O3 1_555 1_555
H8 C11 1_555 1_555
H9 C11 1_555 1_555
H10 C11 1_555 1_555
C12 C9 1_555 1_555
C13 C12 1_555 1_555
H11 C13 1_555 1_555
C14 N1 1_555 1_555
C15 C14 1_555 1_555
H12 C15 1_555 1_555
C16 C15 1_555 1_555
H13 C16 1_555 1_555
C17 C16 1_555 1_555
H14 C17 1_555 1_555
C18 C17 1_555 1_555
H15 C18 1_555 1_555
C19 C12 1_555 1_555
C20 N1 1_555 1_555
H16 C20 1_555 1_555
H17 C20 1_555 1_555
H18 C20 1_555 1_555
C5 C6 1_555 1_555
C8 C9 1_555 1_555
C14 C19 1_555 1_555
C18 C19 1_555 1_555

#END
