
#######################################################################
#
#                 Cambridge Crystallographic Data Centre
#                                CCDC 
#
#######################################################################
#
# If this CIF has been generated from an entry in the Cambridge 
# Structural Database, then it will include bibliographic, chemical, 
# crystal, experimental, refinement or atomic coordinate data resulting 
# from the CCDC's data processing and validation procedures.
#
#######################################################################

data_ESOWIS
_chemical_formula_moiety         
'5(C48 H48 N32 O16),5(C24 H22 N2 2+),10(N1 O3 1-),5(C2 H6 O1),60(H2 O1)'
_chemical_name_systematic        
'(10)-(pentakis(Cucurbit(8)uril) pentakis(4-((N-methylpyridinio-4-yl)ethenyl)-1-(2-naphthylmethyl)pyridinium) rotaxane clathrate) decanitrate ethanol solvate hydrate'
_symmetry_cell_setting           orthorhombic
_symmetry_space_group_name_H-M   'P m n 21'
_symmetry_Int_Tables_number      31
_space_group_name_Hall           'P 2ac -2'
loop_
_symmetry_equiv_pos_site_id
_symmetry_equiv_pos_as_xyz
1 x,y,z
2 1/2-x,-y,1/2+z
3 1/2+x,-y,1/2+z
4 -x,y,z
_cell_length_a                   18.755(2)
_cell_length_b                   32.165(4)
_cell_length_c                   44.134(6)
_cell_angle_alpha                90
_cell_angle_beta                 90
_cell_angle_gamma                90
_cell_volume                     26624
_exptl_crystal_colour            yellow
_exptl_crystal_description       brick
_cell_formula_units_Z            2
loop_
_atom_site_label
_atom_site_type_symbol
_atom_site_fract_x
_atom_site_fract_y
_atom_site_fract_z
C1 C 0.2014(9) 0.6450(5) 0.2995(4)
C8 C 0.0000 0.5346(6) 0.3406(4)
C9 C 0.2174(10) 0.5273(6) 0.3079(4)
C11 C 0.2048(10) 0.6150(6) 0.1206(4)
C13 C 0.1328(9) 0.6477(5) 0.3470(4)
C14 C 0.1284(8) 0.5355(5) 0.3493(4)
C15 C 0.3047(10) 0.6391(6) 0.2658(5)
C19 C 0.2996(11) 0.5151(7) 0.2220(5)
C24 C 0.0000 0.4893(8) 0.1010(6)
C25 C 0.0386(7) 0.5927(4) 0.3641(3)
C32 C 0.0000 0.6029(7) 0.0812(5)
C41 C 0.3489(9) 0.5784(5) 0.2336(4)
C42 C 0.1291(10) 0.5997(6) 0.0757(5)
C43 C 0.2777(8) 0.5900(5) 0.3078(4)
C45 C 0.3461(8) 0.5726(5) 0.1997(4)
C47 C 0.2191(8) 0.5910(4) 0.3334(3)
C52 C 0.3057(10) 0.6204(6) 0.1576(5)
C62 C 0.0496(9) 0.5407(5) 0.0682(4)
C66 C 0.3251(10) 0.5278(6) 0.2780(5)
C77 C 0.2195(11) 0.5482(6) 0.1017(5)
C93 C 0.1287(10) 0.4904(6) 0.0924(5)
C102 C 0.2069(12) 0.4970(7) 0.1361(6)
C115 C 0.2827(11) 0.6302(6) 0.2093(5)
C154 C 0.3172(12) 0.5064(7) 0.1677(5)
C299 C 0.2758(12) 0.5545(7) 0.1243(6)
C326 C 0.0000 0.5373(12) 0.0708(10)
O14 O 0.0000 0.6511(7) 0.3391(5)
O18 O 0.0000 0.6888(6) 0.3287(4)
O19 O -0.0114(11) 0.4975(4) 0.3275(3)
O20 O 0.1784(6) 0.6781(3) 0.2899(3)
O31 O 0.0000 0.6436(5) 0.0864(3)
O33 O 0.1842(6) 0.6512(4) 0.1247(3)
O34 O 0.2006(6) 0.4900(4) 0.3027(3)
O35 O 0.2530(7) 0.6656(4) 0.2091(3)
O37 O 0.2756(8) 0.4788(5) 0.2273(4)
O38 O 0.0000 0.4576(6) 0.1179(5)
O39 O 0.1853(8) 0.4639(5) 0.1509(4)
N26 N 0.0604(6) 0.5539(4) 0.3467(3)
N30 N 0.1776(6) 0.6261(4) 0.3259(3)
N31 N 0.0599(6) 0.6315(3) 0.3457(3)
N34 N 0.0566(7) 0.5811(4) 0.0791(3)
N35 N 0.1798(6) 0.5539(4) 0.3291(3)
N46 N 0.3101(8) 0.5298(5) 0.1966(4)
N47 N 0.3012(8) 0.6161(4) 0.2372(4)
N49 N 0.1796(8) 0.5874(5) 0.1009(4)
N51 N 0.2657(7) 0.5473(4) 0.2962(3)
N52 N 0.2999(7) 0.6077(4) 0.1882(3)
N53 N 0.2559(8) 0.6221(5) 0.2885(4)
N54 N 0.1789(8) 0.5145(5) 0.1110(4)
N56 N 0.2613(11) 0.5211(6) 0.1476(5)
N57 N 0.0571(8) 0.5071(5) 0.0914(4)
N60 N 0.2497(9) 0.5979(5) 0.1394(4)
N61 N 0.3147(8) 0.5433(5) 0.2458(4)
C25C C -0.0386(7) 0.5927(4) 0.3641(3)
N26C N -0.0604(6) 0.5539(4) 0.3467(3)
O19C O 0.0114(11) 0.4975(4) 0.3275(3)
N34C N -0.0566(7) 0.5811(4) 0.0791(3)
C42C C -0.1291(10) 0.5997(6) 0.0757(5)
N49C N -0.1796(8) 0.5874(5) 0.1009(4)
C11C C -0.2048(10) 0.6150(6) 0.1206(4)
O33C O -0.1842(6) 0.6512(4) 0.1247(3)
N60C N -0.2497(9) 0.5979(5) 0.1394(4)
C52C C -0.3057(10) 0.6204(6) 0.1576(5)
N52C N -0.2999(7) 0.6077(4) 0.1882(3)
C45C C -0.3461(8) 0.5726(5) 0.1997(4)
C41C C -0.3489(9) 0.5784(5) 0.2336(4)
N47C N -0.3012(8) 0.6161(4) 0.2372(4)
C15C C -0.3047(10) 0.6391(6) 0.2658(5)
N53C N -0.2559(8) 0.6221(5) 0.2885(4)
C1C C -0.2014(9) 0.6450(5) 0.2995(4)
O20C O -0.1784(6) 0.6781(3) 0.2899(3)
N30C N -0.1776(6) 0.6261(4) 0.3259(3)
C13C C -0.1328(9) 0.6477(5) 0.3470(4)
N31C N -0.0599(6) 0.6315(3) 0.3457(3)
C47C C -0.2191(8) 0.5910(4) 0.3334(3)
C43C C -0.2777(8) 0.5900(5) 0.3078(4)
N51C N -0.2657(7) 0.5473(4) 0.2962(3)
C9C C -0.2174(10) 0.5273(6) 0.3079(4)
O34C O -0.2006(6) 0.4900(4) 0.3027(3)
N35C N -0.1798(6) 0.5539(4) 0.3291(3)
C14C C -0.1284(8) 0.5355(5) 0.3493(4)
C66C C -0.3251(10) 0.5278(6) 0.2780(5)
N61C N -0.3147(8) 0.5433(5) 0.2458(4)
C19C C -0.2996(11) 0.5151(7) 0.2220(5)
O37C O -0.2756(8) 0.4788(5) 0.2273(4)
N46C N -0.3101(8) 0.5298(5) 0.1966(4)
C154C C -0.3172(12) 0.5064(7) 0.1677(5)
N56C N -0.2613(11) 0.5211(6) 0.1476(5)
C102C C -0.2069(12) 0.4970(7) 0.1361(6)
O39C O -0.1853(8) 0.4639(5) 0.1509(4)
N54C N -0.1789(8) 0.5145(5) 0.1110(4)
C77C C -0.2195(11) 0.5482(6) 0.1017(5)
C299C C -0.2758(12) 0.5545(7) 0.1243(6)
C93C C -0.1287(10) 0.4904(6) 0.0924(5)
N57C N -0.0571(8) 0.5071(5) 0.0914(4)
C62C C -0.0496(9) 0.5407(5) 0.0682(4)
C115C C -0.2827(11) 0.6302(6) 0.2093(5)
O35C O -0.2530(7) 0.6656(4) 0.2091(3)
C2 C 0.0000 -0.0364(7) 0.3497(5)
C12 C 0.0000 -0.1348(6) 0.3962(5)
C17 C 0.1964(9) -0.0993(5) 0.4300(4)
C31 C 0.1267(10) -0.1362(6) 0.3905(5)
N1 N 0.0567(9) 0.1795(5) 0.5451(4)
N2 N 0.1699(10) 0.1107(6) 0.5737(4)
N3 N 0.1789(10) 0.1598(6) 0.5324(5)
O1 O 0.0000 0.0730(6) 0.6064(5)
N6 N 0.0578(8) 0.1302(5) 0.5877(4)
C54 C 0.0376(8) -0.1046(5) 0.3532(4)
O2 O 0.0000 0.1951(6) 0.5024(5)
C68 C 0.0000 0.1881(8) 0.5309(7)
C69 C 0.0000 0.1078(10) 0.5937(7)
O4 O 0.1738(10) 0.0371(6) 0.5775(4)
C91 C 0.2162(13) 0.1380(7) 0.5563(6)
C94 C 0.2125(12) -0.0063(7) 0.3741(5)
N7 N 0.2483(10) 0.0678(6) 0.5459(5)
C96 C 0.2170(10) -0.0773(5) 0.3789(4)
N8 N 0.2641(11) 0.1228(6) 0.5064(5)
C100 C 0.1283(10) -0.0490(6) 0.3413(5)
O5 O 0.2392(10) -0.0395(6) 0.5153(5)
C104 C 0.2756(12) -0.0566(7) 0.4002(6)
C109 C 0.2704(11) -0.0157(7) 0.4988(5)
C110 C 0.2778(17) 0.1127(10) 0.5406(8)
C127 C 0.2948(14) 0.0327(8) 0.5414(6)
O6 O 0.1918(9) 0.1717(6) 0.4800(5)
C161 C 0.3416(13) 0.0454(7) 0.4849(6)
C184 C 0.0397(11) 0.1714(7) 0.5787(5)
C192 C 0.3131(15) 0.0177(9) 0.4018(7)
C200 C 0.3480(14) 0.0062(8) 0.4599(7)
C209 C 0.1256(16) 0.1224(9) 0.5990(7)
C218 C 0.3162(17) 0.1213(10) 0.4810(9)
C234 C 0.1312(14) 0.1926(8) 0.5360(6)
C262 C 0.2123(14) 0.1532(8) 0.5049(6)
N9 N 0.2946(11) 0.0238(7) 0.5092(5)
C309 C 0.295(2) 0.0757(13) 0.4410(10)
C332 C 0.2986(16) -0.0691(9) 0.4547(8)
C358 C 0.1981(16) 0.0664(10) 0.5672(7)
O26 O 0.0000 -0.1514(5) 0.4235(4)
O27 O 0.1768(6) -0.1193(4) 0.4512(3)
O32 O 0.0000 -0.0003(6) 0.3411(5)
O41 O 0.1893(9) 0.0300(6) 0.3642(4)
O43 O 0.2670(10) 0.0987(6) 0.4250(5)
N18 N 0.3106(11) 0.0732(7) 0.4720(6)
N22 N 0.2951(13) -0.0252(8) 0.4716(6)
N32 N 0.1740(7) -0.1044(4) 0.4000(3)
N37 N 0.0581(7) -0.0594(4) 0.3516(3)
N44 N 0.0555(7) -0.1233(4) 0.3828(3)
N45 N 0.1771(8) -0.0429(5) 0.3679(4)
N55 N 0.2407(11) -0.0683(6) 0.4326(5)
N69 N 0.2571(11) -0.0106(6) 0.3934(5)
N70 N 0.3089(11) 0.0340(7) 0.4346(5)
C54C C -0.0376(8) -0.1046(5) 0.3532(4)
N37C N -0.0581(7) -0.0594(4) 0.3516(3)
C100C C -0.1283(10) -0.0490(6) 0.3413(5)
N45C N -0.1771(8) -0.0429(5) 0.3679(4)
C94C C -0.2125(12) -0.0063(7) 0.3741(5)
O41C O -0.1893(9) 0.0300(6) 0.3642(4)
N69C N -0.2571(11) -0.0106(6) 0.3934(5)
C104C C -0.2756(12) -0.0566(7) 0.4002(6)
C96C C -0.2170(10) -0.0773(5) 0.3789(4)
N32C N -0.1740(7) -0.1044(4) 0.4000(3)
C17C C -0.1964(9) -0.0993(5) 0.4300(4)
O27C O -0.1768(6) -0.1193(4) 0.4512(3)
N55C N -0.2407(11) -0.0683(6) 0.4326(5)
C332C C -0.2986(16) -0.0691(9) 0.4547(8)
N22C N -0.2951(13) -0.0252(8) 0.4716(6)
C109C C -0.2704(11) -0.0157(7) 0.4988(5)
O5C O -0.2392(10) -0.0395(6) 0.5153(5)
N9C N -0.2946(11) 0.0238(7) 0.5092(5)
C127C C -0.2948(14) 0.0327(8) 0.5414(6)
N7C N -0.2483(10) 0.0678(6) 0.5459(5)
C110C C -0.2778(17) 0.1127(10) 0.5406(8)
C91C C -0.2162(13) 0.1380(7) 0.5563(6)
N2C N -0.1699(10) 0.1107(6) 0.5737(4)
C209C C -0.1256(16) 0.1224(9) 0.5990(7)
N6C N -0.0578(8) 0.1302(5) 0.5877(4)
N1C N -0.0567(9) 0.1795(5) 0.5451(4)
C184C C -0.0397(11) 0.1714(7) 0.5787(5)
C234C C -0.1312(14) 0.1926(8) 0.5360(6)
N3C N -0.1789(10) 0.1598(6) 0.5324(5)
C262C C -0.2123(14) 0.1532(8) 0.5049(6)
N8C N -0.2641(11) 0.1228(6) 0.5064(5)
C218C C -0.3162(17) 0.1213(10) 0.4810(9)
N18C N -0.3106(11) 0.0732(7) 0.4720(6)
C161C C -0.3416(13) 0.0454(7) 0.4849(6)
C200C C -0.3480(14) 0.0062(8) 0.4599(7)
N70C N -0.3089(11) 0.0340(7) 0.4346(5)
C192C C -0.3131(15) 0.0177(9) 0.4018(7)
C309C C -0.295(2) 0.0757(13) 0.4410(10)
O43C O -0.2670(10) 0.0987(6) 0.4250(5)
O6C O -0.1918(9) 0.1717(6) 0.4800(5)
N44C N -0.0555(7) -0.1233(4) 0.3828(3)
C31C C -0.1267(10) -0.1362(6) 0.3905(5)
C358C C -0.1981(16) 0.0664(10) 0.5672(7)
O4C O -0.1738(10) 0.0371(6) 0.5775(4)
C3 C 0.0000 0.7500(6) 0.2267(5)
C4 C 0.0000 0.7843(7) 0.3114(5)
C7 C 0.2016(7) 0.8392(4) 0.2934(3)
C10 C 0.0424(9) 0.7367(5) 0.2767(4)
C16 C 0.3422(9) 0.9071(5) 0.2265(4)
C18 C 0.0000 1.0590(11) 0.1245(8)
C20 C 0.1286(7) 0.7361(4) 0.2325(3)
C21 C 0.1283(8) 0.7766(5) 0.3099(4)
C28 C 0.2739(9) 0.8116(5) 0.2565(4)
C33 C 0.2172(10) 0.7800(6) 0.2666(4)
C35 C 0.2095(8) 0.7919(5) 0.2122(4)
C36 C 0.1280(15) 1.1184(8) 0.1925(7)
C38 C 0.2956(11) 0.8985(6) 0.1765(5)
C39 C 0.2982(10) 0.8835(6) 0.2792(4)
C46 C 0.3397(9) 0.9485(5) 0.2107(4)
C50 C 0.2161(14) 1.0727(8) 0.1668(7)
C55 C 0.3170(10) 0.8349(6) 0.2048(4)
C65 C 0.3071(11) 1.0221(6) 0.2334(5)
C86 C 0.3122(11) 0.9678(7) 0.1583(5)
C87 C 0.0428(10) 1.1148(6) 0.1496(5)
C88 C 0.0000 1.1174(10) 0.2013(9)
C98 C 0.1206(17) 1.0655(9) 0.1221(8)
C258 C 0.2032(14) 1.0664(8) 0.2197(7)
C260 C 0.2747(10) 0.9534(6) 0.2555(5)
C266 C 0.1702(16) 1.0461(9) 0.1444(7)
C268 C 0.2737(12) 1.0414(7) 0.1791(6)
O7 O 0.0148(14) 1.1209(6) 0.2273(5)
O9 O 0.2404(7) 0.9675(4) 0.2768(3)
O21 O 0.0000 0.7535(4) 0.2010(3)
O25 O 0.0147(8) 0.8132(4) 0.3333(3)
O28 O 0.1999(6) 0.7852(3) 0.1871(3)
O29 O 0.1778(6) 0.8617(4) 0.3143(3)
O30 O 0.2684(6) 0.8861(4) 0.1550(3)
O36 O 0.1790(7) 1.0710(4) 0.2431(4)
O40 O 0.1807(9) 0.9834(5) 0.1205(4)
O44 O 0.0000 1.0227(10) 0.1104(8)
N25 N 0.0604(6) 0.7710(3) 0.2988(3)
N27 N 0.0595(7) 0.7472(4) 0.2455(3)
N29 N 0.1772(7) 0.7993(4) 0.2887(3)
N38 N 0.3066(9) 0.9420(5) 0.1832(4)
N39 N 0.2963(7) 0.9116(4) 0.2531(3)
N40 N 0.2496(7) 0.8498(4) 0.2738(3)
N41 N 0.1776(8) 0.7720(4) 0.2376(3)
N42 N 0.2615(7) 0.8188(4) 0.2231(3)
N43 N 0.3137(7) 0.8794(4) 0.2021(3)
N50 N 0.0548(10) 1.1104(6) 0.1818(5)
N59 N 0.2970(8) 0.9759(5) 0.2322(4)
N62 N 0.1755(9) 1.0839(5) 0.1905(4)
N63 N 0.2046(14) 1.0071(9) 0.1369(7)
N64 N 0.2457(11) 1.0371(6) 0.2084(5)
N66 N 0.2601(12) 1.0059(7) 0.1615(5)
N67 N 0.0582(10) 1.0727(6) 0.1335(4)
C10C C -0.0424(9) 0.7367(5) 0.2767(4)
N25C N -0.0604(6) 0.7710(3) 0.2988(3)
O25C O -0.0147(8) 0.8132(4) 0.3333(3)
N67C N -0.0582(10) 1.0727(6) 0.1335(4)
C87C C -0.0428(10) 1.1148(6) 0.1496(5)
O7C O -0.0148(14) 1.1209(6) 0.2273(5)
N50C N -0.0548(10) 1.1104(6) 0.1818(5)
C36C C -0.1280(15) 1.1184(8) 0.1925(7)
N62C N -0.1755(9) 1.0839(5) 0.1905(4)
C50C C -0.2161(14) 1.0727(8) 0.1668(7)
C266C C -0.1702(16) 1.0461(9) 0.1444(7)
C98C C -0.1206(17) 1.0655(9) 0.1221(8)
N63C N -0.2046(14) 1.0071(9) 0.1369(7)
O40C O -0.1807(9) 0.9834(5) 0.1205(4)
N66C N -0.2601(12) 1.0059(7) 0.1615(5)
C86C C -0.3122(11) 0.9678(7) 0.1583(5)
N38C N -0.3066(9) 0.9420(5) 0.1832(4)
C38C C -0.2956(11) 0.8985(6) 0.1765(5)
O30C O -0.2684(6) 0.8861(4) 0.1550(3)
N43C N -0.3137(7) 0.8794(4) 0.2021(3)
C16C C -0.3422(9) 0.9071(5) 0.2265(4)
C46C C -0.3397(9) 0.9485(5) 0.2107(4)
N59C N -0.2970(8) 0.9759(5) 0.2322(4)
C65C C -0.3071(11) 1.0221(6) 0.2334(5)
N64C N -0.2457(11) 1.0371(6) 0.2084(5)
C258C C -0.2032(14) 1.0664(8) 0.2197(7)
O36C O -0.1790(7) 1.0710(4) 0.2431(4)
C268C C -0.2737(12) 1.0414(7) 0.1791(6)
C260C C -0.2747(10) 0.9534(6) 0.2555(5)
O9C O -0.2404(7) 0.9675(4) 0.2768(3)
N39C N -0.2963(7) 0.9116(4) 0.2531(3)
C39C C -0.2982(10) 0.8835(6) 0.2792(4)
N40C N -0.2496(7) 0.8498(4) 0.2738(3)
C7C C -0.2016(7) 0.8392(4) 0.2934(3)
O29C O -0.1778(6) 0.8617(4) 0.3143(3)
N29C N -0.1772(7) 0.7993(4) 0.2887(3)
C21C C -0.1283(8) 0.7766(5) 0.3099(4)
C33C C -0.2172(10) 0.7800(6) 0.2666(4)
C28C C -0.2739(9) 0.8116(5) 0.2565(4)
N42C N -0.2615(7) 0.8188(4) 0.2231(3)
C35C C -0.2095(8) 0.7919(5) 0.2122(4)
O28C O -0.1999(6) 0.7852(3) 0.1871(3)
N41C N -0.1776(8) 0.7720(4) 0.2376(3)
C20C C -0.1286(7) 0.7361(4) 0.2325(3)
N27C N -0.0595(7) 0.7472(4) 0.2455(3)
C55C C -0.3170(10) 0.8349(6) 0.2048(4)
C5 C 0.0000 0.7756(7) 0.4806(5)
C23 C 0.1266(9) 0.8782(5) 0.5240(4)
C29 C 0.0415(8) 0.8446(5) 0.4881(4)
C30 C 0.1993(10) 0.7462(6) 0.5134(5)
C34 C 0.0000 0.5979(6) 0.7114(5)
C48 C 0.1250(9) 0.7860(5) 0.4764(4)
N4 N 0.0584(8) 0.6144(5) 0.7233(4)
N5 N 0.0585(8) 0.6849(5) 0.7465(4)
C59 C 0.0000 0.8725(6) 0.5330(5)
O3 O 0.2389(9) 0.6532(5) 0.5821(4)
C83 C 0.2079(16) 0.7308(10) 0.7132(7)
C92 C 0.2215(16) 0.6559(9) 0.7183(8)
C97 C 0.2059(12) 0.8477(7) 0.5615(6)
C99 C 0.2748(16) 0.8000(9) 0.5349(8)
C101 C 0.3397(14) 0.7428(8) 0.5990(6)
C112 C 0.1934(12) 0.6234(7) 0.6761(6)
C113 C 0.2165(12) 0.8194(7) 0.5131(6)
C140 C 0.3056(13) 0.7468(7) 0.6746(6)
C201 C 0.1219(16) 0.7011(9) 0.7512(7)
C208 C 0.3170(19) 0.8195(12) 0.5887(9)
C221 C 0.1286(14) 0.5991(8) 0.7218(7)
C243 C 0.3372(16) 0.7210(10) 0.6277(8)
C263 C 0.0493(11) 0.6397(6) 0.7521(5)
C275 C 0.2969(15) 0.6478(9) 0.6409(7)
C285 C 0.2724(15) 0.6801(9) 0.5963(7)
C300 C 0.2637(16) 0.6728(10) 0.6952(8)
C318 C 0.0000 0.7052(12) 0.7464(9)
C320 C 0.2949(13) 0.7209(7) 0.5504(6)
C344 C 0.3159(13) 0.7834(8) 0.5977(7)
C369 C 0.2805(13) 0.8197(8) 0.6415(6)
O8 O 0.0169(10) 0.7470(5) 0.7462(4)
O10 O 0.0184(7) 0.7392(4) 0.4720(3)
O11 O 0.0000 0.5715(5) 0.6903(4)
O12 O 0.0000 0.8882(5) 0.5582(4)
O15 O 0.1731(10) 0.5986(6) 0.6567(5)
O16 O 0.1860(10) 0.7656(7) 0.7172(5)
O17 O 0.1982(11) 0.8712(7) 0.5819(6)
O24 O 0.1713(6) 0.7141(3) 0.5080(3)
N10 N 0.2912(10) 0.6824(6) 0.6234(5)
N11 N 0.3035(12) 0.7494(7) 0.6479(6)
N12 N 0.0600(6) 0.8011(4) 0.4831(3)
N13 N 0.0577(6) 0.8604(4) 0.5179(3)
N14 N 0.1803(8) 0.8449(4) 0.5352(4)
N15 N 0.1777(8) 0.7847(4) 0.5032(3)
N16 N 0.2479(9) 0.7551(5) 0.5364(4)
N20 N 0.3000(10) 0.7872(6) 0.6214(5)
N21 N 0.2926(11) 0.7209(7) 0.5804(5)
N23 N 0.1756(11) 0.6970(7) 0.7268(5)
N24 N 0.2585(13) 0.7180(8) 0.6914(6)
N71 N 0.2477(11) 0.6520(6) 0.6682(5)
N72 N 0.1775(10) 0.6252(6) 0.7032(5)
N73 N 0.2703(15) 0.8199(9) 0.5598(7)
O10C O -0.0184(7) 0.7392(4) 0.4720(3)
C29C C -0.0415(8) 0.8446(5) 0.4881(4)
N12C N -0.0600(6) 0.8011(4) 0.4831(3)
C48C C -0.1250(9) 0.7860(5) 0.4764(4)
N15C N -0.1777(8) 0.7847(4) 0.5032(3)
C30C C -0.1993(10) 0.7462(6) 0.5134(5)
O24C O -0.1713(6) 0.7141(3) 0.5080(3)
N16C N -0.2479(9) 0.7551(5) 0.5364(4)
C99C C -0.2748(16) 0.8000(9) 0.5349(8)
C113C C -0.2165(12) 0.8194(7) 0.5131(6)
N14C N -0.1803(8) 0.8449(4) 0.5352(4)
C23C C -0.1266(9) 0.8782(5) 0.5240(4)
N13C N -0.0577(6) 0.8604(4) 0.5179(3)
N4C N -0.0584(8) 0.6144(5) 0.7233(4)
C221C C -0.1286(14) 0.5991(8) 0.7218(7)
N72C N -0.1775(10) 0.6252(6) 0.7032(5)
C92C C -0.2215(16) 0.6559(9) 0.7183(8)
C300C C -0.2637(16) 0.6728(10) 0.6952(8)
N24C N -0.2585(13) 0.7180(8) 0.6914(6)
C83C C -0.2079(16) 0.7308(10) 0.7132(7)
O16C O -0.1860(10) 0.7656(7) 0.7172(5)
N23C N -0.1756(11) 0.6970(7) 0.7268(5)
C201C C -0.1219(16) 0.7011(9) 0.7512(7)
N5C N -0.0585(8) 0.6849(5) 0.7465(4)
C263C C -0.0493(11) 0.6397(6) 0.7521(5)
O8C O -0.0169(10) 0.7470(5) 0.7462(4)
C140C C -0.3056(13) 0.7468(7) 0.6746(6)
N11C N -0.3035(12) 0.7494(7) 0.6479(6)
C243C C -0.3372(16) 0.7210(10) 0.6277(8)
C101C C -0.3397(14) 0.7428(8) 0.5990(6)
C344C C -0.3159(13) 0.7834(8) 0.5977(7)
C208C C -0.3170(19) 0.8195(12) 0.5887(9)
N73C N -0.2703(15) 0.8199(9) 0.5598(7)
C97C C -0.2059(12) 0.8477(7) 0.5615(6)
O17C O -0.1982(11) 0.8712(7) 0.5819(6)
N20C N -0.3000(10) 0.7872(6) 0.6214(5)
C369C C -0.2805(13) 0.8197(8) 0.6415(6)
N21C N -0.2926(11) 0.7209(7) 0.5804(5)
C285C C -0.2724(15) 0.6801(9) 0.5963(7)
O3C O -0.2389(9) 0.6532(5) 0.5821(4)
N10C N -0.2912(10) 0.6824(6) 0.6234(5)
C275C C -0.2969(15) 0.6478(9) 0.6409(7)
N71C N -0.2477(11) 0.6520(6) 0.6682(5)
C112C C -0.1934(12) 0.6234(7) 0.6761(6)
O15C O -0.1731(10) 0.5986(6) 0.6567(5)
C320C C -0.2949(13) 0.7209(7) 0.5504(6)
C6 C 0.0000 0.6447(6) 0.4421(5)
C26 C 0.1267(7) 0.6545(4) 0.4480(3)
C27 C 0.0430(8) 0.6555(5) 0.4920(4)
C40 C 0.2005(10) 0.5935(6) 0.4326(5)
C49 C 0.3029(15) 0.5437(9) 0.4247(8)
C56 C 0.1291(10) 0.6172(6) 0.5261(4)
C63 C 0.0122(13) 0.5809(5) 0.5457(4)
C67 C 0.0249(8) 0.2923(5) 0.4996(4)
C74 C 0.2170(10) 0.6192(6) 0.4828(5)
C78 C 0.319(2) 0.4873(12) 0.4843(10)
C90 C 0.2261(17) 0.5593(9) 0.5184(8)
C107 C 0.1734(14) 0.2996(8) 0.4613(7)
C117 C 0.2303(17) 0.3117(10) 0.4348(8)
C126 C 0.2274(11) 0.4729(6) 0.3895(5)
C148 C 0.3049(15) 0.4388(9) 0.4208(7)
C171 C 0.1021(15) 0.2681(9) 0.4689(7)
C239 C 0.2014(12) 0.3414(7) 0.5050(6)
C257 C 0.0131(18) 0.6035(7) 0.5251(6)
C261 C 0.279(2) 0.4773(13) 0.4058(11)
C272 C 0.2891(14) 0.4089(8) 0.4753(7)
C277 C 0.2661(12) 0.3734(7) 0.4091(5)
C278 C 0.2749(13) 0.3590(8) 0.4654(6)
C293 C 0.2269(14) 0.3370(8) 0.4760(7)
C295 C 0.3056(16) 0.4027(10) 0.4030(8)
C298 C 0.3428(18) 0.4802(10) 0.4576(9)
C307 C 0.2842(15) 0.3383(8) 0.4356(7)
C327 C 0.3483(16) 0.5297(9) 0.5031(8)
C330 C 0.3256(15) 0.4279(9) 0.4585(7)
C335 C 0.0312(9) 0.2770(6) 0.4636(5)
C349 C 0.2962(14) 0.5908(8) 0.4737(7)
O22 O 0.1745(6) 0.5905(3) 0.4076(3)
O23 O 0.0000 0.6460(4) 0.4159(3)
O42 O 0.1874(14) 0.5411(8) 0.5407(7)
N28 N 0.0586(6) 0.6484(3) 0.4605(2)
N33 N 0.1819(8) 0.5968(5) 0.5075(4)
N36 N 0.1783(7) 0.6199(4) 0.4547(3)
N48 N 0.0617(8) 0.6194(5) 0.5125(4)
N58 N 0.2498(9) 0.5677(5) 0.4457(4)
N65 N 0.2910(14) 0.5006(9) 0.4320(7)
N68 N 0.262(2) 0.5585(13) 0.4946(11)
C67C C -0.0249(8) 0.2923(5) 0.4996(4)
C335C C -0.0312(9) 0.2770(6) 0.4636(5)
C171C C -0.1021(15) 0.2681(9) 0.4689(7)
C107C C -0.1734(14) 0.2996(8) 0.4613(7)
C117C C -0.2303(17) 0.3117(10) 0.4348(8)
C307C C -0.2842(15) 0.3383(8) 0.4356(7)
C277C C -0.2661(12) 0.3734(7) 0.4091(5)
C295C C -0.3056(16) 0.4027(10) 0.4030(8)
C148C C -0.3049(15) 0.4388(9) 0.4208(7)
C261C C -0.279(2) 0.4773(13) 0.4058(11)
C126C C -0.2274(11) 0.4729(6) 0.3895(5)
N65C N -0.2910(14) 0.5006(9) 0.4320(7)
C49C C -0.3029(15) 0.5437(9) 0.4247(8)
N58C N -0.2498(9) 0.5677(5) 0.4457(4)
C40C C -0.2005(10) 0.5935(6) 0.4326(5)
O22C O -0.1745(6) 0.5905(3) 0.4076(3)
N36C N -0.1783(7) 0.6199(4) 0.4547(3)
C26C C -0.1267(7) 0.6545(4) 0.4480(3)
N28C N -0.0586(6) 0.6484(3) 0.4605(2)
C27C C -0.0430(8) 0.6555(5) 0.4920(4)
C63C C -0.0122(13) 0.5809(5) 0.5457(4)
C257C C -0.0131(18) 0.6035(7) 0.5251(6)
N48C N -0.0617(8) 0.6194(5) 0.5125(4)
C56C C -0.1291(10) 0.6172(6) 0.5261(4)
N33C N -0.1819(8) 0.5968(5) 0.5075(4)
C74C C -0.2170(10) 0.6192(6) 0.4828(5)
C90C C -0.2261(17) 0.5593(9) 0.5184(8)
O42C O -0.1874(14) 0.5411(8) 0.5407(7)
N68C N -0.262(2) 0.5585(13) 0.4946(11)
C349C C -0.2962(14) 0.5908(8) 0.4737(7)
C298C C -0.3428(18) 0.4802(10) 0.4576(9)
C78C C -0.319(2) 0.4873(12) 0.4843(10)
C327C C -0.3483(16) 0.5297(9) 0.5031(8)
C330C C -0.3256(15) 0.4279(9) 0.4585(7)
C272C C -0.2891(14) 0.4089(8) 0.4753(7)
C278C C -0.2749(13) 0.3590(8) 0.4654(6)
C293C C -0.2269(14) 0.3370(8) 0.4760(7)
C239C C -0.2014(12) 0.3414(7) 0.5050(6)
C22 C 0.0000 0.3110(6) 0.3629(5)
C53 C 0.0000 0.2941(9) 0.3890(7)
C85 C 0.1803(11) 0.3643(7) 0.3700(5)
C144 C 0.0593(13) 0.2833(7) 0.4019(6)
C220 C 0.1234(15) 0.2838(8) 0.3909(6)
C224 C 0.070(2) 0.2591(13) 0.4271(12)
C297 C 0.1960(13) 0.3364(8) 0.4000(6)
C342 C 0.0000 0.2523(11) 0.4301(9)
C371 C 0.1679(15) 0.3049(9) 0.4051(7)
C224C C -0.070(2) 0.2591(13) 0.4271(12)
C144C C -0.0593(13) 0.2833(7) 0.4019(6)
C220C C -0.1234(15) 0.2838(8) 0.3909(6)
C371C C -0.1679(15) 0.3049(9) 0.4051(7)
C297C C -0.1960(13) 0.3364(8) 0.4000(6)
C85C C -0.1803(11) 0.3643(7) 0.3700(5)
C37 C 1.0000 0.8431(9) 0.1682(7)
C64 C 1.0615(12) 0.7586(7) 0.1400(6)
C70 C 0.9380(13) 0.8483(7) 0.1799(6)
C114 C 1.0639(12) 0.7122(7) 0.1435(6)
C125 C 1.0000 0.8252(8) 0.1352(6)
C273 C 1.0000 0.6957(13) 0.1466(10)
N19 N 1.0000 0.7762(8) 0.1394(6)
C70C C 1.0620(13) 0.8483(7) 0.1799(6)
C114C C 0.9361(12) 0.7122(7) 0.1435(6)
C64C C 0.9385(12) 0.7586(7) 0.1400(6)
C44 C 0.5000 0.5889(8) 0.1304(6)
C51 C 0.5000 0.4783(8) 0.0991(6)
C58 C 0.3855(18) 0.4326(10) 0.1021(8)
C73 C 0.5000 0.4375(10) 0.1157(7)
C124 C 0.4368(18) 0.5269(10) 0.0651(8)
C276 C 0.4494(14) 0.4872(8) 0.0890(6)
C322 C 0.381(3) 0.5509(15) 0.0646(11)
C357 C 0.4437(17) 0.4178(9) 0.1124(8)
C357C C 0.5563(17) 0.4178(9) 0.1124(8)
C58C C 0.6145(18) 0.4326(10) 0.1021(8)
C276C C 0.5506(14) 0.4872(8) 0.0890(6)
C124C C 0.5632(18) 0.5269(10) 0.0651(8)
C322C C 0.619(3) 0.5509(15) 0.0646(11)
C57 C 0.4704(11) 1.0777(7) 0.1176(5)
C128 C 0.410(3) 1.0691(16) 0.1044(13)
C57C C 0.5296(11) 1.0777(7) 0.1176(5)
C128C C 0.590(3) 1.0691(16) 0.1044(13)
C61 C 0.0275(9) 0.4225(6) 0.2948(5)
C118 C 0.0000 0.4286(16) 0.2615(13)
C363 C 0.101(3) 0.4427(18) 0.3059(15)
C61C C -0.0275(9) 0.4225(6) 0.2948(5)
C363C C -0.101(3) 0.4427(18) 0.3059(15)
C71 C 0.3450(13) 0.7332(8) 0.2173(6)
C72 C 1.0000 0.8799(16) 0.2211(13)
C75 C 0.5000 0.617(2) 0.2916(16)
C274 C 0.5000 0.5839(18) 0.2940(12)
C79 C 0.0000 0.3817(9) 0.5353(7)
C81 C 0.1693(13) 0.9004(8) 0.1092(6)
C84 C 0.5000 0.5137(8) 0.1884(7)
C95 C 0.5000 0.026(4) 0.219(3)
C313 C 0.4573(15) 0.0325(8) 0.1851(6)
C334 C 0.5000 0.0456(11) 0.1954(8)
C313C C 0.5427(15) 0.0325(8) 0.1851(6)
C103 C 0.0699(17) 0.7233(10) 0.5758(7)
C105 C 0.530(3) 0.8465(17) 0.2445(14)
C141 C 0.5000 0.8386(17) 0.2681(15)
C105C C 0.470(3) 0.8465(17) 0.2445(14)
C108 C 0.0000 0.3956(18) 0.3992(15)
C111 C 1.0000 0.9353(12) 0.1240(10)
C132 C 0.967(2) 0.9553(13) 0.1562(10)
C203 C 1.0000 0.970(3) 0.170(2)
C132C C 1.033(2) 0.9553(13) 0.1562(10)
C120 C 0.0329(14) 0.0858(9) 0.3347(7)
C356 C 0.102(2) 0.0772(11) 0.3288(9)
C120C C -0.0329(14) 0.0858(9) 0.3347(7)
C356C C -0.102(2) 0.0772(11) 0.3288(9)
C121 C 0.4718(10) 0.8869(7) -0.0280(5)
C136 C 0.5000 0.9704(10) 0.0407(8)
C168 C 0.463(2) 0.8527(12) -0.0562(10)
C175 C 0.5000 0.9396(10) 0.0140(8)
C196 C 0.4402(18) 0.9258(11) 0.0044(9)
C282 C 0.4465(15) 0.9902(9) 0.0514(7)
C302 C 0.434(2) 0.9119(12) -0.0187(11)
C121C C 0.5282(10) 0.8869(7) -0.0280(5)
C168C C 0.537(2) 0.8527(12) -0.0562(10)
C282C C 0.5535(15) 0.9902(9) 0.0514(7)
C196C C 0.5598(18) 0.9258(11) 0.0044(9)
C302C C 0.566(2) 0.9119(12) -0.0187(11)
C122 C 0.3227(13) 0.6163(7) 0.0663(6)
C129 C 0.4718(14) 0.4485(10) 0.2823(7)
C316 C 0.5000 0.478(9) 0.282(8)
C129C C 0.5282(14) 0.4485(10) 0.2823(7)
C131 C 0.5000 0.241(10) 0.467(10)
C134 C 0.5000 0.0431(18) 0.4336(15)
C137 C 0.5000 0.8057(16) 0.5919(13)
C138 C 0.5000 0.363(2) 0.1374(18)
C139 C 0.5000 0.188(2) 0.1929(17)
C146 C 0.5000 0.7461(16) 0.5472(14)
C289 C 0.418(5) 0.749(3) 0.503(2)
C367 C 0.5000 0.7547(9) 0.5210(7)
C289C C 0.582(5) 0.749(3) 0.503(2)
C149 C 0.346(2) 0.1329(12) 0.1535(10)
C152 C 1.0000 0.9086(15) 0.2629(12)
C212 C 0.941(3) 0.9038(17) 0.2578(14)
C351 C 0.887(3) 0.8951(16) 0.2326(13)
C212C C 1.059(3) 0.9038(17) 0.2578(14)
C351C C 1.113(3) 0.8951(16) 0.2326(13)
C153 C 0.576(3) 0.9068(19) 0.3438(15)
C155 C 0.5000 0.651(3) 0.495(2)
C160 C 0.0627(16) 0.4088(10) 0.3399(8)
C264 C 0.0000 0.4043(10) 0.3516(8)
C160C C -0.0627(16) 0.4088(10) 0.3399(8)
C162 C 0.0000 0.903(3) 0.050(2)
C163 C 0.2596(13) 0.4333(7) 0.5243(6)
C294 C 0.3048(12) 0.4561(7) 0.5205(5)
C164 C 0.289(3) 0.6908(15) 0.4376(13)
C165 C 0.359(2) 0.2735(13) 0.4745(10)
C173 C 0.313(5) 0.240(3) 0.480(3)
C166 C 0.164(3) 0.4223(18) 0.2021(15)
C167 C 0.5000 0.1006(16) 0.4844(13)
C169 C 0.5000 0.964(2) 0.5507(18)
C228 C 0.467(2) 1.0016(16) 0.5462(12)
C228C C 0.533(2) 1.0016(16) 0.5462(12)
C170 C 0.403(3) 0.8480(16) 0.4890(13)
C172 C 0.5000 0.648(3) 0.242(2)
C174 C 0.5000 0.896(3) 0.276(2)
C176 C 0.0000 0.505(3) 1.0025(19)
C359 C 0.0000 0.5446(12) 0.9910(9)
N17 N 0.0262(11) 0.5832(8) 0.9977(6)
N17C N -0.0262(11) 0.5832(8) 0.9977(6)
C177 C 0.0393(15) 0.3997(10) 0.4473(8)
C177C C -0.0393(15) 0.3997(10) 0.4473(8)
C178 C 0.323(5) 0.653(3) 0.368(2)
C319 C 0.377(3) 0.6316(16) 0.3750(13)
C179 C 0.5000 0.3038(13) 0.1585(10)
C292 C 0.437(3) 0.2964(16) 0.1529(13)
C292C C 0.563(3) 0.2964(16) 0.1529(13)
C182 C 0.0000 0.0125(10) 0.4320(8)
C242 C 0.0567(18) 0.0135(11) 0.4361(8)
C242C C -0.0567(18) 0.0135(11) 0.4361(8)
C185 C 0.368(4) 0.842(3) 0.345(2)
C187 C 0.293(5) 0.252(3) 0.380(2)
C189 C 0.334(3) 0.2927(16) 0.3652(13)
C188 C 0.5000 0.745(3) 0.691(3)
C190 C 0.921(3) 0.9790(14) 0.1985(11)
C325 C 0.962(3) 0.9951(16) 0.2121(14)
C325C C 1.038(3) 0.9951(16) 0.2121(14)
C190C C 1.079(3) 0.9790(14) 0.1985(11)
C191 C 0.277(4) 0.253(2) 0.326(2)
C217 C 0.219(9) 0.255(4) 0.299(4)
C193 C 0.131(6) 0.543(3) 0.235(3)
C343 C 0.079(4) 0.563(2) 0.2510(16)
C194 C 0.060(7) 0.300(5) 0.305(4)
C195 C 0.406(2) 0.6797(12) 0.0935(10)
C197 C 0.207(4) 0.717(2) 0.0853(19)
C199 C 0.173(4) 0.273(2) 0.249(2)
C202 C 0.048(2) 0.3598(12) 0.2169(10)
C204 C 0.4593(17) 0.2378(11) 0.1771(9)
C204C C 0.5407(17) 0.2378(11) 0.1771(9)
C205 C 0.0267(14) 0.5043(9) 0.1773(7)
C306 C 0.109(2) 0.5233(14) 0.1854(12)
C205C C -0.0267(14) 0.5043(9) 0.1773(7)
C306C C -0.109(2) 0.5233(14) 0.1854(12)
C206 C 0.091(2) 0.6237(13) 0.2320(10)
C328 C 0.026(2) 0.6244(13) 0.2439(11)
C328C C -0.026(2) 0.6244(13) 0.2439(11)
C206C C -0.091(2) 0.6237(13) 0.2320(10)
C207 C 0.0000 0.122(17) 0.296(15)
C211 C 0.363(4) 0.732(2) 0.3100(17)
C213 C 0.5000 0.753(2) 0.302(2)
C215 C 0.431(5) 0.492(3) 0.414(2)
C216 C 0.083(9) 0.211(5) 0.317(4)
C219 C 0.315(4) 0.698(2) 0.0548(19)
C222 C 0.0421(16) 0.0621(9) 0.3983(8)
C347 C 0.096(2) 0.0594(12) 0.4122(10)
C222C C -0.0421(16) 0.0621(9) 0.3983(8)
C347C C -0.096(2) 0.0594(12) 0.4122(10)
C223 C 0.0000 0.115(4) 0.374(3)
C225 C 0.229(3) 0.067(2) 0.3137(17)
C226 C 0.227(3) 0.1274(15) 0.2849(12)
C229 C 0.396(3) 0.6461(19) 0.5006(16)
C230 C 0.0000 0.3721(16) 0.1316(13)
C232 C 0.0000 0.4440(19) 0.0464(15)
C233 C 0.283(3) 0.2390(15) 0.5317(13)
C270 C 0.348(4) 0.227(2) 0.5272(18)
C236 C 0.0000 0.6963(17) 0.8193(14)
C238 C 0.051(2) 0.7424(11) 0.3920(10)
C241 C 0.5000 0.0491(16) 0.3614(13)
C244 C 0.463(2) 0.7685(13) 0.7297(11)
C244C C 0.537(2) 0.7685(13) 0.7297(11)
C246 C 0.058(6) 0.341(4) 0.078(3)
C248 C 0.0283(11) 0.5007(7) 0.4779(6)
C346 C 0.027(2) 0.5137(14) 0.4428(13)
C354 C 0.087(2) 0.4914(12) 0.4734(10)
C248C C -0.0283(11) 0.5007(7) 0.4779(6)
C346C C -0.027(2) 0.5137(14) 0.4428(13)
C354C C -0.087(2) 0.4914(12) 0.4734(10)
C249 C 0.266(4) 0.776(3) 0.122(2)
C250 C 0.368(6) 0.126(3) 0.261(3)
C305 C 0.454(2) 0.1146(15) 0.2571(13)
C305C C 0.546(2) 0.1146(15) 0.2571(13)
C250C C 0.632(6) 0.126(3) 0.261(3)
C251 C 0.5000 0.241(7) 0.393(6)
C252 C 0.5000 0.951(11) 0.343(9)
C253 C 0.432(3) 0.5728(17) 0.3522(14)
C254 C 0.0000 0.785(9) 0.051(8)
C255 C 0.322(6) 0.171(4) 0.357(3)
C265 C 0.5000 0.951(2) 0.2880(19)
C267 C 0.3054(19) 0.4623(12) 0.1013(9)
C269 C 0.5000 0.735(3) 0.405(3)
C271 C 0.6638(16) 0.9678(10) 0.3327(8)
C279 C 0.100(3) 0.1536(19) 0.2777(15)
C280 C 0.233(3) 0.1979(16) 0.4190(13)
C281 C 0.180(2) 0.4189(12) 0.2508(10)
C283 C 0.155(3) 0.2004(16) 0.2609(14)
C284 C 0.062(3) 0.3945(17) 0.4886(14)
C286 C 0.055(2) 0.1948(13) 0.3652(11)
C288 C 0.3040(14) 1.0471(9) 0.1087(7)
C290 C 0.2366(19) 0.4086(11) 0.3162(9)
C291 C 0.327(4) 0.358(2) 0.317(2)
C301 C 0.0000 0.4859(17) 0.2574(14)
C352 C 0.072(6) 0.493(4) 0.264(3)
C352C C -0.072(6) 0.493(4) 0.264(3)
C303 C 0.143(3) 0.3221(18) 0.2741(15)
C304 C 0.428(3) 0.9738(15) 0.5081(13)
C308 C 0.132(3) 0.3880(17) 0.0493(14)
C310 C 0.453(4) 0.107(3) 0.425(2)
C312 C 0.0000 0.786(3) 0.804(2)
C314 C 0.4689(15) 1.0228(10) 0.0877(8)
C314C C 0.5311(15) 1.0228(10) 0.0877(8)
C315 C 0.5000 0.315(7) 0.412(6)
C317 C 0.388(3) 0.7687(18) 0.1508(14)
C353 C 0.371(5) 0.737(3) 0.137(2)
C323 C 0.197(3) 0.819(2) 0.1125(17)
C324 C 0.5000 0.671(2) 0.1744(19)
C333 C 0.345(3) 0.717(2) 0.4766(18)
C336 C 0.361(5) 0.437(3) 0.303(3)
C337 C 0.5000 0.9170(18) 0.4647(15)
C340 C 0.339(3) 0.8251(17) 0.4378(15)
C348 C 0.175(3) 0.1755(17) 0.3598(14)
C350 C 0.325(2) 0.1355(15) 0.2080(12)
C355 C 0.142(2) 0.1791(13) 0.4279(11)
C360 C 0.0000 0.6823(14) 0.0070(11)
C361 C 0.5000 0.188(3) 0.480(3)
C362 C 0.345(3) 0.798(2) 0.3211(16)
C364 C 0.5000 0.869(2) 0.540(2)
C365 C 0.0000 0.834(5) 0.826(4)
C368 C 0.333(8) 0.199(5) 0.306(4)
C370 C 0.353(2) 0.5045(14) 0.3416(11)
C372 C 0.416(4) 0.7413(19) 0.2560(17)
C60? C 0.0230(19) 0.0532(11) 0.2840(9)
C76? C 0.0252(12) 0.5603(7) 0.2517(6)
C80? C 0.020(3) 0.7096(13) 0.5722(10)
C82? C 0.5171(12) 0.7280(7) 0.0636(5)
C89? C 0.0151(14) 0.3903(6) 0.5035(5)
C106? C 0.5000 0.789(3) 0.671(2)
C116? C 0.9543(19) 0.8750(10) 0.2159(9)
C119? C 0.021(2) 0.5134(10) 0.4192(9)
C123? C 0.0227(19) 0.5612(11) 0.1657(9)
C130? C 0.637(12) 0.982(7) 0.288(7)
C133? C 0.5000 0.5223(10) 0.2544(9)
C135? C 0.024(2) 0.7196(15) 0.0629(12)
C142? C 0.5000 0.563(3) 0.448(2)
C143? C 0.0000 0.8305(12) 0.6098(10)
C145? C 0.468(3) 0.071(2) 0.2016(16)
C147? C 0.5000 0.872(2) 0.1970(18)
C150? C 0.4753(18) 0.5096(11) 0.0259(9)
C151? C 0.5000 0.8844(16) 0.5728(13)
C156? C 0.5000 0.874(3) 0.185(2)
C157? C 1.0000 0.6508(12) 0.1509(9)
C158? C 0.482(3) 0.5901(17) 0.4509(11)
C159? C 0.4789(13) 0.9531(9) 0.1679(7)
C180? C 0.229(3) 0.739(2) 0.3893(15)
C181? C 0.077(3) -0.0286(13) 0.4655(11)
C183? C 0.5000 0.6028(18) 0.1154(16)
C186? C 0.365(2) 0.9014(13) 0.5394(11)
C198? C 0.062(3) 0.7648(15) 0.5916(12)
C210? C 0.5000 0.914(5) 0.395(5)
C214? C 0.0508(16) 0.8380(9) 0.6241(7)
C227? C 0.5000 0.411(4) 0.380(3)
C231? C 0.477(2) 0.7960(14) 0.5055(11)
C235? C 0.5000 0.924(3) 0.417(3)
C237? C 0.5000 0.7364(10) 0.6597(8)
C240? C 0.5000 0.386(3) 0.385(2)
C245? C 0.475(10) 0.666(3) 0.259(3)
C247? C 0.218(4) 0.767(3) 0.3880(18)
C256? C 0.0000 0.7846(8) 0.5927(6)
C259? C 0.4508(16) 0.5616(9) 0.1390(7)
C287? C 0.5000 0.7837(18) 0.6301(16)
C296? C 0.5000 0.9596(18) 0.4382(14)
C311? C 0.523(5) 0.972(2) 0.2608(19)
C321? C 0.637(4) 1.023(3) 0.297(2)
C329? C 0.5000 0.632(7) 0.470(6)
C331? C 0.025(2) 0.6195(12) 0.9747(10)
C338? C 1.039(2) 0.6381(14) 0.1613(12)
C339? C 0.5000 0.5265(13) 0.2378(12)
C341? C 0.016(3) -0.0381(11) 0.4691(9)
C345? C 0.0000 0.031(2) 0.249(2)
C366? C 0.059(3) 0.0552(18) 0.2889(15)
O13? O 0.4864(13) 0.7745(6) 0.6560(5)
loop_
_geom_bond_atom_site_label_1
_geom_bond_atom_site_label_2
_geom_bond_site_symmetry_1
_geom_bond_site_symmetry_2
C1 O20 1_555 1_555
C2 O32 1_555 1_555
C3 O21 1_555 1_555
C4 O25 1_555 1_555
C5 O10 1_555 1_555
C6 O23 1_555 1_555
C7 O29 1_555 1_555
C8 O19 1_555 1_555
C9 O34 1_555 1_555
C10 N25 1_555 1_555
C11 O33 1_555 1_555
C12 O26 1_555 1_555
C13 N30 1_555 1_555
C14 N26 1_555 1_555
C15 N47 1_555 1_555
C16 C46 1_555 1_555
C17 O27 1_555 1_555
C18 O44 1_555 1_555
C19 O37 1_555 1_555
C20 N27 1_555 1_555
C21 N25 1_555 1_555
C22 C53 1_555 1_555
C23 N13 1_555 1_555
C24 O38 1_555 1_555
C25 N26 1_555 1_555
C26 N28 1_555 1_555
C27 N28 1_555 1_555
C28 C33 1_555 1_555
C29 N12 1_555 1_555
C30 O24 1_555 1_555
C31 N32 1_555 1_555
C32 O31 1_555 1_555
C33 N29 1_555 1_555
C34 N4 1_555 1_555
C35 O28 1_555 1_555
N1 C68 1_555 1_555
C36 N50 1_555 1_555
C37 C70 1_555 1_555
C38 O30 1_555 1_555
C39 N39 1_555 1_555
C40 O22 1_555 1_555
C41 C45 1_555 1_555
C42 N34 1_555 1_555
C43 C47 1_555 1_555
C45 N46 1_555 1_555
C46 N38 1_555 1_555
C47 N30 1_555 1_555
N2 C91 1_555 1_555
N3 C91 1_555 1_555
C48 N12 1_555 1_555
N4 C221 1_555 1_555
C49 N58 1_555 1_555
C50 C266 1_555 1_555
C51 C73 1_555 1_555
O1 C69 1_555 1_555
N5 C201 1_555 1_555
C52 N52 1_555 1_555
N6 C69 1_555 1_555
C53 C144 1_555 1_555
C54 N37 1_555 1_555
C55 N42 1_555 1_555
C56 N33 1_555 1_555
C57 C128 1_555 1_555
C58 C357 1_555 1_555
C59 O12 1_555 1_555
O2 C68 1_555 1_555
C61 C118 1_555 1_555
C62 C326 1_555 1_555
C63 C257 1_555 1_555
C64 C114 1_555 1_555
C65 N59 1_555 1_555
C66 N51 1_555 1_555
C67 C335 1_555 1_555
C68 N1C 1_555 1_555
C69 N6C 1_555 1_555
C73 C357 1_555 1_555
C74 N33 1_555 1_555
C75 C274 1_555 1_555
C77 C299 1_555 1_555
C78 C298 1_555 1_555
O3 C285 1_555 1_555
C83 O16 1_555 1_555
C85 C297 1_555 1_555
C86 N38 1_555 1_555
C87 N50 1_555 1_555
C88 O7 1_555 1_555
O4 C358 1_555 1_555
C90 O42 1_555 1_555
C91 C110 1_555 1_555
C92 C300 1_555 1_555
C93 N54 1_555 1_555
C94 O41 1_555 1_555
C95 C313 1_555 1_555
N7 C110 1_555 1_555
C96 C104 1_555 1_555
C97 O17 1_555 1_555
C98 C266 1_555 1_555
N8 C110 1_555 1_555
C99 C113 1_555 1_555
C100 N37 1_555 1_555
C101 C243 1_555 1_555
C102 O39 1_555 1_555
O5 C109 1_555 1_555
C104 N55 1_555 1_555
C105 C141 1_555 1_555
C107 C117 1_555 1_555
C109 N9 1_555 1_555
C111 C132 1_555 1_555
C112 O15 1_555 1_555
C113 N14 1_555 1_555
C114 C273 1_555 1_555
C115 O35 1_555 1_555
C117 C307 1_555 1_555
C118 C61C 1_555 1_555
C120 C356 1_555 1_555
C121 C168 1_555 1_555
C124 C276 1_555 1_555
C125 C37 1_555 1_555
C126 C261 1_555 1_555
C127 N7 1_555 1_555
O6 C262 1_555 1_555
C129 C316 1_555 1_555
C132 C203 1_555 1_555
C136 C175 1_555 1_555
C140 N11 1_555 1_555
C141 C105C 1_555 1_555
C144 C220 1_555 1_555
C146 C367 1_555 1_555
C148 C261 1_555 1_555
C152 C212 1_555 1_555
C154 N46 1_555 1_555
C160 C264 1_555 1_555
C161 C200 1_555 1_555
C163 C294 1_555 1_555
C165 C173 1_555 1_555
C168 C168C 1_555 1_555
C169 C228 1_555 1_555
C171 C107 1_555 1_555
C175 C196 1_555 1_555
C176 C359 1_555 1_555
C177 C177C 1_555 1_555
C178 C319 1_555 1_555
C179 C292 1_555 1_555
C182 C242 1_555 1_555
C184 N1 1_555 1_555
C187 C189 1_555 1_555
C190 C325 1_555 1_555
C191 C217 1_555 1_555
C192 N69 1_555 1_555
C193 C343 1_555 1_555
C196 C302 1_555 1_555
C200 N22 1_555 1_555
C201 N23 1_555 1_555
C203 C132C 1_555 1_555
C204 C204C 1_555 1_555
C205 C306 1_555 1_555
C206 C328 1_555 1_555
C208 C344 1_555 1_555
C209 N2 1_555 1_555
C212 C351 1_555 1_555
C218 N8 1_555 1_555
C220 C371 1_555 1_555
C221 N72 1_555 1_555
C222 C347 1_555 1_555
C224 C144 1_555 1_555
C228 C228C 1_555 1_555
C233 C270 1_555 1_555
C234 N1 1_555 1_555
C239 C293 1_555 1_555
C243 N10 1_555 1_555
C244 C244C 1_555 1_555
C248 C346 1_555 1_555
C250 C305 1_555 1_555
C257 N48 1_555 1_555
C258 O36 1_555 1_555
C260 O9 1_555 1_555
C261 N65 1_555 1_555
C262 N3 1_555 1_555
C263 N4 1_555 1_555
C264 C160C 1_555 1_555
C266 N63 1_555 1_555
C268 C50 1_555 1_555
C272 C278 1_555 1_555
C273 C114C 1_555 1_555
N9 C127 1_555 1_555
C275 N10 1_555 1_555
C276 C51 1_555 1_555
C277 C295 1_555 1_555
C278 C293 1_555 1_555
C282 C136 1_555 1_555
C285 N10 1_555 1_555
C289 C367 1_555 1_555
C293 C107 1_555 1_555
C295 C148 1_555 1_555
C297 C371 1_555 1_555
C298 C330 1_555 1_555
C299 N56 1_555 1_555
C300 N24 1_555 1_555
C301 C352 1_555 1_555
C302 C121 1_555 1_555
C305 C305C 1_555 1_555
C307 C277 1_555 1_555
C309 O43 1_555 1_555
C313 C334 1_555 1_555
C314 C314C 1_555 1_555
C316 C129C 1_555 1_555
C317 C353 1_555 1_555
C318 N5 1_555 1_555
C320 N16 1_555 1_555
C322 C124 1_555 1_555
C325 C325C 1_555 1_555
C326 N57 1_555 1_555
C327 C78 1_555 1_555
C328 C328C 1_555 1_555
C330 C148 1_555 1_555
C332 N22 1_555 1_555
C334 C95 1_555 1_555
C335 C171 1_555 1_555
C342 C224 1_555 1_555
C344 C101 1_555 1_555
C346 C346C 1_555 1_555
C349 N58 1_555 1_555
C354 C248 1_555 1_555
C358 N2 1_555 1_555
C359 N17 1_555 1_555
C363 C61 1_555 1_555
C367 C289C 1_555 1_555
C369 N20 1_555 1_555
O7 O7C 1_555 1_555
O8 C318 1_555 1_555
O10 O10C 1_555 1_555
O11 C34 1_555 1_555
O14 O18 1_555 1_555
O19 O19C 1_555 1_555
O25 O25C 1_555 1_555
O40 N63 1_555 1_555
N11 C243 1_555 1_555
N12 C5 1_555 1_555
N13 C29 1_555 1_555
N14 C23 1_555 1_555
N15 C30 1_555 1_555
N16 C30 1_555 1_555
N17 N17C 1_555 1_555
N18 C161 1_555 1_555
N19 C64 1_555 1_555
N20 C344 1_555 1_555
N21 C101 1_555 1_555
N22 C109 1_555 1_555
N23 C83 1_555 1_555
N24 C83 1_555 1_555
N25 C4 1_555 1_555
N26 C8 1_555 1_555
N27 C3 1_555 1_555
N28 C6 1_555 1_555
N29 C7 1_555 1_555
N30 C1 1_555 1_555
N31 C13 1_555 1_555
N32 C17 1_555 1_555
N33 C90 1_555 1_555
N34 C32 1_555 1_555
N35 C9 1_555 1_555
N36 C26 1_555 1_555
N37 C2 1_555 1_555
N38 C38 1_555 1_555
N39 C16 1_555 1_555
N40 C7 1_555 1_555
N41 C20 1_555 1_555
N42 C28 1_555 1_555
N43 C16 1_555 1_555
N44 C12 1_555 1_555
N45 C94 1_555 1_555
N46 C19 1_555 1_555
N47 C41 1_555 1_555
N48 C27 1_555 1_555
N49 C11 1_555 1_555
N50 C88 1_555 1_555
N51 C9 1_555 1_555
N52 C45 1_555 1_555
N53 C1 1_555 1_555
N54 C77 1_555 1_555
N55 C17 1_555 1_555
N56 C102 1_555 1_555
N57 C24 1_555 1_555
N58 C40 1_555 1_555
N59 C46 1_555 1_555
N60 C11 1_555 1_555
N61 C19 1_555 1_555
N62 C36 1_555 1_555
N63 N66 1_555 1_555
N64 C65 1_555 1_555
N65 C49 1_555 1_555
N66 C86 1_555 1_555
N67 C18 1_555 1_555
N68 C90 1_555 1_555
N69 C94 1_555 1_555
N70 C192 1_555 1_555
N71 C112 1_555 1_555
N72 C92 1_555 1_555
N73 C97 1_555 1_555
C25C C25 1_555 1_555
N26C C8 1_555 1_555
O19C C8 1_555 1_555
N34C C32 1_555 1_555
C42C N34C 1_555 1_555
N49C C42C 1_555 1_555
C11C N49C 1_555 1_555
O33C C11C 1_555 1_555
N60C C11C 1_555 1_555
C52C N60C 1_555 1_555
N52C C52C 1_555 1_555
C45C N52C 1_555 1_555
C41C C45C 1_555 1_555
N47C C41C 1_555 1_555
C15C N47C 1_555 1_555
N53C C15C 1_555 1_555
C1C N53C 1_555 1_555
O20C C1C 1_555 1_555
N30C C1C 1_555 1_555
C13C N30C 1_555 1_555
N31C O14 1_555 1_555
C47C N30C 1_555 1_555
C43C N53C 1_555 1_555
N51C C43C 1_555 1_555
C9C N51C 1_555 1_555
O34C C9C 1_555 1_555
N35C C47C 1_555 1_555
C14C N26C 1_555 1_555
C66C N51C 1_555 1_555
N61C C41C 1_555 1_555
C19C N61C 1_555 1_555
O37C C19C 1_555 1_555
N46C C45C 1_555 1_555
C154C N46C 1_555 1_555
N56C C154C 1_555 1_555
C102C N56C 1_555 1_555
O39C C102C 1_555 1_555
N54C C102C 1_555 1_555
C77C N49C 1_555 1_555
C299C N60C 1_555 1_555
C93C N54C 1_555 1_555
N57C C24 1_555 1_555
C62C C326 1_555 1_555
C115C N52C 1_555 1_555
O35C C115C 1_555 1_555
C54C C54 1_555 1_555
N37C C2 1_555 1_555
C100C N37C 1_555 1_555
N45C C100C 1_555 1_555
C94C N45C 1_555 1_555
O41C C94C 1_555 1_555
N69C C94C 1_555 1_555
C104C N69C 1_555 1_555
C96C N45C 1_555 1_555
N32C C96C 1_555 1_555
C17C N32C 1_555 1_555
O27C C17C 1_555 1_555
N55C C104C 1_555 1_555
C332C N55C 1_555 1_555
N22C C332C 1_555 1_555
C109C N22C 1_555 1_555
O5C C109C 1_555 1_555
N9C C109C 1_555 1_555
C127C N9C 1_555 1_555
N7C C127C 1_555 1_555
C110C N7C 1_555 1_555
C91C C110C 1_555 1_555
N2C C91C 1_555 1_555
C209C N2C 1_555 1_555
N6C C209C 1_555 1_555
N1C C184C 1_555 1_555
C184C C184 1_555 1_555
C234C N1C 1_555 1_555
N3C C91C 1_555 1_555
C262C N3C 1_555 1_555
N8C C110C 1_555 1_555
C218C N8C 1_555 1_555
N18C C218C 1_555 1_555
C161C N9C 1_555 1_555
C200C N22C 1_555 1_555
N70C C200C 1_555 1_555
C192C N69C 1_555 1_555
C309C N18C 1_555 1_555
O43C C309C 1_555 1_555
O6C C262C 1_555 1_555
N44C C12 1_555 1_555
C31C N32C 1_555 1_555
C358C N7C 1_555 1_555
O4C C358C 1_555 1_555
C10C C10 1_555 1_555
N25C C4 1_555 1_555
O25C C4 1_555 1_555
N67C C18 1_555 1_555
C87C C87 1_555 1_555
O7C C88 1_555 1_555
N50C C88 1_555 1_555
C36C N50C 1_555 1_555
N62C C36C 1_555 1_555
C50C N62C 1_555 1_555
C266C C50C 1_555 1_555
C98C N67C 1_555 1_555
N63C C266C 1_555 1_555
O40C N63C 1_555 1_555
N66C N63C 1_555 1_555
C86C N66C 1_555 1_555
N38C C86C 1_555 1_555
C38C N38C 1_555 1_555
O30C C38C 1_555 1_555
N43C C38C 1_555 1_555
C16C N43C 1_555 1_555
C46C N38C 1_555 1_555
N59C C46C 1_555 1_555
C65C N59C 1_555 1_555
N64C C65C 1_555 1_555
C258C N62C 1_555 1_555
O36C C258C 1_555 1_555
C268C C50C 1_555 1_555
C260C N59C 1_555 1_555
O9C C260C 1_555 1_555
N39C C16C 1_555 1_555
C39C N39C 1_555 1_555
N40C C39C 1_555 1_555
C7C N40C 1_555 1_555
O29C C7C 1_555 1_555
N29C C7C 1_555 1_555
C21C N25C 1_555 1_555
C33C N29C 1_555 1_555
C28C N40C 1_555 1_555
N42C C28C 1_555 1_555
C35C N42C 1_555 1_555
O28C C35C 1_555 1_555
N41C C33C 1_555 1_555
C20C N41C 1_555 1_555
N27C C3 1_555 1_555
C55C N43C 1_555 1_555
O10C C5 1_555 1_555
C29C C29 1_555 1_555
N12C C5 1_555 1_555
C48C N12C 1_555 1_555
N15C C48C 1_555 1_555
C30C N15C 1_555 1_555
O24C C30C 1_555 1_555
N16C C30C 1_555 1_555
C99C N16C 1_555 1_555
C113C N15C 1_555 1_555
N14C C113C 1_555 1_555
C23C N14C 1_555 1_555
N13C C59 1_555 1_555
N4C C34 1_555 1_555
C221C N4C 1_555 1_555
N72C C221C 1_555 1_555
C92C N72C 1_555 1_555
C300C C92C 1_555 1_555
N24C C300C 1_555 1_555
C83C N24C 1_555 1_555
O16C C83C 1_555 1_555
N23C C92C 1_555 1_555
C201C N23C 1_555 1_555
N5C C318 1_555 1_555
C263C N4C 1_555 1_555
O8C C318 1_555 1_555
C140C N24C 1_555 1_555
N11C C140C 1_555 1_555
C243C N11C 1_555 1_555
C101C C243C 1_555 1_555
C344C C101C 1_555 1_555
C208C C344C 1_555 1_555
N73C C99C 1_555 1_555
C97C N14C 1_555 1_555
O17C C97C 1_555 1_555
N20C N11C 1_555 1_555
C369C N20C 1_555 1_555
N21C C101C 1_555 1_555
C285C N21C 1_555 1_555
O3C C285C 1_555 1_555
N10C C243C 1_555 1_555
C275C N10C 1_555 1_555
N71C C300C 1_555 1_555
C112C N72C 1_555 1_555
O15C C112C 1_555 1_555
C320C N16C 1_555 1_555
C67C C67 1_555 1_555
C335C C335 1_555 1_555
C171C C335C 1_555 1_555
C107C C171C 1_555 1_555
C117C C107C 1_555 1_555
C307C C117C 1_555 1_555
C277C C307C 1_555 1_555
C295C C277C 1_555 1_555
C148C C295C 1_555 1_555
C261C C148C 1_555 1_555
C126C C261C 1_555 1_555
N65C C261C 1_555 1_555
C49C N65C 1_555 1_555
N58C C49C 1_555 1_555
C40C N58C 1_555 1_555
O22C C40C 1_555 1_555
N36C C40C 1_555 1_555
C26C N36C 1_555 1_555
N28C C6 1_555 1_555
C27C C27 1_555 1_555
C63C C63 1_555 1_555
C257C C63 1_555 1_555
N48C C257 1_555 1_555
C56C N48C 1_555 1_555
N33C C56C 1_555 1_555
C74C N36C 1_555 1_555
C90C N33C 1_555 1_555
O42C C90C 1_555 1_555
N68C C90C 1_555 1_555
C349C N58C 1_555 1_555
C298C N65C 1_555 1_555
C78C C298C 1_555 1_555
C327C C78C 1_555 1_555
C330C C148C 1_555 1_555
C272C C330C 1_555 1_555
C278C C307C 1_555 1_555
C293C C107C 1_555 1_555
C239C C293C 1_555 1_555
C224C C342 1_555 1_555
C144C C53 1_555 1_555
C220C C144C 1_555 1_555
C371C C220C 1_555 1_555
C297C C371C 1_555 1_555
C85C C297C 1_555 1_555
C70C C37 1_555 1_555
C114C C64C 1_555 1_555
C64C N19 1_555 1_555
C357C C73 1_555 1_555
C58C C357C 1_555 1_555
C276C C51 1_555 1_555
C124C C276C 1_555 1_555
C322C C124C 1_555 1_555
C57C C57 1_555 1_555
C128C C57C 1_555 1_555
C61C C61 1_555 1_555
C363C C61C 1_555 1_555
C313C C95 1_555 1_555
C105C C105 1_555 1_555
C132C C111 1_555 1_555
C120C C120 1_555 1_555
C356C C120C 1_555 1_555
C121C C121 1_555 1_555
C168C C121C 1_555 1_555
C282C C136 1_555 1_555
C196C C175 1_555 1_555
C302C C121C 1_555 1_555
C129C C129 1_555 1_555
C212C C152 1_555 1_555
C351C C212C 1_555 1_555
C228C C169 1_555 1_555
N17C C359 1_555 1_555
C292C C179 1_555 1_555
C242C C182 1_555 1_555
C325C C190C 1_555 1_555
C205C C205 1_555 1_555
C306C C205C 1_555 1_555
C328C C206C 1_555 1_555
C222C C222 1_555 1_555
C347C C222C 1_555 1_555
C248C C248 1_555 1_555
C346C C248C 1_555 1_555
C354C C248C 1_555 1_555
C305C C250C 1_555 1_555
C352C C301 1_555 1_555
C10 N27 1_555 1_555
C14 N35 1_555 1_555
C15 N53 1_555 1_555
C21 N29 1_555 1_555
C25 N31 1_555 1_555
C28 N40 1_555 1_555
C31 N44 1_555 1_555
C33 N41 1_555 1_555
C35 N41 1_555 1_555
C35 N42 1_555 1_555
C38 N43 1_555 1_555
C39 N40 1_555 1_555
C40 N36 1_555 1_555
C41 N61 1_555 1_555
C42 N49 1_555 1_555
C43 N51 1_555 1_555
C43 N53 1_555 1_555
C47 N35 1_555 1_555
N3 C234 1_555 1_555
C48 N15 1_555 1_555
C50 N62 1_555 1_555
N5 C263 1_555 1_555
C52 N60 1_555 1_555
N6 C184 1_555 1_555
N6 C209 1_555 1_555
C54 N44 1_555 1_555
C55 N43 1_555 1_555
C56 N48 1_555 1_555
C59 N13 1_555 1_555
C62 N57 1_555 1_555
C62 N34 1_555 1_555
C66 N61 1_555 1_555
C74 N36 1_555 1_555
C77 N49 1_555 1_555
C87 N67 1_555 1_555
C92 N23 1_555 1_555
C93 N57 1_555 1_555
N7 C358 1_555 1_555
C96 N32 1_555 1_555
C96 N45 1_555 1_555
C97 N14 1_555 1_555
C98 N67 1_555 1_555
N8 C262 1_555 1_555
C99 N73 1_555 1_555
C99 N16 1_555 1_555
C100 N45 1_555 1_555
C102 N54 1_555 1_555
C104 N69 1_555 1_555
C112 N72 1_555 1_555
C113 N15 1_555 1_555
C115 N52 1_555 1_555
C115 N47 1_555 1_555
C125 N19 1_555 1_555
C132 C132C 1_555 1_555
C140 N24 1_555 1_555
C154 N56 1_555 1_555
C161 N9 1_555 1_555
C200 N70 1_555 1_555
C208 N73 1_555 1_555
C218 N18 1_555 1_555
C257 C257C 1_555 1_555
C257 C63C 1_555 1_555
C258 N62 1_555 1_555
C258 N64 1_555 1_555
C260 N59 1_555 1_555
C260 N39 1_555 1_555
C268 N66 1_555 1_555
C268 N64 1_555 1_555
C272 C330 1_555 1_555
C275 N71 1_555 1_555
C278 C307 1_555 1_555
C285 N21 1_555 1_555
C298 N65 1_555 1_555
C299 N60 1_555 1_555
C300 N71 1_555 1_555
C309 N70 1_555 1_555
C309 N18 1_555 1_555
C313 C313C 1_555 1_555
C320 N21 1_555 1_555
C326 N57C 1_555 1_555
C332 N55 1_555 1_555
C334 C313C 1_555 1_555
C349 N68 1_555 1_555
O8 O8C 1_555 1_555
O14 N31 1_555 1_555
N11 N20 1_555 1_555
N48 C257C 1_555 1_555
C25C N26C 1_555 1_555
C25C N31C 1_555 1_555
N34C C62C 1_555 1_555
N47C C115C 1_555 1_555
C13C N31C 1_555 1_555
C47C C43C 1_555 1_555
C9C N35C 1_555 1_555
N35C C14C 1_555 1_555
C66C N61C 1_555 1_555
C19C N46C 1_555 1_555
N56C C299C 1_555 1_555
N54C C77C 1_555 1_555
C77C C299C 1_555 1_555
C93C N57C 1_555 1_555
N57C C62C 1_555 1_555
C54C N37C 1_555 1_555
C54C N44C 1_555 1_555
C104C C96C 1_555 1_555
C17C N55C 1_555 1_555
N2C C358C 1_555 1_555
N6C C184C 1_555 1_555
C234C N3C 1_555 1_555
C262C N8C 1_555 1_555
N18C C161C 1_555 1_555
C161C C200C 1_555 1_555
N70C C192C 1_555 1_555
N70C C309C 1_555 1_555
N44C C31C 1_555 1_555
C10C N25C 1_555 1_555
C10C N27C 1_555 1_555
N67C C87C 1_555 1_555
C87C N50C 1_555 1_555
C266C C98C 1_555 1_555
N66C C268C 1_555 1_555
C16C C46C 1_555 1_555
N64C C258C 1_555 1_555
N64C C268C 1_555 1_555
C260C N39C 1_555 1_555
N29C C21C 1_555 1_555
C33C C28C 1_555 1_555
N42C C55C 1_555 1_555
C35C N41C 1_555 1_555
C20C N27C 1_555 1_555
C29C N12C 1_555 1_555
C29C N13C 1_555 1_555
C99C C113C 1_555 1_555
C23C N13C 1_555 1_555
C83C N23C 1_555 1_555
C201C N5C 1_555 1_555
N5C C263C 1_555 1_555
C344C N20C 1_555 1_555
C208C N73C 1_555 1_555
N73C C97C 1_555 1_555
N21C C320C 1_555 1_555
C285C N10C 1_555 1_555
C275C N71C 1_555 1_555
N71C C112C 1_555 1_555
C67C C335C 1_555 1_555
C26C N28C 1_555 1_555
N28C C27C 1_555 1_555
C27C N48C 1_555 1_555
C63C C257C 1_555 1_555
C257C N48C 1_555 1_555
N33C C74C 1_555 1_555
N68C C349C 1_555 1_555
C298C C330C 1_555 1_555
C272C C278C 1_555 1_555
C278C C293C 1_555 1_555
C224C C144C 1_555 1_555
C196C C302C 1_555 1_555

#END
