
#######################################################################
#
#                 Cambridge Crystallographic Data Centre
#                                CCDC 
#
#######################################################################
#
# If this CIF has been generated from an entry in the Cambridge 
# Structural Database, then it will include bibliographic, chemical, 
# crystal, experimental, refinement or atomic coordinate data resulting 
# from the CCDC's data processing and validation procedures.
#
#######################################################################

data_ESUJOR01
_chemical_formula_moiety         'C10 H7 F3 N2'
_chemical_name_systematic        5-phenyl-3-(trifluoromethyl)-1H-pyrazole
_symmetry_cell_setting           triclinic
_symmetry_space_group_name_H-M   'P -1'
_symmetry_Int_Tables_number      2
_space_group_name_Hall           '-P 1'
loop_
_symmetry_equiv_pos_site_id
_symmetry_equiv_pos_as_xyz
1 x,y,z
2 -x,-y,-z
_cell_length_a                   9.9013(7)
_cell_length_b                   9.9393(8)
_cell_length_c                   21.0212(16)
_cell_angle_alpha                80.533(7)
_cell_angle_beta                 87.495(6)
_cell_angle_gamma                89.524(6)
_cell_volume                     2038.61
_exptl_crystal_colour            colorless
_exptl_crystal_description       plate
_cell_formula_units_Z            8
loop_
_atom_site_label
_atom_site_type_symbol
_atom_site_fract_x
_atom_site_fract_y
_atom_site_fract_z
N1 N 0.4749(3) 0.7684(4) 0.19417(17)
H1 H 0.4612 0.7897 0.2320
N2 N 0.5609(4) 0.6695(4) 0.18204(17)
C1 C 0.2884(6) 1.0368(6) 0.0923(3)
H2 H 0.3368 1.0332 0.0537
C2 C 0.1921(9) 1.1383(8) 0.0955(5)
H3 H 0.1759 1.2024 0.0591
C3 C 0.1225(9) 1.1435(9) 0.1514(6)
H4 H 0.0587 1.2120 0.1536
C4 C 0.1443(6) 1.0505(9) 0.2044(4)
H5 H 0.0957 1.0558 0.2428
C5 C 0.2376(5) 0.9480(7) 0.2021(3)
H6 H 0.2500 0.8830 0.2386
C6 C 0.3124(5) 0.9414(5) 0.1462(3)
C7 C 0.4120(5) 0.8310(5) 0.1420(2)
C8 C 0.4599(5) 0.7682(5) 0.0918(2)
H7 H 0.4366 0.7870 0.0489
C9 C 0.5506(5) 0.6708(5) 0.1193(2)
C10 C 0.6284(7) 0.5702(8) 0.0871(4)
F1 F 0.5604(15) 0.4481(12) 0.0941(6)
F2 F 0.7441(12) 0.5417(16) 0.1087(8)
F3 F 0.6400(18) 0.6112(15) 0.0241(4)
N3 N 0.6279(3) 0.9466(4) 0.30730(16)
H8 H 0.6729 0.9706 0.2713
N4 N 0.5210(4) 0.8638(4) 0.31346(17)
C11 C 0.8231(6) 1.1662(8) 0.3110(4)
H9 H 0.7889 1.1613 0.2710
C12 C 0.9261(7) 1.2562(9) 0.3160(6)
H10 H 0.9620 1.3099 0.2788
C13 C 0.9763(9) 1.2685(13) 0.3736(9)
H11 H 1.0434 1.3320 0.3764
C14 C 0.9277(11) 1.1878(15) 0.4259(7)
H12 H 0.9649 1.1931 0.4653
C15 C 0.8232(8) 1.0954(9) 0.4245(4)
H13 H 0.7890 1.0425 0.4624
C16 C 0.7712(5) 1.0840(7) 0.3652(3)
C17 C 0.6591(5) 0.9892(5) 0.3626(2)
C18 C 0.5664(5) 0.9280(7) 0.4076(2)
H14 H 0.5594 0.9352 0.4512
C19 C 0.4850(5) 0.8527(6) 0.3749(2)
C20 C 0.3660(8) 0.7659(10) 0.4002(3)
F7 F 0.2543(8) 0.8450(10) 0.4013(7)
F8 F 0.3750(17) 0.697(2) 0.4547(6)
F9 F 0.3324(9) 0.6793(9) 0.3596(5)
N5 N 0.8650(3) 0.8241(4) 0.19894(16)
H15 H 0.8709 0.7712 0.2355
N6 N 0.7839(4) 0.9343(4) 0.19026(16)
C21 C 1.0887(6) 0.6279(6) 0.2017(4)
H16 H 1.0607 0.6541 0.2406
C22 C 1.1855(7) 0.5249(8) 0.2018(5)
H17 H 1.2218 0.4810 0.2398
C23 C 1.2231(9) 0.4928(9) 0.1443(6)
H18 H 1.2896 0.4263 0.1439
C24 C 1.1759(9) 0.5454(10) 0.0891(5)
H19 H 1.2061 0.5148 0.0515
C25 C 1.0747(7) 0.6536(7) 0.0871(3)
H20 H 1.0396 0.6949 0.0483
C26 C 1.0331(5) 0.6921(6) 0.1453(3)
C27 C 0.9360(5) 0.8042(5) 0.1453(2)
C28 C 0.8977(5) 0.9094(6) 0.0983(2)
H21 H 0.9275 0.9258 0.0552
C29 C 0.8061(5) 0.9854(5) 0.1288(2)
C30 C 0.7346(9) 1.1125(8) 0.1014(4)
F13 F 0.793(2) 1.1627(17) 0.0430(7)
F14 F 0.6173(15) 1.1051(17) 0.0927(12)
F15 F 0.756(2) 1.2080(15) 0.1353(9)
N7 N 0.6876(4) 0.5591(4) 0.29940(16)
H22 H 0.6575 0.5633 0.2613
N8 N 0.7893(3) 0.6376(4) 0.31262(17)
C31 C 0.5065(6) 0.3298(6) 0.2891(3)
H23 H 0.5603 0.3606 0.2523
C32 C 0.4035(7) 0.2353(7) 0.2874(4)
H24 H 0.3891 0.2037 0.2490
C33 C 0.3258(7) 0.1898(7) 0.3394(5)
H25 H 0.2585 0.1263 0.3370
C34 C 0.3431(6) 0.2345(8) 0.3958(4)
H26 H 0.2871 0.2032 0.4318
C35 C 0.4448(5) 0.3273(7) 0.3997(3)
H27 H 0.4575 0.3565 0.4388
C36 C 0.5276(5) 0.3772(5) 0.3467(3)
C37 C 0.6370(4) 0.4732(5) 0.3511(2)
C38 C 0.7125(5) 0.4987(6) 0.4018(2)
H28 H 0.7038 0.4566 0.4447
C39 C 0.8022(4) 0.5982(5) 0.3759(2)
C40 C 0.9063(6) 0.6653(8) 0.4089(3)
F19 F 0.8556(11) 0.7239(14) 0.4562(6)
F20 F 0.9382(12) 0.7855(9) 0.3815(7)
F21 F 1.0137(5) 0.5899(5) 0.4187(3)
F4? F 0.7313(17) 0.631(2) 0.0496(10)
F5? F 0.5688(19) 0.496(2) 0.0609(10)
F6? F 0.705(2) 0.490(2) 0.1336(8)
F10? F 0.405(2) 0.646(2) 0.4331(13)
F11? F 0.278(2) 0.759(3) 0.3595(13)
F12? F 0.306(2) 0.815(2) 0.4470(10)
F16? F 0.6338(14) 1.1443(13) 0.1456(5)
F17? F 0.8083(13) 1.2164(13) 0.0879(11)
F18? F 0.6547(19) 1.0908(17) 0.0550(6)
F22? F 0.988(2) 0.742(3) 0.3670(12)
F23? F 0.8898(15) 0.6374(16) 0.4711(6)
loop_
_geom_bond_atom_site_label_1
_geom_bond_atom_site_label_2
_geom_bond_site_symmetry_1
_geom_bond_site_symmetry_2
N1 H1 1_555 1_555
N2 N1 1_555 1_555
C1 H2 1_555 1_555
C2 C1 1_555 1_555
H3 C2 1_555 1_555
C3 C2 1_555 1_555
H4 C3 1_555 1_555
C4 C3 1_555 1_555
H5 C4 1_555 1_555
C5 C4 1_555 1_555
H6 C5 1_555 1_555
C6 C1 1_555 1_555
C7 N1 1_555 1_555
C8 C7 1_555 1_555
H7 C8 1_555 1_555
C9 N2 1_555 1_555
C10 C9 1_555 1_555
F1 C10 1_555 1_555
F2 C10 1_555 1_555
F3 C10 1_555 1_555
N3 H8 1_555 1_555
N4 N3 1_555 1_555
C11 H9 1_555 1_555
C12 C11 1_555 1_555
H10 C12 1_555 1_555
C13 C12 1_555 1_555
H11 C13 1_555 1_555
C14 C13 1_555 1_555
H12 C14 1_555 1_555
C15 C14 1_555 1_555
H13 C15 1_555 1_555
C16 C11 1_555 1_555
C17 N3 1_555 1_555
C18 C17 1_555 1_555
H14 C18 1_555 1_555
C19 N4 1_555 1_555
C20 C19 1_555 1_555
F7 C20 1_555 1_555
F8 C20 1_555 1_555
F9 C20 1_555 1_555
N5 H15 1_555 1_555
N6 N5 1_555 1_555
C21 H16 1_555 1_555
C22 C21 1_555 1_555
H17 C22 1_555 1_555
C23 C22 1_555 1_555
H18 C23 1_555 1_555
C24 C23 1_555 1_555
H19 C24 1_555 1_555
C25 C24 1_555 1_555
H20 C25 1_555 1_555
C26 C21 1_555 1_555
C27 N5 1_555 1_555
C28 C27 1_555 1_555
H21 C28 1_555 1_555
C29 N6 1_555 1_555
C30 C29 1_555 1_555
F13 C30 1_555 1_555
F14 C30 1_555 1_555
F15 C30 1_555 1_555
N7 H22 1_555 1_555
N8 N7 1_555 1_555
C31 H23 1_555 1_555
C32 C31 1_555 1_555
H24 C32 1_555 1_555
C33 C32 1_555 1_555
H25 C33 1_555 1_555
C34 C33 1_555 1_555
H26 C34 1_555 1_555
C35 C34 1_555 1_555
H27 C35 1_555 1_555
C36 C31 1_555 1_555
C37 N7 1_555 1_555
C38 C37 1_555 1_555
H28 C38 1_555 1_555
C39 N8 1_555 1_555
C40 C39 1_555 1_555
F19 C40 1_555 1_555
F20 C40 1_555 1_555
F21 C40 1_555 1_555
C5 C6 1_555 1_555
C6 C7 1_555 1_555
C8 C9 1_555 1_555
C15 C16 1_555 1_555
C16 C17 1_555 1_555
C18 C19 1_555 1_555
C25 C26 1_555 1_555
C26 C27 1_555 1_555
C28 C29 1_555 1_555
C35 C36 1_555 1_555
C36 C37 1_555 1_555
C38 C39 1_555 1_555

#END
