
#######################################################################
#
#                 Cambridge Crystallographic Data Centre
#                                CCDC 
#
#######################################################################
#
# If this CIF has been generated from an entry in the Cambridge 
# Structural Database, then it will include bibliographic, chemical, 
# crystal, experimental, refinement or atomic coordinate data resulting 
# from the CCDC's data processing and validation procedures.
#
#######################################################################

data_ESUJEJ
_chemical_formula_moiety         'C20 H16 F2 N4 O1 2+,H2 O1,2(Cl1 1-)'
_chemical_name_systematic        
'2-(2-((2-ammonio-4-fluorobenzoyl)amino)-4-fluorophenyl)-1H-benzimidazol-3-ium dichloride monohydrate'
_symmetry_cell_setting           triclinic
_symmetry_space_group_name_H-M   'P -1'
_symmetry_Int_Tables_number      2
_space_group_name_Hall           '-P 1'
loop_
_symmetry_equiv_pos_site_id
_symmetry_equiv_pos_as_xyz
1 x,y,z
2 -x,-y,-z
_cell_length_a                   9.4995(17)
_cell_length_b                   10.9617(18)
_cell_length_c                   11.312(2)
_cell_angle_alpha                111.454(8)
_cell_angle_beta                 90.205(9)
_cell_angle_gamma                107.450(8)
_cell_volume                     1037.31
_exptl_crystal_colour            colorless
_exptl_crystal_description       prism
_cell_formula_units_Z            2
loop_
_atom_site_label
_atom_site_type_symbol
_atom_site_fract_x
_atom_site_fract_y
_atom_site_fract_z
Cl1 Cl 0.07382(7) 0.00459(7) 0.68803(6)
Cl2 Cl 0.75573(7) 0.52338(7) 0.45062(6)
F1 F 0.5462(2) 0.92475(17) 0.87519(16)
F2 F 0.43816(18) -0.11207(15) 0.24288(14)
N1 N 0.1949(2) 0.1743(2) 0.5259(2)
H1 H 0.120(3) 0.126(3) 0.460(3)
H2 H 0.200(3) 0.263(3) 0.544(3)
H3 H 0.166(3) 0.143(3) 0.596(3)
O1 O 0.39593(17) 0.35757(16) 0.74931(14)
N2 N 0.7110(2) 0.4852(2) 1.04118(18)
H4 H 0.668(3) 0.524(3) 1.104(2)
N3 N 0.8086(2) 0.4443(2) 0.86405(18)
H5 H 0.843(3) 0.451(3) 0.794(2)
N4 N 0.59791(19) 0.47944(19) 0.68810(17)
H6 H 0.630(3) 0.488(2) 0.618(2)
C1 C 0.7793(2) 0.3888(2) 1.0345(2)
C2 C 0.8424(2) 0.3633(2) 0.9213(2)
C3 C 0.9203(3) 0.2696(3) 0.8840(2)
H7 H 0.9638 0.2529 0.8086
C4 C 0.9299(3) 0.2033(3) 0.9630(3)
H8 H 0.9798 0.1385 0.9399
C5 C 0.8675(3) 0.2292(3) 1.0777(3)
H9 H 0.8776 0.1820 1.1292
C6 C 0.7915(3) 0.3233(3) 1.1159(2)
H10 H 0.7505 0.3418 1.1925
C7 C 0.7293(2) 0.5173(2) 0.9380(2)
C8 C 0.6778(2) 0.6200(2) 0.9167(2)
C9 C 0.6188(2) 0.6036(2) 0.7966(2)
C10 C 0.5749(3) 0.7074(3) 0.7827(2)
H11 H 0.5355 0.6976 0.7031
C11 C 0.5909(3) 0.8253(3) 0.8893(2)
C12 C 0.6458(3) 0.8441(3) 1.0079(2)
H12 H 0.6534 0.9248 1.0781
C13 C 0.6894(2) 0.7418(2) 1.0219(2)
H13 H 0.7274 0.7532 1.1025
C14 C 0.4829(2) 0.3644(2) 0.6700(2)
C15 C 0.4703(2) 0.2422(2) 0.55035(19)
C16 C 0.3324(2) 0.1501(2) 0.4856(2)
C17 C 0.3215(3) 0.0320(2) 0.3798(2)
H14 H 0.2292 -0.0283 0.3351
C18 C 0.4489(3) 0.0058(2) 0.3423(2)
C19 C 0.5880(3) 0.0942(2) 0.4010(2)
H15 H 0.6735 0.0752 0.3717
C20 C 0.5958(2) 0.2128(2) 0.5056(2)
H16 H 0.6888 0.2747 0.5471
O2 O 0.9298(2) 0.4623(3) 0.65013(19)
H17 H 1.022(4) 0.464(4) 0.637(4)
H18 H 0.884(4) 0.485(4) 0.592(4)
loop_
_geom_bond_atom_site_label_1
_geom_bond_atom_site_label_2
_geom_bond_site_symmetry_1
_geom_bond_site_symmetry_2
F1 C11 1_555 1_555
F2 C18 1_555 1_555
N1 H1 1_555 1_555
H2 N1 1_555 1_555
H3 N1 1_555 1_555
O1 C14 1_555 1_555
N2 H4 1_555 1_555
N3 H5 1_555 1_555
N4 H6 1_555 1_555
C1 N2 1_555 1_555
C2 N3 1_555 1_555
C3 C2 1_555 1_555
H7 C3 1_555 1_555
C4 C3 1_555 1_555
H8 C4 1_555 1_555
C5 C4 1_555 1_555
H9 C5 1_555 1_555
C6 C1 1_555 1_555
H10 C6 1_555 1_555
C7 N2 1_555 1_555
C8 C7 1_555 1_555
C9 N4 1_555 1_555
C10 C9 1_555 1_555
H11 C10 1_555 1_555
C11 C10 1_555 1_555
C12 C11 1_555 1_555
H12 C12 1_555 1_555
C13 C8 1_555 1_555
H13 C13 1_555 1_555
C14 N4 1_555 1_555
C15 C14 1_555 1_555
C16 N1 1_555 1_555
C17 C16 1_555 1_555
H14 C17 1_555 1_555
C18 C17 1_555 1_555
C19 C18 1_555 1_555
H15 C19 1_555 1_555
C20 C15 1_555 1_555
H16 C20 1_555 1_555
O2 H17 1_555 1_555
H18 O2 1_555 1_555
N3 C7 1_555 1_555
C1 C2 1_555 1_555
C5 C6 1_555 1_555
C8 C9 1_555 1_555
C12 C13 1_555 1_555
C15 C16 1_555 1_555
C19 C20 1_555 1_555

#END
