
#######################################################################
#
#                 Cambridge Crystallographic Data Centre
#                                CCDC 
#
#######################################################################
#
# If this CIF has been generated from an entry in the Cambridge 
# Structural Database, then it will include bibliographic, chemical, 
# crystal, experimental, refinement or atomic coordinate data resulting 
# from the CCDC's data processing and validation procedures.
#
#######################################################################

data_ESUKEJ
_chemical_compound_source        'Penicillium spp'
_chemical_name_common            'tryptoquialanine dichloromethane solvate'
_chemical_formula_moiety         'C27 H26 N4 O7,0.5(C1 H2 Cl2)'
_chemical_name_systematic        
"1-(3-(1'-Hydroxy-2',2'-dimethyl-3',5-dioxo-1',2',3',4,5,9a'-hexahydro-3H-spiro[furan-2,9'-imidazo[1,2-a]indol]-4-yl)-4-oxo-3,4-dihydroquinazolin-2-yl)ethyl acetate dichloromethane solvate"
_symmetry_cell_setting           orthorhombic
_symmetry_space_group_name_H-M   'C 2 2 21'
_symmetry_Int_Tables_number      20
_space_group_name_Hall           'C 2n 2'
loop_
_symmetry_equiv_pos_site_id
_symmetry_equiv_pos_as_xyz
1 x,y,z
2 -x,-y,1/2+z
3 -x,y,1/2-z
4 x,-y,-z
5 1/2+x,1/2+y,z
6 1/2-x,1/2-y,1/2+z
7 1/2-x,1/2+y,1/2-z
8 1/2+x,1/2-y,-z
_cell_length_a                   14.158(10)
_cell_length_b                   21.005(14)
_cell_length_c                   18.336(12)
_cell_angle_alpha                90
_cell_angle_beta                 90
_cell_angle_gamma                90
_cell_volume                     5452.92
_exptl_crystal_colour            colorless
_exptl_crystal_description       platelet
_cell_formula_units_Z            8
loop_
_atom_site_label
_atom_site_type_symbol
_atom_site_fract_x
_atom_site_fract_y
_atom_site_fract_z
N1 N 0.3913(2) 0.65559(18) 0.18929(16)
C1 C 0.4081(3) 0.65803(19) 0.11095(19)
H1 H 0.4754 0.6520 0.1005
C2 C 0.3762(2) 0.72421(18) 0.08692(17)
C3 C 0.3781(2) 0.7604(2) 0.15878(19)
C4 C 0.3721(3) 0.8253(2) 0.1711(2)
H2 H 0.3706 0.8544 0.1329
C5 C 0.3683(3) 0.8452(3) 0.2445(3)
H3 H 0.3656 0.8886 0.2546
C6 C 0.3686(3) 0.8034(3) 0.3011(3)
H4 H 0.3643 0.8186 0.3486
C7 C 0.3752(3) 0.7378(3) 0.2889(2)
H5 H 0.3762 0.7089 0.3274
C8 C 0.3802(2) 0.7179(2) 0.21654(19)
O1 O 0.27683(15) 0.72037(12) 0.06285(12)
C9 C 0.2622(2) 0.75013(18) -0.00104(19)
C10 C 0.3532(2) 0.78165(18) -0.02550(17)
H6 H 0.3492 0.8270 -0.0134
C11 C 0.4300(2) 0.75247(18) 0.02129(18)
H7 H 0.4748 0.7846 0.0371
H8 H 0.4636 0.7195 -0.0052
C12 C 0.3580(3) 0.5978(3) 0.2114(2)
C13 C 0.3597(3) 0.5546(2) 0.1439(3)
N2 N 0.3541(3) 0.60410(17) 0.08490(18)
N3 N 0.36600(19) 0.77603(14) -0.10509(14)
C14 C 0.3593(2) 0.71445(18) -0.13258(18)
C15 C 0.3726(2) 0.70863(18) -0.21088(18)
C16 C 0.3747(3) 0.6488(2) -0.2440(2)
H9 H 0.3692 0.6122 -0.2158
C17 C 0.3850(3) 0.6441(2) -0.3189(2)
H10 H 0.3867 0.6044 -0.3413
C18 C 0.3928(3) 0.6996(2) -0.3606(2)
H11 H 0.3990 0.6964 -0.4110
C19 C 0.3915(2) 0.7580(2) -0.32884(19)
H12 H 0.3968 0.7944 -0.3575
C20 C 0.3821(2) 0.76381(18) -0.25292(18)
N4 N 0.3866(2) 0.82398(16) -0.22114(16)
C21 C 0.3802(2) 0.82827(17) -0.15132(19)
C22 C 0.3953(3) 0.89266(19) -0.1165(2)
H13 H 0.3465 0.9000 -0.0796
C23 C 0.3963(5) 0.9473(2) -0.1697(3)
H14 H 0.4405 0.9385 -0.2081
H15 H 0.4148 0.9856 -0.1449
H16 H 0.3344 0.9528 -0.1901
C24 C 0.4522(3) 0.5161(2) 0.1432(3)
H17 H 0.4543 0.4887 0.1851
H18 H 0.5050 0.5448 0.1444
H19 H 0.4551 0.4909 0.0996
C25 C 0.2735(4) 0.5119(3) 0.1409(4)
H20 H 0.2174 0.5375 0.1436
H21 H 0.2748 0.4828 0.1813
H22 H 0.2737 0.4884 0.0960
O2 O 0.4876(2) 0.88897(13) -0.08141(16)
C26 C 0.4978(4) 0.90986(17) -0.0125(3)
O3 O 0.4328(3) 0.92766(18) 0.0240(2)
C27 C 0.5989(4) 0.9069(3) 0.0109(3)
H23 H 0.6029 0.9142 0.0625
H24 H 0.6344 0.9390 -0.0144
H25 H 0.6243 0.8657 -0.0004
O4 O 0.3351(3) 0.5834(2) 0.27315(18)
O5 O 0.3997(3) 0.58052(16) 0.01932(17)
H26 H 0.3682 0.5905 -0.0164
O6 O 0.18572(17) 0.75302(13) -0.02936(13)
O7 O 0.3433(2) 0.67010(12) -0.09099(13)
C28? C 0.2124(15) 1.0016(5) 0.9606(11)
H27? H 0.1989 1.0047 0.9089
H28? H 0.2806 1.0011 0.9662
Cl1? Cl 0.16592(19) 1.07246(15) 1.00610(19)
loop_
_geom_bond_atom_site_label_1
_geom_bond_atom_site_label_2
_geom_bond_site_symmetry_1
_geom_bond_site_symmetry_2
N1 C1 1_555 1_555
C1 H1 1_555 1_555
C2 C1 1_555 1_555
C3 C2 1_555 1_555
C4 C3 1_555 1_555
H2 C4 1_555 1_555
C5 C4 1_555 1_555
H3 C5 1_555 1_555
C6 C5 1_555 1_555
H4 C6 1_555 1_555
C7 C6 1_555 1_555
H5 C7 1_555 1_555
C8 N1 1_555 1_555
O1 C2 1_555 1_555
C9 O1 1_555 1_555
C10 C9 1_555 1_555
H6 C10 1_555 1_555
C11 C2 1_555 1_555
H7 C11 1_555 1_555
H8 C11 1_555 1_555
C12 N1 1_555 1_555
C13 C12 1_555 1_555
N2 C1 1_555 1_555
N3 C10 1_555 1_555
C14 N3 1_555 1_555
C15 C14 1_555 1_555
C16 C15 1_555 1_555
H9 C16 1_555 1_555
C17 C16 1_555 1_555
H10 C17 1_555 1_555
C18 C17 1_555 1_555
H11 C18 1_555 1_555
C19 C18 1_555 1_555
H12 C19 1_555 1_555
C20 C15 1_555 1_555
N4 C20 1_555 1_555
C21 N3 1_555 1_555
C22 C21 1_555 1_555
H13 C22 1_555 1_555
C23 C22 1_555 1_555
H14 C23 1_555 1_555
H15 C23 1_555 1_555
H16 C23 1_555 1_555
C24 C13 1_555 1_555
H17 C24 1_555 1_555
H18 C24 1_555 1_555
H19 C24 1_555 1_555
C25 C13 1_555 1_555
H20 C25 1_555 1_555
H21 C25 1_555 1_555
H22 C25 1_555 1_555
O2 C22 1_555 1_555
C26 O2 1_555 1_555
O3 C26 1_555 1_555
C27 C26 1_555 1_555
H23 C27 1_555 1_555
H24 C27 1_555 1_555
H25 C27 1_555 1_555
O4 C12 1_555 1_555
O5 N2 1_555 1_555
H26 O5 1_555 1_555
O6 C9 1_555 1_555
O7 C14 1_555 1_555
C3 C8 1_555 1_555
C7 C8 1_555 1_555
C10 C11 1_555 1_555
C13 N2 1_555 1_555
C19 C20 1_555 1_555
N4 C21 1_555 1_555

#END
