
#######################################################################
#
#                 Cambridge Crystallographic Data Centre
#                                CCDC 
#
#######################################################################
#
# If this CIF has been generated from an entry in the Cambridge 
# Structural Database, then it will include bibliographic, chemical, 
# crystal, experimental, refinement or atomic coordinate data resulting 
# from the CCDC's data processing and validation procedures.
#
#######################################################################

data_ESUKIN
_chemical_name_common            
'15,15-dimethyl-2-epi-fumiquinazoline A acetone solvate'
_chemical_formula_moiety         'C25 H25 N5 O4,0.36(C3 H6 O1)'
_chemical_name_systematic        
'4-((9-Hydroxy-2,2-dimethyl-3-oxo-2,3,9,9a-tetrahydro-1H-imidazo[1,2-a]indol-9-yl)methyl)-1-methyl-2H-pyrazino[2,1-b]quinazoline-3,6(1H,4H)-dione acetone solvate'
_symmetry_cell_setting           hexagonal
_symmetry_space_group_name_H-M   'P 63'
_symmetry_Int_Tables_number      173
_space_group_name_Hall           'P 6c'
loop_
_symmetry_equiv_pos_site_id
_symmetry_equiv_pos_as_xyz
1 x,y,z
2 -y,x-y,z
3 -x+y,-x,z
4 -x,-y,1/2+z
5 y,-x+y,1/2+z
6 x-y,x,1/2+z
_cell_length_a                   21.974(3)
_cell_length_b                   21.974(3)
_cell_length_c                   10.8958(17)
_cell_angle_alpha                90
_cell_angle_beta                 90
_cell_angle_gamma                120
_cell_volume                     4556.25
_exptl_crystal_colour            colorless
_exptl_crystal_description       needle
_cell_formula_units_Z            6
loop_
_atom_site_label
_atom_site_type_symbol
_atom_site_fract_x
_atom_site_fract_y
_atom_site_fract_z
O1 O 0.3033(8) 0.0768(7) 0.0440(15)
C1 C 0.2421(12) 0.0503(9) 0.000(2)
C2 C 0.2043(11) -0.0284(10) -0.024(2)
H1 H 0.2305 -0.0489 0.0136
H2 H 0.2014 -0.0367 -0.1132
H3 H 0.1568 -0.0505 0.0102
C3 C 0.2155(11) 0.0965(11) -0.047(2)
H4 H 0.2465 0.1449 -0.0190
H5 H 0.1679 0.0798 -0.0159
H6 H 0.2147 0.0953 -0.1368
N1 N 0.42977(19) 0.13478(18) 0.8590(4)
C4 C 0.4737(2) 0.1107(2) 0.9179(5)
H7 H 0.5194 0.1286 0.8737
C5 C 0.4288(2) 0.0284(2) 0.9120(5)
C6 C 0.3769(2) 0.0178(2) 0.8087(4)
C7 C 0.3299(2) -0.0426(2) 0.7452(5)
H8 H 0.3297 -0.0854 0.7572
C8 C 0.2832(2) -0.0388(2) 0.6641(5)
H9 H 0.2507 -0.0797 0.6203
C9 C 0.2831(2) 0.0235(2) 0.6458(5)
H10 H 0.2502 0.0245 0.5903
C10 C 0.3306(2) 0.0852(3) 0.7077(5)
H11 H 0.3306 0.1280 0.6954
C11 C 0.3774(2) 0.0814(2) 0.7868(5)
O2 O 0.39027(17) 0.00222(17) 1.0243(3)
H12 H 0.4059 0.0345 1.0769
C12 C 0.5914(2) 0.0660(2) 0.9869(5)
C13 C 0.5214(2) -0.0017(2) 0.9903(5)
H13 H 0.4984 -0.0033 1.0704
C14 C 0.4701(2) -0.0093(2) 0.8872(4)
H14 H 0.4970 0.0093 0.8102
H15 H 0.4364 -0.0599 0.8745
C15 C 0.4304(2) 0.1884(2) 0.9217(5)
C16 C 0.4829(2) 0.2066(2) 1.0277(5)
N2 N 0.4843(2) 0.14074(19) 1.0392(4)
H16 H 0.4905 0.1229 1.1072
N3 N 0.53480(19) -0.06176(17) 0.9883(4)
C17 C 0.4954(2) -0.1177(2) 1.0694(5)
C18 C 0.5102(3) -0.1753(2) 1.0585(5)
C19 C 0.4750(3) -0.2347(2) 1.1338(6)
H17 H 0.4399 -0.2382 1.1890
C20 C 0.4904(3) -0.2877(3) 1.1288(6)
H18 H 0.4669 -0.3276 1.1807
C21 C 0.5410(4) -0.2823(3) 1.0466(6)
H19 H 0.5514 -0.3193 1.0422
C22 C 0.5767(3) -0.2249(3) 0.9711(6)
H20 H 0.6113 -0.2223 0.9157
C23 C 0.5610(3) -0.1700(2) 0.9775(5)
N4 N 0.5994(2) -0.1111(2) 0.9022(5)
C24 C 0.5851(2) -0.0610(2) 0.9117(5)
C25 C 0.6246(2) 0.0050(2) 0.8348(5)
H21 H 0.5944 0.0020 0.7638
C26 C 0.6934(3) 0.0150(3) 0.7861(5)
H22 H 0.7238 0.0186 0.8549
H23 H 0.7167 0.0580 0.7370
H24 H 0.6844 -0.0253 0.7348
C27 C 0.5547(2) 0.2695(2) 0.9910(5)
H25 H 0.5697 0.2595 0.9125
H26 H 0.5895 0.2772 1.0544
H27 H 0.5506 0.3117 0.9829
C28 C 0.4556(3) 0.2233(3) 1.1441(5)
H28 H 0.4871 0.2296 1.2127
H29 H 0.4084 0.1844 1.1625
H30 H 0.4537 0.2665 1.1321
N5 N 0.63847(19) 0.06638(19) 0.9105(4)
H31 H 0.6797 0.1048 0.9046
O3 O 0.39655(16) 0.21715(16) 0.8965(4)
O4 O 0.45411(16) -0.11477(15) 1.1416(3)
O5 O 0.60243(16) 0.11702(16) 1.0526(3)
loop_
_geom_bond_atom_site_label_1
_geom_bond_atom_site_label_2
_geom_bond_site_symmetry_1
_geom_bond_site_symmetry_2
O1 C1 1_555 1_555
C1 C2 1_555 1_555
C2 H1 1_555 1_555
H2 C2 1_555 1_555
H3 C2 1_555 1_555
C3 C1 1_555 1_555
H4 C3 1_555 1_555
H5 C3 1_555 1_555
H6 C3 1_555 1_555
N1 C4 1_555 1_555
C4 H7 1_555 1_555
C5 C4 1_555 1_555
C6 C5 1_555 1_555
C7 C6 1_555 1_555
H8 C7 1_555 1_555
C8 C7 1_555 1_555
H9 C8 1_555 1_555
C9 C8 1_555 1_555
H10 C9 1_555 1_555
C10 C9 1_555 1_555
H11 C10 1_555 1_555
C11 N1 1_555 1_555
O2 C5 1_555 1_555
H12 O2 1_555 1_555
C12 C13 1_555 1_555
C13 H13 1_555 1_555
C14 C5 1_555 1_555
H14 C14 1_555 1_555
H15 C14 1_555 1_555
C15 N1 1_555 1_555
C16 C15 1_555 1_555
N2 C4 1_555 1_555
H16 N2 1_555 1_555
N3 C13 1_555 1_555
C17 N3 1_555 1_555
C18 C17 1_555 1_555
C19 C18 1_555 1_555
H17 C19 1_555 1_555
C20 C19 1_555 1_555
H18 C20 1_555 1_555
C21 C20 1_555 1_555
H19 C21 1_555 1_555
C22 C21 1_555 1_555
H20 C22 1_555 1_555
C23 C18 1_555 1_555
N4 C23 1_555 1_555
C24 N3 1_555 1_555
C25 C24 1_555 1_555
H21 C25 1_555 1_555
C26 C25 1_555 1_555
H22 C26 1_555 1_555
H23 C26 1_555 1_555
H24 C26 1_555 1_555
C27 C16 1_555 1_555
H25 C27 1_555 1_555
H26 C27 1_555 1_555
H27 C27 1_555 1_555
C28 C16 1_555 1_555
H28 C28 1_555 1_555
H29 C28 1_555 1_555
H30 C28 1_555 1_555
N5 C12 1_555 1_555
H31 N5 1_555 1_555
O3 C15 1_555 1_555
O4 C17 1_555 1_555
O5 C12 1_555 1_555
C6 C11 1_555 1_555
C10 C11 1_555 1_555
C13 C14 1_555 1_555
C16 N2 1_555 1_555
C22 C23 1_555 1_555
N4 C24 1_555 1_555
C25 N5 1_555 1_555

#END
