
#######################################################################
#
#                 Cambridge Crystallographic Data Centre
#                                CCDC 
#
#######################################################################
#
# If this CIF has been generated from an entry in the Cambridge 
# Structural Database, then it will include bibliographic, chemical, 
# crystal, experimental, refinement or atomic coordinate data resulting 
# from the CCDC's data processing and validation procedures.
#
#######################################################################

data_ETAGOW
_chemical_formula_moiety         'C27 H28 N2 O5 S2'
_chemical_name_systematic        
'Ethyl 9-hydroxy-7-(4-methoxyphenyl)-6-isocyano-10-((4-methylphenyl)carbamoyl)-1,4-dithiaspiro[4.5]dec-9-ene-6-carboxylate'
_symmetry_cell_setting           monoclinic
_symmetry_space_group_name_H-M   'P 21/n'
_symmetry_Int_Tables_number      14
_space_group_name_Hall           '-P 2yn'
loop_
_symmetry_equiv_pos_site_id
_symmetry_equiv_pos_as_xyz
1 x,y,z
2 1/2-x,1/2+y,1/2-z
3 -x,-y,-z
4 1/2+x,1/2-y,1/2+z
_cell_length_a                   15.0260(16)
_cell_length_b                   11.9842(13)
_cell_length_c                   15.5208(16)
_cell_angle_alpha                90
_cell_angle_beta                 111.297(2)
_cell_angle_gamma                90
_cell_volume                     2604.04
_cell_formula_units_Z            4
loop_
_atom_site_label
_atom_site_type_symbol
_atom_site_fract_x
_atom_site_fract_y
_atom_site_fract_z
H1 H 0.0943(15) 0.3344(19) 0.9349(15)
H2 H -0.071(2) 0.603(2) 0.851(2)
N1 N 0.03988(12) 0.34525(14) 0.89889(13)
C1 C 0.08715(12) 0.54071(15) 0.90876(12)
S1 S 0.23332(3) 0.45199(4) 1.05395(3)
S2 S 0.22695(4) 0.41857(4) 0.86257(3)
N2 N 0.21995(11) 0.66127(13) 0.84105(11)
O1 O 0.40529(10) 0.62640(12) 0.92366(10)
O2 O 0.39495(8) 0.61035(11) 1.06326(9)
C2 C 0.19497(12) 0.51740(14) 0.93967(12)
O3 O -0.03841(10) 0.67351(13) 0.87766(11)
O4 O 0.44538(11) 1.11855(11) 1.05472(10)
C3 C 0.01436(13) 0.45172(17) 0.88000(13)
C4 C 0.24917(12) 0.63002(14) 0.93703(12)
C5 C 0.35942(13) 0.62053(14) 0.97232(14)
C6 C 0.11427(13) 0.74777(15) 0.94182(14)
H3 H 0.0913 0.7882 0.9838
H4 H 0.1066 0.7960 0.8894
C7 C 0.28105(13) 0.82810(15) 1.00756(13)
C8 C -0.01681(13) 0.24726(16) 0.87467(13)
C9 C 0.27483(15) 0.90490(16) 0.93869(14)
H5 H 0.2322 0.8917 0.8789
O5 O -0.07166(10) 0.47623(13) 0.83901(12)
C10 C 0.22012(12) 0.72334(15) 0.99110(12)
H6 H 0.2279 0.6928 1.0520
C11 C 0.05434(13) 0.64715(17) 0.90859(13)
C12 C -0.11947(15) 0.04598(18) 0.83656(15)
C13 C -0.11299(13) 0.24561(17) 0.81870(14)
H7 H -0.1442 0.3115 0.7933
C14 C -0.16191(15) 0.14577(18) 0.80100(15)
H8 H -0.2263 0.1460 0.7635
C15 C 0.28097(14) 0.30924(16) 0.94465(15)
H9 H 0.2334 0.2535 0.9425
H10 H 0.3311 0.2733 0.9293
C16 C 0.40164(15) 0.94703(16) 1.11382(15)
H11 H 0.4444 0.9607 1.1735
C17 C 0.34573(14) 0.85194(16) 1.09534(14)
H12 H 0.3517 0.8025 1.1433
C18 C 0.32211(13) 0.35909(17) 1.04027(15)
H13 H 0.3801 0.4000 1.0476
H14 H 0.3375 0.3006 1.0866
C19 C 0.39408(14) 1.02122(16) 1.04426(14)
C20 C 0.32978(15) 0.99979(17) 0.95618(14)
H15 H 0.3237 1.0498 0.9086
C21 C -0.02347(16) 0.04887(18) 0.89044(16)
H16 H 0.0078 -0.0175 0.9144
C22 C 0.02731(15) 0.14744(18) 0.90965(16)
H17 H 0.0919 0.1466 0.9465
C23 C 0.19729(19) 0.6845(2) 0.76444(17)
C24 C -0.17551(19) -0.06158(19) 0.8174(2)
H18 H -0.1327 -0.1232 0.8411
H19 H -0.2078 -0.0703 0.7519
H20 H -0.2216 -0.0597 0.8470
C25 C 0.51385(17) 1.1414(2) 1.14406(17)
H21 H 0.4821 1.1482 1.1875
H22 H 0.5463 1.2099 1.1424
H23 H 0.5593 1.0816 1.1627
C26 C 0.49900(14) 0.61571(19) 1.10701(16)
H24 H 0.5209 0.6917 1.1063
H25 H 0.5285 0.5688 1.0739
C27 C 0.52495(18) 0.5763(3) 1.20306(18)
H26 H 0.4965 0.6242 1.2355
H27 H 0.5932 0.5776 1.2334
H28 H 0.5021 0.5015 1.2029
loop_
_geom_bond_atom_site_label_1
_geom_bond_atom_site_label_2
_geom_bond_site_symmetry_1
_geom_bond_site_symmetry_2
H1 N1 1_555 1_555
H2 O3 1_555 1_555
N1 C3 1_555 1_555
C1 C2 1_555 1_555
S1 C2 1_555 1_555
S2 C2 1_555 1_555
N2 C4 1_555 1_555
O1 C5 1_555 1_555
O2 C5 1_555 1_555
C2 C4 1_555 1_555
O3 C11 1_555 1_555
O4 C19 1_555 1_555
C3 C1 1_555 1_555
C4 C5 1_555 1_555
C6 H3 1_555 1_555
H4 C6 1_555 1_555
C7 C9 1_555 1_555
C8 N1 1_555 1_555
C9 H5 1_555 1_555
O5 C3 1_555 1_555
C10 C4 1_555 1_555
H6 C10 1_555 1_555
C11 C1 1_555 1_555
C12 C14 1_555 1_555
C13 C8 1_555 1_555
H7 C13 1_555 1_555
C14 C13 1_555 1_555
H8 C14 1_555 1_555
C15 S2 1_555 1_555
H9 C15 1_555 1_555
H10 C15 1_555 1_555
C16 H11 1_555 1_555
C17 C7 1_555 1_555
H12 C17 1_555 1_555
C18 S1 1_555 1_555
H13 C18 1_555 1_555
H14 C18 1_555 1_555
C19 C16 1_555 1_555
C20 C9 1_555 1_555
H15 C20 1_555 1_555
C21 C12 1_555 1_555
H16 C21 1_555 1_555
C22 C8 1_555 1_555
H17 C22 1_555 1_555
C23 N2 1_555 1_555
C24 C12 1_555 1_555
H18 C24 1_555 1_555
H19 C24 1_555 1_555
H20 C24 1_555 1_555
C25 O4 1_555 1_555
H21 C25 1_555 1_555
H22 C25 1_555 1_555
H23 C25 1_555 1_555
C26 O2 1_555 1_555
H24 C26 1_555 1_555
H25 C26 1_555 1_555
C27 C26 1_555 1_555
H26 C27 1_555 1_555
H27 C27 1_555 1_555
H28 C27 1_555 1_555
C6 C10 1_555 1_555
C6 C11 1_555 1_555
C7 C10 1_555 1_555
C15 C18 1_555 1_555
C16 C17 1_555 1_555
C19 C20 1_555 1_555
C21 C22 1_555 1_555

#END
