
#######################################################################
#
#                 Cambridge Crystallographic Data Centre
#                                CCDC 
#
#######################################################################
#
# If this CIF has been generated from an entry in the Cambridge 
# Structural Database, then it will include bibliographic, chemical, 
# crystal, experimental, refinement or atomic coordinate data resulting 
# from the CCDC's data processing and validation procedures.
#
#######################################################################

data_ETAGIP
_chemical_formula_moiety         'C12 H30 Li1 O6 1+,C17 H31 B10 N1 P1 1-'
_chemical_name_systematic        
'tris(1,2-Dimethoxyethane)-lithium 1-(di-isopropylamino(indenylidene)phosphino)-1,2-dicarbadodecaborane(11)'
_symmetry_cell_setting           triclinic
_symmetry_space_group_name_H-M   'P -1'
_symmetry_Int_Tables_number      2
_space_group_name_Hall           '-P 1'
loop_
_symmetry_equiv_pos_site_id
_symmetry_equiv_pos_as_xyz
1 x,y,z
2 -x,-y,-z
_cell_length_a                   11.352(2)
_cell_length_b                   13.204(3)
_cell_length_c                   15.634(3)
_cell_angle_alpha                70.59(3)
_cell_angle_beta                 69.87(3)
_cell_angle_gamma                86.51(3)
_cell_volume                     2071.42
_exptl_crystal_colour            colorless
_exptl_crystal_description       block
_cell_formula_units_Z            2
_exptl_crystal_recrystallization_method DME/n-hexane
loop_
_atom_site_label
_atom_site_type_symbol
_atom_site_fract_x
_atom_site_fract_y
_atom_site_fract_z
P1 P -0.10734(5) 0.18103(4) -0.28322(4)
N1 N 0.02907(16) 0.24339(12) -0.36736(11)
C1 C -0.23206(19) 0.24252(14) -0.34067(13)
C2 C -0.3241(2) 0.16433(16) -0.35735(15)
H1 H -0.3034 0.0794 -0.3463
B1 B -0.2258(3) 0.2581(2) -0.45597(18)
H2 H -0.1431 0.2411 -0.5106
B2 B -0.2255(3) 0.3694(2) -0.41847(18)
H3 H -0.1426 0.4259 -0.4484
B3 B -0.3226(2) 0.33550(18) -0.29722(18)
H4 H -0.3031 0.3704 -0.2483
B4 B -0.3813(2) 0.20033(18) -0.25798(18)
H5 H -0.3995 0.1454 -0.1837
B5 B -0.3807(3) 0.2274(3) -0.4472(2)
H6 H -0.3986 0.1905 -0.4954
B6 B -0.3221(3) 0.3637(3) -0.4861(2)
H7 H -0.3024 0.4174 -0.5610
B7 B -0.3831(3) 0.4117(2) -0.3879(2)
H8 H -0.4036 0.4966 -0.3986
B8 B -0.4792(3) 0.3065(2) -0.2870(2)
H9 H -0.5617 0.3222 -0.2314
B9 B -0.4755(3) 0.1950(2) -0.3258(2)
H10 H -0.5564 0.1363 -0.2952
C3 C -0.11788(19) 0.04523(15) -0.27611(14)
B10 B -0.4790(3) 0.3239(2) -0.4048(2)
H11 H -0.5613 0.3511 -0.4262
C4 C -0.0917(2) -0.00742(16) -0.34691(16)
H12 H -0.0611 0.0264 -0.4135
C5 C -0.1192(2) -0.11643(16) -0.29998(19)
H13 H -0.1088 -0.1680 -0.3301
C6 C -0.2074(2) -0.23229(19) -0.1205(2)
H14 H -0.2064 -0.2984 -0.1298
C7 C -0.2499(2) -0.2266(2) -0.0297(2)
H15 H -0.2779 -0.2897 0.0226
C8 C -0.2528(2) -0.1289(2) -0.01230(19)
H16 H -0.2829 -0.1275 0.0506
C9 C -0.21119(19) -0.03570(18) -0.08846(15)
H17 H -0.2135 0.0294 -0.0772
C10 C -0.16515(17) -0.03741(15) -0.18306(15)
C11 C -0.1651(2) -0.13739(17) -0.20025(18)
C12 C 0.2048(3) 0.1478(2) -0.4487(2)
H18 H 0.2351 0.1228 -0.5031
H19 H 0.1760 0.0873 -0.3902
H20 H 0.2715 0.1879 -0.4474
C13 C 0.0970(2) 0.21940(17) -0.45729(15)
H21 H 0.0367 0.1787 -0.4675
C14 C 0.1389(3) 0.3212(2) -0.54548(18)
H22 H 0.1763 0.3018 -0.6026
H23 H 0.1994 0.3633 -0.5390
H24 H 0.0674 0.3625 -0.5502
C15 C 0.0313(2) 0.40389(17) -0.31923(17)
H25 H 0.0823 0.4470 -0.3050
H26 H -0.0454 0.3791 -0.2652
H27 H 0.0120 0.4462 -0.3754
C16 C 0.1016(2) 0.30863(18) -0.33810(16)
H28 H 0.1786 0.3376 -0.3936
C17 C 0.1425(2) 0.2409(2) -0.25521(17)
H29 H 0.1920 0.2852 -0.2409
H30 H 0.1917 0.1845 -0.2728
H31 H 0.0696 0.2099 -0.1993
Li1 Li 0.3085(3) -0.2594(3) -0.1402(3)
O1 O 0.16632(17) -0.15793(14) -0.11111(15)
O2 O 0.1785(2) -0.35883(13) -0.00172(14)
O3 O 0.42202(16) -0.21684(13) -0.07634(11)
O4 O 0.42826(18) -0.13858(17) -0.26073(13)
O5 O 0.2335(2) -0.31689(18) -0.22410(15)
O6 O 0.4204(2) -0.39269(16) -0.16283(16)
C18 C 0.1673(4) -0.4674(2) 0.0468(3)
H32 H 0.1425 -0.5045 0.0117
H33 H 0.1050 -0.4824 0.1100
H34 H 0.2466 -0.4913 0.0526
C19 C 0.0607(3) -0.3128(3) 0.0219(3)
H35 H 0.0242 -0.3316 0.0916
H36 H 0.0048 -0.3434 0.0007
C20 C 0.0690(3) -0.1951(2) -0.0220(2)
H37 H -0.0101 -0.1722 -0.0308
H38 H 0.0821 -0.1629 0.0217
C21 C 0.1627(3) -0.0474(2) -0.1557(3)
H39 H 0.1946 -0.0305 -0.2246
H40 H 0.2135 -0.0089 -0.1373
H41 H 0.0776 -0.0269 -0.1359
C22 C 0.3882(3) -0.2417(3) 0.02533(18)
H42 H 0.4615 -0.2600 0.0434
H43 H 0.3270 -0.3015 0.0583
H44 H 0.3532 -0.1804 0.0429
C23 C 0.5367(3) -0.1204(3) -0.2370(3)
H45 H 0.5802 -0.0517 -0.2805
H46 H 0.5948 -0.1765 -0.2442
C24 C 0.4914(3) -0.1208(2) -0.1316(2)
H47 H 0.5625 -0.1160 -0.1119
H48 H 0.4400 -0.0605 -0.1250
C25 C 0.4612(4) -0.1167(4) -0.3581(2)
H49 H 0.3867 -0.1116 -0.3748
H50 H 0.5094 -0.1733 -0.3761
H51 H 0.5107 -0.0497 -0.3918
C26 C 0.5391(4) -0.4167(3) -0.1518(4)
H52 H 0.5489 -0.4926 -0.1371
H53 H 0.5439 -0.3951 -0.1001
H54 H 0.6047 -0.3785 -0.2106
C27 C 0.3942(5) -0.4333(3) -0.2247(3)
H55 H 0.4019 -0.5105 -0.2040
H56 H 0.4560 -0.4027 -0.2888
C28 C 0.2687(5) -0.4114(3) -0.2299(3)
H57 H 0.2674 -0.4156 -0.2903
H58 H 0.2088 -0.4665 -0.1777
C29 C 0.1257(3) -0.2787(4) -0.2514(3)
H59 H 0.1531 -0.2355 -0.3185
H60 H 0.0793 -0.2362 -0.2131
H61 H 0.0729 -0.3390 -0.2407
loop_
_geom_bond_atom_site_label_1
_geom_bond_atom_site_label_2
_geom_bond_site_symmetry_1
_geom_bond_site_symmetry_2
P1 N1 1_555 1_555
N1 C13 1_555 1_555
Li1 O1 1_555 1_555
O1 C20 1_555 1_555
O2 Li1 1_555 1_555
O3 Li1 1_555 1_555
O4 Li1 1_555 1_555
O5 Li1 1_555 1_555
O6 Li1 1_555 1_555
C1 P1 1_555 1_555
C2 C1 1_555 1_555
H1 C2 1_555 1_555
B1 C1 1_555 1_555
H2 B1 1_555 1_555
B2 C1 1_555 1_555
H3 B2 1_555 1_555
B3 C1 1_555 1_555
H4 B3 1_555 1_555
B4 C1 1_555 1_555
H5 B4 1_555 1_555
B5 C2 1_555 1_555
H6 B5 1_555 1_555
B6 B1 1_555 1_555
H7 B6 1_555 1_555
B7 B2 1_555 1_555
H8 B7 1_555 1_555
B8 B3 1_555 1_555
H9 B8 1_555 1_555
B9 C2 1_555 1_555
H10 B9 1_555 1_555
C3 P1 1_555 1_555
B10 B5 1_555 1_555
H11 B10 1_555 1_555
C4 C3 1_555 1_555
H12 C4 1_555 1_555
C5 C4 1_555 1_555
H13 C5 1_555 1_555
C6 H14 1_555 1_555
C7 C6 1_555 1_555
H15 C7 1_555 1_555
C8 C7 1_555 1_555
H16 C8 1_555 1_555
C9 C8 1_555 1_555
H17 C9 1_555 1_555
C10 C3 1_555 1_555
C11 C5 1_555 1_555
C12 H18 1_555 1_555
H19 C12 1_555 1_555
H20 C12 1_555 1_555
C13 C12 1_555 1_555
H21 C13 1_555 1_555
C14 C13 1_555 1_555
H22 C14 1_555 1_555
H23 C14 1_555 1_555
H24 C14 1_555 1_555
C15 H25 1_555 1_555
H26 C15 1_555 1_555
H27 C15 1_555 1_555
C16 N1 1_555 1_555
H28 C16 1_555 1_555
C17 C16 1_555 1_555
H29 C17 1_555 1_555
H30 C17 1_555 1_555
H31 C17 1_555 1_555
C18 O2 1_555 1_555
H32 C18 1_555 1_555
H33 C18 1_555 1_555
H34 C18 1_555 1_555
C19 O2 1_555 1_555
H35 C19 1_555 1_555
H36 C19 1_555 1_555
C20 C19 1_555 1_555
H37 C20 1_555 1_555
H38 C20 1_555 1_555
C21 O1 1_555 1_555
H39 C21 1_555 1_555
H40 C21 1_555 1_555
H41 C21 1_555 1_555
C22 O3 1_555 1_555
H42 C22 1_555 1_555
H43 C22 1_555 1_555
H44 C22 1_555 1_555
C23 O4 1_555 1_555
H45 C23 1_555 1_555
H46 C23 1_555 1_555
C24 O3 1_555 1_555
H47 C24 1_555 1_555
H48 C24 1_555 1_555
C25 O4 1_555 1_555
H49 C25 1_555 1_555
H50 C25 1_555 1_555
H51 C25 1_555 1_555
C26 O6 1_555 1_555
H52 C26 1_555 1_555
H53 C26 1_555 1_555
H54 C26 1_555 1_555
C27 O6 1_555 1_555
H55 C27 1_555 1_555
H56 C27 1_555 1_555
C28 O5 1_555 1_555
H57 C28 1_555 1_555
H58 C28 1_555 1_555
C29 O5 1_555 1_555
H59 C29 1_555 1_555
H60 C29 1_555 1_555
H61 C29 1_555 1_555
C2 B1 1_555 1_555
C2 B4 1_555 1_555
B1 B5 1_555 1_555
B1 B2 1_555 1_555
B2 B6 1_555 1_555
B2 B3 1_555 1_555
B3 B7 1_555 1_555
B3 B4 1_555 1_555
B4 B9 1_555 1_555
B4 B8 1_555 1_555
B5 B9 1_555 1_555
B5 B6 1_555 1_555
B6 B10 1_555 1_555
B6 B7 1_555 1_555
B7 B8 1_555 1_555
B7 B10 1_555 1_555
B8 B9 1_555 1_555
B8 B10 1_555 1_555
B9 B10 1_555 1_555
C6 C11 1_555 1_555
C9 C10 1_555 1_555
C10 C11 1_555 1_555
C15 C16 1_555 1_555
C23 C24 1_555 1_555
C27 C28 1_555 1_555

#END
