
#######################################################################
#
#                 Cambridge Crystallographic Data Centre
#                                CCDC 
#
#######################################################################
#
# If this CIF has been generated from an entry in the Cambridge 
# Structural Database, then it will include bibliographic, chemical, 
# crystal, experimental, refinement or atomic coordinate data resulting 
# from the CCDC's data processing and validation procedures.
#
#######################################################################

data_ETAHAJ
_chemical_formula_moiety         'C29 H28 Cl1 N3 O6 S1'
_chemical_name_systematic        
'Ethyl 5-(2-(4-chlorophenyl)-2-(2-(ethoxycarbonyl)-4-((4-methylphenyl)carbamoyl)-3-thioxo-2,3-dihydro-1H-pyrrol-2-yl)ethyl)-1,3-oxazole-4-carboxylate'
_symmetry_cell_setting           monoclinic
_symmetry_space_group_name_H-M   'C 2/c'
_symmetry_Int_Tables_number      15
_space_group_name_Hall           '-C 2yn'
loop_
_symmetry_equiv_pos_site_id
_symmetry_equiv_pos_as_xyz
1 x,y,z
2 -x,y,1/2-z
3 1/2+x,1/2+y,z
4 1/2-x,1/2+y,1/2-z
5 -x,-y,-z
6 x,-y,1/2+z
7 1/2-x,1/2-y,-z
8 1/2+x,1/2-y,1/2+z
_cell_length_a                   19.816(3)
_cell_length_b                   8.6000(13)
_cell_length_c                   32.975(5)
_cell_angle_alpha                90
_cell_angle_beta                 94.488(3)
_cell_angle_gamma                90
_cell_volume                     5602.29
_cell_formula_units_Z            8
loop_
_atom_site_label
_atom_site_type_symbol
_atom_site_fract_x
_atom_site_fract_y
_atom_site_fract_z
S1 S 0.15428(5) -0.01085(11) 0.68478(3)
Cl1 Cl 0.49210(6) 0.72463(13) 0.67691(5)
N1 N 0.06940(16) -0.0807(4) 0.60161(10)
C1 C 0.13143(17) 0.1545(4) 0.61197(10)
N2 N 0.20324(16) 0.3562(4) 0.62270(9)
O1 O 0.15261(16) 0.4420(3) 0.69099(8)
C2 C 0.16459(17) 0.1255(4) 0.65050(10)
C3 C 0.29133(17) 0.1961(4) 0.66112(10)
H1 H 0.2972 0.1373 0.6866
N3 N 0.25154(17) -0.3277(3) 0.64272(11)
C4 C 0.08069(19) 0.0629(4) 0.58689(11)
C5 C 0.21770(17) 0.2573(4) 0.65776(10)
O2 O 0.22818(16) 0.3045(4) 0.73021(9)
C6 C 0.15456(18) 0.2969(4) 0.59819(11)
H2 H 0.1373 0.3446 0.5743
O3 O 0.30730(13) -0.1334(3) 0.67368(8)
O4 O 0.22179(14) -0.0879(3) 0.55366(8)
C7 C 0.28690(18) -0.0820(4) 0.63544(11)
O5 O 0.05425(15) 0.1134(3) 0.55515(9)
C8 C 0.02947(18) -0.2022(4) 0.58360(11)
C9 C 0.34300(18) 0.3277(4) 0.66455(11)
C10 C -0.0101(2) -0.1914(5) 0.54793(12)
H3 H -0.0124 -0.0986 0.5334
C11 C 0.36866(19) 0.3803(4) 0.70242(11)
H4 H 0.3544 0.3338 0.7257
C12 C 0.30553(19) 0.0811(4) 0.62654(11)
H5 H 0.2803 0.1141 0.6016
H6 H 0.3533 0.0851 0.6221
C13 C 0.36614(19) 0.3971(4) 0.63053(12)
H7 H 0.3502 0.3623 0.6048
O6 O 0.19417(16) -0.3381(3) 0.56280(9)
C14 C 0.2017(2) 0.3375(5) 0.69743(12)
C15 C 0.25390(18) -0.2020(4) 0.61603(12)
C16 C -0.0455(2) -0.4593(5) 0.55312(13)
C17 C -0.0470(2) -0.3200(5) 0.53339(13)
H8 H -0.0740 -0.3104 0.5091
C18 C 0.4150(2) 0.5005(4) 0.70611(14)
H9 H 0.4319 0.5343 0.7317
C19 C 0.43588(19) 0.5697(4) 0.67176(14)
C20 C 0.0327(2) -0.3442(5) 0.60386(14)
H10 H 0.0601 -0.3553 0.6279
C21 C 0.21996(19) -0.2187(5) 0.57494(13)
C22 C 0.4130(2) 0.5184(4) 0.63395(13)
H11 H 0.4284 0.5639 0.6108
C23 C 0.2825(2) -0.2791(4) 0.67563(15)
H12 H 0.2875 -0.3391 0.6991
C24 C -0.0048(2) -0.4686(5) 0.58825(15)
H13 H -0.0022 -0.5625 0.6023
C25 C -0.0861(2) -0.5982(5) 0.53704(16)
H14 H -0.1116 -0.5705 0.5121
H15 H -0.1166 -0.6299 0.5567
H16 H -0.0560 -0.6823 0.5321
C26 C 0.1855(2) -0.0879(6) 0.51357(13)
H17 H 0.1372 -0.0968 0.5160
H18 H 0.1999 -0.1753 0.4978
C27 C 0.2006(3) 0.0582(7) 0.49351(15)
H19 H 0.1768 0.0614 0.4670
H20 H 0.2484 0.0652 0.4908
H21 H 0.1865 0.1439 0.5095
C28 C 0.1307(4) 0.5135(7) 0.72866(18)
H22 H 0.1259 0.4333 0.7489
H23 H 0.1650 0.5861 0.7395
C29 C 0.0731(4) 0.5866(11) 0.7215(3)
H24 H 0.0598 0.6313 0.7463
H25 H 0.0391 0.5145 0.7110
H26 H 0.0782 0.6675 0.7019
H27 H 0.2172(17) 0.451(4) 0.6221(10)
H28 H 0.0900(17) -0.103(4) 0.6261(10)
loop_
_geom_bond_atom_site_label_1
_geom_bond_atom_site_label_2
_geom_bond_site_symmetry_1
_geom_bond_site_symmetry_2
S1 C2 1_555 1_555
Cl1 C19 1_555 1_555
N1 C4 1_555 1_555
C1 C2 1_555 1_555
N2 C5 1_555 1_555
O1 C14 1_555 1_555
C2 C5 1_555 1_555
C3 H1 1_555 1_555
N3 C15 1_555 1_555
C4 C1 1_555 1_555
C5 C3 1_555 1_555
O2 C14 1_555 1_555
C6 C1 1_555 1_555
H2 C6 1_555 1_555
O3 C7 1_555 1_555
O4 C21 1_555 1_555
C7 C12 1_555 1_555
O5 C4 1_555 1_555
C8 N1 1_555 1_555
C9 C3 1_555 1_555
C10 C8 1_555 1_555
H3 C10 1_555 1_555
C11 C9 1_555 1_555
H4 C11 1_555 1_555
C12 C3 1_555 1_555
H5 C12 1_555 1_555
H6 C12 1_555 1_555
C13 C9 1_555 1_555
H7 C13 1_555 1_555
O6 C21 1_555 1_555
C14 C5 1_555 1_555
C15 C7 1_555 1_555
C16 C17 1_555 1_555
C17 C10 1_555 1_555
H8 C17 1_555 1_555
C18 C11 1_555 1_555
H9 C18 1_555 1_555
C19 C18 1_555 1_555
C20 C8 1_555 1_555
H10 C20 1_555 1_555
C21 C15 1_555 1_555
C22 C13 1_555 1_555
H11 C22 1_555 1_555
C23 N3 1_555 1_555
H12 C23 1_555 1_555
C24 C16 1_555 1_555
H13 C24 1_555 1_555
C25 C16 1_555 1_555
H14 C25 1_555 1_555
H15 C25 1_555 1_555
H16 C25 1_555 1_555
C26 O4 1_555 1_555
H17 C26 1_555 1_555
H18 C26 1_555 1_555
C27 C26 1_555 1_555
H19 C27 1_555 1_555
H20 C27 1_555 1_555
H21 C27 1_555 1_555
C28 O1 1_555 1_555
H22 C28 1_555 1_555
H23 C28 1_555 1_555
C29 C28 1_555 1_555
H24 C29 1_555 1_555
H25 C29 1_555 1_555
H26 C29 1_555 1_555
H27 N2 1_555 1_555
H28 N1 1_555 1_555
N2 C6 1_555 1_555
O3 C23 1_555 1_555
C19 C22 1_555 1_555
C20 C24 1_555 1_555

#END
