
#######################################################################
#
#                 Cambridge Crystallographic Data Centre
#                                CCDC 
#
#######################################################################
#
# If this CIF has been generated from an entry in the Cambridge 
# Structural Database, then it will include bibliographic, chemical, 
# crystal, experimental, refinement or atomic coordinate data resulting 
# from the CCDC's data processing and validation procedures.
#
#######################################################################

data_ETANIY01
_chemical_formula_moiety         'C15 H10 O5'
_chemical_name_systematic        1,3,8-trihydroxy-6-methyl-9,10-anthraquinone
_symmetry_cell_setting           monoclinic
_symmetry_space_group_name_H-M   'P 21/n'
_symmetry_Int_Tables_number      14
_space_group_name_Hall           '-P 2yn'
loop_
_symmetry_equiv_pos_site_id
_symmetry_equiv_pos_as_xyz
1 x,y,z
2 1/2-x,1/2+y,1/2-z
3 -x,-y,-z
4 1/2+x,1/2-y,1/2+z
_cell_length_a                   16.4721(10)
_cell_length_b                   3.6915(2)
_cell_length_c                   19.4294(12)
_cell_angle_alpha                90
_cell_angle_beta                 96.188(4)
_cell_angle_gamma                90
_cell_volume                     1174.56
_exptl_crystal_colour            orange
_exptl_crystal_description       needle
_cell_formula_units_Z            4
loop_
_atom_site_label
_atom_site_type_symbol
_atom_site_fract_x
_atom_site_fract_y
_atom_site_fract_z
O1 O -0.1055(3) 1.2511(13) 0.3426(2)
H1 H -0.1205 1.2925 0.3819
O2 O 0.1220(3) 0.7445(12) 0.24491(19)
H2 H 0.1724 0.7081 0.2530
O3 O 0.2602(2) 0.7081(11) 0.32131(19)
O4 O 0.1264(2) 1.3367(10) 0.53294(19)
O5 O 0.3989(2) 0.6323(12) 0.3990(2)
H3 H 0.3676 0.6274 0.3619
C1 C 0.0122(4) 0.9930(17) 0.2952(3)
H4 H -0.0207 0.9563 0.2525
C2 C -0.0223(4) 1.1439(17) 0.3501(3)
C3 C 0.0251(3) 1.1954(16) 0.4128(3)
H5 H 0.0013 1.2928 0.4512
C4 C 0.1067(3) 1.1049(14) 0.4194(3)
C5 C 0.1562(3) 1.1717(15) 0.4866(3)
C6 C 0.2418(3) 1.0472(15) 0.4955(3)
C7 C 0.2869(4) 1.0803(16) 0.5584(3)
H6 H 0.2627 1.1823 0.5962
C8 C 0.3690(4) 0.9650(18) 0.5680(3)
C9 C 0.4149(4) 1.0194(19) 0.6352(3)
H7 H 0.4676 0.8955 0.6365
H8 H 0.3841 0.9203 0.6713
H9 H 0.4239 1.2791 0.6431
C10 C 0.1432(3) 0.9455(15) 0.3640(3)
C11 C 0.0939(3) 0.8937(15) 0.3010(3)
C12 C 0.2288(3) 0.8434(15) 0.3723(3)
C13 C 0.2763(3) 0.8895(15) 0.4382(3)
C14 C 0.4031(4) 0.8207(17) 0.5131(3)
H10 H 0.4587 0.7470 0.5192
C15 C 0.3594(3) 0.7790(16) 0.4493(3)
loop_
_geom_bond_atom_site_label_1
_geom_bond_atom_site_label_2
_geom_bond_site_symmetry_1
_geom_bond_site_symmetry_2
O1 H1 1_555 1_555
O2 H2 1_555 1_555
O3 C12 1_555 1_555
O4 C5 1_555 1_555
O5 H3 1_555 1_555
C1 H4 1_555 1_555
C2 O1 1_555 1_555
C3 C2 1_555 1_555
H5 C3 1_555 1_555
C4 C3 1_555 1_555
C5 C4 1_555 1_555
C6 C5 1_555 1_555
C7 C6 1_555 1_555
H6 C7 1_555 1_555
C8 C7 1_555 1_555
C9 C8 1_555 1_555
H7 C9 1_555 1_555
H8 C9 1_555 1_555
H9 C9 1_555 1_555
C10 C4 1_555 1_555
C11 O2 1_555 1_555
C12 C10 1_555 1_555
C13 C6 1_555 1_555
C14 C8 1_555 1_555
H10 C14 1_555 1_555
C15 O5 1_555 1_555
C1 C2 1_555 1_555
C1 C11 1_555 1_555
C10 C11 1_555 1_555
C12 C13 1_555 1_555
C13 C15 1_555 1_555
C14 C15 1_555 1_555

#END
