
#######################################################################
#
#                 Cambridge Crystallographic Data Centre
#                                CCDC 
#
#######################################################################
#
# If this CIF has been generated from an entry in the Cambridge 
# Structural Database, then it will include bibliographic, chemical, 
# crystal, experimental, refinement or atomic coordinate data resulting 
# from the CCDC's data processing and validation procedures.
#
#######################################################################

data_ETAPIA
_chemical_formula_moiety         'C15 H10 O5,2(H2 O1)'
_chemical_name_systematic        
'1,3,8-trihydroxy-6-methyl-9,10-anthraquinone dihydrate'
_symmetry_cell_setting           monoclinic
_symmetry_space_group_name_H-M   'P 21/n'
_symmetry_Int_Tables_number      14
_space_group_name_Hall           '-P 2yn'
loop_
_symmetry_equiv_pos_site_id
_symmetry_equiv_pos_as_xyz
1 x,y,z
2 1/2-x,1/2+y,1/2-z
3 -x,-y,-z
4 1/2+x,1/2-y,1/2+z
_cell_length_a                   12.6343(6)
_cell_length_b                   3.6437(2)
_cell_length_c                   31.2026(14)
_cell_angle_alpha                90
_cell_angle_beta                 95.706(3)
_cell_angle_gamma                90
_cell_volume                     1429.31
_exptl_crystal_colour            orange
_exptl_crystal_description       needle
_cell_formula_units_Z            4
loop_
_atom_site_label
_atom_site_type_symbol
_atom_site_fract_x
_atom_site_fract_y
_atom_site_fract_z
O1 O 0.3381(2) 1.3658(7) 0.19804(7)
H1 H 0.3828 1.3211 0.1805
O2 O 0.40387(19) 1.1233(7) 0.12811(7)
O3 O 0.47318(18) 0.8820(8) 0.05863(9)
H2 H 0.4774 0.9816 0.0830
O4 O -0.00021(18) 0.8584(7) 0.06248(7)
C1 C 0.2448(3) 0.6250(9) -0.01392(9)
C2 C 0.3476(3) 0.6870(9) 0.00270(12)
H3 H 0.4042 0.6334 -0.0142
C3 C 0.3701(3) 0.8290(9) 0.04435(11)
C4 C 0.2870(2) 0.9089(8) 0.06964(9)
C5 C 0.3091(3) 1.0615(8) 0.11275(10)
C6 C 0.2205(3) 1.1452(8) 0.13751(8)
C7 C 0.2397(3) 1.2921(9) 0.17946(10)
C8 C 0.1560(4) 1.3691(9) 0.20322(11)
H4 H 0.1696 1.4674 0.2314
C9 C 0.1616(3) 0.7024(8) 0.01088(9)
H5 H 0.0903 0.6580 -0.0006
C10 C 0.1817(2) 0.8419(7) 0.05172(8)
C11 C 0.0921(3) 0.9228(8) 0.07723(9)
C12 C 0.1154(2) 1.0804(8) 0.12102(8)
C13 C 0.0325(3) 1.1593(9) 0.14469(10)
H6 H -0.0387 1.1162 0.1330
C14 C 0.0539(4) 1.3052(10) 0.18655(12)
C15 C -0.0387(3) 1.3822(10) 0.20933(12)
H7 H -0.0433 1.6471 0.2143
H8 H -0.0316 1.2536 0.2370
H9 H -0.1029 1.2983 0.1920
O5 O 0.2184(3) 0.4792(8) -0.05663(8)
H10 H 0.2240 0.2494 -0.0559
O6? O -0.0387(3) 1.3822(10) 0.20933(12)
H11? H -0.0191 1.4212 0.2355
C16? C 0.2184(3) 0.4792(8) -0.05663(8)
H12? H 0.2827 0.3826 -0.0677
H13? H 0.1882 0.6746 -0.0757
H14? H 0.1662 0.2813 -0.0555
loop_
_geom_bond_atom_site_label_1
_geom_bond_atom_site_label_2
_geom_bond_site_symmetry_1
_geom_bond_site_symmetry_2
O1 H1 1_555 1_555
O2 C5 1_555 1_555
O3 H2 1_555 1_555
O4 C11 1_555 1_555
C1 C2 1_555 1_555
C2 H3 1_555 1_555
C3 O3 1_555 1_555
C4 C3 1_555 1_555
C5 C4 1_555 1_555
C6 C5 1_555 1_555
C7 O1 1_555 1_555
C8 C7 1_555 1_555
H4 C8 1_555 1_555
C9 C1 1_555 1_555
H5 C9 1_555 1_555
C10 C4 1_555 1_555
C11 C10 1_555 1_555
C12 C6 1_555 1_555
C13 C12 1_555 1_555
H6 C13 1_555 1_555
C14 C8 1_555 1_555
C15 C14 1_555 1_555
H7 C15 1_555 1_555
H8 C15 1_555 1_555
H9 C15 1_555 1_555
O5 C1 1_555 1_555
H10 O5 1_555 1_555
C2 C3 1_555 1_555
C6 C7 1_555 1_555
C9 C10 1_555 1_555
C11 C12 1_555 1_555
C13 C14 1_555 1_555

#END
