
#######################################################################
#
#                 Cambridge Crystallographic Data Centre
#                                CCDC 
#
#######################################################################
#
# If this CIF has been generated from an entry in the Cambridge 
# Structural Database, then it will include bibliographic, chemical, 
# crystal, experimental, refinement or atomic coordinate data resulting 
# from the CCDC's data processing and validation procedures.
#
#######################################################################

data_ETAPAS
_chemical_formula_moiety         'C21 H26 O1'
_chemical_name_systematic        
3-methyl-1-(1-phenyl-1,2,3,4-tetrahydronaphthalen-2-yl)butan-1-ol
_symmetry_cell_setting           triclinic
_symmetry_space_group_name_H-M   'P -1'
_symmetry_Int_Tables_number      2
_space_group_name_Hall           '-P 1'
loop_
_symmetry_equiv_pos_site_id
_symmetry_equiv_pos_as_xyz
1 x,y,z
2 -x,-y,-z
_cell_length_a                   10.5651(8)
_cell_length_b                   10.8575(7)
_cell_length_c                   16.2175(8)
_cell_angle_alpha                75.716(5)
_cell_angle_beta                 75.115(7)
_cell_angle_gamma                83.654(8)
_cell_volume                     1740.1
_exptl_crystal_colour            colorless
_exptl_crystal_description       Prism
_cell_formula_units_Z            4
loop_
_atom_site_label
_atom_site_type_symbol
_atom_site_fract_x
_atom_site_fract_y
_atom_site_fract_z
O1 O 0.34579(6) 0.10589(7) 0.96640(4)
H1 H 0.4220 0.0935 0.9369
C1 C 0.29101(8) 0.17167(8) 0.82592(6)
H2 H 0.3870 0.1570 0.8013
C2 C 0.22677(10) 0.04877(8) 0.83369(6)
H3 H 0.2472 -0.0172 0.8834
H4 H 0.1304 0.0640 0.8449
C3 C 0.27778(11) 0.00314(9) 0.74918(7)
H5 H 0.3712 -0.0256 0.7435
H6 H 0.2283 -0.0704 0.7515
C4 C 0.26436(9) 0.10706(9) 0.67019(6)
C5 C 0.26471(10) 0.07397(10) 0.59207(7)
H7 H 0.2779 -0.0130 0.5891
C6 C 0.24628(10) 0.16475(11) 0.51911(7)
H8 H 0.2463 0.1405 0.4667
C7 C 0.22772(10) 0.29201(10) 0.52330(7)
H9 H 0.2143 0.3553 0.4737
C8 C 0.22885(9) 0.32646(9) 0.59991(6)
H10 H 0.2169 0.4138 0.6020
C9 C 0.24725(8) 0.23551(8) 0.67425(6)
C10 C 0.24184(8) 0.27930(8) 0.75801(5)
H11 H 0.1476 0.2996 0.7841
C11 C 0.31485(8) 0.40010(8) 0.73952(5)
C12 C 0.25291(9) 0.50701(9) 0.76846(6)
H12 H 0.1630 0.5054 0.7986
C13 C 0.32094(11) 0.61630(9) 0.75392(7)
H13 H 0.2774 0.6883 0.7743
C14 C 0.45169(11) 0.62008(9) 0.70987(7)
H14 H 0.4983 0.6943 0.7001
C15 C 0.51435(9) 0.51457(9) 0.67993(6)
H15 H 0.6040 0.5170 0.6493
C16 C 0.44672(9) 0.40541(8) 0.69446(6)
H16 H 0.4905 0.3338 0.6736
C17 C 0.27738(8) 0.20425(8) 0.91481(6)
H17 H 0.3194 0.2866 0.9047
C18 C 0.13806(9) 0.21395(9) 0.97029(6)
H18 H 0.0986 0.1304 0.9843
H19 H 0.0854 0.2767 0.9355
C19 C 0.13025(9) 0.25355(9) 1.05607(6)
H20 H 0.1933 0.1962 1.0865
C20 C 0.16971(13) 0.38983(11) 1.03998(8)
H21 H 0.1123 0.4479 1.0074
H22 H 0.2608 0.3974 1.0060
H23 H 0.1614 0.4119 1.0963
C21 C -0.00597(10) 0.23677(11) 1.11658(7)
H24 H -0.0061 0.2557 1.1727
H25 H -0.0303 0.1488 1.1266
H26 H -0.0693 0.2950 1.0895
O2 O 0.40510(6) 0.95022(6) 0.11217(4)
H27 H 0.3739 1.0026 0.0740
C22 C 0.20026(8) 0.91899(8) 0.22119(5)
H28 H 0.1621 0.9939 0.1839
C23 C 0.08891(8) 0.83123(9) 0.27282(6)
H29 H 0.0196 0.8789 0.3082
H30 H 0.0501 0.8035 0.2314
C24 C 0.13688(9) 0.71456(9) 0.33321(6)
H31 H 0.0601 0.6705 0.3742
H32 H 0.1867 0.6551 0.2976
C25 C 0.22314(8) 0.74725(9) 0.38545(6)
C26 C 0.24911(9) 0.65596(9) 0.45764(6)
H33 H 0.2075 0.5773 0.4749
C27 C 0.33382(10) 0.67738(10) 0.50452(6)
H34 H 0.3506 0.6139 0.5530
C28 C 0.39403(10) 0.79270(10) 0.47994(6)
H35 H 0.4532 0.8082 0.5111
C29 C 0.36734(9) 0.88507(9) 0.40961(6)
H36 H 0.4078 0.9642 0.3936
C30 C 0.28184(8) 0.86417(8) 0.36161(6)
C31 C 0.25875(8) 0.96926(8) 0.28443(5)
H37 H 0.3469 1.0003 0.2504
C32 C 0.17833(9) 1.08334(8) 0.31300(6)
C33 C 0.22153(10) 1.20550(9) 0.27267(6)
H38 H 0.3017 1.2159 0.2292
C34 C 0.14854(12) 1.31252(9) 0.29533(7)
H39 H 0.1797 1.3950 0.2678
C35 C 0.03093(12) 1.29878(10) 0.35781(7)
H40 H -0.0195 1.3717 0.3725
C36 C -0.01298(10) 1.17819(10) 0.39890(7)
H41 H -0.0937 1.1685 0.4418
C37 C 0.06089(9) 1.07104(9) 0.37749(6)
H42 H 0.0310 0.9887 0.4071
C38 C 0.31092(8) 0.85657(8) 0.16040(5)
H43 H 0.3555 0.7874 0.1979
C39 C 0.26519(9) 0.79768(9) 0.09724(6)
H44 H 0.2231 0.8657 0.0585
H45 H 0.1980 0.7360 0.1316
C40 C 0.37537(10) 0.72949(9) 0.04020(6)
H46 H 0.4503 0.7869 0.0146
C41 C 0.32954(15) 0.70163(10) -0.03492(8)
H47 H 0.4014 0.6586 -0.0707
H48 H 0.3029 0.7817 -0.0713
H49 H 0.2549 0.6467 -0.0111
C42 C 0.42404(11) 0.60630(10) 0.09411(7)
H50 H 0.4549 0.6250 0.1416
H51 H 0.4963 0.5666 0.0564
H52 H 0.3522 0.5481 0.1190
loop_
_geom_bond_atom_site_label_1
_geom_bond_atom_site_label_2
_geom_bond_site_symmetry_1
_geom_bond_site_symmetry_2
O1 H1 1_555 1_555
C1 H2 1_555 1_555
C2 C1 1_555 1_555
H3 C2 1_555 1_555
H4 C2 1_555 1_555
C3 C2 1_555 1_555
H5 C3 1_555 1_555
H6 C3 1_555 1_555
C4 C3 1_555 1_555
C5 C4 1_555 1_555
H7 C5 1_555 1_555
C6 C5 1_555 1_555
H8 C6 1_555 1_555
C7 C6 1_555 1_555
H9 C7 1_555 1_555
C8 C7 1_555 1_555
H10 C8 1_555 1_555
C9 C4 1_555 1_555
C10 C1 1_555 1_555
H11 C10 1_555 1_555
C11 C10 1_555 1_555
C12 C11 1_555 1_555
H12 C12 1_555 1_555
C13 C12 1_555 1_555
H13 C13 1_555 1_555
C14 C13 1_555 1_555
H14 C14 1_555 1_555
C15 C14 1_555 1_555
H15 C15 1_555 1_555
C16 C11 1_555 1_555
H16 C16 1_555 1_555
C17 O1 1_555 1_555
H17 C17 1_555 1_555
C18 C17 1_555 1_555
H18 C18 1_555 1_555
H19 C18 1_555 1_555
C19 C18 1_555 1_555
H20 C19 1_555 1_555
C20 C19 1_555 1_555
H21 C20 1_555 1_555
H22 C20 1_555 1_555
H23 C20 1_555 1_555
C21 C19 1_555 1_555
H24 C21 1_555 1_555
H25 C21 1_555 1_555
H26 C21 1_555 1_555
O2 H27 1_555 1_555
C22 H28 1_555 1_555
C23 C22 1_555 1_555
H29 C23 1_555 1_555
H30 C23 1_555 1_555
C24 C23 1_555 1_555
H31 C24 1_555 1_555
H32 C24 1_555 1_555
C25 C24 1_555 1_555
C26 C25 1_555 1_555
H33 C26 1_555 1_555
C27 C26 1_555 1_555
H34 C27 1_555 1_555
C28 C27 1_555 1_555
H35 C28 1_555 1_555
C29 C28 1_555 1_555
H36 C29 1_555 1_555
C30 C25 1_555 1_555
C31 C22 1_555 1_555
H37 C31 1_555 1_555
C32 C31 1_555 1_555
C33 C32 1_555 1_555
H38 C33 1_555 1_555
C34 C33 1_555 1_555
H39 C34 1_555 1_555
C35 C34 1_555 1_555
H40 C35 1_555 1_555
C36 C35 1_555 1_555
H41 C36 1_555 1_555
C37 C32 1_555 1_555
H42 C37 1_555 1_555
C38 O2 1_555 1_555
H43 C38 1_555 1_555
C39 C38 1_555 1_555
H44 C39 1_555 1_555
H45 C39 1_555 1_555
C40 C39 1_555 1_555
H46 C40 1_555 1_555
C41 C40 1_555 1_555
H47 C41 1_555 1_555
H48 C41 1_555 1_555
H49 C41 1_555 1_555
C42 C40 1_555 1_555
H50 C42 1_555 1_555
H51 C42 1_555 1_555
H52 C42 1_555 1_555
C1 C17 1_555 1_555
C8 C9 1_555 1_555
C9 C10 1_555 1_555
C15 C16 1_555 1_555
C22 C38 1_555 1_555
C29 C30 1_555 1_555
C30 C31 1_555 1_555
C36 C37 1_555 1_555

#END
