
#######################################################################
#
#                 Cambridge Crystallographic Data Centre
#                                CCDC 
#
#######################################################################
#
# If this CIF has been generated from an entry in the Cambridge 
# Structural Database, then it will include bibliographic, chemical, 
# crystal, experimental, refinement or atomic coordinate data resulting 
# from the CCDC's data processing and validation procedures.
#
#######################################################################

data_ETATID
_chemical_formula_moiety         'C50 H38 N1 O1 P2 1+,2(H2 O1),Cl1 1-'
_chemical_name_systematic        
'Triphenyl(4-(quinolin-8-yloxy)-3-(triphenylphosphoranylidene)cyclopenta-1,4-dien-1-yl)phosphonium chloride dihydrate'
_symmetry_cell_setting           triclinic
_symmetry_space_group_name_H-M   'P -1'
_symmetry_Int_Tables_number      2
_space_group_name_Hall           '-P 1'
loop_
_symmetry_equiv_pos_site_id
_symmetry_equiv_pos_as_xyz
1 x,y,z
2 -x,-y,-z
_cell_length_a                   9.1489(18)
_cell_length_b                   14.506(3)
_cell_length_c                   15.494(3)
_cell_angle_alpha                98.60(3)
_cell_angle_beta                 90.66(3)
_cell_angle_gamma                96.77(3)
_cell_volume                     2018.08
_exptl_crystal_colour            colorless
_exptl_crystal_description       block
_cell_formula_units_Z            2
loop_
_atom_site_label
_atom_site_type_symbol
_atom_site_fract_x
_atom_site_fract_y
_atom_site_fract_z
P1 P 0.18788(12) 0.60484(8) 0.18767(7)
P2 P 0.59700(13) 0.77352(8) 0.44403(7)
C1 C 0.2847(5) 0.6564(3) 0.1035(3)
C2 C 0.6740(5) 0.6734(3) 0.4748(3)
O1 O 0.2760(4) 0.7110(2) 0.52334(19)
C3 C -0.0079(5) 0.6037(3) 0.1723(3)
C4 C 0.2217(5) 0.4836(3) 0.1815(3)
C5 C 0.3982(5) 0.7116(3) 0.3031(3)
H1 H 0.4669 0.7213 0.2607
C6 C 0.3460(5) 0.6022(3) 0.0342(3)
H2 H 0.3315 0.5370 0.0283
N1 N 0.2485(5) 0.7100(3) 0.6976(3)
C7 C 0.4234(5) 0.7371(3) 0.3938(3)
C8 C 0.7143(5) 0.8196(3) 0.3653(3)
C9 C 0.3185(5) 0.4608(3) 0.2426(3)
H3 H 0.3651 0.5075 0.2851
C10 C 0.1904(5) 0.7746(3) 0.5656(3)
C11 C 0.2529(5) 0.6692(3) 0.2871(3)
C12 C 0.9456(5) 0.8310(3) 0.2917(3)
H4 H 1.0411 0.8155 0.2853
C13 C 0.2884(5) 0.7082(3) 0.4332(3)
C14 C 0.5625(6) 0.8906(4) 0.6975(3)
H5 H 0.5279 0.8708 0.7487
C15 C 0.6271(6) 0.9812(4) 0.6983(3)
H6 H 0.6391 1.0222 0.7507
C16 C 0.6009(5) 0.8582(3) 0.5419(3)
C17 C 0.1524(5) 0.4143(3) 0.1177(3)
H7 H 0.0878 0.4293 0.0767
C18 C 0.3043(5) 0.7541(3) 0.1099(3)
H8 H 0.2623 0.7905 0.1553
C19 C 0.5493(5) 0.8288(3) 0.6190(3)
H9 H 0.5057 0.7674 0.6180
C20 C 0.0855(6) 0.8343(3) 0.7052(3)
C21 C 0.1813(6) 0.3219(3) 0.1161(3)
H10 H 0.1358 0.2751 0.0733
C22 C 0.6743(6) 1.0118(3) 0.6219(3)
H11 H 0.7147 1.0739 0.6231
C23 C 0.8065(6) 0.5191(4) 0.5067(3)
H12 H 0.8516 0.4676 0.5175
C24 C 0.4507(6) 0.7428(4) -0.0176(3)
H13 H 0.5094 0.7716 -0.0570
C25 C -0.0658(5) 0.6620(3) 0.1222(3)
H14 H -0.0038 0.7013 0.0926
C26 C 0.8911(6) 0.8889(4) 0.2386(3)
H15 H 0.9500 0.9117 0.1960
C27 C 0.1212(6) 0.8364(3) 0.5269(3)
H16 H 0.1323 0.8391 0.4677
C28 C 0.6622(5) 0.9508(3) 0.5432(3)
H17 H 0.6948 0.9716 0.4920
C29 C 0.7858(5) 0.6843(3) 0.5371(3)
H18 H 0.8164 0.7433 0.5685
C30 C 0.6263(6) 0.5847(3) 0.4296(3)
H19 H 0.5486 0.5768 0.3890
C31 C 0.4289(5) 0.6463(3) -0.0261(3)
H20 H 0.4697 0.6104 -0.0724
C32 C 0.1842(5) 0.6674(3) 0.3704(3)
H21 H 0.0880 0.6431 0.3797
C33 C 0.6622(5) 0.8797(3) 0.3119(3)
H22 H 0.5680 0.8973 0.3189
C34 C 0.2759(6) 0.2986(4) 0.1766(3)
H23 H 0.2929 0.2364 0.1748
C35 C -0.3095(6) 0.6019(4) 0.1586(3)
H24 H -0.4110 0.6010 0.1532
C36 C 0.8530(6) 0.6072(4) 0.5532(3)
H25 H 0.9289 0.6147 0.5951
C37 C 0.3865(6) 0.7974(3) 0.0488(3)
H26 H 0.3980 0.8625 0.0526
C38 C 0.3459(6) 0.3671(4) 0.2402(3)
H27 H 0.4104 0.3514 0.2809
C39 C -0.2179(6) 0.6619(4) 0.1161(3)
H28 H -0.2576 0.7023 0.0835
C40 C -0.1025(5) 0.5426(3) 0.2157(3)
H29 H -0.0642 0.5021 0.2488
C41 C 0.1768(6) 0.7721(3) 0.6573(3)
C42 C 0.7516(6) 0.9127(3) 0.2485(3)
H30 H 0.7161 0.9514 0.2125
C43 C -0.2526(5) 0.5440(4) 0.2082(3)
H31 H -0.3157 0.5049 0.2374
C44 C 0.6946(6) 0.5074(4) 0.4450(4)
H32 H 0.6644 0.4483 0.4135
C45 C 0.8576(5) 0.7965(3) 0.3541(3)
H33 H 0.8941 0.7573 0.3893
C46 C 0.0167(7) 0.8928(4) 0.6598(4)
H34 H -0.0448 0.9322 0.6900
C47 C 0.2368(6) 0.7130(4) 0.7767(4)
H35 H 0.2845 0.6707 0.8028
C48 C 0.0333(6) 0.8959(4) 0.5763(4)
H36 H -0.0138 0.9381 0.5495
C49 C 0.0796(6) 0.8321(4) 0.7948(3)
H37 H 0.0211 0.8706 0.8288
C50 C 0.1567(7) 0.7755(4) 0.8325(4)
H38 H 0.1583 0.7767 0.8926
Cl1 Cl 0.25075(19) 0.04668(11) 0.07131(11)
O2 O 0.5901(5) 0.0355(3) 0.1097(2)
H39 H 0.5011 0.0431 0.0998
H40 H 0.6317 0.0225 0.0614
O3 O 0.0046(5) -0.1347(3) 0.0251(2)
H41 H -0.0750 -0.1227 0.0027
H42 H 0.0792 -0.0966 0.0450
loop_
_geom_bond_atom_site_label_1
_geom_bond_atom_site_label_2
_geom_bond_site_symmetry_1
_geom_bond_site_symmetry_2
P1 C1 1_555 1_555
P2 C2 1_555 1_555
C1 C6 1_555 1_555
C2 C29 1_555 1_555
O1 C10 1_555 1_555
C3 P1 1_555 1_555
C4 P1 1_555 1_555
C5 H1 1_555 1_555
C6 H2 1_555 1_555
N1 C41 1_555 1_555
C7 P2 1_555 1_555
C8 P2 1_555 1_555
C9 C4 1_555 1_555
H3 C9 1_555 1_555
C10 C27 1_555 1_555
C11 P1 1_555 1_555
C12 H4 1_555 1_555
C13 O1 1_555 1_555
C14 H5 1_555 1_555
C15 C14 1_555 1_555
H6 C15 1_555 1_555
C16 P2 1_555 1_555
C17 C4 1_555 1_555
H7 C17 1_555 1_555
C18 C1 1_555 1_555
H8 C18 1_555 1_555
C19 C14 1_555 1_555
H9 C19 1_555 1_555
C20 C41 1_555 1_555
C21 C17 1_555 1_555
H10 C21 1_555 1_555
C22 C15 1_555 1_555
H11 C22 1_555 1_555
C23 H12 1_555 1_555
C24 H13 1_555 1_555
C25 C3 1_555 1_555
H14 C25 1_555 1_555
C26 C12 1_555 1_555
H15 C26 1_555 1_555
C27 H16 1_555 1_555
C28 C16 1_555 1_555
H17 C28 1_555 1_555
C29 H18 1_555 1_555
C30 C2 1_555 1_555
H19 C30 1_555 1_555
C31 C6 1_555 1_555
H20 C31 1_555 1_555
C32 C11 1_555 1_555
H21 C32 1_555 1_555
C33 C8 1_555 1_555
H22 C33 1_555 1_555
C34 C21 1_555 1_555
H23 C34 1_555 1_555
C35 H24 1_555 1_555
C36 C23 1_555 1_555
H25 C36 1_555 1_555
C37 C18 1_555 1_555
H26 C37 1_555 1_555
C38 C9 1_555 1_555
H27 C38 1_555 1_555
C39 C25 1_555 1_555
H28 C39 1_555 1_555
C40 C3 1_555 1_555
H29 C40 1_555 1_555
C41 C10 1_555 1_555
C42 C26 1_555 1_555
H30 C42 1_555 1_555
C43 C35 1_555 1_555
H31 C43 1_555 1_555
C44 C23 1_555 1_555
H32 C44 1_555 1_555
C45 C8 1_555 1_555
H33 C45 1_555 1_555
C46 C20 1_555 1_555
H34 C46 1_555 1_555
C47 N1 1_555 1_555
H35 C47 1_555 1_555
C48 C27 1_555 1_555
H36 C48 1_555 1_555
C49 C20 1_555 1_555
H37 C49 1_555 1_555
C50 C47 1_555 1_555
H38 C50 1_555 1_555
O2 H39 1_555 1_555
H40 O2 1_555 1_555
O3 H41 1_555 1_555
H42 O3 1_555 1_555
C5 C7 1_555 1_555
C5 C11 1_555 1_555
C7 C13 1_555 1_555
C12 C45 1_555 1_555
C13 C32 1_555 1_555
C16 C19 1_555 1_555
C22 C28 1_555 1_555
C24 C31 1_555 1_555
C24 C37 1_555 1_555
C29 C36 1_555 1_555
C30 C44 1_555 1_555
C33 C42 1_555 1_555
C34 C38 1_555 1_555
C35 C39 1_555 1_555
C40 C43 1_555 1_555
C46 C48 1_555 1_555
C49 C50 1_555 1_555

#END
