
#######################################################################
#
#                 Cambridge Crystallographic Data Centre
#                                CCDC 
#
#######################################################################
#
# If this CIF has been generated from an entry in the Cambridge 
# Structural Database, then it will include bibliographic, chemical, 
# crystal, experimental, refinement or atomic coordinate data resulting 
# from the CCDC's data processing and validation procedures.
#
#######################################################################

data_ETCABZ10
_chemical_formula_moiety         'C14 H13 N1'
_chemical_name_systematic        N-Ethylcarbazole
_symmetry_cell_setting           orthorhombic
_symmetry_space_group_name_H-M   'P b c a'
_symmetry_Int_Tables_number      61
_space_group_name_Hall           '-P 2ac 2ab'
loop_
_symmetry_equiv_pos_site_id
_symmetry_equiv_pos_as_xyz
1 x,y,z
2 1/2-x,-y,1/2+z
3 1/2+x,1/2-y,-z
4 -x,1/2+y,1/2-z
5 -x,-y,-z
6 1/2+x,y,1/2-z
7 1/2-x,1/2+y,z
8 x,1/2-y,1/2+z
_cell_length_a                   7.791(1)
_cell_length_b                   24.615(3)
_cell_length_c                   56.587(5)
_cell_angle_alpha                90
_cell_angle_beta                 90
_cell_angle_gamma                90
_cell_volume                     10852
_cell_formula_units_Z            40
loop_
_atom_site_label
_atom_site_type_symbol
_atom_site_fract_x
_atom_site_fract_y
_atom_site_fract_z
N1 N 0.3233(4) 0.41703(13) 0.13319(6)
C1 C 0.4112(5) 0.40700(16) 0.11243(7)
C2 C 0.3807(6) 0.36841(18) 0.09521(8)
C3 C 0.4872(7) 0.36735(21) 0.07609(9)
C4 C 0.6184(7) 0.40381(22) 0.07409(9)
C5 C 0.6504(6) 0.44167(18) 0.09127(8)
C6 C 0.5450(5) 0.44390(16) 0.11072(7)
C7 C 0.3944(5) 0.46114(16) 0.14424(7)
C8 C 0.3469(6) 0.48760(17) 0.16492(7)
C9 C 0.4382(6) 0.53245(18) 0.17170(8)
C10 C 0.5768(6) 0.55029(17) 0.15914(8)
C11 C 0.6272(6) 0.52346(16) 0.13882(7)
C12 C 0.5353(6) 0.47853(15) 0.13123(7)
C13 C 0.1583(6) 0.39463(18) 0.13926(8)
C14 C 0.0152(6) 0.42576(20) 0.12829(10)
H1 H 0.285(6) 0.3404(16) 0.0971(7)
H2 H 0.471(6) 0.3420(16) 0.0633(7)
H3 H 0.694(6) 0.4020(18) 0.0607(8)
H4 H 0.739(5) 0.4667(13) 0.0896(6)
H5 H 0.243(5) 0.4754(14) 0.1734(6)
H6 H 0.397(5) 0.5515(14) 0.1859(6)
H7 H 0.639(6) 0.5821(16) 0.1641(7)
H8 H 0.724(5) 0.5363(12) 0.1301(5)
H9 H 0.153(5) 0.3937(14) 0.1571(6)
H10 H 0.163(5) 0.3547(15) 0.1347(7)
H11 H -0.094(7) 0.4080(18) 0.1328(8)
H12 H 0.017(6) 0.4654(17) 0.1350(8)
H13 H 0.026(7) 0.4261(19) 0.1106(9)
N2 N 0.1800(4) 0.09878(14) 0.42261(6)
C15 C 0.0986(5) 0.05792(17) 0.43441(7)
C16 C 0.1362(6) 0.03274(21) 0.45601(8)
C17 C 0.0294(8) -0.00807(23) 0.46361(9)
C18 C -0.1070(7) -0.02505(20) 0.45036(9)
C19 C -0.1436(6) -0.00093(17) 0.42926(8)
C20 C -0.0404(5) 0.04091(16) 0.42092(7)
C21 C 0.0995(5) 0.10749(16) 0.40137(7)
C22 C 0.1407(6) 0.14301(17) 0.38320(8)
C23 C 0.0422(7) 0.14239(19) 0.36337(9)
C24 C -0.0966(6) 0.10866(19) 0.36132(8)
C25 C -0.1388(6) 0.07398(17) 0.37948(8)
C26 C -0.0394(5) 0.07277(15) 0.39981(7)
C27 C 0.3410(6) 0.12253(21) 0.42920(9)
C28 C 0.4873(6) 0.09255(23) 0.41845(10)
H14 H 0.234(6) 0.0482(15) 0.4650(7)
H15 H 0.065(6) -0.0248(16) 0.4777(7)
H16 H -0.178(7) -0.0528(20) 0.4586(9)
H17 H -0.239(6) -0.012(15) 0.4193(6)
H18 H 0.249(6) 0.1663(15) 0.3845(6)
H19 H 0.078(6) 0.1677(17) 0.3483(8)
H20 H -0.166(6) 0.1060(17) 0.3449(8)
H21 H -0.235(5) 0.0485(14) 0.3800(6)
H22 H 0.346(6) 0.1228(16) 0.4477(7)
H23 H 0.342(6) 0.1643(16) 0.4234(7)
H24 H 0.598(6) 0.1092(16) 0.4224(7)
H25 H 0.487(7) 0.0544(21) 0.4235(9)
H26 H 0.483(7) 0.0933(20) 0.4009(9)
N3 N 0.2000(4) 0.18948(12) 0.04151(6)
C29 C 0.1394(5) 0.15101(15) 0.02581(7)
C30 C 0.2002(6) 0.09864(17) 0.02182(8)
C31 C 0.1169(7) 0.06783(17) 0.00532(9)
C32 C -0.0203(7) 0.08780(19) -0.00673(8)
C33 C -0.0820(6) 0.13942(18) -0.00282(8)
C34 C -0.0003(5) 0.17197(15) 0.01385(6)
C35 C 0.1015(5) 0.23559(15) 0.03932(6)
C36 C 0.1145(6) 0.28523(17) 0.05090(7)
C37 C -0.0027(7) 0.32490(17) 0.04540(8)
C38 C -0.1279(6) 0.31603(18) 0.02891(8)
C39 C -0.1409(5) 0.26683(17) 0.01753(7)
C40 C -0.0245(5) 0.22619(15) 0.02259(6)
C41 C 0.3517(6) 0.18566(18) 0.05579(8)
C42 C 0.5039(6) 0.20720(21) 0.04334(9)
H27 H 0.300(5) 0.0849(15) 0.0310(7)
H28 H 0.158(6) 0.0268(16) 0.0025(8)
H29 H -0.078(6) 0.0643(15) -0.0176(7)
H30 H -0.178(5) 0.1570(14) -0.0103(6)
H31 H 0.204(5) 0.2892(13) 0.0618(6)
H32 H -0.001(6) 0.3584(17) 0.0534(8)
H33 H -0.222(6) 0.3458(16) 0.0247(7)
H34 H -0.230(5) 0.2598(15) 0.0055(6)
H35 H 0.370(5) 0.1469(14) 0.0610(6)
H36 H 0.330(5) 0.2081(15) 0.0722(7)
H37 H 0.605(7) 0.2046(19) 0.0544(9)
H38 H 0.526(6) 0.1813(18) 0.0283(8)
H39 H 0.489(6) 0.2475(17) 0.0388(8)
N4 N -0.0242(5) 0.44367(15) 0.20091(6)
C43 C 0.0721(5) 0.40287(18) 0.21029(7)
C44 C 0.0558(7) 0.34685(20) 0.20761(8)
C45 C 0.1684(8) 0.31417(21) 0.21931(9)
C46 C 0.2951(7) 0.33545(23) 0.23331(9)
C47 C 0.3112(6) 0.39060(22) 0.23612(7)
C48 C 0.1992(5) 0.42500(18) 0.22457(7)
C49 C 0.0339(6) 0.49224(18) 0.20955(7)
C50 C -0.0257(7) 0.54428(21) 0.20522(10)
C51 C 0.0560(9) 0.58659(22) 0.21578(11)
C52 C 0.1947(9) 0.57813(23) 0.23034(10)
C53 C 0.2560(7) 0.52651(22) 0.23458(8)
C54 C 0.1743(6) 0.48251(19) 0.22411(7)
C55 C -0.1822(6) 0.43554(21) 0.18842(8)
C56 C -0.3300(6) 0.43108(23) 0.20520(9)
H40 H -0.040(6) 0.3301(15) 0.1971(7)
H41 H 0.165(6) 0.2735(18) 0.2190(8)
H42 H 0.371(6) 0.3104(17) 0.2413(8)
H43 H 0.399(5) 0.4064(13) 0.2454(6)
H44 H -0.131(6) 0.5495(17) 0.1955(7)
H45 H 0.015(7) 0.6228(18) 0.2117(8)
H46 H 0.250(8) 0.6068(20) 0.2375(9)
H47 H 0.354(6) 0.5199(17) 0.2445(8)
H48 H -0.174(6) 0.4018(18) 0.1792(8)
H49 H -0.198(6) 0.4668(16) 0.1775(7)
H50 H -0.437(6) 0.4255(18) 0.1949(8)
H51 H -0.322(6) 0.4000(17) 0.2167(8)
H52 H -0.345(6) 0.4665(18) 0.2148(8)
N5 N 0.1906(5) 0.28059(14) 0.33122(7)
C57 C 0.2851(6) 0.27188(17) 0.35128(8)
C58 C 0.2694(7) 0.29519(19) 0.37376(9)
C59 C 0.3828(8) 0.27928(22) 0.39068(9)
C60 C 0.5081(7) 0.24275(22) 0.38622(9)
C61 C 0.5254(6) 0.21951(20) 0.36415(9)
C62 C 0.4123(6) 0.23432(17) 0.34629(8)
C63 C 0.2499(6) 0.24685(17) 0.31357(8)
C64 C 0.1910(7) 0.24082(20) 0.29050(9)
C65 C 0.2737(8) 0.20527(23) 0.27600(9)
C66 C 0.4115(8) 0.17573(21) 0.28425(10)
C67 C 0.4715(7) 0.18157(19) 0.30681(9)
C68 C 0.3889(6) 0.21767(17) 0.32199(8)
C69 C 0.0314(7) 0.31002(20) 0.33027(9)
C70 C -0.1157(7) 0.27405(23) 0.33681(11)
H53 H 0.170(6) 0.3219(16) 0.3770(7)
H54 H 0.365(6) 0.2922(18) 0.4079(8)
H55 H 0.592(7) 0.2355(21) 0.4003(9)
H56 H 0.605(5) 0.1896(14) 0.3595(6)
H57 H 0.092(6) 0.2626(17) 0.2846(7)
H58 H 0.227(7) 0.2009(19) 0.2579(8)
H59 H 0.462(6) 0.1503(18) 0.2730(8)
H60 H 0.567(6) 0.1610(16) 0.3141(7)
H61 H 0.013(6) 0.3222(17) 0.3138(7)
H62 H 0.044(6) 0.3411(16) 0.3415(7)
H63 H -0.222(7) 0.2970(19) 0.3345(8)
H64 H -0.118(7) 0.2390(20) 0.3259(9)
H65 H -0.103(7) 0.2621(20) 0.3544(9)
loop_
_geom_bond_atom_site_label_1
_geom_bond_atom_site_label_2
_geom_bond_site_symmetry_1
_geom_bond_site_symmetry_2
N1 C1 1_555 1_555
C1 C2 1_555 1_555
C2 C3 1_555 1_555
C3 C4 1_555 1_555
C4 C5 1_555 1_555
C5 C6 1_555 1_555
C6 C1 1_555 1_555
C7 N1 1_555 1_555
C8 C7 1_555 1_555
C9 C8 1_555 1_555
C10 C9 1_555 1_555
C11 C10 1_555 1_555
C12 C6 1_555 1_555
C13 N1 1_555 1_555
C14 C13 1_555 1_555
H1 C2 1_555 1_555
H2 C3 1_555 1_555
H3 C4 1_555 1_555
H4 C5 1_555 1_555
H5 C8 1_555 1_555
H6 C9 1_555 1_555
H7 C10 1_555 1_555
H8 C11 1_555 1_555
H9 C13 1_555 1_555
H10 C13 1_555 1_555
H11 C14 1_555 1_555
H12 C14 1_555 1_555
H13 C14 1_555 1_555
N2 C15 1_555 1_555
C15 C16 1_555 1_555
C16 C17 1_555 1_555
C17 C18 1_555 1_555
C18 C19 1_555 1_555
C19 C20 1_555 1_555
C20 C15 1_555 1_555
C21 N2 1_555 1_555
C22 C21 1_555 1_555
C23 C22 1_555 1_555
C24 C23 1_555 1_555
C25 C24 1_555 1_555
C26 C20 1_555 1_555
C27 N2 1_555 1_555
C28 C27 1_555 1_555
H14 C16 1_555 1_555
H15 C17 1_555 1_555
H16 C18 1_555 1_555
H17 C19 1_555 1_555
H18 C22 1_555 1_555
H19 C23 1_555 1_555
H20 C24 1_555 1_555
H21 C25 1_555 1_555
H22 C27 1_555 1_555
H23 C27 1_555 1_555
H24 C28 1_555 1_555
H25 C28 1_555 1_555
H26 C28 1_555 1_555
N3 C29 1_555 1_555
C29 C30 1_555 1_555
C30 C31 1_555 1_555
C31 C32 1_555 1_555
C32 C33 1_555 1_555
C33 C34 1_555 1_555
C34 C29 1_555 1_555
C35 N3 1_555 1_555
C36 C35 1_555 1_555
C37 C36 1_555 1_555
C38 C37 1_555 1_555
C39 C38 1_555 1_555
C40 C34 1_555 1_555
C41 N3 1_555 1_555
C42 C41 1_555 1_555
H27 C30 1_555 1_555
H28 C31 1_555 1_555
H29 C32 1_555 1_555
H30 C33 1_555 1_555
H31 C36 1_555 1_555
H32 C37 1_555 1_555
H33 C38 1_555 1_555
H34 C39 1_555 1_555
H35 C41 1_555 1_555
H36 C41 1_555 1_555
H37 C42 1_555 1_555
H38 C42 1_555 1_555
H39 C42 1_555 1_555
N4 C43 1_555 1_555
C43 C44 1_555 1_555
C44 C45 1_555 1_555
C45 C46 1_555 1_555
C46 C47 1_555 1_555
C47 C48 1_555 1_555
C48 C43 1_555 1_555
C49 N4 1_555 1_555
C50 C49 1_555 1_555
C51 C50 1_555 1_555
C52 C51 1_555 1_555
C53 C52 1_555 1_555
C54 C48 1_555 1_555
C55 N4 1_555 1_555
C56 C55 1_555 1_555
H40 C44 1_555 1_555
H41 C45 1_555 1_555
H42 C46 1_555 1_555
H43 C47 1_555 1_555
H44 C50 1_555 1_555
H45 C51 1_555 1_555
H46 C52 1_555 1_555
H47 C53 1_555 1_555
H48 C55 1_555 1_555
H49 C55 1_555 1_555
H50 C56 1_555 1_555
H51 C56 1_555 1_555
H52 C56 1_555 1_555
N5 C57 1_555 1_555
C57 C58 1_555 1_555
C58 C59 1_555 1_555
C59 C60 1_555 1_555
C60 C61 1_555 1_555
C61 C62 1_555 1_555
C62 C57 1_555 1_555
C63 N5 1_555 1_555
C64 C63 1_555 1_555
C65 C64 1_555 1_555
C66 C65 1_555 1_555
C67 C66 1_555 1_555
C68 C62 1_555 1_555
C69 N5 1_555 1_555
C70 C69 1_555 1_555
H53 C58 1_555 1_555
H54 C59 1_555 1_555
H55 C60 1_555 1_555
H56 C61 1_555 1_555
H57 C64 1_555 1_555
H58 C65 1_555 1_555
H59 C66 1_555 1_555
H60 C67 1_555 1_555
H61 C69 1_555 1_555
H62 C69 1_555 1_555
H63 C70 1_555 1_555
H64 C70 1_555 1_555
H65 C70 1_555 1_555
C7 C12 1_555 1_555
C11 C12 1_555 1_555
C21 C26 1_555 1_555
C25 C26 1_555 1_555
C35 C40 1_555 1_555
C39 C40 1_555 1_555
C49 C54 1_555 1_555
C53 C54 1_555 1_555
C63 C68 1_555 1_555
C67 C68 1_555 1_555

#END
