
#######################################################################
#
#                 Cambridge Crystallographic Data Centre
#                                CCDC 
#
#######################################################################
#
# If this CIF has been generated from an entry in the Cambridge 
# Structural Database, then it will include bibliographic, chemical, 
# crystal, experimental, refinement or atomic coordinate data resulting 
# from the CCDC's data processing and validation procedures.
#
#######################################################################

data_ETCYTC
_chemical_name_common            'epsilon-Cytidine hydrochloride'
_chemical_formula_moiety         'C11 H14 N3 O5 1+,Cl1 1-'
_chemical_name_systematic        '3,N^4^-Ethenocytidine hydrochloride'
_symmetry_cell_setting           monoclinic
_symmetry_space_group_name_H-M   'P 21'
_symmetry_Int_Tables_number      4
_space_group_name_Hall           'P 2yb'
loop_
_symmetry_equiv_pos_site_id
_symmetry_equiv_pos_as_xyz
1 x,y,z
2 -x,1/2+y,-z
_cell_length_a                   6.330(1)
_cell_length_b                   16.968(2)
_cell_length_c                   6.695(1)
_cell_angle_alpha                90
_cell_angle_beta                 115.37(2)
_cell_angle_gamma                90
_cell_volume                     649.743
_cell_formula_units_Z            2
loop_
_atom_site_label
_atom_site_type_symbol
_atom_site_fract_x
_atom_site_fract_y
_atom_site_fract_z
Cl1 Cl 0.21124 0.50000 0.11675
N1 N 0.11630 0.29670 0.17900
C1 C 0.20710 0.33550 0.37870
O1 O 0.40720 0.33190 0.51670
N2 N 0.03830 0.37990 0.41290
C2 C -0.18630 0.38880 0.26290
N3 N -0.28700 0.43770 0.35210
C3 C -0.26830 0.34880 0.06210
C4 C -0.11410 0.30300 0.02590
C5 C -0.12620 0.46000 0.55960
C6 C 0.07490 0.42470 0.59960
C7 C 0.27510 0.24560 0.12600
C8 C 0.24050 0.15820 0.14980
C9 C 0.33280 0.12440 -0.00810
C10 C 0.24420 0.18440 -0.19730
C11 C 0.01290 0.16710 -0.39080
O2 O 0.22940 0.25910 -0.09540
O3 O 0.34550 0.13000 0.36690
O4 O 0.58050 0.12410 0.10600
O5 O -0.17740 0.15870 -0.33270
H1 H -0.44400 0.44700 0.26800
H2 H -0.41500 0.35000 -0.02600
H3 H -0.13700 0.26300 -0.10600
H4 H -0.16400 0.49200 0.64800
H5 H 0.20700 0.42400 0.73600
H6 H 0.42300 0.25800 0.23100
H7 H 0.06900 0.14500 0.08200
H8 H 0.27500 0.07400 -0.04800
H9 H 0.35300 0.19200 -0.25200
H10 H -0.02600 0.22000 -0.47800
H11 H 0.03400 0.12500 -0.45100
H12 H 0.46300 0.13700 0.40200
H13 H 0.61700 0.09300 0.02800
H14 H -0.16600 0.12600 -0.26100
loop_
_geom_bond_atom_site_label_1
_geom_bond_atom_site_label_2
_geom_bond_site_symmetry_1
_geom_bond_site_symmetry_2
N1 C1 1_555 1_555
C1 O1 1_555 1_555
N2 C1 1_555 1_555
C2 N2 1_555 1_555
N3 C2 1_555 1_555
C3 C2 1_555 1_555
C4 N1 1_555 1_555
C5 N3 1_555 1_555
C6 N2 1_555 1_555
C7 N1 1_555 1_555
C8 C7 1_555 1_555
C9 C8 1_555 1_555
C10 C9 1_555 1_555
C11 C10 1_555 1_555
O2 C7 1_555 1_555
O3 C8 1_555 1_555
O4 C9 1_555 1_555
O5 C11 1_555 1_555
H1 N3 1_555 1_555
H2 C3 1_555 1_555
H3 C4 1_555 1_555
H4 C5 1_555 1_555
H5 C6 1_555 1_555
H6 C7 1_555 1_555
H7 C8 1_555 1_555
H8 C9 1_555 1_555
H9 C10 1_555 1_555
H10 C11 1_555 1_555
H11 C11 1_555 1_555
H12 O3 1_555 1_555
H13 O4 1_555 1_555
H14 O5 1_555 1_555
C3 C4 1_555 1_555
C5 C6 1_555 1_555
C10 O2 1_555 1_555

#END
