
#######################################################################
#
#                 Cambridge Crystallographic Data Centre
#                                CCDC 
#
#######################################################################
#
# If this CIF has been generated from an entry in the Cambridge 
# Structural Database, then it will include bibliographic, chemical, 
# crystal, experimental, refinement or atomic coordinate data resulting 
# from the CCDC's data processing and validation procedures.
#
#######################################################################

data_ETEDEM
_chemical_formula_moiety         'C16 H18 S2'
_chemical_name_systematic        1,2-bis(2-(Methylthio)phenyl)ethane
_symmetry_cell_setting           monoclinic
_symmetry_space_group_name_H-M   'P 21/n'
_symmetry_Int_Tables_number      14
_space_group_name_Hall           '-P 2yn'
loop_
_symmetry_equiv_pos_site_id
_symmetry_equiv_pos_as_xyz
1 x,y,z
2 1/2+x,1/2-y,1/2+z
3 -x,-y,-z
4 1/2-x,1/2+y,1/2-z
_cell_length_a                   7.985(4)
_cell_length_b                   4.866(2)
_cell_length_c                   18.875(6)
_cell_angle_alpha                90
_cell_angle_beta                 92.79(3)
_cell_angle_gamma                90
_cell_volume                     732.519
_exptl_crystal_colour            colorless
_exptl_crystal_description       'irregular fragment'
_cell_formula_units_Z            2
loop_
_atom_site_label
_atom_site_type_symbol
_atom_site_fract_x
_atom_site_fract_y
_atom_site_fract_z
S1 S 0.34968(15) 0.2426(3) 0.06490(7)
C1 C 0.1740(5) 0.2555(8) 0.11832(19)
C2 C 0.1708(5) 0.4173(9) 0.1790(2)
H1 H 0.2661 0.5286 0.1930
C3 C 0.0330(6) 0.4174(10) 0.2196(2)
H2 H 0.0306 0.5329 0.2608
C4 C -0.1007(5) 0.2544(10) 0.2015(2)
H3 H -0.1958 0.2517 0.2307
C5 C -0.0987(5) 0.0927(9) 0.1416(2)
H4 H -0.1941 -0.0195 0.1285
C6 C 0.0371(5) 0.0894(8) 0.09939(18)
C7 C 0.0308(6) -0.0820(8) 0.03260(18)
H5 H -0.0420 -0.2359 0.0393
H6 H 0.1412 -0.1509 0.0252
C8 C 0.4956(5) 0.4754(11) 0.1051(3)
H7 H 0.5958 0.4792 0.0790
H8 H 0.4467 0.6557 0.1053
H9 H 0.5228 0.4186 0.1530
C7B C -0.0308(6) 0.0820(8) -0.03260(18)
C6B C -0.0371(5) -0.0894(8) -0.09939(18)
C1B C -0.1740(5) -0.2555(8) -0.11832(19)
S1B S -0.34968(15) -0.2426(3) -0.06490(7)
C8B C -0.4956(5) -0.4754(11) -0.1051(3)
H7B H -0.5958 -0.4792 -0.0790
H8B H -0.4467 -0.6557 -0.1053
H9B H -0.5228 -0.4186 -0.1530
C2B C -0.1708(5) -0.4173(9) -0.1790(2)
H1B H -0.2661 -0.5286 -0.1930
C3B C -0.0330(6) -0.4174(10) -0.2196(2)
H2B H -0.0306 -0.5329 -0.2608
C4B C 0.1007(5) -0.2544(10) -0.2015(2)
H3B H 0.1958 -0.2517 -0.2307
C5B C 0.0987(5) -0.0927(9) -0.1416(2)
H4B H 0.1941 0.0195 -0.1285
H5B H 0.0420 0.2359 -0.0393
H6B H -0.1412 0.1509 -0.0252
loop_
_geom_bond_atom_site_label_1
_geom_bond_atom_site_label_2
_geom_bond_site_symmetry_1
_geom_bond_site_symmetry_2
S1 C1 1_555 1_555
C1 C2 1_555 1_555
C2 H1 1_555 1_555
C3 C2 1_555 1_555
H2 C3 1_555 1_555
C4 C3 1_555 1_555
H3 C4 1_555 1_555
C5 C4 1_555 1_555
H4 C5 1_555 1_555
C6 C1 1_555 1_555
C7 C6 1_555 1_555
H5 C7 1_555 1_555
H6 C7 1_555 1_555
C8 S1 1_555 1_555
H7 C8 1_555 1_555
H8 C8 1_555 1_555
H9 C8 1_555 1_555
C7B C7 1_555 1_555
C6B C7B 1_555 1_555
C1B C6B 1_555 1_555
S1B C1B 1_555 1_555
C8B S1B 1_555 1_555
H7B C8B 1_555 1_555
H8B C8B 1_555 1_555
H9B C8B 1_555 1_555
C2B C1B 1_555 1_555
H1B C2B 1_555 1_555
C3B C2B 1_555 1_555
H2B C3B 1_555 1_555
C4B C3B 1_555 1_555
H3B C4B 1_555 1_555
C5B C6B 1_555 1_555
H4B C5B 1_555 1_555
H5B C7B 1_555 1_555
H6B C7B 1_555 1_555
C5 C6 1_555 1_555
C4B C5B 1_555 1_555

#END
