
#######################################################################
#
#                 Cambridge Crystallographic Data Centre
#                                CCDC 
#
#######################################################################
#
# If this CIF has been generated from an entry in the Cambridge 
# Structural Database, then it will include bibliographic, chemical, 
# crystal, experimental, refinement or atomic coordinate data resulting 
# from the CCDC's data processing and validation procedures.
#
#######################################################################

data_ETEKAR
_chemical_formula_moiety         'C13 H9 F3 N2 O1'
_chemical_name_systematic        N-(pyridin-2-yl)-4-(trifluoromethyl)benzamide
_symmetry_cell_setting           triclinic
_symmetry_space_group_name_H-M   'P -1'
_symmetry_Int_Tables_number      2
_space_group_name_Hall           '-P 1'
loop_
_symmetry_equiv_pos_site_id
_symmetry_equiv_pos_as_xyz
1 x,y,z
2 -x,-y,-z
_cell_length_a                   5.6170(11)
_cell_length_b                   7.3899(16)
_cell_length_c                   14.156(3)
_cell_angle_alpha                75.267(13)
_cell_angle_beta                 80.383(12)
_cell_angle_gamma                88.880(13)
_cell_volume                     560.134
_exptl_crystal_colour            white
_exptl_crystal_description       Tabular
_cell_formula_units_Z            2
loop_
_atom_site_label
_atom_site_type_symbol
_atom_site_fract_x
_atom_site_fract_y
_atom_site_fract_z
C1 C 0.6676(12) 0.7684(9) 0.4331(4)
C2 C 0.6409(11) 0.7747(7) 0.3292(4)
C3 C 0.4304(11) 0.6967(8) 0.3113(4)
H1 H 0.3023 0.6459 0.3639
C4 C 0.4175(11) 0.6971(8) 0.2149(4)
H2 H 0.2749 0.6481 0.2018
C5 C 0.5978(12) 0.7637(8) 0.1381(4)
C6 C 0.8061(10) 0.8412(8) 0.1558(4)
H3 H 0.9344 0.8887 0.1027
C7 C 0.8244(11) 0.8483(8) 0.2518(4)
H4 H 0.9635 0.9040 0.2639
C8 C 0.5670(11) 0.7560(8) 0.0349(4)
C9 C 0.8113(11) 0.7134(8) -0.1224(4)
C10 C 0.6499(11) 0.7872(8) -0.1866(4)
H5 H 0.4983 0.8336 -0.1634
C11 C 0.7195(12) 0.7900(8) -0.2848(4)
H6 H 0.6158 0.8406 -0.3311
C12 C 0.9410(11) 0.7191(8) -0.3166(4)
H7 H 0.9943 0.7228 -0.3844
C13 C 1.0792(11) 0.6436(9) -0.2456(4)
H8 H 1.2297 0.5929 -0.2665
F1 F 0.8351(8) 0.6445(6) 0.4635(3)
F2 F 0.7325(10) 0.9330(5) 0.4421(3)
F3 F 0.4678(8) 0.7149(6) 0.5001(3)
N1 N 0.7705(10) 0.7137(8) -0.0212(4)
H9 H 0.8943 0.6820 0.0098
N2 N 1.0184(9) 0.6359(7) -0.1496(4)
O1 O 0.3731(8) 0.7885(6) 0.0073(3)
loop_
_geom_bond_atom_site_label_1
_geom_bond_atom_site_label_2
_geom_bond_site_symmetry_1
_geom_bond_site_symmetry_2
C1 C2 1_555 1_555
C2 C3 1_555 1_555
C3 H1 1_555 1_555
C4 C3 1_555 1_555
H2 C4 1_555 1_555
C5 C4 1_555 1_555
C6 C5 1_555 1_555
H3 C6 1_555 1_555
C7 C2 1_555 1_555
H4 C7 1_555 1_555
C8 C5 1_555 1_555
C9 C10 1_555 1_555
C10 H5 1_555 1_555
C11 C10 1_555 1_555
H6 C11 1_555 1_555
C12 C11 1_555 1_555
H7 C12 1_555 1_555
C13 C12 1_555 1_555
H8 C13 1_555 1_555
F1 C1 1_555 1_555
F2 C1 1_555 1_555
F3 C1 1_555 1_555
N1 C8 1_555 1_555
H9 N1 1_555 1_555
N2 C9 1_555 1_555
O1 C8 1_555 1_555
C6 C7 1_555 1_555
C9 N1 1_555 1_555
C13 N2 1_555 1_555

#END
