
#######################################################################
#
#                 Cambridge Crystallographic Data Centre
#                                CCDC 
#
#######################################################################
#
# If this CIF has been generated from an entry in the Cambridge 
# Structural Database, then it will include bibliographic, chemical, 
# crystal, experimental, refinement or atomic coordinate data resulting 
# from the CCDC's data processing and validation procedures.
#
#######################################################################

data_ETELIZ
_chemical_formula_moiety         
'3(C30 H30 N20 O10),6(K1 1+),6(I1 1-),2(C7 H6 O3),31(H2 O1)'
_chemical_name_systematic        
'Hexa-potassium hexakis(iodide) tris(cucurbit(5)uril) bis(4-hydroxybenzoic acid) hentriacontahydrate'
_symmetry_cell_setting           orthorhombic
_symmetry_space_group_name_H-M   'P n m a'
_symmetry_Int_Tables_number      62
_space_group_name_Hall           '-P 2ac 2n'
loop_
_symmetry_equiv_pos_site_id
_symmetry_equiv_pos_as_xyz
1 x,y,z
2 1/2-x,-y,1/2+z
3 -x,1/2+y,-z
4 1/2+x,1/2-y,1/2-z
5 -x,-y,-z
6 1/2+x,y,1/2-z
7 x,1/2-y,z
8 1/2-x,1/2+y,1/2+z
_cell_length_a                   23.702(3)
_cell_length_b                   33.368(5)
_cell_length_c                   20.051(3)
_cell_angle_alpha                90
_cell_angle_beta                 90
_cell_angle_gamma                90
_cell_volume                     15858.1
_exptl_crystal_colour            colorless
_exptl_crystal_description       block
_cell_formula_units_Z            4
loop_
_atom_site_label
_atom_site_type_symbol
_atom_site_fract_x
_atom_site_fract_y
_atom_site_fract_z
O1 O 0.27728(17) 0.08717(11) 0.15988(18)
O2 O 0.1263(3) 0.0618(2) 0.1899(2)
O3 O 0.2678(4) 0.0457(3) 0.4403(6)
O5 O 0.55892(18) 0.09322(13) 0.4148(2)
K1 K 0.24088(5) 0.09076(4) 0.28971(6)
K2 K 0.20432(5) 0.13758(4) 0.09437(6)
K3 K 0.20369(5) 0.01153(4) 0.12433(6)
I1 I 0.38314(2) 0.2500 0.44455(3)
I2 I 0.13998(3) 0.2500 0.49241(5)
O6 O 0.0342(5) 0.1830(3) 0.4662(6)
I4 I 0.473469(19) 0.123500(14) -0.09242(2)
I5 I -0.0051(3) 0.1578(2) -0.1351(2)
C1 C 0.2397(2) -0.01862(17) 0.2931(3)
C2 C 0.2864(2) -0.07209(16) 0.3461(3)
H1 H 0.2976 -0.0954 0.3195
C3 C 0.2230(2) -0.07347(16) 0.3647(3)
H2 H 0.2060 -0.0994 0.3535
C4 C 0.2759(2) -0.06901(15) 0.4625(3)
C5 C 0.1410(2) -0.02873(18) 0.3261(3)
H3 H 0.1175 -0.0525 0.3293
H4 H 0.1318 -0.0153 0.2846
C6 C 0.1727(2) -0.07137(17) 0.4779(3)
H5 H 0.1473 -0.0901 0.4562
H6 H 0.1841 -0.0832 0.5200
C7 C 0.1230(2) 0.03911(16) 0.3755(3)
C8 C 0.1034(2) -0.01527(16) 0.4454(3)
H7 H 0.0700 -0.0320 0.4378
C9 C 0.0872(2) 0.02387(16) 0.4813(3)
H8 H 0.0474 0.0242 0.4947
C10 C 0.1540(2) -0.01116(17) 0.5449(3)
C11 C 0.0955(2) 0.09718(16) 0.4445(3)
H9 H 0.0909 0.1109 0.4022
H10 H 0.0619 0.1023 0.4709
C12 C 0.1193(2) 0.05240(17) 0.5940(3)
H11 H 0.0808 0.0623 0.5952
H12 H 0.1262 0.0381 0.6354
C13 C 0.1845(2) 0.13487(16) 0.4438(3)
C14 C 0.1472(2) 0.12126(16) 0.5498(2)
H13 H 0.1147 0.1365 0.5660
C15 C 0.2033(2) 0.14578(17) 0.5570(3)
H14 H 0.1974 0.1710 0.5810
C16 C 0.2117(2) 0.08426(17) 0.6157(3)
C17 C 0.2691(2) 0.17503(16) 0.4694(3)
H15 H 0.2751 0.1964 0.5014
H16 H 0.2621 0.1873 0.4263
C18 C 0.2953(2) 0.12859(17) 0.6181(3)
H17 H 0.2962 0.1571 0.6278
H18 H 0.3020 0.1145 0.6597
C19 C 0.3419(2) 0.13888(16) 0.4054(3)
C20 C 0.3593(2) 0.14593(16) 0.5200(3)
H19 H 0.3721 0.1718 0.5375
C21 C 0.4082(2) 0.12238(16) 0.4865(3)
H20 H 0.4446 0.1356 0.4938
C22 C 0.3688(2) 0.08400(18) 0.5728(3)
C23 C 0.4243(2) 0.10139(16) 0.3655(3)
H21 H 0.4643 0.1053 0.3737
H22 H 0.4157 0.1135 0.3227
C24 C 0.4499(2) 0.05403(16) 0.5145(3)
H23 H 0.4554 0.0412 0.5574
H24 H 0.4848 0.0674 0.5026
C25 C 0.3760(2) 0.04323(19) 0.3153(3)
C26 C 0.4461(2) 0.02683(17) 0.3930(3)
H25 H 0.4863 0.0293 0.3823
C27 C 0.4214(2) -0.01233(17) 0.3647(3)
H26 H 0.4503 -0.0286 0.3426
C28 C 0.4096(2) -0.01168(16) 0.4802(3)
C29 C 0.3431(2) -0.02302(18) 0.2767(3)
H27 H 0.3336 -0.0089 0.2360
H28 H 0.3643 -0.0468 0.2643
C30 C 0.3734(2) -0.07181(16) 0.4211(3)
H29 H 0.3909 -0.0872 0.3856
H30 H 0.3817 -0.0853 0.4628
N1 N 0.29164(19) -0.03544(14) 0.3089(2)
N2 N 0.19935(18) -0.04085(14) 0.3243(2)
N3 N 0.31313(19) -0.07208(13) 0.4111(2)
N4 N 0.22260(19) -0.06626(13) 0.4361(2)
N5 N 0.12763(18) -0.00181(13) 0.3821(2)
N6 N 0.09971(19) 0.05446(13) 0.4323(2)
N7 N 0.14228(19) -0.03464(13) 0.4913(2)
N8 N 0.12501(18) 0.02456(14) 0.5387(2)
N9 N 0.14343(18) 0.11381(13) 0.4786(2)
N10 N 0.21994(19) 0.15252(13) 0.4888(2)
N11 N 0.15707(18) 0.08587(14) 0.5901(2)
N12 N 0.23958(18) 0.11831(14) 0.5943(2)
N13 N 0.31955(19) 0.15097(13) 0.4653(2)
N14 N 0.39308(19) 0.12212(13) 0.4165(2)
N15 N 0.34060(18) 0.11949(12) 0.5730(2)
N16 N 0.40565(18) 0.08362(13) 0.5205(2)
N17 N 0.41330(19) 0.05865(13) 0.3612(2)
N18 N 0.37934(19) 0.00271(15) 0.3171(2)
N19 N 0.43745(18) 0.02318(14) 0.4642(2)
N20 N 0.39916(19) -0.03208(13) 0.4228(2)
O8 O 0.23158(16) 0.00984(11) 0.25747(17)
O9 O 0.13649(16) 0.05834(11) 0.32626(18)
O10 O 0.18823(16) 0.13681(11) 0.38322(18)
O11 O 0.31857(17) 0.14253(11) 0.35052(19)
O12 O 0.34625(16) 0.06287(11) 0.27778(19)
O13 O 0.28752(16) -0.06791(11) 0.52202(18)
O14 O 0.18446(16) -0.01976(11) 0.59215(19)
O15 O 0.23068(15) 0.05873(11) 0.65152(18)
O16 O 0.36201(16) 0.05664(11) 0.61310(19)
O17 O 0.39804(16) -0.02220(11) 0.53739(17)
C31 C 0.2355(2) 0.19254(16) 0.2505(2)
C32 C 0.2782(3) 0.2500 0.2951(4)
H31 H 0.3021 0.2500 0.3350
C33 C 0.2147(3) 0.2500 0.3129(4)
H32 H 0.2091 0.2500 0.3614
C34 C 0.1366(2) 0.19843(16) 0.2875(3)
H33 H 0.1213 0.2057 0.3307
H34 H 0.1375 0.1694 0.2850
C35 C 0.0881(2) 0.19211(16) 0.1788(3)
C36 C 0.0670(3) 0.2500 0.2397(4)
H35 H 0.0419 0.2500 0.2785
C37 C 0.0327(3) 0.2500 0.1740(4)
H36 H -0.0080 0.2500 0.1824
C38 C 0.0279(2) 0.19917(16) 0.0788(3)
H37 H 0.0286 0.1701 0.0793
H38 H -0.0111 0.2076 0.0752
C39 C 0.1007(2) 0.19171(17) -0.0072(3)
C40 C 0.0463(3) 0.2500 -0.0146(4)
H39 H 0.0076 0.2500 -0.0319
C41 C 0.0895(4) 0.2500 -0.0719(4)
H40 H 0.0713 0.2500 -0.1158
C42 C 0.1648(2) 0.19819(17) -0.1037(3)
H41 H 0.1554 0.2055 -0.1492
H42 H 0.1652 0.1692 -0.1011
C43 C 0.2596(3) 0.19120(19) -0.0520(3)
C44 C 0.2451(4) 0.2500 -0.1137(4)
H43 H 0.2455 0.2500 -0.1626
C45 C 0.3057(3) 0.2500 -0.0858(4)
H44 H 0.3338 0.2500 -0.1217
C46 C 0.3579(3) 0.19893(18) -0.0123(3)
H45 H 0.3574 0.1699 -0.0119
H46 H 0.3911 0.2073 -0.0368
C47 C 0.3419(2) 0.19211(18) 0.1094(3)
C48 C 0.3897(3) 0.2500 0.0759(4)
H47 H 0.4296 0.2500 0.0631
C49 C 0.3828(3) 0.2500 0.1542(4)
H48 H 0.4194 0.2500 0.1769
C50 C 0.3384(2) 0.19845(17) 0.2327(3)
H49 H 0.3372 0.1694 0.2318
H50 H 0.3679 0.2064 0.2634
N21 N 0.28496(18) 0.21349(12) 0.2565(2)
N22 N 0.19347(18) 0.21332(13) 0.2829(2)
N23 N 0.09900(19) 0.21328(13) 0.2363(2)
N24 N 0.05072(19) 0.21383(13) 0.1413(2)
N25 N 0.0584(2) 0.21312(13) 0.0210(2)
N26 N 0.1217(2) 0.21330(13) -0.0599(2)
N27 N 0.2213(2) 0.21318(14) -0.0882(2)
N28 N 0.3080(2) 0.21326(14) -0.0472(2)
N29 N 0.3624(2) 0.21327(14) 0.0560(2)
N30 N 0.35197(18) 0.21333(14) 0.1660(2)
O18 O 0.22966(15) 0.16001(11) 0.22259(18)
O19 O 0.10794(15) 0.15896(11) 0.16450(19)
O20 O 0.11894(16) 0.15872(12) 0.01042(19)
O21 O 0.25117(17) 0.15746(12) -0.02886(19)
O22 O 0.31847(17) 0.15922(12) 0.10634(19)
C31F C 0.2355(2) 0.30746(16) 0.2505(2)
C34F C 0.1366(2) 0.30157(16) 0.2875(3)
H33F H 0.1213 0.2943 0.3307
H34F H 0.1375 0.3306 0.2850
C35F C 0.0881(2) 0.30789(16) 0.1788(3)
C38F C 0.0279(2) 0.30083(16) 0.0788(3)
H37F H 0.0286 0.3299 0.0793
H38F H -0.0111 0.2924 0.0752
C39F C 0.1007(2) 0.30829(17) -0.0072(3)
C42F C 0.1648(2) 0.30181(17) -0.1037(3)
H41F H 0.1554 0.2945 -0.1492
H42F H 0.1652 0.3308 -0.1011
C43F C 0.2596(3) 0.30880(19) -0.0520(3)
C46F C 0.3579(3) 0.30107(18) -0.0123(3)
H45F H 0.3574 0.3301 -0.0119
H46F H 0.3911 0.2927 -0.0368
C47F C 0.3419(2) 0.30789(18) 0.1094(3)
C50F C 0.3384(2) 0.30155(17) 0.2327(3)
H49F H 0.3372 0.3306 0.2318
H50F H 0.3679 0.2936 0.2634
N21F N 0.28496(18) 0.28651(12) 0.2565(2)
N22F N 0.19347(18) 0.28668(13) 0.2829(2)
N23F N 0.09900(19) 0.28672(13) 0.2363(2)
N24F N 0.05072(19) 0.28617(13) 0.1413(2)
N25F N 0.0584(2) 0.28688(13) 0.0210(2)
N26F N 0.1217(2) 0.28670(13) -0.0599(2)
N27F N 0.2213(2) 0.28682(14) -0.0882(2)
N28F N 0.3080(2) 0.28674(14) -0.0472(2)
N29F N 0.3624(2) 0.28673(14) 0.0560(2)
N30F N 0.35197(18) 0.28667(14) 0.1660(2)
O18F O 0.22966(15) 0.33999(11) 0.22259(18)
O19F O 0.10794(15) 0.34104(11) 0.16450(19)
O20F O 0.11894(16) 0.34128(12) 0.01042(19)
O21F O 0.25117(17) 0.34254(12) -0.02886(19)
O22F O 0.31847(17) 0.34078(12) 0.10634(19)
C51 C 0.4981(3) 0.1003(2) 0.2197(3)
H51 H 0.5117 0.1072 0.2617
C52 C 0.4947(3) 0.0606(2) 0.1994(4)
H52 H 0.5077 0.0411 0.2288
C53 C 0.4735(3) 0.0479(3) 0.1386(4)
C54 C 0.4574(3) 0.07975(19) 0.0982(4)
H53 H 0.4437 0.0728 0.0563
C55 C 0.4592(3) 0.1205(2) 0.1118(3)
H54 H 0.4474 0.1400 0.0816
C56 C 0.4802(3) 0.1295(3) 0.1748(3)
C57 C 0.4837(5) 0.1666(6) 0.1941(6)
O23 O 0.4765(2) 0.00696(14) 0.1175(3)
H55 H 0.4922 -0.0064 0.1463
O24 O 0.4901(2) 0.19693(15) 0.1512(3)
H56 H 0.4966 0.1880 0.1138
O25 O 0.4716(3) 0.18170(18) 0.2530(4)
O4? O 0.2041(5) 0.2357(3) 0.0916(6)
I3? I 0.097(2) 0.2238(10) 0.4781(8)
O7? O 0.0074(5) 0.2017(5) 0.4782(8)
I6? I -0.0087(6) 0.1427(7) -0.1383(7)
I7? I 0.0009(4) 0.1406(3) -0.1360(5)
loop_
_geom_bond_atom_site_label_1
_geom_bond_atom_site_label_2
_geom_bond_site_symmetry_1
_geom_bond_site_symmetry_2
C1 N1 1_555 1_555
C2 H1 1_555 1_555
C3 C2 1_555 1_555
H2 C3 1_555 1_555
C4 N3 1_555 1_555
C5 H3 1_555 1_555
H4 C5 1_555 1_555
C6 H5 1_555 1_555
H6 C6 1_555 1_555
C7 N5 1_555 1_555
C8 H7 1_555 1_555
C9 C8 1_555 1_555
H8 C9 1_555 1_555
C10 N7 1_555 1_555
C11 H9 1_555 1_555
H10 C11 1_555 1_555
C12 H11 1_555 1_555
H12 C12 1_555 1_555
C13 N9 1_555 1_555
C14 H13 1_555 1_555
C15 C14 1_555 1_555
H14 C15 1_555 1_555
C16 N11 1_555 1_555
C17 H15 1_555 1_555
H16 C17 1_555 1_555
C18 H17 1_555 1_555
H18 C18 1_555 1_555
C19 N13 1_555 1_555
C20 H19 1_555 1_555
C21 C20 1_555 1_555
H20 C21 1_555 1_555
C22 N15 1_555 1_555
C23 H21 1_555 1_555
H22 C23 1_555 1_555
C24 H23 1_555 1_555
H24 C24 1_555 1_555
C25 N17 1_555 1_555
C26 H25 1_555 1_555
C27 C26 1_555 1_555
H26 C27 1_555 1_555
C28 N19 1_555 1_555
C29 H27 1_555 1_555
H28 C29 1_555 1_555
C30 H29 1_555 1_555
H30 C30 1_555 1_555
C31 N21 1_555 1_555
C32 H31 1_555 1_555
C33 C32 1_555 1_555
H32 C33 1_555 1_555
C34 H33 1_555 1_555
H34 C34 1_555 1_555
C35 N23 1_555 1_555
C36 H35 1_555 1_555
C37 C36 1_555 1_555
H36 C37 1_555 1_555
C38 H37 1_555 1_555
H38 C38 1_555 1_555
C39 N25 1_555 1_555
C40 H39 1_555 1_555
C41 C40 1_555 1_555
H40 C41 1_555 1_555
C42 H41 1_555 1_555
H42 C42 1_555 1_555
C43 N27 1_555 1_555
C44 H43 1_555 1_555
C45 C44 1_555 1_555
H44 C45 1_555 1_555
C46 H45 1_555 1_555
H46 C46 1_555 1_555
C47 N29 1_555 1_555
C48 H47 1_555 1_555
C49 C48 1_555 1_555
H48 C49 1_555 1_555
C50 H49 1_555 1_555
H50 C50 1_555 1_555
N1 C2 1_555 1_555
N2 C1 1_555 1_555
N3 C2 1_555 1_555
N4 C3 1_555 1_555
N5 C5 1_555 1_555
N6 C7 1_555 1_555
N7 C6 1_555 1_555
N8 C9 1_555 1_555
N9 C11 1_555 1_555
N10 C13 1_555 1_555
N11 C12 1_555 1_555
N12 C15 1_555 1_555
N13 C17 1_555 1_555
N14 C19 1_555 1_555
N15 C18 1_555 1_555
N16 C21 1_555 1_555
N17 C23 1_555 1_555
N18 C25 1_555 1_555
N19 C24 1_555 1_555
N20 C27 1_555 1_555
N21 C32 1_555 1_555
N22 C31 1_555 1_555
N23 C34 1_555 1_555
N24 C35 1_555 1_555
N25 C38 1_555 1_555
N26 C39 1_555 1_555
N27 C42 1_555 1_555
N28 C43 1_555 1_555
N29 C46 1_555 1_555
N30 C47 1_555 1_555
O8 C1 1_555 1_555
O9 C7 1_555 1_555
O10 C13 1_555 1_555
O11 C19 1_555 1_555
O12 C25 1_555 1_555
O13 C4 1_555 1_555
O14 C10 1_555 1_555
O15 C16 1_555 1_555
O16 C22 1_555 1_555
O17 C28 1_555 1_555
O18 C31 1_555 1_555
O19 C35 1_555 1_555
O20 C39 1_555 1_555
O21 C43 1_555 1_555
O22 C47 1_555 1_555
C51 H51 1_555 1_555
C52 C51 1_555 1_555
H52 C52 1_555 1_555
C53 C52 1_555 1_555
C54 C53 1_555 1_555
H53 C54 1_555 1_555
C55 C54 1_555 1_555
H54 C55 1_555 1_555
C56 C51 1_555 1_555
C57 C56 1_555 1_555
O23 C53 1_555 1_555
H55 O23 1_555 1_555
O24 C57 1_555 1_555
H56 O24 1_555 1_555
O25 C57 1_555 1_555
C31F N21F 1_555 1_555
C34F H33F 1_555 1_555
H34F C34F 1_555 1_555
C35F N23F 1_555 1_555
C38F H37F 1_555 1_555
H38F C38F 1_555 1_555
C39F N25F 1_555 1_555
C42F H41F 1_555 1_555
H42F C42F 1_555 1_555
C43F N27F 1_555 1_555
C46F H45F 1_555 1_555
H46F C46F 1_555 1_555
C47F N29F 1_555 1_555
C50F H49F 1_555 1_555
H50F C50F 1_555 1_555
N21F C32 1_555 1_555
N22F C33 1_555 1_555
N23F C36 1_555 1_555
N24F C37 1_555 1_555
N25F C40 1_555 1_555
N26F C41 1_555 1_555
N27F C44 1_555 1_555
N28F C45 1_555 1_555
N29F C48 1_555 1_555
N30F C49 1_555 1_555
O18F C31F 1_555 1_555
O19F C35F 1_555 1_555
O20F C39F 1_555 1_555
O21F C43F 1_555 1_555
O22F C47F 1_555 1_555
C3 N2 1_555 1_555
C4 N4 1_555 1_555
C5 N2 1_555 1_555
C6 N4 1_555 1_555
C8 N5 1_555 1_555
C8 N7 1_555 1_555
C9 N6 1_555 1_555
C10 N8 1_555 1_555
C11 N6 1_555 1_555
C12 N8 1_555 1_555
C14 N9 1_555 1_555
C14 N11 1_555 1_555
C15 N10 1_555 1_555
C16 N12 1_555 1_555
C17 N10 1_555 1_555
C18 N12 1_555 1_555
C20 N13 1_555 1_555
C20 N15 1_555 1_555
C21 N14 1_555 1_555
C22 N16 1_555 1_555
C23 N14 1_555 1_555
C24 N16 1_555 1_555
C26 N17 1_555 1_555
C26 N19 1_555 1_555
C27 N18 1_555 1_555
C28 N20 1_555 1_555
C29 N1 1_555 1_555
C29 N18 1_555 1_555
C30 N3 1_555 1_555
C30 N20 1_555 1_555
C33 N22 1_555 1_555
C34 N22 1_555 1_555
C36 N23 1_555 1_555
C37 N24 1_555 1_555
C38 N24 1_555 1_555
C40 N25 1_555 1_555
C41 N26 1_555 1_555
C42 N26 1_555 1_555
C44 N27 1_555 1_555
C45 N28 1_555 1_555
C46 N28 1_555 1_555
C48 N29 1_555 1_555
C49 N30 1_555 1_555
C50 N21 1_555 1_555
C50 N30 1_555 1_555
C55 C56 1_555 1_555
C31F N22F 1_555 1_555
C34F N22F 1_555 1_555
C34F N23F 1_555 1_555
C35F N24F 1_555 1_555
C38F N24F 1_555 1_555
C38F N25F 1_555 1_555
C39F N26F 1_555 1_555
C42F N26F 1_555 1_555
C42F N27F 1_555 1_555
C43F N28F 1_555 1_555
C46F N28F 1_555 1_555
C46F N29F 1_555 1_555
C47F N30F 1_555 1_555
C50F N21F 1_555 1_555
C50F N30F 1_555 1_555

#END
