
#######################################################################
#
#                 Cambridge Crystallographic Data Centre
#                                CCDC 
#
#######################################################################
#
# If this CIF has been generated from an entry in the Cambridge 
# Structural Database, then it will include bibliographic, chemical, 
# crystal, experimental, refinement or atomic coordinate data resulting 
# from the CCDC's data processing and validation procedures.
#
#######################################################################

data_ETENUM
_chemical_formula_moiety         'C17 H21 N2 O4 P1'
_chemical_name_systematic        
'Diethyl phenyl(4-pyridylcarbonylamino)methylphosphonate'
_chemical_properties_biological  
'moderately cytotoxic against KB cancer cell line'
_symmetry_cell_setting           monoclinic
_symmetry_space_group_name_H-M   'C 2/c'
_symmetry_Int_Tables_number      15
_space_group_name_Hall           '-C 2yn'
loop_
_symmetry_equiv_pos_site_id
_symmetry_equiv_pos_as_xyz
1 x,y,z
2 1/2+x,1/2+y,z
3 x,-y,1/2+z
4 1/2+x,1/2-y,1/2+z
5 -x,-y,-z
6 1/2-x,1/2-y,-z
7 -x,y,1/2-z
8 1/2-x,1/2+y,1/2-z
_cell_length_a                   23.7140(10)
_cell_length_b                   8.0928(4)
_cell_length_c                   20.0120(10)
_cell_angle_alpha                90
_cell_angle_beta                 110.3250(10)
_cell_angle_gamma                90
_cell_volume                     3601.43
_exptl_crystal_colour            colorless
_exptl_crystal_description       block
_cell_formula_units_Z            8
_exptl_crystal_recrystallization_method hexane-dichloroethane
loop_
_atom_site_label
_atom_site_type_symbol
_atom_site_fract_x
_atom_site_fract_y
_atom_site_fract_z
P1 P 0.44530(10) 0.44600(10) 0.58710(10)
N1 N 0.7627(2) 0.6298(6) 0.6720(3)
N2 N 0.53740(10) 0.6483(3) 0.61780(10)
O1 O 0.57880(10) 0.7240(4) 0.73170(10)
O2 O 0.47520(10) 0.3332(3) 0.65310(10)
O3 O 0.37630(10) 0.4501(3) 0.5741(2)
O4 O 0.45360(10) 0.3961(3) 0.52170(10)
C1 C 0.64540(10) 0.6638(4) 0.6710(2)
C2 C 0.6583(2) 0.5617(5) 0.6232(2)
C3 C 0.7173(2) 0.5495(6) 0.6265(2)
C4 C 0.7492(2) 0.7287(8) 0.7164(3)
C5 C 0.6928(2) 0.7497(6) 0.7184(2)
C6 C 0.58410(10) 0.6831(4) 0.6760(2)
C7 C 0.47650(10) 0.6489(4) 0.6182(2)
C8 C 0.43810(10) 0.7884(4) 0.5768(2)
C9 C 0.4387(2) 0.8348(5) 0.5112(2)
C10 C 0.4035(2) 0.9637(5) 0.4747(2)
C11 C 0.3664(2) 1.0452(5) 0.5024(2)
C12 C 0.3645(2) 1.0003(5) 0.5673(2)
C13 C 0.4006(2) 0.8727(5) 0.6049(2)
C14 C 0.5078(2) 0.1842(5) 0.6549(2)
C15 C 0.5698(2) 0.1977(9) 0.6972(3)
C16 C 0.3501(2) 0.4646(7) 0.6271(3)
C17 C 0.2901(2) 0.5394(9) 0.5959(3)
H1 H 0.5430(10) 0.630(4) 0.5790(9)
H2 H 0.6281 0.5023 0.5896
H3 H 0.7255 0.4795 0.5942
H4 H 0.7804 0.7886 0.7486
H5 H 0.6862 0.8211 0.7514
H6 H 0.4788 0.6598 0.6679
H7 H 0.4631 0.7786 0.4912
H8 H 0.4051 0.9954 0.4307
H9 H 0.3424 1.1313 0.4771
H10 H 0.3390 1.0553 0.5862
H11 H 0.3996 0.8434 0.6495
H12 H 0.4899 0.0960 0.6737
H13 H 0.5042 0.1546 0.6066
H14 H 0.5895 0.0945 0.6965
H15 H 0.5737 0.2245 0.7453
H16 H 0.5880 0.2832 0.6782
H17 H 0.3752 0.5330 0.6658
H18 H 0.3467 0.3563 0.6461
H19 H 0.2722 0.5498 0.6319
H20 H 0.2653 0.4704 0.5580
H21 H 0.2938 0.6467 0.5773
loop_
_geom_bond_atom_site_label_1
_geom_bond_atom_site_label_2
_geom_bond_site_symmetry_1
_geom_bond_site_symmetry_2
P1 O2 1_555 1_555
N1 C3 1_555 1_555
N2 C6 1_555 1_555
O1 C6 1_555 1_555
O2 C14 1_555 1_555
O3 P1 1_555 1_555
O4 P1 1_555 1_555
C1 C2 1_555 1_555
C2 C3 1_555 1_555
C3 H3 1_555 1_555
C4 N1 1_555 1_555
C5 C1 1_555 1_555
C6 C1 1_555 1_555
C7 P1 1_555 1_555
C8 C7 1_555 1_555
C9 C8 1_555 1_555
C10 C9 1_555 1_555
C11 C10 1_555 1_555
C12 C11 1_555 1_555
C13 C8 1_555 1_555
C14 C15 1_555 1_555
C15 H14 1_555 1_555
C16 O3 1_555 1_555
C17 C16 1_555 1_555
H1 N2 1_555 1_555
H2 C2 1_555 1_555
H4 C4 1_555 1_555
H5 C5 1_555 1_555
H6 C7 1_555 1_555
H7 C9 1_555 1_555
H8 C10 1_555 1_555
H9 C11 1_555 1_555
H10 C12 1_555 1_555
H11 C13 1_555 1_555
H12 C14 1_555 1_555
H13 C14 1_555 1_555
H15 C15 1_555 1_555
H16 C15 1_555 1_555
H17 C16 1_555 1_555
H18 C16 1_555 1_555
H19 C17 1_555 1_555
H20 C17 1_555 1_555
H21 C17 1_555 1_555
N2 C7 1_555 1_555
C4 C5 1_555 1_555
C12 C13 1_555 1_555

#END
