
#######################################################################
#
#                 Cambridge Crystallographic Data Centre
#                                CCDC 
#
#######################################################################
#
# If this CIF has been generated from an entry in the Cambridge 
# Structural Database, then it will include bibliographic, chemical, 
# crystal, experimental, refinement or atomic coordinate data resulting 
# from the CCDC's data processing and validation procedures.
#
#######################################################################

data_ETEXIM
_chemical_formula_moiety         'C20 H14 N5 O2 1+,Cl1 1-'
_chemical_name_systematic        
'2-oxo-3-((2-oxo-2,3-dihydroimidazo[1,2-a]pyridin-1-ium-3-yl)(pyridin-4-yl)methylene)-2,3-dihydroimidazo[1,2-a]pyridin-1-ium radical chloride unknown solvate'
_symmetry_cell_setting           monoclinic
_symmetry_space_group_name_H-M   'C 2/m'
_symmetry_Int_Tables_number      12
_space_group_name_Hall           '-C 2y'
loop_
_symmetry_equiv_pos_site_id
_symmetry_equiv_pos_as_xyz
1 x,y,z
2 -x,y,-z
3 1/2+x,1/2+y,z
4 1/2-x,1/2+y,-z
5 -x,-y,-z
6 x,-y,z
7 1/2-x,1/2-y,-z
8 1/2+x,1/2-y,z
_cell_length_a                   12.0485(2)
_cell_length_b                   25.2734(5)
_cell_length_c                   7.8524(2)
_cell_angle_alpha                90
_cell_angle_beta                 100.413(2)
_cell_angle_gamma                90
_cell_volume                     2351.73
_cell_formula_units_Z            4
loop_
_atom_site_label
_atom_site_type_symbol
_atom_site_fract_x
_atom_site_fract_y
_atom_site_fract_z
N1 N 0.40345(10) 0.79630(5) 0.31482(16)
O1 O 0.25808(9) 0.68074(5) 0.38148(17)
N2 N 0.23605(11) 0.75947(6) 0.23130(18)
H1 H 0.1672 0.7553 0.1804
C1 C 0.29659(13) 0.72274(6) 0.3393(2)
C2 C 0.5000 0.72215(8) 0.5000
C3 C 0.5000 0.66294(8) 0.5000
C4 C 0.29853(13) 0.80310(7) 0.2151(2)
N3 N 0.5000 0.55392(8) 0.5000
C5 C 0.40801(12) 0.74603(6) 0.39493(19)
C6 C 0.46321(16) 0.87677(8) 0.2119(2)
H2 H 0.5190 0.9020 0.2093
C7 C 0.48726(14) 0.83228(6) 0.3080(2)
H3 H 0.5599 0.8263 0.3685
C8 C 0.27268(16) 0.84776(8) 0.1157(3)
H4 H 0.2011 0.8524 0.0497
C9 C 0.49798(15) 0.63480(7) 0.3478(2)
H5 H 0.4963 0.6525 0.2436
C10 C 0.35425(18) 0.88480(8) 0.1164(3)
H6 H 0.3378 0.9158 0.0531
C11 C 0.49846(17) 0.58074(7) 0.3526(3)
H7 H 0.4977 0.5620 0.2504
N1A N 0.59655(10) 0.79630(5) 0.68518(16)
O1A O 0.74192(9) 0.68074(5) 0.61852(17)
N2A N 0.76395(11) 0.75947(6) 0.76870(18)
H1A H 0.8328 0.7553 0.8196
C1A C 0.70341(13) 0.72274(6) 0.6607(2)
C4A C 0.70147(13) 0.80310(7) 0.7849(2)
C5A C 0.59199(12) 0.74603(6) 0.60507(19)
C6A C 0.53679(16) 0.87677(8) 0.7881(2)
H2A H 0.4810 0.9020 0.7907
C7A C 0.51274(14) 0.83228(6) 0.6920(2)
H3A H 0.4401 0.8263 0.6315
C8A C 0.72732(16) 0.84776(8) 0.8843(3)
H4A H 0.7989 0.8524 0.9503
C9A C 0.50202(15) 0.63480(7) 0.6522(2)
H5A H 0.5037 0.6525 0.7564
C10A C 0.64575(18) 0.88480(8) 0.8836(3)
H6A H 0.6622 0.9158 0.9469
C11A C 0.50154(17) 0.58074(7) 0.6474(3)
H7A H 0.5023 0.5620 0.7496
Cl1 Cl 0.5000 0.73214(2) 0.0000
loop_
_geom_bond_atom_site_label_1
_geom_bond_atom_site_label_2
_geom_bond_site_symmetry_1
_geom_bond_site_symmetry_2
N1 C4 1_555 1_555
O1 C1 1_555 1_555
N2 H1 1_555 1_555
C1 N2 1_555 1_555
C2 C3 1_555 1_555
C3 C9 1_555 1_555
C4 N2 1_555 1_555
N3 C11 1_555 1_555
C5 N1 1_555 1_555
C6 H2 1_555 1_555
C7 N1 1_555 1_555
H3 C7 1_555 1_555
C8 C4 1_555 1_555
H4 C8 1_555 1_555
C9 H5 1_555 1_555
C10 C6 1_555 1_555
H6 C10 1_555 1_555
C11 C9 1_555 1_555
H7 C11 1_555 1_555
N1A C4A 1_555 1_555
O1A C1A 1_555 1_555
N2A H1A 1_555 1_555
C1A N2A 1_555 1_555
C4A N2A 1_555 1_555
C5A C2 1_555 1_555
C6A H2A 1_555 1_555
C7A N1A 1_555 1_555
H3A C7A 1_555 1_555
C8A C4A 1_555 1_555
H4A C8A 1_555 1_555
C9A C3 1_555 1_555
H5A C9A 1_555 1_555
C10A C6A 1_555 1_555
H6A C10A 1_555 1_555
C11A N3 1_555 1_555
H7A C11A 1_555 1_555
C1 C5 1_555 1_555
C2 C5 1_555 1_555
C6 C7 1_555 1_555
C8 C10 1_555 1_555
N1A C5A 1_555 1_555
C1A C5A 1_555 1_555
C6A C7A 1_555 1_555
C8A C10A 1_555 1_555
C9A C11A 1_555 1_555

#END
