
#######################################################################
#
#                 Cambridge Crystallographic Data Centre
#                                CCDC 
#
#######################################################################
#
# If this CIF has been generated from an entry in the Cambridge 
# Structural Database, then it will include bibliographic, chemical, 
# crystal, experimental, refinement or atomic coordinate data resulting 
# from the CCDC's data processing and validation procedures.
#
#######################################################################

data_ETIBOY
_chemical_formula_moiety         'C17 H18 N2 O3'
_chemical_name_systematic        
(+-)-5-(3,4-Dimethoxyphenyl)-1-phenylpyrazolidin-3-one
_symmetry_cell_setting           triclinic
_symmetry_space_group_name_H-M   'P -1'
_symmetry_Int_Tables_number      2
_space_group_name_Hall           '-P 1'
loop_
_symmetry_equiv_pos_site_id
_symmetry_equiv_pos_as_xyz
1 x,y,z
2 -x,-y,-z
_cell_length_a                   9.011(2)
_cell_length_b                   9.403(2)
_cell_length_c                   11.621(2)
_cell_angle_alpha                66.49(3)
_cell_angle_beta                 67.67(3)
_cell_angle_gamma                62.05(3)
_cell_volume                     774.634
_exptl_crystal_colour            colorless
_exptl_crystal_description       block
_chemical_melting_point          '434-435 K'
_cell_formula_units_Z            2
_exptl_crystal_recrystallization_method ethanol
loop_
_atom_site_label
_atom_site_type_symbol
_atom_site_fract_x
_atom_site_fract_y
_atom_site_fract_z
O1 O -0.3102(3) 1.3251(3) -0.0519(3)
O2 O 0.1139(4) 0.7080(3) 0.4494(2)
O3 O -0.1625(4) 0.7390(3) 0.6302(3)
N1 N -0.3602(4) 1.4563(4) 0.0948(3)
N2 N -0.2882(3) 1.4402(3) 0.1907(3)
C1 C -0.2652(4) 1.3452(4) 0.0268(3)
C2 C -0.0951(4) 1.2487(5) 0.0636(3)
H1 H -0.0057 1.2859 -0.0027
H2 H -0.0602 1.1299 0.0765
C3 C -0.1280(4) 1.2858(4) 0.1900(3)
H3 H -0.0320 1.3112 0.1859
C4 C -0.2773(4) 1.5864(4) 0.1881(3)
C5 C -0.3492(4) 1.7418(4) 0.1071(3)
H4 H -0.3996 1.7524 0.0461
C6 C -0.3452(5) 1.8818(5) 0.1183(5)
H5 H -0.3939 1.9864 0.0645
C7 C -0.2706(6) 1.8684(6) 0.2073(5)
H6 H -0.2690 1.9629 0.2142
C8 C -0.1988(6) 1.7139(6) 0.2859(4)
H7 H -0.1468 1.7037 0.3458
C9 C -0.2020(5) 1.5765(5) 0.2778(4)
H8 H -0.1534 1.4730 0.3330
C10 C -0.1475(4) 1.1442(4) 0.3094(3)
C11 C -0.2961(4) 1.1583(4) 0.4069(3)
H9 H -0.3906 1.2592 0.4003
C12 C -0.3073(5) 1.0244(5) 0.5151(3)
H10 H -0.4096 1.0355 0.5792
C13 C -0.1684(4) 0.8765(4) 0.5275(3)
C14 C -0.0149(4) 0.8597(4) 0.4288(3)
C15 C -0.0074(4) 0.9924(4) 0.3217(3)
H11 H 0.0934 0.9806 0.2561
C16 C -0.3095(7) 0.7454(7) 0.7307(5)
H12 H -0.2872 0.6405 0.7960
H13 H -0.4035 0.7668 0.6983
H14 H -0.3394 0.8334 0.7672
C17 C 0.2727(6) 0.6835(6) 0.3544(4)
H15 H 0.3525 0.5711 0.3802
H16 H 0.3202 0.7609 0.3454
H17 H 0.2528 0.7018 0.2732
H18 H -0.484(7) 1.509(6) 0.102(5)
loop_
_geom_bond_atom_site_label_1
_geom_bond_atom_site_label_2
_geom_bond_site_symmetry_1
_geom_bond_site_symmetry_2
O1 C1 1_555 1_555
O2 C14 1_555 1_555
O3 C13 1_555 1_555
N1 N2 1_555 1_555
N2 C3 1_555 1_555
C1 N1 1_555 1_555
C2 C1 1_555 1_555
H1 C2 1_555 1_555
H2 C2 1_555 1_555
C3 C2 1_555 1_555
H3 C3 1_555 1_555
C4 N2 1_555 1_555
C5 C4 1_555 1_555
H4 C5 1_555 1_555
C6 C5 1_555 1_555
H5 C6 1_555 1_555
C7 C6 1_555 1_555
H6 C7 1_555 1_555
C8 C7 1_555 1_555
H7 C8 1_555 1_555
C9 C4 1_555 1_555
H8 C9 1_555 1_555
C10 C3 1_555 1_555
C11 C10 1_555 1_555
H9 C11 1_555 1_555
C12 C11 1_555 1_555
H10 C12 1_555 1_555
C13 C12 1_555 1_555
C14 C13 1_555 1_555
C15 C10 1_555 1_555
H11 C15 1_555 1_555
C16 O3 1_555 1_555
H12 C16 1_555 1_555
H13 C16 1_555 1_555
H14 C16 1_555 1_555
C17 O2 1_555 1_555
H15 C17 1_555 1_555
H16 C17 1_555 1_555
H17 C17 1_555 1_555
H18 N1 1_555 1_555
C8 C9 1_555 1_555
C14 C15 1_555 1_555

#END
