
#######################################################################
#
#                 Cambridge Crystallographic Data Centre
#                                CCDC 
#
#######################################################################
#
# If this CIF has been generated from an entry in the Cambridge 
# Structural Database, then it will include bibliographic, chemical, 
# crystal, experimental, refinement or atomic coordinate data resulting 
# from the CCDC's data processing and validation procedures.
#
#######################################################################

data_ETIGUJ
_chemical_formula_moiety         '2(C3 H7 N6 1+),C8 H4 O4 2-,2(H2 O1)'
_chemical_name_systematic        'bis(Melaminium) terephthalate dihydrate'
_symmetry_cell_setting           monoclinic
_symmetry_space_group_name_H-M   'P 21/c'
_symmetry_Int_Tables_number      14
_space_group_name_Hall           '-P 2ybc'
loop_
_symmetry_equiv_pos_site_id
_symmetry_equiv_pos_as_xyz
1 x,y,z
2 x,1/2-y,1/2+z
3 -x,-y,-z
4 -x,1/2+y,1/2-z
_cell_length_a                   6.809(4)
_cell_length_b                   20.164(10)
_cell_length_c                   7.062(6)
_cell_angle_alpha                90
_cell_angle_beta                 93.33(5)
_cell_angle_gamma                90
_cell_volume                     967.952
_exptl_crystal_colour            colorless
_exptl_crystal_description       prism
_cell_formula_units_Z            2
loop_
_atom_site_label
_atom_site_type_symbol
_atom_site_fract_x
_atom_site_fract_y
_atom_site_fract_z
N1 N 0.2912(4) 0.69529(13) 0.4061(4)
H1 H 0.3021 0.7378 0.4113
N2 N 0.4269(4) 0.59022(13) 0.4708(4)
N3 N 0.0989(4) 0.60209(14) 0.3276(4)
N4 N 0.6065(4) 0.68518(14) 0.5335(4)
H2 H 0.7058 0.6619 0.5750
H3 H 0.6142 0.7277 0.5326
N5 N 0.2329(5) 0.50096(14) 0.3999(5)
H4 H 0.3279 0.4763 0.4439
H5 H 0.1247 0.4832 0.3561
C2 C 0.4425(5) 0.65558(15) 0.4710(5)
C3 C 0.2532(5) 0.56633(16) 0.3997(5)
N6 N -0.0197(4) 0.70654(15) 0.2662(4)
H6 H -0.1284 0.6901 0.2191
H7 H -0.0033 0.7488 0.2700
C7 C 0.1229(5) 0.66663(16) 0.3330(5)
O1 O 0.3209(3) 0.82958(11) 0.4212(4)
O2 O 0.6320(4) 0.82430(11) 0.5293(4)
C1 C 0.4895(5) 0.93072(15) 0.4904(5)
C4 C 0.3396(5) 0.97024(17) 0.4089(5)
H8 H 0.2311 0.9502 0.3464
C5 C 0.6510(5) 0.96178(16) 0.5811(5)
H9 H 0.7535 0.9364 0.6354
C6 C 0.4795(5) 0.85639(16) 0.4794(5)
C5B C 0.3490(5) 1.03822(16) 0.4189(5)
C1B C 0.5105(5) 1.06928(15) 0.5096(5)
C4B C 0.6604(5) 1.02976(17) 0.5911(5)
H8B H 0.7689 1.0498 0.6536
C6B C 0.5205(5) 1.14361(16) 0.5206(5)
O1B O 0.6791(3) 1.17042(11) 0.5788(4)
O2B O 0.3680(4) 1.17570(11) 0.4707(4)
H9B H 0.2465 1.0636 0.3646
O3 O -0.0553(5) 0.85744(16) 0.2865(5)
H10 H 0.065(8) 0.854(2) 0.337(6)
H11 H -0.127(9) 0.859(3) 0.380(8)
loop_
_geom_bond_atom_site_label_1
_geom_bond_atom_site_label_2
_geom_bond_site_symmetry_1
_geom_bond_site_symmetry_2
N1 H1 1_555 1_555
O1 C6 1_555 1_555
O2 C6 1_555 1_555
N2 C2 1_555 1_555
N3 C3 1_555 1_555
N4 H2 1_555 1_555
H3 N4 1_555 1_555
N5 H4 1_555 1_555
H5 N5 1_555 1_555
C1 C4 1_555 1_555
C2 N1 1_555 1_555
C3 N2 1_555 1_555
N6 H6 1_555 1_555
H7 N6 1_555 1_555
C4 H8 1_555 1_555
C5 C1 1_555 1_555
H9 C5 1_555 1_555
C6 C1 1_555 1_555
C7 N1 1_555 1_555
O3 H10 1_555 1_555
H11 O3 1_555 1_555
C5B C4 1_555 1_555
C1B C5B 1_555 1_555
C4B C5 1_555 1_555
H8B C4B 1_555 1_555
C6B C1B 1_555 1_555
O1B C6B 1_555 1_555
O2B C6B 1_555 1_555
H9B C5B 1_555 1_555
N3 C7 1_555 1_555
N4 C2 1_555 1_555
N5 C3 1_555 1_555
N6 C7 1_555 1_555
C1B C4B 1_555 1_555

#END
