
#######################################################################
#
#                 Cambridge Crystallographic Data Centre
#                                CCDC 
#
#######################################################################
#
# If this CIF has been generated from an entry in the Cambridge 
# Structural Database, then it will include bibliographic, chemical, 
# crystal, experimental, refinement or atomic coordinate data resulting 
# from the CCDC's data processing and validation procedures.
#
#######################################################################

data_ETIJAS
_chemical_compound_source        'Rabdosia leucophylla'
_chemical_name_common            
(1S*,2S*,8S*,9R*,11R*,15S*,16S*,18R*)-15,18-Dihydroxy-16-methoxy-12,12-dimethyl-6-methylene-17-oxapentacyclo(7.6.2.1$5,8!.0$1,11!.0$2,8!)octadecan-7-one
_chemical_formula_moiety         'C21 H30 O5'
_chemical_name_systematic        'Kamebacetal A'
_chemical_properties_biological  'cytotoxic and antibacterial activity'
_symmetry_cell_setting           orthorhombic
_symmetry_space_group_name_H-M   'P 21 21 21'
_symmetry_Int_Tables_number      19
_space_group_name_Hall           'P 2ac 2ab'
loop_
_symmetry_equiv_pos_site_id
_symmetry_equiv_pos_as_xyz
1 x,y,z
2 1/2-x,-y,1/2+z
3 -x,1/2+y,1/2-z
4 1/2+x,1/2-y,-z
_cell_length_a                   7.8040(10)
_cell_length_b                   12.078(2)
_cell_length_c                   19.007(3)
_cell_angle_alpha                90
_cell_angle_beta                 90
_cell_angle_gamma                90
_cell_volume                     1791.54
_exptl_crystal_colour            colorless
_exptl_crystal_description       plate
_cell_formula_units_Z            4
_exptl_crystal_recrystallization_method 'ethyl acetate/methanol (1:1)'
loop_
_atom_site_label
_atom_site_type_symbol
_atom_site_fract_x
_atom_site_fract_y
_atom_site_fract_z
O1 O 0.6579(3) 0.44170(18) 0.34155(10)
O2 O 0.9913(3) 0.69681(19) 0.43328(14)
H1 H 1.0212 0.6372 0.4166
O3 O 0.9349(3) 0.48885(18) 0.37339(11)
O4 O 0.5660(3) 0.24903(16) 0.46566(13)
H2 H 0.6212 0.1922 0.4724
O5 O 0.2645(3) 0.4571(2) 0.50351(13)
C1 C 0.7039(4) 0.6144(2) 0.40523(15)
C2 C 0.6688(4) 0.5547(2) 0.47728(14)
H3 H 0.5941 0.6035 0.5048
C3 C 0.8278(4) 0.5309(3) 0.52281(15)
H4 H 0.9153 0.4970 0.4936
H5 H 0.8731 0.6005 0.5402
C4 C 0.7906(4) 0.4546(3) 0.58553(16)
H6 H 0.7398 0.4979 0.6231
H7 H 0.8977 0.4243 0.6028
C5 C 0.6689(4) 0.3587(3) 0.56634(16)
H8 H 0.7009 0.2903 0.5907
C6 C 0.4849(5) 0.3890(3) 0.58032(18)
C7 C 0.4150(4) 0.4360(3) 0.51430(17)
C8 C 0.5640(4) 0.4456(2) 0.46228(15)
C9 C 0.5089(4) 0.4465(3) 0.38584(15)
H9 H 0.4372 0.3814 0.3767
C10 C 0.4090(4) 0.5498(3) 0.36745(16)
H10 H 0.3084 0.5551 0.3972
H11 H 0.3712 0.5459 0.3189
C11 C 0.5238(4) 0.6533(2) 0.37806(15)
H12 H 0.4724 0.6936 0.4175
C12 C 0.5170(4) 0.7344(3) 0.31515(16)
C13 C 0.6346(5) 0.8316(3) 0.33182(18)
H13 H 0.5869 0.8734 0.3708
H14 H 0.6400 0.8803 0.2913
C14 C 0.8159(5) 0.7939(3) 0.35091(17)
H15 H 0.8656 0.7551 0.3112
H16 H 0.8863 0.8583 0.3605
C15 C 0.8168(4) 0.7179(3) 0.41494(17)
H17 H 0.7670 0.7603 0.4539
C16 C 0.7733(4) 0.5314(3) 0.35183(16)
H18 H 0.7885 0.5696 0.3068
C17 C 0.6662(4) 0.3426(2) 0.48564(16)
H19 H 0.7817 0.3407 0.4654
C18 C 0.5624(5) 0.6863(3) 0.24283(15)
H20 H 0.5195 0.6120 0.2394
H21 H 0.6846 0.6859 0.2371
H22 H 0.5115 0.7310 0.2067
C19 C 0.3297(5) 0.7773(3) 0.31030(18)
H23 H 0.3246 0.8385 0.2781
H24 H 0.2921 0.8011 0.3560
H25 H 0.2566 0.7189 0.2938
C20 C 1.0122(4) 0.4214(3) 0.32041(19)
H26 H 0.9357 0.3623 0.3081
H27 H 1.1175 0.3910 0.3380
H28 H 1.0355 0.4656 0.2795
C21 C 0.3954(6) 0.3806(3) 0.6386(2)
H29 H 0.2823 0.4049 0.6397
H30 H 0.4451 0.3505 0.6787
loop_
_geom_bond_atom_site_label_1
_geom_bond_atom_site_label_2
_geom_bond_site_symmetry_1
_geom_bond_site_symmetry_2
O1 C9 1_555 1_555
O2 H1 1_555 1_555
O3 C16 1_555 1_555
O4 H2 1_555 1_555
O5 C7 1_555 1_555
C1 C2 1_555 1_555
C2 H3 1_555 1_555
C3 C2 1_555 1_555
H4 C3 1_555 1_555
H5 C3 1_555 1_555
C4 C3 1_555 1_555
H6 C4 1_555 1_555
H7 C4 1_555 1_555
C5 C4 1_555 1_555
H8 C5 1_555 1_555
C6 C5 1_555 1_555
C7 C6 1_555 1_555
C8 C2 1_555 1_555
C9 C8 1_555 1_555
H9 C9 1_555 1_555
C10 C9 1_555 1_555
H10 C10 1_555 1_555
H11 C10 1_555 1_555
C11 C1 1_555 1_555
H12 C11 1_555 1_555
C12 C11 1_555 1_555
C13 C12 1_555 1_555
H13 C13 1_555 1_555
H14 C13 1_555 1_555
C14 C13 1_555 1_555
H15 C14 1_555 1_555
H16 C14 1_555 1_555
C15 O2 1_555 1_555
H17 C15 1_555 1_555
C16 O1 1_555 1_555
H18 C16 1_555 1_555
C17 O4 1_555 1_555
H19 C17 1_555 1_555
C18 C12 1_555 1_555
H20 C18 1_555 1_555
H21 C18 1_555 1_555
H22 C18 1_555 1_555
C19 C12 1_555 1_555
H23 C19 1_555 1_555
H24 C19 1_555 1_555
H25 C19 1_555 1_555
C20 O3 1_555 1_555
H26 C20 1_555 1_555
H27 C20 1_555 1_555
H28 C20 1_555 1_555
C21 C6 1_555 1_555
H29 C21 1_555 1_555
H30 C21 1_555 1_555
C1 C15 1_555 1_555
C1 C16 1_555 1_555
C5 C17 1_555 1_555
C7 C8 1_555 1_555
C8 C17 1_555 1_555
C10 C11 1_555 1_555
C14 C15 1_555 1_555

#END
