
#######################################################################
#
#                 Cambridge Crystallographic Data Centre
#                                CCDC 
#
#######################################################################
#
# If this CIF has been generated from an entry in the Cambridge 
# Structural Database, then it will include bibliographic, chemical, 
# crystal, experimental, refinement or atomic coordinate data resulting 
# from the CCDC's data processing and validation procedures.
#
#######################################################################

data_ETIRUU
_chemical_formula_moiety         'C15 H17 N1 O4'
_chemical_name_systematic        
3-(\a-Hydroxy-2-methoxylbenzylidene)-1-isopropylpyrrolidine-2,4-dione
_symmetry_cell_setting           orthorhombic
_symmetry_space_group_name_H-M   'P 21 21 21'
_symmetry_Int_Tables_number      19
_space_group_name_Hall           'P 2ac 2ab'
loop_
_symmetry_equiv_pos_site_id
_symmetry_equiv_pos_as_xyz
1 x,y,z
2 1/2-x,-y,1/2+z
3 -x,1/2+y,1/2-z
4 1/2+x,1/2-y,-z
_cell_length_a                   6.981(2)
_cell_length_b                   13.720(4)
_cell_length_c                   14.863(5)
_cell_angle_alpha                90
_cell_angle_beta                 90
_cell_angle_gamma                90
_cell_volume                     1423.57
_exptl_crystal_colour            colorless
_exptl_crystal_description       prism
_cell_formula_units_Z            4
_exptl_crystal_recrystallization_method 'petroleum ether/ethyl acetate'
loop_
_atom_site_label
_atom_site_type_symbol
_atom_site_fract_x
_atom_site_fract_y
_atom_site_fract_z
O1 O 0.0290(2) 0.61125(13) 0.49244(11)
O2 O 0.0100(3) 0.41577(12) 0.31079(13)
H1 H 0.0977 0.4112 0.2743
O3 O -0.0202(3) 0.73851(12) 0.33632(12)
O4 O 0.2896(3) 0.46614(11) 0.21011(12)
N1 N 0.3292(3) 0.63155(14) 0.19698(13)
C1 C -0.1495(4) 0.57640(18) 0.47617(17)
C2 C -0.3025(4) 0.5863(2) 0.53471(19)
H2 H -0.2878 0.6210 0.5881
C3 C -0.4766(4) 0.5449(2) 0.5138(2)
H3 H -0.5789 0.5523 0.5533
C4 C -0.5022(4) 0.4927(2) 0.4356(2)
H4 H -0.6207 0.4656 0.4220
C5 C -0.3502(4) 0.4815(2) 0.37799(19)
H5 H -0.3654 0.4449 0.3258
C6 C -0.1738(3) 0.52389(16) 0.39656(15)
C7 C -0.0160(4) 0.50905(17) 0.33225(15)
C8 C 0.0953(3) 0.57864(15) 0.29292(16)
C9 C 0.0860(4) 0.68438(17) 0.29578(16)
C10 C 0.2414(4) 0.72000(17) 0.23198(18)
H6 H 0.1866 0.7585 0.1836
H7 H 0.3349 0.7594 0.2638
C11 C 0.2458(3) 0.55198(16) 0.22995(15)
C12 C 0.4835(4) 0.6315(2) 0.13071(19)
H8 H 0.5157 0.5634 0.1177
C13 C 0.6600(4) 0.6797(4) 0.1672(3)
H9 H 0.6419 0.7490 0.1681
H10 H 0.7675 0.6640 0.1296
H11 H 0.6836 0.6568 0.2272
C14 C 0.4213(6) 0.6783(3) 0.04359(18)
H12 H 0.3026 0.6499 0.0242
H13 H 0.5176 0.6678 -0.0015
H14 H 0.4041 0.7470 0.0526
C15 C 0.0517(5) 0.68200(19) 0.56220(17)
H15 H -0.0327 0.7360 0.5513
H16 H 0.1818 0.7046 0.5630
H17 H 0.0213 0.6529 0.6192
loop_
_geom_bond_atom_site_label_1
_geom_bond_atom_site_label_2
_geom_bond_site_symmetry_1
_geom_bond_site_symmetry_2
O1 C1 1_555 1_555
O2 H1 1_555 1_555
O3 C9 1_555 1_555
O4 C11 1_555 1_555
N1 C10 1_555 1_555
C1 C2 1_555 1_555
C2 H2 1_555 1_555
C3 C2 1_555 1_555
H3 C3 1_555 1_555
C4 C3 1_555 1_555
H4 C4 1_555 1_555
C5 C4 1_555 1_555
H5 C5 1_555 1_555
C6 C1 1_555 1_555
C7 O2 1_555 1_555
C8 C7 1_555 1_555
C9 C8 1_555 1_555
C10 C9 1_555 1_555
H6 C10 1_555 1_555
H7 C10 1_555 1_555
C11 N1 1_555 1_555
C12 N1 1_555 1_555
H8 C12 1_555 1_555
C13 C12 1_555 1_555
H9 C13 1_555 1_555
H10 C13 1_555 1_555
H11 C13 1_555 1_555
C14 C12 1_555 1_555
H12 C14 1_555 1_555
H13 C14 1_555 1_555
H14 C14 1_555 1_555
C15 O1 1_555 1_555
H15 C15 1_555 1_555
H16 C15 1_555 1_555
H17 C15 1_555 1_555
C5 C6 1_555 1_555
C6 C7 1_555 1_555
C8 C11 1_555 1_555

#END
