
#######################################################################
#
#                 Cambridge Crystallographic Data Centre
#                                CCDC 
#
#######################################################################
#
# If this CIF has been generated from an entry in the Cambridge 
# Structural Database, then it will include bibliographic, chemical, 
# crystal, experimental, refinement or atomic coordinate data resulting 
# from the CCDC's data processing and validation procedures.
#
#######################################################################

data_ETIRII
_chemical_formula_moiety         'C9 H10 N4 O1 S1'
_chemical_name_systematic        
4-Amino-3-(phenoxymethyl)-1H-1,2,4-triazole-5(4H)-thione
_symmetry_cell_setting           monoclinic
_symmetry_space_group_name_H-M   'P 21/c'
_symmetry_Int_Tables_number      14
_space_group_name_Hall           '-P 2ybc'
loop_
_symmetry_equiv_pos_site_id
_symmetry_equiv_pos_as_xyz
1 x,y,z
2 x,1/2-y,1/2+z
3 -x,-y,-z
4 -x,1/2+y,1/2-z
_cell_length_a                   11.251(2)
_cell_length_b                   6.0066(12)
_cell_length_c                   15.148(3)
_cell_angle_alpha                90
_cell_angle_beta                 100.69(3)
_cell_angle_gamma                90
_cell_volume                     1005.94
_exptl_crystal_colour            colorless
_exptl_crystal_description       block
_cell_formula_units_Z            4
loop_
_atom_site_label
_atom_site_type_symbol
_atom_site_fract_x
_atom_site_fract_y
_atom_site_fract_z
S1 S 0.44849(4) 0.22809(10) 0.34679(3)
O1 O 0.91129(13) 0.6925(2) 0.55677(9)
N1 N 0.65091(13) 0.3424(3) 0.46802(10)
N2 N 0.69674(15) 0.6795(3) 0.42885(11)
N3 N 0.59228(14) 0.5988(3) 0.37450(11)
N4 N 0.66734(19) 0.1453(3) 0.51793(13)
C1 C 0.56361(15) 0.3916(3) 0.39519(11)
C2 C 0.72924(16) 0.5189(3) 0.48508(12)
C3 C 0.83521(18) 0.5067(4) 0.55991(14)
C4 C 1.01627(16) 0.6953(3) 0.62120(12)
C5 C 1.09012(19) 0.8812(4) 0.61997(13)
C6 C 1.19749(18) 0.8969(4) 0.68163(14)
C7 C 1.23254(18) 0.7310(4) 0.74386(14)
C8 C 1.15797(18) 0.5485(4) 0.74515(14)
C9 C 1.04953(18) 0.5295(3) 0.68399(14)
H1 H 0.561(2) 0.666(4) 0.3237(16)
H2 H 0.809(2) 0.500(4) 0.6151(16)
H3 H 1.066(2) 0.995(4) 0.5784(16)
H4 H 1.179(2) 0.435(4) 0.7898(16)
H5 H 1.006(2) 0.405(4) 0.6865(15)
H6 H 0.874(2) 0.373(4) 0.5539(14)
H7 H 1.308(2) 0.745(4) 0.7869(15)
H8 H 1.246(2) 1.023(4) 0.6807(17)
H9 H 0.678(2) 0.037(5) 0.4831(17)
H10 H 0.597(3) 0.114(6) 0.541(2)
loop_
_geom_bond_atom_site_label_1
_geom_bond_atom_site_label_2
_geom_bond_site_symmetry_1
_geom_bond_site_symmetry_2
S1 C1 1_555 1_555
O1 C3 1_555 1_555
N1 N4 1_555 1_555
N2 N3 1_555 1_555
N3 C1 1_555 1_555
N4 H9 1_555 1_555
C1 N1 1_555 1_555
C2 N1 1_555 1_555
C3 C2 1_555 1_555
C4 O1 1_555 1_555
C5 C4 1_555 1_555
C6 C5 1_555 1_555
C7 C6 1_555 1_555
C8 C7 1_555 1_555
C9 C4 1_555 1_555
H1 N3 1_555 1_555
H2 C3 1_555 1_555
H3 C5 1_555 1_555
H4 C8 1_555 1_555
H5 C9 1_555 1_555
H6 C3 1_555 1_555
H7 C7 1_555 1_555
H8 C6 1_555 1_555
H10 N4 1_555 1_555
N2 C2 1_555 1_555
C8 C9 1_555 1_555

#END
