
#######################################################################
#
#                 Cambridge Crystallographic Data Centre
#                                CCDC 
#
#######################################################################
#
# If this CIF has been generated from an entry in the Cambridge 
# Structural Database, then it will include bibliographic, chemical, 
# crystal, experimental, refinement or atomic coordinate data resulting 
# from the CCDC's data processing and validation procedures.
#
#######################################################################

data_ETISUV
_chemical_formula_moiety         'C7 H14 N4 O5 S1'
_chemical_name_systematic        
4-Amino-3-(1,2,3,4,5-pentahydroxypentyl)-1,2,4-1H-triazole-5(4H)-thione
_symmetry_cell_setting           triclinic
_symmetry_space_group_name_H-M   'P 1'
_symmetry_Int_Tables_number      1
_space_group_name_Hall           'P 1'
loop_
_symmetry_equiv_pos_site_id
_symmetry_equiv_pos_as_xyz
1 x,y,z
_cell_length_a                   4.8750(10)
_cell_length_b                   5.306(2)
_cell_length_c                   10.669(3)
_cell_angle_alpha                101.486(4)
_cell_angle_beta                 92.884(4)
_cell_angle_gamma                90.339(4)
_cell_volume                     270.067
_exptl_crystal_colour            colorless
_exptl_crystal_description       plate
_chemical_melting_point          '473-475 K'
_cell_formula_units_Z            1
_exptl_crystal_recrystallization_method 'aqueous ethanol'
loop_
_atom_site_label
_atom_site_type_symbol
_atom_site_fract_x
_atom_site_fract_y
_atom_site_fract_z
S1 S 0.4999(3) 0.5004(2) 0.49997(15)
O1 O -0.3667(7) -0.1357(7) 0.2732(3)
H1 H -0.2812 -0.1460 0.3401
O2 O -0.5397(7) -0.2940(7) 0.0312(4)
H2 H -0.4568 -0.4237 0.0002
O3 O -0.0511(7) -0.3054(7) -0.0970(4)
H3 H 0.0993 -0.3017 -0.0587
O4 O -0.5074(7) 0.2141(7) -0.1276(4)
H4 H -0.6503 0.2148 -0.1714
O5 O -0.0081(7) 0.2081(7) -0.2601(4)
H5 H -0.0731 0.3352 -0.2155
N1 N 0.0915(8) 0.2955(8) 0.1707(4)
N2 N 0.2770(9) 0.4459(8) 0.2574(4)
H6 H 0.3663 0.5741 0.2402
N3 N 0.1284(9) 0.1668(7) 0.3538(4)
N4 N 0.0768(10) 0.0201(9) 0.4457(4)
H7 H 0.2114 -0.0915 0.4485
H8 H 0.0682 0.1234 0.5221
C1 C 0.3036(11) 0.3726(9) 0.3701(5)
C2 C 0.0093(10) 0.1256(9) 0.2331(5)
C3 C -0.1792(10) -0.1019(10) 0.1799(5)
H9 H -0.0677 -0.2565 0.1603
C4 C -0.3529(11) -0.0780(10) 0.0589(5)
H10 H -0.4601 0.0794 0.0780
C5 C -0.1854(10) -0.0666(10) -0.0562(5)
H11 H -0.0473 0.0720 -0.0330
C6 C -0.3667(11) -0.0208(10) -0.1701(5)
H12 H -0.5014 -0.1620 -0.1946
C7 C -0.2080(12) 0.0028(10) -0.2848(5)
H13 H -0.1155 -0.1579 -0.3142
H14 H -0.3362 0.0296 -0.3533
loop_
_geom_bond_atom_site_label_1
_geom_bond_atom_site_label_2
_geom_bond_site_symmetry_1
_geom_bond_site_symmetry_2
S1 C1 1_555 1_555
O1 H1 1_555 1_555
O2 H2 1_555 1_555
O3 H3 1_555 1_555
O4 H4 1_555 1_555
O5 H5 1_555 1_555
N1 N2 1_555 1_555
N2 H6 1_555 1_555
N3 N4 1_555 1_555
N4 H7 1_555 1_555
H8 N4 1_555 1_555
C1 N2 1_555 1_555
C2 N1 1_555 1_555
C3 O1 1_555 1_555
H9 C3 1_555 1_555
C4 O2 1_555 1_555
H10 C4 1_555 1_555
C5 O3 1_555 1_555
H11 C5 1_555 1_555
C6 O4 1_555 1_555
H12 C6 1_555 1_555
C7 O5 1_555 1_555
H13 C7 1_555 1_555
H14 C7 1_555 1_555
N3 C2 1_555 1_555
N3 C1 1_555 1_555
C2 C3 1_555 1_555
C3 C4 1_555 1_555
C4 C5 1_555 1_555
C5 C6 1_555 1_555
C6 C7 1_555 1_555

#END
