
#######################################################################
#
#                 Cambridge Crystallographic Data Centre
#                                CCDC 
#
#######################################################################
#
# If this CIF has been generated from an entry in the Cambridge 
# Structural Database, then it will include bibliographic, chemical, 
# crystal, experimental, refinement or atomic coordinate data resulting 
# from the CCDC's data processing and validation procedures.
#
#######################################################################

data_ETIVUY
_chemical_formula_moiety         'C4 H12 N5 1+,Br1 1-'
_chemical_name_systematic        'N,N-Dimethylbiguanidium bromide'
_symmetry_cell_setting           monoclinic
_symmetry_space_group_name_H-M   'P 21/c'
_symmetry_Int_Tables_number      14
_space_group_name_Hall           '-P 2ybc'
loop_
_symmetry_equiv_pos_site_id
_symmetry_equiv_pos_as_xyz
1 x,y,z
2 x,1/2-y,1/2+z
3 -x,-y,-z
4 -x,1/2+y,1/2-z
_cell_length_a                   8.2094(18)
_cell_length_b                   14.203(3)
_cell_length_c                   8.1261(18)
_cell_angle_alpha                90
_cell_angle_beta                 114.807(3)
_cell_angle_gamma                90
_cell_volume                     860.06
_exptl_crystal_colour            white
_exptl_crystal_description       block
_cell_formula_units_Z            4
loop_
_atom_site_label
_atom_site_type_symbol
_atom_site_fract_x
_atom_site_fract_y
_atom_site_fract_z
Br1 Br 0.84638(4) 0.01794(2) 0.22214(4)
C1 C 0.1962(5) 0.2442(3) 0.2781(4)
H1 H 0.1011 0.2566 0.3146
H2 H 0.1559 0.1996 0.1804
H3 H 0.2300 0.3017 0.2387
C2 C 0.3496(5) 0.1043(2) 0.4597(5)
H4 H 0.3958 0.0725 0.3841
H5 H 0.2287 0.0840 0.4287
H6 H 0.4229 0.0897 0.5845
C3 C 0.4767(4) 0.2609(2) 0.5485(4)
C4 C 0.7318(4) 0.1656(2) 0.6806(4)
N1 N 0.3515(3) 0.20560(18) 0.4321(3)
N2 N 0.4587(3) 0.35357(19) 0.5360(3)
H7 H 0.3651 0.3782 0.4518
H8 H 0.5405 0.3891 0.6121
N3 N 0.6179(3) 0.22676(18) 0.6946(3)
N4 N 0.7588(4) 0.1529(2) 0.5316(3)
H9 H 0.6998 0.1859 0.4362
H10 H 0.8352 0.1117 0.5307
N5 N 0.8320(4) 0.1151(2) 0.8259(3)
H11 H 0.8215 0.1229 0.9259
H12 H 0.9074 0.0747 0.8198
loop_
_geom_bond_atom_site_label_1
_geom_bond_atom_site_label_2
_geom_bond_site_symmetry_1
_geom_bond_site_symmetry_2
C1 H1 1_555 1_555
H2 C1 1_555 1_555
H3 C1 1_555 1_555
C2 H4 1_555 1_555
H5 C2 1_555 1_555
H6 C2 1_555 1_555
C3 N1 1_555 1_555
C4 N3 1_555 1_555
N1 C1 1_555 1_555
N2 C3 1_555 1_555
H7 N2 1_555 1_555
H8 N2 1_555 1_555
N3 C3 1_555 1_555
N4 C4 1_555 1_555
H9 N4 1_555 1_555
H10 N4 1_555 1_555
N5 C4 1_555 1_555
H11 N5 1_555 1_555
H12 N5 1_555 1_555
C2 N1 1_555 1_555

#END
