
#######################################################################
#
#                 Cambridge Crystallographic Data Centre
#                                CCDC 
#
#######################################################################
#
# If this CIF has been generated from an entry in the Cambridge 
# Structural Database, then it will include bibliographic, chemical, 
# crystal, experimental, refinement or atomic coordinate data resulting 
# from the CCDC's data processing and validation procedures.
#
#######################################################################

data_ETIXAG
_chemical_formula_moiety         'C16 H8 Br2 N2 S2'
_chemical_name_systematic        2,3-bis(5-Bromothien-2-yl)quinoxaline
_symmetry_cell_setting           triclinic
_symmetry_space_group_name_H-M   'P -1'
_symmetry_Int_Tables_number      2
_space_group_name_Hall           '-P 1'
loop_
_symmetry_equiv_pos_site_id
_symmetry_equiv_pos_as_xyz
1 x,y,z
2 -x,-y,-z
_cell_length_a                   8.8701(9)
_cell_length_b                   9.0664(9)
_cell_length_c                   11.1751(11)
_cell_angle_alpha                86.380(2)
_cell_angle_beta                 79.998(2)
_cell_angle_gamma                62.033(2)
_cell_volume                     781.511
_exptl_crystal_colour            yellow
_exptl_crystal_description       needle
_chemical_melting_point          '368 K'
_cell_formula_units_Z            2
_exptl_crystal_recrystallization_method ethanol-toluene
loop_
_atom_site_label
_atom_site_type_symbol
_atom_site_fract_x
_atom_site_fract_y
_atom_site_fract_z
Br1 Br 0.74798(4) 0.02160(4) 1.07397(3)
S1 S 0.52759(10) 0.79864(10) 0.52100(7)
C1 C 0.3562(4) 0.5443(4) 0.7784(3)
N1 N 0.2053(3) 0.5538(3) 0.8266(2)
Br2 Br 0.84862(4) 0.77765(5) 0.34107(3)
S2 S 0.47675(10) 0.26675(10) 0.91902(7)
N2 N 0.2293(3) 0.7769(3) 0.6481(2)
C2 C 0.3705(4) 0.6505(4) 0.6791(3)
C3 C 0.0719(4) 0.7940(4) 0.7025(3)
C4 C -0.0799(4) 0.9231(4) 0.6666(3)
H1 H -0.0735 1.0061 0.6127
C5 C -0.2371(4) 0.9280(5) 0.7101(3)
H2 H -0.3393 1.0136 0.6851
C6 C -0.2475(4) 0.8065(5) 0.7919(3)
H3 H -0.3568 0.8105 0.8201
C7 C -0.1033(4) 0.6832(5) 0.8312(3)
H4 H -0.1129 0.6039 0.8877
C8 C 0.0612(4) 0.6745(4) 0.7869(3)
C9 C 0.5031(4) 0.4231(4) 0.8361(3)
C10 C 0.6556(4) 0.4208(4) 0.8476(3)
H5 H 0.6919 0.4978 0.8089
C11 C 0.7536(4) 0.2921(4) 0.9229(3)
H6 H 0.8617 0.2735 0.9413
C12 C 0.6735(4) 0.1985(4) 0.9656(3)
C13 C 0.5322(4) 0.6279(4) 0.6031(3)
C14 C 0.6882(4) 0.4883(4) 0.5724(3)
H7 H 0.7141 0.3818 0.6061
C15 C 0.8075(4) 0.5187(4) 0.4850(3)
H8 H 0.9215 0.4361 0.4543
C16 C 0.7377(4) 0.6801(4) 0.4512(3)
loop_
_geom_bond_atom_site_label_1
_geom_bond_atom_site_label_2
_geom_bond_site_symmetry_1
_geom_bond_site_symmetry_2
Br1 C12 1_555 1_555
S1 C13 1_555 1_555
C1 N1 1_555 1_555
N1 C8 1_555 1_555
Br2 C16 1_555 1_555
S2 C9 1_555 1_555
N2 C2 1_555 1_555
C2 C1 1_555 1_555
C3 N2 1_555 1_555
C4 C3 1_555 1_555
H1 C4 1_555 1_555
C5 C4 1_555 1_555
H2 C5 1_555 1_555
C6 C5 1_555 1_555
H3 C6 1_555 1_555
C7 C6 1_555 1_555
H4 C7 1_555 1_555
C8 C3 1_555 1_555
C9 C1 1_555 1_555
C10 C9 1_555 1_555
H5 C10 1_555 1_555
C11 C10 1_555 1_555
H6 C11 1_555 1_555
C12 S2 1_555 1_555
C13 C2 1_555 1_555
C14 C13 1_555 1_555
H7 C14 1_555 1_555
C15 C14 1_555 1_555
H8 C15 1_555 1_555
C16 S1 1_555 1_555
C7 C8 1_555 1_555
C11 C12 1_555 1_555
C15 C16 1_555 1_555

#END
