
#######################################################################
#
#                 Cambridge Crystallographic Data Centre
#                                CCDC 
#
#######################################################################
#
# If this CIF has been generated from an entry in the Cambridge 
# Structural Database, then it will include bibliographic, chemical, 
# crystal, experimental, refinement or atomic coordinate data resulting 
# from the CCDC's data processing and validation procedures.
#
#######################################################################

data_ETIYOV
_chemical_formula_moiety         'C40 H38 N4 2+,2(I1 1-)'
_chemical_name_systematic        
"9,10'-bis(3-Ethylimidazolium-1-ylmethyl)-9,9':10,10'-bianthracenyl diiodide"
_symmetry_cell_setting           monoclinic
_symmetry_space_group_name_H-M   'P 21/c'
_symmetry_Int_Tables_number      14
_space_group_name_Hall           '-P 2ybc'
loop_
_symmetry_equiv_pos_site_id
_symmetry_equiv_pos_as_xyz
1 x,y,z
2 x,1/2-y,1/2+z
3 -x,-y,-z
4 -x,1/2+y,1/2-z
_cell_length_a                   7.696(5)
_cell_length_b                   21.230(13)
_cell_length_c                   11.005(7)
_cell_angle_alpha                90
_cell_angle_beta                 106.404(10)
_cell_angle_gamma                90
_cell_volume                     1724.87
_exptl_crystal_colour            yellow
_exptl_crystal_description       prism
_chemical_melting_point          '512 K'
_cell_formula_units_Z            2
loop_
_atom_site_label
_atom_site_type_symbol
_atom_site_fract_x
_atom_site_fract_y
_atom_site_fract_z
I1 I 0.19024(4) 0.703244(12) 0.67467(3)
N1 N 0.8122(4) 0.68851(12) -0.0423(3)
N2 N 0.6479(4) 0.77288(14) -0.0668(3)
C1 C 0.7797(5) 0.74436(16) -0.0998(3)
H1 H 0.8408 0.7607 -0.1546
C2 C 0.5920(5) 0.73450(18) 0.0150(4)
H2 H 0.5005 0.7430 0.0527
C3 C 0.6955(5) 0.68192(17) 0.0306(4)
H3 H 0.6886 0.6476 0.0815
C4 C 0.9538(4) 0.64597(14) -0.0615(3)
H4 H 1.0708 0.6631 -0.0157
H5 H 0.9474 0.6464 -0.1508
C5 C 0.9460(4) 0.57688(14) -0.0204(3)
C6 C 0.9882(4) 0.56855(14) 0.1231(3)
C7 C 1.0525(4) 0.61633(16) 0.2108(3)
H6 H 1.0681 0.6567 0.1830
C8 C 1.0935(5) 0.60379(18) 0.3401(3)
H7 H 1.1330 0.6362 0.3981
C9 C 1.0762(5) 0.54394(18) 0.3827(3)
H8 H 1.1076 0.5357 0.4692
C10 C 1.0118(4) 0.49598(17) 0.2963(3)
H9 H 0.9980 0.4556 0.3250
C11 C 0.9678(4) 0.50803(14) 0.1670(3)
C12 C 1.1051(4) 0.54341(13) -0.0698(3)
H10 H 1.1587 0.5760 -0.1111
C13 C 1.2543(4) 0.51690(14) 0.0375(3)
C14 C 1.4084(4) 0.55143(15) 0.0941(3)
H11 H 1.4206 0.5919 0.0654
C15 C 1.5438(4) 0.52670(16) 0.1923(3)
H12 H 1.6469 0.5503 0.2295
C16 C 1.5257(5) 0.46657(17) 0.2354(3)
H13 H 1.6174 0.4496 0.3014
C17 C 1.3718(4) 0.43149(16) 0.1807(3)
H14 H 1.3607 0.3911 0.2105
C18 C 0.7660(4) 0.54403(14) -0.0821(3)
C19 C 0.5710(6) 0.83514(19) -0.1124(4)
H15 H 0.6261 0.8503 -0.1760
H16 H 0.4420 0.8307 -0.1522
C20 C 0.6004(8) 0.8816(2) -0.0098(5)
H17 H 0.5382 0.8684 0.0501
H18 H 0.5547 0.9218 -0.0443
H19 H 0.7277 0.8850 0.0320
C12B C 0.8949(4) 0.45659(13) 0.0698(3)
C5B C 1.0540(4) 0.42312(14) 0.0204(3)
C4B C 1.0462(4) 0.35403(14) 0.0615(3)
N1B N 1.1878(4) 0.31149(12) 0.0423(3)
C1B C 1.2203(5) 0.25564(16) 0.0998(3)
N2B N 1.3521(4) 0.22712(14) 0.0668(3)
C2B C 1.4080(5) 0.26550(18) -0.0150(4)
H2B H 1.4995 0.2570 -0.0527
C3B C 1.3045(5) 0.31808(17) -0.0306(4)
H3B H 1.3114 0.3524 -0.0815
C19B C 1.4290(6) 0.16486(19) 0.1124(4)
H15B H 1.3739 0.1497 0.1760
H16B H 1.5580 0.1693 0.1522
C20B C 1.3996(8) 0.1184(2) 0.0098(5)
H17B H 1.4618 0.1316 -0.0501
H18B H 1.4453 0.0782 0.0443
H19B H 1.2723 0.1150 -0.0320
H1B H 1.1592 0.2393 0.1546
H4B H 0.9292 0.3369 0.0157
H5B H 1.0526 0.3536 0.1508
C6B C 1.0118(4) 0.43145(14) -0.1231(3)
C7B C 0.9475(4) 0.38367(16) -0.2108(3)
H6B H 0.9319 0.3433 -0.1830
C8B C 0.9065(5) 0.39621(18) -0.3401(3)
H7B H 0.8670 0.3638 -0.3981
C9B C 0.9238(5) 0.45606(18) -0.3827(3)
H8B H 0.8924 0.4643 -0.4692
C10B C 0.9882(4) 0.50402(17) -0.2963(3)
H9B H 1.0020 0.5444 -0.3250
C11B C 1.0322(4) 0.49197(14) -0.1670(3)
C13B C 0.7457(4) 0.48310(14) -0.0375(3)
H10B H 0.8413 0.4240 0.1111
C14B C 0.5916(4) 0.44857(15) -0.0941(3)
H11B H 0.5794 0.4081 -0.0654
C15B C 0.4562(4) 0.47330(16) -0.1923(3)
H12B H 0.3531 0.4497 -0.2295
C16B C 0.4743(5) 0.53343(17) -0.2354(3)
H13B H 0.3826 0.5504 -0.3014
C17B C 0.6282(4) 0.56851(16) -0.1807(3)
H14B H 0.6393 0.6089 -0.2105
C18B C 1.2340(4) 0.45597(14) 0.0821(3)
loop_
_geom_bond_atom_site_label_1
_geom_bond_atom_site_label_2
_geom_bond_site_symmetry_1
_geom_bond_site_symmetry_2
N1 C1 1_555 1_555
N2 C1 1_555 1_555
C1 H1 1_555 1_555
C2 N2 1_555 1_555
H2 C2 1_555 1_555
C3 N1 1_555 1_555
H3 C3 1_555 1_555
C4 N1 1_555 1_555
H4 C4 1_555 1_555
H5 C4 1_555 1_555
C5 C4 1_555 1_555
C6 C5 1_555 1_555
C7 C6 1_555 1_555
H6 C7 1_555 1_555
C8 C7 1_555 1_555
H7 C8 1_555 1_555
C9 C8 1_555 1_555
H8 C9 1_555 1_555
C10 C9 1_555 1_555
H9 C10 1_555 1_555
C11 C6 1_555 1_555
C12 C5 1_555 1_555
H10 C12 1_555 1_555
C13 C12 1_555 1_555
C14 C13 1_555 1_555
H11 C14 1_555 1_555
C15 C14 1_555 1_555
H12 C15 1_555 1_555
C16 C15 1_555 1_555
H13 C16 1_555 1_555
C17 C16 1_555 1_555
H14 C17 1_555 1_555
C18 C5 1_555 1_555
C19 N2 1_555 1_555
H15 C19 1_555 1_555
H16 C19 1_555 1_555
C20 C19 1_555 1_555
H17 C20 1_555 1_555
H18 C20 1_555 1_555
H19 C20 1_555 1_555
C12B C11 1_555 1_555
C5B C12B 1_555 1_555
C4B C5B 1_555 1_555
N1B C4B 1_555 1_555
C1B N1B 1_555 1_555
N2B C1B 1_555 1_555
C2B N2B 1_555 1_555
H2B C2B 1_555 1_555
C3B N1B 1_555 1_555
H3B C3B 1_555 1_555
C19B N2B 1_555 1_555
H15B C19B 1_555 1_555
H16B C19B 1_555 1_555
C20B C19B 1_555 1_555
H17B C20B 1_555 1_555
H18B C20B 1_555 1_555
H19B C20B 1_555 1_555
H1B C1B 1_555 1_555
H4B C4B 1_555 1_555
H5B C4B 1_555 1_555
C6B C5B 1_555 1_555
C7B C6B 1_555 1_555
H6B C7B 1_555 1_555
C8B C7B 1_555 1_555
H7B C8B 1_555 1_555
C9B C8B 1_555 1_555
H8B C9B 1_555 1_555
C10B C9B 1_555 1_555
H9B C10B 1_555 1_555
C11B C12 1_555 1_555
C13B C18 1_555 1_555
H10B C12B 1_555 1_555
C14B C13B 1_555 1_555
H11B C14B 1_555 1_555
C15B C14B 1_555 1_555
H12B C15B 1_555 1_555
C16B C15B 1_555 1_555
H13B C16B 1_555 1_555
C17B C18 1_555 1_555
H14B C17B 1_555 1_555
C18B C13 1_555 1_555
C2 C3 1_555 1_555
C10 C11 1_555 1_555
C17 C18B 1_555 1_555
C12B C13B 1_555 1_555
C5B C18B 1_555 1_555
C2B C3B 1_555 1_555
C6B C11B 1_555 1_555
C10B C11B 1_555 1_555
C16B C17B 1_555 1_555

#END
