
#######################################################################
#
#                 Cambridge Crystallographic Data Centre
#                                CCDC 
#
#######################################################################
#
# If this CIF has been generated from an entry in the Cambridge 
# Structural Database, then it will include bibliographic, chemical, 
# crystal, experimental, refinement or atomic coordinate data resulting 
# from the CCDC's data processing and validation procedures.
#
#######################################################################

data_ETIZAJ
_chemical_formula_moiety         'C31 H32 N4 O5'
_chemical_name_systematic        
'Dimethyl 12-oxo-7-(pyridin-2-yl)-10-(\a-(2-pyridyl)benzyl)-6,10-diazatricyclo[6.3.1.0^2,6^]dodecane-1,8-dicarboxylate'
_symmetry_cell_setting           triclinic
_symmetry_space_group_name_H-M   'P -1'
_symmetry_Int_Tables_number      2
_space_group_name_Hall           '-P 1'
loop_
_symmetry_equiv_pos_site_id
_symmetry_equiv_pos_as_xyz
1 x,y,z
2 -x,-y,-z
_cell_length_a                   9.459(4)
_cell_length_b                   12.157(5)
_cell_length_c                   12.819(6)
_cell_angle_alpha                67.078(15)
_cell_angle_beta                 80.694(14)
_cell_angle_gamma                78.807(10)
_cell_volume                     1325.81
_exptl_crystal_colour            colorless
_exptl_crystal_description       irregular
_cell_formula_units_Z            2
loop_
_atom_site_label
_atom_site_type_symbol
_atom_site_fract_x
_atom_site_fract_y
_atom_site_fract_z
C1 C 0.3931(3) 0.6197(2) 0.0328(2)
H1 H 0.3498 0.6441 -0.0362
C2 C 0.3888(3) 0.5172(2) 0.2347(2)
H2 H 0.3412 0.4706 0.3048
N3 N 0.0032(3) 0.7082(2) 0.02873(19)
C4 C 0.0425(3) 0.6839(2) 0.2168(2)
H4 H 0.0907 0.6394 0.2835
C5 C -0.0783(2) 0.32586(19) 0.34145(19)
C6 C -0.1319(2) 0.2191(2) 0.33078(19)
H5 H -0.155(3) 0.161(2) 0.408(2)
C7 C 0.1740(2) 0.20936(19) 0.34808(18)
C8 C 0.1126(2) 0.10663(19) 0.33326(19)
H6 H 0.080(3) 0.050(2) 0.410(2)
C9 C 0.2166(3) 0.3129(2) 0.2346(2)
H7 H 0.316(3) 0.315(2) 0.235(2)
H8 H 0.201(3) 0.292(2) 0.169(2)
C10 C -0.0231(2) 0.4168(2) 0.22614(19)
H9 H -0.031(3) 0.390(2) 0.161(2)
H10 H -0.085(3) 0.497(2) 0.211(2)
C11 C 0.0497(2) 0.26583(19) 0.41199(19)
C12 C -0.1880(2) 0.3851(2) 0.41120(19)
C13 C -0.2404(3) 0.5545(3) 0.4658(3)
H11 H -0.3436 0.5596 0.4597
H12 H -0.2153 0.6361 0.4405
H13 H -0.2198 0.5097 0.5452
C14 C 0.2900(2) 0.1512(2) 0.43066(19)
C15 C 0.4606(3) 0.1844(2) 0.5245(2)
H14 H 0.4022 0.1548 0.5976
H15 H 0.5106 0.2487 0.5225
H16 H 0.5321 0.1179 0.5153
C16 C -0.2587(3) 0.2485(2) 0.2597(2)
H17 H -0.246(3) 0.326(2) 0.194(2)
H18 H -0.349(3) 0.262(2) 0.302(2)
C17 C -0.2386(3) 0.1411(2) 0.2208(2)
H19 H -0.313(3) 0.088(3) 0.264(2)
H20 H -0.246(3) 0.170(2) 0.140(3)
C18 C -0.0885(3) 0.0715(2) 0.2538(2)
H21 H -0.099(3) -0.002(2) 0.328(2)
H22 H -0.034(3) 0.044(2) 0.196(2)
C19 C 0.2276(2) 0.0336(2) 0.27820(19)
C20 C 0.2204(3) -0.0873(2) 0.3025(2)
H23 H 0.144(3) -0.127(3) 0.352(2)
C21 C 0.3239(3) -0.1517(2) 0.2507(2)
H24 H 0.327(3) -0.238(3) 0.271(2)
C22 C 0.4337(3) -0.0940(2) 0.1773(2)
H25 H 0.509(3) -0.137(3) 0.141(2)
C23 C 0.4354(3) 0.0251(2) 0.1598(2)
H26 H 0.511(3) 0.067(3) 0.110(2)
C24 C 0.1736(3) 0.5309(2) 0.13179(19)
H27 H 0.168(3) 0.518(2) 0.057(2)
C25 C 0.3255(3) 0.5530(2) 0.1349(2)
C26 C 0.5264(4) 0.6503(3) 0.0335(4)
H28 H 0.565(4) 0.695(3) -0.036(3)
C27 C 0.5909(3) 0.6173(3) 0.1316(4)
H29 H 0.683(4) 0.639(3) 0.129(3)
C28 C 0.5226(3) 0.5495(3) 0.2324(3)
H30 H 0.568(4) 0.522(3) 0.304(3)
C29 C 0.0692(2) 0.6457(2) 0.12509(19)
C30 C -0.0928(3) 0.8114(3) 0.0234(3)
H31 H -0.139(4) 0.855(3) -0.042(3)
C31 C -0.1229(3) 0.8516(2) 0.1125(3)
H32 H -0.192(3) 0.929(3) 0.106(3)
C32 C -0.0549(3) 0.7871(2) 0.2101(2)
H33 H -0.069(3) 0.812(3) 0.277(3)
N5 N 0.3355(2) 0.08905(17) 0.20901(17)
N6 N -0.0155(2) 0.15955(16) 0.27038(16)
N7 N 0.1273(2) 0.42787(16) 0.23144(16)
O1 O -0.28596(19) 0.34032(16) 0.47584(16)
O2 O -0.15597(19) 0.49302(15) 0.39535(15)
O3 O 0.30291(18) 0.04682(14) 0.49327(14)
O4 O 0.36717(17) 0.23126(14) 0.43273(14)
O5 O 0.04739(17) 0.25346(15) 0.51024(13)
N1? N 0.3931(3) 0.6197(2) 0.0328(2)
N2? N 0.3888(3) 0.5172(2) 0.2347(2)
C3? C 0.0032(3) 0.7082(2) 0.02873(19)
H3? H 0.0222 0.6819 -0.0336
N4? N 0.0425(3) 0.6839(2) 0.2168(2)
loop_
_geom_bond_atom_site_label_1
_geom_bond_atom_site_label_2
_geom_bond_site_symmetry_1
_geom_bond_site_symmetry_2
C1 H1 1_555 1_555
C2 H2 1_555 1_555
N3 C29 1_555 1_555
C4 H4 1_555 1_555
C5 C6 1_555 1_555
C6 H5 1_555 1_555
C7 C8 1_555 1_555
C8 H6 1_555 1_555
C9 C7 1_555 1_555
H7 C9 1_555 1_555
H8 C9 1_555 1_555
C10 C5 1_555 1_555
H9 C10 1_555 1_555
H10 C10 1_555 1_555
C11 C5 1_555 1_555
C12 C5 1_555 1_555
C13 H11 1_555 1_555
H12 C13 1_555 1_555
H13 C13 1_555 1_555
C14 C7 1_555 1_555
C15 H14 1_555 1_555
H15 C15 1_555 1_555
H16 C15 1_555 1_555
C16 C6 1_555 1_555
H17 C16 1_555 1_555
H18 C16 1_555 1_555
C17 C16 1_555 1_555
H19 C17 1_555 1_555
H20 C17 1_555 1_555
C18 C17 1_555 1_555
H21 C18 1_555 1_555
H22 C18 1_555 1_555
C19 C8 1_555 1_555
C20 C19 1_555 1_555
H23 C20 1_555 1_555
C21 C20 1_555 1_555
H24 C21 1_555 1_555
C22 C21 1_555 1_555
H25 C22 1_555 1_555
C23 C22 1_555 1_555
H26 C23 1_555 1_555
C24 H27 1_555 1_555
C25 C1 1_555 1_555
C26 C1 1_555 1_555
H28 C26 1_555 1_555
C27 C26 1_555 1_555
H29 C27 1_555 1_555
C28 C2 1_555 1_555
H30 C28 1_555 1_555
C29 C4 1_555 1_555
C30 N3 1_555 1_555
H31 C30 1_555 1_555
C31 C30 1_555 1_555
H32 C31 1_555 1_555
C32 C4 1_555 1_555
H33 C32 1_555 1_555
N5 C19 1_555 1_555
N6 C6 1_555 1_555
N7 C9 1_555 1_555
O1 C12 1_555 1_555
O2 C12 1_555 1_555
O3 C14 1_555 1_555
O4 C14 1_555 1_555
O5 C11 1_555 1_555
C2 C25 1_555 1_555
C7 C11 1_555 1_555
C8 N6 1_555 1_555
C10 N7 1_555 1_555
C13 O2 1_555 1_555
C15 O4 1_555 1_555
C18 N6 1_555 1_555
C23 N5 1_555 1_555
C24 C25 1_555 1_555
C24 C29 1_555 1_555
C24 N7 1_555 1_555
C27 C28 1_555 1_555
C31 C32 1_555 1_555

#END
