
#######################################################################
#
#                 Cambridge Crystallographic Data Centre
#                                CCDC 
#
#######################################################################
#
# If this CIF has been generated from an entry in the Cambridge 
# Structural Database, then it will include bibliographic, chemical, 
# crystal, experimental, refinement or atomic coordinate data resulting 
# from the CCDC's data processing and validation procedures.
#
#######################################################################

data_ETIZEM
_chemical_formula_moiety         'C18 H27 N1 O4'
_chemical_name_systematic        
"(1'S,2R,3S,4S)-Ethyl 2-hydroxy-4-methyl-3-(1'-phenylethylcarbamoyl)hexanoate"
_symmetry_cell_setting           orthorhombic
_symmetry_space_group_name_H-M   'P 21 21 21'
_symmetry_Int_Tables_number      19
_space_group_name_Hall           'P 2ac 2ab'
loop_
_symmetry_equiv_pos_site_id
_symmetry_equiv_pos_as_xyz
1 x,y,z
2 1/2-x,-y,1/2+z
3 -x,1/2+y,1/2-z
4 1/2+x,1/2-y,-z
_cell_length_a                   5.047300(10)
_cell_length_b                   25.1504(5)
_cell_length_c                   41.4912(9)
_cell_angle_alpha                90
_cell_angle_beta                 90
_cell_angle_gamma                90
_cell_volume                     5266.96
_exptl_crystal_colour            colorless
_exptl_crystal_description       prism
_chemical_melting_point          110-110.5deg.C
_cell_formula_units_Z            12
_exptl_crystal_recrystallization_method 'ethyl acetate/hexane'
loop_
_atom_site_label
_atom_site_type_symbol
_atom_site_fract_x
_atom_site_fract_y
_atom_site_fract_z
N1 N 0.3822(5) 0.33693(8) 0.27539(5)
H1 H 0.5498 0.3285 0.2725
O1 O 0.1320(4) 0.34073(7) 0.18010(5)
O2 O 0.5491(4) 0.32734(8) 0.19695(5)
O3 O -0.0491(4) 0.25070(7) 0.20291(4)
H2 H -0.148(8) 0.2771(13) 0.2062(8)
O4 O -0.0439(4) 0.31388(8) 0.26634(5)
C1 C 0.3222(6) 0.31303(10) 0.19452(6)
C2 C 0.2197(5) 0.26081(10) 0.20859(6)
H3 H 0.3194 0.2319 0.1973
C3 C 0.2978(5) 0.25684(9) 0.24486(5)
H4 H 0.4955 0.2566 0.2464
C4 C 0.1946(6) 0.30488(9) 0.26314(6)
C5 C 0.3172(6) 0.38537(9) 0.29330(7)
H5 H 0.1417 0.3800 0.3040
C6 C 0.2094(7) 0.39134(11) 0.16579(7)
H6 H 0.2672 0.3860 0.1432
H7 H 0.3577 0.4073 0.1781
C7 C -0.0274(7) 0.42687(12) 0.16693(9)
H8 H 0.0172 0.4614 0.1574
H9 H -0.0821 0.4319 0.1894
H10 H -0.1728 0.4106 0.1548
C8 C 0.1925(6) 0.20473(9) 0.25960(6)
H11 H -0.0055 0.2053 0.2588
C9 C 0.2909(9) 0.15699(11) 0.24007(7)
H12 H 0.2200 0.1241 0.2494
H13 H 0.4850 0.1559 0.2406
H14 H 0.2309 0.1603 0.2177
C10 C 0.2785(6) 0.20000(10) 0.29489(6)
H15 H 0.4731 0.1953 0.2957
H16 H 0.2354 0.2336 0.3062
C11 C 0.1469(7) 0.15378(11) 0.31277(7)
H17 H 0.2112 0.1527 0.3350
H18 H 0.1908 0.1203 0.3020
H19 H -0.0457 0.1587 0.3127
C12 C 0.5248(7) 0.39418(10) 0.31949(6)
H20 H 0.5337 0.3627 0.3334
H21 H 0.4760 0.4253 0.3324
H22 H 0.6981 0.4002 0.3095
C13 C 0.2959(6) 0.43376(10) 0.27136(7)
C14 C 0.1061(7) 0.47243(11) 0.27796(8)
H23 H -0.0128 0.4676 0.2955
C15 C 0.0893(8) 0.51818(12) 0.25909(9)
H24 H -0.0429 0.5440 0.2636
C16 C 0.2618(8) 0.52608(12) 0.23413(8)
H25 H 0.2501 0.5574 0.2214
C17 C 0.4528(9) 0.48842(12) 0.22753(7)
H26 H 0.5744 0.4940 0.2104
C18 C 0.4679(7) 0.44212(11) 0.24595(7)
H27 H 0.5978 0.4161 0.2410
N2 N 0.8835(5) 0.15101(8) 0.06687(5)
H28 H 1.0509 0.1590 0.0703
O5 O 0.6361(4) 0.14903(8) 0.16018(5)
O6 O 1.0569(4) 0.16332(8) 0.14527(5)
O7 O 0.4582(4) 0.23984(8) 0.13859(4)
H29 H 0.384(8) 0.2117(14) 0.1376(8)
O8 O 0.4568(4) 0.17515(8) 0.07524(5)
C19 C 0.8274(6) 0.17727(10) 0.14689(6)
C20 C 0.7274(5) 0.22945(10) 0.13252(6)
H30 H 0.8294 0.2585 0.1434
C21 C 0.8012(5) 0.23210(9) 0.09624(5)
H31 H 0.9988 0.2322 0.0945
C22 C 0.6976(6) 0.18379(10) 0.07836(6)
C23 C 0.8221(6) 0.10266(10) 0.04891(7)
H32 H 0.6402 0.1066 0.0397
C24 C 0.7105(7) 0.09815(12) 0.17419(8)
H33 H 0.7613 0.1028 0.1971
H34 H 0.8629 0.0828 0.1624
C25 C 0.4764(8) 0.06255(13) 0.17159(11)
H35 H 0.5195 0.0277 0.1808
H36 H 0.4281 0.0583 0.1489
H37 H 0.3272 0.0781 0.1834
C26 C 0.6967(6) 0.28418(9) 0.08161(6)
H38 H 0.5001 0.2845 0.0846
C27 C 0.8085(7) 0.33209(10) 0.10007(7)
H39 H 0.7711 0.3280 0.1231
H40 H 0.7253 0.3648 0.0921
H41 H 1.0005 0.3341 0.0967
C28 C 0.7507(7) 0.28835(11) 0.04522(6)
H42 H 0.6654 0.2577 0.0344
H43 H 0.6647 0.3211 0.0370
C29 C 1.0408(7) 0.28958(12) 0.03554(7)
H44 H 1.0546 0.2921 0.0120
H45 H 1.1279 0.2569 0.0429
H46 H 1.1270 0.3204 0.0454
C30 C 1.0146(7) 0.09718(11) 0.02112(7)
H47 H 1.0091 0.1294 0.0079
H48 H 0.9650 0.0664 0.0079
H49 H 1.1942 0.0921 0.0295
C31 C 0.8232(7) 0.05328(10) 0.07026(7)
C32 C 0.6435(9) 0.01290(13) 0.06376(11)
H50 H 0.5151 0.0173 0.0472
C33 C 0.6519(11) -0.03393(14) 0.08150(13)
H51 H 0.5293 -0.0615 0.0769
C34 C 0.8344(11) -0.04088(13) 0.10558(10)
H52 H 0.8375 -0.0729 0.1177
C35 C 1.0115(12) -0.00129(14) 0.11188(9)
H53 H 1.1396 -0.0058 0.1284
C36 C 1.0057(10) 0.04605(13) 0.09412(8)
H54 H 1.1300 0.0734 0.0987
N3 N 0.3250(5) 0.62781(8) 0.09267(5)
H55 H 0.1569 0.6359 0.0899
O9 O 0.1182(4) 0.66401(8) 0.02094(5)
O10 O 0.7172(4) 0.73888(8) 0.03092(4)
H56 H 0.799(8) 0.7141(14) 0.0312(9)
O11 O 0.7489(4) 0.65686(7) 0.08817(5)
C37 C 0.3437(6) 0.67877(11) 0.01936(6)
C38 C 0.4524(6) 0.72628(10) 0.03793(6)
H57 H 0.3445 0.7577 0.0312
C39 C 0.3988(5) 0.71817(9) 0.07456(5)
H58 H 0.2029 0.7184 0.0781
C40 C 0.5082(5) 0.66473(9) 0.08594(6)
C41 C 0.3926(6) 0.57459(9) 0.10438(6)
H59 H 0.5900 0.5712 0.1041
C42 C 0.5218(6) 0.76359(9) 0.09442(6)
H60 H 0.7176 0.7623 0.0909
C43 C 0.4250(8) 0.81775(10) 0.08256(7)
H61 H 0.5056 0.8459 0.0956
H62 H 0.2317 0.8196 0.0845
H63 H 0.4756 0.8225 0.0599
C44 C 0.4737(6) 0.75677(10) 0.13086(6)
H64 H 0.5375 0.7211 0.1373
H65 H 0.5823 0.7834 0.1425
C45 C 0.1889(6) 0.76257(13) 0.14173(7)
H66 H 0.1785 0.7574 0.1651
H67 H 0.0793 0.7359 0.1309
H68 H 0.1246 0.7982 0.1362
C46 C 0.3004(8) 0.56869(11) 0.13934(7)
H69 H 0.3779 0.5971 0.1524
H70 H 0.3576 0.5341 0.1477
H71 H 0.1067 0.5710 0.1402
C47 C 0.2796(6) 0.53063(10) 0.08326(6)
C48 C 0.3824(7) 0.47954(11) 0.08656(8)
H72 H 0.5238 0.4733 0.1012
C49 C 0.2795(8) 0.43737(12) 0.06853(9)
H73 H 0.3529 0.4028 0.0707
C50 C 0.0729(8) 0.44575(12) 0.04767(8)
H74 H 0.0024 0.4170 0.0356
C51 C -0.0312(8) 0.49571(12) 0.04436(8)
H75 H -0.1750 0.5014 0.0300
C52 C 0.0715(7) 0.53857(11) 0.06186(7)
H76 H -0.0010 0.5731 0.0591
O12 O 0.5241(8) 0.64633(15) 0.00678(9)
C53 C 0.4361(12) 0.5982(2) -0.00926(13)
H77 H 0.2928 0.6065 -0.0248
H78 H 0.3676 0.5724 0.0067
C54 C 0.6712(11) 0.57546(19) -0.02661(12)
H79 H 0.6275 0.5399 -0.0346
H80 H 0.8216 0.5731 -0.0117
H81 H 0.7181 0.5985 -0.0448
O13? O 0.5304(9) 0.66318(16) -0.00234(9)
C55? C 0.4535(15) 0.6177(2) -0.02181(15)
H82? H 0.5068 0.6233 -0.0445
H83? H 0.2589 0.6129 -0.0211
C56? C 0.585(2) 0.5708(3) -0.0089(2)
H84? H 0.5512 0.5403 -0.0231
H85? H 0.5156 0.5631 0.0127
H86? H 0.7759 0.5772 -0.0076
loop_
_geom_bond_atom_site_label_1
_geom_bond_atom_site_label_2
_geom_bond_site_symmetry_1
_geom_bond_site_symmetry_2
N1 H1 1_555 1_555
O1 C1 1_555 1_555
O2 C1 1_555 1_555
O3 H2 1_555 1_555
O4 C4 1_555 1_555
C1 C2 1_555 1_555
C2 O3 1_555 1_555
H3 C2 1_555 1_555
C3 C2 1_555 1_555
H4 C3 1_555 1_555
C4 N1 1_555 1_555
C5 N1 1_555 1_555
H5 C5 1_555 1_555
C6 O1 1_555 1_555
H6 C6 1_555 1_555
H7 C6 1_555 1_555
C7 C6 1_555 1_555
H8 C7 1_555 1_555
H9 C7 1_555 1_555
H10 C7 1_555 1_555
C8 C3 1_555 1_555
H11 C8 1_555 1_555
C9 C8 1_555 1_555
H12 C9 1_555 1_555
H13 C9 1_555 1_555
H14 C9 1_555 1_555
C10 C8 1_555 1_555
H15 C10 1_555 1_555
H16 C10 1_555 1_555
C11 C10 1_555 1_555
H17 C11 1_555 1_555
H18 C11 1_555 1_555
H19 C11 1_555 1_555
C12 C5 1_555 1_555
H20 C12 1_555 1_555
H21 C12 1_555 1_555
H22 C12 1_555 1_555
C13 C5 1_555 1_555
C14 C13 1_555 1_555
H23 C14 1_555 1_555
C15 C14 1_555 1_555
H24 C15 1_555 1_555
C16 C15 1_555 1_555
H25 C16 1_555 1_555
C17 C16 1_555 1_555
H26 C17 1_555 1_555
C18 C13 1_555 1_555
H27 C18 1_555 1_555
N2 H28 1_555 1_555
O5 C19 1_555 1_555
O6 C19 1_555 1_555
O7 H29 1_555 1_555
O8 C22 1_555 1_555
C19 C20 1_555 1_555
C20 O7 1_555 1_555
H30 C20 1_555 1_555
C21 C20 1_555 1_555
H31 C21 1_555 1_555
C22 N2 1_555 1_555
C23 N2 1_555 1_555
H32 C23 1_555 1_555
C24 O5 1_555 1_555
H33 C24 1_555 1_555
H34 C24 1_555 1_555
C25 C24 1_555 1_555
H35 C25 1_555 1_555
H36 C25 1_555 1_555
H37 C25 1_555 1_555
C26 C21 1_555 1_555
H38 C26 1_555 1_555
C27 C26 1_555 1_555
H39 C27 1_555 1_555
H40 C27 1_555 1_555
H41 C27 1_555 1_555
C28 C26 1_555 1_555
H42 C28 1_555 1_555
H43 C28 1_555 1_555
C29 C28 1_555 1_555
H44 C29 1_555 1_555
H45 C29 1_555 1_555
H46 C29 1_555 1_555
C30 C23 1_555 1_555
H47 C30 1_555 1_555
H48 C30 1_555 1_555
H49 C30 1_555 1_555
C31 C23 1_555 1_555
C32 C31 1_555 1_555
H50 C32 1_555 1_555
C33 C32 1_555 1_555
H51 C33 1_555 1_555
C34 C33 1_555 1_555
H52 C34 1_555 1_555
C35 C34 1_555 1_555
H53 C35 1_555 1_555
C36 C31 1_555 1_555
H54 C36 1_555 1_555
N3 H55 1_555 1_555
O9 C37 1_555 1_555
O10 H56 1_555 1_555
O11 C40 1_555 1_555
C37 C38 1_555 1_555
C38 O10 1_555 1_555
H57 C38 1_555 1_555
C39 C38 1_555 1_555
H58 C39 1_555 1_555
C40 N3 1_555 1_555
C41 N3 1_555 1_555
H59 C41 1_555 1_555
C42 C39 1_555 1_555
H60 C42 1_555 1_555
C43 C42 1_555 1_555
H61 C43 1_555 1_555
H62 C43 1_555 1_555
H63 C43 1_555 1_555
C44 C42 1_555 1_555
H64 C44 1_555 1_555
H65 C44 1_555 1_555
C45 C44 1_555 1_555
H66 C45 1_555 1_555
H67 C45 1_555 1_555
H68 C45 1_555 1_555
C46 C41 1_555 1_555
H69 C46 1_555 1_555
H70 C46 1_555 1_555
H71 C46 1_555 1_555
C47 C41 1_555 1_555
C48 C47 1_555 1_555
H72 C48 1_555 1_555
C49 C48 1_555 1_555
H73 C49 1_555 1_555
C50 C49 1_555 1_555
H74 C50 1_555 1_555
C51 C50 1_555 1_555
H75 C51 1_555 1_555
C52 C47 1_555 1_555
H76 C52 1_555 1_555
O12 C37 1_555 1_555
C53 O12 1_555 1_555
H77 C53 1_555 1_555
H78 C53 1_555 1_555
C54 C53 1_555 1_555
H79 C54 1_555 1_555
H80 C54 1_555 1_555
H81 C54 1_555 1_555
C3 C4 1_555 1_555
C17 C18 1_555 1_555
C21 C22 1_555 1_555
C35 C36 1_555 1_555
C39 C40 1_555 1_555
C51 C52 1_555 1_555

#END
