
#######################################################################
#
#                 Cambridge Crystallographic Data Centre
#                                CCDC 
#
#######################################################################
#
# If this CIF has been generated from an entry in the Cambridge 
# Structural Database, then it will include bibliographic, chemical, 
# crystal, experimental, refinement or atomic coordinate data resulting 
# from the CCDC's data processing and validation procedures.
#
#######################################################################

data_ETOBIY
_chemical_formula_moiety         'C13 H10 Br2 N2 O1'
_chemical_name_systematic        N,N'-bis(4-Bromophenyl)urea
_symmetry_cell_setting           monoclinic
_symmetry_space_group_name_H-M   'C 2/c'
_symmetry_Int_Tables_number      15
_space_group_name_Hall           '-C 2yn'
loop_
_symmetry_equiv_pos_site_id
_symmetry_equiv_pos_as_xyz
1 x,y,z
2 1/2+x,1/2+y,z
3 -x,y,1/2-z
4 1/2-x,1/2+y,1/2-z
5 -x,-y,-z
6 1/2-x,1/2-y,-z
7 x,-y,1/2+z
8 1/2+x,1/2-y,1/2+z
_cell_length_a                   27.701(12)
_cell_length_b                   4.551(2)
_cell_length_c                   9.953(4)
_cell_angle_alpha                90
_cell_angle_beta                 95.418(7)
_cell_angle_gamma                90
_cell_volume                     1249.14
_exptl_crystal_colour            colorless
_exptl_crystal_description       block
_cell_formula_units_Z            4
_exptl_crystal_recrystallization_method ethanol-DMF
loop_
_atom_site_label
_atom_site_type_symbol
_atom_site_fract_x
_atom_site_fract_y
_atom_site_fract_z
Br1 Br 0.205713(17) 0.51905(12) 0.66083(5)
O1 O 0.0000 0.5817(8) 0.2500
N1 N 0.03510(12) 1.0067(7) 0.3174(4)
H1 H 0.0333 1.1950 0.3116
C1 C 0.0000 0.8470(12) 0.2500
C2 C 0.07466(13) 0.8838(9) 0.3972(4)
C3 C 0.06833(14) 0.6812(9) 0.4936(4)
H2 H 0.0372 0.6184 0.5069
C4 C 0.10700(16) 0.5687(10) 0.5710(4)
H3 H 0.1026 0.4274 0.6363
C5 C 0.15237(14) 0.6667(10) 0.5513(4)
C6 C 0.15920(15) 0.8698(11) 0.4585(5)
H4 H 0.1903 0.9368 0.4475
C7 C 0.12032(16) 0.9791(9) 0.3795(5)
H5 H 0.1250 1.1185 0.3137
N1B N -0.03510(12) 1.0067(7) 0.1826(4)
H1B H -0.0333 1.1950 0.1884
C2B C -0.07466(13) 0.8838(9) 0.1028(4)
C3B C -0.06833(14) 0.6812(9) 0.0064(4)
H2B H -0.0372 0.6184 -0.0069
C4B C -0.10700(16) 0.5687(10) -0.0710(4)
H3B H -0.1026 0.4274 -0.1363
C5B C -0.15237(14) 0.6667(10) -0.0513(4)
Br1B Br -0.205713(17) 0.51905(12) -0.16083(5)
C6B C -0.15920(15) 0.8698(11) 0.0415(5)
H4B H -0.1903 0.9368 0.0525
C7B C -0.12032(16) 0.9791(9) 0.1205(5)
H5B H -0.1250 1.1185 0.1863
loop_
_geom_bond_atom_site_label_1
_geom_bond_atom_site_label_2
_geom_bond_site_symmetry_1
_geom_bond_site_symmetry_2
Br1 C5 1_555 1_555
O1 C1 1_555 1_555
N1 H1 1_555 1_555
C1 N1 1_555 1_555
C2 N1 1_555 1_555
C3 C2 1_555 1_555
H2 C3 1_555 1_555
C4 C3 1_555 1_555
H3 C4 1_555 1_555
C5 C4 1_555 1_555
C6 C5 1_555 1_555
H4 C6 1_555 1_555
C7 C2 1_555 1_555
H5 C7 1_555 1_555
N1B C1 1_555 1_555
H1B N1B 1_555 1_555
C2B N1B 1_555 1_555
C3B C2B 1_555 1_555
H2B C3B 1_555 1_555
C4B C3B 1_555 1_555
H3B C4B 1_555 1_555
C5B C4B 1_555 1_555
Br1B C5B 1_555 1_555
C6B C5B 1_555 1_555
H4B C6B 1_555 1_555
C7B C2B 1_555 1_555
H5B C7B 1_555 1_555
C6 C7 1_555 1_555
C6B C7B 1_555 1_555

#END
