
#######################################################################
#
#                 Cambridge Crystallographic Data Centre
#                                CCDC 
#
#######################################################################
#
# If this CIF has been generated from an entry in the Cambridge 
# Structural Database, then it will include bibliographic, chemical, 
# crystal, experimental, refinement or atomic coordinate data resulting 
# from the CCDC's data processing and validation procedures.
#
#######################################################################

data_ETOGUP
_chemical_formula_moiety         'C17 H14 F6 O2 S2'
_chemical_name_systematic        
3,3,4,4,5,5-Hexafluoro-1,2-bis(5-hydroxymethyl-2-methyl-3-thienyl)cyclopent-1-ene
_symmetry_cell_setting           monoclinic
_symmetry_space_group_name_H-M   'P 21/c'
_symmetry_Int_Tables_number      14
_space_group_name_Hall           '-P 2ybc'
loop_
_symmetry_equiv_pos_site_id
_symmetry_equiv_pos_as_xyz
1 x,y,z
2 x,1/2-y,1/2+z
3 -x,-y,-z
4 -x,1/2+y,1/2-z
_cell_length_a                   13.5688(10)
_cell_length_b                   7.5506(6)
_cell_length_c                   18.0929(14)
_cell_angle_alpha                90
_cell_angle_beta                 98.728(2)
_cell_angle_gamma                90
_cell_volume                     1832.2
_exptl_crystal_colour            colorless
_exptl_crystal_description       prism
_chemical_melting_point          '398 K'
_cell_formula_units_Z            4
_chemical_properties_physical    light-sensitive
_exptl_crystal_preparation       photochromic
loop_
_atom_site_label
_atom_site_type_symbol
_atom_site_fract_x
_atom_site_fract_y
_atom_site_fract_z
S1 S 0.81011(5) 0.21514(9) 0.31531(4)
S2 S 0.94117(4) 0.71452(11) 0.55645(4)
F1 F 0.47722(14) 0.5078(3) 0.33811(14)
F2 F 0.53390(15) 0.7091(4) 0.27370(9)
F3 F 0.41204(13) 0.7631(5) 0.40481(13)
F4 F 0.5060(3) 0.9465(4) 0.36292(13)
F5 F 0.60270(13) 0.9431(3) 0.49155(12)
F6 F 0.53627(12) 0.7024(3) 0.51934(10)
O1 O 0.90629(13) 0.2981(3) 0.17097(10)
H1 H 0.936(2) 0.368(4) 0.1968(15)
O2 O 0.96538(14) 0.5359(3) 0.71925(11)
H2 H 0.949(2) 0.442(4) 0.7019(17)
C1 C 0.66526(15) 0.6799(3) 0.44564(12)
C2 C 0.64256(16) 0.6003(3) 0.37909(12)
C3 C 0.53859(19) 0.6482(4) 0.34276(14)
C4 C 0.5029(2) 0.7873(5) 0.39384(16)
C5 C 0.57794(17) 0.7824(4) 0.46518(13)
C6 C 0.74911(18) 0.3309(3) 0.37647(13)
C7 C 0.70144(16) 0.4748(3) 0.34218(12)
C8 C 0.71514(17) 0.4898(3) 0.26529(12)
H3 H 0.6872 0.5801 0.2339
C9 C 0.77224(16) 0.3607(3) 0.24294(12)
C10 C 0.80267(17) 0.3339(4) 0.16752(13)
H4 H 0.7649 0.2361 0.1427
H5 H 0.7860 0.4394 0.1376
C11 C 0.7547(3) 0.2661(4) 0.45555(15)
H6 H 0.6938 0.2946 0.4738
H7 H 0.8096 0.3223 0.4865
H8 H 0.7643 0.1401 0.4569
C12 C 0.85060(16) 0.7146(4) 0.47856(13)
C13 C 0.75881(15) 0.6829(3) 0.49816(12)
C14 C 0.76317(17) 0.6596(3) 0.57709(12)
H9 H 0.7072 0.6379 0.5996
C15 C 0.85610(18) 0.6721(3) 0.61577(13)
C16 C 0.8871(2) 0.6582(4) 0.69854(14)
H10 H 0.9082 0.7740 0.7181
H11 H 0.8300 0.6228 0.7214
C17 C 0.8797(2) 0.7490(5) 0.40331(15)
H12 H 0.8248 0.8026 0.3714
H13 H 0.8968 0.6392 0.3818
H14 H 0.9361 0.8273 0.4085
loop_
_geom_bond_atom_site_label_1
_geom_bond_atom_site_label_2
_geom_bond_site_symmetry_1
_geom_bond_site_symmetry_2
S1 C6 1_555 1_555
S2 C12 1_555 1_555
F1 C3 1_555 1_555
F2 C3 1_555 1_555
F3 C4 1_555 1_555
F4 C4 1_555 1_555
F5 C5 1_555 1_555
F6 C5 1_555 1_555
O1 H1 1_555 1_555
O2 H2 1_555 1_555
C1 C2 1_555 1_555
C2 C3 1_555 1_555
C3 C4 1_555 1_555
C4 C5 1_555 1_555
C5 C1 1_555 1_555
C6 C7 1_555 1_555
C7 C2 1_555 1_555
C8 C7 1_555 1_555
H3 C8 1_555 1_555
C9 S1 1_555 1_555
C10 O1 1_555 1_555
H4 C10 1_555 1_555
H5 C10 1_555 1_555
C11 C6 1_555 1_555
H6 C11 1_555 1_555
H7 C11 1_555 1_555
H8 C11 1_555 1_555
C12 C13 1_555 1_555
C13 C1 1_555 1_555
C14 C13 1_555 1_555
H9 C14 1_555 1_555
C15 S2 1_555 1_555
C16 O2 1_555 1_555
H10 C16 1_555 1_555
H11 C16 1_555 1_555
C17 C12 1_555 1_555
H12 C17 1_555 1_555
H13 C17 1_555 1_555
H14 C17 1_555 1_555
C8 C9 1_555 1_555
C9 C10 1_555 1_555
C14 C15 1_555 1_555
C15 C16 1_555 1_555

#END
