
#######################################################################
#
#                 Cambridge Crystallographic Data Centre
#                                CCDC 
#
#######################################################################
#
# If this CIF has been generated from an entry in the Cambridge 
# Structural Database, then it will include bibliographic, chemical, 
# crystal, experimental, refinement or atomic coordinate data resulting 
# from the CCDC's data processing and validation procedures.
#
#######################################################################

data_ETOHOM
_chemical_compound_source        'leaves of Glycosmis pentaphylla'
_chemical_name_common            'gamma-fagarine dihydrate'
_chemical_formula_moiety         'C13 H11 N1 O3,2(H2 O1)'
_chemical_name_systematic        '4,8-dimethoxyfuro[2,3-b]quinoline dihydrate'
_symmetry_cell_setting           orthorhombic
_symmetry_space_group_name_H-M   'P 21 21 21'
_symmetry_Int_Tables_number      19
_space_group_name_Hall           'P 2ac 2ab'
loop_
_symmetry_equiv_pos_site_id
_symmetry_equiv_pos_as_xyz
1 x,y,z
2 1/2-x,-y,1/2+z
3 1/2+x,1/2-y,-z
4 -x,1/2+y,1/2-z
_cell_length_a                   4.7080(4)
_cell_length_b                   14.7526(14)
_cell_length_c                   17.483(2)
_cell_angle_alpha                90
_cell_angle_beta                 90
_cell_angle_gamma                90
_cell_volume                     1214.29
_cell_formula_units_Z            4
loop_
_atom_site_label
_atom_site_type_symbol
_atom_site_fract_x
_atom_site_fract_y
_atom_site_fract_z
O1 O 0.1888(4) 0.75436(11) 0.21825(9)
O2 O -0.2999(4) 0.96391(11) 0.47968(10)
N1 N 0.0735(4) 0.97777(13) 0.36532(12)
O3 O 0.4122(4) 1.05372(11) 0.29477(10)
C1 C -0.5019(5) 0.95692(18) 0.54087(15)
H1 H -0.6893 0.9501 0.5200
H2 H -0.4943 1.0108 0.5716
H3 H -0.4572 0.9052 0.5719
C2 C 0.3137(5) 0.91030(17) 0.25341(14)
C3 C -0.0379(5) 0.82315(17) 0.32213(15)
C4 C -0.4346(6) 0.81202(17) 0.44118(15)
H4 H -0.5671 0.8074 0.4804
C5 C -0.0767(6) 0.89813(16) 0.37210(14)
C6 C -0.2791(6) 0.88997(16) 0.43277(14)
C7 C 0.1653(6) 0.82971(16) 0.26147(14)
C8 C -0.2007(5) 0.74330(17) 0.33256(14)
H5 H -0.1759 0.6940 0.3000
C9 C -0.3944(6) 0.73907(16) 0.39063(14)
H6 H -0.5020 0.6867 0.3969
C10 C 0.5307(5) 0.95022(18) 0.20468(15)
H7 H 0.6184 0.9230 0.1629
C11 C 0.3932(6) 0.75372(18) 0.15709(14)
H8 H 0.3504 0.8016 0.1217
H9 H 0.3857 0.6965 0.1311
H10 H 0.5801 0.7627 0.1777
C12 C 0.2492(6) 0.97802(16) 0.30779(14)
C13 C 0.5797(6) 1.03369(18) 0.23167(15)
H11 H 0.7108 1.0737 0.2106
O4 O 0.1200(4) 1.13674(12) 0.46320(11)
H12 H -0.027(4) 1.1403(18) 0.4912(14)
H13 H 0.120(6) 1.0900(13) 0.4353(14)
O5 O -0.3748(4) 1.17077(12) 0.54430(11)
H14 H -0.374(6) 1.2276(7) 0.5506(15)
H15 H -0.521(4) 1.1557(17) 0.5190(15)
loop_
_geom_bond_atom_site_label_1
_geom_bond_atom_site_label_2
_geom_bond_site_symmetry_1
_geom_bond_site_symmetry_2
O1 C7 1_555 1_555
O2 C1 1_555 1_555
N1 C5 1_555 1_555
O3 C12 1_555 1_555
C1 H1 1_555 1_555
H2 C1 1_555 1_555
H3 C1 1_555 1_555
C2 C7 1_555 1_555
C3 C5 1_555 1_555
C4 H4 1_555 1_555
C5 C6 1_555 1_555
C6 O2 1_555 1_555
C7 C3 1_555 1_555
C8 C3 1_555 1_555
H5 C8 1_555 1_555
C9 C4 1_555 1_555
H6 C9 1_555 1_555
C10 C2 1_555 1_555
H7 C10 1_555 1_555
C11 O1 1_555 1_555
H8 C11 1_555 1_555
H9 C11 1_555 1_555
H10 C11 1_555 1_555
C12 N1 1_555 1_555
C13 O3 1_555 1_555
H11 C13 1_555 1_555
O4 H12 1_555 1_555
H13 O4 1_555 1_555
O5 H14 1_555 1_555
H15 O5 1_555 1_555
C2 C12 1_555 1_555
C4 C6 1_555 1_555
C8 C9 1_555 1_555
C10 C13 1_555 1_555

#END
