
#######################################################################
#
#                 Cambridge Crystallographic Data Centre
#                                CCDC 
#
#######################################################################
#
# If this CIF has been generated from an entry in the Cambridge 
# Structural Database, then it will include bibliographic, chemical, 
# crystal, experimental, refinement or atomic coordinate data resulting 
# from the CCDC's data processing and validation procedures.
#
#######################################################################

data_ETOHIG
_chemical_formula_moiety         'C36 H26 F6 N1 O1 P1'
_chemical_name_systematic        
'2-(3,5-bis(trifluoromethyl)phenyl)-6-methyl-1-(4-methylphenyl)-3,4-diphenyl-1,2-dihydro-2,1-benzazaphosphinine 1-oxide'
_symmetry_cell_setting           trigonal
_symmetry_space_group_name_H-M   'P 32'
_symmetry_Int_Tables_number      145
_space_group_name_Hall           'P 32'
loop_
_symmetry_equiv_pos_site_id
_symmetry_equiv_pos_as_xyz
1 x,y,z
2 -y,x-y,2/3+z
3 -x+y,-x,1/3+z
_cell_length_a                   21.626(2)
_cell_length_b                   21.626(2)
_cell_length_c                   17.486(3)
_cell_angle_alpha                90
_cell_angle_beta                 90
_cell_angle_gamma                120
_cell_volume                     7082.29
_exptl_crystal_colour            colorless
_exptl_crystal_description       prism
_cell_formula_units_Z            9
loop_
_atom_site_label
_atom_site_type_symbol
_atom_site_fract_x
_atom_site_fract_y
_atom_site_fract_z
P1 P 0.68847(7) 0.33245(7) 0.42329(8)
F1 F 0.53308(19) 0.4149(2) 0.2812(2)
F2 F 0.4284(2) 0.3216(2) 0.2916(2)
F3 F 0.45009(19) 0.42319(19) 0.3388(2)
F4 F 0.4152(3) 0.3704(3) 0.6138(2)
F5 F 0.5238(2) 0.4326(2) 0.6421(3)
F6 F 0.4682(3) 0.3236(2) 0.6706(2)
O1 O 0.68865(17) 0.32584(17) 0.3386(2)
N1 N 0.6091(2) 0.28083(19) 0.4671(2)
C1 C 0.7118(3) 0.4218(2) 0.4520(3)
C2 C 0.7284(3) 0.4740(3) 0.3973(3)
H1 H 0.7278 0.4634 0.3445
C3 C 0.7461(3) 0.5433(3) 0.4210(4)
H2 H 0.7583 0.5796 0.3838
C4 C 0.7460(3) 0.5588(3) 0.4969(4)
C5 C 0.7287(3) 0.5057(3) 0.5518(4)
H3 H 0.7285 0.5166 0.6044
C6 C 0.7119(2) 0.4374(3) 0.5304(3)
H4 H 0.7006 0.4015 0.5679
C7 C 0.7644(4) 0.6341(3) 0.5258(4)
H5 H 0.7822 0.6680 0.4831
H6 H 0.8011 0.6498 0.5656
H7 H 0.7214 0.6319 0.5470
C8 C 0.5595(2) 0.3084(2) 0.4685(3)
C9 C 0.5409(2) 0.3285(2) 0.4008(3)
H8 H 0.5558 0.3195 0.3530
C10 C 0.5001(3) 0.3620(2) 0.4033(3)
C11 C 0.4786(3) 0.3744(3) 0.4730(3)
H9 H 0.4507 0.3971 0.4749
C12 C 0.4971(3) 0.3543(3) 0.5401(3)
C13 C 0.5381(3) 0.3211(2) 0.5385(3)
H10 H 0.5512 0.3075 0.5846
C14 C 0.4781(3) 0.3806(3) 0.3294(3)
C15 C 0.4754(4) 0.3702(4) 0.6150(4)
C16 C 0.5898(2) 0.2135(2) 0.5016(3)
C17 C 0.5109(3) 0.1648(3) 0.5140(3)
C18 C 0.4670(3) 0.1283(3) 0.4527(4)
H11 H 0.4863 0.1355 0.4025
C19 C 0.3939(3) 0.0806(3) 0.4650(5)
H12 H 0.3638 0.0549 0.4233
C20 C 0.3660(3) 0.0714(4) 0.5385(6)
H13 H 0.3166 0.0396 0.5469
C21 C 0.4089(3) 0.1077(4) 0.5980(5)
H14 H 0.3895 0.1002 0.6481
C22 C 0.4814(3) 0.1559(3) 0.5868(4)
H15 H 0.5106 0.1825 0.6287
C23 C 0.6374(2) 0.1940(2) 0.5203(3)
C24 C 0.6131(2) 0.1212(3) 0.5560(3)
C25 C 0.6054(3) 0.1129(3) 0.6347(3)
H16 H 0.6127 0.1521 0.6658
C26 C 0.5870(3) 0.0476(3) 0.6683(3)
H17 H 0.5809 0.0422 0.7222
C27 C 0.5774(3) -0.0095(3) 0.6239(3)
H18 H 0.5652 -0.0538 0.6474
C28 C 0.5857(3) -0.0022(3) 0.5459(3)
H19 H 0.5793 -0.0411 0.5150
C29 C 0.6036(3) 0.0637(3) 0.5130(3)
H20 H 0.6095 0.0689 0.4591
C30 C 0.7157(2) 0.2402(2) 0.5097(3)
C31 C 0.7645(2) 0.2204(3) 0.5387(3)
H21 H 0.7462 0.1751 0.5625
C32 C 0.8376(3) 0.2644(3) 0.5336(3)
C33 C 0.8651(3) 0.3310(3) 0.4985(3)
H22 H 0.9153 0.3620 0.4958
C34 C 0.8196(3) 0.3521(3) 0.4678(3)
H23 H 0.8384 0.3974 0.4437
C35 C 0.7445(3) 0.3059(3) 0.4724(3)
C36 C 0.8895(3) 0.2410(3) 0.5642(4)
H24 H 0.9145 0.2339 0.5213
H25 H 0.8626 0.1961 0.5926
H26 H 0.9243 0.2779 0.5983
P2 P 0.98542(7) 0.00586(7) -0.00886(7)
F7 F 1.1849(2) -0.0369(2) -0.1453(2)
F8 F 1.12754(18) -0.13873(17) -0.0885(2)
F9 F 1.24064(17) -0.07302(18) -0.0751(2)
F10 F 1.23878(16) -0.04882(17) 0.20677(18)
F11 F 1.13052(16) -0.08099(18) 0.23894(17)
F12 F 1.21236(16) 0.02943(16) 0.24761(18)
O2 O 0.98774(18) 0.01260(18) -0.09325(18)
N2 N 1.0651(2) 0.05529(19) 0.0356(2)
C37 C 0.9571(2) -0.0849(2) 0.0187(3)
C38 C 0.9470(3) -0.1343(3) -0.0368(3)
H27 H 0.9520 -0.1210 -0.0892
C39 C 0.9297(3) -0.2031(3) -0.0172(3)
H28 H 0.9212 -0.2368 -0.0564
C40 C 0.9246(3) -0.2237(3) 0.0588(3)
C41 C 0.9329(3) -0.1749(3) 0.1154(3)
H29 H 0.9260 -0.1891 0.1676
C42 C 0.9517(3) -0.1044(3) 0.0954(3)
H30 H 0.9607 -0.0702 0.1343
C43 C 0.9069(4) -0.2999(3) 0.0798(4)
H31 H 0.9359 -0.3134 0.0486
H32 H 0.8562 -0.3332 0.0701
H33 H 0.9173 -0.3017 0.1340
C44 C 1.1109(2) 0.0250(2) 0.0436(3)
C45 C 1.1283(2) -0.0010(3) -0.0211(3)
H34 H 1.1139 0.0048 -0.0706
C46 C 1.1676(3) -0.0362(3) -0.0111(3)
C47 C 1.1901(3) -0.0434(3) 0.0600(3)
H35 H 1.2179 -0.0659 0.0657
C48 C 1.1719(3) -0.0173(2) 0.1233(3)
C49 C 1.1311(2) 0.0147(2) 0.1151(3)
H36 H 1.1168 0.0300 0.1592
C50 C 1.1801(3) -0.0706(3) -0.0804(4)
C51 C 1.1896(3) -0.0291(3) 0.2037(3)
C52 C 1.0875(2) 0.1228(2) 0.0709(3)
C53 C 1.1667(2) 0.1685(2) 0.0790(3)
C54 C 1.2088(3) 0.1936(3) 0.0143(3)
H37 H 1.1868 0.1824 -0.0346
C55 C 1.2832(3) 0.2351(3) 0.0192(4)
H38 H 1.3111 0.2524 -0.0260
C56 C 1.3154(3) 0.2504(3) 0.0890(5)
H39 H 1.3659 0.2784 0.0924
C57 C 1.2742(3) 0.2251(3) 0.1558(4)
H40 H 1.2965 0.2357 0.2047
C58 C 1.2003(3) 0.1841(3) 0.1494(3)
H41 H 1.1722 0.1663 0.1945
C59 C 1.0407(2) 0.1448(2) 0.0908(3)
C60 C 1.0701(2) 0.2166(2) 0.1291(3)
C61 C 1.0685(3) 0.2219(3) 0.2078(3)
H42 H 1.0467 0.1793 0.2372
C62 C 1.0975(3) 0.2867(3) 0.2453(3)
H43 H 1.0954 0.2884 0.2995
C63 C 1.1298(3) 0.3499(3) 0.2026(4)
H44 H 1.1513 0.3948 0.2277
C64 C 1.1302(3) 0.3467(3) 0.1229(4)
H45 H 1.1501 0.3890 0.0930
C65 C 1.1006(3) 0.2797(3) 0.0881(3)
H46 H 1.1015 0.2774 0.0339
C66 C 0.9641(2) 0.1021(2) 0.0784(3)
C67 C 0.9172(3) 0.1257(2) 0.1047(3)
H47 H 0.9366 0.1697 0.1315
C68 C 0.8450(3) 0.0874(3) 0.0927(3)
C69 C 0.8151(3) 0.0228(3) 0.0533(3)
H48 H 0.7652 -0.0035 0.0438
C70 C 0.8590(3) -0.0027(3) 0.0283(3)
H49 H 0.8384 -0.0479 0.0037
C71 C 0.9323(2) 0.0365(2) 0.0384(3)
C72 C 0.7960(3) 0.1149(3) 0.1196(4)
H50 H 0.8210 0.1526 0.1578
H51 H 0.7528 0.0756 0.1424
H52 H 0.7829 0.1343 0.0759
P3 P 1.35602(7) 0.68545(7) 0.26433(8)
F13 F 1.1396(2) 0.4531(3) 0.3714(3)
F14 F 1.0956(2) 0.5162(2) 0.4059(2)
F15 F 1.0337(2) 0.4249(2) 0.3391(2)
F16 F 1.0284(2) 0.4626(2) 0.0654(2)
F17 F 1.1315(2) 0.4962(3) 0.0211(2)
F18 F 1.0926(2) 0.5672(2) 0.0236(2)
O3 O 1.36057(19) 0.69389(17) 0.3487(2)
N3 N 1.29103(19) 0.6945(2) 0.2220(2)
C73 C 1.3400(3) 0.5985(3) 0.2367(3)
C74 C 1.3386(3) 0.5527(3) 0.2923(3)
H53 H 1.3439 0.5661 0.3447
C75 C 1.3294(3) 0.4864(3) 0.2708(4)
H54 H 1.3283 0.4550 0.3094
C76 C 1.3219(3) 0.4651(3) 0.1964(3)
C77 C 1.3229(3) 0.5113(3) 0.1403(3)
H55 H 1.3171 0.4970 0.0882
C78 C 1.3319(3) 0.5776(3) 0.1587(3)
H56 H 1.3328 0.6087 0.1197
C79 C 1.3143(4) 0.3930(3) 0.1736(4)
H57 H 1.3485 0.4004 0.1329
H58 H 1.2657 0.3609 0.1554
H59 H 1.3241 0.3716 0.2182
C80 C 1.2221(3) 0.6302(3) 0.2181(3)
C81 C 1.1917(3) 0.5897(3) 0.2829(3)
H60 H 1.2134 0.6064 0.3315
C82 C 1.1291(3) 0.5245(3) 0.2766(3)
C83 C 1.0952(3) 0.4991(3) 0.2059(3)
H61 H 1.0525 0.4543 0.2019
C84 C 1.1260(3) 0.5413(3) 0.1419(3)
C85 C 1.1892(2) 0.6057(2) 0.1467(3)
H62 H 1.2103 0.6331 0.1019
C86 C 1.0997(3) 0.4802(3) 0.3477(3)
C87 C 1.0930(3) 0.5152(3) 0.0637(3)
C88 C 1.3038(3) 0.7591(2) 0.1866(3)
C89 C 1.2377(3) 0.7652(3) 0.1771(3)
C90 C 1.2036(3) 0.7698(3) 0.2440(3)
H63 H 1.2229 0.7700 0.2929
C91 C 1.1403(3) 0.7741(3) 0.2376(4)
H64 H 1.1165 0.7766 0.2821
C92 C 1.1143(3) 0.7746(3) 0.1661(5)
H65 H 1.0727 0.7787 0.1616
C93 C 1.1467(3) 0.7695(3) 0.1015(4)
H66 H 1.1277 0.7701 0.0527
C94 C 1.2074(3) 0.7633(3) 0.1070(4)
H67 H 1.2285 0.7577 0.0618
C95 C 1.3696(3) 0.8130(2) 0.1667(3)
C96 C 1.3805(2) 0.8813(3) 0.1324(3)
C97 C 1.3724(3) 0.8856(3) 0.0529(3)
H68 H 1.3558 0.8444 0.0216
C98 C 1.3893(3) 0.9520(4) 0.0205(4)
H69 H 1.3813 0.9546 -0.0325
C99 C 1.4167(3) 1.0124(3) 0.0635(4)
H70 H 1.4301 1.0569 0.0399
C100 C 1.4252(3) 1.0091(3) 0.1408(4)
H71 H 1.4440 1.0513 0.1708
C101 C 1.4063(3) 0.9437(3) 0.1758(3)
H72 H 1.4111 0.9417 0.2296
C102 C 1.4352(2) 0.8080(2) 0.1768(3)
C103 C 1.5023(2) 0.8613(3) 0.1468(3)
H73 H 1.5056 0.9025 0.1234
C104 C 1.5619(3) 0.8546(3) 0.1507(3)
C105 C 1.5568(3) 0.7945(3) 0.1847(3)
H74 H 1.5975 0.7887 0.1853
C106 C 1.4954(3) 0.7438(3) 0.2171(3)
H75 H 1.4942 0.7042 0.2420
C107 C 1.4332(3) 0.7493(3) 0.2142(3)
C108 C 1.6313(3) 0.9117(3) 0.1177(4)
H76 H 1.6496 0.8902 0.0814
H77 H 1.6661 0.9350 0.1589
H78 H 1.6236 0.9472 0.0911
loop_
_geom_bond_atom_site_label_1
_geom_bond_atom_site_label_2
_geom_bond_site_symmetry_1
_geom_bond_site_symmetry_2
P1 O1 1_555 1_555
F1 C14 1_555 1_555
F2 C14 1_555 1_555
F3 C14 1_555 1_555
F4 C15 1_555 1_555
F5 C15 1_555 1_555
F6 C15 1_555 1_555
N1 P1 1_555 1_555
C1 P1 1_555 1_555
C2 C1 1_555 1_555
H1 C2 1_555 1_555
C3 C2 1_555 1_555
H2 C3 1_555 1_555
C4 C3 1_555 1_555
C5 C4 1_555 1_555
H3 C5 1_555 1_555
C6 C1 1_555 1_555
H4 C6 1_555 1_555
C7 C4 1_555 1_555
H5 C7 1_555 1_555
H6 C7 1_555 1_555
H7 C7 1_555 1_555
C8 N1 1_555 1_555
C9 C8 1_555 1_555
H8 C9 1_555 1_555
C10 C9 1_555 1_555
C11 C10 1_555 1_555
H9 C11 1_555 1_555
C12 C11 1_555 1_555
C13 C8 1_555 1_555
H10 C13 1_555 1_555
C14 C10 1_555 1_555
C15 C12 1_555 1_555
C16 N1 1_555 1_555
C17 C16 1_555 1_555
C18 C17 1_555 1_555
H11 C18 1_555 1_555
C19 C18 1_555 1_555
H12 C19 1_555 1_555
C20 C19 1_555 1_555
H13 C20 1_555 1_555
C21 C20 1_555 1_555
H14 C21 1_555 1_555
C22 C17 1_555 1_555
H15 C22 1_555 1_555
C23 C16 1_555 1_555
C24 C23 1_555 1_555
C25 C24 1_555 1_555
H16 C25 1_555 1_555
C26 C25 1_555 1_555
H17 C26 1_555 1_555
C27 C26 1_555 1_555
H18 C27 1_555 1_555
C28 C27 1_555 1_555
H19 C28 1_555 1_555
C29 C24 1_555 1_555
H20 C29 1_555 1_555
C30 C23 1_555 1_555
C31 C30 1_555 1_555
H21 C31 1_555 1_555
C32 C31 1_555 1_555
C33 C32 1_555 1_555
H22 C33 1_555 1_555
C34 C33 1_555 1_555
H23 C34 1_555 1_555
C35 P1 1_555 1_555
C36 C32 1_555 1_555
H24 C36 1_555 1_555
H25 C36 1_555 1_555
H26 C36 1_555 1_555
P2 O2 1_555 1_555
F7 C50 1_555 1_555
F8 C50 1_555 1_555
F9 C50 1_555 1_555
F10 C51 1_555 1_555
F11 C51 1_555 1_555
F12 C51 1_555 1_555
N2 P2 1_555 1_555
C37 P2 1_555 1_555
C38 C37 1_555 1_555
H27 C38 1_555 1_555
C39 C38 1_555 1_555
H28 C39 1_555 1_555
C40 C39 1_555 1_555
C41 C40 1_555 1_555
H29 C41 1_555 1_555
C42 C37 1_555 1_555
H30 C42 1_555 1_555
C43 C40 1_555 1_555
H31 C43 1_555 1_555
H32 C43 1_555 1_555
H33 C43 1_555 1_555
C44 N2 1_555 1_555
C45 C44 1_555 1_555
H34 C45 1_555 1_555
C46 C45 1_555 1_555
C47 C46 1_555 1_555
H35 C47 1_555 1_555
C48 C47 1_555 1_555
C49 C44 1_555 1_555
H36 C49 1_555 1_555
C50 C46 1_555 1_555
C51 C48 1_555 1_555
C52 N2 1_555 1_555
C53 C52 1_555 1_555
C54 C53 1_555 1_555
H37 C54 1_555 1_555
C55 C54 1_555 1_555
H38 C55 1_555 1_555
C56 C55 1_555 1_555
H39 C56 1_555 1_555
C57 C56 1_555 1_555
H40 C57 1_555 1_555
C58 C53 1_555 1_555
H41 C58 1_555 1_555
C59 C52 1_555 1_555
C60 C59 1_555 1_555
C61 C60 1_555 1_555
H42 C61 1_555 1_555
C62 C61 1_555 1_555
H43 C62 1_555 1_555
C63 C62 1_555 1_555
H44 C63 1_555 1_555
C64 C63 1_555 1_555
H45 C64 1_555 1_555
C65 C60 1_555 1_555
H46 C65 1_555 1_555
C66 C59 1_555 1_555
C67 C66 1_555 1_555
H47 C67 1_555 1_555
C68 C67 1_555 1_555
C69 C68 1_555 1_555
H48 C69 1_555 1_555
C70 C69 1_555 1_555
H49 C70 1_555 1_555
C71 P2 1_555 1_555
C72 C68 1_555 1_555
H50 C72 1_555 1_555
H51 C72 1_555 1_555
H52 C72 1_555 1_555
P3 O3 1_555 1_555
F13 C86 1_555 1_555
F14 C86 1_555 1_555
F15 C86 1_555 1_555
F16 C87 1_555 1_555
F17 C87 1_555 1_555
F18 C87 1_555 1_555
N3 P3 1_555 1_555
C73 P3 1_555 1_555
C74 C73 1_555 1_555
H53 C74 1_555 1_555
C75 C74 1_555 1_555
H54 C75 1_555 1_555
C76 C75 1_555 1_555
C77 C76 1_555 1_555
H55 C77 1_555 1_555
C78 C73 1_555 1_555
H56 C78 1_555 1_555
C79 C76 1_555 1_555
H57 C79 1_555 1_555
H58 C79 1_555 1_555
H59 C79 1_555 1_555
C80 N3 1_555 1_555
C81 C80 1_555 1_555
H60 C81 1_555 1_555
C82 C81 1_555 1_555
C83 C82 1_555 1_555
H61 C83 1_555 1_555
C84 C83 1_555 1_555
C85 C80 1_555 1_555
H62 C85 1_555 1_555
C86 C82 1_555 1_555
C87 C84 1_555 1_555
C88 N3 1_555 1_555
C89 C88 1_555 1_555
C90 C89 1_555 1_555
H63 C90 1_555 1_555
C91 C90 1_555 1_555
H64 C91 1_555 1_555
C92 C91 1_555 1_555
H65 C92 1_555 1_555
C93 C92 1_555 1_555
H66 C93 1_555 1_555
C94 C89 1_555 1_555
H67 C94 1_555 1_555
C95 C88 1_555 1_555
C96 C95 1_555 1_555
C97 C96 1_555 1_555
H68 C97 1_555 1_555
C98 C97 1_555 1_555
H69 C98 1_555 1_555
C99 C98 1_555 1_555
H70 C99 1_555 1_555
C100 C99 1_555 1_555
H71 C100 1_555 1_555
C101 C96 1_555 1_555
H72 C101 1_555 1_555
C102 C95 1_555 1_555
C103 C102 1_555 1_555
H73 C103 1_555 1_555
C104 C103 1_555 1_555
C105 C104 1_555 1_555
H74 C105 1_555 1_555
C106 C105 1_555 1_555
H75 C106 1_555 1_555
C107 P3 1_555 1_555
C108 C104 1_555 1_555
H76 C108 1_555 1_555
H77 C108 1_555 1_555
H78 C108 1_555 1_555
C5 C6 1_555 1_555
C12 C13 1_555 1_555
C21 C22 1_555 1_555
C28 C29 1_555 1_555
C30 C35 1_555 1_555
C34 C35 1_555 1_555
C41 C42 1_555 1_555
C48 C49 1_555 1_555
C57 C58 1_555 1_555
C64 C65 1_555 1_555
C66 C71 1_555 1_555
C70 C71 1_555 1_555
C77 C78 1_555 1_555
C84 C85 1_555 1_555
C93 C94 1_555 1_555
C100 C101 1_555 1_555
C102 C107 1_555 1_555
C106 C107 1_555 1_555

#END
