
#######################################################################
#
#                 Cambridge Crystallographic Data Centre
#                                CCDC 
#
#######################################################################
#
# If this CIF has been generated from an entry in the Cambridge 
# Structural Database, then it will include bibliographic, chemical, 
# crystal, experimental, refinement or atomic coordinate data resulting 
# from the CCDC's data processing and validation procedures.
#
#######################################################################

data_ETOJUS
_chemical_formula_moiety         'C6 H5 I1 N2 O2'
_chemical_name_systematic        4-Iodo-3-nitroaniline
_symmetry_cell_setting           monoclinic
_symmetry_space_group_name_H-M   'P 21/n'
_symmetry_Int_Tables_number      14
_space_group_name_Hall           '-P 2yn'
loop_
_symmetry_equiv_pos_site_id
_symmetry_equiv_pos_as_xyz
1 x,y,z
2 1/2-x,1/2+y,1/2-z
3 -x,-y,-z
4 1/2+x,1/2-y,1/2+z
_cell_length_a                   12.5174(7)
_cell_length_b                   4.2601(3)
_cell_length_c                   16.0042(9)
_cell_angle_alpha                90
_cell_angle_beta                 111.5800(10)
_cell_angle_gamma                90
_cell_volume                     793.609
_exptl_crystal_colour            colorless
_exptl_crystal_description       plate
_chemical_melting_point          '414-415 K'
_cell_formula_units_Z            4
_exptl_crystal_recrystallization_method 'aqueous methanol'
loop_
_atom_site_label
_atom_site_type_symbol
_atom_site_fract_x
_atom_site_fract_y
_atom_site_fract_z
I1 I 0.28665(2) 0.16650(6) 0.356645(15)
O1 O 0.0122(6) 0.682(2) 0.4378(5)
O2 O 0.0796(6) 0.538(2) 0.3416(5)
N1 N 0.3297(3) 0.7166(11) 0.7327(2)
N2 N 0.0928(3) 0.5822(9) 0.4213(2)
C1 C 0.3197(3) 0.6074(10) 0.6485(2)
C2 C 0.2173(3) 0.6486(9) 0.5757(2)
C3 C 0.2052(2) 0.5254(9) 0.49309(19)
C4 C 0.2922(3) 0.3615(8) 0.4779(2)
C5 C 0.3944(3) 0.3240(10) 0.5519(3)
C6 C 0.4073(3) 0.4401(12) 0.6344(2)
H1 H 0.3986 0.7221 0.7752
H2 H 0.2745 0.8462 0.7316
H3 H 0.1570 0.7589 0.5828
H4 H 0.4552 0.2172 0.5446
H5 H 0.4761 0.4068 0.6824
O3? O 0.0469(6) 0.833(2) 0.4266(6)
O4? O 0.0510(6) 0.376(2) 0.3657(5)
loop_
_geom_bond_atom_site_label_1
_geom_bond_atom_site_label_2
_geom_bond_site_symmetry_1
_geom_bond_site_symmetry_2
I1 C4 1_555 1_555
O1 N2 1_555 1_555
O2 N2 1_555 1_555
N1 C1 1_555 1_555
N2 C3 1_555 1_555
C1 C2 1_555 1_555
C2 C3 1_555 1_555
C3 C4 1_555 1_555
C4 C5 1_555 1_555
C5 C6 1_555 1_555
C6 C1 1_555 1_555
H1 N1 1_555 1_555
H2 N1 1_555 1_555
H3 C2 1_555 1_555
H4 C5 1_555 1_555
H5 C6 1_555 1_555

#END
