
#######################################################################
#
#                 Cambridge Crystallographic Data Centre
#                                CCDC 
#
#######################################################################
#
# If this CIF has been generated from an entry in the Cambridge 
# Structural Database, then it will include bibliographic, chemical, 
# crystal, experimental, refinement or atomic coordinate data resulting 
# from the CCDC's data processing and validation procedures.
#
#######################################################################

data_ETOMUV
_chemical_formula_moiety         'C12 H11 N1 O3 S1'
_chemical_name_systematic        2-Phenoxybenzenesulfonamide
_symmetry_cell_setting           triclinic
_symmetry_space_group_name_H-M   'P -1'
_symmetry_Int_Tables_number      2
_space_group_name_Hall           '-P 1'
loop_
_symmetry_equiv_pos_site_id
_symmetry_equiv_pos_as_xyz
1 x,y,z
2 -x,-y,-z
_cell_length_a                   5.2539(2)
_cell_length_b                   16.2090(8)
_cell_length_c                   26.5417(9)
_cell_angle_alpha                84.850(2)
_cell_angle_beta                 88.951(2)
_cell_angle_gamma                87.607(2)
_cell_volume                     2248.97
_exptl_crystal_colour            colorless
_exptl_crystal_description       block
_chemical_melting_point          '388-389 K'
_cell_formula_units_Z            8
_exptl_crystal_recrystallization_method ethanol
loop_
_atom_site_label
_atom_site_type_symbol
_atom_site_fract_x
_atom_site_fract_y
_atom_site_fract_z
S1 S 0.9210(2) 0.51997(7) 0.82938(4)
O1 O 1.0634(6) 0.50443(18) 0.78422(11)
O2 O 1.0312(6) 0.49179(19) 0.87669(11)
N1 N 0.6529(7) 0.4766(2) 0.82568(13)
C1 C 0.8649(8) 0.6284(3) 0.82745(15)
C2 C 0.6866(8) 0.6621(3) 0.85996(15)
C3 C 0.6413(9) 0.7466(3) 0.85754(18)
C4 C 0.7776(9) 0.7977(3) 0.82392(18)
C5 C 0.9611(9) 0.7650(3) 0.79166(18)
C6 C 1.0011(9) 0.6801(3) 0.79349(16)
O3 O 0.5518(6) 0.60737(19) 0.89177(11)
C7 C 0.5289(8) 0.6196(3) 0.94330(16)
C8 C 0.7088(8) 0.6612(3) 0.96774(17)
C9 C 0.6791(10) 0.6672(3) 1.01920(18)
C10 C 0.4724(9) 0.6321(3) 1.04564(17)
C11 C 0.2981(9) 0.5914(3) 1.02017(17)
C12 C 0.3255(8) 0.5852(3) 0.96859(16)
H1 H 0.5965 0.4820 0.7945
H2 H 0.5352 0.4894 0.8480
H3 H 0.5160 0.7696 0.8791
H4 H 0.7466 0.8560 0.8226
H5 H 1.0567 0.8007 0.7689
H6 H 1.1228 0.6569 0.7713
H7 H 0.8492 0.6849 0.9496
H8 H 0.8003 0.6954 1.0367
H9 H 0.4526 0.6363 1.0810
H10 H 0.1573 0.5673 1.0380
H11 H 0.2040 0.5572 0.9510
S2 S 0.4192(2) 0.47590(7) 0.67480(4)
O4 O 0.5758(6) 0.45312(19) 0.71816(10)
O5 O 0.5083(6) 0.45230(19) 0.62674(11)
N2 N 0.1466(7) 0.4351(2) 0.68614(13)
C13 C 0.3736(8) 0.5853(3) 0.67105(14)
C14 C 0.1844(8) 0.6248(3) 0.64027(15)
C15 C 0.1474(9) 0.7098(3) 0.63852(16)
C16 C 0.3062(9) 0.7555(3) 0.66545(17)
C17 C 0.4992(9) 0.7165(3) 0.69449(17)
C18 C 0.5312(8) 0.6314(3) 0.69817(16)
O6 O 0.0314(6) 0.57638(18) 0.61448(10)
C19 C 0.0086(8) 0.6011(3) 0.56234(16)
C20 C -0.2019(8) 0.6484(3) 0.54527(17)
C21 C -0.2242(10) 0.6702(3) 0.49382(18)
C22 C -0.0384(9) 0.6447(3) 0.46043(17)
C23 C 0.1717(10) 0.5968(3) 0.47842(18)
C24 C 0.1940(9) 0.5752(3) 0.52960(17)
H12 H 0.0480 0.4591 0.6622
H13 H 0.0928 0.4540 0.7147
H14 H 0.0137 0.7369 0.6190
H15 H 0.2822 0.8141 0.6639
H16 H 0.6102 0.7485 0.7120
H17 H 0.6600 0.6044 0.7191
H18 H -0.3292 0.6657 0.5684
H19 H -0.3679 0.7029 0.4814
H20 H -0.0544 0.6599 0.4252
H21 H 0.2994 0.5790 0.4555
H22 H 0.3373 0.5425 0.5421
S3 S 0.4039(2) 0.01826(7) 0.82718(4)
O7 O 0.5445(6) 0.00351(19) 0.78144(11)
O8 O 0.5152(6) -0.01135(19) 0.87439(11)
N3 N 0.1336(7) -0.0237(2) 0.82357(13)
C25 C 0.3535(8) 0.1270(3) 0.82664(15)
C26 C 0.1739(8) 0.1599(3) 0.85987(15)
C27 C 0.1398(9) 0.2450(3) 0.85989(17)
C28 C 0.2879(9) 0.2962(3) 0.82792(18)
C29 C 0.4672(9) 0.2639(3) 0.79521(18)
C30 C 0.4982(9) 0.1789(3) 0.79464(16)
O9 O 0.0296(6) 0.10505(19) 0.88953(10)
C31 C 0.0092(8) 0.1174(3) 0.94146(16)
C32 C -0.1974(8) 0.1603(3) 0.95901(18)
C33 C -0.2170(9) 0.1705(3) 1.01029(18)
C34 C -0.0324(10) 0.1366(3) 1.04281(17)
C35 C 0.1738(9) 0.0930(3) 1.02408(18)
C36 C 0.1970(9) 0.0835(3) 0.97331(18)
H23 H 0.0815 -0.0149 0.7922
H24 H 0.0414 -0.0217 0.8515
H25 H 0.0159 0.2680 0.8817
H26 H 0.2663 0.3546 0.8284
H27 H 0.5674 0.2998 0.7735
H28 H 0.6193 0.1561 0.7722
H29 H -0.3261 0.1829 0.9365
H30 H -0.3586 0.2011 1.0230
H31 H -0.0469 0.1431 1.0780
H32 H 0.3013 0.0694 1.0465
H33 H 0.3402 0.0539 0.9604
S4 S -0.0949(2) -0.02297(7) 0.67248(4)
O10 O 0.0567(5) -0.04790(18) 0.71626(10)
O11 O -0.0043(6) -0.04732(19) 0.62480(10)
N4 N -0.3707(6) -0.0615(2) 0.68270(13)
C37 C -0.1313(8) 0.0865(3) 0.66906(15)
C38 C -0.3151(8) 0.1286(3) 0.63740(16)
C39 C -0.3519(8) 0.2129(3) 0.63762(17)
C40 C -0.1973(9) 0.2560(3) 0.66681(17)
C41 C -0.0105(8) 0.2159(3) 0.69662(17)
C42 C 0.0219(8) 0.1308(3) 0.69822(16)
O12 O -0.4625(6) 0.08193(19) 0.60998(11)
C43 C -0.4872(8) 0.1048(3) 0.55804(15)
C44 C -0.3120(9) 0.1500(3) 0.53022(17)
C45 C -0.3449(9) 0.1664(3) 0.47859(18)
C46 C -0.5506(9) 0.1358(3) 0.45535(17)
C47 C -0.7246(9) 0.0889(3) 0.48389(16)
C48 C -0.6950(8) 0.0738(3) 0.53546(16)
H34 H -0.4542 -0.0373 0.6566
H35 H -0.4246 -0.0460 0.7121
H36 H -0.4824 0.2414 0.6179
H37 H -0.2207 0.3145 0.6663
H38 H 0.0956 0.2467 0.7160
H39 H 0.1485 0.1026 0.7192
H40 H -0.1691 0.1700 0.5461
H41 H -0.2260 0.1989 0.4590
H42 H -0.5722 0.1469 0.4199
H43 H -0.8644 0.0672 0.4680
H44 H -0.8154 0.0424 0.5553
loop_
_geom_bond_atom_site_label_1
_geom_bond_atom_site_label_2
_geom_bond_site_symmetry_1
_geom_bond_site_symmetry_2
S1 O1 1_555 1_555
O2 S1 1_555 1_555
N1 S1 1_555 1_555
C1 S1 1_555 1_555
C2 C1 1_555 1_555
C3 C2 1_555 1_555
C4 C3 1_555 1_555
C5 C4 1_555 1_555
C6 C1 1_555 1_555
O3 C2 1_555 1_555
C7 O3 1_555 1_555
C8 C7 1_555 1_555
C9 C8 1_555 1_555
C10 C9 1_555 1_555
C11 C10 1_555 1_555
C12 C7 1_555 1_555
H1 N1 1_555 1_555
H2 N1 1_555 1_555
H3 C3 1_555 1_555
H4 C4 1_555 1_555
H5 C5 1_555 1_555
H6 C6 1_555 1_555
H7 C8 1_555 1_555
H8 C9 1_555 1_555
H9 C10 1_555 1_555
H10 C11 1_555 1_555
H11 C12 1_555 1_555
S2 O4 1_555 1_555
O5 S2 1_555 1_555
N2 S2 1_555 1_555
C13 S2 1_555 1_555
C14 C13 1_555 1_555
C15 C14 1_555 1_555
C16 C15 1_555 1_555
C17 C16 1_555 1_555
C18 C13 1_555 1_555
O6 C14 1_555 1_555
C19 O6 1_555 1_555
C20 C19 1_555 1_555
C21 C20 1_555 1_555
C22 C21 1_555 1_555
C23 C22 1_555 1_555
C24 C19 1_555 1_555
H12 N2 1_555 1_555
H13 N2 1_555 1_555
H14 C15 1_555 1_555
H15 C16 1_555 1_555
H16 C17 1_555 1_555
H17 C18 1_555 1_555
H18 C20 1_555 1_555
H19 C21 1_555 1_555
H20 C22 1_555 1_555
H21 C23 1_555 1_555
H22 C24 1_555 1_555
S3 O7 1_555 1_555
O8 S3 1_555 1_555
N3 S3 1_555 1_555
C25 S3 1_555 1_555
C26 C25 1_555 1_555
C27 C26 1_555 1_555
C28 C27 1_555 1_555
C29 C28 1_555 1_555
C30 C25 1_555 1_555
O9 C26 1_555 1_555
C31 O9 1_555 1_555
C32 C31 1_555 1_555
C33 C32 1_555 1_555
C34 C33 1_555 1_555
C35 C34 1_555 1_555
C36 C31 1_555 1_555
H23 N3 1_555 1_555
H24 N3 1_555 1_555
H25 C27 1_555 1_555
H26 C28 1_555 1_555
H27 C29 1_555 1_555
H28 C30 1_555 1_555
H29 C32 1_555 1_555
H30 C33 1_555 1_555
H31 C34 1_555 1_555
H32 C35 1_555 1_555
H33 C36 1_555 1_555
S4 O10 1_555 1_555
O11 S4 1_555 1_555
N4 S4 1_555 1_555
C37 S4 1_555 1_555
C38 C37 1_555 1_555
C39 C38 1_555 1_555
C40 C39 1_555 1_555
C41 C40 1_555 1_555
C42 C37 1_555 1_555
O12 C38 1_555 1_555
C43 O12 1_555 1_555
C44 C43 1_555 1_555
C45 C44 1_555 1_555
C46 C45 1_555 1_555
C47 C46 1_555 1_555
C48 C43 1_555 1_555
H34 N4 1_555 1_555
H35 N4 1_555 1_555
H36 C39 1_555 1_555
H37 C40 1_555 1_555
H38 C41 1_555 1_555
H39 C42 1_555 1_555
H40 C44 1_555 1_555
H41 C45 1_555 1_555
H42 C46 1_555 1_555
H43 C47 1_555 1_555
H44 C48 1_555 1_555
C5 C6 1_555 1_555
C11 C12 1_555 1_555
C17 C18 1_555 1_555
C23 C24 1_555 1_555
C29 C30 1_555 1_555
C35 C36 1_555 1_555
C41 C42 1_555 1_555
C47 C48 1_555 1_555

#END
