
#######################################################################
#
#                 Cambridge Crystallographic Data Centre
#                                CCDC 
#
#######################################################################
#
# If this CIF has been generated from an entry in the Cambridge 
# Structural Database, then it will include bibliographic, chemical, 
# crystal, experimental, refinement or atomic coordinate data resulting 
# from the CCDC's data processing and validation procedures.
#
#######################################################################

data_ETONAC
_chemical_formula_moiety         'C13 H13 N1 O3 S1'
_chemical_name_systematic        N-Methyl-2-phenoxybenzenesulfonamide
_symmetry_cell_setting           monoclinic
_symmetry_space_group_name_H-M   'P 21'
_symmetry_Int_Tables_number      4
_space_group_name_Hall           'P 2yb'
loop_
_symmetry_equiv_pos_site_id
_symmetry_equiv_pos_as_xyz
1 x,y,z
2 -x,1/2+y,-z
_cell_length_a                   5.3804(2)
_cell_length_b                   7.9959(4)
_cell_length_c                   14.4462(7)
_cell_angle_alpha                90
_cell_angle_beta                 95.226(2)
_cell_angle_gamma                90
_cell_volume                     618.909
_exptl_crystal_colour            colorless
_exptl_crystal_description       block
_chemical_melting_point          '354-357 K'
_cell_formula_units_Z            2
_exptl_crystal_recrystallization_method ethanol
loop_
_atom_site_label
_atom_site_type_symbol
_atom_site_fract_x
_atom_site_fract_y
_atom_site_fract_z
S1 S 0.06643(12) 0.66270(9) 0.88106(5)
O1 O 0.4366(4) 0.7311(3) 0.74276(14)
O2 O -0.1415(4) 0.6849(3) 0.93551(15)
O3 O 0.0746(5) 0.5187(3) 0.82236(17)
N1 N 0.3168(4) 0.6586(4) 0.95212(16)
C1 C 0.0851(6) 0.8451(4) 0.8135(2)
C2 C 0.2691(5) 0.8611(4) 0.7510(2)
C3 C 0.2937(6) 1.0089(4) 0.7025(2)
C4 C 0.1366(6) 1.1431(4) 0.7163(2)
C5 C -0.0479(6) 1.1285(4) 0.7776(2)
C6 C -0.0715(6) 0.9809(4) 0.8265(2)
C7 C 0.3562(6) 0.7982(5) 1.0182(2)
C8 C 0.3989(5) 0.6245(3) 0.6670(2)
C9 C 0.1886(6) 0.6314(4) 0.6029(2)
C10 C 0.1702(6) 0.5181(4) 0.5290(2)
C11 C 0.3555(6) 0.4008(4) 0.5197(2)
C12 C 0.5635(6) 0.3962(4) 0.5845(2)
C13 C 0.5858(6) 0.5074(4) 0.6584(2)
H1 H 0.4508 0.6401 0.9229
H2 H 0.3841 0.9015 0.9841
H3 H 0.5022 0.7749 1.0619
H4 H 0.2085 0.8112 1.0525
H5 H 0.4174 1.0185 0.6599
H6 H 0.1551 1.2450 0.6839
H7 H -0.1572 1.2195 0.7858
H8 H -0.1951 0.9721 0.8692
H9 H 0.0608 0.7114 0.6095
H10 H 0.0288 0.5216 0.4845
H11 H 0.3409 0.3239 0.4694
H12 H 0.6912 0.3162 0.5780
H13 H 0.7275 0.5036 0.7027
loop_
_geom_bond_atom_site_label_1
_geom_bond_atom_site_label_2
_geom_bond_site_symmetry_1
_geom_bond_site_symmetry_2
S1 O2 1_555 1_555
O1 C2 1_555 1_555
O3 S1 1_555 1_555
N1 S1 1_555 1_555
C1 S1 1_555 1_555
C2 C1 1_555 1_555
C3 C2 1_555 1_555
C4 C3 1_555 1_555
C5 C4 1_555 1_555
C6 C1 1_555 1_555
C7 N1 1_555 1_555
C8 O1 1_555 1_555
C9 C8 1_555 1_555
C10 C9 1_555 1_555
C11 C10 1_555 1_555
C12 C11 1_555 1_555
C13 C8 1_555 1_555
H1 N1 1_555 1_555
H2 C7 1_555 1_555
H3 C7 1_555 1_555
H4 C7 1_555 1_555
H5 C3 1_555 1_555
H6 C4 1_555 1_555
H7 C5 1_555 1_555
H8 C6 1_555 1_555
H9 C9 1_555 1_555
H10 C10 1_555 1_555
H11 C11 1_555 1_555
H12 C12 1_555 1_555
H13 C13 1_555 1_555
C5 C6 1_555 1_555
C12 C13 1_555 1_555

#END
