
#######################################################################
#
#                 Cambridge Crystallographic Data Centre
#                                CCDC 
#
#######################################################################
#
# If this CIF has been generated from an entry in the Cambridge 
# Structural Database, then it will include bibliographic, chemical, 
# crystal, experimental, refinement or atomic coordinate data resulting 
# from the CCDC's data processing and validation procedures.
#
#######################################################################

data_ETONUY
_chemical_formula_moiety         'C21 H20 N2 O4'
_chemical_name_systematic        
'ethyl 5-methyl-1-(4-nitrophenyl)-4-phenyl-1,4-dihydropyridine-3-carboxylate'
_symmetry_cell_setting           monoclinic
_symmetry_space_group_name_H-M   'P 21/n'
_symmetry_Int_Tables_number      14
_space_group_name_Hall           '-P 2yn'
loop_
_symmetry_equiv_pos_site_id
_symmetry_equiv_pos_as_xyz
1 x,y,z
2 1/2-x,1/2+y,1/2-z
3 -x,-y,-z
4 1/2+x,1/2-y,1/2+z
_cell_length_a                   15.003(3)
_cell_length_b                   7.6111(18)
_cell_length_c                   17.624(5)
_cell_angle_alpha                90
_cell_angle_beta                 109.763(15)
_cell_angle_gamma                90
_cell_volume                     1893.94
_exptl_crystal_colour            colorless
_exptl_crystal_description       block
_cell_formula_units_Z            4
loop_
_atom_site_label
_atom_site_type_symbol
_atom_site_fract_x
_atom_site_fract_y
_atom_site_fract_z
O1 O 0.3941(2) 0.8271(5) 0.47869(19)
O2 O 0.3645(2) 0.7924(4) 0.59437(18)
O3 O 1.0056(3) 0.7173(7) 0.4529(3)
O4 O 0.8954(3) 0.6246(8) 0.3524(2)
N1 N 0.9257(4) 0.6648(7) 0.4210(3)
N2 N 0.6789(3) 0.7154(6) 0.6031(2)
C1 C 0.5201(3) 0.7397(6) 0.6002(3)
C2 C 0.5844(3) 0.7447(6) 0.5622(3)
H1 H 0.5644 0.7685 0.5072
C3 C 0.7108(3) 0.7183(7) 0.6881(2)
H2 H 0.7756 0.7230 0.7161
C4 C 0.6509(3) 0.7146(7) 0.7303(3)
C5 C 0.5459(3) 0.6949(6) 0.6879(3)
H3 H 0.5135 0.7779 0.7122
C6 C 0.5127(3) 0.5101(7) 0.6983(2)
C7 C 0.4523(3) 0.4771(7) 0.7435(3)
H4 H 0.4315 0.5695 0.7678
C8 C 0.4245(4) 0.3078(8) 0.7513(3)
H5 H 0.3809 0.2884 0.7774
C9 C 0.4589(4) 0.1682(7) 0.7219(3)
H6 H 0.4436 0.0545 0.7325
C10 C 0.5172(4) 0.1956(7) 0.6760(3)
H7 H 0.5367 0.1019 0.6516
C11 C 0.5447(3) 0.3617(7) 0.6677(3)
H8 H 0.5872 0.3785 0.6403
C12 C 0.7423(3) 0.7038(7) 0.5581(3)
C13 C 0.7102(3) 0.6438(7) 0.4804(3)
H9 H 0.653(2) 0.621(5) 0.458(2)
C14 C 0.7703(4) 0.6352(8) 0.4362(3)
H10 H 0.750(2) 0.609(4) 0.3830(19)
C15 C 0.8635(3) 0.6826(8) 0.4710(3)
C16 C 0.8986(4) 0.7314(8) 0.5509(3)
H11 H 0.9627 0.7559 0.5755
C17 C 0.8370(3) 0.7433(8) 0.5942(3)
H12 H 0.8597 0.7782 0.6479
C18 C 0.4216(4) 0.7961(7) 0.5497(3)
C19 C 0.2673(4) 0.8492(8) 0.5515(3)
H13 H 0.2352 0.7649 0.5100
H14 H 0.2671 0.9626 0.5263
C20 C 0.2189(4) 0.8616(9) 0.6127(3)
H15 H 0.1543 0.8975 0.5868
H16 H 0.2509 0.9463 0.6531
H17 H 0.2202 0.7489 0.6376
C21 C 0.6892(4) 0.7304(8) 0.8217(3)
H18 H 0.7569 0.7407 0.8396
H19 H 0.6720 0.6278 0.8453
H20 H 0.6628 0.8328 0.8379
loop_
_geom_bond_atom_site_label_1
_geom_bond_atom_site_label_2
_geom_bond_site_symmetry_1
_geom_bond_site_symmetry_2
O1 C18 1_555 1_555
O2 C18 1_555 1_555
O3 N1 1_555 1_555
O4 N1 1_555 1_555
N1 C15 1_555 1_555
N2 C2 1_555 1_555
C1 C2 1_555 1_555
C2 H1 1_555 1_555
C3 N2 1_555 1_555
H2 C3 1_555 1_555
C4 C3 1_555 1_555
C5 C1 1_555 1_555
H3 C5 1_555 1_555
C6 C5 1_555 1_555
C7 C6 1_555 1_555
H4 C7 1_555 1_555
C8 C7 1_555 1_555
H5 C8 1_555 1_555
C9 C8 1_555 1_555
H6 C9 1_555 1_555
C10 C9 1_555 1_555
H7 C10 1_555 1_555
C11 C6 1_555 1_555
H8 C11 1_555 1_555
C12 N2 1_555 1_555
C13 C12 1_555 1_555
H9 C13 1_555 1_555
C14 C13 1_555 1_555
H10 C14 1_555 1_555
C15 C14 1_555 1_555
C16 C15 1_555 1_555
H11 C16 1_555 1_555
C17 C12 1_555 1_555
H12 C17 1_555 1_555
C18 C1 1_555 1_555
C19 O2 1_555 1_555
H13 C19 1_555 1_555
H14 C19 1_555 1_555
C20 C19 1_555 1_555
H15 C20 1_555 1_555
H16 C20 1_555 1_555
H17 C20 1_555 1_555
C21 C4 1_555 1_555
H18 C21 1_555 1_555
H19 C21 1_555 1_555
H20 C21 1_555 1_555
C4 C5 1_555 1_555
C10 C11 1_555 1_555
C16 C17 1_555 1_555

#END
