
#######################################################################
#
#                 Cambridge Crystallographic Data Centre
#                                CCDC 
#
#######################################################################
#
# If this CIF has been generated from an entry in the Cambridge 
# Structural Database, then it will include bibliographic, chemical, 
# crystal, experimental, refinement or atomic coordinate data resulting 
# from the CCDC's data processing and validation procedures.
#
#######################################################################

data_ETOVEO
_chemical_name_common            4-Mesiytylterpyridine
_chemical_formula_moiety         'C24 H21 N3'
_chemical_name_systematic        
4'-(2,4,6-Trimethylphenyl)-2,2':6',2''-terpyridine
_symmetry_cell_setting           orthorhombic
_symmetry_space_group_name_H-M   'P b c n'
_symmetry_Int_Tables_number      60
_space_group_name_Hall           '-P 2n 2ab'
loop_
_symmetry_equiv_pos_site_id
_symmetry_equiv_pos_as_xyz
1 x,y,z
2 1/2+x,1/2+y,1/2-z
3 x,-y,1/2+z
4 1/2-x,1/2+y,z
5 -x,-y,-z
6 1/2-x,1/2-y,1/2+z
7 -x,y,1/2-z
8 1/2+x,1/2-y,-z
_cell_length_a                   8.217(1)
_cell_length_b                   13.359(1)
_cell_length_c                   17.167(1)
_cell_angle_alpha                90
_cell_angle_beta                 90
_cell_angle_gamma                90
_cell_volume                     1884.44
_exptl_crystal_colour            colorless
_exptl_crystal_description       block
_cell_formula_units_Z            4
_exptl_crystal_recrystallization_method ethanol
loop_
_atom_site_label
_atom_site_type_symbol
_atom_site_fract_x
_atom_site_fract_y
_atom_site_fract_z
N1 N 0.5000 0.24967(11) 0.2500
C1 C 0.57434(15) 0.30228(10) 0.19313(7)
C2 C 0.57526(16) 0.40666(10) 0.19087(8)
H1 H 0.6272(18) 0.4391(11) 0.1494(9)
C3 C 0.5000 0.46090(13) 0.2500
C4 C 0.5000 0.57333(13) 0.2500
C5 C 0.41360(16) 0.62601(10) 0.19236(8)
C6 C 0.41458(17) 0.73046(11) 0.19379(9)
H2 H 0.355(2) 0.7673(13) 0.1545(10)
C7 C 0.5000 0.78389(14) 0.2500
C8 C 0.3180(2) 0.57321(12) 0.12933(9)
H3 H 0.382(3) 0.5661(14) 0.0811(13)
H4 H 0.279(2) 0.5043(17) 0.1463(12)
H5 H 0.222(3) 0.6134(17) 0.1151(13)
C9 C 0.5000 0.89707(16) 0.2500
H6 H 0.595(4) 0.923(2) 0.273(2)
N2 N 0.74852(15) 0.29746(9) 0.08030(6)
C10 C 0.65763(16) 0.24371(10) 0.13060(7)
C11 C 0.63949(18) 0.14002(10) 0.12448(8)
H9 H 0.573(2) 0.1062(12) 0.1618(10)
C12 C 0.7151(2) 0.09046(11) 0.06300(9)
H10 H 0.697(2) 0.0182(14) 0.0572(10)
C13 C 0.8103(2) 0.14466(12) 0.01205(9)
H11 H 0.869(2) 0.1138(13) -0.0314(11)
C14 C 0.8250(2) 0.24703(12) 0.02335(9)
H12 H 0.894(2) 0.2895(13) -0.0111(11)
C2F C 0.42474(16) 0.40666(10) 0.30913(8)
C1F C 0.42566(15) 0.30228(10) 0.30687(7)
C10F C 0.34237(16) 0.24371(10) 0.36940(7)
N2F N 0.25148(15) 0.29746(9) 0.41970(6)
C14F C 0.1750(2) 0.24703(12) 0.47665(9)
C13F C 0.1897(2) 0.14466(12) 0.48795(9)
C12F C 0.2849(2) 0.09046(11) 0.43700(9)
C11F C 0.36051(18) 0.14002(10) 0.37552(8)
H9F H 0.427(2) 0.1062(12) 0.3382(10)
H10F H 0.303(2) 0.0182(14) 0.4428(10)
H11F H 0.131(2) 0.1138(13) 0.5314(11)
H12F H 0.106(2) 0.2895(13) 0.5111(11)
H1F H 0.3728(18) 0.4391(11) 0.3506(9)
C6F C 0.58542(17) 0.73046(11) 0.30621(9)
C5F C 0.58640(16) 0.62601(10) 0.30764(8)
C8F C 0.6820(2) 0.57321(12) 0.37067(9)
H3F H 0.618(3) 0.5661(14) 0.4189(13)
H4F H 0.721(2) 0.5043(17) 0.3537(12)
H5F H 0.778(3) 0.6134(17) 0.3849(13)
H2F H 0.645(2) 0.7673(13) 0.3455(10)
H6F H 0.405(4) 0.923(2) 0.227(2)
H7? H 0.604(5) 0.928(3) 0.226(3)
H8? H 0.493(6) 0.921(3) 0.311(2)
loop_
_geom_bond_atom_site_label_1
_geom_bond_atom_site_label_2
_geom_bond_site_symmetry_1
_geom_bond_site_symmetry_2
N1 C1 1_555 1_555
C1 C2 1_555 1_555
C2 H1 1_555 1_555
C3 C2 1_555 1_555
C4 C3 1_555 1_555
C5 C4 1_555 1_555
C6 C5 1_555 1_555
H2 C6 1_555 1_555
C7 C6 1_555 1_555
C8 C5 1_555 1_555
H3 C8 1_555 1_555
H4 C8 1_555 1_555
H5 C8 1_555 1_555
C9 C7 1_555 1_555
H6 C9 1_555 1_555
N2 C10 1_555 1_555
C10 C1 1_555 1_555
C11 C10 1_555 1_555
H9 C11 1_555 1_555
C12 C11 1_555 1_555
H10 C12 1_555 1_555
C13 C12 1_555 1_555
H11 C13 1_555 1_555
C14 N2 1_555 1_555
H12 C14 1_555 1_555
C2F C3 1_555 1_555
C1F N1 1_555 1_555
C10F C1F 1_555 1_555
N2F C10F 1_555 1_555
C14F N2F 1_555 1_555
C13F C14F 1_555 1_555
C12F C13F 1_555 1_555
C11F C10F 1_555 1_555
H9F C11F 1_555 1_555
H10F C12F 1_555 1_555
H11F C13F 1_555 1_555
H12F C14F 1_555 1_555
H1F C2F 1_555 1_555
C6F C7 1_555 1_555
C5F C4 1_555 1_555
C8F C5F 1_555 1_555
H3F C8F 1_555 1_555
H4F C8F 1_555 1_555
H5F C8F 1_555 1_555
H2F C6F 1_555 1_555
H6F C9 1_555 1_555
C13 C14 1_555 1_555
C2F C1F 1_555 1_555
C12F C11F 1_555 1_555
C6F C5F 1_555 1_555

#END
