
#######################################################################
#
#                 Cambridge Crystallographic Data Centre
#                                CCDC 
#
#######################################################################
#
# If this CIF has been generated from an entry in the Cambridge 
# Structural Database, then it will include bibliographic, chemical, 
# crystal, experimental, refinement or atomic coordinate data resulting 
# from the CCDC's data processing and validation procedures.
#
#######################################################################

data_ETOYOB
_chemical_formula_moiety         'C6 H13 F1 N1 O1 1+,Cl1 1-'
_chemical_name_systematic        '4-(2-Fluoroethyl)morpholin-4-ium chloride'
_symmetry_cell_setting           monoclinic
_symmetry_space_group_name_H-M   'P 21/n'
_symmetry_Int_Tables_number      14
_space_group_name_Hall           '-P 2yn'
loop_
_symmetry_equiv_pos_site_id
_symmetry_equiv_pos_as_xyz
1 x,y,z
2 1/2+x,1/2-y,1/2+z
3 -x,-y,-z
4 1/2-x,1/2+y,1/2-z
_cell_length_a                   7.340(2)
_cell_length_b                   9.302(3)
_cell_length_c                   12.025(4)
_cell_angle_alpha                90
_cell_angle_beta                 92.072(5)
_cell_angle_gamma                90
_cell_volume                     820.49
_exptl_crystal_colour            colorless
_exptl_crystal_description       plate
_chemical_melting_point          '146-148 deg.C'
_cell_formula_units_Z            4
_exptl_crystal_recrystallization_method 'methanol/diethyl ether'
loop_
_atom_site_label
_atom_site_type_symbol
_atom_site_fract_x
_atom_site_fract_y
_atom_site_fract_z
Cl1 Cl 0.61037(6) 0.21539(5) 1.09384(4)
N1 N 0.3959(2) 0.23870(17) 0.87396(15)
H1 H 0.469(3) 0.224(2) 0.9427(11)
C1 C 0.2298(3) 0.14418(19) 0.87288(15)
H2 H 0.2674 0.0422 0.8790
H3 H 0.1595 0.1566 0.8017
C2 C 0.1125(3) 0.1827(2) 0.96847(17)
H4 H 0.0025 0.1211 0.9662
H5 H 0.1808 0.1637 1.0394
O1 O 0.05860(18) 0.32937(15) 0.96494(12)
C3 C 0.2156(2) 0.4200(2) 0.96904(16)
H6 H 0.2858 0.4029 1.0396
H7 H 0.1762 0.5218 0.9679
C4 C 0.3364(2) 0.39279(19) 0.87267(15)
H8 H 0.2691 0.4143 0.8018
H9 H 0.4445 0.4564 0.8784
C5 C 0.5180(3) 0.2004(2) 0.78165(17)
H10 H 0.4538 0.2209 0.7096
H11 H 0.5436 0.0959 0.7847
C6 C 0.6953(3) 0.2807(2) 0.78664(19)
H12 H 0.7430 0.2849 0.8646
H13 H 0.7856 0.2291 0.7422
F1 F 0.67185(16) 0.42144(14) 0.74507(10)
loop_
_geom_bond_atom_site_label_1
_geom_bond_atom_site_label_2
_geom_bond_site_symmetry_1
_geom_bond_site_symmetry_2
N1 H1 1_555 1_555
C1 N1 1_555 1_555
H2 C1 1_555 1_555
H3 C1 1_555 1_555
C2 C1 1_555 1_555
H4 C2 1_555 1_555
H5 C2 1_555 1_555
O1 C2 1_555 1_555
C3 O1 1_555 1_555
H6 C3 1_555 1_555
H7 C3 1_555 1_555
C4 N1 1_555 1_555
H8 C4 1_555 1_555
H9 C4 1_555 1_555
C5 N1 1_555 1_555
H10 C5 1_555 1_555
H11 C5 1_555 1_555
C6 C5 1_555 1_555
H12 C6 1_555 1_555
H13 C6 1_555 1_555
F1 C6 1_555 1_555
C3 C4 1_555 1_555

#END
