
#######################################################################
#
#                 Cambridge Crystallographic Data Centre
#                                CCDC 
#
#######################################################################
#
# If this CIF has been generated from an entry in the Cambridge 
# Structural Database, then it will include bibliographic, chemical, 
# crystal, experimental, refinement or atomic coordinate data resulting 
# from the CCDC's data processing and validation procedures.
#
#######################################################################

data_ETOYUH
_chemical_formula_moiety         'C4 H10 F2 N1 1+,Cl1 1-'
_chemical_name_systematic        'bis(2-Fluoroethyl)ammonium chloride'
_symmetry_cell_setting           monoclinic
_symmetry_space_group_name_H-M   'P 21/n'
_symmetry_Int_Tables_number      14
_space_group_name_Hall           '-P 2yn'
loop_
_symmetry_equiv_pos_site_id
_symmetry_equiv_pos_as_xyz
1 x,y,z
2 1/2+x,1/2-y,1/2+z
3 -x,-y,-z
4 1/2-x,1/2+y,1/2-z
_cell_length_a                   7.335(2)
_cell_length_b                   6.9524(19)
_cell_length_c                   13.170(4)
_cell_angle_alpha                90
_cell_angle_beta                 93.567(5)
_cell_angle_gamma                90
_cell_volume                     670.314
_exptl_crystal_colour            colorless
_exptl_crystal_description       plate
_chemical_melting_point          '190-192 deg.C'
_cell_formula_units_Z            4
_exptl_crystal_recrystallization_method 'methanol/diethyl ether'
loop_
_atom_site_label
_atom_site_type_symbol
_atom_site_fract_x
_atom_site_fract_y
_atom_site_fract_z
Cl1 Cl 0.35427(19) 0.7003(2) 0.64323(11)
F1 F 0.6120(5) 0.1099(6) 0.8201(3)
C1 C 0.6499(8) 0.2499(7) 0.7484(5)
H1 H 0.7805 0.2548 0.7409
H2 H 0.6115 0.3748 0.7720
C2 C 0.5548(7) 0.2073(9) 0.6494(4)
H3 H 0.5697 0.0720 0.6340
H4 H 0.6103 0.2811 0.5970
N1 N 0.3554(6) 0.2534(5) 0.6474(3)
H5 H 0.367(7) 0.3938(8) 0.648(4)
H6 H 0.289(7) 0.190(7) 0.701(3)
C3 C 0.2564(7) 0.2058(10) 0.5496(4)
H7 H 0.3097 0.2775 0.4956
H8 H 0.2717 0.0700 0.5357
C4 C 0.0591(8) 0.2500(7) 0.5485(4)
H9 H 0.0423 0.3776 0.5762
H10 H 0.0073 0.2491 0.4789
F2 F -0.0314(4) 0.1161(5) 0.6054(3)
loop_
_geom_bond_atom_site_label_1
_geom_bond_atom_site_label_2
_geom_bond_site_symmetry_1
_geom_bond_site_symmetry_2
F1 C1 1_555 1_555
C1 H1 1_555 1_555
H2 C1 1_555 1_555
C2 C1 1_555 1_555
H3 C2 1_555 1_555
H4 C2 1_555 1_555
N1 C2 1_555 1_555
H5 N1 1_555 1_555
H6 N1 1_555 1_555
C3 N1 1_555 1_555
H7 C3 1_555 1_555
H8 C3 1_555 1_555
C4 C3 1_555 1_555
H9 C4 1_555 1_555
H10 C4 1_555 1_555
F2 C4 1_555 1_555

#END
