
#######################################################################
#
#                 Cambridge Crystallographic Data Centre
#                                CCDC 
#
#######################################################################
#
# If this CIF has been generated from an entry in the Cambridge 
# Structural Database, then it will include bibliographic, chemical, 
# crystal, experimental, refinement or atomic coordinate data resulting 
# from the CCDC's data processing and validation procedures.
#
#######################################################################

data_ETOYER
_chemical_formula_moiety         'C2 H7 F1 N1 1+,Cl1 1-'
_chemical_name_systematic        '2-Fluoroethylammonium chloride'
_symmetry_cell_setting           orthorhombic
_symmetry_space_group_name_H-M   'P b c a'
_symmetry_Int_Tables_number      61
_space_group_name_Hall           '-P 2ac 2ab'
loop_
_symmetry_equiv_pos_site_id
_symmetry_equiv_pos_as_xyz
1 x,y,z
2 1/2+x,y,1/2-z
3 x,1/2-y,1/2+z
4 1/2-x,1/2+y,z
5 -x,-y,-z
6 1/2-x,-y,1/2+z
7 -x,1/2+y,1/2-z
8 1/2+x,1/2-y,-z
_cell_length_a                   7.621(1)
_cell_length_b                   8.543(1)
_cell_length_c                   14.830(2)
_cell_angle_alpha                90
_cell_angle_beta                 90
_cell_angle_gamma                90
_cell_volume                     965.525
_exptl_crystal_colour            colorless
_exptl_crystal_description       'thin plate'
_cell_formula_units_Z            8
loop_
_atom_site_label
_atom_site_type_symbol
_atom_site_fract_x
_atom_site_fract_y
_atom_site_fract_z
Cl1 Cl 0.07528(3) 0.65744(3) 0.369297(17)
C1 C -0.42904(15) 0.74205(13) 0.36545(8)
N1 N -0.56280(13) 0.80272(11) 0.42930(7)
C2 C -0.40760(17) 0.56748(14) 0.37213(8)
F1 F -0.33267(10) 0.52893(8) 0.45577(5)
H1 H -0.515(2) 0.5099(16) 0.3668(8)
H2 H -0.3288(19) 0.5298(16) 0.3266(10)
H3 H -0.4701(19) 0.7662(17) 0.3022(10)
H4 H -0.316(2) 0.7955(17) 0.3809(9)
H5 H -0.529(2) 0.7922(18) 0.4898(11)
H6 H -0.667(2) 0.7562(18) 0.4206(10)
H7 H -0.578(2) 0.905(2) 0.4212(11)
loop_
_geom_bond_atom_site_label_1
_geom_bond_atom_site_label_2
_geom_bond_site_symmetry_1
_geom_bond_site_symmetry_2
C1 N1 1_555 1_555
N1 H5 1_555 1_555
C2 C1 1_555 1_555
F1 C2 1_555 1_555
H1 C2 1_555 1_555
H2 C2 1_555 1_555
H3 C1 1_555 1_555
H4 C1 1_555 1_555
H6 N1 1_555 1_555
H7 N1 1_555 1_555

#END
