
#######################################################################
#
#                 Cambridge Crystallographic Data Centre
#                                CCDC 
#
#######################################################################
#
# If this CIF has been generated from an entry in the Cambridge 
# Structural Database, then it will include bibliographic, chemical, 
# crystal, experimental, refinement or atomic coordinate data resulting 
# from the CCDC's data processing and validation procedures.
#
#######################################################################

data_ETOZUK03
_chemical_formula_moiety         'C21 H15 N3 O1'
_chemical_name_systematic        4-(2,2':6',2''-terpyridin-4'-yl)phenol
_symmetry_cell_setting           orthorhombic
_symmetry_space_group_name_H-M   'P 21 21 21'
_symmetry_Int_Tables_number      19
_space_group_name_Hall           'P 2ac 2ab'
loop_
_symmetry_equiv_pos_site_id
_symmetry_equiv_pos_as_xyz
1 x,y,z
2 1/2-x,-y,1/2+z
3 -x,1/2+y,1/2-z
4 1/2+x,1/2-y,-z
_cell_length_a                   4.7190(9)
_cell_length_b                   16.176(3)
_cell_length_c                   20.975(4)
_cell_angle_alpha                90
_cell_angle_beta                 90
_cell_angle_gamma                90
_cell_volume                     1601.12
_exptl_crystal_colour            colorless
_exptl_crystal_description       Prism
_cell_formula_units_Z            4
loop_
_atom_site_label
_atom_site_type_symbol
_atom_site_fract_x
_atom_site_fract_y
_atom_site_fract_z
O1 O 0.2751(3) 0.52466(8) 0.51937(6)
H1 H 0.3756 0.5300 0.5510
N1 N 1.0648(4) 0.97407(10) 0.36502(7)
N2 N 0.6484(3) 0.88614(9) 0.23808(7)
N3 N 0.1611(4) 0.75951(11) 0.14947(8)
C1 C 1.2581(5) 1.03434(13) 0.37283(10)
H2 H 1.3252 1.0442 0.4138
C2 C 1.3626(5) 1.08221(12) 0.32412(10)
H3 H 1.4973 1.1230 0.3317
C3 C 1.2612(5) 1.06768(13) 0.26377(10)
H4 H 1.3229 1.0997 0.2297
C4 C 1.0663(4) 1.00504(12) 0.25414(9)
H5 H 0.9987 0.9939 0.2134
C5 C 0.9728(4) 0.95902(10) 0.30584(8)
C6 C 0.7679(4) 0.88970(10) 0.29629(8)
C7 C 0.7107(4) 0.83268(11) 0.34385(9)
H6 H 0.7994 0.8375 0.3833
C8 C 0.5208(4) 0.76815(10) 0.33297(8)
C9 C 0.3940(4) 0.76543(11) 0.27289(8)
H7 H 0.2631 0.7242 0.2634
C10 C 0.4635(4) 0.82457(11) 0.22701(8)
C11 C 0.3290(4) 0.82373(11) 0.16287(9)
C12 C 0.3758(5) 0.88731(13) 0.11987(10)
H8 H 0.4962 0.9309 0.1301
C13 C 0.2402(6) 0.88481(14) 0.06132(10)
H9 H 0.2678 0.9270 0.0318
C14 C 0.0661(5) 0.82019(15) 0.04723(10)
H10 H -0.0284 0.8174 0.0084
C15 C 0.0346(6) 0.75891(16) 0.09264(11)
H11 H -0.0824 0.7144 0.0829
C16 C 0.4583(4) 0.70464(10) 0.38242(8)
C17 C 0.2553(5) 0.64442(13) 0.37341(9)
H12 H 0.1535 0.6439 0.3354
C18 C 0.1977(5) 0.58463(13) 0.41884(10)
H13 H 0.0594 0.5450 0.4109
C19 C 0.3438(4) 0.58346(11) 0.47574(8)
C20 C 0.5502(5) 0.64192(14) 0.48553(9)
H14 H 0.6538 0.6416 0.5233
C21 C 0.6053(5) 0.70132(14) 0.43971(10)
H15 H 0.7456 0.7404 0.4476
loop_
_geom_bond_atom_site_label_1
_geom_bond_atom_site_label_2
_geom_bond_site_symmetry_1
_geom_bond_site_symmetry_2
O1 H1 1_555 1_555
N1 C1 1_555 1_555
N2 C6 1_555 1_555
N3 C11 1_555 1_555
C1 H2 1_555 1_555
C2 C1 1_555 1_555
H3 C2 1_555 1_555
C3 C2 1_555 1_555
H4 C3 1_555 1_555
C4 C3 1_555 1_555
H5 C4 1_555 1_555
C5 N1 1_555 1_555
C6 C5 1_555 1_555
C7 C6 1_555 1_555
H6 C7 1_555 1_555
C8 C7 1_555 1_555
C9 C8 1_555 1_555
H7 C9 1_555 1_555
C10 N2 1_555 1_555
C11 C10 1_555 1_555
C12 C11 1_555 1_555
H8 C12 1_555 1_555
C13 C12 1_555 1_555
H9 C13 1_555 1_555
C14 C13 1_555 1_555
H10 C14 1_555 1_555
C15 N3 1_555 1_555
H11 C15 1_555 1_555
C16 C8 1_555 1_555
C17 C16 1_555 1_555
H12 C17 1_555 1_555
C18 C17 1_555 1_555
H13 C18 1_555 1_555
C19 O1 1_555 1_555
C20 C19 1_555 1_555
H14 C20 1_555 1_555
C21 C16 1_555 1_555
H15 C21 1_555 1_555
C4 C5 1_555 1_555
C9 C10 1_555 1_555
C14 C15 1_555 1_555
C18 C19 1_555 1_555
C20 C21 1_555 1_555

#END
