
#######################################################################
#
#                 Cambridge Crystallographic Data Centre
#                                CCDC 
#
#######################################################################
#
# If this CIF has been generated from an entry in the Cambridge 
# Structural Database, then it will include bibliographic, chemical, 
# crystal, experimental, refinement or atomic coordinate data resulting 
# from the CCDC's data processing and validation procedures.
#
#######################################################################

data_ETUCAZ
_chemical_formula_moiety         'C16 H8 Br1 N1 O1'
_chemical_name_systematic        5-bromo-7H-dibenzo[de,h]quinolin-7-one
_symmetry_cell_setting           orthorhombic
_symmetry_space_group_name_H-M   'P c a 21'
_symmetry_Int_Tables_number      29
_space_group_name_Hall           'P 2c -2ac'
loop_
_symmetry_equiv_pos_site_id
_symmetry_equiv_pos_as_xyz
1 x,y,z
2 -x,-y,1/2+z
3 1/2+x,-y,z
4 1/2-x,y,1/2+z
_cell_length_a                   18.870(4)
_cell_length_b                   3.9148(9)
_cell_length_c                   15.960(4)
_cell_angle_alpha                90
_cell_angle_beta                 90
_cell_angle_gamma                90
_cell_volume                     1179
_cell_formula_units_Z            4
loop_
_atom_site_label
_atom_site_type_symbol
_atom_site_fract_x
_atom_site_fract_y
_atom_site_fract_z
Br1 Br 0.34730(5) 0.7374(2) 0.46003(16)
N1 N 0.6805(3) 0.0489(16) 0.4429(4)
O1 O 0.5004(4) 0.1824(18) 0.7085(4)
C1 C 0.6614(5) 0.162(3) 0.3667(7)
H1 H 0.6931 0.1330 0.3226
C2 C 0.5965(5) 0.322(2) 0.3497(5)
H2 H 0.5854 0.3970 0.2960
C3 C 0.5486(4) 0.365(2) 0.4168(5)
C4 C 0.4803(4) 0.521(2) 0.4058(5)
H3 H 0.4666 0.6041 0.3537
C5 C 0.4360(4) 0.5445(18) 0.4731(5)
C6 C 0.4558(4) 0.425(2) 0.5526(5)
H4 H 0.4244 0.4472 0.5972
C7 C 0.5195(4) 0.2774(16) 0.5653(5)
C8 C 0.5406(5) 0.152(2) 0.6491(5)
C9 C 0.6110(4) -0.0077(19) 0.6582(4)
C10 C 0.6324(5) -0.121(2) 0.7371(5)
H5 H 0.6026 -0.0920 0.7829
C11 C 0.6981(6) -0.278(2) 0.7480(6)
H6 H 0.7111 -0.3601 0.8004
C12 C 0.7445(6) -0.311(2) 0.6804(6)
H7 H 0.7894 -0.4038 0.6878
C13 C 0.7219(5) -0.1991(19) 0.6001(6)
H8 H 0.7511 -0.2343 0.5540
C14 C 0.6577(4) -0.040(2) 0.5894(4)
C15 C 0.6356(4) 0.0842(19) 0.5052(4)
C16 C 0.5670(5) 0.2427(17) 0.4964(5)
loop_
_geom_bond_atom_site_label_1
_geom_bond_atom_site_label_2
_geom_bond_site_symmetry_1
_geom_bond_site_symmetry_2
Br1 C5 1_555 1_555
N1 C1 1_555 1_555
O1 C8 1_555 1_555
C1 H1 1_555 1_555
C2 C1 1_555 1_555
H2 C2 1_555 1_555
C3 C2 1_555 1_555
C4 C3 1_555 1_555
H3 C4 1_555 1_555
C5 C4 1_555 1_555
C6 C5 1_555 1_555
H4 C6 1_555 1_555
C7 C6 1_555 1_555
C8 C7 1_555 1_555
C9 C8 1_555 1_555
C10 C9 1_555 1_555
H5 C10 1_555 1_555
C11 C10 1_555 1_555
H6 C11 1_555 1_555
C12 C11 1_555 1_555
H7 C12 1_555 1_555
C13 C12 1_555 1_555
H8 C13 1_555 1_555
C14 C9 1_555 1_555
C15 N1 1_555 1_555
C16 C3 1_555 1_555
C7 C16 1_555 1_555
C13 C14 1_555 1_555
C14 C15 1_555 1_555
C15 C16 1_555 1_555

#END
