
#######################################################################
#
#                 Cambridge Crystallographic Data Centre
#                                CCDC 
#
#######################################################################
#
# If this CIF has been generated from an entry in the Cambridge 
# Structural Database, then it will include bibliographic, chemical, 
# crystal, experimental, refinement or atomic coordinate data resulting 
# from the CCDC's data processing and validation procedures.
#
#######################################################################

data_ETUCON
_chemical_formula_moiety         'C28 H16 N4 O1'
_chemical_name_systematic        
4,6-bis(pyridin-2-yl)benzo[h]isoindolo[4,5,6-de]quinolin-8(5H)-one
_symmetry_cell_setting           monoclinic
_symmetry_space_group_name_H-M   'P 21/c'
_symmetry_Int_Tables_number      14
_space_group_name_Hall           '-P 2ybc'
loop_
_symmetry_equiv_pos_site_id
_symmetry_equiv_pos_as_xyz
1 x,y,z
2 -x,1/2+y,1/2-z
3 -x,-y,-z
4 x,1/2-y,1/2+z
_cell_length_a                   10.7052(11)
_cell_length_b                   20.6253(19)
_cell_length_c                   9.677(9)
_cell_angle_alpha                90
_cell_angle_beta                 115.7070(10)
_cell_angle_gamma                90
_cell_volume                     1925.18
_exptl_crystal_colour            'red brown'
_exptl_crystal_description       block
_cell_formula_units_Z            4
loop_
_atom_site_label
_atom_site_type_symbol
_atom_site_fract_x
_atom_site_fract_y
_atom_site_fract_z
N1 N 0.7154(6) 0.3751(3) 0.7501(8)
N2 N 0.2766(6) 0.2612(3) 0.0958(7)
H1 H 0.2118 0.2633 0.0038
N3 N 0.1953(6) 0.1460(3) -0.0527(8)
N4 N 0.1610(7) 0.3805(3) 0.0121(8)
O1 O 0.7035(5) 0.1122(2) 0.6894(6)
C1 C 0.7039(8) 0.1715(4) 0.7029(9)
C2 C 0.6097(7) 0.2111(3) 0.5741(9)
C3 C 0.5194(7) 0.1837(3) 0.4443(9)
H2 H 0.5155 0.1387 0.4358
C4 C 0.4292(8) 0.2219(3) 0.3189(9)
C5 C 0.4376(7) 0.2914(3) 0.3241(9)
C6 C 0.5296(7) 0.3223(3) 0.4665(9)
C7 C 0.6158(7) 0.2816(3) 0.5892(8)
C8 C 0.7084(7) 0.3113(3) 0.7282(9)
C9 C 0.7959(8) 0.2709(4) 0.8588(9)
C10 C 0.8877(8) 0.2991(4) 0.9980(10)
H3 H 0.8926 0.3440 1.0083
C11 C 0.9702(8) 0.2605(4) 1.1192(9)
H4 H 1.0311 0.2799 1.2104
C12 C 0.9649(8) 0.1938(4) 1.1087(10)
H5 H 1.0199 0.1685 1.1928
C13 C 0.8787(7) 0.1653(4) 0.9741(9)
H6 H 0.8757 0.1203 0.9657
C14 C 0.7945(8) 0.2034(4) 0.8485(9)
C15 C 0.3267(7) 0.2048(3) 0.1739(9)
C16 C 0.2685(7) 0.1436(3) 0.0978(10)
C17 C 0.2856(8) 0.0855(3) 0.1774(10)
H7 H 0.3368 0.0842 0.2833
C18 C 0.2253(9) 0.0300(3) 0.0967(11)
H8 H 0.2339 -0.0091 0.1481
C19 C 0.1534(9) 0.0327(4) -0.0582(11)
H9 H 0.1164 -0.0046 -0.1152
C20 C 0.1369(9) 0.0913(4) -0.1279(10)
H10 H 0.0823 0.0936 -0.2332
C21 C 0.3425(7) 0.3140(3) 0.1823(9)
C22 C 0.2943(8) 0.3778(3) 0.1068(9)
C23 C 0.3844(8) 0.4305(3) 0.1275(9)
H11 H 0.4791 0.4271 0.1898
C24 C 0.3275(10) 0.4864(4) 0.0528(10)
H12 H 0.3838 0.5223 0.0645
C25 C 0.1895(10) 0.4905(4) -0.0387(10)
H13 H 0.1500 0.5293 -0.0867
C26 C 0.1110(9) 0.4372(4) -0.0585(10)
H14 H 0.0171 0.4397 -0.1246
C27 C 0.5374(8) 0.3893(3) 0.4937(10)
H15 H 0.4810 0.4181 0.4186
C28 C 0.6319(9) 0.4110(4) 0.6363(11)
H16 H 0.6363 0.4555 0.6526
loop_
_geom_bond_atom_site_label_1
_geom_bond_atom_site_label_2
_geom_bond_site_symmetry_1
_geom_bond_site_symmetry_2
N1 C8 1_555 1_555
N2 H1 1_555 1_555
N3 C16 1_555 1_555
N4 C22 1_555 1_555
O1 C1 1_555 1_555
C1 C2 1_555 1_555
C2 C3 1_555 1_555
C3 H2 1_555 1_555
C4 C3 1_555 1_555
C5 C4 1_555 1_555
C6 C5 1_555 1_555
C7 C2 1_555 1_555
C8 C7 1_555 1_555
C9 C8 1_555 1_555
C10 C9 1_555 1_555
H3 C10 1_555 1_555
C11 C10 1_555 1_555
H4 C11 1_555 1_555
C12 C11 1_555 1_555
H5 C12 1_555 1_555
C13 C12 1_555 1_555
H6 C13 1_555 1_555
C14 C1 1_555 1_555
C15 N2 1_555 1_555
C16 C15 1_555 1_555
C17 C16 1_555 1_555
H7 C17 1_555 1_555
C18 C17 1_555 1_555
H8 C18 1_555 1_555
C19 C18 1_555 1_555
H9 C19 1_555 1_555
C20 N3 1_555 1_555
H10 C20 1_555 1_555
C21 N2 1_555 1_555
C22 C21 1_555 1_555
C23 C22 1_555 1_555
H11 C23 1_555 1_555
C24 C23 1_555 1_555
H12 C24 1_555 1_555
C25 C24 1_555 1_555
H13 C25 1_555 1_555
C26 N4 1_555 1_555
H14 C26 1_555 1_555
C27 C6 1_555 1_555
H15 C27 1_555 1_555
C28 N1 1_555 1_555
H16 C28 1_555 1_555
C4 C15 1_555 1_555
C5 C21 1_555 1_555
C6 C7 1_555 1_555
C9 C14 1_555 1_555
C13 C14 1_555 1_555
C19 C20 1_555 1_555
C25 C26 1_555 1_555
C27 C28 1_555 1_555

#END
