
#######################################################################
#
#                 Cambridge Crystallographic Data Centre
#                                CCDC 
#
#######################################################################
#
# If this CIF has been generated from an entry in the Cambridge 
# Structural Database, then it will include bibliographic, chemical, 
# crystal, experimental, refinement or atomic coordinate data resulting 
# from the CCDC's data processing and validation procedures.
#
#######################################################################

data_EVACEL
_chemical_formula_moiety         'C24 H20 Cl2 N4'
_chemical_name_systematic        
"2,2'-dichloro-5',6,6',7,8',13'-hexahydro-5H-spiro[quinoline-8,7'-quinolino[8,7-b][1,5]benzodiazepine] unknown solvate"
_symmetry_cell_setting           tetragonal
_symmetry_space_group_name_H-M   'P -4 21 c'
_symmetry_Int_Tables_number      114
_space_group_name_Hall           'P -4 2n'
loop_
_symmetry_equiv_pos_site_id
_symmetry_equiv_pos_as_xyz
1 x,y,z
2 y,-x,-z
3 -x,-y,z
4 -y,x,-z
5 1/2+x,1/2-y,1/2-z
6 1/2-x,1/2+y,1/2-z
7 1/2-y,1/2-x,1/2+z
8 1/2+y,1/2+x,1/2+z
_cell_length_a                   19.070(3)
_cell_length_b                   19.070(3)
_cell_length_c                   12.810(3)
_cell_angle_alpha                90
_cell_angle_beta                 90
_cell_angle_gamma                90
_cell_volume                     4658.55
_exptl_crystal_colour            colorless
_exptl_crystal_description       Prism
_cell_formula_units_Z            8
loop_
_atom_site_label
_atom_site_type_symbol
_atom_site_fract_x
_atom_site_fract_y
_atom_site_fract_z
Cl1 Cl 0.44198(3) 0.31322(4) 0.09786(4)
Cl2 Cl 0.40352(5) -0.02690(3) -0.38905(5)
N1 N 0.39173(10) 0.10310(8) -0.44586(12)
N2 N 0.29860(8) 0.22406(8) -0.43736(12)
H1 H 0.2919 0.1915 -0.3920
C1 C 0.42107(9) 0.23989(9) -0.37367(14)
C2 C 0.26391(9) 0.28615(9) -0.40819(14)
N3 N 0.42966(9) 0.28938(8) -0.10129(12)
N4 N 0.33625(8) 0.29355(9) -0.25142(12)
H2 H 0.3279 0.2928 -0.1855
C3 C 0.35659(11) 0.27037(11) -0.65449(15)
H3 H 0.3066 0.2622 -0.6480
H4 H 0.3635 0.3100 -0.7009
C4 C 0.47690(12) 0.29746(11) -0.02600(15)
C5 C 0.37398(9) 0.22823(9) -0.46745(13)
C6 C 0.54834(10) 0.26375(12) -0.33188(16)
H5 H 0.5947 0.2429 -0.3344
H6 H 0.5504 0.3089 -0.3666
C7 C 0.28241(10) 0.31933(9) -0.31459(14)
C8 C 0.40012(13) 0.03979(10) -0.48282(16)
C9 C 0.20891(10) 0.31321(12) -0.46639(16)
H7 H 0.1977 0.2927 -0.5301
C10 C 0.24301(11) 0.37695(11) -0.28049(17)
H8 H 0.2547 0.3988 -0.2180
C11 C 0.49667(10) 0.21666(11) -0.38807(16)
H9 H 0.5018 0.1691 -0.3622
H10 H 0.5077 0.2163 -0.4620
C12 C 0.39423(10) 0.14606(9) -0.62276(14)
C13 C 0.57293(11) 0.28270(12) -0.13855(17)
H11 H 0.6209 0.2802 -0.1507
C14 C 0.38899(9) 0.15639(9) -0.51548(13)
C15 C 0.39155(11) 0.20596(10) -0.69982(14)
H12 H 0.3660 0.1911 -0.7615
H13 H 0.4389 0.2178 -0.7210
C16 C 0.38749(10) 0.28695(10) -0.54757(14)
H14 H 0.3672 0.3303 -0.5219
H15 H 0.4376 0.2940 -0.5546
C17 C 0.45454(9) 0.27711(9) -0.19803(14)
C18 C 0.18713(11) 0.40186(12) -0.33807(19)
H16 H 0.1610 0.4397 -0.3141
C19 C 0.54832(12) 0.29523(13) -0.03884(18)
H17 H 0.5788 0.3018 0.0170
C20 C 0.40382(11) 0.07739(11) -0.65745(15)
H18 H 0.4083 0.0686 -0.7285
C21 C 0.40674(14) 0.02303(10) -0.58839(17)
H19 H 0.4128 -0.0230 -0.6106
C22 C 0.52664(10) 0.27387(10) -0.22011(15)
C23 C 0.40179(9) 0.26884(9) -0.28205(13)
C24 C 0.17047(11) 0.36993(13) -0.43169(18)
H20 H 0.1333 0.3867 -0.4714
loop_
_geom_bond_atom_site_label_1
_geom_bond_atom_site_label_2
_geom_bond_site_symmetry_1
_geom_bond_site_symmetry_2
Cl1 C4 1_555 1_555
Cl2 C8 1_555 1_555
N1 C8 1_555 1_555
N2 H1 1_555 1_555
C1 C5 1_555 1_555
C2 N2 1_555 1_555
N3 C4 1_555 1_555
N4 H2 1_555 1_555
C3 H3 1_555 1_555
H4 C3 1_555 1_555
C4 C19 1_555 1_555
C5 N2 1_555 1_555
C6 H5 1_555 1_555
H6 C6 1_555 1_555
C7 C2 1_555 1_555
C8 C21 1_555 1_555
C9 C2 1_555 1_555
H7 C9 1_555 1_555
C10 C7 1_555 1_555
H8 C10 1_555 1_555
C11 C1 1_555 1_555
H9 C11 1_555 1_555
H10 C11 1_555 1_555
C12 C14 1_555 1_555
C13 H11 1_555 1_555
C14 N1 1_555 1_555
C15 C3 1_555 1_555
H12 C15 1_555 1_555
H13 C15 1_555 1_555
C16 C3 1_555 1_555
H14 C16 1_555 1_555
H15 C16 1_555 1_555
C17 N3 1_555 1_555
C18 C10 1_555 1_555
H16 C18 1_555 1_555
C19 C13 1_555 1_555
H17 C19 1_555 1_555
C20 C12 1_555 1_555
H18 C20 1_555 1_555
C21 C20 1_555 1_555
H19 C21 1_555 1_555
C22 C6 1_555 1_555
C23 C1 1_555 1_555
C24 C9 1_555 1_555
H20 C24 1_555 1_555
N4 C7 1_555 1_555
N4 C23 1_555 1_555
C5 C14 1_555 1_555
C5 C16 1_555 1_555
C6 C11 1_555 1_555
C12 C15 1_555 1_555
C13 C22 1_555 1_555
C17 C22 1_555 1_555
C17 C23 1_555 1_555
C18 C24 1_555 1_555

#END
