
#######################################################################
#
#                 Cambridge Crystallographic Data Centre
#                                CCDC 
#
#######################################################################
#
# If this CIF has been generated from an entry in the Cambridge 
# Structural Database, then it will include bibliographic, chemical, 
# crystal, experimental, refinement or atomic coordinate data resulting 
# from the CCDC's data processing and validation procedures.
#
#######################################################################

data_EVAGAK
_chemical_formula_moiety         'C8 H11 N1 O2'
_chemical_name_systematic        'Ethyl 5-methyl-1H-pyrrole-2-carboxylate'
_symmetry_cell_setting           monoclinic
_symmetry_space_group_name_H-M   'P 21/c'
_symmetry_Int_Tables_number      14
_space_group_name_Hall           '-P 2ybc'
loop_
_symmetry_equiv_pos_site_id
_symmetry_equiv_pos_as_xyz
1 x,y,z
2 -x,1/2+y,1/2-z
3 -x,-y,-z
4 x,1/2-y,1/2+z
_cell_length_a                   7.0759(3)
_cell_length_b                   18.0705(9)
_cell_length_c                   6.6606(3)
_cell_angle_alpha                90
_cell_angle_beta                 101.349(3)
_cell_angle_gamma                90
_cell_volume                     835.005
_exptl_crystal_colour            colorless
_exptl_crystal_description       plate
_cell_formula_units_Z            4
loop_
_atom_site_label
_atom_site_type_symbol
_atom_site_fract_x
_atom_site_fract_y
_atom_site_fract_z
O1 O 0.12507(16) 0.64959(6) 0.92921(18)
N1 N 0.52408(19) 0.57393(7) 0.7402(2)
H1 H 0.5637 0.5360 0.8146
C1 C 0.2631(2) 0.60036(9) 0.9187(3)
O2 O 0.2888(2) 0.54602(8) 1.0272(2)
C2 C 0.3729(2) 0.61798(9) 0.7644(2)
C3 C 0.6023(2) 0.59835(10) 0.5831(3)
C4 C -0.1423(3) 0.69326(11) 1.0591(3)
H2 H -0.0794 0.7400 1.0916
H3 H -0.2268 0.6837 1.1527
H4 H -0.2159 0.6946 0.9217
C5 C 0.3561(2) 0.67196(10) 0.6178(3)
H5 H 0.2658 0.7100 0.5976
C6 C 0.0051(3) 0.63353(10) 1.0768(3)
H6 H 0.0825 0.6324 1.2142
H7 H -0.0569 0.5858 1.0480
C7 C 0.7719(3) 0.56133(11) 0.5261(3)
H8 H 0.8862 0.5893 0.5791
H9 H 0.7543 0.5585 0.3796
H10 H 0.7847 0.5123 0.5827
C8 C 0.4987(3) 0.65956(10) 0.5044(3)
H11 H 0.5200 0.6879 0.3944
loop_
_geom_bond_atom_site_label_1
_geom_bond_atom_site_label_2
_geom_bond_site_symmetry_1
_geom_bond_site_symmetry_2
O1 C1 1_555 1_555
N1 H1 1_555 1_555
C1 O2 1_555 1_555
C2 N1 1_555 1_555
C3 N1 1_555 1_555
C4 H2 1_555 1_555
H3 C4 1_555 1_555
H4 C4 1_555 1_555
C5 C2 1_555 1_555
H5 C5 1_555 1_555
C6 O1 1_555 1_555
H6 C6 1_555 1_555
H7 C6 1_555 1_555
C7 C3 1_555 1_555
H8 C7 1_555 1_555
H9 C7 1_555 1_555
H10 C7 1_555 1_555
C8 C3 1_555 1_555
H11 C8 1_555 1_555
C1 C2 1_555 1_555
C4 C6 1_555 1_555
C5 C8 1_555 1_555

#END
