
#######################################################################
#
#                 Cambridge Crystallographic Data Centre
#                                CCDC 
#
#######################################################################
#
# If this CIF has been generated from an entry in the Cambridge 
# Structural Database, then it will include bibliographic, chemical, 
# crystal, experimental, refinement or atomic coordinate data resulting 
# from the CCDC's data processing and validation procedures.
#
#######################################################################

data_EVAHIT
_chemical_formula_moiety         'C18 H16 Cl1 N1 O2'
_chemical_name_systematic        
(3aR*,5R*)-5-(4-chlorophenyl)-1,2,3,3a-tetrahydrobenzo[e]pyrrolo[2,1-b][1,3]oxazepin-10(5H)-one
_symmetry_cell_setting           monoclinic
_symmetry_space_group_name_H-M   'P 21/c'
_symmetry_Int_Tables_number      14
_space_group_name_Hall           '-P 2ybc'
loop_
_symmetry_equiv_pos_site_id
_symmetry_equiv_pos_as_xyz
1 x,y,z
2 -x,1/2+y,1/2-z
3 -x,-y,-z
4 x,1/2-y,1/2+z
_cell_length_a                   8.1764(6)
_cell_length_b                   16.9030(11)
_cell_length_c                   11.1564(8)
_cell_angle_alpha                90
_cell_angle_beta                 98.224(6)
_cell_angle_gamma                90
_cell_volume                     1526.02
_exptl_crystal_colour            colorless
_exptl_crystal_description       prism
_cell_formula_units_Z            4
_exptl_crystal_recrystallization_method dichloromethane
loop_
_atom_site_label
_atom_site_type_symbol
_atom_site_fract_x
_atom_site_fract_y
_atom_site_fract_z
Cl1 Cl 0.03682(9) -0.29821(4) -0.05399(7)
N1 N 0.4690(3) 0.10862(13) 0.34094(18)
C1 C 0.5968(3) -0.03368(14) 0.2353(2)
O1 O 0.6417(2) 0.07672(14) 0.51050(16)
O2 O 0.3452(2) 0.04181(10) 0.16210(15)
C2 C 0.6842(3) -0.08243(15) 0.1681(2)
H1 H 0.6277 -0.1146 0.1084
C3 C 0.8560(3) -0.08382(18) 0.1887(3)
H2 H 0.9132 -0.1165 0.1420
C4 C 0.9415(3) -0.03783(18) 0.2764(3)
H3 H 1.0564 -0.0392 0.2897
C5 C 0.8567(3) 0.01065(17) 0.3453(3)
H4 H 0.9148 0.0415 0.4060
C6 C 0.6849(3) 0.01392(15) 0.3250(2)
C7 C 0.5983(3) 0.06870(16) 0.4016(2)
C8 C 0.3617(4) 0.16033(19) 0.4019(3)
H5 H 0.4206 0.2071 0.4349
H6 H 0.3182 0.1325 0.4665
C9 C 0.2247(4) 0.1818(2) 0.2998(3)
H7 H 0.1359 0.1433 0.2931
H8 H 0.1801 0.2338 0.3121
C10 C 0.3120(4) 0.18035(17) 0.1886(3)
H9 H 0.2336 0.1728 0.1157
H10 H 0.3719 0.2293 0.1814
C11 C 0.4297(3) 0.11097(15) 0.2095(2)
H11 H 0.5292 0.1201 0.1718
C12 C 0.4073(3) -0.03092(14) 0.2181(2)
H12 H 0.3737 -0.0326 0.2989
C13 C 0.3216(3) -0.09805(14) 0.1466(2)
C14 C 0.2537(3) -0.08971(16) 0.0260(2)
H13 H 0.2660 -0.0423 -0.0140
C15 C 0.1679(3) -0.15155(16) -0.0348(2)
H14 H 0.1214 -0.1451 -0.1153
C16 C 0.1508(3) -0.22169(14) 0.0218(2)
C17 C 0.2183(3) -0.23170(16) 0.1421(2)
H15 H 0.2075 -0.2797 0.1809
C18 C 0.3018(3) -0.16948(16) 0.2039(2)
H16 H 0.3454 -0.1756 0.2850
loop_
_geom_bond_atom_site_label_1
_geom_bond_atom_site_label_2
_geom_bond_site_symmetry_1
_geom_bond_site_symmetry_2
Cl1 C16 1_555 1_555
N1 C7 1_555 1_555
C1 C2 1_555 1_555
O1 C7 1_555 1_555
O2 C11 1_555 1_555
C2 H1 1_555 1_555
C3 C2 1_555 1_555
H2 C3 1_555 1_555
C4 C3 1_555 1_555
H3 C4 1_555 1_555
C5 C4 1_555 1_555
H4 C5 1_555 1_555
C6 C1 1_555 1_555
C7 C6 1_555 1_555
C8 N1 1_555 1_555
H5 C8 1_555 1_555
H6 C8 1_555 1_555
C9 C8 1_555 1_555
H7 C9 1_555 1_555
H8 C9 1_555 1_555
C10 C9 1_555 1_555
H9 C10 1_555 1_555
H10 C10 1_555 1_555
C11 N1 1_555 1_555
H11 C11 1_555 1_555
C12 C1 1_555 1_555
H12 C12 1_555 1_555
C13 C12 1_555 1_555
C14 C13 1_555 1_555
H13 C14 1_555 1_555
C15 C14 1_555 1_555
H14 C15 1_555 1_555
C16 C15 1_555 1_555
C17 C16 1_555 1_555
H15 C17 1_555 1_555
C18 C13 1_555 1_555
H16 C18 1_555 1_555
O2 C12 1_555 1_555
C5 C6 1_555 1_555
C10 C11 1_555 1_555
C17 C18 1_555 1_555

#END
