
#######################################################################
#
#                 Cambridge Crystallographic Data Centre
#                                CCDC 
#
#######################################################################
#
# If this CIF has been generated from an entry in the Cambridge 
# Structural Database, then it will include bibliographic, chemical, 
# crystal, experimental, refinement or atomic coordinate data resulting 
# from the CCDC's data processing and validation procedures.
#
#######################################################################

data_EVAJUH
_chemical_formula_moiety         'C26 H16 F6 O2'
_chemical_name_systematic        
1,4-Dimethoxy-2,5-bis((4-(trifluoromethyl)-phenyl)ethynyl)benzene
_symmetry_cell_setting           monoclinic
_symmetry_space_group_name_H-M   'P 21/c'
_symmetry_Int_Tables_number      14
_space_group_name_Hall           '-P 2ybc'
loop_
_symmetry_equiv_pos_site_id
_symmetry_equiv_pos_as_xyz
1 x,y,z
2 -x,1/2+y,1/2-z
3 -x,-y,-z
4 x,1/2-y,1/2+z
_cell_length_a                   11.1473(4)
_cell_length_b                   13.0795(6)
_cell_length_c                   7.5875(4)
_cell_angle_alpha                90
_cell_angle_beta                 97.467(3)
_cell_angle_gamma                90
_cell_volume                     1096.88
_exptl_crystal_colour            colorless
_exptl_crystal_description       block
_cell_formula_units_Z            2
loop_
_atom_site_label
_atom_site_type_symbol
_atom_site_fract_x
_atom_site_fract_y
_atom_site_fract_z
C1 C 0.75647(18) 0.83209(17) 0.5592(3)
C2 C 0.63855(14) 0.85402(14) 0.6275(2)
C3 C 0.54917(16) 0.78099(15) 0.6153(3)
H1 H 0.5617 0.7178 0.5647
C4 C 0.44076(15) 0.80134(14) 0.6781(2)
H2 H 0.3805 0.7518 0.6697
C5 C 0.42165(13) 0.89548(14) 0.7537(2)
C6 C 0.51220(16) 0.96868(14) 0.7635(3)
H3 H 0.4999 1.0322 0.8131
C7 C 0.62038(16) 0.94824(15) 0.7003(3)
H4 H 0.6806 0.9978 0.7069
C8 C 0.31058(14) 0.91755(14) 0.8243(2)
C9 C 0.22045(14) 0.93931(13) 0.8846(2)
C10 C 0.10877(13) 0.96910(12) 0.9454(2)
C11 C 0.03456(14) 1.03921(12) 0.8455(2)
H5 H 0.0584 1.0656 0.7417
C12 C 0.07381(13) 0.92971(12) 1.1021(2)
C13 C 0.1199(2) 0.82346(18) 1.3576(3)
H6 H 0.1109 0.8791 1.4372
H7 H 0.1823 0.7782 1.4105
H8 H 0.0449 0.7867 1.3348
O1 O 0.15207(10) 0.86246(10) 1.19450(17)
F1 F 0.7461(6) 0.8553(4) 0.3877(5)
F2 F 0.8484(5) 0.8832(9) 0.6296(14)
F3 F 0.7807(6) 0.7351(3) 0.5523(9)
C1B C -0.75647(18) 1.16791(17) 1.4408(3)
C2B C -0.63855(14) 1.14598(14) 1.3725(2)
C3B C -0.54917(16) 1.21901(15) 1.3847(3)
H1B H -0.5617 1.2822 1.4353
C4B C -0.44076(15) 1.19866(14) 1.3219(2)
H2B H -0.3805 1.2482 1.3303
C5B C -0.42165(13) 1.10452(14) 1.2463(2)
C6B C -0.51220(16) 1.03132(14) 1.2365(3)
H3B H -0.4999 0.9678 1.1869
C7B C -0.62038(16) 1.05176(15) 1.2997(3)
H4B H -0.6806 1.0022 1.2931
C8B C -0.31058(14) 1.08245(14) 1.1757(2)
C9B C -0.22045(14) 1.06069(13) 1.1154(2)
C10B C -0.10877(13) 1.03090(12) 1.0546(2)
C11B C -0.03456(14) 0.96079(12) 1.1545(2)
H5B H -0.0584 0.9344 1.2583
C12B C -0.07381(13) 1.07029(12) 0.8979(2)
C13B C -0.1199(2) 1.17654(18) 0.6424(3)
H6B H -0.1109 1.1209 0.5628
H7B H -0.1823 1.2218 0.5895
H8B H -0.0449 1.2133 0.6652
O1B O -0.15207(10) 1.13754(10) 0.80550(17)
F1B F -0.7461(6) 1.1447(4) 1.6123(5)
F2B F -0.8484(5) 1.1168(9) 1.3704(14)
F3B F -0.7807(6) 1.2649(3) 1.4477(9)
F4? F 0.7695(6) 0.7396(4) 0.5079(11)
F5? F 0.8458(4) 0.8398(6) 0.6905(7)
F6? F 0.7830(9) 0.8979(10) 0.4453(17)
loop_
_geom_bond_atom_site_label_1
_geom_bond_atom_site_label_2
_geom_bond_site_symmetry_1
_geom_bond_site_symmetry_2
C1 C2 1_555 1_555
C2 C3 1_555 1_555
C3 H1 1_555 1_555
C4 C3 1_555 1_555
H2 C4 1_555 1_555
C5 C4 1_555 1_555
C6 C5 1_555 1_555
H3 C6 1_555 1_555
C7 C2 1_555 1_555
H4 C7 1_555 1_555
C8 C5 1_555 1_555
C9 C8 1_555 1_555
C10 C9 1_555 1_555
C11 C10 1_555 1_555
H5 C11 1_555 1_555
C12 C10 1_555 1_555
C13 H6 1_555 1_555
H7 C13 1_555 1_555
H8 C13 1_555 1_555
O1 C12 1_555 1_555
F1 C1 1_555 1_555
F2 C1 1_555 1_555
F3 C1 1_555 1_555
C1B C2B 1_555 1_555
C2B C3B 1_555 1_555
C3B H1B 1_555 1_555
C4B C3B 1_555 1_555
H2B C4B 1_555 1_555
C5B C4B 1_555 1_555
C6B C5B 1_555 1_555
H3B C6B 1_555 1_555
C7B C2B 1_555 1_555
H4B C7B 1_555 1_555
C8B C5B 1_555 1_555
C9B C8B 1_555 1_555
C10B C9B 1_555 1_555
C11B C12 1_555 1_555
H5B C11B 1_555 1_555
C12B C11 1_555 1_555
C13B H6B 1_555 1_555
H7B C13B 1_555 1_555
H8B C13B 1_555 1_555
O1B C12B 1_555 1_555
F1B C1B 1_555 1_555
F2B C1B 1_555 1_555
F3B C1B 1_555 1_555
C6 C7 1_555 1_555
C13 O1 1_555 1_555
C6B C7B 1_555 1_555
C10B C11B 1_555 1_555
C10B C12B 1_555 1_555
C13B O1B 1_555 1_555

#END
