
#######################################################################
#
#                 Cambridge Crystallographic Data Centre
#                                CCDC 
#
#######################################################################
#
# If this CIF has been generated from an entry in the Cambridge 
# Structural Database, then it will include bibliographic, chemical, 
# crystal, experimental, refinement or atomic coordinate data resulting 
# from the CCDC's data processing and validation procedures.
#
#######################################################################

data_EVALIX
_chemical_formula_moiety         'C16 H16 N4 O2 S1'
_chemical_name_systematic        
3-(4-Amino-3-methyl-5-sulfanylidene-4,5-dihydro-1H-1,2,4-triazol-1-yl)-3-(2-furyl)-1-phenylpropan-1-one
_symmetry_cell_setting           monoclinic
_symmetry_space_group_name_H-M   'P 21/n'
_symmetry_Int_Tables_number      14
_space_group_name_Hall           '-P 2yn'
loop_
_symmetry_equiv_pos_site_id
_symmetry_equiv_pos_as_xyz
1 x,y,z
2 1/2-x,1/2+y,1/2-z
3 -x,-y,-z
4 1/2+x,1/2-y,1/2+z
_cell_length_a                   7.3702(8)
_cell_length_b                   24.131(2)
_cell_length_c                   9.2400(10)
_cell_angle_alpha                90
_cell_angle_beta                 106.745(5)
_cell_angle_gamma                90
_cell_volume                     1573.65
_exptl_crystal_colour            colorless
_exptl_crystal_description       prism
_cell_formula_units_Z            4
loop_
_atom_site_label
_atom_site_type_symbol
_atom_site_fract_x
_atom_site_fract_y
_atom_site_fract_z
S1 S 0.32564(7) 0.044074(19) 0.12279(6)
O1 O 0.44017(17) 0.24184(5) 0.30582(14)
O2 O 0.76075(17) 0.12393(5) 0.14479(15)
N1 N 0.3805(2) 0.13261(6) -0.04619(17)
N2 N 0.3656(2) 0.14722(6) -0.19396(18)
N3 N 0.2807(2) 0.06078(6) -0.17722(18)
N4 N 0.2143(3) 0.00728(7) -0.2257(2)
H1 H 0.312(4) -0.0188(10) -0.184(3)
H2 H 0.120(4) 0.0015(10) -0.184(3)
C1 C 0.3301(2) 0.07965(7) -0.0317(2)
C2 C 0.3022(3) 0.10221(8) -0.2710(2)
C3 C 0.4564(2) 0.17151(6) 0.0778(2)
H3 H 0.4213 0.1574 0.1679
C4 C 0.3677(2) 0.22862(6) 0.0401(2)
H4 H 0.4291 0.2481 -0.0277
H5 H 0.2315 0.2244 -0.0144
C5 C 0.3886(2) 0.26319(7) 0.1805(2)
C6 C 0.3390(2) 0.32323(7) 0.1632(2)
C7 C 0.3636(3) 0.35495(7) 0.2932(2)
H6 H 0.4096 0.3380 0.3897
C8 C 0.3215(3) 0.41086(7) 0.2828(2)
H7 H 0.3391 0.4324 0.3718
C9 C 0.2533(3) 0.43531(7) 0.1412(2)
H8 H 0.2260 0.4738 0.1338
C10 C 0.2250(3) 0.40402(7) 0.0111(2)
H9 H 0.1765 0.4209 -0.0852
C11 C 0.2673(3) 0.34799(7) 0.0217(2)
H10 H 0.2475 0.3264 -0.0675
C12 C 0.6687(2) 0.17414(7) 0.1194(2)
C13 C 0.7944(3) 0.21587(8) 0.1527(2)
H11 H 0.7673 0.2544 0.1447
C14 C 0.9781(3) 0.19038(10) 0.2031(2)
H12 H 1.0966 0.2089 0.2356
C15 C 0.9504(3) 0.13569(10) 0.1956(2)
H13 H 1.0483 0.1087 0.2219
C16 C 0.2566(3) 0.09657(10) -0.4376(2)
H14 H 0.2883 0.1311 -0.4806
H15 H 0.1211 0.0889 -0.4801
H16 H 0.3303 0.0660 -0.4620
loop_
_geom_bond_atom_site_label_1
_geom_bond_atom_site_label_2
_geom_bond_site_symmetry_1
_geom_bond_site_symmetry_2
S1 C1 1_555 1_555
O1 C5 1_555 1_555
O2 C12 1_555 1_555
N1 N2 1_555 1_555
N2 C2 1_555 1_555
N3 N4 1_555 1_555
N4 H1 1_555 1_555
H2 N4 1_555 1_555
C1 N1 1_555 1_555
C2 N3 1_555 1_555
C3 N1 1_555 1_555
H3 C3 1_555 1_555
C4 C3 1_555 1_555
H4 C4 1_555 1_555
H5 C4 1_555 1_555
C5 C4 1_555 1_555
C6 C5 1_555 1_555
C7 C6 1_555 1_555
H6 C7 1_555 1_555
C8 C7 1_555 1_555
H7 C8 1_555 1_555
C9 C8 1_555 1_555
H8 C9 1_555 1_555
C10 C9 1_555 1_555
H9 C10 1_555 1_555
C11 C6 1_555 1_555
H10 C11 1_555 1_555
C12 C3 1_555 1_555
C13 C12 1_555 1_555
H11 C13 1_555 1_555
C14 C13 1_555 1_555
H12 C14 1_555 1_555
C15 O2 1_555 1_555
H13 C15 1_555 1_555
C16 C2 1_555 1_555
H14 C16 1_555 1_555
H15 C16 1_555 1_555
H16 C16 1_555 1_555
N3 C1 1_555 1_555
C10 C11 1_555 1_555
C14 C15 1_555 1_555

#END
