
#######################################################################
#
#                 Cambridge Crystallographic Data Centre
#                                CCDC 
#
#######################################################################
#
# If this CIF has been generated from an entry in the Cambridge 
# Structural Database, then it will include bibliographic, chemical, 
# crystal, experimental, refinement or atomic coordinate data resulting 
# from the CCDC's data processing and validation procedures.
#
#######################################################################

data_EVANEV
_chemical_formula_moiety         'C19 H18 O5'
_chemical_name_systematic        '4-Allyl-2-methoxyphenyl 2-acetoxybenzoate'
_symmetry_cell_setting           monoclinic
_symmetry_space_group_name_H-M   'P 21/n'
_symmetry_Int_Tables_number      14
_space_group_name_Hall           '-P 2yn'
loop_
_symmetry_equiv_pos_site_id
_symmetry_equiv_pos_as_xyz
1 x,y,z
2 1/2-x,1/2+y,1/2-z
3 -x,-y,-z
4 1/2+x,1/2-y,1/2+z
_cell_length_a                   10.60(2)
_cell_length_b                   12.58(2)
_cell_length_c                   13.23(2)
_cell_angle_alpha                90
_cell_angle_beta                 109.020(17)
_cell_angle_gamma                90
_cell_volume                     1667.88
_exptl_crystal_colour            colorless
_exptl_crystal_description       block
_cell_formula_units_Z            4
loop_
_atom_site_label
_atom_site_type_symbol
_atom_site_fract_x
_atom_site_fract_y
_atom_site_fract_z
C1 C 0.5429(3) 0.8815(2) 1.1109(2)
H1 H 0.5154 0.9490 1.0842
C2 C 0.6740(3) 0.8662(3) 1.1758(3)
H2 H 0.7329 0.9233 1.1933
C3 C 0.7161(3) 0.7671(3) 1.2139(2)
H3 H 0.8038 0.7566 1.2575
C4 C 0.6290(3) 0.6826(3) 1.1880(2)
H4 H 0.6582 0.6150 1.2135
C5 C 0.4980(2) 0.6979(2) 1.1242(2)
C6 C 0.4519(2) 0.7981(2) 1.0850(2)
C7 C 0.3121(3) 0.8251(2) 1.0192(2)
C8 C 0.0856(2) 0.7755(2) 0.9839(2)
C9 C 0.0242(2) 0.8431(2) 1.0363(2)
C10 C -0.1134(3) 0.8549(2) 0.9951(2)
H5 H -0.1563 0.8996 1.0295
C11 C -0.1880(3) 0.8015(2) 0.9038(2)
C12 C -0.1244(3) 0.7362(2) 0.8531(2)
H6 H -0.1735 0.7007 0.7911
C13 C 0.0134(3) 0.7226(2) 0.8936(2)
H7 H 0.0560 0.6776 0.8593
C14 C 0.3662(3) 0.5694(2) 1.0060(3)
C15 C 0.2725(3) 0.4813(3) 1.0018(3)
H8 H 0.2235 0.4650 0.9286
H9 H 0.2114 0.5019 1.0382
H10 H 0.3216 0.4197 1.0359
C16 C 0.0468(3) 0.9576(2) 1.1848(2)
H11 H -0.0043 1.0124 1.1391
H12 H 0.1152 0.9894 1.2436
H13 H -0.0109 0.9156 1.2118
C17 C -0.3382(3) 0.8185(3) 0.8597(3)
H14 H -0.3803 0.7545 0.8231
H15 H -0.3719 0.8312 0.9186
C18 C -0.3746(4) 0.9083(4) 0.7853(5)
H16 H -0.3360 0.9723 0.8151
C19 C -0.4456(4) 0.9161(4) 0.6917(4)
H17 H -0.4886 0.8564 0.6548
H18 H -0.4565 0.9817 0.6575
O1 O 0.41425(17) 0.60944(14) 1.10660(15)
O2 O 0.22313(15) 0.75382(14) 1.03094(14)
O3 O 0.3986(2) 0.60219(17) 0.93385(16)
O4 O 0.28083(19) 0.90274(16) 0.96467(17)
O5 O 0.10653(18) 0.89150(15) 1.12579(15)
loop_
_geom_bond_atom_site_label_1
_geom_bond_atom_site_label_2
_geom_bond_site_symmetry_1
_geom_bond_site_symmetry_2
C1 H1 1_555 1_555
C2 C1 1_555 1_555
H2 C2 1_555 1_555
C3 C2 1_555 1_555
H3 C3 1_555 1_555
C4 C3 1_555 1_555
H4 C4 1_555 1_555
C5 C4 1_555 1_555
C6 C1 1_555 1_555
C7 C6 1_555 1_555
C8 C9 1_555 1_555
C9 C10 1_555 1_555
C10 H5 1_555 1_555
C11 C10 1_555 1_555
C12 C11 1_555 1_555
H6 C12 1_555 1_555
C13 C8 1_555 1_555
H7 C13 1_555 1_555
C14 C15 1_555 1_555
C15 H8 1_555 1_555
H9 C15 1_555 1_555
H10 C15 1_555 1_555
C16 H11 1_555 1_555
H12 C16 1_555 1_555
H13 C16 1_555 1_555
C17 C11 1_555 1_555
H14 C17 1_555 1_555
H15 C17 1_555 1_555
C18 C17 1_555 1_555
H16 C18 1_555 1_555
C19 C18 1_555 1_555
H17 C19 1_555 1_555
H18 C19 1_555 1_555
O1 C5 1_555 1_555
O2 C7 1_555 1_555
O3 C14 1_555 1_555
O4 C7 1_555 1_555
O5 C9 1_555 1_555
C5 C6 1_555 1_555
C8 O2 1_555 1_555
C12 C13 1_555 1_555
C14 O1 1_555 1_555
C16 O5 1_555 1_555

#END
