
#######################################################################
#
#                 Cambridge Crystallographic Data Centre
#                                CCDC 
#
#######################################################################
#
# If this CIF has been generated from an entry in the Cambridge 
# Structural Database, then it will include bibliographic, chemical, 
# crystal, experimental, refinement or atomic coordinate data resulting 
# from the CCDC's data processing and validation procedures.
#
#######################################################################

data_EVASUR
_chemical_formula_moiety         'C18 H25 N5 O3,C2 H4 Cl2'
_chemical_name_systematic        
'1-(5,5-dibutyl-4,6-dioxo-1,4,5,6-tetrahydropyrimidin-2-yl)-3-pyridin-4-ylurea 1,2-dichloroethane solvate'
_symmetry_cell_setting           triclinic
_symmetry_space_group_name_H-M   'P -1'
_symmetry_Int_Tables_number      2
_space_group_name_Hall           '-P 1'
loop_
_symmetry_equiv_pos_site_id
_symmetry_equiv_pos_as_xyz
1 x,y,z
2 -x,-y,-z
_cell_length_a                   8.849(2)
_cell_length_b                   9.587(2)
_cell_length_c                   13.731(4)
_cell_angle_alpha                85.804(9)
_cell_angle_beta                 86.799(9)
_cell_angle_gamma                79.717(9)
_cell_volume                     1142.01
_exptl_crystal_colour            colorless
_exptl_crystal_description       block
_cell_formula_units_Z            2
loop_
_atom_site_label
_atom_site_type_symbol
_atom_site_fract_x
_atom_site_fract_y
_atom_site_fract_z
O1 O 0.3485(2) 0.14057(16) 0.66480(10)
O2 O 0.43330(18) 0.36137(15) 0.90487(10)
O3 O 0.6213(2) 0.69489(16) 0.67992(10)
N1 N 0.1605(3) -0.2063(2) 0.44088(15)
N2 N 0.3412(2) 0.15608(17) 0.49853(12)
N3 N 0.4331(2) 0.32792(17) 0.57309(12)
N4 N 0.5235(2) 0.51530(17) 0.62735(12)
N5 N 0.4408(2) 0.34583(18) 0.74186(11)
C1 C 0.2798(2) 0.0340(2) 0.48443(14)
C2 C 0.2438(4) -0.0632(3) 0.55768(17)
H1 H 0.2583 -0.0511 0.6229
C3 C 0.1858(4) -0.1790(3) 0.53112(19)
H2 H 0.1623 -0.2435 0.5812
C4 C 0.1962(3) -0.1113(2) 0.37153(17)
H3 H 0.1806 -0.1266 0.3070
C5 C 0.2547(3) 0.0083(2) 0.38897(15)
H4 H 0.2770 0.0709 0.3374
C6 C 0.3716(2) 0.2012(2) 0.58514(14)
C7 C 0.4661(2) 0.3962(2) 0.64832(13)
C8 C 0.5639(2) 0.5891(2) 0.70097(13)
C9 C 0.5359(2) 0.5448(2) 0.80857(13)
C10 C 0.4663(2) 0.4113(2) 0.82446(13)
C11 C 0.4239(2) 0.6676(2) 0.85471(14)
H5 H 0.4167 0.6465 0.9248
H6 H 0.4672 0.7538 0.8434
C12 C 0.2628(3) 0.6956(2) 0.81650(16)
H7 H 0.2153 0.6127 0.8326
H8 H 0.2694 0.7104 0.7459
C13 C 0.1618(3) 0.8242(3) 0.8588(2)
H9 H 0.1652 0.8145 0.9295
H10 H 0.2030 0.9088 0.8363
C14 C -0.0036(3) 0.8429(3) 0.8304(3)
H11 H -0.0080 0.8539 0.7605
H12 H -0.0617 0.9258 0.8585
H13 H -0.0461 0.7609 0.8543
C15 C 0.6897(2) 0.5203(2) 0.86110(14)
H14 H 0.7401 0.6012 0.8442
H15 H 0.6668 0.5177 0.9311
C16 C 0.8020(2) 0.3857(2) 0.83788(15)
H16 H 0.8225 0.3849 0.7678
H17 H 0.7557 0.3034 0.8588
C17 C 0.9530(3) 0.3753(3) 0.88846(17)
H18 H 1.0020 0.4546 0.8641
H19 H 0.9311 0.3834 0.9580
C18 C 1.0640(3) 0.2378(3) 0.8729(2)
H20 H 1.0844 0.2277 0.8042
H21 H 1.0195 0.1591 0.9012
H22 H 1.1584 0.2397 0.9036
H23 H 0.359(3) 0.209(3) 0.4461(19)
H24 H 0.404(3) 0.270(3) 0.7464(19)
H25 H 0.443(4) 0.372(4) 0.515(3)
Cl1 Cl 0.57892(9) 0.01475(6) 0.84960(4)
C19 C 0.5759(3) -0.0091(4) 0.97892(19)
H26 H 0.6294 -0.1037 0.9978
H27 H 0.6304 0.0587 1.0044
Cl1A Cl 0.42108(9) -0.01475(6) 1.15040(4)
C19A C 0.4241(3) 0.0091(4) 1.02108(19)
H26A H 0.3706 0.1037 1.0022
H27A H 0.3696 -0.0587 0.9956
Cl2 Cl 0.06643(8) 0.49761(7) 0.64828(4)
C20 C -0.0480(3) 0.5304(3) 0.5403(2)
H28 H -0.1388 0.4865 0.5505
H29 H -0.0806 0.6317 0.5265
Cl2A Cl -0.06643(8) 0.50239(7) 0.35172(4)
C20A C 0.0480(3) 0.4696(3) 0.4597(2)
H28A H 0.1388 0.5135 0.4495
H29A H 0.0806 0.3683 0.4735
loop_
_geom_bond_atom_site_label_1
_geom_bond_atom_site_label_2
_geom_bond_site_symmetry_1
_geom_bond_site_symmetry_2
O1 C6 1_555 1_555
O2 C10 1_555 1_555
O3 C8 1_555 1_555
N1 C3 1_555 1_555
N2 C1 1_555 1_555
N3 C6 1_555 1_555
N4 C7 1_555 1_555
N5 C7 1_555 1_555
C1 C2 1_555 1_555
C2 H1 1_555 1_555
C3 C2 1_555 1_555
H2 C3 1_555 1_555
C4 N1 1_555 1_555
H3 C4 1_555 1_555
C5 C1 1_555 1_555
H4 C5 1_555 1_555
C6 N2 1_555 1_555
C7 N3 1_555 1_555
C8 N4 1_555 1_555
C9 C8 1_555 1_555
C10 N5 1_555 1_555
C11 C9 1_555 1_555
H5 C11 1_555 1_555
H6 C11 1_555 1_555
C12 C11 1_555 1_555
H7 C12 1_555 1_555
H8 C12 1_555 1_555
C13 C12 1_555 1_555
H9 C13 1_555 1_555
H10 C13 1_555 1_555
C14 C13 1_555 1_555
H11 C14 1_555 1_555
H12 C14 1_555 1_555
H13 C14 1_555 1_555
C15 C9 1_555 1_555
H14 C15 1_555 1_555
H15 C15 1_555 1_555
C16 C15 1_555 1_555
H16 C16 1_555 1_555
H17 C16 1_555 1_555
C17 C16 1_555 1_555
H18 C17 1_555 1_555
H19 C17 1_555 1_555
C18 C17 1_555 1_555
H20 C18 1_555 1_555
H21 C18 1_555 1_555
H22 C18 1_555 1_555
H23 N2 1_555 1_555
H24 N5 1_555 1_555
H25 N3 1_555 1_555
Cl1 C19 1_555 1_555
C19 H26 1_555 1_555
H27 C19 1_555 1_555
Cl2 C20 1_555 1_555
C20 H28 1_555 1_555
H29 C20 1_555 1_555
Cl1A C19A 1_555 1_555
C19A C19 1_555 1_555
H26A C19A 1_555 1_555
H27A C19A 1_555 1_555
Cl2A C20A 1_555 1_555
C20A C20 1_555 1_555
H28A C20A 1_555 1_555
H29A C20A 1_555 1_555
C4 C5 1_555 1_555
C9 C10 1_555 1_555

#END
