
#######################################################################
#
#                 Cambridge Crystallographic Data Centre
#                                CCDC 
#
#######################################################################
#
# If this CIF has been generated from an entry in the Cambridge 
# Structural Database, then it will include bibliographic, chemical, 
# crystal, experimental, refinement or atomic coordinate data resulting 
# from the CCDC's data processing and validation procedures.
#
#######################################################################

data_EVATOL
_chemical_formula_moiety         'C24 H20 F6 N2 O2'
_chemical_name_systematic        
2-(1-(2,8-bis(Trifluoromethyl)quinolin-4-yl)hexahydro[1,3]oxazolo[3,4-a]pyridin-3-yl)phenol
_symmetry_cell_setting           orthorhombic
_symmetry_space_group_name_H-M   'F d d 2'
_symmetry_Int_Tables_number      43
_space_group_name_Hall           'F 2 -2d'
loop_
_symmetry_equiv_pos_site_id
_symmetry_equiv_pos_as_xyz
1 x,y,z
2 -x,-y,z
3 1/4-x,1/4+y,1/4+z
4 3/4+x,3/4-y,1/4+z
5 x,1/2+y,1/2+z
6 -x,1/2-y,1/2+z
7 1/4-x,3/4+y,3/4+z
8 3/4+x,1/4-y,3/4+z
9 1/2+x,y,1/2+z
10 1/2-x,-y,1/2+z
11 3/4-x,1/4+y,3/4+z
12 1/4+x,3/4-y,3/4+z
13 1/2+x,1/2+y,z
14 1/2-x,1/2-y,z
15 3/4-x,3/4+y,1/4+z
16 1/4+x,1/4-y,1/4+z
_cell_length_a                   27.2766(11)
_cell_length_b                   34.1005(9)
_cell_length_c                   9.4431(2)
_cell_angle_alpha                90
_cell_angle_beta                 90
_cell_angle_gamma                90
_cell_volume                     8783.46
_exptl_crystal_colour            colorless
_exptl_crystal_description       block
_cell_formula_units_Z            16
_exptl_crystal_recrystallization_method ethanol
loop_
_atom_site_label
_atom_site_type_symbol
_atom_site_fract_x
_atom_site_fract_y
_atom_site_fract_z
F1 F 0.98349(6) 0.85851(4) 0.25475(17)
F2 F 1.03760(5) 0.81329(5) 0.22731(16)
F3 F 0.96194(6) 0.80141(5) 0.18235(15)
F4 F 0.83400(6) 0.81192(5) 0.47423(18)
F5 F 0.85056(6) 0.75173(5) 0.4262(2)
F6 F 0.79918(6) 0.76574(6) 0.59082(19)
O1 O 1.10450(6) 0.78733(5) 0.67372(18)
O2 O 1.10905(7) 0.87646(6) 0.4756(2)
H1 H 1.0968 0.8720 0.5556
N1 N 0.93890(7) 0.79834(6) 0.4583(2)
N2 N 1.10727(7) 0.85110(6) 0.7433(2)
C1 C 0.98410(8) 0.80770(6) 0.4242(2)
C2 C 1.02460(8) 0.80730(6) 0.5156(2)
H2 H 1.0563 0.8139 0.4816
C3 C 1.01759(8) 0.79725(6) 0.6548(2)
C4 C 0.96894(8) 0.78816(6) 0.7003(2)
C5 C 0.95739(9) 0.77823(7) 0.8426(3)
H3 H 0.9824 0.7786 0.9125
C6 C 0.91067(9) 0.76812(7) 0.8798(3)
H4 H 0.9034 0.7616 0.9753
C7 C 0.87321(9) 0.76741(7) 0.7767(3)
H5 H 0.8409 0.7600 0.8033
C8 C 0.88277(8) 0.77726(7) 0.6394(3)
C9 C 0.93106(8) 0.78838(6) 0.5973(2)
C10 C 0.99188(8) 0.82002(7) 0.2718(3)
C11 C 0.84193(9) 0.77694(8) 0.5328(3)
C12 C 1.06091(8) 0.79426(7) 0.7548(2)
H6 H 1.0556 0.7719 0.8218
C13 C 1.13849(8) 0.81902(7) 0.6950(3)
H7 H 1.1626 0.8119 0.7707
C14 C 1.07232(8) 0.83156(7) 0.8391(3)
H8 H 1.0902 0.8239 0.9273
C15 C 1.03185(9) 0.85983(7) 0.8790(3)
H9 H 1.0080 0.8467 0.9422
H10 H 1.0143 0.8687 0.7930
C16 C 1.05498(10) 0.89492(8) 0.9549(3)
H11 H 1.0294 0.9147 0.9750
H12 H 1.0690 0.8862 1.0463
C17 C 1.09526(10) 0.91343(8) 0.8645(3)
H13 H 1.0803 0.9258 0.7801
H14 H 1.1119 0.9342 0.9198
C18 C 1.13303(9) 0.88317(8) 0.8172(3)
H15 H 1.1572 0.8955 0.7528
H16 H 1.1508 0.8727 0.9004
C19 C 1.16494(9) 0.82626(7) 0.5575(3)
C20 C 1.14874(9) 0.85282(7) 0.4556(3)
C21 C 1.17304(11) 0.85539(8) 0.3246(3)
H17 H 1.1618 0.8734 0.2550
C22 C 1.21281(12) 0.83207(9) 0.2970(4)
H18 H 1.2291 0.8341 0.2083
C23 C 1.22951(11) 0.80566(9) 0.3970(4)
H19 H 1.2570 0.7895 0.3770
C24 C 1.20596(10) 0.80299(8) 0.5263(3)
H20 H 1.2178 0.7851 0.5953
loop_
_geom_bond_atom_site_label_1
_geom_bond_atom_site_label_2
_geom_bond_site_symmetry_1
_geom_bond_site_symmetry_2
F1 C10 1_555 1_555
F2 C10 1_555 1_555
F3 C10 1_555 1_555
F4 C11 1_555 1_555
F5 C11 1_555 1_555
F6 C11 1_555 1_555
O1 C12 1_555 1_555
O2 H1 1_555 1_555
N1 C1 1_555 1_555
N2 C13 1_555 1_555
C1 C2 1_555 1_555
C2 H2 1_555 1_555
C3 C2 1_555 1_555
C4 C3 1_555 1_555
C5 C4 1_555 1_555
H3 C5 1_555 1_555
C6 C5 1_555 1_555
H4 C6 1_555 1_555
C7 C6 1_555 1_555
H5 C7 1_555 1_555
C8 C7 1_555 1_555
C9 N1 1_555 1_555
C10 C1 1_555 1_555
C11 C8 1_555 1_555
C12 C3 1_555 1_555
H6 C12 1_555 1_555
C13 O1 1_555 1_555
H7 C13 1_555 1_555
C14 N2 1_555 1_555
H8 C14 1_555 1_555
C15 C14 1_555 1_555
H9 C15 1_555 1_555
H10 C15 1_555 1_555
C16 C15 1_555 1_555
H11 C16 1_555 1_555
H12 C16 1_555 1_555
C17 C16 1_555 1_555
H13 C17 1_555 1_555
H14 C17 1_555 1_555
C18 N2 1_555 1_555
H15 C18 1_555 1_555
H16 C18 1_555 1_555
C19 C13 1_555 1_555
C20 O2 1_555 1_555
C21 C20 1_555 1_555
H17 C21 1_555 1_555
C22 C21 1_555 1_555
H18 C22 1_555 1_555
C23 C22 1_555 1_555
H19 C23 1_555 1_555
C24 C19 1_555 1_555
H20 C24 1_555 1_555
C4 C9 1_555 1_555
C8 C9 1_555 1_555
C12 C14 1_555 1_555
C17 C18 1_555 1_555
C19 C20 1_555 1_555
C23 C24 1_555 1_555

#END
