
#######################################################################
#
#                 Cambridge Crystallographic Data Centre
#                                CCDC 
#
#######################################################################
#
# If this CIF has been generated from an entry in the Cambridge 
# Structural Database, then it will include bibliographic, chemical, 
# crystal, experimental, refinement or atomic coordinate data resulting 
# from the CCDC's data processing and validation procedures.
#
#######################################################################

data_EVAWIJ
_chemical_name_common            
'Allyl 3,4,6-tri-O-acetyl-2-deoxy-2-phthalimido-beta-D-glucopyranoside'
_chemical_formula_moiety         'C23 H25 N1 O10'
_chemical_name_systematic        
'2-(acetoxymethyl)-6-(allyloxy)-5-(1,3-dioxo-1,3-dihydro-2H-isoindol-2-yl)tetrahydro-2H-pyran-3,4-diyl diacetate'
_symmetry_cell_setting           orthorhombic
_symmetry_space_group_name_H-M   'P 21 21 21'
_symmetry_Int_Tables_number      19
_space_group_name_Hall           'P 2ac 2ab'
loop_
_symmetry_equiv_pos_site_id
_symmetry_equiv_pos_as_xyz
1 x,y,z
2 1/2-x,-y,1/2+z
3 -x,1/2+y,1/2-z
4 1/2+x,1/2-y,-z
_cell_length_a                   5.68730(10)
_cell_length_b                   13.8090(3)
_cell_length_c                   29.7776(6)
_cell_angle_alpha                90
_cell_angle_beta                 90
_cell_angle_gamma                90
_cell_volume                     2338.61
_exptl_crystal_colour            colorless
_exptl_crystal_description       block
_cell_formula_units_Z            4
loop_
_atom_site_label
_atom_site_type_symbol
_atom_site_fract_x
_atom_site_fract_y
_atom_site_fract_z
O1 O 0.2553(3) 0.46285(10) 0.67489(5)
O2 O 0.5381(3) 0.12299(11) 0.65519(5)
O3 O 0.5249(3) 0.31082(11) 0.71755(5)
O4 O 0.6786(3) 0.28757(10) 0.59977(5)
O5 O 0.8145(3) 0.59507(11) 0.62906(5)
O6 O 0.1351(3) 0.53828(12) 0.55059(5)
O7 O 0.6391(3) 0.38688(11) 0.53945(5)
O8 O 0.7384(3) -0.01621(11) 0.66104(6)
O9 O 0.4357(3) 0.54328(14) 0.73116(6)
O10 O 0.1550(3) 0.25372(14) 0.72336(6)
N1 N 0.4727(3) 0.54214(13) 0.59438(6)
C1 C 0.6429(4) 0.61102(16) 0.60621(7)
C2 C 0.2979(4) 0.58224(16) 0.56677(7)
C3 C 0.4748(4) 0.44030(15) 0.60714(7)
H1 H 0.3260 0.4107 0.5956
C4 C 0.2579(4) 0.51553(16) 0.71358(7)
C5 C 0.6795(4) 0.38592(16) 0.58531(7)
H2 H 0.8328 0.4177 0.5926
C6 C 0.5528(4) 0.02604(16) 0.65995(8)
C7 C 0.4764(4) 0.42761(15) 0.65811(7)
H3 H 0.6093 0.4650 0.6717
C8 C 0.4985(4) 0.32114(15) 0.66975(7)
H4 H 0.3549 0.2856 0.6595
C9 C 0.3591(4) 0.68644(16) 0.56204(7)
C10 C 0.5673(4) 0.70329(16) 0.58524(7)
C11 C 0.6683(4) 0.79430(16) 0.58652(8)
H5 H 0.8093 0.8060 0.6027
C12 C 0.7146(4) 0.27908(16) 0.64710(7)
H6 H 0.8556 0.3181 0.6558
C13 C 0.3393(5) 0.27364(16) 0.74066(8)
C14 C 0.7580(4) 0.17480(16) 0.65837(8)
H7 H 0.8739 0.1468 0.6372
H8 H 0.8220 0.1693 0.6892
C15 C 0.3465(5) 0.85174(17) 0.54017(8)
H9 H 0.2724 0.9038 0.5248
C16 C 0.2442(5) 0.76010(16) 0.53936(8)
H10 H 0.1010 0.7486 0.5238
C17 C 0.5556(5) 0.86812(17) 0.56314(8)
H11 H 0.6229 0.9311 0.5629
C18 C 0.3171(4) -0.01948(18) 0.66364(9)
H12 H 0.3025 -0.0514 0.6929
H13 H 0.2979 -0.0675 0.6397
H14 H 0.1955 0.0304 0.6608
C19 C 0.3950(5) 0.26533(18) 0.78949(8)
H15 H 0.5642 0.2548 0.7933
H16 H 0.3085 0.2106 0.8023
H17 H 0.3488 0.3251 0.8049
C20 C 0.0143(4) 0.53125(19) 0.72999(8)
H18 H -0.0798 0.5614 0.7062
H19 H 0.0175 0.5738 0.7563
H20 H -0.0557 0.4689 0.7383
C21 C 0.8274(5) 0.34770(18) 0.51328(8)
H21 H 0.8399 0.2771 0.5185
H22 H 0.9780 0.3782 0.5222
C22 C 0.7798(7) 0.3669(2) 0.46500(9)
H23 H 0.8901 0.3435 0.4436
C23 C 0.5962(8) 0.4141(2) 0.44989(10)
H24 H 0.4824 0.4386 0.4703
H25 H 0.5768 0.4238 0.4185
loop_
_geom_bond_atom_site_label_1
_geom_bond_atom_site_label_2
_geom_bond_site_symmetry_1
_geom_bond_site_symmetry_2
O1 C4 1_555 1_555
O2 C6 1_555 1_555
O3 C8 1_555 1_555
O4 C5 1_555 1_555
O5 C1 1_555 1_555
O6 C2 1_555 1_555
O7 C5 1_555 1_555
O8 C6 1_555 1_555
O9 C4 1_555 1_555
O10 C13 1_555 1_555
N1 C1 1_555 1_555
C1 C10 1_555 1_555
C2 N1 1_555 1_555
C3 N1 1_555 1_555
H1 C3 1_555 1_555
C4 C20 1_555 1_555
C5 C3 1_555 1_555
H2 C5 1_555 1_555
C6 C18 1_555 1_555
C7 O1 1_555 1_555
H3 C7 1_555 1_555
C8 C7 1_555 1_555
H4 C8 1_555 1_555
C9 C2 1_555 1_555
C10 C9 1_555 1_555
C11 C10 1_555 1_555
H5 C11 1_555 1_555
C12 O4 1_555 1_555
H6 C12 1_555 1_555
C13 O3 1_555 1_555
C14 O2 1_555 1_555
H7 C14 1_555 1_555
H8 C14 1_555 1_555
C15 H9 1_555 1_555
C16 C9 1_555 1_555
H10 C16 1_555 1_555
C17 C11 1_555 1_555
H11 C17 1_555 1_555
C18 H12 1_555 1_555
H13 C18 1_555 1_555
H14 C18 1_555 1_555
C19 C13 1_555 1_555
H15 C19 1_555 1_555
H16 C19 1_555 1_555
H17 C19 1_555 1_555
C20 H18 1_555 1_555
H19 C20 1_555 1_555
H20 C20 1_555 1_555
C21 O7 1_555 1_555
H21 C21 1_555 1_555
H22 C21 1_555 1_555
C22 C21 1_555 1_555
H23 C22 1_555 1_555
C23 C22 1_555 1_555
H24 C23 1_555 1_555
H25 C23 1_555 1_555
C3 C7 1_555 1_555
C8 C12 1_555 1_555
C12 C14 1_555 1_555
C15 C16 1_555 1_555
C15 C17 1_555 1_555

#END
