
#######################################################################
#
#                 Cambridge Crystallographic Data Centre
#                                CCDC 
#
#######################################################################
#
# If this CIF has been generated from an entry in the Cambridge 
# Structural Database, then it will include bibliographic, chemical, 
# crystal, experimental, refinement or atomic coordinate data resulting 
# from the CCDC's data processing and validation procedures.
#
#######################################################################

data_EVAXEF
_chemical_formula_moiety         'C21 H21 N3 O1'
_chemical_name_systematic        
5'-Methyl-4'-oxo-7'-phenyl-3',4'-dihydro-1'H-spiro[cyclohexane-1,2'-quinazoline]-8'-carbonitrile
_symmetry_cell_setting           triclinic
_symmetry_space_group_name_H-M   'P -1'
_symmetry_Int_Tables_number      2
_space_group_name_Hall           '-P 1'
loop_
_symmetry_equiv_pos_site_id
_symmetry_equiv_pos_as_xyz
1 x,y,z
2 -x,-y,-z
_cell_length_a                   7.1824(15)
_cell_length_b                   11.233(3)
_cell_length_c                   11.430(3)
_cell_angle_alpha                101.858(8)
_cell_angle_beta                 93.794(9)
_cell_angle_gamma                104.606(9)
_cell_volume                     866.522
_exptl_crystal_colour            colorless
_exptl_crystal_description       block
_chemical_melting_point          '572-573 K'
_cell_formula_units_Z            2
_exptl_crystal_recrystallization_method 'ethanol/petroleum ether'
loop_
_atom_site_label
_atom_site_type_symbol
_atom_site_fract_x
_atom_site_fract_y
_atom_site_fract_z
O1 O 0.79935(15) 0.44593(8) 0.06825(9)
N1 N 0.97094(15) 0.77778(10) 0.30982(9)
N2 N 1.00920(15) 0.63845(9) 0.13608(9)
N3 N 0.84792(18) 0.93552(12) 0.57411(11)
C1 C 1.26985(18) 0.83252(12) 0.22053(11)
H1 H 1.3292 0.7806 0.2637
H2 H 1.2955 0.9177 0.2742
C2 C 1.36630(19) 0.84416(12) 0.10637(12)
H3 H 1.5044 0.8920 0.1293
H4 H 1.3612 0.7587 0.0593
C3 C 1.2676(2) 0.91080(13) 0.02799(13)
H5 H 1.3260 0.9095 -0.0482
H6 H 1.2883 1.0002 0.0704
C4 C 1.0504(2) 0.84591(13) -0.00007(12)
H7 H 1.0296 0.7585 -0.0479
H8 H 0.9881 0.8920 -0.0488
C5 C 0.95716(18) 0.84267(11) 0.11605(11)
H9 H 0.8168 0.7998 0.0958
H10 H 0.9719 0.9302 0.1617
C6 C 1.05070(17) 0.77279(11) 0.19470(10)
C7 C 0.78933(17) 0.70442(11) 0.31283(10)
C8 C 0.68158(18) 0.73621(11) 0.40828(11)
C9 C 0.49368(18) 0.66095(12) 0.41115(11)
C10 C 0.41853(19) 0.55284(12) 0.31972(12)
H11 H 0.2911 0.5021 0.3205
C11 C 0.52333(19) 0.51594(12) 0.22663(12)
C12 C 0.71034(18) 0.59166(11) 0.22332(10)
C13 C 0.83918(18) 0.55304(11) 0.13493(11)
C14 C 0.77055(18) 0.84636(12) 0.50192(11)
C15 C 0.4289(2) 0.39423(14) 0.13529(14)
H12 H 0.4901 0.3288 0.1491
H13 H 0.4446 0.4074 0.0540
H14 H 0.2905 0.3674 0.1434
C16 C 0.37353(18) 0.69620(13) 0.50673(11)
C17 C 0.3629(2) 0.82022(14) 0.54351(12)
H15 H 0.4364 0.8841 0.5090
C18 C 0.2455(2) 0.85120(17) 0.63036(13)
H16 H 0.2394 0.9361 0.6553
C19 C 0.1375(2) 0.75827(19) 0.68029(14)
H17 H 0.0572 0.7793 0.7396
C20 C 0.1462(2) 0.63526(18) 0.64427(14)
H18 H 0.0718 0.5717 0.6789
C21 C 0.2633(2) 0.60356(15) 0.55756(13)
H19 H 0.2681 0.5184 0.5329
H20 H 1.081(2) 0.6152(15) 0.0762(15)
H21 H 1.012(3) 0.8526(17) 0.3587(16)
loop_
_geom_bond_atom_site_label_1
_geom_bond_atom_site_label_2
_geom_bond_site_symmetry_1
_geom_bond_site_symmetry_2
O1 C13 1_555 1_555
N1 C6 1_555 1_555
N2 C6 1_555 1_555
N3 C14 1_555 1_555
C1 H1 1_555 1_555
H2 C1 1_555 1_555
C2 C1 1_555 1_555
H3 C2 1_555 1_555
H4 C2 1_555 1_555
C3 C2 1_555 1_555
H5 C3 1_555 1_555
H6 C3 1_555 1_555
C4 C3 1_555 1_555
H7 C4 1_555 1_555
H8 C4 1_555 1_555
C5 C4 1_555 1_555
H9 C5 1_555 1_555
H10 C5 1_555 1_555
C6 C1 1_555 1_555
C7 N1 1_555 1_555
C8 C7 1_555 1_555
C9 C8 1_555 1_555
C10 C9 1_555 1_555
H11 C10 1_555 1_555
C11 C10 1_555 1_555
C12 C7 1_555 1_555
C13 N2 1_555 1_555
C14 C8 1_555 1_555
C15 C11 1_555 1_555
H12 C15 1_555 1_555
H13 C15 1_555 1_555
H14 C15 1_555 1_555
C16 C9 1_555 1_555
C17 C16 1_555 1_555
H15 C17 1_555 1_555
C18 C17 1_555 1_555
H16 C18 1_555 1_555
C19 C18 1_555 1_555
H17 C19 1_555 1_555
C20 C19 1_555 1_555
H18 C20 1_555 1_555
C21 C16 1_555 1_555
H19 C21 1_555 1_555
H20 N2 1_555 1_555
H21 N1 1_555 1_555
C5 C6 1_555 1_555
C11 C12 1_555 1_555
C12 C13 1_555 1_555
C20 C21 1_555 1_555

#END
