
#######################################################################
#
#                 Cambridge Crystallographic Data Centre
#                                CCDC 
#
#######################################################################
#
# If this CIF has been generated from an entry in the Cambridge 
# Structural Database, then it will include bibliographic, chemical, 
# crystal, experimental, refinement or atomic coordinate data resulting 
# from the CCDC's data processing and validation procedures.
#
#######################################################################

data_EVECEP
_chemical_formula_moiety         'C17 H15 N1 O3 S1'
_chemical_name_systematic        
5-(((4-methylphenyl)sulfonyl)methyl)-2-phenyl-1,3-oxazole
_symmetry_cell_setting           triclinic
_symmetry_space_group_name_H-M   'P -1'
_symmetry_Int_Tables_number      2
_space_group_name_Hall           '-P 1'
loop_
_symmetry_equiv_pos_site_id
_symmetry_equiv_pos_as_xyz
1 x,y,z
2 -x,-y,-z
_cell_length_a                   6.0578(6)
_cell_length_b                   11.1512(14)
_cell_length_c                   11.9001(15)
_cell_angle_alpha                71.535(12)
_cell_angle_beta                 86.207(9)
_cell_angle_gamma                89.004(9)
_cell_volume                     760.811
_exptl_crystal_colour            'light yellow'
_exptl_crystal_description       parallelepiped
_cell_formula_units_Z            2
loop_
_atom_site_label
_atom_site_type_symbol
_atom_site_fract_x
_atom_site_fract_y
_atom_site_fract_z
S1 S 0.27134(12) 0.49539(7) 0.32857(7)
O1 O 0.4451(3) 0.57217(19) 0.34697(18)
O2 O 0.0582(3) 0.55118(19) 0.30050(19)
O3 O 0.0979(3) 0.19999(17) 0.38523(15)
N1 N -0.2426(4) 0.1570(2) 0.4704(2)
C1 C 0.3644(4) 0.4294(2) 0.2181(2)
C2 C 0.5766(5) 0.3817(3) 0.2196(2)
H1 H 0.6738 0.3923 0.2730
C3 C 0.6420(5) 0.3184(3) 0.1411(3)
H2 H 0.7839 0.2848 0.1433
C4 C 0.5040(5) 0.3031(3) 0.0590(3)
C5 C 0.2954(5) 0.3559(3) 0.0561(3)
H3 H 0.2016 0.3499 -0.0007
C6 C 0.2238(5) 0.4173(3) 0.1355(3)
H4 H 0.0816 0.4505 0.1335
C7 C 0.5812(6) 0.2303(3) -0.0238(3)
H5 H 0.7302 0.2021 -0.0087
H6 H 0.5760 0.2840 -0.1045
H7 H 0.4864 0.1584 -0.0107
C8 C 0.2369(4) 0.3616(3) 0.4605(2)
H8 H 0.3750 0.3152 0.4724
H9 H 0.2055 0.3915 0.5280
C9 C 0.0593(4) 0.2750(2) 0.4571(2)
C10 C -0.1444(4) 0.2482(3) 0.5076(2)
H10 H -0.2118 0.2856 0.5607
C11 C -0.0932(4) 0.1320(2) 0.3983(2)
C12 C -0.1041(4) 0.0464(2) 0.3283(2)
C13 C -0.2944(5) -0.0251(3) 0.3370(3)
H11 H -0.4146 -0.0183 0.3874
C14 C -0.3043(6) -0.1061(3) 0.2708(3)
H12 H -0.4315 -0.1538 0.2766
C15 C -0.1260(6) -0.1168(3) 0.1956(3)
H13 H -0.1331 -0.1721 0.1517
C16 C 0.0607(5) -0.0460(3) 0.1859(3)
H14 H 0.1795 -0.0525 0.1346
C17 C 0.0734(5) 0.0353(3) 0.2524(3)
H15 H 0.2012 0.0826 0.2462
loop_
_geom_bond_atom_site_label_1
_geom_bond_atom_site_label_2
_geom_bond_site_symmetry_1
_geom_bond_site_symmetry_2
S1 O1 1_555 1_555
O2 S1 1_555 1_555
O3 C9 1_555 1_555
N1 C10 1_555 1_555
C1 S1 1_555 1_555
C2 C1 1_555 1_555
H1 C2 1_555 1_555
C3 C2 1_555 1_555
H2 C3 1_555 1_555
C4 C3 1_555 1_555
C5 C4 1_555 1_555
H3 C5 1_555 1_555
C6 C1 1_555 1_555
H4 C6 1_555 1_555
C7 C4 1_555 1_555
H5 C7 1_555 1_555
H6 C7 1_555 1_555
H7 C7 1_555 1_555
C8 S1 1_555 1_555
H8 C8 1_555 1_555
H9 C8 1_555 1_555
C9 C8 1_555 1_555
C10 C9 1_555 1_555
H10 C10 1_555 1_555
C11 O3 1_555 1_555
C12 C11 1_555 1_555
C13 C12 1_555 1_555
H11 C13 1_555 1_555
C14 C13 1_555 1_555
H12 C14 1_555 1_555
C15 C14 1_555 1_555
H13 C15 1_555 1_555
C16 C15 1_555 1_555
H14 C16 1_555 1_555
C17 C12 1_555 1_555
H15 C17 1_555 1_555
N1 C11 1_555 1_555
C5 C6 1_555 1_555
C16 C17 1_555 1_555

#END
