
#######################################################################
#
#                 Cambridge Crystallographic Data Centre
#                                CCDC 
#
#######################################################################
#
# If this CIF has been generated from an entry in the Cambridge 
# Structural Database, then it will include bibliographic, chemical, 
# crystal, experimental, refinement or atomic coordinate data resulting 
# from the CCDC's data processing and validation procedures.
#
#######################################################################

data_EVEFOC
_chemical_formula_moiety         'C17 H15 I1 N2 O5 S1'
_chemical_name_systematic        
N-(2-iodo-3-((4-methylphenyl)sulfonyl)prop-2-en-1-yl)-4-nitrobenzamide
_symmetry_cell_setting           triclinic
_symmetry_space_group_name_H-M   'P -1'
_symmetry_Int_Tables_number      2
_space_group_name_Hall           '-P 1'
loop_
_symmetry_equiv_pos_site_id
_symmetry_equiv_pos_as_xyz
1 x,y,z
2 -x,-y,-z
_cell_length_a                   10.3360(7)
_cell_length_b                   13.7149(9)
_cell_length_c                   14.1776(8)
_cell_angle_alpha                85.839(5)
_cell_angle_beta                 74.352(6)
_cell_angle_gamma                76.639(6)
_cell_volume                     1882.79
_exptl_crystal_colour            yellow
_exptl_crystal_description       parallelepiped
_cell_formula_units_Z            4
loop_
_atom_site_label
_atom_site_type_symbol
_atom_site_fract_x
_atom_site_fract_y
_atom_site_fract_z
I1 I 0.21518(5) 0.60542(4) 0.14603(4)
S1 S 0.0117(2) 0.33855(19) 0.12953(18)
O1 O 0.0029(8) 0.2907(6) 0.2210(5)
O2 O -0.1125(6) 0.3782(6) 0.0985(6)
O3 O -0.1611(5) 0.5491(4) 0.3638(4)
O4 O -0.3051(10) 0.9446(6) 0.6849(7)
O5 O -0.1459(9) 1.0000(6) 0.5857(6)
N1 N 0.0605(5) 0.5326(4) 0.3603(4)
H1 H 0.1185 0.5530 0.3833
N2 N -0.2100(9) 0.9359(6) 0.6126(6)
C1 C 0.1234(7) 0.2534(6) 0.0389(6)
C2 C 0.2137(9) 0.1717(7) 0.0650(7)
H2 H 0.2169 0.1606 0.1299
C3 C 0.3003(9) 0.1058(7) -0.0085(8)
H3 H 0.3625 0.0507 0.0076
C4 C 0.2942(9) 0.1220(6) -0.1042(7)
C5 C 0.2020(9) 0.2039(7) -0.1268(6)
H4 H 0.1975 0.2151 -0.1914
C6 C 0.1161(8) 0.2696(7) -0.0554(7)
H5 H 0.0538 0.3245 -0.0717
C7 C 0.3896(12) 0.0503(8) -0.1849(9)
H6 H 0.4469 -0.0023 -0.1565
H7 H 0.3352 0.0219 -0.2158
H8 H 0.4464 0.0865 -0.2326
C8 C 0.0932(7) 0.4380(6) 0.1185(6)
H9 H 0.1173 0.4652 0.0559
C9 C 0.1256(6) 0.4802(5) 0.1885(5)
C10 C 0.1098(7) 0.4486(5) 0.2938(5)
H10 H 0.0458 0.4045 0.3111
H11 H 0.1981 0.4111 0.3018
C11 C -0.0728(7) 0.5794(6) 0.3869(5)
C12 C -0.1064(6) 0.6732(5) 0.4460(5)
C13 C -0.2272(7) 0.6931(5) 0.5201(5)
H12 H -0.2863 0.6491 0.5327
C14 C -0.2600(8) 0.7795(6) 0.5757(5)
H13 H -0.3393 0.7924 0.6272
C15 C -0.1755(7) 0.8440(5) 0.5539(5)
C16 C -0.0549(8) 0.8289(6) 0.4795(6)
H14 H 0.0012 0.8750 0.4655
C17 C -0.0220(8) 0.7403(6) 0.4265(5)
H15 H 0.0592 0.7264 0.3767
I2 I 0.38529(6) 0.40341(4) 0.86544(4)
S2 S 0.47715(17) 0.72406(13) 0.82752(13)
O6 O 0.6146(5) 0.7236(5) 0.8319(4)
O7 O 0.4362(5) 0.7599(4) 0.7400(3)
O8 O 0.6620(5) 0.4731(4) 0.6157(4)
O9 O 0.6441(9) 0.0051(6) 0.4228(6)
O10 O 0.8155(9) 0.0534(6) 0.3277(6)
N3 N 0.4385(5) 0.4747(4) 0.6411(4)
H16 H 0.3777 0.4484 0.6278
N4 N 0.7143(9) 0.0660(6) 0.3966(6)
C18 C 0.3587(6) 0.7912(5) 0.9275(5)
C19 C 0.4015(8) 0.8027(6) 1.0093(5)
H17 H 0.4929 0.7788 1.0105
C20 C 0.3045(10) 0.8512(7) 1.0902(6)
H18 H 0.3323 0.8591 1.1458
C21 C 0.1679(9) 0.8880(6) 1.0901(6)
C22 C 0.1304(9) 0.8777(6) 1.0066(7)
H19 H 0.0399 0.9040 1.0042
C23 C 0.2240(7) 0.8290(6) 0.9256(6)
H20 H 0.1958 0.8218 0.8700
C24 C 0.0641(12) 0.9395(8) 1.1798(8)
H21 H 0.1091 0.9396 1.2308
H22 H 0.0265 1.0072 1.1630
H23 H -0.0087 0.9040 1.2021
C25 C 0.4517(7) 0.6016(5) 0.8569(5)
H24 H 0.4623 0.5762 0.9176
C26 C 0.4192(6) 0.5420(5) 0.8020(5)
C27 C 0.3923(7) 0.5628(5) 0.7028(5)
H25 H 0.2943 0.5881 0.7108
H26 H 0.4390 0.6146 0.6703
C28 C 0.5702(6) 0.4337(5) 0.6047(5)
C29 C 0.6061(6) 0.3369(5) 0.5516(5)
C30 C 0.5247(8) 0.2680(6) 0.5767(6)
H27 H 0.4449 0.2816 0.6277
C31 C 0.5603(8) 0.1778(6) 0.5266(6)
H28 H 0.5060 0.1305 0.5436
C32 C 0.6782(8) 0.1614(6) 0.4516(5)
C33 C 0.7628(7) 0.2280(6) 0.4247(5)
H29 H 0.8423 0.2140 0.3734
C34 C 0.7271(7) 0.3163(5) 0.4756(5)
H30 H 0.7834 0.3622 0.4594
loop_
_geom_bond_atom_site_label_1
_geom_bond_atom_site_label_2
_geom_bond_site_symmetry_1
_geom_bond_site_symmetry_2
I1 C9 1_555 1_555
S1 O1 1_555 1_555
O2 S1 1_555 1_555
O3 C11 1_555 1_555
O4 N2 1_555 1_555
O5 N2 1_555 1_555
N1 H1 1_555 1_555
N2 C15 1_555 1_555
C1 S1 1_555 1_555
C2 C1 1_555 1_555
H2 C2 1_555 1_555
C3 C2 1_555 1_555
H3 C3 1_555 1_555
C4 C3 1_555 1_555
C5 C4 1_555 1_555
H4 C5 1_555 1_555
C6 C1 1_555 1_555
H5 C6 1_555 1_555
C7 C4 1_555 1_555
H6 C7 1_555 1_555
H7 C7 1_555 1_555
H8 C7 1_555 1_555
C8 S1 1_555 1_555
H9 C8 1_555 1_555
C9 C8 1_555 1_555
C10 N1 1_555 1_555
H10 C10 1_555 1_555
H11 C10 1_555 1_555
C11 N1 1_555 1_555
C12 C11 1_555 1_555
C13 C12 1_555 1_555
H12 C13 1_555 1_555
C14 C13 1_555 1_555
H13 C14 1_555 1_555
C15 C14 1_555 1_555
C16 C15 1_555 1_555
H14 C16 1_555 1_555
C17 C12 1_555 1_555
H15 C17 1_555 1_555
I2 C26 1_555 1_555
S2 O6 1_555 1_555
O7 S2 1_555 1_555
O8 C28 1_555 1_555
O9 N4 1_555 1_555
O10 N4 1_555 1_555
N3 H16 1_555 1_555
N4 C32 1_555 1_555
C18 S2 1_555 1_555
C19 C18 1_555 1_555
H17 C19 1_555 1_555
C20 C19 1_555 1_555
H18 C20 1_555 1_555
C21 C20 1_555 1_555
C22 C21 1_555 1_555
H19 C22 1_555 1_555
C23 C18 1_555 1_555
H20 C23 1_555 1_555
C24 C21 1_555 1_555
H21 C24 1_555 1_555
H22 C24 1_555 1_555
H23 C24 1_555 1_555
C25 S2 1_555 1_555
H24 C25 1_555 1_555
C26 C25 1_555 1_555
C27 N3 1_555 1_555
H25 C27 1_555 1_555
H26 C27 1_555 1_555
C28 N3 1_555 1_555
C29 C28 1_555 1_555
C30 C29 1_555 1_555
H27 C30 1_555 1_555
C31 C30 1_555 1_555
H28 C31 1_555 1_555
C32 C31 1_555 1_555
C33 C32 1_555 1_555
H29 C33 1_555 1_555
C34 C29 1_555 1_555
H30 C34 1_555 1_555
C5 C6 1_555 1_555
C9 C10 1_555 1_555
C16 C17 1_555 1_555
C22 C23 1_555 1_555
C26 C27 1_555 1_555
C33 C34 1_555 1_555

#END
