
#######################################################################
#
#                 Cambridge Crystallographic Data Centre
#                                CCDC 
#
#######################################################################
#
# If this CIF has been generated from an entry in the Cambridge 
# Structural Database, then it will include bibliographic, chemical, 
# crystal, experimental, refinement or atomic coordinate data resulting 
# from the CCDC's data processing and validation procedures.
#
#######################################################################

data_EVEFOB
_chemical_formula_moiety         'C21 H22 N2 O4'
_chemical_name_systematic        
'Ethyl 2-[1,3-dioxo-6-(piperidin-1-yl)-2,3-dihydro-1H-benz[de]isoquinolin-2-yl]acetate'
_symmetry_cell_setting           orthorhombic
_symmetry_space_group_name_H-M   'P n a 21'
_symmetry_Int_Tables_number      33
_space_group_name_Hall           'P 2c -2n'
loop_
_symmetry_equiv_pos_site_id
_symmetry_equiv_pos_as_xyz
1 x,y,z
2 -x,-y,1/2+z
3 1/2+x,1/2-y,z
4 1/2-x,1/2+y,1/2+z
_cell_length_a                   10.959(2)
_cell_length_b                   18.037(4)
_cell_length_c                   9.3330(19)
_cell_angle_alpha                90
_cell_angle_beta                 90
_cell_angle_gamma                90
_cell_volume                     1844.83
_exptl_crystal_colour            brown
_exptl_crystal_description       needle
_chemical_melting_point          '421 K'
_cell_formula_units_Z            4
_exptl_crystal_recrystallization_method ethanol
loop_
_atom_site_label
_atom_site_type_symbol
_atom_site_fract_x
_atom_site_fract_y
_atom_site_fract_z
N1 N 0.4405(3) 0.21405(16) 0.7011(4)
O1 O 0.2714(3) -0.10503(17) 0.4672(4)
C1 C 0.5640(4) 0.2215(2) 0.7609(5)
H1 H 0.6237 0.2174 0.6846
H2 H 0.5788 0.1818 0.8288
N2 N 0.2974(3) -0.13210(17) 0.7041(4)
O2 O 0.3201(3) -0.15994(17) 0.9379(4)
C2 C 0.5780(5) 0.2952(2) 0.8348(6)
H3 H 0.6605 0.3000 0.8713
H4 H 0.5223 0.2979 0.9154
O3 O 0.3649(3) -0.32513(15) 0.7198(5)
C3 C 0.5511(5) 0.3589(3) 0.7302(7)
H5 H 0.5523 0.4058 0.7811
H6 H 0.6133 0.3604 0.6564
O4 O 0.4935(3) -0.22931(16) 0.7031(4)
C4 C 0.4263(4) 0.3472(2) 0.6620(6)
H7 H 0.3635 0.3527 0.7345
H8 H 0.4129 0.3848 0.5894
C5 C 0.4158(4) 0.2712(2) 0.5944(5)
H9 H 0.3344 0.2645 0.5558
H10 H 0.4737 0.2669 0.5161
C6 C 0.3992(3) 0.1420(2) 0.6730(4)
C7 C 0.3691(4) 0.1189(2) 0.5352(5)
H11 H 0.3725 0.1524 0.4595
C8 C 0.3337(4) 0.0458(3) 0.5101(5)
H12 H 0.3136 0.0311 0.4175
C9 C 0.3280(3) -0.0048(2) 0.6196(5)
C10 C 0.3521(3) 0.0175(2) 0.7621(4)
C11 C 0.3431(3) -0.0331(2) 0.8754(5)
C12 C 0.3581(4) -0.0101(2) 1.0172(5)
H13 H 0.3535 -0.0441 1.0918
C13 C 0.3803(4) 0.0646(2) 1.0452(5)
H14 H 0.3860 0.0809 1.1395
C14 C 0.3935(4) 0.1138(2) 0.9362(5)
H15 H 0.4090 0.1633 0.9577
C15 C 0.3844(3) 0.0918(2) 0.7894(4)
C16 C 0.2971(4) -0.0830(2) 0.5885(5)
C17 C 0.3207(4) -0.1124(2) 0.8465(5)
C18 C 0.2784(3) -0.21025(19) 0.6780(6)
H16 H 0.2519 -0.2173 0.5797
H17 H 0.2143 -0.2283 0.7405
C19 C 0.3916(4) -0.2541(2) 0.7032(5)
C20 C 0.4684(6) -0.3749(3) 0.7462(10)
H18 H 0.5438 -0.3514 0.7164
H19 H 0.4742 -0.3861 0.8476
C21 C 0.4499(6) -0.4403(3) 0.6680(9)
H20 H 0.5188 -0.4726 0.6805
H21 H 0.4409 -0.4285 0.5683
H22 H 0.3775 -0.4647 0.7017
loop_
_geom_bond_atom_site_label_1
_geom_bond_atom_site_label_2
_geom_bond_site_symmetry_1
_geom_bond_site_symmetry_2
N1 C1 1_555 1_555
O1 C16 1_555 1_555
C1 H1 1_555 1_555
H2 C1 1_555 1_555
N2 C16 1_555 1_555
O2 C17 1_555 1_555
C2 C1 1_555 1_555
H3 C2 1_555 1_555
H4 C2 1_555 1_555
O3 C19 1_555 1_555
C3 C2 1_555 1_555
H5 C3 1_555 1_555
H6 C3 1_555 1_555
O4 C19 1_555 1_555
C4 C3 1_555 1_555
H7 C4 1_555 1_555
H8 C4 1_555 1_555
C5 N1 1_555 1_555
H9 C5 1_555 1_555
H10 C5 1_555 1_555
C6 N1 1_555 1_555
C7 C6 1_555 1_555
H11 C7 1_555 1_555
C8 C7 1_555 1_555
H12 C8 1_555 1_555
C9 C8 1_555 1_555
C10 C9 1_555 1_555
C11 C10 1_555 1_555
C12 C11 1_555 1_555
H13 C12 1_555 1_555
C13 C12 1_555 1_555
H14 C13 1_555 1_555
C14 C13 1_555 1_555
H15 C14 1_555 1_555
C15 C6 1_555 1_555
C16 C9 1_555 1_555
C17 N2 1_555 1_555
C18 N2 1_555 1_555
H16 C18 1_555 1_555
H17 C18 1_555 1_555
C19 C18 1_555 1_555
C20 O3 1_555 1_555
H18 C20 1_555 1_555
H19 C20 1_555 1_555
C21 C20 1_555 1_555
H20 C21 1_555 1_555
H21 C21 1_555 1_555
H22 C21 1_555 1_555
C4 C5 1_555 1_555
C10 C15 1_555 1_555
C11 C17 1_555 1_555
C14 C15 1_555 1_555

#END
