
#######################################################################
#
#                 Cambridge Crystallographic Data Centre
#                                CCDC 
#
#######################################################################
#
# If this CIF has been generated from an entry in the Cambridge 
# Structural Database, then it will include bibliographic, chemical, 
# crystal, experimental, refinement or atomic coordinate data resulting 
# from the CCDC's data processing and validation procedures.
#
#######################################################################

data_EVEFIV
_chemical_formula_moiety         'C56 H44 Br4 O4'
_chemical_name_systematic        
25,26,27,28-tetrakis(3-Bromobenzyloxy)calix[4]arene
_symmetry_cell_setting           monoclinic
_symmetry_space_group_name_H-M   'P 21/c'
_symmetry_Int_Tables_number      14
_space_group_name_Hall           '-P 2ybc'
loop_
_symmetry_equiv_pos_site_id
_symmetry_equiv_pos_as_xyz
1 x,y,z
2 -x,1/2+y,1/2-z
3 -x,-y,-z
4 x,1/2-y,1/2+z
_cell_length_a                   13.4377(8)
_cell_length_b                   10.4789(7)
_cell_length_c                   17.1666(12)
_cell_angle_alpha                90
_cell_angle_beta                 103.822(2)
_cell_angle_gamma                90
_cell_volume                     2347.27
_exptl_crystal_colour            colorless
_exptl_crystal_description       block
_cell_formula_units_Z            2
_exptl_crystal_recrystallization_method dichloromethane
loop_
_atom_site_label
_atom_site_type_symbol
_atom_site_fract_x
_atom_site_fract_y
_atom_site_fract_z
Br1 Br 0.41607(3) 0.68787(4) 0.35182(2)
Br2 Br 0.48689(2) 1.06993(6) 0.31500(3)
O1 O 0.15137(12) 0.85506(17) 0.55860(10)
O2 O 0.04423(11) 0.96810(15) 0.38948(9)
C1 C 0.07450(16) 0.7816(2) 0.57737(13)
C2 C 0.01333(17) 0.7075(2) 0.51741(14)
C3 C -0.06427(18) 0.6351(2) 0.53749(15)
H1 H -0.1049 0.5805 0.4983
C4 C -0.08325(19) 0.6411(2) 0.61272(15)
H2 H -0.1357 0.5902 0.6254
C5 C -0.02539(18) 0.7217(2) 0.66956(14)
H3 H -0.0405 0.7282 0.7207
C6 C 0.05422(17) 0.7931(2) 0.65368(13)
C7 C -0.04927(16) 0.9096(2) 0.35766(12)
C8 C -0.12770(17) 0.9807(2) 0.30901(13)
C9 C -0.22207(18) 0.9204(3) 0.28019(15)
H4 H -0.2775 0.9669 0.2478
C10 C -0.23581(19) 0.7942(3) 0.29812(16)
H5 H -0.3002 0.7542 0.2776
C11 C -0.15618(19) 0.7258(3) 0.34591(15)
H6 H -0.1662 0.6386 0.3573
C12 C -0.06149(17) 0.7829(2) 0.37760(13)
C13 C 0.02461(18) 0.7085(2) 0.43178(14)
H7 H 0.0241 0.6196 0.4121
H8 H 0.0912 0.7474 0.4301
C14 C -0.11303(18) 1.1161(2) 0.28319(14)
H9 H -0.1817 1.1533 0.2609
H10 H -0.0774 1.1124 0.2390
C15 C 0.25431(18) 0.8158(3) 0.59555(16)
H11 H 0.2573 0.7862 0.6508
H12 H 0.3007 0.8901 0.5991
C16 C 0.29142(17) 0.7103(3) 0.54979(16)
C17 C 0.32711(17) 0.7399(3) 0.48246(16)
H13 H 0.3272 0.8259 0.4650
C18 C 0.36244(19) 0.6437(3) 0.44102(18)
C19 C 0.3620(2) 0.5183(3) 0.4642(3)
H14 H 0.3858 0.4530 0.4348
C20 C 0.3264(3) 0.4894(3) 0.5308(3)
H15 H 0.3254 0.4032 0.5477
C21 C 0.2918(2) 0.5851(3) 0.5734(2)
H16 H 0.2681 0.5638 0.6196
C22 C 0.11169(17) 0.9651(3) 0.33740(15)
H17 H 0.0812 1.0128 0.2877
H18 H 0.1226 0.8758 0.3226
C23 C 0.21228(17) 1.0240(2) 0.37845(16)
C24 C 0.28954(19) 1.0230(3) 0.33757(17)
H19 H 0.2776 0.9876 0.2852
C25 C 0.3838(2) 1.0737(3) 0.3736(2)
C26 C 0.4038(2) 1.1250(3) 0.4500(2)
H20 H 0.4693 1.1591 0.4743
C27 C 0.3268(2) 1.1255(3) 0.4897(2)
H21 H 0.3396 1.1600 0.5423
C28 C 0.23048(19) 1.0765(2) 0.45464(17)
H22 H 0.1775 1.0789 0.4827
Br1B Br -0.41607(3) 1.31213(4) 0.64818(2)
Br2B Br -0.48689(2) 0.93007(6) 0.68500(3)
O1B O -0.15137(12) 1.14494(17) 0.44140(10)
O2B O -0.04423(11) 1.03190(15) 0.61052(9)
C1B C -0.07450(16) 1.2184(2) 0.42263(13)
C2B C -0.01333(17) 1.2925(2) 0.48259(14)
C3B C 0.06427(18) 1.3649(2) 0.46251(15)
H1B H 0.1049 1.4195 0.5017
C4B C 0.08325(19) 1.3589(2) 0.38728(15)
H2B H 0.1357 1.4098 0.3746
C5B C 0.02539(18) 1.2783(2) 0.33044(14)
H3B H 0.0405 1.2718 0.2793
C6B C -0.05422(17) 1.2069(2) 0.34632(13)
C7B C 0.04927(16) 1.0904(2) 0.64234(12)
C8B C 0.12770(17) 1.0193(2) 0.69099(13)
C9B C 0.22207(18) 1.0796(3) 0.71981(15)
H4B H 0.2775 1.0331 0.7522
C10B C 0.23581(19) 1.2058(3) 0.70188(16)
H5B H 0.3002 1.2458 0.7224
C11B C 0.15618(19) 1.2742(3) 0.65409(15)
H6B H 0.1662 1.3614 0.6427
C12B C 0.06149(17) 1.2171(2) 0.62240(13)
C13B C -0.02461(18) 1.2915(2) 0.56822(14)
H7B H -0.0241 1.3804 0.5879
H8B H -0.0912 1.2526 0.5699
C14B C 0.11303(18) 0.8839(2) 0.71681(14)
H9B H 0.1817 0.8467 0.7391
H10B H 0.0774 0.8876 0.7610
C15B C -0.25431(18) 1.1842(3) 0.40445(16)
H11B H -0.2573 1.2138 0.3492
H12B H -0.3007 1.1099 0.4009
C16B C -0.29142(17) 1.2897(3) 0.45021(16)
C17B C -0.32711(17) 1.2601(3) 0.51754(16)
H13B H -0.3272 1.1741 0.5350
C18B C -0.36244(19) 1.3563(3) 0.55898(18)
C19B C -0.3620(2) 1.4817(3) 0.5358(3)
H14B H -0.3858 1.5470 0.5652
C20B C -0.3264(3) 1.5106(3) 0.4692(3)
H15B H -0.3254 1.5968 0.4523
C21B C -0.2918(2) 1.4149(3) 0.4266(2)
H16B H -0.2681 1.4362 0.3804
C22B C -0.11169(17) 1.0349(3) 0.66260(15)
H17B H -0.0812 0.9872 0.7123
H18B H -0.1226 1.1242 0.6774
C23B C -0.21228(17) 0.9760(2) 0.62155(16)
C24B C -0.28954(19) 0.9770(3) 0.66243(17)
H19B H -0.2776 1.0124 0.7148
C25B C -0.3838(2) 0.9263(3) 0.6264(2)
C26B C -0.4038(2) 0.8750(3) 0.5500(2)
H20B H -0.4693 0.8409 0.5257
C27B C -0.3268(2) 0.8745(3) 0.5103(2)
H21B H -0.3396 0.8400 0.4577
C28B C -0.23048(19) 0.9235(2) 0.54536(17)
H22B H -0.1775 0.9211 0.5173
loop_
_geom_bond_atom_site_label_1
_geom_bond_atom_site_label_2
_geom_bond_site_symmetry_1
_geom_bond_site_symmetry_2
Br1 C18 1_555 1_555
Br2 C25 1_555 1_555
O1 C1 1_555 1_555
O2 C7 1_555 1_555
C1 C2 1_555 1_555
C2 C3 1_555 1_555
C3 H1 1_555 1_555
C4 C3 1_555 1_555
H2 C4 1_555 1_555
C5 C4 1_555 1_555
H3 C5 1_555 1_555
C6 C1 1_555 1_555
C7 C8 1_555 1_555
C8 C9 1_555 1_555
C9 H4 1_555 1_555
C10 C9 1_555 1_555
H5 C10 1_555 1_555
C11 C10 1_555 1_555
H6 C11 1_555 1_555
C12 C7 1_555 1_555
C13 C2 1_555 1_555
H7 C13 1_555 1_555
H8 C13 1_555 1_555
C14 C8 1_555 1_555
H9 C14 1_555 1_555
H10 C14 1_555 1_555
C15 O1 1_555 1_555
H11 C15 1_555 1_555
H12 C15 1_555 1_555
C16 C15 1_555 1_555
C17 C16 1_555 1_555
H13 C17 1_555 1_555
C18 C17 1_555 1_555
C19 C18 1_555 1_555
H14 C19 1_555 1_555
C20 C19 1_555 1_555
H15 C20 1_555 1_555
C21 C16 1_555 1_555
H16 C21 1_555 1_555
C22 O2 1_555 1_555
H17 C22 1_555 1_555
H18 C22 1_555 1_555
C23 C22 1_555 1_555
C24 C23 1_555 1_555
H19 C24 1_555 1_555
C25 C24 1_555 1_555
C26 C25 1_555 1_555
H20 C26 1_555 1_555
C27 C26 1_555 1_555
H21 C27 1_555 1_555
C28 C23 1_555 1_555
H22 C28 1_555 1_555
Br1B C18B 1_555 1_555
Br2B C25B 1_555 1_555
O1B C1B 1_555 1_555
O2B C7B 1_555 1_555
C1B C2B 1_555 1_555
C2B C3B 1_555 1_555
C3B H1B 1_555 1_555
C4B C3B 1_555 1_555
H2B C4B 1_555 1_555
C5B C4B 1_555 1_555
H3B C5B 1_555 1_555
C6B C14 1_555 1_555
C7B C8B 1_555 1_555
C8B C9B 1_555 1_555
C9B H4B 1_555 1_555
C10B C9B 1_555 1_555
H5B C10B 1_555 1_555
C11B C10B 1_555 1_555
H6B C11B 1_555 1_555
C12B C7B 1_555 1_555
C13B C2B 1_555 1_555
H7B C13B 1_555 1_555
H8B C13B 1_555 1_555
C14B C6 1_555 1_555
H9B C14B 1_555 1_555
H10B C14B 1_555 1_555
C15B O1B 1_555 1_555
H11B C15B 1_555 1_555
H12B C15B 1_555 1_555
C16B C15B 1_555 1_555
C17B C16B 1_555 1_555
H13B C17B 1_555 1_555
C18B C17B 1_555 1_555
C19B C18B 1_555 1_555
H14B C19B 1_555 1_555
C20B C19B 1_555 1_555
H15B C20B 1_555 1_555
C21B C16B 1_555 1_555
H16B C21B 1_555 1_555
C22B O2B 1_555 1_555
H17B C22B 1_555 1_555
H18B C22B 1_555 1_555
C23B C22B 1_555 1_555
C24B C23B 1_555 1_555
H19B C24B 1_555 1_555
C25B C24B 1_555 1_555
C26B C25B 1_555 1_555
H20B C26B 1_555 1_555
C27B C26B 1_555 1_555
H21B C27B 1_555 1_555
C28B C23B 1_555 1_555
H22B C28B 1_555 1_555
C5 C6 1_555 1_555
C11 C12 1_555 1_555
C12 C13 1_555 1_555
C20 C21 1_555 1_555
C27 C28 1_555 1_555
C1B C6B 1_555 1_555
C5B C6B 1_555 1_555
C8B C14B 1_555 1_555
C11B C12B 1_555 1_555
C12B C13B 1_555 1_555
C20B C21B 1_555 1_555
C27B C28B 1_555 1_555

#END
