
#######################################################################
#
#                 Cambridge Crystallographic Data Centre
#                                CCDC 
#
#######################################################################
#
# If this CIF has been generated from an entry in the Cambridge 
# Structural Database, then it will include bibliographic, chemical, 
# crystal, experimental, refinement or atomic coordinate data resulting 
# from the CCDC's data processing and validation procedures.
#
#######################################################################

data_EVEGOD
_chemical_name_common            'alpha-cyclodextrin monohydrate'
_chemical_formula_moiety         'C36 H60 O30,H2 O1'
_chemical_name_systematic        
'5,10,15,20,25,30-hexakis(hydroxymethyl)-2,4,7,9,12,14,17,19,22,24,27,29-dodecaoxaheptacyclo[26.2.2.2^3,6^.2^8,11^.2^13,16^.2^18,21^.2^23,26^]dotetracontane-31,32,33,34,35,36,37,38,39,40,41,42-dodecol monohydrate'
_symmetry_cell_setting           orthorhombic
_symmetry_space_group_name_H-M   'P 21 21 21'
_symmetry_Int_Tables_number      19
_space_group_name_Hall           'P 2ac 2ab'
loop_
_symmetry_equiv_pos_site_id
_symmetry_equiv_pos_as_xyz
1 x,y,z
2 1/2-x,-y,1/2+z
3 1/2+x,1/2-y,-z
4 -x,1/2+y,1/2-z
_cell_length_a                   9.3667(8)
_cell_length_b                   20.0172(14)
_cell_length_c                   25.3123(18)
_cell_angle_alpha                90
_cell_angle_beta                 90
_cell_angle_gamma                90
_cell_volume                     4745.93
_exptl_crystal_colour            colorless
_exptl_crystal_description       block
_cell_formula_units_Z            4
loop_
_atom_site_label
_atom_site_type_symbol
_atom_site_fract_x
_atom_site_fract_y
_atom_site_fract_z
C1 C 0.9528(9) 0.9723(4) 0.9069(4)
C2 C 1.0496(11) 0.9992(4) 0.8614(4)
C3 C 1.2064(10) 1.0054(4) 0.8812(3)
O1 O 1.1818(7) 1.1882(3) 0.8750(2)
H1 H 1.1419 1.2246 0.8773
C4 C 1.1762(11) 0.9244(5) 0.9472(4)
C5 C 1.0167(10) 0.9097(4) 0.9299(3)
C6 C 0.8937(12) 0.8278(4) 0.9838(4)
C7 C 1.2517(15) 0.8587(7) 0.9639(5)
C8 C 0.9518(17) 0.8354(6) 1.0739(5)
C9 C 1.3237(9) 1.1055(4) 0.9207(3)
C10 C 1.0716(9) 1.2022(5) 1.2295(3)
C11 C 1.2493(9) 1.1726(4) 0.9246(3)
C12 C 0.7343(11) 0.8261(5) 0.9945(4)
C13 C 1.2875(9) 1.2440(5) 1.1876(3)
C14 C 0.930(2) 0.9415(5) 1.2167(5)
C15 C 0.8124(18) 0.9901(6) 1.2354(4)
C16 C 0.6762(18) 0.9853(7) 1.2063(4)
C17 C 0.635(2) 0.9125(7) 1.2034(4)
C18 C 0.6983(14) 0.8684(6) 1.0442(4)
C19 C 1.3764(10) 1.1692(4) 1.1209(3)
C20 C 1.058(3) 0.9415(8) 1.2560(8)
C21 C 1.1120(12) 1.1313(6) 1.2477(5)
C22 C 0.750(3) 0.8681(6) 1.1832(4)
C23 C 0.9147(9) 1.2024(4) 1.2124(4)
C24 C 0.8705(12) 1.1007(5) 1.2710(3)
C25 C 0.8209(9) 1.1708(5) 1.2540(3)
C26 C 1.3496(10) 1.2292(4) 0.9393(3)
C27 C 1.4369(9) 1.2087(4) 0.9874(3)
C28 C 1.5261(10) 1.0332(4) 0.9583(5)
C29 C 1.4218(9) 1.0910(4) 0.9665(4)
C30 C 1.3861(9) 1.2266(4) 1.0809(3)
C31 C 1.2829(9) 1.2833(4) 1.0942(3)
C32 C 1.3032(12) 1.3042(4) 1.1521(3)
C33 C 1.045(2) 0.8009(8) 1.1153(5)
C34 C 0.7947(16) 0.8410(5) 1.0896(4)
C35 C 1.4931(11) 1.1171(5) 1.1152(4)
C36 C 1.2576(13) 1.1272(11) 1.2768(9)
O2 O 1.3893(6) 1.1949(3) 1.1742(2)
O3 O 1.6321(7) 1.1445(3) 1.1255(2)
O4 O 0.9692(10) 0.7989(4) 1.0270(3)
O5 O 1.1477(6) 1.2198(4) 1.1825(2)
O6 O 0.6597(8) 0.8524(4) 0.9487(3)
H2 H 0.7179 0.8630 0.9260
O7 O 1.167(2) 0.8958(6) 1.2385(6)
H3 H 1.1329 0.8582 1.2361
O8 O 0.7760(14) 0.8903(4) 1.1298(3)
O9 O 0.6776(7) 1.1625(4) 1.2355(3)
O10 O 1.0022(9) 1.0618(4) 0.8427(3)
H4 H 1.0665 1.0894 0.8459
O11 O 0.8175(6) 0.9558(3) 0.8860(3)
H5 H 0.8020 0.9159 0.8905
O12 O 0.8628(11) 1.0595(3) 1.2270(2)
O13 O 1.2086(6) 1.0577(3) 0.9201(2)
O14 O 0.8737(8) 1.2724(3) 1.2056(3)
H6 H 0.9247 1.2897 1.1831
O15 O 0.5558(12) 0.8611(6) 1.0586(4)
H7 H 0.5394 0.8840 1.0848
O16 O 0.5612(13) 1.0229(5) 1.2313(3)
H8 H 0.5915 1.0414 1.2580
O17 O 1.0097(14) 0.7317(5) 1.1220(3)
H9 H 0.9262 0.7284 1.1314
O18 O 0.8695(19) 0.8762(4) 1.2151(3)
O19 O 0.5022(19) 0.9050(6) 1.1729(4)
H10 H 0.5142 0.8775 1.1494
O20 O 1.2562(7) 0.9458(3) 0.9013(3)
O21 O 1.6156(8) 1.0467(3) 0.9133(4)
H11 H 1.6713 1.0155 0.9090
O22 O 1.5113(6) 1.1484(3) 0.9770(2)
O23 O 1.2798(8) 1.2875(3) 0.9524(2)
H12 H 1.2319 1.3001 0.9272
O24 O 1.3428(6) 1.2004(3) 1.0305(2)
O25 O 1.1993(11) 1.3534(4) 1.1645(3)
H13 H 1.2097 1.3857 1.1450
O26 O 1.3139(7) 1.3403(3) 1.0621(2)
H14 H 1.3039 1.3305 1.0308
O27 O 0.9346(8) 0.8942(3) 0.9745(2)
O28 O 1.2652(14) 1.1789(10) 1.3197(6)
O29 O 1.0168(8) 1.1080(4) 1.2887(2)
O30 O 1.291(7) 0.890(3) 1.0133(19)
O31 O 0.4810(18) 0.7412(8) 1.2049(6)
C37? C 1.250(3) 0.8105(13) 0.9182(11)
O32? O 0.4153(15) 0.7483(7) 1.1561(5)
loop_
_geom_bond_atom_site_label_1
_geom_bond_atom_site_label_2
_geom_bond_site_symmetry_1
_geom_bond_site_symmetry_2
C1 C2 1_555 1_555
C2 C3 1_555 1_555
C3 O13 1_555 1_555
O1 H1 1_555 1_555
C4 C5 1_555 1_555
C5 C1 1_555 1_555
C6 C12 1_555 1_555
C7 C4 1_555 1_555
C8 C33 1_555 1_555
C9 C11 1_555 1_555
C10 C21 1_555 1_555
C11 O1 1_555 1_555
C12 C18 1_555 1_555
C13 C32 1_555 1_555
C14 C15 1_555 1_555
C15 C16 1_555 1_555
C16 C17 1_555 1_555
C17 C22 1_555 1_555
C18 C34 1_555 1_555
C19 C30 1_555 1_555
C20 C14 1_555 1_555
C21 C36 1_555 1_555
C22 O8 1_555 1_555
C23 C10 1_555 1_555
C24 C25 1_555 1_555
C25 C23 1_555 1_555
C26 C11 1_555 1_555
C27 C26 1_555 1_555
C28 C29 1_555 1_555
C29 C9 1_555 1_555
C30 C31 1_555 1_555
C31 C32 1_555 1_555
C32 O25 1_555 1_555
C33 O17 1_555 1_555
C34 C8 1_555 1_555
C35 C19 1_555 1_555
C36 O28 1_555 1_555
O2 C13 1_555 1_555
O3 C35 1_555 1_555
O4 C6 1_555 1_555
O5 C10 1_555 1_555
O6 C12 1_555 1_555
H2 O6 1_555 1_555
O7 C20 1_555 1_555
H3 O7 1_555 1_555
O8 C34 1_555 1_555
O9 C25 1_555 1_555
O10 C2 1_555 1_555
H4 O10 1_555 1_555
O11 C1 1_555 1_555
H5 O11 1_555 1_555
O12 C15 1_555 1_555
O13 C9 1_555 1_555
O14 C23 1_555 1_555
H6 O14 1_555 1_555
O15 C18 1_555 1_555
H7 O15 1_555 1_555
O16 C16 1_555 1_555
H8 O16 1_555 1_555
O17 H9 1_555 1_555
O18 C14 1_555 1_555
O19 C17 1_555 1_555
H10 O19 1_555 1_555
O20 C3 1_555 1_555
O21 C28 1_555 1_555
H11 O21 1_555 1_555
O22 C27 1_555 1_555
O23 C26 1_555 1_555
H12 O23 1_555 1_555
O24 C27 1_555 1_555
O25 H13 1_555 1_555
O26 C31 1_555 1_555
H14 O26 1_555 1_555
O27 C5 1_555 1_555
O29 C21 1_555 1_555
O30 C7 1_555 1_555
C4 O20 1_555 1_555
C6 O27 1_555 1_555
C8 O4 1_555 1_555
C13 O5 1_555 1_555
C19 O2 1_555 1_555
C22 O18 1_555 1_555
C24 O12 1_555 1_555
C24 O29 1_555 1_555
C29 O22 1_555 1_555
C30 O24 1_555 1_555

#END
