
#######################################################################
#
#                 Cambridge Crystallographic Data Centre
#                                CCDC 
#
#######################################################################
#
# If this CIF has been generated from an entry in the Cambridge 
# Structural Database, then it will include bibliographic, chemical, 
# crystal, experimental, refinement or atomic coordinate data resulting 
# from the CCDC's data processing and validation procedures.
#
#######################################################################

data_EVEGUJ
_chemical_formula_moiety         'C17 H19 N1 O4 S1'
_chemical_name_systematic        
N-(2-hydroxy-3-((4-methylphenyl)sulfonyl)propyl)benzamide
_symmetry_cell_setting           monoclinic
_symmetry_space_group_name_H-M   'P 21/c'
_symmetry_Int_Tables_number      14
_space_group_name_Hall           '-P 2ybc'
loop_
_symmetry_equiv_pos_site_id
_symmetry_equiv_pos_as_xyz
1 x,y,z
2 -x,1/2+y,1/2-z
3 -x,-y,-z
4 x,1/2-y,1/2+z
_cell_length_a                   17.8165(19)
_cell_length_b                   11.3743(8)
_cell_length_c                   8.1626(7)
_cell_angle_alpha                90
_cell_angle_beta                 93.490(9)
_cell_angle_gamma                90
_cell_volume                     1651.08
_exptl_crystal_colour            brown
_exptl_crystal_description       parallelepiped
_cell_formula_units_Z            4
loop_
_atom_site_label
_atom_site_type_symbol
_atom_site_fract_x
_atom_site_fract_y
_atom_site_fract_z
S1 S 0.26675(7) 0.61591(11) 1.05019(15)
O1 O 0.2553(2) 0.7311(3) 1.1161(5)
O2 O 0.2759(2) 0.5180(4) 1.1606(4)
O3 O 0.09894(18) 0.5553(3) 1.0946(4)
H1 H 0.080(2) 0.592(3) 1.146(5)
O4 O 0.01646(17) 0.8512(2) 0.8357(4)
N1 N -0.0159(2) 0.6630(3) 0.8668(4)
H2 H -0.048(2) 0.612(3) 0.896(4)
C1 C 0.3476(2) 0.6198(4) 0.9386(6)
C2 C 0.3877(10) 0.719(2) 0.896(3)
H3 H 0.3658 0.7870 0.9349
C3 C 0.4386(8) 0.7410(14) 0.828(2)
H4 H 0.4517 0.8178 0.8034
C4 C 0.4794(9) 0.6473(14) 0.785(2)
C5 C 0.4567(8) 0.5330(13) 0.8405(19)
H5 H 0.4872 0.4677 0.8274
C6 C 0.3885(8) 0.5216(16) 0.9143(19)
H6 H 0.3715 0.4482 0.9462
C7 C 0.5523(6) 0.6624(16) 0.6967(16)
H7 H 0.5556 0.7416 0.6574
H8 H 0.5523 0.6089 0.6056
H9 H 0.5945 0.6460 0.7718
C8 C 0.1919(2) 0.5888(3) 0.9023(5)
H10 H 0.2018 0.6299 0.8017
H11 H 0.1900 0.5053 0.8782
C9 C 0.1163(2) 0.6277(3) 0.9589(5)
H12 H 0.1201 0.7097 0.9956
C10 C 0.0563(2) 0.6187(3) 0.8227(5)
H13 H 0.0721 0.6622 0.7286
H14 H 0.0507 0.5369 0.7904
C11 C -0.0314(2) 0.7776(3) 0.8677(5)
C12 C -0.1082(2) 0.8135(3) 0.9084(5)
C13 C -0.1709(3) 0.7451(4) 0.8734(6)
H15 H -0.1656 0.6710 0.8272
C14 C -0.2416(3) 0.7851(5) 0.9060(7)
H16 H -0.2836 0.7387 0.8800
C15 C -0.2497(3) 0.8939(5) 0.9771(7)
H17 H -0.2973 0.9215 0.9986
C16 C -0.1877(3) 0.9608(4) 1.0157(5)
H18 H -0.1932 1.0334 1.0659
C17 C -0.1172(3) 0.9224(4) 0.9815(5)
H19 H -0.0755 0.9694 1.0074
C18? C 0.3733(10) 0.7282(19) 0.908(3)
H20? H 0.3510 0.7993 0.9339
C19? C 0.4554(8) 0.7089(13) 0.812(2)
C20? C 0.4775(9) 0.6047(13) 0.764(2)
C21? C 0.4335(8) 0.5144(12) 0.774(2)
H21? H 0.4451 0.4458 0.7188
C22? C 0.3698(8) 0.5163(15) 0.8637(19)
H22? H 0.3418 0.4480 0.8739
C23? C 0.5501(6) 0.5921(16) 0.6742(16)
H23? H 0.5622 0.5103 0.6639
H24? H 0.5903 0.6315 0.7355
H25? H 0.5432 0.6266 0.5670
loop_
_geom_bond_atom_site_label_1
_geom_bond_atom_site_label_2
_geom_bond_site_symmetry_1
_geom_bond_site_symmetry_2
S1 O1 1_555 1_555
O2 S1 1_555 1_555
O3 H1 1_555 1_555
O4 C11 1_555 1_555
N1 H2 1_555 1_555
C1 S1 1_555 1_555
C2 C1 1_555 1_555
H3 C2 1_555 1_555
C3 C2 1_555 1_555
H4 C3 1_555 1_555
C4 C3 1_555 1_555
C5 C4 1_555 1_555
H5 C5 1_555 1_555
C6 C1 1_555 1_555
H6 C6 1_555 1_555
C7 C4 1_555 1_555
H7 C7 1_555 1_555
H8 C7 1_555 1_555
H9 C7 1_555 1_555
C8 S1 1_555 1_555
H10 C8 1_555 1_555
H11 C8 1_555 1_555
C9 O3 1_555 1_555
H12 C9 1_555 1_555
C10 N1 1_555 1_555
H13 C10 1_555 1_555
H14 C10 1_555 1_555
C11 N1 1_555 1_555
C12 C11 1_555 1_555
C13 C12 1_555 1_555
H15 C13 1_555 1_555
C14 C13 1_555 1_555
H16 C14 1_555 1_555
C15 C14 1_555 1_555
H17 C15 1_555 1_555
C16 C15 1_555 1_555
H18 C16 1_555 1_555
C17 C12 1_555 1_555
H19 C17 1_555 1_555
C5 C6 1_555 1_555
C8 C9 1_555 1_555
C9 C10 1_555 1_555
C16 C17 1_555 1_555

#END
