
#######################################################################
#
#                 Cambridge Crystallographic Data Centre
#                                CCDC 
#
#######################################################################
#
# If this CIF has been generated from an entry in the Cambridge 
# Structural Database, then it will include bibliographic, chemical, 
# crystal, experimental, refinement or atomic coordinate data resulting 
# from the CCDC's data processing and validation procedures.
#
#######################################################################

data_EVEJUL
_chemical_formula_moiety         'C13 H9 Cl2 N1 O1'
_chemical_name_systematic        2,6-Dichloro-N-phenylbenzamide
_symmetry_cell_setting           monoclinic
_symmetry_space_group_name_H-M   'P 21/c'
_symmetry_Int_Tables_number      14
_space_group_name_Hall           '-P 2ybc'
loop_
_symmetry_equiv_pos_site_id
_symmetry_equiv_pos_as_xyz
1 x,y,z
2 -x,1/2+y,1/2-z
3 -x,-y,-z
4 x,1/2-y,1/2+z
_cell_length_a                   12.378(3)
_cell_length_b                   11.657(2)
_cell_length_c                   17.525(4)
_cell_angle_alpha                90
_cell_angle_beta                 91.43(3)
_cell_angle_gamma                90
_cell_volume                     2527.9
_exptl_crystal_colour            colorless
_exptl_crystal_description       block
_cell_formula_units_Z            8
_exptl_crystal_recrystallization_method ethanol
loop_
_atom_site_label
_atom_site_type_symbol
_atom_site_fract_x
_atom_site_fract_y
_atom_site_fract_z
Cl1 Cl 0.97924(12) 0.86429(16) -0.00070(10)
N1 N 1.2544(2) 0.8856(3) 0.00933(17)
H1 H 1.2464 0.8846 0.0579
O1 O 1.2151(2) 0.7888(3) -0.10032(14)
C1 C 1.3839(4) 0.9621(4) -0.0806(3)
H2 H 1.3899 0.8905 -0.1035
Cl2 Cl 1.31603(18) 0.57910(17) 0.01462(10)
C2 C 1.4429(4) 1.0533(5) -0.1066(3)
H3 H 1.4888 1.0421 -0.1471
C3 C 1.4363(4) 1.1573(5) -0.0756(3)
H4 H 1.4769 1.2179 -0.0942
C4 C 1.3676(5) 1.1736(4) -0.0149(3)
H5 H 1.3620 1.2457 0.0075
C5 C 1.3076(4) 1.0833(4) 0.0123(3)
H6 H 1.2615 1.0945 0.0528
C6 C 1.3161(3) 0.9770(4) -0.0205(2)
C7 C 1.2075(3) 0.8004(3) -0.0308(2)
C8 C 1.1439(4) 0.7168(4) 0.0145(2)
C9 C 1.1858(5) 0.6147(5) 0.0379(3)
C10 C 1.1226(9) 0.5356(7) 0.0811(4)
H7 H 1.1506 0.4658 0.0981
C11 C 1.0196(9) 0.5681(8) 0.0959(5)
H8 H 0.9770 0.5185 0.1238
C12 C 0.9770(6) 0.6660(7) 0.0728(3)
H9 H 0.9061 0.6841 0.0843
C13 C 1.0376(5) 0.7408(4) 0.0320(2)
Cl3 Cl 0.66623(13) 0.16121(13) 0.29111(9)
Cl4 Cl 0.69136(12) 0.58215(11) 0.17119(8)
O2 O 0.7863(2) 0.4326(3) 0.32969(15)
N2 N 0.8572(2) 0.3470(3) 0.22519(16)
H10 H 0.8389 0.3164 0.1821
C14 C 1.0337(3) 0.2715(4) 0.2072(2)
H11 H 1.0021 0.2178 0.1743
C15 C 1.1440(4) 0.2708(4) 0.2186(3)
H12 H 1.1866 0.2176 0.1935
C16 C 1.1907(4) 0.3504(5) 0.2678(3)
H13 H 1.2651 0.3510 0.2762
C17 C 1.1277(4) 0.4273(5) 0.3037(3)
H14 H 1.1596 0.4807 0.3366
C18 C 1.0159(4) 0.4280(4) 0.2922(2)
H15 H 0.9735 0.4811 0.3174
C19 C 0.9687(3) 0.3490(3) 0.2431(2)
C20 C 0.7758(3) 0.3869(3) 0.2669(2)
C21 C 0.6667(3) 0.3711(4) 0.2297(2)
C22 C 0.6084(4) 0.2723(4) 0.2402(2)
C23 C 0.5063(5) 0.2590(5) 0.2082(3)
H16 H 0.4684 0.1911 0.2154
C24 C 0.4610(4) 0.3457(7) 0.1659(3)
H17 H 0.3915 0.3377 0.1452
C25 C 0.5177(4) 0.4442(6) 0.1540(3)
H18 H 0.4874 0.5027 0.1244
C26 C 0.6198(4) 0.4571(4) 0.1857(2)
loop_
_geom_bond_atom_site_label_1
_geom_bond_atom_site_label_2
_geom_bond_site_symmetry_1
_geom_bond_site_symmetry_2
Cl1 C13 1_555 1_555
N1 H1 1_555 1_555
O1 C7 1_555 1_555
C1 H2 1_555 1_555
Cl2 C9 1_555 1_555
C2 C1 1_555 1_555
H3 C2 1_555 1_555
C3 C2 1_555 1_555
H4 C3 1_555 1_555
C4 C3 1_555 1_555
H5 C4 1_555 1_555
C5 C4 1_555 1_555
H6 C5 1_555 1_555
C6 N1 1_555 1_555
C7 N1 1_555 1_555
C8 C7 1_555 1_555
C9 C8 1_555 1_555
C10 C9 1_555 1_555
H7 C10 1_555 1_555
C11 C10 1_555 1_555
H8 C11 1_555 1_555
C12 C11 1_555 1_555
H9 C12 1_555 1_555
C13 C8 1_555 1_555
Cl3 C22 1_555 1_555
Cl4 C26 1_555 1_555
O2 C20 1_555 1_555
N2 H10 1_555 1_555
C14 H11 1_555 1_555
C15 C14 1_555 1_555
H12 C15 1_555 1_555
C16 C15 1_555 1_555
H13 C16 1_555 1_555
C17 C16 1_555 1_555
H14 C17 1_555 1_555
C18 C17 1_555 1_555
H15 C18 1_555 1_555
C19 N2 1_555 1_555
C20 N2 1_555 1_555
C21 C20 1_555 1_555
C22 C21 1_555 1_555
C23 C22 1_555 1_555
H16 C23 1_555 1_555
C24 C23 1_555 1_555
H17 C24 1_555 1_555
C25 C24 1_555 1_555
H18 C25 1_555 1_555
C26 C21 1_555 1_555
C1 C6 1_555 1_555
C5 C6 1_555 1_555
C12 C13 1_555 1_555
C14 C19 1_555 1_555
C18 C19 1_555 1_555
C25 C26 1_555 1_555

#END
