
#######################################################################
#
#                 Cambridge Crystallographic Data Centre
#                                CCDC 
#
#######################################################################
#
# If this CIF has been generated from an entry in the Cambridge 
# Structural Database, then it will include bibliographic, chemical, 
# crystal, experimental, refinement or atomic coordinate data resulting 
# from the CCDC's data processing and validation procedures.
#
#######################################################################

data_EVEKOG
_chemical_formula_moiety         'C15 H23 N2 S1 1+,0.5(H2 O1),Cl1 1-'
_chemical_name_systematic        
'(6aS,11aR,11cS)-8-Sulfanylidene-2,3,5,6,6a,7,11,11a,11b,11c-decahydro-3a,7a-diaza-1H,4H-benzo[de]anthracen-3a-ium chloride hemihydrate'
_symmetry_cell_setting           tetragonal
_symmetry_space_group_name_H-M   'P 41 21 2'
_symmetry_Int_Tables_number      92
_space_group_name_Hall           'P 4abw 2nw'
loop_
_symmetry_equiv_pos_site_id
_symmetry_equiv_pos_as_xyz
1 x,y,z
2 -x,-y,1/2+z
3 1/2-y,1/2+x,1/4+z
4 1/2+y,1/2-x,3/4+z
5 1/2-x,1/2+y,1/4-z
6 1/2+x,1/2-y,3/4-z
7 y,x,-z
8 -y,-x,1/2-z
_cell_length_a                   7.793(5)
_cell_length_b                   7.793(5)
_cell_length_c                   52.59(5)
_cell_angle_alpha                90
_cell_angle_beta                 90
_cell_angle_gamma                90
_cell_volume                     3193.84
_exptl_crystal_colour            yellow
_exptl_crystal_description       block
_cell_formula_units_Z            8
loop_
_atom_site_label
_atom_site_type_symbol
_atom_site_fract_x
_atom_site_fract_y
_atom_site_fract_z
S1 S 0.6279(2) 0.2217(2) 0.11342(2)
N1 N 0.4499(5) 0.8604(6) 0.05841(7)
N2 N 0.6084(5) 0.4228(5) 0.07265(6)
C1 C 0.7029(6) 0.3215(6) 0.08746(8)
C2 C 0.8817(7) 0.2948(7) 0.08006(9)
H1 H 0.9548 0.2386 0.0913
C3 C 0.9422(7) 0.3467(8) 0.05836(10)
H2 H 1.0566 0.3260 0.0544
C4 C 0.8319(7) 0.4387(7) 0.03976(9)
H3 H 0.7864 0.3570 0.0276
H4 H 0.9011 0.5211 0.0305
C5 C 0.6831(6) 0.5324(6) 0.05266(7)
H5 H 0.5944 0.5540 0.0398
C6 C 0.7298(6) 0.7046(6) 0.06520(7)
H6 H 0.8128 0.6796 0.0787
C7 C 0.8144(7) 0.8338(7) 0.04731(10)
H7 H 0.8599 0.9285 0.0572
H8 H 0.9096 0.7789 0.0387
C8 C 0.6899(7) 0.9026(7) 0.02780(10)
H9 H 0.6499 0.8097 0.0170
H10 H 0.7472 0.9864 0.0171
C9 C 0.5388(7) 0.9856(7) 0.04105(10)
H11 H 0.5785 1.0832 0.0509
H12 H 0.4580 1.0271 0.0284
C10 C 0.2988(7) 0.9449(8) 0.07086(11)
H13 H 0.3382 1.0390 0.0814
H14 H 0.2236 0.9916 0.0579
C11 C 0.2019(7) 0.8205(8) 0.08673(10)
H15 H 0.1539 0.7319 0.0759
H16 H 0.1076 0.8793 0.0950
C12 C 0.3168(7) 0.7373(8) 0.10691(10)
H17 H 0.3504 0.8233 0.1193
H18 H 0.2523 0.6490 0.1157
C13 C 0.4772(6) 0.6578(7) 0.09521(8)
H19 H 0.5549 0.6309 0.1093
C14 C 0.5717(6) 0.7830(6) 0.07802(8)
H20 H 0.6122 0.8773 0.0888
C15 C 0.4427(6) 0.4900(7) 0.08132(8)
H21 H 0.3878 0.4086 0.0926
H22 H 0.3676 0.5098 0.0669
H23 H 0.390(8) 0.755(8) 0.0486(10)
Cl1 Cl 0.2534(2) 0.6515(3) 0.01987(3)
O2 O 0.0693(14) 0.0693(14) 0.0000
O1? O 0.2960(17) 0.2869(17) 0.0131(3)
loop_
_geom_bond_atom_site_label_1
_geom_bond_atom_site_label_2
_geom_bond_site_symmetry_1
_geom_bond_site_symmetry_2
S1 C1 1_555 1_555
N1 C9 1_555 1_555
N2 C1 1_555 1_555
C1 C2 1_555 1_555
C2 H1 1_555 1_555
C3 C2 1_555 1_555
H2 C3 1_555 1_555
C4 C3 1_555 1_555
H3 C4 1_555 1_555
H4 C4 1_555 1_555
C5 N2 1_555 1_555
H5 C5 1_555 1_555
C6 C5 1_555 1_555
H6 C6 1_555 1_555
C7 C6 1_555 1_555
H7 C7 1_555 1_555
H8 C7 1_555 1_555
C8 C7 1_555 1_555
H9 C8 1_555 1_555
H10 C8 1_555 1_555
C9 C8 1_555 1_555
H11 C9 1_555 1_555
H12 C9 1_555 1_555
C10 N1 1_555 1_555
H13 C10 1_555 1_555
H14 C10 1_555 1_555
C11 C10 1_555 1_555
H15 C11 1_555 1_555
H16 C11 1_555 1_555
C12 C11 1_555 1_555
H17 C12 1_555 1_555
H18 C12 1_555 1_555
C13 C12 1_555 1_555
H19 C13 1_555 1_555
C14 N1 1_555 1_555
H20 C14 1_555 1_555
C15 N2 1_555 1_555
H21 C15 1_555 1_555
H22 C15 1_555 1_555
H23 N1 1_555 1_555
C4 C5 1_555 1_555
C6 C14 1_555 1_555
C13 C14 1_555 1_555
C13 C15 1_555 1_555

#END
