
#######################################################################
#
#                 Cambridge Crystallographic Data Centre
#                                CCDC 
#
#######################################################################
#
# If this CIF has been generated from an entry in the Cambridge 
# Structural Database, then it will include bibliographic, chemical, 
# crystal, experimental, refinement or atomic coordinate data resulting 
# from the CCDC's data processing and validation procedures.
#
#######################################################################

data_EVEKEW
_chemical_formula_moiety         'C16 H21 N1 P1 1+,I1 1-'
_chemical_name_systematic        
'(Isopropylamino)(methyl)diphenylphosphonium iodide'
_symmetry_cell_setting           monoclinic
_symmetry_space_group_name_H-M   'P 21/n'
_symmetry_Int_Tables_number      14
_space_group_name_Hall           '-P 2yn'
loop_
_symmetry_equiv_pos_site_id
_symmetry_equiv_pos_as_xyz
1 x,y,z
2 1/2-x,1/2+y,1/2-z
3 -x,-y,-z
4 1/2+x,1/2-y,1/2+z
_cell_length_a                   9.0283(2)
_cell_length_b                   20.2810(6)
_cell_length_c                   9.2298(3)
_cell_angle_alpha                90
_cell_angle_beta                 93.492(2)
_cell_angle_gamma                90
_cell_volume                     1686.87
_exptl_crystal_colour            colorless
_exptl_crystal_description       prism
_cell_formula_units_Z            4
_exptl_crystal_recrystallization_method dichloromethane/n-hexane
loop_
_atom_site_label
_atom_site_type_symbol
_atom_site_fract_x
_atom_site_fract_y
_atom_site_fract_z
C1 C 0.3442(2) 0.76211(8) 0.30748(19)
H1 H 0.4488 0.7578 0.2787
C2 C 0.3472(3) 0.78356(12) 0.4653(2)
H2 H 0.3970 0.8264 0.4762
H3 H 0.4011 0.7508 0.5260
H4 H 0.2454 0.7874 0.4955
C3 C 0.2667(2) 0.69656(9) 0.2829(2)
H5 H 0.1616 0.7012 0.3019
H6 H 0.3127 0.6635 0.3487
H7 H 0.2755 0.6825 0.1822
C4 C 0.36979(17) 0.94492(8) 0.24664(16)
C5 C 0.4810(2) 0.99058(9) 0.22218(18)
H8 H 0.5504 0.9820 0.1511
C6 C 0.4901(2) 1.04863(9) 0.3019(2)
H9 H 0.5654 1.0800 0.2853
C7 C 0.3891(2) 1.06068(9) 0.40561(19)
H10 H 0.3950 1.1006 0.4596
C8 C 0.28023(19) 1.01536(9) 0.43122(18)
H11 H 0.2124 1.0239 0.5037
C9 C 0.26912(18) 0.95730(8) 0.35172(16)
H12 H 0.1934 0.9262 0.3689
C10 C 0.23107(17) 0.89557(8) -0.02177(16)
C11 C 0.1988(2) 0.84705(9) -0.12705(18)
H13 H 0.2304 0.8029 -0.1107
C12 C 0.1206(2) 0.86407(10) -0.25494(18)
H14 H 0.0985 0.8315 -0.3270
C13 C 0.0743(2) 0.92834(11) -0.27819(19)
H15 H 0.0212 0.9397 -0.3667
C14 C 0.1045(2) 0.97639(10) -0.17426(19)
H16 H 0.0716 1.0204 -0.1909
C15 C 0.18339(18) 0.95991(9) -0.04522(17)
H17 H 0.2046 0.9926 0.0267
N1 N 0.26667(16) 0.81103(7) 0.21097(14)
P1 P 0.34534(4) 0.87284(2) 0.13541(4)
C16 C 0.52126(19) 0.84672(9) 0.07819(19)
H18 H 0.5904 0.8409 0.1633
H19 H 0.5603 0.8801 0.0139
H20 H 0.5097 0.8048 0.0260
H21 H 0.180(2) 0.8158(10) 0.223(2)
I1 I -0.103895(11) 0.834024(5) 0.344262(11)
loop_
_geom_bond_atom_site_label_1
_geom_bond_atom_site_label_2
_geom_bond_site_symmetry_1
_geom_bond_site_symmetry_2
C1 H1 1_555 1_555
C2 C1 1_555 1_555
H2 C2 1_555 1_555
H3 C2 1_555 1_555
H4 C2 1_555 1_555
C3 C1 1_555 1_555
H5 C3 1_555 1_555
H6 C3 1_555 1_555
H7 C3 1_555 1_555
C4 C5 1_555 1_555
C5 H8 1_555 1_555
C6 C5 1_555 1_555
H9 C6 1_555 1_555
C7 C6 1_555 1_555
H10 C7 1_555 1_555
C8 C7 1_555 1_555
H11 C8 1_555 1_555
C9 C4 1_555 1_555
H12 C9 1_555 1_555
C10 C11 1_555 1_555
C11 H13 1_555 1_555
C12 C11 1_555 1_555
H14 C12 1_555 1_555
C13 C12 1_555 1_555
H15 C13 1_555 1_555
C14 C13 1_555 1_555
H16 C14 1_555 1_555
C15 C10 1_555 1_555
H17 C15 1_555 1_555
N1 C1 1_555 1_555
P1 C4 1_555 1_555
C16 P1 1_555 1_555
H18 C16 1_555 1_555
H19 C16 1_555 1_555
H20 C16 1_555 1_555
H21 N1 1_555 1_555
C8 C9 1_555 1_555
C10 P1 1_555 1_555
C14 C15 1_555 1_555
N1 P1 1_555 1_555

#END
