
#######################################################################
#
#                 Cambridge Crystallographic Data Centre
#                                CCDC 
#
#######################################################################
#
# If this CIF has been generated from an entry in the Cambridge 
# Structural Database, then it will include bibliographic, chemical, 
# crystal, experimental, refinement or atomic coordinate data resulting 
# from the CCDC's data processing and validation procedures.
#
#######################################################################

data_EVEMAU
_chemical_name_common            
N'-((2-Hydroxy-1-naphthyl)methylene)nicotinohydrazide
_chemical_formula_moiety         'C17 H13 N3 O2'
_chemical_name_systematic        
(E)-N'-[(2-Hydroxynaphthalen-1-yl)methylidene]nicotinohydrazide
_symmetry_cell_setting           orthorhombic
_symmetry_space_group_name_H-M   'P 21 21 21'
_symmetry_Int_Tables_number      19
_space_group_name_Hall           'P 2ac 2ab'
loop_
_symmetry_equiv_pos_site_id
_symmetry_equiv_pos_as_xyz
1 x,y,z
2 1/2-x,-y,1/2+z
3 -x,1/2+y,1/2-z
4 1/2+x,1/2-y,-z
_cell_length_a                   6.253(2)
_cell_length_b                   12.335(4)
_cell_length_c                   18.511(7)
_cell_angle_alpha                90
_cell_angle_beta                 90
_cell_angle_gamma                90
_cell_volume                     1427.77
_exptl_crystal_colour            colorless
_exptl_crystal_description       block
_cell_formula_units_Z            4
loop_
_atom_site_label
_atom_site_type_symbol
_atom_site_fract_x
_atom_site_fract_y
_atom_site_fract_z
O1 O 0.7202(5) 0.4933(3) 0.16836(14)
H1 H 0.6042 0.5236 0.1638
O2 O 0.2100(5) 0.6667(3) 0.21269(15)
N1 N 0.4016(5) 0.5735(3) 0.09932(17)
N2 N 0.2169(6) 0.6340(3) 0.09272(17)
N3 N -0.3466(6) 0.8162(3) 0.06814(18)
C1 C 0.6656(6) 0.4675(3) 0.0409(2)
C2 C 0.7836(7) 0.4540(3) 0.1040(2)
C3 C 0.9784(7) 0.3984(3) 0.1031(3)
H2 H 1.0544 0.3890 0.1459
C4 C 1.0576(7) 0.3579(3) 0.0404(3)
H3 H 1.1884 0.3220 0.0410
C5 C 0.9465(7) 0.3688(3) -0.0257(3)
C6 C 1.0301(8) 0.3281(3) -0.0913(3)
H4 H 1.1625 0.2938 -0.0914
C7 C 0.9201(10) 0.3384(4) -0.1541(3)
H5 H 0.9771 0.3110 -0.1968
C8 C 0.7219(9) 0.3898(4) -0.1546(2)
H6 H 0.6467 0.3963 -0.1978
C9 C 0.6364(7) 0.4310(3) -0.0923(2)
H7 H 0.5034 0.4646 -0.0937
C10 C 0.7465(7) 0.4234(3) -0.0255(2)
C11 C 0.4700(6) 0.5284(3) 0.0414(2)
H8 H 0.3917 0.5354 -0.0011
C12 C 0.1344(7) 0.6808(3) 0.1530(2)
C13 C -0.0594(7) 0.7491(3) 0.1416(2)
C14 C -0.1289(10) 0.8127(4) 0.1977(2)
H9 H -0.0557 0.8128 0.2414
C15 C -0.3062(10) 0.8761(5) 0.1888(3)
H10 H -0.3548 0.9196 0.2264
C16 C -0.4116(8) 0.8747(4) 0.1241(2)
H11 H -0.5343 0.9167 0.1191
C17 C -0.1735(7) 0.7550(3) 0.0787(2)
H12 H -0.1266 0.7129 0.0402
H13 H 0.165(7) 0.648(3) 0.0485(11)
loop_
_geom_bond_atom_site_label_1
_geom_bond_atom_site_label_2
_geom_bond_site_symmetry_1
_geom_bond_site_symmetry_2
O1 H1 1_555 1_555
O2 C12 1_555 1_555
N1 N2 1_555 1_555
N2 C12 1_555 1_555
N3 C16 1_555 1_555
C1 C2 1_555 1_555
C2 O1 1_555 1_555
C3 C2 1_555 1_555
H2 C3 1_555 1_555
C4 C3 1_555 1_555
H3 C4 1_555 1_555
C5 C4 1_555 1_555
C6 C5 1_555 1_555
H4 C6 1_555 1_555
C7 C6 1_555 1_555
H5 C7 1_555 1_555
C8 C7 1_555 1_555
H6 C8 1_555 1_555
C9 C8 1_555 1_555
H7 C9 1_555 1_555
C10 C1 1_555 1_555
C11 N1 1_555 1_555
H8 C11 1_555 1_555
C12 C13 1_555 1_555
C13 C14 1_555 1_555
C14 H9 1_555 1_555
C15 C14 1_555 1_555
H10 C15 1_555 1_555
C16 C15 1_555 1_555
H11 C16 1_555 1_555
C17 N3 1_555 1_555
H12 C17 1_555 1_555
H13 N2 1_555 1_555
C1 C11 1_555 1_555
C5 C10 1_555 1_555
C9 C10 1_555 1_555
C13 C17 1_555 1_555

#END
