
#######################################################################
#
#                 Cambridge Crystallographic Data Centre
#                                CCDC 
#
#######################################################################
#
# If this CIF has been generated from an entry in the Cambridge 
# Structural Database, then it will include bibliographic, chemical, 
# crystal, experimental, refinement or atomic coordinate data resulting 
# from the CCDC's data processing and validation procedures.
#
#######################################################################

data_EVENOI
_chemical_name_common            
'(E,Z)-1-Methyl-2-(3-(pyrid-2-yl)ureido)pyridinium iodide'
_chemical_formula_moiety         'C12 H13 N4 O1 1+,I1 1-'
_chemical_name_systematic        
'(E,Z)-1-Methyl-2-(3-(pyrid-2-yl)uronio)pyridine iodide'
_symmetry_cell_setting           triclinic
_symmetry_space_group_name_H-M   'P -1'
_symmetry_Int_Tables_number      2
_space_group_name_Hall           '-P 1'
loop_
_symmetry_equiv_pos_site_id
_symmetry_equiv_pos_as_xyz
1 x,y,z
2 -x,-y,-z
_cell_length_a                   7.6700(2)
_cell_length_b                   12.2458(3)
_cell_length_c                   16.1077(4)
_cell_angle_alpha                70.0790(10)
_cell_angle_beta                 87.3290(10)
_cell_angle_gamma                72.5450(10)
_cell_volume                     1354.28
_exptl_crystal_colour            colorless
_chemical_melting_point          187-190deg.C
_cell_formula_units_Z            4
_exptl_crystal_recrystallization_method methanol
loop_
_atom_site_label
_atom_site_type_symbol
_atom_site_fract_x
_atom_site_fract_y
_atom_site_fract_z
I1 I -0.00699(12) 0.46529(7) 0.25512(5)
I2 I 0.39026(12) 0.77536(7) 0.25596(5)
O1 O 0.4827(16) 0.0152(8) 0.3720(6)
N1 N 0.4774(15) 0.2102(8) 0.2869(6)
H1 H 0.4620(15) 0.2597(8) 0.2331(6)
N2 N 0.4220(15) 0.0759(8) 0.2257(7)
H2 H 0.4101(15) 0.0050(8) 0.2355(7)
N3 N 0.5279(13) 0.3665(8) 0.3223(6)
N4 N 0.4068(15) 0.2626(10) 0.1172(7)
C1 C 0.4610(17) 0.0969(10) 0.3005(8)
C2 C 0.5157(17) 0.2518(10) 0.3504(8)
C3 C 0.5449(20) 0.1844(12) 0.4417(9)
H5 H 0.5369(20) 0.1054(12) 0.4630(9)
C4 C 0.5848(21) 0.2353(13) 0.4982(8)
H6 H 0.6065(21) 0.1902(13) 0.5582(8)
C5 C 0.5936(19) 0.3530(12) 0.4676(9)
H7 H 0.6174(19) 0.3886(12) 0.5066(9)
C6 C 0.5667(19) 0.4166(13) 0.3786(9)
H8 H 0.5755(19) 0.4954(13) 0.3570(9)
C7 C 0.5015(19) 0.4407(10) 0.2273(8)
H9 H 0.4747(19) 0.3950(10) 0.1943(8)
H10 H 0.6112(19) 0.4615(10) 0.2077(8)
H11 H 0.4015(19) 0.5139(10) 0.2183(8)
C8 C 0.3986(16) 0.1499(11) 0.1371(8)
C9 C 0.3652(19) 0.1033(13) 0.0728(10)
H12 H 0.3578(19) 0.0244(13) 0.0887(10)
C10 C 0.3443(20) 0.1758(14) -0.0115(9)
H13 H 0.3237(20) 0.1473(14) -0.0556(9)
C11 C 0.3532(21) 0.2926(15) -0.0336(10)
H14 H 0.3362(21) 0.3437(15) -0.0924(10)
C12 C 0.3863(21) 0.3325(12) 0.0294(9)
H15 H 0.3958(21) 0.4109(12) 0.0132(9)
O2 O -0.0144(17) 1.1037(9) 0.3704(6)
N5 N -0.0832(14) 1.0021(8) 0.2871(6)
H3 H -0.1018(14) 1.0083(8) 0.2333(6)
N6 N -0.0545(15) 1.1955(9) 0.2235(6)
H4 H -0.0310(15) 1.2553(9) 0.2321(6)
N7 N -0.1135(14) 0.8086(9) 0.3252(6)
N8 N -0.1234(15) 1.1230(10) 0.1154(7)
C13 C -0.0495(18) 1.0982(10) 0.3010(7)
C14 C -0.0899(17) 0.8965(10) 0.3524(8)
C15 C -0.0697(20) 0.8736(12) 0.4429(8)
H16 H -0.0498(20) 0.9319(12) 0.4629(8)
C16 C -0.0791(21) 0.7651(12) 0.5021(9)
H17 H -0.0682(21) 0.7505(12) 0.5625(9)
C17 C -0.1049(20) 0.6768(12) 0.4729(9)
H18 H -0.1095(20) 0.6023(12) 0.5127(9)
C18 C -0.1233(19) 0.7023(12) 0.3840(9)
H19 H -0.1433(19) 0.6445(12) 0.3634(9)
C19 C -0.1293(20) 0.8273(11) 0.2295(7)
H20 H -0.1200(20) 0.9065(11) 0.1954(7)
H21 H -0.2455(20) 0.8215(11) 0.2151(7)
H22 H -0.0326(20) 0.7660(11) 0.2161(7)
C20 C -0.0912(17) 1.2151(12) 0.1326(8)
C21 C -0.0888(17) 1.3225(12) 0.0711(9)
H23 H -0.0645(17) 1.3826(12) 0.0875(9)
C22 C -0.1232(21) 1.3403(14) -0.0159(10)
H24 H -0.1232(21) 1.4129(14) -0.0600(10)
C23 C -0.1577(21) 1.2482(15) -0.0366(9)
H25 H -0.1818(21) 1.2580(15) -0.0952(9)
C24 C -0.1562(19) 1.1433(14) 0.0288(10)
H26 H -0.1789(19) 1.0820(14) 0.0135(10)
loop_
_geom_bond_atom_site_label_1
_geom_bond_atom_site_label_2
_geom_bond_site_symmetry_1
_geom_bond_site_symmetry_2
O1 C1 1_555 1_555
O2 C13 1_555 1_555
N1 H1 1_555 1_555
N2 H2 1_555 1_555
N3 C2 1_555 1_555
N4 C8 1_555 1_555
N5 H3 1_555 1_555
N6 H4 1_555 1_555
N7 C14 1_555 1_555
N8 C20 1_555 1_555
C1 N1 1_555 1_555
C2 N1 1_555 1_555
C3 C2 1_555 1_555
H5 C3 1_555 1_555
C4 C3 1_555 1_555
H6 C4 1_555 1_555
C5 C4 1_555 1_555
H7 C5 1_555 1_555
C6 N3 1_555 1_555
H8 C6 1_555 1_555
C7 N3 1_555 1_555
H9 C7 1_555 1_555
H10 C7 1_555 1_555
H11 C7 1_555 1_555
C8 N2 1_555 1_555
C9 C8 1_555 1_555
H12 C9 1_555 1_555
C10 C9 1_555 1_555
H13 C10 1_555 1_555
C11 C10 1_555 1_555
H14 C11 1_555 1_555
C12 N4 1_555 1_555
H15 C12 1_555 1_555
C13 N5 1_555 1_555
C14 N5 1_555 1_555
C15 C14 1_555 1_555
H16 C15 1_555 1_555
C16 C15 1_555 1_555
H17 C16 1_555 1_555
C17 C16 1_555 1_555
H18 C17 1_555 1_555
C18 N7 1_555 1_555
H19 C18 1_555 1_555
C19 N7 1_555 1_555
H20 C19 1_555 1_555
H21 C19 1_555 1_555
H22 C19 1_555 1_555
C20 N6 1_555 1_555
C21 C20 1_555 1_555
H23 C21 1_555 1_555
C22 C21 1_555 1_555
H24 C22 1_555 1_555
C23 C22 1_555 1_555
H25 C23 1_555 1_555
C24 N8 1_555 1_555
H26 C24 1_555 1_555
N2 C1 1_555 1_555
N6 C13 1_555 1_555
C5 C6 1_555 1_555
C11 C12 1_555 1_555
C17 C18 1_555 1_555
C23 C24 1_555 1_555

#END
