
#######################################################################
#
#                 Cambridge Crystallographic Data Centre
#                                CCDC 
#
#######################################################################
#
# If this CIF has been generated from an entry in the Cambridge 
# Structural Database, then it will include bibliographic, chemical, 
# crystal, experimental, refinement or atomic coordinate data resulting 
# from the CCDC's data processing and validation procedures.
#
#######################################################################

data_EVEQIG
_chemical_name_common            
3-(3,4-Dimethoxyphenyl)-3-(4-fluorophenyl)-1-(morpholin-4-yl)prop-2-en-1-one
_chemical_formula_moiety         'C21 H22 F1 N1 O4'
_chemical_name_systematic        
(Z)-3-(3,4-Dimethoxyphenyl)-3-(4-fluorophenyl)-1-morpholinoprop-2-en-1-omicronne
_symmetry_cell_setting           monoclinic
_symmetry_space_group_name_H-M   'P 21/c'
_symmetry_Int_Tables_number      14
_space_group_name_Hall           '-P 2ybc'
loop_
_symmetry_equiv_pos_site_id
_symmetry_equiv_pos_as_xyz
1 x,y,z
2 -x,1/2+y,1/2-z
3 -x,-y,-z
4 x,1/2-y,1/2+z
_cell_length_a                   6.4963(18)
_cell_length_b                   13.306(4)
_cell_length_c                   20.890(6)
_cell_angle_alpha                90
_cell_angle_beta                 95.651(4)
_cell_angle_gamma                90
_cell_volume                     1796.95
_exptl_crystal_colour            colorless
_exptl_crystal_description       prism
_cell_formula_units_Z            4
loop_
_atom_site_label
_atom_site_type_symbol
_atom_site_fract_x
_atom_site_fract_y
_atom_site_fract_z
F1 F 0.8136(2) 0.40799(13) -0.02485(8)
O1 O 0.0240(2) 0.26719(12) 0.34490(8)
O2 O 0.3744(2) 0.32110(12) 0.40261(8)
O3 O 0.4465(2) 0.66020(12) 0.32079(8)
O4 O 1.0853(2) 0.61491(12) 0.46137(8)
N1 N 0.7861(3) 0.63993(14) 0.35473(9)
C1 C 0.1421(3) 0.32636(17) 0.30920(12)
C2 C 0.3331(3) 0.35649(17) 0.34125(11)
C3 C 0.4633(3) 0.41694(16) 0.31010(11)
H1 H 0.5914 0.4374 0.3321
C4 C 0.4115(3) 0.44909(17) 0.24662(11)
C5 C 0.2246(3) 0.41741(17) 0.21506(11)
H2 H 0.1879 0.4370 0.1717
C6 C 0.0898(3) 0.35698(17) 0.24639(11)
H3 H -0.0386 0.3368 0.2244
C7 C -0.1556(3) 0.21977(18) 0.31262(12)
H4 H -0.2509 0.2713 0.2938
H5 H -0.2247 0.1797 0.3436
H6 H -0.1139 0.1759 0.2785
C8 C 0.5605(3) 0.35492(19) 0.43833(12)
H7 H 0.6800 0.3322 0.4170
H8 H 0.5687 0.3273 0.4820
H9 H 0.5603 0.4285 0.4404
C9 C 0.5592(3) 0.51373(17) 0.21513(11)
C10 C 0.6104(3) 0.48695(17) 0.14952(12)
C11 C 0.6589(4) 0.56046(19) 0.10521(12)
H10 H 0.6452 0.6295 0.1155
C12 C 0.7261(4) 0.5340(2) 0.04685(13)
H11 H 0.7575 0.5842 0.0170
C13 C 0.7468(4) 0.4343(2) 0.03280(12)
C14 C 0.6999(4) 0.3593(2) 0.07389(12)
H12 H 0.7154 0.2907 0.0628
C15 C 0.6292(3) 0.38614(18) 0.13209(12)
H13 H 0.5929 0.3350 0.1606
C16 C 0.6596(3) 0.59017(17) 0.24583(11)
H14 H 0.7663 0.6210 0.2248
C17 C 0.6207(3) 0.63187(17) 0.31001(12)
C18 C 0.7732(4) 0.69660(18) 0.41400(11)
H15 H 0.6262 0.7082 0.4205
H16 H 0.8403 0.7629 0.4104
C19 C 0.8775(3) 0.64070(19) 0.47103(11)
H17 H 0.8772 0.6831 0.5100
H18 H 0.7987 0.5787 0.4782
C20 C 1.0895(4) 0.55327(19) 0.40550(11)
H19 H 1.0116 0.4906 0.4114
H20 H 1.2344 0.5348 0.4001
C21 C 0.9958(3) 0.60684(18) 0.34551(12)
H21 H 1.0820 0.6656 0.3366
H22 H 0.9918 0.5608 0.3082
loop_
_geom_bond_atom_site_label_1
_geom_bond_atom_site_label_2
_geom_bond_site_symmetry_1
_geom_bond_site_symmetry_2
F1 C13 1_555 1_555
O1 C1 1_555 1_555
O2 C2 1_555 1_555
O3 C17 1_555 1_555
O4 C19 1_555 1_555
N1 C17 1_555 1_555
C1 C2 1_555 1_555
C2 C3 1_555 1_555
C3 H1 1_555 1_555
C4 C3 1_555 1_555
C5 C4 1_555 1_555
H2 C5 1_555 1_555
C6 C1 1_555 1_555
H3 C6 1_555 1_555
C7 O1 1_555 1_555
H4 C7 1_555 1_555
H5 C7 1_555 1_555
H6 C7 1_555 1_555
C8 O2 1_555 1_555
H7 C8 1_555 1_555
H8 C8 1_555 1_555
H9 C8 1_555 1_555
C9 C4 1_555 1_555
C10 C9 1_555 1_555
C11 C10 1_555 1_555
H10 C11 1_555 1_555
C12 C11 1_555 1_555
H11 C12 1_555 1_555
C13 C12 1_555 1_555
C14 C13 1_555 1_555
H12 C14 1_555 1_555
C15 C10 1_555 1_555
H13 C15 1_555 1_555
C16 C9 1_555 1_555
H14 C16 1_555 1_555
C17 C16 1_555 1_555
C18 N1 1_555 1_555
H15 C18 1_555 1_555
H16 C18 1_555 1_555
C19 C18 1_555 1_555
H17 C19 1_555 1_555
H18 C19 1_555 1_555
C20 O4 1_555 1_555
H19 C20 1_555 1_555
H20 C20 1_555 1_555
C21 N1 1_555 1_555
H21 C21 1_555 1_555
H22 C21 1_555 1_555
C5 C6 1_555 1_555
C14 C15 1_555 1_555
C20 C21 1_555 1_555

#END
