
#######################################################################
#
#                 Cambridge Crystallographic Data Centre
#                                CCDC 
#
#######################################################################
#
# If this CIF has been generated from an entry in the Cambridge 
# Structural Database, then it will include bibliographic, chemical, 
# crystal, experimental, refinement or atomic coordinate data resulting 
# from the CCDC's data processing and validation procedures.
#
#######################################################################

data_EVESUU
_chemical_name_common            
3-(4-Amino-3-phenyl-5-thioxo-4,5-dihydro-1H-1,2,4-triazol-1-yl)-3-(2-chlorophenyl)-1-phenylpropan-1-one
_chemical_formula_moiety         'C23 H19 Cl1 N4 O1 S1'
_chemical_name_systematic        
3-(4-Amino-3-phenyl-5-sulfanylidene-4,5-dihydro-1H-1,2,4-triazol-1-yl)-3-(2-chlorophenyl)-1-phenylpropan-1-one
_symmetry_cell_setting           triclinic
_symmetry_space_group_name_H-M   'P -1'
_symmetry_Int_Tables_number      2
_space_group_name_Hall           '-P 1'
loop_
_symmetry_equiv_pos_site_id
_symmetry_equiv_pos_as_xyz
1 x,y,z
2 -x,-y,-z
_cell_length_a                   10.559(3)
_cell_length_b                   10.787(4)
_cell_length_c                   10.835(3)
_cell_angle_alpha                99.582(2)
_cell_angle_beta                 96.638(4)
_cell_angle_gamma                115.267(3)
_cell_volume                     1076.09
_exptl_crystal_colour            colorless
_exptl_crystal_description       prism
_cell_formula_units_Z            2
loop_
_atom_site_label
_atom_site_type_symbol
_atom_site_fract_x
_atom_site_fract_y
_atom_site_fract_z
S1 S 0.87508(4) 0.30026(4) 0.43912(3)
Cl1 Cl 1.14768(4) 0.15222(4) 0.21807(4)
O1 O 0.70047(10) 0.13775(10) 0.05439(9)
N1 N 0.90922(11) 0.39665(11) 0.22109(10)
N2 N 0.88351(11) 0.48767(11) 0.15864(10)
N3 N 0.81314(11) 0.49054(11) 0.34152(9)
N4 N 0.75491(14) 0.52876(15) 0.44374(11)
C1 C 0.86846(13) 0.39575(13) 0.33424(11)
C2 C 0.82420(13) 0.54367(13) 0.23458(11)
C3 C 0.98141(13) 0.31632(13) 0.17006(12)
H1 H 0.9499 0.2301 0.2049
C4 C 0.93753(13) 0.26682(13) 0.02470(11)
H2 H 0.9598 0.3500 -0.0121
H3 H 0.9946 0.2203 -0.0067
C5 C 0.77970(14) 0.16486(13) -0.02188(12)
C6 C 0.72490(13) 0.09573(13) -0.16117(12)
C7 C 0.58247(14) -0.00620(14) -0.20344(13)
H4 H 0.5211 -0.0281 -0.1443
C8 C 0.53048(15) -0.07543(16) -0.33125(14)
H5 H 0.4331 -0.1442 -0.3600
C9 C 0.61981(16) -0.04485(16) -0.41761(13)
H6 H 0.5838 -0.0934 -0.5053
C10 C 0.76108(16) 0.05597(14) -0.37670(13)
H7 H 0.8221 0.0770 -0.4362
C11 C 0.81364(14) 0.12638(13) -0.24900(12)
H8 H 0.9108 0.1960 -0.2210
C12 C 1.14209(13) 0.40065(14) 0.21643(11)
C13 C 1.22678(15) 0.33506(15) 0.24249(13)
C14 C 1.37336(15) 0.41100(17) 0.28825(13)
H9 H 1.4285 0.3635 0.3066
C15 C 1.43893(15) 0.55614(17) 0.30705(13)
H10 H 1.5393 0.6090 0.3392
C16 C 1.35845(15) 0.62377(16) 0.27904(13)
H11 H 1.4036 0.7233 0.2899
C17 C 1.21141(14) 0.54688(14) 0.23495(12)
H12 H 1.1568 0.5950 0.2170
C18 C 0.77955(13) 0.65020(13) 0.20813(12)
C19 C 0.70373(15) 0.63013(15) 0.08661(13)
H13 H 0.6793 0.5474 0.0224
C20 C 0.66390(17) 0.73115(18) 0.05937(15)
H14 H 0.6110 0.7168 -0.0233
C21 C 0.70075(18) 0.85272(17) 0.15195(16)
H15 H 0.6734 0.9217 0.1327
C22 C 0.77736(17) 0.87375(16) 0.27237(16)
H16 H 0.8031 0.9577 0.3356
C23 C 0.81688(15) 0.77314(14) 0.30151(14)
H17 H 0.8691 0.7877 0.3846
H18 H 0.7078(16) 0.4471(16) 0.4696(13)
H19 H 0.8351(18) 0.5891(18) 0.5104(15)
loop_
_geom_bond_atom_site_label_1
_geom_bond_atom_site_label_2
_geom_bond_site_symmetry_1
_geom_bond_site_symmetry_2
S1 C1 1_555 1_555
Cl1 C13 1_555 1_555
O1 C5 1_555 1_555
N1 N2 1_555 1_555
N2 C2 1_555 1_555
N3 N4 1_555 1_555
N4 H18 1_555 1_555
C1 N1 1_555 1_555
C2 N3 1_555 1_555
C3 N1 1_555 1_555
H1 C3 1_555 1_555
C4 C3 1_555 1_555
H2 C4 1_555 1_555
H3 C4 1_555 1_555
C5 C4 1_555 1_555
C6 C5 1_555 1_555
C7 C6 1_555 1_555
H4 C7 1_555 1_555
C8 C7 1_555 1_555
H5 C8 1_555 1_555
C9 C8 1_555 1_555
H6 C9 1_555 1_555
C10 C9 1_555 1_555
H7 C10 1_555 1_555
C11 C6 1_555 1_555
H8 C11 1_555 1_555
C12 C3 1_555 1_555
C13 C12 1_555 1_555
C14 C13 1_555 1_555
H9 C14 1_555 1_555
C15 C14 1_555 1_555
H10 C15 1_555 1_555
C16 C15 1_555 1_555
H11 C16 1_555 1_555
C17 C12 1_555 1_555
H12 C17 1_555 1_555
C18 C2 1_555 1_555
C19 C18 1_555 1_555
H13 C19 1_555 1_555
C20 C19 1_555 1_555
H14 C20 1_555 1_555
C21 C20 1_555 1_555
H15 C21 1_555 1_555
C22 C21 1_555 1_555
H16 C22 1_555 1_555
C23 C18 1_555 1_555
H17 C23 1_555 1_555
H19 N4 1_555 1_555
N3 C1 1_555 1_555
C10 C11 1_555 1_555
C16 C17 1_555 1_555
C22 C23 1_555 1_555

#END
