
#######################################################################
#
#                 Cambridge Crystallographic Data Centre
#                                CCDC 
#
#######################################################################
#
# If this CIF has been generated from an entry in the Cambridge 
# Structural Database, then it will include bibliographic, chemical, 
# crystal, experimental, refinement or atomic coordinate data resulting 
# from the CCDC's data processing and validation procedures.
#
#######################################################################

data_EVEVUX
_chemical_name_common            
't-Butyl (3-hydroxy-1-(2-(4-methoxybenzylidene)hydrazino)-1-oxopropan-2-yl)carbamate'
_chemical_formula_moiety         'C16 H23 N3 O5'
_chemical_name_systematic        
"t-Butyl N-((1S)-2-hydroxy-1-(N'-[(1E)-4-methoxybenzylidene]hydrazinecarbonyl)ethyl)carbamate"
_symmetry_cell_setting           triclinic
_symmetry_space_group_name_H-M   'P 1'
_symmetry_Int_Tables_number      1
_space_group_name_Hall           'P 1'
loop_
_symmetry_equiv_pos_site_id
_symmetry_equiv_pos_as_xyz
1 x,y,z
_cell_length_a                   5.3323(4)
_cell_length_b                   5.7200(4)
_cell_length_c                   14.3319(10)
_cell_angle_alpha                79.919(4)
_cell_angle_beta                 83.686(4)
_cell_angle_gamma                76.505(4)
_cell_volume                     417.41
_exptl_crystal_colour            colorless
_exptl_crystal_description       block
_cell_formula_units_Z            1
loop_
_atom_site_label
_atom_site_type_symbol
_atom_site_fract_x
_atom_site_fract_y
_atom_site_fract_z
O1 O 1.6917(5) 0.8513(5) 0.7563(2)
O2 O 0.9933(5) 0.3081(5) 0.3426(2)
O3 O 0.4988(5) 0.1450(5) 0.3533(2)
H1 H 0.340(3) 0.190(9) 0.369(3)
O4 O 0.4967(5) 0.9626(5) 0.06608(19)
O5 O 0.2010(5) 0.7831(5) 0.1623(2)
N1 N 1.0286(6) 0.6618(6) 0.4406(2)
N2 N 0.8274(6) 0.6827(6) 0.3836(2)
H2 H 0.709(6) 0.818(5) 0.373(3)
N3 N 0.6282(6) 0.6919(6) 0.1906(2)
H3 H 0.777(5) 0.731(8) 0.171(3)
C1 C 1.2010(7) 0.8412(7) 0.5502(3)
C2 C 1.4019(7) 0.6394(7) 0.5725(3)
H4 H 1.4244 0.5028 0.5406
C3 C 1.5699(7) 0.6361(7) 0.6412(3)
H5 H 1.7053 0.4975 0.6560
C4 C 1.5392(7) 0.8349(7) 0.6876(3)
C5 C 1.3430(8) 1.0405(7) 0.6634(3)
H6 H 1.3242 1.1793 0.6937
C6 C 1.1777(8) 1.0429(7) 0.5961(3)
H7 H 1.0453 1.1836 0.5805
C7 C 1.8959(8) 0.6473(8) 0.7822(3)
H8 H 1.8249 0.5017 0.8027
H9 H 1.9827 0.6773 0.8343
H10 H 2.0207 0.6225 0.7274
C8 C 1.0108(8) 0.8446(7) 0.4829(3)
H11 H 0.8738 0.9833 0.4709
C9 C 0.8245(7) 0.4972(7) 0.3388(3)
C10 C 0.5925(7) 0.5327(7) 0.2797(3)
H12 H 0.4336 0.6117 0.3161
C11 C 0.5605(7) 0.2847(7) 0.2643(3)
H13 H 0.4206 0.3063 0.2214
H14 H 0.7227 0.1972 0.2339
C12 C 0.4209(7) 0.8111(7) 0.1416(3)
C13 C 0.3072(7) 1.1111(7) -0.0009(3)
C14 C 0.4761(8) 1.2529(7) -0.0707(3)
H15 H 0.5607 1.3426 -0.0360
H16 H 0.3684 1.3678 -0.1172
H17 H 0.6079 1.1395 -0.1037
C15 C 0.0964(8) 1.2826(7) 0.0503(3)
H18 H -0.0152 1.1886 0.0920
H19 H -0.0070 1.4008 0.0034
H20 H 0.1759 1.3688 0.0882
C16 C 0.1993(8) 0.9468(7) -0.0514(3)
H21 H 0.3423 0.8281 -0.0770
H22 H 0.0995 1.0457 -0.1036
H23 H 0.0868 0.8610 -0.0063
loop_
_geom_bond_atom_site_label_1
_geom_bond_atom_site_label_2
_geom_bond_site_symmetry_1
_geom_bond_site_symmetry_2
O1 C4 1_555 1_555
O2 C9 1_555 1_555
O3 H1 1_555 1_555
O4 C12 1_555 1_555
O5 C12 1_555 1_555
N1 N2 1_555 1_555
N2 H2 1_555 1_555
N3 H3 1_555 1_555
C1 C2 1_555 1_555
C2 H4 1_555 1_555
C3 C2 1_555 1_555
H5 C3 1_555 1_555
C4 C3 1_555 1_555
C5 C4 1_555 1_555
H6 C5 1_555 1_555
C6 C1 1_555 1_555
H7 C6 1_555 1_555
C7 O1 1_555 1_555
H8 C7 1_555 1_555
H9 C7 1_555 1_555
H10 C7 1_555 1_555
C8 N1 1_555 1_555
H11 C8 1_555 1_555
C9 N2 1_555 1_555
C10 N3 1_555 1_555
H12 C10 1_555 1_555
C11 O3 1_555 1_555
H13 C11 1_555 1_555
H14 C11 1_555 1_555
C12 N3 1_555 1_555
C13 O4 1_555 1_555
C14 C13 1_555 1_555
H15 C14 1_555 1_555
H16 C14 1_555 1_555
H17 C14 1_555 1_555
C15 C13 1_555 1_555
H18 C15 1_555 1_555
H19 C15 1_555 1_555
H20 C15 1_555 1_555
C16 C13 1_555 1_555
H21 C16 1_555 1_555
H22 C16 1_555 1_555
H23 C16 1_555 1_555
C1 C8 1_555 1_555
C5 C6 1_555 1_555
C9 C10 1_555 1_555
C10 C11 1_555 1_555

#END
