
#######################################################################
#
#                 Cambridge Crystallographic Data Centre
#                                CCDC 
#
#######################################################################
#
# If this CIF has been generated from an entry in the Cambridge 
# Structural Database, then it will include bibliographic, chemical, 
# crystal, experimental, refinement or atomic coordinate data resulting 
# from the CCDC's data processing and validation procedures.
#
#######################################################################

data_EVEXEJ
_chemical_name_common            
'1-Methyl-2-(([(1-methyl-1H-benzimidazol-2-yl)methyl](phenyl)amino)methyl)1H-benzimidazol-3-ium picrate'
_chemical_formula_moiety         'C24 H24 N5 1+,C6 H2 N3 O7 1-'
_chemical_name_systematic        
'1-Methyl-2-((((1-methyl-1H-benzimidazol-2-yl)methyl)(phenyl)amino)methyl)-1H-3,1-benzimidazol-3-ium 2,4,6-trinitrophenolate'
_symmetry_cell_setting           triclinic
_symmetry_space_group_name_H-M   'P -1'
_symmetry_Int_Tables_number      2
_space_group_name_Hall           '-P 1'
loop_
_symmetry_equiv_pos_site_id
_symmetry_equiv_pos_as_xyz
1 x,y,z
2 -x,-y,-z
_cell_length_a                   9.4233(5)
_cell_length_b                   12.3523(7)
_cell_length_c                   12.5772(7)
_cell_angle_alpha                92.0070(10)
_cell_angle_beta                 98.4970(10)
_cell_angle_gamma                103.6850(10)
_cell_volume                     1403.07
_exptl_crystal_colour            yellow
_exptl_crystal_description       block
_cell_formula_units_Z            2
loop_
_atom_site_label
_atom_site_type_symbol
_atom_site_fract_x
_atom_site_fract_y
_atom_site_fract_z
O1 O 0.4994(3) -0.13472(19) 0.29886(19)
O2 O 0.2431(4) -0.2821(4) 0.2686(4)
O3 O 0.0611(3) -0.2466(3) 0.1765(3)
O4 O 0.1139(3) 0.0278(2) -0.0786(2)
O5 O 0.3145(3) 0.1577(2) -0.0626(2)
O6 O 0.7374(3) 0.1381(3) 0.1867(3)
O7 O 0.7036(3) 0.0635(3) 0.3324(3)
N6 N 0.1909(3) -0.2216(2) 0.2111(3)
N7 N 0.2401(3) 0.0720(2) -0.0337(2)
N8 N 0.6589(3) 0.0772(2) 0.2407(2)
C25 C 0.4378(3) -0.0849(2) 0.2298(2)
C26 C 0.2853(3) -0.1251(2) 0.1753(2)
C27 C 0.2223(3) -0.0748(2) 0.0922(2)
H24 H 0.1246 -0.1048 0.0603
C28 C 0.3037(3) 0.0202(2) 0.0560(2)
C29 C 0.4476(3) 0.0692(2) 0.1063(2)
H25 H 0.5011 0.1347 0.0827
C30 C 0.5096(3) 0.0199(2) 0.1907(2)
N1 N 0.5570(3) 0.6424(2) 0.67349(18)
N2 N 0.7671(2) 0.7189(2) 0.78335(18)
N3 N 0.3314(3) 0.4630(2) 0.59716(19)
N4 N 0.2023(3) 0.2910(2) 0.6013(2)
N5 N 0.4792(3) 0.46665(19) 0.81228(19)
C1 C 0.6137(3) 0.7487(2) 0.6418(2)
C2 C 0.5602(4) 0.8062(3) 0.5586(2)
H1 H 0.4724 0.7746 0.5123
C3 C 0.6420(4) 0.9119(3) 0.5471(3)
H2 H 0.6086 0.9527 0.4922
C4 C 0.7734(4) 0.9591(3) 0.6158(3)
H3 H 0.8254 1.0309 0.6056
C5 C 0.8294(4) 0.9035(3) 0.6984(3)
H4 H 0.9181 0.9353 0.7436
C6 C 0.7461(3) 0.7972(2) 0.7104(2)
C7 C 0.6516(3) 0.6286(2) 0.7579(2)
C8 C 0.6330(3) 0.5244(3) 0.8170(2)
H5 H 0.6844 0.4747 0.7862
H6 H 0.6782 0.5435 0.8918
C9 C 0.4206(3) 0.3610(2) 0.7497(2)
H7 H 0.3671 0.3075 0.7934
H8 H 0.5019 0.3328 0.7306
C10 C 0.3194(3) 0.3709(2) 0.6493(2)
C11 C 0.1347(3) 0.3364(3) 0.5125(2)
C12 C 0.0087(4) 0.2915(3) 0.4368(3)
H9 H -0.0465 0.2185 0.4375
C13 C -0.0292(4) 0.3618(4) 0.3608(3)
H10 H -0.1131 0.3356 0.3090
C14 C 0.0544(4) 0.4711(3) 0.3591(3)
H11 H 0.0251 0.5157 0.3062
C15 C 0.1784(4) 0.5142(3) 0.4334(2)
H12 H 0.2341 0.5870 0.4321
C16 C 0.2174(3) 0.4447(3) 0.5106(2)
C17 C 0.8923(3) 0.7329(3) 0.8698(3)
H13 H 0.8817 0.6669 0.9089
H14 H 0.8956 0.7960 0.9178
H15 H 0.9823 0.7452 0.8399
C18 C 0.1542(4) 0.1791(3) 0.6371(3)
H16 H 0.2203 0.1705 0.7003
H17 H 0.1548 0.1247 0.5809
H18 H 0.0558 0.1685 0.6537
C19 C 0.3877(3) 0.5143(2) 0.8665(2)
C20 C 0.4428(3) 0.6143(2) 0.9302(2)
H19 H 0.5427 0.6500 0.9368
C21 C 0.3521(4) 0.6609(3) 0.9831(2)
H20 H 0.3918 0.7272 1.0260
C22 C 0.2039(4) 0.6114(3) 0.9739(3)
H21 H 0.1425 0.6441 1.0088
C23 C 0.1481(3) 0.5121(3) 0.9119(2)
H22 H 0.0478 0.4776 0.9052
C24 C 0.2373(3) 0.4627(3) 0.8597(2)
H23 H 0.1975 0.3947 0.8197
H26 H 0.398(2) 0.5313(13) 0.606(2)
loop_
_geom_bond_atom_site_label_1
_geom_bond_atom_site_label_2
_geom_bond_site_symmetry_1
_geom_bond_site_symmetry_2
O1 C25 1_555 1_555
O2 N6 1_555 1_555
O3 N6 1_555 1_555
O4 N7 1_555 1_555
O5 N7 1_555 1_555
O6 N8 1_555 1_555
O7 N8 1_555 1_555
N1 C1 1_555 1_555
N2 C6 1_555 1_555
N3 C10 1_555 1_555
N4 C10 1_555 1_555
N5 C8 1_555 1_555
N6 C26 1_555 1_555
N7 C28 1_555 1_555
N8 C30 1_555 1_555
C1 C2 1_555 1_555
C2 H1 1_555 1_555
C3 C2 1_555 1_555
H2 C3 1_555 1_555
C4 C3 1_555 1_555
H3 C4 1_555 1_555
C5 C4 1_555 1_555
H4 C5 1_555 1_555
C6 C1 1_555 1_555
C7 N1 1_555 1_555
C8 C7 1_555 1_555
H5 C8 1_555 1_555
H6 C8 1_555 1_555
C9 N5 1_555 1_555
H7 C9 1_555 1_555
H8 C9 1_555 1_555
C10 C9 1_555 1_555
C11 N4 1_555 1_555
C12 C11 1_555 1_555
H9 C12 1_555 1_555
C13 C12 1_555 1_555
H10 C13 1_555 1_555
C14 C13 1_555 1_555
H11 C14 1_555 1_555
C15 C14 1_555 1_555
H12 C15 1_555 1_555
C16 N3 1_555 1_555
C17 N2 1_555 1_555
H13 C17 1_555 1_555
H14 C17 1_555 1_555
H15 C17 1_555 1_555
C18 N4 1_555 1_555
H16 C18 1_555 1_555
H17 C18 1_555 1_555
H18 C18 1_555 1_555
C19 N5 1_555 1_555
C20 C19 1_555 1_555
H19 C20 1_555 1_555
C21 C20 1_555 1_555
H20 C21 1_555 1_555
C22 C21 1_555 1_555
H21 C22 1_555 1_555
C23 C22 1_555 1_555
H22 C23 1_555 1_555
C24 C19 1_555 1_555
H23 C24 1_555 1_555
C25 C26 1_555 1_555
C26 C27 1_555 1_555
C27 H24 1_555 1_555
C28 C27 1_555 1_555
C29 C28 1_555 1_555
H25 C29 1_555 1_555
C30 C25 1_555 1_555
H26 N3 1_555 1_555
N2 C7 1_555 1_555
C5 C6 1_555 1_555
C11 C16 1_555 1_555
C15 C16 1_555 1_555
C23 C24 1_555 1_555
C29 C30 1_555 1_555

#END
