
#######################################################################
#
#                 Cambridge Crystallographic Data Centre
#                                CCDC 
#
#######################################################################
#
# If this CIF has been generated from an entry in the Cambridge 
# Structural Database, then it will include bibliographic, chemical, 
# crystal, experimental, refinement or atomic coordinate data resulting 
# from the CCDC's data processing and validation procedures.
#
#######################################################################

data_EVIBUH
_chemical_formula_moiety         'C8 H10 N2 O4,H2 O1'
_chemical_name_systematic        
'4-Carboxy-2-isopropyl-1H-imidazol-3-ium-5-carboxylate monohydrate'
_symmetry_cell_setting           monoclinic
_symmetry_space_group_name_H-M   'P 21/c'
_symmetry_Int_Tables_number      14
_space_group_name_Hall           '-P 2ybc'
loop_
_symmetry_equiv_pos_site_id
_symmetry_equiv_pos_as_xyz
1 x,y,z
2 -x,1/2+y,1/2-z
3 -x,-y,-z
4 x,1/2-y,1/2+z
_cell_length_a                   7.828(2)
_cell_length_b                   14.308(4)
_cell_length_c                   8.930(2)
_cell_angle_alpha                90
_cell_angle_beta                 93.590(3)
_cell_angle_gamma                90
_cell_volume                     998.224
_exptl_crystal_colour            colorless
_exptl_crystal_description       block
_cell_formula_units_Z            4
loop_
_atom_site_label
_atom_site_type_symbol
_atom_site_fract_x
_atom_site_fract_y
_atom_site_fract_z
C1 C 1.2174(2) 0.88114(12) 0.4485(2)
C2 C 1.0189(2) 0.76673(11) 0.29253(18)
C3 C 1.0710(2) 0.85223(11) 0.34578(19)
C4 C 0.6833(2) 0.91545(12) 0.1177(2)
H1 H 0.6971 0.9835 0.1205
C5 C 1.0889(2) 0.67085(11) 0.3136(2)
C6 C 0.8360(2) 0.87217(11) 0.19793(19)
C7 C 0.5240(2) 0.89011(17) 0.1978(2)
H2 H 0.5139 0.8233 0.2031
H3 H 0.4249 0.9154 0.1435
H4 H 0.5328 0.9156 0.2975
C8 C 0.6644(3) 0.88445(16) -0.0461(2)
H5 H 0.7620 0.9051 -0.0971
H6 H 0.5624 0.9113 -0.0934
H7 H 0.6571 0.8175 -0.0507
O1 O 1.21461(18) 0.66102(9) 0.41079(17)
O2 O 1.24232(16) 0.96417(9) 0.47291(15)
O3 O 1.31065(17) 0.81470(9) 0.50578(16)
H8 H 1.2783 0.7647 0.4692
O4 O 1.02199(16) 0.60794(8) 0.23815(16)
N1 N 0.87377(17) 0.78132(9) 0.20091(15)
H9 H 0.8162 0.7384 0.1529
N2 N 0.95551(16) 0.91583(9) 0.28360(16)
H10 H 0.9601 0.9752 0.2981
O5 O 0.66848(18) 0.65027(9) 0.07026(18)
H11 H 0.5604 0.6549 0.0562
H12 H 0.6938 0.5927 0.0646
loop_
_geom_bond_atom_site_label_1
_geom_bond_atom_site_label_2
_geom_bond_site_symmetry_1
_geom_bond_site_symmetry_2
C1 C3 1_555 1_555
C2 C3 1_555 1_555
C3 N2 1_555 1_555
C4 H1 1_555 1_555
C5 C2 1_555 1_555
C6 C4 1_555 1_555
C7 C4 1_555 1_555
H2 C7 1_555 1_555
H3 C7 1_555 1_555
H4 C7 1_555 1_555
C8 C4 1_555 1_555
H5 C8 1_555 1_555
H6 C8 1_555 1_555
H7 C8 1_555 1_555
O1 C5 1_555 1_555
O2 C1 1_555 1_555
O3 C1 1_555 1_555
H8 O3 1_555 1_555
O4 C5 1_555 1_555
N1 C2 1_555 1_555
H9 N1 1_555 1_555
N2 C6 1_555 1_555
H10 N2 1_555 1_555
O5 H11 1_555 1_555
H12 O5 1_555 1_555
C6 N1 1_555 1_555

#END
