
#######################################################################
#
#                 Cambridge Crystallographic Data Centre
#                                CCDC 
#
#######################################################################
#
# If this CIF has been generated from an entry in the Cambridge 
# Structural Database, then it will include bibliographic, chemical, 
# crystal, experimental, refinement or atomic coordinate data resulting 
# from the CCDC's data processing and validation procedures.
#
#######################################################################

data_EVICOD
_chemical_compound_source        'Pedilanthus tithymaloides'
_chemical_name_common            'peditithin F'
_chemical_formula_moiety         'C33 H44 O11'
_chemical_name_systematic        
'3a,9,11-triacetoxy-3,4,5-trihydroxy-2,5,8,8,12-pentamethyl-2,3,3a,4,5,8,9,10,11,13a-decahydro-1H-cyclopenta[12]annulen-1-yl benzoate'
_symmetry_cell_setting           monoclinic
_symmetry_space_group_name_H-M   'C 2'
_symmetry_Int_Tables_number      5
_space_group_name_Hall           'C 2y'
loop_
_symmetry_equiv_pos_site_id
_symmetry_equiv_pos_as_xyz
1 x,y,z
2 -x,y,-z
3 1/2+x,1/2+y,z
4 1/2-x,1/2+y,-z
_cell_length_a                   33.6576(3)
_cell_length_b                   9.29614(7)
_cell_length_c                   11.57569(12)
_cell_angle_alpha                90
_cell_angle_beta                 98.0893(9)
_cell_angle_gamma                90
_cell_volume                     3585.83
_cell_formula_units_Z            4
loop_
_atom_site_label
_atom_site_type_symbol
_atom_site_fract_x
_atom_site_fract_y
_atom_site_fract_z
O1 O 0.17482(4) 0.51293(16) 0.91004(13)
O2 O 0.07553(4) 0.28964(15) 1.16120(12)
O3 O 0.13349(5) 0.63646(17) 1.01115(15)
O4 O 0.20607(4) 0.42687(16) 1.19107(12)
O5 O 0.12944(4) 0.27294(19) 1.43921(13)
O6 O 0.00830(4) 0.31672(18) 1.15185(15)
O7 O 0.05403(5) -0.09846(16) 1.18472(15)
H1 H 0.0376 -0.0885 1.2300
O8 O 0.26538(5) 0.50247(19) 1.14650(17)
O9 O 0.11704(4) -0.07436(16) 1.05999(14)
H2 H 0.1147 -0.1608 1.0466
O10 O 0.01545(4) 0.0917(2) 1.31082(14)
H3 H 0.0161 0.0143 1.3450
C1 C 0.23528(6) 0.5245(2) 1.18987(19)
O11 O 0.19496(5) 0.2286(2) 1.50105(14)
C2 C 0.08886(6) 0.1291(2) 0.95359(18)
H4 H 0.0681 0.1942 0.9330
C3 C 0.16746(7) 0.3119(3) 1.47990(18)
C4 C 0.12439(6) 0.1583(2) 0.92275(18)
H5 H 0.1441 0.0884 0.9401
C5 C 0.08023(6) -0.0041(2) 1.02043(19)
C6 C 0.10054(6) 0.3857(2) 0.81532(19)
H6 H 0.0819 0.3301 0.7630
H7 H 0.1095 0.4665 0.7743
H8 H 0.0876 0.4195 0.8790
C7 C 0.05816(6) 0.0335(2) 1.12501(19)
H9 H 0.0312 0.0668 1.0936
C8 C 0.20421(6) 0.3010(2) 1.00420(17)
H10 H 0.2259 0.3545 0.9774
H11 H 0.2041 0.2052 0.9709
C9 C 0.15165(6) 0.2164(2) 1.22210(17)
H12 H 0.1457 0.3141 1.2205
C10 C 0.15659(6) 0.6323(2) 0.9397(2)
C11 C 0.15971(6) 0.2524(3) 0.76147(18)
H13 H 0.1807 0.1854 0.7886
H14 H 0.1712 0.3377 0.7333
H15 H 0.1417 0.2093 0.6995
C12 C 0.05474(6) 0.1531(3) 1.32539(19)
H16 H 0.0527 0.2540 1.3483
C13 C 0.04093(6) 0.3629(2) 1.13773(19)
C14 C 0.13657(6) 0.2919(2) 0.86263(17)
C15 C 0.21241(6) 0.2888(2) 1.13826(18)
H17 H 0.2405 0.2605 1.1609
C16 C 0.12181(6) 0.1176(2) 1.26663(18)
H18 H 0.1283 0.0189 1.2460
C17 C 0.16423(6) 0.3753(2) 0.95885(17)
H19 H 0.1495 0.3935 1.0247
C18 C 0.22553(7) 0.6617(3) 1.2470(2)
H20 H 0.1978 0.6609 1.2587
H21 H 0.2302 0.7415 1.1981
H22 H 0.2422 0.6709 1.3210
C19 C 0.18578(6) 0.1778(2) 1.18467(17)
C20 C 0.21402(9) 0.6702(3) 1.5656(2)
H23 H 0.2389 0.7057 1.5981
C21 C 0.20163(6) 0.0266(2) 1.1793(2)
H24 H 0.1824 -0.0400 1.2025
H25 H 0.2265 0.0180 1.2310
H26 H 0.2061 0.0054 1.1010
C22 C 0.20900(8) 0.5248(3) 1.5468(2)
H27 H 0.2306 0.4626 1.5664
C23 C 0.05296(7) -0.1039(2) 0.9382(2)
H28 H 0.0669 -0.1343 0.8755
H29 H 0.0290 -0.0531 0.9070
H30 H 0.0460 -0.1866 0.9808
C24 C 0.12355(6) 0.1249(2) 1.40049(19)
H31 H 0.1446 0.0620 1.4399
C25 C 0.07695(6) 0.1471(2) 1.21552(18)
C26 C 0.04823(7) 0.5102(3) 1.0927(2)
H32 H 0.0761 0.5343 1.1124
H33 H 0.0322 0.5789 1.1274
H34 H 0.0411 0.5118 1.0095
C27 C 0.16849(9) 0.7593(3) 0.8730(3)
H35 H 0.1927 0.8005 0.9134
H36 H 0.1474 0.8297 0.8661
H37 H 0.1730 0.7290 0.7966
C28 C 0.08203(7) 0.0752(3) 1.4217(2)
H38 H 0.0800 -0.0283 1.4059
C29 C 0.07096(8) 0.1015(4) 1.5429(2)
H39 H 0.0747 0.2014 1.5625
H40 H 0.0878 0.0441 1.5988
H41 H 0.0434 0.0757 1.5439
C30 C 0.17152(7) 0.4697(3) 1.4983(2)
C31 C 0.18357(12) 0.7602(4) 1.5376(4)
H42 H 0.1871 0.8580 1.5525
C32 C 0.14051(10) 0.5632(4) 1.4687(6)
H43 H 0.1155 0.5280 1.4369
C33 C 0.14579(13) 0.7081(5) 1.4851(7)
H44 H 0.1248 0.7716 1.4621
loop_
_geom_bond_atom_site_label_1
_geom_bond_atom_site_label_2
_geom_bond_site_symmetry_1
_geom_bond_site_symmetry_2
O1 C10 1_555 1_555
O2 C13 1_555 1_555
O3 C10 1_555 1_555
O4 C1 1_555 1_555
O5 C3 1_555 1_555
O6 C13 1_555 1_555
O7 H1 1_555 1_555
O8 C1 1_555 1_555
O9 H2 1_555 1_555
O10 H3 1_555 1_555
C1 C18 1_555 1_555
O11 C3 1_555 1_555
C2 H4 1_555 1_555
C3 C30 1_555 1_555
C4 C2 1_555 1_555
H5 C4 1_555 1_555
C5 O9 1_555 1_555
C6 H6 1_555 1_555
H7 C6 1_555 1_555
H8 C6 1_555 1_555
C7 O7 1_555 1_555
H9 C7 1_555 1_555
C8 H10 1_555 1_555
H11 C8 1_555 1_555
C9 H12 1_555 1_555
C10 C27 1_555 1_555
C11 H13 1_555 1_555
H14 C11 1_555 1_555
H15 C11 1_555 1_555
C12 O10 1_555 1_555
H16 C12 1_555 1_555
C13 C26 1_555 1_555
C14 C4 1_555 1_555
C15 O4 1_555 1_555
H17 C15 1_555 1_555
C16 C9 1_555 1_555
H18 C16 1_555 1_555
C17 O1 1_555 1_555
H19 C17 1_555 1_555
C18 H20 1_555 1_555
H21 C18 1_555 1_555
H22 C18 1_555 1_555
C19 C9 1_555 1_555
C20 H23 1_555 1_555
C21 C19 1_555 1_555
H24 C21 1_555 1_555
H25 C21 1_555 1_555
H26 C21 1_555 1_555
C22 C20 1_555 1_555
H27 C22 1_555 1_555
C23 C5 1_555 1_555
H28 C23 1_555 1_555
H29 C23 1_555 1_555
H30 C23 1_555 1_555
C24 O5 1_555 1_555
H31 C24 1_555 1_555
C25 O2 1_555 1_555
C26 H32 1_555 1_555
H33 C26 1_555 1_555
H34 C26 1_555 1_555
C27 H35 1_555 1_555
H36 C27 1_555 1_555
H37 C27 1_555 1_555
C28 C12 1_555 1_555
H38 C28 1_555 1_555
C29 C28 1_555 1_555
H39 C29 1_555 1_555
H40 C29 1_555 1_555
H41 C29 1_555 1_555
C30 C22 1_555 1_555
C31 C20 1_555 1_555
H42 C31 1_555 1_555
C32 C30 1_555 1_555
H43 C32 1_555 1_555
C33 C31 1_555 1_555
H44 C33 1_555 1_555
C2 C5 1_555 1_555
C5 C7 1_555 1_555
C6 C14 1_555 1_555
C7 C25 1_555 1_555
C8 C15 1_555 1_555
C8 C17 1_555 1_555
C11 C14 1_555 1_555
C12 C25 1_555 1_555
C14 C17 1_555 1_555
C15 C19 1_555 1_555
C16 C24 1_555 1_555
C16 C25 1_555 1_555
C24 C28 1_555 1_555
C32 C33 1_555 1_555

#END
