
#######################################################################
#
#                 Cambridge Crystallographic Data Centre
#                                CCDC 
#
#######################################################################
#
# If this CIF has been generated from an entry in the Cambridge 
# Structural Database, then it will include bibliographic, chemical, 
# crystal, experimental, refinement or atomic coordinate data resulting 
# from the CCDC's data processing and validation procedures.
#
#######################################################################

data_EVICIX
_chemical_compound_source        'Pedilanthus tithymaloides'
_chemical_name_common            'peditithin C methanol solvate'
_chemical_formula_moiety         'C39 H50 O16,C1 H4 O1'
_chemical_name_systematic        
'3,3a,4,9,10,11-hexaacetoxy-6,13-dihydroxy-2,8,8,12-tetramethyl-5-methylene-2,3,3a,4,5,6,7,8,9,10,13,13a-dodecahydro-1H-cyclopenta[12]annulen-1-yl benzoate methanol solvate'
_symmetry_cell_setting           monoclinic
_symmetry_space_group_name_H-M   'P 21'
_symmetry_Int_Tables_number      4
_space_group_name_Hall           'P 2yb'
loop_
_symmetry_equiv_pos_site_id
_symmetry_equiv_pos_as_xyz
1 x,y,z
2 -x,1/2+y,-z
_cell_length_a                   13.3336(4)
_cell_length_b                   9.6931(4)
_cell_length_c                   17.6305(7)
_cell_angle_alpha                90
_cell_angle_beta                 110.243(4)
_cell_angle_gamma                90
_cell_volume                     2137.89
_cell_formula_units_Z            2
loop_
_atom_site_label
_atom_site_type_symbol
_atom_site_fract_x
_atom_site_fract_y
_atom_site_fract_z
O1 O 0.9834(2) 0.5844(3) 0.25566(16)
O2 O 1.2108(2) 0.5936(4) 0.41420(17)
O3 O 1.1011(2) 0.9058(4) 0.43160(19)
O4 O 1.2448(2) 0.9498(4) 0.3590(2)
O5 O 0.8417(2) 0.6232(4) 0.14232(19)
O6 O 1.2793(3) 0.8206(6) 0.0987(2)
O7 O 1.3075(2) 0.5413(5) 0.2972(2)
H1 H 1.3226 0.4594 0.3057
O8 O 1.0014(3) 0.8282(5) 0.5028(3)
O9 O 1.1859(3) 0.9359(6) 0.1618(2)
C1 C 1.2225(3) 0.5838(7) 0.4941(3)
C2 C 1.0802(3) 0.7858(5) 0.3796(3)
H2 H 1.0440 0.7154 0.4006
C3 C 1.1552(3) 0.6934(6) 0.2811(2)
H3 H 1.1875 0.7663 0.2586
C4 C 1.1844(3) 0.7244(5) 0.3732(3)
O10 O 1.1980(3) 0.5640(6) 0.0460(2)
C5 C 0.8869(3) 0.5519(5) 0.1996(2)
O11 O 1.2150(3) 0.6799(5) 0.5343(2)
C6 C 0.9032(4) 0.3389(5) 0.2856(3)
H4 H 0.9723 0.3646 0.3172
O12 O 1.0517(3) 0.6975(5) 0.0062(2)
C7 C 0.8445(3) 0.4202(6) 0.2191(3)
C8 C 1.2173(3) 0.5993(8) 0.1272(3)
C9 C 1.1935(3) 0.5559(6) 0.2594(3)
H5 H 1.1596 0.4822 0.2800
C10 C 1.2807(3) 0.8276(6) 0.4082(3)
H6 H 1.2867 0.8505 0.4638
C11 C 1.0333(3) 0.7101(5) 0.2434(2)
H7 H 1.0110 0.7347 0.1860
C12 C 0.6992(4) 0.2614(7) 0.1923(4)
H8 H 0.6299 0.2354 0.1616
C13 C 0.7423(4) 0.3780(6) 0.1717(3)
H9 H 0.7033 0.4286 0.1263
C14 C 1.3902(3) 0.7845(8) 0.4089(3)
O13 O 1.3021(3) 1.0880(6) 0.4698(3)
C15 C 1.0653(4) 0.9082(6) 0.4949(3)
C16 C 1.2184(4) 0.9299(9) 0.1075(3)
C17 C 1.3018(3) 0.7105(9) 0.1572(3)
H10 H 1.2970 0.7482 0.2075
C18 C 1.0090(3) 0.8254(5) 0.2936(3)
H11 H 1.0351 0.9127 0.2794
C19 C 0.8923(3) 0.8443(5) 0.2861(3)
H12 H 0.8647 0.7587 0.2981
H13 H 0.8513 0.8723 0.2319
H14 H 0.8874 0.9138 0.3234
C20 C 1.5062(4) 0.7644(15) 0.2319(4)
C21 C 1.1670(4) 0.5318(7) 0.1689(3)
C22 C 1.4281(4) 0.8415(8) 0.3432(3)
H15 H 1.3658 0.8629 0.2953
O14 O 1.4842(4) 0.9673(8) 0.3750(3)
H16 H 1.5217 0.9889 0.3486
C23 C 1.2471(5) 0.4401(8) 0.5226(4)
H17 H 1.1896 0.3808 0.4921
H18 H 1.2556 0.4350 0.5789
H19 H 1.3120 0.4113 0.5153
C24 C 1.5016(4) 0.7416(10) 0.3193(3)
H20 H 1.4778 0.6480 0.3228
H21 H 1.5734 0.7503 0.3583
C25 C 1.2044(6) 1.0332(12) 0.0435(4)
H22 H 1.2702 1.0821 0.0532
H23 H 1.1493 1.0970 0.0434
H24 H 1.1844 0.9877 -0.0080
C26 C 1.2549(5) 1.0732(8) 0.3982(5)
C27 C 1.0866(5) 0.4220(8) 0.1314(4)
H25 H 1.0162 0.4616 0.1129
H26 H 1.0906 0.3518 0.1708
H27 H 1.1011 0.3821 0.0865
C28 C 1.1099(5) 0.6206(9) -0.0107(3)
C29 C 0.7570(4) 0.1822(6) 0.2578(4)
H28 H 0.7270 0.1026 0.2704
C30 C 0.8584(5) 0.2206(7) 0.3042(4)
H29 H 0.8973 0.1671 0.3483
C31 C 1.1155(6) 1.0245(7) 0.5499(4)
H30 H 1.1903 1.0062 0.5762
H31 H 1.0820 1.0341 0.5899
H32 H 1.1066 1.1082 0.5192
C32 C 1.4492(4) 0.7058(12) 0.4677(4)
C33 C 1.0986(5) 0.5659(11) -0.0933(3)
H33 H 1.1535 0.6049 -0.1104
H34 H 1.0297 0.5908 -0.1310
H35 H 1.1054 0.4673 -0.0910
C34 C 1.4171(4) 0.6559(12) 0.1755(3)
H36 H 1.4260 0.5642 0.2004
C35 C 1.5023(8) 0.9046(18) 0.2025(6)
H37 H 1.4403 0.9503 0.2061
H38 H 1.4987 0.9033 0.1471
H39 H 1.5654 0.9532 0.2347
C36 C 1.1932(8) 1.1859(9) 0.3369(7)
H40 H 1.1963 1.1654 0.2845
H41 H 1.2253 1.2743 0.3545
H42 H 1.1200 1.1876 0.3340
C37 C 1.6131(4) 0.683(2) 0.2363(5)
H43 H 1.6745 0.7348 0.2686
H44 H 1.6151 0.6720 0.1828
H45 H 1.6136 0.5941 0.2603
C38 C 1.4480(7) 0.5188(19) 0.0746(5)
C39 C 1.4556(12) 0.504(3) -0.0058(5)
H46 H 1.4853 0.4154 -0.0101
H47 H 1.5008 0.5753 -0.0140
H48 H 1.3856 0.5117 -0.0460
O15 O 1.4332(3) 0.6518(12) 0.0977(3)
O16 O 1.4523(8) 0.4132(16) 0.1145(5)
O17 O 1.4102(10) 1.2473(12) 0.282(2)
H49 H 1.4119 1.1642 0.2913
C40 C 1.524(2) 1.305(3) 0.3131(14)
H50 H 1.5745 1.2319 0.3177
H51 H 1.5382 1.3469 0.3652
H52 H 1.5319 1.3734 0.2759
loop_
_geom_bond_atom_site_label_1
_geom_bond_atom_site_label_2
_geom_bond_site_symmetry_1
_geom_bond_site_symmetry_2
O1 C5 1_555 1_555
O2 C1 1_555 1_555
O3 C2 1_555 1_555
O4 C10 1_555 1_555
O5 C5 1_555 1_555
O6 C16 1_555 1_555
O7 H1 1_555 1_555
O8 C15 1_555 1_555
O9 C16 1_555 1_555
C1 O11 1_555 1_555
C2 H2 1_555 1_555
C3 H3 1_555 1_555
C4 O2 1_555 1_555
O10 C8 1_555 1_555
C5 C7 1_555 1_555
C6 H4 1_555 1_555
O12 C28 1_555 1_555
C7 C6 1_555 1_555
C8 C17 1_555 1_555
C9 O7 1_555 1_555
H5 C9 1_555 1_555
C10 C4 1_555 1_555
H6 C10 1_555 1_555
C11 O1 1_555 1_555
H7 C11 1_555 1_555
C12 H8 1_555 1_555
C13 C7 1_555 1_555
H9 C13 1_555 1_555
C14 C10 1_555 1_555
O13 C26 1_555 1_555
C15 O3 1_555 1_555
C16 C25 1_555 1_555
C17 O6 1_555 1_555
H10 C17 1_555 1_555
C18 C2 1_555 1_555
H11 C18 1_555 1_555
C19 C18 1_555 1_555
H12 C19 1_555 1_555
H13 C19 1_555 1_555
H14 C19 1_555 1_555
C20 C24 1_555 1_555
C21 C8 1_555 1_555
C22 C14 1_555 1_555
H15 C22 1_555 1_555
O14 C22 1_555 1_555
H16 O14 1_555 1_555
C23 C1 1_555 1_555
H17 C23 1_555 1_555
H18 C23 1_555 1_555
H19 C23 1_555 1_555
C24 C22 1_555 1_555
H20 C24 1_555 1_555
H21 C24 1_555 1_555
C25 H22 1_555 1_555
H23 C25 1_555 1_555
H24 C25 1_555 1_555
C26 O4 1_555 1_555
C27 C21 1_555 1_555
H25 C27 1_555 1_555
H26 C27 1_555 1_555
H27 C27 1_555 1_555
C28 O10 1_555 1_555
C29 C12 1_555 1_555
H28 C29 1_555 1_555
C30 C6 1_555 1_555
H29 C30 1_555 1_555
C31 C15 1_555 1_555
H30 C31 1_555 1_555
H31 C31 1_555 1_555
H32 C31 1_555 1_555
C32 C14 1_555 1_555
C33 C28 1_555 1_555
H33 C33 1_555 1_555
H34 C33 1_555 1_555
H35 C33 1_555 1_555
C34 C17 1_555 1_555
H36 C34 1_555 1_555
C35 C20 1_555 1_555
H37 C35 1_555 1_555
H38 C35 1_555 1_555
H39 C35 1_555 1_555
C36 C26 1_555 1_555
H40 C36 1_555 1_555
H41 C36 1_555 1_555
H42 C36 1_555 1_555
C37 C20 1_555 1_555
H43 C37 1_555 1_555
H44 C37 1_555 1_555
H45 C37 1_555 1_555
C38 C39 1_555 1_555
C39 H46 1_555 1_555
H47 C39 1_555 1_555
H48 C39 1_555 1_555
O15 C34 1_555 1_555
O16 C38 1_555 1_555
O17 H49 1_555 1_555
C40 O17 1_555 1_555
H50 C40 1_555 1_555
H51 C40 1_555 1_555
H52 C40 1_555 1_555
C2 C4 1_555 1_555
C3 C4 1_555 1_555
C3 C9 1_555 1_555
C3 C11 1_555 1_555
C9 C21 1_555 1_555
C11 C18 1_555 1_555
C12 C13 1_555 1_555
C20 C34 1_555 1_555
C29 C30 1_555 1_555
C38 O15 1_555 1_555

#END
