
#######################################################################
#
#                 Cambridge Crystallographic Data Centre
#                                CCDC 
#
#######################################################################
#
# If this CIF has been generated from an entry in the Cambridge 
# Structural Database, then it will include bibliographic, chemical, 
# crystal, experimental, refinement or atomic coordinate data resulting 
# from the CCDC's data processing and validation procedures.
#
#######################################################################

data_EVICET
_chemical_compound_source        'Pedilanthus tithymaloides'
_chemical_name_common            'peditithin A'
_chemical_formula_moiety         'C30 H40 O11'
_chemical_name_systematic        
'2,5,8,8,12-pentamethyl-11-oxo-2,3,4,7,8,9,10,11-octahydro-3aH-cyclopenta[12]annulene-3,3a,4,9,10-pentayl pentaacetate'
_symmetry_cell_setting           orthorhombic
_symmetry_space_group_name_H-M   'P 21 21 21'
_symmetry_Int_Tables_number      19
_space_group_name_Hall           'P 2ac 2ab'
loop_
_symmetry_equiv_pos_site_id
_symmetry_equiv_pos_as_xyz
1 x,y,z
2 1/2-x,-y,1/2+z
3 1/2+x,1/2-y,-z
4 -x,1/2+y,1/2-z
_cell_length_a                   8.57949(10)
_cell_length_b                   14.11566(14)
_cell_length_c                   23.8181(2)
_cell_angle_alpha                90
_cell_angle_beta                 90
_cell_angle_gamma                90
_cell_volume                     2884.49
_cell_formula_units_Z            4
loop_
_atom_site_label
_atom_site_type_symbol
_atom_site_fract_x
_atom_site_fract_y
_atom_site_fract_z
O1 O -0.09819(14) 0.15873(8) -0.34292(5)
O2 O 0.13503(13) 0.03834(8) -0.05792(5)
O3 O -0.10426(14) -0.02345(8) 0.01197(5)
O4 O -0.23229(13) -0.03114(8) -0.11489(5)
O5 O -0.31210(14) 0.02001(8) -0.32395(5)
O6 O -0.45718(15) 0.04722(9) -0.09747(5)
O7 O 0.23440(16) -0.10456(9) -0.03537(6)
O8 O -0.31586(17) -0.11628(10) -0.00037(6)
O9 O 0.14772(16) 0.20014(10) -0.32027(5)
O10 O -0.32824(17) 0.24611(9) -0.29139(5)
O11 O -0.48893(16) 0.03150(12) -0.25435(6)
C1 C 0.2318(2) -0.02011(12) -0.02950(7)
C2 C -0.15634(19) 0.13945(11) -0.10572(7)
C3 C -0.39039(19) -0.02122(12) -0.11580(7)
C4 C -0.1637(2) 0.15697(11) -0.16638(7)
H1 H -0.0770 0.1359 -0.1862
C5 C -0.2493(2) 0.19742(11) -0.26070(7)
C6 C 0.08924(19) 0.00582(11) -0.15650(7)
C7 C -0.0074(2) -0.04782(12) -0.35830(7)
H2 H 0.0638 0.0043 -0.3617
H3 H -0.0934 -0.0387 -0.3835
H4 H 0.0454 -0.1057 -0.3675
C8 C -0.4659(2) -0.10597(13) -0.14194(8)
H5 H -0.3869 -0.1484 -0.1554
H6 H -0.5304 -0.0861 -0.1727
H7 H -0.5288 -0.1378 -0.1144
C9 C -0.13577(19) 0.03751(11) -0.08585(6)
C10 C -0.1767(2) 0.04731(11) -0.02293(6)
H8 H -0.2900 0.0415 -0.0189
C11 C 0.0745(2) -0.04913(11) -0.25781(7)
H9 H 0.1435 -0.1013 -0.2671
H10 H 0.1308 0.0092 -0.2651
C12 C -0.2730(2) 0.19790(11) -0.19838(7)
C13 C 0.0450(2) 0.19507(12) -0.35444(7)
C14 C -0.5769(2) 0.01719(14) -0.34950(8)
H11 H -0.6286 0.0771 -0.3535
H12 H -0.6522 -0.0308 -0.3406
H13 H -0.5254 0.0012 -0.3840
C15 C 0.02834(19) -0.00602(11) -0.09660(7)
H14 H 0.0238 -0.0739 -0.0880
C16 C -0.1880(2) -0.10500(12) 0.01947(7)
C17 C -0.18417(19) 0.02706(12) -0.28413(6)
H15 H -0.2263 0.0153 -0.2465
C18 C -0.1553(2) -0.14767(12) -0.29039(7)
H16 H -0.2354 -0.1528 -0.3184
H17 H -0.2015 -0.1499 -0.2537
H18 H -0.0833 -0.1992 -0.2945
C19 C -0.1022(2) -0.17602(12) 0.05395(7)
H19 H 0.0079 -0.1678 0.0487
H20 H -0.1317 -0.2387 0.0425
H21 H -0.1276 -0.1673 0.0929
C20 C 0.3310(2) 0.03453(13) 0.01061(7)
H22 H 0.3712 0.0899 -0.0078
H23 H 0.4160 -0.0044 0.0230
H24 H 0.2695 0.0533 0.0424
C21 C -0.2270(2) 0.18927(13) 0.04137(7)
H25 H -0.3342 0.1926 0.0300
H26 H -0.1902 0.2517 0.0504
H27 H -0.2179 0.1492 0.0738
C22 C 0.2012(2) 0.08636(12) -0.16551(7)
H28 H 0.1614 0.1424 -0.1477
H29 H 0.2130 0.0977 -0.2050
H30 H 0.3005 0.0704 -0.1495
C23 C -0.4591(2) 0.02346(12) -0.30331(7)
C24 C -0.1257(2) 0.13002(11) -0.28603(7)
H31 H -0.0287 0.1352 -0.2645
C25 C -0.1298(2) 0.14858(11) -0.00642(7)
H32 H -0.0195 0.1493 0.0043
C26 C -0.4211(2) 0.24293(14) -0.17798(8)
H33 H -0.5088 0.2099 -0.1935
H34 H -0.4239 0.3080 -0.1896
H35 H -0.4251 0.2397 -0.1378
C27 C -0.1490(2) 0.19844(12) -0.06222(7)
H36 H -0.1550 0.2639 -0.0658
C28 C 0.03848(19) -0.05375(11) -0.19596(7)
H37 H -0.0255 -0.1030 -0.1841
C29 C 0.0568(2) 0.22479(13) -0.41446(7)
H38 H 0.0729 0.1700 -0.4376
H39 H 0.1429 0.2676 -0.4189
H40 H -0.0379 0.2559 -0.4255
C30 C -0.0684(2) -0.05324(11) -0.29779(7)
loop_
_geom_bond_atom_site_label_1
_geom_bond_atom_site_label_2
_geom_bond_site_symmetry_1
_geom_bond_site_symmetry_2
O1 C13 1_555 1_555
O2 C1 1_555 1_555
O3 C10 1_555 1_555
O4 C3 1_555 1_555
O5 C17 1_555 1_555
O6 C3 1_555 1_555
O7 C1 1_555 1_555
O8 C16 1_555 1_555
O9 C13 1_555 1_555
O10 C5 1_555 1_555
O11 C23 1_555 1_555
C1 C20 1_555 1_555
C2 C4 1_555 1_555
C3 C8 1_555 1_555
C4 H1 1_555 1_555
C5 C12 1_555 1_555
C6 C15 1_555 1_555
C7 H2 1_555 1_555
H3 C7 1_555 1_555
H4 C7 1_555 1_555
C8 H5 1_555 1_555
H6 C8 1_555 1_555
H7 C8 1_555 1_555
C9 O4 1_555 1_555
C10 C9 1_555 1_555
H8 C10 1_555 1_555
C11 H9 1_555 1_555
H10 C11 1_555 1_555
C12 C4 1_555 1_555
C13 C29 1_555 1_555
C14 H11 1_555 1_555
H12 C14 1_555 1_555
H13 C14 1_555 1_555
C15 O2 1_555 1_555
H14 C15 1_555 1_555
C16 O3 1_555 1_555
C17 H15 1_555 1_555
C18 H16 1_555 1_555
H17 C18 1_555 1_555
H18 C18 1_555 1_555
C19 C16 1_555 1_555
H19 C19 1_555 1_555
H20 C19 1_555 1_555
H21 C19 1_555 1_555
C20 H22 1_555 1_555
H23 C20 1_555 1_555
H24 C20 1_555 1_555
C21 H25 1_555 1_555
H26 C21 1_555 1_555
H27 C21 1_555 1_555
C22 C6 1_555 1_555
H28 C22 1_555 1_555
H29 C22 1_555 1_555
H30 C22 1_555 1_555
C23 O5 1_555 1_555
C24 O1 1_555 1_555
H31 C24 1_555 1_555
C25 C10 1_555 1_555
H32 C25 1_555 1_555
C26 C12 1_555 1_555
H33 C26 1_555 1_555
H34 C26 1_555 1_555
H35 C26 1_555 1_555
C27 C2 1_555 1_555
H36 C27 1_555 1_555
C28 C6 1_555 1_555
H37 C28 1_555 1_555
C29 H38 1_555 1_555
H39 C29 1_555 1_555
H40 C29 1_555 1_555
C30 C7 1_555 1_555
C2 C9 1_555 1_555
C5 C24 1_555 1_555
C9 C15 1_555 1_555
C11 C28 1_555 1_555
C11 C30 1_555 1_555
C14 C23 1_555 1_555
C17 C24 1_555 1_555
C17 C30 1_555 1_555
C18 C30 1_555 1_555
C21 C25 1_555 1_555
C25 C27 1_555 1_555

#END
