
#######################################################################
#
#                 Cambridge Crystallographic Data Centre
#                                CCDC 
#
#######################################################################
#
# If this CIF has been generated from an entry in the Cambridge 
# Structural Database, then it will include bibliographic, chemical, 
# crystal, experimental, refinement or atomic coordinate data resulting 
# from the CCDC's data processing and validation procedures.
#
#######################################################################

data_EVICES
_chemical_formula_moiety         'C8 H9 Cl2 N1 O1'
_chemical_name_systematic        1-(4-Amino-3,5-dichlorophenyl)ethanol
_symmetry_cell_setting           monoclinic
_symmetry_space_group_name_H-M   'C 2/c'
_symmetry_Int_Tables_number      15
_space_group_name_Hall           '-C 2yn'
loop_
_symmetry_equiv_pos_site_id
_symmetry_equiv_pos_as_xyz
1 x,y,z
2 -x,y,1/2-z
3 1/2+x,1/2+y,z
4 1/2-x,1/2+y,1/2-z
5 -x,-y,-z
6 x,-y,1/2+z
7 1/2-x,1/2-y,-z
8 1/2+x,1/2-y,1/2+z
_cell_length_a                   16.472(2)
_cell_length_b                   16.110(2)
_cell_length_c                   14.6756(19)
_cell_angle_alpha                90
_cell_angle_beta                 107.049(2)
_cell_angle_gamma                90
_cell_volume                     3723.23
_exptl_crystal_colour            colorless
_exptl_crystal_description       block
_cell_formula_units_Z            16
loop_
_atom_site_label
_atom_site_type_symbol
_atom_site_fract_x
_atom_site_fract_y
_atom_site_fract_z
Cl1 Cl 1.10844(4) 0.04952(4) 0.86690(4)
Cl2 Cl 1.09417(4) 0.16958(4) 1.20328(4)
O1 O 0.78216(11) 0.06516(11) 0.85101(13)
N1 N 1.18071(11) 0.10254(12) 1.06839(15)
C1 C 1.04879(13) 0.08619(12) 0.93915(14)
C2 C 0.96140(14) 0.08983(14) 0.90409(15)
C3 C 0.91343(12) 0.11733(12) 0.96181(14)
C4 C 0.95554(13) 0.14186(12) 1.05372(15)
C5 C 1.04275(12) 0.13832(12) 1.08668(13)
C6 C 1.09322(12) 0.11026(11) 1.03173(13)
C7 C 0.81676(14) 0.12321(15) 0.92535(18)
C8 C 0.78811(16) 0.20783(16) 0.8855(2)
H1 H 0.7272 0.2094 0.8632
H2 H 0.8106 0.2193 0.8334
H3 H 0.8082 0.2489 0.9344
H6 H 0.9238(15) 0.1595(14) 1.0923(18)
H8 H 0.9332(14) 0.0707(13) 0.8489(16)
H14 H 0.7895(15) 0.1125(15) 0.9809(17)
H15 H 1.2082(18) 0.1076(17) 1.030(2)
H16 H 1.2046(18) 0.1337(17) 1.118(2)
H17 H 0.794(2) 0.016(2) 0.867(2)
Cl3 Cl 0.70719(3) -0.07065(4) 0.67509(4)
Cl4 Cl 0.44673(4) 0.14455(3) 0.61899(4)
O2 O 0.31701(9) -0.14705(11) 0.48677(12)
N2 N 0.63069(12) 0.09603(13) 0.67790(13)
C9 C 0.59864(12) -0.05077(12) 0.64539(13)
C10 C 0.54210(12) -0.11507(13) 0.61455(14)
C11 C 0.45556(12) -0.10121(12) 0.58610(13)
C12 C 0.42693(12) -0.02043(13) 0.58929(14)
C13 C 0.48443(12) 0.04327(12) 0.62044(13)
C14 C 0.57235(11) 0.03095(12) 0.65081(12)
C15 C 0.39451(13) -0.17286(14) 0.55311(16)
C16 C 0.37270(17) -0.21407(17) 0.6356(2)
H4 H 0.3668(13) -0.0092(11) 0.5668(14)
H5 H 0.5640(15) -0.1665(14) 0.6168(17)
H7 H 0.4188(13) -0.2126(14) 0.5260(15)
H9 H 0.3307(18) -0.2551(16) 0.612(2)
H10 H 0.6703(16) 0.0815(14) 0.7248(17)
H11 H 0.3513(16) -0.1676(16) 0.6741(18)
H12 H 0.4207(17) -0.2342(17) 0.6731(19)
H13 H 0.6117(18) 0.1357(18) 0.6943(19)
H18 H 0.3276(19) -0.1363(17) 0.4388(16)
loop_
_geom_bond_atom_site_label_1
_geom_bond_atom_site_label_2
_geom_bond_site_symmetry_1
_geom_bond_site_symmetry_2
Cl1 C1 1_555 1_555
Cl2 C5 1_555 1_555
Cl3 C9 1_555 1_555
Cl4 C13 1_555 1_555
O1 C7 1_555 1_555
O2 C15 1_555 1_555
N1 C6 1_555 1_555
N2 C14 1_555 1_555
C1 C2 1_555 1_555
C2 C3 1_555 1_555
C3 C4 1_555 1_555
C4 C5 1_555 1_555
C5 C6 1_555 1_555
C6 C1 1_555 1_555
C7 C3 1_555 1_555
C8 C7 1_555 1_555
H1 C8 1_555 1_555
H2 C8 1_555 1_555
H3 C8 1_555 1_555
C9 C10 1_555 1_555
C10 C11 1_555 1_555
C11 C12 1_555 1_555
C12 C13 1_555 1_555
C13 C14 1_555 1_555
C14 C9 1_555 1_555
C15 C11 1_555 1_555
C16 C15 1_555 1_555
H4 C12 1_555 1_555
H5 C10 1_555 1_555
H6 C4 1_555 1_555
H7 C15 1_555 1_555
H8 C2 1_555 1_555
H9 C16 1_555 1_555
H10 N2 1_555 1_555
H11 C16 1_555 1_555
H12 C16 1_555 1_555
H13 N2 1_555 1_555
H14 C7 1_555 1_555
H15 N1 1_555 1_555
H16 N1 1_555 1_555
H17 O1 1_555 1_555
H18 O2 1_555 1_555

#END
