
#######################################################################
#
#                 Cambridge Crystallographic Data Centre
#                                CCDC 
#
#######################################################################
#
# If this CIF has been generated from an entry in the Cambridge 
# Structural Database, then it will include bibliographic, chemical, 
# crystal, experimental, refinement or atomic coordinate data resulting 
# from the CCDC's data processing and validation procedures.
#
#######################################################################

data_EVICUJ
_chemical_compound_source        'Pedilanthus tithymaloides'
_chemical_name_common            
'(1S,2S,3S,4S,5S,8R,9S,14R,15S)-1,7,8,9,14,15-hexaacetoxy-3-benzoyloxy-5-hydroxyjatropha-6E,12E-diene methanol solvate'
_chemical_formula_moiety         'C39 H50 O15,C1 H4 O1'
_chemical_name_systematic        
'3,3a,4,9,10,11-hexaacetoxy-13-hydroxy-2,5,8,8,12-pentamethyl-2,3,3a,4,7,8,9,10,13,13a-decahydro-1H-cyclopenta[12]annulen-1-yl benzoate methanol solvate'
_symmetry_cell_setting           orthorhombic
_symmetry_space_group_name_H-M   'P 21 21 21'
_symmetry_Int_Tables_number      19
_space_group_name_Hall           'P 2ac 2ab'
loop_
_symmetry_equiv_pos_site_id
_symmetry_equiv_pos_as_xyz
1 x,y,z
2 1/2-x,-y,1/2+z
3 1/2+x,1/2-y,-z
4 -x,1/2+y,1/2-z
_cell_length_a                   9.42038(6)
_cell_length_b                   17.88633(13)
_cell_length_c                   24.9535(2)
_cell_angle_alpha                90
_cell_angle_beta                 90
_cell_angle_gamma                90
_cell_volume                     4204.57
_cell_formula_units_Z            4
loop_
_atom_site_label
_atom_site_type_symbol
_atom_site_fract_x
_atom_site_fract_y
_atom_site_fract_z
O1 O 0.27927(9) 0.39075(5) 0.61168(4)
O2 O -0.05139(9) 0.35190(5) 0.56226(4)
O3 O 0.06188(10) 0.72577(5) 0.63773(4)
O4 O -0.07931(9) 0.46493(5) 0.63002(4)
O5 O 0.28317(10) 0.48806(5) 0.49431(4)
O6 O 0.23952(13) 0.56806(6) 0.42608(4)
O7 O -0.22485(11) 0.38570(6) 0.67374(5)
O8 O 0.32524(11) 0.75255(5) 0.59448(4)
O9 O 0.35165(10) 0.53235(5) 0.65456(4)
H1 H 0.4239 0.5547 0.6635
O10 O 0.26120(11) 0.76705(5) 0.70932(4)
O11 O 0.00975(12) 0.25607(6) 0.50839(5)
O12 O -0.06099(11) 0.63714(6) 0.59328(5)
O13 O 0.17699(10) 0.27722(5) 0.62103(5)
O14 O 0.18202(12) 0.75262(6) 0.52223(5)
O15 O 0.49667(13) 0.74659(7) 0.71457(6)
C1 C 0.07417(13) 0.39425(7) 0.54941(5)
H2 H 0.1422 0.3618 0.5310
C2 C 0.18311(13) 0.50992(7) 0.58267(5)
H3 H 0.1129 0.5427 0.5997
C3 C 0.04507(13) 0.42675(7) 0.65002(5)
H4 H 0.0206 0.3748 0.6585
C4 C 0.14581(13) 0.42831(7) 0.60016(5)
C5 C -0.20468(15) 0.24946(9) 0.55967(6)
H5 H -0.2291 0.2700 0.5940
H6 H -0.1925 0.1964 0.5628
H7 H -0.2792 0.2599 0.5345
C6 C 0.28055(15) 0.31620(8) 0.62104(6)
C7 C 0.44539(16) 0.49031(8) 0.42300(6)
C8 C 0.17428(14) 0.67273(7) 0.64910(5)
H8 H 0.1336 0.6223 0.6482
C9 C 0.33054(13) 0.54042(7) 0.59848(5)
H9 H 0.4023 0.5101 0.5802
C10 C 0.35274(13) 0.62202(7) 0.58172(5)
C11 C 0.22909(16) 0.68738(7) 0.70574(6)
H10 H 0.3185 0.6600 0.7099
C12 C 0.28556(14) 0.67781(7) 0.60600(5)
C13 C 0.20969(16) 0.41998(8) 0.73066(6)
H11 H 0.1850 0.3679 0.7293
H12 H 0.2109 0.4365 0.7673
H13 H 0.3019 0.4271 0.7151
C14 C 0.03496(14) 0.45950(8) 0.51280(5)
H14 H -0.0524 0.4822 0.5266
C15 C 0.31192(15) 0.52048(7) 0.44661(6)
C16 C 0.06014(15) 0.53331(8) 0.71351(5)
H15 H -0.0140 0.5548 0.6943
C17 C 0.10159(14) 0.46472(8) 0.69966(5)
C18 C -0.20710(14) 0.43500(8) 0.64157(6)
C19 C 0.15633(13) 0.51420(7) 0.52228(5)
H16 H 0.1305 0.5650 0.5112
C20 C 0.12535(19) 0.57835(9) 0.75819(6)
H17 H 0.2218 0.5607 0.7631
H18 H 0.0738 0.5668 0.7908
C21 C 0.40993(18) 0.87158(9) 0.71086(7)
H19 H 0.3768 0.8902 0.6770
H20 H 0.5075 0.8855 0.7158
H21 H 0.3537 0.8925 0.7392
C22 C 0.13114(19) 0.66518(9) 0.75279(6)
C23 C -0.06989(15) 0.28388(8) 0.54050(6)
C24 C -0.05128(15) 0.70006(8) 0.60970(6)
C25 C 0.39722(17) 0.78849(8) 0.71181(6)
C26 C -0.16116(19) 0.75984(9) 0.60375(8)
H22 H -0.2071 0.7680 0.6376
H23 H -0.2303 0.7446 0.5777
H24 H -0.1166 0.8053 0.5921
C27 C 0.46465(16) 0.63683(9) 0.54004(6)
H25 H 0.5408 0.6017 0.5442
H26 H 0.5006 0.6867 0.5443
H27 H 0.4240 0.6316 0.5050
C28 C 0.51205(16) 0.42716(9) 0.44359(7)
H28 H 0.4759 0.4038 0.4740
C29 C 0.26666(16) 0.78416(8) 0.55003(6)
C30 C 0.50153(19) 0.52613(11) 0.37827(7)
H29 H 0.4575 0.5684 0.3643
C31 C 0.00885(16) 0.43669(9) 0.45495(6)
H30 H 0.0937 0.4150 0.4404
H31 H -0.0168 0.4799 0.4343
H32 H -0.0668 0.4008 0.4536
C32 C 0.42948(16) 0.28955(9) 0.63080(8)
H33 H 0.4760 0.2813 0.5971
H34 H 0.4271 0.2437 0.6508
H35 H 0.4806 0.3267 0.6508
C33 C -0.31990(15) 0.47050(10) 0.60830(7)
H36 H -0.3070 0.5237 0.6082
H37 H -0.4114 0.4587 0.6230
H38 H -0.3140 0.4520 0.5723
C34 C 0.63292(18) 0.39896(12) 0.41868(8)
H39 H 0.6763 0.3560 0.4318
C35 C -0.0184(2) 0.69890(10) 0.74952(8)
H40 H -0.0115 0.7519 0.7439
H41 H -0.0682 0.6894 0.7824
H42 H -0.0691 0.6766 0.7202
C36 C 0.3224(2) 0.86156(9) 0.54186(7)
H43 H 0.2648 0.8964 0.5614
H44 H 0.3197 0.8737 0.5044
H45 H 0.4185 0.8643 0.5545
C37 C 0.2019(3) 0.69303(10) 0.80453(7)
H46 H 0.2978 0.6750 0.8061
H47 H 0.1499 0.6748 0.8349
H48 H 0.2021 0.7467 0.8049
C38 C 0.6244(2) 0.49808(14) 0.35464(7)
H49 H 0.6637 0.5223 0.3252
C39 C 0.68799(18) 0.43476(14) 0.37460(8)
H50 H 0.7690 0.4160 0.3581
O16 O 0.59603(12) 0.60598(7) 0.68962(5)
H51 H 0.5675 0.6491 0.6924
C40 C 0.6337(2) 0.57857(11) 0.74066(8)
H52 H 0.6871 0.5332 0.7367
H53 H 0.5493 0.5687 0.7610
H54 H 0.6904 0.6151 0.7590
loop_
_geom_bond_atom_site_label_1
_geom_bond_atom_site_label_2
_geom_bond_site_symmetry_1
_geom_bond_site_symmetry_2
O1 C4 1_555 1_555
O2 C1 1_555 1_555
O3 C8 1_555 1_555
O4 C3 1_555 1_555
O5 C15 1_555 1_555
O6 C15 1_555 1_555
O7 C18 1_555 1_555
O8 C12 1_555 1_555
O9 H1 1_555 1_555
O10 C11 1_555 1_555
O11 C23 1_555 1_555
O12 C24 1_555 1_555
O13 C6 1_555 1_555
O14 C29 1_555 1_555
O15 C25 1_555 1_555
C1 H2 1_555 1_555
C2 H3 1_555 1_555
C3 H4 1_555 1_555
C4 C1 1_555 1_555
C5 H5 1_555 1_555
H6 C5 1_555 1_555
H7 C5 1_555 1_555
C6 O1 1_555 1_555
C7 C15 1_555 1_555
C8 H8 1_555 1_555
C9 O9 1_555 1_555
H9 C9 1_555 1_555
C10 C9 1_555 1_555
C11 C8 1_555 1_555
H10 C11 1_555 1_555
C12 C8 1_555 1_555
C13 H11 1_555 1_555
H12 C13 1_555 1_555
H13 C13 1_555 1_555
C14 C1 1_555 1_555
H14 C14 1_555 1_555
C16 H15 1_555 1_555
C17 C3 1_555 1_555
C18 O4 1_555 1_555
C19 O5 1_555 1_555
H16 C19 1_555 1_555
C20 C16 1_555 1_555
H17 C20 1_555 1_555
H18 C20 1_555 1_555
C21 H19 1_555 1_555
H20 C21 1_555 1_555
H21 C21 1_555 1_555
C22 C11 1_555 1_555
C23 O2 1_555 1_555
C24 O3 1_555 1_555
C25 O10 1_555 1_555
C26 C24 1_555 1_555
H22 C26 1_555 1_555
H23 C26 1_555 1_555
H24 C26 1_555 1_555
C27 C10 1_555 1_555
H25 C27 1_555 1_555
H26 C27 1_555 1_555
H27 C27 1_555 1_555
C28 C7 1_555 1_555
H28 C28 1_555 1_555
C29 O8 1_555 1_555
C30 C7 1_555 1_555
H29 C30 1_555 1_555
C31 C14 1_555 1_555
H30 C31 1_555 1_555
H31 C31 1_555 1_555
H32 C31 1_555 1_555
C32 C6 1_555 1_555
H33 C32 1_555 1_555
H34 C32 1_555 1_555
H35 C32 1_555 1_555
C33 C18 1_555 1_555
H36 C33 1_555 1_555
H37 C33 1_555 1_555
H38 C33 1_555 1_555
C34 C28 1_555 1_555
H39 C34 1_555 1_555
C35 C22 1_555 1_555
H40 C35 1_555 1_555
H41 C35 1_555 1_555
H42 C35 1_555 1_555
C36 C29 1_555 1_555
H43 C36 1_555 1_555
H44 C36 1_555 1_555
H45 C36 1_555 1_555
C37 C22 1_555 1_555
H46 C37 1_555 1_555
H47 C37 1_555 1_555
H48 C37 1_555 1_555
C38 C30 1_555 1_555
H49 C38 1_555 1_555
C39 C34 1_555 1_555
H50 C39 1_555 1_555
O16 H51 1_555 1_555
C40 O16 1_555 1_555
H52 C40 1_555 1_555
H53 C40 1_555 1_555
H54 C40 1_555 1_555
C2 C4 1_555 1_555
C2 C9 1_555 1_555
C2 C19 1_555 1_555
C3 C4 1_555 1_555
C5 C23 1_555 1_555
C10 C12 1_555 1_555
C13 C17 1_555 1_555
C14 C19 1_555 1_555
C16 C17 1_555 1_555
C20 C22 1_555 1_555
C21 C25 1_555 1_555
C38 C39 1_555 1_555

#END
