
#######################################################################
#
#                 Cambridge Crystallographic Data Centre
#                                CCDC 
#
#######################################################################
#
# If this CIF has been generated from an entry in the Cambridge 
# Structural Database, then it will include bibliographic, chemical, 
# crystal, experimental, refinement or atomic coordinate data resulting 
# from the CCDC's data processing and validation procedures.
#
#######################################################################

data_EVIDAQ
_chemical_compound_source        'Pedilanthus tithymaloides'
_chemical_name_common            
(1S,2S,3S,4S,7R,9R,13R,14R,15S)-9,15-diacetoxy-3,7-dibenzoyloxy-1,13,14-trihydroxyjatropha-5E,11E-diene
_chemical_formula_moiety         'C38 H46 O11'
_chemical_name_systematic        
'3a,9-diacetoxy-11-(benzoyloxy)-3,4,5-trihydroxy-2,5,8,8,12-pentamethyl-2,3,3a,4,5,8,9,10,11,13a-decahydro-1H-cyclopenta[12]annulen-1-yl benzoate'
_symmetry_cell_setting           orthorhombic
_symmetry_space_group_name_H-M   'P 21 21 21'
_symmetry_Int_Tables_number      19
_space_group_name_Hall           'P 2ac 2ab'
loop_
_symmetry_equiv_pos_site_id
_symmetry_equiv_pos_as_xyz
1 x,y,z
2 1/2-x,-y,1/2+z
3 1/2+x,1/2-y,-z
4 -x,1/2+y,1/2-z
_cell_length_a                   10.40656(15)
_cell_length_b                   15.8771(2)
_cell_length_c                   21.6213(3)
_cell_angle_alpha                90
_cell_angle_beta                 90
_cell_angle_gamma                90
_cell_volume                     3572.4
_exptl_crystal_colour            colorless
_exptl_crystal_description       block
_cell_formula_units_Z            4
loop_
_atom_site_label
_atom_site_type_symbol
_atom_site_fract_x
_atom_site_fract_y
_atom_site_fract_z
C1 C 0.88235(18) 0.48606(12) 0.25182(8)
H1 H 0.9405 0.4523 0.2790
C2 C 0.76546(19) 0.51278(13) 0.28974(9)
H2 H 0.7211 0.5597 0.2675
C3 C 0.68078(18) 0.43483(12) 0.28642(8)
H3 H 0.5907 0.4462 0.3001
C4 C 0.68838(17) 0.40819(12) 0.21850(8)
H4 H 0.6317 0.4471 0.1944
C5 C 0.63899(18) 0.32047(13) 0.20887(8)
H5 H 0.6929 0.2758 0.2224
C6 C 0.52726(19) 0.29865(13) 0.18328(9)
C7 C 0.48624(19) 0.20742(14) 0.17872(10)
H6 H 0.3902 0.2057 0.1792
C8 C 0.5317(2) 0.16307(15) 0.12018(10)
H7 H 0.5051 0.1972 0.0841
H8 H 0.4872 0.1081 0.1172
C9 C 0.6776(2) 0.14744(14) 0.11579(10)
H9 H 0.7200 0.1718 0.1532
C10 C 0.7453(2) 0.18205(14) 0.05743(9)
C11 C 0.7291(2) 0.27663(14) 0.06039(9)
H10 H 0.6449 0.2973 0.0528
C12 C 0.81771(19) 0.33413(14) 0.07228(8)
H11 H 0.9037 0.3160 0.0786
C13 C 0.78928(19) 0.42662(14) 0.07634(9)
C14 C 0.84703(19) 0.46867(12) 0.13490(9)
H12 H 0.9411 0.4770 0.1276
C15 C 0.83033(18) 0.42708(12) 0.19912(8)
C16 C 0.8022(2) 0.54369(14) 0.35406(9)
H13 H 0.7254 0.5646 0.3753
H14 H 0.8653 0.5893 0.3505
H15 H 0.8395 0.4971 0.3778
C17 C 0.4315(2) 0.35826(16) 0.15514(11)
H16 H 0.4656 0.4158 0.1566
H17 H 0.3508 0.3556 0.1784
H18 H 0.4157 0.3423 0.1120
C18 C 0.6817(2) 0.14845(17) -0.00236(11)
H19 H 0.5928 0.1687 -0.0047
H20 H 0.6822 0.0867 -0.0019
H21 H 0.7297 0.1687 -0.0384
C19 C 0.8868(2) 0.15570(15) 0.05809(11)
H22 H 0.9310 0.1807 0.0226
H23 H 0.8928 0.0942 0.0557
H24 H 0.9272 0.1753 0.0964
C20 C 0.8467(3) 0.47154(16) 0.01974(10)
H25 H 0.8098 0.4477 -0.0181
H26 H 0.9401 0.4637 0.0194
H27 H 0.8268 0.5318 0.0219
C21 C 0.6961(2) 0.35106(14) 0.37897(9)
C22 C 0.7779(2) 0.28913(14) 0.41171(9)
C23 C 0.7494(3) 0.26931(16) 0.47261(11)
H28 H 0.6782 0.2955 0.4923
C24 C 0.8229(3) 0.21226(17) 0.50498(12)
H29 H 0.8028 0.1995 0.5468
C25 C 0.9242(3) 0.17421(18) 0.47696(14)
H30 H 0.9742 0.1342 0.4991
C26 C 0.9549(3) 0.1933(2) 0.41661(15)
H31 H 1.0267 0.1670 0.3975
C27 C 0.8815(3) 0.25069(18) 0.38358(11)
H32 H 0.9024 0.2635 0.3419
C28 C 0.4700(2) 0.17413(14) 0.28491(10)
C29 C 0.5321(2) 0.13272(13) 0.33886(10)
C30 C 0.4729(2) 0.14169(15) 0.39628(11)
H33 H 0.3951 0.1727 0.3997
C31 C 0.5268(2) 0.10559(16) 0.44830(11)
H34 H 0.4869 0.1123 0.4875
C32 C 0.6391(3) 0.05960(16) 0.44307(12)
H35 H 0.6752 0.0339 0.4787
C33 C 0.6991(3) 0.05073(16) 0.38654(12)
H36 H 0.7768 0.0196 0.3834
C34 C 0.6456(2) 0.08744(15) 0.33418(11)
H37 H 0.6868 0.0815 0.2952
C35 C 0.7632(2) 0.02104(15) 0.16199(11)
C36 C 0.7580(3) -0.07344(17) 0.15917(15)
H38 H 0.8230 -0.0940 0.1300
H39 H 0.6726 -0.0913 0.1453
H40 H 0.7750 -0.0967 0.2003
C37 C 1.02669(19) 0.34341(13) 0.19976(9)
C38 C 1.0744(2) 0.25510(15) 0.20678(13)
H41 H 1.1179 0.2376 0.1687
H42 H 1.0017 0.2174 0.2148
H43 H 1.1349 0.2523 0.2415
O1 O 0.95074(15) 0.55814(9) 0.23088(6)
H44 H 1.026(3) 0.5525(17) 0.2399(12)
O2 O 0.74224(13) 0.36870(9) 0.32246(6)
O3 O 0.60110(16) 0.38362(11) 0.40049(7)
O4 O 0.53232(13) 0.15861(9) 0.23125(6)
O5 O 0.37417(15) 0.21671(11) 0.28810(8)
O6 O 0.69237(15) 0.05550(10) 0.11716(7)
O7 O 0.82344(16) 0.06079(11) 0.19961(8)
O8 O 0.65349(15) 0.43692(11) 0.07573(7)
H45 H 0.640(3) 0.4868(19) 0.0804(14)
O9 O 0.78807(16) 0.54991(9) 0.13737(7)
H46 H 0.837(3) 0.5789(18) 0.1622(13)
O10 O 0.89750(12) 0.34608(8) 0.20127(6)
O11 O 1.09509(13) 0.40417(10) 0.19392(7)
loop_
_geom_bond_atom_site_label_1
_geom_bond_atom_site_label_2
_geom_bond_site_symmetry_1
_geom_bond_site_symmetry_2
C1 H1 1_555 1_555
C2 C1 1_555 1_555
H2 C2 1_555 1_555
C3 C2 1_555 1_555
H3 C3 1_555 1_555
C4 C3 1_555 1_555
H4 C4 1_555 1_555
C5 C4 1_555 1_555
H5 C5 1_555 1_555
C6 C5 1_555 1_555
C7 C6 1_555 1_555
H6 C7 1_555 1_555
C8 C7 1_555 1_555
H7 C8 1_555 1_555
H8 C8 1_555 1_555
C9 C8 1_555 1_555
H9 C9 1_555 1_555
C10 C9 1_555 1_555
C11 C10 1_555 1_555
H10 C11 1_555 1_555
C12 C11 1_555 1_555
H11 C12 1_555 1_555
C13 C12 1_555 1_555
C14 C13 1_555 1_555
H12 C14 1_555 1_555
C15 C1 1_555 1_555
C16 C2 1_555 1_555
H13 C16 1_555 1_555
H14 C16 1_555 1_555
H15 C16 1_555 1_555
C17 C6 1_555 1_555
H16 C17 1_555 1_555
H17 C17 1_555 1_555
H18 C17 1_555 1_555
C18 C10 1_555 1_555
H19 C18 1_555 1_555
H20 C18 1_555 1_555
H21 C18 1_555 1_555
C19 C10 1_555 1_555
H22 C19 1_555 1_555
H23 C19 1_555 1_555
H24 C19 1_555 1_555
C20 C13 1_555 1_555
H25 C20 1_555 1_555
H26 C20 1_555 1_555
H27 C20 1_555 1_555
C21 C22 1_555 1_555
C22 C23 1_555 1_555
C23 H28 1_555 1_555
C24 C23 1_555 1_555
H29 C24 1_555 1_555
C25 C24 1_555 1_555
H30 C25 1_555 1_555
C26 C25 1_555 1_555
H31 C26 1_555 1_555
C27 C22 1_555 1_555
H32 C27 1_555 1_555
C28 C29 1_555 1_555
C29 C30 1_555 1_555
C30 H33 1_555 1_555
C31 C30 1_555 1_555
H34 C31 1_555 1_555
C32 C31 1_555 1_555
H35 C32 1_555 1_555
C33 C32 1_555 1_555
H36 C33 1_555 1_555
C34 C29 1_555 1_555
H37 C34 1_555 1_555
C35 C36 1_555 1_555
C36 H38 1_555 1_555
H39 C36 1_555 1_555
H40 C36 1_555 1_555
C37 C38 1_555 1_555
C38 H41 1_555 1_555
H42 C38 1_555 1_555
H43 C38 1_555 1_555
O1 C1 1_555 1_555
H44 O1 1_555 1_555
O2 C3 1_555 1_555
O3 C21 1_555 1_555
O4 C7 1_555 1_555
O5 C28 1_555 1_555
O6 C9 1_555 1_555
O7 C35 1_555 1_555
O8 C13 1_555 1_555
H45 O8 1_555 1_555
O9 C14 1_555 1_555
H46 O9 1_555 1_555
O10 C15 1_555 1_555
O11 C37 1_555 1_555
C4 C15 1_555 1_555
C14 C15 1_555 1_555
C21 O2 1_555 1_555
C26 C27 1_555 1_555
C28 O4 1_555 1_555
C33 C34 1_555 1_555
C35 O6 1_555 1_555
C37 O10 1_555 1_555

#END
