
#######################################################################
#
#                 Cambridge Crystallographic Data Centre
#                                CCDC 
#
#######################################################################
#
# If this CIF has been generated from an entry in the Cambridge 
# Structural Database, then it will include bibliographic, chemical, 
# crystal, experimental, refinement or atomic coordinate data resulting 
# from the CCDC's data processing and validation procedures.
#
#######################################################################

data_EVIDAO
_chemical_formula_moiety         'C10 H13 Br1 O4 S1'
_chemical_name_systematic        
(4aSR,7RS,9aRS)-9a-Bromo-7-methyl-5,5-dioxo-1,2,4a,6,7,9a-hexahydro-8-oxa-5\l^6^-thia-1,4-benzocyclohepten-9-one
_symmetry_cell_setting           triclinic
_symmetry_space_group_name_H-M   'P -1'
_symmetry_Int_Tables_number      2
_space_group_name_Hall           '-P 1'
loop_
_symmetry_equiv_pos_site_id
_symmetry_equiv_pos_as_xyz
1 x,y,z
2 -x,-y,-z
_cell_length_a                   6.0895(5)
_cell_length_b                   9.1882(7)
_cell_length_c                   10.6027(9)
_cell_angle_alpha                89.3830(10)
_cell_angle_beta                 86.5230(10)
_cell_angle_gamma                77.6970(10)
_cell_volume                     578.545
_exptl_crystal_colour            colorless
_exptl_crystal_description       block
_cell_formula_units_Z            2
_exptl_crystal_recrystallization_method dichloromethane
loop_
_atom_site_label
_atom_site_type_symbol
_atom_site_fract_x
_atom_site_fract_y
_atom_site_fract_z
Br1 Br 0.69765(3) 0.522000(17) 0.860457(15)
C1 C 1.0248(3) 0.2544(2) 0.90203(17)
H1 H 1.133(4) 0.318(3) 0.900(2)
H2 H 1.109(5) 0.156(3) 0.868(3)
O1 O 0.9759(2) 0.01457(15) 0.69025(13)
C2 C 0.9246(3) 0.2375(2) 1.03501(18)
H3 H 1.032(5) 0.185(3) 1.089(3)
H4 H 0.880(4) 0.335(3) 1.077(3)
O2 O 0.5884(3) -0.03065(16) 0.72241(14)
C3 C 0.7236(3) 0.1677(2) 1.03453(18)
H5 H 0.671(4) 0.125(3) 1.114(3)
O3 O 1.1500(2) 0.31775(16) 0.65253(14)
C4 C 0.6093(3) 0.1601(2) 0.93261(17)
H6 H 0.483(4) 0.109(3) 0.933(2)
C5 C 0.6609(3) 0.22518(19) 0.80638(16)
H7 H 0.526(4) 0.286(3) 0.772(2)
S1 S 0.73532(7) 0.07045(5) 0.69182(4)
C6 C 0.6668(3) 0.1474(2) 0.54007(17)
H8 H 0.696(4) 0.067(3) 0.484(3)
H9 H 0.512(5) 0.191(3) 0.548(2)
C7 C 0.8095(3) 0.2559(2) 0.49223(16)
H10 H 0.959(4) 0.208(3) 0.481(2)
O4 O 0.7906(2) 0.36615(14) 0.59279(12)
C8 C 0.9510(3) 0.33376(19) 0.67828(17)
C9 C 0.8470(3) 0.31589(19) 0.80998(16)
C10 C 0.7174(4) 0.3349(2) 0.37516(19)
H11 H 0.578(6) 0.398(3) 0.392(3)
H12 H 0.716(5) 0.261(3) 0.314(3)
H13 H 0.817(5) 0.402(3) 0.343(3)
loop_
_geom_bond_atom_site_label_1
_geom_bond_atom_site_label_2
_geom_bond_site_symmetry_1
_geom_bond_site_symmetry_2
Br1 C9 1_555 1_555
C1 H1 1_555 1_555
H2 C1 1_555 1_555
O1 S1 1_555 1_555
C2 C1 1_555 1_555
H3 C2 1_555 1_555
H4 C2 1_555 1_555
O2 S1 1_555 1_555
C3 C2 1_555 1_555
H5 C3 1_555 1_555
O3 C8 1_555 1_555
C4 C3 1_555 1_555
H6 C4 1_555 1_555
C5 C4 1_555 1_555
H7 C5 1_555 1_555
S1 C5 1_555 1_555
C6 S1 1_555 1_555
H8 C6 1_555 1_555
H9 C6 1_555 1_555
C7 C6 1_555 1_555
H10 C7 1_555 1_555
O4 C7 1_555 1_555
C8 O4 1_555 1_555
C9 C1 1_555 1_555
C10 C7 1_555 1_555
H11 C10 1_555 1_555
H12 C10 1_555 1_555
H13 C10 1_555 1_555
C5 C9 1_555 1_555
C8 C9 1_555 1_555

#END
