
#######################################################################
#
#                 Cambridge Crystallographic Data Centre
#                                CCDC 
#
#######################################################################
#
# If this CIF has been generated from an entry in the Cambridge 
# Structural Database, then it will include bibliographic, chemical, 
# crystal, experimental, refinement or atomic coordinate data resulting 
# from the CCDC's data processing and validation procedures.
#
#######################################################################

data_EVIDET
_chemical_name_common            'Cyclobenzaprinium chloride'
_chemical_formula_moiety         'C20 H22 N1 1+,Cl1 1-'
_chemical_name_systematic        
'3-(5H-dibenzo[a,d]cyclohepten-5-ylidene)-N,N-dimethylpropanaminium chloride'
_symmetry_cell_setting           tetragonal
_symmetry_space_group_name_H-M   'I 41/a'
_symmetry_Int_Tables_number      88
_space_group_name_Hall           '-I 4ad'
loop_
_symmetry_equiv_pos_site_id
_symmetry_equiv_pos_as_xyz
1 x,y,z
2 1/2-x,-y,1/2+z
3 3/4-y,1/4+x,1/4+z
4 3/4+y,3/4-x,3/4+z
5 1/2+x,1/2+y,1/2+z
6 -x,1/2-y,z
7 1/4-y,3/4+x,3/4+z
8 1/4+y,1/4-x,1/4+z
9 -x,-y,-z
10 1/2+x,y,1/2-z
11 1/4+y,3/4-x,3/4-z
12 1/4-y,1/4+x,1/4-z
13 1/2-x,1/2-y,1/2-z
14 x,1/2+y,-z
15 3/4+y,1/4-x,1/4-z
16 3/4-y,3/4+x,3/4-z
_cell_length_a                   32.0959(7)
_cell_length_b                   32.0959(7)
_cell_length_c                   13.7578(5)
_cell_angle_alpha                90
_cell_angle_beta                 90
_cell_angle_gamma                90
_cell_volume                     14172.6
_exptl_crystal_colour            colorless
_exptl_crystal_description       block
_cell_formula_units_Z            32
loop_
_atom_site_label
_atom_site_type_symbol
_atom_site_fract_x
_atom_site_fract_y
_atom_site_fract_z
Cl1 Cl 0.43755(2) 0.83305(3) 0.52604(5)
Cl2 Cl 0.42392(3) 0.82264(3) 0.02610(5)
N1 N 0.42875(6) 0.83934(6) 0.74395(14)
H1 H 0.4313(8) 0.8397(8) 0.6811(13)
C1 C 0.35291(7) 0.97757(6) 0.60833(17)
C2 C 0.33019(9) 0.95055(8) 0.5497(2)
H2 H 0.3132 0.9298 0.5789
C3 C 0.33210(12) 0.95355(9) 0.4491(2)
H3 H 0.3158 0.9354 0.4100
C4 C 0.35725(13) 0.98246(10) 0.4061(2)
H4 H 0.3591 0.9839 0.3372
C5 C 0.37984(10) 1.00939(9) 0.4623(2)
H5 H 0.3977 1.0290 0.4317
C6 C 0.37719(7) 1.00871(7) 0.56414(18)
C7 C 0.39916(8) 1.04093(7) 0.6178(2)
H6 H 0.4243 1.0506 0.5893
C8 C 0.38858(9) 1.05853(8) 0.7015(2)
H7 H 0.4063 1.0803 0.7236
C9 C 0.35311(9) 1.04873(8) 0.76403(19)
C10 C 0.33717(12) 1.08112(10) 0.8215(2)
H8 H 0.3494 1.1080 0.8171
C11 C 0.30480(15) 1.07497(13) 0.8830(3)
H9 H 0.2942 1.0976 0.9202
C12 C 0.28720(13) 1.03582(14) 0.8918(3)
H10 H 0.2648 1.0315 0.9359
C13 C 0.30206(10) 1.00289(10) 0.8365(2)
H11 H 0.2897 0.9761 0.8427
C14 C 0.33494(8) 1.00882(7) 0.77176(18)
C15 C 0.35139(7) 0.97280(7) 0.71591(17)
C16 C 0.36159(7) 0.93744(7) 0.76229(18)
H12 H 0.3582 0.9375 0.8309
C17 C 0.37771(8) 0.89783(7) 0.71793(18)
H13 H 0.3867 0.9032 0.6502
H14 H 0.3552 0.8767 0.7165
C18 C 0.41440(7) 0.88136(7) 0.77680(17)
H15 H 0.4379 0.9013 0.7716
H16 H 0.4062 0.8797 0.8461
C19 C 0.47131(8) 0.82985(11) 0.7813(2)
H17 H 0.4805 0.8029 0.7559
H18 H 0.4707 0.8288 0.8525
H19 H 0.4907 0.8516 0.7601
C20 C 0.39931(8) 0.80568(8) 0.77229(19)
H20 H 0.3717 0.8115 0.7448
H21 H 0.3973 0.8044 0.8433
H22 H 0.4095 0.7789 0.7474
N2 N 0.43246(7) 0.82088(6) 0.24254(15)
H23 H 0.4305(8) 0.8217(9) 0.1797(13)
C21 C 0.44909(8) 0.97348(7) 0.1150(2)
C22 C 0.47225(10) 0.94587(9) 0.0590(2)
H24 H 0.4893 0.9257 0.0903
C23 C 0.47100(11) 0.94719(11) -0.0410(3)
H25 H 0.4879 0.9286 -0.0776
C24 C 0.44576(11) 0.97486(11) -0.0883(2)
H26 H 0.4445 0.9751 -0.1573
C25 C 0.42190(10) 1.00278(10) -0.0337(2)
H27 H 0.4038 1.0216 -0.0660
C26 C 0.42435(7) 1.00330(8) 0.0672(2)
C27 C 0.40175(8) 1.03607(9) 0.1188(2)
H28 H 0.3764 1.0449 0.0897
C28 C 0.41211(8) 1.05516(8) 0.2012(2)
H29 H 0.3937 1.0765 0.2223
C29 C 0.44827(7) 1.04757(7) 0.26371(18)
C30 C 0.46409(8) 1.08065(8) 0.3185(2)
H30 H 0.4511 1.1072 0.3141
C31 C 0.49824(9) 1.07574(9) 0.3793(2)
H31 H 0.5085 1.0988 0.4155
C32 C 0.51703(10) 1.03762(10) 0.3869(2)
H32 H 0.5406 1.0341 0.4277
C33 C 0.50154(9) 1.00441(9) 0.3350(2)
H33 H 0.5145 0.9780 0.3415
C34 C 0.46736(8) 1.00845(7) 0.27330(19)
C35 C 0.45100(8) 0.97120(7) 0.2225(2)
C36 C 0.43968(11) 0.93803(8) 0.2764(2)
H34 H 0.4439 0.9405 0.3445
C37 C 0.42116(11) 0.89759(8) 0.2417(2)
H35 H 0.3928 0.8941 0.2689
H36 H 0.4190 0.8977 0.1700
C38 C 0.44836(10) 0.86245(8) 0.2740(2)
H37 H 0.4767 0.8666 0.2473
H38 H 0.4505 0.8629 0.3458
C39 C 0.39106(9) 0.80871(10) 0.2797(2)
H39 H 0.3852 0.7798 0.2612
H40 H 0.3698 0.8270 0.2517
H41 H 0.3907 0.8112 0.3506
C40 C 0.46398(9) 0.78921(9) 0.2685(2)
H42 H 0.4552 0.7620 0.2437
H43 H 0.4668 0.7878 0.3394
H44 H 0.4908 0.7968 0.2397
loop_
_geom_bond_atom_site_label_1
_geom_bond_atom_site_label_2
_geom_bond_site_symmetry_1
_geom_bond_site_symmetry_2
N1 H1 1_555 1_555
C1 C2 1_555 1_555
C2 H2 1_555 1_555
C3 C2 1_555 1_555
H3 C3 1_555 1_555
C4 C3 1_555 1_555
H4 C4 1_555 1_555
C5 C4 1_555 1_555
H5 C5 1_555 1_555
C6 C1 1_555 1_555
C7 C6 1_555 1_555
H6 C7 1_555 1_555
C8 C7 1_555 1_555
H7 C8 1_555 1_555
C9 C8 1_555 1_555
C10 C9 1_555 1_555
H8 C10 1_555 1_555
C11 C10 1_555 1_555
H9 C11 1_555 1_555
C12 C11 1_555 1_555
H10 C12 1_555 1_555
C13 C12 1_555 1_555
H11 C13 1_555 1_555
C14 C9 1_555 1_555
C15 C1 1_555 1_555
C16 C15 1_555 1_555
H12 C16 1_555 1_555
C17 C16 1_555 1_555
H13 C17 1_555 1_555
H14 C17 1_555 1_555
C18 N1 1_555 1_555
H15 C18 1_555 1_555
H16 C18 1_555 1_555
C19 N1 1_555 1_555
H17 C19 1_555 1_555
H18 C19 1_555 1_555
H19 C19 1_555 1_555
C20 N1 1_555 1_555
H20 C20 1_555 1_555
H21 C20 1_555 1_555
H22 C20 1_555 1_555
N2 H23 1_555 1_555
C21 C22 1_555 1_555
C22 H24 1_555 1_555
C23 C22 1_555 1_555
H25 C23 1_555 1_555
C24 C23 1_555 1_555
H26 C24 1_555 1_555
C25 C24 1_555 1_555
H27 C25 1_555 1_555
C26 C21 1_555 1_555
C27 C26 1_555 1_555
H28 C27 1_555 1_555
C28 C27 1_555 1_555
H29 C28 1_555 1_555
C29 C28 1_555 1_555
C30 C29 1_555 1_555
H30 C30 1_555 1_555
C31 C30 1_555 1_555
H31 C31 1_555 1_555
C32 C31 1_555 1_555
H32 C32 1_555 1_555
C33 C32 1_555 1_555
H33 C33 1_555 1_555
C34 C29 1_555 1_555
C35 C21 1_555 1_555
C36 C35 1_555 1_555
H34 C36 1_555 1_555
C37 C36 1_555 1_555
H35 C37 1_555 1_555
H36 C37 1_555 1_555
C38 N2 1_555 1_555
H37 C38 1_555 1_555
H38 C38 1_555 1_555
C39 N2 1_555 1_555
H39 C39 1_555 1_555
H40 C39 1_555 1_555
H41 C39 1_555 1_555
C40 N2 1_555 1_555
H42 C40 1_555 1_555
H43 C40 1_555 1_555
H44 C40 1_555 1_555
C5 C6 1_555 1_555
C13 C14 1_555 1_555
C14 C15 1_555 1_555
C17 C18 1_555 1_555
C25 C26 1_555 1_555
C33 C34 1_555 1_555
C34 C35 1_555 1_555
C37 C38 1_555 1_555

#END
