
#######################################################################
#
#                 Cambridge Crystallographic Data Centre
#                                CCDC 
#
#######################################################################
#
# If this CIF has been generated from an entry in the Cambridge 
# Structural Database, then it will include bibliographic, chemical, 
# crystal, experimental, refinement or atomic coordinate data resulting 
# from the CCDC's data processing and validation procedures.
#
#######################################################################

data_EVIDIX
_chemical_formula_moiety         'C10 H6 O6 S2 2-,2(C2 H8 N1 O1 1+)'
_chemical_name_systematic        
'bis(2-hydroxyethanaminium) naphthalene-1,5-disulfonate'
_symmetry_cell_setting           monoclinic
_symmetry_space_group_name_H-M   'P 21/c'
_symmetry_Int_Tables_number      14
_space_group_name_Hall           '-P 2ybc'
loop_
_symmetry_equiv_pos_site_id
_symmetry_equiv_pos_as_xyz
1 x,y,z
2 -x,1/2+y,1/2-z
3 -x,-y,-z
4 x,1/2-y,1/2+z
_cell_length_a                   9.7946(14)
_cell_length_b                   8.9011(13)
_cell_length_c                   10.4050(16)
_cell_angle_alpha                90
_cell_angle_beta                 104.334(2)
_cell_angle_gamma                90
_cell_volume                     878.896
_exptl_crystal_colour            colorless
_exptl_crystal_description       prism
_cell_formula_units_Z            2
loop_
_atom_site_label
_atom_site_type_symbol
_atom_site_fract_x
_atom_site_fract_y
_atom_site_fract_z
O1 O 0.84543(12) 0.76241(16) -0.12460(11)
O2 O 0.75476(13) 0.65670(12) 0.04999(12)
O3 O 0.89350(12) 0.88364(13) 0.09087(11)
S1 S 0.79615(4) 0.79324(4) -0.00698(3)
C1 C 0.64066(14) 0.90372(15) -0.06386(14)
C2 C 0.56077(14) 0.95467(15) 0.02605(13)
C3 C 0.59815(15) 0.91921(17) 0.16367(14)
H5 H 0.6775 0.8609 0.1983
C4 C 0.51843(16) 0.97004(17) 0.24527(14)
H6 H 0.5440 0.9455 0.3349
C5 C 0.60178(16) 0.94103(17) -0.19575(14)
H7 H 0.6551 0.9074 -0.2526
O1B O 0.15457(12) 1.23759(16) 0.12460(11)
O2B O 0.24524(13) 1.34330(12) -0.04999(12)
O3B O 0.10650(12) 1.11636(13) -0.09087(11)
S1B S 0.20385(4) 1.20676(4) 0.00698(3)
C1B C 0.35934(14) 1.09628(15) 0.06386(14)
C2B C 0.43923(14) 1.04533(15) -0.02605(13)
C3B C 0.40185(15) 1.08079(17) -0.16367(14)
H5B H 0.3225 1.1391 -0.1983
C4B C 0.48157(16) 1.02996(17) -0.24527(14)
H6B H 0.4560 1.0545 -0.3349
C5B C 0.39822(16) 1.05897(17) 0.19575(14)
H7B H 0.3449 1.0926 0.2526
O4 O 0.85710(15) 0.38353(14) -0.03184(13)
H1 H 0.843(3) 0.4733(14) -0.015(2)
N1 N 0.91425(15) 0.17298(16) 0.20858(14)
H2 H 0.9313 0.1641 0.2963
H3 H 0.9898 0.2108 0.1872
H4 H 0.8947 0.0830 0.1713
C6 C 0.79262(19) 0.2745(2) 0.16027(18)
H8 H 0.8137 0.3716 0.2029
H9 H 0.7112 0.2338 0.1856
C7 C 0.7569(2) 0.2955(2) 0.01220(19)
H10 H 0.7502 0.1977 -0.0300
H11 H 0.6653 0.3433 -0.0157
loop_
_geom_bond_atom_site_label_1
_geom_bond_atom_site_label_2
_geom_bond_site_symmetry_1
_geom_bond_site_symmetry_2
O1 S1 1_555 1_555
O2 S1 1_555 1_555
O3 S1 1_555 1_555
O4 H1 1_555 1_555
S1 C1 1_555 1_555
N1 H2 1_555 1_555
H3 N1 1_555 1_555
H4 N1 1_555 1_555
C1 C2 1_555 1_555
C2 C3 1_555 1_555
C3 H5 1_555 1_555
C4 C3 1_555 1_555
H6 C4 1_555 1_555
C5 C1 1_555 1_555
H7 C5 1_555 1_555
C6 N1 1_555 1_555
H8 C6 1_555 1_555
H9 C6 1_555 1_555
C7 O4 1_555 1_555
H10 C7 1_555 1_555
H11 C7 1_555 1_555
O1B S1B 1_555 1_555
O2B S1B 1_555 1_555
O3B S1B 1_555 1_555
S1B C1B 1_555 1_555
C1B C2B 1_555 1_555
C2B C2 1_555 1_555
C3B C2B 1_555 1_555
H5B C3B 1_555 1_555
C4B C5 1_555 1_555
H6B C4B 1_555 1_555
C5B C4 1_555 1_555
H7B C5B 1_555 1_555
C6 C7 1_555 1_555
C1B C5B 1_555 1_555
C3B C4B 1_555 1_555

#END
