
#######################################################################
#
#                 Cambridge Crystallographic Data Centre
#                                CCDC 
#
#######################################################################
#
# If this CIF has been generated from an entry in the Cambridge 
# Structural Database, then it will include bibliographic, chemical, 
# crystal, experimental, refinement or atomic coordinate data resulting 
# from the CCDC's data processing and validation procedures.
#
#######################################################################

data_EVIFUL
_chemical_formula_moiety         'C10 H14 N1 O1 1+,Cl1 1-'
_chemical_name_systematic        
'N-Methyl-2-oxo-1-phenylpropan-1-aminium chloride'
_symmetry_cell_setting           monoclinic
_symmetry_space_group_name_H-M   'P 21/c'
_symmetry_Int_Tables_number      14
_space_group_name_Hall           '-P 2ybc'
loop_
_symmetry_equiv_pos_site_id
_symmetry_equiv_pos_as_xyz
1 x,y,z
2 -x,1/2+y,1/2-z
3 -x,-y,-z
4 x,1/2-y,1/2+z
_cell_length_a                   12.631(3)
_cell_length_b                   8.2564(17)
_cell_length_c                   11.423(2)
_cell_angle_alpha                90
_cell_angle_beta                 114.63(3)
_cell_angle_gamma                90
_cell_volume                     1082.88
_exptl_crystal_colour            colorless
_exptl_crystal_description       prism
_cell_formula_units_Z            4
loop_
_atom_site_label
_atom_site_type_symbol
_atom_site_fract_x
_atom_site_fract_y
_atom_site_fract_z
Cl1 Cl 0.84648(5) 0.60715(7) 1.05463(5)
N1 N 0.88712(14) 0.4261(2) 0.83566(16)
H1 H 0.8633 0.4628 0.8949
H2 H 0.9638 0.4049 0.8764
C1 C 0.6325(2) 0.3894(3) 0.7610(2)
H3 H 0.6721 0.4438 0.8384
C2 C 0.82470(17) 0.2721(2) 0.78105(19)
H4 H 0.8544 0.2286 0.7207
C3 C 0.85316(19) 0.1511(3) 0.8920(2)
C4 C 0.69366(18) 0.2949(3) 0.7093(2)
C5 C 0.5129(2) 0.4023(4) 0.6973(3)
H5 H 0.4724 0.4663 0.7317
C6 C 0.8142(3) -0.0187(3) 0.8562(3)
H6 H 0.8363 -0.0829 0.9329
H7 H 0.8501 -0.0618 0.8036
H8 H 0.7311 -0.0212 0.8091
C7 C 0.6337(2) 0.2185(3) 0.5944(2)
H9 H 0.6737 0.1578 0.5574
C8 C 0.5143(3) 0.2308(4) 0.5332(3)
H10 H 0.4746 0.1759 0.4561
C9 C 0.4533(2) 0.3214(4) 0.5833(3)
H11 H 0.3727 0.3286 0.5412
C10 C 0.8697(2) 0.5566(3) 0.7395(2)
H12 H 0.9126 0.6511 0.7824
H13 H 0.7884 0.5826 0.6970
H14 H 0.8970 0.5202 0.6771
O1 O 0.90399(18) 0.1954(2) 1.00174(16)
loop_
_geom_bond_atom_site_label_1
_geom_bond_atom_site_label_2
_geom_bond_site_symmetry_1
_geom_bond_site_symmetry_2
N1 H1 1_555 1_555
H2 N1 1_555 1_555
C1 H3 1_555 1_555
C2 N1 1_555 1_555
H4 C2 1_555 1_555
C3 C2 1_555 1_555
C4 C1 1_555 1_555
C5 C1 1_555 1_555
H5 C5 1_555 1_555
C6 C3 1_555 1_555
H6 C6 1_555 1_555
H7 C6 1_555 1_555
H8 C6 1_555 1_555
C7 C4 1_555 1_555
H9 C7 1_555 1_555
C8 C7 1_555 1_555
H10 C8 1_555 1_555
C9 C5 1_555 1_555
H11 C9 1_555 1_555
C10 N1 1_555 1_555
H12 C10 1_555 1_555
H13 C10 1_555 1_555
H14 C10 1_555 1_555
O1 C3 1_555 1_555
C2 C4 1_555 1_555
C8 C9 1_555 1_555

#END
