
#######################################################################
#
#                 Cambridge Crystallographic Data Centre
#                                CCDC 
#
#######################################################################
#
# If this CIF has been generated from an entry in the Cambridge 
# Structural Database, then it will include bibliographic, chemical, 
# crystal, experimental, refinement or atomic coordinate data resulting 
# from the CCDC's data processing and validation procedures.
#
#######################################################################

data_EVIFIA
_chemical_formula_moiety         'C54 H33 F15 N6'
_chemical_name_systematic        
7,7,17,17,27,27-hexamethyl-2,12,22-tris(pentafluorophenyl)-4,14,24,31,33,35-hexaazaheptacyclo[26.2.1.1^3,6^.1^8,11^.1^13,16^.1^18,21^.1^23,26^]hexatriaconta-1,3(36),5,8,10,12,14,16(34),18,20,22,24,26(32),28(31),29-pentadecaene
_symmetry_cell_setting           monoclinic
_symmetry_space_group_name_H-M   'P 21/c'
_symmetry_Int_Tables_number      14
_space_group_name_Hall           '-P 2ybc'
loop_
_symmetry_equiv_pos_site_id
_symmetry_equiv_pos_as_xyz
1 x,y,z
2 -x,1/2+y,1/2-z
3 -x,-y,-z
4 x,1/2-y,1/2+z
_cell_length_a                   12.2025(7)
_cell_length_b                   11.9106(6)
_cell_length_c                   32.5895(15)
_cell_angle_alpha                90
_cell_angle_beta                 94.442(3)
_cell_angle_gamma                90
_cell_volume                     4722.3
_exptl_crystal_colour            orange
_exptl_crystal_description       prism
_cell_formula_units_Z            4
loop_
_atom_site_label
_atom_site_type_symbol
_atom_site_fract_x
_atom_site_fract_y
_atom_site_fract_z
F1 F 1.24431(16) 0.22063(18) 0.57661(6)
F2 F 1.41655(16) 0.3216(2) 0.54520(6)
F3 F 1.47031(17) 0.5357(2) 0.56715(7)
F4 F 1.34891(18) 0.64723(19) 0.62059(7)
F5 F 1.18108(16) 0.54472(16) 0.65361(6)
F6 F 0.51947(16) 0.81716(17) 0.55009(6)
F7 F 0.47272(17) 1.03827(17) 0.54537(6)
F8 F 0.57485(16) 1.18373(16) 0.59972(6)
F9 F 0.72667(16) 1.10783(16) 0.65867(6)
F10 F 0.77345(16) 0.88669(15) 0.66416(6)
F11 F 0.65492(17) 0.38874(16) 0.89477(6)
F12 F 0.7383(3) 0.3725(3) 0.97287(7)
F13 F 0.9581(3) 0.3973(3) 0.99200(7)
F14 F 1.0894(2) 0.4716(2) 0.93333(7)
F15 F 1.00464(16) 0.50268(16) 0.85613(6)
N1 N 0.7984(2) 0.3865(2) 0.75854(8)
N2 N 1.0437(2) 0.2232(2) 0.69326(8)
N3 N 0.9240(3) 0.2578(3) 0.61986(9)
N4 N 0.7354(2) 0.5575(3) 0.57472(8)
N5 N 0.6431(3) 0.5478(3) 0.64792(8)
N6 N 0.6398(2) 0.5283(2) 0.77848(8)
C1 C 0.8298(3) 0.3829(3) 0.80114(10)
C2 C 0.9124(3) 0.2981(3) 0.80907(10)
C3 C 0.9302(3) 0.2500(3) 0.77234(10)
C4 C 0.8577(3) 0.3083(3) 0.74221(10)
C5 C 1.0077(3) 0.1551(3) 0.76258(10)
C6 C 1.0820(3) 0.2041(3) 0.73134(10)
C7 C 1.1945(3) 0.2433(3) 0.73949(10)
C8 C 1.2233(3) 0.2883(3) 0.70391(10)
C9 C 1.1291(3) 0.2786(3) 0.67444(10)
C10 C 1.1151(3) 0.3190(3) 0.63546(10)
C11 C 1.0150(3) 0.3164(3) 0.60996(10)
C12 C 0.9831(3) 0.3760(3) 0.57417(10)
C13 C 0.8712(3) 0.3534(3) 0.56331(10)
C14 C 0.8386(3) 0.2804(3) 0.59208(11)
C15 C 0.8002(3) 0.4094(3) 0.52858(10)
C16 C 0.7852(3) 0.5306(3) 0.53993(10)
C17 C 0.8083(3) 0.6307(3) 0.52067(10)
C18 C 0.7698(3) 0.7199(3) 0.54422(10)
C19 C 0.7237(3) 0.6723(3) 0.57833(10)
C20 C 0.6695(3) 0.7211(3) 0.61045(10)
C21 C 0.6302(3) 0.6646(3) 0.64341(10)
C22 C 0.5693(3) 0.7078(3) 0.67573(10)
C23 C 0.5450(3) 0.6199(3) 0.70016(10)
C24 C 0.5938(3) 0.5233(3) 0.68138(10)
C25 C 0.4802(3) 0.6200(3) 0.73795(10)
C26 C 0.5542(3) 0.6018(3) 0.77684(10)
C27 C 0.5479(3) 0.6451(3) 0.81624(10)
C28 C 0.6313(3) 0.5969(3) 0.84176(10)
C29 C 0.6890(3) 0.5231(3) 0.81779(10)
C30 C 0.7810(3) 0.4521(3) 0.82868(10)
C31 C 0.9406(3) 0.0560(3) 0.74327(10)
C32 C 1.0763(3) 0.1147(3) 0.80113(10)
C33 C 1.2092(3) 0.3781(3) 0.61751(9)
C34 C 1.2705(3) 0.3258(3) 0.58885(11)
C35 C 1.3589(3) 0.3762(4) 0.57219(11)
C36 C 1.3856(3) 0.4841(4) 0.58359(12)
C37 C 1.3261(3) 0.5400(4) 0.61101(12)
C38 C 1.2392(3) 0.4866(3) 0.62744(10)
C39 C 0.6855(3) 0.3533(3) 0.52347(10)
C40 C 0.8569(3) 0.4001(3) 0.48828(10)
C41 C 0.6482(3) 0.8452(3) 0.60724(10)
C42 C 0.5729(3) 0.8878(4) 0.57681(11)
C43 C 0.5488(3) 1.0005(3) 0.57416(11)
C44 C 0.6002(3) 1.0725(3) 0.60135(11)
C45 C 0.6756(3) 1.0352(3) 0.63178(11)
C46 C 0.6992(3) 0.9222(3) 0.63422(11)
C47 C 0.3959(3) 0.5215(3) 0.73492(11)
C48 C 0.4169(3) 0.7290(3) 0.74076(12)
C49 C 0.8250(3) 0.4481(3) 0.87218(10)
C50 C 0.7618(4) 0.4152(3) 0.90359(12)
C51 C 0.8035(5) 0.4033(4) 0.94350(13)
C52 C 0.9132(5) 0.4189(4) 0.95344(12)
C53 C 0.9808(4) 0.4531(4) 0.92364(13)
C54 C 0.9354(4) 0.4695(3) 0.88392(11)
H1 H 0.9479 0.2792 0.8351
H2 H 0.9216 0.2123 0.6411
H3 H 0.8534 0.2918 0.7136
H4 H 0.7136 0.5082 0.5925
H5 H 0.6607 0.4897 0.7574
H6 H 1.2386 0.2382 0.7647
H7 H 1.2925 0.3203 0.6991
H8 H 1.0290 0.4237 0.5596
H9 H 0.7668 0.2499 0.5926
H10 H 0.8438 0.6380 0.4959
H11 H 0.7743 0.7977 0.5381
H12 H 0.5494 0.7840 0.6795
H13 H 0.5905 0.4494 0.6922
H14 H 0.4957 0.6983 0.8243
H15 H 0.6464 0.6113 0.8703
H16 H 0.9907 -0.0042 0.7363
H17 H 0.8979 0.0814 0.7183
H18 H 0.8906 0.0277 0.7630
H19 H 1.1162 0.1783 0.8142
H20 H 1.1290 0.0578 0.7934
H21 H 1.0277 0.0819 0.8205
H22 H 0.6488 0.3616 0.5490
H23 H 0.6939 0.2733 0.5174
H24 H 0.6411 0.3893 0.5008
H25 H 0.8130 0.4396 0.4663
H26 H 0.8636 0.3208 0.4808
H27 H 0.9302 0.4339 0.4920
H28 H 0.3442 0.5324 0.7107
H29 H 0.3555 0.5200 0.7598
H30 H 0.4350 0.4503 0.7324
H31 H 0.4685 0.7921 0.7430
H32 H 0.3744 0.7271 0.7651
H33 H 0.3668 0.7381 0.7160
loop_
_geom_bond_atom_site_label_1
_geom_bond_atom_site_label_2
_geom_bond_site_symmetry_1
_geom_bond_site_symmetry_2
F1 C34 1_555 1_555
F2 C35 1_555 1_555
F3 C36 1_555 1_555
F4 C37 1_555 1_555
F5 C38 1_555 1_555
F6 C42 1_555 1_555
F7 C43 1_555 1_555
F8 C44 1_555 1_555
F9 C45 1_555 1_555
F10 C46 1_555 1_555
F11 C50 1_555 1_555
F12 C51 1_555 1_555
F13 C52 1_555 1_555
F14 C53 1_555 1_555
F15 C54 1_555 1_555
N1 C1 1_555 1_555
N2 C6 1_555 1_555
N3 C11 1_555 1_555
N4 C16 1_555 1_555
N5 C21 1_555 1_555
N6 C26 1_555 1_555
C1 C2 1_555 1_555
C2 C3 1_555 1_555
C3 C4 1_555 1_555
C4 N1 1_555 1_555
C5 C3 1_555 1_555
C6 C5 1_555 1_555
C7 C6 1_555 1_555
C8 C7 1_555 1_555
C9 N2 1_555 1_555
C10 C9 1_555 1_555
C11 C10 1_555 1_555
C12 C11 1_555 1_555
C13 C12 1_555 1_555
C14 N3 1_555 1_555
C15 C13 1_555 1_555
C16 C15 1_555 1_555
C17 C16 1_555 1_555
C18 C17 1_555 1_555
C19 N4 1_555 1_555
C20 C19 1_555 1_555
C21 C20 1_555 1_555
C22 C21 1_555 1_555
C23 C22 1_555 1_555
C24 N5 1_555 1_555
C25 C23 1_555 1_555
C26 C25 1_555 1_555
C27 C26 1_555 1_555
C28 C27 1_555 1_555
C29 N6 1_555 1_555
C30 C1 1_555 1_555
C31 C5 1_555 1_555
C32 C5 1_555 1_555
C33 C10 1_555 1_555
C34 C33 1_555 1_555
C35 C34 1_555 1_555
C36 C35 1_555 1_555
C37 C36 1_555 1_555
C38 C33 1_555 1_555
C39 C15 1_555 1_555
C40 C15 1_555 1_555
C41 C20 1_555 1_555
C42 C41 1_555 1_555
C43 C42 1_555 1_555
C44 C43 1_555 1_555
C45 C44 1_555 1_555
C46 C41 1_555 1_555
C47 C25 1_555 1_555
C48 C25 1_555 1_555
C49 C30 1_555 1_555
C50 C49 1_555 1_555
C51 C50 1_555 1_555
C52 C51 1_555 1_555
C53 C52 1_555 1_555
C54 C49 1_555 1_555
H1 C2 1_555 1_555
H2 N3 1_555 1_555
H3 C4 1_555 1_555
H4 N4 1_555 1_555
H5 N6 1_555 1_555
H6 C7 1_555 1_555
H7 C8 1_555 1_555
H8 C12 1_555 1_555
H9 C14 1_555 1_555
H10 C17 1_555 1_555
H11 C18 1_555 1_555
H12 C22 1_555 1_555
H13 C24 1_555 1_555
H14 C27 1_555 1_555
H15 C28 1_555 1_555
H16 C31 1_555 1_555
H17 C31 1_555 1_555
H18 C31 1_555 1_555
H19 C32 1_555 1_555
H20 C32 1_555 1_555
H21 C32 1_555 1_555
H22 C39 1_555 1_555
H23 C39 1_555 1_555
H24 C39 1_555 1_555
H25 C40 1_555 1_555
H26 C40 1_555 1_555
H27 C40 1_555 1_555
H28 C47 1_555 1_555
H29 C47 1_555 1_555
H30 C47 1_555 1_555
H31 C48 1_555 1_555
H32 C48 1_555 1_555
H33 C48 1_555 1_555
C8 C9 1_555 1_555
C13 C14 1_555 1_555
C18 C19 1_555 1_555
C23 C24 1_555 1_555
C28 C29 1_555 1_555
C29 C30 1_555 1_555
C37 C38 1_555 1_555
C45 C46 1_555 1_555
C53 C54 1_555 1_555

#END
