
#######################################################################
#
#                 Cambridge Crystallographic Data Centre
#                                CCDC 
#
#######################################################################
#
# If this CIF has been generated from an entry in the Cambridge 
# Structural Database, then it will include bibliographic, chemical, 
# crystal, experimental, refinement or atomic coordinate data resulting 
# from the CCDC's data processing and validation procedures.
#
#######################################################################

data_EVIGAR
_chemical_formula_moiety         'C6 H10 N3 1+,C6 H9 N3,Br1 1-,H2 O1'
_chemical_name_systematic        
'2-Amino-4,6-dimethylpyrimidinium 2-amino-4,6-dimethylpyrimidine bromide monohydrate'
_symmetry_cell_setting           triclinic
_symmetry_space_group_name_H-M   'P -1'
_symmetry_Int_Tables_number      2
_space_group_name_Hall           '-P 1'
loop_
_symmetry_equiv_pos_site_id
_symmetry_equiv_pos_as_xyz
1 x,y,z
2 -x,-y,-z
_cell_length_a                   7.002(4)
_cell_length_b                   9.438(8)
_cell_length_c                   12.658(6)
_cell_angle_alpha                79.56(5)
_cell_angle_beta                 83.85(4)
_cell_angle_gamma                82.98(6)
_cell_volume                     813.386
_exptl_crystal_colour            colorless
_exptl_crystal_description       block
_cell_formula_units_Z            2
loop_
_atom_site_label
_atom_site_type_symbol
_atom_site_fract_x
_atom_site_fract_y
_atom_site_fract_z
N1 N 0.6470(5) 0.0555(4) 0.7223(3)
N2 N 0.5696(6) -0.1002(4) 0.8791(3)
N3 N 0.5505(5) 0.1434(4) 0.8841(3)
C1 C 0.5885(6) 0.0334(4) 0.8289(3)
C2 C 0.5758(6) 0.2755(4) 0.8302(4)
C3 C 0.6414(6) 0.3013(5) 0.7217(4)
C4 C 0.6747(6) 0.1887(5) 0.6665(3)
C5 C 0.7351(8) 0.1979(6) 0.5490(4)
C6 C 0.5276(8) 0.3967(5) 0.8942(4)
H1 H 0.66230 0.39450 0.68720
H2 H 0.66730 -0.01740 0.68900
H3 H 0.53320 -0.11610 0.94690
H4 H 0.59380 -0.17120 0.84410
H5 H 0.79330 0.10490 0.53510
H6 H 0.82670 0.26780 0.52760
H7 H 0.62400 0.22700 0.50880
H8 H 0.41780 0.37700 0.94470
H9 H 0.49820 0.48600 0.84620
H10 H 0.63610 0.40430 0.93240
N4 N 0.0883(5) 0.3243(4) 0.8157(3)
N5 N -0.0040(6) 0.2064(4) 0.9853(3)
N6 N 0.0698(5) 0.0678(4) 0.8529(3)
C7 C 0.0540(6) 0.1991(4) 0.8824(3)
C8 C 0.1306(6) 0.0610(5) 0.7508(3)
C9 C 0.1721(6) 0.1831(5) 0.6777(4)
C10 C 0.1467(6) 0.3142(5) 0.7129(4)
C11 C 0.1796(8) 0.4529(6) 0.6380(4)
C12 C 0.1529(8) -0.0857(5) 0.7183(4)
H11 H -0.02970 0.12920 1.02960
H12 H -0.01590 0.28830 1.00740
H13 H 0.21590 0.17690 0.60650
H14 H 0.05740 0.50510 0.62060
H15 H 0.25300 0.43170 0.57320
H16 H 0.24950 0.51060 0.67230
H17 H 0.14780 -0.15890 0.78170
H18 H 0.27480 -0.09980 0.67700
H19 H 0.05020 -0.09220 0.67540
O1 O 0.0647(7) 0.4027(4) 0.1283(4)
H20 H 0.13290 0.37250 0.17610
H21 H 0.00840 0.47740 0.14210
Br1 Br 0.30561(8) 0.25741(6) 0.35557(4)
loop_
_geom_bond_atom_site_label_1
_geom_bond_atom_site_label_2
_geom_bond_site_symmetry_1
_geom_bond_site_symmetry_2
N1 C1 1_555 1_555
N2 C1 1_555 1_555
N3 C1 1_555 1_555
C2 N3 1_555 1_555
C3 C2 1_555 1_555
C4 N1 1_555 1_555
C5 C4 1_555 1_555
C6 C2 1_555 1_555
N4 C7 1_555 1_555
N5 C7 1_555 1_555
N6 C7 1_555 1_555
C8 N6 1_555 1_555
C9 C8 1_555 1_555
C10 N4 1_555 1_555
C11 C10 1_555 1_555
C12 C8 1_555 1_555
O1 H20 1_555 1_555
H1 C3 1_555 1_555
H2 N1 1_555 1_555
H3 N2 1_555 1_555
H4 N2 1_555 1_555
H5 C5 1_555 1_555
H6 C5 1_555 1_555
H7 C5 1_555 1_555
H8 C6 1_555 1_555
H9 C6 1_555 1_555
H10 C6 1_555 1_555
H11 N5 1_555 1_555
H12 N5 1_555 1_555
H13 C9 1_555 1_555
H14 C11 1_555 1_555
H15 C11 1_555 1_555
H16 C11 1_555 1_555
H17 C12 1_555 1_555
H18 C12 1_555 1_555
H19 C12 1_555 1_555
H21 O1 1_555 1_555
C3 C4 1_555 1_555
C9 C10 1_555 1_555

#END
