
#######################################################################
#
#                 Cambridge Crystallographic Data Centre
#                                CCDC 
#
#######################################################################
#
# If this CIF has been generated from an entry in the Cambridge 
# Structural Database, then it will include bibliographic, chemical, 
# crystal, experimental, refinement or atomic coordinate data resulting 
# from the CCDC's data processing and validation procedures.
#
#######################################################################

data_EVIKIE
_chemical_name_common            
2,2-Dimethyl-6-(nitromethyl)hexahydrofuro[2',3':4,5]furo[2,3-d][1,3]dioxol-6-ol
_chemical_formula_moiety         'C10 H15 N1 O7'
_chemical_name_systematic        
3,6-Didehydro-5-hydroxy-1,2-O-isopropylidene-5-C-nitromethyl-\a-D-glucofuranose
_symmetry_cell_setting           orthorhombic
_symmetry_space_group_name_H-M   'P 21 21 21'
_symmetry_Int_Tables_number      19
_space_group_name_Hall           'P 2ac 2ab'
loop_
_symmetry_equiv_pos_site_id
_symmetry_equiv_pos_as_xyz
1 x,y,z
2 1/2-x,-y,1/2+z
3 1/2+x,1/2-y,-z
4 -x,1/2+y,1/2-z
_cell_length_a                   5.63290(13)
_cell_length_b                   8.36405(15)
_cell_length_c                   25.4014(5)
_cell_angle_alpha                90
_cell_angle_beta                 90
_cell_angle_gamma                90
_cell_volume                     1196.76
_exptl_crystal_colour            white
_exptl_crystal_description       block
_cell_formula_units_Z            4
loop_
_atom_site_label
_atom_site_type_symbol
_atom_site_fract_x
_atom_site_fract_y
_atom_site_fract_z
O1 O 0.8215(5) -0.0074(2) 0.86303(8)
O2 O 0.5738(5) 0.1567(3) 0.81809(9)
O3 O 0.4254(5) 0.4145(8) 0.92867(15)
O4 O 0.8877(4) 0.2199(2) 0.91272(11)
O5 O 1.0074(4) 0.4587(3) 0.97889(8)
H1 H 1.070(10) 0.374(6) 0.966(2)
O6 O 1.1140(5) 0.6590(3) 0.86098(10)
O7 O 1.2025(5) 0.7827(3) 0.93199(11)
N1 N 1.0673(5) 0.7059(3) 0.90501(9)
C1 C 0.7251(6) 0.1003(3) 0.89903(10)
H2 H 0.6693 0.0440 0.9305
C2 C 0.5231(5) 0.1803(4) 0.87177(13)
H3 H 0.3681 0.1375 0.8822
C3 C 0.5524(6) 0.3547(5) 0.88496(14)
H4 H 0.5120 0.4186 0.8539
C4 C 0.8110(5) 0.3724(3) 0.89597(11)
H5 H 0.9001 0.4120 0.8655
C5 C 0.8201(4) 0.4884(3) 0.94342(9)
C6 C 0.5819(5) 0.4568(4) 0.96985(11)
H6 H 0.5953 0.3704 0.9952
H7 H 0.5259 0.5518 0.9879
C7 C 0.7269(6) 0.0235(3) 0.81191(10)
C8 C 0.9245(10) 0.0693(8) 0.7760(2)
H8 H 1.0428 -0.0133 0.7761
H9 H 0.9940 0.1677 0.7879
H10 H 0.8640 0.0830 0.7410
C9 C 0.5948(9) -0.1217(5) 0.79390(18)
H11 H 0.4567 -0.1366 0.8155
H12 H 0.6958 -0.2138 0.7967
H13 H 0.5471 -0.1080 0.7579
C10 C 0.8305(5) 0.6646(3) 0.92708(11)
H14 H 0.7090 0.6856 0.9009
H15 H 0.7985 0.7315 0.9575
H16? H 0.4794 0.4325 0.8611
H17? H 0.6048 0.4120 1.0047
H18? H 0.4915 0.5550 0.9730
O8? O 0.4631(15) 0.3468(10) 0.93694(15)
loop_
_geom_bond_atom_site_label_1
_geom_bond_atom_site_label_2
_geom_bond_site_symmetry_1
_geom_bond_site_symmetry_2
O1 C1 1_555 1_555
O2 C2 1_555 1_555
O3 C3 1_555 1_555
O4 C1 1_555 1_555
O5 H1 1_555 1_555
O6 N1 1_555 1_555
O7 N1 1_555 1_555
N1 C10 1_555 1_555
C1 H2 1_555 1_555
C2 C1 1_555 1_555
H3 C2 1_555 1_555
C3 C2 1_555 1_555
H4 C3 1_555 1_555
C4 O4 1_555 1_555
H5 C4 1_555 1_555
C5 O5 1_555 1_555
C6 O3 1_555 1_555
H6 C6 1_555 1_555
H7 C6 1_555 1_555
C7 O1 1_555 1_555
C8 C7 1_555 1_555
H8 C8 1_555 1_555
H9 C8 1_555 1_555
H10 C8 1_555 1_555
C9 C7 1_555 1_555
H11 C9 1_555 1_555
H12 C9 1_555 1_555
H13 C9 1_555 1_555
C10 C5 1_555 1_555
H14 C10 1_555 1_555
H15 C10 1_555 1_555
O2 C7 1_555 1_555
C3 C4 1_555 1_555
C4 C5 1_555 1_555
C5 C6 1_555 1_555

#END
