
#######################################################################
#
#                 Cambridge Crystallographic Data Centre
#                                CCDC 
#
#######################################################################
#
# If this CIF has been generated from an entry in the Cambridge 
# Structural Database, then it will include bibliographic, chemical, 
# crystal, experimental, refinement or atomic coordinate data resulting 
# from the CCDC's data processing and validation procedures.
#
#######################################################################

data_EVILOL
_chemical_formula_moiety         'C13 H18 Br1 O4 P1'
_chemical_name_systematic        
'(S)-2-[1-(4-Bromophenyl)-1-hydroxyethyl]-5,5-dimethyl-1,3,2-dioxaphosphinane 2-oxide'
_symmetry_cell_setting           orthorhombic
_symmetry_space_group_name_H-M   'P 21 21 21'
_symmetry_Int_Tables_number      19
_space_group_name_Hall           'P 2ac 2ab'
loop_
_symmetry_equiv_pos_site_id
_symmetry_equiv_pos_as_xyz
1 x,y,z
2 1/2-x,-y,1/2+z
3 -x,1/2+y,1/2-z
4 1/2+x,1/2-y,-z
_cell_length_a                   11.0662(17)
_cell_length_b                   11.3149(18)
_cell_length_c                   11.9609(19)
_cell_angle_alpha                90
_cell_angle_beta                 90
_cell_angle_gamma                90
_cell_volume                     1497.66
_exptl_crystal_colour            colorless
_exptl_crystal_description       block
_cell_formula_units_Z            4
loop_
_atom_site_label
_atom_site_type_symbol
_atom_site_fract_x
_atom_site_fract_y
_atom_site_fract_z
Br1 Br -0.07457(4) 0.16872(4) 0.69930(5)
C1 C 0.0650(3) 0.2689(3) 0.7001(3)
C2 C 0.0982(3) 0.3216(3) 0.7973(3)
H1 H 0.0520 0.3113 0.8615
C3 C 0.2007(3) 0.3905(3) 0.8000(3)
H2 H 0.2244 0.4250 0.8671
C4 C 0.2690(2) 0.4094(2) 0.7050(3)
C5 C 0.2317(3) 0.3561(3) 0.6058(3)
H3 H 0.2762 0.3679 0.5408
C6 C 0.1288(3) 0.2857(3) 0.6026(3)
H4 H 0.1037 0.2507 0.5362
C7 C 0.3824(3) 0.4854(2) 0.7128(3)
C8 C 0.4129(4) 0.5472(3) 0.6033(3)
H5 H 0.3464 0.5965 0.5813
H6 H 0.4277 0.4892 0.5464
H7 H 0.4838 0.5949 0.6133
C9 C 0.5250(3) 0.4228(4) 0.9724(3)
H8 H 0.5186 0.3769 1.0406
H9 H 0.4712 0.4902 0.9791
C10 C 0.6530(3) 0.4663(4) 0.9596(3)
C11 C 0.6616(3) 0.5380(3) 0.8524(3)
H10 H 0.6113 0.6079 0.8592
H11 H 0.7444 0.5638 0.8419
C12 C 0.6801(5) 0.5486(6) 1.0566(4)
H12 H 0.6297 0.6174 1.0514
H13 H 0.7635 0.5720 1.0540
H14 H 0.6644 0.5085 1.1258
C13 C 0.7422(4) 0.3633(4) 0.9547(5)
H15 H 0.7281 0.3112 1.0167
H16 H 0.8233 0.3932 0.9585
H17 H 0.7314 0.3208 0.8860
O1 O 0.36447(19) 0.56809(16) 0.80211(19)
H18 H 0.3995 0.6301 0.7874
O2 O 0.5245(2) 0.28766(19) 0.6800(2)
O3 O 0.48668(19) 0.34977(18) 0.8773(2)
O4 O 0.6236(2) 0.4709(2) 0.7554(2)
P1 P 0.50921(6) 0.38934(6) 0.75398(7)
loop_
_geom_bond_atom_site_label_1
_geom_bond_atom_site_label_2
_geom_bond_site_symmetry_1
_geom_bond_site_symmetry_2
Br1 C1 1_555 1_555
C1 C2 1_555 1_555
C2 H1 1_555 1_555
C3 C2 1_555 1_555
H2 C3 1_555 1_555
C4 C3 1_555 1_555
C5 C4 1_555 1_555
H3 C5 1_555 1_555
C6 C1 1_555 1_555
H4 C6 1_555 1_555
C7 C4 1_555 1_555
C8 C7 1_555 1_555
H5 C8 1_555 1_555
H6 C8 1_555 1_555
H7 C8 1_555 1_555
C9 H8 1_555 1_555
H9 C9 1_555 1_555
C10 C9 1_555 1_555
C11 C10 1_555 1_555
H10 C11 1_555 1_555
H11 C11 1_555 1_555
C12 C10 1_555 1_555
H12 C12 1_555 1_555
H13 C12 1_555 1_555
H14 C12 1_555 1_555
C13 C10 1_555 1_555
H15 C13 1_555 1_555
H16 C13 1_555 1_555
H17 C13 1_555 1_555
O1 C7 1_555 1_555
H18 O1 1_555 1_555
O2 P1 1_555 1_555
O3 C9 1_555 1_555
O4 C11 1_555 1_555
P1 C7 1_555 1_555
C5 C6 1_555 1_555
O3 P1 1_555 1_555
O4 P1 1_555 1_555

#END
