
#######################################################################
#
#                 Cambridge Crystallographic Data Centre
#                                CCDC 
#
#######################################################################
#
# If this CIF has been generated from an entry in the Cambridge 
# Structural Database, then it will include bibliographic, chemical, 
# crystal, experimental, refinement or atomic coordinate data resulting 
# from the CCDC's data processing and validation procedures.
#
#######################################################################

data_EVILUR
_chemical_name_common            
'1-[2,2-bis(1,3-benzimidazol-1-ylmethyl)-3-bromopropyl]-1,3-benzimidazole unknown solvate'
_chemical_formula_moiety         'C26 H23 Br1 N6'
_chemical_name_systematic        
'1-(3-(1H-Benzimidazol-1-yl)-2-(1H-benzimidazol-1-ylmethyl)-2-(bromomethyl)propyl)-1H-benzimidazole unknown solvate'
_symmetry_cell_setting           triclinic
_symmetry_space_group_name_H-M   'P -1'
_symmetry_Int_Tables_number      2
_space_group_name_Hall           '-P 1'
loop_
_symmetry_equiv_pos_site_id
_symmetry_equiv_pos_as_xyz
1 x,y,z
2 -x,-y,-z
_cell_length_a                   9.297(4)
_cell_length_b                   11.869(5)
_cell_length_c                   13.661(6)
_cell_angle_alpha                68.956(4)
_cell_angle_beta                 77.398(4)
_cell_angle_gamma                84.805(4)
_cell_volume                     1372.88
_exptl_crystal_colour            colorless
_exptl_crystal_description       block
_cell_formula_units_Z            2
loop_
_atom_site_label
_atom_site_type_symbol
_atom_site_fract_x
_atom_site_fract_y
_atom_site_fract_z
Br1 Br 0.02589(3) 0.37659(2) 0.17904(2)
C1 C 0.1102(3) 0.7601(2) 0.0752(2)
H1 H 0.1910 0.8026 0.0803
H2 H 0.1263 0.7613 0.0023
C2 C 0.1151(3) 0.6271(2) 0.15110(19)
C3 C 0.0088(3) 0.5573(2) 0.1246(2)
H3 H 0.0211 0.5846 0.0473
H4 H -0.0907 0.5791 0.1523
C4 C 0.0700(3) 0.6261(2) 0.26770(19)
H5 H 0.1418 0.6722 0.2791
H6 H -0.0242 0.6680 0.2748
C5 C 0.2758(3) 0.5812(2) 0.13182(18)
H7 H 0.3360 0.6227 0.1576
H8 H 0.2794 0.4958 0.1735
C6 C 0.5675(3) 0.7424(3) -0.2327(2)
H9 H 0.5874 0.7320 -0.2987
C7 C 0.5050(3) 0.7772(3) -0.0330(2)
H10 H 0.4843 0.7890 0.0324
C8 C 0.4692(3) 0.6679(3) -0.1461(2)
C9 C 0.4383(3) 0.6874(2) -0.0490(2)
N1 N 0.3398(2) 0.59903(18) 0.01862(16)
C10 C 0.6335(4) 0.8309(4) -0.2175(3)
H11 H 0.7004 0.8812 -0.2739
N2 N 0.3930(3) 0.5689(2) -0.1371(2)
C11 C 0.3198(3) 0.5320(3) -0.0377(2)
H12 H 0.2592 0.4650 -0.0088
N3 N -0.0269(2) 0.82613(18) 0.09621(16)
C12 C -0.0100(4) 1.0452(3) 0.2290(3)
H13 H 0.0508 1.0786 0.2568
C13 C -0.0459(3) 0.9106(2) 0.14554(19)
C14 C -0.1927(3) 0.9483(2) 0.1476(2)
C15 C 0.0481(3) 0.9582(2) 0.1851(2)
H14 H 0.1461 0.9332 0.1826
C16 C -0.1552(4) 1.0840(2) 0.2327(2)
H15 H -0.1899 1.1435 0.2618
C17 C -0.1577(3) 0.8192(2) 0.0705(2)
H16 H -0.1722 0.7694 0.0343
N4 N -0.2618(3) 0.8885(2) 0.1011(2)
C18 C -0.2491(3) 1.0351(2) 0.1936(2)
H17 H -0.3476 1.0594 0.1977
N5 N 0.0574(2) 0.50904(18) 0.35181(15)
C19 C 0.1751(4) 0.2541(3) 0.5510(2)
H18 H 0.1316 0.1831 0.6008
C20 C 0.1656(3) 0.4432(2) 0.40562(19)
C21 C 0.3172(4) 0.2784(3) 0.5444(3)
H19 H 0.3712 0.2230 0.5908
N6 N -0.0525(3) 0.3426(2) 0.47523(18)
C22 C -0.0684(3) 0.4455(3) 0.3981(2)
H20 H -0.1580 0.4720 0.3774
C23 C 0.0956(3) 0.3389(2) 0.4807(2)
C24 C 0.3842(4) 0.3829(3) 0.4708(3)
H21 H 0.4817 0.3964 0.4695
C25 C 0.3103(3) 0.4681(3) 0.3990(2)
H22 H 0.3556 0.5381 0.3490
C26 C 0.6031(3) 0.8479(3) -0.1189(3)
H23 H 0.6508 0.9090 -0.1113
loop_
_geom_bond_atom_site_label_1
_geom_bond_atom_site_label_2
_geom_bond_site_symmetry_1
_geom_bond_site_symmetry_2
Br1 C3 1_555 1_555
C1 H1 1_555 1_555
H2 C1 1_555 1_555
C2 C1 1_555 1_555
C3 C2 1_555 1_555
H3 C3 1_555 1_555
H4 C3 1_555 1_555
C4 C2 1_555 1_555
H5 C4 1_555 1_555
H6 C4 1_555 1_555
C5 C2 1_555 1_555
H7 C5 1_555 1_555
H8 C5 1_555 1_555
C6 H9 1_555 1_555
C7 H10 1_555 1_555
C8 C6 1_555 1_555
C9 C7 1_555 1_555
N1 C5 1_555 1_555
C10 C6 1_555 1_555
H11 C10 1_555 1_555
N2 C8 1_555 1_555
C11 N1 1_555 1_555
H12 C11 1_555 1_555
N3 C1 1_555 1_555
C12 H13 1_555 1_555
C13 N3 1_555 1_555
C14 C13 1_555 1_555
C15 C12 1_555 1_555
H14 C15 1_555 1_555
C16 C12 1_555 1_555
H15 C16 1_555 1_555
C17 N3 1_555 1_555
H16 C17 1_555 1_555
N4 C14 1_555 1_555
C18 C14 1_555 1_555
H17 C18 1_555 1_555
N5 C4 1_555 1_555
C19 H18 1_555 1_555
C20 N5 1_555 1_555
C21 C19 1_555 1_555
H19 C21 1_555 1_555
N6 C22 1_555 1_555
C22 N5 1_555 1_555
H20 C22 1_555 1_555
C23 C19 1_555 1_555
C24 C21 1_555 1_555
H21 C24 1_555 1_555
C25 C20 1_555 1_555
H22 C25 1_555 1_555
C26 C7 1_555 1_555
H23 C26 1_555 1_555
C8 C9 1_555 1_555
C9 N1 1_555 1_555
C10 C26 1_555 1_555
N2 C11 1_555 1_555
C13 C15 1_555 1_555
C16 C18 1_555 1_555
C17 N4 1_555 1_555
C20 C23 1_555 1_555
N6 C23 1_555 1_555
C24 C25 1_555 1_555

#END
