
#######################################################################
#
#                 Cambridge Crystallographic Data Centre
#                                CCDC 
#
#######################################################################
#
# If this CIF has been generated from an entry in the Cambridge 
# Structural Database, then it will include bibliographic, chemical, 
# crystal, experimental, refinement or atomic coordinate data resulting 
# from the CCDC's data processing and validation procedures.
#
#######################################################################

data_EVIMIF
_chemical_name_common            'C10 H9 N3 O2 S'
_chemical_formula_moiety         'C10 H9 N3 O2 S1'
_chemical_name_systematic        
'3-(1H-1,2,4-Triazole-3-ylsulfanylmethyl)benzoic acid'
_symmetry_cell_setting           orthorhombic
_symmetry_space_group_name_H-M   'P 21 21 21'
_symmetry_Int_Tables_number      19
_space_group_name_Hall           'P 2ac 2ab'
loop_
_symmetry_equiv_pos_site_id
_symmetry_equiv_pos_as_xyz
1 x,y,z
2 1/2-x,-y,1/2+z
3 1/2+x,1/2-y,-z
4 -x,1/2+y,1/2-z
_cell_length_a                   5.50790(10)
_cell_length_b                   13.1233(6)
_cell_length_c                   14.3414(7)
_cell_angle_alpha                90
_cell_angle_beta                 90
_cell_angle_gamma                90
_cell_volume                     1036.62
_exptl_crystal_colour            colorless
_exptl_crystal_description       needle
_cell_formula_units_Z            4
_exptl_crystal_recrystallization_method chloroform-ether
loop_
_atom_site_label
_atom_site_type_symbol
_atom_site_fract_x
_atom_site_fract_y
_atom_site_fract_z
S1 S 0.1935(2) 0.39942(10) 0.59974(8)
O1 O 0.3858(7) 0.0518(3) 0.8240(2)
O2 O 0.2440(6) 0.1033(3) 0.96117(19)
H1 H 0.3493 0.0623 0.9807
N1 N 0.3821(9) 0.5052(3) 0.4555(3)
N2 N 0.1353(9) 0.4655(3) 0.3428(2)
H2 H 0.0692 0.4645 0.2869
N3 N 0.0489(8) 0.4124(3) 0.4183(3)
C1 C 0.3300(12) 0.5180(4) 0.3651(3)
H3 H 0.4206 0.5592 0.3232
C2 C 0.2044(10) 0.4408(4) 0.4831(3)
C3 C -0.0471(10) 0.3048(3) 0.5944(3)
H4 H -0.1990 0.3354 0.5704
H5 H -0.0001 0.2475 0.5532
C4 C -0.0809(10) 0.2681(3) 0.6944(3)
C5 C -0.2707(10) 0.3059(4) 0.7473(3)
H6 H -0.3846 0.3514 0.7201
C6 C -0.2952(10) 0.2773(4) 0.8406(3)
H7 H -0.4271 0.3026 0.8765
C7 C -0.1279(9) 0.2124(4) 0.8807(3)
H8 H -0.1432 0.1942 0.9446
C8 C 0.0618(9) 0.1737(3) 0.8284(3)
C9 C 0.0854(10) 0.2015(3) 0.7344(3)
H9 H 0.2149 0.1748 0.6981
C10 C 0.2441(9) 0.1032(4) 0.8694(3)
loop_
_geom_bond_atom_site_label_1
_geom_bond_atom_site_label_2
_geom_bond_site_symmetry_1
_geom_bond_site_symmetry_2
S1 C2 1_555 1_555
O1 C10 1_555 1_555
O2 H1 1_555 1_555
N1 C1 1_555 1_555
N2 H2 1_555 1_555
N3 N2 1_555 1_555
C1 N2 1_555 1_555
H3 C1 1_555 1_555
C2 N1 1_555 1_555
C3 S1 1_555 1_555
H4 C3 1_555 1_555
H5 C3 1_555 1_555
C4 C3 1_555 1_555
C5 C4 1_555 1_555
H6 C5 1_555 1_555
C6 C5 1_555 1_555
H7 C6 1_555 1_555
C7 C6 1_555 1_555
H8 C7 1_555 1_555
C8 C7 1_555 1_555
C9 C4 1_555 1_555
H9 C9 1_555 1_555
C10 O2 1_555 1_555
N3 C2 1_555 1_555
C8 C9 1_555 1_555
C8 C10 1_555 1_555

#END
