
#######################################################################
#
#                 Cambridge Crystallographic Data Centre
#                                CCDC 
#
#######################################################################
#
# If this CIF has been generated from an entry in the Cambridge 
# Structural Database, then it will include bibliographic, chemical, 
# crystal, experimental, refinement or atomic coordinate data resulting 
# from the CCDC's data processing and validation procedures.
#
#######################################################################

data_EVINEC
_chemical_formula_moiety         'C10 H10 N2 O2 S1'
_chemical_name_systematic        2-Oxo-N-phenylthiazolidine-3-carboxamide
_chemical_properties_biological  'potential biological activity'
_symmetry_cell_setting           monoclinic
_symmetry_space_group_name_H-M   'P 21/c'
_symmetry_Int_Tables_number      14
_space_group_name_Hall           '-P 2ybc'
loop_
_symmetry_equiv_pos_site_id
_symmetry_equiv_pos_as_xyz
1 x,y,z
2 x,1/2-y,1/2+z
3 -x,-y,-z
4 -x,1/2+y,1/2-z
_cell_length_a                   22.2010(10)
_cell_length_b                   8.1176(3)
_cell_length_c                   11.8485(5)
_cell_angle_alpha                90
_cell_angle_beta                 104.4800(10)
_cell_angle_gamma                90
_cell_volume                     2067.49
_exptl_crystal_colour            colorless
_exptl_crystal_description       chunk
_chemical_melting_point          '396-397 K'
_cell_formula_units_Z            8
_exptl_crystal_recrystallization_method acetone
loop_
_atom_site_label
_atom_site_type_symbol
_atom_site_fract_x
_atom_site_fract_y
_atom_site_fract_z
S1 S -0.18192(3) 0.72860(10) 0.19217(7)
O1 O -0.10065(8) 0.8016(2) 0.3876(2)
O2 O 0.02193(8) 0.4844(3) 0.2874(2)
N1 N -0.07064(8) 0.6124(2) 0.2677(2)
N2 N 0.01223(9) 0.6679(2) 0.4274(2)
C1 C -0.11090(10) 0.7205(3) 0.2993(2)
C2 C -0.15980(10) 0.5655(5) 0.1093(3)
C3 C -0.09300(10) 0.5342(4) 0.1541(2)
C4 C -0.00810(10) 0.5826(3) 0.3278(2)
C5 C 0.07330(10) 0.6728(3) 0.5000(2)
C6 C 0.08450(10) 0.7852(3) 0.5901(2)
C7 C 0.14340(10) 0.8011(4) 0.6626(3)
C8 C 0.19100(10) 0.7059(4) 0.6462(3)
C9 C 0.17960(10) 0.5922(4) 0.5578(3)
C10 C 0.12120(10) 0.5742(3) 0.4831(2)
H1 H -0.0184 0.7322 0.4522
H3 H -0.1680 0.5983 0.0291
H4 H -0.1832 0.4680 0.1157
H5 H -0.0861 0.4177 0.1627
H6 H -0.0705 0.5774 0.1013
H7 H 0.0510 0.8521 0.6024
H8 H 0.1512 0.8793 0.7253
H9 H 0.2322 0.7181 0.6959
H10 H 0.2130 0.5237 0.5473
H11 H 0.1138 0.4953 0.4209
S2 S 0.69149(3) 0.73160(10) 0.86963(7)
O3 O 0.60790(8) 0.8055(2) 0.9827(2)
O4 O 0.48736(8) 0.4900(2) 0.7611(2)
N3 N 0.57952(9) 0.6161(2) 0.8339(2)
N4 N 0.49563(8) 0.6676(2) 0.9129(2)
C11 C 0.61930(10) 0.7235(3) 0.9048(2)
C12 C 0.67080(10) 0.5706(5) 0.7638(3)
C13 C 0.60420(10) 0.5361(4) 0.7439(2)
C14 C 0.51690(10) 0.5853(3) 0.8326(2)
C15 C 0.43450(10) 0.6682(3) 0.9275(2)
C16 C 0.42150(10) 0.7793(3) 1.0074(2)
C17 C 0.36300(10) 0.7890(4) 1.0248(3)
C18 C 0.31600(10) 0.6891(4) 0.9636(3)
C19 C 0.32910(10) 0.5783(4) 0.8862(2)
C20 C 0.38730(10) 0.5659(3) 0.8664(2)
H2 H 0.5256 0.7331 0.9669
H12 H 0.6942 0.4731 0.7920
H13 H 0.6800 0.6052 0.6923
H14 H 0.5826 0.5784 0.6691
H15 H 0.5976 0.4194 0.7461
H16 H 0.4542 0.8485 1.0507
H17 H 0.3543 0.8663 1.0799
H18 H 0.2748 0.6967 0.9752
H19 H 0.2966 0.5071 0.8443
H20 H 0.3958 0.4884 0.8112
loop_
_geom_bond_atom_site_label_1
_geom_bond_atom_site_label_2
_geom_bond_site_symmetry_1
_geom_bond_site_symmetry_2
S1 C1 1_555 1_555
S2 C11 1_555 1_555
O1 C1 1_555 1_555
O2 C4 1_555 1_555
O3 C11 1_555 1_555
O4 C14 1_555 1_555
N1 C1 1_555 1_555
N2 C4 1_555 1_555
N3 C11 1_555 1_555
N4 C14 1_555 1_555
C2 S1 1_555 1_555
C3 N1 1_555 1_555
C4 N1 1_555 1_555
C5 N2 1_555 1_555
C6 C5 1_555 1_555
C7 C6 1_555 1_555
C8 C7 1_555 1_555
C9 C8 1_555 1_555
C10 C5 1_555 1_555
C12 S2 1_555 1_555
C13 N3 1_555 1_555
C14 N3 1_555 1_555
C15 N4 1_555 1_555
C16 C15 1_555 1_555
C17 C16 1_555 1_555
C18 C17 1_555 1_555
C19 C18 1_555 1_555
C20 C15 1_555 1_555
H1 N2 1_555 1_555
H2 N4 1_555 1_555
H3 C2 1_555 1_555
H4 C2 1_555 1_555
H5 C3 1_555 1_555
H6 C3 1_555 1_555
H7 C6 1_555 1_555
H8 C7 1_555 1_555
H9 C8 1_555 1_555
H10 C9 1_555 1_555
H11 C10 1_555 1_555
H12 C12 1_555 1_555
H13 C12 1_555 1_555
H14 C13 1_555 1_555
H15 C13 1_555 1_555
H16 C16 1_555 1_555
H17 C17 1_555 1_555
H18 C18 1_555 1_555
H19 C19 1_555 1_555
H20 C20 1_555 1_555
C2 C3 1_555 1_555
C9 C10 1_555 1_555
C12 C13 1_555 1_555
C19 C20 1_555 1_555

#END
