
#######################################################################
#
#                 Cambridge Crystallographic Data Centre
#                                CCDC 
#
#######################################################################
#
# If this CIF has been generated from an entry in the Cambridge 
# Structural Database, then it will include bibliographic, chemical, 
# crystal, experimental, refinement or atomic coordinate data resulting 
# from the CCDC's data processing and validation procedures.
#
#######################################################################

data_EVIPUU
_chemical_formula_moiety         'C15 H17 N3 O5'
_chemical_name_systematic        
'Methyl 3,6-anhydro-4-azido-5,7-O-(S)-benzylidene-2,4-dideoxy-D-talo-heptonate'
_symmetry_cell_setting           monoclinic
_symmetry_space_group_name_H-M   'P 21'
_symmetry_Int_Tables_number      4
_space_group_name_Hall           'P 2yb'
loop_
_symmetry_equiv_pos_site_id
_symmetry_equiv_pos_as_xyz
1 x,y,z
2 -x,1/2+y,-z
_cell_length_a                   8.2135(3)
_cell_length_b                   9.2262(3)
_cell_length_c                   10.9944(3)
_cell_angle_alpha                90
_cell_angle_beta                 108.0414(15)
_cell_angle_gamma                90
_cell_volume                     792.186
_exptl_crystal_colour            colorless
_exptl_crystal_description       plate
_cell_formula_units_Z            2
_exptl_crystal_recrystallization_method methanol
loop_
_atom_site_label
_atom_site_type_symbol
_atom_site_fract_x
_atom_site_fract_y
_atom_site_fract_z
C1 C 0.6257(3) 0.3880(2) 0.6894(2)
C2 C 0.7296(3) 0.3406(3) 0.8225(2)
C3 C 0.6887(3) 0.1780(3) 0.8208(2)
O1 O 0.5199(2) 0.1644(2) 0.73553(18)
C4 C 0.4647(3) 0.2976(3) 0.6661(3)
C5 C 0.3786(3) 0.2660(3) 0.5281(3)
O2 O 0.4980(2) 0.22373(19) 0.46346(16)
C6 C 0.6232(3) 0.3318(3) 0.4764(2)
O3 O 0.72305(18) 0.34582(17) 0.60683(13)
C7 C 0.7445(3) 0.2885(3) 0.4051(2)
C8 C 0.8300(3) 0.1560(3) 0.4336(3)
C9 C 0.9423(4) 0.1152(4) 0.3696(3)
C10 C 0.9725(4) 0.2047(5) 0.2805(3)
C11 C 0.8901(5) 0.3346(5) 0.2521(3)
C12 C 0.7747(4) 0.3775(3) 0.3149(2)
C13 C 0.6979(4) 0.1208(3) 0.9527(2)
C14 C 0.6358(4) -0.0321(3) 0.9541(2)
O4 O 0.7011(3) -0.1205(2) 0.8869(2)
C15 C 0.6553(5) -0.2725(3) 0.8879(3)
O5 O 0.5424(4) -0.0707(3) 1.0110(3)
N1 N 0.9120(3) 0.3774(3) 0.8639(2)
N2 N 1.0011(3) 0.3082(3) 0.8126(2)
N3 N 1.0993(3) 0.2529(4) 0.7754(3)
H1 H 0.5991 0.4937 0.6762
H2 H 0.6969 0.3953 0.8900
H3 H 0.7743 0.1200 0.7934
H4 H 0.3777 0.3516 0.6951
H5 H 0.3168 0.3551 0.4860
H6 H 0.2943 0.1858 0.5210
H7 H 0.5631 0.4245 0.4424
H8 H 0.8095 0.0910 0.5004
H9 H 1.0024 0.0196 0.3886
H10 H 1.0558 0.1749 0.2353
H11 H 0.9128 0.3993 0.1860
H12 H 0.7143 0.4728 0.2942
H13 H 0.8202 0.1251 1.0083
H14 H 0.6269 0.1852 0.9892
H15 H 0.7111 -0.3293 0.8344
H16 H 0.6948 -0.3097 0.9778
H17 H 0.5280 -0.2831 0.8524
loop_
_geom_bond_atom_site_label_1
_geom_bond_atom_site_label_2
_geom_bond_site_symmetry_1
_geom_bond_site_symmetry_2
C1 C2 1_555 1_555
C2 C3 1_555 1_555
C3 O1 1_555 1_555
O1 C4 1_555 1_555
C4 C1 1_555 1_555
C5 C4 1_555 1_555
O2 C5 1_555 1_555
C6 O2 1_555 1_555
O3 C1 1_555 1_555
C7 C6 1_555 1_555
C8 C7 1_555 1_555
C9 C8 1_555 1_555
C10 C9 1_555 1_555
C11 C10 1_555 1_555
C12 C7 1_555 1_555
C13 C3 1_555 1_555
C14 C13 1_555 1_555
O4 C14 1_555 1_555
C15 O4 1_555 1_555
O5 C14 1_555 1_555
N1 C2 1_555 1_555
N2 N1 1_555 1_555
N3 N2 1_555 1_555
H1 C1 1_555 1_555
H2 C2 1_555 1_555
H3 C3 1_555 1_555
H4 C4 1_555 1_555
H5 C5 1_555 1_555
H6 C5 1_555 1_555
H7 C6 1_555 1_555
H8 C8 1_555 1_555
H9 C9 1_555 1_555
H10 C10 1_555 1_555
H11 C11 1_555 1_555
H12 C12 1_555 1_555
H13 C13 1_555 1_555
H14 C13 1_555 1_555
H15 C15 1_555 1_555
H16 C15 1_555 1_555
H17 C15 1_555 1_555
C6 O3 1_555 1_555
C11 C12 1_555 1_555

#END
