
#######################################################################
#
#                 Cambridge Crystallographic Data Centre
#                                CCDC 
#
#######################################################################
#
# If this CIF has been generated from an entry in the Cambridge 
# Structural Database, then it will include bibliographic, chemical, 
# crystal, experimental, refinement or atomic coordinate data resulting 
# from the CCDC's data processing and validation procedures.
#
#######################################################################

data_EVIRUY
_chemical_formula_moiety         'C23 H27 N2 O1 1+,Cl1 O4 1-'
_chemical_name_systematic        
'3-(dimethylamino)-N,N-diethyl-5,6-dihydro-10H-benzo[c]xanthen-10-iminium perchlorate'
_symmetry_cell_setting           monoclinic
_symmetry_space_group_name_H-M   'P 21/n'
_symmetry_Int_Tables_number      14
_space_group_name_Hall           '-P 2yn'
loop_
_symmetry_equiv_pos_site_id
_symmetry_equiv_pos_as_xyz
1 x,y,z
2 1/2-x,1/2+y,1/2-z
3 -x,-y,-z
4 1/2+x,1/2-y,1/2+z
_cell_length_a                   7.6833(17)
_cell_length_b                   16.259(4)
_cell_length_c                   17.707(4)
_cell_angle_alpha                90
_cell_angle_beta                 98.538(3)
_cell_angle_gamma                90
_cell_volume                     2187.49
_exptl_crystal_colour            black
_exptl_crystal_description       plate
_cell_formula_units_Z            4
loop_
_atom_site_label
_atom_site_type_symbol
_atom_site_fract_x
_atom_site_fract_y
_atom_site_fract_z
O1 O 0.7434(2) 0.55694(10) 0.54031(9)
N1 N 0.5714(3) 0.83229(12) 0.58099(12)
N2 N 1.1240(3) 0.21934(13) 0.63573(13)
C1 C 0.8617(4) 0.8537(2) 0.66037(19)
H1 H 0.9141 0.8133 0.6312
H2 H 0.9198 0.8531 0.7122
H3 H 0.8735 0.9072 0.6388
C2 C 0.6692(4) 0.83422(17) 0.65860(15)
H4 H 0.6584 0.7812 0.6826
H5 H 0.6172 0.8752 0.6882
C3 C 0.2973(5) 0.9141(2) 0.5674(3)
H6 H 0.2323 0.8691 0.5419
H7 H 0.2466 0.9651 0.5478
H8 H 0.2929 0.9109 0.6212
C4 C 0.4862(4) 0.90955(15) 0.55380(17)
H9 H 0.4902 0.9151 0.4995
H10 H 0.5511 0.9552 0.5797
C5 C 0.5680(3) 0.76468(14) 0.53580(14)
C6 C 0.4762(3) 0.76585(15) 0.45930(15)
H11 H 0.4126 0.8125 0.4419
C7 C 0.4795(3) 0.70083(15) 0.41146(14)
H12 H 0.4199 0.7041 0.3618
C8 C 0.5726(3) 0.62774(14) 0.43601(14)
C9 C 0.6549(3) 0.62637(14) 0.51232(13)
C10 C 0.6560(3) 0.69140(14) 0.56196(14)
H13 H 0.7136 0.6873 0.6119
C11 C 0.5886(3) 0.55897(15) 0.39001(14)
H14 H 0.5338 0.5590 0.3395
C12 C 0.6845(3) 0.49105(15) 0.41850(13)
C13 C 0.7591(3) 0.49094(14) 0.49543(13)
C14 C 0.8524(3) 0.42316(14) 0.53246(13)
C15 C 0.8902(3) 0.35470(14) 0.48766(13)
C16 C 0.8532(4) 0.36110(18) 0.40179(15)
H15 H 0.9580 0.3817 0.3836
H16 H 0.8305 0.3063 0.3809
C17 C 0.7017(4) 0.41525(17) 0.37152(15)
H17 H 0.5939 0.3836 0.3686
H18 H 0.7145 0.4320 0.3200
C18 C 0.9751(3) 0.28731(15) 0.52285(14)
H19 H 0.9953 0.2420 0.4933
C19 C 1.0326(3) 0.28462(15) 0.60227(14)
C20 C 0.9962(3) 0.35404(15) 0.64613(14)
H20 H 1.0332 0.3545 0.6986
C21 C 0.9071(3) 0.42030(15) 0.61176(13)
H21 H 0.8821 0.4645 0.6417
C22 C 1.1937(4) 0.2203(2) 0.71683(16)
H22 H 1.2515 0.2719 0.7297
H23 H 1.2766 0.1762 0.7281
H24 H 1.0991 0.2135 0.7461
C23 C 1.1393(4) 0.14249(16) 0.59514(18)
H25 H 1.0246 0.1188 0.5812
H26 H 1.2127 0.1050 0.6275
H27 H 1.1907 0.1530 0.5499
Cl1 Cl 0.18559(9) 0.41482(4) 0.21756(3)
O2 O 0.3142(3) 0.45518(17) 0.27048(14)
O3 O 0.0196(3) 0.45415(18) 0.21951(16)
O4 O 0.2281(4) 0.42244(15) 0.14190(12)
O5 O 0.1724(4) 0.33061(14) 0.23739(15)
loop_
_geom_bond_atom_site_label_1
_geom_bond_atom_site_label_2
_geom_bond_site_symmetry_1
_geom_bond_site_symmetry_2
O1 C9 1_555 1_555
N1 C2 1_555 1_555
N2 C19 1_555 1_555
C1 H1 1_555 1_555
H2 C1 1_555 1_555
H3 C1 1_555 1_555
C2 C1 1_555 1_555
H4 C2 1_555 1_555
H5 C2 1_555 1_555
C3 H6 1_555 1_555
H7 C3 1_555 1_555
H8 C3 1_555 1_555
C4 N1 1_555 1_555
H9 C4 1_555 1_555
H10 C4 1_555 1_555
C5 N1 1_555 1_555
C6 C5 1_555 1_555
H11 C6 1_555 1_555
C7 C6 1_555 1_555
H12 C7 1_555 1_555
C8 C7 1_555 1_555
C9 C8 1_555 1_555
C10 C5 1_555 1_555
H13 C10 1_555 1_555
C11 C8 1_555 1_555
H14 C11 1_555 1_555
C12 C11 1_555 1_555
C13 O1 1_555 1_555
C14 C13 1_555 1_555
C15 C14 1_555 1_555
C16 C15 1_555 1_555
H15 C16 1_555 1_555
H16 C16 1_555 1_555
C17 C12 1_555 1_555
H17 C17 1_555 1_555
H18 C17 1_555 1_555
C18 C15 1_555 1_555
H19 C18 1_555 1_555
C19 C18 1_555 1_555
C20 C19 1_555 1_555
H20 C20 1_555 1_555
C21 C14 1_555 1_555
H21 C21 1_555 1_555
C22 N2 1_555 1_555
H22 C22 1_555 1_555
H23 C22 1_555 1_555
H24 C22 1_555 1_555
C23 N2 1_555 1_555
H25 C23 1_555 1_555
H26 C23 1_555 1_555
H27 C23 1_555 1_555
Cl1 O2 1_555 1_555
O3 Cl1 1_555 1_555
O4 Cl1 1_555 1_555
O5 Cl1 1_555 1_555
C3 C4 1_555 1_555
C9 C10 1_555 1_555
C12 C13 1_555 1_555
C16 C17 1_555 1_555
C20 C21 1_555 1_555

#END
