
#######################################################################
#
#                 Cambridge Crystallographic Data Centre
#                                CCDC 
#
#######################################################################
#
# If this CIF has been generated from an entry in the Cambridge 
# Structural Database, then it will include bibliographic, chemical, 
# crystal, experimental, refinement or atomic coordinate data resulting 
# from the CCDC's data processing and validation procedures.
#
#######################################################################

data_EVITEK
_chemical_compound_source        
'mycelial extract of the sponge-derived fungus Nigrospora oryzae PF18'
_chemical_name_common            'Oryzamide A hydrate'
_chemical_formula_moiety         'C33 H59 N5 O7,1.17(H2 O1)'
_chemical_name_systematic        
'3,9-diisobutyl-12-isopropyl-6-methyl-19-(octan-2-yl)-1-oxa-4,7,10,13,16-pentaazacyclononadecane-2,5,8,11,14,17-hexone hydrate'
_chemical_properties_biological  
'does not display cytotoxic, antibacterial, antiparasitic or NF-kB inhibitory activity.'
_symmetry_cell_setting           monoclinic
_symmetry_space_group_name_H-M   'P 21'
_symmetry_Int_Tables_number      4
_space_group_name_Hall           'P 2yb'
loop_
_symmetry_equiv_pos_site_id
_symmetry_equiv_pos_as_xyz
1 x,y,z
2 -x,1/2+y,-z
_cell_length_a                   17.2997(3)
_cell_length_b                   16.9120(3)
_cell_length_c                   19.4202(3)
_cell_angle_alpha                90
_cell_angle_beta                 90.6820(10)
_cell_angle_gamma                90
_cell_volume                     5681.41
_exptl_crystal_colour            white
_exptl_crystal_description       plate
_chemical_melting_point          '230 deg.C'
_cell_formula_units_Z            6
loop_
_atom_site_label
_atom_site_type_symbol
_atom_site_fract_x
_atom_site_fract_y
_atom_site_fract_z
O1 O -0.71293(14) -0.17057(14) 0.07691(13)
O2 O -0.83311(16) -0.13008(17) 0.04632(15)
O3 O -0.73705(15) -0.09299(15) -0.09825(14)
O4 O -0.86184(19) 0.09930(17) -0.24799(15)
O5 O -0.92327(15) -0.09422(17) -0.32159(15)
O6 O -0.74740(16) -0.2493(2) -0.20347(15)
O7 O -0.86657(15) -0.33247(15) 0.00090(13)
N1 N -0.76456(19) 0.00072(18) -0.01872(16)
H1 H -0.7854 0.0475 -0.0119
N2 N -0.80125(18) -0.00625(19) -0.20052(15)
H2 H -0.7709 -0.0471 -0.2077
N3 N -0.79375(17) -0.07558(18) -0.32891(15)
H3 H -0.7483 -0.0978 -0.3346
N4 N -0.86790(17) -0.23186(19) -0.24750(15)
H4 H -0.9178 -0.2365 -0.2399
N5 N -0.79332(18) -0.26421(19) -0.07462(15)
H5 H -0.7476 -0.2440 -0.0832
C1 C -0.7650(2) -0.1181(2) 0.05351(18)
C2 C -0.7256(2) -0.0380(2) 0.03889(19)
H6 H -0.6699 -0.0467 0.0279
C3 C -0.7324(2) 0.0180(2) 0.1005(2)
H7 H -0.7069 0.0684 0.0884
H8 H -0.7878 0.0295 0.1073
C4 C -0.6983(2) -0.0105(2) 0.16910(19)
H9 H -0.7222 -0.0626 0.1805
C5 C -0.6116(3) -0.0215(3) 0.1650(2)
H10 H -0.6000 -0.0629 0.1314
H11 H -0.5911 -0.0369 0.2103
H12 H -0.5876 0.0283 0.1506
C6 C -0.7191(3) 0.0483(3) 0.2252(2)
H13 H -0.6970 0.1001 0.2144
H14 H -0.6983 0.0299 0.2695
H15 H -0.7755 0.0528 0.2280
C7 C -0.7701(2) -0.0315(2) -0.08153(19)
C8 C -0.8246(2) 0.0120(2) -0.13057(18)
H16 H -0.8200 0.0702 -0.1226
C9 C -0.9078(2) -0.0138(3) -0.1181(2)
H17 H -0.9131 -0.0703 -0.1282
H18 H -0.9428 0.0164 -0.1482
H19 H -0.9210 -0.0040 -0.0699
C10 C -0.8251(2) 0.0380(2) -0.25456(19)
C11 C -0.7996(2) 0.0105(2) -0.32566(19)
H20 H -0.8393 0.0279 -0.3603
C12 C -0.7231(2) 0.0500(3) -0.3430(2)
H21 H -0.6828 0.0293 -0.3113
H22 H -0.7281 0.1074 -0.3342
C13 C -0.6959(2) 0.0385(3) -0.4167(2)
H23 H -0.6966 -0.0195 -0.4269
C14 C -0.7480(3) 0.0786(6) -0.4682(3)
H24 H -0.7987 0.0527 -0.4686
H25 H -0.7253 0.0751 -0.5141
H26 H -0.7541 0.1344 -0.4555
C15 C -0.6149(3) 0.0671(5) -0.4245(3)
H27 H -0.6129 0.1241 -0.4160
H28 H -0.5974 0.0560 -0.4713
H29 H -0.5812 0.0398 -0.3913
C16 C -0.8569(2) -0.1213(2) -0.32337(17)
C17 C -0.8419(2) -0.2095(2) -0.31618(18)
H30 H -0.7849 -0.2190 -0.3189
C18 C -0.8824(3) -0.2577(3) -0.3724(2)
H31 H -0.9395 -0.2544 -0.3655
C19 C -0.8637(3) -0.2243(3) -0.4435(2)
H32 H -0.8849 -0.1708 -0.4477
H33 H -0.8867 -0.2582 -0.4791
H34 H -0.8075 -0.2225 -0.4492
C20 C -0.8576(4) -0.3446(3) -0.3676(3)
H35 H -0.8024 -0.3490 -0.3777
H36 H -0.8874 -0.3759 -0.4010
H37 H -0.8671 -0.3643 -0.3210
C21 C -0.8175(2) -0.2455(2) -0.19565(18)
C22 C -0.8539(2) -0.2572(2) -0.12562(18)
H38 H -0.8875 -0.2116 -0.1147
H39 H -0.8861 -0.3056 -0.1260
C23 C -0.8049(2) -0.3011(2) -0.01387(18)
C24 C -0.7353(2) -0.3045(2) 0.03397(18)
H40 H -0.6886 -0.2903 0.0076
H41 H -0.7287 -0.3594 0.0505
C25 C -0.7409(2) -0.2494(2) 0.09649(17)
H42 H -0.7957 -0.2460 0.1120
C26 C -0.6890(2) -0.2791(2) 0.15566(19)
H43 H -0.7101 -0.3312 0.1708
C27 C -0.6067(2) -0.2929(2) 0.1322(2)
H44 H -0.6067 -0.3322 0.0951
H45 H -0.5754 -0.3123 0.1711
H46 H -0.5849 -0.2431 0.1154
C28 C -0.6878(2) -0.2242(2) 0.21892(18)
H47 H -0.6557 -0.2492 0.2554
H48 H -0.6623 -0.1740 0.2060
C29 C -0.7663(2) -0.2050(2) 0.2485(2)
H49 H -0.7937 -0.2550 0.2585
H50 H -0.7971 -0.1757 0.2136
C30 C -0.7612(3) -0.1558(3) 0.3141(2)
H51 H -0.7309 -0.1854 0.3492
H52 H -0.7331 -0.1062 0.3043
C31 C -0.8398(3) -0.1356(3) 0.3434(2)
H53 H -0.8710 -0.1089 0.3071
H54 H -0.8666 -0.1854 0.3553
C32 C -0.8370(3) -0.0833(3) 0.4062(2)
H55 H -0.8087 -0.0342 0.3950
H56 H -0.8079 -0.1108 0.4433
C33 C -0.9171(4) -0.0617(4) 0.4323(3)
H57 H -0.9456 -0.0331 0.3963
H58 H -0.9119 -0.0282 0.4732
H59 H -0.9452 -0.1101 0.4441
O8 O -0.37999(15) -0.17627(16) 0.07752(14)
O9 O -0.49883(16) -0.1521(2) 0.03265(16)
O10 O -0.39928(16) -0.09311(16) -0.09455(14)
O11 O -0.50415(18) 0.09413(18) -0.25846(15)
O12 O -0.49668(16) -0.11912(18) -0.33400(17)
O13 O -0.30648(15) -0.24032(18) -0.18828(14)
O14 O -0.4538(2) -0.3724(2) -0.01905(17)
N6 N -0.4444(2) -0.00665(19) -0.01588(17)
H60 H -0.4729 0.0353 -0.0075
N7 N -0.44313(19) -0.00299(19) -0.19974(16)
H61 H -0.4070 -0.0396 -0.2010
N8 N -0.38048(18) -0.06217(18) -0.31831(15)
H62 H -0.3303 -0.0679 -0.3126
N9 N -0.42120(18) -0.2356(2) -0.24694(16)
H63 H -0.4711 -0.2453 -0.2445
N10 N -0.37683(19) -0.2808(2) -0.06691(17)
H64 H -0.3329 -0.2547 -0.0640
C34 C -0.4342(2) -0.1311(2) 0.04794(19)
C35 C -0.4034(2) -0.0465(2) 0.03975(19)
H65 H -0.3473 -0.0490 0.0284
C36 C -0.4127(3) -0.0014(3) 0.1083(2)
H66 H -0.4279 0.0537 0.0977
H67 H -0.4556 -0.0259 0.1340
C37 C -0.3430(3) 0.0005(3) 0.1541(3)
H68 H -0.3224 -0.0545 0.1586
C38 C -0.2806(4) 0.0523(5) 0.1236(4)
H69 H -0.2650 0.0306 0.0790
H70 H -0.2357 0.0537 0.1549
H71 H -0.3006 0.1060 0.1171
C39 C -0.3644(4) 0.0305(3) 0.2258(3)
H72 H -0.3905 0.0818 0.2216
H73 H -0.3174 0.0365 0.2540
H74 H -0.3991 -0.0075 0.2477
C40 C -0.4384(2) -0.0344(2) -0.08023(19)
C41 C -0.4837(2) 0.0098(2) -0.13619(18)
H75 H -0.4834 0.0676 -0.1253
C42 C -0.5674(2) -0.0193(3) -0.1401(2)
H76 H -0.5681 -0.0757 -0.1515
H77 H -0.5956 0.0104 -0.1757
H78 H -0.5921 -0.0112 -0.0955
C43 C -0.4586(2) 0.0393(2) -0.25747(19)
C44 C -0.4148(2) 0.0166(2) -0.32244(19)
H79 H -0.4536 0.0153 -0.3610
C45 C -0.3560(2) 0.0804(2) -0.3402(2)
H80 H -0.3812 0.1327 -0.3354
H81 H -0.3131 0.0780 -0.3061
C46 C -0.3223(3) 0.0749(3) -0.4118(2)
H82 H -0.2908 0.0254 -0.4145
C47 C -0.3856(4) 0.0719(5) -0.4685(3)
H83 H -0.4147 0.0224 -0.4646
H84 H -0.3615 0.0746 -0.5138
H85 H -0.4208 0.1168 -0.4629
C48 C -0.2687(3) 0.1458(3) -0.4233(3)
H86 H -0.2987 0.1949 -0.4211
H87 H -0.2447 0.1414 -0.4686
H88 H -0.2283 0.1466 -0.3874
C49 C -0.4265(2) -0.1253(2) -0.32327(19)
C50 C -0.3907(2) -0.2067(2) -0.31162(19)
H89 H -0.3332 -0.2014 -0.3076
C51 C -0.4115(3) -0.2610(3) -0.3731(2)
H90 H -0.4690 -0.2620 -0.3786
C52 C -0.3838(3) -0.3448(3) -0.3603(3)
H91 H -0.3276 -0.3448 -0.3535
H92 H -0.3973 -0.3780 -0.4000
H93 H -0.4086 -0.3658 -0.3190
C53 C -0.3771(3) -0.2271(3) -0.4387(2)
H94 H -0.3981 -0.1741 -0.4470
H95 H -0.3903 -0.2615 -0.4777
H96 H -0.3208 -0.2239 -0.4336
C54 C -0.3769(2) -0.2484(2) -0.19042(19)
C55 C -0.4235(2) -0.2744(2) -0.1283(2)
H97 H -0.4654 -0.2357 -0.1204
H98 H -0.4477 -0.3262 -0.1383
C56 C -0.3991(2) -0.3260(2) -0.0138(2)
C57 C -0.3562(2) -0.3144(2) 0.0537(2)
H99 H -0.3039 -0.2931 0.0449
H100 H -0.3504 -0.3658 0.0776
C58 C -0.4008(2) -0.2568(2) 0.09910(19)
H101 H -0.4575 -0.2648 0.0911
C59 C -0.3833(2) -0.2632(3) 0.1766(2)
H102 H -0.4022 -0.3161 0.1922
C60 C -0.2967(3) -0.2593(3) 0.1932(2)
H103 H -0.2709 -0.3054 0.1734
H104 H -0.2888 -0.2590 0.2432
H105 H -0.2750 -0.2109 0.1735
C61 C -0.4290(3) -0.2000(3) 0.2166(2)
H106 H -0.3995 -0.1499 0.2158
H107 H -0.4788 -0.1907 0.1923
C62 C -0.4454(4) -0.2213(3) 0.2911(2)
H108 H -0.4734 -0.2723 0.2921
H109 H -0.3957 -0.2287 0.3159
C63 C -0.4928(3) -0.1597(3) 0.3290(2)
H110 H -0.4611 -0.1114 0.3349
H111 H -0.5384 -0.1457 0.3003
C64 C -0.5202(4) -0.1861(4) 0.3988(3)
H112 H -0.4744 -0.2021 0.4266
H113 H -0.5529 -0.2337 0.3923
C65 C -0.5654(4) -0.1263(4) 0.4396(3)
H114 H -0.6089 -0.1067 0.4108
H115 H -0.5314 -0.0807 0.4504
C66 C -0.5971(5) -0.1594(5) 0.5063(3)
H116 H -0.6419 -0.1930 0.4960
H117 H -0.6128 -0.1157 0.5362
H118 H -0.5570 -0.1907 0.5296
O15 O -0.04548(15) -0.16678(15) 0.08264(13)
O16 O -0.16521(18) -0.1205(2) 0.05891(18)
O17 O -0.07431(16) -0.09681(15) -0.08926(13)
O18 O -0.18135(19) 0.10163(17) -0.24544(15)
O19 O -0.21413(15) -0.10876(16) -0.32046(14)
O20 O -0.02523(15) -0.24449(18) -0.19126(13)
O21 O -0.1585(2) -0.3532(2) -0.00450(18)
N11 N -0.0914(2) 0.00374(19) -0.01403(16)
H119 H -0.1088 0.0522 -0.0087
N12 N -0.12018(18) -0.00185(18) -0.19495(15)
H120 H -0.0873 -0.0410 -0.2004
N13 N -0.08942(17) -0.06793(17) -0.31968(15)
H121 H -0.0402 -0.0810 -0.3204
N14 N -0.14423(17) -0.23341(18) -0.24101(15)
H122 H -0.1941 -0.2402 -0.2350
N15 N -0.08403(18) -0.26866(19) -0.06368(16)
H123 H -0.0404 -0.2421 -0.0654
C67 C -0.0962(2) -0.1124(2) 0.06180(18)
C68 C -0.0539(2) -0.0353(2) 0.04408(18)
H124 H 0.0010 -0.0474 0.0325
C69 C -0.0560(2) 0.0224(2) 0.1054(2)
H125 H -0.0328 0.0731 0.0906
H126 H -0.1108 0.0331 0.1163
C70 C -0.0154(3) -0.0038(2) 0.1707(2)
H127 H -0.0320 -0.0591 0.1812
C71 C 0.0709(3) -0.0035(4) 0.1627(3)
H128 H 0.0852 -0.0404 0.1261
H129 H 0.0956 -0.0199 0.2061
H130 H 0.0881 0.0499 0.1507
C72 C -0.0387(3) 0.0487(3) 0.2302(2)
H131 H -0.0232 0.1033 0.2207
H132 H -0.0131 0.0304 0.2726
H133 H -0.0949 0.0463 0.2357
C73 C -0.1003(2) -0.0314(2) -0.07511(19)
C74 C -0.1502(2) 0.0145(2) -0.12680(18)
H134 H -0.1463 0.0724 -0.1170
C75 C -0.2337(2) -0.0120(3) -0.1209(2)
H135 H -0.2664 0.0200 -0.1517
H136 H -0.2507 -0.0051 -0.0733
H137 H -0.2380 -0.0678 -0.1338
C76 C -0.1416(2) 0.0416(2) -0.24976(18)
C77 C -0.1129(2) 0.0151(2) -0.32011(17)
H138 H -0.1569 0.0205 -0.3536
C78 C -0.0480(2) 0.0699(2) -0.3440(2)
H139 H -0.0046 0.0666 -0.3105
H140 H -0.0673 0.1250 -0.3437
C79 C -0.0173(2) 0.0512(3) -0.4160(2)
H141 H 0.0161 0.0031 -0.4124
C80 C -0.0815(3) 0.0343(4) -0.4689(2)
H142 H -0.1105 -0.0125 -0.4547
H143 H -0.0586 0.0249 -0.5141
H144 H -0.1164 0.0799 -0.4717
C81 C 0.0329(3) 0.1198(3) -0.4401(3)
H145 H 0.0004 0.1664 -0.4485
H146 H 0.0589 0.1050 -0.4828
H147 H 0.0717 0.1322 -0.4046
C82 C -0.1447(2) -0.1240(2) -0.31812(17)
C83 C -0.1176(2) -0.2089(2) -0.30866(17)
H148 H -0.0598 -0.2102 -0.3090
C84 C -0.1489(2) -0.2624(2) -0.36625(19)
H149 H -0.2066 -0.2628 -0.3637
C85 C -0.1202(3) -0.3473(2) -0.3566(2)
H150 H -0.0639 -0.3486 -0.3610
H151 H -0.1439 -0.3814 -0.3917
H152 H -0.1344 -0.3662 -0.3107
C86 C -0.1265(3) -0.2304(3) -0.4364(2)
H153 H -0.1479 -0.1771 -0.4423
H154 H -0.1470 -0.2652 -0.4725
H155 H -0.0700 -0.2282 -0.4394
C87 C -0.0958(2) -0.2463(2) -0.18715(18)
C88 C -0.1372(2) -0.2647(2) -0.12104(18)
H156 H -0.1762 -0.2232 -0.1123
H157 H -0.1645 -0.3158 -0.1258
C89 C -0.0993(2) -0.3117(2) -0.0079(2)
C90 C -0.0443(2) -0.3045(2) 0.05226(19)
H158 H 0.0071 -0.2882 0.0355
H159 H -0.0385 -0.3569 0.0746
C91 C -0.0721(2) -0.2447(2) 0.10525(18)
H160 H -0.1299 -0.2452 0.1061
C92 C -0.0408(2) -0.2594(3) 0.1776(2)
H161 H -0.0501 -0.3164 0.1881
C93 C 0.0441(3) -0.2463(4) 0.1829(3)
H162 H 0.0705 -0.2808 0.1501
H163 H 0.0620 -0.2584 0.2298
H164 H 0.0558 -0.1909 0.1722
C94 C -0.0913(3) -0.2092(3) 0.2304(3)
H165 H -0.0883 -0.1525 0.2178
H166 H -0.1460 -0.2257 0.2262
C95 C -0.0651(4) -0.2189(4) 0.3034(3)
H167 H -0.0155 -0.1906 0.3100
H168 H -0.0556 -0.2758 0.3124
C96 C -0.1219(5) -0.1887(6) 0.3550(4)
H169 H -0.1593 -0.2322 0.3617
H170 H -0.0926 -0.1838 0.3988
C97 C -0.1649(6) -0.1219(7) 0.3497(4)
H171 H -0.2016 -0.1311 0.3110
H172 H -0.1290 -0.0801 0.3341
C98 C -0.2102(5) -0.0863(6) 0.4043(4)
H173 H -0.1859 -0.0981 0.4495
H174 H -0.2098 -0.0281 0.3982
C99 C -0.2918(9) -0.0614(16) 0.4155(11)
H175 H -0.2961 -0.0373 0.4612
H176 H -0.3257 -0.1077 0.4125
H177 H -0.3071 -0.0229 0.3802
O22 O -0.61529(16) -0.19807(17) -0.07024(15)
H181 H -0.5751 -0.1874 -0.0464
H182 H -0.6449 -0.1580 -0.0714
O23 O -0.58677(19) -0.2538(3) -0.20264(19)
H183 H -0.5964 -0.2331 -0.1638
H184 H -0.6289 -0.2673 -0.2223
O24 O -0.6489(2) -0.1377(4) -0.3019(3)
H185 H -0.6464 -0.1580 -0.3418
H186 H -0.6036 -0.1334 -0.2849
O25 O -0.2624(6) -0.1735(7) -0.0408(6)
H187 H -0.2671 -0.1635 -0.0846
H188 H -0.2143 -0.1681 -0.0281
C100? C -0.2862(9) -0.1250(12) 0.4006(10)
H178? H -0.3134 -0.1167 0.4440
H179? H -0.2793 -0.1818 0.3928
H180? H -0.3166 -0.1023 0.3625
loop_
_geom_bond_atom_site_label_1
_geom_bond_atom_site_label_2
_geom_bond_site_symmetry_1
_geom_bond_site_symmetry_2
O1 C1 1_555 1_555
O2 C1 1_555 1_555
O3 C7 1_555 1_555
O4 C10 1_555 1_555
O5 C16 1_555 1_555
O6 C21 1_555 1_555
O7 C23 1_555 1_555
N1 H1 1_555 1_555
N2 H2 1_555 1_555
N3 H3 1_555 1_555
N4 H4 1_555 1_555
N5 H5 1_555 1_555
C1 C2 1_555 1_555
C2 N1 1_555 1_555
H6 C2 1_555 1_555
C3 C2 1_555 1_555
H7 C3 1_555 1_555
H8 C3 1_555 1_555
C4 C3 1_555 1_555
H9 C4 1_555 1_555
C5 C4 1_555 1_555
H10 C5 1_555 1_555
H11 C5 1_555 1_555
H12 C5 1_555 1_555
C6 C4 1_555 1_555
H13 C6 1_555 1_555
H14 C6 1_555 1_555
H15 C6 1_555 1_555
C7 N1 1_555 1_555
C8 N2 1_555 1_555
H16 C8 1_555 1_555
C9 C8 1_555 1_555
H17 C9 1_555 1_555
H18 C9 1_555 1_555
H19 C9 1_555 1_555
C10 N2 1_555 1_555
C11 N3 1_555 1_555
H20 C11 1_555 1_555
C12 C11 1_555 1_555
H21 C12 1_555 1_555
H22 C12 1_555 1_555
C13 C12 1_555 1_555
H23 C13 1_555 1_555
C14 C13 1_555 1_555
H24 C14 1_555 1_555
H25 C14 1_555 1_555
H26 C14 1_555 1_555
C15 C13 1_555 1_555
H27 C15 1_555 1_555
H28 C15 1_555 1_555
H29 C15 1_555 1_555
C16 N3 1_555 1_555
C17 N4 1_555 1_555
H30 C17 1_555 1_555
C18 C17 1_555 1_555
H31 C18 1_555 1_555
C19 C18 1_555 1_555
H32 C19 1_555 1_555
H33 C19 1_555 1_555
H34 C19 1_555 1_555
C20 C18 1_555 1_555
H35 C20 1_555 1_555
H36 C20 1_555 1_555
H37 C20 1_555 1_555
C21 N4 1_555 1_555
C22 N5 1_555 1_555
H38 C22 1_555 1_555
H39 C22 1_555 1_555
C23 N5 1_555 1_555
C24 C23 1_555 1_555
H40 C24 1_555 1_555
H41 C24 1_555 1_555
C25 O1 1_555 1_555
H42 C25 1_555 1_555
C26 C25 1_555 1_555
H43 C26 1_555 1_555
C27 C26 1_555 1_555
H44 C27 1_555 1_555
H45 C27 1_555 1_555
H46 C27 1_555 1_555
C28 C26 1_555 1_555
H47 C28 1_555 1_555
H48 C28 1_555 1_555
C29 C28 1_555 1_555
H49 C29 1_555 1_555
H50 C29 1_555 1_555
C30 C29 1_555 1_555
H51 C30 1_555 1_555
H52 C30 1_555 1_555
C31 C30 1_555 1_555
H53 C31 1_555 1_555
H54 C31 1_555 1_555
C32 C31 1_555 1_555
H55 C32 1_555 1_555
H56 C32 1_555 1_555
C33 C32 1_555 1_555
H57 C33 1_555 1_555
H58 C33 1_555 1_555
H59 C33 1_555 1_555
O8 C34 1_555 1_555
O9 C34 1_555 1_555
O10 C40 1_555 1_555
O11 C43 1_555 1_555
O12 C49 1_555 1_555
O13 C54 1_555 1_555
O14 C56 1_555 1_555
N6 H60 1_555 1_555
N7 H61 1_555 1_555
N8 H62 1_555 1_555
N9 H63 1_555 1_555
N10 H64 1_555 1_555
C34 C35 1_555 1_555
C35 N6 1_555 1_555
H65 C35 1_555 1_555
C36 C35 1_555 1_555
H66 C36 1_555 1_555
H67 C36 1_555 1_555
C37 C36 1_555 1_555
H68 C37 1_555 1_555
C38 C37 1_555 1_555
H69 C38 1_555 1_555
H70 C38 1_555 1_555
H71 C38 1_555 1_555
C39 C37 1_555 1_555
H72 C39 1_555 1_555
H73 C39 1_555 1_555
H74 C39 1_555 1_555
C40 N6 1_555 1_555
C41 N7 1_555 1_555
H75 C41 1_555 1_555
C42 C41 1_555 1_555
H76 C42 1_555 1_555
H77 C42 1_555 1_555
H78 C42 1_555 1_555
C43 N7 1_555 1_555
C44 N8 1_555 1_555
H79 C44 1_555 1_555
C45 C44 1_555 1_555
H80 C45 1_555 1_555
H81 C45 1_555 1_555
C46 C45 1_555 1_555
H82 C46 1_555 1_555
C47 C46 1_555 1_555
H83 C47 1_555 1_555
H84 C47 1_555 1_555
H85 C47 1_555 1_555
C48 C46 1_555 1_555
H86 C48 1_555 1_555
H87 C48 1_555 1_555
H88 C48 1_555 1_555
C49 N8 1_555 1_555
C50 N9 1_555 1_555
H89 C50 1_555 1_555
C51 C50 1_555 1_555
H90 C51 1_555 1_555
C52 C51 1_555 1_555
H91 C52 1_555 1_555
H92 C52 1_555 1_555
H93 C52 1_555 1_555
C53 C51 1_555 1_555
H94 C53 1_555 1_555
H95 C53 1_555 1_555
H96 C53 1_555 1_555
C54 N9 1_555 1_555
C55 N10 1_555 1_555
H97 C55 1_555 1_555
H98 C55 1_555 1_555
C56 N10 1_555 1_555
C57 C56 1_555 1_555
H99 C57 1_555 1_555
H100 C57 1_555 1_555
C58 O8 1_555 1_555
H101 C58 1_555 1_555
C59 C58 1_555 1_555
H102 C59 1_555 1_555
C60 C59 1_555 1_555
H103 C60 1_555 1_555
H104 C60 1_555 1_555
H105 C60 1_555 1_555
C61 C59 1_555 1_555
H106 C61 1_555 1_555
H107 C61 1_555 1_555
C62 C61 1_555 1_555
H108 C62 1_555 1_555
H109 C62 1_555 1_555
C63 C62 1_555 1_555
H110 C63 1_555 1_555
H111 C63 1_555 1_555
C64 C63 1_555 1_555
H112 C64 1_555 1_555
H113 C64 1_555 1_555
C65 C64 1_555 1_555
H114 C65 1_555 1_555
H115 C65 1_555 1_555
C66 C65 1_555 1_555
H116 C66 1_555 1_555
H117 C66 1_555 1_555
H118 C66 1_555 1_555
O15 C67 1_555 1_555
O16 C67 1_555 1_555
O17 C73 1_555 1_555
O18 C76 1_555 1_555
O19 C82 1_555 1_555
O20 C87 1_555 1_555
O21 C89 1_555 1_555
N11 H119 1_555 1_555
N12 H120 1_555 1_555
N13 H121 1_555 1_555
N14 H122 1_555 1_555
N15 H123 1_555 1_555
C67 C68 1_555 1_555
C68 N11 1_555 1_555
H124 C68 1_555 1_555
C69 C68 1_555 1_555
H125 C69 1_555 1_555
H126 C69 1_555 1_555
C70 C69 1_555 1_555
H127 C70 1_555 1_555
C71 C70 1_555 1_555
H128 C71 1_555 1_555
H129 C71 1_555 1_555
H130 C71 1_555 1_555
C72 C70 1_555 1_555
H131 C72 1_555 1_555
H132 C72 1_555 1_555
H133 C72 1_555 1_555
C73 N11 1_555 1_555
C74 N12 1_555 1_555
H134 C74 1_555 1_555
C75 C74 1_555 1_555
H135 C75 1_555 1_555
H136 C75 1_555 1_555
H137 C75 1_555 1_555
C76 N12 1_555 1_555
C77 N13 1_555 1_555
H138 C77 1_555 1_555
C78 C77 1_555 1_555
H139 C78 1_555 1_555
H140 C78 1_555 1_555
C79 C78 1_555 1_555
H141 C79 1_555 1_555
C80 C79 1_555 1_555
H142 C80 1_555 1_555
H143 C80 1_555 1_555
H144 C80 1_555 1_555
C81 C79 1_555 1_555
H145 C81 1_555 1_555
H146 C81 1_555 1_555
H147 C81 1_555 1_555
C82 N13 1_555 1_555
C83 N14 1_555 1_555
H148 C83 1_555 1_555
C84 C83 1_555 1_555
H149 C84 1_555 1_555
C85 C84 1_555 1_555
H150 C85 1_555 1_555
H151 C85 1_555 1_555
H152 C85 1_555 1_555
C86 C84 1_555 1_555
H153 C86 1_555 1_555
H154 C86 1_555 1_555
H155 C86 1_555 1_555
C87 N14 1_555 1_555
C88 N15 1_555 1_555
H156 C88 1_555 1_555
H157 C88 1_555 1_555
C89 N15 1_555 1_555
C90 C89 1_555 1_555
H158 C90 1_555 1_555
H159 C90 1_555 1_555
C91 O15 1_555 1_555
H160 C91 1_555 1_555
C92 C91 1_555 1_555
H161 C92 1_555 1_555
C93 C92 1_555 1_555
H162 C93 1_555 1_555
H163 C93 1_555 1_555
H164 C93 1_555 1_555
C94 C92 1_555 1_555
H165 C94 1_555 1_555
H166 C94 1_555 1_555
C95 C94 1_555 1_555
H167 C95 1_555 1_555
H168 C95 1_555 1_555
C96 C95 1_555 1_555
H169 C96 1_555 1_555
H170 C96 1_555 1_555
C97 C96 1_555 1_555
H171 C97 1_555 1_555
H172 C97 1_555 1_555
C98 C97 1_555 1_555
H173 C98 1_555 1_555
H174 C98 1_555 1_555
C99 C98 1_555 1_555
H175 C99 1_555 1_555
H176 C99 1_555 1_555
H177 C99 1_555 1_555
O22 H181 1_555 1_555
H182 O22 1_555 1_555
O23 H183 1_555 1_555
H184 O23 1_555 1_555
O24 H185 1_555 1_555
H186 O24 1_555 1_555
O25 H187 1_555 1_555
H188 O25 1_555 1_555
C7 C8 1_555 1_555
C10 C11 1_555 1_555
C16 C17 1_555 1_555
C21 C22 1_555 1_555
C24 C25 1_555 1_555
C40 C41 1_555 1_555
C43 C44 1_555 1_555
C49 C50 1_555 1_555
C54 C55 1_555 1_555
C57 C58 1_555 1_555
C73 C74 1_555 1_555
C76 C77 1_555 1_555
C82 C83 1_555 1_555
C87 C88 1_555 1_555
C90 C91 1_555 1_555

#END
