
#######################################################################
#
#                 Cambridge Crystallographic Data Centre
#                                CCDC 
#
#######################################################################
#
# If this CIF has been generated from an entry in the Cambridge 
# Structural Database, then it will include bibliographic, chemical, 
# crystal, experimental, refinement or atomic coordinate data resulting 
# from the CCDC's data processing and validation procedures.
#
#######################################################################

data_EVITIO
_chemical_formula_moiety         'C228 H288 N12'
_chemical_name_systematic        
"2,2':7',2'':7'',2''':12''',12':7''',12:7,12''-hexakis(ethane-1,2-diylbis(iminomethyl))tetrakis(5,5,10,10,15,15-hexabutyl-10,15-dihydro-5H-diindeno[1,2-a:1',2'-c]fluorene) unknown solvate"
_symmetry_cell_setting           triclinic
_symmetry_space_group_name_H-M   'P -1'
_symmetry_Int_Tables_number      2
_space_group_name_Hall           '-P 1'
loop_
_symmetry_equiv_pos_site_id
_symmetry_equiv_pos_as_xyz
1 x,y,z
2 -x,-y,-z
_cell_length_a                   20.8082(4)
_cell_length_b                   24.0721(4)
_cell_length_c                   26.2995(4)
_cell_angle_alpha                80.2288(13)
_cell_angle_beta                 72.5101(15)
_cell_angle_gamma                75.3058(15)
_cell_volume                     12090.9
_exptl_crystal_colour            colorless
_exptl_crystal_description       block
_cell_formula_units_Z            2
loop_
_atom_site_label
_atom_site_type_symbol
_atom_site_fract_x
_atom_site_fract_y
_atom_site_fract_z
N1 N 0.85608(10) 0.46948(8) 0.53261(8)
N2 N 1.41849(11) 0.59267(9) 0.06474(8)
N3 N 1.46226(10) 0.24139(10) 0.63547(8)
N4 N 1.04378(11) 0.25124(8) -0.00495(8)
N5 N 0.82802(10) 0.52989(8) 0.43028(8)
N6 N 1.57988(11) 0.27025(9) 0.55106(8)
C1 C 0.95743(13) 0.36369(10) 0.54396(10)
H1 H 0.9180 0.3595 0.5351
N7 N 1.07327(11) -0.10244(8) 0.58625(8)
N8 N 1.55625(11) 0.52931(10) 0.06689(9)
C2 C 1.02386(12) 0.42339(10) 0.56065(9)
H2 H 1.0295 0.4607 0.5632
N9 N 1.13414(11) -0.16797(8) 0.49438(8)
N10 N 1.07246(11) 0.12778(9) 0.02393(9)
C3 C 1.03731(12) -0.05634(10) 0.56989(9)
H3 H 0.9996 -0.0584 0.5576
C4 C 0.96584(12) 0.41843(10) 0.54781(9)
C5 C 1.01670(13) 0.10536(10) 0.55425(11)
H4 H 0.9851 0.1385 0.5444
C6 C 0.77666(12) 0.52861(10) 0.48175(9)
H5 H 0.7555 0.4950 0.4863
H6 H 0.7397 0.5640 0.4826
C7 C 1.00667(13) 0.05044(10) 0.55434(10)
H7 H 0.9681 0.0466 0.5440
C8 C 1.06655(12) 0.32024(10) 0.56613(9)
C9 C 1.09914(13) 0.26753(11) -0.01237(11)
H8 H 1.1379 0.2525 -0.0402
C10 C 1.00760(12) 0.31528(10) 0.55325(10)
C11 C 1.07410(12) 0.37528(10) 0.56996(10)
H9 H 1.1133 0.3799 0.5789
C12 C 1.05498(13) -0.15618(10) 0.58311(10)
H10 H 1.0156 -0.1476 0.5673
H11 H 1.0408 -0.1760 0.6196
C13 C 1.04403(14) 0.21026(10) -0.03922(10)
H12 H 1.0908 0.1998 -0.0637
H13 H 1.0116 0.2282 -0.0613
C14 C 1.11999(13) 0.06119(10) 0.58203(11)
C15 C 1.33866(13) 0.23442(11) 0.61161(11)
H14 H 1.3455 0.2722 0.6107
C16 C 1.05174(12) 0.00062(10) 0.56921(9)
C17 C 1.31549(13) 0.57155(11) 0.12826(10)
N11 N 1.77236(12) -0.04110(11) 0.13591(11)
C18 C 1.27933(13) 0.22707(11) 0.60345(11)
C19 C 1.11584(14) -0.19500(10) 0.54917(10)
H15 H 1.1557 -0.2025 0.5644
H16 H 1.1042 -0.2324 0.5493
C20 C 0.97623(13) 0.50954(12) 0.27720(11)
C21 C 0.91338(12) 0.47038(10) 0.53958(9)
H17 H 0.9231 0.5069 0.5395
C22 C 0.93897(13) 0.23874(11) 0.59039(12)
H18 H 0.9003 0.2710 0.5855
H19 H 0.9316 0.2042 0.5791
C23 C 1.58063(13) 0.42634(12) 0.08964(10)
C24 C 1.32364(14) -0.11437(13) 0.35216(10)
H20 H 1.3720 -0.1168 0.3404
C25 C 1.10939(13) 0.00664(10) 0.58230(10)
H21 H 1.1414 -0.0266 0.5914
C26 C 1.57325(14) 0.42880(12) 0.14343(10)
H22 H 1.5606 0.4651 0.1574
C27 C 1.70278(14) 0.06947(12) 0.17290(11)
H23 H 1.7165 0.0681 0.1352
C28 C 1.06278(13) 0.36854(11) 0.09205(12)
C29 C 1.56331(13) 0.28542(13) 0.60550(10)
H24 H 1.5330 0.3244 0.6084
H25 H 1.6062 0.2861 0.6142
C30 C 1.05292(13) 0.33094(11) 0.06222(11)
H26 H 1.0096 0.3205 0.0706
C31 C 1.22380(14) -0.13676(11) 0.42054(10)
C32 C 1.30863(13) 0.52985(11) 0.10025(10)
H27 H 1.3441 0.5172 0.0695
C33 C 0.81862(14) 0.50740(12) 0.39344(11)
H28 H 0.7779 0.4929 0.4009
C34 C 0.85571(14) 0.47123(12) 0.30456(11)
H29 H 0.8132 0.4592 0.3134
C35 C 1.10685(13) 0.30838(12) 0.01967(12)
C36 C 1.07383(13) 0.11140(10) 0.56888(11)
C37 C 1.67520(14) 0.12167(12) 0.19392(11)
C38 C 1.29452(14) -0.13927(12) 0.40240(11)
H30 H 1.3232 -0.1584 0.4250
C39 C 1.37629(13) 0.59755(11) 0.11042(10)
H31 H 1.3842 0.6190 0.1343
C40 C 1.56730(13) 0.47873(12) 0.05318(10)
H32 H 1.5669 0.4747 0.0180
C41 C 0.90438(14) 0.45725(11) 0.25710(11)
H33 H 0.8950 0.4363 0.2336
C42 C 1.21994(13) 0.27490(10) 0.59335(11)
C43 C 1.19691(13) 0.52463(11) 0.16242(10)
C44 C 1.54303(14) 0.57783(12) 0.02778(10)
H34 H 1.5388 0.5638 -0.0041
H35 H 1.5822 0.5975 0.0162
C45 C 1.52728(13) 0.24192(13) 0.64473(10)
H36 H 1.5577 0.2030 0.6413
H37 H 1.5188 0.2514 0.6817
C46 C 1.16269(13) 0.45770(11) 0.12592(11)
N12 N 1.68896(12) -0.09437(11) 0.09902(9)
C47 C 1.02310(13) 0.15592(11) -0.00657(11)
H38 H 0.9764 0.1662 0.0182
H39 H 1.0217 0.1292 -0.0308
C48 C 1.19662(13) -0.16398(10) 0.47475(10)
H40 H 1.2277 -0.1794 0.4963
C49 C 1.37695(15) 0.13142(12) 0.62276(14)
H41 H 1.4107 0.0983 0.6296
C50 C 1.19934(13) 0.18043(11) 0.59242(11)
C51 C 1.58424(14) 0.37863(12) 0.17661(10)
C52 C 1.17101(13) 0.24059(10) 0.58634(10)
C53 C 1.60421(14) 0.32425(12) 0.15759(10)
C54 C 0.92776(14) 0.52350(12) 0.32451(11)
H42 H 0.9355 0.5472 0.3465
C55 C 1.23522(12) 0.46249(11) 0.09091(11)
C56 C 1.09949(13) 0.16184(10) 0.57305(11)
C57 C 1.56294(16) 0.31057(13) 0.51706(11)
H43 H 1.5428 0.3479 0.5286
C58 C 1.28230(14) -0.08586(12) 0.31889(10)
C59 C 1.60061(15) 0.37270(12) 0.07039(11)
H44 H 1.6059 0.3706 0.0336
C60 C 1.45248(13) 0.19302(12) 0.63051(11)
H45 H 1.4880 0.1597 0.6328
C61 C 1.07684(13) 0.49476(11) 0.20581(11)
C62 C 1.12536(13) 0.38542(12) 0.08093(12)
C63 C 1.18225(14) -0.10870(12) 0.38698(11)
H46 H 1.1341 -0.1074 0.3984
C64 C 0.96763(13) 0.47413(11) 0.24374(10)
C65 C 1.25059(12) 0.50720(11) 0.11729(10)
C66 C 1.59710(16) 0.27732(12) 0.29924(11)
C67 C 1.05201(13) 0.42883(11) 0.15691(11)
C68 C 1.47763(14) 0.61976(11) 0.05137(11)
H47 H 1.4812 0.6326 0.0841
H48 H 1.4711 0.6541 0.0253
C69 C 1.74085(16) -0.03775(13) 0.18511(13)
H49 H 1.7367 -0.0722 0.2084
C70 C 1.11807(13) 0.42552(11) 0.12034(12)
C71 C 1.04424(14) 0.52887(12) 0.25457(11)
C72 C 0.80833(13) 0.52474(10) 0.52743(10)
H50 H 0.8332 0.5564 0.5211
H51 H 0.7712 0.5297 0.5613
C73 C 1.61301(15) 0.32228(13) 0.10318(11)
H52 H 1.6276 0.2862 0.0887
C74 C 1.07199(13) 0.22148(10) 0.56696(10)
C75 C 1.16243(14) 0.14123(11) 0.58694(12)
C76 C 1.04843(14) 0.11291(12) 0.07268(12)
H53 H 0.9997 0.1205 0.0872
C77 C 1.14145(13) 0.49300(11) 0.16863(11)
C78 C 1.35908(15) -0.04793(13) 0.22672(11)
C79 C 1.31704(15) 0.12391(12) 0.61447(15)
H54 H 1.3101 0.0861 0.6159
C80 C 1.10833(13) 0.26075(10) 0.57410(10)
C81 C 1.03144(13) 0.46331(11) 0.19953(11)
C82 C 1.57778(16) 0.37425(12) 0.23589(10)
C83 C 1.38911(14) 0.18592(12) 0.62133(12)
C84 C 1.21112(14) -0.08284(12) 0.33733(11)
C85 C 1.57227(17) 0.30364(13) 0.46087(11)
C86 C 1.26279(15) 0.58907(14) 0.17301(12)
H55 H 1.2670 0.6173 0.1923
C87 C 1.76272(15) -0.10072(14) 0.07482(12)
H56 H 1.7714 -0.0695 0.0455
H57 H 1.7819 -0.1381 0.0594
C88 C 1.09205(15) 0.08432(13) 0.10829(12)
C89 C 1.00614(13) 0.25349(10) 0.55124(11)
C90 C 1.65934(14) 0.17970(12) 0.16257(10)
C91 C 1.16356(15) 0.07569(13) 0.09038(12)
H58 H 1.1850 0.0886 0.0545
C92 C 1.29685(14) -0.05430(12) 0.26428(11)
C93 C 1.54372(15) -0.06254(14) 0.15572(11)
H59 H 1.5716 -0.0873 0.1767
C94 C 1.72563(16) 0.19338(13) 0.12202(12)
H60 H 1.7468 0.1617 0.0987
H61 H 1.7129 0.2291 0.0990
C95 C 1.26690(14) 0.17194(11) 0.60398(12)
C96 C 1.20341(15) 0.04836(14) 0.12465(12)
C97 C 1.65646(16) 0.12544(12) 0.24933(11)
C98 C 1.59967(18) 0.24631(13) 0.38790(11)
C99 C 1.18093(13) 0.07516(11) 0.59382(12)
C100 C 1.61114(14) 0.28016(12) 0.20346(10)
C101 C 1.71054(15) 0.01851(12) 0.20696(12)
C102 C 1.60481(17) 0.17741(13) 0.13425(11)
H62 H 1.5977 0.2135 0.1102
H63 H 1.6234 0.1450 0.1116
C103 C 1.17393(15) 0.02759(14) 0.17747(12)
C104 C 1.63137(14) 0.21944(12) 0.20737(11)
C105 C 1.24800(14) 0.31324(11) 0.54213(12)
H64 H 1.2100 0.3458 0.5363
H65 H 1.2839 0.3297 0.5480
C106 C 1.59421(18) 0.24955(12) 0.44112(11)
H66 H 1.6052 0.2155 0.4639
C107 C 0.86710(14) 0.50259(12) 0.34007(11)
C108 C 1.17921(15) 0.36305(15) 0.03833(15)
H67 H 1.2224 0.3738 0.0297
C109 C 1.6620(2) 0.07438(13) 0.28340(13)
H68 H 1.6477 0.0756 0.3211
C110 C 1.18124(15) 0.05115(12) 0.65198(13)
H69 H 1.1935 0.0085 0.6540
H70 H 1.2178 0.0639 0.6610
C111 C 1.01073(17) 0.24562(11) 0.49291(12)
H71 H 1.0100 0.2049 0.4915
H72 H 0.9688 0.2700 0.4838
C112 C 1.59423(15) 0.30921(12) 0.24994(11)
C113 C 1.61541(16) 0.21638(12) 0.30367(11)
C114 C 1.18946(14) 0.31090(11) 0.64244(12)
H73 H 1.2286 0.3186 0.6522
H74 H 1.1629 0.3487 0.6307
C115 C 1.79779(15) -0.09802(13) 0.11719(13)
H75 H 1.7872 -0.1279 0.1474
H76 H 1.8484 -0.1052 0.1017
C116 C 1.6885(2) 0.02179(13) 0.26198(13)
H77 H 1.6917 -0.0128 0.2855
C117 C 1.28110(15) 0.03848(16) 0.11136(13)
C118 C 1.20380(15) 0.56606(14) 0.19024(13)
H78 H 1.1683 0.5787 0.2210
C119 C 1.58645(17) 0.29620(12) 0.35290(11)
C120 C 1.47316(14) -0.05185(14) 0.17495(11)
C121 C 1.23817(15) 0.48608(14) 0.03229(12)
H79 H 1.2855 0.4916 0.0139
H80 H 1.2296 0.4565 0.0147
C122 C 1.23264(14) -0.03073(13) 0.25193(11)
C123 C 1.35704(15) -0.01605(15) 0.17666(12)
C124 C 1.5585(2) 0.35245(13) 0.42647(12)
H81 H 1.5437 0.3892 0.4399
C125 C 1.06253(16) 0.06489(16) 0.16093(14)
H82 H 1.0137 0.0707 0.1737
C126 C 1.17309(15) -0.04712(13) 0.29750(11)
C127 C 1.6185(2) 0.19151(13) 0.36034(11)
C128 C 0.98757(16) 0.34493(13) 0.18172(13)
H83 H 0.9489 0.3617 0.2112
H84 H 0.9698 0.3209 0.1643
C129 C 1.44890(14) -0.14052(13) 0.23419(11)
H85 H 1.4984 -0.1547 0.2326
H86 H 1.4220 -0.1546 0.2699
C130 C 1.63277(19) 0.40365(14) 0.24343(13)
H87 H 1.6209 0.4454 0.2318
H88 H 1.6299 0.3997 0.2821
C131 C 1.43351(18) -0.16679(14) 0.19182(12)
H89 H 1.3831 -0.1572 0.1962
H90 H 1.4560 -0.1498 0.1559
C132 C 1.16931(15) 0.32490(15) 0.00839(15)
H91 H 1.2063 0.3098 -0.0205
C133 C 1.63212(15) 0.18793(12) 0.25748(11)
C134 C 1.5658(2) 0.34916(13) 0.37275(12)
H92 H 1.5565 0.3834 0.3497
C135 C 1.01050(13) 0.39440(11) 0.14051(11)
C136 C 1.29020(14) 0.40604(12) 0.09455(15)
H93 H 1.2806 0.3768 0.0771
H94 H 1.3359 0.4137 0.0737
C137 C 1.18797(18) 0.54215(15) 0.02407(13)
H95 H 1.1881 0.5691 0.0485
H96 H 1.1409 0.5346 0.0338
C138 C 1.23169(15) 0.00006(14) 0.20235(12)
C139 C 0.94790(13) 0.43515(14) 0.12256(13)
H97 H 0.9251 0.4114 0.1092
H98 H 0.9142 0.4521 0.1545
C140 C 1.45454(16) -0.05109(15) 0.27179(12)
H99 H 1.4346 -0.0702 0.3074
H100 H 1.5054 -0.0627 0.2644
C141 C 1.6496(3) -0.0476(5) 0.0841(2)
H101 H 1.6697 -0.0195 0.0587
C142 C 1.27860(19) 0.28226(15) 0.49166(14)
H102 H 1.3115 0.2462 0.4990
H103 H 1.2412 0.2715 0.4821
C143 C 1.02679(16) 0.59431(13) 0.23825(13)
H104 H 1.0707 0.6074 0.2221
H105 H 1.0028 0.6139 0.2712
C144 C 1.77902(17) 0.20124(16) 0.14725(14)
H106 H 1.7589 0.2342 0.1692
H107 H 1.7906 0.1662 0.1714
C145 C 1.08660(15) 0.51336(16) 0.29591(13)
H108 H 1.1338 0.5191 0.2774
H109 H 1.0660 0.5412 0.3232
C146 C 1.43246(13) -0.07369(13) 0.22913(10)
C147 C 1.10258(17) 0.03712(17) 0.19544(14)
H110 H 1.0810 0.0246 0.2314
C148 C 1.11302(18) 0.06929(15) 0.69423(14)
H111 H 1.0991 0.1120 0.6908
H112 H 1.0770 0.0543 0.6868
C149 C 1.50380(17) 0.40475(13) 0.26374(11)
H113 H 1.5012 0.4078 0.3014
H114 H 1.4943 0.4445 0.2460
C150 C 0.9814(2) 0.61487(14) 0.19831(15)
C151 C 1.84438(19) 0.21202(16) 0.10630(15)
H115 H 1.8322 0.2441 0.0795
H116 H 1.8674 0.1771 0.0873
C152 C 1.57455(16) -0.03729(17) 0.10556(13)
C153 C 1.4588(2) -0.23158(17) 0.19542(16)
H117 H 1.4365 -0.2484 0.2315
H118 H 1.5092 -0.2410 0.1910
C154 C 1.29431(15) 0.00728(15) 0.16421(12)
C155 C 1.42981(16) -0.01752(18) 0.14476(13)
C156 C 1.6881(2) 0.15652(14) 0.36423(13)
H119 H 1.6889 0.1506 0.4022
H120 H 1.6950 0.1181 0.3523
C157 C 1.24668(16) 0.04948(14) 0.55256(16)
H121 H 1.2867 0.0569 0.5612
H122 H 1.2515 0.0071 0.5562
C158 C 1.0722(2) 0.25985(17) 0.45081(16)
H123 H 1.1142 0.2363 0.4604
H124 H 1.0721 0.3009 0.4513
C159 C 1.13457(19) -0.08436(18) 0.28050(16)
H125 H 1.1071 -0.0599 0.2568
H126 H 1.1022 -0.0994 0.3127
C160 C 1.5357(2) 0.17008(19) 0.17139(17)
H127 H 1.5434 0.1358 0.1973
H128 H 1.5155 0.2041 0.1920
C161 C 1.3037(2) -0.0610(2) 0.07662(16)
H129 H 1.2544 -0.0604 0.0946
H130 H 1.3306 -0.0823 0.1019
C162 C 1.2993(2) 0.0982(2) 0.09715(17)
H131 H 1.2831 0.1177 0.0656
H132 H 1.3502 0.0930 0.0870
C163 C 1.31379(18) 0.00062(19) 0.06487(14)
H133 H 1.2946 0.0194 0.0345
H134 H 1.3640 -0.0006 0.0531
C164 C 0.9648(2) 0.48354(18) 0.07992(18)
H135 H 0.9972 0.4663 0.0477
H136 H 0.9896 0.5060 0.0927
C165 C 1.1235(2) 0.00629(19) 0.32456(15)
H137 H 1.0872 -0.0067 0.3549
H138 H 1.1008 0.0318 0.2984
C166 C 1.2043(3) 0.5706(2) -0.03280(16)
H139 H 1.2067 0.5430 -0.0575
H140 H 1.2502 0.5803 -0.0419
C167 C 1.7470(2) 0.1839(2) 0.33147(17)
H141 H 1.7455 0.1915 0.2936
H142 H 1.7421 0.2214 0.3446
C168 C 1.8945(2) 0.22691(19) 0.13060(18)
H143 H 1.8721 0.2614 0.1495
H144 H 1.9352 0.2343 0.1021
H145 H 1.9087 0.1946 0.1559
C169 C 1.4489(2) 0.37531(16) 0.26325(18)
H146 H 1.4506 0.3400 0.2888
H147 H 1.4585 0.3632 0.2271
C170 C 1.2947(2) 0.38046(16) 0.1500(2)
H148 H 1.2512 0.3681 0.1698
H149 H 1.2994 0.4106 0.1692
C171 C 1.4268(2) 0.3413(2) 0.12187(18)
H150 H 1.4292 0.3555 0.0843
H151 H 1.4622 0.3060 0.1237
H152 H 1.4345 0.3707 0.1396
C172 C 1.1158(2) 0.0485(2) 0.75071(17)
C173 C 1.8148(3) 0.1457(2) 0.3349(2)
H153 H 1.8174 0.1413 0.3724
H154 H 1.8169 0.1070 0.3255
C174 C 1.4437(3) -0.2588(2) 0.15373(18)
H155 H 1.3937 -0.2506 0.1586
H156 H 1.4614 -0.3006 0.1576
H157 H 1.4661 -0.2427 0.1179
C175 C 1.5615(3) 0.15627(15) 0.38834(14)
H158 H 1.5745 0.1195 0.3720
C176 C 1.3557(2) 0.32844(18) 0.1500(3)
H159 H 1.3544 0.3132 0.1876
H160 H 1.3493 0.2977 0.1325
C177 C 1.1144(3) 0.2150(2) 0.76992(17)
H161 H 1.1034 0.2437 0.7953
H162 H 1.1343 0.1771 0.7858
H163 H 1.0722 0.2130 0.7617
C178 C 1.0417(2) 0.30738(18) 0.2048(2)
H164 H 1.0532 0.3297 0.2279
H165 H 1.0836 0.2965 0.1753
C179 C 1.7591(3) 0.4059(2) 0.2252(2)
H166 H 1.8062 0.3852 0.2077
H167 H 1.7534 0.4015 0.2643
C180 C 1.0920(4) 0.4566(3) 0.3230(3)
H168 H 1.0973 0.4296 0.2967
H169 H 1.0479 0.4552 0.3506
C181 C 0.9339(3) 0.2280(4) 0.6463(2)
H170 H 0.8857 0.2242 0.6635
H171 H 0.9628 0.1888 0.6508
C182 C 1.1854(3) -0.1374(2) 0.2498(2)
H172 H 1.2295 -0.1255 0.2312
H173 H 1.1950 -0.1694 0.2774
C183 C 1.1508(4) 0.6257(2) -0.0413(2)
H174 H 1.1054 0.6163 -0.0332
H175 H 1.1639 0.6423 -0.0787
H176 H 1.1490 0.6537 -0.0176
C184 C 1.2674(3) 0.1380(2) 0.1436(2)
H177 H 1.2958 0.1241 0.1692
C185 C 1.4846(3) 0.1632(3) 0.1450(3)
C186 C 1.1657(4) -0.1603(4) 0.2115(3)
H178 H 1.1549 -0.1292 0.1835
H179 H 1.1237 -0.1757 0.2295
C187 C 1.3157(3) 0.31876(19) 0.44444(18)
H180 H 1.3257 0.2995 0.4117
H181 H 1.2838 0.3564 0.4400
C188 C 1.0228(4) 0.25185(19) 0.2381(3)
C189 C 1.3637(4) 0.4634(3) 0.2370(4)
H182 H 1.3960 0.4883 0.2327
H183 H 1.3162 0.4855 0.2489
H184 H 1.3705 0.4491 0.2026
C190 C 1.2571(5) 0.2075(4) 0.1351(4)
H185 H 1.3027 0.2161 0.1153
H186 H 1.2267 0.2219 0.1109
C191 C 1.7061(2) 0.3798(2) 0.2134(2)
H187 H 1.7102 0.3869 0.1745
H188 H 1.7170 0.3375 0.2228
C192 C 1.2497(3) 0.0715(2) 0.4970(2)
H189 H 1.2503 0.1131 0.4921
H190 H 1.2075 0.0676 0.4890
C193 C 1.4333(3) 0.0135(2) 0.2743(2)
H191 H 1.3823 0.0245 0.2857
H192 H 1.4487 0.0327 0.2377
C194 C 1.2229(5) -0.2078(4) 0.1859(3)
H193 H 1.2641 -0.1923 0.1673
H194 H 1.2083 -0.2233 0.1600
H195 H 1.2335 -0.2386 0.2135
C195 C 1.1504(4) 0.4342(3) 0.3501(3)
H196 H 1.1926 0.4429 0.3234
H197 H 1.1403 0.4590 0.3792
C196 C 1.3254(4) -0.0934(3) 0.0272(2)
H198 H 1.2933 -0.0758 0.0049
H199 H 1.3720 -0.0882 0.0060
C197 C 1.8713(4) 0.1658(3) 0.3019(2)
H200 H 1.8697 0.1697 0.2645
H201 H 1.9136 0.1384 0.3060
H202 H 1.8707 0.2035 0.3117
C198 C 1.3126(4) 0.0401(3) 0.4577(3)
H203 H 1.3167 0.0616 0.4217
H204 H 1.3544 0.0397 0.4685
C199 C 1.4909(5) 0.1852(3) 0.3856(3)
H205 H 1.4894 0.1897 0.3478
H206 H 1.4801 0.2243 0.3972
C200 C 0.9481(3) 0.2600(3) 0.6792(2)
H207 H 0.9524 0.2973 0.6573
H208 H 0.9955 0.2406 0.6810
C201 C 1.3799(4) 0.3297(4) 0.4479(4)
H209 H 1.3707 0.3504 0.4792
H210 H 1.3996 0.3532 0.4154
H211 H 1.4127 0.2929 0.4514
C202 C 1.1662(5) 0.0439(4) 0.3472(4)
H212 H 1.2157 0.0289 0.3301
H213 H 1.1551 0.0839 0.3303
C203 C 1.3764(2) 0.4132(2) 0.2780(3)
H214 H 1.3425 0.3891 0.2829
H215 H 1.3685 0.4281 0.3127
C204 C 1.3268(6) -0.1556(4) 0.0384(3)
H216 H 1.3594 -0.1738 0.0597
H217 H 1.3412 -0.1730 0.0046
H218 H 1.2806 -0.1614 0.0584
C205 C 1.2298(4) 0.2421(4) 0.1795(4)
H219 H 1.1825 0.2379 0.1980
H220 H 1.2295 0.2827 0.1662
H221 H 1.2587 0.2294 0.2044
C206 C 1.7494(4) 0.4696(3) 0.2042(3)
H222 H 1.7553 0.4737 0.1655
H223 H 1.7837 0.4861 0.2117
H224 H 1.7029 0.4900 0.2221
C207 C 1.4350(6) 0.1533(4) 0.4199(4)
H225 H 1.4419 0.1161 0.4055
H226 H 1.3892 0.1767 0.4175
C208 C 1.4611(5) 0.0367(3) 0.3115(5)
C209 C 1.3095(6) -0.0210(4) 0.4547(5)
H227 H 1.3056 -0.0426 0.4902
H228 H 1.3516 -0.0394 0.4294
H229 H 1.2693 -0.0209 0.4426
C210 C 1.1677(6) 0.3817(5) 0.3707(4)
H230 H 1.1285 0.3717 0.3993
H231 H 1.2066 0.3784 0.3856
H232 H 1.1813 0.3554 0.3429
C211 C 0.9138(7) 0.2761(6) 0.7325(5)
H233 H 0.8638 0.2817 0.7387
H234 H 0.9248 0.3121 0.7364
H235 H 0.9293 0.2455 0.7586
C212 C 1.46017(18) 0.0094(3) 0.09545(16)
H236 H 1.4322 0.0349 0.0750
C213 C 1.53175(19) -0.0010(3) 0.07619(17)
H237 H 1.5520 0.0170 0.0421
C214 C 1.4362(7) 0.1413(5) 0.4812(4)
H238 H 1.4000 0.1206 0.5016
H239 H 1.4280 0.1780 0.4958
C215 C 1.1627(7) 0.0510(7) 0.4080(5)
H240 H 1.1185 0.0761 0.4255
H241 H 1.1686 0.0131 0.4296
C216 C 1.1675(2) 0.2327(2) 0.71739(18)
H242 H 1.2104 0.2328 0.7262
H243 H 1.1788 0.2027 0.6926
C217 C 1.1457(3) 0.28715(19) 0.69014(19)
H244 H 1.1315 0.3158 0.7165
H245 H 1.1035 0.2855 0.6810
C218 C 1.0771(4) 0.2500(3) 0.3928(3)
H246 H 1.0873 0.2079 0.3907
H247 H 1.0312 0.2662 0.3864
C219 C 1.1277(6) 0.2742(4) 0.3497(4)
H248 H 1.1176 0.3162 0.3502
H249 H 1.1258 0.2652 0.3153
H250 H 1.1739 0.2576 0.3545
C220 C 0.9041(2) 0.5259(2) 0.06288(17)
H251 H 0.9214 0.5604 0.0433
H252 H 0.8928 0.5075 0.0366
C221 C 0.8410(6) 0.5459(5) 0.1011(4)
H253 H 0.8209 0.5130 0.1200
H254 H 0.8089 0.5724 0.0827
H255 H 0.8498 0.5661 0.1269
C222 C 1.2264(6) 0.0806(5) 0.3996(4)
H256 H 1.2687 0.0568 0.3789
H257 H 1.2319 0.0841 0.4346
H258 H 1.2178 0.1190 0.3802
H259 H 0.9340 0.6272 0.2213
H260 H 0.9817 0.5791 0.1843
H261 H 1.1501 0.0645 0.7594
H262 H 1.1300 0.0058 0.7548
H263 H 1.5577 0.1352 0.3605
H264 H 1.2164 0.1466 0.1538
H265 H 1.4757 0.1994 0.1214
H266 H 0.9927 0.2653 0.2727
H267 H 0.9918 0.2421 0.2205
H268 H 1.5120 0.0293 0.2989
H269 H 1.4480 0.0168 0.3481
C223 C 1.0437(5) 0.0680(4) 0.7893(4)
H270 H 1.0296 0.1102 0.7848
H271 H 1.0456 0.0552 0.8264
H272 H 1.0103 0.0510 0.7813
H273 H 1.4627 0.1187 0.4766
C224 C 0.9873(5) 0.6631(4) 0.1460(4)
H274 H 0.9447 0.6711 0.1341
H275 H 0.9916 0.6996 0.1561
C225 C 1.4267(6) 0.1523(5) 0.1696(8)
H276 H 1.4328 0.1163 0.1931
H277 H 1.4032 0.1483 0.1437
H278 H 1.3990 0.1839 0.1912
C226 C 1.0577(9) 0.2026(6) 0.2517(8)
H279 H 1.0900 0.1860 0.2196
H280 H 1.0263 0.1768 0.2701
H281 H 1.0835 0.2073 0.2757
C227 C 1.4301(9) 0.1050(6) 0.3130(7)
H282 H 1.4453 0.1249 0.2772
H283 H 1.4465 0.1195 0.3384
H284 H 1.3795 0.1123 0.3243
C228 C 1.0481(6) 0.6428(4) 0.1010(4)
H285 H 1.0516 0.6732 0.0710
H286 H 1.0902 0.6338 0.1130
H287 H 1.0425 0.6081 0.0895
H288? H 1.0557 0.5235 0.3314
H289? H 1.1221 0.5369 0.2856
H290? H 1.2364 0.0670 0.5182
H291? H 1.2805 0.0698 0.5564
H292? H 1.8048 0.1155 0.3649
H293? H 1.8404 0.1693 0.3454
H294? H 1.1621 0.1930 0.7653
H295? H 1.0829 0.1884 0.7820
H296? H 1.1035 0.2421 0.7967
H297? H 1.1353 0.4105 0.3936
H298? H 1.2036 0.3605 0.3881
H299? H 1.1430 0.3547 0.3650
C229? C 1.6537(16) -0.0681(19) 0.0772(14)
H300? H 1.6697 -0.0626 0.0393
C230? C 1.8637(9) 0.1154(7) 0.2877(6)
H301? H 1.8404 0.0911 0.2763
H302? H 1.9042 0.0913 0.2982
H303? H 1.8783 0.1441 0.2581
C231? C 1.1266(11) 0.4415(7) 0.3015(10)
H304? H 1.0938 0.4226 0.3304
H305? H 1.1288 0.4268 0.2679
C232? C 1.2035(10) 0.4144(11) 0.3126(9)
H306? H 1.2346 0.3874 0.2866
H307? H 1.2270 0.4441 0.3158
H308? H 1.1739 0.2857 0.7149
H309? H 1.1091 0.3224 0.6979
C233? C 1.2881(9) -0.0051(7) 0.5394(7)
H310? H 1.2559 -0.0300 0.5416
H311? H 1.3104 -0.0207 0.5687
C234? C 1.3453(13) -0.0154(11) 0.4866(11)
H312? H 1.3240 0.0006 0.4567
H313? H 1.3792 0.0078 0.4845
C235? C 1.3844(19) -0.0751(12) 0.4762(13)
H314? H 1.4180 -0.0875 0.4974
H315? H 1.4086 -0.0760 0.4381
H316? H 1.3523 -0.1012 0.4864
C236? C 1.1069(7) 0.2460(6) 0.7203(5)
H317? H 1.1138 0.2166 0.6960
H318? H 1.0578 0.2663 0.7270
H319? H 1.4582 0.0268 0.5260
C237? C 0.8804(7) 0.5712(5) 0.1039(5)
H320? H 0.8667 0.5062 0.0654
H321? H 0.9192 0.5439 0.0258
H322? H 0.8660 0.5522 0.1402
H323? H 0.8416 0.6009 0.0962
C238? C 1.0403(5) 0.2047(3) 0.2069(4)
H324? H 1.0166 0.2151 0.1784
H325? H 1.0260 0.1710 0.2298
H326? H 1.0903 0.1955 0.1908
H327? H 1.0471 0.2411 0.2666
H328? H 0.9726 0.2595 0.2556
H329? H 0.9465 0.5910 0.2065
H330? H 0.9568 0.6555 0.2027
H331? H 0.9187 0.5893 0.1013
C239? C 0.9832(4) 0.6433(3) 0.1049(3)
H332? H 0.9428 0.6271 0.1097
C240? C 1.0233(4) 0.6104(3) 0.1429(2)
H333? H 1.0384 0.5694 0.1359
H334? H 1.0650 0.6259 0.1372
H335? H 0.9680 0.6839 0.1120
H336? H 1.0123 0.6404 0.0681
H337? H 1.0624 0.2672 0.4154
C241? C 1.1344(7) 0.2106(6) 0.4498(5)
H338? H 1.1219 0.1740 0.4481
H339? H 1.1481 0.2071 0.4833
C242? C 1.1968(11) 0.2198(9) 0.4010(7)
H340? H 1.1839 0.2220 0.3677
H341? H 1.2361 0.1873 0.4020
H342? H 1.2096 0.2558 0.4026
H343? H 1.0821 0.2954 0.4582
H344? H 0.9933 0.2707 0.6621
H345? H 0.9501 0.2370 0.7140
C243? C 0.8909(5) 0.3140(4) 0.6881(3)
H346? H 0.8902 0.3368 0.6536
H347? H 0.8993 0.3370 0.7118
H348? H 0.8465 0.3029 0.7045
C244? C 1.1277(5) -0.0222(4) 0.7645(4)
H349? H 1.0905 -0.0356 0.7577
H350? H 1.1274 -0.0326 0.8022
H351? H 1.1722 -0.0406 0.7417
H352? H 1.0721 0.0666 0.7754
H353? H 1.1537 0.0614 0.7575
H354? H 1.2213 0.1298 0.1622
H355? H 1.2843 0.1216 0.1755
H356? H 1.7482 0.3448 0.2899
H357? H 1.8223 0.3612 0.2717
H358? H 1.8048 0.3206 0.2377
C245? C 1.7859(6) 0.3536(5) 0.2591(5)
H359? H 1.7947 0.4154 0.1924
H360? H 1.7376 0.4401 0.2454
H361? H 1.4389 0.1694 0.1716
H362? H 1.4825 0.1948 0.1157
C246? C 1.4939(6) 0.1123(5) 0.1239(8)
H363? H 1.5379 0.1060 0.0961
H364? H 1.4560 0.1145 0.1083
H365? H 1.4944 0.0803 0.1524
H366? H 1.5086 0.1323 0.1211
H367? H 1.5611 0.1465 0.4265
H368? H 1.4813 0.1178 0.4838
H369? H 1.5174 0.1848 0.3984
C247? C 1.5645(6) 0.1122(4) 0.4379(4)
C248? C 1.5021(8) 0.0866(5) 0.4641(5)
H370? H 1.4918 0.0705 0.4359
C249? C 1.5031(8) 0.0378(6) 0.5131(5)
H371? H 1.5393 0.0039 0.5014
H372? H 1.5123 0.0525 0.5422
H373? H 1.6049 0.0802 0.4274
H374? H 1.5730 0.1313 0.4651
H375? H 1.4437 0.0791 0.3091
H376? H 1.4250 0.0705 0.3251
C250? C 1.4790(11) 0.0130(8) 0.3480(8)
H377? H 1.4404 -0.0003 0.3749
H378? H 1.4957 0.0391 0.3634
C251? C 1.5279(10) 0.0270(8) 0.3058(7)
H379? H 1.5464 -0.0146 0.3105
H380? H 1.5364 0.0458 0.3327
H381? H 1.5506 0.0427 0.2699
H382? H 1.5165 -0.0204 0.3371
H383? H 1.4397 0.0214 0.3485
H384? H 1.5007 0.0525 0.2880
C252? C 1.2535(5) 0.2253(4) 0.0844(6)
H385? H 1.2499 0.2032 0.0578
H386? H 1.2733 0.2586 0.0661
H387? H 1.2075 0.2388 0.1080
C253? C 1.2961(6) 0.1901(5) 0.1150(5)
H388? H 1.3429 0.1772 0.0912
H389? H 1.3001 0.2127 0.1417
C254? C 1.1318(6) 0.0597(4) 0.3186(5)
H390? H 1.0795 0.0095 0.3160
H391? H 1.1147 -0.0056 0.3635
H392? H 1.0927 0.0829 0.3049
H393? H 1.1734 0.0604 0.2881
C255? C 1.1388(9) 0.0977(8) 0.3579(6)
H394? H 1.1877 0.0954 0.3559
H395? H 1.1135 0.0873 0.3953
C256? C 1.1058(8) 0.1557(5) 0.3362(5)
H396? H 1.1322 0.1645 0.2993
H397? H 1.1051 0.1849 0.3583
H398? H 1.0584 0.1557 0.3370
loop_
_geom_bond_atom_site_label_1
_geom_bond_atom_site_label_2
_geom_bond_site_symmetry_1
_geom_bond_site_symmetry_2
N1 C21 1_555 1_555
N2 C39 1_555 1_555
N3 C45 1_555 1_555
N4 C9 1_555 1_555
N5 C6 1_555 1_555
N6 C29 1_555 1_555
C1 H1 1_555 1_555
N7 C3 1_555 1_555
N8 C40 1_555 1_555
C2 H2 1_555 1_555
N9 C19 1_555 1_555
N10 C47 1_555 1_555
C3 H3 1_555 1_555
C4 C1 1_555 1_555
C5 H4 1_555 1_555
C6 H5 1_555 1_555
H6 C6 1_555 1_555
C7 C5 1_555 1_555
H7 C7 1_555 1_555
C8 C10 1_555 1_555
C9 H8 1_555 1_555
C10 C1 1_555 1_555
C11 C2 1_555 1_555
H9 C11 1_555 1_555
C12 N7 1_555 1_555
H10 C12 1_555 1_555
H11 C12 1_555 1_555
C13 N4 1_555 1_555
H12 C13 1_555 1_555
H13 C13 1_555 1_555
C14 C25 1_555 1_555
C15 H14 1_555 1_555
C16 C3 1_555 1_555
C17 C32 1_555 1_555
N11 C69 1_555 1_555
C18 C15 1_555 1_555
C19 C12 1_555 1_555
H15 C19 1_555 1_555
H16 C19 1_555 1_555
C20 C54 1_555 1_555
C21 C4 1_555 1_555
H17 C21 1_555 1_555
C22 H18 1_555 1_555
H19 C22 1_555 1_555
C23 C26 1_555 1_555
C24 H20 1_555 1_555
C25 C16 1_555 1_555
H21 C25 1_555 1_555
C26 H22 1_555 1_555
C27 H23 1_555 1_555
C28 C30 1_555 1_555
C29 H24 1_555 1_555
H25 C29 1_555 1_555
C30 H26 1_555 1_555
C31 C38 1_555 1_555
C32 H27 1_555 1_555
C33 N5 1_555 1_555
H28 C33 1_555 1_555
C34 H29 1_555 1_555
C35 C9 1_555 1_555
C36 C5 1_555 1_555
C37 C27 1_555 1_555
C38 C24 1_555 1_555
H30 C38 1_555 1_555
C39 C17 1_555 1_555
H31 C39 1_555 1_555
C40 C23 1_555 1_555
H32 C40 1_555 1_555
C41 C34 1_555 1_555
H33 C41 1_555 1_555
C42 C18 1_555 1_555
C43 C65 1_555 1_555
C44 N8 1_555 1_555
H34 C44 1_555 1_555
H35 C44 1_555 1_555
C45 C29 1_555 1_555
H36 C45 1_555 1_555
H37 C45 1_555 1_555
C46 C55 1_555 1_555
N12 C87 1_555 1_555
C47 C13 1_555 1_555
H38 C47 1_555 1_555
H39 C47 1_555 1_555
C48 N9 1_555 1_555
H40 C48 1_555 1_555
C49 H41 1_555 1_555
C50 C52 1_555 1_555
C51 C26 1_555 1_555
C52 C42 1_555 1_555
C53 C51 1_555 1_555
C54 H42 1_555 1_555
C55 C65 1_555 1_555
C56 C36 1_555 1_555
C57 N6 1_555 1_555
H43 C57 1_555 1_555
C58 C24 1_555 1_555
C59 C23 1_555 1_555
H44 C59 1_555 1_555
C60 N3 1_555 1_555
H45 C60 1_555 1_555
C61 C71 1_555 1_555
C62 C28 1_555 1_555
C63 C31 1_555 1_555
H46 C63 1_555 1_555
C64 C20 1_555 1_555
C65 C32 1_555 1_555
C66 C112 1_555 1_555
C67 C70 1_555 1_555
C68 N2 1_555 1_555
H47 C68 1_555 1_555
H48 C68 1_555 1_555
C69 H49 1_555 1_555
C70 C46 1_555 1_555
C71 C20 1_555 1_555
C72 N1 1_555 1_555
H50 C72 1_555 1_555
H51 C72 1_555 1_555
C73 C53 1_555 1_555
H52 C73 1_555 1_555
C74 C56 1_555 1_555
C75 C50 1_555 1_555
C76 N10 1_555 1_555
H53 C76 1_555 1_555
C77 C43 1_555 1_555
C78 C92 1_555 1_555
C79 C49 1_555 1_555
H54 C79 1_555 1_555
C80 C8 1_555 1_555
C81 C61 1_555 1_555
C82 C51 1_555 1_555
C83 C15 1_555 1_555
C84 C58 1_555 1_555
C85 C57 1_555 1_555
C86 C17 1_555 1_555
H55 C86 1_555 1_555
C87 H56 1_555 1_555
H57 C87 1_555 1_555
C88 C76 1_555 1_555
C89 C10 1_555 1_555
C90 C37 1_555 1_555
C91 C88 1_555 1_555
H58 C91 1_555 1_555
C92 C58 1_555 1_555
C93 H59 1_555 1_555
C94 C90 1_555 1_555
H60 C94 1_555 1_555
H61 C94 1_555 1_555
C95 C18 1_555 1_555
C96 C91 1_555 1_555
C97 C37 1_555 1_555
C98 C106 1_555 1_555
C99 C14 1_555 1_555
C100 C53 1_555 1_555
C101 C27 1_555 1_555
C102 C90 1_555 1_555
H62 C102 1_555 1_555
H63 C102 1_555 1_555
C103 C96 1_555 1_555
C104 C90 1_555 1_555
C105 C42 1_555 1_555
H64 C105 1_555 1_555
H65 C105 1_555 1_555
C106 C85 1_555 1_555
H66 C106 1_555 1_555
C107 C33 1_555 1_555
C108 C62 1_555 1_555
H67 C108 1_555 1_555
C109 C97 1_555 1_555
H68 C109 1_555 1_555
C110 C99 1_555 1_555
H69 C110 1_555 1_555
H70 C110 1_555 1_555
C111 C89 1_555 1_555
H71 C111 1_555 1_555
H72 C111 1_555 1_555
C112 C82 1_555 1_555
C113 C66 1_555 1_555
C114 C42 1_555 1_555
H73 C114 1_555 1_555
H74 C114 1_555 1_555
C115 N11 1_555 1_555
H75 C115 1_555 1_555
H76 C115 1_555 1_555
C116 C101 1_555 1_555
H77 C116 1_555 1_555
C117 C96 1_555 1_555
C118 C43 1_555 1_555
H78 C118 1_555 1_555
C119 C66 1_555 1_555
C120 C93 1_555 1_555
C121 C55 1_555 1_555
H79 C121 1_555 1_555
H80 C121 1_555 1_555
C122 C92 1_555 1_555
C123 C78 1_555 1_555
C124 C85 1_555 1_555
H81 C124 1_555 1_555
C125 C88 1_555 1_555
H82 C125 1_555 1_555
C126 C84 1_555 1_555
C127 C98 1_555 1_555
C128 H83 1_555 1_555
H84 C128 1_555 1_555
C129 H85 1_555 1_555
H86 C129 1_555 1_555
C130 C82 1_555 1_555
H87 C130 1_555 1_555
H88 C130 1_555 1_555
C131 C129 1_555 1_555
H89 C131 1_555 1_555
H90 C131 1_555 1_555
C132 C35 1_555 1_555
H91 C132 1_555 1_555
C133 C97 1_555 1_555
C134 C119 1_555 1_555
H92 C134 1_555 1_555
C135 C28 1_555 1_555
C136 C55 1_555 1_555
H93 C136 1_555 1_555
H94 C136 1_555 1_555
C137 C121 1_555 1_555
H95 C137 1_555 1_555
H96 C137 1_555 1_555
C138 C103 1_555 1_555
C139 C135 1_555 1_555
H97 C139 1_555 1_555
H98 C139 1_555 1_555
C140 H99 1_555 1_555
H100 C140 1_555 1_555
C141 N12 1_555 1_555
H101 C141 1_555 1_555
C142 C105 1_555 1_555
H102 C142 1_555 1_555
H103 C142 1_555 1_555
C143 C71 1_555 1_555
H104 C143 1_555 1_555
H105 C143 1_555 1_555
C144 C94 1_555 1_555
H106 C144 1_555 1_555
H107 C144 1_555 1_555
C145 C71 1_555 1_555
H108 C145 1_555 1_555
H109 C145 1_555 1_555
C146 C78 1_555 1_555
C147 C103 1_555 1_555
H110 C147 1_555 1_555
C148 C110 1_555 1_555
H111 C148 1_555 1_555
H112 C148 1_555 1_555
C149 C82 1_555 1_555
H113 C149 1_555 1_555
H114 C149 1_555 1_555
C150 C143 1_555 1_555
C151 C144 1_555 1_555
H115 C151 1_555 1_555
H116 C151 1_555 1_555
C152 C93 1_555 1_555
C153 C131 1_555 1_555
H117 C153 1_555 1_555
H118 C153 1_555 1_555
C154 C117 1_555 1_555
C155 C120 1_555 1_555
C156 C127 1_555 1_555
H119 C156 1_555 1_555
H120 C156 1_555 1_555
C157 C99 1_555 1_555
H121 C157 1_555 1_555
H122 C157 1_555 1_555
C158 C111 1_555 1_555
H123 C158 1_555 1_555
H124 C158 1_555 1_555
C159 C126 1_555 1_555
H125 C159 1_555 1_555
H126 C159 1_555 1_555
C160 C102 1_555 1_555
H127 C160 1_555 1_555
H128 C160 1_555 1_555
C161 H129 1_555 1_555
H130 C161 1_555 1_555
C162 C117 1_555 1_555
H131 C162 1_555 1_555
H132 C162 1_555 1_555
C163 C117 1_555 1_555
H133 C163 1_555 1_555
H134 C163 1_555 1_555
C164 C139 1_555 1_555
H135 C164 1_555 1_555
H136 C164 1_555 1_555
C165 C126 1_555 1_555
H137 C165 1_555 1_555
H138 C165 1_555 1_555
C166 C137 1_555 1_555
H139 C166 1_555 1_555
H140 C166 1_555 1_555
C167 C156 1_555 1_555
H141 C167 1_555 1_555
H142 C167 1_555 1_555
C168 C151 1_555 1_555
H143 C168 1_555 1_555
H144 C168 1_555 1_555
H145 C168 1_555 1_555
C169 C149 1_555 1_555
H146 C169 1_555 1_555
H147 C169 1_555 1_555
C170 C136 1_555 1_555
H148 C170 1_555 1_555
H149 C170 1_555 1_555
C171 H150 1_555 1_555
H151 C171 1_555 1_555
H152 C171 1_555 1_555
C172 C148 1_555 1_555
C173 C167 1_555 1_555
H153 C173 1_555 1_555
H154 C173 1_555 1_555
C174 C153 1_555 1_555
H155 C174 1_555 1_555
H156 C174 1_555 1_555
H157 C174 1_555 1_555
C175 C127 1_555 1_555
H158 C175 1_555 1_555
C176 C170 1_555 1_555
H159 C176 1_555 1_555
H160 C176 1_555 1_555
C177 H161 1_555 1_555
H162 C177 1_555 1_555
H163 C177 1_555 1_555
C178 C128 1_555 1_555
H164 C178 1_555 1_555
H165 C178 1_555 1_555
C179 H166 1_555 1_555
H167 C179 1_555 1_555
C180 C145 1_555 1_555
H168 C180 1_555 1_555
H169 C180 1_555 1_555
C181 C22 1_555 1_555
H170 C181 1_555 1_555
H171 C181 1_555 1_555
C182 C159 1_555 1_555
H172 C182 1_555 1_555
H173 C182 1_555 1_555
C183 C166 1_555 1_555
H174 C183 1_555 1_555
H175 C183 1_555 1_555
H176 C183 1_555 1_555
C184 C162 1_555 1_555
H177 C184 1_555 1_555
C185 C160 1_555 1_555
C186 C182 1_555 1_555
H178 C186 1_555 1_555
H179 C186 1_555 1_555
C187 C142 1_555 1_555
H180 C187 1_555 1_555
H181 C187 1_555 1_555
C188 C178 1_555 1_555
C189 H182 1_555 1_555
H183 C189 1_555 1_555
H184 C189 1_555 1_555
C190 C184 1_555 1_555
H185 C190 1_555 1_555
H186 C190 1_555 1_555
C191 C130 1_555 1_555
H187 C191 1_555 1_555
H188 C191 1_555 1_555
C192 C157 1_555 1_555
H189 C192 1_555 1_555
H190 C192 1_555 1_555
C193 C140 1_555 1_555
H191 C193 1_555 1_555
H192 C193 1_555 1_555
C194 C186 1_555 1_555
H193 C194 1_555 1_555
H194 C194 1_555 1_555
H195 C194 1_555 1_555
C195 C180 1_555 1_555
H196 C195 1_555 1_555
H197 C195 1_555 1_555
C196 C161 1_555 1_555
H198 C196 1_555 1_555
H199 C196 1_555 1_555
C197 C173 1_555 1_555
H200 C197 1_555 1_555
H201 C197 1_555 1_555
H202 C197 1_555 1_555
C198 C192 1_555 1_555
H203 C198 1_555 1_555
H204 C198 1_555 1_555
C199 C175 1_555 1_555
H205 C199 1_555 1_555
H206 C199 1_555 1_555
C200 C181 1_555 1_555
H207 C200 1_555 1_555
H208 C200 1_555 1_555
C201 C187 1_555 1_555
H209 C201 1_555 1_555
H210 C201 1_555 1_555
H211 C201 1_555 1_555
C202 C165 1_555 1_555
H212 C202 1_555 1_555
H213 C202 1_555 1_555
C203 C169 1_555 1_555
H214 C203 1_555 1_555
H215 C203 1_555 1_555
C204 C196 1_555 1_555
H216 C204 1_555 1_555
H217 C204 1_555 1_555
H218 C204 1_555 1_555
C205 C190 1_555 1_555
H219 C205 1_555 1_555
H220 C205 1_555 1_555
H221 C205 1_555 1_555
C206 C179 1_555 1_555
H222 C206 1_555 1_555
H223 C206 1_555 1_555
H224 C206 1_555 1_555
C207 C199 1_555 1_555
H225 C207 1_555 1_555
H226 C207 1_555 1_555
C208 C193 1_555 1_555
C209 C198 1_555 1_555
H227 C209 1_555 1_555
H228 C209 1_555 1_555
H229 C209 1_555 1_555
C210 C195 1_555 1_555
H230 C210 1_555 1_555
H231 C210 1_555 1_555
H232 C210 1_555 1_555
C211 C200 1_555 1_555
H233 C211 1_555 1_555
H234 C211 1_555 1_555
H235 C211 1_555 1_555
C212 C155 1_555 1_555
H236 C212 1_555 1_555
C213 C152 1_555 1_555
H237 C213 1_555 1_555
C214 C207 1_555 1_555
H238 C214 1_555 1_555
H239 C214 1_555 1_555
C215 C202 1_555 1_555
H240 C215 1_555 1_555
H241 C215 1_555 1_555
C216 C177 1_555 1_555
H242 C216 1_555 1_555
H243 C216 1_555 1_555
C217 C114 1_555 1_555
H244 C217 1_555 1_555
H245 C217 1_555 1_555
C218 C158 1_555 1_555
H246 C218 1_555 1_555
H247 C218 1_555 1_555
C219 C218 1_555 1_555
H248 C219 1_555 1_555
H249 C219 1_555 1_555
H250 C219 1_555 1_555
C220 C164 1_555 1_555
H251 C220 1_555 1_555
H252 C220 1_555 1_555
C221 C220 1_555 1_555
H253 C221 1_555 1_555
H254 C221 1_555 1_555
H255 C221 1_555 1_555
C222 C215 1_555 1_555
H256 C222 1_555 1_555
H257 C222 1_555 1_555
H258 C222 1_555 1_555
H259 C150 1_555 1_555
H260 C150 1_555 1_555
H261 C172 1_555 1_555
H262 C172 1_555 1_555
H263 C175 1_555 1_555
H264 C184 1_555 1_555
H265 C185 1_555 1_555
H266 C188 1_555 1_555
H267 C188 1_555 1_555
H268 C208 1_555 1_555
H269 C208 1_555 1_555
C223 C172 1_555 1_555
H270 C223 1_555 1_555
H271 C223 1_555 1_555
H272 C223 1_555 1_555
H273 C214 1_555 1_555
C224 C150 1_555 1_555
H274 C224 1_555 1_555
H275 C224 1_555 1_555
C225 C185 1_555 1_555
H276 C225 1_555 1_555
H277 C225 1_555 1_555
H278 C225 1_555 1_555
C226 C188 1_555 1_555
H279 C226 1_555 1_555
H280 C226 1_555 1_555
H281 C226 1_555 1_555
C227 C208 1_555 1_555
H282 C227 1_555 1_555
H283 C227 1_555 1_555
H284 C227 1_555 1_555
C228 C224 1_555 1_555
H285 C228 1_555 1_555
H286 C228 1_555 1_555
H287 C228 1_555 1_555
C2 C4 1_555 1_555
C6 C72 1_555 1_555
C7 C16 1_555 1_555
C8 C11 1_555 1_555
C14 C36 1_555 1_555
C22 C89 1_555 1_555
C30 C35 1_555 1_555
C31 C48 1_555 1_555
C34 C107 1_555 1_555
C41 C64 1_555 1_555
C44 C68 1_555 1_555
C46 C77 1_555 1_555
C49 C83 1_555 1_555
C50 C95 1_555 1_555
C52 C80 1_555 1_555
C54 C107 1_555 1_555
C56 C75 1_555 1_555
C59 C73 1_555 1_555
C60 C83 1_555 1_555
C61 C77 1_555 1_555
C62 C70 1_555 1_555
C63 C84 1_555 1_555
C64 C81 1_555 1_555
C67 C81 1_555 1_555
C67 C135 1_555 1_555
C69 C101 1_555 1_555
C74 C80 1_555 1_555
C74 C89 1_555 1_555
C75 C99 1_555 1_555
C79 C95 1_555 1_555
C86 C118 1_555 1_555
C87 C115 1_555 1_555
C98 C119 1_555 1_555
C100 C104 1_555 1_555
C100 C112 1_555 1_555
C104 C133 1_555 1_555
C108 C132 1_555 1_555
C109 C116 1_555 1_555
C113 C127 1_555 1_555
C113 C133 1_555 1_555
C120 C146 1_555 1_555
C122 C126 1_555 1_555
C122 C138 1_555 1_555
C123 C154 1_555 1_555
C123 C155 1_555 1_555
C124 C134 1_555 1_555
C125 C147 1_555 1_555
C128 C135 1_555 1_555
C129 C146 1_555 1_555
C138 C154 1_555 1_555
C140 C146 1_555 1_555
C141 C152 1_555 1_555
C161 C163 1_555 1_555
C171 C176 1_555 1_555
C179 C191 1_555 1_555
C189 C203 1_555 1_555
C212 C213 1_555 1_555
C216 C217 1_555 1_555

#END
