
#######################################################################
#
#                 Cambridge Crystallographic Data Centre
#                                CCDC 
#
#######################################################################
#
# If this CIF has been generated from an entry in the Cambridge 
# Structural Database, then it will include bibliographic, chemical, 
# crystal, experimental, refinement or atomic coordinate data resulting 
# from the CCDC's data processing and validation procedures.
#
#######################################################################

data_EVITUA
_chemical_formula_moiety         'C252 H324 N12'
_chemical_name_systematic        
"(CAAA)-2,2':7',2'':7'',2''':12''',12':7''',12:7,12''-hexakis(cyclohexane-1,2-diylbis(iminomethyl))tetrakis(5,5,10,10,15,15-hexabutyl-10,15-dihydro-5H-diindeno[1,2-a:1',2'-c]fluorene) unknown solvate"
_symmetry_cell_setting           rhombohedral
_symmetry_space_group_name_H-M   'R 3'
_symmetry_Int_Tables_number      146
_space_group_name_Hall           'R 3'
loop_
_symmetry_equiv_pos_site_id
_symmetry_equiv_pos_as_xyz
1 x,y,z
2 -y,x-y,z
3 -x+y,-x,z
4 2/3+x,1/3+y,1/3+z
5 2/3-y,1/3+x-y,1/3+z
6 2/3-x+y,1/3-x,1/3+z
7 1/3+x,2/3+y,2/3+z
8 1/3-y,2/3+x-y,2/3+z
9 1/3-x+y,2/3-x,2/3+z
_cell_length_a                   23.1134(9)
_cell_length_b                   23.1134(9)
_cell_length_c                   52.322(3)
_cell_angle_alpha                90
_cell_angle_beta                 90
_cell_angle_gamma                120
_cell_volume                     24207.1
_exptl_crystal_colour            colorless
_exptl_crystal_description       block
_cell_formula_units_Z            3
loop_
_atom_site_label
_atom_site_type_symbol
_atom_site_fract_x
_atom_site_fract_y
_atom_site_fract_z
N1 N 0.03510(13) -0.28199(13) -0.62425(6)
N2 N 0.08120(18) -0.37338(15) -0.63135(6)
N3 N -0.28907(14) -0.30539(15) -0.37998(6)
N4 N -0.2838(2) -0.2250(2) -0.42343(8)
C1 C 0.10291(15) -0.25926(16) -0.63296(7)
H1 H 0.1322 -0.2478 -0.6180
C2 C -0.2606(2) -0.2117(2) -0.35164(8)
H2 H -0.3069 -0.2324 -0.3464
H3 H -0.2383 -0.2278 -0.3404
C3 C 0.02880(19) -0.2735(2) -0.60091(9)
H4 H 0.0667 -0.2533 -0.5907
C4 C 0.1272(2) -0.19863(18) -0.64943(9)
H5 H 0.1266 -0.1632 -0.6397
H6 H 0.0976 -0.2089 -0.6640
C5 C -0.25761(19) -0.23312(18) -0.37859(7)
H7 H -0.2106 -0.2136 -0.3836
C6 C -0.1572(2) -0.3466(2) -0.58886(8)
C7 C -0.09626(17) -0.3317(2) -0.60096(8)
H8 H -0.0969 -0.3476 -0.6173
C8 C -0.03827(19) -0.2951(2) -0.58902(9)
C9 C -0.2772(2) -0.40145(19) -0.38530(8)
C10 C 0.1048(2) -0.31526(17) -0.64765(7)
H9 H 0.0753 -0.3270 -0.6625
C11 C 0.0247(2) -0.42525(18) -0.63644(8)
H10 H 0.0002 -0.4230 -0.6501
C12 C -0.2288(3) -0.1377(2) -0.34867(10)
H11 H -0.1813 -0.1168 -0.3521
H12 H -0.2346 -0.1271 -0.3313
C13 C -0.2345(2) -0.4259(2) -0.38513(7)
H13 H -0.1885 -0.3971 -0.3844
C14 C -0.51383(19) -0.5166(2) -0.62236(9)
C15 C -0.3929(2) -0.4492(2) -0.59645(8)
C16 C -0.2910(3) -0.2080(2) -0.39670(8)
H14 H -0.3385 -0.2279 -0.3924
C17 C -0.39561(19) -0.4818(3) -0.61902(8)
H15 H -0.3580 -0.4820 -0.6252
C18 C -0.25109(19) -0.32831(18) -0.38459(7)
H16 H -0.2060 -0.2991 -0.3876
C19 C -0.39708(19) -0.6731(2) -0.38656(9)
C20 C 0.1753(2) -0.29242(19) -0.65680(8)
H17 H 0.1756 -0.3280 -0.6665
H18 H 0.2045 -0.2827 -0.6422
C21 C -0.4493(2) -0.4537(3) -0.58627(9)
C22 C -0.3409(2) -0.6102(2) -0.38726(8)
C23 C -0.3287(2) -0.5382(2) -0.38616(8)
C24 C 0.1989(2) -0.17468(18) -0.65900(9)
H19 H 0.2132 -0.1362 -0.6701
H20 H 0.2292 -0.1612 -0.6446
C25 C -0.3731(2) -0.5138(2) -0.38603(9)
H21 H -0.4191 -0.5424 -0.3860
C26 C -0.26148(19) -0.4968(2) -0.38612(8)
C27 C -0.3464(2) -0.4473(2) -0.38602(8)
H22 H -0.3754 -0.4303 -0.3865
C28 C -0.2197(2) -0.5304(2) -0.38584(10)
C29 C -0.1569(2) -0.3268(3) -0.56385(9)
C30 C -0.4553(2) -0.5140(3) -0.63211(9)
H23 H -0.4573 -0.5344 -0.6477
C31 C -0.2690(2) -0.3866(2) -0.57815(8)
C32 C 0.2015(2) -0.2300(2) -0.67353(9)
H24 H 0.2472 -0.2153 -0.6786
H25 H 0.1746 -0.2405 -0.6889
C33 C -0.5112(2) -0.4874(3) -0.59988(9)
H26 H -0.5493 -0.4890 -0.5932
C34 C -0.2562(2) -0.3343(2) -0.53601(8)
C35 C -0.3374(3) -0.2601(3) -0.43622(10)
H27 H -0.3782 -0.2716 -0.4287
C36 C -0.2603(4) -0.1105(3) -0.36710(11)
H28 H -0.2371 -0.0621 -0.3659
H29 H -0.3066 -0.1274 -0.3624
C37 C -0.2231(2) -0.2964(3) -0.51188(9)
C38 C -0.3356(2) -0.4098(2) -0.57757(8)
C39 C -0.3644(2) -0.3947(3) -0.55754(9)
C40 C -0.2275(2) -0.3466(3) -0.55699(9)
C41 C -0.2263(2) -0.3931(2) -0.59971(8)
C42 C -0.4379(2) -0.4190(3) -0.56062(9)
C43 C -0.2567(3) -0.1312(3) -0.39509(10)
H30 H -0.2789 -0.1152 -0.4064
H31 H -0.2104 -0.1114 -0.4004
C44 C -0.0374(2) -0.2730(3) -0.56405(11)
H32 H 0.0033 -0.2469 -0.5558
C45 C -0.3277(2) -0.3586(3) -0.53626(8)
C46 C -0.0965(2) -0.2895(4) -0.55136(10)
H33 H -0.0955 -0.2755 -0.5346
C47 C -0.3962(3) -0.3174(4) -0.47633(12)
H34 H -0.4355 -0.3236 -0.4690
C48 C -0.3368(3) -0.2832(4) -0.46264(11)
C49 C -0.2788(3) -0.2735(3) -0.47364(10)
H35 H -0.2386 -0.2495 -0.4649
C50 C -0.2798(2) -0.3001(2) -0.49839(9)
C51 C -0.3393(2) -0.3342(3) -0.51187(11)
C52 C -0.3986(3) -0.3420(6) -0.50002(12)
H36 H -0.4392 -0.3642 -0.5087
C53 C -0.2247(3) -0.2654(3) -0.64926(10)
H37 H -0.1951 -0.2693 -0.6614
H38 H -0.2701 -0.2927 -0.6555
C54 C -0.2336(2) -0.3636(3) -0.62540(8)
H39 H -0.2039 -0.3660 -0.6379
H40 H -0.2790 -0.3909 -0.6316
C55 C -0.1768(2) -0.51268(19) -0.36086(10)
H41 H -0.1461 -0.5295 -0.3627
H42 H -0.1501 -0.4644 -0.3597
C56 C -0.2377(3) -0.4625(3) -0.60295(11)
H43 H -0.2832 -0.4907 -0.6089
H44 H -0.2083 -0.4614 -0.6164
C57 C -0.2183(3) -0.2926(3) -0.62346(10)
H45 H -0.1732 -0.2650 -0.6170
H46 H -0.2487 -0.2900 -0.6114
C58 C -0.2133(2) -0.5381(3) -0.33620(11)
H47 H -0.2416 -0.5188 -0.3336
H48 H -0.2420 -0.5862 -0.3375
C59 C -0.4545(4) -0.3611(5) -0.56330(15)
H49 H -0.4422 -0.3359 -0.5475
H50 H -0.5025 -0.3811 -0.5652
C60 C -0.4853(4) -0.4711(6) -0.54183(12)
H51 H -0.4803 -0.4503 -0.5252
H52 H -0.5309 -0.4877 -0.5475
C61 C -0.5265(7) -0.5871(8) -0.5223(2)
H53 H -0.5099 -0.6168 -0.5178
H54 H -0.5367 -0.5710 -0.5068
C62 C -0.4735(5) -0.5264(7) -0.5393(2)
H55 H -0.4295 -0.5099 -0.5319
H56 H -0.4729 -0.5431 -0.5562
C63 C -0.4189(5) -0.3094(5) -0.5866(2)
H57 H -0.3709 -0.2905 -0.5860
H58 H -0.4353 -0.3315 -0.6029
C64 C -0.2323(6) -0.5617(5) -0.5852(2)
H59 H -0.1974 -0.5559 -0.5969
H60 H -0.2750 -0.5921 -0.5930
C65 C -0.2278(4) -0.4947(3) -0.58070(14)
H61 H -0.2607 -0.5008 -0.5679
H62 H -0.1841 -0.4645 -0.5736
C66 C -0.1729(4) -0.2219(5) -0.51682(18)
H63 H -0.1669 -0.1989 -0.5007
H64 H -0.1305 -0.2188 -0.5208
C67 C -0.1833(8) -0.1851(6) -0.5351(3)
H65 H -0.2182 -0.1759 -0.5300
H66 H -0.1944 -0.2075 -0.5515
C68 C -0.1151(9) -0.1216(7) -0.5356(3)
H67 H -0.0798 -0.1327 -0.5362
H68 H -0.1089 -0.0950 -0.5204
C69 C -0.1133(8) -0.0822(11) -0.5600(4)
H69 H -0.1116 -0.1055 -0.5749
H70 H -0.0745 -0.0384 -0.5595
H71 H -0.1528 -0.0783 -0.5606
C70 C -0.4370(10) -0.2566(8) -0.5828(4)
H72 H -0.4596 -0.2631 -0.5990
H73 H -0.4733 -0.2818 -0.5709
C71 C -0.5879(7) -0.6223(9) -0.5395(4)
H74 H -0.6229 -0.6597 -0.5305
H75 H -0.5767 -0.6377 -0.5547
H76 H -0.6029 -0.5917 -0.5440
C72 C -0.1700(3) -0.5234(2) -0.31400(13)
H77 H -0.1405 -0.5412 -0.3170
H78 H -0.1424 -0.4753 -0.3124
C73 C -0.2046(4) -0.5498(4) -0.28994(18)
H79 H -0.2337 -0.5321 -0.2866
H80 H -0.1726 -0.5371 -0.2764
H81 H -0.2306 -0.5976 -0.2909
C74 C -0.2085(4) -0.1952(4) -0.64822(14)
H82 H -0.1625 -0.1674 -0.6436
H83 H -0.2364 -0.1906 -0.6357
H84 H -0.2162 -0.1819 -0.6647
C75 C -0.2249(9) -0.5935(8) -0.5592(4)
H85 H -0.2516 -0.5891 -0.5462
H86 H -0.1789 -0.5707 -0.5540
H87 H -0.2396 -0.6400 -0.5619
C76 C -0.4301(17) -0.1924(11) -0.5773(9)
H88 H -0.3867 -0.1577 -0.5827
H89 H -0.4350 -0.1886 -0.5593
H90 H -0.4639 -0.1881 -0.5863
C77 C -0.1768(3) -0.5082(3) -0.40937(12)
H91 H -0.1510 -0.5309 -0.4098
H92 H -0.1454 -0.4607 -0.4079
C78 C -0.1945(3) -0.3345(5) -0.49562(11)
H93 H -0.1770 -0.3109 -0.4796
H94 H -0.1575 -0.3332 -0.5049
C79 C -0.2142(5) -0.5209(4) -0.43465(15)
H95 H -0.2353 -0.4938 -0.4358
H96 H -0.2486 -0.5675 -0.4360
C80 C -0.2497(8) -0.4128(8) -0.4893(3)
H97 H -0.2878 -0.4136 -0.4812
H98 H -0.2651 -0.4363 -0.5054
C81 C -0.1619(10) -0.5021(10) -0.4563(3)
H99 H -0.1358 -0.4538 -0.4578
H100 H -0.1848 -0.5198 -0.4724
C82 C -0.2306(13) -0.4469(11) -0.4747(5)
H101 H -0.2188 -0.4275 -0.4578
H102 H -0.1922 -0.4471 -0.4821
C83 C -0.1119(17) -0.5319(19) -0.4506(9)
H103 H -0.0892 -0.5144 -0.4347
H104 H -0.0797 -0.5189 -0.4641
H105 H -0.1375 -0.5797 -0.4497
C84 C -0.296(3) -0.5244(14) -0.4734(6)
H106 H -0.3348 -0.5228 -0.4677
H107 H -0.2869 -0.5506 -0.4617
H108 H -0.3045 -0.5443 -0.4901
N1A N -0.71801(13) -0.68291(18) -0.62425(6)
N2A N -0.62662(15) -0.54542(23) -0.63135(6)
N3A N -0.69461(15) -0.98368(21) -0.37998(6)
N4A N -0.7750(2) -1.0588(3) -0.42343(8)
C1A C -0.74074(16) -0.63783(22) -0.63296(7)
H1A H -0.7522 -0.6200 -0.6180
C2A C -0.7883(2) -1.0489(3) -0.35164(8)
H2A H -0.7676 -1.0745 -0.3464
H3A H -0.7722 -1.0105 -0.3404
C3A C -0.7265(2) -0.69770(28) -0.60091(9)
H4A H -0.7467 -0.6800 -0.5907
C4A C -0.80137(18) -0.67417(27) -0.64943(9)
H5A H -0.8368 -0.7102 -0.6397
H6A H -0.7911 -0.6935 -0.6640
C5A C -0.76688(18) -1.02449(26) -0.37859(7)
H7A H -0.7864 -0.9970 -0.3836
C6A C -0.6534(2) -0.8106(3) -0.58886(8)
C7A C -0.6683(2) -0.76456(26) -0.60096(8)
H8A H -0.6524 -0.7493 -0.6173
C8A C -0.7049(2) -0.74317(28) -0.58902(9)
C9A C -0.59855(19) -0.87575(28) -0.38530(8)
C10A C -0.68474(17) -0.57994(26) -0.64765(7)
H9A H -0.6730 -0.5977 -0.6625
C11A C -0.57475(18) -0.55005(27) -0.63644(8)
H10A H -0.5770 -0.5768 -0.6501
C12A C -0.8623(2) -1.0911(4) -0.34867(10)
H11A H -0.8832 -1.0645 -0.3521
H12A H -0.8729 -1.1075 -0.3313
C13A C -0.5741(2) -0.8086(3) -0.38513(7)
H13A H -0.6029 -0.7914 -0.3844
C14A C -0.4834(2) -0.99723(28) -0.62236(9)
C15A C -0.5508(2) -0.9437(3) -0.59645(8)
C16A C -0.7920(2) -1.0830(4) -0.39670(8)
H14A H -0.7721 -1.1106 -0.3924
C17A C -0.5182(3) -0.91381(36) -0.61902(8)
H15A H -0.5180 -0.8760 -0.6252
C18A C -0.67169(18) -0.92278(26) -0.38459(7)
H16A H -0.7009 -0.9069 -0.3876
C19A C -0.3269(2) -0.72398(28) -0.38656(9)
C20A C -0.70758(19) -0.53228(28) -0.65680(8)
H17A H -0.6720 -0.4964 -0.6665
H18A H -0.7173 -0.5128 -0.6422
C21A C -0.5463(3) -0.9956(4) -0.58627(9)
C22A C -0.3898(2) -0.7307(3) -0.38726(8)
C23A C -0.4618(2) -0.7905(3) -0.38616(8)
C24A C -0.82532(18) -0.62642(27) -0.65900(9)
H19A H -0.8638 -0.6506 -0.6701
H20A H -0.8388 -0.6096 -0.6446
C25A C -0.4862(2) -0.8593(3) -0.38603(9)
H21A H -0.4576 -0.8767 -0.3860
C26A C -0.5032(2) -0.76468(28) -0.38612(8)
C27A C -0.5527(2) -0.8991(3) -0.38602(8)
H22A H -0.5697 -0.9451 -0.3865
C28A C -0.4696(2) -0.6893(3) -0.38584(10)
C29A C -0.6732(3) -0.8301(4) -0.56385(9)
C30A C -0.4860(3) -0.9413(4) -0.63211(9)
H23A H -0.4656 -0.9229 -0.6477
C31A C -0.6134(2) -0.8824(3) -0.57815(8)
C32A C -0.7700(2) -0.5685(3) -0.67353(9)
H24A H -0.7847 -0.5375 -0.6786
H25A H -0.7595 -0.5849 -0.6889
C33A C -0.5126(3) -1.0238(4) -0.59988(9)
H26A H -0.5110 -1.0603 -0.5932
C34A C -0.6657(2) -0.9219(3) -0.53601(8)
C35A C -0.7399(3) -1.0773(4) -0.43622(10)
H27A H -0.7284 -1.1066 -0.4287
C36A C -0.8895(3) -1.1498(5) -0.36710(11)
H28A H -0.9379 -1.1750 -0.3659
H29A H -0.8726 -1.1792 -0.3624
C37A C -0.7036(3) -0.9267(4) -0.51188(9)
C38A C -0.5902(2) -0.9258(3) -0.57757(8)
C39A C -0.6053(3) -0.9697(4) -0.55754(9)
C40A C -0.6534(3) -0.8809(4) -0.55699(9)
C41A C -0.6069(2) -0.8332(3) -0.59971(8)
C42A C -0.5810(3) -1.0189(4) -0.56062(9)
C43A C -0.8688(3) -1.1255(4) -0.39509(10)
H30A H -0.8848 -1.1637 -0.4064
H31A H -0.8886 -1.0990 -0.4004
C44A C -0.7270(3) -0.7644(4) -0.56405(11)
H32A H -0.7531 -0.7498 -0.5558
C45A C -0.6414(3) -0.9691(4) -0.53626(8)
C46A C -0.7105(4) -0.8070(4) -0.55136(10)
H33A H -0.7245 -0.8200 -0.5346
C47A C -0.6826(4) -1.0788(5) -0.47633(12)
H34A H -0.6764 -1.1119 -0.4690
C48A C -0.7168(4) -1.0536(5) -0.46264(11)
C49A C -0.7265(3) -1.0053(4) -0.47364(10)
H35A H -0.7505 -0.9891 -0.4649
C50A C -0.6999(2) -0.9797(3) -0.49839(9)
C51A C -0.6658(3) -1.0051(4) -0.51187(11)
C52A C -0.6580(6) -1.0566(7) -0.50002(12)
H36A H -0.6358 -1.0750 -0.5087
C53A C -0.7346(3) -0.9593(4) -0.64926(10)
H37A H -0.7307 -0.9258 -0.6614
H38A H -0.7073 -0.9774 -0.6555
C54A C -0.6364(3) -0.8700(4) -0.62540(8)
H39A H -0.6340 -0.8379 -0.6379
H40A H -0.6091 -0.8881 -0.6316
C55A C -0.48732(19) -0.66412(28) -0.36086(10)
H41A H -0.4705 -0.6166 -0.3627
H42A H -0.5356 -0.6857 -0.3597
C56A C -0.5375(3) -0.7752(4) -0.60295(11)
H43A H -0.5093 -0.7925 -0.6089
H44A H -0.5386 -0.7469 -0.6164
C57A C -0.7074(3) -0.9257(4) -0.62346(10)
H45A H -0.7350 -0.9082 -0.6170
H46A H -0.7100 -0.9587 -0.6114
C58A C -0.4619(3) -0.6752(4) -0.33620(11)
H47A H -0.4812 -0.7228 -0.3336
H48A H -0.4138 -0.6558 -0.3375
C59A C -0.6389(5) -1.0934(6) -0.56330(15)
H49A H -0.6641 -1.1063 -0.5475
H50A H -0.6189 -1.1214 -0.5652
C60A C -0.5289(6) -1.0142(7) -0.54183(12)
H51A H -0.5497 -1.0300 -0.5252
H52A H -0.5123 -1.0432 -0.5475
C61A C -0.4129(8) -0.9394(11) -0.5223(2)
H53A H -0.3832 -0.8931 -0.5178
H54A H -0.4290 -0.9657 -0.5068
C62A C -0.4736(7) -0.9471(9) -0.5393(2)
H55A H -0.4901 -0.9196 -0.5319
H56A H -0.4569 -0.9298 -0.5562
C63A C -0.6906(5) -1.1095(7) -0.5866(2)
H57A H -0.7095 -1.0804 -0.5860
H58A H -0.6685 -1.1038 -0.6029
C64A C -0.4383(5) -0.6706(8) -0.5852(2)
H59A H -0.4441 -0.6415 -0.5969
H60A H -0.4079 -0.6829 -0.5930
C65A C -0.5053(3) -0.7331(5) -0.58070(14)
H61A H -0.4992 -0.7599 -0.5679
H62A H -0.5355 -0.7196 -0.5736
C66A C -0.7781(5) -0.9510(6) -0.51682(18)
H63A H -0.8011 -0.9680 -0.5007
H64A H -0.7812 -0.9117 -0.5208
C67A C -0.8149(6) -0.9982(10) -0.5351(3)
H65A H -0.8241 -1.0423 -0.5300
H66A H -0.7925 -0.9869 -0.5515
C68A C -0.8784(7) -0.9935(11) -0.5356(3)
H67A H -0.8673 -0.9471 -0.5362
H68A H -0.9050 -1.0139 -0.5204
C69A C -0.9178(11) -1.0311(14) -0.5600(4)
H69A H -0.8945 -1.0061 -0.5749
H70A H -0.9616 -1.0361 -0.5595
H71A H -0.9217 -1.0745 -0.5606
C70A C -0.7434(8) -1.1804(13) -0.5828(4)
H72A H -0.7369 -1.1965 -0.5990
H73A H -0.7182 -1.1915 -0.5709
C71A C -0.3777(9) -0.9656(11) -0.5395(4)
H74A H -0.3403 -0.9632 -0.5305
H75A H -0.3623 -0.9390 -0.5547
H76A H -0.4083 -1.0112 -0.5440
C72A C -0.4766(2) -0.6466(4) -0.31400(13)
H77A H -0.4588 -0.5993 -0.3170
H78A H -0.5247 -0.6671 -0.3124
C73A C -0.4502(4) -0.6548(6) -0.28994(18)
H79A H -0.4679 -0.7016 -0.2866
H80A H -0.4629 -0.6355 -0.2764
H81A H -0.4024 -0.6330 -0.2909
C74A C -0.8048(4) -1.0133(6) -0.64822(14)
H82A H -0.8326 -0.9951 -0.6436
H83A H -0.8094 -1.0458 -0.6357
H84A H -0.8181 -1.0343 -0.6647
C75A C -0.4065(8) -0.6314(12) -0.5592(4)
H85A H -0.4109 -0.6625 -0.5462
H86A H -0.4293 -0.6082 -0.5540
H87A H -0.3600 -0.5996 -0.5619
C76A C -0.8076(11) -1.2377(20) -0.5773(9)
H88A H -0.8423 -1.2290 -0.5827
H89A H -0.8114 -1.2464 -0.5593
H90A H -0.8119 -1.2758 -0.5863
C77A C -0.4918(3) -0.6686(4) -0.40937(12)
H91A H -0.4691 -0.6201 -0.4098
H92A H -0.5393 -0.6847 -0.4079
C78A C -0.6655(5) -0.8600(6) -0.49562(11)
H93A H -0.6891 -0.8661 -0.4796
H94A H -0.6668 -0.8243 -0.5049
C79A C -0.4791(4) -0.6933(6) -0.43465(15)
H95A H -0.5062 -0.7415 -0.4358
H96A H -0.4325 -0.6811 -0.4360
C80A C -0.5872(8) -0.8369(11) -0.4893(3)
H97A H -0.5864 -0.8742 -0.4812
H98A H -0.5637 -0.8288 -0.5054
C81A C -0.4979(10) -0.6598(14) -0.4563(3)
H99A H -0.5462 -0.6820 -0.4578
H100A H -0.4802 -0.6650 -0.4724
C82A C -0.5531(11) -0.7837(17) -0.4747(5)
H101A H -0.5725 -0.7913 -0.4578
H102A H -0.5529 -0.7451 -0.4821
C83A C -0.4681(19) -0.5800(25) -0.4506(9)
H103A H -0.4856 -0.5748 -0.4347
H104A H -0.4811 -0.5608 -0.4641
H105A H -0.4203 -0.5578 -0.4497
C84A C -0.4756(14) -0.7716(33) -0.4734(6)
H106A H -0.4772 -0.8120 -0.4677
H107A H -0.4494 -0.7363 -0.4617
H108A H -0.4557 -0.7602 -0.4901
N1B N -0.31709(18) -1.03510(13) -0.62425(6)
N2B N -0.45458(23) -1.08120(18) -0.63135(6)
N3B N -0.01632(21) -0.71093(14) -0.37998(6)
N4B N 0.0588(3) -0.7162(2) -0.42343(8)
C1B C -0.36217(22) -1.10291(15) -0.63296(7)
H1B H -0.3800 -1.1322 -0.6180
C2B C 0.0489(3) -0.7394(2) -0.35164(8)
H2B H 0.0745 -0.6931 -0.3464
H3B H 0.0105 -0.7617 -0.3404
C3B C -0.30230(28) -1.02880(19) -0.60091(9)
H4B H -0.3200 -1.0667 -0.5907
C4B C -0.32583(27) -1.1272(2) -0.64943(9)
H5B H -0.2898 -1.1266 -0.6397
H6B H -0.3065 -1.0976 -0.6640
C5B C 0.02449(26) -0.74239(19) -0.37859(7)
H7B H -0.0030 -0.7894 -0.3836
C6B C -0.1894(3) -0.8428(2) -0.58886(8)
C7B C -0.23544(26) -0.90374(17) -0.60096(8)
H8B H -0.2507 -0.9031 -0.6173
C8B C -0.25683(28) -0.96173(19) -0.58902(9)
C9B C -0.12425(28) -0.7228(2) -0.38530(8)
C10B C -0.42006(26) -1.1048(2) -0.64765(7)
H9B H -0.4023 -1.0753 -0.6625
C11B C -0.44995(27) -1.0247(2) -0.63644(8)
H10B H -0.4232 -1.0002 -0.6501
C12B C 0.0911(4) -0.7712(3) -0.34867(10)
H11B H 0.0645 -0.8187 -0.3521
H12B H 0.1075 -0.7654 -0.3313
C13B C -0.1914(3) -0.7655(2) -0.38513(7)
H13B H -0.2086 -0.8115 -0.3844
C14B C -0.00277(28) -0.48617(19) -0.62236(9)
C15B C -0.0563(3) -0.6071(2) -0.59645(8)
C16B C 0.0830(4) -0.7090(3) -0.39670(8)
H14B H 0.1106 -0.6615 -0.3924
C17B C -0.08619(36) -0.60439(19) -0.61902(8)
H15B H -0.1240 -0.6420 -0.6252
C18B C -0.07722(26) -0.74891(19) -0.38459(7)
H16B H -0.0931 -0.7940 -0.3876
C19B C -0.27602(28) -0.60292(19) -0.38656(9)
C20B C -0.46772(28) -1.1753(2) -0.65680(8)
H17B H -0.5036 -1.1756 -0.6665
H18B H -0.4872 -1.2045 -0.6422
C21B C -0.0044(4) -0.5507(2) -0.58627(9)
C22B C -0.2693(3) -0.6591(2) -0.38726(8)
C23B C -0.2095(3) -0.6713(2) -0.38616(8)
C24B C -0.37358(27) -1.1989(2) -0.65900(9)
H19B H -0.3494 -1.2132 -0.6701
H20B H -0.3904 -1.2292 -0.6446
C25B C -0.1407(3) -0.6269(2) -0.38603(9)
H21B H -0.1233 -0.5809 -0.3860
C26B C -0.23532(28) -0.73852(19) -0.38612(8)
C27B C -0.1009(3) -0.6536(2) -0.38602(8)
H22B H -0.0549 -0.6246 -0.3865
C28B C -0.3107(3) -0.7803(2) -0.38584(10)
C29B C -0.1699(4) -0.8431(2) -0.56385(9)
C30B C -0.0587(4) -0.5447(2) -0.63211(9)
H23B H -0.0771 -0.5427 -0.6477
C31B C -0.1176(3) -0.7310(2) -0.57815(8)
C32B C -0.4315(3) -1.2015(2) -0.67353(9)
H24B H -0.4625 -1.2472 -0.6786
H25B H -0.4151 -1.1746 -0.6889
C33B C 0.0238(4) -0.4888(2) -0.59988(9)
H26B H 0.0603 -0.4507 -0.5932
C34B C -0.0781(3) -0.7438(2) -0.53601(8)
C35B C 0.0773(4) -0.6626(3) -0.43622(10)
H27B H 0.1066 -0.6218 -0.4287
C36B C 0.1498(5) -0.7397(4) -0.36710(11)
H28B H 0.1750 -0.7629 -0.3659
H29B H 0.1792 -0.6934 -0.3624
C37B C -0.0733(4) -0.7769(2) -0.51188(9)
C38B C -0.0742(3) -0.6644(2) -0.57757(8)
C39B C -0.0303(4) -0.6356(2) -0.55754(9)
C40B C -0.1191(4) -0.7725(2) -0.55699(9)
C41B C -0.1668(3) -0.7737(2) -0.59971(8)
C42B C 0.0189(4) -0.5621(2) -0.56062(9)
C43B C 0.1255(4) -0.7433(3) -0.39509(10)
H30B H 0.1637 -0.7211 -0.4064
H31B H 0.0990 -0.7896 -0.4004
C44B C -0.2356(4) -0.9626(2) -0.56405(11)
H32B H -0.2502 -1.0033 -0.5558
C45B C -0.0309(4) -0.6723(2) -0.53626(8)
C46B C -0.1930(4) -0.9035(2) -0.55136(10)
H33B H -0.1800 -0.9045 -0.5346
C47B C 0.0788(5) -0.6038(3) -0.47633(12)
H34B H 0.1119 -0.5645 -0.4690
C48B C 0.0536(5) -0.6632(3) -0.46264(11)
C49B C 0.0053(4) -0.7212(3) -0.47364(10)
H35B H -0.0109 -0.7614 -0.4649
C50B C -0.0203(3) -0.7202(2) -0.49839(9)
C51B C 0.0051(4) -0.6607(2) -0.51187(11)
C52B C 0.0566(7) -0.6014(3) -0.50002(12)
H36B H 0.0750 -0.5608 -0.5087
C53B C -0.0407(4) -0.7753(3) -0.64926(10)
H37B H -0.0742 -0.8049 -0.6614
H38B H -0.0226 -0.7299 -0.6555
C54B C -0.1300(4) -0.7664(2) -0.62540(8)
H39B H -0.1621 -0.7961 -0.6379
H40B H -0.1119 -0.7210 -0.6316
C55B C -0.33588(28) -0.8232(2) -0.36086(10)
H41B H -0.3834 -0.8539 -0.3627
H42B H -0.3143 -0.8499 -0.3597
C56B C -0.2248(4) -0.7623(3) -0.60295(11)
H43B H -0.2075 -0.7168 -0.6089
H44B H -0.2531 -0.7917 -0.6164
C57B C -0.0743(4) -0.7817(3) -0.62346(10)
H45B H -0.0918 -0.8268 -0.6170
H46B H -0.0413 -0.7513 -0.6114
C58B C -0.3248(4) -0.7867(2) -0.33620(11)
H47B H -0.2772 -0.7584 -0.3336
H48B H -0.3442 -0.7580 -0.3375
C59B C 0.0934(6) -0.5455(4) -0.56330(15)
H49B H 0.1063 -0.5578 -0.5475
H50B H 0.1214 -0.4975 -0.5652
C60B C 0.0142(7) -0.5147(4) -0.54183(12)
H51B H 0.0300 -0.5197 -0.5252
H52B H 0.0432 -0.4691 -0.5475
C61B C -0.0606(11) -0.4735(7) -0.5223(2)
H53B H -0.1069 -0.4901 -0.5178
H54B H -0.0343 -0.4633 -0.5068
C62B C -0.0529(9) -0.5265(5) -0.5393(2)
H55B H -0.0804 -0.5705 -0.5319
H56B H -0.0702 -0.5271 -0.5562
C63B C 0.1095(7) -0.5811(5) -0.5866(2)
H57B H 0.0804 -0.6291 -0.5860
H58B H 0.1038 -0.5647 -0.6029
C64B C -0.3294(8) -0.7677(6) -0.5852(2)
H59B H -0.3585 -0.8026 -0.5969
H60B H -0.3171 -0.7250 -0.5930
C65B C -0.2669(5) -0.7722(4) -0.58070(14)
H61B H -0.2401 -0.7393 -0.5679
H62B H -0.2804 -0.8159 -0.5736
C66B C -0.0490(6) -0.8271(4) -0.51682(18)
H63B H -0.0320 -0.8331 -0.5007
H64B H -0.0883 -0.8695 -0.5208
C67B C -0.0018(10) -0.8167(8) -0.5351(3)
H65B H 0.0423 -0.7818 -0.5300
H66B H -0.0131 -0.8056 -0.5515
C68B C -0.0065(11) -0.8849(9) -0.5356(3)
H67B H -0.0529 -0.9202 -0.5362
H68B H 0.0139 -0.8911 -0.5204
C69B C 0.0311(14) -0.8867(8) -0.5600(4)
H69B H 0.0061 -0.8884 -0.5749
H70B H 0.0361 -0.9255 -0.5595
H71B H 0.0745 -0.8472 -0.5606
C70B C 0.1804(13) -0.5630(10) -0.5828(4)
H72B H 0.1965 -0.5404 -0.5990
H73B H 0.1915 -0.5267 -0.5709
C71B C -0.0344(11) -0.4121(7) -0.5395(4)
H74B H -0.0368 -0.3771 -0.5305
H75B H -0.0610 -0.4233 -0.5547
H76B H 0.0112 -0.3971 -0.5440
C72B C -0.3534(4) -0.8300(3) -0.31400(13)
H77B H -0.4007 -0.8595 -0.3170
H78B H -0.3329 -0.8576 -0.3124
C73B C -0.3452(6) -0.7954(4) -0.28994(18)
H79B H -0.2984 -0.7663 -0.2866
H80B H -0.3645 -0.8274 -0.2764
H81B H -0.3670 -0.7694 -0.2909
C74B C 0.0133(6) -0.7915(4) -0.64822(14)
H82B H -0.0049 -0.8375 -0.6436
H83B H 0.0458 -0.7636 -0.6357
H84B H 0.0343 -0.7838 -0.6647
C75B C -0.3686(12) -0.7751(9) -0.5592(4)
H85B H -0.3375 -0.7484 -0.5462
H86B H -0.3918 -0.8211 -0.5540
H87B H -0.4004 -0.7604 -0.5619
C76B C 0.2377(20) -0.5699(17) -0.5773(9)
H88B H 0.2290 -0.6133 -0.5827
H89B H 0.2464 -0.5650 -0.5593
H90B H 0.2758 -0.5361 -0.5863
C77B C -0.3314(4) -0.8232(3) -0.40937(12)
H91B H -0.3799 -0.8490 -0.4098
H92B H -0.3153 -0.8546 -0.4079
C78B C -0.1400(6) -0.8055(3) -0.49562(11)
H93B H -0.1339 -0.8230 -0.4796
H94B H -0.1757 -0.8425 -0.5049
C79B C -0.3067(6) -0.7858(5) -0.43465(15)
H95B H -0.2585 -0.7647 -0.4358
H96B H -0.3189 -0.7514 -0.4360
C80B C -0.1631(11) -0.7503(8) -0.4893(3)
H97B H -0.1258 -0.7122 -0.4812
H98B H -0.1712 -0.7349 -0.5054
C81B C -0.3402(14) -0.8381(10) -0.4563(3)
H99B H -0.3180 -0.8642 -0.4578
H100B H -0.3350 -0.8152 -0.4724
C82B C -0.2163(17) -0.7694(13) -0.4747(5)
H101B H -0.2087 -0.7812 -0.4578
H102B H -0.2549 -0.8078 -0.4821
C83B C -0.4200(25) -0.8881(17) -0.4506(9)
H103B H -0.4252 -0.9108 -0.4347
H104B H -0.4392 -0.9203 -0.4641
H105B H -0.4422 -0.8625 -0.4497
C84B C -0.2284(33) -0.704(3) -0.4734(6)
H106B H -0.1880 -0.6652 -0.4677
H107B H -0.2637 -0.7131 -0.4617
H108B H -0.2398 -0.6955 -0.4901
H109? H -0.1968 -0.2707 -0.6618
H110? H -0.2099 -0.2182 -0.6478
H111? H -0.2718 -0.5975 -0.5771
H112? H -0.1931 -0.5617 -0.5786
C85? C -0.2368(12) -0.5695(11) -0.6171(4)
H113? H -0.2390 -0.6107 -0.6219
H114? H -0.1979 -0.5327 -0.6247
H115? H -0.2760 -0.5695 -0.6231
C86? C -0.2995(16) -0.305(3) -0.6581(9)
H116? H -0.3035 -0.2885 -0.6745
H117? H -0.3267 -0.2978 -0.6459
H118? H -0.3141 -0.3513 -0.6592
loop_
_geom_bond_atom_site_label_1
_geom_bond_atom_site_label_2
_geom_bond_site_symmetry_1
_geom_bond_site_symmetry_2
N1 C1 1_555 1_555
N2 C10 1_555 1_555
N3 C5 1_555 1_555
N4 C16 1_555 1_555
C1 H1 1_555 1_555
C2 H2 1_555 1_555
H3 C2 1_555 1_555
C3 N1 1_555 1_555
H4 C3 1_555 1_555
C4 C1 1_555 1_555
H5 C4 1_555 1_555
H6 C4 1_555 1_555
C5 C2 1_555 1_555
H7 C5 1_555 1_555
C6 C7 1_555 1_555
C7 H8 1_555 1_555
C8 C3 1_555 1_555
C9 C13 1_555 1_555
C10 C1 1_555 1_555
H9 C10 1_555 1_555
C11 N2 1_555 1_555
H10 C11 1_555 1_555
C12 C2 1_555 1_555
H11 C12 1_555 1_555
H12 C12 1_555 1_555
C13 H13 1_555 1_555
C14 C30 1_555 1_555
C15 C17 1_555 1_555
C16 C5 1_555 1_555
H14 C16 1_555 1_555
C17 H15 1_555 1_555
C18 N3 1_555 1_555
H16 C18 1_555 1_555
C19 C22 1_555 1_555
C20 C10 1_555 1_555
H17 C20 1_555 1_555
H18 C20 1_555 1_555
C21 C15 1_555 1_555
C22 C23 1_555 1_555
C23 C25 1_555 1_555
C24 C4 1_555 1_555
H19 C24 1_555 1_555
H20 C24 1_555 1_555
C25 H21 1_555 1_555
C26 C13 1_555 1_555
C27 C9 1_555 1_555
H22 C27 1_555 1_555
C28 C26 1_555 1_555
C29 C6 1_555 1_555
C30 C17 1_555 1_555
H23 C30 1_555 1_555
C31 C38 1_555 1_555
C32 C20 1_555 1_555
H24 C32 1_555 1_555
H25 C32 1_555 1_555
C33 C14 1_555 1_555
H26 C33 1_555 1_555
C34 C37 1_555 1_555
C35 N4 1_555 1_555
H27 C35 1_555 1_555
C36 C12 1_555 1_555
H28 C36 1_555 1_555
H29 C36 1_555 1_555
C37 C50 1_555 1_555
C38 C15 1_555 1_555
C39 C38 1_555 1_555
C40 C29 1_555 1_555
C41 C6 1_555 1_555
C42 C21 1_555 1_555
C43 C16 1_555 1_555
H30 C43 1_555 1_555
H31 C43 1_555 1_555
C44 C8 1_555 1_555
H32 C44 1_555 1_555
C45 C34 1_555 1_555
C46 C29 1_555 1_555
H33 C46 1_555 1_555
C47 H34 1_555 1_555
C48 C35 1_555 1_555
C49 C48 1_555 1_555
H35 C49 1_555 1_555
C50 C49 1_555 1_555
C51 C45 1_555 1_555
C52 C47 1_555 1_555
H36 C52 1_555 1_555
C53 H37 1_555 1_555
H38 C53 1_555 1_555
C54 C41 1_555 1_555
H39 C54 1_555 1_555
H40 C54 1_555 1_555
C55 C28 1_555 1_555
H41 C55 1_555 1_555
H42 C55 1_555 1_555
C56 C41 1_555 1_555
H43 C56 1_555 1_555
H44 C56 1_555 1_555
C57 C53 1_555 1_555
H45 C57 1_555 1_555
H46 C57 1_555 1_555
C58 C55 1_555 1_555
H47 C58 1_555 1_555
H48 C58 1_555 1_555
C59 C42 1_555 1_555
H49 C59 1_555 1_555
H50 C59 1_555 1_555
C60 C42 1_555 1_555
H51 C60 1_555 1_555
H52 C60 1_555 1_555
C61 H53 1_555 1_555
H54 C61 1_555 1_555
C62 C60 1_555 1_555
H55 C62 1_555 1_555
H56 C62 1_555 1_555
C63 C59 1_555 1_555
H57 C63 1_555 1_555
H58 C63 1_555 1_555
C64 H59 1_555 1_555
H60 C64 1_555 1_555
C65 C56 1_555 1_555
H61 C65 1_555 1_555
H62 C65 1_555 1_555
C66 C37 1_555 1_555
H63 C66 1_555 1_555
H64 C66 1_555 1_555
C67 C66 1_555 1_555
H65 C67 1_555 1_555
H66 C67 1_555 1_555
C68 C67 1_555 1_555
H67 C68 1_555 1_555
H68 C68 1_555 1_555
C69 C68 1_555 1_555
H69 C69 1_555 1_555
H70 C69 1_555 1_555
H71 C69 1_555 1_555
C70 C63 1_555 1_555
H72 C70 1_555 1_555
H73 C70 1_555 1_555
C71 C61 1_555 1_555
H74 C71 1_555 1_555
H75 C71 1_555 1_555
H76 C71 1_555 1_555
C72 C58 1_555 1_555
H77 C72 1_555 1_555
H78 C72 1_555 1_555
C73 C72 1_555 1_555
H79 C73 1_555 1_555
H80 C73 1_555 1_555
H81 C73 1_555 1_555
C74 C53 1_555 1_555
H82 C74 1_555 1_555
H83 C74 1_555 1_555
H84 C74 1_555 1_555
C75 C64 1_555 1_555
H85 C75 1_555 1_555
H86 C75 1_555 1_555
H87 C75 1_555 1_555
C76 C70 1_555 1_555
H88 C76 1_555 1_555
H89 C76 1_555 1_555
H90 C76 1_555 1_555
C77 C28 1_555 1_555
H91 C77 1_555 1_555
H92 C77 1_555 1_555
C78 C37 1_555 1_555
H93 C78 1_555 1_555
H94 C78 1_555 1_555
C79 C77 1_555 1_555
H95 C79 1_555 1_555
H96 C79 1_555 1_555
C80 C78 1_555 1_555
H97 C80 1_555 1_555
H98 C80 1_555 1_555
C81 C79 1_555 1_555
H99 C81 1_555 1_555
H100 C81 1_555 1_555
C82 C80 1_555 1_555
H101 C82 1_555 1_555
H102 C82 1_555 1_555
C83 C81 1_555 1_555
H103 C83 1_555 1_555
H104 C83 1_555 1_555
H105 C83 1_555 1_555
C84 C82 1_555 1_555
H106 C84 1_555 1_555
H107 C84 1_555 1_555
H108 C84 1_555 1_555
N1A C1A 1_555 1_555
N2A C10A 1_555 1_555
N3A C5A 1_555 1_555
N4A C16A 1_555 1_555
C1A H1A 1_555 1_555
C2A H2A 1_555 1_555
H3A C2A 1_555 1_555
C3A N1A 1_555 1_555
H4A C3A 1_555 1_555
C4A C1A 1_555 1_555
H5A C4A 1_555 1_555
H6A C4A 1_555 1_555
C5A C2A 1_555 1_555
H7A C5A 1_555 1_555
C6A C7A 1_555 1_555
C7A H8A 1_555 1_555
C8A C3A 1_555 1_555
C9A C13A 1_555 1_555
C10A C1A 1_555 1_555
H9A C10A 1_555 1_555
C11A C14 1_555 1_555
H10A C11A 1_555 1_555
C12A C2A 1_555 1_555
H11A C12A 1_555 1_555
H12A C12A 1_555 1_555
C13A H13A 1_555 1_555
C14A C30A 1_555 1_555
C15A C17A 1_555 1_555
C16A C5A 1_555 1_555
H14A C16A 1_555 1_555
C17A H15A 1_555 1_555
C18A N3A 1_555 1_555
H16A C18A 1_555 1_555
C19A C22A 1_555 1_555
C20A C10A 1_555 1_555
H17A C20A 1_555 1_555
H18A C20A 1_555 1_555
C21A C15A 1_555 1_555
C22A C19 1_555 1_555
C23A C22A 1_555 1_555
C24A C4A 1_555 1_555
H19A C24A 1_555 1_555
H20A C24A 1_555 1_555
C25A C23A 1_555 1_555
H21A C25A 1_555 1_555
C26A C13A 1_555 1_555
C27A C9A 1_555 1_555
H22A C27A 1_555 1_555
C28A C19 1_555 1_555
C29A C6A 1_555 1_555
C30A C17A 1_555 1_555
H23A C30A 1_555 1_555
C31A C38A 1_555 1_555
C32A C20A 1_555 1_555
H24A C32A 1_555 1_555
H25A C32A 1_555 1_555
C33A C14A 1_555 1_555
H26A C33A 1_555 1_555
C34A C37A 1_555 1_555
C35A N4A 1_555 1_555
H27A C35A 1_555 1_555
C36A C12A 1_555 1_555
H28A C36A 1_555 1_555
H29A C36A 1_555 1_555
C37A C50A 1_555 1_555
C38A C15A 1_555 1_555
C39A C38A 1_555 1_555
C40A C29A 1_555 1_555
C41A C6A 1_555 1_555
C42A C21A 1_555 1_555
C43A C16A 1_555 1_555
H30A C43A 1_555 1_555
H31A C43A 1_555 1_555
C44A C8A 1_555 1_555
H32A C44A 1_555 1_555
C45A C34A 1_555 1_555
C46A C29A 1_555 1_555
H33A C46A 1_555 1_555
C47A H34A 1_555 1_555
C48A C35A 1_555 1_555
C49A C48A 1_555 1_555
H35A C49A 1_555 1_555
C50A C49A 1_555 1_555
C51A C45A 1_555 1_555
C52A C47A 1_555 1_555
H36A C52A 1_555 1_555
C53A H37A 1_555 1_555
H38A C53A 1_555 1_555
C54A C41A 1_555 1_555
H39A C54A 1_555 1_555
H40A C54A 1_555 1_555
C55A C28A 1_555 1_555
H41A C55A 1_555 1_555
H42A C55A 1_555 1_555
C56A C41A 1_555 1_555
H43A C56A 1_555 1_555
H44A C56A 1_555 1_555
C57A C53A 1_555 1_555
H45A C57A 1_555 1_555
H46A C57A 1_555 1_555
C58A C55A 1_555 1_555
H47A C58A 1_555 1_555
H48A C58A 1_555 1_555
C59A C42A 1_555 1_555
H49A C59A 1_555 1_555
H50A C59A 1_555 1_555
C60A C42A 1_555 1_555
H51A C60A 1_555 1_555
H52A C60A 1_555 1_555
C61A H53A 1_555 1_555
H54A C61A 1_555 1_555
C62A C60A 1_555 1_555
H55A C62A 1_555 1_555
H56A C62A 1_555 1_555
C63A C59A 1_555 1_555
H57A C63A 1_555 1_555
H58A C63A 1_555 1_555
C64A H59A 1_555 1_555
H60A C64A 1_555 1_555
C65A C56A 1_555 1_555
H61A C65A 1_555 1_555
H62A C65A 1_555 1_555
C66A C37A 1_555 1_555
H63A C66A 1_555 1_555
H64A C66A 1_555 1_555
C67A C66A 1_555 1_555
H65A C67A 1_555 1_555
H66A C67A 1_555 1_555
C68A C67A 1_555 1_555
H67A C68A 1_555 1_555
H68A C68A 1_555 1_555
C69A C68A 1_555 1_555
H69A C69A 1_555 1_555
H70A C69A 1_555 1_555
H71A C69A 1_555 1_555
C70A C63A 1_555 1_555
H72A C70A 1_555 1_555
H73A C70A 1_555 1_555
C71A C61A 1_555 1_555
H74A C71A 1_555 1_555
H75A C71A 1_555 1_555
H76A C71A 1_555 1_555
C72A C58A 1_555 1_555
H77A C72A 1_555 1_555
H78A C72A 1_555 1_555
C73A C72A 1_555 1_555
H79A C73A 1_555 1_555
H80A C73A 1_555 1_555
H81A C73A 1_555 1_555
C74A C53A 1_555 1_555
H82A C74A 1_555 1_555
H83A C74A 1_555 1_555
H84A C74A 1_555 1_555
C75A C64A 1_555 1_555
H85A C75A 1_555 1_555
H86A C75A 1_555 1_555
H87A C75A 1_555 1_555
C76A C70A 1_555 1_555
H88A C76A 1_555 1_555
H89A C76A 1_555 1_555
H90A C76A 1_555 1_555
C77A C28A 1_555 1_555
H91A C77A 1_555 1_555
H92A C77A 1_555 1_555
C78A C37A 1_555 1_555
H93A C78A 1_555 1_555
H94A C78A 1_555 1_555
C79A C77A 1_555 1_555
H95A C79A 1_555 1_555
H96A C79A 1_555 1_555
C80A C78A 1_555 1_555
H97A C80A 1_555 1_555
H98A C80A 1_555 1_555
C81A C79A 1_555 1_555
H99A C81A 1_555 1_555
H100A C81A 1_555 1_555
C82A C80A 1_555 1_555
H101A C82A 1_555 1_555
H102A C82A 1_555 1_555
C83A C81A 1_555 1_555
H103A C83A 1_555 1_555
H104A C83A 1_555 1_555
H105A C83A 1_555 1_555
C84A C82A 1_555 1_555
H106A C84A 1_555 1_555
H107A C84A 1_555 1_555
H108A C84A 1_555 1_555
N1B C1B 1_555 1_555
N2B C10B 1_555 1_555
N3B C5B 1_555 1_555
N4B C16B 1_555 1_555
C1B H1B 1_555 1_555
C2B H2B 1_555 1_555
H3B C2B 1_555 1_555
C3B N1B 1_555 1_555
H4B C3B 1_555 1_555
C4B C1B 1_555 1_555
H5B C4B 1_555 1_555
H6B C4B 1_555 1_555
C5B C2B 1_555 1_555
H7B C5B 1_555 1_555
C6B C7B 1_555 1_555
C7B H8B 1_555 1_555
C8B C3B 1_555 1_555
C9B C13B 1_555 1_555
C10B C1B 1_555 1_555
H9B C10B 1_555 1_555
C11B C14A 1_555 1_555
H10B C11B 1_555 1_555
C12B C2B 1_555 1_555
H11B C12B 1_555 1_555
H12B C12B 1_555 1_555
C13B H13B 1_555 1_555
C14B C11 1_555 1_555
C15B C17B 1_555 1_555
C16B C5B 1_555 1_555
H14B C16B 1_555 1_555
C17B H15B 1_555 1_555
C18B N3B 1_555 1_555
H16B C18B 1_555 1_555
C19B C22 1_555 1_555
C20B C10B 1_555 1_555
H17B C20B 1_555 1_555
H18B C20B 1_555 1_555
C21B C15B 1_555 1_555
C22B C19A 1_555 1_555
C23B C22B 1_555 1_555
C24B C4B 1_555 1_555
H19B C24B 1_555 1_555
H20B C24B 1_555 1_555
C25B C23B 1_555 1_555
H21B C25B 1_555 1_555
C26B C13B 1_555 1_555
C27B C9B 1_555 1_555
H22B C27B 1_555 1_555
C28B C19A 1_555 1_555
C29B C6B 1_555 1_555
C30B C14B 1_555 1_555
H23B C30B 1_555 1_555
C31B C38B 1_555 1_555
C32B C20B 1_555 1_555
H24B C32B 1_555 1_555
H25B C32B 1_555 1_555
C33B C14B 1_555 1_555
H26B C33B 1_555 1_555
C34B C37B 1_555 1_555
C35B N4B 1_555 1_555
H27B C35B 1_555 1_555
C36B C12B 1_555 1_555
H28B C36B 1_555 1_555
H29B C36B 1_555 1_555
C37B C50B 1_555 1_555
C38B C15B 1_555 1_555
C39B C38B 1_555 1_555
C40B C29B 1_555 1_555
C41B C6B 1_555 1_555
C42B C21B 1_555 1_555
C43B C16B 1_555 1_555
H30B C43B 1_555 1_555
H31B C43B 1_555 1_555
C44B C8B 1_555 1_555
H32B C44B 1_555 1_555
C45B C34B 1_555 1_555
C46B C29B 1_555 1_555
H33B C46B 1_555 1_555
C47B H34B 1_555 1_555
C48B C35B 1_555 1_555
C49B C48B 1_555 1_555
H35B C49B 1_555 1_555
C50B C49B 1_555 1_555
C51B C45B 1_555 1_555
C52B C47B 1_555 1_555
H36B C52B 1_555 1_555
C53B H37B 1_555 1_555
H38B C53B 1_555 1_555
C54B C41B 1_555 1_555
H39B C54B 1_555 1_555
H40B C54B 1_555 1_555
C55B C28B 1_555 1_555
H41B C55B 1_555 1_555
H42B C55B 1_555 1_555
C56B C41B 1_555 1_555
H43B C56B 1_555 1_555
H44B C56B 1_555 1_555
C57B C53B 1_555 1_555
H45B C57B 1_555 1_555
H46B C57B 1_555 1_555
C58B C55B 1_555 1_555
H47B C58B 1_555 1_555
H48B C58B 1_555 1_555
C59B C42B 1_555 1_555
H49B C59B 1_555 1_555
H50B C59B 1_555 1_555
C60B C42B 1_555 1_555
H51B C60B 1_555 1_555
H52B C60B 1_555 1_555
C61B H53B 1_555 1_555
H54B C61B 1_555 1_555
C62B C60B 1_555 1_555
H55B C62B 1_555 1_555
H56B C62B 1_555 1_555
C63B C59B 1_555 1_555
H57B C63B 1_555 1_555
H58B C63B 1_555 1_555
C64B H59B 1_555 1_555
H60B C64B 1_555 1_555
C65B C56B 1_555 1_555
H61B C65B 1_555 1_555
H62B C65B 1_555 1_555
C66B C37B 1_555 1_555
H63B C66B 1_555 1_555
H64B C66B 1_555 1_555
C67B C66B 1_555 1_555
H65B C67B 1_555 1_555
H66B C67B 1_555 1_555
C68B C67B 1_555 1_555
H67B C68B 1_555 1_555
H68B C68B 1_555 1_555
C69B C68B 1_555 1_555
H69B C69B 1_555 1_555
H70B C69B 1_555 1_555
H71B C69B 1_555 1_555
C70B C63B 1_555 1_555
H72B C70B 1_555 1_555
H73B C70B 1_555 1_555
C71B C61B 1_555 1_555
H74B C71B 1_555 1_555
H75B C71B 1_555 1_555
H76B C71B 1_555 1_555
C72B C58B 1_555 1_555
H77B C72B 1_555 1_555
H78B C72B 1_555 1_555
C73B C72B 1_555 1_555
H79B C73B 1_555 1_555
H80B C73B 1_555 1_555
H81B C73B 1_555 1_555
C74B C53B 1_555 1_555
H82B C74B 1_555 1_555
H83B C74B 1_555 1_555
H84B C74B 1_555 1_555
C75B C64B 1_555 1_555
H85B C75B 1_555 1_555
H86B C75B 1_555 1_555
H87B C75B 1_555 1_555
C76B C70B 1_555 1_555
H88B C76B 1_555 1_555
H89B C76B 1_555 1_555
H90B C76B 1_555 1_555
C77B C28B 1_555 1_555
H91B C77B 1_555 1_555
H92B C77B 1_555 1_555
C78B C37B 1_555 1_555
H93B C78B 1_555 1_555
H94B C78B 1_555 1_555
C79B C77B 1_555 1_555
H95B C79B 1_555 1_555
H96B C79B 1_555 1_555
C80B C78B 1_555 1_555
H97B C80B 1_555 1_555
H98B C80B 1_555 1_555
C81B C79B 1_555 1_555
H99B C81B 1_555 1_555
H100B C81B 1_555 1_555
C82B C80B 1_555 1_555
H101B C82B 1_555 1_555
H102B C82B 1_555 1_555
C83B C81B 1_555 1_555
H103B C83B 1_555 1_555
H104B C83B 1_555 1_555
H105B C83B 1_555 1_555
C84B C82B 1_555 1_555
H106B C84B 1_555 1_555
H107B C84B 1_555 1_555
H108B C84B 1_555 1_555
C7 C8 1_555 1_555
C9 C18 1_555 1_555
C21 C33 1_555 1_555
C23 C26 1_555 1_555
C24 C32 1_555 1_555
C25 C27 1_555 1_555
C28 C19B 1_555 1_555
C31 C40 1_555 1_555
C31 C41 1_555 1_555
C34 C40 1_555 1_555
C36 C43 1_555 1_555
C39 C42 1_555 1_555
C39 C45 1_555 1_555
C44 C46 1_555 1_555
C47 C48 1_555 1_555
C50 C51 1_555 1_555
C51 C52 1_555 1_555
C54 C57 1_555 1_555
C61 C62 1_555 1_555
C64 C65 1_555 1_555
N2A C11A 1_555 1_555
C7A C8A 1_555 1_555
C9A C18A 1_555 1_555
C21A C33A 1_555 1_555
C23A C26A 1_555 1_555
C24A C32A 1_555 1_555
C25A C27A 1_555 1_555
C26A C28A 1_555 1_555
C31A C40A 1_555 1_555
C31A C41A 1_555 1_555
C34A C40A 1_555 1_555
C36A C43A 1_555 1_555
C39A C42A 1_555 1_555
C39A C45A 1_555 1_555
C44A C46A 1_555 1_555
C47A C48A 1_555 1_555
C50A C51A 1_555 1_555
C51A C52A 1_555 1_555
C54A C57A 1_555 1_555
C61A C62A 1_555 1_555
C64A C65A 1_555 1_555
N2B C11B 1_555 1_555
C7B C8B 1_555 1_555
C9B C18B 1_555 1_555
C17B C30B 1_555 1_555
C19B C22B 1_555 1_555
C21B C33B 1_555 1_555
C23B C26B 1_555 1_555
C24B C32B 1_555 1_555
C25B C27B 1_555 1_555
C26B C28B 1_555 1_555
C31B C40B 1_555 1_555
C31B C41B 1_555 1_555
C34B C40B 1_555 1_555
C36B C43B 1_555 1_555
C39B C42B 1_555 1_555
C39B C45B 1_555 1_555
C44B C46B 1_555 1_555
C47B C48B 1_555 1_555
C50B C51B 1_555 1_555
C51B C52B 1_555 1_555
C54B C57B 1_555 1_555
C61B C62B 1_555 1_555
C64B C65B 1_555 1_555

#END
