
#######################################################################
#
#                 Cambridge Crystallographic Data Centre
#                                CCDC 
#
#######################################################################
#
# If this CIF has been generated from an entry in the Cambridge 
# Structural Database, then it will include bibliographic, chemical, 
# crystal, experimental, refinement or atomic coordinate data resulting 
# from the CCDC's data processing and validation procedures.
#
#######################################################################

data_EVITOU
_chemical_formula_moiety         'C252 H324 N12'
_chemical_name_systematic        
"(AAAA)-2,2':7',2'':7'',2''':12''',12':7''',12:7,12''-hexakis(cyclohexane-1,2-diylbis(iminomethyl))tetrakis(5,5,10,10,15,15-hexabutyl-10,15-dihydro-5H-diindeno[1,2-a:1',2'-c]fluorene) unknown solvate"
_symmetry_cell_setting           rhombohedral
_symmetry_space_group_name_H-M   'R 3'
_symmetry_Int_Tables_number      146
_space_group_name_Hall           'R 3'
loop_
_symmetry_equiv_pos_site_id
_symmetry_equiv_pos_as_xyz
1 x,y,z
2 -y,x-y,z
3 -x+y,-x,z
4 2/3+x,1/3+y,1/3+z
5 2/3-y,1/3+x-y,1/3+z
6 2/3-x+y,1/3-x,1/3+z
7 1/3+x,2/3+y,2/3+z
8 1/3-y,2/3+x-y,2/3+z
9 1/3-x+y,2/3-x,2/3+z
_cell_length_a                   23.3017(3)
_cell_length_b                   23.3017(3)
_cell_length_c                   51.4329(7)
_cell_angle_alpha                90
_cell_angle_beta                 90
_cell_angle_gamma                120
_cell_volume                     24185
_exptl_crystal_colour            colorless
_cell_formula_units_Z            3
loop_
_atom_site_label
_atom_site_type_symbol
_atom_site_fract_x
_atom_site_fract_y
_atom_site_fract_z
N1 N 0.97235(18) 0.68965(18) 0.25090(7)
N2 N 0.92849(19) 0.55217(19) 0.26042(8)
N3 N 1.02321(18) 0.31348(18) 0.00413(8)
N4 N 0.9391(2) 0.2386(2) 0.04698(8)
C1 C 1.1195(2) 0.3940(3) 0.20385(8)
C2 C 1.0766(2) 0.4203(3) 0.20294(8)
C3 C 1.0184(3) 0.3086(3) 0.12177(10)
C4 C 0.9060(2) 0.6444(2) 0.25988(10)
H1 H 0.8761 0.6238 0.2446
C5 C 1.0342(3) 0.3675(3) 0.16104(9)
C6 C 1.1639(3) 0.3273(3) 0.18982(9)
C7 C 1.0801(3) 0.3310(2) 0.01070(8)
H2 H 1.0905 0.2976 0.0149
C8 C 1.1918(2) 0.3537(2) 0.21503(8)
C9 C 1.1898(3) 0.5194(3) 0.01320(10)
C10 C 1.2491(3) 0.2929(3) 0.21493(10)
C11 C 1.2498(3) 0.5208(3) 0.01484(10)
C12 C 1.0803(2) 0.3433(3) 0.16085(9)
C13 C 0.9065(2) 0.5903(2) 0.27649(9)
H3 H 0.9373 0.6109 0.2915
C14 C 1.2334(2) 0.3358(3) 0.22688(10)
H4 H 1.2514 0.3534 0.2435
C15 C 0.9967(3) 0.2829(3) 0.09736(10)
H5 H 1.0111 0.2563 0.0888
C16 C 0.9856(3) 0.5625(3) 0.26429(9)
H6 H 1.0102 0.5914 0.2781
C17 C 1.0092(3) 0.4640(3) 0.21266(9)
C18 C 0.9865(3) 0.4991(3) 0.22641(9)
H7 H 0.9484 0.5000 0.2204
C19 C 1.0637(2) 0.4597(3) 0.22116(10)
C20 C 1.0179(2) 0.5332(3) 0.24887(10)
C21 C 0.9799(2) 0.7052(2) 0.22636(10)
H8 H 0.9420 0.6858 0.2154
C22 C 1.2986(3) 0.5976(3) 0.01671(10)
C23 C 1.1305(3) 0.3691(4) 0.25089(9)
H9 H 1.1614 0.3661 0.2633
H10 H 1.1185 0.4011 0.2581
C24 C 1.0696(3) 0.5278(3) 0.25752(12)
H11 H 1.0902 0.5497 0.2733
C25 C 1.1981(3) 0.4049(3) 0.01571(14)
H12 H 1.2008 0.3655 0.0164
C26 C 0.8788(2) 0.6811(3) 0.27701(11)
H13 H 0.9083 0.7017 0.2921
H14 H 0.8782 0.7166 0.2667
C27 C 1.1665(2) 0.3959(3) 0.22506(8)
C28 C 1.0694(3) 0.3028(5) 0.24902(11)
H15 H 1.0364 0.3075 0.2385
H16 H 1.0805 0.2727 0.2395
C29 C 1.1332(3) 0.4004(2) 0.01247(10)
C30 C 1.2267(4) 0.2712(5) 0.18995(12)
H17 H 1.2399 0.2436 0.1814
C31 C 0.9178(2) 0.2271(2) 0.02003(8)
H18 H 0.8973 0.2542 0.0149
C32 C 1.1281(3) 0.4560(2) 0.01056(10)
H19 H 1.0868 0.4538 0.0077
C33 C 0.8086(2) 0.5783(2) 0.30208(11)
H20 H 0.8344 0.5963 0.3183
H21 H 0.7622 0.5463 0.3069
C34 C 1.2624(3) 0.6306(3) 0.01631(11)
C35 C 0.9760(2) 0.2416(2) 0.00295(9)
H22 H 0.9977 0.2163 0.0091
C36 C 1.1201(3) 0.3528(3) 0.18284(8)
C37 C 1.0946(3) 0.4929(3) 0.24519(11)
H23 H 1.1311 0.4906 0.2522
C38 C 0.8110(3) 0.6339(3) 0.28617(11)
H24 H 0.7812 0.6150 0.2710
H25 H 0.7945 0.6580 0.2968
C39 C 0.9538(3) 0.2238(4) -0.02562(11)
H26 H 0.9331 0.2495 -0.0317
H27 H 0.9929 0.2355 -0.0367
C40 C 0.9515(3) 0.2988(3) 0.08602(11)
C41 C 0.9264(3) 0.2757(3) 0.05965(10)
H28 H 0.8988 0.2902 0.0519
C42 C 0.8372(2) 0.5437(2) 0.28640(10)
H29 H 0.8078 0.5213 0.2714
H30 H 0.8382 0.5093 0.2973
C43 C 1.0717(3) 0.3019(3) 0.13674(10)
C44 C 1.2569(3) 0.4676(3) 0.01786(15)
H31 H 1.2988 0.4715 0.0212
C45 C 1.2285(3) 0.4694(3) 0.22859(15)
H32 H 1.2131 0.4988 0.2357
H33 H 1.2603 0.4684 0.2411
C46 C 1.0336(3) 0.4058(3) 0.18146(9)
C47 C 0.9232(4) 0.3265(5) 0.10171(13)
H34 H 0.8848 0.3265 0.0955
C48 C 0.9984(3) 0.3474(3) 0.13620(10)
C49 C 0.9853(3) 0.4291(4) 0.18714(10)
C50 C 1.1845(4) 0.2890(4) 0.17677(13)
H35 H 1.1708 0.2749 0.1594
C51 C 0.9480(4) 0.3546(4) 0.12644(13)
H36 H 0.9303 0.3774 0.1358
C52 C 0.9917(5) 0.4837(4) 0.16780(11)
H37 H 0.9699 0.4619 0.1513
H38 H 0.9671 0.5044 0.1751
C53 C 1.1896(3) 0.5838(3) 0.01452(13)
C54 C 0.9058(3) 0.1521(4) -0.02805(15)
H39 H 0.9265 0.1261 -0.0223
H40 H 0.8921 0.1408 -0.0464
C55 C 0.8678(3) 0.1523(3) 0.01769(13)
H41 H 0.8290 0.1403 0.0290
H42 H 0.8887 0.1265 0.0234
C56 C 1.1349(4) 0.3296(5) 0.12046(12)
H43 H 1.1655 0.3171 0.1287
H44 H 1.1235 0.3092 0.1030
C57 C 1.0412(5) 0.2256(4) 0.14283(16)
H45 H 1.0302 0.2009 0.1262
H46 H 1.0748 0.2188 0.1519
C58 C 1.0384(4) 0.2713(5) 0.27378(14)
H47 H 1.0234 0.2990 0.2829
H48 H 1.0716 0.2687 0.2849
C59 C 0.8451(4) 0.1354(5) -0.01102(15)
H49 H 0.8118 0.0878 -0.0126
H50 H 0.8245 0.1615 -0.0168
C60 C 1.1484(3) 0.5825(3) 0.03976(14)
H51 H 1.1522 0.6264 0.0420
H52 H 1.1010 0.5494 0.0372
C61 C 1.1742(4) 0.5650(4) 0.06445(18)
H53 H 1.1747 0.5232 0.0617
H54 H 1.2200 0.6006 0.0682
C62 C 1.1576(3) 0.5926(3) -0.00971(14)
H55 H 1.1467 0.6278 -0.0062
H56 H 1.1152 0.5510 -0.0126
C63 C 1.0600(5) 0.5366(5) 0.16193(17)
H57 H 1.0812 0.5184 0.1505
H58 H 1.0856 0.5510 0.1783
C64 C 0.9789(4) 0.2012(7) 0.26971(18)
H59 H 0.9942 0.1727 0.2622
H60 H 0.9470 0.2034 0.2579
H61 H 0.9575 0.1830 0.2865
C65 C 0.9116(3) 0.3687(6) 0.19070(14)
H62 H 0.8824 0.3869 0.1950
H63 H 0.8965 0.3455 0.1738
C66 C 1.1608(4) 0.6215(4) -0.05725(16)
H64 H 1.1519 0.6574 -0.0525
H65 H 1.1179 0.5806 -0.0603
C67 C 1.1976(4) 0.6102(4) -0.03537(14)
H66 H 1.2411 0.6507 -0.0328
H67 H 1.2057 0.5737 -0.0401
C68 C 0.9034(5) 0.3235(7) 0.2091(2)
H68 H 0.9135 0.3478 0.2258
H69 H 0.9399 0.3142 0.2061
C69 C 1.1699(5) 0.4044(7) 0.1176(2)
H70 H 1.1872 0.4255 0.1347
H71 H 1.1381 0.4178 0.1114
C70 C 1.1299(6) 0.5573(6) 0.0870(2)
H72 H 1.1574 0.5754 0.1028
H73 H 1.1084 0.5840 0.0836
C71 C 0.9699(8) 0.1251(8) 0.1676(4)
H74 H 0.9411 0.0927 0.1543
H75 H 1.0138 0.1286 0.1662
C72 C 1.2648(4) 0.4981(4) 0.2013(2)
H76 H 1.2681 0.4636 0.1913
H77 H 1.2405 0.5146 0.1908
C73 C 0.9791(7) 0.1976(7) 0.1595(3)
H78 H 0.9406 0.1928 0.1495
H79 H 0.9859 0.2256 0.1750
C74 C 1.0634(10) 0.5991(7) 0.1482(3)
H80 H 1.1105 0.6317 0.1449
H81 H 1.0410 0.5848 0.1312
C75 C 1.3351(5) 0.5559(6) 0.2088(3)
H82 H 1.3313 0.5857 0.2216
H83 H 1.3618 0.5381 0.2166
C76 C 1.2048(4) 0.6412(4) -0.08313(15)
H84 H 1.2464 0.6827 -0.0802
H85 H 1.1804 0.6471 -0.0974
H86 H 1.2143 0.6059 -0.0876
C77 C 1.3672(9) 0.5931(8) 0.1842(4)
H87 H 1.3371 0.6045 0.1753
H88 H 1.3770 0.5653 0.1729
H89 H 1.4085 0.6338 0.1885
C78 C 1.2278(6) 0.4279(9) 0.0980(3)
H90 H 1.2553 0.4076 0.1021
H91 H 1.2106 0.4151 0.0801
C79 C 1.2687(8) 0.5030(9) 0.1005(4)
H92 H 1.2413 0.5225 0.0958
H93 H 1.3069 0.5201 0.0887
H94 H 1.2843 0.5149 0.1184
C80 C 1.0328(9) 0.6348(7) 0.1629(3)
H95 H 1.0090 0.6088 0.1782
H96 H 1.0020 0.6396 0.1514
H97 H 1.0681 0.6786 0.1684
C81 C 0.8442(12) 0.2577(10) 0.2146(4)
H98 H 0.8036 0.2611 0.2155
H99 H 0.8495 0.2394 0.2312
C82 C 0.9413(12) 0.0958(10) 0.1944(4)
H100 H 0.9699 0.1260 0.2080
H101 H 0.9389 0.0528 0.1962
H102 H 0.8967 0.0898 0.1960
C83 C 0.8412(11) 0.2152(9) 0.1919(5)
H103 H 0.8848 0.2351 0.1835
H104 H 0.8081 0.2120 0.1794
H105 H 0.8289 0.1707 0.1982
C84 C 1.0777(14) 0.4877(10) 0.0921(7)
H106 H 1.0494 0.4697 0.0767
H107 H 1.0508 0.4864 0.1070
H108 H 1.0985 0.4611 0.0960
N1A N 1.31035(18) 0.28270(25) 0.25090(7)
N2A N 1.44783(19) 0.37632(27) 0.26042(8)
N3A N 1.68652(18) 0.70973(25) 0.00413(8)
N4A N 1.7614(2) 0.7005(3) 0.04698(8)
C1A C 1.6060(3) 0.7255(4) 0.20385(8)
C2A C 1.5797(3) 0.6563(4) 0.20294(8)
C3A C 1.6914(3) 0.7098(4) 0.12177(10)
C4A C 1.3556(2) 0.2616(3) 0.25988(10)
H1A H 1.3762 0.2523 0.2446
C5A C 1.6325(3) 0.6667(4) 0.16104(9)
C6A C 1.6727(3) 0.8366(4) 0.18982(9)
C7A C 1.6690(2) 0.7491(4) 0.01070(8)
H2A H 1.7024 0.7929 0.0149
C8A C 1.6463(2) 0.8381(3) 0.21503(8)
C9A C 1.4806(3) 0.6704(4) 0.01320(10)
C10A C 1.7071(3) 0.9562(4) 0.21493(10)
C11A C 1.4792(3) 0.7290(4) 0.01484(10)
C12A C 1.6567(3) 0.7370(4) 0.16085(9)
C13A C 1.4097(2) 0.3162(3) 0.27649(9)
H3A H 1.3891 0.3264 0.2915
C14A C 1.6642(3) 0.8976(4) 0.22688(10)
H4A H 1.6466 0.8980 0.2435
C15A C 1.7171(3) 0.7138(4) 0.09736(10)
H5A H 1.7437 0.7548 0.0888
C16A C 1.4375(3) 0.4231(4) 0.26429(9)
H6A H 1.4086 0.4188 0.2781
C17A C 1.5360(3) 0.5452(4) 0.21266(9)
C18A C 1.5009(3) 0.4874(4) 0.22641(9)
H7A H 1.5000 0.4484 0.2204
C19A C 1.5403(3) 0.6040(4) 0.22116(10)
C20A C 1.4668(3) 0.4847(4) 0.24887(10)
C21A C 1.2948(2) 0.2747(3) 0.22636(10)
H8A H 1.3142 0.2562 0.2154
C22A C 1.4024(3) 0.7010(4) 0.01671(10)
C23A C 1.6309(4) 0.7614(5) 0.25089(9)
H9A H 1.6339 0.7953 0.2633
H10A H 1.5989 0.7174 0.2581
C24A C 1.4722(3) 0.5418(4) 0.25752(12)
H11A H 1.4503 0.5405 0.2733
C25A C 1.5951(3) 0.7932(4) 0.01571(14)
H12A H 1.6345 0.8353 0.0164
C26A C 1.3189(3) 0.1977(4) 0.27701(11)
H13A H 1.2983 0.2066 0.2921
H14A H 1.2834 0.1616 0.2667
C27A C 1.6041(3) 0.7706(4) 0.22506(8)
C28A C 1.6972(5) 0.7666(6) 0.24902(11)
H15A H 1.6925 0.7289 0.2385
H16A H 1.7273 0.8078 0.2395
C29A C 1.5996(2) 0.7328(4) 0.01247(10)
C30A C 1.7288(5) 0.9555(6) 0.18995(12)
H17A H 1.7564 0.9963 0.1814
C31A C 1.7729(2) 0.6907(3) 0.02003(8)
H18A H 1.7458 0.6431 0.0149
C32A C 1.5440(2) 0.6721(4) 0.01056(10)
H19A H 1.5462 0.6330 0.0077
C33A C 1.4217(2) 0.2303(3) 0.30208(11)
H20A H 1.4037 0.2381 0.3183
H21A H 1.4537 0.2159 0.3069
C34A C 1.3694(3) 0.6318(4) 0.01631(11)
C35A C 1.7584(2) 0.7344(3) 0.00295(9)
H22A H 1.7837 0.7814 0.0091
C36A C 1.6472(3) 0.7673(4) 0.18284(8)
C37A C 1.5071(3) 0.6017(4) 0.24519(11)
H23A H 1.5094 0.6405 0.2522
C38A C 1.3661(3) 0.1771(4) 0.28617(11)
H24A H 1.3850 0.1662 0.2710
H25A H 1.3420 0.1365 0.2968
C39A C 1.7762(4) 0.7300(5) -0.02562(11)
H26A H 1.7505 0.6836 -0.0317
H27A H 1.7645 0.7574 -0.0367
C40A C 1.7012(3) 0.6527(4) 0.08602(11)
C41A C 1.7243(3) 0.6507(4) 0.05965(10)
H28A H 1.7098 0.6086 0.0519
C42A C 1.4563(2) 0.2935(3) 0.28640(10)
H29A H 1.4787 0.2865 0.2714
H30A H 1.4907 0.3289 0.2973
C43A C 1.6981(3) 0.7698(4) 0.13674(10)
C44A C 1.5324(3) 0.7893(4) 0.01786(15)
H31A H 1.5285 0.8273 0.0212
C45A C 1.5306(3) 0.7591(4) 0.22859(15)
H32A H 1.5012 0.7143 0.2357
H33A H 1.5316 0.7919 0.2411
C46A C 1.5942(3) 0.6278(4) 0.18146(9)
C47A C 1.6735(5) 0.5967(6) 0.10171(13)
H34A H 1.6735 0.5583 0.0955
C48A C 1.6526(3) 0.6510(4) 0.13620(10)
C49A C 1.5709(4) 0.5562(5) 0.18714(10)
C50A C 1.7110(4) 0.8955(6) 0.17677(13)
H35A H 1.7251 0.8959 0.1594
C51A C 1.6454(4) 0.5934(6) 0.12644(13)
H36A H 1.6226 0.5529 0.1358
C52A C 1.5163(4) 0.5080(6) 0.16780(11)
H37A H 1.5381 0.5080 0.1513
H38A H 1.4956 0.4627 0.1751
C53A C 1.4162(3) 0.6058(4) 0.01452(13)
C54A C 1.8479(4) 0.7537(5) -0.02805(15)
H39A H 1.8739 0.8004 -0.0223
H40A H 1.8592 0.7513 -0.0464
C55A C 1.8477(3) 0.7155(4) 0.01769(13)
H41A H 1.8597 0.6887 0.0290
H42A H 1.8735 0.7622 0.0234
C56A C 1.6704(5) 0.8053(6) 0.12046(12)
H43A H 1.6829 0.8484 0.1287
H44A H 1.6908 0.8143 0.1030
C57A C 1.7744(4) 0.8156(6) 0.14283(16)
H45A H 1.7991 0.8293 0.1262
H46A H 1.7812 0.8560 0.1519
C58A C 1.7287(5) 0.7671(6) 0.27378(14)
H47A H 1.7010 0.7244 0.2829
H48A H 1.7313 0.8029 0.2849
C59A C 1.8646(5) 0.7097(6) -0.01102(15)
H49A H 1.9122 0.7240 -0.0126
H50A H 1.8385 0.6630 -0.0168
C60A C 1.4175(3) 0.5659(4) 0.03976(14)
H51A H 1.3736 0.5258 0.0420
H52A H 1.4506 0.5516 0.0372
C61A C 1.4350(4) 0.6092(6) 0.06445(18)
H53A H 1.4768 0.6515 0.0617
H54A H 1.3994 0.6194 0.0682
C62A C 1.4074(3) 0.5650(4) -0.00971(14)
H55A H 1.3722 0.5189 -0.0062
H56A H 1.4490 0.5642 -0.0126
C63A C 1.4634(5) 0.5234(7) 0.16193(17)
H57A H 1.4816 0.5628 0.1505
H58A H 1.4490 0.5346 0.1783
C64A C 1.7988(7) 0.7777(8) 0.26971(18)
H59A H 1.8273 0.8215 0.2622
H60A H 1.7966 0.7436 0.2579
H61A H 1.8170 0.7745 0.2865
C65A C 1.6313(6) 0.5429(7) 0.19070(14)
H62A H 1.6131 0.4955 0.1950
H63A H 1.6545 0.5510 0.1738
C66A C 1.3785(4) 0.5393(6) -0.05725(16)
H64A H 1.3426 0.4945 -0.0525
H65A H 1.4194 0.5373 -0.0603
C67A C 1.3898(4) 0.5874(6) -0.03537(14)
H66A H 1.3493 0.5904 -0.0328
H67A H 1.4263 0.6320 -0.0401
C68A C 1.6765(7) 0.5799(9) 0.2091(2)
H68A H 1.6522 0.5657 0.2258
H69A H 1.6858 0.6257 0.2061
C69A C 1.5956(7) 0.7655(9) 0.1176(2)
H70A H 1.5745 0.7617 0.1347
H71A H 1.5822 0.7203 0.1114
C70A C 1.4427(6) 0.5726(8) 0.0870(2)
H72A H 1.4246 0.5820 0.1028
H73A H 1.4160 0.5244 0.0836
C71A C 1.8749(8) 0.8448(11) 0.1676(4)
H74A H 1.9073 0.8484 0.1543
H75A H 1.8714 0.8852 0.1662
C72A C 1.5019(4) 0.7667(6) 0.2013(2)
H76A H 1.5364 0.8045 0.1913
H77A H 1.4854 0.7259 0.1908
C73A C 1.8024(7) 0.7815(10) 0.1595(3)
H78A H 1.8072 0.7478 0.1495
H79A H 1.7744 0.7603 0.1750
C74A C 1.4009(7) 0.4643(12) 0.1482(3)
H80A H 1.3683 0.4788 0.1449
H81A H 1.4152 0.4562 0.1312
C75A C 1.4441(6) 0.7792(8) 0.2088(3)
H82A H 1.4143 0.7456 0.2216
H83A H 1.4619 0.8237 0.2166
C76A C 1.3588(4) 0.5636(6) -0.08313(15)
H84A H 1.3173 0.5637 -0.0802
H85A H 1.3529 0.5333 -0.0974
H86A H 1.3941 0.6084 -0.0876
C77A C 1.4069(8) 0.7741(12) 0.1842(4)
H87A H 1.3955 0.7326 0.1753
H88A H 1.4347 0.8117 0.1729
H89A H 1.3662 0.7747 0.1885
C78A C 1.5721(9) 0.7999(11) 0.0980(3)
H90A H 1.5924 0.8477 0.1021
H91A H 1.5849 0.7955 0.0801
C79A C 1.4970(9) 0.7657(12) 0.1005(4)
H92A H 1.4775 0.7188 0.0958
H93A H 1.4799 0.7868 0.0887
H94A H 1.4851 0.7694 0.1184
C80A C 1.3652(7) 0.3980(11) 0.1629(3)
H95A H 1.3912 0.4002 0.1782
H96A H 1.3604 0.3624 0.1514
H97A H 1.3214 0.3895 0.1684
C81A C 1.7423(10) 0.5865(16) 0.2146(4)
H98A H 1.7389 0.5425 0.2155
H99A H 1.7606 0.6101 0.2312
C82A C 1.9042(10) 0.8455(16) 0.1944(4)
H100A H 1.8740 0.8439 0.2080
H101A H 1.9472 0.8861 0.1962
H102A H 1.9102 0.8069 0.1960
C83A C 1.7848(9) 0.6260(14) 0.1919(5)
H103A H 1.7649 0.6497 0.1835
H104A H 1.7880 0.5961 0.1794
H105A H 1.8293 0.6582 0.1982
C84A C 1.5123(10) 0.5900(17) 0.0921(7)
H106A H 1.5303 0.5797 0.0767
H107A H 1.5136 0.5644 0.1070
H108A H 1.5389 0.6374 0.0960
N1B N 1.71730(25) 1.02765(18) 0.25090(7)
N2B N 1.62368(27) 1.07151(19) 0.26042(8)
N3B N 1.29027(25) 0.97679(18) 0.00413(8)
N4B N 1.2995(3) 1.0609(2) 0.04698(8)
C1B C 1.2745(4) 0.8805(2) 0.20385(8)
C2B C 1.3437(4) 0.9234(2) 0.20294(8)
C3B C 1.2902(4) 0.9816(3) 0.12177(10)
C4B C 1.7384(3) 1.0940(2) 0.25988(10)
H1B H 1.7477 1.1239 0.2446
C5B C 1.3333(4) 0.9658(3) 0.16104(9)
C6B C 1.1634(4) 0.8361(3) 0.18982(9)
C7B C 1.2509(4) 0.9199(3) 0.01070(8)
H2B H 1.2071 0.9095 0.0149
C8B C 1.1619(3) 0.8082(2) 0.21503(8)
C9B C 1.3296(4) 0.8102(3) 0.01320(10)
C10B C 1.0438(4) 0.7509(3) 0.21493(10)
C11B C 1.2710(4) 0.7502(3) 0.01484(10)
C12B C 1.2630(4) 0.9197(2) 0.16085(9)
C13B C 1.6838(3) 1.0935(2) 0.27649(9)
H3B H 1.6736 1.0627 0.2915
C14B C 1.1024(4) 0.7666(2) 0.22688(10)
H4B H 1.1020 0.7486 0.2435
C15B C 1.2862(4) 1.0033(3) 0.09736(10)
H5B H 1.2452 0.9889 0.0888
C16B C 1.5769(4) 1.0144(3) 0.26429(9)
H6B H 1.5812 0.9898 0.2781
C17B C 1.4548(4) 0.9908(3) 0.21266(9)
C18B C 1.5126(4) 1.0135(3) 0.22641(9)
H7B H 1.5516 1.0516 0.2204
C19B C 1.3960(4) 0.9363(2) 0.22116(10)
C20B C 1.5153(4) 0.9821(2) 0.24887(10)
C21B C 1.7253(3) 1.0201(2) 0.22636(10)
H8B H 1.7438 1.0580 0.2154
C22B C 1.2990(4) 0.7014(3) 0.01671(10)
C23B C 1.2386(5) 0.8695(3) 0.25089(9)
H9B H 1.2047 0.8386 0.2633
H10B H 1.2826 0.8815 0.2581
C24B C 1.4582(4) 0.9304(3) 0.25752(12)
H11B H 1.4595 0.9098 0.2733
C25B C 1.2068(4) 0.8019(3) 0.01571(14)
H12B H 1.1647 0.7992 0.0164
C26B C 1.8023(4) 1.1212(2) 0.27701(11)
H13B H 1.7934 1.0917 0.2921
H14B H 1.8384 1.1218 0.2667
C27B C 1.2294(4) 0.8335(2) 0.22506(8)
C28B C 1.2334(6) 0.9306(3) 0.24902(11)
H15B H 1.2711 0.9636 0.2385
H16B H 1.1922 0.9195 0.2395
C29B C 1.2672(4) 0.8668(3) 0.01247(10)
C30B C 1.0445(6) 0.7733(4) 0.18995(12)
H17B H 1.0037 0.7601 0.1814
C31B C 1.3093(3) 1.0822(2) 0.02003(8)
H18B H 1.3569 1.1027 0.0149
C32B C 1.3279(4) 0.8719(3) 0.01056(10)
H19B H 1.3670 0.9132 0.0077
C33B C 1.7697(3) 1.1914(2) 0.30208(11)
H20B H 1.7619 1.1656 0.3183
H21B H 1.7841 1.2378 0.3069
C34B C 1.3682(4) 0.7376(3) 0.01631(11)
C35B C 1.2656(3) 1.0240(2) 0.00295(9)
H22B H 1.2186 1.0023 0.0091
C36B C 1.2327(4) 0.8799(3) 0.18284(8)
C37B C 1.3983(4) 0.9054(3) 0.24519(11)
H23B H 1.3595 0.8689 0.2522
C38B C 1.8229(4) 1.1890(3) 0.28617(11)
H24B H 1.8338 1.2188 0.2710
H25B H 1.8635 1.2055 0.2968
C39B C 1.2700(5) 1.0462(3) -0.02562(11)
H26B H 1.3164 1.0669 -0.0317
H27B H 1.2426 1.0071 -0.0367
C40B C 1.3473(4) 1.0485(3) 0.08602(11)
C41B C 1.3493(4) 1.0736(3) 0.05965(10)
H28B H 1.3914 1.1012 0.0519
C42B C 1.7065(3) 1.1628(2) 0.28640(10)
H29B H 1.7135 1.1922 0.2714
H30B H 1.6711 1.1618 0.2973
C43B C 1.2302(4) 0.9283(3) 0.13674(10)
C44B C 1.2107(4) 0.7431(3) 0.01786(15)
H31B H 1.1727 0.7012 0.0212
C45B C 1.2409(4) 0.7715(3) 0.22859(15)
H32B H 1.2857 0.7869 0.2357
H33B H 1.2081 0.7397 0.2411
C46B C 1.3722(4) 0.9664(3) 0.18146(9)
C47B C 1.4033(6) 1.0768(4) 0.10171(13)
H34B H 1.4417 1.1152 0.0955
C48B C 1.3490(4) 1.0016(3) 0.13620(10)
C49B C 1.4438(5) 1.0147(3) 0.18714(10)
C50B C 1.1045(6) 0.8155(4) 0.17677(13)
H35B H 1.1041 0.8292 0.1594
C51B C 1.4066(6) 1.0520(4) 0.12644(13)
H36B H 1.4471 1.0697 0.1358
C52B C 1.4920(6) 1.0083(5) 0.16780(11)
H37B H 1.4920 1.0301 0.1513
H38B H 1.5373 1.0329 0.1751
C53B C 1.3942(4) 0.8104(3) 0.01452(13)
C54B C 1.2463(5) 1.0942(3) -0.02805(15)
H39B H 1.1996 1.0735 -0.0223
H40B H 1.2487 1.1079 -0.0464
C55B C 1.2845(4) 1.1322(3) 0.01769(13)
H41B H 1.3113 1.1710 0.0290
H42B H 1.2378 1.1113 0.0234
C56B C 1.1947(6) 0.8651(4) 0.12046(12)
H43B H 1.1516 0.8345 0.1287
H44B H 1.1857 0.8765 0.1030
C57B C 1.1844(6) 0.9588(5) 0.14283(16)
H45B H 1.1707 0.9698 0.1262
H46B H 1.1440 0.9252 0.1519
C58B C 1.2329(6) 0.9616(4) 0.27378(14)
H47B H 1.2756 0.9766 0.2829
H48B H 1.1971 0.9284 0.2849
C59B C 1.2903(6) 1.1549(4) -0.01102(15)
H49B H 1.2760 1.1882 -0.0126
H50B H 1.3370 1.1755 -0.0168
C60B C 1.4341(4) 0.8516(3) 0.03976(14)
H51B H 1.4742 0.8478 0.0420
H52B H 1.4484 0.8990 0.0372
C61B C 1.3908(6) 0.8258(4) 0.06445(18)
H53B H 1.3485 0.8253 0.0617
H54B H 1.3806 0.7800 0.0682
C62B C 1.4350(4) 0.8424(3) -0.00971(14)
H55B H 1.4811 0.8533 -0.0062
H56B H 1.4358 0.8848 -0.0126
C63B C 1.4766(7) 0.9400(5) 0.16193(17)
H57B H 1.4372 0.9188 0.1505
H58B H 1.4654 0.9144 0.1783
C64B C 1.2223(8) 1.0211(4) 0.26971(18)
H59B H 1.1785 1.0058 0.2622
H60B H 1.2564 1.0530 0.2579
H61B H 1.2255 1.0425 0.2865
C65B C 1.4571(7) 1.0884(3) 0.19070(14)
H62B H 1.5045 1.1176 0.1950
H63B H 1.4490 1.1035 0.1738
C66B C 1.4607(6) 0.8392(4) -0.05725(16)
H64B H 1.5055 0.8481 -0.0525
H65B H 1.4627 0.8821 -0.0603
C67B C 1.4126(6) 0.8024(4) -0.03537(14)
H66B H 1.4096 0.7589 -0.0328
H67B H 1.3680 0.7943 -0.0401
C68B C 1.4201(9) 1.0966(5) 0.2091(2)
H68B H 1.4343 1.0865 0.2258
H69B H 1.3743 1.0601 0.2061
C69B C 1.2345(9) 0.8301(5) 0.1176(2)
H70B H 1.2383 0.8128 0.1347
H71B H 1.2797 0.8619 0.1114
C70B C 1.4274(8) 0.8701(6) 0.0870(2)
H72B H 1.4180 0.8426 0.1028
H73B H 1.4756 0.8916 0.0836
C71B C 1.1552(11) 1.0301(8) 0.1676(4)
H74B H 1.1516 1.0589 0.1543
H75B H 1.1148 0.9862 0.1662
C72B C 1.2333(6) 0.7352(4) 0.2013(2)
H76B H 1.1955 0.7319 0.1913
H77B H 1.2741 0.7595 0.1908
C73B C 1.2185(10) 1.0209(7) 0.1595(3)
H78B H 1.2522 1.0594 0.1495
H79B H 1.2397 1.0141 0.1750
C74B C 1.5357(12) 0.9366(10) 0.1482(3)
H80B H 1.5212 0.8895 0.1449
H81B H 1.5438 0.9590 0.1312
C75B C 1.2208(8) 0.6649(5) 0.2088(3)
H82B H 1.2544 0.6687 0.2216
H83B H 1.1763 0.6382 0.2166
C76B C 1.4364(6) 0.7952(4) -0.08313(15)
H84B H 1.4363 0.7536 -0.0802
H85B H 1.4667 0.8196 -0.0974
H86B H 1.3916 0.7857 -0.0876
C77B C 1.2259(12) 0.6328(9) 0.1842(4)
H87B H 1.2674 0.6629 0.1753
H88B H 1.1883 0.6230 0.1729
H89B H 1.2253 0.5915 0.1885
C78B C 1.2001(11) 0.7722(6) 0.0980(3)
H90B H 1.1523 0.7447 0.1021
H91B H 1.2045 0.7894 0.0801
C79B C 1.2343(12) 0.7313(8) 0.1005(4)
H92B H 1.2812 0.7587 0.0958
H93B H 1.2132 0.6931 0.0887
H94B H 1.2306 0.7157 0.1184
C80B C 1.6020(11) 0.9672(9) 0.1629(3)
H95B H 1.5998 0.9910 0.1782
H96B H 1.6376 0.9980 0.1514
H97B H 1.6105 0.9319 0.1684
C81B C 1.4135(16) 1.1558(12) 0.2146(4)
H98B H 1.4575 1.1964 0.2155
H99B H 1.3899 1.1505 0.2312
C82B C 1.1545(16) 1.0587(12) 0.1944(4)
H100B H 1.1561 1.0301 0.2080
H101B H 1.1139 1.0611 0.1962
H102B H 1.1931 1.1033 0.1960
C83B C 1.3740(14) 1.1588(11) 0.1919(5)
H103B H 1.3503 1.1152 0.1835
H104B H 1.4039 1.1919 0.1794
H105B H 1.3418 1.1711 0.1982
C84B C 1.4100(17) 0.9223(14) 0.0921(7)
H106B H 1.4203 0.9506 0.0767
H107B H 1.4356 0.9492 0.1070
H108B H 1.3626 0.9015 0.0960
loop_
_geom_bond_atom_site_label_1
_geom_bond_atom_site_label_2
_geom_bond_site_symmetry_1
_geom_bond_site_symmetry_2
N1 C4 1_555 1_555
N2 C13 1_555 1_555
N3 C7 1_555 1_555
N4 C31 1_555 1_555
C1 C2 1_555 1_555
C2 C19 1_555 1_555
C3 C15 1_555 1_555
C4 H1 1_555 1_555
C5 C12 1_555 1_555
C6 C8 1_555 1_555
C7 H2 1_555 1_555
C8 C14 1_555 1_555
C9 C11 1_555 1_555
C10 C14 1_555 1_555
C11 C22 1_555 1_555
C12 C36 1_555 1_555
C13 C4 1_555 1_555
H3 C13 1_555 1_555
C14 H4 1_555 1_555
C15 H5 1_555 1_555
C16 N2 1_555 1_555
H6 C16 1_555 1_555
C17 C18 1_555 1_555
C18 H7 1_555 1_555
C19 C17 1_555 1_555
C20 C16 1_555 1_555
C21 N1 1_555 1_555
H8 C21 1_555 1_555
C22 C34 1_555 1_555
C23 H9 1_555 1_555
H10 C23 1_555 1_555
C24 C20 1_555 1_555
H11 C24 1_555 1_555
C25 H12 1_555 1_555
C26 C4 1_555 1_555
H13 C26 1_555 1_555
H14 C26 1_555 1_555
C27 C1 1_555 1_555
C28 C23 1_555 1_555
H15 C28 1_555 1_555
H16 C28 1_555 1_555
C29 C7 1_555 1_555
C30 C10 1_555 1_555
H17 C30 1_555 1_555
C31 H18 1_555 1_555
C32 C9 1_555 1_555
H19 C32 1_555 1_555
C33 H20 1_555 1_555
H21 C33 1_555 1_555
C34 C53 1_555 1_555
C35 N3 1_555 1_555
H22 C35 1_555 1_555
C36 C1 1_555 1_555
C37 C19 1_555 1_555
H23 C37 1_555 1_555
C38 C26 1_555 1_555
H24 C38 1_555 1_555
H25 C38 1_555 1_555
C39 C35 1_555 1_555
H26 C39 1_555 1_555
H27 C39 1_555 1_555
C40 C15 1_555 1_555
C41 N4 1_555 1_555
H28 C41 1_555 1_555
C42 C13 1_555 1_555
H29 C42 1_555 1_555
H30 C42 1_555 1_555
C43 C3 1_555 1_555
C44 C11 1_555 1_555
H31 C44 1_555 1_555
C45 C27 1_555 1_555
H32 C45 1_555 1_555
H33 C45 1_555 1_555
C46 C2 1_555 1_555
C47 C40 1_555 1_555
H34 C47 1_555 1_555
C48 C3 1_555 1_555
C49 C17 1_555 1_555
C50 C6 1_555 1_555
H35 C50 1_555 1_555
C51 C47 1_555 1_555
H36 C51 1_555 1_555
C52 C49 1_555 1_555
H37 C52 1_555 1_555
H38 C52 1_555 1_555
C53 C9 1_555 1_555
C54 C39 1_555 1_555
H39 C54 1_555 1_555
H40 C54 1_555 1_555
C55 C31 1_555 1_555
H41 C55 1_555 1_555
H42 C55 1_555 1_555
C56 C43 1_555 1_555
H43 C56 1_555 1_555
H44 C56 1_555 1_555
C57 C43 1_555 1_555
H45 C57 1_555 1_555
H46 C57 1_555 1_555
C58 C28 1_555 1_555
H47 C58 1_555 1_555
H48 C58 1_555 1_555
C59 C54 1_555 1_555
H49 C59 1_555 1_555
H50 C59 1_555 1_555
C60 C53 1_555 1_555
H51 C60 1_555 1_555
H52 C60 1_555 1_555
C61 C60 1_555 1_555
H53 C61 1_555 1_555
H54 C61 1_555 1_555
C62 C53 1_555 1_555
H55 C62 1_555 1_555
H56 C62 1_555 1_555
C63 C52 1_555 1_555
H57 C63 1_555 1_555
H58 C63 1_555 1_555
C64 C58 1_555 1_555
H59 C64 1_555 1_555
H60 C64 1_555 1_555
H61 C64 1_555 1_555
C65 C49 1_555 1_555
H62 C65 1_555 1_555
H63 C65 1_555 1_555
C66 H64 1_555 1_555
H65 C66 1_555 1_555
C67 C62 1_555 1_555
H66 C67 1_555 1_555
H67 C67 1_555 1_555
C68 C65 1_555 1_555
H68 C68 1_555 1_555
H69 C68 1_555 1_555
C69 C56 1_555 1_555
H70 C69 1_555 1_555
H71 C69 1_555 1_555
C70 C61 1_555 1_555
H72 C70 1_555 1_555
H73 C70 1_555 1_555
C71 H74 1_555 1_555
H75 C71 1_555 1_555
C72 C45 1_555 1_555
H76 C72 1_555 1_555
H77 C72 1_555 1_555
C73 C57 1_555 1_555
H78 C73 1_555 1_555
H79 C73 1_555 1_555
C74 C63 1_555 1_555
H80 C74 1_555 1_555
H81 C74 1_555 1_555
C75 C72 1_555 1_555
H82 C75 1_555 1_555
H83 C75 1_555 1_555
C76 C66 1_555 1_555
H84 C76 1_555 1_555
H85 C76 1_555 1_555
H86 C76 1_555 1_555
C77 C75 1_555 1_555
H87 C77 1_555 1_555
H88 C77 1_555 1_555
H89 C77 1_555 1_555
C78 C69 1_555 1_555
H90 C78 1_555 1_555
H91 C78 1_555 1_555
C79 C78 1_555 1_555
H92 C79 1_555 1_555
H93 C79 1_555 1_555
H94 C79 1_555 1_555
C80 C74 1_555 1_555
H95 C80 1_555 1_555
H96 C80 1_555 1_555
H97 C80 1_555 1_555
C81 C68 1_555 1_555
H98 C81 1_555 1_555
H99 C81 1_555 1_555
C82 C71 1_555 1_555
H100 C82 1_555 1_555
H101 C82 1_555 1_555
H102 C82 1_555 1_555
C83 C81 1_555 1_555
H103 C83 1_555 1_555
H104 C83 1_555 1_555
H105 C83 1_555 1_555
C84 C70 1_555 1_555
H106 C84 1_555 1_555
H107 C84 1_555 1_555
H108 C84 1_555 1_555
N1A C4A 1_555 1_555
N2A C13A 1_555 1_555
N3A C7A 1_555 1_555
N4A C31A 1_555 1_555
C1A C2A 1_555 1_555
C2A C19A 1_555 1_555
C3A C15A 1_555 1_555
C4A H1A 1_555 1_555
C5A C12A 1_555 1_555
C6A C8A 1_555 1_555
C7A H2A 1_555 1_555
C8A C14A 1_555 1_555
C9A C11A 1_555 1_555
C10A C14A 1_555 1_555
C11A C22A 1_555 1_555
C12A C36A 1_555 1_555
C13A C4A 1_555 1_555
H3A C13A 1_555 1_555
C14A H4A 1_555 1_555
C15A H5A 1_555 1_555
C16A N2A 1_555 1_555
H6A C16A 1_555 1_555
C17A C18A 1_555 1_555
C18A H7A 1_555 1_555
C19A C17A 1_555 1_555
C20A C16A 1_555 1_555
C21A C10 1_555 1_555
H8A C21A 1_555 1_555
C22A C34A 1_555 1_555
C23A H9A 1_555 1_555
H10A C23A 1_555 1_555
C24A C20A 1_555 1_555
H11A C24A 1_555 1_555
C25A H12A 1_555 1_555
C26A C4A 1_555 1_555
H13A C26A 1_555 1_555
H14A C26A 1_555 1_555
C27A C1A 1_555 1_555
C28A C23A 1_555 1_555
H15A C28A 1_555 1_555
H16A C28A 1_555 1_555
C29A C7A 1_555 1_555
C30A C10A 1_555 1_555
H17A C30A 1_555 1_555
C31A H18A 1_555 1_555
C32A C9A 1_555 1_555
H19A C32A 1_555 1_555
C33A H20A 1_555 1_555
H21A C33A 1_555 1_555
C34A C22 1_555 1_555
C35A N3A 1_555 1_555
H22A C35A 1_555 1_555
C36A C1A 1_555 1_555
C37A C19A 1_555 1_555
H23A C37A 1_555 1_555
C38A C26A 1_555 1_555
H24A C38A 1_555 1_555
H25A C38A 1_555 1_555
C39A C35A 1_555 1_555
H26A C39A 1_555 1_555
H27A C39A 1_555 1_555
C40A C15A 1_555 1_555
C41A N4A 1_555 1_555
H28A C41A 1_555 1_555
C42A C13A 1_555 1_555
H29A C42A 1_555 1_555
H30A C42A 1_555 1_555
C43A C3A 1_555 1_555
C44A C11A 1_555 1_555
H31A C44A 1_555 1_555
C45A C27A 1_555 1_555
H32A C45A 1_555 1_555
H33A C45A 1_555 1_555
C46A C2A 1_555 1_555
C47A C40A 1_555 1_555
H34A C47A 1_555 1_555
C48A C3A 1_555 1_555
C49A C17A 1_555 1_555
C50A C6A 1_555 1_555
H35A C50A 1_555 1_555
C51A C47A 1_555 1_555
H36A C51A 1_555 1_555
C52A C49A 1_555 1_555
H37A C52A 1_555 1_555
H38A C52A 1_555 1_555
C53A C9A 1_555 1_555
C54A C39A 1_555 1_555
H39A C54A 1_555 1_555
H40A C54A 1_555 1_555
C55A C31A 1_555 1_555
H41A C55A 1_555 1_555
H42A C55A 1_555 1_555
C56A C43A 1_555 1_555
H43A C56A 1_555 1_555
H44A C56A 1_555 1_555
C57A C43A 1_555 1_555
H45A C57A 1_555 1_555
H46A C57A 1_555 1_555
C58A C28A 1_555 1_555
H47A C58A 1_555 1_555
H48A C58A 1_555 1_555
C59A C54A 1_555 1_555
H49A C59A 1_555 1_555
H50A C59A 1_555 1_555
C60A C53A 1_555 1_555
H51A C60A 1_555 1_555
H52A C60A 1_555 1_555
C61A C60A 1_555 1_555
H53A C61A 1_555 1_555
H54A C61A 1_555 1_555
C62A C53A 1_555 1_555
H55A C62A 1_555 1_555
H56A C62A 1_555 1_555
C63A C52A 1_555 1_555
H57A C63A 1_555 1_555
H58A C63A 1_555 1_555
C64A C58A 1_555 1_555
H59A C64A 1_555 1_555
H60A C64A 1_555 1_555
H61A C64A 1_555 1_555
C65A C49A 1_555 1_555
H62A C65A 1_555 1_555
H63A C65A 1_555 1_555
C66A H64A 1_555 1_555
H65A C66A 1_555 1_555
C67A C62A 1_555 1_555
H66A C67A 1_555 1_555
H67A C67A 1_555 1_555
C68A C65A 1_555 1_555
H68A C68A 1_555 1_555
H69A C68A 1_555 1_555
C69A C56A 1_555 1_555
H70A C69A 1_555 1_555
H71A C69A 1_555 1_555
C70A C61A 1_555 1_555
H72A C70A 1_555 1_555
H73A C70A 1_555 1_555
C71A H74A 1_555 1_555
H75A C71A 1_555 1_555
C72A C45A 1_555 1_555
H76A C72A 1_555 1_555
H77A C72A 1_555 1_555
C73A C57A 1_555 1_555
H78A C73A 1_555 1_555
H79A C73A 1_555 1_555
C74A C63A 1_555 1_555
H80A C74A 1_555 1_555
H81A C74A 1_555 1_555
C75A C72A 1_555 1_555
H82A C75A 1_555 1_555
H83A C75A 1_555 1_555
C76A C66A 1_555 1_555
H84A C76A 1_555 1_555
H85A C76A 1_555 1_555
H86A C76A 1_555 1_555
C77A C75A 1_555 1_555
H87A C77A 1_555 1_555
H88A C77A 1_555 1_555
H89A C77A 1_555 1_555
C78A C69A 1_555 1_555
H90A C78A 1_555 1_555
H91A C78A 1_555 1_555
C79A C78A 1_555 1_555
H92A C79A 1_555 1_555
H93A C79A 1_555 1_555
H94A C79A 1_555 1_555
C80A C74A 1_555 1_555
H95A C80A 1_555 1_555
H96A C80A 1_555 1_555
H97A C80A 1_555 1_555
C81A C68A 1_555 1_555
H98A C81A 1_555 1_555
H99A C81A 1_555 1_555
C82A C71A 1_555 1_555
H100A C82A 1_555 1_555
H101A C82A 1_555 1_555
H102A C82A 1_555 1_555
C83A C81A 1_555 1_555
H103A C83A 1_555 1_555
H104A C83A 1_555 1_555
H105A C83A 1_555 1_555
C84A C70A 1_555 1_555
H106A C84A 1_555 1_555
H107A C84A 1_555 1_555
H108A C84A 1_555 1_555
N1B C4B 1_555 1_555
N2B C13B 1_555 1_555
N3B C7B 1_555 1_555
N4B C31B 1_555 1_555
C1B C2B 1_555 1_555
C2B C19B 1_555 1_555
C3B C15B 1_555 1_555
C4B H1B 1_555 1_555
C5B C12B 1_555 1_555
C6B C8B 1_555 1_555
C7B H2B 1_555 1_555
C8B C14B 1_555 1_555
C9B C11B 1_555 1_555
C10B C21 1_555 1_555
C11B C22B 1_555 1_555
C12B C36B 1_555 1_555
C13B C4B 1_555 1_555
H3B C13B 1_555 1_555
C14B C10B 1_555 1_555
H4B C14B 1_555 1_555
C15B H5B 1_555 1_555
C16B N2B 1_555 1_555
H6B C16B 1_555 1_555
C17B C18B 1_555 1_555
C18B H7B 1_555 1_555
C19B C17B 1_555 1_555
C20B C16B 1_555 1_555
C21B C10A 1_555 1_555
H8B C21B 1_555 1_555
C22B C34 1_555 1_555
C23B H9B 1_555 1_555
H10B C23B 1_555 1_555
C24B C20B 1_555 1_555
H11B C24B 1_555 1_555
C25B H12B 1_555 1_555
C26B C4B 1_555 1_555
H13B C26B 1_555 1_555
H14B C26B 1_555 1_555
C27B C1B 1_555 1_555
C28B C23B 1_555 1_555
H15B C28B 1_555 1_555
H16B C28B 1_555 1_555
C29B C7B 1_555 1_555
C30B C10B 1_555 1_555
H17B C30B 1_555 1_555
C31B H18B 1_555 1_555
C32B C9B 1_555 1_555
H19B C32B 1_555 1_555
C33B H20B 1_555 1_555
H21B C33B 1_555 1_555
C34B C22A 1_555 1_555
C35B N3B 1_555 1_555
H22B C35B 1_555 1_555
C36B C1B 1_555 1_555
C37B C19B 1_555 1_555
H23B C37B 1_555 1_555
C38B C26B 1_555 1_555
H24B C38B 1_555 1_555
H25B C38B 1_555 1_555
C39B C35B 1_555 1_555
H26B C39B 1_555 1_555
H27B C39B 1_555 1_555
C40B C15B 1_555 1_555
C41B N4B 1_555 1_555
H28B C41B 1_555 1_555
C42B C13B 1_555 1_555
H29B C42B 1_555 1_555
H30B C42B 1_555 1_555
C43B C3B 1_555 1_555
C44B C11B 1_555 1_555
H31B C44B 1_555 1_555
C45B C27B 1_555 1_555
H32B C45B 1_555 1_555
H33B C45B 1_555 1_555
C46B C2B 1_555 1_555
C47B C40B 1_555 1_555
H34B C47B 1_555 1_555
C48B C3B 1_555 1_555
C49B C17B 1_555 1_555
C50B C6B 1_555 1_555
H35B C50B 1_555 1_555
C51B C47B 1_555 1_555
H36B C51B 1_555 1_555
C52B C49B 1_555 1_555
H37B C52B 1_555 1_555
H38B C52B 1_555 1_555
C53B C9B 1_555 1_555
C54B C39B 1_555 1_555
H39B C54B 1_555 1_555
H40B C54B 1_555 1_555
C55B C31B 1_555 1_555
H41B C55B 1_555 1_555
H42B C55B 1_555 1_555
C56B C43B 1_555 1_555
H43B C56B 1_555 1_555
H44B C56B 1_555 1_555
C57B C43B 1_555 1_555
H45B C57B 1_555 1_555
H46B C57B 1_555 1_555
C58B C28B 1_555 1_555
H47B C58B 1_555 1_555
H48B C58B 1_555 1_555
C59B C54B 1_555 1_555
H49B C59B 1_555 1_555
H50B C59B 1_555 1_555
C60B C53B 1_555 1_555
H51B C60B 1_555 1_555
H52B C60B 1_555 1_555
C61B C60B 1_555 1_555
H53B C61B 1_555 1_555
H54B C61B 1_555 1_555
C62B C53B 1_555 1_555
H55B C62B 1_555 1_555
H56B C62B 1_555 1_555
C63B C52B 1_555 1_555
H57B C63B 1_555 1_555
H58B C63B 1_555 1_555
C64B C58B 1_555 1_555
H59B C64B 1_555 1_555
H60B C64B 1_555 1_555
H61B C64B 1_555 1_555
C65B C49B 1_555 1_555
H62B C65B 1_555 1_555
H63B C65B 1_555 1_555
C66B H64B 1_555 1_555
H65B C66B 1_555 1_555
C67B C62B 1_555 1_555
H66B C67B 1_555 1_555
H67B C67B 1_555 1_555
C68B C65B 1_555 1_555
H68B C68B 1_555 1_555
H69B C68B 1_555 1_555
C69B C56B 1_555 1_555
H70B C69B 1_555 1_555
H71B C69B 1_555 1_555
C70B C61B 1_555 1_555
H72B C70B 1_555 1_555
H73B C70B 1_555 1_555
C71B H74B 1_555 1_555
H75B C71B 1_555 1_555
C72B C45B 1_555 1_555
H76B C72B 1_555 1_555
H77B C72B 1_555 1_555
C73B C57B 1_555 1_555
H78B C73B 1_555 1_555
H79B C73B 1_555 1_555
C74B C63B 1_555 1_555
H80B C74B 1_555 1_555
H81B C74B 1_555 1_555
C75B C72B 1_555 1_555
H82B C75B 1_555 1_555
H83B C75B 1_555 1_555
C76B C66B 1_555 1_555
H84B C76B 1_555 1_555
H85B C76B 1_555 1_555
H86B C76B 1_555 1_555
C77B C75B 1_555 1_555
H87B C77B 1_555 1_555
H88B C77B 1_555 1_555
H89B C77B 1_555 1_555
C78B C69B 1_555 1_555
H90B C78B 1_555 1_555
H91B C78B 1_555 1_555
C79B C78B 1_555 1_555
H92B C79B 1_555 1_555
H93B C79B 1_555 1_555
H94B C79B 1_555 1_555
C80B C74B 1_555 1_555
H95B C80B 1_555 1_555
H96B C80B 1_555 1_555
H97B C80B 1_555 1_555
C81B C68B 1_555 1_555
H98B C81B 1_555 1_555
H99B C81B 1_555 1_555
C82B C71B 1_555 1_555
H100B C82B 1_555 1_555
H101B C82B 1_555 1_555
H102B C82B 1_555 1_555
C83B C81B 1_555 1_555
H103B C83B 1_555 1_555
H104B C83B 1_555 1_555
H105B C83B 1_555 1_555
C84B C70B 1_555 1_555
H106B C84B 1_555 1_555
H107B C84B 1_555 1_555
H108B C84B 1_555 1_555
C5 C46 1_555 1_555
C5 C48 1_555 1_555
C6 C36 1_555 1_555
C8 C27 1_555 1_555
C12 C43 1_555 1_555
C18 C20 1_555 1_555
C23 C27 1_555 1_555
C24 C37 1_555 1_555
C25 C29 1_555 1_555
C25 C44 1_555 1_555
C29 C32 1_555 1_555
C30 C50 1_555 1_555
C31 C35 1_555 1_555
C33 C38 1_555 1_555
C33 C42 1_555 1_555
C40 C41 1_555 1_555
C46 C49 1_555 1_555
C48 C51 1_555 1_555
C55 C59 1_555 1_555
C66 C67 1_555 1_555
C71 C73 1_555 1_555
N1A C21A 1_555 1_555
C5A C46A 1_555 1_555
C5A C48A 1_555 1_555
C6A C36A 1_555 1_555
C8A C27A 1_555 1_555
C12A C43A 1_555 1_555
C18A C20A 1_555 1_555
C23A C27A 1_555 1_555
C24A C37A 1_555 1_555
C25A C29A 1_555 1_555
C25A C44A 1_555 1_555
C29A C32A 1_555 1_555
C30A C50A 1_555 1_555
C31A C35A 1_555 1_555
C33A C38A 1_555 1_555
C33A C42A 1_555 1_555
C34A C53A 1_555 1_555
C40A C41A 1_555 1_555
C46A C49A 1_555 1_555
C48A C51A 1_555 1_555
C55A C59A 1_555 1_555
C66A C67A 1_555 1_555
C71A C73A 1_555 1_555
N1B C21B 1_555 1_555
C5B C46B 1_555 1_555
C5B C48B 1_555 1_555
C6B C36B 1_555 1_555
C8B C27B 1_555 1_555
C12B C43B 1_555 1_555
C18B C20B 1_555 1_555
C22B C34B 1_555 1_555
C23B C27B 1_555 1_555
C24B C37B 1_555 1_555
C25B C29B 1_555 1_555
C25B C44B 1_555 1_555
C29B C32B 1_555 1_555
C30B C50B 1_555 1_555
C31B C35B 1_555 1_555
C33B C38B 1_555 1_555
C33B C42B 1_555 1_555
C34B C53B 1_555 1_555
C40B C41B 1_555 1_555
C46B C49B 1_555 1_555
C48B C51B 1_555 1_555
C55B C59B 1_555 1_555
C66B C67B 1_555 1_555
C71B C73B 1_555 1_555

#END
