
#######################################################################
#
#                 Cambridge Crystallographic Data Centre
#                                CCDC 
#
#######################################################################
#
# If this CIF has been generated from an entry in the Cambridge 
# Structural Database, then it will include bibliographic, chemical, 
# crystal, experimental, refinement or atomic coordinate data resulting 
# from the CCDC's data processing and validation procedures.
#
#######################################################################

data_EVIVEM
_chemical_formula_moiety         'C252 H324 N12'
_chemical_name_systematic        
"(CCCA)-2,2':7',2'':7'',2''':12''',12':7''',12:7,12''-hexakis(cyclohexane-1,2-diylbis(iminomethyl))tetrakis(5,5,10,10,15,15-hexabutyl-10,15-dihydro-5H-diindeno[1,2-a:1',2'-c]fluorene) unknown solvate"
_symmetry_cell_setting           rhombohedral
_symmetry_space_group_name_H-M   'R 3'
_symmetry_Int_Tables_number      146
_space_group_name_Hall           'R 3'
loop_
_symmetry_equiv_pos_site_id
_symmetry_equiv_pos_as_xyz
1 x,y,z
2 -y,x-y,z
3 -x+y,-x,z
4 2/3+x,1/3+y,1/3+z
5 2/3-y,1/3+x-y,1/3+z
6 2/3-x+y,1/3-x,1/3+z
7 1/3+x,2/3+y,2/3+z
8 1/3-y,2/3+x-y,2/3+z
9 1/3-x+y,2/3-x,2/3+z
_cell_length_a                   23.2072(6)
_cell_length_b                   23.2072(6)
_cell_length_c                   52.1786(11)
_cell_angle_alpha                90
_cell_angle_beta                 90
_cell_angle_gamma                120
_cell_volume                     24337.1
_exptl_crystal_colour            colorless
_exptl_crystal_description       block
_cell_formula_units_Z            3
loop_
_atom_site_label
_atom_site_type_symbol
_atom_site_fract_x
_atom_site_fract_y
_atom_site_fract_z
N1 N -0.71668(14) -1.03367(14) -0.62569(7)
N2 N -0.62489(15) -1.08007(18) -0.63302(6)
N3 N -0.69475(16) -0.71133(15) -0.38163(6)
N4 N -0.77324(19) -0.7169(2) -0.42516(7)
C1 C -0.73860(17) -1.10238(18) -0.63431(7)
H1 H -0.7503 -1.1324 -0.6191
C2 C -0.7872(2) -0.7402(2) -0.35301(8)
H2 H -0.7669 -0.6932 -0.3476
H3 H -0.7711 -0.7628 -0.3414
C3 C -0.6531(2) -0.84274(19) -0.59087(7)
C4 C -0.7238(2) -1.02762(19) -0.60254(8)
H4 H -0.7421 -1.0662 -0.5920
C5 C -0.79964(17) -1.1262(2) -0.65164(9)
H5 H -0.8358 -1.1249 -0.6420
H6 H -0.7881 -1.0961 -0.6666
C6 C -0.6683(2) -0.90292(17) -0.60322(8)
H7 H -0.6533 -0.9023 -0.6202
C7 C -0.76604(18) -0.74334(19) -0.38044(8)
H8 H -0.7853 -0.7911 -0.3855
C8 C -0.7050(2) -0.9624(2) -0.59051(9)
C9 C -0.59790(18) -0.7238(2) -0.38701(7)
C10 C -0.68361(17) -1.1040(2) -0.64967(7)
H9 H -0.6721 -1.0737 -0.6648
C11 C -0.57448(19) -1.0250(2) -0.63875(7)
H10 H -0.5772 -1.0014 -0.6531
C12 C -0.5519(2) -0.6087(2) -0.59876(8)
C13 C -0.3264(2) -0.6032(2) -0.38759(9)
C14 C -0.5196(3) -0.6052(2) -0.62124(8)
H11 H -0.5196 -0.6434 -0.6278
C15 C -0.8628(2) -0.7737(3) -0.35106(10)
H12 H -0.8757 -0.7698 -0.3333
H13 H -0.8833 -0.8215 -0.3553
C16 C -0.5728(2) -0.7653(2) -0.38638(8)
H14 H -0.6021 -0.8121 -0.3855
C17 C -0.7910(2) -0.7106(2) -0.39864(9)
H15 H -0.7701 -0.6623 -0.3942
C18 C -0.6732(2) -0.8433(2) -0.56654(8)
C19 C -0.5467(3) -0.5501(2) -0.58823(9)
C20 C -0.66959(17) -0.74968(18) -0.38606(6)
H16 H -0.6989 -0.7959 -0.3888
C21 C -0.4839(2) -0.4879(2) -0.62435(9)
C22 C -0.3898(2) -0.6595(2) -0.38779(8)
C23 C -0.5025(2) -0.73928(18) -0.38703(10)
C24 C -0.5522(2) -0.6551(2) -0.38741(9)
H17 H -0.5695 -0.6257 -0.3878
C25 C -0.4618(2) -0.6723(2) -0.38705(8)
C26 C -0.4692(2) -0.7803(2) -0.38644(10)
C27 C -0.7067(2) -1.1740(2) -0.65900(9)
H18 H -0.7164 -1.2039 -0.6441
H19 H -0.6708 -1.1744 -0.6691
C28 C -0.4872(3) -0.5456(2) -0.63415(9)
H20 H -0.4666 -0.5435 -0.6501
C29 C -0.4860(2) -0.6282(2) -0.38731(10)
H21 H -0.4570 -0.5814 -0.3874
C30 C -0.8232(2) -1.1958(2) -0.66075(9)
H22 H -0.8628 -1.2106 -0.6718
H23 H -0.8364 -1.2262 -0.6458
C31 C -0.6649(2) -0.7439(2) -0.53819(7)
C32 C -0.5127(3) -0.4900(2) -0.60190(10)
H24 H -0.5102 -0.4507 -0.5952
C33 C -0.6143(2) -0.7317(2) -0.57984(8)
C34 C -0.7162(3) -0.6630(3) -0.46407(10)
C35 C -0.7376(3) -0.6627(3) -0.43840(11)
H25 H -0.7252 -0.6211 -0.4306
C36 C -0.4772(3) -0.8302(3) -0.31463(13)
H26 H -0.5261 -0.8584 -0.3133
H27 H -0.4588 -0.8601 -0.3173
C37 C -0.7693(2) -1.1994(2) -0.67558(9)
H28 H -0.7587 -1.1721 -0.6913
H29 H -0.7851 -1.2460 -0.6808
C38 C -0.7368(3) -0.7753(3) -0.65066(10)
H30 H -0.7308 -0.8025 -0.6639
H31 H -0.7103 -0.7282 -0.6561
C39 C -0.6997(2) -0.7198(2) -0.49996(7)
C40 C -0.7255(3) -0.7217(3) -0.47519(10)
H32 H -0.7489 -0.7626 -0.4662
C41 C -0.6516(3) -0.7720(2) -0.55949(9)
C42 C -0.6631(3) -0.6605(2) -0.51280(11)
C43 C -0.4870(2) -0.8227(2) -0.36182(11)
H33 H -0.5361 -0.8494 -0.3606
H34 H -0.4704 -0.8544 -0.3637
C44 C -0.8880(3) -0.7399(4) -0.36982(11)
H35 H -0.9371 -0.7625 -0.3690
H36 H -0.8702 -0.6929 -0.3647
C45 C -0.6094(2) -0.77463(19) -0.60205(8)
C46 C -0.7042(3) -0.7792(2) -0.51411(8)
C47 C -0.6044(2) -0.6363(2) -0.55891(8)
C48 C -0.7248(3) -0.9618(2) -0.56615(11)
H37 H -0.7502 -1.0030 -0.5575
C49 C -0.4905(3) -0.8238(3) -0.41060(12)
H38 H -0.4678 -0.8503 -0.4108
H39 H -0.5390 -0.8553 -0.4097
C50 C -0.4613(3) -0.7869(3) -0.33736(12)
H40 H -0.4799 -0.7570 -0.3348
H41 H -0.4124 -0.7586 -0.3387
C51 C -0.5912(2) -0.6646(2) -0.57931(7)
C52 C -0.5799(4) -0.5621(2) -0.56254(10)
C53 C -0.8666(2) -0.7424(3) -0.39694(10)
H42 H -0.8815 -0.7186 -0.4085
H43 H -0.8877 -0.7893 -0.4027
C54 C -0.6400(2) -0.6738(2) -0.53823(7)
C55 C -0.8081(3) -0.7941(3) -0.65038(12)
H44 H -0.8212 -0.7873 -0.6675
H45 H -0.8147 -0.7663 -0.6379
H46 H -0.8353 -0.8410 -0.6455
C56 C -0.7088(3) -0.7831(3) -0.62623(10)
H47 H -0.7371 -0.8293 -0.6201
H48 H -0.7114 -0.7532 -0.6133
C57 C -0.7099(3) -0.9039(2) -0.55339(10)
H49 H -0.7239 -0.9050 -0.5362
C58 C -0.6381(2) -0.7686(2) -0.62758(8)
H50 H -0.6100 -0.7229 -0.6342
H51 H -0.6358 -0.7995 -0.6400
C59 C -0.4519(5) -0.7954(5) -0.29026(19)
H52 H -0.4724 -0.7682 -0.2867
H53 H -0.4035 -0.7667 -0.2913
H54 H -0.4629 -0.8280 -0.2765
C60 C -0.5377(3) -0.7626(2) -0.60486(11)
H55 H -0.5383 -0.7933 -0.6182
H56 H -0.5090 -0.7167 -0.6113
C61 C -0.5292(5) -0.5195(3) -0.54306(12)
H57 H -0.5130 -0.4724 -0.5475
H58 H -0.5519 -0.5278 -0.5263
C62 C -0.6574(5) -0.6023(3) -0.50191(13)
H59 H -0.6367 -0.5614 -0.5111
C63 C -0.6657(4) -0.8058(3) -0.49709(11)
H60 H -0.6883 -0.8194 -0.4803
H61 H -0.6703 -0.8462 -0.5054
C64 C -0.4765(7) -0.5271(5) -0.5401(2)
H62 H -0.4560 -0.5239 -0.5571
H63 H -0.4912 -0.5720 -0.5331
C65 C -0.6816(5) -0.6058(3) -0.47861(13)
H64 H -0.6746 -0.5654 -0.4712
C66 C -0.5904(6) -0.7574(8) -0.4921(2)
H65 H -0.5894 -0.7222 -0.4811
H66 H -0.5768 -0.7830 -0.4809
C67 C -0.4753(5) -0.7855(5) -0.43493(14)
H67 H -0.4276 -0.7515 -0.4358
H68 H -0.5020 -0.7631 -0.4363
C68 C -0.5065(3) -0.7708(4) -0.58200(16)
H69 H -0.5371 -0.8152 -0.5746
H70 H -0.5020 -0.7372 -0.5693
C69 C -0.7758(4) -0.8289(4) -0.51777(19)
H71 H -0.7989 -0.8351 -0.5012
H72 H -0.7795 -0.8720 -0.5224
C70 C -0.6364(4) -0.5462(3) -0.56411(16)
H73 H -0.6167 -0.4974 -0.5655
H74 H -0.6620 -0.5604 -0.5479
C71 C -0.4370(5) -0.7648(7) -0.5854(3)
H75 H -0.4062 -0.7211 -0.5931
H76 H -0.4413 -0.7997 -0.5974
C72 C -0.6860(5) -0.5800(5) -0.5871(2)
H77 H -0.6897 -0.6235 -0.5909
H78 H -0.6679 -0.5517 -0.6026
C73 C -0.8115(5) -0.8121(8) -0.5377(2)
H79 H -0.7887 -0.8022 -0.5545
H80 H -0.8173 -0.7743 -0.5324
C74 C -0.8820(6) -0.8823(8) -0.5381(3)
H81 H -0.8752 -0.9210 -0.5395
H82 H -0.9093 -0.8874 -0.5227
C75 C -0.9128(9) -0.8722(11) -0.5625(5)
H83 H -0.9226 -0.8362 -0.5598
H84 H -0.9540 -0.9134 -0.5666
H85 H -0.8813 -0.8605 -0.5768
C76 C -0.4061(7) -0.7719(10) -0.5596(3)
H86 H -0.3995 -0.7361 -0.5478
H87 H -0.3631 -0.7688 -0.5631
H88 H -0.4363 -0.8150 -0.5517
C77 C -0.4943(9) -0.8384(7) -0.4568(2)
H89 H -0.4655 -0.8140 -0.4715
H90 H -0.5403 -0.8514 -0.4619
C78 C -0.4238(8) -0.4745(8) -0.5220(2)
H91 H -0.4382 -0.4863 -0.5040
H92 H -0.4188 -0.4304 -0.5255
C79 C -0.7621(11) -0.5915(10) -0.5809(5)
H93 H -0.7580 -0.5524 -0.5717
H94 H -0.7859 -0.5963 -0.5972
C80 C -0.8034(7) -0.6569(10) -0.5639(4)
H95 H -0.8076 -0.6956 -0.5731
H96 H -0.8479 -0.6635 -0.5605
H97 H -0.7802 -0.6518 -0.5476
C81 C -0.4549(9) -0.6686(12) -0.5063(6)
H98 H -0.4491 -0.6265 -0.4997
H99 H -0.4323 -0.6609 -0.5229
H100 H -0.4357 -0.6867 -0.4942
C82 C -0.5332(7) -0.7210(12) -0.5099(3)
H101 H -0.5484 -0.6976 -0.5216
H102 H -0.5338 -0.7569 -0.5204
C83 C -0.3554(10) -0.472(2) -0.5261(7)
H103 H -0.3419 -0.4611 -0.5441
H104 H -0.3600 -0.5148 -0.5218
H105 H -0.3216 -0.4371 -0.5151
C84 C -0.492(2) -0.9052(13) -0.4548(7)
H106 H -0.5209 -0.9319 -0.4406
H107 H -0.4467 -0.8950 -0.4517
H108 H -0.5087 -0.9302 -0.4708
N1A N 0.03367(14) -0.68301(20) -0.62569(7)
N2A N 0.08007(18) -0.54482(23) -0.63302(6)
N3A N -0.28867(15) -0.98342(22) -0.38163(6)
N4A N -0.2831(2) -1.05634(28) -0.42516(7)
C1A C 0.10238(18) -0.63622(25) -0.63431(7)
H1A H 0.1324 -0.6179 -0.6191
C2A C -0.2598(2) -1.0470(3) -0.35301(8)
H2A H -0.3068 -1.0737 -0.3476
H3A H -0.2372 -1.0083 -0.3414
C3A C -0.15726(19) -0.81036(28) -0.59087(7)
C4A C 0.02762(19) -0.69618(28) -0.60254(8)
H4A H 0.0662 -0.6759 -0.5920
C5A C 0.1262(2) -0.67344(26) -0.65164(9)
H5A H 0.1249 -0.7109 -0.6420
H6A H 0.0961 -0.6920 -0.6666
C6A C -0.09708(17) -0.76538(26) -0.60322(8)
H7A H -0.0977 -0.7510 -0.6202
C7A C -0.25666(19) -1.02270(26) -0.38044(8)
H8A H -0.2089 -0.9942 -0.3855
C8A C -0.0376(2) -0.7426(3) -0.59051(9)
C9A C -0.2762(2) -0.87410(27) -0.38701(7)
C10A C 0.1040(2) -0.57961(26) -0.64967(7)
H9A H 0.0737 -0.5984 -0.6648
C11A C 0.0250(2) -0.54948(28) -0.63875(7)
H10A H 0.0014 -0.5758 -0.6531
C12A C -0.3913(2) -0.9432(3) -0.59876(8)
C13A C -0.3968(2) -0.7232(3) -0.38759(9)
C14A C -0.3948(2) -0.9144(4) -0.62124(8)
H11A H -0.3566 -0.8762 -0.6278
C15A C -0.2263(3) -1.0891(4) -0.35106(10)
H12A H -0.2302 -1.1059 -0.3333
H13A H -0.1785 -1.0618 -0.3553
C16A C -0.2347(2) -0.8075(3) -0.38638(8)
H14A H -0.1879 -0.7900 -0.3855
C17A C -0.2894(2) -1.0804(3) -0.39864(9)
H15A H -0.3377 -1.1078 -0.3942
C18A C -0.1567(2) -0.8299(3) -0.56654(8)
C19A C -0.4499(2) -0.9966(4) -0.58823(9)
C20A C -0.25032(18) -0.91991(25) -0.38606(6)
H16A H -0.2041 -0.9030 -0.3888
C21A C -0.5121(2) -0.9960(3) -0.62435(9)
C22A C -0.3405(2) -0.7303(3) -0.38779(8)
C23A C -0.26072(18) -0.76322(27) -0.38703(10)
C24A C -0.3449(2) -0.8971(3) -0.38741(9)
H17A H -0.3743 -0.9438 -0.3878
C25A C -0.3277(2) -0.7895(3) -0.38705(8)
C26A C -0.2197(2) -0.6889(3) -0.38644(10)
C27A C 0.1740(2) -0.5327(3) -0.65900(9)
H18A H 0.2039 -0.5125 -0.6441
H19A H 0.1744 -0.4964 -0.6691
C28A C -0.4544(2) -0.9416(4) -0.63415(9)
H20A H -0.4565 -0.9231 -0.6501
C29A C -0.3718(2) -0.8578(3) -0.38731(10)
H21A H -0.4186 -0.8756 -0.3874
C30A C 0.1958(2) -0.6274(3) -0.66075(9)
H22A H 0.2106 -0.6522 -0.6718
H23A H 0.2262 -0.6102 -0.6458
C31A C -0.2561(2) -0.9210(3) -0.53819(7)
C32A C -0.5100(2) -1.0227(4) -0.60190(10)
H24A H -0.5493 -1.0595 -0.5952
C33A C -0.2683(2) -0.8826(3) -0.57984(8)
C34A C -0.3370(3) -1.0532(4) -0.46407(10)
C35A C -0.3373(3) -1.0749(4) -0.43840(11)
H25A H -0.3789 -1.1041 -0.4306
C36A C -0.1698(3) -0.6470(4) -0.31463(13)
H26A H -0.1416 -0.6677 -0.3133
H27A H -0.1399 -0.5987 -0.3173
C37A C 0.1994(2) -0.5699(3) -0.67558(9)
H28A H 0.1721 -0.5866 -0.6913
H29A H 0.2460 -0.5391 -0.6808
C38A C -0.2247(3) -0.9615(4) -0.65066(10)
H30A H -0.1975 -0.9283 -0.6639
H31A H -0.2718 -0.9821 -0.6561
C39A C -0.2802(2) -0.9799(3) -0.49996(7)
C40A C -0.2783(3) -1.0038(4) -0.47519(10)
H32A H -0.2374 -0.9863 -0.4662
C41A C -0.2280(2) -0.8796(4) -0.55949(9)
C42A C -0.3395(2) -1.0026(4) -0.51280(11)
C43A C -0.1773(2) -0.6643(3) -0.36182(11)
H33A H -0.1506 -0.6867 -0.3606
H34A H -0.1456 -0.6160 -0.3637
C44A C -0.2601(4) -1.1481(5) -0.36982(11)
H35A H -0.2375 -1.1746 -0.3690
H36A H -0.3071 -1.1773 -0.3647
C45A C -0.22537(19) -0.83477(28) -0.60205(8)
C46A C -0.2208(2) -0.9250(4) -0.51411(8)
C47A C -0.3637(2) -0.9681(3) -0.55891(8)
C48A C -0.0382(2) -0.7630(4) -0.56615(11)
H37A H 0.0030 -0.7472 -0.5575
C49A C -0.1762(3) -0.6667(4) -0.41060(12)
H38A H -0.1497 -0.6175 -0.4108
H39A H -0.1447 -0.6837 -0.4097
C50A C -0.2131(3) -0.6744(4) -0.33736(12)
H40A H -0.2430 -0.7229 -0.3348
H41A H -0.2414 -0.6538 -0.3387
C51A C -0.3354(2) -0.9266(3) -0.57931(7)
C52A C -0.4379(2) -1.0178(4) -0.56254(10)
C53A C -0.2576(3) -1.1242(4) -0.39694(10)
H42A H -0.2814 -1.1629 -0.4085
H43A H -0.2107 -1.0984 -0.4027
C54A C -0.3262(2) -0.9662(3) -0.53823(7)
C55A C -0.2059(3) -1.0140(4) -0.65038(12)
H44A H -0.2127 -1.0339 -0.6675
H45A H -0.2337 -1.0484 -0.6379
H46A H -0.1590 -0.9943 -0.6455
C56A C -0.2169(3) -0.9257(4) -0.62623(10)
H47A H -0.1707 -0.9078 -0.6201
H48A H -0.2468 -0.9582 -0.6133
C57A C -0.0961(2) -0.8060(4) -0.55339(10)
H49A H -0.0950 -0.8189 -0.5362
C58A C -0.2314(2) -0.8695(3) -0.62758(8)
H50A H -0.2771 -0.8871 -0.6342
H51A H -0.2005 -0.8363 -0.6400
C59A C -0.2046(5) -0.6565(7) -0.29026(19)
H52A H -0.2318 -0.7042 -0.2867
H53A H -0.2333 -0.6368 -0.2913
H54A H -0.1720 -0.6349 -0.2765
C60A C -0.2374(2) -0.7751(4) -0.60486(11)
H55A H -0.2067 -0.7450 -0.6182
H56A H -0.2833 -0.7923 -0.6113
C61A C -0.4805(3) -1.0097(6) -0.54306(12)
H57A H -0.5276 -1.0406 -0.5475
H58A H -0.4722 -1.0241 -0.5263
C62A C -0.3977(3) -1.0551(6) -0.50191(13)
H59A H -0.4386 -1.0753 -0.5111
C63A C -0.1942(3) -0.8599(5) -0.49709(11)
H60A H -0.1806 -0.8689 -0.4803
H61A H -0.1538 -0.8241 -0.5054
C64A C -0.4729(5) -0.9494(9) -0.5401(2)
H62A H -0.4761 -0.9321 -0.5571
H63A H -0.4280 -0.9192 -0.5331
C65A C -0.3942(3) -1.0758(6) -0.47861(13)
H64A H -0.4346 -1.1092 -0.4712
C66A C -0.2426(8) -0.8330(10) -0.4921(2)
H65A H -0.2778 -0.8672 -0.4811
H66A H -0.2170 -0.7938 -0.4809
C67A C -0.2145(5) -0.6898(7) -0.43493(14)
H67A H -0.2485 -0.6761 -0.4358
H68A H -0.2369 -0.7389 -0.4363
C68A C -0.2292(4) -0.7357(5) -0.58200(16)
H69A H -0.1848 -0.7219 -0.5746
H70A H -0.2628 -0.7648 -0.5693
C69A C -0.1711(4) -0.9469(6) -0.51777(19)
H71A H -0.1649 -0.9638 -0.5012
H72A H -0.1280 -0.9075 -0.5224
C70A C -0.4538(3) -1.0902(5) -0.56411(16)
H73A H -0.5026 -1.1193 -0.5655
H74A H -0.4396 -1.1016 -0.5479
C71A C -0.2352(7) -0.6722(9) -0.5854(3)
H75A H -0.2789 -0.6851 -0.5931
H76A H -0.2003 -0.6416 -0.5974
C72A C -0.4200(5) -1.1060(7) -0.5871(2)
H77A H -0.3765 -1.0662 -0.5909
H78A H -0.4483 -1.1162 -0.6026
C73A C -0.1879(8) -0.9994(9) -0.5377(2)
H79A H -0.1978 -0.9865 -0.5545
H80A H -0.2257 -1.0430 -0.5324
C74A C -0.1177(8) -0.9997(10) -0.5381(3)
H81A H -0.0790 -0.9542 -0.5395
H82A H -0.1126 -1.0219 -0.5227
C75A C -0.1278(11) -1.0406(14) -0.5625(5)
H83A H -0.1638 -1.0864 -0.5598
H84A H -0.0866 -1.0406 -0.5666
H85A H -0.1395 -1.0208 -0.5768
C76A C -0.2281(10) -0.6342(12) -0.5596(3)
H86A H -0.2639 -0.6634 -0.5478
H87A H -0.2312 -0.5943 -0.5631
H88A H -0.1850 -0.6213 -0.5517
C77A C -0.1616(7) -0.6559(11) -0.4568(2)
H89A H -0.1860 -0.6515 -0.4715
H90A H -0.1486 -0.6889 -0.4619
C78A C -0.5255(8) -0.9493(11) -0.5220(2)
H91A H -0.5137 -0.9519 -0.5040
H92A H -0.5696 -0.9884 -0.5255
C79A C -0.4085(10) -1.1706(15) -0.5809(5)
H93A H -0.4476 -1.2056 -0.5717
H94A H -0.4037 -1.1896 -0.5972
C80A C -0.3431(10) -1.1465(12) -0.5639(4)
H95A H -0.3044 -1.1120 -0.5731
H96A H -0.3365 -1.1844 -0.5605
H97A H -0.3482 -1.1284 -0.5476
C81A C -0.3314(12) -0.7863(15) -0.5063(6)
H98A H -0.3735 -0.8226 -0.4997
H99A H -0.3391 -0.7714 -0.5229
H100A H -0.3133 -0.7490 -0.4942
C82A C -0.2790(12) -0.8122(14) -0.5099(3)
H101A H -0.3024 -0.8508 -0.5216
H102A H -0.2431 -0.7769 -0.5204
C83A C -0.528(2) -0.8834(22) -0.5261(7)
H103A H -0.5389 -0.8808 -0.5441
H104A H -0.4852 -0.8452 -0.5218
H105A H -0.5629 -0.8845 -0.5151
C84A C -0.0948(13) -0.5868(24) -0.4548(7)
H106A H -0.0681 -0.5890 -0.4406
H107A H -0.1050 -0.5517 -0.4517
H108A H -0.0698 -0.5785 -0.4708
N1B N -0.31699(20) -0.28332(14) -0.62569(7)
N2B N -0.45518(23) -0.37511(15) -0.63302(6)
N3B N -0.01658(22) -0.30525(16) -0.38163(6)
N4B N 0.05634(28) -0.22676(19) -0.42516(7)
C1B C -0.36378(25) -0.26140(17) -0.63431(7)
H1B H -0.3821 -0.2497 -0.6191
C2B C 0.0470(3) -0.2128(2) -0.35301(8)
H2B H 0.0737 -0.2331 -0.3476
H3B H 0.0083 -0.2289 -0.3414
C3B C -0.18964(28) -0.3469(2) -0.59087(7)
C4B C -0.30382(28) -0.2762(2) -0.60254(8)
H4B H -0.3241 -0.2579 -0.5920
C5B C -0.32656(26) -0.20036(17) -0.65164(9)
H5B H -0.2891 -0.1642 -0.6420
H6B H -0.3080 -0.2119 -0.6666
C6B C -0.23462(26) -0.3317(2) -0.60322(8)
H7B H -0.2490 -0.3467 -0.6202
C7B C 0.02270(26) -0.23396(18) -0.38044(8)
H8B H -0.0058 -0.2147 -0.3855
C8B C -0.2574(3) -0.2950(2) -0.59051(9)
C9B C -0.12590(27) -0.40210(18) -0.38701(7)
C10B C -0.42039(26) -0.31639(17) -0.64967(7)
H9B H -0.4016 -0.3279 -0.6648
C11B C -0.45052(28) -0.42552(19) -0.63875(7)
H10B H -0.4242 -0.4228 -0.6531
C12B C -0.0568(3) -0.4481(2) -0.59876(8)
C13B C -0.2768(3) -0.6736(2) -0.38759(9)
C14B C -0.0856(4) -0.4804(3) -0.62124(8)
H11B H -0.1238 -0.4804 -0.6278
C15B C 0.0891(4) -0.1372(2) -0.35106(10)
H12B H 0.1059 -0.1243 -0.3333
H13B H 0.0618 -0.1167 -0.3553
C16B C -0.1925(3) -0.4272(2) -0.38638(8)
H14B H -0.2100 -0.3979 -0.3855
C17B C 0.0804(3) -0.2090(2) -0.39864(9)
H15B H 0.1078 -0.2299 -0.3942
C18B C -0.1701(3) -0.3268(2) -0.56654(8)
C19B C -0.0034(4) -0.4533(3) -0.58823(9)
C20B C -0.08009(25) -0.33041(17) -0.38606(6)
H16B H -0.0970 -0.3011 -0.3888
C21B C -0.0040(3) -0.5161(2) -0.62435(9)
C22B C -0.2697(3) -0.6102(2) -0.38779(8)
C23B C -0.23678(27) -0.4975(2) -0.38703(10)
C24B C -0.1029(3) -0.4478(2) -0.38741(9)
H17B H -0.0562 -0.4305 -0.3878
C25B C -0.2105(3) -0.5382(2) -0.38705(8)
C26B C -0.3111(3) -0.5308(2) -0.38644(10)
C27B C -0.4673(3) -0.2933(2) -0.65900(9)
H18B H -0.4875 -0.2836 -0.6441
H19B H -0.5036 -0.3292 -0.6691
C28B C -0.0584(4) -0.5128(3) -0.63415(9)
H20B H -0.0769 -0.5334 -0.6501
C29B C -0.1422(3) -0.5140(2) -0.38731(10)
H21B H -0.1244 -0.5430 -0.3874
C30B C -0.3726(3) -0.1768(2) -0.66075(9)
H22B H -0.3478 -0.1372 -0.6718
H23B H -0.3898 -0.1636 -0.6458
C31B C -0.0790(3) -0.3351(2) -0.53819(7)
C32B C 0.0227(4) -0.4873(3) -0.60190(10)
H24B H 0.0595 -0.4898 -0.5952
C33B C -0.1174(3) -0.3857(2) -0.57984(8)
C34B C 0.0532(4) -0.2838(3) -0.46407(10)
C35B C 0.0749(4) -0.2624(3) -0.43840(11)
H25B H 0.1041 -0.2748 -0.4306
C36B C -0.3530(4) -0.5228(3) -0.31463(13)
H26B H -0.3323 -0.4739 -0.3133
H27B H -0.4013 -0.5412 -0.3173
C37B C -0.4301(3) -0.2307(2) -0.67558(9)
H28B H -0.4134 -0.2413 -0.6913
H29B H -0.4609 -0.2149 -0.6808
C38B C -0.0385(4) -0.2632(3) -0.65066(10)
H30B H -0.0717 -0.2692 -0.6639
H31B H -0.0179 -0.2897 -0.6561
C39B C -0.0201(3) -0.3003(2) -0.49996(7)
C40B C 0.0038(4) -0.2745(3) -0.47519(10)
H32B H -0.0137 -0.2511 -0.4662
C41B C -0.1204(4) -0.3484(3) -0.55949(9)
C42B C 0.0026(4) -0.3369(3) -0.51280(11)
C43B C -0.3357(3) -0.5130(2) -0.36182(11)
H33B H -0.3133 -0.4639 -0.3606
H34B H -0.3840 -0.5296 -0.3637
C44B C 0.1481(5) -0.1120(3) -0.36982(11)
H35B H 0.1746 -0.0629 -0.3690
H36B H 0.1773 -0.1298 -0.3647
C45B C -0.16523(28) -0.3906(2) -0.60205(8)
C46B C -0.0750(4) -0.2958(3) -0.51411(8)
C47B C -0.0319(3) -0.3956(2) -0.55891(8)
C48B C -0.2370(4) -0.2752(3) -0.56615(11)
H37B H -0.2528 -0.2498 -0.5575
C49B C -0.3333(4) -0.5095(3) -0.41060(12)
H38B H -0.3825 -0.5322 -0.4108
H39B H -0.3163 -0.4610 -0.4097
C50B C -0.3256(4) -0.5387(3) -0.33736(12)
H40B H -0.2771 -0.5201 -0.3348
H41B H -0.3462 -0.5876 -0.3387
C51B C -0.0734(3) -0.4088(2) -0.57931(7)
C52B C 0.0178(4) -0.4201(4) -0.56254(10)
C53B C 0.1242(4) -0.1334(2) -0.39694(10)
H42B H 0.1629 -0.1185 -0.4085
H43B H 0.0984 -0.1123 -0.4027
C54B C -0.0338(3) -0.3600(2) -0.53823(7)
C55B C 0.0140(4) -0.1919(3) -0.65038(12)
H44B H 0.0339 -0.1788 -0.6675
H45B H 0.0484 -0.1853 -0.6379
H46B H -0.0057 -0.1647 -0.6455
C56B C -0.0743(4) -0.2912(3) -0.62623(10)
H47B H -0.0922 -0.2629 -0.6201
H48B H -0.0418 -0.2886 -0.6133
C57B C -0.1940(4) -0.2901(3) -0.55339(10)
H49B H -0.1811 -0.2761 -0.5362
C58B C -0.1305(3) -0.3619(2) -0.62758(8)
H50B H -0.1129 -0.3900 -0.6342
H51B H -0.1637 -0.3642 -0.6400
C59B C -0.3435(7) -0.5481(5) -0.29026(19)
H52B H -0.2958 -0.5276 -0.2867
H53B H -0.3632 -0.5965 -0.2913
H54B H -0.3651 -0.5371 -0.2765
C60B C -0.2249(4) -0.4623(3) -0.60486(11)
H55B H -0.2550 -0.4617 -0.6182
H56B H -0.2077 -0.4910 -0.6113
C61B C 0.0097(6) -0.4708(5) -0.54306(12)
H57B H 0.0406 -0.4870 -0.5475
H58B H 0.0241 -0.4481 -0.5263
C62B C 0.0551(6) -0.3426(5) -0.50191(13)
H59B H 0.0753 -0.3633 -0.5111
C63B C -0.1401(5) -0.3343(4) -0.49709(11)
H60B H -0.1311 -0.3117 -0.4803
H61B H -0.1759 -0.3297 -0.5054
C64B C -0.0506(9) -0.5235(7) -0.5401(2)
H62B H -0.0679 -0.5440 -0.5571
H63B H -0.0808 -0.5088 -0.5331
C65B C 0.0758(6) -0.3184(5) -0.47861(13)
H64B H 0.1092 -0.3254 -0.4712
C66B C -0.1670(10) -0.4096(6) -0.4921(2)
H65B H -0.1328 -0.4106 -0.4811
H66B H -0.2062 -0.4232 -0.4809
C67B C -0.3102(7) -0.5247(5) -0.43493(14)
H67B H -0.3239 -0.5724 -0.4358
H68B H -0.2611 -0.4980 -0.4363
C68B C -0.2643(5) -0.4935(3) -0.58200(16)
H69B H -0.2781 -0.4629 -0.5746
H70B H -0.2352 -0.4980 -0.5693
C69B C -0.0531(6) -0.2242(4) -0.51777(19)
H71B H -0.0362 -0.2011 -0.5012
H72B H -0.0925 -0.2205 -0.5224
C70B C 0.0902(5) -0.3636(4) -0.56411(16)
H73B H 0.1193 -0.3833 -0.5655
H74B H 0.1016 -0.3380 -0.5479
C71B C -0.3278(9) -0.5630(5) -0.5854(3)
H75B H -0.3149 -0.5938 -0.5931
H76B H -0.3584 -0.5587 -0.5974
C72B C 0.1060(7) -0.3140(5) -0.5871(2)
H77B H 0.0662 -0.3103 -0.5909
H78B H 0.1162 -0.3321 -0.6026
C73B C -0.0006(9) -0.1885(5) -0.5377(2)
H79B H -0.0135 -0.2113 -0.5545
H80B H 0.0430 -0.1827 -0.5324
C74B C -0.0003(10) -0.1180(6) -0.5381(3)
H81B H -0.0458 -0.1248 -0.5395
H82B H 0.0219 -0.0907 -0.5227
C75B C 0.0406(14) -0.0872(9) -0.5625(5)
H83B H 0.0864 -0.0774 -0.5598
H84B H 0.0406 -0.0460 -0.5666
H85B H 0.0208 -0.1187 -0.5768
C76B C -0.3658(12) -0.5939(7) -0.5596(3)
H86B H -0.3366 -0.6005 -0.5478
H87B H -0.4057 -0.6369 -0.5631
H88B H -0.3787 -0.5637 -0.5517
C77B C -0.3441(11) -0.5057(9) -0.4568(2)
H89B H -0.3485 -0.5345 -0.4715
H90B H -0.3111 -0.4597 -0.4619
C78B C -0.0507(11) -0.5762(8) -0.5220(2)
H91B H -0.0481 -0.5618 -0.5040
H92B H -0.0116 -0.5812 -0.5255
C79B C 0.1706(15) -0.2379(11) -0.5809(5)
H93B H 0.2056 -0.2420 -0.5717
H94B H 0.1896 -0.2141 -0.5972
C80B C 0.1465(12) -0.1966(7) -0.5639(4)
H95B H 0.1120 -0.1924 -0.5731
H96B H 0.1844 -0.1521 -0.5605
H97B H 0.1284 -0.2198 -0.5476
C81B C -0.2137(15) -0.5451(9) -0.5063(6)
H98B H -0.1774 -0.5509 -0.4997
H99B H -0.2286 -0.5677 -0.5229
H100B H -0.2510 -0.5643 -0.4942
C82B C -0.1878(14) -0.4668(7) -0.5099(3)
H101B H -0.1492 -0.4516 -0.5216
H102B H -0.2231 -0.4662 -0.5204
C83B C -0.1166(22) -0.6446(10) -0.5261(7)
H103B H -0.1192 -0.6581 -0.5441
H104B H -0.1548 -0.6400 -0.5218
H105B H -0.1155 -0.6784 -0.5151
C84B C -0.4132(24) -0.508(2) -0.4548(7)
H106B H -0.4110 -0.4791 -0.4406
H107B H -0.4483 -0.5533 -0.4517
H108B H -0.4215 -0.4913 -0.4708
H109? H -0.7249 -0.6223 -0.5814
H110? H -0.6636 -0.5898 -0.6012
C85? C -0.7093(13) -0.5305(13) -0.5967(6)
H111? H -0.7249 -0.5167 -0.5815
H112? H -0.7487 -0.5563 -0.6078
C86? C -0.6589(9) -0.4633(13) -0.6122(5)
H113? H -0.6135 -0.4462 -0.6058
H114? H -0.6722 -0.4297 -0.6096
H115? H -0.6605 -0.4734 -0.6305
loop_
_geom_bond_atom_site_label_1
_geom_bond_atom_site_label_2
_geom_bond_site_symmetry_1
_geom_bond_site_symmetry_2
N1 C1 1_555 1_555
N2 C10 1_555 1_555
N3 C7 1_555 1_555
N4 C17 1_555 1_555
C1 H1 1_555 1_555
C2 H2 1_555 1_555
H3 C2 1_555 1_555
C3 C6 1_555 1_555
C4 N1 1_555 1_555
H4 C4 1_555 1_555
C5 C1 1_555 1_555
H5 C5 1_555 1_555
H6 C5 1_555 1_555
C6 H7 1_555 1_555
C7 C2 1_555 1_555
H8 C7 1_555 1_555
C8 C4 1_555 1_555
C9 C16 1_555 1_555
C10 C1 1_555 1_555
H9 C10 1_555 1_555
C11 N2 1_555 1_555
H10 C11 1_555 1_555
C12 C14 1_555 1_555
C13 C22 1_555 1_555
C14 H11 1_555 1_555
C15 C2 1_555 1_555
H12 C15 1_555 1_555
H13 C15 1_555 1_555
C16 H14 1_555 1_555
C17 C7 1_555 1_555
H15 C17 1_555 1_555
C18 C3 1_555 1_555
C19 C12 1_555 1_555
C20 N3 1_555 1_555
H16 C20 1_555 1_555
C21 C28 1_555 1_555
C22 C25 1_555 1_555
C23 C16 1_555 1_555
C24 C9 1_555 1_555
H17 C24 1_555 1_555
C25 C23 1_555 1_555
C26 C23 1_555 1_555
C27 C10 1_555 1_555
H18 C27 1_555 1_555
H19 C27 1_555 1_555
C28 C14 1_555 1_555
H20 C28 1_555 1_555
C29 C24 1_555 1_555
H21 C29 1_555 1_555
C30 C5 1_555 1_555
H22 C30 1_555 1_555
H23 C30 1_555 1_555
C31 C41 1_555 1_555
C32 C19 1_555 1_555
H24 C32 1_555 1_555
C33 C41 1_555 1_555
C34 C35 1_555 1_555
C35 N4 1_555 1_555
H25 C35 1_555 1_555
C36 H26 1_555 1_555
H27 C36 1_555 1_555
C37 C27 1_555 1_555
H28 C37 1_555 1_555
H29 C37 1_555 1_555
C38 H30 1_555 1_555
H31 C38 1_555 1_555
C39 C40 1_555 1_555
C40 C34 1_555 1_555
H32 C40 1_555 1_555
C41 C18 1_555 1_555
C42 C39 1_555 1_555
C43 C26 1_555 1_555
H33 C43 1_555 1_555
H34 C43 1_555 1_555
C44 C15 1_555 1_555
H35 C44 1_555 1_555
H36 C44 1_555 1_555
C45 C3 1_555 1_555
C46 C31 1_555 1_555
C47 C51 1_555 1_555
C48 C8 1_555 1_555
H37 C48 1_555 1_555
C49 C26 1_555 1_555
H38 C49 1_555 1_555
H39 C49 1_555 1_555
C50 C36 1_555 1_555
H40 C50 1_555 1_555
H41 C50 1_555 1_555
C51 C12 1_555 1_555
C52 C19 1_555 1_555
C53 C17 1_555 1_555
H42 C53 1_555 1_555
H43 C53 1_555 1_555
C54 C31 1_555 1_555
C55 C38 1_555 1_555
H44 C55 1_555 1_555
H45 C55 1_555 1_555
H46 C55 1_555 1_555
C56 C38 1_555 1_555
H47 C56 1_555 1_555
H48 C56 1_555 1_555
C57 C18 1_555 1_555
H49 C57 1_555 1_555
C58 C45 1_555 1_555
H50 C58 1_555 1_555
H51 C58 1_555 1_555
C59 C36 1_555 1_555
H52 C59 1_555 1_555
H53 C59 1_555 1_555
H54 C59 1_555 1_555
C60 C45 1_555 1_555
H55 C60 1_555 1_555
H56 C60 1_555 1_555
C61 C52 1_555 1_555
H57 C61 1_555 1_555
H58 C61 1_555 1_555
C62 C42 1_555 1_555
H59 C62 1_555 1_555
C63 C46 1_555 1_555
H60 C63 1_555 1_555
H61 C63 1_555 1_555
C64 C61 1_555 1_555
H62 C64 1_555 1_555
H63 C64 1_555 1_555
C65 C34 1_555 1_555
H64 C65 1_555 1_555
C66 C63 1_555 1_555
H65 C66 1_555 1_555
H66 C66 1_555 1_555
C67 C49 1_555 1_555
H67 C67 1_555 1_555
H68 C67 1_555 1_555
C68 C60 1_555 1_555
H69 C68 1_555 1_555
H70 C68 1_555 1_555
C69 C46 1_555 1_555
H71 C69 1_555 1_555
H72 C69 1_555 1_555
C70 C52 1_555 1_555
H73 C70 1_555 1_555
H74 C70 1_555 1_555
C71 C68 1_555 1_555
H75 C71 1_555 1_555
H76 C71 1_555 1_555
C72 C70 1_555 1_555
H77 C72 1_555 1_555
H78 C72 1_555 1_555
C73 C69 1_555 1_555
H79 C73 1_555 1_555
H80 C73 1_555 1_555
C74 C73 1_555 1_555
H81 C74 1_555 1_555
H82 C74 1_555 1_555
C75 C74 1_555 1_555
H83 C75 1_555 1_555
H84 C75 1_555 1_555
H85 C75 1_555 1_555
C76 C71 1_555 1_555
H86 C76 1_555 1_555
H87 C76 1_555 1_555
H88 C76 1_555 1_555
C77 C67 1_555 1_555
H89 C77 1_555 1_555
H90 C77 1_555 1_555
C78 C64 1_555 1_555
H91 C78 1_555 1_555
H92 C78 1_555 1_555
C79 C72 1_555 1_555
H93 C79 1_555 1_555
H94 C79 1_555 1_555
C80 C79 1_555 1_555
H95 C80 1_555 1_555
H96 C80 1_555 1_555
H97 C80 1_555 1_555
C81 H98 1_555 1_555
H99 C81 1_555 1_555
H100 C81 1_555 1_555
C82 C66 1_555 1_555
H101 C82 1_555 1_555
H102 C82 1_555 1_555
C83 C78 1_555 1_555
H103 C83 1_555 1_555
H104 C83 1_555 1_555
H105 C83 1_555 1_555
C84 C77 1_555 1_555
H106 C84 1_555 1_555
H107 C84 1_555 1_555
H108 C84 1_555 1_555
N1A C1A 1_555 1_555
N2A C10A 1_555 1_555
N3A C7A 1_555 1_555
N4A C17A 1_555 1_555
C1A H1A 1_555 1_555
C2A H2A 1_555 1_555
H3A C2A 1_555 1_555
C3A C6A 1_555 1_555
C4A N1A 1_555 1_555
H4A C4A 1_555 1_555
C5A C1A 1_555 1_555
H5A C5A 1_555 1_555
H6A C5A 1_555 1_555
C6A H7A 1_555 1_555
C7A C2A 1_555 1_555
H8A C7A 1_555 1_555
C8A C4A 1_555 1_555
C9A C16A 1_555 1_555
C10A C1A 1_555 1_555
H9A C10A 1_555 1_555
C11A N2A 1_555 1_555
H10A C11A 1_555 1_555
C12A C14A 1_555 1_555
C13A C22 1_555 1_555
C14A H11A 1_555 1_555
C15A C2A 1_555 1_555
H12A C15A 1_555 1_555
H13A C15A 1_555 1_555
C16A H14A 1_555 1_555
C17A C7A 1_555 1_555
H15A C17A 1_555 1_555
C18A C3A 1_555 1_555
C19A C12A 1_555 1_555
C20A N3A 1_555 1_555
H16A C20A 1_555 1_555
C21A C11 1_555 1_555
C22A C13A 1_555 1_555
C23A C16A 1_555 1_555
C24A C9A 1_555 1_555
H17A C24A 1_555 1_555
C25A C22A 1_555 1_555
C26A C23A 1_555 1_555
C27A C10A 1_555 1_555
H18A C27A 1_555 1_555
H19A C27A 1_555 1_555
C28A C14A 1_555 1_555
H20A C28A 1_555 1_555
C29A C24A 1_555 1_555
H21A C29A 1_555 1_555
C30A C5A 1_555 1_555
H22A C30A 1_555 1_555
H23A C30A 1_555 1_555
C31A C41A 1_555 1_555
C32A C19A 1_555 1_555
H24A C32A 1_555 1_555
C33A C41A 1_555 1_555
C34A C35A 1_555 1_555
C35A N4A 1_555 1_555
H25A C35A 1_555 1_555
C36A H26A 1_555 1_555
H27A C36A 1_555 1_555
C37A C27A 1_555 1_555
H28A C37A 1_555 1_555
H29A C37A 1_555 1_555
C38A H30A 1_555 1_555
H31A C38A 1_555 1_555
C39A C40A 1_555 1_555
C40A C34A 1_555 1_555
H32A C40A 1_555 1_555
C41A C18A 1_555 1_555
C42A C39A 1_555 1_555
C43A C26A 1_555 1_555
H33A C43A 1_555 1_555
H34A C43A 1_555 1_555
C44A C15A 1_555 1_555
H35A C44A 1_555 1_555
H36A C44A 1_555 1_555
C45A C3A 1_555 1_555
C46A C31A 1_555 1_555
C47A C51A 1_555 1_555
C48A C8A 1_555 1_555
H37A C48A 1_555 1_555
C49A C26A 1_555 1_555
H38A C49A 1_555 1_555
H39A C49A 1_555 1_555
C50A C36A 1_555 1_555
H40A C50A 1_555 1_555
H41A C50A 1_555 1_555
C51A C12A 1_555 1_555
C52A C19A 1_555 1_555
C53A C17A 1_555 1_555
H42A C53A 1_555 1_555
H43A C53A 1_555 1_555
C54A C31A 1_555 1_555
C55A C38A 1_555 1_555
H44A C55A 1_555 1_555
H45A C55A 1_555 1_555
H46A C55A 1_555 1_555
C56A C38A 1_555 1_555
H47A C56A 1_555 1_555
H48A C56A 1_555 1_555
C57A C18A 1_555 1_555
H49A C57A 1_555 1_555
C58A C45A 1_555 1_555
H50A C58A 1_555 1_555
H51A C58A 1_555 1_555
C59A C36A 1_555 1_555
H52A C59A 1_555 1_555
H53A C59A 1_555 1_555
H54A C59A 1_555 1_555
C60A C45A 1_555 1_555
H55A C60A 1_555 1_555
H56A C60A 1_555 1_555
C61A C52A 1_555 1_555
H57A C61A 1_555 1_555
H58A C61A 1_555 1_555
C62A C42A 1_555 1_555
H59A C62A 1_555 1_555
C63A C46A 1_555 1_555
H60A C63A 1_555 1_555
H61A C63A 1_555 1_555
C64A C61A 1_555 1_555
H62A C64A 1_555 1_555
H63A C64A 1_555 1_555
C65A C34A 1_555 1_555
H64A C65A 1_555 1_555
C66A C63A 1_555 1_555
H65A C66A 1_555 1_555
H66A C66A 1_555 1_555
C67A C49A 1_555 1_555
H67A C67A 1_555 1_555
H68A C67A 1_555 1_555
C68A C60A 1_555 1_555
H69A C68A 1_555 1_555
H70A C68A 1_555 1_555
C69A C46A 1_555 1_555
H71A C69A 1_555 1_555
H72A C69A 1_555 1_555
C70A C52A 1_555 1_555
H73A C70A 1_555 1_555
H74A C70A 1_555 1_555
C71A C68A 1_555 1_555
H75A C71A 1_555 1_555
H76A C71A 1_555 1_555
C72A C70A 1_555 1_555
H77A C72A 1_555 1_555
H78A C72A 1_555 1_555
C73A C69A 1_555 1_555
H79A C73A 1_555 1_555
H80A C73A 1_555 1_555
C74A C73A 1_555 1_555
H81A C74A 1_555 1_555
H82A C74A 1_555 1_555
C75A C74A 1_555 1_555
H83A C75A 1_555 1_555
H84A C75A 1_555 1_555
H85A C75A 1_555 1_555
C76A C71A 1_555 1_555
H86A C76A 1_555 1_555
H87A C76A 1_555 1_555
H88A C76A 1_555 1_555
C77A C67A 1_555 1_555
H89A C77A 1_555 1_555
H90A C77A 1_555 1_555
C78A C64A 1_555 1_555
H91A C78A 1_555 1_555
H92A C78A 1_555 1_555
C79A C72A 1_555 1_555
H93A C79A 1_555 1_555
H94A C79A 1_555 1_555
C80A C79A 1_555 1_555
H95A C80A 1_555 1_555
H96A C80A 1_555 1_555
H97A C80A 1_555 1_555
C81A H98A 1_555 1_555
H99A C81A 1_555 1_555
H100A C81A 1_555 1_555
C82A C66A 1_555 1_555
H101A C82A 1_555 1_555
H102A C82A 1_555 1_555
C83A C78A 1_555 1_555
H103A C83A 1_555 1_555
H104A C83A 1_555 1_555
H105A C83A 1_555 1_555
C84A C77A 1_555 1_555
H106A C84A 1_555 1_555
H107A C84A 1_555 1_555
H108A C84A 1_555 1_555
N1B C1B 1_555 1_555
N2B C10B 1_555 1_555
N3B C7B 1_555 1_555
N4B C17B 1_555 1_555
C1B H1B 1_555 1_555
C2B H2B 1_555 1_555
H3B C2B 1_555 1_555
C3B C6B 1_555 1_555
C4B N1B 1_555 1_555
H4B C4B 1_555 1_555
C5B C1B 1_555 1_555
H5B C5B 1_555 1_555
H6B C5B 1_555 1_555
C6B H7B 1_555 1_555
C7B C2B 1_555 1_555
H8B C7B 1_555 1_555
C8B C4B 1_555 1_555
C9B C16B 1_555 1_555
C10B C1B 1_555 1_555
H9B C10B 1_555 1_555
C11B C21 1_555 1_555
H10B C11B 1_555 1_555
C12B C14B 1_555 1_555
C13B C22A 1_555 1_555
C14B H11B 1_555 1_555
C15B C2B 1_555 1_555
H12B C15B 1_555 1_555
H13B C15B 1_555 1_555
C16B H14B 1_555 1_555
C17B C7B 1_555 1_555
H15B C17B 1_555 1_555
C18B C3B 1_555 1_555
C19B C12B 1_555 1_555
C20B N3B 1_555 1_555
H16B C20B 1_555 1_555
C21B C11A 1_555 1_555
C22B C13 1_555 1_555
C23B C16B 1_555 1_555
C24B C9B 1_555 1_555
H17B C24B 1_555 1_555
C25B C22B 1_555 1_555
C26B C13 1_555 1_555
C27B C10B 1_555 1_555
H18B C27B 1_555 1_555
H19B C27B 1_555 1_555
C28B C14B 1_555 1_555
H20B C28B 1_555 1_555
C29B C24B 1_555 1_555
H21B C29B 1_555 1_555
C30B C5B 1_555 1_555
H22B C30B 1_555 1_555
H23B C30B 1_555 1_555
C31B C41B 1_555 1_555
C32B C19B 1_555 1_555
H24B C32B 1_555 1_555
C33B C41B 1_555 1_555
C34B C35B 1_555 1_555
C35B N4B 1_555 1_555
H25B C35B 1_555 1_555
C36B H26B 1_555 1_555
H27B C36B 1_555 1_555
C37B C27B 1_555 1_555
H28B C37B 1_555 1_555
H29B C37B 1_555 1_555
C38B H30B 1_555 1_555
H31B C38B 1_555 1_555
C39B C40B 1_555 1_555
C40B C34B 1_555 1_555
H32B C40B 1_555 1_555
C41B C18B 1_555 1_555
C42B C39B 1_555 1_555
C43B C26B 1_555 1_555
H33B C43B 1_555 1_555
H34B C43B 1_555 1_555
C44B C15B 1_555 1_555
H35B C44B 1_555 1_555
H36B C44B 1_555 1_555
C45B C3B 1_555 1_555
C46B C31B 1_555 1_555
C47B C51B 1_555 1_555
C48B C8B 1_555 1_555
H37B C48B 1_555 1_555
C49B C26B 1_555 1_555
H38B C49B 1_555 1_555
H39B C49B 1_555 1_555
C50B C36B 1_555 1_555
H40B C50B 1_555 1_555
H41B C50B 1_555 1_555
C51B C12B 1_555 1_555
C52B C19B 1_555 1_555
C53B C17B 1_555 1_555
H42B C53B 1_555 1_555
H43B C53B 1_555 1_555
C54B C31B 1_555 1_555
C55B C38B 1_555 1_555
H44B C55B 1_555 1_555
H45B C55B 1_555 1_555
H46B C55B 1_555 1_555
C56B C38B 1_555 1_555
H47B C56B 1_555 1_555
H48B C56B 1_555 1_555
C57B C18B 1_555 1_555
H49B C57B 1_555 1_555
C58B C45B 1_555 1_555
H50B C58B 1_555 1_555
H51B C58B 1_555 1_555
C59B C36B 1_555 1_555
H52B C59B 1_555 1_555
H53B C59B 1_555 1_555
H54B C59B 1_555 1_555
C60B C45B 1_555 1_555
H55B C60B 1_555 1_555
H56B C60B 1_555 1_555
C61B C52B 1_555 1_555
H57B C61B 1_555 1_555
H58B C61B 1_555 1_555
C62B C42B 1_555 1_555
H59B C62B 1_555 1_555
C63B C46B 1_555 1_555
H60B C63B 1_555 1_555
H61B C63B 1_555 1_555
C64B C61B 1_555 1_555
H62B C64B 1_555 1_555
H63B C64B 1_555 1_555
C65B C34B 1_555 1_555
H64B C65B 1_555 1_555
C66B C63B 1_555 1_555
H65B C66B 1_555 1_555
H66B C66B 1_555 1_555
C67B C49B 1_555 1_555
H67B C67B 1_555 1_555
H68B C67B 1_555 1_555
C68B C60B 1_555 1_555
H69B C68B 1_555 1_555
H70B C68B 1_555 1_555
C69B C46B 1_555 1_555
H71B C69B 1_555 1_555
H72B C69B 1_555 1_555
C70B C52B 1_555 1_555
H73B C70B 1_555 1_555
H74B C70B 1_555 1_555
C71B C68B 1_555 1_555
H75B C71B 1_555 1_555
H76B C71B 1_555 1_555
C72B C70B 1_555 1_555
H77B C72B 1_555 1_555
H78B C72B 1_555 1_555
C73B C69B 1_555 1_555
H79B C73B 1_555 1_555
H80B C73B 1_555 1_555
C74B C73B 1_555 1_555
H81B C74B 1_555 1_555
H82B C74B 1_555 1_555
C75B C74B 1_555 1_555
H83B C75B 1_555 1_555
H84B C75B 1_555 1_555
H85B C75B 1_555 1_555
C76B C71B 1_555 1_555
H86B C76B 1_555 1_555
H87B C76B 1_555 1_555
H88B C76B 1_555 1_555
C77B C67B 1_555 1_555
H89B C77B 1_555 1_555
H90B C77B 1_555 1_555
C78B C64B 1_555 1_555
H91B C78B 1_555 1_555
H92B C78B 1_555 1_555
C79B C72B 1_555 1_555
H93B C79B 1_555 1_555
H94B C79B 1_555 1_555
C80B C79B 1_555 1_555
H95B C80B 1_555 1_555
H96B C80B 1_555 1_555
H97B C80B 1_555 1_555
C81B H98B 1_555 1_555
H99B C81B 1_555 1_555
H100B C81B 1_555 1_555
C82B C66B 1_555 1_555
H101B C82B 1_555 1_555
H102B C82B 1_555 1_555
C83B C78B 1_555 1_555
H103B C83B 1_555 1_555
H104B C83B 1_555 1_555
H105B C83B 1_555 1_555
C84B C77B 1_555 1_555
H106B C84B 1_555 1_555
H107B C84B 1_555 1_555
H108B C84B 1_555 1_555
C6 C8 1_555 1_555
C9 C20 1_555 1_555
C21 C32 1_555 1_555
C25 C29 1_555 1_555
C26 C13A 1_555 1_555
C30 C37 1_555 1_555
C33 C45 1_555 1_555
C33 C51 1_555 1_555
C39 C46 1_555 1_555
C42 C54 1_555 1_555
C43 C50 1_555 1_555
C44 C53 1_555 1_555
C47 C52 1_555 1_555
C47 C54 1_555 1_555
C48 C57 1_555 1_555
C56 C58 1_555 1_555
C62 C65 1_555 1_555
C81 C82 1_555 1_555
C6A C8A 1_555 1_555
C9A C20A 1_555 1_555
C21A C28A 1_555 1_555
C21A C32A 1_555 1_555
C23A C25A 1_555 1_555
C25A C29A 1_555 1_555
C26A C13B 1_555 1_555
C30A C37A 1_555 1_555
C33A C45A 1_555 1_555
C33A C51A 1_555 1_555
C39A C46A 1_555 1_555
C42A C54A 1_555 1_555
C43A C50A 1_555 1_555
C44A C53A 1_555 1_555
C47A C52A 1_555 1_555
C47A C54A 1_555 1_555
C48A C57A 1_555 1_555
C56A C58A 1_555 1_555
C62A C65A 1_555 1_555
C81A C82A 1_555 1_555
N2B C11B 1_555 1_555
C6B C8B 1_555 1_555
C9B C20B 1_555 1_555
C13B C22B 1_555 1_555
C21B C28B 1_555 1_555
C21B C32B 1_555 1_555
C23B C25B 1_555 1_555
C23B C26B 1_555 1_555
C25B C29B 1_555 1_555
C30B C37B 1_555 1_555
C33B C45B 1_555 1_555
C33B C51B 1_555 1_555
C39B C46B 1_555 1_555
C42B C54B 1_555 1_555
C43B C50B 1_555 1_555
C44B C53B 1_555 1_555
C47B C52B 1_555 1_555
C47B C54B 1_555 1_555
C48B C57B 1_555 1_555
C56B C58B 1_555 1_555
C62B C65B 1_555 1_555
C81B C82B 1_555 1_555

#END
