
#######################################################################
#
#                 Cambridge Crystallographic Data Centre
#                                CCDC 
#
#######################################################################
#
# If this CIF has been generated from an entry in the Cambridge 
# Structural Database, then it will include bibliographic, chemical, 
# crystal, experimental, refinement or atomic coordinate data resulting 
# from the CCDC's data processing and validation procedures.
#
#######################################################################

data_EVIVOV
_chemical_formula_moiety         'C30 H52 O4'
_chemical_name_systematic        
(3S,12R,20S,24R)-20,24-Epoxydammarane-3,12,25-triol
_symmetry_cell_setting           orthorhombic
_symmetry_space_group_name_H-M   'P 21 21 21'
_symmetry_Int_Tables_number      19
_space_group_name_Hall           'P 2ac 2ab'
loop_
_symmetry_equiv_pos_site_id
_symmetry_equiv_pos_as_xyz
1 x,y,z
2 1/2-x,-y,1/2+z
3 -x,1/2+y,1/2-z
4 1/2+x,1/2-y,-z
_cell_length_a                   7.6795(14)
_cell_length_b                   13.067(3)
_cell_length_c                   28.084(5)
_cell_angle_alpha                90
_cell_angle_beta                 90
_cell_angle_gamma                90
_cell_volume                     2818.17
_exptl_crystal_colour            colorless
_exptl_crystal_description       block
_cell_formula_units_Z            4
_exptl_crystal_recrystallization_method 'ethyl acetate/petroleum ether'
loop_
_atom_site_label
_atom_site_type_symbol
_atom_site_fract_x
_atom_site_fract_y
_atom_site_fract_z
C1 C 0.4251(4) -0.0332(3) 0.21114(13)
H1 H 0.4198 0.0041 0.1817
H2 H 0.3868 0.0099 0.2367
H3 H 0.3511 -0.0923 0.2092
C2 C 0.6196(5) -0.1359(3) 0.26373(10)
H4 H 0.5505 -0.1960 0.2584
H5 H 0.5759 -0.0998 0.2910
H6 H 0.7384 -0.1554 0.2693
C3 C 0.6101(4) -0.0668(2) 0.22022(10)
C4 C 0.7278(4) 0.0254(3) 0.22727(10)
H7 H 0.6876 0.0642 0.2550
C5 C 0.9203(5) 0.0014(3) 0.23315(15)
H8 H 0.9496 -0.0060 0.2666
H9 H 0.9498 -0.0617 0.2168
C6 C 1.0160(4) 0.0894(3) 0.21188(11)
H10 H 1.1036 0.0655 0.1896
H11 H 1.0729 0.1293 0.2365
C7 C 0.8793(4) 0.1540(2) 0.18612(11)
C8 C 0.8352(5) 0.2515(3) 0.21402(12)
H12 H 0.7426 0.2874 0.1983
H13 H 0.9362 0.2947 0.2156
H14 H 0.7992 0.2335 0.2457
C9 C 0.9254(4) 0.1805(2) 0.13455(10)
H15 H 0.8368 0.2274 0.1222
C10 C 0.9449(3) 0.0904(2) 0.09921(9)
H16 H 0.9894 0.0319 0.1173
C11 C 1.0907(3) 0.1237(2) 0.06455(10)
C12 C 1.2203(4) 0.1710(2) 0.09937(10)
H17 H 1.3044 0.2134 0.0828
H18 H 1.2819 0.1184 0.1170
C13 C 1.1069(4) 0.2358(2) 0.13266(11)
H19 H 1.0944 0.3048 0.1204
H20 H 1.1582 0.2393 0.1642
C14 C 1.0295(4) 0.2132(2) 0.03248(11)
H21 H 0.9573 0.2587 0.0507
H22 H 0.9643 0.1866 0.0061
H23 H 1.1291 0.2498 0.0208
C15 C 1.1547(3) 0.0288(2) 0.03503(9)
C16 C 0.9957(3) -0.0086(2) 0.00506(8)
H24 H 0.9580 0.0524 -0.0124
C17 C 0.8403(3) -0.0340(2) 0.03794(10)
H25 H 0.7410 -0.0521 0.0183
H26 H 0.8700 -0.0935 0.0570
C18 C 0.7877(3) 0.0529(2) 0.07120(10)
H27 H 0.7421 0.1096 0.0521
C19 C 1.2256(3) -0.0554(2) 0.06845(10)
H28 H 1.2910 -0.1042 0.0502
H29 H 1.1301 -0.0893 0.0839
H30 H 1.2997 -0.0250 0.0921
C20 C 1.3025(4) 0.0595(2) 0.00172(10)
H31 H 1.2722 0.1236 -0.0136
H32 H 1.4066 0.0713 0.0205
C21 C 1.3433(3) -0.0191(2) -0.03635(10)
H33 H 1.3851 -0.0815 -0.0215
H34 H 1.4346 0.0067 -0.0569
C22 C 1.1812(4) -0.0429(2) -0.06606(9)
H35 H 1.1364 0.0246 -0.0750
C23 C 1.0341(3) -0.0895(2) -0.03472(9)
C24 C 1.0780(4) -0.1959(2) -0.01420(9)
H36 H 1.0064 -0.2089 0.0132
H37 H 1.1984 -0.1977 -0.0051
H38 H 1.0565 -0.2472 -0.0379
C25 C 0.8724(4) -0.1010(2) -0.06637(10)
H39 H 0.7823 -0.1361 -0.0485
H40 H 0.8289 -0.0334 -0.0744
C26 C 0.9066(4) -0.1596(3) -0.11209(10)
H41 H 0.9409 -0.2291 -0.1044
H42 H 0.8003 -0.1629 -0.1307
C27 C 1.0486(5) -0.1094(3) -0.14150(9)
H43 H 1.0068 -0.0402 -0.1485
C28 C 1.2207(4) -0.0958(2) -0.11462(10)
C29 C 1.3187(4) -0.1977(3) -0.10958(11)
H44 H 1.3576 -0.2201 -0.1404
H45 H 1.2423 -0.2483 -0.0962
H46 H 1.4174 -0.1885 -0.0890
C30 C 1.3365(5) -0.0241(3) -0.14445(11)
H47 H 1.3411 -0.0484 -0.1767
H48 H 1.4519 -0.0230 -0.1313
H49 H 1.2887 0.0438 -0.1439
O1 O 0.6710(4) -0.12800(17) 0.18183(7)
H50 H 0.6729 -0.0937 0.1574
O2 O 0.7239(2) 0.09040(15) 0.18631(6)
O3 O 0.6511(3) 0.01346(19) 0.10025(7)
H51 H 0.6383 0.0504 0.1236
O4 O 1.0687(4) -0.15820(18) -0.18635(7)
H52 H 1.0998 -0.2176 -0.1823
C31? C 0.9203(5) 0.0014(3) 0.23315(15)
H53? H 0.9496 -0.0060 0.2666
H54? H 0.9498 -0.0617 0.2168
loop_
_geom_bond_atom_site_label_1
_geom_bond_atom_site_label_2
_geom_bond_site_symmetry_1
_geom_bond_site_symmetry_2
C1 H1 1_555 1_555
H2 C1 1_555 1_555
H3 C1 1_555 1_555
C2 H4 1_555 1_555
H5 C2 1_555 1_555
H6 C2 1_555 1_555
C3 C1 1_555 1_555
C4 C3 1_555 1_555
H7 C4 1_555 1_555
C5 C4 1_555 1_555
H8 C5 1_555 1_555
H9 C5 1_555 1_555
C6 C5 1_555 1_555
H10 C6 1_555 1_555
H11 C6 1_555 1_555
C7 C6 1_555 1_555
C8 C7 1_555 1_555
H12 C8 1_555 1_555
H13 C8 1_555 1_555
H14 C8 1_555 1_555
C9 C7 1_555 1_555
H15 C9 1_555 1_555
C10 C9 1_555 1_555
H16 C10 1_555 1_555
C11 C10 1_555 1_555
C12 C11 1_555 1_555
H17 C12 1_555 1_555
H18 C12 1_555 1_555
C13 C9 1_555 1_555
H19 C13 1_555 1_555
H20 C13 1_555 1_555
C14 C11 1_555 1_555
H21 C14 1_555 1_555
H22 C14 1_555 1_555
H23 C14 1_555 1_555
C15 C11 1_555 1_555
C16 C15 1_555 1_555
H24 C16 1_555 1_555
C17 C16 1_555 1_555
H25 C17 1_555 1_555
H26 C17 1_555 1_555
C18 C10 1_555 1_555
H27 C18 1_555 1_555
C19 C15 1_555 1_555
H28 C19 1_555 1_555
H29 C19 1_555 1_555
H30 C19 1_555 1_555
C20 C15 1_555 1_555
H31 C20 1_555 1_555
H32 C20 1_555 1_555
C21 C20 1_555 1_555
H33 C21 1_555 1_555
H34 C21 1_555 1_555
C22 C21 1_555 1_555
H35 C22 1_555 1_555
C23 C16 1_555 1_555
C24 C23 1_555 1_555
H36 C24 1_555 1_555
H37 C24 1_555 1_555
H38 C24 1_555 1_555
C25 C23 1_555 1_555
H39 C25 1_555 1_555
H40 C25 1_555 1_555
C26 C25 1_555 1_555
H41 C26 1_555 1_555
H42 C26 1_555 1_555
C27 C26 1_555 1_555
H43 C27 1_555 1_555
C28 C22 1_555 1_555
C29 C28 1_555 1_555
H44 C29 1_555 1_555
H45 C29 1_555 1_555
H46 C29 1_555 1_555
C30 C28 1_555 1_555
H47 C30 1_555 1_555
H48 C30 1_555 1_555
H49 C30 1_555 1_555
O1 C3 1_555 1_555
H50 O1 1_555 1_555
O2 C4 1_555 1_555
O3 C18 1_555 1_555
H51 O3 1_555 1_555
O4 C27 1_555 1_555
H52 O4 1_555 1_555
C2 C3 1_555 1_555
C7 O2 1_555 1_555
C12 C13 1_555 1_555
C17 C18 1_555 1_555
C22 C23 1_555 1_555
C27 C28 1_555 1_555

#END
