
#######################################################################
#
#                 Cambridge Crystallographic Data Centre
#                                CCDC 
#
#######################################################################
#
# If this CIF has been generated from an entry in the Cambridge 
# Structural Database, then it will include bibliographic, chemical, 
# crystal, experimental, refinement or atomic coordinate data resulting 
# from the CCDC's data processing and validation procedures.
#
#######################################################################

data_EVODID
_chemical_name_common            
'Benzyl (1-(2-(2,3-dihydroxybenzylidene)hydrazino)-3-hydroxy-1-oxopropan-2-yl)carbamate dihydrate'
_chemical_formula_moiety         'C18 H19 N3 O6,2(H2 O1)'
_chemical_name_systematic        
"Benzyl N-(1-(N'-[(E)-2,3-dihydroxybenzylidene]hydrazinecarbonyl)-2-hydroxyethyl)carbamate dihydrate"
_symmetry_cell_setting           orthorhombic
_symmetry_space_group_name_H-M   'P 21 21 21'
_symmetry_Int_Tables_number      19
_space_group_name_Hall           'P 2ac 2ab'
loop_
_symmetry_equiv_pos_site_id
_symmetry_equiv_pos_as_xyz
1 x,y,z
2 1/2-x,-y,1/2+z
3 1/2+x,1/2-y,-z
4 -x,1/2+y,1/2-z
_cell_length_a                   4.7570(2)
_cell_length_b                   13.1011(4)
_cell_length_c                   30.5511(9)
_cell_angle_alpha                90
_cell_angle_beta                 90
_cell_angle_gamma                90
_cell_volume                     1904
_exptl_crystal_colour            'pale brown'
_exptl_crystal_description       block
_cell_formula_units_Z            4
_exptl_crystal_recrystallization_method ethanol
loop_
_atom_site_label
_atom_site_type_symbol
_atom_site_fract_x
_atom_site_fract_y
_atom_site_fract_z
O1 O 0.5296(5) 0.14889(15) 0.34576(7)
H1 H 0.435(7) 0.2000(19) 0.3378(10)
O2 O 0.8776(5) 0.00115(16) 0.38088(8)
H2 H 0.719(4) -0.022(3) 0.3735(12)
O3 O 0.0260(5) 0.33623(15) 0.27559(7)
O4 O 0.3510(5) 0.54140(18) 0.23084(7)
H3 H 0.391(10) 0.571(3) 0.2077(11)
O5 O -0.3437(5) 0.58789(16) 0.34957(7)
O6 O -0.0248(5) 0.71487(15) 0.35850(6)
N1 N 0.4021(7) 0.34210(18) 0.34263(8)
N2 N 0.2671(6) 0.42717(19) 0.32640(8)
H4 H 0.337(7) 0.4863(14) 0.3341(10)
N3 N 0.0278(6) 0.60659(19) 0.30326(8)
H5 H 0.172(9) 0.642(2) 0.2984(10)
C1 C 0.7354(7) 0.2756(2) 0.39369(9)
C2 C 0.7133(7) 0.1748(2) 0.37819(10)
C3 C 0.8820(8) 0.0997(2) 0.39619(10)
C4 C 1.0684(8) 0.1236(2) 0.42946(10)
H6 H 1.1846 0.0716 0.4414
C5 C 1.0887(9) 0.2223(2) 0.44573(10)
H7 H 1.2161 0.2376 0.4688
C6 C 0.9210(8) 0.2979(2) 0.42797(9)
H8 H 0.9318 0.3655 0.4391
C7 C 0.5738(8) 0.3584(2) 0.37454(9)
H9 H 0.5949 0.4257 0.3857
C8 C 0.0844(8) 0.4187(2) 0.29279(9)
C9 C -0.0437(8) 0.5184(2) 0.27644(9)
H10 H -0.2529 0.5109 0.2763
C10 C 0.0533(8) 0.5356(3) 0.22979(10)
H11 H -0.0080 0.4785 0.2109
H12 H -0.0269 0.5998 0.2181
C11 C -0.1316(8) 0.6322(2) 0.33806(10)
C12 C -0.1522(9) 0.7377(2) 0.40029(9)
H13 H -0.3592 0.7348 0.3973
H14 H -0.1009 0.8081 0.4090
C13 C -0.0615(8) 0.6646(2) 0.43599(10)
C14 C 0.1605(8) 0.5972(2) 0.43100(10)
H15 H 0.2612 0.5948 0.4042
C15 C 0.2360(8) 0.5330(3) 0.46517(10)
H16 H 0.3859 0.4859 0.4613
C16 C 0.0959(9) 0.5366(3) 0.50491(10)
H17 H 0.1499 0.4931 0.5283
C17 C -0.1231(9) 0.6044(3) 0.50978(11)
H18 H -0.2201 0.6079 0.5369
C18 C -0.2039(8) 0.6676(3) 0.47569(10)
H19 H -0.3573 0.7132 0.4795
O7 O 0.4103(6) 0.91059(18) 0.35680(8)
H20 H 0.248(4) 0.936(3) 0.3598(11)
H21 H 0.416(8) 0.876(2) 0.3336(7)
O8 O 0.5751(6) 0.28389(19) 0.22018(7)
H22 H 0.420(4) 0.282(3) 0.2339(10)
H23 H 0.695(6) 0.303(3) 0.2392(9)
loop_
_geom_bond_atom_site_label_1
_geom_bond_atom_site_label_2
_geom_bond_site_symmetry_1
_geom_bond_site_symmetry_2
O1 H1 1_555 1_555
O2 H2 1_555 1_555
O3 C8 1_555 1_555
O4 H3 1_555 1_555
O5 C11 1_555 1_555
O6 C11 1_555 1_555
N1 N2 1_555 1_555
N2 H4 1_555 1_555
N3 H5 1_555 1_555
C1 C2 1_555 1_555
C2 O1 1_555 1_555
C3 O2 1_555 1_555
C4 C3 1_555 1_555
H6 C4 1_555 1_555
C5 C4 1_555 1_555
H7 C5 1_555 1_555
C6 C1 1_555 1_555
H8 C6 1_555 1_555
C7 N1 1_555 1_555
H9 C7 1_555 1_555
C8 N2 1_555 1_555
C9 N3 1_555 1_555
H10 C9 1_555 1_555
C10 O4 1_555 1_555
H11 C10 1_555 1_555
H12 C10 1_555 1_555
C11 N3 1_555 1_555
C12 O6 1_555 1_555
H13 C12 1_555 1_555
H14 C12 1_555 1_555
C13 C12 1_555 1_555
C14 C13 1_555 1_555
H15 C14 1_555 1_555
C15 C14 1_555 1_555
H16 C15 1_555 1_555
C16 C15 1_555 1_555
H17 C16 1_555 1_555
C17 C16 1_555 1_555
H18 C17 1_555 1_555
C18 C13 1_555 1_555
H19 C18 1_555 1_555
O7 H20 1_555 1_555
H21 O7 1_555 1_555
O8 H22 1_555 1_555
H23 O8 1_555 1_555
C1 C7 1_555 1_555
C2 C3 1_555 1_555
C5 C6 1_555 1_555
C8 C9 1_555 1_555
C9 C10 1_555 1_555
C17 C18 1_555 1_555

#END
