
#######################################################################
#
#                 Cambridge Crystallographic Data Centre
#                                CCDC 
#
#######################################################################
#
# If this CIF has been generated from an entry in the Cambridge 
# Structural Database, then it will include bibliographic, chemical, 
# crystal, experimental, refinement or atomic coordinate data resulting 
# from the CCDC's data processing and validation procedures.
#
#######################################################################

data_EVOLUX
_chemical_name_common            
'3-hydroxy-4-(3-hydroxyphenyl)-2-quinolone monohydrate'
_chemical_formula_moiety         'C15 H11 N1 O3,H2 O1'
_chemical_name_systematic        
'3-hydroxy-4-(3-hydroxyphenyl)-1H-quinolin-2-one monohydrate'
_symmetry_cell_setting           triclinic
_symmetry_space_group_name_H-M   'P -1'
_symmetry_Int_Tables_number      2
_space_group_name_Hall           '-P 1'
loop_
_symmetry_equiv_pos_site_id
_symmetry_equiv_pos_as_xyz
1 x,y,z
2 -x,-y,-z
_cell_length_a                   6.9845(5)
_cell_length_b                   10.0632(7)
_cell_length_c                   10.3361(6)
_cell_angle_alpha                109.204(6)
_cell_angle_beta                 103.251(5)
_cell_angle_gamma                101.015(6)
_cell_volume                     639.121
_exptl_crystal_colour            colorless
_exptl_crystal_description       block
_cell_formula_units_Z            2
loop_
_atom_site_label
_atom_site_type_symbol
_atom_site_fract_x
_atom_site_fract_y
_atom_site_fract_z
C1 C 1.0143(2) 0.24292(15) 0.66031(14)
C2 C 0.9196(2) 0.30457(16) 0.75933(15)
H1 H 0.8371 0.3630 0.7413
C3 C 0.9479(2) 0.27913(17) 0.88547(15)
C4 C 1.0709(3) 0.19305(19) 0.91275(17)
H2 H 1.0906 0.1766 0.9976
C5 C 1.1646(3) 0.1315(2) 0.81423(18)
H3 H 1.2471 0.0732 0.8328
C6 C 1.1371(3) 0.15549(18) 0.68768(17)
H4 H 1.2004 0.1133 0.6213
C7 C 0.9865(2) 0.27142(15) 0.52515(14)
C8 C 1.1501(2) 0.34609(16) 0.50295(15)
C9 C 1.1342(2) 0.37555(17) 0.37236(16)
C10 C 0.7706(2) 0.24388(16) 0.28851(15)
C11 C 0.5843(3) 0.18891(19) 0.17754(17)
H5 H 0.5750 0.2066 0.0938
C12 C 0.4149(3) 0.1087(2) 0.19222(19)
H6 H 0.2913 0.0699 0.1171
C13 C 0.4255(3) 0.0846(2) 0.31846(19)
H7 H 0.3088 0.0321 0.3285
C14 C 0.6089(2) 0.13873(17) 0.42801(17)
H8 H 0.6150 0.1220 0.5119
C15 C 0.7871(2) 0.21856(15) 0.41627(14)
N1 N 0.94503(19) 0.32206(14) 0.27371(13)
H9 H 0.9317 0.3377 0.1956
O1 O 0.8573(2) 0.33744(15) 0.98597(12)
H10 H 0.8083 0.3993 0.9673
O2 O 1.33807(17) 0.39862(15) 0.60257(12)
H11 H 1.4195 0.4438 0.5749
O3 O 1.28439(17) 0.44529(14) 0.35328(12)
O4 O 0.5902(2) 0.4697(2) 0.88892(15)
H12 H 0.4875 0.4143 0.8981
H13 H 0.5456 0.4629 0.8014
loop_
_geom_bond_atom_site_label_1
_geom_bond_atom_site_label_2
_geom_bond_site_symmetry_1
_geom_bond_site_symmetry_2
C1 C2 1_555 1_555
C2 H1 1_555 1_555
C3 C2 1_555 1_555
C4 C3 1_555 1_555
H2 C4 1_555 1_555
C5 C4 1_555 1_555
H3 C5 1_555 1_555
C6 C1 1_555 1_555
H4 C6 1_555 1_555
C7 C1 1_555 1_555
C8 C7 1_555 1_555
C9 C8 1_555 1_555
C10 C11 1_555 1_555
C11 H5 1_555 1_555
C12 C11 1_555 1_555
H6 C12 1_555 1_555
C13 C12 1_555 1_555
H7 C13 1_555 1_555
C14 C13 1_555 1_555
H8 C14 1_555 1_555
C15 C7 1_555 1_555
N1 C9 1_555 1_555
H9 N1 1_555 1_555
O1 C3 1_555 1_555
H10 O1 1_555 1_555
O2 C8 1_555 1_555
H11 O2 1_555 1_555
O3 C9 1_555 1_555
O4 H12 1_555 1_555
H13 O4 1_555 1_555
C5 C6 1_555 1_555
C10 C15 1_555 1_555
C10 N1 1_555 1_555
C14 C15 1_555 1_555

#END
