
#######################################################################
#
#                 Cambridge Crystallographic Data Centre
#                                CCDC 
#
#######################################################################
#
# If this CIF has been generated from an entry in the Cambridge 
# Structural Database, then it will include bibliographic, chemical, 
# crystal, experimental, refinement or atomic coordinate data resulting 
# from the CCDC's data processing and validation procedures.
#
#######################################################################

data_EVONEJ
_chemical_formula_moiety         'C13 H9 Br1 Cl1 N1'
_chemical_name_systematic        (E)-4-Bromo-N-(2-chlorobenzylidene)aniline
_symmetry_cell_setting           monoclinic
_symmetry_space_group_name_H-M   'P 21/n'
_symmetry_Int_Tables_number      14
_space_group_name_Hall           '-P 2yn'
loop_
_symmetry_equiv_pos_site_id
_symmetry_equiv_pos_as_xyz
1 x,y,z
2 1/2-x,1/2+y,1/2-z
3 -x,-y,-z
4 1/2+x,1/2-y,1/2+z
_cell_length_a                   15.243(13)
_cell_length_b                   4.020(4)
_cell_length_c                   20.142(18)
_cell_angle_alpha                90
_cell_angle_beta                 103.248(8)
_cell_angle_gamma                90
_cell_volume                     1201.39
_exptl_crystal_colour            colorless
_exptl_crystal_description       block
_cell_formula_units_Z            4
loop_
_atom_site_label
_atom_site_type_symbol
_atom_site_fract_x
_atom_site_fract_y
_atom_site_fract_z
Br1 Br 0.28006(4) 0.71850(15) 1.03703(3)
C1 C 0.4330(3) 0.6328(11) 0.8929(2)
H1 H 0.4917 0.6854 0.8906
C2 C 0.4042(3) 0.6997(11) 0.9513(2)
H2 H 0.4431 0.8014 0.9880
C3 C 0.3186(3) 0.6179(11) 0.9560(2)
C4 C 0.2584(3) 0.4713(12) 0.9009(2)
H3 H 0.2003 0.4154 0.9041
C5 C 0.2870(3) 0.4110(12) 0.8416(2)
H4 H 0.2469 0.3189 0.8042
C6 C 0.3744(3) 0.4854(11) 0.8366(2)
C7 C 0.4763(3) 0.2977(10) 0.7752(2)
H5 H 0.5136 0.2425 0.8171
C8 C 0.5086(3) 0.2397(10) 0.7133(2)
C9 C 0.4571(3) 0.3496(11) 0.6495(2)
H6 H 0.4020 0.4532 0.6473
C10 C 0.4871(4) 0.3061(12) 0.5909(3)
H7 H 0.4520 0.3800 0.5495
C11 C 0.5684(4) 0.1546(13) 0.5928(3)
H8 H 0.5886 0.1297 0.5528
C12 C 0.6206(3) 0.0384(12) 0.6542(2)
H9 H 0.6753 -0.0670 0.6557
C13 C 0.5897(3) 0.0821(11) 0.7133(2)
Cl1 Cl 0.65673(8) -0.0722(3) 0.78942(6)
N1 N 0.3988(2) 0.4211(9) 0.77412(18)
loop_
_geom_bond_atom_site_label_1
_geom_bond_atom_site_label_2
_geom_bond_site_symmetry_1
_geom_bond_site_symmetry_2
Br1 C3 1_555 1_555
C1 H1 1_555 1_555
C2 C1 1_555 1_555
H2 C2 1_555 1_555
C3 C2 1_555 1_555
C4 C3 1_555 1_555
H3 C4 1_555 1_555
C5 C4 1_555 1_555
H4 C5 1_555 1_555
C6 C1 1_555 1_555
C7 H5 1_555 1_555
C8 C7 1_555 1_555
C9 C8 1_555 1_555
H6 C9 1_555 1_555
C10 C9 1_555 1_555
H7 C10 1_555 1_555
C11 C10 1_555 1_555
H8 C11 1_555 1_555
C12 C11 1_555 1_555
H9 C12 1_555 1_555
C13 C8 1_555 1_555
Cl1 C13 1_555 1_555
N1 C6 1_555 1_555
C5 C6 1_555 1_555
C7 N1 1_555 1_555
C12 C13 1_555 1_555

#END
