
#######################################################################
#
#                 Cambridge Crystallographic Data Centre
#                                CCDC 
#
#######################################################################
#
# If this CIF has been generated from an entry in the Cambridge 
# Structural Database, then it will include bibliographic, chemical, 
# crystal, experimental, refinement or atomic coordinate data resulting 
# from the CCDC's data processing and validation procedures.
#
#######################################################################

data_EVOQOW
_chemical_formula_moiety         'C16 H15 N3 O3'
_chemical_name_systematic        
exo-4-(1H-Benzimidazol-2-ylmethyl)-10-oxa-4-azatricyclo[5.2.1.0^2,6^]decane-3,5-dione
_symmetry_cell_setting           orthorhombic
_symmetry_space_group_name_H-M   'F d d 2'
_symmetry_Int_Tables_number      43
_space_group_name_Hall           'F 2 -2d'
loop_
_symmetry_equiv_pos_site_id
_symmetry_equiv_pos_as_xyz
1 x,y,z
2 -x,-y,z
3 1/4+x,1/4-y,1/4+z
4 1/4-x,1/4+y,1/4+z
5 x,1/2+y,1/2+z
6 -x,1/2-y,1/2+z
7 1/4+x,3/4-y,3/4+z
8 1/4-x,3/4+y,3/4+z
9 1/2+x,y,1/2+z
10 1/2-x,-y,1/2+z
11 3/4+x,1/4-y,3/4+z
12 3/4-x,1/4+y,3/4+z
13 1/2+x,1/2+y,z
14 1/2-x,1/2-y,z
15 3/4+x,3/4-y,1/4+z
16 3/4-x,3/4+y,1/4+z
_cell_length_a                   17.4294(2)
_cell_length_b                   48.2746(6)
_cell_length_c                   6.79470(10)
_cell_angle_alpha                90
_cell_angle_beta                 90
_cell_angle_gamma                90
_cell_volume                     5717.04
_exptl_crystal_colour            colorless
_exptl_crystal_description       block
_cell_formula_units_Z            16
loop_
_atom_site_label
_atom_site_type_symbol
_atom_site_fract_x
_atom_site_fract_y
_atom_site_fract_z
N1 N -0.06276(8) 0.10833(3) 0.2792(3)
N2 N 0.04528(8) 0.11596(3) 0.4450(3)
H1 H 0.0893 0.1229 0.4740
N3 N -0.02809(8) 0.16452(3) 0.1037(3)
O1 O -0.07386(9) 0.14915(3) -0.1930(3)
O2 O -0.00312(11) 0.18963(4) 0.3811(3)
O3 O -0.02560(7) 0.22474(3) -0.0973(2)
C1 C -0.07375(10) 0.16595(3) -0.0624(3)
C2 C -0.12089(10) 0.19215(3) -0.0513(3)
H2 H -0.1761 0.1887 -0.0634
C3 C -0.09207(12) 0.21403(4) -0.1970(3)
H3 H -0.0813 0.2068 -0.3288
C4 C -0.14630(14) 0.23883(4) -0.1956(5)
H4 H -0.1995 0.2330 -0.2016
H5 H -0.1357 0.2513 -0.3041
C5 C -0.12741(14) 0.25219(4) 0.0024(4)
H6 H -0.1088 0.2710 -0.0139
H7 H -0.1716 0.2523 0.0892
C6 C -0.06469(12) 0.23307(4) 0.0784(4)
H8 H -0.0311 0.2417 0.1763
C7 C -0.09930(11) 0.20533(4) 0.1463(3)
H9 H -0.1434 0.2077 0.2341
C8 C -0.03878(12) 0.18644(4) 0.2306(3)
C9 C 0.02831(10) 0.14281(4) 0.1375(4)
H10 H 0.0760 0.1511 0.1814
H11 H 0.0384 0.1333 0.0145
C10 C 0.00198(10) 0.12236(3) 0.2871(3)
C11 C -0.06167(9) 0.09153(3) 0.4452(3)
C12 C -0.11496(11) 0.07221(4) 0.5106(3)
H12 H -0.1597 0.0687 0.4402
C13 C -0.09925(12) 0.05847(4) 0.6828(4)
H13 H -0.1339 0.0453 0.7288
C14 C -0.03280(13) 0.06372(5) 0.7903(4)
H14 H -0.0247 0.0543 0.9078
C15 C 0.02144(11) 0.08263(4) 0.7270(3)
H15 H 0.0660 0.0861 0.7984
C16 C 0.00597(10) 0.09617(3) 0.5518(3)
loop_
_geom_bond_atom_site_label_1
_geom_bond_atom_site_label_2
_geom_bond_site_symmetry_1
_geom_bond_site_symmetry_2
N1 C10 1_555 1_555
N2 H1 1_555 1_555
N3 C1 1_555 1_555
O1 C1 1_555 1_555
O2 C8 1_555 1_555
O3 C3 1_555 1_555
C1 C2 1_555 1_555
C2 H2 1_555 1_555
C3 C2 1_555 1_555
H3 C3 1_555 1_555
C4 C3 1_555 1_555
H4 C4 1_555 1_555
H5 C4 1_555 1_555
C5 C4 1_555 1_555
H6 C5 1_555 1_555
H7 C5 1_555 1_555
C6 O3 1_555 1_555
H8 C6 1_555 1_555
C7 C2 1_555 1_555
H9 C7 1_555 1_555
C8 N3 1_555 1_555
C9 N3 1_555 1_555
H10 C9 1_555 1_555
H11 C9 1_555 1_555
C10 N2 1_555 1_555
C11 N1 1_555 1_555
C12 C11 1_555 1_555
H12 C12 1_555 1_555
C13 C12 1_555 1_555
H13 C13 1_555 1_555
C14 C13 1_555 1_555
H14 C14 1_555 1_555
C15 C14 1_555 1_555
H15 C15 1_555 1_555
C16 N2 1_555 1_555
C5 C6 1_555 1_555
C6 C7 1_555 1_555
C7 C8 1_555 1_555
C9 C10 1_555 1_555
C11 C16 1_555 1_555
C15 C16 1_555 1_555

#END
