
#######################################################################
#
#                 Cambridge Crystallographic Data Centre
#                                CCDC 
#
#######################################################################
#
# If this CIF has been generated from an entry in the Cambridge 
# Structural Database, then it will include bibliographic, chemical, 
# crystal, experimental, refinement or atomic coordinate data resulting 
# from the CCDC's data processing and validation procedures.
#
#######################################################################

data_EVOSAL
_chemical_formula_moiety         'C20 H22 N3 O1 1+,C6 H2 N3 O7 1-'
_chemical_name_systematic        
'(4-(diethylamino)-2-hydroxyphenyl)-N-(quinolin-8-yl)methaniminium 2,4,6-trinitrophenolate'
_symmetry_cell_setting           triclinic
_symmetry_space_group_name_H-M   'P -1'
_symmetry_Int_Tables_number      2
_space_group_name_Hall           '-P 1'
loop_
_symmetry_equiv_pos_site_id
_symmetry_equiv_pos_as_xyz
1 x,y,z
2 -x,-y,-z
_cell_length_a                   8.3786(11)
_cell_length_b                   9.6457(11)
_cell_length_c                   16.423(2)
_cell_angle_alpha                77.537(11)
_cell_angle_beta                 85.353(11)
_cell_angle_gamma                72.422(11)
_cell_volume                     1235.3
_exptl_crystal_colour            'dark red'
_exptl_crystal_description       block
_cell_formula_units_Z            2
loop_
_atom_site_label
_atom_site_type_symbol
_atom_site_fract_x
_atom_site_fract_y
_atom_site_fract_z
O1 O 0.6225(3) 0.4566(2) 0.23670(13)
H1 H 0.5679 0.3995 0.2574
N1 N 0.9363(3) 0.3129(3) 0.07557(15)
N2 N 0.9169(3) 0.4989(3) 0.17582(15)
H2 H 0.843(4) 0.450(3) 0.1699(18)
N3 N 0.3695(3) 0.6879(3) 0.46410(15)
C1 C 0.9447(4) 0.2194(3) 0.02577(19)
H3 H 0.8498 0.1908 0.0214
C2 C 1.0873(5) 0.1612(4) -0.0205(2)
H4 H 1.0859 0.0958 -0.0543
C3 C 1.2281(4) 0.2011(3) -0.0156(2)
H5 H 1.3243 0.1618 -0.0455
C4 C 1.2275(4) 0.3018(3) 0.03475(18)
C5 C 1.3667(4) 0.3527(4) 0.0424(2)
H6 H 1.4665 0.3182 0.0139
C6 C 1.3528(4) 0.4530(4) 0.09218(19)
H7 H 1.4436 0.4874 0.0962
C7 C 1.2050(4) 0.5051(3) 0.13720(18)
H8 H 1.1992 0.5723 0.1711
C8 C 1.0697(4) 0.4571(3) 0.13125(18)
C9 C 1.0773(4) 0.3550(3) 0.07935(17)
C10 C 0.8750(4) 0.6005(3) 0.22217(17)
H9 H 0.9476 0.6574 0.2204
C11 C 0.7332(3) 0.6318(3) 0.27370(17)
C12 C 0.6080(3) 0.5554(3) 0.28537(18)
C13 C 0.4823(3) 0.5812(3) 0.34408(17)
H10 H 0.3986 0.5349 0.3480
C14 C 0.4783(3) 0.6777(3) 0.39894(18)
C15 C 0.5990(4) 0.7586(3) 0.38474(18)
H11 H 0.5951 0.8276 0.4172
C16 C 0.7184(4) 0.7358(3) 0.32482(18)
H12 H 0.7943 0.7909 0.3168
C17 C 0.2414(4) 0.6082(4) 0.4776(2)
H13 H 0.2079 0.5950 0.5360
H14 H 0.2905 0.5103 0.4648
C18 C 0.0878(4) 0.6874(4) 0.4253(2)
H15 H 0.1201 0.7028 0.3674
H16 H 0.0339 0.7816 0.4404
H17 H 0.0117 0.6282 0.4349
C19 C 0.3750(4) 0.7763(3) 0.52646(19)
H18 H 0.4910 0.7673 0.5354
H19 H 0.3291 0.7348 0.5789
C20 C 0.2807(5) 0.9380(4) 0.5022(2)
H20 H 0.3306 0.9821 0.4526
H21 H 0.2853 0.9872 0.5466
H22 H 0.1661 0.9483 0.4920
O2 O 1.0853(3) -0.1465(3) 0.21002(16)
O3 O 1.3113(3) -0.1875(3) 0.13247(16)
O4 O 1.7238(3) 0.0527(3) 0.14778(18)
O5 O 1.7311(3) 0.1202(3) 0.26448(19)
O6 O 1.4199(3) 0.2996(2) 0.29731(13)
O7 O 1.1281(4) 0.3529(5) 0.3737(3)
O8 O 0.9603(3) 0.2459(4) 0.3592(2)
N4 N 1.2190(4) -0.1227(3) 0.18356(17)
N5 N 1.6570(3) 0.0918(3) 0.21194(19)
N6 N 1.0956(3) 0.2623(3) 0.34644(16)
C21 C 1.2137(3) 0.1755(3) 0.29379(17)
C22 C 1.1616(4) 0.0730(3) 0.26463(18)
H23 H 1.0553 0.0626 0.2780
C23 C 1.2702(4) -0.0143(3) 0.21505(18)
C24 C 1.4299(4) -0.0032(3) 0.19682(18)
H24 H 1.5018 -0.0628 0.1635
C25 C 1.4817(3) 0.0957(3) 0.22797(18)
C26 C 1.3772(3) 0.1993(3) 0.27550(17)
loop_
_geom_bond_atom_site_label_1
_geom_bond_atom_site_label_2
_geom_bond_site_symmetry_1
_geom_bond_site_symmetry_2
O1 H1 1_555 1_555
N1 C1 1_555 1_555
N2 H2 1_555 1_555
N3 C14 1_555 1_555
C1 H3 1_555 1_555
C2 C1 1_555 1_555
H4 C2 1_555 1_555
C3 C2 1_555 1_555
H5 C3 1_555 1_555
C4 C3 1_555 1_555
C5 C4 1_555 1_555
H6 C5 1_555 1_555
C6 C5 1_555 1_555
H7 C6 1_555 1_555
C7 C6 1_555 1_555
H8 C7 1_555 1_555
C8 N2 1_555 1_555
C9 N1 1_555 1_555
C10 N2 1_555 1_555
H9 C10 1_555 1_555
C11 C10 1_555 1_555
C12 O1 1_555 1_555
C13 C12 1_555 1_555
H10 C13 1_555 1_555
C14 C13 1_555 1_555
C15 C14 1_555 1_555
H11 C15 1_555 1_555
C16 C11 1_555 1_555
H12 C16 1_555 1_555
C17 N3 1_555 1_555
H13 C17 1_555 1_555
H14 C17 1_555 1_555
C18 C17 1_555 1_555
H15 C18 1_555 1_555
H16 C18 1_555 1_555
H17 C18 1_555 1_555
C19 N3 1_555 1_555
H18 C19 1_555 1_555
H19 C19 1_555 1_555
C20 C19 1_555 1_555
H20 C20 1_555 1_555
H21 C20 1_555 1_555
H22 C20 1_555 1_555
O2 N4 1_555 1_555
O3 N4 1_555 1_555
O4 N5 1_555 1_555
O5 N5 1_555 1_555
O6 C26 1_555 1_555
O7 N6 1_555 1_555
O8 N6 1_555 1_555
N4 C23 1_555 1_555
N5 C25 1_555 1_555
N6 C21 1_555 1_555
C21 C22 1_555 1_555
C22 H23 1_555 1_555
C23 C22 1_555 1_555
C24 C23 1_555 1_555
H24 C24 1_555 1_555
C25 C24 1_555 1_555
C26 C21 1_555 1_555
C4 C9 1_555 1_555
C7 C8 1_555 1_555
C8 C9 1_555 1_555
C11 C12 1_555 1_555
C15 C16 1_555 1_555
C25 C26 1_555 1_555

#END
