
#######################################################################
#
#                 Cambridge Crystallographic Data Centre
#                                CCDC 
#
#######################################################################
#
# If this CIF has been generated from an entry in the Cambridge 
# Structural Database, then it will include bibliographic, chemical, 
# crystal, experimental, refinement or atomic coordinate data resulting 
# from the CCDC's data processing and validation procedures.
#
#######################################################################

data_EVOVIW01
_chemical_formula_moiety         'C19 H14 N2'
_chemical_name_systematic        1,3-diphenylimidazo[1,5-a]pyridine
_symmetry_cell_setting           orthorhombic
_symmetry_space_group_name_H-M   'C m c 21'
_symmetry_Int_Tables_number      36
_space_group_name_Hall           'C 2n -2'
loop_
_symmetry_equiv_pos_site_id
_symmetry_equiv_pos_as_xyz
1 x,y,z
2 -x,-y,1/2+z
3 x,-y,1/2+z
4 -x,y,z
5 1/2+x,1/2+y,z
6 1/2-x,1/2-y,1/2+z
7 1/2+x,1/2-y,1/2+z
8 1/2-x,1/2+y,z
_cell_length_a                   23.8510(10)
_cell_length_b                   7.4217(4)
_cell_length_c                   7.8859(4)
_cell_angle_alpha                90
_cell_angle_beta                 90
_cell_angle_gamma                90
_cell_volume                     1395.92
_exptl_crystal_colour            yellow
_exptl_crystal_description       prism
_chemical_melting_point          '383-384 K'
_cell_formula_units_Z            4
_exptl_crystal_recrystallization_method 'Re-crystallisation from solvent'
loop_
_atom_site_label
_atom_site_type_symbol
_atom_site_fract_x
_atom_site_fract_y
_atom_site_fract_z
C1 C 0.61620(9) 0.1401(3) 0.2032(4)
H1 H 0.5891 0.0638 0.1580
C2 C 0.66918(10) 0.1445(4) 0.1319(4)
H2 H 0.6775 0.0710 0.0397
C3 C 0.70984(10) 0.2581(4) 0.1974(5)
H3 H 0.7455 0.2614 0.1497
C4 C 0.69697(9) 0.3657(4) 0.3334(4)
H4 H 0.7243 0.4418 0.3778
C5 C 0.64397(9) 0.3631(4) 0.4060(4)
H5 H 0.6358 0.4376 0.4976
C6 C 0.60284(8) 0.2480(3) 0.3410(4)
C7 C 0.54532(9) 0.2471(3) 0.4087(3)
C8 C 0.55838(10) 0.2930(3) 0.7287(4)
H6 H 0.5982(10) 0.286(3) 0.721(4)
C9 C 0.52981(11) 0.3092(4) 0.8743(4)
H7 H 0.5491 0.3206 0.9761
N1 N 0.5000 0.2269(4) 0.3087(4)
N2 N 0.52928(8) 0.2761(3) 0.5750(3)
C1C C 0.38380(9) 0.1401(3) 0.2032(4)
H1C H 0.4109 0.0638 0.1580
C2C C 0.33082(10) 0.1445(4) 0.1319(4)
H2C H 0.3225 0.0710 0.0397
C3C C 0.29016(10) 0.2581(4) 0.1974(5)
H3C H 0.2545 0.2614 0.1497
C4C C 0.30303(9) 0.3657(4) 0.3334(4)
H4C H 0.2757 0.4418 0.3778
C5C C 0.35603(9) 0.3631(4) 0.4060(4)
H5C H 0.3642 0.4376 0.4976
C6C C 0.39716(8) 0.2480(3) 0.3410(4)
C7C C 0.45468(9) 0.2471(3) 0.4087(3)
C8C C 0.44162(10) 0.2930(3) 0.7287(4)
H6C H 0.4018(10) 0.286(3) 0.721(4)
C9C C 0.47019(11) 0.3092(4) 0.8743(4)
H7C H 0.4509 0.3206 0.9761
N2C N 0.47072(8) 0.2761(3) 0.5750(3)
C10? C 0.52928(8) 0.2761(3) 0.5750(3)
loop_
_geom_bond_atom_site_label_1
_geom_bond_atom_site_label_2
_geom_bond_site_symmetry_1
_geom_bond_site_symmetry_2
C1 H1 1_555 1_555
C2 C1 1_555 1_555
H2 C2 1_555 1_555
C3 C2 1_555 1_555
H3 C3 1_555 1_555
C4 C3 1_555 1_555
H4 C4 1_555 1_555
C5 C4 1_555 1_555
H5 C5 1_555 1_555
C6 C1 1_555 1_555
C7 C6 1_555 1_555
C8 H6 1_555 1_555
C9 C8 1_555 1_555
H7 C9 1_555 1_555
N1 C7 1_555 1_555
N2 C7 1_555 1_555
C1C H1C 1_555 1_555
C2C C1C 1_555 1_555
H2C C2C 1_555 1_555
C3C C2C 1_555 1_555
H3C C3C 1_555 1_555
C4C C3C 1_555 1_555
H4C C4C 1_555 1_555
C5C C4C 1_555 1_555
H5C C5C 1_555 1_555
C6C C1C 1_555 1_555
C7C N1 1_555 1_555
C8C H6C 1_555 1_555
C9C C9 1_555 1_555
H7C C9C 1_555 1_555
N2C N2 1_555 1_555
C5 C6 1_555 1_555
C8 N2 1_555 1_555
C5C C6C 1_555 1_555
C6C C7C 1_555 1_555
C7C N2C 1_555 1_555
C8C C9C 1_555 1_555
C8C N2C 1_555 1_555

#END
