
#######################################################################
#
#                 Cambridge Crystallographic Data Centre
#                                CCDC 
#
#######################################################################
#
# If this CIF has been generated from an entry in the Cambridge 
# Structural Database, then it will include bibliographic, chemical, 
# crystal, experimental, refinement or atomic coordinate data resulting 
# from the CCDC's data processing and validation procedures.
#
#######################################################################

data_EVOXIY02
_chemical_formula_moiety         'C16 H14 Cl1 N1 O2'
_chemical_name_systematic        
2-chloro-3-((4-methoxyphenyl)amino)-1-phenylprop-2-en-1-one
_symmetry_cell_setting           monoclinic
_symmetry_space_group_name_H-M   'P 21/c'
_symmetry_Int_Tables_number      14
_space_group_name_Hall           '-P 2ybc'
loop_
_symmetry_equiv_pos_site_id
_symmetry_equiv_pos_as_xyz
1 x,y,z
2 -x,1/2+y,1/2-z
3 -x,-y,-z
4 x,1/2-y,1/2+z
_cell_length_a                   12.9210(18)
_cell_length_b                   17.644(2)
_cell_length_c                   17.4133(17)
_cell_angle_alpha                90
_cell_angle_beta                 131.761(6)
_cell_angle_gamma                90
_cell_volume                     2961.23
_exptl_crystal_colour            yellow
_exptl_crystal_description       block
_cell_formula_units_Z            8
loop_
_atom_site_label
_atom_site_type_symbol
_atom_site_fract_x
_atom_site_fract_y
_atom_site_fract_z
Cl1 Cl 0.06905(13) 0.40405(7) 0.19588(10)
N1 N 0.2650(4) 0.2716(2) 0.2782(3)
H1 H 0.2687 0.3112 0.2513
O1 O -0.1298(3) 0.36122(19) 0.2177(3)
O2 O 0.6578(4) 0.0516(2) 0.4015(3)
C1 C -0.1278(5) 0.2235(3) 0.3054(4)
H2 H -0.2142 0.2352 0.2421
C2 C -0.1174(7) 0.1690(3) 0.3677(5)
H3 H -0.1963 0.1437 0.3457
C3 C 0.0104(8) 0.1523(4) 0.4624(5)
H4 H 0.0180 0.1150 0.5036
C4 C 0.1267(7) 0.1908(4) 0.4957(4)
H5 H 0.2120 0.1804 0.5605
C5 C 0.1183(5) 0.2447(3) 0.4342(4)
H6 H 0.1977 0.2702 0.4574
C6 C -0.0098(5) 0.2607(3) 0.3370(4)
C7 C -0.0268(5) 0.3189(3) 0.2671(4)
C8 C 0.0741(4) 0.3249(3) 0.2562(3)
C9 C 0.1678(4) 0.2692(3) 0.2859(4)
H7 H 0.1643 0.2255 0.3140
C10 C 0.3614(4) 0.2124(3) 0.3123(4)
C11 C 0.4108(5) 0.1657(3) 0.3926(4)
H8 H 0.3786 0.1709 0.4268
C12 C 0.5086(5) 0.1102(3) 0.4241(4)
H9 H 0.5409 0.0783 0.4786
C13 C 0.5576(5) 0.1027(3) 0.3743(4)
C14 C 0.5075(5) 0.1496(3) 0.2932(4)
H10 H 0.5397 0.1442 0.2591
C15 C 0.4112(5) 0.2040(3) 0.2616(4)
H11 H 0.3786 0.2354 0.2066
C16 C 0.7141(7) 0.0037(4) 0.4846(5)
H12 H 0.7603 0.0334 0.5459
H13 H 0.7797 -0.0299 0.4932
H14 H 0.6414 -0.0254 0.4720
Cl2 Cl 0.42989(14) -0.15636(8) 0.29981(12)
N2 N 0.2224(3) -0.0279(2) 0.2114(3)
H15 H 0.2235 -0.0667 0.2419
O3 O 0.6137(3) -0.1136(2) 0.2635(3)
O4 O -0.1778(3) 0.1872(2) 0.0880(3)
C17 C 0.6031(5) 0.0276(3) 0.1757(4)
H16 H 0.6911 0.0167 0.2382
C18 C 0.5871(6) 0.0830(3) 0.1121(5)
H17 H 0.6641 0.1096 0.1325
C19 C 0.4584(7) 0.0986(4) 0.0192(5)
H18 H 0.4480 0.1365 -0.0227
C20 C 0.3448(6) 0.0587(4) -0.0123(4)
H19 H 0.2579 0.0685 -0.0762
C21 C 0.3595(5) 0.0041(3) 0.0507(4)
H20 H 0.2818 -0.0226 0.0287
C22 C 0.4880(4) -0.0120(3) 0.1466(3)
C23 C 0.5127(4) -0.0718(3) 0.2187(3)
C24 C 0.4116(4) -0.0783(3) 0.2304(4)
C25 C 0.3149(4) -0.0256(3) 0.1999(3)
H21 H 0.3123 0.0170 0.1672
C26 C 0.1228(4) 0.0292(3) 0.1769(3)
C27 C 0.0694(5) 0.0352(3) 0.2247(4)
H22 H 0.1013 0.0028 0.2787
C28 C -0.0297(5) 0.0885(3) 0.1929(4)
H23 H -0.0648 0.0915 0.2252
C29 C -0.0779(4) 0.1377(3) 0.1133(4)
C30 C -0.0257(5) 0.1329(3) 0.0658(4)
H24 H -0.0565 0.1660 0.0127
C31 C 0.0744(5) 0.0775(3) 0.0980(4)
H25 H 0.1084 0.0738 0.0649
C32 C -0.2337(6) 0.2389(4) 0.0055(5)
H26 H -0.1612 0.2714 0.0227
H27 H -0.3046 0.2690 -0.0057
H28 H -0.2728 0.2110 -0.0559
loop_
_geom_bond_atom_site_label_1
_geom_bond_atom_site_label_2
_geom_bond_site_symmetry_1
_geom_bond_site_symmetry_2
Cl1 C8 1_555 1_555
N1 H1 1_555 1_555
O1 C7 1_555 1_555
O2 C13 1_555 1_555
C1 H2 1_555 1_555
C2 C1 1_555 1_555
H3 C2 1_555 1_555
C3 C2 1_555 1_555
H4 C3 1_555 1_555
C4 C3 1_555 1_555
H5 C4 1_555 1_555
C5 C4 1_555 1_555
H6 C5 1_555 1_555
C6 C1 1_555 1_555
C7 C6 1_555 1_555
C8 C7 1_555 1_555
C9 N1 1_555 1_555
H7 C9 1_555 1_555
C10 N1 1_555 1_555
C11 C10 1_555 1_555
H8 C11 1_555 1_555
C12 C11 1_555 1_555
H9 C12 1_555 1_555
C13 C12 1_555 1_555
C14 C13 1_555 1_555
H10 C14 1_555 1_555
C15 C10 1_555 1_555
H11 C15 1_555 1_555
C16 O2 1_555 1_555
H12 C16 1_555 1_555
H13 C16 1_555 1_555
H14 C16 1_555 1_555
Cl2 C24 1_555 1_555
N2 H15 1_555 1_555
O3 C23 1_555 1_555
O4 C29 1_555 1_555
C17 H16 1_555 1_555
C18 C17 1_555 1_555
H17 C18 1_555 1_555
C19 C18 1_555 1_555
H18 C19 1_555 1_555
C20 C19 1_555 1_555
H19 C20 1_555 1_555
C21 C20 1_555 1_555
H20 C21 1_555 1_555
C22 C17 1_555 1_555
C23 C22 1_555 1_555
C24 C23 1_555 1_555
C25 N2 1_555 1_555
H21 C25 1_555 1_555
C26 N2 1_555 1_555
C27 C26 1_555 1_555
H22 C27 1_555 1_555
C28 C27 1_555 1_555
H23 C28 1_555 1_555
C29 C28 1_555 1_555
C30 C29 1_555 1_555
H24 C30 1_555 1_555
C31 C26 1_555 1_555
H25 C31 1_555 1_555
C32 O4 1_555 1_555
H26 C32 1_555 1_555
H27 C32 1_555 1_555
H28 C32 1_555 1_555
C5 C6 1_555 1_555
C8 C9 1_555 1_555
C14 C15 1_555 1_555
C21 C22 1_555 1_555
C24 C25 1_555 1_555
C30 C31 1_555 1_555

#END
