
#######################################################################
#
#                 Cambridge Crystallographic Data Centre
#                                CCDC 
#
#######################################################################
#
# If this CIF has been generated from an entry in the Cambridge 
# Structural Database, then it will include bibliographic, chemical, 
# crystal, experimental, refinement or atomic coordinate data resulting 
# from the CCDC's data processing and validation procedures.
#
#######################################################################

data_EVOXOE
_chemical_formula_moiety         'C11 H12 N2 O4,H2 O1'
_chemical_name_systematic        
'2-((4-methoxybenzoyl)hydrazono)propanoic acid monohydrate'
_symmetry_cell_setting           monoclinic
_symmetry_space_group_name_H-M   'P 21/c'
_symmetry_Int_Tables_number      14
_space_group_name_Hall           '-P 2ybc'
loop_
_symmetry_equiv_pos_site_id
_symmetry_equiv_pos_as_xyz
1 x,y,z
2 -x,1/2+y,1/2-z
3 -x,-y,-z
4 x,1/2-y,1/2+z
_cell_length_a                   14.087(4)
_cell_length_b                   6.9999(19)
_cell_length_c                   13.659(4)
_cell_angle_alpha                90
_cell_angle_beta                 115.529(4)
_cell_angle_gamma                90
_cell_volume                     1215.38
_exptl_crystal_colour            colorless
_exptl_crystal_description       BLOCK
_cell_formula_units_Z            4
loop_
_atom_site_label
_atom_site_type_symbol
_atom_site_fract_x
_atom_site_fract_y
_atom_site_fract_z
C1 C 0.9437(2) 0.6901(5) 0.6619(3)
H1 H 0.9658 0.5863 0.6307
H2 H 0.9873 0.6950 0.7386
H3 H 0.9498 0.8081 0.6292
C2 C 0.7622(2) 0.6627(4) 0.5382(2)
C3 C 0.7810(2) 0.6911(4) 0.4480(2)
H4 H 0.8491 0.7100 0.4555
C4 C 0.69663(19) 0.6911(4) 0.3459(2)
H5 H 0.7091 0.7094 0.2850
C5 C 0.59482(17) 0.6646(4) 0.33286(18)
C6 C 0.5789(2) 0.6327(4) 0.42507(19)
H6 H 0.5111 0.6116 0.4181
C7 C 0.6614(2) 0.6319(4) 0.5258(2)
H7 H 0.6491 0.6102 0.5865
C8 C 0.50818(18) 0.6692(4) 0.22181(18)
C9 C 0.23360(18) 0.6875(4) 0.10201(18)
C10 C 0.1973(2) 0.6892(5) 0.1892(2)
H8 H 0.2446 0.6151 0.2497
H9 H 0.1279 0.6353 0.1622
H10 H 0.1957 0.8183 0.2122
C11 C 0.1492(2) 0.6890(4) -0.0127(2)
N1 N 0.32691(15) 0.6819(3) 0.11115(14)
N2 N 0.40855(14) 0.6826(3) 0.21317(14)
H11 H 0.3971 0.6913 0.2700
O1 O 0.83737(15) 0.6620(3) 0.64300(15)
O2 O 0.52409(13) 0.6604(3) 0.14046(13)
O3 O 0.17686(14) 0.6659(3) -0.09192(13)
H12 H 0.2407 0.6505 -0.0668
O4 O 0.05796(14) 0.7110(4) -0.03137(15)
O5 O 0.37490(13) 0.6376(3) 0.91836(13)
H13 H 0.3946 0.6185 0.9858
H14 H 0.3900 0.5383 0.8921
loop_
_geom_bond_atom_site_label_1
_geom_bond_atom_site_label_2
_geom_bond_site_symmetry_1
_geom_bond_site_symmetry_2
C1 H1 1_555 1_555
H2 C1 1_555 1_555
H3 C1 1_555 1_555
C2 C3 1_555 1_555
C3 H4 1_555 1_555
C4 C3 1_555 1_555
H5 C4 1_555 1_555
C5 C4 1_555 1_555
C6 C5 1_555 1_555
H6 C6 1_555 1_555
C7 C2 1_555 1_555
H7 C7 1_555 1_555
C8 C5 1_555 1_555
C9 C10 1_555 1_555
C10 H8 1_555 1_555
H9 C10 1_555 1_555
H10 C10 1_555 1_555
C11 C9 1_555 1_555
N1 C9 1_555 1_555
N2 C8 1_555 1_555
H11 N2 1_555 1_555
O1 C1 1_555 1_555
O2 C8 1_555 1_555
O3 C11 1_555 1_555
H12 O3 1_555 1_555
O4 C11 1_555 1_555
O5 H13 1_555 1_555
H14 O5 1_555 1_555
C2 O1 1_555 1_555
C6 C7 1_555 1_555
N1 N2 1_555 1_555

#END
