
#######################################################################
#
#                 Cambridge Crystallographic Data Centre
#                                CCDC 
#
#######################################################################
#
# If this CIF has been generated from an entry in the Cambridge 
# Structural Database, then it will include bibliographic, chemical, 
# crystal, experimental, refinement or atomic coordinate data resulting 
# from the CCDC's data processing and validation procedures.
#
#######################################################################

data_EVULOW
_chemical_formula_moiety         'C16 H14 N2 O4'
_chemical_name_systematic        1,1-bis(p-Tolyl)-2,2-dinitroethene
_symmetry_cell_setting           orthorhombic
_symmetry_space_group_name_H-M   'P c a 21'
_symmetry_Int_Tables_number      29
_space_group_name_Hall           'P 2c -2ac'
loop_
_symmetry_equiv_pos_site_id
_symmetry_equiv_pos_as_xyz
1 x,y,z
2 -x,-y,1/2+z
3 1/2+x,-y,z
4 1/2-x,y,1/2+z
_cell_length_a                   10.502(2)
_cell_length_b                   16.635(3)
_cell_length_c                   8.5366(16)
_cell_angle_alpha                90
_cell_angle_beta                 90
_cell_angle_gamma                90
_cell_volume                     1491.35
_exptl_crystal_colour            orange
_exptl_crystal_description       needle
_cell_formula_units_Z            4
_exptl_crystal_recrystallization_method 'n-hexane/ethyl acetate or ether'
loop_
_atom_site_label
_atom_site_type_symbol
_atom_site_fract_x
_atom_site_fract_y
_atom_site_fract_z
C1 C 0.6078(3) 0.24612(17) 0.2764(4)
C2 C 0.7156(3) 0.20542(18) 0.3050(3)
C3 C 0.6097(3) 0.33342(18) 0.2530(4)
C4 C 0.5299(3) 0.36994(19) 0.1418(4)
H1 H 0.4743 0.3389 0.0825
C5 C 0.5345(3) 0.4514(2) 0.1210(5)
H2 H 0.4801 0.4744 0.0476
C6 C 0.6153(3) 0.5013(2) 0.2030(4)
C7 C 0.6934(3) 0.46476(18) 0.3136(4)
H3 H 0.7493 0.4962 0.3718
C8 C 0.6897(3) 0.38356(18) 0.3385(4)
H4 H 0.7422 0.3613 0.4147
C9 C 0.6204(4) 0.5895(2) 0.1773(6)
H5 H 0.5603 0.6042 0.0977
H6 H 0.7046 0.6045 0.1446
H7 H 0.5997 0.6167 0.2731
C10 C 0.4843(3) 0.20316(17) 0.2625(4)
C11 C 0.3747(3) 0.23312(19) 0.3286(4)
H8 H 0.3788 0.2795 0.3891
C12 C 0.2592(3) 0.1957(2) 0.3069(5)
H9 H 0.1863 0.2178 0.3513
C13 C 0.2499(3) 0.1259(2) 0.2204(5)
C14 C 0.3606(3) 0.09568(19) 0.1544(5)
H10 H 0.3569 0.0493 0.0936
C15 C 0.4762(3) 0.13318(17) 0.1774(4)
H11 H 0.5496 0.1108 0.1347
C16 C 0.1243(3) 0.0852(2) 0.1924(6)
H12 H 0.0585 0.1137 0.2471
H13 H 0.1283 0.0309 0.2300
H14 H 0.1060 0.0850 0.0823
N1 N 0.8431(2) 0.23846(15) 0.2792(4)
N2 N 0.7251(3) 0.12410(15) 0.3652(3)
O1 O 0.8670(2) 0.26920(16) 0.1529(3)
O2 O 0.9189(2) 0.23394(16) 0.3881(3)
O3 O 0.6455(3) 0.10207(15) 0.4588(4)
O4 O 0.8127(3) 0.08286(14) 0.3207(4)
loop_
_geom_bond_atom_site_label_1
_geom_bond_atom_site_label_2
_geom_bond_site_symmetry_1
_geom_bond_site_symmetry_2
C1 C2 1_555 1_555
C2 N1 1_555 1_555
C3 C1 1_555 1_555
C4 C3 1_555 1_555
H1 C4 1_555 1_555
C5 C4 1_555 1_555
H2 C5 1_555 1_555
C6 C5 1_555 1_555
C7 C6 1_555 1_555
H3 C7 1_555 1_555
C8 C3 1_555 1_555
H4 C8 1_555 1_555
C9 C6 1_555 1_555
H5 C9 1_555 1_555
H6 C9 1_555 1_555
H7 C9 1_555 1_555
C10 C1 1_555 1_555
C11 C10 1_555 1_555
H8 C11 1_555 1_555
C12 C11 1_555 1_555
H9 C12 1_555 1_555
C13 C12 1_555 1_555
C14 C13 1_555 1_555
H10 C14 1_555 1_555
C15 C10 1_555 1_555
H11 C15 1_555 1_555
C16 C13 1_555 1_555
H12 C16 1_555 1_555
H13 C16 1_555 1_555
H14 C16 1_555 1_555
N1 O1 1_555 1_555
N2 C2 1_555 1_555
O2 N1 1_555 1_555
O3 N2 1_555 1_555
O4 N2 1_555 1_555
C7 C8 1_555 1_555
C14 C15 1_555 1_555

#END
