
#######################################################################
#
#                 Cambridge Crystallographic Data Centre
#                                CCDC 
#
#######################################################################
#
# If this CIF has been generated from an entry in the Cambridge 
# Structural Database, then it will include bibliographic, chemical, 
# crystal, experimental, refinement or atomic coordinate data resulting 
# from the CCDC's data processing and validation procedures.
#
#######################################################################

data_EVULUC
_chemical_formula_moiety         'C16 H14 N2 O6'
_chemical_name_systematic        1,1-bis(p-Methoxyphenyl)-2,2-dinitroethene
_symmetry_cell_setting           orthorhombic
_symmetry_space_group_name_H-M   'P b c n'
_symmetry_Int_Tables_number      60
_space_group_name_Hall           '-P 2n 2ab'
loop_
_symmetry_equiv_pos_site_id
_symmetry_equiv_pos_as_xyz
1 x,y,z
2 1/2+x,1/2+y,1/2-z
3 x,-y,1/2+z
4 1/2-x,1/2+y,z
5 -x,-y,-z
6 1/2-x,1/2-y,1/2+z
7 -x,y,1/2-z
8 1/2+x,1/2-y,-z
_cell_length_a                   4.6993(4)
_cell_length_b                   15.9325(15)
_cell_length_c                   20.9882(19)
_cell_angle_alpha                90
_cell_angle_beta                 90
_cell_angle_gamma                90
_cell_volume                     1571.42
_exptl_crystal_colour            orange
_exptl_crystal_description       block
_cell_formula_units_Z            4
_exptl_crystal_recrystallization_method 'n-hexane/ethyl acetate or ether'
loop_
_atom_site_label
_atom_site_type_symbol
_atom_site_fract_x
_atom_site_fract_y
_atom_site_fract_z
C1 C 0.0000 0.39837(12) 0.2500
C2 C 0.0000 0.31307(13) 0.2500
C3 C 0.0458(3) 0.44621(8) 0.19096(7)
C4 C -0.1048(3) 0.52006(8) 0.18007(7)
H1 H -0.2394 0.5375 0.2097
C5 C -0.0591(3) 0.56793(9) 0.12643(7)
H2 H -0.1644 0.6165 0.1196
C6 C 0.1447(3) 0.54316(10) 0.08281(7)
C7 C 0.2983(3) 0.47015(10) 0.09299(8)
H3 H 0.4353 0.4536 0.0636
C8 C 0.2498(3) 0.42215(9) 0.14606(7)
H4 H 0.3536 0.3731 0.1523
C9 C 0.0603(6) 0.66290(12) 0.01730(10)
H5 H 0.1273 0.6877 -0.0216
H6 H 0.0909 0.7012 0.0519
H7 H -0.1393 0.6510 0.0136
N1 N 0.0230(3) 0.26079(8) 0.30680(8)
O1 O 0.1899(3) 0.27996(8) 0.34804(7)
O2 O -0.1268(4) 0.19969(11) 0.30956(9)
O3 O 0.2121(3) 0.58676(8) 0.02917(5)
N1F N -0.0230(3) 0.26079(8) 0.19320(8)
O1F O -0.1899(3) 0.27996(8) 0.15196(7)
O2F O 0.1268(4) 0.19969(11) 0.19044(9)
C3F C -0.0458(3) 0.44621(8) 0.30904(7)
C4F C 0.1048(3) 0.52006(8) 0.31993(7)
H1F H 0.2394 0.5375 0.2903
C5F C 0.0591(3) 0.56793(9) 0.37357(7)
H2F H 0.1644 0.6165 0.3804
C6F C -0.1447(3) 0.54316(10) 0.41719(7)
C7F C -0.2983(3) 0.47015(10) 0.40701(8)
H3F H -0.4353 0.4536 0.4364
C8F C -0.2498(3) 0.42215(9) 0.35394(7)
H4F H -0.3536 0.3731 0.3477
O3F O -0.2121(3) 0.58676(8) 0.47083(5)
C9F C -0.0603(6) 0.66290(12) 0.48270(10)
H5F H -0.1273 0.6877 0.5216
H6F H -0.0909 0.7012 0.4481
H7F H 0.1393 0.6510 0.4864
loop_
_geom_bond_atom_site_label_1
_geom_bond_atom_site_label_2
_geom_bond_site_symmetry_1
_geom_bond_site_symmetry_2
C1 C2 1_555 1_555
C2 N1 1_555 1_555
C3 C1 1_555 1_555
C4 C3 1_555 1_555
H1 C4 1_555 1_555
C5 C4 1_555 1_555
H2 C5 1_555 1_555
C6 C5 1_555 1_555
C7 C6 1_555 1_555
H3 C7 1_555 1_555
C8 C3 1_555 1_555
H4 C8 1_555 1_555
C9 H5 1_555 1_555
H6 C9 1_555 1_555
H7 C9 1_555 1_555
N1 O1 1_555 1_555
O2 N1 1_555 1_555
O3 C6 1_555 1_555
N1F C2 1_555 1_555
O1F N1F 1_555 1_555
O2F N1F 1_555 1_555
C3F C1 1_555 1_555
C4F C3F 1_555 1_555
H1F C4F 1_555 1_555
C5F C4F 1_555 1_555
H2F C5F 1_555 1_555
C6F C5F 1_555 1_555
C7F C6F 1_555 1_555
H3F C7F 1_555 1_555
C8F C3F 1_555 1_555
H4F C8F 1_555 1_555
O3F C6F 1_555 1_555
C9F O3F 1_555 1_555
H5F C9F 1_555 1_555
H6F C9F 1_555 1_555
H7F C9F 1_555 1_555
C7 C8 1_555 1_555
C9 O3 1_555 1_555
C7F C8F 1_555 1_555

#END
