
#######################################################################
#
#                 Cambridge Crystallographic Data Centre
#                                CCDC 
#
#######################################################################
#
# If this CIF has been generated from an entry in the Cambridge 
# Structural Database, then it will include bibliographic, chemical, 
# crystal, experimental, refinement or atomic coordinate data resulting 
# from the CCDC's data processing and validation procedures.
#
#######################################################################

data_EVUSUL
_chemical_formula_moiety         'C18 H12 N4 O1 S1'
_chemical_name_systematic        
3-phenyl-1-(5-phenyl-1,3,4-thiadiazol-2-yl)-1H-pyrazole-4-carbaldehyde
_symmetry_cell_setting           triclinic
_symmetry_space_group_name_H-M   'P -1'
_symmetry_Int_Tables_number      2
_space_group_name_Hall           '-P 1'
loop_
_symmetry_equiv_pos_site_id
_symmetry_equiv_pos_as_xyz
1 x,y,z
2 -x,-y,-z
_cell_length_a                   3.9663(11)
_cell_length_b                   14.000(4)
_cell_length_c                   14.263(4)
_cell_angle_alpha                87.752(4)
_cell_angle_beta                 82.293(5)
_cell_angle_gamma                84.423(4)
_cell_volume                     780.854
_exptl_crystal_colour            yellow
_exptl_crystal_description       block
_cell_formula_units_Z            2
loop_
_atom_site_label
_atom_site_type_symbol
_atom_site_fract_x
_atom_site_fract_y
_atom_site_fract_z
S1 S 0.22024(11) 0.24227(3) 0.66998(3)
O1 O 1.0035(4) 0.36349(11) 0.20039(10)
N1 N -0.1157(4) 0.40639(11) 0.69868(10)
N2 N 0.0463(4) 0.41139(11) 0.60660(11)
N3 N 0.4224(4) 0.31917(10) 0.49543(9)
N4 N 0.6074(4) 0.23245(10) 0.47597(10)
C1 C -0.0484(4) 0.32422(12) 0.74113(12)
C2 C 0.2280(4) 0.33172(12) 0.58425(12)
C3 C 0.4529(4) 0.38249(12) 0.42163(12)
H1 H 0.3480 0.4448 0.4197
C4 C 0.6682(4) 0.33752(12) 0.34997(12)
C5 C 0.7576(4) 0.24266(12) 0.38741(11)
C6 C 0.7797(5) 0.38986(14) 0.26187(13)
H2 H 0.6649 0.4499 0.2526
C7 C -0.1889(4) 0.30134(13) 0.83952(12)
C8 C -0.3796(6) 0.37280(16) 0.89493(14)
H3 H -0.4160 0.4346 0.8696
C9 C -0.5144(6) 0.35220(19) 0.98712(15)
H4 H -0.6420 0.4001 1.0234
C10 C -0.4606(6) 0.26111(19) 1.02544(14)
H5 H -0.5513 0.2475 1.0875
C11 C -0.2733(6) 0.19056(18) 0.97191(16)
H6 H -0.2371 0.1291 0.9979
C12 C -0.1369(5) 0.21010(15) 0.87909(14)
H7 H -0.0100 0.1617 0.8434
C13 C 0.9631(4) 0.15843(12) 0.34243(12)
C14 C 1.1078(4) 0.08605(13) 0.39903(13)
H8 H 1.0856 0.0928 0.4642
C15 C 1.2842(5) 0.00423(14) 0.35853(15)
H9 H 1.3801 -0.0436 0.3966
C16 C 1.3176(5) -0.00642(14) 0.26221(16)
H10 H 1.4361 -0.0614 0.2353
C17 C 1.1754(6) 0.06430(15) 0.20543(15)
H11 H 1.1980 0.0568 0.1403
C18 C 0.9984(5) 0.14686(13) 0.24524(13)
H12 H 0.9036 0.1944 0.2067
loop_
_geom_bond_atom_site_label_1
_geom_bond_atom_site_label_2
_geom_bond_site_symmetry_1
_geom_bond_site_symmetry_2
S1 C1 1_555 1_555
O1 C6 1_555 1_555
N1 N2 1_555 1_555
N2 C2 1_555 1_555
N3 N4 1_555 1_555
N4 C5 1_555 1_555
C1 N1 1_555 1_555
C2 S1 1_555 1_555
C3 N3 1_555 1_555
H1 C3 1_555 1_555
C4 C3 1_555 1_555
C5 C4 1_555 1_555
C6 C4 1_555 1_555
H2 C6 1_555 1_555
C7 C1 1_555 1_555
C8 C7 1_555 1_555
H3 C8 1_555 1_555
C9 C8 1_555 1_555
H4 C9 1_555 1_555
C10 C9 1_555 1_555
H5 C10 1_555 1_555
C11 C10 1_555 1_555
H6 C11 1_555 1_555
C12 C7 1_555 1_555
H7 C12 1_555 1_555
C13 C5 1_555 1_555
C14 C13 1_555 1_555
H8 C14 1_555 1_555
C15 C14 1_555 1_555
H9 C15 1_555 1_555
C16 C15 1_555 1_555
H10 C16 1_555 1_555
C17 C16 1_555 1_555
H11 C17 1_555 1_555
C18 C13 1_555 1_555
H12 C18 1_555 1_555
N3 C2 1_555 1_555
C11 C12 1_555 1_555
C17 C18 1_555 1_555

#END
