
#######################################################################
#
#                 Cambridge Crystallographic Data Centre
#                                CCDC 
#
#######################################################################
#
# If this CIF has been generated from an entry in the Cambridge 
# Structural Database, then it will include bibliographic, chemical, 
# crystal, experimental, refinement or atomic coordinate data resulting 
# from the CCDC's data processing and validation procedures.
#
#######################################################################

data_EVUTUM
_chemical_formula_moiety         'C23 H26 Cl1 N3 O5 S1'
_chemical_name_systematic        
'2-ethoxyethyl 3-((4-((6-chloropyridin-3-yl)methoxy)-3-methoxybenzyl)amino)-2-cyano-3-(methylsulfanyl)acrylate'
_symmetry_cell_setting           triclinic
_symmetry_space_group_name_H-M   'P -1'
_symmetry_Int_Tables_number      2
_space_group_name_Hall           '-P 1'
loop_
_symmetry_equiv_pos_site_id
_symmetry_equiv_pos_as_xyz
1 x,y,z
2 -x,-y,-z
_cell_length_a                   8.067(4)
_cell_length_b                   8.976(5)
_cell_length_c                   17.746(9)
_cell_angle_alpha                103.510(8)
_cell_angle_beta                 90.578(4)
_cell_angle_gamma                110.548(8)
_cell_volume                     1163.93
_exptl_crystal_colour            colorless
_exptl_crystal_description       Prism
_cell_formula_units_Z            2
loop_
_atom_site_label
_atom_site_type_symbol
_atom_site_fract_x
_atom_site_fract_y
_atom_site_fract_z
S1 S 0.67244(7) 0.19036(6) 0.04952(3)
Cl1 Cl -0.91915(10) 0.33666(9) 0.45346(4)
O1 O -0.2517(2) 0.24865(17) 0.26972(9)
O2 O 0.0450(2) 0.50211(18) 0.29709(9)
O3 O 0.2445(2) 0.33272(18) -0.06165(8)
O4 O 0.4045(2) 0.35800(19) -0.16470(8)
O5 O 0.2983(3) 0.2176(2) -0.32583(9)
N1 N -0.8353(3) 0.1165(3) 0.34842(12)
N2 N 0.3693(2) 0.2366(2) 0.04907(9)
N3 N 0.7706(3) 0.2690(2) -0.14768(10)
C1 C -0.7683(3) 0.2639(3) 0.40182(13)
C2 C -0.5961(3) 0.3586(3) 0.41713(13)
H1 H -0.5577 0.4599 0.4559
C3 C -0.4780(4) 0.3068(3) 0.37611(14)
H2 H -0.3547 0.3717 0.3872
C4 C -0.5327(3) 0.1604(3) 0.31785(12)
C5 C -0.7131(3) 0.0659(3) 0.30581(12)
H3 H -0.7538 -0.0360 0.2674
C6 C -0.4029(3) 0.1053(3) 0.26940(12)
H4 H -0.3668 0.0286 0.2916
H5 H -0.4581 0.0481 0.2154
C7 C -0.1128(3) 0.2257(3) 0.23114(12)
C8 C -0.1211(3) 0.0790(3) 0.18052(12)
H6 H -0.2291 -0.0137 0.1706
C9 C 0.0265(3) 0.0669(3) 0.14440(12)
H7 H 0.0194 -0.0341 0.1101
C10 C 0.1847(3) 0.2015(3) 0.15808(11)
C11 C 0.1949(3) 0.3510(2) 0.20843(11)
H8 H 0.3028 0.4437 0.2174
C12 C 0.0473(3) 0.3634(2) 0.24515(12)
C13 C 0.2135(3) 0.6297(3) 0.32619(13)
H9 H 0.1954 0.7224 0.3622
H10 H 0.2743 0.6666 0.2827
H11 H 0.2863 0.5877 0.3537
C14 C 0.3479(3) 0.1857(3) 0.12317(12)
H12 H 0.4538 0.2550 0.1605
H13 H 0.3397 0.0701 0.1134
C15 C 0.5112(3) 0.2475(2) 0.00933(11)
C16 C 0.8850(3) 0.3353(3) 0.03713(12)
H14 H 0.9807 0.3091 0.0586
H15 H 0.8949 0.4469 0.0645
H16 H 0.8949 0.3287 -0.0185
C17 C 0.5201(3) 0.2924(2) -0.06207(11)
C18 C 0.6597(3) 0.2816(3) -0.10892(12)
C19 C 0.3782(3) 0.3302(2) -0.09330(11)
C20 C 0.2554(4) 0.3755(4) -0.20457(14)
H17 H 0.2465 0.4831 -0.1802
H18 H 0.1428 0.2878 -0.2001
C21 C 0.2842(5) 0.3636(5) -0.28726(19)
H19 H 0.1840 0.3773 -0.3138
H20 H 0.3943 0.4550 -0.2908
C22 C 0.2729(6) 0.1763(5) -0.40550(16)
H21 H 0.3256 0.2785 -0.4230
H22 H 0.1432 0.1334 -0.4210
C23 C 0.3424(5) 0.0601(5) -0.44680(16)
H23 H 0.3169 0.0433 -0.5029
H24 H 0.2870 -0.0445 -0.4327
H25 H 0.4714 0.1010 -0.4334
H26? H 0.1589 0.3673 -0.1699
H27? H 0.2950 0.4862 -0.2144
C24? C 0.1908(9) 0.2633(9) -0.2718(4)
H28? H 0.1122 0.3015 -0.2992
H29? H 0.1131 0.1615 -0.2588
loop_
_geom_bond_atom_site_label_1
_geom_bond_atom_site_label_2
_geom_bond_site_symmetry_1
_geom_bond_site_symmetry_2
S1 C15 1_555 1_555
Cl1 C1 1_555 1_555
O1 C6 1_555 1_555
O2 C12 1_555 1_555
O3 C19 1_555 1_555
O4 C19 1_555 1_555
O5 C21 1_555 1_555
N1 C1 1_555 1_555
N2 C14 1_555 1_555
N3 C18 1_555 1_555
C1 C2 1_555 1_555
C2 H1 1_555 1_555
C3 C2 1_555 1_555
H2 C3 1_555 1_555
C4 C3 1_555 1_555
C5 N1 1_555 1_555
H3 C5 1_555 1_555
C6 C4 1_555 1_555
H4 C6 1_555 1_555
H5 C6 1_555 1_555
C7 O1 1_555 1_555
C8 C7 1_555 1_555
H6 C8 1_555 1_555
C9 C8 1_555 1_555
H7 C9 1_555 1_555
C10 C9 1_555 1_555
C11 C10 1_555 1_555
H8 C11 1_555 1_555
C12 C7 1_555 1_555
C13 O2 1_555 1_555
H9 C13 1_555 1_555
H10 C13 1_555 1_555
H11 C13 1_555 1_555
C14 C10 1_555 1_555
H12 C14 1_555 1_555
H13 C14 1_555 1_555
C15 N2 1_555 1_555
C16 S1 1_555 1_555
H14 C16 1_555 1_555
H15 C16 1_555 1_555
H16 C16 1_555 1_555
C17 C15 1_555 1_555
C18 C17 1_555 1_555
C19 C17 1_555 1_555
C20 O4 1_555 1_555
H17 C20 1_555 1_555
H18 C20 1_555 1_555
C21 C20 1_555 1_555
H19 C21 1_555 1_555
H20 C21 1_555 1_555
C22 O5 1_555 1_555
H21 C22 1_555 1_555
H22 C22 1_555 1_555
C23 C22 1_555 1_555
H23 C23 1_555 1_555
H24 C23 1_555 1_555
H25 C23 1_555 1_555
C4 C5 1_555 1_555
C11 C12 1_555 1_555

#END
