
#######################################################################
#
#                 Cambridge Crystallographic Data Centre
#                                CCDC 
#
#######################################################################
#
# If this CIF has been generated from an entry in the Cambridge 
# Structural Database, then it will include bibliographic, chemical, 
# crystal, experimental, refinement or atomic coordinate data resulting 
# from the CCDC's data processing and validation procedures.
#
#######################################################################

data_EVUYOL
_chemical_formula_moiety         'C32 H27 F1 N4 O4,C1 H4 O1,H2 O1'
_chemical_name_systematic        
'4-(3-(8-fluoro-1-methyl-2,4-dioxo-1,4-dihydroquinazolin-3(2H)-yl)-2-methylphenyl)-7-(2-hydroxypropan-2-yl)-9H-carbazole-1-carboxamide methanol solvate monohydrate'
_symmetry_cell_setting           monoclinic
_symmetry_space_group_name_H-M   'P 21'
_symmetry_Int_Tables_number      4
_space_group_name_Hall           'P 2yb'
loop_
_symmetry_equiv_pos_site_id
_symmetry_equiv_pos_as_xyz
1 x,y,z
2 -x,1/2+y,-z
_cell_length_a                   10.9201(2)
_cell_length_b                   11.5031(2)
_cell_length_c                   23.7434(5)
_cell_angle_alpha                90
_cell_angle_beta                 99.2590(10)
_cell_angle_gamma                90
_cell_volume                     2943.67
_exptl_crystal_colour            colorless
_exptl_crystal_description       blade
_cell_formula_units_Z            4
loop_
_atom_site_label
_atom_site_type_symbol
_atom_site_fract_x
_atom_site_fract_y
_atom_site_fract_z
O1 O 0.1763(3) 0.4300(3) 0.80814(12)
H1 H 0.1381 0.4808 0.7852
H2 H 0.2528 0.4265 0.8034
O2 O 0.5887(2) -0.0479(3) 1.22354(11)
O3 O 0.0323(2) 0.3509(3) 0.88578(10)
H3 H 0.0906 0.3720 0.8704
O4 O 0.3464(3) 0.0372(3) 0.81118(12)
O5 O 0.6503(3) -0.2314(3) 0.81597(12)
N1 N 0.3383(3) 0.0998(3) 1.09063(12)
H4 H 0.3374 0.1387 1.1215
N2 N 0.4907(3) -0.1038(3) 0.81010(14)
N3 N 0.3882(3) 0.0041(3) 1.21003(13)
H5 H 0.3919 0.0218 1.2455
H6 H 0.3196 0.0121 1.1868
N4 N 0.6273(3) -0.1053(3) 0.74238(13)
F1 F 0.6959(3) 0.0033(4) 0.64332(14)
C1 C 0.5683(3) -0.0074(4) 0.71618(15)
C2 C 0.2054(3) 0.2287(3) 1.02121(14)
H7 H 0.1928 0.2843 1.0482
C3 C 0.2782(3) 0.1307(3) 1.03706(14)
C4 C 0.1522(3) 0.2414(4) 0.96462(16)
C5 C 0.4001(3) -0.0041(3) 1.08664(14)
C6 C 0.3005(3) 0.0456(3) 0.99722(14)
C7 C 0.3472(3) -0.2811(3) 0.93881(15)
H8 H 0.3136 -0.3208 0.9668
C8 C 0.4724(4) 0.0453(4) 0.73925(17)
C9 C 0.3804(3) -0.0403(3) 1.02942(14)
C10 C 0.2457(3) 0.0601(4) 0.94032(14)
H9 H 0.2587 0.0052 0.9131
C11 C 0.6007(4) 0.0442(5) 0.6674(2)
C12 C 0.4714(3) -0.1242(3) 0.91127(15)
C13 C 0.5939(4) -0.1523(4) 0.79106(17)
C14 C 0.4200(3) -0.1834(3) 0.95413(15)
C15 C 0.4444(3) -0.1656(4) 0.85571(14)
C16 C 0.4878(3) -0.0352(3) 1.19124(17)
C17 C 0.5309(3) -0.1666(4) 1.11286(15)
H10 H 0.5821 -0.2101 1.1401
C18 C 0.5149(4) -0.2022(3) 1.05668(16)
H11 H 0.5562 -0.2684 1.0472
C19 C 0.7264(4) -0.1673(5) 0.71927(19)
H12 H 0.6961 -0.1917 0.6809
H13 H 0.7516 -0.2342 0.7425
H14 H 0.7962 -0.1164 0.7194
C20 C 0.4390(3) -0.1421(3) 1.01389(14)
C21 C 0.3232(4) -0.3208(4) 0.88337(16)
H15 H 0.2748 -0.3868 0.8744
C22 C 0.1724(3) 0.1555(4) 0.92458(15)
H16 H 0.1354 0.1638 0.8867
C23 C 0.4736(3) -0.0682(3) 1.13034(14)
C24 C 0.5401(5) 0.1401(6) 0.6431(3)
H17 H 0.5637 0.1720 0.6105
C25 C 0.4288(4) -0.0034(4) 0.78872(17)
C26 C 0.0707(4) 0.3473(4) 0.94642(16)
C27 C 0.3714(4) -0.2622(4) 0.84150(16)
H18 H 0.3548 -0.2876 0.8039
C28 C 0.5534(4) -0.0202(4) 0.92518(17)
H19 H 0.6113 -0.0156 0.8989
H20 H 0.5978 -0.0273 0.9633
H21 H 0.5035 0.0489 0.9222
C29 C 0.4119(4) 0.1443(5) 0.7148(2)
H22 H 0.3496 0.1790 0.7314
C30 C 0.4451(4) 0.1902(5) 0.6658(2)
H23 H 0.4035 0.2545 0.6483
C31 C 0.1424(6) 0.4599(4) 0.9646(2)
H24 H 0.2185 0.4606 0.9492
H25 H 0.1607 0.4635 1.0055
H26 H 0.0929 0.5257 0.9504
C32 C -0.0484(4) 0.3402(6) 0.97134(19)
H27 H -0.1018 0.4035 0.9571
H28 H -0.0295 0.3449 1.0122
H29 H -0.0893 0.2678 0.9605
O6 O 0.1448(3) 0.0217(3) 0.68788(12)
O7 O -0.1603(3) 0.2890(3) 0.68237(12)
O8 O 0.4711(2) -0.2801(3) 0.61582(11)
H30 H 0.4092 -0.2906 0.6307
O9 O -0.0937(2) 0.1080(3) 0.27666(11)
N5 N 0.1592(3) -0.0387(3) 0.40974(11)
H31 H 0.1615 -0.0777 0.3790
N6 N 0.0028(3) 0.1650(3) 0.69011(13)
N7 N 0.1054(3) 0.0534(3) 0.29000(13)
H32 H 0.1011 0.0342 0.2547
H33 H 0.1740 0.0455 0.3131
N8 N 0.0262(3) 0.0118(3) 0.75842(13)
C33 C -0.1303(3) 0.1602(4) 0.76102(15)
C34 C 0.2951(3) -0.1633(4) 0.48009(15)
H34 H 0.3092 -0.2187 0.4533
C35 C 0.1442(3) 0.3424(3) 0.56045(16)
H35 H 0.1753 0.3826 0.5318
C36 C 0.0955(3) 0.0631(3) 0.41316(14)
C37 C 0.0210(3) 0.1835(3) 0.58824(15)
C38 C 0.1128(3) 0.1009(3) 0.47124(13)
C39 C 0.0732(3) 0.2432(3) 0.54674(14)
C40 C 0.2509(3) 0.0045(4) 0.55964(15)
H36 H 0.2374 0.0597 0.5866
C41 C 0.0505(3) 0.2240(4) 0.64400(14)
C42 C 0.1953(3) 0.0167(3) 0.50305(14)
C43 C 0.2194(3) -0.0688(3) 0.46373(13)
C44 C 0.0543(3) 0.2011(3) 0.48590(14)
C45 C 0.3499(3) -0.1750(4) 0.53681(16)
C46 C -0.1008(4) 0.2103(4) 0.70876(17)
C47 C -0.0218(3) 0.2617(4) 0.44323(15)
H37 H -0.0630 0.3279 0.4527
C48 C 0.1692(3) 0.3819(4) 0.61589(16)
H38 H 0.2162 0.4488 0.6247
C49 C 0.0218(3) 0.1264(3) 0.37042(14)
C50 C 0.0065(3) 0.0953(4) 0.30860(16)
C51 C 0.3261(3) -0.0899(4) 0.57532(15)
H39 H 0.3626 -0.0973 0.6133
C52 C -0.0378(3) 0.2251(4) 0.38648(15)
H40 H -0.0892 0.2674 0.3589
C53 C 0.3755(6) -0.3906(5) 0.5351(2)
H41 H 0.4328 -0.4532 0.5455
H42 H 0.3516 -0.3890 0.4944
H43 H 0.3032 -0.4019 0.5527
C54 C 0.1235(4) 0.3209(4) 0.65833(15)
H44 H 0.1419 0.3450 0.6961
C55 C -0.0619(4) 0.0805(4) 0.57432(17)
H45 H -0.0631 0.0587 0.5352
H46 H -0.1445 0.0999 0.5801
H47 H -0.0314 0.0167 0.5987
C56 C 0.4362(4) -0.2774(4) 0.55488(16)
C57 C 0.0634(4) 0.0627(4) 0.71115(18)
C58 C -0.0638(3) 0.0641(4) 0.78569(16)
C59 C -0.1805(4) 0.0787(5) 0.86309(19)
H48 H -0.1961 0.0512 0.8981
C60 C 0.0852(5) -0.0998(5) 0.7767(2)
H49 H 0.1471 -0.0878 0.8098
H50 H 0.1234 -0.1316 0.7465
H51 H 0.0235 -0.1529 0.7859
C61 C 0.5601(4) -0.2582(6) 0.5339(2)
H52 H 0.5928 -0.1834 0.5464
H53 H 0.5474 -0.2613 0.4930
H54 H 0.6176 -0.3177 0.5491
C62 C -0.0940(4) 0.0255(5) 0.83753(19)
C63 C -0.2462(4) 0.1731(5) 0.83846(18)
H55 H -0.3062 0.2084 0.8563
C64 C -0.2213(4) 0.2145(5) 0.78662(17)
H56 H -0.2649 0.2778 0.7691
F2 F -0.0324(3) -0.0645(3) 0.86567(12)
O10 O 0.8817(3) 0.5205(3) 0.83173(12)
H57 H 0.9271 0.4673 0.8453
C65 C 0.9346(4) 0.6281(5) 0.8517(2)
H58 H 0.9340 0.6346 0.8919
H59 H 0.8872 0.6905 0.8321
H60 H 1.0185 0.6322 0.8445
O11 O 0.3278(3) 0.6288(3) 0.69186(12)
H61 H 0.2514 0.6326 0.6966
H62 H 0.3661 0.5782 0.7148
O12 O 0.6261(3) 0.5514(3) 0.66852(13)
H63 H 0.5916 0.6043 0.6489
C66 C 0.5739(5) 0.4481(6) 0.6499(3)
H64 H 0.6226 0.3855 0.6685
H65 H 0.5710 0.4420 0.6094
H66 H 0.4912 0.4439 0.6587
loop_
_geom_bond_atom_site_label_1
_geom_bond_atom_site_label_2
_geom_bond_site_symmetry_1
_geom_bond_site_symmetry_2
O1 H1 1_555 1_555
H2 O1 1_555 1_555
O2 C16 1_555 1_555
O3 H3 1_555 1_555
O4 C25 1_555 1_555
O5 C13 1_555 1_555
N1 H4 1_555 1_555
N2 C13 1_555 1_555
N3 H5 1_555 1_555
H6 N3 1_555 1_555
N4 C1 1_555 1_555
F1 C11 1_555 1_555
C1 C8 1_555 1_555
C2 H7 1_555 1_555
C3 N1 1_555 1_555
C4 C2 1_555 1_555
C5 N1 1_555 1_555
C6 C3 1_555 1_555
C7 H8 1_555 1_555
C8 C25 1_555 1_555
C9 C5 1_555 1_555
C10 C6 1_555 1_555
H9 C10 1_555 1_555
C11 C1 1_555 1_555
C12 C14 1_555 1_555
C13 N4 1_555 1_555
C14 C7 1_555 1_555
C15 N2 1_555 1_555
C16 N3 1_555 1_555
C17 H10 1_555 1_555
C18 C17 1_555 1_555
H11 C18 1_555 1_555
C19 N4 1_555 1_555
H12 C19 1_555 1_555
H13 C19 1_555 1_555
H14 C19 1_555 1_555
C20 C9 1_555 1_555
C21 C7 1_555 1_555
H15 C21 1_555 1_555
C22 C4 1_555 1_555
H16 C22 1_555 1_555
C23 C5 1_555 1_555
C24 C11 1_555 1_555
H17 C24 1_555 1_555
C25 N2 1_555 1_555
C26 O3 1_555 1_555
C27 C15 1_555 1_555
H18 C27 1_555 1_555
C28 C12 1_555 1_555
H19 C28 1_555 1_555
H20 C28 1_555 1_555
H21 C28 1_555 1_555
C29 C8 1_555 1_555
H22 C29 1_555 1_555
C30 C24 1_555 1_555
H23 C30 1_555 1_555
C31 C26 1_555 1_555
H24 C31 1_555 1_555
H25 C31 1_555 1_555
H26 C31 1_555 1_555
C32 C26 1_555 1_555
H27 C32 1_555 1_555
H28 C32 1_555 1_555
H29 C32 1_555 1_555
O6 C57 1_555 1_555
O7 C46 1_555 1_555
O8 H30 1_555 1_555
O9 C50 1_555 1_555
N5 H31 1_555 1_555
N6 C41 1_555 1_555
N7 H32 1_555 1_555
H33 N7 1_555 1_555
N8 C57 1_555 1_555
C33 C46 1_555 1_555
C34 H34 1_555 1_555
C35 H35 1_555 1_555
C36 N5 1_555 1_555
C37 C39 1_555 1_555
C38 C36 1_555 1_555
C39 C35 1_555 1_555
C40 H36 1_555 1_555
C41 C37 1_555 1_555
C42 C38 1_555 1_555
C43 N5 1_555 1_555
C44 C38 1_555 1_555
C45 C34 1_555 1_555
C46 N6 1_555 1_555
C47 C44 1_555 1_555
H37 C47 1_555 1_555
C48 C35 1_555 1_555
H38 C48 1_555 1_555
C49 C36 1_555 1_555
C50 N7 1_555 1_555
C51 C40 1_555 1_555
H39 C51 1_555 1_555
C52 C47 1_555 1_555
H40 C52 1_555 1_555
C53 H41 1_555 1_555
H42 C53 1_555 1_555
H43 C53 1_555 1_555
C54 C41 1_555 1_555
H44 C54 1_555 1_555
C55 C37 1_555 1_555
H45 C55 1_555 1_555
H46 C55 1_555 1_555
H47 C55 1_555 1_555
C56 O8 1_555 1_555
C57 N6 1_555 1_555
C58 N8 1_555 1_555
C59 H48 1_555 1_555
C60 N8 1_555 1_555
H49 C60 1_555 1_555
H50 C60 1_555 1_555
H51 C60 1_555 1_555
C61 C56 1_555 1_555
H52 C61 1_555 1_555
H53 C61 1_555 1_555
H54 C61 1_555 1_555
C62 C58 1_555 1_555
C63 C59 1_555 1_555
H55 C63 1_555 1_555
C64 C33 1_555 1_555
H56 C64 1_555 1_555
F2 C62 1_555 1_555
O10 H57 1_555 1_555
C65 O10 1_555 1_555
H58 C65 1_555 1_555
H59 C65 1_555 1_555
H60 C65 1_555 1_555
O11 H61 1_555 1_555
H62 O11 1_555 1_555
O12 H63 1_555 1_555
C66 O12 1_555 1_555
H64 C66 1_555 1_555
H65 C66 1_555 1_555
H66 C66 1_555 1_555
C2 C3 1_555 1_555
C4 C26 1_555 1_555
C6 C9 1_555 1_555
C10 C22 1_555 1_555
C12 C15 1_555 1_555
C14 C20 1_555 1_555
C16 C23 1_555 1_555
C17 C23 1_555 1_555
C18 C20 1_555 1_555
C21 C27 1_555 1_555
C29 C30 1_555 1_555
C33 C58 1_555 1_555
C34 C43 1_555 1_555
C39 C44 1_555 1_555
C40 C42 1_555 1_555
C42 C43 1_555 1_555
C45 C51 1_555 1_555
C45 C56 1_555 1_555
C48 C54 1_555 1_555
C49 C50 1_555 1_555
C49 C52 1_555 1_555
C53 C56 1_555 1_555
C59 C62 1_555 1_555
C63 C64 1_555 1_555

#END
