
#######################################################################
#
#                 Cambridge Crystallographic Data Centre
#                                CCDC 
#
#######################################################################
#
# If this CIF has been generated from an entry in the Cambridge 
# Structural Database, then it will include bibliographic, chemical, 
# crystal, experimental, refinement or atomic coordinate data resulting 
# from the CCDC's data processing and validation procedures.
#
#######################################################################

data_EVUZAY
_chemical_formula_moiety         'C32 H31 F1 N4 O4,C1 H4 O1,H2 O1'
_chemical_name_systematic        
'5-(3-(8-fluoro-1-methyl-2,4-dioxo-1,4-dihydroquinazolin-3(2H)-yl)-2-methylphenyl)-2-(2-hydroxypropan-2-yl)-2,3,4,9-tetrahydro-1H-carbazole-8-carboxamide methanol solvate monohydrate'
_symmetry_cell_setting           orthorhombic
_symmetry_space_group_name_H-M   'P 21 21 21'
_symmetry_Int_Tables_number      19
_space_group_name_Hall           'P 2ac 2ab'
loop_
_symmetry_equiv_pos_site_id
_symmetry_equiv_pos_as_xyz
1 x,y,z
2 1/2-x,-y,1/2+z
3 -x,1/2+y,1/2-z
4 1/2+x,1/2-y,-z
_cell_length_a                   9.5406(4)
_cell_length_b                   12.3235(6)
_cell_length_c                   25.6457(10)
_cell_angle_alpha                90
_cell_angle_beta                 90
_cell_angle_gamma                90
_cell_volume                     3015.26
_exptl_crystal_colour            colorless
_exptl_crystal_description       prism
_cell_formula_units_Z            4
loop_
_atom_site_label
_atom_site_type_symbol
_atom_site_fract_x
_atom_site_fract_y
_atom_site_fract_z
N1 N 0.23269(17) 0.88654(14) 0.32700(6)
H1 H 0.2570 0.9257 0.3538
C1 C 0.0886(2) 0.74053(18) 0.37110(8)
C2 C 0.1524(2) 0.79460(17) 0.32888(7)
C3 C 0.2135(2) 0.82959(18) 0.24397(7)
C4 C 0.0062(2) 0.60510(17) 0.30924(7)
H2 H -0.0398 0.5387 0.3035
C5 C 0.2691(2) 0.90737(17) 0.27559(7)
C6 C 0.3617(2) 0.99808(19) 0.25944(8)
H3 H 0.4565 0.9863 0.2730
H4 H 0.3263 1.0665 0.2737
C7 C 0.1368(2) 0.75619(17) 0.27676(7)
C8 C 0.0602(2) 0.66182(17) 0.26700(8)
C9 C 0.4771(2) 1.08332(18) 0.17823(8)
C10 C 0.3778(2) 0.89107(19) 0.17634(8)
H5 H 0.4598 0.8545 0.1912
H6 H 0.3920 0.8968 0.1386
C11 C 0.2474(2) 0.82339(18) 0.18703(8)
H7 H 0.1685 0.8510 0.1665
H8 H 0.2642 0.7478 0.1770
C12 C 0.0187(2) 0.64452(18) 0.35992(8)
H9 H -0.0215 0.6049 0.3874
C13 C 0.3657(2) 1.00437(18) 0.19950(8)
H10 H 0.2736 1.0332 0.1884
O1 O 0.44515(18) 1.09230(14) 0.12342(6)
H11 H 0.4888 1.1443 0.1108
C14 C 0.6249(2) 1.0397(2) 0.18310(10)
H12 H 0.6326 0.9721 0.1640
H13 H 0.6464 1.0271 0.2196
H14 H 0.6904 1.0921 0.1689
C15 C 0.4652(3) 1.1941(2) 0.20332(10)
H15 H 0.5292 1.2440 0.1863
H16 H 0.4888 1.1888 0.2400
H17 H 0.3700 1.2207 0.1997
C16 C 0.0990(2) 0.78467(18) 0.42502(8)
O2 O 0.19625(15) 0.84695(13) 0.43792(5)
N2 N 0.0004(2) 0.75612(18) 0.45844(7)
H18 H 0.0022 0.7808 0.4902
H19 H -0.0665 0.7126 0.4487
C17 C -0.0648(2) 0.68475(17) 0.18210(8)
C18 C -0.1441(2) 0.78019(19) 0.20398(8)
H20 H -0.1040 0.8470 0.1906
H21 H -0.1375 0.7796 0.2417
H22 H -0.2417 0.7754 0.1937
C19 C 0.1005(2) 0.53760(18) 0.19110(8)
H23 H 0.1631 0.4976 0.2119
C20 C -0.0864(2) 0.65045(18) 0.13089(8)
C21 C 0.0321(2) 0.62626(17) 0.21220(7)
C22 C 0.0781(2) 0.5068(2) 0.13975(9)
H24 H 0.1269 0.4474 0.1256
C23 C -0.0159(2) 0.56363(18) 0.10952(8)
H25 H -0.0318 0.5434 0.0747
N3 N -0.19143(18) 0.70743(15) 0.09986(7)
C24 C -0.1513(2) 0.8077(2) 0.07862(8)
N4 N -0.2565(2) 0.86907(15) 0.05633(7)
C25 C -0.3243(2) 0.66323(19) 0.09761(8)
C26 C -0.5700(2) 0.6942(2) 0.07327(8)
H26 H -0.5907 0.6251 0.0867
C27 C -0.6760(3) 0.7578(2) 0.05354(9)
H27 H -0.7692 0.7331 0.0535
C28 C -0.3956(2) 0.83394(19) 0.05422(8)
C29 C -0.4318(2) 0.73156(18) 0.07353(8)
C30 C -0.6425(3) 0.8592(2) 0.03371(9)
H28 H -0.7135 0.9032 0.0196
C31 C -0.5076(3) 0.89576(19) 0.03441(8)
O3 O -0.34905(17) 0.57411(13) 0.11620(6)
O4 O -0.03020(18) 0.83648(15) 0.08058(7)
C32 C -0.2107(3) 0.9735(2) 0.03405(12)
H29 H -0.2510 1.0326 0.0541
H30 H -0.2418 0.9786 -0.0019
H31 H -0.1093 0.9781 0.0353
F1 F -0.48397(16) 0.99703(11) 0.01584(5)
O5 O 0.77067(18) 0.61253(16) 0.45444(6)
H32 H 0.7295 0.6154 0.4864
H33 H 0.6977 0.5992 0.4323
O6 O 0.46360(17) 0.77502(13) 0.42688(6)
H34 H 0.3821 0.7985 0.4269
C33 C 0.5578(3) 0.8615(2) 0.41856(14)
H35 H 0.5465 0.9150 0.4460
H36 H 0.5386 0.8948 0.3850
H37 H 0.6531 0.8341 0.4189
loop_
_geom_bond_atom_site_label_1
_geom_bond_atom_site_label_2
_geom_bond_site_symmetry_1
_geom_bond_site_symmetry_2
N1 H1 1_555 1_555
C1 C2 1_555 1_555
C2 N1 1_555 1_555
C3 C5 1_555 1_555
C4 H2 1_555 1_555
C5 N1 1_555 1_555
C6 C5 1_555 1_555
H3 C6 1_555 1_555
H4 C6 1_555 1_555
C7 C2 1_555 1_555
C8 C4 1_555 1_555
C9 C13 1_555 1_555
C10 H5 1_555 1_555
H6 C10 1_555 1_555
C11 C3 1_555 1_555
H7 C11 1_555 1_555
H8 C11 1_555 1_555
C12 C1 1_555 1_555
H9 C12 1_555 1_555
C13 C6 1_555 1_555
H10 C13 1_555 1_555
O1 C9 1_555 1_555
H11 O1 1_555 1_555
C14 C9 1_555 1_555
H12 C14 1_555 1_555
H13 C14 1_555 1_555
H14 C14 1_555 1_555
C15 C9 1_555 1_555
H15 C15 1_555 1_555
H16 C15 1_555 1_555
H17 C15 1_555 1_555
C16 C1 1_555 1_555
O2 C16 1_555 1_555
N2 C16 1_555 1_555
H18 N2 1_555 1_555
H19 N2 1_555 1_555
C17 C18 1_555 1_555
C18 H20 1_555 1_555
H21 C18 1_555 1_555
H22 C18 1_555 1_555
C19 H23 1_555 1_555
C20 C17 1_555 1_555
C21 C8 1_555 1_555
C22 C19 1_555 1_555
H24 C22 1_555 1_555
C23 C20 1_555 1_555
H25 C23 1_555 1_555
N3 C20 1_555 1_555
C24 N3 1_555 1_555
N4 C24 1_555 1_555
C25 N3 1_555 1_555
C26 H26 1_555 1_555
C27 C26 1_555 1_555
H27 C27 1_555 1_555
C28 N4 1_555 1_555
C29 C25 1_555 1_555
C30 C27 1_555 1_555
H28 C30 1_555 1_555
C31 C28 1_555 1_555
O3 C25 1_555 1_555
O4 C24 1_555 1_555
C32 N4 1_555 1_555
H29 C32 1_555 1_555
H30 C32 1_555 1_555
H31 C32 1_555 1_555
F1 C31 1_555 1_555
O5 H32 1_555 1_555
H33 O5 1_555 1_555
O6 H34 1_555 1_555
C33 O6 1_555 1_555
H35 C33 1_555 1_555
H36 C33 1_555 1_555
H37 C33 1_555 1_555
C3 C7 1_555 1_555
C4 C12 1_555 1_555
C7 C8 1_555 1_555
C10 C11 1_555 1_555
C10 C13 1_555 1_555
C17 C21 1_555 1_555
C19 C21 1_555 1_555
C22 C23 1_555 1_555
C26 C29 1_555 1_555
C28 C29 1_555 1_555
C30 C31 1_555 1_555

#END
