
#######################################################################
#
#                 Cambridge Crystallographic Data Centre
#                                CCDC 
#
#######################################################################
#
# If this CIF has been generated from an entry in the Cambridge 
# Structural Database, then it will include bibliographic, chemical, 
# crystal, experimental, refinement or atomic coordinate data resulting 
# from the CCDC's data processing and validation procedures.
#
#######################################################################

data_EVUZIG
_chemical_formula_moiety         'C32 H30 F2 N4 O4,2(C1 H4 O1)'
_chemical_name_systematic        
'6-fluoro-5-(3-(8-fluoro-1-methyl-2,4-dioxo-1,4-dihydroquinazolin-3(2H)-yl)-2-methylphenyl)-2-(2-hydroxypropan-2-yl)-2,3,4,9-tetrahydro-1H-carbazole-8-carboxamide methanol solvate'
_chemical_properties_biological  bioactivity
_symmetry_cell_setting           monoclinic
_symmetry_space_group_name_H-M   'P 21'
_symmetry_Int_Tables_number      4
_space_group_name_Hall           'P 2yb'
loop_
_symmetry_equiv_pos_site_id
_symmetry_equiv_pos_as_xyz
1 x,y,z
2 -x,1/2+y,-z
_cell_length_a                   9.2368(4)
_cell_length_b                   7.9738(3)
_cell_length_c                   22.1231(8)
_cell_angle_alpha                90
_cell_angle_beta                 94.084(2)
_cell_angle_gamma                90
_cell_volume                     1625.28
_exptl_crystal_colour            colorless
_exptl_crystal_description       prism
_cell_formula_units_Z            2
loop_
_atom_site_label
_atom_site_type_symbol
_atom_site_fract_x
_atom_site_fract_y
_atom_site_fract_z
N1 N 0.6027(2) 0.4043(3) 0.87471(8)
H1 H 0.6019 0.3275 0.9032
C1 C 0.2768(3) 0.3960(3) 0.76720(10)
H2 H 0.1872 0.3411 0.7566
C2 C 0.5405(2) 0.5639(3) 0.79286(10)
C3 C 0.4971(2) 0.4268(3) 0.82872(10)
C4 C 0.4480(3) 0.6188(3) 0.74364(10)
C5 C 0.3664(2) 0.3398(3) 0.81608(10)
C6 C 0.3187(3) 0.5329(3) 0.73389(10)
C7 C 1.0794(3) 0.6873(3) 0.93542(11)
C8 C 0.6792(3) 0.6199(3) 0.81953(10)
C9 C 0.8425(3) 0.5311(3) 0.91169(11)
H3 H 0.9049 0.4324 0.9057
H4 H 0.8136 0.5288 0.9539
C10 C 0.9312(3) 0.7276(3) 0.83326(11)
H5 H 0.9925 0.8273 0.8273
H6 H 0.9760 0.6309 0.8136
C11 C 0.9282(3) 0.6926(3) 0.90118(11)
H7 H 0.8737 0.7869 0.9189
C12 C 0.7800(3) 0.7581(3) 0.80270(11)
H8 H 0.7426 0.8676 0.8158
H9 H 0.7850 0.7612 0.7582
C13 C 0.7107(3) 0.5221(3) 0.86900(11)
O1 O 1.13784(17) 0.8544(2) 0.93029(7)
H10 H 1.2202 0.8591 0.9489
C14 C 0.3278(3) 0.2005(3) 0.85666(11)
C15 C 1.0688(3) 0.6483(3) 1.00209(11)
H11 H 1.1640 0.6644 1.0239
H12 H 1.0377 0.5318 1.0066
H13 H 0.9980 0.7236 1.0188
C16 C 1.1824(3) 0.5649(4) 0.90770(13)
H14 H 1.2010 0.6022 0.8668
H15 H 1.1384 0.4530 0.9057
H16 H 1.2741 0.5606 0.9328
O2 O 0.40771(19) 0.1697(2) 0.90295(8)
N2 N 0.2071(2) 0.1124(3) 0.84259(10)
H17 H 0.1824 0.0302 0.8663
H18 H 0.1523 0.1365 0.8096
C17 C 0.5681(3) 1.0435(3) 0.64055(11)
H19 H 0.5970 1.1384 0.6184
C18 C 0.4864(2) 0.7640(3) 0.70522(10)
C19 C 0.4315(3) 0.9224(3) 0.71720(11)
H20 H 0.3659 0.9350 0.7480
C20 C 0.5825(2) 0.7435(3) 0.65937(10)
C21 C 0.4710(3) 1.0613(3) 0.68504(12)
H21 H 0.4319 1.1683 0.6933
C22 C 0.6221(2) 0.8874(3) 0.62877(10)
C23 C 0.6432(3) 0.5752(3) 0.64445(12)
H22 H 0.6198 0.5505 0.6015
H23 H 0.6007 0.4890 0.6693
H24 H 0.7488 0.5763 0.6528
N3 N 0.73360(19) 0.8729(3) 0.58577(8)
C24 C 0.8767(2) 0.8784(3) 0.60953(10)
C25 C 0.9864(2) 0.8571(3) 0.56625(11)
N4 N 0.7979(2) 0.8380(3) 0.48510(8)
C26 C 0.9454(3) 0.8370(3) 0.50482(11)
C27 C 1.1314(3) 0.8568(4) 0.58847(13)
H25 H 1.1555 0.8713 0.6306
C28 C 1.0591(3) 0.8157(4) 0.46695(12)
C29 C 1.2023(3) 0.8160(4) 0.48922(15)
H26 H 1.2765 0.8024 0.4620
C30 C 0.6899(3) 0.8520(3) 0.52429(10)
C31 C 1.2397(3) 0.8355(5) 0.54966(14)
H27 H 1.3387 0.8345 0.5646
O3 O 0.90381(18) 0.8976(3) 0.66388(7)
O4 O 0.56177(18) 0.8481(3) 0.50802(8)
C32 C 0.7483(3) 0.8261(6) 0.42066(12)
H28 H 0.7762 0.7169 0.4048
H29 H 0.7932 0.9156 0.3981
H30 H 0.6425 0.8377 0.4161
F1 F 0.22286(15) 0.58720(19) 0.68789(6)
F2 F 1.0324(2) 0.7901(3) 0.40704(8)
O5 O 0.42123(18) 0.9010(2) 0.97752(7)
H31 H 0.4055 0.9909 0.9583
C33 C 0.5326(3) 0.8101(4) 0.95125(14)
H32 H 0.6274 0.8519 0.9673
H33 H 0.5233 0.8246 0.9072
H34 H 0.5241 0.6908 0.9611
O6 O 0.9799(2) 0.1497(3) 0.74725(10)
H35 H 0.9598 0.0732 0.7219
C34 C 0.8561(5) 0.2372(6) 0.7577(2)
H36 H 0.8799 0.3277 0.7867
H37 H 0.7856 0.1612 0.7744
H38 H 0.8143 0.2849 0.7195
loop_
_geom_bond_atom_site_label_1
_geom_bond_atom_site_label_2
_geom_bond_site_symmetry_1
_geom_bond_site_symmetry_2
N1 H1 1_555 1_555
C1 H2 1_555 1_555
C2 C3 1_555 1_555
C3 N1 1_555 1_555
C4 C2 1_555 1_555
C5 C1 1_555 1_555
C6 C1 1_555 1_555
C7 C11 1_555 1_555
C8 C2 1_555 1_555
C9 H3 1_555 1_555
H4 C9 1_555 1_555
C10 H5 1_555 1_555
H6 C10 1_555 1_555
C11 C9 1_555 1_555
H7 C11 1_555 1_555
C12 C8 1_555 1_555
H8 C12 1_555 1_555
H9 C12 1_555 1_555
C13 N1 1_555 1_555
O1 C7 1_555 1_555
H10 O1 1_555 1_555
C14 C5 1_555 1_555
C15 C7 1_555 1_555
H11 C15 1_555 1_555
H12 C15 1_555 1_555
H13 C15 1_555 1_555
C16 C7 1_555 1_555
H14 C16 1_555 1_555
H15 C16 1_555 1_555
H16 C16 1_555 1_555
O2 C14 1_555 1_555
N2 C14 1_555 1_555
H17 N2 1_555 1_555
H18 N2 1_555 1_555
C17 H19 1_555 1_555
C18 C4 1_555 1_555
C19 C18 1_555 1_555
H20 C19 1_555 1_555
C20 C18 1_555 1_555
C21 C17 1_555 1_555
H21 C21 1_555 1_555
C22 C17 1_555 1_555
C23 C20 1_555 1_555
H22 C23 1_555 1_555
H23 C23 1_555 1_555
H24 C23 1_555 1_555
N3 C22 1_555 1_555
C24 N3 1_555 1_555
C25 C24 1_555 1_555
N4 C26 1_555 1_555
C26 C25 1_555 1_555
C27 C25 1_555 1_555
H25 C27 1_555 1_555
C28 C26 1_555 1_555
C29 C28 1_555 1_555
H26 C29 1_555 1_555
C30 N3 1_555 1_555
C31 C27 1_555 1_555
H27 C31 1_555 1_555
O3 C24 1_555 1_555
O4 C30 1_555 1_555
C32 N4 1_555 1_555
H28 C32 1_555 1_555
H29 C32 1_555 1_555
H30 C32 1_555 1_555
F1 C6 1_555 1_555
F2 C28 1_555 1_555
O5 H31 1_555 1_555
C33 O5 1_555 1_555
H32 C33 1_555 1_555
H33 C33 1_555 1_555
H34 C33 1_555 1_555
O6 H35 1_555 1_555
C34 O6 1_555 1_555
H36 C34 1_555 1_555
H37 C34 1_555 1_555
H38 C34 1_555 1_555
C3 C5 1_555 1_555
C4 C6 1_555 1_555
C8 C13 1_555 1_555
C9 C13 1_555 1_555
C10 C11 1_555 1_555
C10 C12 1_555 1_555
C19 C21 1_555 1_555
C20 C22 1_555 1_555
N4 C30 1_555 1_555
C29 C31 1_555 1_555

#END
