
#######################################################################
#
#                 Cambridge Crystallographic Data Centre
#                                CCDC 
#
#######################################################################
#
# If this CIF has been generated from an entry in the Cambridge 
# Structural Database, then it will include bibliographic, chemical, 
# crystal, experimental, refinement or atomic coordinate data resulting 
# from the CCDC's data processing and validation procedures.
#
#######################################################################

data_EVUZEC
_chemical_formula_moiety         
'C32 H30 Cl1 F1 N4 O4,0.12(C1 H3 N1 O2),1.64(H2 O1)'
_chemical_name_systematic        
'6-chloro-5-(3-(8-fluoro-1-methyl-2,4-dioxo-1,4-dihydroquinazolin-3(2H)-yl)-2-methylphenyl)-2-(2-hydroxypropan-2-yl)-2,3,4,9-tetrahydro-1H-carbazole-8-carboxamide nitromethane solvate hydrate'
_symmetry_cell_setting           triclinic
_symmetry_space_group_name_H-M   'P 1'
_symmetry_Int_Tables_number      1
_space_group_name_Hall           'P 1'
loop_
_symmetry_equiv_pos_site_id
_symmetry_equiv_pos_as_xyz
1 x,y,z
_cell_length_a                   11.5496(4)
_cell_length_b                   12.3249(3)
_cell_length_c                   43.6874(12)
_cell_angle_alpha                90.410(2)
_cell_angle_beta                 93.892(2)
_cell_angle_gamma                90.007(2)
_cell_volume                     6204.3
_exptl_crystal_colour            colorless
_exptl_crystal_description       plate
_cell_formula_units_Z            8
loop_
_atom_site_label
_atom_site_type_symbol
_atom_site_fract_x
_atom_site_fract_y
_atom_site_fract_z
Cl1 Cl 0.27179(15) 1.14631(10) 0.15013(3)
N1 N 0.2150(4) 0.8145(3) 0.24229(9)
H1 H 0.1982 0.8165 0.2616
C1 C 0.2242(5) 0.9020(4) 0.22370(11)
C2 C 0.2089(5) 1.0128(4) 0.23049(11)
C3 C 0.2236(5) 1.0844(4) 0.20664(12)
H2 H 0.2134 1.1599 0.2100
C4 C 0.2529(5) 1.0477(4) 0.17789(11)
C5 C 0.2661(5) 0.9391(4) 0.17058(11)
C6 C 0.2521(4) 0.8649(4) 0.19422(11)
C7 C 0.2595(5) 0.7482(4) 0.19627(10)
C8 C 0.2940(5) 0.6640(4) 0.17357(11)
H3 H 0.3784 0.6688 0.1712
H4 H 0.2528 0.6775 0.1533
C9 C 0.2640(5) 0.5511(4) 0.18458(12)
H5 H 0.3022 0.4964 0.1720
H6 H 0.1791 0.5401 0.1815
C10 C 0.3019(5) 0.5328(4) 0.21877(12)
H7 H 0.3855 0.5541 0.2217
C11 C 0.2339(6) 0.6107(4) 0.23855(12)
H8 H 0.1525 0.5857 0.2390
H9 H 0.2689 0.6115 0.2599
C12 C 0.2364(5) 0.7219(4) 0.22556(11)
C13 C 0.2942(6) 0.4134(4) 0.22822(13)
O1 O 0.1775(4) 0.3710(3) 0.22114(8)
H10 H 0.1630 0.3675 0.2002
C14 C 0.3166(7) 0.3987(4) 0.26267(14)
H11 H 0.2554 0.4351 0.2733
H12 H 0.3921 0.4303 0.2694
H13 H 0.3168 0.3211 0.2675
C15 C 0.3804(7) 0.3445(5) 0.21138(16)
H14 H 0.3807 0.2703 0.2193
H15 H 0.4583 0.3757 0.2147
H16 H 0.3574 0.3434 0.1894
C16 C 0.1794(5) 1.0483(4) 0.26157(12)
O2 O 0.1898(5) 0.9850(3) 0.28350(9)
N2 N 0.1401(5) 1.1491(4) 0.26453(11)
H17 H 0.1205 1.1728 0.2825
H18 H 0.1336 1.1921 0.2485
C17 C 0.2971(5) 0.9050(4) 0.13939(11)
C18 C 0.2165(5) 0.8553(4) 0.11849(11)
C19 C 0.2545(5) 0.8267(4) 0.08988(11)
C20 C 0.3639(5) 0.8512(4) 0.08142(11)
H19 H 0.3858 0.8324 0.0615
C21 C 0.4421(5) 0.9034(4) 0.10200(12)
H20 H 0.5174 0.9221 0.0963
C22 C 0.4086(5) 0.9276(4) 0.13086(11)
H21 H 0.4628 0.9606 0.1454
C23 C 0.0947(5) 0.8361(4) 0.12624(12)
H22 H 0.0414 0.8593 0.1091
H23 H 0.0791 0.8777 0.1447
H24 H 0.0833 0.7586 0.1300
N3 N 0.1771(4) 0.7688(3) 0.06765(9)
C24 C 0.1277(5) 0.8293(5) 0.04288(12)
N4 N 0.0724(4) 0.7716(4) 0.01931(10)
C25 C 0.0607(5) 0.6592(5) 0.02004(13)
C26 C 0.0143(6) 0.5954(6) -0.00471(15)
C27 C 0.0018(7) 0.4873(6) -0.00296(18)
H25 H -0.0308 0.4476 -0.0202
C28 C 0.0361(7) 0.4339(6) 0.02373(19)
H26 H 0.0243 0.3578 0.0250
C29 C 0.0866(6) 0.4886(5) 0.04819(16)
H27 H 0.1123 0.4511 0.0663
C30 C 0.1003(5) 0.6013(4) 0.04623(13)
C31 C 0.1646(5) 0.6580(4) 0.07133(12)
O3 O 0.2066(5) 0.6146(3) 0.09441(9)
O4 O 0.1360(4) 0.9269(3) 0.04294(9)
C32 C 0.0085(7) 0.8362(6) -0.00465(15)
H28 H 0.0036 0.9117 0.0023
H29 H -0.0699 0.8065 -0.0086
H30 H 0.0494 0.8331 -0.0236
F1 F -0.0148(5) 0.6440(4) -0.03205(10)
Cl2 Cl 0.69493(14) 1.03694(11) 0.16455(3)
N5 N 0.8542(4) 0.6570(3) 0.09977(10)
H31 H 0.8751 0.6443 0.0811
C33 C 0.8109(5) 0.7523(4) 0.10998(11)
C34 C 0.7894(5) 0.8506(4) 0.09500(12)
C35 C 0.7537(5) 0.9375(4) 0.11247(12)
H32 H 0.7408 1.0063 0.1032
C36 C 0.7369(5) 0.9246(4) 0.14335(12)
C37 C 0.7490(5) 0.8261(4) 0.15815(12)
C38 C 0.7883(5) 0.7386(4) 0.14137(12)
C39 C 0.8195(5) 0.6277(4) 0.14892(13)
C40 C 0.8131(6) 0.5660(5) 0.17817(13)
H33 H 0.7335 0.5375 0.1797
H34 H 0.8318 0.6147 0.1959
C41 C 0.8982(6) 0.4735(5) 0.17854(13)
H35 H 0.8849 0.4264 0.1962
H36 H 0.9777 0.5034 0.1817
C42 C 0.8910(6) 0.4034(5) 0.14918(13)
H37 H 0.8099 0.3747 0.1464
C43 C 0.9114(6) 0.4719(5) 0.12090(13)
H38 H 0.9958 0.4783 0.1186
H39 H 0.8759 0.4353 0.1023
C44 C 0.8601(5) 0.5834(4) 0.12364(13)
C45 C 0.9735(6) 0.3036(4) 0.15194(14)
O5 O 1.0892(4) 0.3426(3) 0.16018(9)
H40 H 1.1271 0.3557 0.1427
C46 C 0.9725(8) 0.2388(5) 0.12183(17)
H41 H 1.0033 0.2839 0.1059
H42 H 0.8928 0.2172 0.1155
H43 H 1.0209 0.1739 0.1249
C47 C 0.9449(7) 0.2296(5) 0.17791(17)
H44 H 0.9946 0.1652 0.1779
H45 H 0.8633 0.2075 0.1752
H46 H 0.9582 0.2683 0.1975
C48 C 0.8010(5) 0.8569(4) 0.06113(12)
O6 O 0.8416(4) 0.7789(3) 0.04744(9)
N6 N 0.7641(5) 0.9468(4) 0.04658(11)
H47 H 0.7682 0.9518 0.0266
H48 H 0.7357 1.0008 0.0570
C49 C 0.7173(5) 0.8121(4) 0.19063(11)
C50 C 0.8041(5) 0.8197(4) 0.21488(12)
C51 C 0.7698(5) 0.7986(4) 0.24432(12)
C52 C 0.6579(5) 0.7745(5) 0.24966(13)
H49 H 0.6381 0.7616 0.2701
C53 C 0.5726(6) 0.7684(6) 0.22589(13)
H50 H 0.4947 0.7512 0.2297
C54 C 0.6040(5) 0.7881(5) 0.19636(13)
H51 H 0.5465 0.7849 0.1798
C55 C 0.9271(5) 0.8485(6) 0.20911(13)
H52 H 0.9678 0.7835 0.2025
H53 H 0.9665 0.8774 0.2280
H54 H 0.9273 0.9034 0.1930
N7 N 0.8570(4) 0.8034(3) 0.26991(9)
C56 C 0.8624(5) 0.9004(4) 0.28662(12)
N8 N 0.9428(4) 0.9073(4) 0.31113(10)
C57 C 1.0098(5) 0.8165(5) 0.32094(12)
C58 C 1.0823(5) 0.8152(5) 0.34799(12)
C59 C 1.1433(5) 0.7251(6) 0.35712(13)
H55 H 1.1918 0.7273 0.3756
C60 C 1.1356(6) 0.6323(5) 0.34016(14)
H56 H 1.1786 0.5700 0.3467
C61 C 1.0654(6) 0.6288(5) 0.31337(13)
H57 H 1.0605 0.5643 0.3013
C62 C 1.0010(5) 0.7209(4) 0.30397(12)
C63 C 0.9228(5) 0.7141(4) 0.27634(12)
O7 O 0.9132(4) 0.6327(3) 0.25946(9)
O8 O 0.7992(4) 0.9759(3) 0.27858(10)
C64 C 0.9589(6) 1.0155(5) 0.32518(15)
H58 H 0.9178 1.0696 0.3122
H59 H 1.0419 1.0332 0.3272
H60 H 0.9279 1.0160 0.3455
F2 F 1.0908(3) 0.9040(3) 0.36642(7)
Cl3 Cl 0.58451(15) 0.62018(11) 0.42934(3)
N9 N 0.3450(4) 0.9365(3) 0.34880(9)
H61 H 0.3217 0.9368 0.3292
C65 C 0.4014(5) 0.8525(4) 0.36404(12)
C66 C 0.4327(5) 0.7496(4) 0.35330(12)
C67 C 0.4862(5) 0.6803(4) 0.37480(13)
H62 H 0.5075 0.6094 0.3687
C68 C 0.5092(5) 0.7126(4) 0.40504(12)
C69 C 0.4807(5) 0.8138(4) 0.41643(11)
C70 C 0.4235(5) 0.8844(4) 0.39528(11)
C71 C 0.3778(5) 0.9929(4) 0.39772(11)
C72 C 0.3733(5) 1.0685(4) 0.42467(11)
H63 H 0.4504 1.1022 0.4292
H64 H 0.3532 1.0273 0.4429
C73 C 0.2833(5) 1.1561(4) 0.41771(12)
H65 H 0.2908 1.2126 0.4339
H66 H 0.2048 1.1241 0.4179
C74 C 0.2975(5) 1.2083(4) 0.38648(11)
H67 H 0.3816 1.2269 0.3860
C75 C 0.2716(5) 1.1240(4) 0.36099(12)
H68 H 0.1869 1.1117 0.3581
H69 H 0.2991 1.1510 0.3415
C76 C 0.3310(5) 1.0208(4) 0.36943(11)
C77 C 0.2304(5) 1.3161(4) 0.38169(12)
O9 O 0.2398(4) 1.3525(3) 0.35053(9)
H70 H 0.1744 1.3315 0.3387
C78 C 0.2822(7) 1.4059(5) 0.40296(16)
H71 H 0.3654 1.4125 0.4003
H72 H 0.2706 1.3875 0.4243
H73 H 0.2437 1.4749 0.3979
C79 C 0.1030(6) 1.3041(6) 0.38581(15)
H74 H 0.0629 1.3716 0.3799
H75 H 0.0915 1.2885 0.4074
H76 H 0.0715 1.2444 0.3729
C80 C 0.4125(7) 0.7209(5) 0.32035(13)
O10 O 0.3772(8) 0.7872(4) 0.30168(11)
N10 N 0.4355(5) 0.6201(4) 0.31171(12)
H77 H 0.4250 0.6011 0.2923
H78 H 0.4612 0.5724 0.3254
C81 C 0.5184(5) 0.8509(4) 0.44824(11)
C82 C 0.4763(5) 0.8063(4) 0.47489(11)
C83 C 0.5250(5) 0.8461(4) 0.50278(11)
C84 C 0.6084(5) 0.9259(4) 0.50517(12)
H79 H 0.6390 0.9506 0.5247
C85 C 0.6468(5) 0.9692(4) 0.47885(12)
H80 H 0.7037 1.0249 0.4800
C86 C 0.6022(5) 0.9315(4) 0.45079(12)
H81 H 0.6297 0.9614 0.4327
C87 C 0.3843(6) 0.7202(4) 0.47389(13)
H82 H 0.4203 0.6496 0.4783
H83 H 0.3438 0.7183 0.4534
H84 H 0.3287 0.7366 0.4893
N11 N 0.4885(4) 0.8026(3) 0.53140(9)
C88 C 0.5482(5) 0.7123(4) 0.54313(12)
N12 N 0.5192(5) 0.6747(4) 0.57123(10)
C89 C 0.4364(6) 0.7267(5) 0.58781(12)
C90 C 0.4050(8) 0.6945(6) 0.61684(15)
C91 C 0.3201(11) 0.7473(8) 0.63172(18)
H85 H 0.3033 0.7240 0.6516
C92 C 0.2581(10) 0.8339(7) 0.61852(18)
H86 H 0.1961 0.8666 0.6285
C93 C 0.2893(8) 0.8702(6) 0.59093(16)
H87 H 0.2516 0.9319 0.5819
C94 C 0.3766(6) 0.8175(5) 0.57560(13)
C95 C 0.4062(5) 0.8619(4) 0.54627(12)
O11 O 0.3644(4) 0.9443(3) 0.53527(9)
O12 O 0.6219(5) 0.6689(4) 0.52860(10)
C96 C 0.5820(7) 0.5765(6) 0.58204(16)
H88 H 0.6342 0.5527 0.5666
H89 H 0.5261 0.5187 0.5855
H90 H 0.6273 0.5929 0.6013
F3 F 0.4616(6) 0.6094(4) 0.63156(10)
Cl4 Cl 1.03637(15) 0.59574(11) 0.42888(4)
N13 N 0.7343(4) 0.9135(3) 0.36529(9)
H91 H 0.6859 0.9110 0.3489
C97 C 0.7984(5) 0.8277(4) 0.37719(11)
C98 C 0.8057(5) 0.7209(4) 0.36651(12)
C99 C 0.8807(5) 0.6526(4) 0.38307(13)
H92 H 0.8895 0.5799 0.3763
C100 C 0.9433(5) 0.6880(4) 0.40943(12)
C101 C 0.9362(5) 0.7923(4) 0.42111(11)
C102 C 0.8646(5) 0.8646(4) 0.40333(11)
C103 C 0.8375(5) 0.9789(4) 0.40678(11)
C104 C 0.8798(5) 1.0602(4) 0.43051(12)
H93 H 0.9596 1.0833 0.4267
H94 H 0.8815 1.0272 0.4511
C105 C 0.7991(5) 1.1583(4) 0.42925(12)
H95 H 0.8354 1.2176 0.4420
H96 H 0.7254 1.1385 0.4381
C106 C 0.7729(5) 1.1991(4) 0.39652(12)
H97 H 0.8493 1.2073 0.3873
C107 C 0.7046(5) 1.1122(4) 0.37739(12)
H98 H 0.6229 1.1112 0.3829
H99 H 0.7054 1.1293 0.3553
C108 C 0.7585(5) 1.0047(4) 0.38345(11)
C109 C 0.7162(6) 1.3127(5) 0.39621(14)
O13 O 0.6815(5) 1.3418(4) 0.36530(12)
H100 H 0.7388 1.3217 0.3528
C110 C 0.7995(6) 1.3969(5) 0.4100(2)
H101 H 0.8702 1.3968 0.3988
H102 H 0.8192 1.3798 0.4316
H103 H 0.7631 1.4686 0.4085
C111 C 0.6064(6) 1.3140(5) 0.41288(17)
H104 H 0.5709 1.3861 0.4112
H105 H 0.6247 1.2970 0.4346
H106 H 0.5523 1.2597 0.4037
C112 C 0.7383(6) 0.6889(5) 0.33785(13)
O14 O 0.6885(5) 0.7573(4) 0.32136(9)
N14 N 0.7299(6) 0.5827(5) 0.33074(15)
H107 H 0.6885 0.5615 0.3141
H108 H 0.7659 0.5345 0.3427
C113 C 0.9990(5) 0.8293(4) 0.45032(11)
C114 C 0.9572(5) 0.7990(4) 0.47839(11)
C115 C 1.0174(5) 0.8386(4) 0.50501(11)
C116 C 1.1129(5) 0.9056(5) 0.50426(13)
H109 H 1.1499 0.9330 0.5228
C117 C 1.1539(6) 0.9325(5) 0.47660(14)
H110 H 1.2209 0.9769 0.4759
C118 C 1.0971(5) 0.8943(4) 0.44968(13)
H111 H 1.1256 0.9128 0.4305
C119 C 0.8526(5) 0.7287(5) 0.48020(13)
H112 H 0.7877 0.7594 0.4675
H113 H 0.8318 0.7250 0.5015
H114 H 0.8697 0.6556 0.4728
N15 N 0.9776(4) 0.8089(3) 0.53486(9)
C120 C 1.0288(6) 0.7154(4) 0.54772(12)
N16 N 0.9934(5) 0.6862(4) 0.57580(10)
C121 C 0.9038(5) 0.7374(4) 0.58945(12)
C122 C 0.8532(7) 0.7019(5) 0.61575(13)
C123 C 0.7630(7) 0.7577(6) 0.62855(14)
H115 H 0.7329 0.7315 0.6468
C124 C 0.7175(6) 0.8493(5) 0.61528(13)
H116 H 0.6549 0.8864 0.6238
C125 C 0.7648(5) 0.8867(5) 0.58917(13)
H117 H 0.7345 0.9510 0.5798
C126 C 0.8552(5) 0.8331(4) 0.57628(11)
C127 C 0.8994(5) 0.8748(4) 0.54789(12)
O15 O 0.8659(3) 0.9591(3) 0.53617(8)
O16 O 1.1017(5) 0.6668(4) 0.53469(11)
C128 C 1.0602(7) 0.5961(5) 0.59092(15)
H118 H 1.1321 0.5846 0.5807
H119 H 1.0136 0.5296 0.5895
H120 H 1.0789 0.6146 0.6125
F4 F 0.8886(5) 0.6085(3) 0.62947(9)
Cl5 Cl 0.89196(15) 0.44348(11) 0.68372(3)
N17 N 0.6982(4) 0.1294(3) 0.76532(9)
H121 H 0.6846 0.1302 0.7849
C129 C 0.7456(5) 0.2132(4) 0.74983(11)
C130 C 0.7806(5) 0.3163(4) 0.76022(12)
C131 C 0.8221(5) 0.3858(4) 0.73865(12)
H122 H 0.8446 0.4574 0.7446
C132 C 0.8314(5) 0.3521(4) 0.70822(12)
C133 C 0.7982(5) 0.2498(4) 0.69737(11)
C134 C 0.7532(4) 0.1783(4) 0.71892(11)
C135 C 0.7083(5) 0.0697(4) 0.71690(11)
C136 C 0.6939(5) -0.0077(4) 0.69011(11)
H123 H 0.7696 -0.0414 0.6864
H124 H 0.6665 0.0322 0.6714
C137 C 0.6069(5) -0.0952(4) 0.69679(11)
H125 H 0.6082 -0.1528 0.6809
H126 H 0.5280 -0.0635 0.6958
C138 C 0.6337(5) -0.1456(4) 0.72870(11)
H127 H 0.7179 -0.1654 0.7299
C139 C 0.6196(5) -0.0597(4) 0.75387(12)
H128 H 0.5361 -0.0471 0.7565
H129 H 0.6563 -0.0854 0.7736
C140 C 0.6752(5) 0.0429(4) 0.74500(11)
C141 C 0.5661(5) -0.2527(4) 0.73347(12)
O17 O 0.5898(4) -0.2875(3) 0.76507(9)
H130 H 0.6687 -0.2920 0.7692
C142 C 0.6063(7) -0.3439(5) 0.71284(16)
H131 H 0.6901 -0.3545 0.7167
H132 H 0.5892 -0.3245 0.6913
H133 H 0.5656 -0.4111 0.7173
C143 C 0.4370(5) -0.2397(5) 0.72936(14)
H134 H 0.3993 -0.3076 0.7346
H135 H 0.4149 -0.2215 0.7080
H136 H 0.4125 -0.1813 0.7428
C144 C 0.7756(6) 0.3461(5) 0.79304(13)
O18 O 0.7470(7) 0.2805(4) 0.81177(10)
N18 N 0.8000(5) 0.4480(4) 0.80144(12)
H137 H 0.7955 0.4683 0.8207
H138 H 0.8206 0.4950 0.7878
C145 C 0.8209(5) 0.2128(4) 0.66552(11)
C146 C 0.7591(5) 0.2541(4) 0.63902(11)
C147 C 0.7948(5) 0.2149(4) 0.61082(11)
C148 C 0.8813(5) 0.1407(4) 0.60844(12)
H139 H 0.9017 0.1166 0.5888
C149 C 0.9391(5) 0.1010(5) 0.63462(12)
H140 H 0.9996 0.0493 0.6333
C150 C 0.9079(5) 0.1372(4) 0.66277(11)
H141 H 0.9473 0.1094 0.6808
C151 C 0.6640(5) 0.3357(4) 0.64010(12)
H142 H 0.6916 0.4062 0.6333
H143 H 0.6403 0.3423 0.6612
H144 H 0.5975 0.3123 0.6265
N19 N 0.7373(4) 0.2539(3) 0.58249(9)
C152 C 0.7902(6) 0.3424(5) 0.56880(13)
N20 N 0.7417(5) 0.3743(4) 0.54032(10)
C153 C 0.6409(6) 0.3258(5) 0.52684(12)
C154 C 0.5812(8) 0.3619(5) 0.49946(14)
C155 C 0.4841(8) 0.3109(6) 0.48689(14)
H145 H 0.4467 0.3381 0.4685
C156 C 0.4394(7) 0.2215(6) 0.50030(15)
H146 H 0.3717 0.1871 0.4913
C157 C 0.4936(6) 0.1820(5) 0.52686(13)
H147 H 0.4643 0.1195 0.5363
C158 C 0.5930(5) 0.2351(4) 0.53988(11)
C159 C 0.6475(5) 0.1921(4) 0.56863(11)
O19 O 0.6170(3) 0.1090(3) 0.58029(8)
O20 O 0.8721(5) 0.3874(4) 0.58169(10)
C160 C 0.8064(7) 0.4589(6) 0.52552(17)
H148 H 0.8774 0.4759 0.5382
H149 H 0.7583 0.5243 0.5232
H150 H 0.8267 0.4333 0.5053
F5 F 0.6167(6) 0.4527(3) 0.48565(9)
Cl6 Cl 0.34869(14) 0.46434(11) 0.68988(4)
N21 N 0.0719(4) 0.1442(3) 0.75064(9)
H151 H 0.0299 0.1460 0.7667
C161 C 0.1315(5) 0.2302(4) 0.73949(11)
C162 C 0.1433(5) 0.3376(4) 0.75053(12)
C163 C 0.2108(5) 0.4061(4) 0.73452(12)
H152 H 0.2227 0.4786 0.7416
C164 C 0.2621(5) 0.3717(4) 0.70823(12)
C165 C 0.2521(5) 0.2671(4) 0.69665(12)
C166 C 0.1859(4) 0.1940(4) 0.71340(10)
C167 C 0.1580(4) 0.0806(4) 0.70921(11)
C168 C 0.1888(5) -0.0002(4) 0.68557(12)
H153 H 0.2705 -0.0231 0.6896
H154 H 0.1809 0.0334 0.6650
C169 C 0.1098(6) -0.0981(4) 0.68620(12)
H155 H 0.1408 -0.1568 0.6735
H156 H 0.0319 -0.0785 0.6770
C170 C 0.0985(5) -0.1400(4) 0.71873(12)
H157 H 0.1791 -0.1479 0.7283
C171 C 0.0377(5) -0.0550(4) 0.73787(12)
H158 H -0.0465 -0.0542 0.7319
H159 H 0.0484 -0.0731 0.7599
C172 C 0.0893(5) 0.0539(4) 0.73235(11)
C173 C 0.0425(5) -0.2536(4) 0.71874(13)
O21 O 0.0223(5) -0.2847(4) 0.74939(11)
H160 H 0.0897 -0.2777 0.7616
C174 C 0.1203(6) -0.3385(5) 0.7056(2)
H161 H 0.1919 -0.3448 0.7189
H162 H 0.1393 -0.3169 0.6850
H163 H 0.0801 -0.4085 0.7045
C175 C -0.0745(6) -0.2572(5) 0.70123(17)
H164 H -0.1070 -0.3305 0.7022
H165 H -0.0659 -0.2382 0.6798
H166 H -0.1268 -0.2053 0.7103
C176 C 0.0873(5) 0.3691(5) 0.77884(13)
O22 O 0.0431(5) 0.2996(4) 0.79462(9)
N22 N 0.0857(6) 0.4730(5) 0.78645(15)
H167 H 0.0527 0.4940 0.8031
H168 H 0.1177 0.5213 0.7749
C177 C 0.3023(5) 0.2306(4) 0.66777(11)
C178 C 0.2524(5) 0.2622(4) 0.63910(11)
C179 C 0.3014(5) 0.2207(4) 0.61347(12)
C180 C 0.3919(5) 0.1486(5) 0.61474(13)
C181 C 0.4419(6) 0.1188(5) 0.64336(14)
H169 H 0.5059 0.0702 0.6448
C182 C 0.3980(5) 0.1602(4) 0.66954(12)
H170 H 0.4329 0.1408 0.6891
C183 C 0.1513(6) 0.3388(4) 0.63639(13)
H171 H 0.1780 0.4105 0.6303
H172 H 0.1169 0.3447 0.6562
H173 H 0.0931 0.3113 0.6209
N23 N 0.2544(4) 0.2543(4) 0.58310(10)
C184 C 0.3024(6) 0.3488(5) 0.57196(13)
N24 N 0.2572(4) 0.3831(4) 0.54352(10)
C185 C 0.1694(5) 0.3271(4) 0.52703(12)
C186 C 0.1250(7) 0.3563(6) 0.49754(14)
C187 C 0.0326(9) 0.3032(7) 0.48306(16)
H174 H 0.0027 0.3275 0.4635
C188 C -0.0180(9) 0.2153(6) 0.49613(17)
H175 H -0.0830 0.1799 0.4860
C189 C 0.0278(7) 0.1796(5) 0.52437(15)
H176 H -0.0042 0.1178 0.5336
C190 C 0.1204(5) 0.2342(4) 0.53918(12)
C191 C 0.1677(5) 0.1917(4) 0.56881(12)
O23 O 0.1346(4) 0.1094(3) 0.58037(9)
O24 O 0.3788(5) 0.3960(4) 0.58659(11)
C192 C 0.3068(6) 0.4848(5) 0.53249(16)
H177 H 0.3536 0.5199 0.5493
H178 H 0.2439 0.5335 0.5252
H179 H 0.3559 0.4686 0.5156
F6 F 0.1689(5) 0.4402(4) 0.48292(10)
Cl7 Cl 0.14071(14) 0.02661(11) 0.95143(3)
N25 N 0.3328(4) 0.4073(4) 1.01621(10)
H180 H 0.3625 0.4199 1.0350
C193 C 0.2847(5) 0.3108(4) 1.00569(12)
C194 C 0.2708(5) 0.2133(4) 1.02091(12)
C195 C 0.2256(5) 0.1252(4) 1.00345(12)
H181 H 0.2178 0.0562 1.0127
C196 C 0.1923(5) 0.1395(4) 0.97247(12)
C197 C 0.1971(5) 0.2377(4) 0.95761(12)
C198 C 0.2452(5) 0.3248(4) 0.97459(11)
C199 C 0.2715(5) 0.4353(4) 0.96683(12)
C200 C 0.2503(6) 0.4960(5) 0.93743(13)
H182 H 0.1697 0.5239 0.9357
H183 H 0.2606 0.4469 0.9198
C201 C 0.3358(6) 0.5905(5) 0.93698(13)
H184 H 0.3129 0.6374 0.9193
H185 H 0.4139 0.5612 0.9338
C202 C 0.3435(6) 0.6607(5) 0.96625(13)
H186 H 0.2639 0.6895 0.9690
C203 C 0.3786(6) 0.5906(5) 0.99455(13)
H187 H 0.4642 0.5838 0.9966
H188 H 0.3536 0.6274 1.0132
C204 C 0.3270(5) 0.4823(4) 0.99230(12)
C205 C 0.4242(6) 0.7592(4) 0.96349(15)
O25 O 0.5351(4) 0.7211(3) 0.95520(9)
H189 H 0.5821 0.7078 0.9725
C206 C 0.4381(8) 0.8231(5) 0.99356(16)
H190 H 0.4731 0.7764 1.0097
H191 H 0.3619 0.8478 0.9993
H192 H 0.4883 0.8860 0.9910
C207 C 0.3799(8) 0.8336(5) 0.93740(17)
H193 H 0.4231 0.9021 0.9387
H194 H 0.2971 0.8482 0.9391
H195 H 0.3910 0.7982 0.9177
C208 C 0.3002(5) 0.2064(4) 1.05468(13)
O26 O 0.3475(4) 0.2852(3) 1.06843(8)
N26 N 0.2705(5) 0.1178(4) 1.06932(11)
H196 H 0.2841 0.1136 1.0893
H197 H 0.2371 0.0633 1.0590
C209 C 0.1499(5) 0.2526(4) 0.92531(12)
C210 C 0.2224(5) 0.2433(4) 0.90107(11)
C211 C 0.1727(5) 0.2641(4) 0.87188(12)
C212 C 0.0570(5) 0.2887(5) 0.86609(13)
H198 H 0.0263 0.3013 0.8457
C213 C -0.0142(5) 0.2947(5) 0.89034(13)
H199 H -0.0943 0.3111 0.8868
C214 C 0.0328(5) 0.2766(5) 0.91966(13)
H200 H -0.0157 0.2805 0.9363
C215 C 0.3483(5) 0.2141(6) 0.90642(13)
H201 H 0.3709 0.1661 0.8899
H202 H 0.3607 0.1769 0.9261
H203 H 0.3955 0.2803 0.9067
N27 N 0.2459(4) 0.2595(4) 0.84615(9)
C216 C 0.2440(5) 0.1621(5) 0.82967(12)
N28 N 0.3120(4) 0.1558(4) 0.80507(9)
C217 C 0.3722(5) 0.2447(4) 0.79539(11)
C218 C 0.4335(5) 0.2475(5) 0.76821(12)
C219 C 0.4896(5) 0.3360(5) 0.75899(13)
H204 H 0.5294 0.3329 0.7407
C220 C 0.4900(6) 0.4308(5) 0.77578(13)
H205 H 0.5294 0.4931 0.7692
C221 C 0.4322(6) 0.4338(5) 0.80235(13)
H206 H 0.4324 0.4987 0.8142
C222 C 0.3736(5) 0.3432(5) 0.81200(11)
C223 C 0.3094(5) 0.3501(4) 0.83948(12)
O27 O 0.3085(4) 0.4308(3) 0.85639(9)
O28 O 0.1858(4) 0.0867(3) 0.83772(10)
C224 C 0.3210(6) 0.0471(5) 0.79096(14)
H207 H 0.4006 0.0204 0.7944
H208 H 0.3005 0.0518 0.7689
H209 H 0.2676 -0.0028 0.8003
F7 F 0.4332(3) 0.1561(3) 0.75007(7)
Cl8 Cl 0.72259(15) -0.08199(10) 0.96528(3)
N29 N 0.6206(4) 0.2497(3) 0.87275(9)
H210 H 0.5945 0.2477 0.8534
C225 C 0.6392(4) 0.1617(4) 0.89158(11)
C226 C 0.6202(5) 0.0517(4) 0.88487(12)
C227 C 0.6462(5) -0.0199(4) 0.90872(12)
H211 H 0.6343 -0.0954 0.9053
C228 C 0.6893(5) 0.0165(4) 0.93746(12)
C229 C 0.7078(5) 0.1252(4) 0.94497(11)
C230 C 0.6821(4) 0.1995(4) 0.92099(11)
C231 C 0.6876(4) 0.3151(4) 0.91904(10)
C232 C 0.7323(5) 0.4003(4) 0.94182(12)
H212 H 0.8180 0.3956 0.9447
H213 H 0.7002 0.3873 0.9619
C233 C 0.6974(6) 0.5129(4) 0.93050(12)
H214 H 0.7414 0.5677 0.9432
H215 H 0.6139 0.5239 0.9333
C234 C 0.7192(5) 0.5312(4) 0.89673(12)
H216 H 0.8016 0.5101 0.8941
C235 C 0.6418(5) 0.4535(4) 0.87653(12)
H217 H 0.5603 0.4787 0.8758
H218 H 0.6674 0.4526 0.8554
C236 C 0.6501(4) 0.3421(4) 0.88962(11)
C237 C 0.7063(6) 0.6513(4) 0.88713(13)
O29 O 0.5923(4) 0.6932(3) 0.89423(8)
H219 H 0.5886 0.6971 0.9151
C238 C 0.7100(7) 0.6644(4) 0.85307(14)
H220 H 0.6472 0.6221 0.8426
H221 H 0.7849 0.6386 0.8466
H222 H 0.7004 0.7412 0.8478
C239 C 0.8011(7) 0.7200(5) 0.90397(16)
H223 H 0.7950 0.7951 0.8968
H224 H 0.8774 0.6908 0.8999
H225 H 0.7915 0.7183 0.9261
C240 C 0.5740(5) 0.0167(4) 0.85367(12)
O30 O 0.5742(4) 0.0788(3) 0.83195(9)
N30 N 0.5322(5) -0.0842(4) 0.85068(11)
H226 H 0.5037 -0.1078 0.8327
H227 H 0.5333 -0.1270 0.8667
C241 C 0.7544(4) 0.1580(3) 0.97594(11)
C242 C 0.6851(5) 0.2081(4) 0.99682(11)
C243 C 0.7372(5) 0.2369(4) 1.02570(11)
C244 C 0.8517(5) 0.2121(4) 1.03379(11)
H228 H 0.8843 0.2307 1.0537
C245 C 0.9191(5) 0.1608(4) 1.01342(12)
H229 H 0.9975 0.1428 1.0192
C246 C 0.8711(5) 0.1358(4) 0.98426(11)
H230 H 0.9181 0.1030 0.9697
C247 C 0.5589(5) 0.2287(5) 0.98933(13)
H231 H 0.5486 0.3017 0.9808
H232 H 0.5170 0.2229 1.0080
H233 H 0.5284 0.1750 0.9742
N31 N 0.6725(4) 0.2953(3) 1.04760(9)
C248 C 0.6363(5) 0.2351(5) 1.07264(11)
N32 N 0.5935(4) 0.2932(4) 1.09622(10)
C249 C 0.5809(5) 0.4062(5) 1.09529(13)
C250 C 0.5476(7) 0.4688(6) 1.12042(15)
C251 C 0.5331(7) 0.5769(6) 1.11883(19)
H234 H 0.5084 0.6161 1.1360
C252 C 0.5547(6) 0.6321(6) 1.0915(2)
H235 H 0.5424 0.7082 1.0901
C253 C 0.5931(6) 0.5759(5) 1.06733(16)
H236 H 0.6111 0.6127 1.0492
C254 C 0.6060(5) 0.4627(4) 1.06941(13)
C255 C 0.6575(5) 0.4052(4) 1.04385(13)
O31 O 0.6879(5) 0.4494(3) 1.02095(9)
O32 O 0.6457(4) 0.1375(3) 1.07277(9)
C256 C 0.5415(7) 0.2278(6) 1.12011(14)
H237 H 0.5421 0.1510 1.1142
H238 H 0.4613 0.2514 1.1222
H239 H 0.5866 0.2379 1.1397
F8 F 0.5333(5) 0.4200(4) 1.14747(10)
O33 O 0.2408 0.3946 0.1158
H240 H 0.2733 0.3591 0.1017
H241 H 0.2294 0.4606 0.1101
O34 O -0.0041 0.4150 0.2571
H242 H 0.0534 0.4064 0.2459
H243 H -0.0243 0.4823 0.2570
O35 O 0.4719 0.3726 0.3339
H244 H 0.5296 0.3595 0.3468
H245 H 0.4080 0.3629 0.3425
O36 O 0.0577 0.3010 0.3098
H246 H -0.0094 0.2922 0.3168
H247 H 0.0504 0.3367 0.2929
O37 O 0.8304 0.6928 0.7816
H248 H 0.8293 0.7460 0.7943
H249 H 0.8907 0.6978 0.7711
O38 O 0.4248 0.7634 0.8053
H250 H 0.4215 0.7224 0.8210
H251 H 0.4788 0.7409 0.7942
O39 O 0.3913 0.6481 0.8583
H252 H 0.4543 0.6556 0.8696
H253 H 0.3731 0.5804 0.8568
O40 O 0.7109 0.6694 -0.0002
H254 H 0.7026 0.6034 0.0054
H255 H 0.7505 0.7048 0.0139
O41 O 0.8328 0.2907 0.3239
H256 H 0.8297 0.2513 0.3075
H257 H 0.8216 0.3575 0.3190
O42 O 0.6174 0.5131 0.2666
H258 H 0.6697 0.4663 0.2626
H259 H 0.6001 0.5513 0.2505
O43 O 0.0084 0.5477 0.8499
H260 H 0.0270 0.5130 0.8664
H261 H 0.0244 0.6154 0.8525
O44 O 0.4973 0.0864 0.2936
H262 H 0.4669 0.0234 0.2957
H263 H 0.5691 0.0793 0.2900
O45 O 0.8280 -0.0977 0.8307
O46 O 0.9023 -0.0137 0.7964
N33 N 0.8763 -0.0168 0.8227
C257 C 0.8929 0.0766 0.8411
H264 H 0.8890 0.0573 0.8627
H265 H 0.8322 0.1297 0.8353
H266 H 0.9692 0.1081 0.8379
O47 O 0.7536 0.3318 0.2590
O48 O 0.1523 0.7332 0.8549
H267? H 0.1595 0.7183 0.8053
O49? O 0.1941 0.7769 0.7923
O50? O 0.5755 -0.0213 0.3080
O51? O 0.1983 0.6979 0.7903
H268? H 0.2709 0.7099 0.7945
loop_
_geom_bond_atom_site_label_1
_geom_bond_atom_site_label_2
_geom_bond_site_symmetry_1
_geom_bond_site_symmetry_2
Cl1 C4 1_555 1_555
N1 H1 1_555 1_555
C1 N1 1_555 1_555
C2 C1 1_555 1_555
C3 C2 1_555 1_555
H2 C3 1_555 1_555
C4 C3 1_555 1_555
C5 C4 1_555 1_555
C6 C1 1_555 1_555
C7 C6 1_555 1_555
C8 C7 1_555 1_555
H3 C8 1_555 1_555
H4 C8 1_555 1_555
C9 C8 1_555 1_555
H5 C9 1_555 1_555
H6 C9 1_555 1_555
C10 C9 1_555 1_555
H7 C10 1_555 1_555
C11 C10 1_555 1_555
H8 C11 1_555 1_555
H9 C11 1_555 1_555
C12 N1 1_555 1_555
C13 C10 1_555 1_555
O1 C13 1_555 1_555
H10 O1 1_555 1_555
C14 C13 1_555 1_555
H11 C14 1_555 1_555
H12 C14 1_555 1_555
H13 C14 1_555 1_555
C15 C13 1_555 1_555
H14 C15 1_555 1_555
H15 C15 1_555 1_555
H16 C15 1_555 1_555
C16 C2 1_555 1_555
O2 C16 1_555 1_555
N2 C16 1_555 1_555
H17 N2 1_555 1_555
H18 N2 1_555 1_555
C17 C5 1_555 1_555
C18 C17 1_555 1_555
C19 C18 1_555 1_555
C20 C19 1_555 1_555
H19 C20 1_555 1_555
C21 C20 1_555 1_555
H20 C21 1_555 1_555
C22 C17 1_555 1_555
H21 C22 1_555 1_555
C23 C18 1_555 1_555
H22 C23 1_555 1_555
H23 C23 1_555 1_555
H24 C23 1_555 1_555
N3 C19 1_555 1_555
C24 N3 1_555 1_555
N4 C24 1_555 1_555
C25 N4 1_555 1_555
C26 C25 1_555 1_555
C27 C26 1_555 1_555
H25 C27 1_555 1_555
C28 C27 1_555 1_555
H26 C28 1_555 1_555
C29 C28 1_555 1_555
H27 C29 1_555 1_555
C30 C25 1_555 1_555
C31 N3 1_555 1_555
O3 C31 1_555 1_555
O4 C24 1_555 1_555
C32 N4 1_555 1_555
H28 C32 1_555 1_555
H29 C32 1_555 1_555
H30 C32 1_555 1_555
F1 C26 1_555 1_555
Cl2 C36 1_555 1_555
N5 H31 1_555 1_555
C33 N5 1_555 1_555
C34 C33 1_555 1_555
C35 C34 1_555 1_555
H32 C35 1_555 1_555
C36 C35 1_555 1_555
C37 C36 1_555 1_555
C38 C33 1_555 1_555
C39 C38 1_555 1_555
C40 C39 1_555 1_555
H33 C40 1_555 1_555
H34 C40 1_555 1_555
C41 C40 1_555 1_555
H35 C41 1_555 1_555
H36 C41 1_555 1_555
C42 C41 1_555 1_555
H37 C42 1_555 1_555
C43 C42 1_555 1_555
H38 C43 1_555 1_555
H39 C43 1_555 1_555
C44 N5 1_555 1_555
C45 C42 1_555 1_555
O5 C45 1_555 1_555
H40 O5 1_555 1_555
C46 C45 1_555 1_555
H41 C46 1_555 1_555
H42 C46 1_555 1_555
H43 C46 1_555 1_555
C47 C45 1_555 1_555
H44 C47 1_555 1_555
H45 C47 1_555 1_555
H46 C47 1_555 1_555
C48 C34 1_555 1_555
O6 C48 1_555 1_555
N6 C48 1_555 1_555
H47 N6 1_555 1_555
H48 N6 1_555 1_555
C49 C37 1_555 1_555
C50 C49 1_555 1_555
C51 C50 1_555 1_555
C52 C51 1_555 1_555
H49 C52 1_555 1_555
C53 C52 1_555 1_555
H50 C53 1_555 1_555
C54 C49 1_555 1_555
H51 C54 1_555 1_555
C55 C50 1_555 1_555
H52 C55 1_555 1_555
H53 C55 1_555 1_555
H54 C55 1_555 1_555
N7 C51 1_555 1_555
C56 N7 1_555 1_555
N8 C56 1_555 1_555
C57 N8 1_555 1_555
C58 C57 1_555 1_555
C59 C58 1_555 1_555
H55 C59 1_555 1_555
C60 C59 1_555 1_555
H56 C60 1_555 1_555
C61 C60 1_555 1_555
H57 C61 1_555 1_555
C62 C57 1_555 1_555
C63 N7 1_555 1_555
O7 C63 1_555 1_555
O8 C56 1_555 1_555
C64 N8 1_555 1_555
H58 C64 1_555 1_555
H59 C64 1_555 1_555
H60 C64 1_555 1_555
F2 C58 1_555 1_555
Cl3 C68 1_555 1_555
N9 H61 1_555 1_555
C65 N9 1_555 1_555
C66 C65 1_555 1_555
C67 C66 1_555 1_555
H62 C67 1_555 1_555
C68 C67 1_555 1_555
C69 C68 1_555 1_555
C70 C65 1_555 1_555
C71 C70 1_555 1_555
C72 C71 1_555 1_555
H63 C72 1_555 1_555
H64 C72 1_555 1_555
C73 C72 1_555 1_555
H65 C73 1_555 1_555
H66 C73 1_555 1_555
C74 C73 1_555 1_555
H67 C74 1_555 1_555
C75 C74 1_555 1_555
H68 C75 1_555 1_555
H69 C75 1_555 1_555
C76 N9 1_555 1_555
C77 C74 1_555 1_555
O9 C77 1_555 1_555
H70 O9 1_555 1_555
C78 C77 1_555 1_555
H71 C78 1_555 1_555
H72 C78 1_555 1_555
H73 C78 1_555 1_555
C79 C77 1_555 1_555
H74 C79 1_555 1_555
H75 C79 1_555 1_555
H76 C79 1_555 1_555
C80 C66 1_555 1_555
O10 C80 1_555 1_555
N10 C80 1_555 1_555
H77 N10 1_555 1_555
H78 N10 1_555 1_555
C81 C69 1_555 1_555
C82 C81 1_555 1_555
C83 C82 1_555 1_555
C84 C83 1_555 1_555
H79 C84 1_555 1_555
C85 C84 1_555 1_555
H80 C85 1_555 1_555
C86 C81 1_555 1_555
H81 C86 1_555 1_555
C87 C82 1_555 1_555
H82 C87 1_555 1_555
H83 C87 1_555 1_555
H84 C87 1_555 1_555
N11 C83 1_555 1_555
C88 N11 1_555 1_555
N12 C88 1_555 1_555
C89 N12 1_555 1_555
C90 C89 1_555 1_555
C91 C90 1_555 1_555
H85 C91 1_555 1_555
C92 C91 1_555 1_555
H86 C92 1_555 1_555
C93 C92 1_555 1_555
H87 C93 1_555 1_555
C94 C89 1_555 1_555
C95 N11 1_555 1_555
O11 C95 1_555 1_555
O12 C88 1_555 1_555
C96 N12 1_555 1_555
H88 C96 1_555 1_555
H89 C96 1_555 1_555
H90 C96 1_555 1_555
F3 C90 1_555 1_555
Cl4 C100 1_555 1_555
N13 H91 1_555 1_555
C97 N13 1_555 1_555
C98 C97 1_555 1_555
C99 C98 1_555 1_555
H92 C99 1_555 1_555
C100 C99 1_555 1_555
C101 C100 1_555 1_555
C102 C97 1_555 1_555
C103 C102 1_555 1_555
C104 C103 1_555 1_555
H93 C104 1_555 1_555
H94 C104 1_555 1_555
C105 C104 1_555 1_555
H95 C105 1_555 1_555
H96 C105 1_555 1_555
C106 C105 1_555 1_555
H97 C106 1_555 1_555
C107 C106 1_555 1_555
H98 C107 1_555 1_555
H99 C107 1_555 1_555
C108 N13 1_555 1_555
C109 C106 1_555 1_555
O13 C109 1_555 1_555
H100 O13 1_555 1_555
C110 C109 1_555 1_555
H101 C110 1_555 1_555
H102 C110 1_555 1_555
H103 C110 1_555 1_555
C111 C109 1_555 1_555
H104 C111 1_555 1_555
H105 C111 1_555 1_555
H106 C111 1_555 1_555
C112 C98 1_555 1_555
O14 C112 1_555 1_555
N14 C112 1_555 1_555
H107 N14 1_555 1_555
H108 N14 1_555 1_555
C113 C101 1_555 1_555
C114 C113 1_555 1_555
C115 C114 1_555 1_555
C116 C115 1_555 1_555
H109 C116 1_555 1_555
C117 C116 1_555 1_555
H110 C117 1_555 1_555
C118 C113 1_555 1_555
H111 C118 1_555 1_555
C119 C114 1_555 1_555
H112 C119 1_555 1_555
H113 C119 1_555 1_555
H114 C119 1_555 1_555
N15 C115 1_555 1_555
C120 N15 1_555 1_555
N16 C120 1_555 1_555
C121 N16 1_555 1_555
C122 C121 1_555 1_555
C123 C122 1_555 1_555
H115 C123 1_555 1_555
C124 C123 1_555 1_555
H116 C124 1_555 1_555
C125 C124 1_555 1_555
H117 C125 1_555 1_555
C126 C121 1_555 1_555
C127 N15 1_555 1_555
O15 C127 1_555 1_555
O16 C120 1_555 1_555
C128 N16 1_555 1_555
H118 C128 1_555 1_555
H119 C128 1_555 1_555
H120 C128 1_555 1_555
F4 C122 1_555 1_555
Cl5 C132 1_555 1_555
N17 H121 1_555 1_555
C129 N17 1_555 1_555
C130 C129 1_555 1_555
C131 C130 1_555 1_555
H122 C131 1_555 1_555
C132 C131 1_555 1_555
C133 C132 1_555 1_555
C134 C129 1_555 1_555
C135 C134 1_555 1_555
C136 C135 1_555 1_555
H123 C136 1_555 1_555
H124 C136 1_555 1_555
C137 C136 1_555 1_555
H125 C137 1_555 1_555
H126 C137 1_555 1_555
C138 C137 1_555 1_555
H127 C138 1_555 1_555
C139 C138 1_555 1_555
H128 C139 1_555 1_555
H129 C139 1_555 1_555
C140 N17 1_555 1_555
C141 C138 1_555 1_555
O17 C141 1_555 1_555
H130 O17 1_555 1_555
C142 C141 1_555 1_555
H131 C142 1_555 1_555
H132 C142 1_555 1_555
H133 C142 1_555 1_555
C143 C141 1_555 1_555
H134 C143 1_555 1_555
H135 C143 1_555 1_555
H136 C143 1_555 1_555
C144 C130 1_555 1_555
O18 C144 1_555 1_555
N18 C144 1_555 1_555
H137 N18 1_555 1_555
H138 N18 1_555 1_555
C145 C133 1_555 1_555
C146 C145 1_555 1_555
C147 C146 1_555 1_555
C148 C147 1_555 1_555
H139 C148 1_555 1_555
C149 C148 1_555 1_555
H140 C149 1_555 1_555
C150 C145 1_555 1_555
H141 C150 1_555 1_555
C151 C146 1_555 1_555
H142 C151 1_555 1_555
H143 C151 1_555 1_555
H144 C151 1_555 1_555
N19 C147 1_555 1_555
C152 N19 1_555 1_555
N20 C152 1_555 1_555
C153 N20 1_555 1_555
C154 C153 1_555 1_555
C155 C154 1_555 1_555
H145 C155 1_555 1_555
C156 C155 1_555 1_555
H146 C156 1_555 1_555
C157 C156 1_555 1_555
H147 C157 1_555 1_555
C158 C153 1_555 1_555
C159 N19 1_555 1_555
O19 C159 1_555 1_555
O20 C152 1_555 1_555
C160 N20 1_555 1_555
H148 C160 1_555 1_555
H149 C160 1_555 1_555
H150 C160 1_555 1_555
F5 C154 1_555 1_555
Cl6 C164 1_555 1_555
N21 H151 1_555 1_555
C161 N21 1_555 1_555
C162 C161 1_555 1_555
C163 C162 1_555 1_555
H152 C163 1_555 1_555
C164 C163 1_555 1_555
C165 C164 1_555 1_555
C166 C161 1_555 1_555
C167 C166 1_555 1_555
C168 C167 1_555 1_555
H153 C168 1_555 1_555
H154 C168 1_555 1_555
C169 C168 1_555 1_555
H155 C169 1_555 1_555
H156 C169 1_555 1_555
C170 C169 1_555 1_555
H157 C170 1_555 1_555
C171 C170 1_555 1_555
H158 C171 1_555 1_555
H159 C171 1_555 1_555
C172 N21 1_555 1_555
C173 C170 1_555 1_555
O21 C173 1_555 1_555
H160 O21 1_555 1_555
C174 C173 1_555 1_555
H161 C174 1_555 1_555
H162 C174 1_555 1_555
H163 C174 1_555 1_555
C175 C173 1_555 1_555
H164 C175 1_555 1_555
H165 C175 1_555 1_555
H166 C175 1_555 1_555
C176 C162 1_555 1_555
O22 C176 1_555 1_555
N22 C176 1_555 1_555
H167 N22 1_555 1_555
H168 N22 1_555 1_555
C177 C165 1_555 1_555
C178 C177 1_555 1_555
C179 C178 1_555 1_555
C180 C179 1_555 1_555
C181 C180 1_555 1_555
H169 C181 1_555 1_555
C182 C177 1_555 1_555
H170 C182 1_555 1_555
C183 C178 1_555 1_555
H171 C183 1_555 1_555
H172 C183 1_555 1_555
H173 C183 1_555 1_555
N23 C179 1_555 1_555
C184 N23 1_555 1_555
N24 C184 1_555 1_555
C185 N24 1_555 1_555
C186 C185 1_555 1_555
C187 C186 1_555 1_555
H174 C187 1_555 1_555
C188 C187 1_555 1_555
H175 C188 1_555 1_555
C189 C188 1_555 1_555
H176 C189 1_555 1_555
C190 C185 1_555 1_555
C191 N23 1_555 1_555
O23 C191 1_555 1_555
O24 C184 1_555 1_555
C192 N24 1_555 1_555
H177 C192 1_555 1_555
H178 C192 1_555 1_555
H179 C192 1_555 1_555
F6 C186 1_555 1_555
Cl7 C196 1_555 1_555
N25 H180 1_555 1_555
C193 N25 1_555 1_555
C194 C193 1_555 1_555
C195 C194 1_555 1_555
H181 C195 1_555 1_555
C196 C195 1_555 1_555
C197 C196 1_555 1_555
C198 C193 1_555 1_555
C199 C198 1_555 1_555
C200 C199 1_555 1_555
H182 C200 1_555 1_555
H183 C200 1_555 1_555
C201 C200 1_555 1_555
H184 C201 1_555 1_555
H185 C201 1_555 1_555
C202 C201 1_555 1_555
H186 C202 1_555 1_555
C203 C202 1_555 1_555
H187 C203 1_555 1_555
H188 C203 1_555 1_555
C204 N25 1_555 1_555
C205 C202 1_555 1_555
O25 C205 1_555 1_555
H189 O25 1_555 1_555
C206 C205 1_555 1_555
H190 C206 1_555 1_555
H191 C206 1_555 1_555
H192 C206 1_555 1_555
C207 C205 1_555 1_555
H193 C207 1_555 1_555
H194 C207 1_555 1_555
H195 C207 1_555 1_555
C208 C194 1_555 1_555
O26 C208 1_555 1_555
N26 C208 1_555 1_555
H196 N26 1_555 1_555
H197 N26 1_555 1_555
C209 C197 1_555 1_555
C210 C209 1_555 1_555
C211 C210 1_555 1_555
C212 C211 1_555 1_555
H198 C212 1_555 1_555
C213 C212 1_555 1_555
H199 C213 1_555 1_555
C214 C209 1_555 1_555
H200 C214 1_555 1_555
C215 C210 1_555 1_555
H201 C215 1_555 1_555
H202 C215 1_555 1_555
H203 C215 1_555 1_555
N27 C211 1_555 1_555
C216 N27 1_555 1_555
N28 C216 1_555 1_555
C217 N28 1_555 1_555
C218 C217 1_555 1_555
C219 C218 1_555 1_555
H204 C219 1_555 1_555
C220 C219 1_555 1_555
H205 C220 1_555 1_555
C221 C220 1_555 1_555
H206 C221 1_555 1_555
C222 C217 1_555 1_555
C223 N27 1_555 1_555
O27 C223 1_555 1_555
O28 C216 1_555 1_555
C224 N28 1_555 1_555
H207 C224 1_555 1_555
H208 C224 1_555 1_555
H209 C224 1_555 1_555
F7 C218 1_555 1_555
Cl8 C228 1_555 1_555
N29 H210 1_555 1_555
C225 N29 1_555 1_555
C226 C225 1_555 1_555
C227 C226 1_555 1_555
H211 C227 1_555 1_555
C228 C227 1_555 1_555
C229 C228 1_555 1_555
C230 C225 1_555 1_555
C231 C230 1_555 1_555
C232 C231 1_555 1_555
H212 C232 1_555 1_555
H213 C232 1_555 1_555
C233 C232 1_555 1_555
H214 C233 1_555 1_555
H215 C233 1_555 1_555
C234 C233 1_555 1_555
H216 C234 1_555 1_555
C235 C234 1_555 1_555
H217 C235 1_555 1_555
H218 C235 1_555 1_555
C236 N29 1_555 1_555
C237 C234 1_555 1_555
O29 C237 1_555 1_555
H219 O29 1_555 1_555
C238 C237 1_555 1_555
H220 C238 1_555 1_555
H221 C238 1_555 1_555
H222 C238 1_555 1_555
C239 C237 1_555 1_555
H223 C239 1_555 1_555
H224 C239 1_555 1_555
H225 C239 1_555 1_555
C240 C226 1_555 1_555
O30 C240 1_555 1_555
N30 C240 1_555 1_555
H226 N30 1_555 1_555
H227 N30 1_555 1_555
C241 C229 1_555 1_555
C242 C241 1_555 1_555
C243 C242 1_555 1_555
C244 C243 1_555 1_555
H228 C244 1_555 1_555
C245 C244 1_555 1_555
H229 C245 1_555 1_555
C246 C241 1_555 1_555
H230 C246 1_555 1_555
C247 C242 1_555 1_555
H231 C247 1_555 1_555
H232 C247 1_555 1_555
H233 C247 1_555 1_555
N31 C243 1_555 1_555
C248 N31 1_555 1_555
N32 C248 1_555 1_555
C249 N32 1_555 1_555
C250 C249 1_555 1_555
C251 C250 1_555 1_555
H234 C251 1_555 1_555
C252 C251 1_555 1_555
H235 C252 1_555 1_555
C253 C252 1_555 1_555
H236 C253 1_555 1_555
C254 C249 1_555 1_555
C255 N31 1_555 1_555
O31 C255 1_555 1_555
O32 C248 1_555 1_555
C256 N32 1_555 1_555
H237 C256 1_555 1_555
H238 C256 1_555 1_555
H239 C256 1_555 1_555
F8 C250 1_555 1_555
O33 H240 1_555 1_555
H241 O33 1_555 1_555
O34 H242 1_555 1_555
H243 O34 1_555 1_555
O35 H244 1_555 1_555
H245 O35 1_555 1_555
O36 H246 1_555 1_555
H247 O36 1_555 1_555
O37 H248 1_555 1_555
H249 O37 1_555 1_555
O38 H250 1_555 1_555
H251 O38 1_555 1_555
O39 H252 1_555 1_555
H253 O39 1_555 1_555
O40 H254 1_555 1_555
H255 O40 1_555 1_555
O41 H256 1_555 1_555
H257 O41 1_555 1_555
O42 H258 1_555 1_555
H259 O42 1_555 1_555
O43 H260 1_555 1_555
H261 O43 1_555 1_555
O44 H262 1_555 1_555
H263 O44 1_555 1_555
O45 N33 1_555 1_555
O46 N33 1_555 1_555
N33 C257 1_555 1_555
C257 H264 1_555 1_555
H265 C257 1_555 1_555
H266 C257 1_555 1_555
C5 C6 1_555 1_555
C7 C12 1_555 1_555
C11 C12 1_555 1_555
C21 C22 1_555 1_555
C29 C30 1_555 1_555
C30 C31 1_555 1_555
C37 C38 1_555 1_555
C39 C44 1_555 1_555
C43 C44 1_555 1_555
C53 C54 1_555 1_555
C61 C62 1_555 1_555
C62 C63 1_555 1_555
C69 C70 1_555 1_555
C71 C76 1_555 1_555
C75 C76 1_555 1_555
C85 C86 1_555 1_555
C93 C94 1_555 1_555
C94 C95 1_555 1_555
C101 C102 1_555 1_555
C103 C108 1_555 1_555
C107 C108 1_555 1_555
C117 C118 1_555 1_555
C125 C126 1_555 1_555
C126 C127 1_555 1_555
C133 C134 1_555 1_555
C135 C140 1_555 1_555
C139 C140 1_555 1_555
C149 C150 1_555 1_555
C157 C158 1_555 1_555
C158 C159 1_555 1_555
C165 C166 1_555 1_555
C167 C172 1_555 1_555
C171 C172 1_555 1_555
C181 C182 1_555 1_555
C189 C190 1_555 1_555
C190 C191 1_555 1_555
C197 C198 1_555 1_555
C199 C204 1_555 1_555
C203 C204 1_555 1_555
C213 C214 1_555 1_555
C221 C222 1_555 1_555
C222 C223 1_555 1_555
C229 C230 1_555 1_555
C231 C236 1_555 1_555
C235 C236 1_555 1_555
C245 C246 1_555 1_555
C253 C254 1_555 1_555
C254 C255 1_555 1_555

#END
