
#######################################################################
#
#                 Cambridge Crystallographic Data Centre
#                                CCDC 
#
#######################################################################
#
# If this CIF has been generated from an entry in the Cambridge 
# Structural Database, then it will include bibliographic, chemical, 
# crystal, experimental, refinement or atomic coordinate data resulting 
# from the CCDC's data processing and validation procedures.
#
#######################################################################

data_EWAFIT02
_chemical_formula_moiety         'C41 H62 B1 K1 N1 O7'
_chemical_name_systematic        
'(4-(dimesitylboryl)-3,5-dimethylpyridine radical)-(18-crown-6)-(tetrahydrofuran)-potassium'
_symmetry_cell_setting           monoclinic
_symmetry_space_group_name_H-M   'P 21'
_symmetry_Int_Tables_number      4
_space_group_name_Hall           'P 2yb'
loop_
_symmetry_equiv_pos_site_id
_symmetry_equiv_pos_as_xyz
1 x,y,z
2 -x,1/2+y,-z
_cell_length_a                   8.2430(7)
_cell_length_b                   20.2200(18)
_cell_length_c                   12.5726(12)
_cell_angle_alpha                90
_cell_angle_beta                 101.097(3)
_cell_angle_gamma                90
_cell_volume                     2056.34
_exptl_crystal_colour            blue
_exptl_crystal_description       block
_cell_formula_units_Z            2
loop_
_atom_site_label
_atom_site_type_symbol
_atom_site_fract_x
_atom_site_fract_y
_atom_site_fract_z
K1 K 0.18092(5) 0.657290(19) 0.92164(3)
O1 O 0.06828(16) 0.71152(7) 0.71850(11)
O2 O 0.37434(16) 0.75300(7) 0.83352(11)
O3 O -0.14785(16) 0.63342(7) 0.81767(11)
O4 O 0.27974(19) 0.62131(7) 1.13874(12)
O5 O 0.50550(17) 0.68072(7) 1.02550(12)
O6 O -0.0126(2) 0.56588(8) 1.01167(13)
C1 C 0.4542(2) 0.42240(9) 0.45608(17)
C2 C 0.3643(2) 0.45911(10) 0.64863(16)
C3 C 0.4336(2) 0.27551(9) 0.57079(15)
C4 C 0.1480(2) 0.76905(10) 0.68758(16)
H1 H 0.1145 0.8084 0.7249
H2 H 0.1156 0.7761 0.6084
C5 C 0.3633(2) 0.40841(9) 0.35099(16)
C6 C 0.3290(2) 0.33050(9) 0.57682(15)
N1 N 0.3016(3) 0.55729(10) 0.80350(18)
C7 C 0.6125(2) 0.28539(10) 0.56257(17)
H3 H 0.6711 0.3078 0.6279
H4 H 0.6185 0.3124 0.4987
H5 H 0.6640 0.2423 0.5557
C8 C 0.3304(2) 0.75927(10) 0.71832(16)
H6 H 0.3631 0.7189 0.6832
H7 H 0.3887 0.7975 0.6938
C9 C 0.2212(3) 0.19678(9) 0.59650(15)
C10 C 0.6150(2) 0.44868(9) 0.46128(17)
C11 C -0.1721(3) 0.64545(11) 0.70438(16)
H8 H -0.2913 0.6428 0.6719
H9 H -0.1130 0.6117 0.6694
C12 C 0.1180(2) 0.25013(11) 0.60349(16)
H10 H 0.0094 0.2420 0.6155
C13 C -0.1071(2) 0.71308(10) 0.68627(16)
H11 H -0.1384 0.7253 0.6088
H12 H -0.1543 0.7463 0.7296
C14 C 0.3763(2) 0.44545(10) 0.76182(17)
C15 C 0.1683(2) 0.31548(10) 0.59344(15)
C16 C 0.7139(3) 0.47315(11) 0.56737(19)
H13 H 0.6620 0.5131 0.5898
H14 H 0.8267 0.4834 0.5586
H15 H 0.7172 0.4388 0.6228
C17 C 0.3788(2) 0.21082(9) 0.57954(15)
H16 H 0.4519 0.1753 0.5737
C18 C 0.4338(3) 0.41426(10) 0.26027(17)
H17 H 0.3692 0.4040 0.1912
C19 C 0.6830(2) 0.45292(10) 0.36818(19)
H18 H 0.7928 0.4689 0.3744
C20 C 0.3237(2) 0.52676(10) 0.62068(18)
C21 C 0.4536(3) 0.61513(12) 1.17110(19)
H19 H 0.4928 0.5764 1.1350
H20 H 0.4830 0.6083 1.2504
C22 C 0.5960(3) 0.43467(9) 0.26691(18)
C23 C 0.2990(3) 0.55236(10) 0.50595(19)
H21 H 0.2559 0.5976 0.5034
H22 H 0.2200 0.5240 0.4584
H23 H 0.4050 0.5521 0.4815
C24 C 0.5448(3) 0.73767(12) 0.86702(19)
H24 H 0.6128 0.7716 0.8394
H25 H 0.5688 0.6942 0.8373
C25 C 0.1613(3) 0.12626(11) 0.60172(19)
H26 H 0.0971 0.1224 0.6595
H27 H 0.2566 0.0964 0.6169
H28 H 0.0914 0.1143 0.5322
C26 C -0.2011(3) 0.56910(11) 0.84217(18)
H29 H -0.1327 0.5350 0.8155
H30 H -0.3178 0.5622 0.8065
C27 C 0.5864(3) 0.73586(13) 0.9881(2)
H31 H 0.7075 0.7318 1.0128
H32 H 0.5497 0.7773 1.0182
C28 C 0.5350(3) 0.67666(13) 1.14074(18)
H33 H 0.4887 0.7160 1.1712
H34 H 0.6554 0.6750 1.1701
C29 C 0.3463(3) 0.49440(12) 0.8322(2)
H35 H 0.3579 0.4830 0.9066
C30 C 0.1820(3) 0.39064(11) 0.33477(18)
H36 H 0.1420 0.3776 0.2592
H37 H 0.1190 0.4290 0.3520
H38 H 0.1673 0.3538 0.3826
C31 C 0.0431(3) 0.36945(11) 0.5970(2)
H39 H -0.0644 0.3496 0.5998
H40 H 0.0333 0.3970 0.5319
H41 H 0.0791 0.3968 0.6616
C32 C 0.6728(3) 0.43589(13) 0.1669(2)
H42 H 0.6618 0.3922 0.1325
H43 H 0.7901 0.4474 0.1875
H44 H 0.6161 0.4689 0.1158
C33 C 0.2920(3) 0.57047(11) 0.6980(2)
H45 H 0.2605 0.6141 0.6745
C34 C -0.1840(3) 0.56376(12) 0.96202(19)
H46 H -0.2433 0.6007 0.9893
H47 H -0.2333 0.5217 0.9807
B1 B 0.3833(3) 0.40583(11) 0.5628(2)
C35 C 0.0137(3) 0.57323(16) 1.1256(2)
H48 H -0.0495 0.5391 1.1568
H49 H -0.0253 0.6173 1.1441
C36 C 0.4268(3) 0.37837(12) 0.80992(19)
H50 H 0.4647 0.3827 0.8884
H51 H 0.5166 0.3606 0.7773
H52 H 0.3319 0.3483 0.7952
C37 C 0.1941(4) 0.56612(15) 1.1717(2)
H53 H 0.2120 0.5643 1.2518
H54 H 0.2365 0.5246 1.1454
O7 O 0.0431(2) 0.76203(9) 1.02850(13)
C38 C 0.0810(4) 0.78710(16) 1.1367(2)
H55 H 0.1998 0.7803 1.1669
H56 H 0.0163 0.7627 1.1827
C39 C 0.0071(4) 0.81603(13) 0.9569(2)
C40 C 0.0899(8) 0.8614(2) 1.1226(5)
H57 H 0.0581 0.8849 1.1846
H58 H 0.2030 0.8752 1.1163
C41 C -0.0318(7) 0.8758(2) 1.0188(3)
H59 H -0.1477 0.8760 1.0295
H60 H -0.0069 0.9177 0.9846
H61 H 0.031(3) 0.8108(13) 0.8818(13)
H62 H -0.107(2) 0.8122(16) 0.918(2)
C42? C 0.0406(14) 0.8596(3) 1.1381(6)
H63? H 0.1146 0.8839 1.1966
H64? H -0.0764 0.8679 1.1420
C43? C 0.0778(11) 0.8737(3) 1.0272(5)
H65? H 0.0252 0.9156 0.9980
H66? H 0.1985 0.8772 1.0308
loop_
_geom_bond_atom_site_label_1
_geom_bond_atom_site_label_2
_geom_bond_site_symmetry_1
_geom_bond_site_symmetry_2
K1 O1 1_555 1_555
O1 C4 1_555 1_555
O2 K1 1_555 1_555
O3 K1 1_555 1_555
O4 K1 1_555 1_555
O5 K1 1_555 1_555
O6 K1 1_555 1_555
C1 C5 1_555 1_555
C2 C14 1_555 1_555
C3 C6 1_555 1_555
C4 H1 1_555 1_555
H2 C4 1_555 1_555
C5 C18 1_555 1_555
C6 C15 1_555 1_555
N1 K1 1_555 1_555
C7 C3 1_555 1_555
H3 C7 1_555 1_555
H4 C7 1_555 1_555
H5 C7 1_555 1_555
C8 O2 1_555 1_555
H6 C8 1_555 1_555
H7 C8 1_555 1_555
C9 C12 1_555 1_555
C10 C1 1_555 1_555
C11 O3 1_555 1_555
H8 C11 1_555 1_555
H9 C11 1_555 1_555
C12 H10 1_555 1_555
C13 O1 1_555 1_555
H11 C13 1_555 1_555
H12 C13 1_555 1_555
C14 C29 1_555 1_555
C15 C12 1_555 1_555
C16 C10 1_555 1_555
H13 C16 1_555 1_555
H14 C16 1_555 1_555
H15 C16 1_555 1_555
C17 C3 1_555 1_555
H16 C17 1_555 1_555
C18 H17 1_555 1_555
C19 C10 1_555 1_555
H18 C19 1_555 1_555
C20 C2 1_555 1_555
C21 O4 1_555 1_555
H19 C21 1_555 1_555
H20 C21 1_555 1_555
C22 C18 1_555 1_555
C23 C20 1_555 1_555
H21 C23 1_555 1_555
H22 C23 1_555 1_555
H23 C23 1_555 1_555
C24 O2 1_555 1_555
H24 C24 1_555 1_555
H25 C24 1_555 1_555
C25 C9 1_555 1_555
H26 C25 1_555 1_555
H27 C25 1_555 1_555
H28 C25 1_555 1_555
C26 O3 1_555 1_555
H29 C26 1_555 1_555
H30 C26 1_555 1_555
C27 O5 1_555 1_555
H31 C27 1_555 1_555
H32 C27 1_555 1_555
C28 O5 1_555 1_555
H33 C28 1_555 1_555
H34 C28 1_555 1_555
C29 N1 1_555 1_555
H35 C29 1_555 1_555
C30 C5 1_555 1_555
H36 C30 1_555 1_555
H37 C30 1_555 1_555
H38 C30 1_555 1_555
C31 C15 1_555 1_555
H39 C31 1_555 1_555
H40 C31 1_555 1_555
H41 C31 1_555 1_555
C32 C22 1_555 1_555
H42 C32 1_555 1_555
H43 C32 1_555 1_555
H44 C32 1_555 1_555
C33 N1 1_555 1_555
H45 C33 1_555 1_555
C34 O6 1_555 1_555
H46 C34 1_555 1_555
H47 C34 1_555 1_555
B1 C1 1_555 1_555
C35 O6 1_555 1_555
H48 C35 1_555 1_555
H49 C35 1_555 1_555
C36 C14 1_555 1_555
H50 C36 1_555 1_555
H51 C36 1_555 1_555
H52 C36 1_555 1_555
C37 O4 1_555 1_555
H53 C37 1_555 1_555
H54 C37 1_555 1_555
O7 K1 1_555 1_555
C38 O7 1_555 1_555
H55 C38 1_555 1_555
H56 C38 1_555 1_555
C39 O7 1_555 1_555
C40 C38 1_555 1_555
H57 C40 1_555 1_555
H58 C40 1_555 1_555
C41 C39 1_555 1_555
H59 C41 1_555 1_555
H60 C41 1_555 1_555
H61 C39 1_555 1_555
H62 C39 1_555 1_555
C2 B1 1_555 1_555
C4 C8 1_555 1_555
C6 B1 1_555 1_555
C9 C17 1_555 1_555
C11 C13 1_555 1_555
C19 C22 1_555 1_555
C20 C33 1_555 1_555
C21 C28 1_555 1_555
C24 C27 1_555 1_555
C26 C34 1_555 1_555
C35 C37 1_555 1_555
C40 C41 1_555 1_555

#END
