
#######################################################################
#
#                 Cambridge Crystallographic Data Centre
#                                CCDC 
#
#######################################################################
#
# If this CIF has been generated from an entry in the Cambridge 
# Structural Database, then it will include bibliographic, chemical, 
# crystal, experimental, refinement or atomic coordinate data resulting 
# from the CCDC's data processing and validation procedures.
#
#######################################################################

data_EWAFEP02
_chemical_formula_moiety         'C25 H30 B1 N1'
_chemical_name_systematic        4-(dimesitylboryl)-3,5-dimethylpyridine
_symmetry_cell_setting           orthorhombic
_symmetry_space_group_name_H-M   'P b c n'
_symmetry_Int_Tables_number      60
_space_group_name_Hall           '-P 2n 2ab'
loop_
_symmetry_equiv_pos_site_id
_symmetry_equiv_pos_as_xyz
1 x,y,z
2 1/2-x,1/2-y,1/2+z
3 -x,y,1/2-z
4 1/2+x,1/2-y,-z
5 -x,-y,-z
6 1/2+x,1/2+y,1/2-z
7 x,-y,1/2+z
8 1/2-x,1/2+y,z
_cell_length_a                   12.890(3)
_cell_length_b                   9.6595(19)
_cell_length_c                   16.653(3)
_cell_angle_alpha                90
_cell_angle_beta                 90
_cell_angle_gamma                90
_cell_volume                     2073.48
_exptl_crystal_colour            colorless
_exptl_crystal_description       block
_cell_formula_units_Z            4
loop_
_atom_site_label
_atom_site_type_symbol
_atom_site_fract_x
_atom_site_fract_y
_atom_site_fract_z
B1 B 0.5000 0.5996(3) 0.7500
C1 C 0.43040(12) 0.67736(16) 0.81302(9)
C2 C 0.47329(12) 0.78303(16) 0.86171(10)
C3 C 0.41338(13) 0.84209(17) 0.92222(10)
H1 H 0.4437 0.9107 0.9557
C4 C 0.26814(13) 0.70435(17) 0.88574(10)
H2 H 0.1975 0.6791 0.8929
C5 C 0.32570(13) 0.63993(16) 0.82565(10)
C6 C 0.27093(13) 0.53489(18) 0.77353(11)
H3 H 0.2958 0.4418 0.7869
H4 H 0.2855 0.5545 0.7169
H5 H 0.1960 0.5402 0.7830
C7 C 0.58261(13) 0.83527(18) 0.85083(10)
H6 H 0.5851 0.8985 0.8048
H7 H 0.6292 0.7568 0.8412
H8 H 0.6046 0.8845 0.8994
C8 C 0.5000 0.4346(2) 0.7500
C9 C 0.48091(12) 0.35812(17) 0.67960(10)
C10 C 0.45767(16) 0.4251(2) 0.59989(11)
H9 H 0.4005 0.4910 0.6063
H10 H 0.4379 0.3538 0.5609
H11 H 0.5195 0.4740 0.5806
C11 C 0.48106(13) 0.21462(18) 0.68384(11)
H12 H 0.4665 0.1649 0.6359
N1 N 0.5000 0.1412(2) 0.7500
C12 C 0.31096(14) 0.80426(17) 0.93542(10)
C13 C 0.24834(17) 0.8708(2) 1.00101(11)
H13 H 0.2800 0.8501 1.0532
H14 H 0.1774 0.8344 0.9998
H15 H 0.2468 0.9713 0.9928
C1B C 0.56960(12) 0.67736(16) 0.68698(9)
C2B C 0.52671(12) 0.78303(16) 0.63829(10)
C3B C 0.58662(13) 0.84209(17) 0.57778(10)
H1B H 0.5563 0.9107 0.5443
C4B C 0.73186(13) 0.70435(17) 0.61426(10)
H2B H 0.8025 0.6791 0.6071
C5B C 0.67430(13) 0.63993(16) 0.67435(10)
C6B C 0.72907(13) 0.53489(18) 0.72647(11)
H3B H 0.7042 0.4418 0.7131
H4B H 0.7145 0.5545 0.7831
H5B H 0.8040 0.5402 0.7170
C7B C 0.41739(13) 0.83527(18) 0.64917(10)
H6B H 0.4149 0.8985 0.6952
H7B H 0.3708 0.7568 0.6588
H8B H 0.3954 0.8845 0.6006
C9B C 0.51909(12) 0.35812(17) 0.82040(10)
C10B C 0.54233(16) 0.4251(2) 0.90011(11)
H9B H 0.5995 0.4910 0.8937
H10B H 0.5621 0.3538 0.9391
H11B H 0.4805 0.4740 0.9194
C11B C 0.51894(13) 0.21462(18) 0.81616(11)
H12B H 0.5335 0.1649 0.8641
C12B C 0.68904(14) 0.80426(17) 0.56458(10)
C13B C 0.75166(17) 0.8708(2) 0.49899(11)
H13B H 0.7200 0.8501 0.4468
H14B H 0.8226 0.8344 0.5002
H15B H 0.7532 0.9713 0.5072
loop_
_geom_bond_atom_site_label_1
_geom_bond_atom_site_label_2
_geom_bond_site_symmetry_1
_geom_bond_site_symmetry_2
B1 C1 1_555 1_555
C1 C2 1_555 1_555
C2 C3 1_555 1_555
C3 H1 1_555 1_555
C4 H2 1_555 1_555
C5 C1 1_555 1_555
C6 C5 1_555 1_555
H3 C6 1_555 1_555
H4 C6 1_555 1_555
H5 C6 1_555 1_555
C7 C2 1_555 1_555
H6 C7 1_555 1_555
H7 C7 1_555 1_555
H8 C7 1_555 1_555
C8 B1 1_555 1_555
C9 C8 1_555 1_555
C10 C9 1_555 1_555
H9 C10 1_555 1_555
H10 C10 1_555 1_555
H11 C10 1_555 1_555
C11 C9 1_555 1_555
H12 C11 1_555 1_555
N1 C11 1_555 1_555
C12 C3 1_555 1_555
C13 C12 1_555 1_555
H13 C13 1_555 1_555
H14 C13 1_555 1_555
H15 C13 1_555 1_555
C1B B1 1_555 1_555
C2B C1B 1_555 1_555
C3B C2B 1_555 1_555
H1B C3B 1_555 1_555
C4B H2B 1_555 1_555
C5B C1B 1_555 1_555
C6B C5B 1_555 1_555
H3B C6B 1_555 1_555
H4B C6B 1_555 1_555
H5B C6B 1_555 1_555
C7B C2B 1_555 1_555
H6B C7B 1_555 1_555
H7B C7B 1_555 1_555
H8B C7B 1_555 1_555
C9B C8 1_555 1_555
C10B C9B 1_555 1_555
H9B C10B 1_555 1_555
H10B C10B 1_555 1_555
H11B C10B 1_555 1_555
C11B N1 1_555 1_555
H12B C11B 1_555 1_555
C12B C3B 1_555 1_555
C13B C12B 1_555 1_555
H13B C13B 1_555 1_555
H14B C13B 1_555 1_555
H15B C13B 1_555 1_555
C4 C5 1_555 1_555
C4 C12 1_555 1_555
C4B C5B 1_555 1_555
C4B C12B 1_555 1_555
C9B C11B 1_555 1_555

#END
