
#######################################################################
#
#                 Cambridge Crystallographic Data Centre
#                                CCDC 
#
#######################################################################
#
# If this CIF has been generated from an entry in the Cambridge 
# Structural Database, then it will include bibliographic, chemical, 
# crystal, experimental, refinement or atomic coordinate data resulting 
# from the CCDC's data processing and validation procedures.
#
#######################################################################

data_EWAGUG
_chemical_formula_moiety         'C40 H33 N3'
_chemical_name_systematic        
'N-(2,6-dimethylphenyl)-1-(14-(((2,6-dimethylphenyl)imino)methyl)dibenzo[a,c]acridin-10-yl)ethanimine unknown solvate'
_symmetry_cell_setting           monoclinic
_symmetry_space_group_name_H-M   'P 21/c'
_symmetry_Int_Tables_number      14
_space_group_name_Hall           '-P 2ybc'
loop_
_symmetry_equiv_pos_site_id
_symmetry_equiv_pos_as_xyz
1 x,y,z
2 -x,1/2+y,1/2-z
3 -x,-y,-z
4 x,1/2-y,1/2+z
_cell_length_a                   11.910(2)
_cell_length_b                   32.793(7)
_cell_length_c                   9.4655(19)
_cell_angle_alpha                90
_cell_angle_beta                 113.37(3)
_cell_angle_gamma                90
_cell_volume                     3393.61
_exptl_crystal_colour            yellow
_exptl_crystal_description       block
_cell_formula_units_Z            4
loop_
_atom_site_label
_atom_site_type_symbol
_atom_site_fract_x
_atom_site_fract_y
_atom_site_fract_z
N1 N 0.50060(13) 0.14548(4) 0.45846(16)
C1 C 0.63445(15) 0.21782(5) 0.48448(18)
C2 C 0.66883(15) 0.18148(5) 0.42822(18)
N2 N 0.49391(14) 0.05761(4) 0.19361(18)
C3 C 0.46851(15) 0.17968(5) 0.50688(18)
C4 C 0.52645(15) 0.21809(5) 0.51004(18)
C5 C 0.47020(15) 0.25511(5) 0.53963(19)
C6 C 0.72066(15) 0.25246(5) 0.53899(19)
H1 H 0.7253 0.2661 0.6296
N3 N 0.78913(13) 0.26541(4) 0.47399(16)
C7 C 0.33024(15) 0.21188(5) 0.61497(19)
C8 C 0.37239(15) 0.17665(5) 0.56650(19)
C9 C 0.59476(15) 0.14620(5) 0.41266(18)
C10 C 0.50132(16) 0.29415(5) 0.5044(2)
H2 H 0.5596 0.2965 0.4595
C11 C 0.37601(15) 0.25210(5) 0.59439(19)
C12 C 0.87820(15) 0.29562(5) 0.55234(19)
C13 C 0.97644(15) 0.28619(5) 0.69090(19)
C14 C 0.24090(17) 0.20724(6) 0.6760(2)
H3 H 0.2112 0.2306 0.7096
C15 C 0.87045(16) 0.33343(5) 0.4799(2)
C16 C 0.77069(16) 0.17819(5) 0.3869(2)
H4 H 0.8256 0.2005 0.4051
C17 C 0.71366(17) 0.10944(5) 0.2989(2)
H5 H 0.7274 0.0858 0.2500
C18 C 0.48740(19) -0.01657(5) 0.1705(2)
C19 C 0.79070(17) 0.14334(5) 0.3214(2)
H6 H 0.8575 0.1420 0.2907
C20 C 0.54289(17) 0.07250(5) 0.3284(2)
C21 C 0.32475(17) 0.13831(6) 0.5794(2)
H7 H 0.3531 0.1146 0.5462
C22 C 0.61905(16) 0.10991(5) 0.34613(19)
C23 C 0.36181(18) 0.32590(6) 0.5945(2)
H8 H 0.3274 0.3498 0.6176
C24 C 1.06565(16) 0.31582(6) 0.7559(2)
H9 H 1.1326 0.3102 0.8502
C25 C 0.42674(18) 0.02031(5) 0.1652(2)
C26 C 0.44928(18) 0.32916(6) 0.5333(2)
H10 H 0.4734 0.3552 0.5114
C27 C 0.96231(18) 0.36190(5) 0.5499(2)
H11 H 0.9582 0.3877 0.5027
C28 C 0.19577(18) 0.16933(7) 0.6879(2)
H12 H 0.1355 0.1669 0.7296
C29 C 1.05921(17) 0.35329(6) 0.6865(2)
H13 H 1.1213 0.3731 0.7328
C30 C 0.98807(17) 0.24521(5) 0.7684(2)
H14 H 0.9274 0.2431 0.8139
H15 H 1.0704 0.2424 0.8493
H16 H 0.9740 0.2235 0.6921
C31 C 0.23724(18) 0.13478(6) 0.6398(3)
H17 H 0.2055 0.1087 0.6483
C32 C 0.32433(17) 0.28815(6) 0.6221(2)
H18 H 0.2621 0.2864 0.6608
C33 C 0.6235(2) -0.01826(6) 0.2260(3)
H19 H 0.6520 0.0042 0.1805
H20 H 0.6477 -0.0443 0.1955
H21 H 0.6602 -0.0159 0.3384
C34 C 0.4167(2) -0.05167(6) 0.1205(2)
H22 H 0.4560 -0.0770 0.1226
C35 C 0.2997(2) 0.02197(6) 0.1136(3)
C36 C 0.2334(2) -0.01407(7) 0.0681(3)
H23 H 0.1470 -0.0136 0.0363
C37 C 0.7640(2) 0.34269(6) 0.3316(2)
H24 H 0.7496 0.3195 0.2613
H25 H 0.7821 0.3670 0.2844
H26 H 0.6908 0.3476 0.3525
C38 C 0.2916(2) -0.05048(6) 0.0685(3)
H27 H 0.2451 -0.0747 0.0328
C39 C 0.5395(2) 0.05357(5) 0.4713(2)
H28 H 0.4575 0.0428 0.4487
H29 H 0.5597 0.0742 0.5524
H30 H 0.5993 0.0313 0.5059
C40 C 0.2367(2) 0.06196(7) 0.1080(4)
H31 H 0.2468 0.0796 0.0302
H32 H 0.2728 0.0752 0.2089
H33 H 0.1494 0.0572 0.0812
loop_
_geom_bond_atom_site_label_1
_geom_bond_atom_site_label_2
_geom_bond_site_symmetry_1
_geom_bond_site_symmetry_2
N1 C3 1_555 1_555
C1 C2 1_555 1_555
C2 C9 1_555 1_555
N2 C20 1_555 1_555
C3 C4 1_555 1_555
C4 C1 1_555 1_555
C5 C4 1_555 1_555
C6 C1 1_555 1_555
H1 C6 1_555 1_555
N3 C6 1_555 1_555
C7 C8 1_555 1_555
C8 C3 1_555 1_555
C9 N1 1_555 1_555
C10 C5 1_555 1_555
H2 C10 1_555 1_555
C11 C5 1_555 1_555
C12 N3 1_555 1_555
C13 C12 1_555 1_555
C14 C7 1_555 1_555
H3 C14 1_555 1_555
C15 C12 1_555 1_555
C16 C2 1_555 1_555
H4 C16 1_555 1_555
C17 H5 1_555 1_555
C18 C25 1_555 1_555
C19 C16 1_555 1_555
H6 C19 1_555 1_555
C20 C22 1_555 1_555
C21 C8 1_555 1_555
H7 C21 1_555 1_555
C22 C9 1_555 1_555
C23 H8 1_555 1_555
C24 C13 1_555 1_555
H9 C24 1_555 1_555
C25 N2 1_555 1_555
C26 C10 1_555 1_555
H10 C26 1_555 1_555
C27 C15 1_555 1_555
H11 C27 1_555 1_555
C28 C14 1_555 1_555
H12 C28 1_555 1_555
C29 C24 1_555 1_555
H13 C29 1_555 1_555
C30 C13 1_555 1_555
H14 C30 1_555 1_555
H15 C30 1_555 1_555
H16 C30 1_555 1_555
C31 C21 1_555 1_555
H17 C31 1_555 1_555
C32 C11 1_555 1_555
H18 C32 1_555 1_555
C33 C18 1_555 1_555
H19 C33 1_555 1_555
H20 C33 1_555 1_555
H21 C33 1_555 1_555
C34 C18 1_555 1_555
H22 C34 1_555 1_555
C35 C25 1_555 1_555
C36 C35 1_555 1_555
H23 C36 1_555 1_555
C37 C15 1_555 1_555
H24 C37 1_555 1_555
H25 C37 1_555 1_555
H26 C37 1_555 1_555
C38 C34 1_555 1_555
H27 C38 1_555 1_555
C39 C20 1_555 1_555
H28 C39 1_555 1_555
H29 C39 1_555 1_555
H30 C39 1_555 1_555
C40 C35 1_555 1_555
H31 C40 1_555 1_555
H32 C40 1_555 1_555
H33 C40 1_555 1_555
C7 C11 1_555 1_555
C17 C19 1_555 1_555
C17 C22 1_555 1_555
C23 C26 1_555 1_555
C23 C32 1_555 1_555
C27 C29 1_555 1_555
C28 C31 1_555 1_555
C36 C38 1_555 1_555

#END
