
#######################################################################
#
#                 Cambridge Crystallographic Data Centre
#                                CCDC 
#
#######################################################################
#
# If this CIF has been generated from an entry in the Cambridge 
# Structural Database, then it will include bibliographic, chemical, 
# crystal, experimental, refinement or atomic coordinate data resulting 
# from the CCDC's data processing and validation procedures.
#
#######################################################################

data_EWAMAR01
_chemical_name_common            Orcinol
_chemical_formula_moiety         'C7 H8 O2'
_chemical_name_systematic        5-Methylbenzene-1,3-diol
_symmetry_cell_setting           orthorhombic
_symmetry_space_group_name_H-M   'P 21 21 21'
_symmetry_Int_Tables_number      19
_space_group_name_Hall           'P 2ac 2ab'
loop_
_symmetry_equiv_pos_site_id
_symmetry_equiv_pos_as_xyz
1 x,y,z
2 1/2-x,-y,1/2+z
3 1/2+x,1/2-y,-z
4 -x,1/2+y,1/2-z
_cell_length_a                   13.784(14)
_cell_length_b                   16.174(17)
_cell_length_c                   24.55(2)
_cell_angle_alpha                90
_cell_angle_beta                 90
_cell_angle_gamma                90
_cell_volume                     5473.24
_exptl_crystal_colour            colorless
_exptl_crystal_description       block
_cell_formula_units_Z            32
loop_
_atom_site_label
_atom_site_type_symbol
_atom_site_fract_x
_atom_site_fract_y
_atom_site_fract_z
O1 O 0.5087(3) 0.0443(2) 0.84152(15)
O2 O 0.7043(3) 0.0973(2) 0.99800(14)
C1 C 0.5807(4) 0.0920(3) 0.8663(2)
C2 C 0.6032(4) 0.0723(3) 0.9195(2)
C3 C 0.6751(4) 0.1172(3) 0.9454(2)
C4 C 0.7224(5) 0.1819(4) 0.9190(2)
C5 C 0.6987(5) 0.2012(4) 0.8657(2)
C6 C 0.6267(4) 0.1562(3) 0.8390(2)
C7 C 0.7538(7) 0.2675(5) 0.8354(3)
H1 H 0.48590 0.07000 0.81470
H2 H 0.57020 0.02900 0.93790
H3 H 0.67640 0.05370 1.00800
H4 H 0.77090 0.21280 0.93750
H5 H 0.60930 0.16930 0.80260
H6 H 0.70800 0.30780 0.82040
H7 H 0.79090 0.24230 0.80570
H8 H 0.79830 0.29550 0.86050
O3 O 1.0068(3) 0.0987(2) 0.66932(16)
O4 O 0.8329(3) 0.0693(2) 0.50282(15)
C8 C 0.9630(4) 0.1329(3) 0.6239(2)
C9 C 0.9184(4) 0.0832(3) 0.58512(19)
C10 C 0.8774(4) 0.1212(3) 0.53993(19)
C11 C 0.8799(4) 0.2055(3) 0.5326(2)
C12 C 0.9231(5) 0.2555(3) 0.5731(2)
C13 C 0.9656(5) 0.2175(4) 0.6182(2)
C14 C 0.9259(6) 0.3493(4) 0.5656(3)
H9 H 0.99410 0.04790 0.67080
H10 H 0.81210 0.09720 0.47640
H11 H 0.91590 0.02490 0.58940
H12 H 0.85290 0.22970 0.50080
H13 H 0.99650 0.25040 0.64510
H14 H 0.96580 0.36300 0.53380
H15 H 0.95400 0.37500 0.59820
H16 H 0.85990 0.37010 0.56020
O5 O 0.4557(3) 0.2922(2) 0.75518(15)
O6 O 0.2970(3) 0.3070(2) 0.92475(14)
C15 C 0.3948(4) 0.3367(3) 0.78941(19)
C16 C 0.3783(4) 0.3031(3) 0.84023(19)
C17 C 0.3172(4) 0.3456(3) 0.87580(19)
C18 C 0.2774(4) 0.4209(3) 0.8610(2)
C19 C 0.2966(4) 0.4557(3) 0.8101(2)
C20 C 0.3556(4) 0.4118(3) 0.7735(2)
C21 C 0.2567(6) 0.5396(4) 0.7940(3)
H17 H 0.46820 0.32040 0.72730
H18 H 0.26100 0.33760 0.94360
H19 H 0.40780 0.25250 0.85070
H20 H 0.23660 0.44940 0.88590
H21 H 0.36860 0.43340 0.73830
H22 H 0.30120 0.58300 0.80630
H23 H 0.19310 0.54770 0.81090
H24 H 0.25010 0.54230 0.75430
O7 O 0.5041(4) 0.3751(3) 0.66280(16)
O8 O 0.6530(4) 0.3850(2) 0.48584(14)
C22 C 0.5464(4) 0.3368(4) 0.6178(2)
C23 C 0.5774(4) 0.3840(3) 0.57403(19)
C24 C 0.6192(4) 0.3418(3) 0.53005(19)
C25 C 0.6252(4) 0.2562(3) 0.5290(2)
C26 C 0.5938(4) 0.2104(3) 0.5732(2)
C27 C 0.5538(5) 0.2517(4) 0.6182(2)
C28 C 0.6026(6) 0.1166(4) 0.5736(3)
H25 H 0.51170 0.42650 0.66050
H26 H 0.65640 0.43550 0.49360
H27 H 0.57060 0.44250 0.57390
H28 H 0.65080 0.22890 0.49790
H29 H 0.53200 0.22110 0.64890
H30 H 0.58830 0.09580 0.61030
H31 H 0.66870 0.10070 0.56330
H32 H 0.55640 0.09290 0.54760
O9 O 0.4465(4) 0.1217(3) 0.74949(16)
O10 O 0.2536(3) 0.1871(2) 0.59432(16)
C29 C 0.4049(4) 0.0981(3) 0.7003(2)
C30 C 0.4256(5) 0.0207(4) 0.6795(3)
C31 C 0.3892(5) -0.0021(4) 0.6290(2)
C32 C 0.3307(4) 0.0528(3) 0.6003(2)
C33 C 0.3094(4) 0.1300(3) 0.6221(2)
C34 C 0.3465(4) 0.1539(3) 0.6726(2)
C35 C 0.4165(7) -0.0835(4) 0.6028(4)
H33 H 0.44050 0.17300 0.75360
H34 H 0.22050 0.16280 0.57050
H35 H 0.46460 -0.01680 0.69970
H36 H 0.30540 0.03760 0.56570
H37 H 0.33230 0.20670 0.68750
H38 H 0.47660 -0.07660 0.58200
H39 H 0.36430 -0.10120 0.57830
H40 H 0.42620 -0.12530 0.63110
O11 O 0.7209(3) 0.6378(2) 0.58822(15)
O12 O 0.8752(3) 0.6784(2) 0.76001(14)
C36 C 0.7579(4) 0.6076(3) 0.63679(19)
C37 C 0.7990(4) 0.6597(3) 0.67535(19)
C38 C 0.8335(4) 0.6246(3) 0.72314(19)
C39 C 0.8262(4) 0.5407(3) 0.7329(2)
C40 C 0.7862(4) 0.4886(3) 0.6931(2)
C41 C 0.7532(5) 0.5230(3) 0.6452(2)
C42 C 0.7801(6) 0.3962(4) 0.7039(3)
H41 H 0.72800 0.68930 0.58720
H42 H 0.91130 0.65190 0.78130
H43 H 0.80340 0.71760 0.66920
H44 H 0.84820 0.51830 0.76640
H45 H 0.72690 0.48830 0.61770
H46 H 0.77610 0.36650 0.66920
H47 H 0.72230 0.38430 0.72580
H48 H 0.83820 0.37830 0.72370
O13 O 0.8248(3) 0.4485(2) 0.99826(15)
O14 O 0.9823(3) 0.4279(2) 0.82868(14)
C43 C 0.8870(4) 0.4031(3) 0.96559(18)
C44 C 0.9016(4) 0.4340(3) 0.91345(19)
C45 C 0.9666(4) 0.3922(3) 0.87961(19)
C46 C 1.0142(4) 0.3218(3) 0.8967(2)
C47 C 0.9977(4) 0.2912(3) 0.9492(2)
C48 C 0.9344(4) 0.3326(3) 0.98377(19)
C49 C 1.0513(6) 0.2155(4) 0.9697(3)
H49 H 0.80560 0.41900 1.02430
H50 H 1.01670 0.39620 0.80970
H51 H 0.86850 0.48200 0.90120
H52 H 1.05790 0.29420 0.87290
H53 H 0.92370 0.31270 1.01970
H54 H 1.10330 0.23270 0.99440
H55 H 1.07920 0.18560 0.93870
H56 H 1.00600 0.17930 0.98910
O15 O 0.0768(4) 0.3397(2) 0.75306(15)
O16 O 0.2575(4) 0.3551(2) 0.58592(16)
C50 C 0.1055(4) 0.3815(3) 0.7068(2)
C51 C 0.1685(4) 0.3451(3) 0.6702(2)
C52 C 0.1952(4) 0.3893(3) 0.62381(19)
C53 C 0.1590(4) 0.4690(3) 0.6146(2)
C54 C 0.0964(5) 0.5046(3) 0.6520(3)
C55 C 0.0690(5) 0.4598(3) 0.6984(2)
C56 C 0.0546(7) 0.5897(4) 0.6426(4)
H57 H 0.09510 0.29020 0.75110
H58 H 0.26260 0.30410 0.59160
H59 H 0.19320 0.29110 0.67650
H60 H 0.17720 0.49850 0.58270
H61 H 0.02540 0.48350 0.72400
H62 H 0.08080 0.61270 0.60870
H63 H 0.07200 0.62580 0.67310
H64 H -0.01620 0.58590 0.63990
loop_
_geom_bond_atom_site_label_1
_geom_bond_atom_site_label_2
_geom_bond_site_symmetry_1
_geom_bond_site_symmetry_2
O1 C1 1_555 1_555
O2 C3 1_555 1_555
C1 C2 1_555 1_555
C2 C3 1_555 1_555
C3 C4 1_555 1_555
C4 C5 1_555 1_555
C5 C6 1_555 1_555
C6 C1 1_555 1_555
C7 C5 1_555 1_555
O3 C8 1_555 1_555
O4 C10 1_555 1_555
C8 C9 1_555 1_555
C9 C10 1_555 1_555
C10 C11 1_555 1_555
C11 C12 1_555 1_555
C12 C13 1_555 1_555
C13 C8 1_555 1_555
C14 C12 1_555 1_555
O5 C15 1_555 1_555
O6 C17 1_555 1_555
C15 C16 1_555 1_555
C16 C17 1_555 1_555
C17 C18 1_555 1_555
C18 C19 1_555 1_555
C19 C20 1_555 1_555
C20 C15 1_555 1_555
C21 C19 1_555 1_555
O7 C22 1_555 1_555
O8 C24 1_555 1_555
C22 C23 1_555 1_555
C23 C24 1_555 1_555
C24 C25 1_555 1_555
C25 C26 1_555 1_555
C26 C27 1_555 1_555
C27 C22 1_555 1_555
C28 C26 1_555 1_555
O9 C29 1_555 1_555
O10 C33 1_555 1_555
C29 C30 1_555 1_555
C30 C31 1_555 1_555
C31 C32 1_555 1_555
C32 C33 1_555 1_555
C33 C34 1_555 1_555
C34 C29 1_555 1_555
C35 C31 1_555 1_555
O11 C36 1_555 1_555
O12 C38 1_555 1_555
C36 C37 1_555 1_555
C37 C38 1_555 1_555
C38 C39 1_555 1_555
C39 C40 1_555 1_555
C40 C41 1_555 1_555
C41 C36 1_555 1_555
C42 C40 1_555 1_555
O13 C43 1_555 1_555
O14 C45 1_555 1_555
C43 C44 1_555 1_555
C44 C45 1_555 1_555
C45 C46 1_555 1_555
C46 C47 1_555 1_555
C47 C48 1_555 1_555
C48 C43 1_555 1_555
C49 C47 1_555 1_555
O15 C50 1_555 1_555
O16 C52 1_555 1_555
C50 C51 1_555 1_555
C51 C52 1_555 1_555
C52 C53 1_555 1_555
C53 C54 1_555 1_555
C54 C55 1_555 1_555
C55 C50 1_555 1_555
C56 C54 1_555 1_555
H1 O1 1_555 1_555
H2 C2 1_555 1_555
H3 O2 1_555 1_555
H4 C4 1_555 1_555
H5 C6 1_555 1_555
H6 C7 1_555 1_555
H7 C7 1_555 1_555
H8 C7 1_555 1_555
H9 O3 1_555 1_555
H10 O4 1_555 1_555
H11 C9 1_555 1_555
H12 C11 1_555 1_555
H13 C13 1_555 1_555
H14 C14 1_555 1_555
H15 C14 1_555 1_555
H16 C14 1_555 1_555
H17 O5 1_555 1_555
H18 O6 1_555 1_555
H19 C16 1_555 1_555
H20 C18 1_555 1_555
H21 C20 1_555 1_555
H22 C21 1_555 1_555
H23 C21 1_555 1_555
H24 C21 1_555 1_555
H25 O7 1_555 1_555
H26 O8 1_555 1_555
H27 C23 1_555 1_555
H28 C25 1_555 1_555
H29 C27 1_555 1_555
H30 C28 1_555 1_555
H31 C28 1_555 1_555
H32 C28 1_555 1_555
H33 O9 1_555 1_555
H34 O10 1_555 1_555
H35 C30 1_555 1_555
H36 C32 1_555 1_555
H37 C34 1_555 1_555
H38 C35 1_555 1_555
H39 C35 1_555 1_555
H40 C35 1_555 1_555
H41 O11 1_555 1_555
H42 O12 1_555 1_555
H43 C37 1_555 1_555
H44 C39 1_555 1_555
H45 C41 1_555 1_555
H46 C42 1_555 1_555
H47 C42 1_555 1_555
H48 C42 1_555 1_555
H49 O13 1_555 1_555
H50 O14 1_555 1_555
H51 C44 1_555 1_555
H52 C46 1_555 1_555
H53 C48 1_555 1_555
H54 C49 1_555 1_555
H55 C49 1_555 1_555
H56 C49 1_555 1_555
H57 O15 1_555 1_555
H58 O16 1_555 1_555
H59 C51 1_555 1_555
H60 C53 1_555 1_555
H61 C55 1_555 1_555
H62 C56 1_555 1_555
H63 C56 1_555 1_555
H64 C56 1_555 1_555

#END
