
#######################################################################
#
#                 Cambridge Crystallographic Data Centre
#                                CCDC 
#
#######################################################################
#
# If this CIF has been generated from an entry in the Cambridge 
# Structural Database, then it will include bibliographic, chemical, 
# crystal, experimental, refinement or atomic coordinate data resulting 
# from the CCDC's data processing and validation procedures.
#
#######################################################################

data_EWAMUL
_chemical_name_common            
'Orcinol sesquikis(benzene-1,2,4,5-tetracarbonitrile)'
_chemical_formula_moiety         'C7 H8 O2,1.5(C10 H2 N4)'
_chemical_name_systematic        
'5-methylbenzene-1,3-diol sesquikis(benzene-1,2,4,5-tetracarbonitrile)'
_symmetry_cell_setting           monoclinic
_symmetry_space_group_name_H-M   'P 21/n'
_symmetry_Int_Tables_number      14
_space_group_name_Hall           '-P 2yn'
loop_
_symmetry_equiv_pos_site_id
_symmetry_equiv_pos_as_xyz
1 x,y,z
2 1/2-x,1/2+y,1/2-z
3 -x,-y,-z
4 1/2+x,1/2-y,1/2+z
_cell_length_a                   7.2000(14)
_cell_length_b                   7.5989(15)
_cell_length_c                   35.894(7)
_cell_angle_alpha                90
_cell_angle_beta                 91.01(3)
_cell_angle_gamma                90
_cell_volume                     1963.53
_exptl_crystal_colour            yellow
_exptl_crystal_description       platelet
_cell_formula_units_Z            4
loop_
_atom_site_label
_atom_site_type_symbol
_atom_site_fract_x
_atom_site_fract_y
_atom_site_fract_z
O1 O 0.3293(3) 0.6096(2) 0.21325(4)
O2 O 0.1439(3) 0.7626(2) 0.08938(4)
C1 C 0.1230(3) 1.0130(3) 0.17700(5)
C2 C 0.1958(3) 0.8879(3) 0.20127(5)
C3 C 0.2522(3) 0.7244(3) 0.18796(5)
C4 C 0.2318(3) 0.6821(3) 0.15049(5)
C5 C 0.1592(3) 0.8088(3) 0.12640(5)
C6 C 0.1070(3) 0.9740(3) 0.13913(5)
C7 C 0.0626(3) 1.1904(3) 0.19146(7)
H1 H 0.208(3) 0.918(3) 0.2274(7)
H2 H 0.265(3) 0.564(3) 0.1410(6)
H3 H 0.061(4) 1.060(4) 0.1206(8)
H4 H 0.381(4) 0.520(4) 0.2021(8)
H5 H 0.087(5) 0.866(5) 0.0746(12)
H6 H -0.066(6) 1.215(5) 0.1897(11)
H7 H 0.107(5) 1.286(5) 0.1736(11)
H8 H 0.124(4) 1.222(4) 0.2146(10)
N1 N 0.6972(3) 0.9575(3) 0.25155(6)
N2 N 0.5068(3) 1.3069(2) 0.17908(6)
N3 N 0.6051(3) 0.7200(3) 0.03650(5)
N4 N 0.8410(3) 0.3753(3) 0.10594(6)
C8 C 0.6785(3) 0.8740(2) 0.18188(5)
C9 C 0.6084(2) 0.9996(2) 0.15657(5)
C10 C 0.5924(3) 0.9615(3) 0.11873(5)
C11 C 0.6489(3) 0.7965(3) 0.10616(5)
C12 C 0.7234(3) 0.6725(3) 0.13130(5)
C13 C 0.7380(3) 0.7102(3) 0.16928(5)
C14 C 0.6894(3) 0.9174(3) 0.22102(6)
C15 C 0.5502(3) 1.1696(3) 0.16945(6)
C16 C 0.6265(3) 0.7538(3) 0.06728(6)
C17 C 0.7877(3) 0.5056(3) 0.11744(6)
H9 H 0.548(3) 1.058(3) 0.1005(7)
H10 H 0.787(3) 0.621(3) 0.1870(6)
N5 N -0.0480(3) 0.0296(3) 0.04623(6)
N6 N 0.3703(4) 0.3187(4) 0.07388(8)
C18 C -0.1559(3) 0.3961(3) -0.00912(6)
C19 C -0.0232(3) 0.3375(3) 0.01666(5)
C20 C 0.1322(3) 0.4407(3) 0.02588(5)
C21 C -0.0421(3) 0.1659(3) 0.03331(6)
C22 C 0.2670(4) 0.3753(3) 0.05270(7)
H11 H -0.262(4) 0.317(3) -0.0137(8)
N5B N 0.0480(3) 0.9704(3) -0.04623(6)
N6B N -0.3703(4) 0.6813(4) -0.07388(8)
C18B C 0.1559(3) 0.6039(3) 0.00912(6)
C19B C 0.0232(3) 0.6625(3) -0.01666(5)
C20B C -0.1322(3) 0.5593(3) -0.02588(5)
C21B C 0.0421(3) 0.8341(3) -0.03331(6)
C22B C -0.2670(4) 0.6247(3) -0.05270(7)
H11B H 0.262(4) 0.683(3) 0.0137(8)
loop_
_geom_bond_atom_site_label_1
_geom_bond_atom_site_label_2
_geom_bond_site_symmetry_1
_geom_bond_site_symmetry_2
O1 C3 1_555 1_555
O2 C5 1_555 1_555
C1 C2 1_555 1_555
C2 C3 1_555 1_555
C3 C4 1_555 1_555
C4 C5 1_555 1_555
C5 C6 1_555 1_555
C6 C1 1_555 1_555
C7 C1 1_555 1_555
N1 C14 1_555 1_555
N2 C15 1_555 1_555
N3 C16 1_555 1_555
N4 C17 1_555 1_555
C8 C9 1_555 1_555
C9 C10 1_555 1_555
C10 C11 1_555 1_555
C11 C12 1_555 1_555
C12 C13 1_555 1_555
C13 C8 1_555 1_555
C14 C8 1_555 1_555
C15 C9 1_555 1_555
C16 C11 1_555 1_555
C17 C12 1_555 1_555
N5 C21 1_555 1_555
N6 C22 1_555 1_555
C18 C19 1_555 1_555
C19 C20 1_555 1_555
C20 C22 1_555 1_555
C21 C19 1_555 1_555
H1 C2 1_555 1_555
H2 C4 1_555 1_555
H3 C6 1_555 1_555
H4 O1 1_555 1_555
H5 O2 1_555 1_555
H6 C7 1_555 1_555
H7 C7 1_555 1_555
H8 C7 1_555 1_555
H9 C10 1_555 1_555
H10 C13 1_555 1_555
H11 C18 1_555 1_555
N5B C21B 1_555 1_555
N6B C22B 1_555 1_555
C18B C20 1_555 1_555
C19B C18B 1_555 1_555
C20B C18 1_555 1_555
C21B C19B 1_555 1_555
C22B C20B 1_555 1_555
H11B C18B 1_555 1_555
C19B C20B 1_555 1_555

#END
