
#######################################################################
#
#                 Cambridge Crystallographic Data Centre
#                                CCDC 
#
#######################################################################
#
# If this CIF has been generated from an entry in the Cambridge 
# Structural Database, then it will include bibliographic, chemical, 
# crystal, experimental, refinement or atomic coordinate data resulting 
# from the CCDC's data processing and validation procedures.
#
#######################################################################

data_EWAMIZ
_chemical_name_common            'Orcinol monohydrate'
_chemical_formula_moiety         'C7 H8 O2,H2 O1'
_chemical_name_systematic        '5-Methylbenzene-1,3-diol monohydrate'
_symmetry_cell_setting           monoclinic
_symmetry_space_group_name_H-M   'P 21/c'
_symmetry_Int_Tables_number      14
_space_group_name_Hall           '-P 2ybc'
loop_
_symmetry_equiv_pos_site_id
_symmetry_equiv_pos_as_xyz
1 x,y,z
2 -x,1/2+y,1/2-z
3 -x,-y,-z
4 x,1/2-y,1/2+z
_cell_length_a                   9.899(2)
_cell_length_b                   7.9510(16)
_cell_length_c                   9.1707(18)
_cell_angle_alpha                90
_cell_angle_beta                 96.88(3)
_cell_angle_gamma                90
_cell_volume                     716.6
_exptl_crystal_colour            colorless
_exptl_crystal_description       platelet
_cell_formula_units_Z            4
loop_
_atom_site_label
_atom_site_type_symbol
_atom_site_fract_x
_atom_site_fract_y
_atom_site_fract_z
O1 O 0.43860(9) 0.62613(11) -0.13754(11)
O2 O 0.25601(9) 1.14483(13) 0.01172(10)
C1 C 0.16137(12) 0.71309(16) 0.08615(13)
C2 C 0.25358(11) 0.62318(15) 0.01230(12)
C3 C 0.34581(11) 0.70867(14) -0.06333(12)
C4 C 0.34955(12) 0.88383(14) -0.06552(12)
C5 C 0.25739(11) 0.97168(17) 0.00842(11)
C6 C 0.16375(12) 0.88838(16) 0.08356(13)
C7 C 0.05914(14) 0.62400(18) 0.16694(15)
H1 H 0.2522(14) 0.503(3) 0.0139(15)
H2 H 0.1007(18) 0.960(2) 0.132(2)
H3 H 0.4153(18) 0.942(2) -0.119(2)
H4 H 0.0699(19) 0.508(3) 0.165(2)
H5 H -0.034(3) 0.641(3) 0.122(3)
H6 H 0.067(2) 0.663(3) 0.269(2)
H7 H 0.4202(18) 0.527(3) -0.146(2)
H8 H 0.300(2) 1.181(3) -0.053(3)
O3 O 0.38140(10) 0.20793(11) 0.29693(10)
H9 H 0.452(2) 0.261(3) 0.280(2)
H10 H 0.3304(18) 0.201(2) 0.215(2)
loop_
_geom_bond_atom_site_label_1
_geom_bond_atom_site_label_2
_geom_bond_site_symmetry_1
_geom_bond_site_symmetry_2
O1 C3 1_555 1_555
O2 C5 1_555 1_555
C1 C2 1_555 1_555
C2 C3 1_555 1_555
C3 C4 1_555 1_555
C4 C5 1_555 1_555
C5 C6 1_555 1_555
C6 C1 1_555 1_555
C7 C1 1_555 1_555
O3 H9 1_555 1_555
H1 C2 1_555 1_555
H2 C6 1_555 1_555
H3 C4 1_555 1_555
H4 C7 1_555 1_555
H5 C7 1_555 1_555
H6 C7 1_555 1_555
H7 O1 1_555 1_555
H8 O2 1_555 1_555
H10 O3 1_555 1_555

#END
