
#######################################################################
#
#                 Cambridge Crystallographic Data Centre
#                                CCDC 
#
#######################################################################
#
# If this CIF has been generated from an entry in the Cambridge 
# Structural Database, then it will include bibliographic, chemical, 
# crystal, experimental, refinement or atomic coordinate data resulting 
# from the CCDC's data processing and validation procedures.
#
#######################################################################

data_EWANOG
_chemical_name_common            'Orcinol bis(aminodimethylpyrimidine)'
_chemical_formula_moiety         'C7 H8 O2,2(C6 H9 N3)'
_chemical_name_systematic        
'5-Methylbenzene-1,3-diol bis(4,6-dimethylpyrimidin-2-amine)'
_symmetry_cell_setting           triclinic
_symmetry_space_group_name_H-M   'P -1'
_symmetry_Int_Tables_number      2
_space_group_name_Hall           '-P 1'
loop_
_symmetry_equiv_pos_site_id
_symmetry_equiv_pos_as_xyz
1 x,y,z
2 -x,-y,-z
_cell_length_a                   8.4494(9)
_cell_length_b                   12.3620(13)
_cell_length_c                   19.748(2)
_cell_angle_alpha                83.323(7)
_cell_angle_beta                 77.689(7)
_cell_angle_gamma                89.497(6)
_cell_volume                     2001.33
_exptl_crystal_colour            colorless
_exptl_crystal_description       needle
_cell_formula_units_Z            4
loop_
_atom_site_label
_atom_site_type_symbol
_atom_site_fract_x
_atom_site_fract_y
_atom_site_fract_z
N1 N 0.8232(2) 0.04335(14) 0.13597(10)
N2 N 0.9290(2) 0.13158(14) 0.21914(10)
N3 N 1.0820(3) 0.01225(18) 0.15141(13)
C1 C 0.9403(3) 0.06344(17) 0.17005(12)
C2 C 0.6862(3) 0.09767(18) 0.15261(13)
C3 C 0.6663(3) 0.1720(2) 0.20060(14)
C4 C 0.7907(3) 0.18698(18) 0.23367(13)
C5 C 0.5514(3) 0.0703(2) 0.11823(16)
C6 C 0.7804(4) 0.2662(2) 0.28652(15)
H1 H 0.57120 0.21110 0.21030
H2 H 1.143(3) 0.0048(19) 0.1855(12)
H3 H 1.083(3) -0.045(2) 0.1236(13)
H4 H 0.59660 0.04860 0.07310
H5 H 0.48540 0.13300 0.11320
H6 H 0.48630 0.01160 0.14650
H7 H 0.80580 0.22990 0.32850
H8 H 0.67260 0.29420 0.29680
H9 H 0.85610 0.32520 0.26810
N4 N 0.1501(3) 0.1373(2) -0.04169(15)
N5 N -0.1116(2) 0.16962(15) -0.05242(10)
N6 N 0.0185(2) 0.27441(15) 0.01547(10)
C7 C 0.0147(3) 0.19529(19) -0.02541(12)
C8 C -0.2449(3) 0.2286(2) -0.03602(12)
C9 C -0.2530(3) 0.3098(2) 0.00689(13)
C10 C -0.1177(3) 0.33113(18) 0.03244(12)
C11 C -0.3875(3) 0.2009(3) -0.06535(16)
C12 C -0.1178(3) 0.4166(2) 0.08015(13)
H10 H 0.146(3) 0.076(2) -0.0660(16)
H11 H 0.225(4) 0.147(2) -0.0214(16)
H12 H -0.34720 0.34930 0.01840
H13 H -0.37200 0.23330 -0.11290
H14 H -0.48440 0.22860 -0.03840
H15 H -0.39740 0.12330 -0.06340
H16 H -0.01400 0.45300 0.06920
H17 H -0.13920 0.38320 0.12760
H18 H -0.20040 0.46860 0.07420
N7 N 0.5233(2) 0.94459(15) 0.31295(10)
N8 N 0.6320(2) 1.02912(16) 0.39649(10)
N9 N 0.3883(3) 1.0804(2) 0.37069(14)
C13 C 0.5180(3) 1.01652(19) 0.35959(12)
C14 C 0.6548(3) 0.88144(19) 0.30182(13)
C15 C 0.7757(3) 0.8895(2) 0.33768(14)
C16 C 0.7616(3) 0.9651(2) 0.38431(13)
C17 C 0.6620(3) 0.8030(2) 0.24912(15)
C18 C 0.8907(4) 0.9819(3) 0.42387(18)
H19 H 0.320(3) 1.086(2) 0.3426(14)
H20 H 0.385(3) 1.131(2) 0.4011(14)
H21 H 0.86530 0.84480 0.33060
H22 H 0.59400 0.74070 0.26950
H23 H 0.77170 0.78010 0.23460
H24 H 0.62500 0.83780 0.20940
H25 H 0.93490 1.05450 0.41080
H26 H 0.97510 0.93020 0.41310
H27 H 0.84460 0.97180 0.47300
N10 N 0.5012(3) 0.65663(16) 0.45194(10)
N11 N 0.6283(2) 0.75023(16) 0.52620(10)
N12 N 0.3736(3) 0.7937(2) 0.51084(15)
C19 C 0.5049(3) 0.7319(2) 0.49543(12)
C20 C 0.6357(3) 0.5972(2) 0.43620(12)
C21 C 0.7688(3) 0.6127(2) 0.46436(13)
C22 C 0.7593(3) 0.6894(2) 0.51031(13)
C23 C 0.6337(4) 0.5135(2) 0.38733(14)
C24 C 0.8956(3) 0.7076(3) 0.54559(17)
H28 H 0.303(4) 0.791(2) 0.4917(16)
H29 H 0.377(4) 0.852(3) 0.5403(17)
H30 H 0.86220 0.57250 0.45260
H31 H 0.52790 0.48030 0.39660
H32 H 0.71200 0.45870 0.39400
H33 H 0.66010 0.54780 0.34010
H34 H 0.90880 0.78420 0.54740
H35 H 0.99390 0.67980 0.51980
H36 H 0.87140 0.67050 0.59220
O1 O 0.3020(2) 0.37646(15) 0.02811(9)
O2 O 0.1874(2) 0.20946(16) 0.26569(9)
C25 C 0.4211(3) 0.4542(2) 0.18262(14)
C26 C 0.4049(3) 0.45441(19) 0.11415(13)
C27 C 0.3138(3) 0.37392(19) 0.09631(12)
C28 C 0.2397(3) 0.29155(18) 0.14662(12)
C29 C 0.2557(3) 0.29114(19) 0.21506(13)
C30 C 0.3455(3) 0.3723(2) 0.23302(14)
C31 C 0.5170(3) 0.5429(2) 0.20241(16)
H37 H 0.212(4) 0.331(2) 0.0262(15)
H38 H 0.102(4) 0.174(2) 0.2505(16)
H39 H 0.45540 0.50890 0.08010
H40 H 0.17970 0.23700 0.13450
H41 H 0.35520 0.37190 0.27910
H42 H 0.57430 0.58590 0.16090
H43 H 0.59310 0.51100 0.22840
H44 H 0.44480 0.58860 0.23050
O3 O 0.2202(3) -0.42099(17) 0.41621(10)
O4 O 0.2667(2) -0.09671(14) 0.25403(10)
C32 C 0.0779(3) -0.36149(19) 0.25498(12)
C33 C 0.1099(3) -0.41545(19) 0.31589(13)
C34 C 0.1925(3) -0.3636(2) 0.35648(13)
C35 C 0.2445(3) -0.25646(19) 0.33684(12)
C36 C 0.2138(3) -0.20227(18) 0.27618(12)
C37 C 0.1297(3) -0.25402(19) 0.23593(12)
C38 C -0.0026(3) -0.4193(2) 0.20833(14)
H45 H 0.303(4) -0.393(3) 0.4313(16)
H46 H 0.352(3) -0.083(2) 0.2749(15)
H47 H 0.07550 -0.48740 0.32960
H48 H 0.29960 -0.22150 0.36430
H49 H 0.10770 -0.21620 0.19550
H50 H 0.07620 -0.46080 0.18000
H51 H -0.04930 -0.36680 0.17880
H52 H -0.08620 -0.46730 0.23630
loop_
_geom_bond_atom_site_label_1
_geom_bond_atom_site_label_2
_geom_bond_site_symmetry_1
_geom_bond_site_symmetry_2
N1 C1 1_555 1_555
N2 C1 1_555 1_555
N3 C1 1_555 1_555
C2 N1 1_555 1_555
C3 C2 1_555 1_555
C4 N2 1_555 1_555
C5 C2 1_555 1_555
C6 C4 1_555 1_555
N4 C7 1_555 1_555
N5 C7 1_555 1_555
N6 C7 1_555 1_555
C8 N5 1_555 1_555
C9 C8 1_555 1_555
C10 N6 1_555 1_555
C11 C8 1_555 1_555
C12 C10 1_555 1_555
N7 C13 1_555 1_555
N8 C13 1_555 1_555
N9 C13 1_555 1_555
C14 N7 1_555 1_555
C15 C14 1_555 1_555
C16 N8 1_555 1_555
C17 C14 1_555 1_555
C18 C16 1_555 1_555
N10 C19 1_555 1_555
N11 C19 1_555 1_555
N12 C19 1_555 1_555
C20 N10 1_555 1_555
C21 C20 1_555 1_555
C22 N11 1_555 1_555
C23 C20 1_555 1_555
C24 C22 1_555 1_555
O1 C27 1_555 1_555
O2 C29 1_555 1_555
C25 C26 1_555 1_555
C26 C27 1_555 1_555
C27 C28 1_555 1_555
C28 C29 1_555 1_555
C29 C30 1_555 1_555
C30 C25 1_555 1_555
C31 C25 1_555 1_555
O3 C34 1_555 1_555
O4 C36 1_555 1_555
C32 C33 1_555 1_555
C33 C34 1_555 1_555
C34 C35 1_555 1_555
C35 C36 1_555 1_555
C36 C37 1_555 1_555
C37 C32 1_555 1_555
C38 C32 1_555 1_555
H1 C3 1_555 1_555
H2 N3 1_555 1_555
H3 N3 1_555 1_555
H4 C5 1_555 1_555
H5 C5 1_555 1_555
H6 C5 1_555 1_555
H7 C6 1_555 1_555
H8 C6 1_555 1_555
H9 C6 1_555 1_555
H10 N4 1_555 1_555
H11 N4 1_555 1_555
H12 C9 1_555 1_555
H13 C11 1_555 1_555
H14 C11 1_555 1_555
H15 C11 1_555 1_555
H16 C12 1_555 1_555
H17 C12 1_555 1_555
H18 C12 1_555 1_555
H19 N9 1_555 1_555
H20 N9 1_555 1_555
H21 C15 1_555 1_555
H22 C17 1_555 1_555
H23 C17 1_555 1_555
H24 C17 1_555 1_555
H25 C18 1_555 1_555
H26 C18 1_555 1_555
H27 C18 1_555 1_555
H28 N12 1_555 1_555
H29 N12 1_555 1_555
H30 C21 1_555 1_555
H31 C23 1_555 1_555
H32 C23 1_555 1_555
H33 C23 1_555 1_555
H34 C24 1_555 1_555
H35 C24 1_555 1_555
H36 C24 1_555 1_555
H37 O1 1_555 1_555
H38 O2 1_555 1_555
H39 C26 1_555 1_555
H40 C28 1_555 1_555
H41 C30 1_555 1_555
H42 C31 1_555 1_555
H43 C31 1_555 1_555
H44 C31 1_555 1_555
H45 O3 1_555 1_555
H46 O4 1_555 1_555
H47 C33 1_555 1_555
H48 C35 1_555 1_555
H49 C37 1_555 1_555
H50 C38 1_555 1_555
H51 C38 1_555 1_555
H52 C38 1_555 1_555
C3 C4 1_555 1_555
C9 C10 1_555 1_555
C15 C16 1_555 1_555
C21 C22 1_555 1_555

#END
