
#######################################################################
#
#                 Cambridge Crystallographic Data Centre
#                                CCDC 
#
#######################################################################
#
# If this CIF has been generated from an entry in the Cambridge 
# Structural Database, then it will include bibliographic, chemical, 
# crystal, experimental, refinement or atomic coordinate data resulting 
# from the CCDC's data processing and validation procedures.
#
#######################################################################

data_EWAPOI
_chemical_name_common            'Orcinol diacridine'
_chemical_formula_moiety         'C7 H8 O2,2(C13 H9 N1)'
_chemical_name_systematic        '5-Methylbenzene-1,3-diol diacridine'
_symmetry_cell_setting           triclinic
_symmetry_space_group_name_H-M   'P -1'
_symmetry_Int_Tables_number      2
_space_group_name_Hall           '-P 1'
loop_
_symmetry_equiv_pos_site_id
_symmetry_equiv_pos_as_xyz
1 x,y,z
2 -x,-y,-z
_cell_length_a                   7.837(2)
_cell_length_b                   9.702(3)
_cell_length_c                   17.830(5)
_cell_angle_alpha                98.229(7)
_cell_angle_beta                 100.908(7)
_cell_angle_gamma                103.819(7)
_cell_volume                     1267.21
_exptl_crystal_colour            yellow
_exptl_crystal_description       prism
_cell_formula_units_Z            2
loop_
_atom_site_label
_atom_site_type_symbol
_atom_site_fract_x
_atom_site_fract_y
_atom_site_fract_z
N1 N 0.1466(4) -0.1024(3) 0.44995(15)
C1 C 0.1690(4) 0.0353(4) 0.43868(19)
C2 C 0.0697(5) 0.0611(4) 0.3687(2)
C3 C 0.0886(6) 0.1990(5) 0.3566(2)
C4 C 0.2061(6) 0.3205(5) 0.4137(3)
C5 C 0.3026(6) 0.3001(4) 0.4803(2)
C6 C 0.2887(5) 0.1585(4) 0.4958(2)
C7 C 0.3818(4) 0.1300(4) 0.5641(2)
C8 C 0.3599(4) -0.0106(4) 0.57671(18)
C9 C 0.4508(5) -0.0464(4) 0.6462(2)
C10 C 0.4205(5) -0.1864(5) 0.6554(2)
C11 C 0.3025(6) -0.3014(4) 0.5948(2)
C12 C 0.2147(5) -0.2712(4) 0.5284(2)
C13 C 0.2390(4) -0.1269(4) 0.51630(18)
H1 H -0.00970 -0.01810 0.33050
H2 H 0.02300 0.21490 0.30960
H3 H 0.21600 0.41590 0.40450
H4 H 0.38090 0.38150 0.51730
H5 H 0.46170 0.20830 0.60270
H6 H 0.53290 0.02840 0.68610
H7 H 0.47820 -0.20800 0.70240
H8 H 0.28560 -0.39900 0.60110
H9 H 0.13510 -0.34860 0.48920
N2 N 0.7376(4) 1.0848(3) 1.05429(15)
C14 C 0.7072(4) 0.9487(4) 1.06881(19)
C15 C 0.6716(5) 0.9236(4) 1.1419(2)
C16 C 0.6449(5) 0.7884(4) 1.1587(2)
C17 C 0.6427(5) 0.6678(4) 1.1023(2)
C18 C 0.6755(5) 0.6878(4) 1.0321(2)
C19 C 0.7112(4) 0.8282(4) 1.01256(19)
C20 C 0.7494(4) 0.8560(4) 0.9427(2)
C21 C 0.7850(4) 0.9954(4) 0.92673(19)
C22 C 0.8303(5) 1.0321(5) 0.8570(2)
C23 C 0.8652(6) 1.1700(6) 0.8460(2)
C24 C 0.8581(5) 1.2834(5) 0.9051(3)
C25 C 0.8131(5) 1.2537(4) 0.9720(2)
C26 C 0.7766(4) 1.1099(4) 0.98613(19)
H10 H 0.66640 1.00190 1.17930
H11 H 0.62750 0.77450 1.20870
H12 H 0.61830 0.57340 1.11390
H13 H 0.67490 0.60680 0.99510
H14 H 0.75160 0.77790 0.90450
H15 H 0.83600 0.95790 0.81730
H16 H 0.89460 1.19170 0.79900
H17 H 0.88500 1.38050 0.89740
H18 H 0.80590 1.33000 1.01000
O1 O 1.1437(3) 0.3092(3) 0.64462(14)
O2 O 1.3509(3) 0.7126(3) 0.84919(14)
C27 C 1.0977(4) 0.4042(4) 0.69599(18)
C28 C 1.2386(4) 0.5116(3) 0.74700(17)
C29 C 1.2050(4) 0.6136(3) 0.80079(18)
C30 C 1.0270(4) 0.6097(3) 0.80397(18)
C31 C 0.8836(4) 0.5029(3) 0.75237(17)
C32 C 0.9194(4) 0.3994(3) 0.69846(18)
C33 C 0.6927(5) 0.5000(4) 0.7538(2)
H19 H 1.04960 0.24920 0.61650
H20 H 1.35980 0.51510 0.74490
H21 H 1.31640 0.76920 0.87930
H22 H 1.00340 0.67920 0.84100
H23 H 0.82250 0.32630 0.66370
H24 H 0.67680 0.50130 0.80710
H25 H 0.61080 0.41170 0.71930
H26 H 0.66540 0.58500 0.73600
loop_
_geom_bond_atom_site_label_1
_geom_bond_atom_site_label_2
_geom_bond_site_symmetry_1
_geom_bond_site_symmetry_2
N1 C1 1_555 1_555
C1 C2 1_555 1_555
C2 C3 1_555 1_555
C3 C4 1_555 1_555
C4 C5 1_555 1_555
C5 C6 1_555 1_555
C6 C1 1_555 1_555
C7 C6 1_555 1_555
C8 C7 1_555 1_555
C9 C8 1_555 1_555
C10 C9 1_555 1_555
C11 C10 1_555 1_555
C12 C11 1_555 1_555
C13 N1 1_555 1_555
N2 C14 1_555 1_555
C14 C15 1_555 1_555
C15 C16 1_555 1_555
C16 C17 1_555 1_555
C17 C18 1_555 1_555
C18 C19 1_555 1_555
C19 C14 1_555 1_555
C20 C19 1_555 1_555
C21 C20 1_555 1_555
C22 C21 1_555 1_555
C23 C22 1_555 1_555
C24 C23 1_555 1_555
C25 C24 1_555 1_555
C26 N2 1_555 1_555
O1 C27 1_555 1_555
O2 C29 1_555 1_555
C27 C28 1_555 1_555
C28 C29 1_555 1_555
C29 C30 1_555 1_555
C30 C31 1_555 1_555
C31 C32 1_555 1_555
C32 C27 1_555 1_555
C33 C31 1_555 1_555
H1 C2 1_555 1_555
H2 C3 1_555 1_555
H3 C4 1_555 1_555
H4 C5 1_555 1_555
H5 C7 1_555 1_555
H6 C9 1_555 1_555
H7 C10 1_555 1_555
H8 C11 1_555 1_555
H9 C12 1_555 1_555
H10 C15 1_555 1_555
H11 C16 1_555 1_555
H12 C17 1_555 1_555
H13 C18 1_555 1_555
H14 C20 1_555 1_555
H15 C22 1_555 1_555
H16 C23 1_555 1_555
H17 C24 1_555 1_555
H18 C25 1_555 1_555
H19 O1 1_555 1_555
H20 C28 1_555 1_555
H21 O2 1_555 1_555
H22 C30 1_555 1_555
H23 C32 1_555 1_555
H24 C33 1_555 1_555
H25 C33 1_555 1_555
H26 C33 1_555 1_555
C8 C13 1_555 1_555
C12 C13 1_555 1_555
C21 C26 1_555 1_555
C25 C26 1_555 1_555

#END
