
#######################################################################
#
#                 Cambridge Crystallographic Data Centre
#                                CCDC 
#
#######################################################################
#
# If this CIF has been generated from an entry in the Cambridge 
# Structural Database, then it will include bibliographic, chemical, 
# crystal, experimental, refinement or atomic coordinate data resulting 
# from the CCDC's data processing and validation procedures.
#
#######################################################################

data_EWAPIC
_chemical_name_common            'Orcinol N,N-dimethylpyridin-4-amine'
_chemical_formula_moiety         'C7 H8 O2,C7 H10 N2'
_chemical_name_systematic        
'5-Methylbenzene-1,3-diol N,N-dimethylpyridin-4-amine'
_symmetry_cell_setting           monoclinic
_symmetry_space_group_name_H-M   'P 21/c'
_symmetry_Int_Tables_number      14
_space_group_name_Hall           '-P 2ybc'
loop_
_symmetry_equiv_pos_site_id
_symmetry_equiv_pos_as_xyz
1 x,y,z
2 -x,1/2+y,1/2-z
3 -x,-y,-z
4 x,1/2-y,1/2+z
_cell_length_a                   10.498(8)
_cell_length_b                   8.887(7)
_cell_length_c                   15.557(9)
_cell_angle_alpha                90
_cell_angle_beta                 113.80(4)
_cell_angle_gamma                90
_cell_volume                     1327.97
_exptl_crystal_colour            brown
_exptl_crystal_description       block
_cell_formula_units_Z            4
loop_
_atom_site_label
_atom_site_type_symbol
_atom_site_fract_x
_atom_site_fract_y
_atom_site_fract_z
N1 N 0.32941(12) 0.26169(13) 0.37131(8)
N2 N 0.54227(12) -0.13736(12) 0.37218(9)
C1 C 0.46001(15) 0.26119(16) 0.37552(10)
C2 C 0.53524(14) 0.13432(14) 0.37784(10)
C3 C 0.47480(13) -0.00867(13) 0.37477(8)
C4 C 0.33992(13) -0.00837(14) 0.37418(9)
C5 C 0.27364(14) 0.12566(16) 0.37188(10)
C6 C 0.68419(16) -0.13219(17) 0.37718(12)
C7 C 0.47859(16) -0.28325(15) 0.36928(11)
H1 H 0.50310 0.35570 0.37700
H2 H 0.62750 0.14240 0.38150
H3 H 0.29510 -0.10080 0.37540
H4 H 0.18250 0.12210 0.37060
H5 H 0.68670 -0.06860 0.32640
H6 H 0.71450 -0.23420 0.37060
H7 H 0.74650 -0.09030 0.43790
H8 H 0.47010 -0.30130 0.42890
H9 H 0.53670 -0.36180 0.35930
H10 H 0.38600 -0.28520 0.31770
O1 O 0.16758(11) 0.49333(11) 0.31094(7)
O2 O -0.02275(10) 0.94768(10) 0.37341(7)
C8 C 0.13889(12) 0.58182(13) 0.37280(8)
C9 C 0.06938(12) 0.71740(13) 0.33925(8)
C10 C 0.04032(12) 0.81080(13) 0.40061(8)
C11 C 0.07814(12) 0.76915(13) 0.49414(8)
C12 C 0.14633(12) 0.63332(13) 0.52707(8)
C13 C 0.17719(12) 0.53970(13) 0.46607(9)
C14 C 0.18608(14) 0.58662(16) 0.62786(9)
H11 H 0.225(2) 0.408(2) 0.3439(15)
H12 H 0.04230 0.74530 0.27540
H13 H -0.064(2) 0.956(2) 0.3088(15)
H14 H 0.05730 0.83360 0.53540
H15 H 0.22440 0.44720 0.48820
H16 H 0.13710 0.49360 0.62970
H17 H 0.16020 0.66630 0.66130
H18 H 0.28680 0.56960 0.65810
loop_
_geom_bond_atom_site_label_1
_geom_bond_atom_site_label_2
_geom_bond_site_symmetry_1
_geom_bond_site_symmetry_2
N1 C1 1_555 1_555
N2 C3 1_555 1_555
C1 C2 1_555 1_555
C2 C3 1_555 1_555
C3 C4 1_555 1_555
C4 C5 1_555 1_555
C5 N1 1_555 1_555
C6 N2 1_555 1_555
C7 N2 1_555 1_555
O1 C8 1_555 1_555
O2 C10 1_555 1_555
C8 C9 1_555 1_555
C9 C10 1_555 1_555
C10 C11 1_555 1_555
C11 C12 1_555 1_555
C12 C13 1_555 1_555
C13 C8 1_555 1_555
C14 C12 1_555 1_555
H1 C1 1_555 1_555
H2 C2 1_555 1_555
H3 C4 1_555 1_555
H4 C5 1_555 1_555
H5 C6 1_555 1_555
H6 C6 1_555 1_555
H7 C6 1_555 1_555
H8 C7 1_555 1_555
H9 C7 1_555 1_555
H10 C7 1_555 1_555
H11 O1 1_555 1_555
H12 C9 1_555 1_555
H13 O2 1_555 1_555
H14 C11 1_555 1_555
H15 C13 1_555 1_555
H16 C14 1_555 1_555
H17 C14 1_555 1_555
H18 C14 1_555 1_555

#END
