
#######################################################################
#
#                 Cambridge Crystallographic Data Centre
#                                CCDC 
#
#######################################################################
#
# If this CIF has been generated from an entry in the Cambridge 
# Structural Database, then it will include bibliographic, chemical, 
# crystal, experimental, refinement or atomic coordinate data resulting 
# from the CCDC's data processing and validation procedures.
#
#######################################################################

data_EWARIE
_chemical_name_common            'Orcinol diphenazine'
_chemical_formula_moiety         'C7 H8 O2,2(C12 H8 N2)'
_chemical_name_systematic        '5-Methylbenzene-1,3-diol diphenazine'
_symmetry_cell_setting           triclinic
_symmetry_space_group_name_H-M   'P -1'
_symmetry_Int_Tables_number      2
_space_group_name_Hall           '-P 1'
loop_
_symmetry_equiv_pos_site_id
_symmetry_equiv_pos_as_xyz
1 x,y,z
2 -x,-y,-z
_cell_length_a                   8.1760(16)
_cell_length_b                   9.2940(19)
_cell_length_c                   16.888(3)
_cell_angle_alpha                102.32(3)
_cell_angle_beta                 102.03(3)
_cell_angle_gamma                93.53(3)
_cell_volume                     1218.62
_exptl_crystal_colour            colorless
_exptl_crystal_description       prism
_cell_formula_units_Z            2
loop_
_atom_site_label
_atom_site_type_symbol
_atom_site_fract_x
_atom_site_fract_y
_atom_site_fract_z
N1 N 0.3018(3) 0.0374(3) 0.01844(15)
N2 N 0.0476(3) -0.1820(3) -0.08897(16)
C1 C 0.1987(4) 0.0662(3) -0.04869(19)
C2 C 0.2203(4) 0.2078(3) -0.0675(2)
C3 C 0.1178(4) 0.2357(4) -0.1358(2)
C4 C -0.0132(4) 0.1283(4) -0.1886(2)
C5 C -0.0366(4) -0.0070(4) -0.1721(2)
C6 C 0.0700(4) -0.0441(3) -0.10234(18)
C7 C 0.2830(4) -0.1009(3) 0.03137(18)
C8 C 0.3940(4) -0.1382(4) 0.09904(19)
C9 C 0.3806(4) -0.2798(4) 0.1093(2)
C10 C 0.2550(4) -0.3893(4) 0.0540(2)
C11 C 0.1460(4) -0.3570(3) -0.0099(2)
C12 C 0.1555(4) -0.2106(3) -0.02360(19)
H1 H 0.30540 0.28190 -0.03270
H2 H 0.13400 0.32950 -0.14860
H3 H -0.08410 0.15140 -0.23530
H4 H -0.12470 -0.07800 -0.20720
H5 H 0.47670 -0.06520 0.13670
H6 H 0.45580 -0.30560 0.15380
H7 H 0.24770 -0.48710 0.06240
H8 H 0.06300 -0.43180 -0.04590
N3 N 0.7223(3) 1.1356(3) 0.57020(16)
N4 N 0.7685(3) 0.8863(3) 0.44928(16)
C13 C 0.7090(4) 0.8697(3) 0.5160(2)
C14 C 0.6682(4) 0.7237(4) 0.5262(2)
C15 C 0.6027(4) 0.7067(4) 0.5917(2)
C16 C 0.5746(4) 0.8315(5) 0.6512(2)
C17 C 0.6137(4) 0.9718(4) 0.6438(2)
C18 C 0.6828(4) 0.9952(3) 0.57627(19)
C19 C 0.8034(4) 1.0250(3) 0.44177(19)
C20 C 0.7819(4) 1.1510(3) 0.50350(19)
C21 C 0.8603(4) 1.0493(4) 0.3711(2)
C22 C 0.8937(4) 1.1893(4) 0.3620(2)
C23 C 0.8758(4) 1.3142(4) 0.4238(2)
C24 C 0.8232(4) 1.2960(3) 0.4930(2)
H9 H 0.68680 0.63940 0.48750
H10 H 0.57500 0.60970 0.59810
H11 H 0.52820 0.81650 0.69630
H12 H 0.59480 1.05420 0.68370
H13 H 0.87520 0.96700 0.32990
H14 H 0.92920 1.20390 0.31390
H15 H 0.90070 1.41130 0.41680
H16 H 0.81430 1.38030 0.53440
O1 O 0.8213(3) 0.6399(3) 0.33204(15)
O2 O 0.5788(3) 0.2170(2) 0.12100(14)
C25 C 0.6765(4) 0.5532(3) 0.28548(18)
C26 C 0.6948(4) 0.4303(3) 0.22559(18)
C27 C 0.5527(4) 0.3383(3) 0.17782(18)
C28 C 0.3930(4) 0.3665(3) 0.18876(18)
C29 C 0.3730(4) 0.4896(3) 0.24847(18)
C30 C 0.5164(4) 0.5831(3) 0.29788(18)
C31 C 0.1997(4) 0.5210(4) 0.2609(2)
H17 H 0.798(5) 0.729(4) 0.372(3)
H18 H 0.80340 0.40980 0.21760
H19 H 0.468(5) 0.152(5) 0.088(3)
H20 H 0.29730 0.30200 0.15560
H21 H 0.50480 0.66600 0.33950
H22 H 0.20920 0.61090 0.30490
H23 H 0.14720 0.43720 0.27680
H24 H 0.13040 0.53530 0.20890
loop_
_geom_bond_atom_site_label_1
_geom_bond_atom_site_label_2
_geom_bond_site_symmetry_1
_geom_bond_site_symmetry_2
N1 C1 1_555 1_555
N2 C6 1_555 1_555
C1 C2 1_555 1_555
C2 C3 1_555 1_555
C3 C4 1_555 1_555
C4 C5 1_555 1_555
C5 C6 1_555 1_555
C6 C1 1_555 1_555
C7 N1 1_555 1_555
C8 C7 1_555 1_555
C9 C8 1_555 1_555
C10 C9 1_555 1_555
C11 C10 1_555 1_555
C12 N2 1_555 1_555
N3 C18 1_555 1_555
N4 C13 1_555 1_555
C13 C14 1_555 1_555
C14 C15 1_555 1_555
C15 C16 1_555 1_555
C16 C17 1_555 1_555
C17 C18 1_555 1_555
C18 C13 1_555 1_555
C19 N4 1_555 1_555
C20 N3 1_555 1_555
C21 C19 1_555 1_555
C22 C21 1_555 1_555
C23 C22 1_555 1_555
C24 C20 1_555 1_555
O1 C25 1_555 1_555
O2 C27 1_555 1_555
C25 C26 1_555 1_555
C26 C27 1_555 1_555
C27 C28 1_555 1_555
C28 C29 1_555 1_555
C29 C30 1_555 1_555
C30 C25 1_555 1_555
C31 C29 1_555 1_555
H1 C2 1_555 1_555
H2 C3 1_555 1_555
H3 C4 1_555 1_555
H4 C5 1_555 1_555
H5 C8 1_555 1_555
H6 C9 1_555 1_555
H7 C10 1_555 1_555
H8 C11 1_555 1_555
H9 C14 1_555 1_555
H10 C15 1_555 1_555
H11 C16 1_555 1_555
H12 C17 1_555 1_555
H13 C21 1_555 1_555
H14 C22 1_555 1_555
H15 C23 1_555 1_555
H16 C24 1_555 1_555
H17 O1 1_555 1_555
H18 C26 1_555 1_555
H19 O2 1_555 1_555
H20 C28 1_555 1_555
H21 C30 1_555 1_555
H22 C31 1_555 1_555
H23 C31 1_555 1_555
H24 C31 1_555 1_555
C7 C12 1_555 1_555
C11 C12 1_555 1_555
C19 C20 1_555 1_555
C23 C24 1_555 1_555

#END
