
#######################################################################
#
#                 Cambridge Crystallographic Data Centre
#                                CCDC 
#
#######################################################################
#
# If this CIF has been generated from an entry in the Cambridge 
# Structural Database, then it will include bibliographic, chemical, 
# crystal, experimental, refinement or atomic coordinate data resulting 
# from the CCDC's data processing and validation procedures.
#
#######################################################################

data_EWAXUX
_chemical_formula_moiety         'C18 H23 N2 S1 1+,C4 H6 N1 O4 1-,2(H2 O1)'
_chemical_name_systematic        
'4-(2-((2,4-dimethylphenyl)sulfanyl)phenyl)piperazin-1-ium 2-azaniumylsuccinate dihydrate'
_symmetry_cell_setting           monoclinic
_symmetry_space_group_name_H-M   'P 21'
_symmetry_Int_Tables_number      4
_space_group_name_Hall           'P 2yb'
loop_
_symmetry_equiv_pos_site_id
_symmetry_equiv_pos_as_xyz
1 x,y,z
2 -x,1/2+y,-z
_cell_length_a                   8.3052(5)
_cell_length_b                   6.1117(3)
_cell_length_c                   23.7414(13)
_cell_angle_alpha                90
_cell_angle_beta                 93.652(2)
_cell_angle_gamma                90
_cell_volume                     1202.64
_exptl_crystal_colour            colorless
_exptl_crystal_description       platelet
_cell_formula_units_Z            2
loop_
_atom_site_label
_atom_site_type_symbol
_atom_site_fract_x
_atom_site_fract_y
_atom_site_fract_z
C1 C 0.4634(4) 1.0549(6) 0.22110(15)
H1 H 0.3579 0.9922 0.2115
H2 H 0.4570 1.1414 0.2551
C2 C 0.5864(4) 0.8744(6) 0.23104(14)
H3 H 0.5558 0.7822 0.2618
H4 H 0.5888 0.7845 0.1974
C3 C 0.7955(4) 1.0990(6) 0.19725(14)
H5 H 0.7977 1.0084 0.1638
H6 H 0.9032 1.1568 0.2057
C4 C 0.6783(4) 1.2853(6) 0.18640(15)
H7 H 0.6795 1.3795 0.2193
H8 H 0.7104 1.3717 0.1547
C5 C 0.8599(4) 0.8030(6) 0.26493(14)
C6 C 0.9738(4) 0.7096(7) 0.23220(15)
H9 H 0.9826 0.7578 0.1954
C7 C 1.0750(5) 0.5448(7) 0.25380(17)
H10 H 1.1527 0.4859 0.2317
C8 C 1.0609(5) 0.4691(7) 0.30731(16)
H11 H 1.1259 0.3546 0.3211
C9 C 0.9500(5) 0.5626(7) 0.34100(16)
H12 H 0.9407 0.5103 0.3774
C10 C 0.8523(4) 0.7333(6) 0.32116(14)
C11 C 0.7285(5) 0.7336(7) 0.42723(15)
C12 C 0.6453(5) 0.5371(7) 0.43226(17)
C13 C 0.6524(5) 0.4359(7) 0.48485(18)
H13 H 0.5967 0.3052 0.4887
C14 C 0.7378(5) 0.5200(8) 0.53145(18)
C15 C 0.8175(5) 0.7154(8) 0.52557(16)
H14 H 0.8747 0.7770 0.5566
C16 C 0.8135(5) 0.8214(7) 0.47378(16)
H15 H 0.8685 0.9527 0.4704
C17 C 0.5505(6) 0.4344(8) 0.3825(2)
H16 H 0.4798 0.3242 0.3958
H17 H 0.6236 0.3689 0.3577
H18 H 0.4879 0.5449 0.3625
C18 C 0.7446(7) 0.4050(11) 0.5877(2)
H19 H 0.8380 0.4532 0.6102
H20 H 0.7509 0.2498 0.5820
H21 H 0.6492 0.4387 0.6069
N1 N 0.5127(3) 1.1970(5) 0.17386(11)
H22 H 0.5101 1.1187 0.1417
H23 H 0.4425 1.3086 0.1688
N2 N 0.7472(3) 0.9665(4) 0.24479(11)
S1 S 0.72259(14) 0.88432(18) 0.36320(4)
C19 C 0.6255(3) 0.8536(6) 0.05815(13)
C20 C 0.7558(3) 0.8494(5) 0.01646(12)
H24 H 0.8336 0.9628 0.0270
H25 H 0.7069 0.8867 -0.0205
C21 C 0.8462(3) 0.6351(5) 0.01138(13)
H26 H 0.9175 0.6534 -0.0196
C22 C 0.9541(3) 0.5725(5) 0.06368(12)
N3 N 0.7366(3) 0.4491(4) -0.00443(11)
H27 H 0.7035 0.3869 0.0267
H28 H 0.7893 0.3510 -0.0240
H29 H 0.6517 0.4983 -0.0254
O1 O 0.5579(3) 1.0380(4) 0.06489(10)
O2 O 0.5906(3) 0.6819(4) 0.08196(11)
O3 O 0.9330(2) 0.3917(4) 0.08561(9)
O4 O 1.0631(2) 0.7108(4) 0.07782(9)
O5 O 0.3420(3) 0.5782(4) 0.14528(10)
H30 H 0.3763 0.6902 0.1312
H31 H 0.2438 0.5842 0.1383
O6 O 1.1740(3) 0.1127(4) 0.13059(11)
H32 H 1.1002 0.1953 0.1199
H33 H 1.1404 -0.0111 0.1229
loop_
_geom_bond_atom_site_label_1
_geom_bond_atom_site_label_2
_geom_bond_site_symmetry_1
_geom_bond_site_symmetry_2
C1 H1 1_555 1_555
H2 C1 1_555 1_555
C2 C1 1_555 1_555
H3 C2 1_555 1_555
H4 C2 1_555 1_555
C3 H5 1_555 1_555
H6 C3 1_555 1_555
C4 C3 1_555 1_555
H7 C4 1_555 1_555
H8 C4 1_555 1_555
C5 C6 1_555 1_555
C6 H9 1_555 1_555
C7 C6 1_555 1_555
H10 C7 1_555 1_555
C8 C7 1_555 1_555
H11 C8 1_555 1_555
C9 C8 1_555 1_555
H12 C9 1_555 1_555
C10 C5 1_555 1_555
C11 C12 1_555 1_555
C12 C13 1_555 1_555
C13 H13 1_555 1_555
C14 C13 1_555 1_555
C15 C14 1_555 1_555
H14 C15 1_555 1_555
C16 C11 1_555 1_555
H15 C16 1_555 1_555
C17 C12 1_555 1_555
H16 C17 1_555 1_555
H17 C17 1_555 1_555
H18 C17 1_555 1_555
C18 C14 1_555 1_555
H19 C18 1_555 1_555
H20 C18 1_555 1_555
H21 C18 1_555 1_555
N1 C1 1_555 1_555
H22 N1 1_555 1_555
H23 N1 1_555 1_555
N2 C2 1_555 1_555
S1 C10 1_555 1_555
C19 C20 1_555 1_555
C20 H24 1_555 1_555
H25 C20 1_555 1_555
C21 C20 1_555 1_555
H26 C21 1_555 1_555
C22 C21 1_555 1_555
N3 C21 1_555 1_555
H27 N3 1_555 1_555
H28 N3 1_555 1_555
H29 N3 1_555 1_555
O1 C19 1_555 1_555
O2 C19 1_555 1_555
O3 C22 1_555 1_555
O4 C22 1_555 1_555
O5 H30 1_555 1_555
H31 O5 1_555 1_555
O6 H32 1_555 1_555
H33 O6 1_555 1_555
C3 N2 1_555 1_555
C4 N1 1_555 1_555
C5 N2 1_555 1_555
C9 C10 1_555 1_555
C11 S1 1_555 1_555
C15 C16 1_555 1_555

#END
