
#######################################################################
#
#                 Cambridge Crystallographic Data Centre
#                                CCDC 
#
#######################################################################
#
# If this CIF has been generated from an entry in the Cambridge 
# Structural Database, then it will include bibliographic, chemical, 
# crystal, experimental, refinement or atomic coordinate data resulting 
# from the CCDC's data processing and validation procedures.
#
#######################################################################

data_EWAYAE
_chemical_formula_moiety         'C18 H23 N2 S1 1+,C7 H5 O3 1-,H2 O1'
_chemical_name_systematic        
'4-(2-((2,4-dimethylphenyl)sulfanyl)phenyl)piperazin-1-ium 4-hydroxybenzoate monohydrate'
_symmetry_cell_setting           monoclinic
_symmetry_space_group_name_H-M   'P 21/c'
_symmetry_Int_Tables_number      14
_space_group_name_Hall           '-P 2ybc'
loop_
_symmetry_equiv_pos_site_id
_symmetry_equiv_pos_as_xyz
1 x,y,z
2 -x,1/2+y,1/2-z
3 -x,-y,-z
4 x,1/2-y,1/2+z
_cell_length_a                   16.9513(9)
_cell_length_b                   6.9458(5)
_cell_length_c                   21.5346(11)
_cell_angle_alpha                90
_cell_angle_beta                 95.4090(10)
_cell_angle_gamma                90
_cell_volume                     2524.2
_exptl_crystal_colour            colorless
_exptl_crystal_description       platelet
_cell_formula_units_Z            4
loop_
_atom_site_label
_atom_site_type_symbol
_atom_site_fract_x
_atom_site_fract_y
_atom_site_fract_z
C1 C 0.9819(2) 0.3543(7) 0.63561(16)
C2 C 1.0569(2) 0.4319(7) 0.63985(17)
H1 H 1.0660 0.5457 0.6190
C3 C 1.1188(2) 0.3419(9) 0.67488(19)
H2 H 1.1690 0.3972 0.6777
C4 C 1.1076(3) 0.1731(10) 0.70551(18)
C5 C 1.0334(4) 0.0953(8) 0.69998(19)
H3 H 1.0255 -0.0205 0.7201
C6 C 0.9686(3) 0.1808(7) 0.66556(19)
C7 C 1.1768(3) 0.0789(10) 0.7441(2)
H4 H 1.2255 0.1149 0.7278
H5 H 1.1709 -0.0585 0.7423
H6 H 1.1777 0.1208 0.7867
C8 C 0.8882(3) 0.0848(8) 0.6609(3)
H7 H 0.8475 0.1814 0.6590
H8 H 0.8841 0.0051 0.6969
H9 H 0.8818 0.0070 0.6239
C9 C 0.87838(19) 0.3589(5) 0.52761(16)
C10 C 0.9202(3) 0.2033(7) 0.5071(2)
H10 H 0.9660 0.1627 0.5307
C11 C 0.8958(3) 0.1079(7) 0.4529(2)
H11 H 0.9244 0.0026 0.4405
C12 C 0.8305(2) 0.1668(6) 0.41753(18)
H12 H 0.8142 0.1027 0.3806
C13 C 0.78824(19) 0.3207(5) 0.43597(16)
H13 H 0.7434 0.3607 0.4111
C14 C 0.81071(16) 0.4179(4) 0.49056(14)
C15 C 0.70611(17) 0.5142(4) 0.55130(14)
H14 H 0.7297 0.4312 0.5842
H15 H 0.6663 0.4404 0.5262
C16 C 0.66769(18) 0.6836(5) 0.57954(14)
H16 H 0.6261 0.6396 0.6041
H17 H 0.7066 0.7529 0.6069
C17 C 0.6958(2) 0.8767(5) 0.48995(16)
H18 H 0.7361 0.9493 0.5149
H19 H 0.6725 0.9598 0.4570
C18 C 0.7327(2) 0.7034(5) 0.46206(14)
H20 H 0.6928 0.6333 0.4360
H21 H 0.7735 0.7446 0.4363
N1 N 0.76746(13) 0.5781(3) 0.51217(11)
N2 N 0.63402(14) 0.8122(4) 0.52939(11)
H22 H 0.6121 0.9154 0.5463
H23 H 0.5957 0.7496 0.5056
S1 S 0.90446(6) 0.49192(16) 0.59616(5)
C19 C 0.47299(17) 0.7501(4) 0.41954(12)
C20 C 0.44314(17) 0.7460(4) 0.35223(12)
C21 C 0.48988(19) 0.6729(5) 0.30822(13)
H24 H 0.5400 0.6252 0.3212
C22 C 0.4635(2) 0.6697(5) 0.24564(14)
H25 H 0.4956 0.6205 0.2168
C23 C 0.38943(19) 0.7396(5) 0.22611(13)
C24 C 0.34174(19) 0.8130(6) 0.26920(14)
H26 H 0.2915 0.8597 0.2561
C25 C 0.36907(18) 0.8169(5) 0.33168(14)
H27 H 0.3371 0.8679 0.3604
O1 O 0.43593(12) 0.8472(3) 0.45674(8)
O2 O 0.53378(13) 0.6534(3) 0.43715(9)
O3 O 0.35915(15) 0.7412(5) 0.16519(10)
H28 H 0.3916 0.6950 0.1435
O4 O 0.46355(14) 0.7404(3) 0.58120(9)
H29 H 0.4617 0.7754 0.5429
H30 H 0.4782 0.6037 0.5747
loop_
_geom_bond_atom_site_label_1
_geom_bond_atom_site_label_2
_geom_bond_site_symmetry_1
_geom_bond_site_symmetry_2
C1 C2 1_555 1_555
C2 H1 1_555 1_555
C3 C2 1_555 1_555
H2 C3 1_555 1_555
C4 C3 1_555 1_555
C5 C4 1_555 1_555
H3 C5 1_555 1_555
C6 C1 1_555 1_555
C7 C4 1_555 1_555
H4 C7 1_555 1_555
H5 C7 1_555 1_555
H6 C7 1_555 1_555
C8 C6 1_555 1_555
H7 C8 1_555 1_555
H8 C8 1_555 1_555
H9 C8 1_555 1_555
C9 C10 1_555 1_555
C10 H10 1_555 1_555
C11 C10 1_555 1_555
H11 C11 1_555 1_555
C12 C11 1_555 1_555
H12 C12 1_555 1_555
C13 C12 1_555 1_555
H13 C13 1_555 1_555
C14 C9 1_555 1_555
C15 H14 1_555 1_555
H15 C15 1_555 1_555
C16 C15 1_555 1_555
H16 C16 1_555 1_555
H17 C16 1_555 1_555
C17 H18 1_555 1_555
H19 C17 1_555 1_555
C18 C17 1_555 1_555
H20 C18 1_555 1_555
H21 C18 1_555 1_555
N1 C14 1_555 1_555
N2 C16 1_555 1_555
H22 N2 1_555 1_555
H23 N2 1_555 1_555
S1 C1 1_555 1_555
C19 C20 1_555 1_555
C20 C21 1_555 1_555
C21 H24 1_555 1_555
C22 C21 1_555 1_555
H25 C22 1_555 1_555
C23 C22 1_555 1_555
C24 C23 1_555 1_555
H26 C24 1_555 1_555
C25 C20 1_555 1_555
H27 C25 1_555 1_555
O1 C19 1_555 1_555
O2 C19 1_555 1_555
O3 C23 1_555 1_555
H28 O3 1_555 1_555
O4 H29 1_555 1_555
H30 O4 1_555 1_555
C5 C6 1_555 1_555
C9 S1 1_555 1_555
C13 C14 1_555 1_555
C15 N1 1_555 1_555
C17 N2 1_555 1_555
C18 N1 1_555 1_555
C24 C25 1_555 1_555

#END
