
#######################################################################
#
#                 Cambridge Crystallographic Data Centre
#                                CCDC 
#
#######################################################################
#
# If this CIF has been generated from an entry in the Cambridge 
# Structural Database, then it will include bibliographic, chemical, 
# crystal, experimental, refinement or atomic coordinate data resulting 
# from the CCDC's data processing and validation procedures.
#
#######################################################################

data_EWAYUY01
_chemical_name_common            'vortioxetine hemikis(hydrochloride)'
_chemical_formula_moiety         'C18 H23 N2 S1 1+,Cl1 1-,C18 H22 N2 S1'
_chemical_name_systematic        
'4-(2-((2,4-dimethylphenyl)sulfanyl)phenyl)piperazin-1-ium 1-(2-((2,4-dimethylphenyl)sulfanyl)phenyl)piperazine chloride'
_chemical_properties_biological  
'Vortioxetine is a multimodal serotonergic agent used to treat major depressive disorder'
_symmetry_cell_setting           monoclinic
_symmetry_space_group_name_H-M   'P 21/c'
_symmetry_Int_Tables_number      14
_space_group_name_Hall           '-P 2ybc'
loop_
_symmetry_equiv_pos_site_id
_symmetry_equiv_pos_as_xyz
1 x,y,z
2 -x,1/2+y,1/2-z
3 -x,-y,-z
4 x,1/2-y,1/2+z
_cell_length_a                   20.922(9)
_cell_length_b                   7.730(3)
_cell_length_c                   10.597(4)
_cell_angle_alpha                90
_cell_angle_beta                 92.633(8)
_cell_angle_gamma                90
_cell_volume                     1712.01
_cell_formula_units_Z            2
loop_
_atom_site_label
_atom_site_type_symbol
_atom_site_fract_x
_atom_site_fract_y
_atom_site_fract_z
Cl1 Cl 0.5000 0.5000 0.0000
C1 C 0.43546(17) -0.1092(4) 0.1573(3)
H1 H 0.4735 -0.1263 0.2116
H2 H 0.4058 -0.2024 0.1731
C2 C 0.39699(16) -0.0768(5) -0.0601(3)
H3 H 0.3651 -0.1670 -0.0528
H4 H 0.4101 -0.0746 -0.1467
C3 C 0.36879(16) 0.0957(4) -0.0264(3)
H5 H 0.4001 0.1866 -0.0366
H6 H 0.3318 0.1204 -0.0820
C4 C 0.40511(16) 0.0616(4) 0.1878(3)
H7 H 0.3923 0.0612 0.2747
H8 H 0.4358 0.1543 0.1785
C5 C 0.31033(13) 0.2299(3) 0.1409(3)
C6 C 0.32233(17) 0.3995(4) 0.1128(4)
H9 H 0.3583 0.4273 0.0685
C7 C 0.28190(18) 0.5303(4) 0.1492(4)
H10 H 0.2908 0.6448 0.1296
C8 C 0.22966(16) 0.4910(4) 0.2132(4)
H11 H 0.2016 0.5783 0.2347
C9 C 0.21777(16) 0.3249(5) 0.2465(4)
H12 H 0.1827 0.2997 0.2941
C10 C 0.25779(15) 0.1922(4) 0.2099(4)
C11 C 0.16166(19) -0.0399(4) 0.2639(5)
C12 C 0.1338(2) -0.0607(6) 0.3725(5)
H13 H 0.1584 -0.0588 0.4479
C13 C 0.0693(2) -0.0849(6) 0.3746(5)
H14 H 0.0513 -0.0987 0.4525
C14 C 0.0304(2) -0.0899(5) 0.2706(6)
C15 C 0.0582(3) -0.0717(6) 0.1583(5)
H15 H 0.0334 -0.0763 0.0833
C16 C 0.1278(3) -0.0447(5) 0.1549(5)
C17 C 0.1551(4) -0.0158(10) 0.0285(5)
H16 H 0.1870 -0.1019 0.0144
H17 H 0.1741 0.0971 0.0263
H18 H 0.1216 -0.0241 -0.0362
C18 C -0.0412(2) -0.1095(7) 0.2796(7)
H19 H -0.0501 -0.1790 0.3518
H20 H -0.0588 -0.1644 0.2045
H21 H -0.0603 0.0026 0.2882
N1 N 0.45249(12) -0.1135(3) 0.0257(2)
N2 N 0.35006(10) 0.0901(3) 0.1039(2)
S1 S 0.24760(7) -0.02504(18) 0.26629(16)
H22 H 0.4670(15) -0.208(5) 0.013(3)
S2? S 0.2324(2) -0.0329(5) 0.1602(9)
H23? H 0.5000 0.0000 0.0000
loop_
_geom_bond_atom_site_label_1
_geom_bond_atom_site_label_2
_geom_bond_site_symmetry_1
_geom_bond_site_symmetry_2
C1 H1 1_555 1_555
H2 C1 1_555 1_555
C2 H3 1_555 1_555
H4 C2 1_555 1_555
C3 C2 1_555 1_555
H5 C3 1_555 1_555
H6 C3 1_555 1_555
C4 C1 1_555 1_555
H7 C4 1_555 1_555
H8 C4 1_555 1_555
C5 C6 1_555 1_555
C6 H9 1_555 1_555
C7 C6 1_555 1_555
H10 C7 1_555 1_555
C8 C7 1_555 1_555
H11 C8 1_555 1_555
C9 C8 1_555 1_555
H12 C9 1_555 1_555
C10 C5 1_555 1_555
C11 C12 1_555 1_555
C12 H13 1_555 1_555
C13 C12 1_555 1_555
H14 C13 1_555 1_555
C14 C13 1_555 1_555
C15 C14 1_555 1_555
H15 C15 1_555 1_555
C16 C11 1_555 1_555
C17 C16 1_555 1_555
H16 C17 1_555 1_555
H17 C17 1_555 1_555
H18 C17 1_555 1_555
C18 C14 1_555 1_555
H19 C18 1_555 1_555
H20 C18 1_555 1_555
H21 C18 1_555 1_555
N1 C1 1_555 1_555
N2 C3 1_555 1_555
S1 C10 1_555 1_555
H22 N1 1_555 1_555
C2 N1 1_555 1_555
C4 N2 1_555 1_555
C5 N2 1_555 1_555
C9 C10 1_555 1_555
C11 S1 1_555 1_555
C15 C16 1_555 1_555

#END
