
#######################################################################
#
#                 Cambridge Crystallographic Data Centre
#                                CCDC 
#
#######################################################################
#
# If this CIF has been generated from an entry in the Cambridge 
# Structural Database, then it will include bibliographic, chemical, 
# crystal, experimental, refinement or atomic coordinate data resulting 
# from the CCDC's data processing and validation procedures.
#
#######################################################################

data_EWAYIL
_chemical_formula_moiety         'C24 H19 N1 O1'
_chemical_name_systematic        
'2,4-Diphenyl-3-(3-phenylprop-2-en-1-ylidene)-2,3-dihydroazete 1-oxide'
_symmetry_cell_setting           orthorhombic
_symmetry_space_group_name_H-M   'P b c a'
_symmetry_Int_Tables_number      61
_space_group_name_Hall           '-P 2ac 2ab'
loop_
_symmetry_equiv_pos_site_id
_symmetry_equiv_pos_as_xyz
1 x,y,z
2 1/2+x,1/2-y,-z
3 -x,1/2+y,1/2-z
4 1/2-x,-y,1/2+z
5 -x,-y,-z
6 1/2-x,1/2+y,z
7 x,1/2-y,1/2+z
8 1/2+x,y,1/2-z
_cell_length_a                   12.635(4)
_cell_length_b                   14.492(4)
_cell_length_c                   19.962(6)
_cell_angle_alpha                90
_cell_angle_beta                 90
_cell_angle_gamma                90
_cell_volume                     3655.17
_exptl_crystal_colour            yellow
_exptl_crystal_description       prism
_cell_formula_units_Z            8
loop_
_atom_site_label
_atom_site_type_symbol
_atom_site_fract_x
_atom_site_fract_y
_atom_site_fract_z
O1 O 0.21911(16) 0.36650(15) 0.50650(9)
N1 N 0.20962(17) 0.38264(15) 0.56819(11)
C1 C 0.0136(2) 0.40178(18) 0.59885(12)
C2 C 0.2655(2) 0.36235(18) 0.62319(12)
C3 C 0.1248(2) 0.43648(19) 0.60549(13)
C4 C 0.36374(19) 0.31152(18) 0.62957(13)
C5 C 0.1905(2) 0.40940(18) 0.66686(13)
C6 C -0.1857(3) 0.6307(2) 0.91710(15)
C7 C 0.0890(2) 0.47834(18) 0.75799(13)
C8 C 0.0739(3) 0.49644(19) 0.82290(13)
C9 C -0.0155(2) 0.54413(17) 0.85338(13)
C10 C -0.0145(3) 0.56196(19) 0.92207(14)
C11 C 0.1768(2) 0.42617(18) 0.73244(13)
C12 C -0.0655(2) 0.46023(19) 0.57576(13)
C13 C -0.1887(3) 0.61459(19) 0.84891(16)
C14 C -0.1165(3) 0.2820(2) 0.61110(14)
C15 C 0.4178(3) 0.27986(19) 0.57341(14)
C16 C -0.0134(2) 0.31216(19) 0.61622(13)
C17 C -0.1051(2) 0.57126(19) 0.81759(14)
C18 C -0.0990(3) 0.6043(2) 0.95345(15)
C19 C 0.5097(3) 0.2289(2) 0.58066(16)
C20 C 0.4044(3) 0.2920(2) 0.69281(14)
C21 C -0.1688(3) 0.4300(2) 0.57062(14)
C22 C -0.1944(2) 0.3408(2) 0.58851(14)
C23 C 0.4961(3) 0.2413(3) 0.69965(16)
C24 C 0.5485(3) 0.2094(2) 0.64375(17)
H1 H 0.1295 0.5041 0.5961
H2 H -0.2437 0.6600 0.9387
H3 H 0.0387 0.5014 0.7269
H4 H 0.1276 0.4758 0.8526
H5 H 0.0455 0.5446 0.9478
H6 H 0.2274 0.4025 0.7632
H7 H -0.0484 0.5217 0.5634
H8 H -0.2485 0.6334 0.8235
H9 H -0.1340 0.2205 0.6232
H10 H 0.3915 0.2933 0.5299
H11 H 0.0398 0.2711 0.6318
H12 H -0.1085 0.5597 0.7708
H13 H -0.0969 0.6152 1.0004
H14 H 0.5462 0.2073 0.5421
H15 H 0.3687 0.3139 0.7316
H16 H -0.2222 0.4706 0.5548
H17 H -0.2655 0.3201 0.5853
H18 H 0.5231 0.2282 0.7430
H19 H 0.6114 0.1741 0.6486
loop_
_geom_bond_atom_site_label_1
_geom_bond_atom_site_label_2
_geom_bond_site_symmetry_1
_geom_bond_site_symmetry_2
O1 N1 1_555 1_555
N1 C2 1_555 1_555
C1 C3 1_555 1_555
C2 C4 1_555 1_555
C3 N1 1_555 1_555
C4 C15 1_555 1_555
C5 C2 1_555 1_555
C6 C13 1_555 1_555
C7 C8 1_555 1_555
C8 C9 1_555 1_555
C9 C10 1_555 1_555
C10 C18 1_555 1_555
C11 C5 1_555 1_555
C12 C1 1_555 1_555
C13 C17 1_555 1_555
C14 C16 1_555 1_555
C15 C19 1_555 1_555
C16 C1 1_555 1_555
C17 C9 1_555 1_555
C18 C6 1_555 1_555
C19 C24 1_555 1_555
C20 C4 1_555 1_555
C21 C12 1_555 1_555
C22 C14 1_555 1_555
C23 C20 1_555 1_555
C24 C23 1_555 1_555
H1 C3 1_555 1_555
H2 C6 1_555 1_555
H3 C7 1_555 1_555
H4 C8 1_555 1_555
H5 C10 1_555 1_555
H6 C11 1_555 1_555
H7 C12 1_555 1_555
H8 C13 1_555 1_555
H9 C14 1_555 1_555
H10 C15 1_555 1_555
H11 C16 1_555 1_555
H12 C17 1_555 1_555
H13 C18 1_555 1_555
H14 C19 1_555 1_555
H15 C20 1_555 1_555
H16 C21 1_555 1_555
H17 C22 1_555 1_555
H18 C23 1_555 1_555
H19 C24 1_555 1_555
C3 C5 1_555 1_555
C7 C11 1_555 1_555
C21 C22 1_555 1_555

#END
