
#######################################################################
#
#                 Cambridge Crystallographic Data Centre
#                                CCDC 
#
#######################################################################
#
# If this CIF has been generated from an entry in the Cambridge 
# Structural Database, then it will include bibliographic, chemical, 
# crystal, experimental, refinement or atomic coordinate data resulting 
# from the CCDC's data processing and validation procedures.
#
#######################################################################

data_EWAYIM
_chemical_formula_moiety         'C18 H23 N2 S1 1+,C7 H4 N1 O3 S1 1-'
_chemical_name_systematic        
'4-(2-((2,4-dimethylphenyl)sulfanyl)phenyl)piperazin-1-ium 3-oxo-3H-1,2-benzothiazol-2-ide 1,1-dioxide'
_symmetry_cell_setting           monoclinic
_symmetry_space_group_name_H-M   'P 21/n'
_symmetry_Int_Tables_number      14
_space_group_name_Hall           '-P 2yn'
loop_
_symmetry_equiv_pos_site_id
_symmetry_equiv_pos_as_xyz
1 x,y,z
2 1/2-x,1/2+y,1/2-z
3 -x,-y,-z
4 1/2+x,1/2-y,1/2+z
_cell_length_a                   6.8375(3)
_cell_length_b                   15.8835(7)
_cell_length_c                   23.2329(9)
_cell_angle_alpha                90
_cell_angle_beta                 92.4510(10)
_cell_angle_gamma                90
_cell_volume                     2520.86
_exptl_crystal_colour            colorless
_exptl_crystal_description       chunk
_cell_formula_units_Z            4
loop_
_atom_site_label
_atom_site_type_symbol
_atom_site_fract_x
_atom_site_fract_y
_atom_site_fract_z
C1 C 0.5606(5) 0.54205(18) 0.18239(13)
C2 C 0.6134(6) 0.5579(2) 0.12678(14)
H1 H 0.7377 0.5434 0.1154
C3 C 0.4810(8) 0.5956(3) 0.08795(16)
H2 H 0.5195 0.6064 0.0508
C4 C 0.2963(7) 0.6173(2) 0.10225(16)
C5 C 0.2478(6) 0.6022(2) 0.15760(15)
H3 H 0.1233 0.6173 0.1686
C6 C 0.3756(5) 0.5652(2) 0.19859(13)
C7 C 0.1522(7) 0.6567(3) 0.0587(2)
H4 H 0.1047 0.6144 0.0321
H5 H 0.2163 0.7004 0.0381
H6 H 0.0443 0.6802 0.0784
C8 C 0.3081(7) 0.5500(4) 0.25865(17)
H7 H 0.3346 0.4927 0.2696
H8 H 0.1700 0.5605 0.2596
H9 H 0.3767 0.5872 0.2851
C9 C 0.6665(4) 0.39309(18) 0.23725(12)
C10 C 0.5292(5) 0.3557(2) 0.19991(14)
H10 H 0.4580 0.3889 0.1735
C11 C 0.4967(6) 0.2704(2) 0.20131(17)
H11 H 0.4021 0.2462 0.1765
C12 C 0.6038(7) 0.2210(2) 0.23919(19)
H12 H 0.5870 0.1629 0.2389
C13 C 0.7368(6) 0.2576(2) 0.27785(16)
H13 H 0.8068 0.2236 0.3040
C14 C 0.7683(4) 0.34304(18) 0.27861(12)
C15 C 1.0584(5) 0.3318(2) 0.34359(15)
H14 H 1.1246 0.3034 0.3130
H15 H 1.0048 0.2894 0.3684
C16 C 1.2025(5) 0.3861(2) 0.37788(15)
H16 H 1.3054 0.3511 0.3951
H17 H 1.2622 0.4262 0.3525
C17 C 0.9340(4) 0.4817(2) 0.39972(13)
H18 H 0.9815 0.5263 0.3754
H19 H 0.8653 0.5074 0.4309
C18 C 0.7969(4) 0.4257(2) 0.36515(12)
H20 H 0.7433 0.3833 0.3901
H21 H 0.6892 0.4588 0.3488
N1 N 0.8998(3) 0.38451(15) 0.31881(10)
N2 N 1.1015(4) 0.43166(18) 0.42360(11)
H22 H 1.1871 0.4662 0.4423
H23 H 1.0581 0.3943 0.4492
S1 S 0.73721(13) 0.49966(5) 0.23268(4)
C19 C 0.5579(4) 0.28238(19) 0.57044(12)
C20 C 0.4306(6) 0.2354(3) 0.60181(16)
H24 H 0.3177 0.2589 0.6160
C21 C 0.4782(7) 0.1518(3) 0.61129(19)
H25 H 0.3961 0.1185 0.6327
C22 C 0.6421(7) 0.1171(2) 0.59009(17)
H26 H 0.6690 0.0604 0.5968
C23 C 0.7684(6) 0.1641(2) 0.55897(14)
H27 H 0.8811 0.1403 0.5449
C24 C 0.7236(4) 0.24800(18) 0.54898(11)
C25 C 0.8340(5) 0.3132(2) 0.51677(13)
N3 N 0.7516(4) 0.38955(17) 0.51677(11)
O1 O 0.9866(4) 0.29579(19) 0.49223(11)
O2 O 0.5630(4) 0.44340(15) 0.59810(10)
O3 O 0.3857(3) 0.40264(15) 0.51036(11)
S2 S 0.55065(12) 0.38844(5) 0.54906(3)
loop_
_geom_bond_atom_site_label_1
_geom_bond_atom_site_label_2
_geom_bond_site_symmetry_1
_geom_bond_site_symmetry_2
C1 C2 1_555 1_555
C2 H1 1_555 1_555
C3 C2 1_555 1_555
H2 C3 1_555 1_555
C4 C3 1_555 1_555
C5 C4 1_555 1_555
H3 C5 1_555 1_555
C6 C1 1_555 1_555
C7 C4 1_555 1_555
H4 C7 1_555 1_555
H5 C7 1_555 1_555
H6 C7 1_555 1_555
C8 C6 1_555 1_555
H7 C8 1_555 1_555
H8 C8 1_555 1_555
H9 C8 1_555 1_555
C9 C10 1_555 1_555
C10 H10 1_555 1_555
C11 C10 1_555 1_555
H11 C11 1_555 1_555
C12 C11 1_555 1_555
H12 C12 1_555 1_555
C13 C12 1_555 1_555
H13 C13 1_555 1_555
C14 C9 1_555 1_555
C15 H14 1_555 1_555
H15 C15 1_555 1_555
C16 C15 1_555 1_555
H16 C16 1_555 1_555
H17 C16 1_555 1_555
C17 H18 1_555 1_555
H19 C17 1_555 1_555
C18 C17 1_555 1_555
H20 C18 1_555 1_555
H21 C18 1_555 1_555
N1 C14 1_555 1_555
N2 C16 1_555 1_555
H22 N2 1_555 1_555
H23 N2 1_555 1_555
S1 C1 1_555 1_555
C19 C20 1_555 1_555
C20 H24 1_555 1_555
C21 C20 1_555 1_555
H25 C21 1_555 1_555
C22 C21 1_555 1_555
H26 C22 1_555 1_555
C23 C22 1_555 1_555
H27 C23 1_555 1_555
C24 C19 1_555 1_555
C25 C24 1_555 1_555
N3 C25 1_555 1_555
O1 C25 1_555 1_555
O2 S2 1_555 1_555
O3 S2 1_555 1_555
S2 C19 1_555 1_555
C5 C6 1_555 1_555
C9 S1 1_555 1_555
C13 C14 1_555 1_555
C15 N1 1_555 1_555
C17 N2 1_555 1_555
C18 N1 1_555 1_555
C23 C24 1_555 1_555
N3 S2 1_555 1_555

#END
