
#######################################################################
#
#                 Cambridge Crystallographic Data Centre
#                                CCDC 
#
#######################################################################
#
# If this CIF has been generated from an entry in the Cambridge 
# Structural Database, then it will include bibliographic, chemical, 
# crystal, experimental, refinement or atomic coordinate data resulting 
# from the CCDC's data processing and validation procedures.
#
#######################################################################

data_EWAZEJ
_chemical_formula_moiety         'C18 H22 N2 S1,0.5(H1 Br1)'
_chemical_name_systematic        
'1-(2-((2,4-dimethylphenyl)sulfanyl)phenyl)piperazine hemikis(hydrobromide)'
_symmetry_cell_setting           monoclinic
_symmetry_space_group_name_H-M   'P 21/c'
_symmetry_Int_Tables_number      14
_space_group_name_Hall           '-P 2ybc'
loop_
_symmetry_equiv_pos_site_id
_symmetry_equiv_pos_as_xyz
1 x,y,z
2 -x,1/2+y,1/2-z
3 -x,-y,-z
4 x,1/2-y,1/2+z
_cell_length_a                   21.1781(12)
_cell_length_b                   7.8799(4)
_cell_length_c                   10.5126(8)
_cell_angle_alpha                90
_cell_angle_beta                 87.993(2)
_cell_angle_gamma                90
_cell_volume                     1753.28
_exptl_crystal_colour            colorless
_exptl_crystal_description       chunk
_cell_formula_units_Z            4
loop_
_atom_site_label
_atom_site_type_symbol
_atom_site_fract_x
_atom_site_fract_y
_atom_site_fract_z
C1 C 0.3387(4) 0.4586(10) 0.2423(10)
C2 C 0.3653(5) 0.4366(15) 0.1301(11)
H1 H 0.3418 0.4381 0.0571
C3 C 0.4304(5) 0.4107(15) 0.1234(13)
H2 H 0.4493 0.3961 0.0430
C4 C 0.4698(5) 0.4049(11) 0.2279(12)
C5 C 0.4416(5) 0.4239(14) 0.3416(12)
H3 H 0.4649 0.4195 0.4149
C6 C 0.3739(5) 0.4515(12) 0.3503(10)
C7 C 0.5398(4) 0.3808(16) 0.2170(15)
H4 H 0.5602 0.4895 0.2125
H5 H 0.5505 0.3171 0.1414
H6 H 0.5537 0.3202 0.2901
C8 C 0.3465(9) 0.483(2) 0.4786(13)
H7 H 0.3478 0.6022 0.4966
H8 H 0.3704 0.4225 0.5400
H9 H 0.3035 0.4443 0.4829
C9 C 0.2445(3) 0.6879(9) 0.2971(8)
C10 C 0.2838(3) 0.8175(10) 0.2569(10)
H10 H 0.3189 0.7913 0.2049
C11 C 0.2736(4) 0.9829(8) 0.2899(10)
H11 H 0.3024 1.0664 0.2649
C12 C 0.2217(4) 1.0228(9) 0.3585(9)
H12 H 0.2131 1.1354 0.3795
C13 C 0.1810(3) 0.8971(9) 0.3977(7)
H13 H 0.1447 0.9255 0.4451
C14 C 0.1926(3) 0.7298(7) 0.3688(6)
C15 C 0.1001(3) 0.5579(10) 0.3197(6)
H14 H 0.0685 0.6468 0.3273
H15 H 0.1166 0.5562 0.2325
C16 C 0.0706(3) 0.3908(9) 0.3518(7)
H16 H 0.0348 0.3712 0.2987
H17 H 0.1010 0.3003 0.3365
C17 C 0.1026(3) 0.4369(9) 0.5743(7)
H18 H 0.0856 0.4416 0.6612
H19 H 0.1350 0.3500 0.5697
C18 C 0.1306(3) 0.6051(8) 0.5378(6)
H20 H 0.0991 0.6939 0.5476
H21 H 0.1655 0.6318 0.5918
N1 N 0.1525(2) 0.5935(6) 0.4078(5)
N2 N 0.0500(2) 0.3922(6) 0.4846(5)
H22 H 0.0238 0.4623 0.4952
S1 S 0.25476(12) 0.4743(3) 0.2491(4)
Br1 Br 0.0000 0.0000 0.5000
H23? H 0.0344 0.2893 0.5056
loop_
_geom_bond_atom_site_label_1
_geom_bond_atom_site_label_2
_geom_bond_site_symmetry_1
_geom_bond_site_symmetry_2
C1 C2 1_555 1_555
C2 H1 1_555 1_555
C3 C2 1_555 1_555
H2 C3 1_555 1_555
C4 C3 1_555 1_555
C5 C4 1_555 1_555
H3 C5 1_555 1_555
C6 C1 1_555 1_555
C7 C4 1_555 1_555
H4 C7 1_555 1_555
H5 C7 1_555 1_555
H6 C7 1_555 1_555
C8 C6 1_555 1_555
H7 C8 1_555 1_555
H8 C8 1_555 1_555
H9 C8 1_555 1_555
C9 C10 1_555 1_555
C10 H10 1_555 1_555
C11 C10 1_555 1_555
H11 C11 1_555 1_555
C12 C11 1_555 1_555
H12 C12 1_555 1_555
C13 C12 1_555 1_555
H13 C13 1_555 1_555
C14 C9 1_555 1_555
C15 H14 1_555 1_555
H15 C15 1_555 1_555
C16 C15 1_555 1_555
H16 C16 1_555 1_555
H17 C16 1_555 1_555
C17 H18 1_555 1_555
H19 C17 1_555 1_555
C18 C17 1_555 1_555
H20 C18 1_555 1_555
H21 C18 1_555 1_555
N1 C14 1_555 1_555
N2 C16 1_555 1_555
H22 N2 1_555 1_555
S1 C1 1_555 1_555
C5 C6 1_555 1_555
C9 S1 1_555 1_555
C13 C14 1_555 1_555
C15 N1 1_555 1_555
C17 N2 1_555 1_555
C18 N1 1_555 1_555

#END
