
#######################################################################
#
#                 Cambridge Crystallographic Data Centre
#                                CCDC 
#
#######################################################################
#
# If this CIF has been generated from an entry in the Cambridge 
# Structural Database, then it will include bibliographic, chemical, 
# crystal, experimental, refinement or atomic coordinate data resulting 
# from the CCDC's data processing and validation procedures.
#
#######################################################################

data_EWEHOF
_chemical_formula_moiety         'C8 H12 N2 O2 S1'
_chemical_name_systematic        't-butyl 1,3-thiazol-2-ylcarbamate'
_symmetry_cell_setting           monoclinic
_symmetry_space_group_name_H-M   'P 21/c'
_symmetry_Int_Tables_number      14
_space_group_name_Hall           '-P 2ybc'
loop_
_symmetry_equiv_pos_site_id
_symmetry_equiv_pos_as_xyz
1 x,y,z
2 -x,1/2+y,1/2-z
3 -x,-y,-z
4 x,1/2-y,1/2+z
_cell_length_a                   10.0597(6)
_cell_length_b                   10.1890(5)
_cell_length_c                   19.7560(11)
_cell_angle_alpha                90
_cell_angle_beta                 95.220(2)
_cell_angle_gamma                90
_cell_volume                     2016.56
_exptl_crystal_colour            colorless
_exptl_crystal_description       block
_cell_formula_units_Z            8
loop_
_atom_site_label
_atom_site_type_symbol
_atom_site_fract_x
_atom_site_fract_y
_atom_site_fract_z
C1 C 0.23428(18) 0.19877(17) 0.65121(9)
C2 C 0.0353(2) 0.2837(2) 0.65874(10)
H1 H -0.0423 0.3061 0.6803
C3 C 0.04833(19) 0.3157(2) 0.59374(10)
H2 H -0.0161 0.3626 0.5651
C4 C 0.44844(18) 0.10685(18) 0.63191(9)
C5 C 0.6662(2) -0.0013(2) 0.63538(10)
C6 C 0.7261(2) 0.1009(3) 0.59149(14)
H3 H 0.6662 0.1155 0.5502
H4 H 0.8128 0.0701 0.5790
H5 H 0.7381 0.1834 0.6168
C7 C 0.7641(2) -0.0373(2) 0.69566(11)
H6 H 0.7914 0.0423 0.7211
H7 H 0.8428 -0.0794 0.6794
H8 H 0.7213 -0.0981 0.7254
C8 C 0.6184(2) -0.1221(2) 0.59589(11)
H9 H 0.5840 -0.1862 0.6269
H10 H 0.6930 -0.1608 0.5742
H11 H 0.5473 -0.0976 0.5610
N1 N 0.14050(16) 0.21656(16) 0.69254(8)
N2 N 0.35324(15) 0.13986(15) 0.67416(7)
H12 H 0.3686 0.1228 0.7178
O1 O 0.43658(14) 0.12492(14) 0.57135(6)
O2 O 0.55294(13) 0.05425(14) 0.66905(6)
S1 S 0.19866(5) 0.25951(5) 0.56974(2)
C9 C 0.27057(18) 0.44166(18) 0.35212(9)
C10 C 0.4540(2) 0.5642(2) 0.40827(10)
H13 H 0.5176 0.6128 0.4366
C11 C 0.4674(2) 0.5308(2) 0.34340(10)
H14 H 0.5439 0.5546 0.3213
C12 C 0.05865(18) 0.34522(18) 0.37226(9)
C13 C -0.15827(19) 0.23368(19) 0.36873(10)
C14 C -0.1123(2) 0.1226(2) 0.41674(11)
H15 H -0.0637 0.0573 0.3922
H16 H -0.1902 0.0811 0.4342
H17 H -0.0536 0.1578 0.4547
C15 C -0.2258(2) 0.3438(2) 0.40364(13)
H18 H -0.1691 0.3715 0.4441
H19 H -0.3119 0.3131 0.4171
H20 H -0.2403 0.4181 0.3724
C16 C -0.2468(2) 0.1828(2) 0.30812(11)
H21 H -0.2697 0.2551 0.2765
H22 H -0.3286 0.1457 0.3237
H23 H -0.1991 0.1146 0.2850
N3 N 0.36371(16) 0.46010(17) 0.31076(8)
N4 N 0.15398(15) 0.37688(15) 0.33016(7)
H24 H 0.1406 0.3550 0.2870
O3 O 0.06649(13) 0.37014(13) 0.43257(6)
O4 O -0.04173(13) 0.28406(13) 0.33569(7)
S2 S 0.30447(5) 0.50607(5) 0.43273(2)
loop_
_geom_bond_atom_site_label_1
_geom_bond_atom_site_label_2
_geom_bond_site_symmetry_1
_geom_bond_site_symmetry_2
C1 N1 1_555 1_555
C2 H1 1_555 1_555
C3 C2 1_555 1_555
H2 C3 1_555 1_555
C4 N2 1_555 1_555
C5 C6 1_555 1_555
C6 H3 1_555 1_555
H4 C6 1_555 1_555
H5 C6 1_555 1_555
C7 C5 1_555 1_555
H6 C7 1_555 1_555
H7 C7 1_555 1_555
H8 C7 1_555 1_555
C8 C5 1_555 1_555
H9 C8 1_555 1_555
H10 C8 1_555 1_555
H11 C8 1_555 1_555
N1 C2 1_555 1_555
N2 C1 1_555 1_555
H12 N2 1_555 1_555
O1 C4 1_555 1_555
O2 C4 1_555 1_555
S1 C1 1_555 1_555
C9 N3 1_555 1_555
C10 H13 1_555 1_555
C11 C10 1_555 1_555
H14 C11 1_555 1_555
C12 N4 1_555 1_555
C13 C14 1_555 1_555
C14 H15 1_555 1_555
H16 C14 1_555 1_555
H17 C14 1_555 1_555
C15 C13 1_555 1_555
H18 C15 1_555 1_555
H19 C15 1_555 1_555
H20 C15 1_555 1_555
C16 C13 1_555 1_555
H21 C16 1_555 1_555
H22 C16 1_555 1_555
H23 C16 1_555 1_555
N3 C11 1_555 1_555
N4 C9 1_555 1_555
H24 N4 1_555 1_555
O3 C12 1_555 1_555
O4 C12 1_555 1_555
S2 C9 1_555 1_555
C3 S1 1_555 1_555
C5 O2 1_555 1_555
C10 S2 1_555 1_555
C13 O4 1_555 1_555

#END
