
#######################################################################
#
#                 Cambridge Crystallographic Data Centre
#                                CCDC 
#
#######################################################################
#
# If this CIF has been generated from an entry in the Cambridge 
# Structural Database, then it will include bibliographic, chemical, 
# crystal, experimental, refinement or atomic coordinate data resulting 
# from the CCDC's data processing and validation procedures.
#
#######################################################################

data_EWEHUL
_chemical_formula_moiety         'C14 H15 Cl1 N2 O3'
_chemical_name_systematic        
't-butyl (6-chloro-1-oxidoquinolin-2-yl)carbamate'
_symmetry_cell_setting           triclinic
_symmetry_space_group_name_H-M   'P -1'
_symmetry_Int_Tables_number      2
_space_group_name_Hall           '-P 1'
loop_
_symmetry_equiv_pos_site_id
_symmetry_equiv_pos_as_xyz
1 x,y,z
2 -x,-y,-z
_cell_length_a                   6.9147(2)
_cell_length_b                   7.9421(3)
_cell_length_c                   13.3691(4)
_cell_angle_alpha                97.113(2)
_cell_angle_beta                 101.828(2)
_cell_angle_gamma                99.780(2)
_cell_volume                     698.517
_exptl_crystal_colour            colorless
_exptl_crystal_description       Block
_cell_formula_units_Z            2
loop_
_atom_site_label
_atom_site_type_symbol
_atom_site_fract_x
_atom_site_fract_y
_atom_site_fract_z
C1 C 0.06711(16) 0.43718(14) 0.24669(8)
C2 C 0.30140(15) 0.58894(13) 0.40474(8)
C3 C 0.47325(15) 0.80074(12) 0.55295(8)
C4 C 0.46263(16) 0.90871(14) 0.64217(8)
H1 H 0.3376 0.9069 0.6615
C5 C 0.63558(17) 1.01728(14) 0.70129(8)
H2 H 0.6304 1.0928 0.7612
C6 C 0.81952(16) 1.01593(13) 0.67271(8)
C7 C 0.83390(16) 0.91231(13) 0.58613(8)
H3 H 0.9606 0.9143 0.5687
C8 C 0.65747(15) 0.80204(13) 0.52285(8)
C9 C 0.66029(16) 0.69080(14) 0.43199(8)
H4 H 0.7836 0.6885 0.4115
C10 C 0.48561(16) 0.58715(13) 0.37414(8)
H5 H 0.4873 0.5132 0.3129
C11 C -0.22290(18) 0.30096(15) 0.10640(8)
C12 C -0.23457(19) 0.46455(17) 0.05963(9)
H6 H -0.3143 0.5331 0.0943
H7 H -0.2988 0.4335 -0.0144
H8 H -0.0982 0.5327 0.0688
C13 C -0.4319(2) 0.2062(2) 0.10757(10)
H9 H -0.4217 0.1000 0.1369
H10 H -0.5150 0.1765 0.0366
H11 H -0.4940 0.2809 0.1499
C14 C -0.1128(2) 0.18102(17) 0.05189(10)
H12 H 0.0203 0.2454 0.0502
H13 H -0.1912 0.1365 -0.0191
H14 H -0.0968 0.0840 0.0895
Cl1 Cl 1.03690(4) 1.15019(3) 0.75168(2)
N1 N 0.11805(13) 0.48727(12) 0.35265(7)
H15 H 0.0297 0.4528 0.3886
N2 N 0.29828(13) 0.69123(11) 0.49240(7)
O1 O 0.17852(13) 0.47100(13) 0.19013(6)
O2 O -0.12378(12) 0.34908(11) 0.21842(6)
O3 O 0.12779(11) 0.68804(10) 0.52211(6)
loop_
_geom_bond_atom_site_label_1
_geom_bond_atom_site_label_2
_geom_bond_site_symmetry_1
_geom_bond_site_symmetry_2
C1 N1 1_555 1_555
C2 C10 1_555 1_555
C3 C4 1_555 1_555
C4 H1 1_555 1_555
C5 C4 1_555 1_555
H2 C5 1_555 1_555
C6 C5 1_555 1_555
C7 C6 1_555 1_555
H3 C7 1_555 1_555
C8 C3 1_555 1_555
C9 C8 1_555 1_555
H4 C9 1_555 1_555
C10 C9 1_555 1_555
H5 C10 1_555 1_555
C11 C12 1_555 1_555
C12 H6 1_555 1_555
H7 C12 1_555 1_555
H8 C12 1_555 1_555
C13 C11 1_555 1_555
H9 C13 1_555 1_555
H10 C13 1_555 1_555
H11 C13 1_555 1_555
C14 C11 1_555 1_555
H12 C14 1_555 1_555
H13 C14 1_555 1_555
H14 C14 1_555 1_555
Cl1 C6 1_555 1_555
N1 C2 1_555 1_555
H15 N1 1_555 1_555
N2 C2 1_555 1_555
O1 C1 1_555 1_555
O2 C1 1_555 1_555
O3 N2 1_555 1_555
C3 N2 1_555 1_555
C7 C8 1_555 1_555
C11 O2 1_555 1_555

#END
