
#######################################################################
#
#                 Cambridge Crystallographic Data Centre
#                                CCDC 
#
#######################################################################
#
# If this CIF has been generated from an entry in the Cambridge 
# Structural Database, then it will include bibliographic, chemical, 
# crystal, experimental, refinement or atomic coordinate data resulting 
# from the CCDC's data processing and validation procedures.
#
#######################################################################

data_EWELUO
_chemical_formula_moiety         'C20 H30 O2 Si2'
_chemical_name_systematic        
5-(Hydroxy(phenyl)methylene)-3,4-dimethyl-2,2-bis(trimethylsilyl)cyclopent-3-en-1-one
_symmetry_cell_setting           orthorhombic
_symmetry_space_group_name_H-M   'P n m a'
_symmetry_Int_Tables_number      62
_space_group_name_Hall           '-P 2ac 2n'
loop_
_symmetry_equiv_pos_site_id
_symmetry_equiv_pos_as_xyz
1 x,y,z
2 1/2-x,-y,1/2+z
3 -x,1/2+y,-z
4 1/2+x,1/2-y,1/2-z
5 -x,-y,-z
6 1/2+x,y,1/2-z
7 x,1/2-y,z
8 1/2-x,1/2+y,1/2+z
_cell_length_a                   17.907(4)
_cell_length_b                   10.574(2)
_cell_length_c                   10.941(2)
_cell_angle_alpha                90
_cell_angle_beta                 90
_cell_angle_gamma                90
_cell_volume                     2071.66
_cell_formula_units_Z            4
loop_
_atom_site_label
_atom_site_type_symbol
_atom_site_fract_x
_atom_site_fract_y
_atom_site_fract_z
C1 C 0.1830(3) 0.2500 0.7795(5)
C2 C 0.1565(3) 0.2500 0.9094(5)
C3 C 0.0708(3) 0.2500 0.8891(5)
C4 C 0.0524(2) 0.2500 0.7720(5)
C5 C 0.1186(3) 0.2500 0.6955(5)
C6 C -0.0257(2) 0.2500 0.7224(5)
C7 C 0.0181(2) 0.2500 0.9956(5)
C8 C 0.1566(2) 0.5348(4) 0.8856(4)
H7 H 0.1746 0.5228 0.8019
H8 H 0.1018 0.5348 0.8860
H9 H 0.1749 0.6158 0.9173
C9 C 0.29493(15) 0.4152(3) 0.9904(3)
H10 H 0.3096 0.5012 1.0133
H11 H 0.3138 0.3552 1.0513
H12 H 0.3160 0.3945 0.9101
C10 C 0.1537(2) 0.4327(4) 1.1399(4)
H13 H 0.1754 0.5103 1.1735
H14 H 0.0992 0.4413 1.1361
H15 H 0.1667 0.3610 1.1926
C11 C 0.1299(3) 0.2500 0.5745(5)
C12 C 0.0706(2) 0.2500 0.4750(4)
C13 C 0.04341(18) 0.3659(4) 0.4337(4)
H16 H 0.0635 0.4432 0.4634
C14 C -0.01386(18) 0.3655(4) 0.3478(4)
H17 H -0.0340 0.4424 0.3175
C15 C -0.0407(3) 0.2500 0.3076(5)
H18 H -0.0798 0.2500 0.2490
H19 H 0.229(2) 0.2500 0.581(4)
O1 O 0.2000(2) 0.2500 0.5258(3)
O2 O 0.25041(18) 0.2500 0.7432(3)
Si1 Si 0.19119(5) 0.40483(12) 0.98332(9)
C8F C 0.1566(2) -0.0348(4) 0.8856(4)
H7F H 0.1746 -0.0228 0.8019
H8F H 0.1018 -0.0348 0.8860
H9F H 0.1749 -0.1158 0.9173
C9F C 0.29493(15) 0.0848(3) 0.9904(3)
H10F H 0.3096 -0.0012 1.0133
H11F H 0.3138 0.1448 1.0513
H12F H 0.3160 0.1055 0.9101
C10F C 0.1537(2) 0.0673(4) 1.1399(4)
H13F H 0.1754 -0.0103 1.1735
H14F H 0.0992 0.0587 1.1361
H15F H 0.1667 0.1390 1.1926
C13F C 0.04341(18) 0.1341(4) 0.4337(4)
H16F H 0.0635 0.0568 0.4634
C14F C -0.01386(18) 0.1345(4) 0.3478(4)
H17F H -0.0340 0.0576 0.3175
Si1F Si 0.19119(5) 0.09517(12) 0.98332(9)
H1? H -0.0309 0.1822 0.6619
H2? H -0.0361 0.3317 0.6836
H3? H -0.0611 0.2361 0.7893
H4? H -0.0298 0.2867 0.9706
H5? H 0.0394 0.3003 1.0623
H6? H 0.0102 0.1630 1.0236
loop_
_geom_bond_atom_site_label_1
_geom_bond_atom_site_label_2
_geom_bond_site_symmetry_1
_geom_bond_site_symmetry_2
C1 C2 1_555 1_555
C2 C3 1_555 1_555
C3 C4 1_555 1_555
C4 C5 1_555 1_555
C5 C1 1_555 1_555
C6 C4 1_555 1_555
C7 C3 1_555 1_555
C8 H7 1_555 1_555
H8 C8 1_555 1_555
H9 C8 1_555 1_555
C9 H10 1_555 1_555
H11 C9 1_555 1_555
H12 C9 1_555 1_555
C10 H13 1_555 1_555
H14 C10 1_555 1_555
H15 C10 1_555 1_555
C11 C5 1_555 1_555
C12 C11 1_555 1_555
C13 C12 1_555 1_555
H16 C13 1_555 1_555
C14 C13 1_555 1_555
H17 C14 1_555 1_555
C15 C14 1_555 1_555
H18 C15 1_555 1_555
H19 O1 1_555 1_555
O1 C11 1_555 1_555
O2 C1 1_555 1_555
Si1 C2 1_555 1_555
C8F H7F 1_555 1_555
H8F C8F 1_555 1_555
H9F C8F 1_555 1_555
C9F H10F 1_555 1_555
H11F C9F 1_555 1_555
H12F C9F 1_555 1_555
C10F H13F 1_555 1_555
H14F C10F 1_555 1_555
H15F C10F 1_555 1_555
C13F C12 1_555 1_555
H16F C13F 1_555 1_555
C14F C15 1_555 1_555
H17F C14F 1_555 1_555
Si1F C2 1_555 1_555
C8 Si1 1_555 1_555
C9 Si1 1_555 1_555
C10 Si1 1_555 1_555
C8F Si1F 1_555 1_555
C9F Si1F 1_555 1_555
C10F Si1F 1_555 1_555
C13F C14F 1_555 1_555

#END
