
#######################################################################
#
#                 Cambridge Crystallographic Data Centre
#                                CCDC 
#
#######################################################################
#
# If this CIF has been generated from an entry in the Cambridge 
# Structural Database, then it will include bibliographic, chemical, 
# crystal, experimental, refinement or atomic coordinate data resulting 
# from the CCDC's data processing and validation procedures.
#
#######################################################################

data_EWEMAV
_chemical_formula_moiety         'C20 H28 Cl2 O2 Si2'
_chemical_name_systematic        
'3,4-Dimethyl-5,5-bis(trimethylsilyl)cyclopenta-1,3-dien-1-yl 2,6-dichlorobenzoate'
_symmetry_cell_setting           monoclinic
_symmetry_space_group_name_H-M   'C 2/c'
_symmetry_Int_Tables_number      15
_space_group_name_Hall           '-C 2yn'
loop_
_symmetry_equiv_pos_site_id
_symmetry_equiv_pos_as_xyz
1 x,y,z
2 -x,y,1/2-z
3 1/2+x,1/2+y,z
4 1/2-x,1/2+y,1/2-z
5 -x,-y,-z
6 x,-y,1/2+z
7 1/2-x,1/2-y,-z
8 1/2+x,1/2-y,1/2+z
_cell_length_a                   38.198(8)
_cell_length_b                   9.3239(19)
_cell_length_c                   14.035(3)
_cell_angle_alpha                90
_cell_angle_beta                 105.76(3)
_cell_angle_gamma                90
_cell_volume                     4810.72
_exptl_crystal_colour            colorless
_exptl_crystal_description       block
_cell_formula_units_Z            8
loop_
_atom_site_label
_atom_site_type_symbol
_atom_site_fract_x
_atom_site_fract_y
_atom_site_fract_z
C1 C 0.10586(6) 0.2461(2) 0.06259(18)
C2 C 0.08271(6) 0.2099(2) -0.02339(18)
H1 H 0.0885 0.1907 -0.0824
C3 C 0.04698(6) 0.2062(3) -0.0073(2)
C4 C 0.04897(6) 0.2378(3) 0.0869(2)
C5 C 0.08797(5) 0.2713(2) 0.14391(16)
C6 C 0.01326(6) 0.1701(3) -0.08996(19)
H2 H -0.0057 0.1382 -0.0620
H3 H 0.0189 0.0954 -0.1305
H4 H 0.0053 0.2539 -0.1297
C7 C 0.01706(6) 0.2442(3) 0.1331(2)
H5 H 0.0067 0.3388 0.1249
H6 H 0.0255 0.2220 0.2024
H7 H -0.0011 0.1758 0.1011
C8 C 0.07625(8) 0.5714(3) 0.0564(2)
H8 H 0.0531 0.5344 0.0192
H9 H 0.0936 0.5599 0.0187
H10 H 0.0739 0.6713 0.0699
C9 C 0.06418(7) 0.5289(3) 0.2585(2)
H11 H 0.0663 0.6307 0.2684
H12 H 0.0727 0.4809 0.3210
H13 H 0.0392 0.5045 0.2291
C10 C 0.13964(6) 0.5237(3) 0.2382(2)
H14 H 0.1416 0.6263 0.2402
H15 H 0.1557 0.4850 0.2025
H16 H 0.1462 0.4865 0.3044
C11 C 0.08553(7) 0.1573(3) 0.3525(2)
H17 H 0.0598 0.1410 0.3298
H18 H 0.0900 0.2528 0.3785
H19 H 0.0962 0.0893 0.4034
C12 C 0.15550(6) 0.1480(3) 0.3017(2)
H20 H 0.1627 0.0857 0.3580
H21 H 0.1619 0.2450 0.3219
H22 H 0.1677 0.1198 0.2532
C13 C 0.09596(7) -0.0464(3) 0.1949(2)
H23 H 0.0964 -0.0456 0.1268
H24 H 0.0723 -0.0759 0.1991
H25 H 0.1140 -0.1122 0.2315
C14 C 0.16304(7) 0.2457(3) 0.0220(2)
C15 C 0.20317(7) 0.2621(4) 0.07299(19)
C16 C 0.21966(9) 0.3949(4) 0.0831(2)
C17 C 0.25674(10) 0.4076(5) 0.1294(2)
H26 H 0.2681 0.4968 0.1375
C18 C 0.27599(11) 0.2858(6) 0.1624(3)
H27 H 0.3008 0.2937 0.1931
C19 C 0.26050(11) 0.1532(5) 0.1524(3)
H28 H 0.2743 0.0720 0.1754
C20 C 0.22398(9) 0.1429(4) 0.1073(2)
Cl1 Cl 0.20422(2) -0.02339(12) 0.09178(7)
Cl2 Cl 0.19460(2) 0.54376(12) 0.03705(7)
O1 O 0.14375(4) 0.26392(16) 0.08797(11)
O2 O 0.15074(4) 0.2188(2) -0.06300(14)
Si1 Si 0.105910(18) 0.13567(9) 0.24753(5)
Si2 Si 0.092004(19) 0.47172(8) 0.17488(5)
loop_
_geom_bond_atom_site_label_1
_geom_bond_atom_site_label_2
_geom_bond_site_symmetry_1
_geom_bond_site_symmetry_2
C1 C2 1_555 1_555
C2 H1 1_555 1_555
C3 C2 1_555 1_555
C4 C3 1_555 1_555
C5 C1 1_555 1_555
C6 C3 1_555 1_555
H2 C6 1_555 1_555
H3 C6 1_555 1_555
H4 C6 1_555 1_555
C7 C4 1_555 1_555
H5 C7 1_555 1_555
H6 C7 1_555 1_555
H7 C7 1_555 1_555
C8 H8 1_555 1_555
H9 C8 1_555 1_555
H10 C8 1_555 1_555
C9 H11 1_555 1_555
H12 C9 1_555 1_555
H13 C9 1_555 1_555
C10 H14 1_555 1_555
H15 C10 1_555 1_555
H16 C10 1_555 1_555
C11 H17 1_555 1_555
H18 C11 1_555 1_555
H19 C11 1_555 1_555
C12 H20 1_555 1_555
H21 C12 1_555 1_555
H22 C12 1_555 1_555
C13 H23 1_555 1_555
H24 C13 1_555 1_555
H25 C13 1_555 1_555
C14 C15 1_555 1_555
C15 C16 1_555 1_555
C16 C17 1_555 1_555
C17 H26 1_555 1_555
C18 C17 1_555 1_555
H27 C18 1_555 1_555
C19 C18 1_555 1_555
H28 C19 1_555 1_555
C20 C15 1_555 1_555
Cl1 C20 1_555 1_555
Cl2 C16 1_555 1_555
O1 C1 1_555 1_555
O2 C14 1_555 1_555
Si1 C5 1_555 1_555
Si2 C5 1_555 1_555
C4 C5 1_555 1_555
C8 Si2 1_555 1_555
C9 Si2 1_555 1_555
C10 Si2 1_555 1_555
C11 Si1 1_555 1_555
C12 Si1 1_555 1_555
C13 Si1 1_555 1_555
C14 O1 1_555 1_555
C19 C20 1_555 1_555

#END
