
#######################################################################
#
#                 Cambridge Crystallographic Data Centre
#                                CCDC 
#
#######################################################################
#
# If this CIF has been generated from an entry in the Cambridge 
# Structural Database, then it will include bibliographic, chemical, 
# crystal, experimental, refinement or atomic coordinate data resulting 
# from the CCDC's data processing and validation procedures.
#
#######################################################################

data_EWEPUS
_chemical_formula_moiety         'C16 H16 N2 O3'
_chemical_name_systematic        
anti-N-(2-Hydroxy-3-oxo-1-phenylbutyl)picolinamide
_symmetry_cell_setting           monoclinic
_symmetry_space_group_name_H-M   'P 21/n'
_symmetry_Int_Tables_number      14
_space_group_name_Hall           '-P 2yn'
loop_
_symmetry_equiv_pos_site_id
_symmetry_equiv_pos_as_xyz
1 x,y,z
2 1/2-x,1/2+y,1/2-z
3 -x,-y,-z
4 1/2+x,1/2-y,1/2+z
_cell_length_a                   7.6118(17)
_cell_length_b                   11.053(2)
_cell_length_c                   16.915(4)
_cell_angle_alpha                90
_cell_angle_beta                 93.164(4)
_cell_angle_gamma                90
_cell_volume                     1420.94
_exptl_crystal_colour            colorless
_exptl_crystal_description       prism
_chemical_melting_point          '402-405 K'
_cell_formula_units_Z            4
loop_
_atom_site_label
_atom_site_type_symbol
_atom_site_fract_x
_atom_site_fract_y
_atom_site_fract_z
C1 C 0.32456(18) 0.52122(12) 0.26917(8)
H1 H 0.2138 0.4726 0.2698
C2 C 0.30289(19) 0.63178(13) 0.32276(8)
H2 H 0.1879 0.6710 0.3070
C3 C 0.2968(2) 0.59156(13) 0.40902(9)
C4 C 0.4276(2) 0.64375(15) 0.46821(9)
H3 H 0.4033 0.6143 0.5212
H4 H 0.4192 0.7322 0.4671
H5 H 0.5463 0.6191 0.4553
C5 C 0.27088(18) 0.51188(12) 0.12399(8)
C6 C 0.30030(18) 0.57760(13) 0.04769(8)
C7 C 0.2414(2) 0.52801(15) -0.02383(9)
H6 H 0.1821 0.4523 -0.0261
C8 C 0.2713(2) 0.59201(17) -0.09229(9)
H7 H 0.2334 0.5605 -0.1426
C9 C 0.3563(2) 0.70157(17) -0.08636(9)
H8 H 0.3788 0.7466 -0.1325
C10 C 0.4089(2) 0.74538(16) -0.01189(9)
H9 H 0.4659 0.8218 -0.0081
C11 C 0.47679(18) 0.43850(13) 0.29500(8)
C12 C 0.4403(2) 0.31916(14) 0.31317(9)
H10 H 0.3216 0.2923 0.3108
C13 C 0.5738(2) 0.23809(16) 0.33473(10)
H11 H 0.5466 0.1561 0.3455
C14 C 0.7432(2) 0.27658(18) 0.34033(10)
H12 H 0.8346 0.2211 0.3551
C15 C 0.7843(2) 0.3957(2) 0.32484(10)
H13 H 0.9032 0.4221 0.3303
C16 C 0.6503(2) 0.47826(17) 0.30099(9)
H14 H 0.6782 0.5598 0.2892
N1 N 0.38265(16) 0.68452(12) 0.05485(7)
N2 N 0.34022(15) 0.56590(11) 0.18866(7)
H15 H 0.3997 0.6332 0.1825
O1 O 0.18605(16) 0.41694(10) 0.12390(6)
O2 O 0.43869(15) 0.71484(9) 0.30804(6)
H16 H 0.4088 0.7845 0.3220
O3 O 0.18391(16) 0.52019(11) 0.42577(7)
loop_
_geom_bond_atom_site_label_1
_geom_bond_atom_site_label_2
_geom_bond_site_symmetry_1
_geom_bond_site_symmetry_2
C1 H1 1_555 1_555
C2 C1 1_555 1_555
H2 C2 1_555 1_555
C3 C2 1_555 1_555
C4 C3 1_555 1_555
H3 C4 1_555 1_555
H4 C4 1_555 1_555
H5 C4 1_555 1_555
C5 C6 1_555 1_555
C6 C7 1_555 1_555
C7 H6 1_555 1_555
C8 C7 1_555 1_555
H7 C8 1_555 1_555
C9 C8 1_555 1_555
H8 C9 1_555 1_555
C10 C9 1_555 1_555
H9 C10 1_555 1_555
C11 C1 1_555 1_555
C12 C11 1_555 1_555
H10 C12 1_555 1_555
C13 C12 1_555 1_555
H11 C13 1_555 1_555
C14 C13 1_555 1_555
H12 C14 1_555 1_555
C15 C14 1_555 1_555
H13 C15 1_555 1_555
C16 C11 1_555 1_555
H14 C16 1_555 1_555
N1 C6 1_555 1_555
N2 C1 1_555 1_555
H15 N2 1_555 1_555
O1 C5 1_555 1_555
O2 C2 1_555 1_555
H16 O2 1_555 1_555
O3 C3 1_555 1_555
C5 N2 1_555 1_555
C10 N1 1_555 1_555
C15 C16 1_555 1_555

#END
