
#######################################################################
#
#                 Cambridge Crystallographic Data Centre
#                                CCDC 
#
#######################################################################
#
# If this CIF has been generated from an entry in the Cambridge 
# Structural Database, then it will include bibliographic, chemical, 
# crystal, experimental, refinement or atomic coordinate data resulting 
# from the CCDC's data processing and validation procedures.
#
#######################################################################

data_EWEPOM
_chemical_formula_moiety         'C16 H16 N2 O3'
_chemical_name_systematic        
syn-N-(2-Hydroxy-3-oxo-1-phenylbutyl)picolinamide
_symmetry_cell_setting           monoclinic
_symmetry_space_group_name_H-M   'P 21/c'
_symmetry_Int_Tables_number      14
_space_group_name_Hall           '-P 2ybc'
loop_
_symmetry_equiv_pos_site_id
_symmetry_equiv_pos_as_xyz
1 x,y,z
2 -x,1/2+y,1/2-z
3 -x,-y,-z
4 x,1/2-y,1/2+z
_cell_length_a                   13.456(3)
_cell_length_b                   5.7478(12)
_cell_length_c                   18.078(4)
_cell_angle_alpha                90
_cell_angle_beta                 96.588(5)
_cell_angle_gamma                90
_cell_volume                     1388.96
_exptl_crystal_colour            colorless
_exptl_crystal_description       needle
_chemical_melting_point          '401-403 K'
_cell_formula_units_Z            4
loop_
_atom_site_label
_atom_site_type_symbol
_atom_site_fract_x
_atom_site_fract_y
_atom_site_fract_z
C1 C 0.14352(13) 0.8925(3) 0.60795(10)
H1 H 0.1531 0.7349 0.5864
C2 C 0.15743(13) 1.0719(3) 0.54676(11)
H2 H 0.1029 1.0450 0.5052
C3 C 0.25640(14) 1.0341(3) 0.51565(11)
C4 C 0.27305(16) 0.8033(3) 0.48081(13)
H3 H 0.3199 0.8216 0.4435
H4 H 0.2092 0.7432 0.4567
H5 H 0.3009 0.6939 0.5193
C5 C 0.28564(13) 0.7531(3) 0.69458(11)
C6 C 0.35579(13) 0.8100(3) 0.76287(10)
C7 C 0.42904(13) 0.6521(3) 0.78835(11)
H6 H 0.4346 0.5077 0.7636
C8 C 0.49411(14) 0.7076(3) 0.85045(11)
H7 H 0.5458 0.6032 0.8689
C9 C 0.48252(14) 0.9175(3) 0.88506(11)
H8 H 0.5266 0.9611 0.9277
C10 C 0.40593(14) 1.0637(3) 0.85696(11)
H9 H 0.3976 1.2065 0.8820
C11 C 0.03884(13) 0.8978(3) 0.63211(10)
C12 C -0.02456(13) 0.7092(3) 0.61617(11)
H10 H -0.0023 0.5789 0.5902
C13 C -0.11985(13) 0.7100(3) 0.63790(11)
H11 H -0.1627 0.5804 0.6265
C14 C -0.15337(14) 0.8973(3) 0.67603(11)
H12 H -0.2189 0.8969 0.6908
C15 C -0.09043(14) 1.0858(3) 0.69244(11)
H13 H -0.1128 1.2151 0.7188
C16 C 0.00486(13) 1.0865(3) 0.67063(11)
H14 H 0.0474 1.2165 0.6820
N1 N 0.34283(11) 1.0142(3) 0.79618(9)
N2 N 0.22133(11) 0.9221(3) 0.67048(9)
H15 H 0.2262 1.0573 0.6934
O1 O 0.28905(10) 0.5623(2) 0.66434(8)
O2 O 0.14784(9) 1.3011(2) 0.57144(8)
H16 H 0.2036 1.3489 0.5913
O3 O 0.31890(10) 1.1868(2) 0.52036(8)
loop_
_geom_bond_atom_site_label_1
_geom_bond_atom_site_label_2
_geom_bond_site_symmetry_1
_geom_bond_site_symmetry_2
C1 H1 1_555 1_555
C2 C1 1_555 1_555
H2 C2 1_555 1_555
C3 C2 1_555 1_555
C4 C3 1_555 1_555
H3 C4 1_555 1_555
H4 C4 1_555 1_555
H5 C4 1_555 1_555
C5 C6 1_555 1_555
C6 C7 1_555 1_555
C7 H6 1_555 1_555
C8 C7 1_555 1_555
H7 C8 1_555 1_555
C9 C8 1_555 1_555
H8 C9 1_555 1_555
C10 C9 1_555 1_555
H9 C10 1_555 1_555
C11 C1 1_555 1_555
C12 C11 1_555 1_555
H10 C12 1_555 1_555
C13 C12 1_555 1_555
H11 C13 1_555 1_555
C14 C13 1_555 1_555
H12 C14 1_555 1_555
C15 C14 1_555 1_555
H13 C15 1_555 1_555
C16 C11 1_555 1_555
H14 C16 1_555 1_555
N1 C6 1_555 1_555
N2 C1 1_555 1_555
H15 N2 1_555 1_555
O1 C5 1_555 1_555
O2 C2 1_555 1_555
H16 O2 1_555 1_555
O3 C3 1_555 1_555
C5 N2 1_555 1_555
C10 N1 1_555 1_555
C15 C16 1_555 1_555

#END
