
#######################################################################
#
#                 Cambridge Crystallographic Data Centre
#                                CCDC 
#
#######################################################################
#
# If this CIF has been generated from an entry in the Cambridge 
# Structural Database, then it will include bibliographic, chemical, 
# crystal, experimental, refinement or atomic coordinate data resulting 
# from the CCDC's data processing and validation procedures.
#
#######################################################################

data_EWETOQ
_chemical_formula_moiety         'C15 H12 N4 O2 S2'
_chemical_name_systematic        
'Ethyl 9-methyl-2-(2-thienyl)thieno[3,2-e][1,2,4]triazolo[1,5-c]pyrimidine-8-carboxylate'
_symmetry_cell_setting           triclinic
_symmetry_space_group_name_H-M   'P -1'
_symmetry_Int_Tables_number      2
_space_group_name_Hall           '-P 1'
loop_
_symmetry_equiv_pos_site_id
_symmetry_equiv_pos_as_xyz
1 x,y,z
2 -x,-y,-z
_cell_length_a                   8.3986(5)
_cell_length_b                   8.9813(6)
_cell_length_c                   23.3149(12)
_cell_angle_alpha                83.888(5)
_cell_angle_beta                 79.673(5)
_cell_angle_gamma                62.904(7)
_cell_volume                     1539.65
_cell_formula_units_Z            4
loop_
_atom_site_label
_atom_site_type_symbol
_atom_site_fract_x
_atom_site_fract_y
_atom_site_fract_z
S1 S 0.84217(15) 0.65547(13) 0.09632(5)
S4 S 0.4658(2) 0.46821(19) -0.19935(7)
O1 O 1.0241(5) 0.4559(4) 0.18660(14)
C2 C 0.6636(6) 0.1846(6) -0.14079(19)
C3 C 0.8870(6) 0.3721(5) 0.05908(19)
N2 N 0.7075(5) 0.3743(4) -0.05566(16)
N5 N 0.5523(5) 0.6244(5) -0.10276(17)
C4 C 0.6145(6) 0.4573(5) -0.1006(2)
C5 C 0.7800(6) 0.5016(5) 0.02203(19)
N6 N 0.6128(5) 0.6479(4) -0.05506(17)
N7 N 0.6471(5) 0.8098(5) 0.00881(17)
C7 C 0.7062(6) 0.4963(5) -0.02761(19)
O3 O 1.1250(5) 0.1993(4) 0.15197(16)
C11 C 0.9308(6) 0.4384(5) 0.10105(19)
C13 C 1.0368(6) 0.3485(6) 0.1482(2)
C15 C 0.5866(6) 0.3687(5) -0.14305(19)
C16 C 0.7461(6) 0.6615(5) 0.0368(2)
C17 C 0.5846(7) 0.7990(5) -0.0360(2)
C19 C 0.9394(7) 0.1901(5) 0.0519(2)
H4 H 1.0170 0.1233 0.0799
H5 H 1.0019 0.1577 0.0132
H6 H 0.8325 0.1732 0.0582
C20 C 0.5947(7) 0.1493(6) -0.1917(2)
C26 C 1.1275(7) 0.3810(6) 0.2348(2)
H10 H 1.2557 0.3233 0.2202
H11 H 1.0906 0.3009 0.2566
C27 C 0.4953(7) 0.2856(6) -0.2227(2)
C29 C 1.0906(8) 0.5203(7) 0.2730(2)
H14 H 1.1194 0.6027 0.2503
H15 H 1.1635 0.4767 0.3038
H16 H 0.9651 0.5709 0.2896
H20 H 0.7014 0.1328 -0.1293
H21 H 0.6499 0.0398 -0.1997
H22 H 0.4408 0.2887 -0.2583
H25 H 0.5010 0.8974 -0.0606
S2 S 0.31440(16) 0.56912(14) -0.34116(5)
S3 S 0.9619(2) -0.1300(2) -0.61537(7)
C1 C 1.0961(4) 0.1012(5) -0.60766(15)
N1 N 0.7978(5) 0.2593(5) -0.51091(16)
N3 N 0.5845(5) 0.1847(5) -0.47003(17)
N4 N 0.6855(5) 0.0711(5) -0.51330(17)
O2 O 0.3341(5) 0.8326(4) -0.29270(15)
C6 C 0.4745(6) 0.6412(5) -0.3667(2)
N8 N 0.3513(6) 0.2984(5) -0.39307(18)
C8 C 0.4662(7) 0.7840(6) -0.3381(2)
C9 C 0.8095(6) 0.1227(6) -0.53572(19)
C10 C 0.9493(6) 0.0387(5) -0.5838(2)
C12 C 0.6563(6) 0.2963(5) -0.46981(19)
O4 O 0.5674(5) 0.8457(5) -0.35262(18)
C14 C 0.5643(6) 0.4208(5) -0.4268(2)
C18 C 0.4163(6) 0.4134(5) -0.39145(19)
C21 C 1.1415(7) -0.1446(7) -0.6628(2)
C22 C 1.2016(7) -0.0317(6) -0.6572(2)
C23 C 0.5999(6) 0.5527(5) -0.4126(2)
C24 C 0.7542(7) 0.5847(6) -0.4439(2)
H7 H 0.7120 0.7024 -0.4525
H8 H 0.8021 0.5249 -0.4796
H9 H 0.8472 0.5474 -0.4197
C25 C 0.4395(7) 0.1861(6) -0.4326(2)
C28 C 0.3121(8) 0.9735(6) -0.2608(2)
H12 H 0.2788 1.0731 -0.2860
H13 H 0.4246 0.9495 -0.2476
C30 C 0.1676(10) 1.0007(8) -0.2101(3)
H17 H 0.0588 1.0176 -0.2235
H18 H 0.1453 1.0976 -0.1899
H19 H 0.2054 0.9045 -0.1841
H23 H 1.3125 -0.0239 -0.6818
H24 H 1.2227 -0.2421 -0.6988
H1? H 1.1149 0.1875 -0.5964
H2? H 0.5942 0.5084 -0.0026
H3? H 0.5771 0.3702 -0.4975
loop_
_geom_bond_atom_site_label_1
_geom_bond_atom_site_label_2
_geom_bond_site_symmetry_1
_geom_bond_site_symmetry_2
S1 C11 1_555 1_555
S2 C6 1_555 1_555
S3 C10 1_555 1_555
S4 C15 1_555 1_555
O1 C13 1_555 1_555
C1 C10 1_555 1_555
C2 C15 1_555 1_555
N1 C9 1_555 1_555
C3 C5 1_555 1_555
N2 C4 1_555 1_555
N3 N4 1_555 1_555
N4 C9 1_555 1_555
N5 C4 1_555 1_555
C4 C15 1_555 1_555
C5 C7 1_555 1_555
N6 N5 1_555 1_555
O2 C8 1_555 1_555
N7 C16 1_555 1_555
C6 C8 1_555 1_555
N8 C18 1_555 1_555
C7 N2 1_555 1_555
O3 C13 1_555 1_555
C8 O4 1_555 1_555
C9 C10 1_555 1_555
C11 C3 1_555 1_555
C12 N1 1_555 1_555
C13 C11 1_555 1_555
C14 C12 1_555 1_555
C16 S1 1_555 1_555
C17 N6 1_555 1_555
C18 S2 1_555 1_555
C19 C3 1_555 1_555
H4 C19 1_555 1_555
H5 C19 1_555 1_555
H6 C19 1_555 1_555
C20 C2 1_555 1_555
C21 S3 1_555 1_555
C22 C1 1_555 1_555
C23 C6 1_555 1_555
C24 C23 1_555 1_555
H7 C24 1_555 1_555
H8 C24 1_555 1_555
H9 C24 1_555 1_555
C25 N3 1_555 1_555
C26 O1 1_555 1_555
H10 C26 1_555 1_555
H11 C26 1_555 1_555
C27 S4 1_555 1_555
C28 O2 1_555 1_555
H12 C28 1_555 1_555
H13 C28 1_555 1_555
C29 C26 1_555 1_555
H14 C29 1_555 1_555
H15 C29 1_555 1_555
H16 C29 1_555 1_555
C30 C28 1_555 1_555
H17 C30 1_555 1_555
H18 C30 1_555 1_555
H19 C30 1_555 1_555
H20 C2 1_555 1_555
H21 C20 1_555 1_555
H22 C27 1_555 1_555
H23 C22 1_555 1_555
H24 C21 1_555 1_555
H25 C17 1_555 1_555
N3 C12 1_555 1_555
C5 C16 1_555 1_555
N6 C7 1_555 1_555
N7 C17 1_555 1_555
N8 C25 1_555 1_555
C14 C18 1_555 1_555
C14 C23 1_555 1_555
C20 C27 1_555 1_555
C21 C22 1_555 1_555

#END
