
#######################################################################
#
#                 Cambridge Crystallographic Data Centre
#                                CCDC 
#
#######################################################################
#
# If this CIF has been generated from an entry in the Cambridge 
# Structural Database, then it will include bibliographic, chemical, 
# crystal, experimental, refinement or atomic coordinate data resulting 
# from the CCDC's data processing and validation procedures.
#
#######################################################################

data_EWEVIM03
_chemical_formula_moiety         'C7 H6 N2 O4'
_chemical_name_systematic        '2-amino-4-nitrobenzoic acid'
_symmetry_cell_setting           triclinic
_symmetry_space_group_name_H-M   'P -1'
_symmetry_Int_Tables_number      2
_space_group_name_Hall           '-P 1'
loop_
_symmetry_equiv_pos_site_id
_symmetry_equiv_pos_as_xyz
1 x,y,z
2 -x,-y,-z
_cell_length_a                   3.7522(3)
_cell_length_b                   8.5536(6)
_cell_length_c                   24.4118(17)
_cell_angle_alpha                88.738(9)
_cell_angle_beta                 86.625(9)
_cell_angle_gamma                87.769(9)
_cell_volume                     781.388
_exptl_crystal_colour            red
_exptl_crystal_description       Block
_cell_formula_units_Z            4
loop_
_atom_site_label
_atom_site_type_symbol
_atom_site_fract_x
_atom_site_fract_y
_atom_site_fract_z
O1 O 0.2797(6) 0.9803(3) 0.05929(8)
O2 O 0.4235(6) 0.7874(3) 0.00028(8)
H1 H 0.492(10) 0.8674(18) -0.0187(10)
O3 O -0.4440(8) 0.3961(3) 0.23278(10)
O4 O -0.2657(12) 0.2268(3) 0.17489(16)
N1 N -0.0426(9) 0.9034(3) 0.15787(11)
H2 H 0.057(9) 0.977(3) 0.1376(12)
H3 H -0.173(8) 0.914(4) 0.1879(10)
N2 N -0.2929(8) 0.3601(3) 0.18967(12)
C1 C 0.1347(7) 0.7178(3) 0.08535(10)
C2 C -0.0207(8) 0.7571(3) 0.13816(11)
C3 C -0.1596(8) 0.6334(3) 0.17165(11)
H4 H -0.2639 0.6542 0.2064
C4 C -0.1401(8) 0.4843(3) 0.15301(12)
C5 C 0.0111(9) 0.4430(4) 0.10178(13)
H5 H 0.0206 0.3398 0.0904
C6 C 0.1465(8) 0.5617(4) 0.06851(12)
H6 H 0.2485 0.5376 0.0339
C7 C 0.2839(7) 0.8399(4) 0.04813(11)
O5 O 0.7314(6) 0.4826(3) 0.44141(8)
O6 O 0.5624(6) 0.2863(3) 0.49802(8)
H7 H 0.488(10) 0.3655(18) 0.5170(10)
O7 O 1.4796(7) -0.1009(3) 0.26865(10)
O8 O 1.336(16) -0.278(2) 0.3292(17)
N3 N 1.0639(9) 0.4081(3) 0.34343(11)
H8 H 1.190(8) 0.426(4) 0.3121(10)
H9 H 0.971(9) 0.479(3) 0.3666(12)
N4 N 1.3127(8) -0.1387(3) 0.31055(12)
C8 C 0.8667(7) 0.2185(3) 0.41443(10)
C9 C 1.0369(8) 0.2603(3) 0.36218(11)
C10 C 1.1772(7) 0.1365(3) 0.32865(11)
H10 H 1.2850 0.1588 0.2942
C11 C 1.1545(8) -0.0146(3) 0.34664(11)
C12 C 0.9907(8) -0.0590(4) 0.39752(13)
H11 H 0.9759 -0.1635 0.4085
C13 C 0.8530(8) 0.0606(4) 0.43031(11)
H12 H 0.7463 0.0352 0.4645
C14 C 0.7185(7) 0.3401(4) 0.45166(11)
O9? O 1.18(2) -0.263(3) 0.3158(19)
loop_
_geom_bond_atom_site_label_1
_geom_bond_atom_site_label_2
_geom_bond_site_symmetry_1
_geom_bond_site_symmetry_2
O1 C7 1_555 1_555
O2 H1 1_555 1_555
O3 N2 1_555 1_555
O4 N2 1_555 1_555
N1 H2 1_555 1_555
H3 N1 1_555 1_555
N2 C4 1_555 1_555
C1 C2 1_555 1_555
C2 N1 1_555 1_555
C3 C2 1_555 1_555
H4 C3 1_555 1_555
C4 C3 1_555 1_555
C5 C4 1_555 1_555
H5 C5 1_555 1_555
C6 C1 1_555 1_555
H6 C6 1_555 1_555
C7 O2 1_555 1_555
O5 C14 1_555 1_555
O6 H7 1_555 1_555
O7 N4 1_555 1_555
O8 N4 1_555 1_555
N3 H8 1_555 1_555
H9 N3 1_555 1_555
N4 C11 1_555 1_555
C8 C9 1_555 1_555
C9 N3 1_555 1_555
C10 C9 1_555 1_555
H10 C10 1_555 1_555
C11 C10 1_555 1_555
C12 C11 1_555 1_555
H11 C12 1_555 1_555
C13 C8 1_555 1_555
H12 C13 1_555 1_555
C14 O6 1_555 1_555
C1 C7 1_555 1_555
C5 C6 1_555 1_555
C8 C14 1_555 1_555
C12 C13 1_555 1_555

#END
