
#######################################################################
#
#                 Cambridge Crystallographic Data Centre
#                                CCDC 
#
#######################################################################
#
# If this CIF has been generated from an entry in the Cambridge 
# Structural Database, then it will include bibliographic, chemical, 
# crystal, experimental, refinement or atomic coordinate data resulting 
# from the CCDC's data processing and validation procedures.
#
#######################################################################

data_EWEVOS
_chemical_formula_moiety         '0.5(C10 H8 N2),C7 H6 N2 O4'
_chemical_name_systematic        
"2-Amino-4-nitrobenzoic acid hemikis(2,2'-bipyridine)"
_symmetry_cell_setting           monoclinic
_symmetry_space_group_name_H-M   'C 2/c'
_symmetry_Int_Tables_number      15
_space_group_name_Hall           '-C 2yn'
loop_
_symmetry_equiv_pos_site_id
_symmetry_equiv_pos_as_xyz
1 x,y,z
2 -x,y,1/2-z
3 1/2+x,1/2+y,z
4 1/2-x,1/2+y,1/2-z
5 -x,-y,-z
6 x,-y,1/2+z
7 1/2-x,1/2-y,-z
8 1/2+x,1/2-y,1/2+z
_cell_length_a                   27.562(3)
_cell_length_b                   6.8300(6)
_cell_length_c                   12.9234(10)
_cell_angle_alpha                90
_cell_angle_beta                 110.593(5)
_cell_angle_gamma                90
_cell_volume                     2277.36
_exptl_crystal_colour            orange
_exptl_crystal_description       block
_cell_formula_units_Z            8
loop_
_atom_site_label
_atom_site_type_symbol
_atom_site_fract_x
_atom_site_fract_y
_atom_site_fract_z
O1 O 0.57589(5) 0.69173(19) 0.03517(9)
H1 H 0.5471(5) 0.729(3) -0.0124(14)
O2 O 0.53093(5) 0.69635(19) 0.14988(9)
O3 O 0.80424(5) 0.4897(2) 0.45304(11)
O4 O 0.76309(5) 0.4480(2) 0.56628(10)
N1 N 0.58156(6) 0.6145(2) 0.36527(12)
H2 H 0.5513(5) 0.641(3) 0.3146(13)
H3 H 0.5825(8) 0.553(3) 0.4260(11)
N2 N 0.76443(6) 0.4910(2) 0.47484(12)
C1 C 0.57207(7) 0.6792(2) 0.13481(13)
C2 C 0.62220(7) 0.6393(2) 0.22501(13)
C3 C 0.62355(6) 0.6024(2) 0.33422(13)
C4 C 0.67160(7) 0.5531(3) 0.41433(14)
H4 H 0.6739 0.5255 0.4879
C5 C 0.71524(6) 0.5447(3) 0.38662(14)
C6 C 0.71541(7) 0.5861(3) 0.28147(14)
H5 H 0.7463 0.5818 0.2649
C7 C 0.66825(7) 0.6340(3) 0.20230(14)
H6 H 0.6670 0.6645 0.1297
N3 N 0.48863(6) 0.8099(2) -0.12104(11)
C8 C 0.44948(7) 0.8167(3) -0.08202(14)
H7 H 0.4571 0.7949 -0.0053
C9 C 0.39870(7) 0.8541(3) -0.14788(15)
H8 H 0.3720 0.8569 -0.1172
C10 C 0.38763(7) 0.8872(3) -0.25927(14)
H9 H 0.3530 0.9114 -0.3069
C11 C 0.42742(7) 0.8845(3) -0.30030(14)
H10 H 0.4205 0.9100 -0.3764
C12 C 0.47786(6) 0.8445(3) -0.23010(13)
N3A N 0.51137(6) 0.8099(2) -0.37896(11)
C8A C 0.55052(7) 0.8167(3) -0.41798(14)
H7A H 0.5429 0.7949 -0.4947
C9A C 0.60130(7) 0.8541(3) -0.35212(15)
H8A H 0.6280 0.8569 -0.3828
C10A C 0.61237(7) 0.8872(3) -0.24073(14)
H9A H 0.6470 0.9114 -0.1931
C11A C 0.57258(7) 0.8845(3) -0.19970(14)
H10A H 0.5795 0.9100 -0.1236
C12A C 0.52214(6) 0.8445(3) -0.26990(13)
loop_
_geom_bond_atom_site_label_1
_geom_bond_atom_site_label_2
_geom_bond_site_symmetry_1
_geom_bond_site_symmetry_2
O1 H1 1_555 1_555
O2 C1 1_555 1_555
O3 N2 1_555 1_555
O4 N2 1_555 1_555
N1 H2 1_555 1_555
H3 N1 1_555 1_555
N2 C5 1_555 1_555
C1 O1 1_555 1_555
C2 C1 1_555 1_555
C3 N1 1_555 1_555
C4 C3 1_555 1_555
H4 C4 1_555 1_555
C5 C4 1_555 1_555
C6 C5 1_555 1_555
H5 C6 1_555 1_555
C7 C2 1_555 1_555
H6 C7 1_555 1_555
N3 C8 1_555 1_555
C8 H7 1_555 1_555
C9 C8 1_555 1_555
H8 C9 1_555 1_555
C10 C9 1_555 1_555
H9 C10 1_555 1_555
C11 C10 1_555 1_555
H10 C11 1_555 1_555
C12 N3 1_555 1_555
N3A C8A 1_555 1_555
C8A H7A 1_555 1_555
C9A C8A 1_555 1_555
H8A C9A 1_555 1_555
C10A C9A 1_555 1_555
H9A C10A 1_555 1_555
C11A C10A 1_555 1_555
H10A C11A 1_555 1_555
C12A C12 1_555 1_555
C2 C3 1_555 1_555
C6 C7 1_555 1_555
C11 C12 1_555 1_555
N3A C12A 1_555 1_555
C11A C12A 1_555 1_555

#END
