
#######################################################################
#
#                 Cambridge Crystallographic Data Centre
#                                CCDC 
#
#######################################################################
#
# If this CIF has been generated from an entry in the Cambridge 
# Structural Database, then it will include bibliographic, chemical, 
# crystal, experimental, refinement or atomic coordinate data resulting 
# from the CCDC's data processing and validation procedures.
#
#######################################################################

data_EWEVIM02
_chemical_formula_moiety         'C7 H6 N2 O4'
_chemical_name_systematic        '2-amino-4-nitrobenzoic acid'
_symmetry_cell_setting           monoclinic
_symmetry_space_group_name_H-M   'P 21/c'
_symmetry_Int_Tables_number      14
_space_group_name_Hall           '-P 2ybc'
loop_
_symmetry_equiv_pos_site_id
_symmetry_equiv_pos_as_xyz
1 x,y,z
2 -x,1/2+y,1/2-z
3 -x,-y,-z
4 x,1/2-y,1/2+z
_cell_length_a                   3.71050(10)
_cell_length_b                   25.3092(8)
_cell_length_c                   24.3555(17)
_cell_angle_alpha                90
_cell_angle_beta                 93.459(7)
_cell_angle_gamma                90
_cell_volume                     2283.05
_exptl_crystal_colour            orange
_exptl_crystal_description       Block
_cell_formula_units_Z            12
loop_
_atom_site_label
_atom_site_type_symbol
_atom_site_fract_x
_atom_site_fract_y
_atom_site_fract_z
O1 O 0.4391(3) 0.26307(4) 0.01156(4)
H1 H 0.352(5) 0.2896(4) -0.0068(6)
O2 O 0.6316(3) 0.32875(4) 0.06680(4)
C1 C 1.0399(4) 0.21176(6) 0.18183(5)
H2 H 1.1523 0.2191 0.2166
O3 O 1.3284(4) 0.13114(5) 0.24225(5)
C2 C 0.7422(4) 0.23983(6) 0.09546(5)
C3 C 0.7119(4) 0.18675(6) 0.07992(6)
H3 H 0.6008 0.1784 0.0453
N1 N 0.9512(4) 0.30313(5) 0.16581(6)
H4 H 1.079(5) 0.3085(7) 0.1974(6)
H5 H 0.866(5) 0.3294(6) 0.1436(7)
C4 C 0.6020(4) 0.28117(6) 0.05738(5)
C5 C 0.9102(4) 0.25343(5) 0.14760(5)
N2 N 1.1454(4) 0.11885(5) 0.20133(5)
C6 C 1.0015(4) 0.16084(6) 0.16414(6)
C7 C 0.8389(4) 0.14644(6) 0.11345(6)
H6 H 0.8169 0.1109 0.1027
O4 O 1.0704(6) 0.07346(5) 0.18993(6)
O5 O 0.1573(3) 0.15977(4) 0.45032(4)
O6 O 0.3868(3) 0.09354(4) 0.50180(4)
H7 H 0.453(5) 0.1200(4) 0.5220(6)
O7 O -0.4897(4) -0.03400(5) 0.26712(5)
C8 C -0.2273(4) 0.04544(6) 0.33117(5)
H8 H -0.3489 0.0536 0.2972
C9 C 0.1329(4) 0.01801(6) 0.43024(6)
H9 H 0.2552 0.0089 0.4638
N3 N -0.1762(4) 0.13646(5) 0.35231(6)
H10 H -0.317(5) 0.1408(7) 0.3233(6)
H11 H -0.109(5) 0.1621(6) 0.3751(7)
N4 N -0.3031(4) -0.04711(5) 0.30730(5)
C10 C 0.0774(4) 0.07155(6) 0.41777(5)
C11 C -0.1650(4) -0.00593(6) 0.34587(5)
C12 C 0.0150(4) -0.02151(6) 0.39507(6)
H12 H 0.0536 -0.0573 0.4037
C13 C 0.2084(4) 0.11210(6) 0.45739(5)
C14 C -0.1079(4) 0.08625(6) 0.36728(5)
O8 O -0.2304(6) -0.09244(5) 0.31746(7)
O9 O 0.2900(3) 0.49212(4) 0.44052(4)
O10 O 0.3566(3) 0.43022(4) 0.50540(4)
H13 H 0.462(5) 0.4564(4) 0.5221(6)
O11 O -0.5518(4) 0.29646(5) 0.27714(5)
N5 N -0.4402(4) 0.28566(5) 0.32343(6)
C15 C -0.1351(4) 0.31450(6) 0.41081(6)
H14 H -0.1596 0.2803 0.4251
N6 N -0.0379(4) 0.46509(5) 0.34298(6)
H15 H -0.132(5) 0.4701(7) 0.3106(6)
H16 H 0.059(5) 0.4909(6) 0.3640(7)
C16 C 0.2447(4) 0.44643(6) 0.45566(5)
C17 C 0.0274(4) 0.35446(6) 0.44159(6)
H17 H 0.1155 0.3472 0.4778
C18 C 0.0660(4) 0.40555(5) 0.42086(5)
C19 C -0.2609(4) 0.32728(6) 0.35769(6)
C20 C -0.0660(4) 0.41738(6) 0.36618(5)
C21 C -0.2330(4) 0.37611(6) 0.33498(6)
H18 H -0.3243 0.3824 0.2987
O12 O -0.4835(5) 0.24253(5) 0.34401(7)
loop_
_geom_bond_atom_site_label_1
_geom_bond_atom_site_label_2
_geom_bond_site_symmetry_1
_geom_bond_site_symmetry_2
O1 H1 1_555 1_555
O2 C4 1_555 1_555
C1 H2 1_555 1_555
O3 N2 1_555 1_555
C2 C3 1_555 1_555
C3 H3 1_555 1_555
N1 H4 1_555 1_555
H5 N1 1_555 1_555
C4 O1 1_555 1_555
C5 C1 1_555 1_555
N2 C6 1_555 1_555
C6 C1 1_555 1_555
C7 C3 1_555 1_555
H6 C7 1_555 1_555
O4 N2 1_555 1_555
O5 C13 1_555 1_555
O6 H7 1_555 1_555
O7 N4 1_555 1_555
C8 H8 1_555 1_555
C9 H9 1_555 1_555
N3 H10 1_555 1_555
H11 N3 1_555 1_555
N4 C11 1_555 1_555
C10 C9 1_555 1_555
C11 C8 1_555 1_555
C12 C9 1_555 1_555
H12 C12 1_555 1_555
C13 O6 1_555 1_555
C14 C8 1_555 1_555
O8 N4 1_555 1_555
O9 C16 1_555 1_555
O10 H13 1_555 1_555
O11 N5 1_555 1_555
N5 C19 1_555 1_555
C15 H14 1_555 1_555
N6 H15 1_555 1_555
H16 N6 1_555 1_555
C16 O10 1_555 1_555
C17 C15 1_555 1_555
H17 C17 1_555 1_555
C18 C16 1_555 1_555
C19 C15 1_555 1_555
C20 N6 1_555 1_555
C21 C19 1_555 1_555
H18 C21 1_555 1_555
O12 N5 1_555 1_555
C2 C4 1_555 1_555
C2 C5 1_555 1_555
N1 C5 1_555 1_555
C6 C7 1_555 1_555
N3 C14 1_555 1_555
C10 C13 1_555 1_555
C10 C14 1_555 1_555
C11 C12 1_555 1_555
C17 C18 1_555 1_555
C18 C20 1_555 1_555
C20 C21 1_555 1_555

#END
