
#######################################################################
#
#                 Cambridge Crystallographic Data Centre
#                                CCDC 
#
#######################################################################
#
# If this CIF has been generated from an entry in the Cambridge 
# Structural Database, then it will include bibliographic, chemical, 
# crystal, experimental, refinement or atomic coordinate data resulting 
# from the CCDC's data processing and validation procedures.
#
#######################################################################

data_EWIKUQ
_chemical_formula_moiety         'C27 H40 O15'
_chemical_name_systematic        
"Ethyl 2,3-dideoxy-3-C-(2',6'-anhydro-3',4',5',7'-tetra-O-acetyl-1'-deoxy-D-glycero-D-ido-heptitol-1'-yl)-4,6-di-O-acetyl-\a-L-arabino-hexapyranoside"
_symmetry_cell_setting           orthorhombic
_symmetry_space_group_name_H-M   'P 21 21 21'
_symmetry_Int_Tables_number      19
_space_group_name_Hall           'P 2ac 2ab'
loop_
_symmetry_equiv_pos_site_id
_symmetry_equiv_pos_as_xyz
1 x,y,z
2 1/2-x,-y,1/2+z
3 1/2+x,1/2-y,-z
4 -x,1/2+y,1/2-z
_cell_length_a                   8.50500(10)
_cell_length_b                   12.69500(10)
_cell_length_c                   27.7260(4)
_cell_angle_alpha                90
_cell_angle_beta                 90
_cell_angle_gamma                90
_cell_volume                     2993.6
_exptl_crystal_colour            colorless
_exptl_crystal_description       irregular
_chemical_melting_point          137-139deg.C
_cell_formula_units_Z            4
_exptl_crystal_recrystallization_method 'acetone/light petroleum'
loop_
_atom_site_label
_atom_site_type_symbol
_atom_site_fract_x
_atom_site_fract_y
_atom_site_fract_z
O1 O 0.88786(11) 0.81491(7) 0.56612(3)
C1 C 0.77099(16) 0.74671(11) 0.54640(5)
H1 H 0.8097(19) 0.6761(13) 0.5561(5)
C2 C 0.75844(17) 0.76121(10) 0.49234(5)
H2 H 0.6692(19) 0.7199(12) 0.4798(6)
H3 H 0.859(2) 0.7324(13) 0.4799(6)
C3 C 0.74330(16) 0.87649(10) 0.47646(4)
H4 H 0.6432(18) 0.9060(12) 0.4865(5)
C4 C 0.86596(15) 0.94263(10) 0.50244(5)
H5 H 0.9725(18) 0.9285(11) 0.4908(5)
C5 C 0.85921(16) 0.92437(10) 0.55690(5)
H6 H 0.7531(19) 0.9442(12) 0.5680(6)
C6 C 0.97500(16) 0.98716(12) 0.58616(5)
H7 H 0.966(2) 0.9724(13) 0.6200(6)
H8 H 0.9534(18) 1.0609(14) 0.5829(5)
O2 O 0.62369(11) 0.76478(8) 0.56796(3)
O3 O 0.82629(12) 1.05195(7) 0.49324(4)
O4 O 1.07939(14) 1.09540(9) 0.47988(5)
O5 O 1.13232(11) 0.96264(8) 0.57019(4)
C7 C 0.6231(2) 0.74847(14) 0.61967(5)
H9 H 0.514(2) 0.7701(13) 0.6300(6)
H10 H 0.703(2) 0.7978(15) 0.6345(7)
C8 C 0.6476(2) 0.63549(16) 0.63455(6)
H11 H 0.623(3) 0.6276(19) 0.6701(9)
H12 H 0.760(3) 0.6154(16) 0.6302(7)
H13 H 0.576(3) 0.5867(16) 0.6160(8)
C9 C 0.94324(19) 1.12004(12) 0.48252(5)
C10 C 0.8787(3) 1.22804(12) 0.47418(6)
H14 H 0.799(2) 1.2428(15) 0.4978(8)
H15 H 0.825(2) 1.2310(16) 0.4427(8)
H16 H 0.965(3) 1.2743(17) 0.4740(7)
C11 C 0.5704(2) 1.23785(11) 0.29770(5)
C12 C 1.24404(17) 1.03238(11) 0.58237(5)
C13 C 1.39923(19) 1.00277(13) 0.56118(7)
H17 H 1.427(2) 0.9306(18) 0.5689(7)
H18 H 1.481(3) 1.0526(18) 0.5710(8)
H19 H 1.390(3) 1.0016(17) 0.5256(8)
O6 O 1.21919(14) 1.10784(9) 0.60730(4)
O7 O 0.50320(11) 0.96782(7) 0.40587(3)
C14 C 0.76075(15) 0.88654(11) 0.42130(5)
H20 H 0.8146(17) 0.9526(12) 0.4128(5)
H21 H 0.8302(19) 0.8300(13) 0.4103(6)
C15 C 0.60512(15) 0.88046(11) 0.39456(5)
H22 H 0.5460(17) 0.8192(12) 0.4046(5)
C16 C 0.61753(16) 0.87465(10) 0.33951(5)
H23 H 0.5139(18) 0.8641(12) 0.3251(5)
C17 C 0.68420(16) 0.97619(10) 0.31924(4)
H24 H 0.7975(17) 0.9854(11) 0.3303(5)
C18 C 0.58000(16) 1.06721(10) 0.33473(5)
H25 H 0.475(2) 1.0621(12) 0.3185(6)
C19 C 0.55924(17) 1.06822(11) 0.38962(5)
H26 H 0.6654(19) 1.0878(12) 0.4052(6)
C20 C 0.44255(18) 1.14973(12) 0.40692(6)
H27 H 0.483(2) 1.2241(14) 0.3993(6)
H28 H 0.430(2) 1.1423(15) 0.4421(7)
O8 O 0.72017(11) 0.79019(7) 0.32486(3)
O9 O 0.68008(11) 0.97184(8) 0.26742(3)
O10 O 0.65855(12) 1.16209(7) 0.31959(4)
O11 O 0.29543(12) 1.13172(8) 0.38285(4)
C21 C 0.6491(2) 0.69790(11) 0.31304(5)
C22 C 0.7665(3) 0.61951(15) 0.29549(8)
H29 H 0.750(4) 0.604(3) 0.2655(13)
H30 H 0.877(4) 0.641(3) 0.2971(11)
H31 H 0.766(4) 0.561(3) 0.3137(13)
O12 O 0.51010(15) 0.68352(9) 0.31662(4)
C23 C 0.81907(18) 0.97368(12) 0.24361(5)
C24 C 0.7912(2) 0.97196(16) 0.19038(6)
H32 H 0.731(2) 1.0327(18) 0.1800(8)
H33 H 0.895(2) 0.9643(16) 0.1736(7)
H34 H 0.723(3) 0.911(2) 0.1833(9)
O13 O 0.94423(14) 0.97767(13) 0.26327(4)
C25 C 0.6732(3) 1.32262(14) 0.27811(8)
H35 H 0.743(3) 1.3427(18) 0.2998(9)
H36 H 0.612(3) 1.379(2) 0.2670(9)
H37 H 0.728(3) 1.299(2) 0.2510(12)
O14 O 0.43001(14) 1.23453(9) 0.29492(4)
C26 C 0.19524(18) 1.21336(12) 0.38259(5)
O15 O 0.21961(13) 1.29523(8) 0.40345(4)
C27 C 0.0538(2) 1.18930(18) 0.35303(8)
H38 H -0.030(3) 1.2378(17) 0.3603(8)
H39 H 0.084(3) 1.193(2) 0.3213(11)
H40 H 0.030(3) 1.118(3) 0.3539(10)
loop_
_geom_bond_atom_site_label_1
_geom_bond_atom_site_label_2
_geom_bond_site_symmetry_1
_geom_bond_site_symmetry_2
O1 C1 1_555 1_555
C1 H1 1_555 1_555
C2 C1 1_555 1_555
H2 C2 1_555 1_555
H3 C2 1_555 1_555
C3 C2 1_555 1_555
H4 C3 1_555 1_555
C4 C3 1_555 1_555
H5 C4 1_555 1_555
C5 O1 1_555 1_555
H6 C5 1_555 1_555
C6 C5 1_555 1_555
H7 C6 1_555 1_555
H8 C6 1_555 1_555
O2 C1 1_555 1_555
O3 C4 1_555 1_555
O4 C9 1_555 1_555
O5 C6 1_555 1_555
C7 O2 1_555 1_555
H9 C7 1_555 1_555
H10 C7 1_555 1_555
C8 C7 1_555 1_555
H11 C8 1_555 1_555
H12 C8 1_555 1_555
H13 C8 1_555 1_555
C9 O3 1_555 1_555
C10 C9 1_555 1_555
H14 C10 1_555 1_555
H15 C10 1_555 1_555
H16 C10 1_555 1_555
C11 O10 1_555 1_555
C12 O5 1_555 1_555
C13 C12 1_555 1_555
H17 C13 1_555 1_555
H18 C13 1_555 1_555
H19 C13 1_555 1_555
O6 C12 1_555 1_555
O7 C15 1_555 1_555
C14 C3 1_555 1_555
H20 C14 1_555 1_555
H21 C14 1_555 1_555
C15 C14 1_555 1_555
H22 C15 1_555 1_555
C16 C15 1_555 1_555
H23 C16 1_555 1_555
C17 C16 1_555 1_555
H24 C17 1_555 1_555
C18 C17 1_555 1_555
H25 C18 1_555 1_555
C19 O7 1_555 1_555
H26 C19 1_555 1_555
C20 C19 1_555 1_555
H27 C20 1_555 1_555
H28 C20 1_555 1_555
O8 C16 1_555 1_555
O9 C17 1_555 1_555
O10 C18 1_555 1_555
O11 C20 1_555 1_555
C21 O8 1_555 1_555
C22 C21 1_555 1_555
H29 C22 1_555 1_555
H30 C22 1_555 1_555
H31 C22 1_555 1_555
O12 C21 1_555 1_555
C23 O9 1_555 1_555
C24 C23 1_555 1_555
H32 C24 1_555 1_555
H33 C24 1_555 1_555
H34 C24 1_555 1_555
O13 C23 1_555 1_555
C25 C11 1_555 1_555
H35 C25 1_555 1_555
H36 C25 1_555 1_555
H37 C25 1_555 1_555
O14 C11 1_555 1_555
C26 O11 1_555 1_555
O15 C26 1_555 1_555
C27 C26 1_555 1_555
H38 C27 1_555 1_555
H39 C27 1_555 1_555
H40 C27 1_555 1_555
C4 C5 1_555 1_555
C18 C19 1_555 1_555

#END
