
#######################################################################
#
#                 Cambridge Crystallographic Data Centre
#                                CCDC 
#
#######################################################################
#
# If this CIF has been generated from an entry in the Cambridge 
# Structural Database, then it will include bibliographic, chemical, 
# crystal, experimental, refinement or atomic coordinate data resulting 
# from the CCDC's data processing and validation procedures.
#
#######################################################################

data_EWILEB
_chemical_formula_moiety         'C23 H35 N1 O3 Si1'
_chemical_name_systematic        
rac-N,N-Diisopropyl-8-(t-butyldimethylsiloxy)-2-hydroxy-1-naphthamide
_symmetry_cell_setting           monoclinic
_symmetry_space_group_name_H-M   'C 2/c'
_symmetry_Int_Tables_number      15
_space_group_name_Hall           '-C 2yn'
loop_
_symmetry_equiv_pos_site_id
_symmetry_equiv_pos_as_xyz
1 x,y,z
2 1/2+x,1/2+y,z
3 x,-y,1/2+z
4 1/2+x,1/2-y,1/2+z
5 -x,-y,-z
6 1/2-x,1/2-y,-z
7 -x,y,1/2-z
8 1/2-x,1/2+y,1/2-z
_cell_length_a                   30.6894(17)
_cell_length_b                   11.6929(6)
_cell_length_c                   12.6708(7)
_cell_angle_alpha                90
_cell_angle_beta                 91.5670(10)
_cell_angle_gamma                90
_cell_volume                     4545.19
_exptl_crystal_colour            colorless
_exptl_crystal_description       block
_chemical_melting_point          176-177deg.C
_cell_formula_units_Z            8
loop_
_atom_site_label
_atom_site_type_symbol
_atom_site_fract_x
_atom_site_fract_y
_atom_site_fract_z
Si1 Si 0.674625(12) 0.33172(3) 0.21911(3)
O1 O 0.64027(3) 0.34415(8) 0.31886(7)
O2 O 0.57490(3) 0.14219(8) 0.26747(7)
O3 O 0.48822(3) 0.18624(8) 0.37604(7)
H1 H 0.4665 0.1805 0.3333
N1 N 0.58894(4) 0.14560(9) 0.44382(9)
C1 C 0.54974(4) 0.30467(11) 0.36117(10)
C2 C 0.56908(4) 0.41545(11) 0.35746(10)
C3 C 0.61420(4) 0.43600(11) 0.34101(10)
C4 C 0.63093(5) 0.54483(12) 0.34714(11)
H2 H 0.6614 0.5564 0.3404
C5 C 0.60361(5) 0.63911(12) 0.36325(11)
H3 H 0.6157 0.7138 0.3681
C6 C 0.55985(5) 0.62392(12) 0.37195(11)
H4 H 0.5414 0.6884 0.3800
C7 C 0.54172(4) 0.51310(12) 0.36906(10)
C8 C 0.49618(4) 0.49696(12) 0.37716(10)
H5 H 0.4778 0.5619 0.3826
C9 C 0.47829(4) 0.39070(12) 0.37727(10)
H6 H 0.4476 0.3819 0.3818
C10 C 0.50527(4) 0.29336(12) 0.37062(10)
C11 C 0.73141(5) 0.31936(13) 0.27993(12)
C12 C 0.76445(5) 0.30956(17) 0.19144(14)
H7 H 0.7939 0.3031 0.2225
H8 H 0.7626 0.3778 0.1466
H9 H 0.7579 0.2415 0.1488
C13 C 0.73464(5) 0.21238(14) 0.34936(13)
H10 H 0.7641 0.2065 0.3806
H11 H 0.7284 0.1445 0.3063
H12 H 0.7135 0.2177 0.4057
C14 C 0.74244(5) 0.42360(14) 0.34877(14)
H13 H 0.7719 0.4152 0.3793
H14 H 0.7215 0.4293 0.4056
H15 H 0.7409 0.4930 0.3054
C15 C 0.65994(5) 0.20075(14) 0.14313(12)
H16 H 0.6305 0.2090 0.1124
H17 H 0.6609 0.1344 0.1904
H18 H 0.6807 0.1898 0.0866
C16 C 0.67010(5) 0.45608(14) 0.12735(12)
H19 H 0.6404 0.4601 0.0972
H20 H 0.6908 0.4467 0.0704
H21 H 0.6767 0.5267 0.1662
C17 C 0.57367(4) 0.19248(11) 0.35343(10)
C18 C 0.60063(4) 0.02303(11) 0.44908(11)
H22 H 0.6084 0.0063 0.5247
C19 C 0.64050(5) -0.00663(13) 0.38595(13)
H23 H 0.6647 0.0436 0.4073
H24 H 0.6337 0.0038 0.3105
H25 H 0.6487 -0.0864 0.3993
C20 C 0.56145(5) -0.05207(12) 0.41998(12)
H26 H 0.5366 -0.0299 0.4626
H27 H 0.5688 -0.1324 0.4338
H28 H 0.5538 -0.0422 0.3449
C21 C 0.58902(4) 0.20880(12) 0.54519(10)
H29 H 0.5806 0.2896 0.5286
C22 C 0.63467(5) 0.21205(14) 0.59575(12)
H30 H 0.6552 0.2429 0.5451
H31 H 0.6436 0.1344 0.6161
H32 H 0.6346 0.2609 0.6586
C23 C 0.55527(5) 0.16172(13) 0.61936(12)
H33 H 0.5266 0.1613 0.5835
H34 H 0.5543 0.2100 0.6825
H35 H 0.5632 0.0835 0.6399
loop_
_geom_bond_atom_site_label_1
_geom_bond_atom_site_label_2
_geom_bond_site_symmetry_1
_geom_bond_site_symmetry_2
Si1 O1 1_555 1_555
O1 C3 1_555 1_555
O2 C17 1_555 1_555
O3 H1 1_555 1_555
N1 C17 1_555 1_555
C1 C2 1_555 1_555
C2 C3 1_555 1_555
C3 C4 1_555 1_555
C4 H2 1_555 1_555
C5 C4 1_555 1_555
H3 C5 1_555 1_555
C6 C5 1_555 1_555
H4 C6 1_555 1_555
C7 C2 1_555 1_555
C8 C7 1_555 1_555
H5 C8 1_555 1_555
C9 C8 1_555 1_555
H6 C9 1_555 1_555
C10 O3 1_555 1_555
C11 Si1 1_555 1_555
C12 C11 1_555 1_555
H7 C12 1_555 1_555
H8 C12 1_555 1_555
H9 C12 1_555 1_555
C13 C11 1_555 1_555
H10 C13 1_555 1_555
H11 C13 1_555 1_555
H12 C13 1_555 1_555
C14 C11 1_555 1_555
H13 C14 1_555 1_555
H14 C14 1_555 1_555
H15 C14 1_555 1_555
C15 Si1 1_555 1_555
H16 C15 1_555 1_555
H17 C15 1_555 1_555
H18 C15 1_555 1_555
C16 Si1 1_555 1_555
H19 C16 1_555 1_555
H20 C16 1_555 1_555
H21 C16 1_555 1_555
C17 C1 1_555 1_555
C18 N1 1_555 1_555
H22 C18 1_555 1_555
C19 C18 1_555 1_555
H23 C19 1_555 1_555
H24 C19 1_555 1_555
H25 C19 1_555 1_555
C20 C18 1_555 1_555
H26 C20 1_555 1_555
H27 C20 1_555 1_555
H28 C20 1_555 1_555
C21 N1 1_555 1_555
H29 C21 1_555 1_555
C22 C21 1_555 1_555
H30 C22 1_555 1_555
H31 C22 1_555 1_555
H32 C22 1_555 1_555
C23 C21 1_555 1_555
H33 C23 1_555 1_555
H34 C23 1_555 1_555
H35 C23 1_555 1_555
C1 C10 1_555 1_555
C6 C7 1_555 1_555
C9 C10 1_555 1_555

#END
