
#######################################################################
#
#                 Cambridge Crystallographic Data Centre
#                                CCDC 
#
#######################################################################
#
# If this CIF has been generated from an entry in the Cambridge 
# Structural Database, then it will include bibliographic, chemical, 
# crystal, experimental, refinement or atomic coordinate data resulting 
# from the CCDC's data processing and validation procedures.
#
#######################################################################

data_EWILAX
_chemical_formula_moiety         'C27 H39 N1 O4 Si1'
_chemical_name_systematic        
rac-N,N-Diisopropyl-2-[2'-(E)-butenoyloxy]-8-(t-butyldimethylsiloxy)-1-naphthamide
_symmetry_cell_setting           triclinic
_symmetry_space_group_name_H-M   'P -1'
_symmetry_Int_Tables_number      2
_space_group_name_Hall           '-P 1'
loop_
_symmetry_equiv_pos_site_id
_symmetry_equiv_pos_as_xyz
1 x,y,z
2 -x,-y,-z
_cell_length_a                   7.506(3)
_cell_length_b                   8.440(3)
_cell_length_c                   21.452(8)
_cell_angle_alpha                79.844(6)
_cell_angle_beta                 81.841(6)
_cell_angle_gamma                83.219(7)
_cell_volume                     1318.11
_exptl_crystal_colour            colorless
_exptl_crystal_description       block
_chemical_melting_point          187-188deg.C
_cell_formula_units_Z            2
loop_
_atom_site_label
_atom_site_type_symbol
_atom_site_fract_x
_atom_site_fract_y
_atom_site_fract_z
Si1 Si 0.58834(8) 0.65629(7) 0.12494(3)
N1 N 0.8912(2) 0.3026(2) 0.26903(8)
O1 O 0.65210(18) 0.61707(17) 0.19846(6)
O2 O 0.6259(2) 0.24482(18) 0.24225(7)
O3 O 0.6258(2) 0.16030(18) 0.39219(7)
O4 O 0.7803(3) 0.2017(3) 0.47125(9)
C1 C 0.6019(3) 0.4109(2) 0.32189(9)
C2 C 0.5380(2) 0.5790(2) 0.31020(9)
C3 C 0.5717(2) 0.6835(2) 0.25063(9)
C4 C 0.5287(3) 0.8468(3) 0.24668(10)
H1 H 0.5624 0.9157 0.2078
C5 C 0.4357(3) 0.9154(3) 0.29879(11)
H2 H 0.4081 1.0292 0.2949
C6 C 0.3856(3) 0.8188(3) 0.35462(10)
H3 H 0.3147 0.8641 0.3887
C7 C 0.4388(2) 0.6507(2) 0.36219(9)
C8 C 0.3993(3) 0.5524(3) 0.42211(9)
H4 H 0.3301 0.5992 0.4561
C9 C 0.4580(3) 0.3932(3) 0.43199(9)
H5 H 0.4289 0.3282 0.4723
C10 C 0.5629(3) 0.3251(2) 0.38163(9)
C11 C 0.7706(3) 0.7618(3) 0.06807(10)
C12 C 0.7994(4) 0.9202(3) 0.08829(12)
H6 H 0.8941 0.9728 0.0583
H7 H 0.8362 0.8982 0.1313
H8 H 0.6865 0.9916 0.0883
C13 C 0.9496(3) 0.6549(4) 0.06527(12)
H9 H 1.0413 0.7122 0.0356
H10 H 0.9335 0.5545 0.0506
H11 H 0.9889 0.6293 0.1079
C14 C 0.7097(4) 0.7977(4) 0.00129(11)
H12 H 0.8023 0.8524 -0.0290
H13 H 0.5956 0.8675 0.0023
H14 H 0.6922 0.6960 -0.0121
C15 C 0.3684(3) 0.7864(3) 0.12387(11)
H15 H 0.2747 0.7311 0.1534
H16 H 0.3336 0.8068 0.0806
H17 H 0.3817 0.8894 0.1370
C16 C 0.5594(4) 0.4598(3) 0.10240(11)
H18 H 0.4646 0.4074 0.1324
H19 H 0.6734 0.3902 0.1037
H20 H 0.5248 0.4778 0.0592
C17 C 0.7087(3) 0.3154(2) 0.27243(9)
C18 C 1.0042(3) 0.1894(3) 0.23025(11)
H21 H 1.1323 0.2013 0.2351
C19 C 0.9918(5) 0.2293(3) 0.16145(13)
H22 H 1.0117 0.3432 0.1466
H23 H 0.8716 0.2104 0.1532
H24 H 1.0839 0.1608 0.1387
C20 C 0.9748(3) 0.0138(3) 0.25774(11)
H25 H 1.0510 -0.0575 0.2312
H26 H 0.8475 -0.0027 0.2583
H27 H 1.0070 -0.0111 0.3013
C21 C 0.9863(3) 0.3994(3) 0.30207(10)
H28 H 0.8919 0.4583 0.3296
C22 C 1.0850(3) 0.5265(3) 0.25533(12)
H29 H 1.0006 0.5910 0.2277
H30 H 1.1840 0.4734 0.2292
H31 H 1.1340 0.5973 0.2789
C23 C 1.1134(3) 0.2965(3) 0.34600(12)
H32 H 1.0466 0.2155 0.3757
H33 H 1.1627 0.3659 0.3701
H34 H 1.2126 0.2419 0.3204
C24 C 0.7375(4) 0.1118(3) 0.44101(13)
C25 C 0.8196(4) -0.0566(4) 0.45261(15)
C26 C 0.7989(4) -0.1603(4) 0.41459(15)
C27 C 0.8908(4) -0.3347(3) 0.42957(18)
H35 H 0.8656 -0.3967 0.3989
H36 H 1.0191 -0.3319 0.4272
H37 H 0.8442 -0.3837 0.4717
C28? C 0.7373(9) -0.0810(8) 0.4257(3)
C29? C 0.8659(8) -0.1742(8) 0.4542(3)
loop_
_geom_bond_atom_site_label_1
_geom_bond_atom_site_label_2
_geom_bond_site_symmetry_1
_geom_bond_site_symmetry_2
Si1 O1 1_555 1_555
N1 C17 1_555 1_555
O1 C3 1_555 1_555
O2 C17 1_555 1_555
O3 C10 1_555 1_555
O4 C24 1_555 1_555
C1 C2 1_555 1_555
C2 C3 1_555 1_555
C3 C4 1_555 1_555
C4 H1 1_555 1_555
C5 C4 1_555 1_555
H2 C5 1_555 1_555
C6 C5 1_555 1_555
H3 C6 1_555 1_555
C7 C2 1_555 1_555
C8 C7 1_555 1_555
H4 C8 1_555 1_555
C9 C8 1_555 1_555
H5 C9 1_555 1_555
C10 C1 1_555 1_555
C11 Si1 1_555 1_555
C12 C11 1_555 1_555
H6 C12 1_555 1_555
H7 C12 1_555 1_555
H8 C12 1_555 1_555
C13 C11 1_555 1_555
H9 C13 1_555 1_555
H10 C13 1_555 1_555
H11 C13 1_555 1_555
C14 C11 1_555 1_555
H12 C14 1_555 1_555
H13 C14 1_555 1_555
H14 C14 1_555 1_555
C15 Si1 1_555 1_555
H15 C15 1_555 1_555
H16 C15 1_555 1_555
H17 C15 1_555 1_555
C16 Si1 1_555 1_555
H18 C16 1_555 1_555
H19 C16 1_555 1_555
H20 C16 1_555 1_555
C17 C1 1_555 1_555
C18 N1 1_555 1_555
H21 C18 1_555 1_555
C19 C18 1_555 1_555
H22 C19 1_555 1_555
H23 C19 1_555 1_555
H24 C19 1_555 1_555
C20 C18 1_555 1_555
H25 C20 1_555 1_555
H26 C20 1_555 1_555
H27 C20 1_555 1_555
C21 N1 1_555 1_555
H28 C21 1_555 1_555
C22 C21 1_555 1_555
H29 C22 1_555 1_555
H30 C22 1_555 1_555
H31 C22 1_555 1_555
C23 C21 1_555 1_555
H32 C23 1_555 1_555
H33 C23 1_555 1_555
H34 C23 1_555 1_555
C24 O3 1_555 1_555
C25 C24 1_555 1_555
C26 C25 1_555 1_555
C27 C26 1_555 1_555
H35 C27 1_555 1_555
H36 C27 1_555 1_555
H37 C27 1_555 1_555
C6 C7 1_555 1_555
C9 C10 1_555 1_555

#END
