
#######################################################################
#
#                 Cambridge Crystallographic Data Centre
#                                CCDC 
#
#######################################################################
#
# If this CIF has been generated from an entry in the Cambridge 
# Structural Database, then it will include bibliographic, chemical, 
# crystal, experimental, refinement or atomic coordinate data resulting 
# from the CCDC's data processing and validation procedures.
#
#######################################################################

data_EWILIF
_chemical_formula_moiety         'C33 H47 N1 O6 Si1'
_chemical_name_systematic        
(+)-(aS,1'S,4'R)-N,N-diisopropyl-8-(t-butyldimethylsiloxy)-2-(4',7',7'-trimethyl-3'-oxo-2'-oxabicyclo[2.2.1]heptanecarbonyloxy)-1-naphthamide
_symmetry_cell_setting           orthorhombic
_symmetry_space_group_name_H-M   'P 21 21 21'
_symmetry_Int_Tables_number      19
_space_group_name_Hall           'P 2ac 2ab'
loop_
_symmetry_equiv_pos_site_id
_symmetry_equiv_pos_as_xyz
1 x,y,z
2 1/2-x,-y,1/2+z
3 -x,1/2+y,1/2-z
4 1/2+x,1/2-y,-z
_cell_length_a                   7.2874(5)
_cell_length_b                   18.1202(12)
_cell_length_c                   25.1522(17)
_cell_angle_alpha                90
_cell_angle_beta                 90
_cell_angle_gamma                90
_cell_volume                     3321.33
_exptl_crystal_colour            colorless
_exptl_crystal_description       bar
_chemical_melting_point          199-200deg.C
_cell_formula_units_Z            4
loop_
_atom_site_label
_atom_site_type_symbol
_atom_site_fract_x
_atom_site_fract_y
_atom_site_fract_z
Si1 Si 0.42045(13) 0.74979(5) 0.84687(3)
N1 N 0.1249(4) 0.65331(14) 0.70376(9)
O1 O 0.3242(3) 0.76434(11) 0.78744(7)
O2 O 0.4230(3) 0.62111(12) 0.71678(9)
O3 O 0.4112(3) 0.65795(11) 0.59911(8)
O4 O 0.1874(3) 0.68649(13) 0.54022(9)
O5 O 0.2218(3) 0.55172(12) 0.49357(8)
O6 O 0.2161(3) 0.47865(14) 0.42186(10)
C1 C 0.3684(4) 0.73638(17) 0.67458(12)
C2 C 0.3874(4) 0.80736(17) 0.69876(12)
C3 C 0.3559(4) 0.82217(18) 0.75318(13)
C4 C 0.3555(5) 0.89362(19) 0.77219(13)
H1 H 0.3241 0.9027 0.8074
C5 C 0.4024(5) 0.95288(18) 0.73852(15)
H2 H 0.4022 1.0008 0.7518
C6 C 0.4475(5) 0.94077(18) 0.68726(14)
H3 H 0.4847 0.9798 0.6658
C7 C 0.4382(4) 0.86822(17) 0.66605(12)
C8 C 0.4829(4) 0.85595(19) 0.61239(14)
H4 H 0.5202 0.8957 0.5916
C9 C 0.4734(4) 0.7880(2) 0.59007(12)
H5 H 0.5065 0.7804 0.5548
C10 C 0.4119(4) 0.72996(17) 0.62196(13)
C11 C 0.2383(5) 0.7610(2) 0.89968(12)
C12 C 0.3293(5) 0.7484(2) 0.95454(12)
H6 H 0.2388 0.7535 0.9820
H7 H 0.4247 0.7842 0.9598
H8 H 0.3810 0.6997 0.9558
C13 C 0.0868(5) 0.70488(19) 0.89281(13)
H9 H -0.0035 0.7116 0.9202
H10 H 0.1372 0.6560 0.8953
H11 H 0.0304 0.7113 0.8586
C14 C 0.1534(6) 0.8383(2) 0.89900(13)
H12 H 0.0616 0.8418 0.9262
H13 H 0.0981 0.8472 0.8650
H14 H 0.2473 0.8744 0.9054
C15 C 0.5105(4) 0.65469(17) 0.84644(13)
H15 H 0.6030 0.6502 0.8194
H16 H 0.4124 0.6208 0.8391
H17 H 0.5631 0.6435 0.8805
C16 C 0.6133(5) 0.81483(17) 0.85872(13)
H18 H 0.5679 0.8646 0.8586
H19 H 0.7034 0.8092 0.8312
H20 H 0.6684 0.8044 0.8926
C17 C 0.3084(5) 0.66595(18) 0.70164(11)
C18 C 0.0541(5) 0.58067(19) 0.72097(14)
H21 H -0.0798 0.5845 0.7186
C19 C 0.1066(6) 0.51927(19) 0.68330(14)
H22 H 0.0764 0.5334 0.6476
H23 H 0.0406 0.4752 0.6926
H24 H 0.2361 0.5102 0.6858
C20 C 0.0934(6) 0.56234(19) 0.77779(13)
H25 H 0.0566 0.6028 0.8000
H26 H 0.2224 0.5536 0.7821
H27 H 0.0262 0.5189 0.7877
C21 C -0.0113(5) 0.7099(2) 0.68774(14)
H28 H 0.0577 0.7525 0.6744
C22 C -0.1323(5) 0.6831(2) 0.64256(13)
H29 H -0.0569 0.6678 0.6133
H30 H -0.2115 0.7225 0.6313
H31 H -0.2052 0.6422 0.6545
C23 C -0.1256(5) 0.7365(2) 0.73402(14)
H32 H -0.0462 0.7542 0.7617
H33 H -0.1985 0.6964 0.7474
H34 H -0.2046 0.7757 0.7224
C24 C 0.3058(5) 0.64593(19) 0.55580(13)
C25 C 0.3686(5) 0.57678(18) 0.52840(13)
C26 C 0.4231(5) 0.50889(17) 0.56098(13)
H35 H 0.3164 0.4838 0.5753
H36 H 0.5053 0.5219 0.5899
C27 C 0.5213(5) 0.46143(18) 0.51851(13)
H37 H 0.4604 0.4142 0.5140
H38 H 0.6485 0.4529 0.5281
C28 C 0.5069(5) 0.50873(18) 0.46727(13)
C29 C 0.3046(5) 0.50846(19) 0.45560(16)
C30 C 0.6291(5) 0.4834(2) 0.42202(13)
H39 H 0.6118 0.5151 0.3919
H40 H 0.5977 0.4336 0.4124
H41 H 0.7551 0.4852 0.4331
C31 C 0.5291(4) 0.58780(18) 0.48859(12)
C32 C 0.7152(5) 0.6047(2) 0.51514(12)
H42 H 0.8071 0.6115 0.4882
H43 H 0.7495 0.5643 0.5377
H44 H 0.7049 0.6489 0.5360
C33 C 0.4907(5) 0.64668(18) 0.44625(12)
H45 H 0.5952 0.6512 0.4232
H46 H 0.4675 0.6932 0.4633
H47 H 0.3853 0.6325 0.4257
loop_
_geom_bond_atom_site_label_1
_geom_bond_atom_site_label_2
_geom_bond_site_symmetry_1
_geom_bond_site_symmetry_2
Si1 O1 1_555 1_555
N1 C17 1_555 1_555
O1 C3 1_555 1_555
O2 C17 1_555 1_555
O3 C10 1_555 1_555
O4 C24 1_555 1_555
O5 C25 1_555 1_555
O6 C29 1_555 1_555
C1 C2 1_555 1_555
C2 C3 1_555 1_555
C3 C4 1_555 1_555
C4 H1 1_555 1_555
C5 C4 1_555 1_555
H2 C5 1_555 1_555
C6 C5 1_555 1_555
H3 C6 1_555 1_555
C7 C2 1_555 1_555
C8 C7 1_555 1_555
H4 C8 1_555 1_555
C9 C8 1_555 1_555
H5 C9 1_555 1_555
C10 C1 1_555 1_555
C11 Si1 1_555 1_555
C12 C11 1_555 1_555
H6 C12 1_555 1_555
H7 C12 1_555 1_555
H8 C12 1_555 1_555
C13 C11 1_555 1_555
H9 C13 1_555 1_555
H10 C13 1_555 1_555
H11 C13 1_555 1_555
C14 C11 1_555 1_555
H12 C14 1_555 1_555
H13 C14 1_555 1_555
H14 C14 1_555 1_555
C15 Si1 1_555 1_555
H15 C15 1_555 1_555
H16 C15 1_555 1_555
H17 C15 1_555 1_555
C16 Si1 1_555 1_555
H18 C16 1_555 1_555
H19 C16 1_555 1_555
H20 C16 1_555 1_555
C17 C1 1_555 1_555
C18 N1 1_555 1_555
H21 C18 1_555 1_555
C19 C18 1_555 1_555
H22 C19 1_555 1_555
H23 C19 1_555 1_555
H24 C19 1_555 1_555
C20 C18 1_555 1_555
H25 C20 1_555 1_555
H26 C20 1_555 1_555
H27 C20 1_555 1_555
C21 N1 1_555 1_555
H28 C21 1_555 1_555
C22 C21 1_555 1_555
H29 C22 1_555 1_555
H30 C22 1_555 1_555
H31 C22 1_555 1_555
C23 C21 1_555 1_555
H32 C23 1_555 1_555
H33 C23 1_555 1_555
H34 C23 1_555 1_555
C24 O3 1_555 1_555
C25 C24 1_555 1_555
C26 C25 1_555 1_555
H35 C26 1_555 1_555
H36 C26 1_555 1_555
C27 C26 1_555 1_555
H37 C27 1_555 1_555
H38 C27 1_555 1_555
C28 C27 1_555 1_555
C29 O5 1_555 1_555
C30 C28 1_555 1_555
H39 C30 1_555 1_555
H40 C30 1_555 1_555
H41 C30 1_555 1_555
C31 C25 1_555 1_555
C32 C31 1_555 1_555
H42 C32 1_555 1_555
H43 C32 1_555 1_555
H44 C32 1_555 1_555
C33 C31 1_555 1_555
H45 C33 1_555 1_555
H46 C33 1_555 1_555
H47 C33 1_555 1_555
C6 C7 1_555 1_555
C9 C10 1_555 1_555
C28 C29 1_555 1_555
C28 C31 1_555 1_555

#END
