
#######################################################################
#
#                 Cambridge Crystallographic Data Centre
#                                CCDC 
#
#######################################################################
#
# If this CIF has been generated from an entry in the Cambridge 
# Structural Database, then it will include bibliographic, chemical, 
# crystal, experimental, refinement or atomic coordinate data resulting 
# from the CCDC's data processing and validation procedures.
#
#######################################################################

data_EWIMUU
_chemical_formula_moiety         'C32 H33 N3 O6'
_chemical_name_systematic        
12d-methyl-2,6,10-trinitro-4b,8b,12b-tripropyl-4b,8b,12b,12d-tetrahydrodibenzo[2,3:4,5]pentaleno[1,6-ab]indene
_symmetry_cell_setting           monoclinic
_symmetry_space_group_name_H-M   'P 21/c'
_symmetry_Int_Tables_number      14
_space_group_name_Hall           '-P 2ybc'
loop_
_symmetry_equiv_pos_site_id
_symmetry_equiv_pos_as_xyz
1 x,y,z
2 -x,1/2+y,1/2-z
3 -x,-y,-z
4 x,1/2-y,1/2+z
_cell_length_a                   24.7839(19)
_cell_length_b                   17.8729(13)
_cell_length_c                   31.980(3)
_cell_angle_alpha                90
_cell_angle_beta                 106.172(2)
_cell_angle_gamma                90
_cell_volume                     13605.3
_exptl_crystal_colour            colorless
_exptl_crystal_description       polyhedron
_cell_formula_units_Z            20
loop_
_atom_site_label
_atom_site_type_symbol
_atom_site_fract_x
_atom_site_fract_y
_atom_site_fract_z
C1 C 1.34329(19) 0.8304(2) 1.22884(15)
C2 C 1.40050(19) 0.7294(3) 1.20348(15)
C3 C 1.32822(19) 0.6923(2) 1.24271(14)
C4 C 1.37575(19) 0.7524(2) 1.24290(15)
C5 C 1.4206(2) 0.7567(3) 1.28614(14)
H1 H 1.4486 0.7943 1.2844
H2 H 1.4032 0.7706 1.3091
H3 H 1.4389 0.7078 1.2929
C6 C 1.3560(2) 0.8501(3) 1.18604(15)
C7 C 1.3876(2) 0.7960(3) 1.17263(15)
C8 C 1.4052(2) 0.8062(3) 1.13551(15)
H4 H 1.4272 0.7695 1.1264
C9 C 1.3897(2) 0.8713(3) 1.11232(17)
C10 C 1.3572(2) 0.9259(3) 1.12434(18)
H5 H 1.3468 0.9699 1.1074
C11 C 1.3404(2) 0.9149(3) 1.16157(17)
H6 H 1.3181 0.9515 1.1705
C12 C 1.3665(2) 0.6614(3) 1.18333(15)
C13 C 1.3285(2) 0.6388(3) 1.20565(15)
C14 C 1.2959(2) 0.5754(2) 1.19286(15)
H7 H 1.2694 0.5605 1.2078
C15 C 1.3024(2) 0.5342(3) 1.15811(17)
C16 C 1.3398(2) 0.5560(3) 1.13554(17)
H8 H 1.3434 0.5273 1.1115
C17 C 1.3718(2) 0.6193(3) 1.14787(16)
H9 H 1.3975 0.6344 1.1323
C18 C 1.27384(19) 0.7368(2) 1.23046(14)
C19 C 1.28170(19) 0.8118(2) 1.22181(14)
C20 C 1.23651(19) 0.8598(3) 1.20999(15)
H10 H 1.2416 0.9107 1.2036
C21 C 1.1835(2) 0.8324(3) 1.20765(15)
C22 C 1.1746(2) 0.7592(3) 1.21632(15)
H11 H 1.1379 0.7415 1.2146
C23 C 1.2203(2) 0.7117(3) 1.22770(15)
H12 H 1.2147 0.6607 1.2338
C24 C 1.3621(5) 0.8983(5) 1.2595(3)
H13 H 1.4034 0.9027 1.2658
H14 H 1.3456 0.9438 1.2432
C25 C 1.3478(3) 0.8991(4) 1.3024(2)
H15 H 1.3072 0.8888 1.2973
H16 H 1.3690 0.8591 1.3214
C26 C 1.3617(3) 0.9731(4) 1.3247(2)
H17 H 1.3520 0.9720 1.3524
H18 H 1.4020 0.9830 1.3303
H19 H 1.3402 1.0126 1.3061
C27 C 1.4628(2) 0.7023(5) 1.2149(3)
H20 H 1.4686 0.6649 1.2386
H21 H 1.4685 0.6763 1.1891
C28 C 1.5083(3) 0.7628(4) 1.2290(2)
H22 H 1.4968 0.8077 1.2106
H23 H 1.5118 0.7773 1.2595
C29 C 1.5643(3) 0.7365(4) 1.2255(2)
H24 H 1.5920 0.7766 1.2347
H25 H 1.5763 0.6926 1.2441
H26 H 1.5613 0.7231 1.1952
C30 C 1.3290(4) 0.6494(4) 1.2852(2)
H27 H 1.3330 0.6869 1.3087
H28 H 1.2918 0.6255 1.2808
C31 C 1.3741(3) 0.5887(4) 1.3021(2)
H29 H 1.3779 0.5583 1.2772
H30 H 1.4107 0.6132 1.3154
C32 C 1.3601(3) 0.5380(3) 1.3351(2)
H31 H 1.3898 0.5006 1.3448
H32 H 1.3570 0.5677 1.3601
H33 H 1.3242 0.5129 1.3219
N1 N 1.4100(2) 0.8864(4) 1.07387(17)
O1 O 1.4047(2) 0.9500(3) 1.05910(14)
O2 O 1.4325(3) 0.8349(3) 1.06019(17)
N2 N 1.2717(2) 0.4626(2) 1.14746(15)
O3 O 1.2915(2) 0.4173(2) 1.12761(16)
O4 O 1.2285(2) 0.4564(2) 1.15733(16)
N3 N 1.13558(18) 0.8838(3) 1.19787(15)
O5 O 1.09274(17) 0.8631(2) 1.20709(15)
O6 O 1.14035(17) 0.9442(2) 1.18278(14)
C74 C 1.5425(3) 0.6777(3) 1.43785(19)
C75 C 1.5385(3) 0.8200(3) 1.4382(2)
C76 C 1.6022(2) 0.7538(3) 1.3994(2)
C77 C 1.5806(3) 0.7505(4) 1.4418(2)
C78 C 1.6293(4) 0.7524(6) 1.4836(3)
H88 H 1.6512 0.7982 1.4843
H89 H 1.6143 0.7513 1.5089
H90 H 1.6535 0.7088 1.4844
C79 C 1.4829(2) 0.7073(3) 1.4304(2)
C80 C 1.4806(2) 0.7857(4) 1.4291(2)
C81 C 1.4299(2) 0.8221(4) 1.4206(2)
H91 H 1.4282 0.8752 1.4194
C82 C 1.3816(3) 0.7801(4) 1.4138(4)
C83 C 1.3830(3) 0.7027(4) 1.4157(2)
H92 H 1.3491 0.6752 1.4110
C84 C 1.4337(3) 0.6657(4) 1.4245(2)
H93 H 1.4351 0.6127 1.4264
C85 C 1.5430(3) 0.8606(3) 1.3979(2)
C86 C 1.5764(3) 0.8233(3) 1.3758(2)
C87 C 1.5851(3) 0.8520(3) 1.3382(2)
H94 H 1.6076 0.8268 1.3229
C88 C 1.5592(4) 0.9204(5) 1.3238(3)
C89 C 1.5243(3) 0.9565(4) 1.3433(2)
H95 H 1.5049 1.0005 1.3307
C90 C 1.5178(3) 0.9280(3) 1.3821(2)
H96 H 1.4962 0.9544 1.3975
C91 C 1.5781(3) 0.6834(3) 1.37461(18)
C92 C 1.5459(3) 0.6408(4) 1.3959(2)
C93 C 1.5233(3) 0.5727(3) 1.37924(19)
H97 H 1.5016 0.5439 1.3936
C94 C 1.5332(6) 0.5477(6) 1.3409(4)
C95 C 1.5628(3) 0.5904(3) 1.3183(2)
H98 H 1.5670 0.5734 1.2912
C96 C 1.5860(3) 0.6577(3) 1.33552(19)
H99 H 1.6073 0.6864 1.3208
C97 C 1.5569(3) 0.6193(3) 1.47516(17)
H100 H 1.5371 0.5723 1.4638
H101 H 1.5976 0.6089 1.4823
C98 C 1.5429(4) 0.6388(4) 1.5175(2)
H102 H 1.5687 0.6787 1.5326
H103 H 1.5042 0.6588 1.5103
C99 C 1.5473(4) 0.5743(4) 1.5475(2)
H104 H 1.5378 0.5906 1.5739
H105 H 1.5212 0.5349 1.5331
H106 H 1.5858 0.5548 1.5554
C100 C 1.5474(3) 0.8759(4) 1.4766(2)
H107 H 1.5134 0.9077 1.4711
H108 H 1.5495 0.8467 1.5033
C101 C 1.5981(3) 0.9274(4) 1.4861(3)
H109 H 1.6312 0.8998 1.5039
H110 H 1.6058 0.9408 1.4583
C102 C 1.5915(4) 0.9971(4) 1.5092(3)
H111 H 1.6257 1.0273 1.5142
H112 H 1.5595 1.0256 1.4915
H113 H 1.5850 0.9846 1.5372
C103 C 1.6665(2) 0.7557(3) 1.4057(2)
H114 H 1.6728 0.7714 1.3778
H115 H 1.6824 0.7952 1.4273
C104 C 1.7004(3) 0.6841(4) 1.4204(3)
H116 H 1.6916 0.6646 1.4467
H117 H 1.6886 0.6459 1.3973
C105 C 1.7621(3) 0.6952(5) 1.4304(3)
H118 H 1.7813 0.6475 1.4396
H119 H 1.7714 0.7133 1.4043
H120 H 1.7743 0.7320 1.4538
N7 N 1.3277(2) 0.8181(3) 1.40438(17)
O13 O 1.2850(2) 0.7812(3) 1.39223(17)
O14 O 1.3268(3) 0.8855(4) 1.4091(3)
N8 N 1.5695(3) 0.9508(4) 1.2840(2)
O15 O 1.5476(3) 1.0122(4) 1.2716(2)
O16 O 1.6022(3) 0.9236(3) 1.2670(2)
N9 N 1.5104(3) 0.4744(3) 1.32388(19)
O17 O 1.5237(3) 0.4509(3) 1.29219(17)
O18 O 1.4838(3) 0.4376(3) 1.3433(2)
C106 C 1.2065(2) 0.7498(3) 0.99675(15)
C107 C 1.1440(2) 0.6834(3) 1.03698(15)
C108 C 1.1429(2) 0.8265(3) 1.03122(16)
C109 C 1.1840(2) 0.7552(3) 1.03863(15)
C110 C 1.2313(2) 0.7607(3) 1.08115(15)
H121 H 1.2150 0.7640 1.1057
H122 H 1.2552 0.7163 1.0844
H123 H 1.2538 0.8056 1.0805
C111 C 1.1781(2) 0.6805(3) 0.97286(15)
C112 C 1.1464(2) 0.6430(3) 0.99609(15)
C113 C 1.1200(2) 0.5761(3) 0.98012(15)
H124 H 1.0982 0.5499 0.9955
C114 C 1.1262(2) 0.5483(3) 0.94122(15)
C115 C 1.1567(2) 0.5865(3) 0.91778(16)
H125 H 1.1591 0.5674 0.8907
C116 C 1.1835(2) 0.6522(3) 0.93379(15)
H126 H 1.2055 0.6780 0.9183
C117 C 1.0857(2) 0.7166(3) 1.03007(16)
C118 C 1.0848(2) 0.7934(3) 1.02533(16)
C119 C 1.0345(2) 0.8314(3) 1.01813(16)
H127 H 1.0333 0.8844 1.0159
C120 C 0.9864(2) 0.7907(3) 1.01425(17)
C121 C 0.9863(2) 0.7144(3) 1.01974(19)
H128 H 0.9524 0.6882 1.0180
C122 C 1.0371(2) 0.6769(3) 1.02791(17)
H129 H 1.0386 0.6242 1.0320
C123 C 1.1481(2) 0.8610(3) 0.98856(17)
C124 C 1.1832(2) 0.8209(3) 0.97060(16)
C125 C 1.1940(2) 0.8454(3) 0.93246(17)
H130 H 1.2187 0.8185 0.9200
C126 C 1.1678(3) 0.9100(3) 0.91311(18)
C127 C 1.1325(3) 0.9500(3) 0.93053(19)
H131 H 1.1151 0.9942 0.9166
C128 C 1.1224(2) 0.9255(3) 0.96890(18)
H132 H 1.0980 0.9529 0.9815
C129 C 1.2704(2) 0.7453(3) 1.00403(17)
H133 H 1.2882 0.7849 1.0250
H134 H 1.2785 0.7569 0.9761
C130 C 1.2987(2) 0.6699(3) 1.0210(2)
H135 H 1.2885 0.6560 1.0478
H136 H 1.2837 0.6308 0.9989
C131 C 1.3610(2) 0.6714(4) 1.0307(2)
H137 H 1.3762 0.6222 1.0412
H138 H 1.3714 0.6840 1.0041
H139 H 1.3763 0.7092 1.0530
C132 C 1.1587(2) 0.6300(3) 1.07594(15)
H140 H 1.1990 0.6171 1.0822
H141 H 1.1371 0.5833 1.0672
C133 C 1.1481(3) 0.6577(3) 1.11835(16)
H142 H 1.1818 0.6848 1.1357
H143 H 1.1163 0.6933 1.1113
C134 C 1.1354(3) 0.5963(3) 1.14468(17)
H144 H 1.1290 0.6167 1.1713
H145 H 1.1016 0.5699 1.1279
H146 H 1.1671 0.5613 1.1523
C135 C 1.1536(2) 0.8864(3) 1.06711(17)
H147 H 1.1566 0.8606 1.0950
H148 H 1.1200 0.9189 1.0611
C136 C 1.2053(2) 0.9375(3) 1.0737(2)
H149 H 1.2394 0.9088 1.0887
H150 H 1.2090 0.9525 1.0448
C137 C 1.2023(3) 1.0054(3) 1.0992(2)
H151 H 1.2363 1.0355 1.1023
H152 H 1.1692 1.0348 1.0842
H153 H 1.1995 0.9910 1.1281
N10 N 1.10195(19) 0.4756(2) 0.92514(14)
O19 O 1.10622(17) 0.4526(2) 0.89068(12)
O20 O 1.07902(18) 0.4407(2) 0.94804(13)
N11 N 0.9324(2) 0.8304(3) 1.00575(14)
O21 O 0.88936(17) 0.7933(2) 0.99732(14)
O22 O 0.93280(17) 0.8986(2) 1.00716(14)
N12 N 1.1805(3) 0.9383(3) 0.87367(16)
O23 O 1.1511(2) 0.9890(3) 0.85439(14)
O24 O 1.2194(3) 0.9101(3) 0.86291(16)
C138 C 0.9239(2) 0.6945(3) 0.84530(15)
C139 C 0.9451(2) 0.8299(3) 0.82967(15)
C140 C 0.9981(2) 0.7230(3) 0.80559(15)
C141 C 0.9740(2) 0.7504(3) 0.84433(15)
C142 C 1.0187(2) 0.7540(3) 0.88784(15)
H154 H 1.0017 0.7711 0.9104
H155 H 1.0350 0.7042 0.8954
H156 H 1.0482 0.7891 0.8858
C143 C 0.8715(2) 0.7429(3) 0.83289(14)
C144 C 0.8830(2) 0.8153(3) 0.82285(15)
C145 C 0.8392(2) 0.8673(3) 0.80960(16)
H157 H 0.8460 0.9172 0.8021
C146 C 0.7856(2) 0.8432(3) 0.80787(16)
C147 C 0.7735(2) 0.7723(3) 0.81834(16)
H158 H 0.7360 0.7583 0.8167
C148 C 0.8167(2) 0.7216(3) 0.83135(16)
H159 H 0.8093 0.6723 0.8393
C149 C 0.9574(2) 0.8454(3) 0.78603(16)
C150 C 0.9866(2) 0.7877(3) 0.77387(16)
C151 C 1.0030(2) 0.7926(3) 0.73528(16)
H160 H 1.0219 0.7529 0.7256
C152 C 0.9899(2) 0.8589(3) 0.71224(17)
C153 C 0.9615(2) 0.9181(3) 0.72350(18)
H161 H 0.9538 0.9621 0.7063
C154 C 0.9446(2) 0.9108(3) 0.76122(17)
H162 H 0.9244 0.9500 0.7701
C155 C 0.9624(2) 0.6557(3) 0.78712(15)
C156 C 0.9224(2) 0.6409(3) 0.80853(15)
C157 C 0.8856(2) 0.5810(3) 0.79580(15)
H163 H 0.8570 0.5710 0.8096
C158 C 0.8926(2) 0.5362(3) 0.76181(16)
C159 C 0.9331(2) 0.5491(3) 0.74070(16)
H164 H 0.9371 0.5164 0.7184
C160 C 0.9679(2) 0.6108(3) 0.75271(16)
H165 H 0.9950 0.6224 0.7378
C161 C 0.9259(2) 0.6525(3) 0.88853(16)
H166 H 0.9334 0.6900 0.9123
H167 H 0.8881 0.6316 0.8858
C162 C 0.9681(3) 0.5899(3) 0.90260(18)
H168 H 1.0066 0.6109 0.9117
H169 H 0.9656 0.5555 0.8778
C163 C 0.9567(3) 0.5467(3) 0.94045(17)
H170 H 0.9843 0.5063 0.9493
H171 H 0.9598 0.5806 0.9651
H172 H 0.9188 0.5254 0.9313
C164 C 0.9656(2) 0.8989(3) 0.85960(16)
H173 H 1.0070 0.9011 0.8662
H174 H 0.9506 0.9444 0.8426
C165 C 0.9509(3) 0.9033(3) 0.90181(17)
H175 H 0.9717 0.8643 0.9219
H176 H 0.9102 0.8942 0.8968
C166 C 0.9663(3) 0.9809(3) 0.92218(18)
H177 H 0.9567 0.9836 0.9499
H178 H 1.0067 0.9894 0.9274
H179 H 0.9454 1.0193 0.9023
C167 C 1.0615(2) 0.6990(3) 0.81708(17)
H180 H 1.0682 0.6625 0.8413
H181 H 1.0672 0.6721 0.7916
C168 C 1.1069(2) 0.7594(3) 0.8300(2)
H182 H 1.0945 0.8046 0.8120
H183 H 1.1124 0.7733 0.8609
C169 C 1.1613(2) 0.7322(3) 0.82394(18)
H184 H 1.1897 0.7717 0.8324
H185 H 1.1739 0.6880 0.8421
H186 H 1.1560 0.7192 0.7933
N13 N 0.7389(2) 0.8967(3) 0.79541(16)
O25 O 0.69421(19) 0.8800(3) 0.80054(18)
O26 O 0.74691(17) 0.9574(2) 0.77940(14)
N14 N 1.0105(2) 0.8684(4) 0.67280(17)
O27 O 1.01004(19) 0.9332(3) 0.65860(14)
O28 O 1.0277(2) 0.8117(3) 0.65826(15)
N15 N 0.8567(2) 0.4694(3) 0.74932(14)
O29 O 0.87726(19) 0.4143(2) 0.73753(13)
O30 O 0.80784(19) 0.4741(2) 0.75274(13)
C170 C 0.7408(2) 0.6901(3) 0.63977(15)
C171 C 0.7462(2) 0.8321(2) 0.63131(15)
C172 C 0.8090(2) 0.7466(3) 0.60084(15)
C173 C 0.7839(2) 0.7572(3) 0.64140(15)
C174 C 0.8296(2) 0.7623(3) 0.68486(15)
H187 H 0.8547 0.8043 0.6839
H188 H 0.8121 0.7702 0.7085
H189 H 0.8513 0.7157 0.6900
C175 C 0.6841(2) 0.7262(3) 0.63032(16)
C176 C 0.6864(2) 0.8029(3) 0.62377(15)
C177 C 0.6375(2) 0.8450(3) 0.61414(16)
H190 H 0.6385 0.8974 0.6093
C178 C 0.5873(2) 0.8088(3) 0.61172(17)
C179 C 0.5846(2) 0.7337(3) 0.61842(17)
H191 H 0.5495 0.7105 0.6167
C180 C 0.6330(2) 0.6918(3) 0.62768(18)
H192 H 0.6315 0.6394 0.6323
C181 C 0.7552(2) 0.8608(3) 0.58932(16)
C182 C 0.7888(2) 0.8150(3) 0.57271(15)
C183 C 0.8017(2) 0.8340(3) 0.53401(15)
H193 H 0.8247 0.8031 0.5219
C184 C 0.7789(2) 0.9002(3) 0.51441(16)
C185 C 0.7458(2) 0.9466(3) 0.53021(17)
H194 H 0.7313 0.9915 0.5154
C186 C 0.7337(2) 0.9267(3) 0.56847(17)
H195 H 0.7107 0.9581 0.5804
C187 C 0.7802(2) 0.6764(3) 0.57854(15)
C188 C 0.7441(2) 0.6450(3) 0.60025(15)
C189 C 0.7164(2) 0.5782(3) 0.58517(15)
H196 H 0.6925 0.5550 0.6000
C190 C 0.7249(2) 0.5469(3) 0.54779(16)
C191 C 0.7596(2) 0.5788(3) 0.52602(18)
H197 H 0.7643 0.5560 0.5004
C192 C 0.7876(2) 0.6437(3) 0.54145(16)
H198 H 0.8119 0.6660 0.5267
C193 C 0.7513(3) 0.6377(3) 0.67967(15)
H199 H 0.7266 0.5935 0.6714
H200 H 0.7906 0.6197 0.6867
C194 C 0.7417(3) 0.6718(4) 0.72095(18)
H201 H 0.7786 0.6855 0.7411
H202 H 0.7196 0.7184 0.7130
C195 C 0.7116(3) 0.6205(4) 0.7442(2)
H203 H 0.7069 0.6457 0.7702
H204 H 0.6747 0.6077 0.7248
H205 H 0.7337 0.5748 0.7529
C196 C 0.7560(2) 0.8938(3) 0.66700(16)
H206 H 0.7241 0.9293 0.6588
H207 H 0.7550 0.8698 0.6947
C197 C 0.8104(2) 0.9389(3) 0.67552(19)
H208 H 0.8412 0.9098 0.6952
H209 H 0.8198 0.9458 0.6476
C198 C 0.8072(3) 1.0142(3) 0.6955(2)
H210 H 0.8433 1.0401 0.7001
H211 H 0.7774 1.0439 0.6759
H212 H 0.7989 1.0078 0.7234
C199 C 0.8734(2) 0.7394(3) 0.60985(17)
H213 H 0.8826 0.7420 0.5817
H214 H 0.8912 0.7831 0.6273
C200 C 0.9002(3) 0.6684(3) 0.6335(2)
H215 H 0.9054 0.6751 0.6651
H216 H 0.8739 0.6261 0.6237
C201 C 0.9547(3) 0.6487(4) 0.6264(2)
H217 H 0.9691 0.6029 0.6425
H218 H 0.9499 0.6406 0.5953
H219 H 0.9815 0.6896 0.6368
N16 N 0.5360(2) 0.8544(3) 0.60349(17)
O31 O 0.49320(18) 0.8237(3) 0.60571(16)
O32 O 0.53799(19) 0.9196(3) 0.59431(19)
N17 N 0.7938(3) 0.9226(3) 0.47412(16)
O33 O 0.7716(2) 0.9809(2) 0.45630(13)
O34 O 0.8246(2) 0.8835(3) 0.46078(15)
N18 N 0.6972(2) 0.4745(3) 0.53279(16)
O35 O 0.70770(17) 0.4453(2) 0.50073(14)
O36 O 0.6656(2) 0.4478(2) 0.55123(14)
C33? C 1.3566(12) 0.8962(14) 1.2625(9)
H34? H 1.3257 0.9327 1.2519
H35? H 1.3516 0.8751 1.2898
C34? C 1.4094(8) 0.9423(10) 1.2761(7)
H36? H 1.4231 0.9504 1.2502
H37? H 1.4383 0.9126 1.2972
C35? C 1.4049(10) 1.0176(10) 1.2963(7)
H38? H 1.4416 1.0423 1.3039
H39? H 1.3774 1.0486 1.2755
H40? H 1.3927 1.0106 1.3227
C36? C 1.4659(5) 0.7259(13) 1.2128(9)
H41? H 1.4741 0.7223 1.1843
H42? H 1.4810 0.7746 1.2256
C37? C 1.4995(8) 0.6659(11) 1.2414(6)
H43? H 1.4748 0.6227 1.2418
H44? H 1.5133 0.6853 1.2715
C38? C 1.5490(9) 0.6399(13) 1.2264(8)
H45? H 1.5694 0.6009 1.2461
H46? H 1.5356 0.6196 1.1969
H47? H 1.5742 0.6823 1.2265
C39? C 1.3380(14) 0.6434(13) 1.2839(6)
H48? H 1.3125 0.5997 1.2767
H49? H 1.3770 0.6242 1.2913
C40? C 1.3291(11) 0.6807(12) 1.3235(6)
H50? H 1.3647 0.7040 1.3407
H51? H 1.3005 0.7206 1.3146
C41? C 1.3101(12) 0.6239(14) 1.3507(8)
H52? H 1.3043 0.6483 1.3766
H53? H 1.2747 0.6014 1.3337
H54? H 1.3387 0.5849 1.3597
C42? C 1.5262(6) 0.6955(8) 1.4478(5)
C43? C 1.5462(6) 0.8301(8) 1.4295(5)
C44? C 1.5985(6) 0.7220(8) 1.4074(5)
C45? C 1.5757(6) 0.7516(8) 1.4462(5)
C46? C 1.6194(9) 0.7579(17) 1.4903(6)
H55? H 1.6015 0.7765 1.5120
H56? H 1.6358 0.7085 1.4993
H57? H 1.6491 0.7926 1.4881
C47? C 1.4745(6) 0.7453(9) 1.4361(7)
C48? C 1.4843(6) 0.8174(9) 1.4240(8)
C49? C 1.4413(6) 0.8686(10) 1.4084(7)
H58? H 1.4477 0.9162 1.3975
C50? C 1.3886(7) 0.8459(10) 1.4099(8)
C51? C 1.3773(9) 0.7747(12) 1.4216(14)
H59? H 1.3398 0.7610 1.4201
C52? C 1.4203(7) 0.7230(10) 1.4354(7)
H60? H 1.4130 0.6741 1.4442
C53? C 1.5565(9) 0.8409(9) 1.3853(5)
C54? C 1.5886(8) 0.7844(9) 1.3748(5)
C55? C 1.6038(9) 0.7836(10) 1.3361(5)
H61? H 1.6207 0.7414 1.3269
C56? C 1.5925(9) 0.8481(10) 1.3122(5)
C57? C 1.5561(16) 0.9012(16) 1.3196(8)
H62? H 1.5396 0.9365 1.2975
C58? C 1.5433(9) 0.9034(10) 1.3592(6)
H63? H 1.5263 0.9460 1.3679
C59? C 1.5612(8) 0.6557(10) 1.3888(6)
C60? C 1.5212(8) 0.6409(9) 1.4111(6)
C61? C 1.4816(8) 0.5840(9) 1.3981(6)
H64? H 1.4529 0.5767 1.4122
C62? C 1.4852(8) 0.5384(9) 1.3641(6)
C63? C 1.5242(17) 0.553(2) 1.3416(13)
H65? H 1.5234 0.5243 1.3164
C64? C 1.5644(8) 0.6080(10) 1.3552(6)
H66? H 1.5939 0.6132 1.3417
C65? C 1.5302(10) 0.6547(11) 1.4914(6)
H67? H 1.5370 0.6933 1.5145
H68? H 1.4927 0.6329 1.4891
C66? C 1.5732(10) 0.5931(13) 1.5075(8)
H69? H 1.5744 0.5605 1.4828
H70? H 1.6108 0.6158 1.5192
C67? C 1.5597(12) 0.5466(12) 1.5422(8)
H71? H 1.5883 0.5076 1.5517
H72? H 1.5592 0.5784 1.5670
H73? H 1.5228 0.5232 1.5306
C68? C 1.5666(10) 0.9003(10) 1.4579(6)
H74? H 1.6078 0.9032 1.4633
H75? H 1.5505 0.9446 1.4402
C69? C 1.5543(13) 0.9083(13) 1.5013(7)
H76? H 1.5764 0.8708 1.5218
H77? H 1.5140 0.8982 1.4976
C70? C 1.5685(12) 0.9854(13) 1.5200(9)
H78? H 1.5600 0.9887 1.5481
H79? H 1.6086 0.9952 1.5242
H80? H 1.5462 1.0226 1.5000
C71? C 1.6607(6) 0.6960(10) 1.4179(7)
H81? H 1.6669 0.6567 1.4406
H82? H 1.6663 0.6724 1.3914
C72? C 1.7058(8) 0.7553(12) 1.4332(8)
H83? H 1.6936 0.8021 1.4168
H84? H 1.7107 0.7658 1.4645
C73? C 1.7607(8) 0.7307(13) 1.4269(9)
H85? H 1.7888 0.7700 1.4371
H86? H 1.7731 0.6847 1.4435
H87? H 1.7561 0.7211 1.3959
N4? N 1.3427(7) 0.9004(11) 1.3987(9)
O7? O 1.2966(7) 0.8798(12) 1.3998(8)
O8? O 1.3486(7) 0.9583(9) 1.3808(6)
N5? N 1.6086(9) 0.8539(10) 1.2718(5)
O9? O 1.5980(15) 0.9110(13) 1.2507(8)
O10? O 1.6261(9) 0.7972(10) 1.2593(6)
N6? N 1.4480(6) 0.4740(8) 1.3517(5)
O11? O 1.4641(10) 0.4164(11) 1.3385(9)
O12? O 1.4001(6) 0.4796(9) 1.3544(5)
loop_
_geom_bond_atom_site_label_1
_geom_bond_atom_site_label_2
_geom_bond_site_symmetry_1
_geom_bond_site_symmetry_2
C1 C4 1_555 1_555
C2 C4 1_555 1_555
C3 C4 1_555 1_555
C4 C5 1_555 1_555
C5 H1 1_555 1_555
H2 C5 1_555 1_555
H3 C5 1_555 1_555
C6 C1 1_555 1_555
C7 C2 1_555 1_555
C8 C7 1_555 1_555
H4 C8 1_555 1_555
C9 C8 1_555 1_555
C10 C9 1_555 1_555
H5 C10 1_555 1_555
C11 C6 1_555 1_555
H6 C11 1_555 1_555
C12 C2 1_555 1_555
C13 C3 1_555 1_555
C14 C13 1_555 1_555
H7 C14 1_555 1_555
C15 C14 1_555 1_555
C16 C15 1_555 1_555
H8 C16 1_555 1_555
C17 C12 1_555 1_555
H9 C17 1_555 1_555
C18 C3 1_555 1_555
C19 C1 1_555 1_555
C20 C19 1_555 1_555
H10 C20 1_555 1_555
C21 C20 1_555 1_555
C22 C21 1_555 1_555
H11 C22 1_555 1_555
C23 C18 1_555 1_555
H12 C23 1_555 1_555
C24 C1 1_555 1_555
H13 C24 1_555 1_555
H14 C24 1_555 1_555
C25 C24 1_555 1_555
H15 C25 1_555 1_555
H16 C25 1_555 1_555
C26 C25 1_555 1_555
H17 C26 1_555 1_555
H18 C26 1_555 1_555
H19 C26 1_555 1_555
C27 C2 1_555 1_555
H20 C27 1_555 1_555
H21 C27 1_555 1_555
C28 C27 1_555 1_555
H22 C28 1_555 1_555
H23 C28 1_555 1_555
C29 C28 1_555 1_555
H24 C29 1_555 1_555
H25 C29 1_555 1_555
H26 C29 1_555 1_555
C30 C3 1_555 1_555
H27 C30 1_555 1_555
H28 C30 1_555 1_555
C31 C30 1_555 1_555
H29 C31 1_555 1_555
H30 C31 1_555 1_555
C32 C31 1_555 1_555
H31 C32 1_555 1_555
H32 C32 1_555 1_555
H33 C32 1_555 1_555
N1 C9 1_555 1_555
O1 N1 1_555 1_555
O2 N1 1_555 1_555
N2 C15 1_555 1_555
O3 N2 1_555 1_555
O4 N2 1_555 1_555
N3 C21 1_555 1_555
O5 N3 1_555 1_555
O6 N3 1_555 1_555
C74 C77 1_555 1_555
C75 C77 1_555 1_555
C76 C77 1_555 1_555
C77 C78 1_555 1_555
C78 H88 1_555 1_555
H89 C78 1_555 1_555
H90 C78 1_555 1_555
C79 C74 1_555 1_555
C80 C75 1_555 1_555
C81 C80 1_555 1_555
H91 C81 1_555 1_555
C82 C81 1_555 1_555
C83 C82 1_555 1_555
H92 C83 1_555 1_555
C84 C79 1_555 1_555
H93 C84 1_555 1_555
C85 C75 1_555 1_555
C86 C76 1_555 1_555
C87 C86 1_555 1_555
H94 C87 1_555 1_555
C88 C87 1_555 1_555
C89 C88 1_555 1_555
H95 C89 1_555 1_555
C90 C85 1_555 1_555
H96 C90 1_555 1_555
C91 C76 1_555 1_555
C92 C74 1_555 1_555
C93 C92 1_555 1_555
H97 C93 1_555 1_555
C94 C93 1_555 1_555
C95 C94 1_555 1_555
H98 C95 1_555 1_555
C96 C91 1_555 1_555
H99 C96 1_555 1_555
C97 C74 1_555 1_555
H100 C97 1_555 1_555
H101 C97 1_555 1_555
C98 C97 1_555 1_555
H102 C98 1_555 1_555
H103 C98 1_555 1_555
C99 C98 1_555 1_555
H104 C99 1_555 1_555
H105 C99 1_555 1_555
H106 C99 1_555 1_555
C100 C75 1_555 1_555
H107 C100 1_555 1_555
H108 C100 1_555 1_555
C101 C100 1_555 1_555
H109 C101 1_555 1_555
H110 C101 1_555 1_555
C102 C101 1_555 1_555
H111 C102 1_555 1_555
H112 C102 1_555 1_555
H113 C102 1_555 1_555
C103 C76 1_555 1_555
H114 C103 1_555 1_555
H115 C103 1_555 1_555
C104 C103 1_555 1_555
H116 C104 1_555 1_555
H117 C104 1_555 1_555
C105 C104 1_555 1_555
H118 C105 1_555 1_555
H119 C105 1_555 1_555
H120 C105 1_555 1_555
N7 C82 1_555 1_555
O13 N7 1_555 1_555
O14 N7 1_555 1_555
N8 C88 1_555 1_555
O15 N8 1_555 1_555
O16 N8 1_555 1_555
N9 C94 1_555 1_555
O17 N9 1_555 1_555
O18 N9 1_555 1_555
C106 C109 1_555 1_555
C107 C109 1_555 1_555
C108 C109 1_555 1_555
C109 C110 1_555 1_555
C110 H121 1_555 1_555
H122 C110 1_555 1_555
H123 C110 1_555 1_555
C111 C106 1_555 1_555
C112 C107 1_555 1_555
C113 C112 1_555 1_555
H124 C113 1_555 1_555
C114 C113 1_555 1_555
C115 C114 1_555 1_555
H125 C115 1_555 1_555
C116 C111 1_555 1_555
H126 C116 1_555 1_555
C117 C107 1_555 1_555
C118 C108 1_555 1_555
C119 C118 1_555 1_555
H127 C119 1_555 1_555
C120 C119 1_555 1_555
C121 C120 1_555 1_555
H128 C121 1_555 1_555
C122 C117 1_555 1_555
H129 C122 1_555 1_555
C123 C108 1_555 1_555
C124 C106 1_555 1_555
C125 C124 1_555 1_555
H130 C125 1_555 1_555
C126 C125 1_555 1_555
C127 C126 1_555 1_555
H131 C127 1_555 1_555
C128 C123 1_555 1_555
H132 C128 1_555 1_555
C129 C106 1_555 1_555
H133 C129 1_555 1_555
H134 C129 1_555 1_555
C130 C129 1_555 1_555
H135 C130 1_555 1_555
H136 C130 1_555 1_555
C131 C130 1_555 1_555
H137 C131 1_555 1_555
H138 C131 1_555 1_555
H139 C131 1_555 1_555
C132 C107 1_555 1_555
H140 C132 1_555 1_555
H141 C132 1_555 1_555
C133 C132 1_555 1_555
H142 C133 1_555 1_555
H143 C133 1_555 1_555
C134 C133 1_555 1_555
H144 C134 1_555 1_555
H145 C134 1_555 1_555
H146 C134 1_555 1_555
C135 C108 1_555 1_555
H147 C135 1_555 1_555
H148 C135 1_555 1_555
C136 C135 1_555 1_555
H149 C136 1_555 1_555
H150 C136 1_555 1_555
C137 C136 1_555 1_555
H151 C137 1_555 1_555
H152 C137 1_555 1_555
H153 C137 1_555 1_555
N10 C114 1_555 1_555
O19 N10 1_555 1_555
O20 N10 1_555 1_555
N11 C120 1_555 1_555
O21 N11 1_555 1_555
O22 N11 1_555 1_555
N12 C126 1_555 1_555
O23 N12 1_555 1_555
O24 N12 1_555 1_555
C138 C141 1_555 1_555
C139 C141 1_555 1_555
C140 C141 1_555 1_555
C141 C142 1_555 1_555
C142 H154 1_555 1_555
H155 C142 1_555 1_555
H156 C142 1_555 1_555
C143 C138 1_555 1_555
C144 C139 1_555 1_555
C145 C144 1_555 1_555
H157 C145 1_555 1_555
C146 C145 1_555 1_555
C147 C146 1_555 1_555
H158 C147 1_555 1_555
C148 C143 1_555 1_555
H159 C148 1_555 1_555
C149 C139 1_555 1_555
C150 C140 1_555 1_555
C151 C150 1_555 1_555
H160 C151 1_555 1_555
C152 C151 1_555 1_555
C153 C152 1_555 1_555
H161 C153 1_555 1_555
C154 C149 1_555 1_555
H162 C154 1_555 1_555
C155 C140 1_555 1_555
C156 C138 1_555 1_555
C157 C156 1_555 1_555
H163 C157 1_555 1_555
C158 C157 1_555 1_555
C159 C158 1_555 1_555
H164 C159 1_555 1_555
C160 C155 1_555 1_555
H165 C160 1_555 1_555
C161 C138 1_555 1_555
H166 C161 1_555 1_555
H167 C161 1_555 1_555
C162 C161 1_555 1_555
H168 C162 1_555 1_555
H169 C162 1_555 1_555
C163 C162 1_555 1_555
H170 C163 1_555 1_555
H171 C163 1_555 1_555
H172 C163 1_555 1_555
C164 C139 1_555 1_555
H173 C164 1_555 1_555
H174 C164 1_555 1_555
C165 C164 1_555 1_555
H175 C165 1_555 1_555
H176 C165 1_555 1_555
C166 C165 1_555 1_555
H177 C166 1_555 1_555
H178 C166 1_555 1_555
H179 C166 1_555 1_555
C167 C140 1_555 1_555
H180 C167 1_555 1_555
H181 C167 1_555 1_555
C168 C167 1_555 1_555
H182 C168 1_555 1_555
H183 C168 1_555 1_555
C169 C168 1_555 1_555
H184 C169 1_555 1_555
H185 C169 1_555 1_555
H186 C169 1_555 1_555
N13 C146 1_555 1_555
O25 N13 1_555 1_555
O26 N13 1_555 1_555
N14 C152 1_555 1_555
O27 N14 1_555 1_555
O28 N14 1_555 1_555
N15 C158 1_555 1_555
O29 N15 1_555 1_555
O30 N15 1_555 1_555
C170 C173 1_555 1_555
C171 C173 1_555 1_555
C172 C173 1_555 1_555
C173 C174 1_555 1_555
C174 H187 1_555 1_555
H188 C174 1_555 1_555
H189 C174 1_555 1_555
C175 C170 1_555 1_555
C176 C171 1_555 1_555
C177 C176 1_555 1_555
H190 C177 1_555 1_555
C178 C177 1_555 1_555
C179 C178 1_555 1_555
H191 C179 1_555 1_555
C180 C175 1_555 1_555
H192 C180 1_555 1_555
C181 C171 1_555 1_555
C182 C172 1_555 1_555
C183 C182 1_555 1_555
H193 C183 1_555 1_555
C184 C183 1_555 1_555
C185 C184 1_555 1_555
H194 C185 1_555 1_555
C186 C181 1_555 1_555
H195 C186 1_555 1_555
C187 C172 1_555 1_555
C188 C170 1_555 1_555
C189 C188 1_555 1_555
H196 C189 1_555 1_555
C190 C189 1_555 1_555
C191 C190 1_555 1_555
H197 C191 1_555 1_555
C192 C187 1_555 1_555
H198 C192 1_555 1_555
C193 C170 1_555 1_555
H199 C193 1_555 1_555
H200 C193 1_555 1_555
C194 C193 1_555 1_555
H201 C194 1_555 1_555
H202 C194 1_555 1_555
C195 C194 1_555 1_555
H203 C195 1_555 1_555
H204 C195 1_555 1_555
H205 C195 1_555 1_555
C196 C171 1_555 1_555
H206 C196 1_555 1_555
H207 C196 1_555 1_555
C197 C196 1_555 1_555
H208 C197 1_555 1_555
H209 C197 1_555 1_555
C198 C197 1_555 1_555
H210 C198 1_555 1_555
H211 C198 1_555 1_555
H212 C198 1_555 1_555
C199 C172 1_555 1_555
H213 C199 1_555 1_555
H214 C199 1_555 1_555
C200 C199 1_555 1_555
H215 C200 1_555 1_555
H216 C200 1_555 1_555
C201 C200 1_555 1_555
H217 C201 1_555 1_555
H218 C201 1_555 1_555
H219 C201 1_555 1_555
N16 C178 1_555 1_555
O31 N16 1_555 1_555
O32 N16 1_555 1_555
N17 C184 1_555 1_555
O33 N17 1_555 1_555
O34 N17 1_555 1_555
N18 C190 1_555 1_555
O35 N18 1_555 1_555
O36 N18 1_555 1_555
C6 C7 1_555 1_555
C10 C11 1_555 1_555
C12 C13 1_555 1_555
C16 C17 1_555 1_555
C18 C19 1_555 1_555
C22 C23 1_555 1_555
C79 C80 1_555 1_555
C83 C84 1_555 1_555
C85 C86 1_555 1_555
C89 C90 1_555 1_555
C91 C92 1_555 1_555
C95 C96 1_555 1_555
C111 C112 1_555 1_555
C115 C116 1_555 1_555
C117 C118 1_555 1_555
C121 C122 1_555 1_555
C123 C124 1_555 1_555
C127 C128 1_555 1_555
C143 C144 1_555 1_555
C147 C148 1_555 1_555
C149 C150 1_555 1_555
C153 C154 1_555 1_555
C155 C156 1_555 1_555
C159 C160 1_555 1_555
C175 C176 1_555 1_555
C179 C180 1_555 1_555
C181 C182 1_555 1_555
C185 C186 1_555 1_555
C187 C188 1_555 1_555
C191 C192 1_555 1_555

#END
