
#######################################################################
#
#                 Cambridge Crystallographic Data Centre
#                                CCDC 
#
#######################################################################
#
# If this CIF has been generated from an entry in the Cambridge 
# Structural Database, then it will include bibliographic, chemical, 
# crystal, experimental, refinement or atomic coordinate data resulting 
# from the CCDC's data processing and validation procedures.
#
#######################################################################

data_EWINAB
_chemical_formula_moiety         'C62 H75 N3 O9,2(C1 H4 O1)'
_chemical_name_systematic        
'4,7,7-trimethyl-N-(12d-methyl-4b,8b,12b-tripropyl-6,10-bis(((4,7,7-trimethyl-3-oxo-2-oxabicyclo[2.2.1]heptan-1-yl)carbonyl)amino)-4b,8b,12b,12d-tetrahydrodibenzo[2,3:4,5]pentaleno[1,6-ab]inden-2-yl)-3-oxo-2-oxabicyclo[2.2.1]heptane-1-carboxamide methanol solvate'
_symmetry_cell_setting           orthorhombic
_symmetry_space_group_name_H-M   'P 21 21 21'
_symmetry_Int_Tables_number      19
_space_group_name_Hall           'P 2ac 2ab'
loop_
_symmetry_equiv_pos_site_id
_symmetry_equiv_pos_as_xyz
1 x,y,z
2 1/2-x,-y,1/2+z
3 -x,1/2+y,1/2-z
4 1/2+x,1/2-y,-z
_cell_length_a                   13.7849(10)
_cell_length_b                   14.4892(10)
_cell_length_c                   28.705(2)
_cell_angle_alpha                90
_cell_angle_beta                 90
_cell_angle_gamma                90
_cell_volume                     5733.31
_exptl_crystal_colour            colorless
_exptl_crystal_description       polyhedron
_cell_formula_units_Z            4
loop_
_atom_site_label
_atom_site_type_symbol
_atom_site_fract_x
_atom_site_fract_y
_atom_site_fract_z
C1 C 0.5100(6) 0.6601(5) 0.5545(3)
C2 C 0.6943(6) 0.6587(6) 0.5537(3)
C3 C 0.6013(7) 0.6737(5) 0.4777(3)
C4 C 0.6027(6) 0.7065(6) 0.5308(3)
C5 C 0.6053(8) 0.8121(6) 0.5354(3)
H1 H 0.6590 0.8368 0.5169
H2 H 0.6144 0.8289 0.5682
H3 H 0.5440 0.8381 0.5241
C6 C 0.5514(7) 0.5898(6) 0.5882(3)
C7 C 0.6528(7) 0.5879(6) 0.5868(3)
C8 C 0.7047(6) 0.5257(6) 0.6142(3)
H4 H 0.7736 0.5244 0.6130
C9 C 0.6551(7) 0.4662(6) 0.6433(3)
C10 C 0.5550(7) 0.4679(6) 0.6451(3)
H5 H 0.5213 0.4269 0.6653
C11 C 0.5029(7) 0.5305(6) 0.6171(3)
H6 H 0.4340 0.5315 0.6182
C12 C 0.7450(7) 0.6110(6) 0.5133(3)
C13 C 0.6935(7) 0.6166(6) 0.4721(3)
C14 C 0.7267(7) 0.5737(6) 0.4317(3)
H7 H 0.6902 0.5775 0.4037
C15 C 0.8131(7) 0.5255(6) 0.4327(3)
C16 C 0.8663(7) 0.5211(6) 0.4740(3)
H8 H 0.9267 0.4897 0.4745
C17 C 0.8313(7) 0.5623(6) 0.5145(3)
H9 H 0.8667 0.5570 0.5428
C18 C 0.5113(6) 0.6147(6) 0.4735(3)
C19 C 0.4602(7) 0.6105(6) 0.5145(3)
C20 C 0.3739(7) 0.5611(5) 0.5179(3)
H10 H 0.3392 0.5597 0.5465
C21 C 0.3390(7) 0.5146(6) 0.4799(3)
C22 C 0.3898(7) 0.5168(6) 0.4378(3)
H11 H 0.3661 0.4843 0.4114
C23 C 0.4764(7) 0.5676(6) 0.4351(3)
H12 H 0.5113 0.5697 0.4066
C24 C 0.4343(7) 0.7228(6) 0.5793(3)
H13 H 0.4173 0.7734 0.5576
H14 H 0.3748 0.6858 0.5841
C25 C 0.4612(8) 0.7667(7) 0.6261(3)
H15 H 0.5119 0.7290 0.6414
H16 H 0.4882 0.8291 0.6207
C26 C 0.3752(8) 0.7739(9) 0.6576(3)
H17 H 0.3933 0.8079 0.6859
H18 H 0.3532 0.7118 0.6662
H19 H 0.3228 0.8066 0.6416
C27 C 0.7696(7) 0.7199(6) 0.5805(3)
H20 H 0.8299 0.6836 0.5843
H21 H 0.7854 0.7737 0.5606
C28 C 0.7403(7) 0.7559(7) 0.6281(3)
H22 H 0.6948 0.8082 0.6244
H23 H 0.7064 0.7065 0.6456
C29 C 0.8282(7) 0.7875(7) 0.6557(3)
H24 H 0.8072 0.8121 0.6858
H25 H 0.8623 0.8358 0.6382
H26 H 0.8719 0.7351 0.6607
C30 C 0.6179(14) 0.7516(14) 0.4395(8)
H27 H 0.6668 0.7961 0.4510
H28 H 0.6434 0.7230 0.4107
C31 C 0.5244(12) 0.8023(11) 0.4286(6)
H29 H 0.4817 0.7615 0.4100
H30 H 0.4904 0.8168 0.4581
C32 C 0.5420(16) 0.8906(12) 0.4020(8)
H31 H 0.4818 0.9265 0.4007
H32 H 0.5632 0.8759 0.3703
H33 H 0.5923 0.9267 0.4178
C33 C 0.8302(7) 0.3275(6) 0.7182(3)
C34 C 0.8759(8) 0.3548(7) 0.7648(3)
H34 H 0.8264 0.3771 0.7872
H35 H 0.9263 0.4029 0.7607
C35 C 0.9206(8) 0.2618(7) 0.7807(3)
H36 H 0.8911 0.2405 0.8102
H37 H 0.9916 0.2674 0.7850
C36 C 0.8961(7) 0.1946(7) 0.7400(3)
C37 C 0.7884(8) 0.1865(8) 0.7421(4)
O1 O 0.7365(6) 0.1235(6) 0.7538(3)
O2 O 0.7482(4) 0.2694(4) 0.7307(2)
C38 C 0.9522(9) 0.1043(8) 0.7406(5)
H38 H 0.9314 0.0656 0.7145
H39 H 0.9396 0.0719 0.7700
H40 H 1.0217 0.1171 0.7379
C39 C 0.9036(8) 0.2599(7) 0.6975(3)
C40 C 1.0029(8) 0.2985(10) 0.6876(5)
H41 H 1.0454 0.2490 0.6764
H42 H 1.0300 0.3251 0.7162
H43 H 0.9979 0.3466 0.6637
C41 C 0.8624(10) 0.2168(9) 0.6527(4)
H44 H 0.9036 0.1652 0.6430
H45 H 0.8608 0.2634 0.6280
H46 H 0.7964 0.1943 0.6587
C42 C 0.7956(7) 0.4059(7) 0.6880(3)
O3 O 0.8509(6) 0.4693(6) 0.6792(3)
N1 N 0.7031(5) 0.4004(5) 0.6722(3)
H47 H 0.6694 0.3516 0.6806
C43 C 0.8795(7) 0.4204(6) 0.3161(3)
C44 C 0.9165(8) 0.4657(6) 0.2716(3)
H48 H 0.9704 0.5090 0.2782
H49 H 0.8641 0.4989 0.2551
C45 C 0.9519(8) 0.3810(6) 0.2435(3)
H50 H 1.0227 0.3840 0.2381
H51 H 0.9183 0.3771 0.2131
C46 C 0.9253(7) 0.2971(6) 0.2750(3)
C47 C 0.9943(8) 0.3082(7) 0.3147(3)
O4 O 1.0635(5) 0.2638(5) 0.3267(2)
O5 O 0.9677(4) 0.3853(4) 0.3392(2)
C48 C 0.9259(8) 0.2034(7) 0.2516(3)
H52 H 0.9042 0.1564 0.2738
H53 H 0.9918 0.1889 0.2412
H54 H 0.8821 0.2043 0.2247
C49 C 0.8309(7) 0.3307(6) 0.2989(3)
C50 C 0.7460(8) 0.3469(8) 0.2659(4)
H55 H 0.7231 0.2875 0.2538
H56 H 0.7671 0.3860 0.2399
H57 H 0.6932 0.3776 0.2827
C51 C 0.7987(8) 0.2681(7) 0.3395(3)
H58 H 0.7779 0.2082 0.3272
H59 H 0.7447 0.2972 0.3561
H60 H 0.8532 0.2591 0.3610
C52 C 0.8229(8) 0.4786(7) 0.3495(3)
O6 O 0.7519(6) 0.5207(5) 0.3346(2)
N2 N 0.8532(6) 0.4784(5) 0.3941(2)
H61 H 0.9048 0.4446 0.4000
C53 C 0.1404(7) 0.3480(6) 0.5131(3)
C54 C 0.0752(8) 0.3375(7) 0.5555(3)
H62 H 0.0364 0.3939 0.5611
H63 H 0.1131 0.3226 0.5838
C55 C 0.0102(8) 0.2556(7) 0.5406(3)
H64 H -0.0586 0.2747 0.5384
H65 H 0.0156 0.2039 0.5630
C56 C 0.0502(7) 0.2274(6) 0.4922(3)
C57 C 0.0224(7) 0.3077(6) 0.4625(3)
O7 O -0.0398(5) 0.3167(4) 0.4333(2)
O8 O 0.0773(5) 0.3823(4) 0.4760(2)
C58 C 0.0182(8) 0.1353(6) 0.4731(3)
H66 H 0.0515 0.1234 0.4435
H67 H -0.0521 0.1361 0.4679
H68 H 0.0344 0.0865 0.4954
C59 C 0.1597(7) 0.2475(6) 0.4976(3)
C60 C 0.2102(8) 0.1877(7) 0.5334(4)
H69 H 0.2138 0.1241 0.5219
H70 H 0.1737 0.1891 0.5627
H71 H 0.2760 0.2112 0.5388
C61 C 0.2147(8) 0.2413(7) 0.4513(3)
H72 H 0.2256 0.1764 0.4433
H73 H 0.2773 0.2729 0.4542
H74 H 0.1764 0.2708 0.4266
C62 C 0.2269(8) 0.4089(6) 0.5191(3)
O9 O 0.2714(5) 0.4058(4) 0.5560(2)
N3 N 0.2539(6) 0.4602(5) 0.4821(3)
H75 H 0.2157 0.4598 0.4576
C66 C 0.777(2) -0.0266(19) 0.8356(9)
H83 H 0.7585 -0.0761 0.8571
H84 H 0.7419 0.0299 0.8437
H85 H 0.8470 -0.0155 0.8380
O10 O 0.7534(19) -0.0531(11) 0.7890(7)
C67 C 0.1711(10) 0.4992(9) 0.3462(4)
H86 H 0.1536 0.4589 0.3201
H87 H 0.2391 0.5181 0.3431
H88 H 0.1295 0.5541 0.3459
O11 O 0.1592(7) 0.4549(8) 0.3853(3)
C63? C 0.5762(18) 0.7516(18) 0.4404(10)
H76? H 0.5533 0.7228 0.4111
H77? H 0.5241 0.7920 0.4525
C64? C 0.6660(13) 0.8073(12) 0.4313(6)
H78? H 0.6987 0.8205 0.4613
H79? H 0.7111 0.7708 0.4118
C65? C 0.6436(18) 0.8955(14) 0.4074(9)
H80? H 0.7029 0.9324 0.4047
H81? H 0.5952 0.9298 0.4255
H82? H 0.6178 0.8826 0.3762
loop_
_geom_bond_atom_site_label_1
_geom_bond_atom_site_label_2
_geom_bond_site_symmetry_1
_geom_bond_site_symmetry_2
C1 C4 1_555 1_555
C2 C4 1_555 1_555
C3 C4 1_555 1_555
C4 C5 1_555 1_555
C5 H1 1_555 1_555
H2 C5 1_555 1_555
H3 C5 1_555 1_555
C6 C1 1_555 1_555
C7 C2 1_555 1_555
C8 C7 1_555 1_555
H4 C8 1_555 1_555
C9 C8 1_555 1_555
C10 C9 1_555 1_555
H5 C10 1_555 1_555
C11 C6 1_555 1_555
H6 C11 1_555 1_555
C12 C2 1_555 1_555
C13 C3 1_555 1_555
C14 C13 1_555 1_555
H7 C14 1_555 1_555
C15 C14 1_555 1_555
C16 C15 1_555 1_555
H8 C16 1_555 1_555
C17 C12 1_555 1_555
H9 C17 1_555 1_555
C18 C3 1_555 1_555
C19 C1 1_555 1_555
C20 C19 1_555 1_555
H10 C20 1_555 1_555
C21 C20 1_555 1_555
C22 C21 1_555 1_555
H11 C22 1_555 1_555
C23 C18 1_555 1_555
H12 C23 1_555 1_555
C24 C1 1_555 1_555
H13 C24 1_555 1_555
H14 C24 1_555 1_555
C25 C24 1_555 1_555
H15 C25 1_555 1_555
H16 C25 1_555 1_555
C26 C25 1_555 1_555
H17 C26 1_555 1_555
H18 C26 1_555 1_555
H19 C26 1_555 1_555
C27 C2 1_555 1_555
H20 C27 1_555 1_555
H21 C27 1_555 1_555
C28 C27 1_555 1_555
H22 C28 1_555 1_555
H23 C28 1_555 1_555
C29 C28 1_555 1_555
H24 C29 1_555 1_555
H25 C29 1_555 1_555
H26 C29 1_555 1_555
C30 C3 1_555 1_555
H27 C30 1_555 1_555
H28 C30 1_555 1_555
C31 C30 1_555 1_555
H29 C31 1_555 1_555
H30 C31 1_555 1_555
C32 C31 1_555 1_555
H31 C32 1_555 1_555
H32 C32 1_555 1_555
H33 C32 1_555 1_555
C33 C34 1_555 1_555
C34 H34 1_555 1_555
H35 C34 1_555 1_555
C35 C34 1_555 1_555
H36 C35 1_555 1_555
H37 C35 1_555 1_555
C36 C35 1_555 1_555
C37 C36 1_555 1_555
O1 C37 1_555 1_555
O2 C33 1_555 1_555
C38 C36 1_555 1_555
H38 C38 1_555 1_555
H39 C38 1_555 1_555
H40 C38 1_555 1_555
C39 C33 1_555 1_555
C40 C39 1_555 1_555
H41 C40 1_555 1_555
H42 C40 1_555 1_555
H43 C40 1_555 1_555
C41 C39 1_555 1_555
H44 C41 1_555 1_555
H45 C41 1_555 1_555
H46 C41 1_555 1_555
C42 C33 1_555 1_555
O3 C42 1_555 1_555
N1 C9 1_555 1_555
H47 N1 1_555 1_555
C43 C44 1_555 1_555
C44 H48 1_555 1_555
H49 C44 1_555 1_555
C45 C44 1_555 1_555
H50 C45 1_555 1_555
H51 C45 1_555 1_555
C46 C45 1_555 1_555
C47 C46 1_555 1_555
O4 C47 1_555 1_555
O5 C43 1_555 1_555
C48 C46 1_555 1_555
H52 C48 1_555 1_555
H53 C48 1_555 1_555
H54 C48 1_555 1_555
C49 C43 1_555 1_555
C50 C49 1_555 1_555
H55 C50 1_555 1_555
H56 C50 1_555 1_555
H57 C50 1_555 1_555
C51 C49 1_555 1_555
H58 C51 1_555 1_555
H59 C51 1_555 1_555
H60 C51 1_555 1_555
C52 C43 1_555 1_555
O6 C52 1_555 1_555
N2 C15 1_555 1_555
H61 N2 1_555 1_555
C53 C54 1_555 1_555
C54 H62 1_555 1_555
H63 C54 1_555 1_555
C55 C54 1_555 1_555
H64 C55 1_555 1_555
H65 C55 1_555 1_555
C56 C55 1_555 1_555
C57 C56 1_555 1_555
O7 C57 1_555 1_555
O8 C53 1_555 1_555
C58 C56 1_555 1_555
H66 C58 1_555 1_555
H67 C58 1_555 1_555
H68 C58 1_555 1_555
C59 C53 1_555 1_555
C60 C59 1_555 1_555
H69 C60 1_555 1_555
H70 C60 1_555 1_555
H71 C60 1_555 1_555
C61 C59 1_555 1_555
H72 C61 1_555 1_555
H73 C61 1_555 1_555
H74 C61 1_555 1_555
C62 C53 1_555 1_555
O9 C62 1_555 1_555
N3 C21 1_555 1_555
H75 N3 1_555 1_555
C66 H83 1_555 1_555
H84 C66 1_555 1_555
H85 C66 1_555 1_555
O10 C66 1_555 1_555
C67 H86 1_555 1_555
H87 C67 1_555 1_555
H88 C67 1_555 1_555
O11 C67 1_555 1_555
C6 C7 1_555 1_555
C10 C11 1_555 1_555
C12 C13 1_555 1_555
C16 C17 1_555 1_555
C18 C19 1_555 1_555
C22 C23 1_555 1_555
C36 C39 1_555 1_555
C37 O2 1_555 1_555
C42 N1 1_555 1_555
C46 C49 1_555 1_555
C47 O5 1_555 1_555
C52 N2 1_555 1_555
C56 C59 1_555 1_555
C57 O8 1_555 1_555
C62 N3 1_555 1_555

#END
