
#######################################################################
#
#                 Cambridge Crystallographic Data Centre
#                                CCDC 
#
#######################################################################
#
# If this CIF has been generated from an entry in the Cambridge 
# Structural Database, then it will include bibliographic, chemical, 
# crystal, experimental, refinement or atomic coordinate data resulting 
# from the CCDC's data processing and validation procedures.
#
#######################################################################

data_EWINEF
_chemical_formula_moiety         'C32 H33 I3'
_chemical_name_systematic        
2,6,10-triiodo-12d-methyl-4b,8b,12b-tripropyl-4b,8b,12b,12d-tetrahydrodibenzo[2,3:4,5]pentaleno[1,6-ab]indene
_symmetry_cell_setting           monoclinic
_symmetry_space_group_name_H-M   'P 21'
_symmetry_Int_Tables_number      4
_space_group_name_Hall           'P 2yb'
loop_
_symmetry_equiv_pos_site_id
_symmetry_equiv_pos_as_xyz
1 x,y,z
2 -x,1/2+y,-z
_cell_length_a                   18.8481(3)
_cell_length_b                   15.4810(2)
_cell_length_c                   20.5325(3)
_cell_angle_alpha                90
_cell_angle_beta                 90.8378(8)
_cell_angle_gamma                90
_cell_volume                     5990.49
_exptl_crystal_colour            colorless
_exptl_crystal_description       plate
_cell_formula_units_Z            8
loop_
_atom_site_label
_atom_site_type_symbol
_atom_site_fract_x
_atom_site_fract_y
_atom_site_fract_z
I1 I -0.21238(3) 0.22661(3) 0.84357(2)
I2 I -0.13492(2) 0.64092(3) 1.17293(2)
I3 I 0.23867(3) 0.32339(4) 1.01750(3)
C1 C 0.0415(3) 0.4971(4) 0.8589(3)
C2 C -0.0843(3) 0.5519(4) 0.8745(3)
C3 C 0.0179(3) 0.6184(4) 0.9404(3)
C4 C -0.0038(3) 0.5825(4) 0.8698(3)
C5 C 0.0070(5) 0.6479(5) 0.8147(3)
H1 H -0.0216 0.6996 0.8229
H2 H 0.0572 0.6639 0.8130
H3 H -0.0078 0.6220 0.7731
C6 C -0.0140(3) 0.4258(4) 0.8530(3)
C7 C -0.0820(4) 0.4559(4) 0.8626(3)
C8 C -0.1385(4) 0.3986(4) 0.8613(3)
H4 H -0.1853 0.4188 0.8687
C9 C -0.1266(4) 0.3128(5) 0.8493(3)
C10 C -0.0587(4) 0.2823(5) 0.8391(3)
H5 H -0.0509 0.2227 0.8308
C11 C -0.0028(4) 0.3387(5) 0.8410(3)
H6 H 0.0440 0.3181 0.8341
C12 C -0.1042(3) 0.5709(4) 0.9444(3)
C13 C -0.0494(3) 0.6079(4) 0.9801(3)
C14 C -0.0573(3) 0.6296(4) 1.0456(3)
H7 H -0.0196 0.6555 1.0699
C15 C -0.1218(3) 0.6121(4) 1.0740(3)
C16 C -0.1773(4) 0.5758(5) 1.0396(4)
H8 H -0.2214 0.5658 1.0601
C17 C -0.1686(3) 0.5539(5) 0.9745(4)
H9 H -0.2063 0.5275 0.9506
C18 C 0.0723(3) 0.5532(4) 0.9652(3)
C19 C 0.0842(3) 0.4869(4) 0.9210(3)
C20 C 0.1313(4) 0.4201(5) 0.9370(4)
H10 H 0.1394 0.3746 0.9069
C21 C 0.1655(4) 0.4204(5) 0.9958(4)
C22 C 0.1535(3) 0.4855(5) 1.0406(3)
H11 H 0.1766 0.4838 1.0821
C23 C 0.1076(3) 0.5541(5) 1.0252(3)
H12 H 0.1007 0.6001 1.0550
C24 C 0.0913(4) 0.4943(6) 0.7997(4)
H13 H 0.1026 0.4330 0.7908
H14 H 0.0646 0.5165 0.7614
C25 C 0.1615(5) 0.5441(8) 0.8048(5)
H15 H 0.1514 0.6068 0.8074
H16 H 0.1870 0.5270 0.8452
C26 C 0.2081(7) 0.5267(15) 0.7468(7)
H17 H 0.2524 0.5594 0.7514
H18 H 0.2188 0.4648 0.7445
H19 H 0.1832 0.5445 0.7067
C27 C -0.1399(4) 0.5926(5) 0.8261(4)
H20 H -0.1204 0.5888 0.7817
H21 H -0.1832 0.5563 0.8268
C28 C -0.1619(6) 0.6851(7) 0.8378(6)
H22 H -0.1703 0.6930 0.8849
H23 H -0.1223 0.7236 0.8256
C29 C -0.2252(5) 0.7113(6) 0.8018(5)
H24 H -0.2361 0.7717 0.8118
H25 H -0.2171 0.7052 0.7550
H26 H -0.2652 0.6746 0.8144
C30 C 0.0493(3) 0.7106(4) 0.9466(3)
H27 H 0.0736 0.7148 0.9895
H28 H 0.0862 0.7168 0.9130
C31 C -0.0011(4) 0.7881(5) 0.9400(4)
H29 H -0.0162 0.7947 0.8939
H30 H -0.0440 0.7775 0.9661
C32 C 0.0346(5) 0.8706(5) 0.9631(4)
H31 H 0.0013 0.9190 0.9584
H32 H 0.0488 0.8645 1.0090
H33 H 0.0766 0.8816 0.9368
I4 I 0.31689(3) 0.24396(3) 0.82386(2)
I5 I 0.35536(3) 0.56886(4) 1.17733(3)
I6 I 0.74411(4) 0.27804(4) 1.05959(4)
C33 C 0.5827(3) 0.4839(4) 0.8868(3)
C34 C 0.4601(3) 0.5532(4) 0.8846(3)
C35 C 0.5493(3) 0.5941(4) 0.9741(3)
C36 C 0.5415(3) 0.5730(4) 0.8975(3)
C37 C 0.5716(4) 0.6461(5) 0.8556(3)
H34 H 0.6219 0.6543 0.8664
H35 H 0.5664 0.6309 0.8094
H36 H 0.5456 0.6996 0.8642
C38 C 0.5252(4) 0.4202(4) 0.8680(3)
C39 C 0.4586(3) 0.4575(4) 0.8661(3)
C40 C 0.3986(4) 0.4082(4) 0.8519(3)
H37 H 0.3528 0.4337 0.8513
C41 C 0.4070(4) 0.3222(4) 0.8391(3)
C42 C 0.4742(4) 0.2837(4) 0.8385(3)
H38 H 0.4791 0.2242 0.8283
C43 C 0.5332(4) 0.3330(4) 0.8528(3)
H39 H 0.5791 0.3077 0.8524
C44 C 0.4261(3) 0.5612(4) 0.9512(3)
C45 C 0.4754(3) 0.5781(3) 0.9998(3)
C46 C 0.4564(3) 0.5812(4) 1.0643(3)
H40 H 0.4908 0.5913 1.0977
C47 C 0.3860(4) 0.5691(4) 1.0790(3)
C48 C 0.3356(4) 0.5561(5) 1.0314(4)
H41 H 0.2871 0.5508 1.0426
C49 C 0.3556(3) 0.5506(4) 0.9662(4)
H42 H 0.3212 0.5399 0.9329
C50 C 0.6002(3) 0.5260(4) 0.9997(3)
C51 C 0.6158(3) 0.4642(4) 0.9531(3)
C52 C 0.6570(4) 0.3920(4) 0.9699(3)
H43 H 0.6679 0.3491 0.9385
C53 C 0.6817(4) 0.3852(4) 1.0338(3)
C54 C 0.6679(4) 0.4480(5) 1.0800(3)
H44 H 0.6861 0.4425 1.1232
C55 C 0.6270(3) 0.5190(5) 1.0621(3)
H45 H 0.6177 0.5629 1.0930
C56 C 0.6434(3) 0.4821(4) 0.8369(3)
H46 H 0.6744 0.5324 0.8458
H47 H 0.6721 0.4296 0.8455
C57 C 0.6237(4) 0.4830(5) 0.7636(3)
H48 H 0.5908 0.4347 0.7538
H49 H 0.5990 0.5377 0.7528
C58 C 0.6878(5) 0.4746(8) 0.7225(4)
H50 H 0.6736 0.4754 0.6764
H51 H 0.7202 0.5229 0.7315
H52 H 0.7119 0.4200 0.7325
C59 C 0.4189(4) 0.6110(5) 0.8348(3)
H53 H 0.3676 0.6041 0.8431
H54 H 0.4311 0.6719 0.8444
C60 C 0.4299(6) 0.5966(6) 0.7646(4)
H55 H 0.4093 0.5400 0.7523
H56 H 0.4815 0.5940 0.7565
C61 C 0.3965(6) 0.6670(8) 0.7210(5)
H57 H 0.4057 0.6538 0.6752
H58 H 0.3452 0.6691 0.7279
H59 H 0.4175 0.7232 0.7321
C62 C 0.5722(4) 0.6872(5) 0.9907(3)
H60 H 0.5877 0.6889 1.0370
H61 H 0.6139 0.7019 0.9641
C63 C 0.5156(4) 0.7568(4) 0.9800(3)
H62 H 0.4856 0.7407 0.9418
H63 H 0.4846 0.7589 1.0185
C64 C 0.5469(5) 0.8466(5) 0.9687(5)
H64 H 0.5084 0.8884 0.9621
H65 H 0.5757 0.8636 1.0067
H66 H 0.5767 0.8454 0.9300
I7 I 0.11451(3) 0.90091(4) 0.31760(2)
I8 I 0.49528(3) 1.19060(4) 0.47883(3)
I9 I 0.03489(2) 1.24921(3) 0.66229(2)
C65 C 0.1804(3) 0.9364(4) 0.6211(3)
C66 C 0.2809(3) 0.8877(4) 0.5469(3)
C67 C 0.3038(3) 1.0036(4) 0.6334(3)
C68 C 0.2629(3) 0.9143(4) 0.6203(3)
C69 C 0.2846(4) 0.8447(5) 0.6687(3)
H67 H 0.3357 0.8341 0.6658
H68 H 0.2733 0.8636 0.7129
H69 H 0.2587 0.7913 0.6586
C70 C 0.1558(3) 0.9229(4) 0.5505(3)
C71 C 0.2105(3) 0.9011(4) 0.5105(3)
C72 C 0.1996(3) 0.8938(4) 0.4434(3)
H70 H 0.2378 0.8803 0.4156
C73 C 0.1317(3) 0.9068(4) 0.4182(3)
C74 C 0.0762(4) 0.9261(5) 0.4585(4)
H71 H 0.0299 0.9338 0.4405
C75 C 0.0869(3) 0.9346(4) 0.5251(3)
H72 H 0.0486 0.9479 0.5529
C76 C 0.3340(3) 0.9546(4) 0.5254(3)
C77 C 0.3452(3) 1.0190(4) 0.5713(3)
C78 C 0.3906(3) 1.0872(4) 0.5584(3)
H73 H 0.3984 1.1313 0.5899
C79 C 0.4243(3) 1.0898(4) 0.4987(4)
C80 C 0.4135(3) 1.0265(5) 0.4528(3)
H74 H 0.4363 1.0301 0.4120
C81 C 0.3691(3) 0.9570(4) 0.4660(3)
H75 H 0.3628 0.9119 0.4351
C82 C 0.2447(3) 1.0691(4) 0.6405(3)
C83 C 0.1775(3) 1.0323(4) 0.6350(3)
C84 C 0.1172(3) 1.0834(4) 0.6412(3)
H76 H 0.0713 1.0586 0.6374
C85 C 0.1252(3) 1.1703(4) 0.6531(3)
C86 C 0.1919(4) 1.2076(4) 0.6595(3)
H77 H 0.1960 1.2676 0.6684
C87 C 0.2513(4) 1.1587(4) 0.6530(3)
H78 H 0.2969 1.1844 0.6569
C88 C 0.1337(4) 0.8843(4) 0.6681(3)
H79 H 0.0836 0.8902 0.6536
H80 H 0.1466 0.8225 0.6643
C89 C 0.1390(5) 0.9098(6) 0.7392(4)
H81 H 0.1123 0.9640 0.7463
H82 H 0.1893 0.9202 0.7514
C90 C 0.1089(7) 0.8383(7) 0.7818(5)
H83 H 0.1126 0.8555 0.8277
H84 H 0.0590 0.8287 0.7700
H85 H 0.1358 0.7850 0.7751
C91 C 0.3076(3) 0.7951(4) 0.5346(3)
H86 H 0.3280 0.7930 0.4905
H87 H 0.3465 0.7828 0.5662
C92 C 0.2525(4) 0.7225(4) 0.5397(4)
H88 H 0.2256 0.7296 0.5804
H89 H 0.2184 0.7268 0.5026
C93 C 0.2867(4) 0.6349(5) 0.5392(4)
H90 H 0.2501 0.5903 0.5425
H91 H 0.3126 0.6273 0.4986
H92 H 0.3198 0.6301 0.5763
C94 C 0.3530(4) 1.0100(5) 0.6944(3)
H93 H 0.3606 1.0721 0.7038
H94 H 0.3269 0.9855 0.7316
C95 C 0.4250(4) 0.9673(6) 0.6933(4)
H95 H 0.4193 0.9061 0.6802
H96 H 0.4546 0.9962 0.6603
C96 C 0.4621(6) 0.9710(10) 0.7577(5)
H97 H 0.5084 0.9427 0.7546
H98 H 0.4689 1.0315 0.7705
H99 H 0.4335 0.9414 0.7903
I10 I 0.40262(3) 0.37314(4) 0.66990(2)
I11 I 0.01823(4) 0.69374(4) 0.57118(4)
I12 I 0.42286(3) 0.75101(3) 0.32884(3)
C97 C 0.2894(3) 0.4339(4) 0.3806(3)
C98 C 0.2024(3) 0.3827(4) 0.4667(3)
C99 C 0.1643(3) 0.5000(4) 0.3849(3)
C100 C 0.2081(3) 0.4100(4) 0.3919(3)
C101 C 0.1799(4) 0.3410(5) 0.3456(4)
H100 H 0.1300 0.3293 0.3551
H101 H 0.1839 0.3613 0.3006
H102 H 0.2077 0.2879 0.3513
C102 C 0.3253(3) 0.4211(4) 0.4467(3)
C103 C 0.2771(3) 0.3942(4) 0.4931(3)
C104 C 0.2999(3) 0.3810(4) 0.5569(3)
H103 H 0.2673 0.3636 0.5892
C105 C 0.3701(3) 0.3935(4) 0.5726(3)
C106 C 0.4184(4) 0.4201(4) 0.5269(3)
H104 H 0.4667 0.4293 0.5390
C107 C 0.3957(3) 0.4333(5) 0.4635(3)
H105 H 0.4286 0.4508 0.4314
C108 C 0.1540(3) 0.4484(4) 0.4952(3)
C109 C 0.1353(3) 0.5128(4) 0.4519(3)
C110 C 0.0951(4) 0.5835(5) 0.4732(4)
H106 H 0.0816 0.6282 0.4438
C111 C 0.0755(4) 0.5870(5) 0.5376(4)
C112 C 0.0925(3) 0.5220(5) 0.5811(4)
H107 H 0.0773 0.5250 0.6249
C113 C 0.1317(3) 0.4530(5) 0.5600(3)
H108 H 0.1439 0.4079 0.5896
C114 C 0.2206(4) 0.5654(4) 0.3692(3)
C115 C 0.2875(3) 0.5312(4) 0.3665(3)
C116 C 0.3464(4) 0.5834(4) 0.3537(3)
H109 H 0.3929 0.5597 0.3520
C117 C 0.3347(4) 0.6706(4) 0.3438(3)
C118 C 0.2675(4) 0.7062(4) 0.3440(3)
H110 H 0.2609 0.7658 0.3347
C119 C 0.2101(4) 0.6542(5) 0.3577(3)
H111 H 0.1638 0.6782 0.3594
C120 C 0.3305(4) 0.3884(4) 0.3263(3)
H112 H 0.3011 0.3910 0.2860
H113 H 0.3740 0.4224 0.3182
C121 C 0.3528(4) 0.2939(5) 0.3369(4)
H114 H 0.3690 0.2863 0.3826
H115 H 0.3111 0.2561 0.3296
C122 C 0.4113(6) 0.2660(7) 0.2923(5)
H116 H 0.4234 0.2056 0.3010
H117 H 0.3953 0.2721 0.2469
H118 H 0.4532 0.3024 0.2999
C123 C 0.1766(4) 0.2900(4) 0.4801(4)
H119 H 0.1350 0.2786 0.4514
H120 H 0.1600 0.2874 0.5256
C124 C 0.2310(4) 0.2165(4) 0.4703(4)
H121 H 0.2596 0.2295 0.4314
H122 H 0.2637 0.2146 0.5085
C125 C 0.1965(5) 0.1287(5) 0.4617(6)
H123 H 0.2333 0.0848 0.4557
H124 H 0.1690 0.1147 0.5004
H125 H 0.1649 0.1297 0.4233
C126 C 0.1032(4) 0.5024(5) 0.3339(3)
H126 H 0.0748 0.4491 0.3391
H127 H 0.0720 0.5517 0.3448
C127 C 0.1219(5) 0.5103(7) 0.2615(4)
H128 H 0.1486 0.5645 0.2546
H129 H 0.1528 0.4615 0.2492
C128 C 0.0567(6) 0.5103(10) 0.2192(5)
H130 H 0.0702 0.5154 0.1735
H131 H 0.0306 0.4562 0.2255
H132 H 0.0264 0.5592 0.2309
loop_
_geom_bond_atom_site_label_1
_geom_bond_atom_site_label_2
_geom_bond_site_symmetry_1
_geom_bond_site_symmetry_2
I1 C9 1_555 1_555
I2 C15 1_555 1_555
I3 C21 1_555 1_555
C1 C4 1_555 1_555
C2 C4 1_555 1_555
C3 C4 1_555 1_555
C4 C5 1_555 1_555
C5 H1 1_555 1_555
H2 C5 1_555 1_555
H3 C5 1_555 1_555
C6 C1 1_555 1_555
C7 C2 1_555 1_555
C8 C7 1_555 1_555
H4 C8 1_555 1_555
C9 C8 1_555 1_555
C10 C9 1_555 1_555
H5 C10 1_555 1_555
C11 C6 1_555 1_555
H6 C11 1_555 1_555
C12 C2 1_555 1_555
C13 C3 1_555 1_555
C14 C13 1_555 1_555
H7 C14 1_555 1_555
C15 C14 1_555 1_555
C16 C15 1_555 1_555
H8 C16 1_555 1_555
C17 C12 1_555 1_555
H9 C17 1_555 1_555
C18 C3 1_555 1_555
C19 C1 1_555 1_555
C20 C19 1_555 1_555
H10 C20 1_555 1_555
C21 C20 1_555 1_555
C22 C21 1_555 1_555
H11 C22 1_555 1_555
C23 C18 1_555 1_555
H12 C23 1_555 1_555
C24 C1 1_555 1_555
H13 C24 1_555 1_555
H14 C24 1_555 1_555
C25 C24 1_555 1_555
H15 C25 1_555 1_555
H16 C25 1_555 1_555
C26 C25 1_555 1_555
H17 C26 1_555 1_555
H18 C26 1_555 1_555
H19 C26 1_555 1_555
C27 C2 1_555 1_555
H20 C27 1_555 1_555
H21 C27 1_555 1_555
C28 C27 1_555 1_555
H22 C28 1_555 1_555
H23 C28 1_555 1_555
C29 C28 1_555 1_555
H24 C29 1_555 1_555
H25 C29 1_555 1_555
H26 C29 1_555 1_555
C30 C3 1_555 1_555
H27 C30 1_555 1_555
H28 C30 1_555 1_555
C31 C30 1_555 1_555
H29 C31 1_555 1_555
H30 C31 1_555 1_555
C32 C31 1_555 1_555
H31 C32 1_555 1_555
H32 C32 1_555 1_555
H33 C32 1_555 1_555
I4 C41 1_555 1_555
I5 C47 1_555 1_555
I6 C53 1_555 1_555
C33 C36 1_555 1_555
C34 C36 1_555 1_555
C35 C36 1_555 1_555
C36 C37 1_555 1_555
C37 H34 1_555 1_555
H35 C37 1_555 1_555
H36 C37 1_555 1_555
C38 C33 1_555 1_555
C39 C34 1_555 1_555
C40 C39 1_555 1_555
H37 C40 1_555 1_555
C41 C40 1_555 1_555
C42 C41 1_555 1_555
H38 C42 1_555 1_555
C43 C38 1_555 1_555
H39 C43 1_555 1_555
C44 C34 1_555 1_555
C45 C35 1_555 1_555
C46 C45 1_555 1_555
H40 C46 1_555 1_555
C47 C46 1_555 1_555
C48 C47 1_555 1_555
H41 C48 1_555 1_555
C49 C44 1_555 1_555
H42 C49 1_555 1_555
C50 C35 1_555 1_555
C51 C33 1_555 1_555
C52 C51 1_555 1_555
H43 C52 1_555 1_555
C53 C52 1_555 1_555
C54 C53 1_555 1_555
H44 C54 1_555 1_555
C55 C50 1_555 1_555
H45 C55 1_555 1_555
C56 C33 1_555 1_555
H46 C56 1_555 1_555
H47 C56 1_555 1_555
C57 C56 1_555 1_555
H48 C57 1_555 1_555
H49 C57 1_555 1_555
C58 C57 1_555 1_555
H50 C58 1_555 1_555
H51 C58 1_555 1_555
H52 C58 1_555 1_555
C59 C34 1_555 1_555
H53 C59 1_555 1_555
H54 C59 1_555 1_555
C60 C59 1_555 1_555
H55 C60 1_555 1_555
H56 C60 1_555 1_555
C61 C60 1_555 1_555
H57 C61 1_555 1_555
H58 C61 1_555 1_555
H59 C61 1_555 1_555
C62 C35 1_555 1_555
H60 C62 1_555 1_555
H61 C62 1_555 1_555
C63 C62 1_555 1_555
H62 C63 1_555 1_555
H63 C63 1_555 1_555
C64 C63 1_555 1_555
H64 C64 1_555 1_555
H65 C64 1_555 1_555
H66 C64 1_555 1_555
I7 C73 1_555 1_555
I8 C79 1_555 1_555
I9 C85 1_555 1_555
C65 C68 1_555 1_555
C66 C68 1_555 1_555
C67 C68 1_555 1_555
C68 C69 1_555 1_555
C69 H67 1_555 1_555
H68 C69 1_555 1_555
H69 C69 1_555 1_555
C70 C65 1_555 1_555
C71 C66 1_555 1_555
C72 C71 1_555 1_555
H70 C72 1_555 1_555
C73 C72 1_555 1_555
C74 C73 1_555 1_555
H71 C74 1_555 1_555
C75 C70 1_555 1_555
H72 C75 1_555 1_555
C76 C66 1_555 1_555
C77 C67 1_555 1_555
C78 C77 1_555 1_555
H73 C78 1_555 1_555
C79 C78 1_555 1_555
C80 C79 1_555 1_555
H74 C80 1_555 1_555
C81 C76 1_555 1_555
H75 C81 1_555 1_555
C82 C67 1_555 1_555
C83 C65 1_555 1_555
C84 C83 1_555 1_555
H76 C84 1_555 1_555
C85 C84 1_555 1_555
C86 C85 1_555 1_555
H77 C86 1_555 1_555
C87 C82 1_555 1_555
H78 C87 1_555 1_555
C88 C65 1_555 1_555
H79 C88 1_555 1_555
H80 C88 1_555 1_555
C89 C88 1_555 1_555
H81 C89 1_555 1_555
H82 C89 1_555 1_555
C90 C89 1_555 1_555
H83 C90 1_555 1_555
H84 C90 1_555 1_555
H85 C90 1_555 1_555
C91 C66 1_555 1_555
H86 C91 1_555 1_555
H87 C91 1_555 1_555
C92 C91 1_555 1_555
H88 C92 1_555 1_555
H89 C92 1_555 1_555
C93 C92 1_555 1_555
H90 C93 1_555 1_555
H91 C93 1_555 1_555
H92 C93 1_555 1_555
C94 C67 1_555 1_555
H93 C94 1_555 1_555
H94 C94 1_555 1_555
C95 C94 1_555 1_555
H95 C95 1_555 1_555
H96 C95 1_555 1_555
C96 C95 1_555 1_555
H97 C96 1_555 1_555
H98 C96 1_555 1_555
H99 C96 1_555 1_555
I10 C105 1_555 1_555
I11 C111 1_555 1_555
I12 C117 1_555 1_555
C97 C100 1_555 1_555
C98 C100 1_555 1_555
C99 C100 1_555 1_555
C100 C101 1_555 1_555
C101 H100 1_555 1_555
H101 C101 1_555 1_555
H102 C101 1_555 1_555
C102 C97 1_555 1_555
C103 C98 1_555 1_555
C104 C103 1_555 1_555
H103 C104 1_555 1_555
C105 C104 1_555 1_555
C106 C105 1_555 1_555
H104 C106 1_555 1_555
C107 C102 1_555 1_555
H105 C107 1_555 1_555
C108 C98 1_555 1_555
C109 C99 1_555 1_555
C110 C109 1_555 1_555
H106 C110 1_555 1_555
C111 C110 1_555 1_555
C112 C111 1_555 1_555
H107 C112 1_555 1_555
C113 C108 1_555 1_555
H108 C113 1_555 1_555
C114 C99 1_555 1_555
C115 C97 1_555 1_555
C116 C115 1_555 1_555
H109 C116 1_555 1_555
C117 C116 1_555 1_555
C118 C117 1_555 1_555
H110 C118 1_555 1_555
C119 C114 1_555 1_555
H111 C119 1_555 1_555
C120 C97 1_555 1_555
H112 C120 1_555 1_555
H113 C120 1_555 1_555
C121 C120 1_555 1_555
H114 C121 1_555 1_555
H115 C121 1_555 1_555
C122 C121 1_555 1_555
H116 C122 1_555 1_555
H117 C122 1_555 1_555
H118 C122 1_555 1_555
C123 C98 1_555 1_555
H119 C123 1_555 1_555
H120 C123 1_555 1_555
C124 C123 1_555 1_555
H121 C124 1_555 1_555
H122 C124 1_555 1_555
C125 C124 1_555 1_555
H123 C125 1_555 1_555
H124 C125 1_555 1_555
H125 C125 1_555 1_555
C126 C99 1_555 1_555
H126 C126 1_555 1_555
H127 C126 1_555 1_555
C127 C126 1_555 1_555
H128 C127 1_555 1_555
H129 C127 1_555 1_555
C128 C127 1_555 1_555
H130 C128 1_555 1_555
H131 C128 1_555 1_555
H132 C128 1_555 1_555
C6 C7 1_555 1_555
C10 C11 1_555 1_555
C12 C13 1_555 1_555
C16 C17 1_555 1_555
C18 C19 1_555 1_555
C22 C23 1_555 1_555
C38 C39 1_555 1_555
C42 C43 1_555 1_555
C44 C45 1_555 1_555
C48 C49 1_555 1_555
C50 C51 1_555 1_555
C54 C55 1_555 1_555
C70 C71 1_555 1_555
C74 C75 1_555 1_555
C76 C77 1_555 1_555
C80 C81 1_555 1_555
C82 C83 1_555 1_555
C86 C87 1_555 1_555
C102 C103 1_555 1_555
C106 C107 1_555 1_555
C108 C109 1_555 1_555
C112 C113 1_555 1_555
C114 C115 1_555 1_555
C118 C119 1_555 1_555

#END
