
#######################################################################
#
#                 Cambridge Crystallographic Data Centre
#                                CCDC 
#
#######################################################################
#
# If this CIF has been generated from an entry in the Cambridge 
# Structural Database, then it will include bibliographic, chemical, 
# crystal, experimental, refinement or atomic coordinate data resulting 
# from the CCDC's data processing and validation procedures.
#
#######################################################################

data_EWIXUE
_chemical_formula_moiety         
'2(C83 H83 F4 N15 O13),C22 H28 N2 O4,16.75(H2 O1),7(C1 H1 Cl3)'
_chemical_name_systematic        
'bis(t-Butyl (2-((2-((2-((2-((6-(((6-((6-((2,2-dimethylpropanoyl)amino)pyridin-2-yl)carbamoyl)pyridin-2-yl)carbonyl)amino)pyridin-2-yl)carbamoyl)-8-fluoro-4-isobutoxyquinolin-7-yl)carbamoyl)-8-fluoro-4-isobutoxyquinolin-7-yl)carbamoyl)-8-fluoro-4-isobutoxyquinolin-7-yl)carbamoyl)-8-fluoro-4-isobutoxyquinolin-7-yl)carbamate) dibenzyl hexane-1,6-diylbiscarbamate chloroform solvate hydrate'
_symmetry_cell_setting           triclinic
_symmetry_space_group_name_H-M   'P -1'
_symmetry_Int_Tables_number      2
_space_group_name_Hall           '-P 1'
loop_
_symmetry_equiv_pos_site_id
_symmetry_equiv_pos_as_xyz
1 x,y,z
2 -x,-y,-z
_cell_length_a                   17.995(4)
_cell_length_b                   23.036(5)
_cell_length_c                   31.217(6)
_cell_angle_alpha                74.36(3)
_cell_angle_beta                 81.13(3)
_cell_angle_gamma                78.79(3)
_cell_volume                     12152.4
_cell_formula_units_Z            2
loop_
_atom_site_label
_atom_site_type_symbol
_atom_site_fract_x
_atom_site_fract_y
_atom_site_fract_z
Cl1 Cl 0.8584(12) 0.1592(6) 0.1907(6)
Cl5 Cl 0.9654(6) 0.2202(6) 0.1295(5)
Cl7 Cl 0.8293(10) 0.2172(12) 0.1056(13)
C185 C 0.8772(16) 0.2188(12) 0.1508(10)
H180 H 0.8568 0.2562 0.1608
F1 F 0.5261(4) 0.6731(3) 0.1132(2)
F5 F 0.5681(4) 0.4661(4) 0.3184(3)
F6 F 0.3307(4) 0.5688(3) 0.3394(2)
F8 F 0.3382(4) 0.7406(4) 0.2144(2)
O3 O 0.7225(5) 0.4645(4) 0.0388(3)
O6 O 0.0075(6) 0.6247(5) 0.4132(3)
O8 O 0.4443(6) 0.2555(5) 0.1992(4)
O11 O 0.2953(6) 0.3725(4) 0.4436(3)
O13 O 0.8159(5) 0.4600(6) 0.2645(4)
N2 N 0.4429(6) 0.3598(5) 0.1704(4)
H2 H 0.4146 0.3946 0.1700
O14 O 0.1053(6) 0.4560(5) 0.2212(4)
O16 O 0.5414(6) 0.2190(6) 0.4342(4)
N5 N 0.6163(5) 0.4771(5) 0.0870(3)
H4 H 0.5831 0.5041 0.0968
N7 N 0.2925(7) 0.3800(6) 0.2018(3)
N8 N 0.6273(6) 0.5977(5) 0.0695(3)
O19 O 0.5518(7) 0.8887(5) 0.0733(4)
N9 N 0.5255(6) 0.7920(5) 0.0998(3)
H6 H 0.4955 0.7711 0.1194
O20 O 0.1123(6) 0.8114(5) 0.3061(3)
N10 N 0.4674(7) 0.4021(5) 0.3766(4)
O21 O 0.8272(7) 0.3594(8) 0.2971(5)
N11 N 0.2058(6) 0.4935(6) 0.1791(4)
H7 H 0.2539 0.4838 0.1720
N15 N 0.5347(6) 0.4145(5) 0.1279(3)
N17 N 0.4125(6) 0.8258(5) 0.1557(4)
O24 O 0.3443(6) 1.0089(5) 0.1621(4)
N20 N 0.2097(7) 0.6610(6) 0.3355(4)
N21 N 0.7127(7) 0.4218(6) 0.2980(4)
H11 H 0.6901 0.4576 0.2856
N22 N 0.3276(7) 0.4581(6) 0.3918(3)
H12 H 0.3651 0.4710 0.3734
N23 N 0.2241(7) 0.7654(5) 0.2770(4)
H13 H 0.2502 0.7299 0.2769
N27 N 0.2193(6) 0.5883(7) 0.1314(4)
N30 N 0.2492(7) 0.6760(7) 0.0830(5)
H18 H 0.2950 0.6565 0.0841
C3 C 0.6315(7) 0.6587(7) 0.0592(4)
C4 C 0.7358(7) 0.5858(7) 0.0150(4)
H19 H 0.7712 0.5590 0.0017
C5 C 0.6871(7) 0.6871(7) 0.0268(4)
C7 C 0.8443(8) 0.6350(6) -0.0524(5)
H22 H 0.8169 0.6116 -0.0643
H23 H 0.8790 0.6067 -0.0326
C12 C 0.9410(7) 0.4391(9) 0.2926(5)
H26 H 0.9439 0.3956 0.3031
H27 H 0.9139 0.4583 0.3154
H28 H 0.9916 0.4491 0.2856
C14 C 0.2539(8) 0.8136(7) 0.2477(5)
C15 C 0.6052(8) 0.4177(7) 0.1033(4)
C16 C 0.7386(7) 0.6470(8) 0.0043(4)
C19 C 0.5807(8) 0.6969(7) 0.0813(4)
C20 C 0.6776(7) 0.5660(7) 0.0467(4)
C21 C 0.3528(8) 0.8443(6) 0.1858(5)
O29 O 0.1807(8) 0.7642(6) 0.0502(5)
C23 C 0.1952(9) 0.4874(7) 0.4210(4)
H31 H 0.1926 0.4488 0.4397
C25 C 0.6878(8) 0.7500(7) 0.0199(4)
H32 H 0.7248 0.7681 -0.0009
C26 C 0.3298(9) 0.9049(7) 0.1883(5)
C30 C 0.4933(11) 0.1827(7) 0.4668(6)
H34 H 0.4441 0.1871 0.4562
H35 H 0.4854 0.1954 0.4946
C31 C 0.5178(8) 0.3578(7) 0.1466(4)
C34 C 0.3833(12) 1.0546(7) 0.1358(7)
H37 H 0.3906 1.0521 0.1049
H38 H 0.4330 1.0499 0.1458
C37 C 0.5672(8) 0.3116(7) 0.3871(5)
C40 C 0.6440(10) 0.2868(8) 0.3775(5)
H39 H 0.6633 0.2469 0.3916
C44 C 0.3295(8) 0.3236(7) 0.2139(5)
C45 C 0.5415(8) 0.3734(7) 0.3686(5)
C48 C 0.5625(9) 0.3062(7) 0.1431(5)
H46 H 0.5477 0.2683 0.1563
C49 C 0.9493(12) 0.6325(10) -0.1130(7)
H47 H 0.9804 0.6565 -0.1362
H48 H 0.9246 0.6088 -0.1258
H49 H 0.9807 0.6057 -0.0911
C50 C 0.5797(8) 0.7596(8) 0.0741(4)
C51 C 0.6898(9) 0.3231(10) 0.3468(6)
H50 H 0.7394 0.3060 0.3385
C53 C 0.1843(10) 0.3440(9) 0.2530(6)
H51 H 0.1355 0.3533 0.2668
C56 C 0.3682(9) 0.9500(7) 0.1604(5)
C58 C 0.8885(9) 0.6753(8) -0.0903(6)
H54 H 0.9151 0.6986 -0.0772
C61 C 0.1348(8) 0.5928(8) 0.3929(4)
C63 C 0.2686(9) 0.9187(7) 0.2207(6)
H55 H 0.2546 0.9587 0.2232
C64 C 0.6544(9) 0.3674(8) 0.0989(5)
H56 H 0.7020 0.3709 0.0828
C65 C 0.4302(9) 0.9330(7) 0.1303(5)
H57 H 0.4582 0.9615 0.1113
C69 C 0.8991(8) 0.4619(10) 0.2505(6)
C70 C 0.5160(11) 0.2783(8) 0.4177(5)
C71 C 0.4406(9) 0.3091(8) 0.4266(4)
H59 H 0.4054 0.2880 0.4467
C72 C 0.2185(10) 0.3889(8) 0.2205(5)
C75 C 0.4476(8) 0.8713(7) 0.1303(5)
C76 C 0.2633(8) 0.5588(7) 0.3658(4)
C77 C 0.0792(8) 0.6960(8) 0.3604(5)
H61 H 0.0392 0.7286 0.3588
C78 C 0.6741(7) 0.4981(7) 0.0570(4)
C82 C 0.5912(7) 0.4084(8) 0.3369(5)
C84 C 0.6376(9) 0.7836(7) 0.0419(5)
H65 H 0.6401 0.8250 0.0362
C85 C 0.1327(9) 0.5353(9) 0.4192(5)
H66 H 0.0877 0.5271 0.4370
C86 C 0.2993(9) 0.2752(7) 0.2442(6)
H67 H 0.3283 0.2364 0.2511
C88 C -0.0627(9) 0.6684(8) 0.4080(5)
H70 H -0.0584 0.7036 0.4184
H71 H -0.0708 0.6823 0.3766
C90 C 0.1583(9) 0.7656(8) 0.3065(5)
C91 C 0.2248(12) 0.2861(10) 0.2638(6)
H72 H 0.2028 0.2547 0.2840
C93 C 0.9252(9) 0.4260(12) 0.2171(7)
H73 H 0.8988 0.4443 0.1911
H74 H 0.9150 0.3851 0.2295
H75 H 0.9790 0.4251 0.2090
C94 C 0.0696(9) 0.6405(8) 0.3881(5)
C98 C 0.3370(16) 1.1167(8) 0.1394(11)
H79 H 0.2849 1.1189 0.1328
C99 C 0.4193(10) 0.3690(8) 0.4059(5)
C100 C 0.3155(8) 0.8004(7) 0.2146(5)
C105 C 0.3421(8) 0.3997(9) 0.4146(5)
C106 C 0.1737(8) 0.5531(8) 0.1592(5)
C107 C 0.2623(8) 0.5014(8) 0.3926(5)
C110 C 0.1498(9) 0.7046(8) 0.3341(5)
C112 C 0.5407(15) 0.0941(9) 0.4305(8)
H86 H 0.5686 0.0533 0.4353
H87 H 0.5675 0.1207 0.4066
H88 H 0.4910 0.0945 0.4227
C121 C 0.5148(9) 0.8528(8) 0.0973(5)
C122 C 0.2051(8) 0.6059(9) 0.3623(5)
C123 C 0.5326(12) 0.1167(8) 0.4743(7)
H99 H 0.5840 0.1149 0.4819
C127 C 0.2303(9) 0.8749(7) 0.2479(5)
H103 H 0.1879 0.8859 0.2669
C129 C 0.0948(9) 0.5751(9) 0.1663(5)
H107 H 0.0618 0.5505 0.1852
C130 C 0.6653(9) 0.3832(8) 0.3281(5)
C136 C 0.1176(11) 0.6687(8) 0.1149(6)
H112 H 0.0994 0.7079 0.0989
C139 C 0.1726(9) 0.4506(8) 0.2067(5)
C141 C -0.2046(11) 0.6825(12) 0.4266(11)
H119 H -0.2068 0.7013 0.3953
H120 H -0.2100 0.7136 0.4426
H121 H -0.2451 0.6589 0.4376
C147 C 0.4898(13) 0.0779(9) 0.5142(7)
H129 H 0.5153 0.0364 0.5199
H130 H 0.4387 0.0797 0.5079
H131 H 0.4883 0.0933 0.5401
C151 C 0.4153(10) 0.3069(9) 0.1941(5)
C152 C -0.1276(11) 0.6405(10) 0.4336(10)
H134 H -0.1301 0.6095 0.4178
C153 C 0.1914(9) 0.6448(9) 0.1102(6)
C154 C 0.2412(14) 0.7314(9) 0.0561(6)
C155 C 0.0694(9) 0.6326(11) 0.1448(7)
H135 H 0.0182 0.6486 0.1499
C156 C 0.3141(11) 0.7524(8) 0.0331(6)
C160 C 0.7909(11) 0.4099(11) 0.2856(6)
C166 C 0.8362(13) 0.7205(10) -0.1219(7)
H141 H 0.8656 0.7468 -0.1444
H142 H 0.7990 0.7445 -0.1055
H143 H 0.8107 0.6987 -0.1360
C169 C 0.6350(9) 0.3122(8) 0.1176(5)
H148 H 0.6690 0.2774 0.1141
C171 C 0.373(2) 1.1651(9) 0.1064(13)
H152 H 0.3426 1.2041 0.1071
H153 H 0.3757 1.1585 0.0770
H154 H 0.4231 1.1641 0.1135
C181 C 0.335(2) 1.1223(13) 0.1916(16)
H173 H 0.3036 1.1599 0.1950
H174 H 0.3856 1.1216 0.1978
H175 H 0.3140 1.0886 0.2120
C186 C 0.8989(9) 0.5323(12) 0.2329(7)
H181 H 0.8743 0.5472 0.2060
H182 H 0.9504 0.5402 0.2268
H183 H 0.8718 0.5526 0.2552
C189 C 0.306(2) 0.8184(15) 0.033(2)
H185 H 0.3528 0.8333 0.0199
H186 H 0.2952 0.8226 0.0633
H187 H 0.2653 0.8415 0.0161
C190 C 0.3888(12) 0.7178(11) 0.0475(7)
H188 H 0.4293 0.7359 0.0281
H189 H 0.3931 0.6761 0.0460
H190 H 0.3919 0.7189 0.0777
C193 C -0.1238(13) 0.6076(17) 0.4756(11)
H195 H -0.1698 0.5904 0.4863
H196 H -0.1180 0.6333 0.4941
H197 H -0.0809 0.5752 0.4767
O36 O 0.7902(5) 0.6743(4) -0.0276(3)
C194 C 0.3145(16) 0.750(3) -0.0148(8)
H198 H 0.3601 0.7632 -0.0319
H199 H 0.2708 0.7769 -0.0270
H200 H 0.3130 0.7092 -0.0158
F2 F 0.6767(4) 0.5454(3) 0.1854(2)
F3 F 0.4674(4) 0.4276(3) 0.2489(2)
F4 F 0.5867(4) 0.7495(3) 0.2059(2)
F7 F 0.2474(4) 0.5773(4) 0.2422(3)
O1 O 0.9451(5) 0.5893(4) 0.0509(3)
O5 O 0.6611(5) 0.1863(5) 0.3031(3)
O7 O 0.7985(5) 0.3401(4) 0.1823(3)
N1 N 0.7138(5) 0.4285(5) 0.1806(3)
H1 H 0.6683 0.4421 0.1907
O9 O 0.2890(6) 0.3123(6) 0.3558(4)
O10 O 0.0293(5) 0.4423(6) 0.3793(4)
O12 O 0.5520(6) 0.4304(6) 0.4548(3)
N3 N 0.6101(6) 0.3668(5) 0.2328(3)
N4 N 0.3555(6) 0.3768(5) 0.3017(3)
H3 H 0.3511 0.4128 0.2841
O18 O 0.1175(7) 0.7642(6) 0.1880(5)
N12 N 0.5132(7) 0.8480(6) 0.2374(4)
N13 N 0.3548(6) 0.7593(6) 0.3565(4)
N14 N 0.3985(6) 0.8363(6) 0.3027(4)
H8 H 0.4265 0.8079 0.2917
O22 O 0.8620(7) 0.6256(6) 0.3199(4)
N16 N 0.7554(5) 0.6365(5) 0.1371(3)
N18 N 0.7079(6) 0.7506(5) 0.1455(4)
H9 H 0.6848 0.7197 0.1572
O23 O 0.3767(6) 0.9401(5) 0.2942(4)
N19 N 0.5537(8) 0.5273(5) 0.4112(4)
H10 H 0.5257 0.5620 0.4020
O25 O 0.5982(7) 1.0121(5) 0.1850(4)
C1 C 0.5560(8) 0.3371(6) 0.2610(4)
O26 O 0.8123(6) 0.7803(5) 0.0998(4)
C2 C 0.5714(7) 0.2736(6) 0.2837(4)
O27 O 0.2242(7) 0.6524(6) 0.4609(4)
N25 N 0.6490(7) 0.5764(6) 0.3723(4)
N26 N 0.1338(7) 0.6720(7) 0.2314(5)
H15 H 0.1804 0.6745 0.2208
N28 N 0.7335(6) 0.6354(7) 0.3309(4)
H16 H 0.6927 0.6620 0.3276
N29 N 0.3259(6) 0.6749(7) 0.4093(4)
H17 H 0.3689 0.6589 0.3977
N31 N 0.2343(6) 0.4663(6) 0.2980(4)
N32 N 0.4032(8) 0.5573(7) 0.4424(4)
C8 C 0.6759(9) 0.3352(6) 0.2261(4)
C9 C 0.4827(7) 0.3674(6) 0.2691(4)
C10 C 0.7384(7) 0.5312(7) 0.1556(4)
C13 C 0.2352(9) 0.7696(10) 0.4051(6)
H29 H 0.2015 0.7512 0.4281
C17 C 0.7359(8) 0.3681(7) 0.1924(4)
O28 O 0.0158(8) 0.7273(6) 0.2297(6)
C18 C 0.6984(8) 0.2747(7) 0.2477(5)
H30 H 0.7478 0.2552 0.2417
C22 C 0.7769(7) 0.5779(7) 0.1318(4)
C24 C 0.4380(10) 0.4995(9) 0.4581(4)
C27 C 0.2772(9) 0.8581(8) 0.3497(6)
H33 H 0.2703 0.8998 0.3364
C28 C 0.8412(7) 0.5617(7) 0.1012(4)
C29 C 0.6733(9) 0.8039(7) 0.1568(5)
C32 C 0.4250(8) 0.3397(7) 0.2980(4)
C33 C 0.7420(11) 0.1000(9) 0.3413(10)
H36 H 0.7282 0.1114 0.3699
C35 C 0.7563(7) 0.4715(6) 0.1538(4)
C36 C 0.2267(7) 0.4132(8) 0.3255(5)
C38 C 0.1018(8) 0.5045(8) 0.3216(5)
C41 C 0.7399(10) 0.1546(8) 0.3012(7)
H40 H 0.7746 0.1811 0.3028
H41 H 0.7541 0.1414 0.2736
C42 C 0.6133(9) 0.8040(6) 0.1876(5)
C43 C 0.8191(7) 0.4567(7) 0.1220(4)
H42 H 0.8321 0.4174 0.1178
C46 C 0.3238(12) 0.4744(10) 0.5066(6)
H43 H 0.2973 0.4463 0.5274
C47 C 0.9956(8) 0.6324(7) 0.0291(5)
H44 H 1.0102 0.6501 0.0508
H45 H 0.9704 0.6650 0.0068
C52 C 0.1770(9) 0.5685(9) 0.2668(5)
C54 C 0.4434(9) 0.2770(7) 0.3184(4)
H52 H 0.4059 0.2563 0.3365
C55 C 0.3282(10) 0.5743(9) 0.4589(5)
C57 C 0.5084(11) 0.9546(7) 0.2314(6)
H53 H 0.4829 0.9887 0.2411
C59 C 0.4825(8) 0.8972(7) 0.2492(5)
C60 C 0.8832(8) 0.6068(7) 0.0784(4)
C62 C 0.6474(9) 0.2442(7) 0.2778(5)
C66 C 0.5137(9) 0.2471(7) 0.3120(4)
H58 H 0.5245 0.2063 0.3274
C67 C 0.7978(7) 0.6783(7) 0.1133(5)
C68 C 0.6053(9) 0.9093(7) 0.1860(5)
C73 C 0.2931(8) 0.3623(8) 0.3305(5)
C74 C 0.8636(7) 0.6645(8) 0.0830(4)
H60 H 0.8919 0.6946 0.0669
C79 C 0.0498(8) 0.6063(10) 0.2888(6)
H62 H 0.0092 0.6384 0.2874
C80 C 0.7017(8) 0.8597(8) 0.1398(5)
H63 H 0.7447 0.8614 0.1191
C81 C 0.5759(8) 0.8531(7) 0.2036(5)
C83 C 0.1591(9) 0.3998(8) 0.3548(4)
H64 H 0.1561 0.3618 0.3746
C89 C 0.6303(10) 0.5228(9) 0.3943(5)
C92 C 0.5670(10) 0.9592(7) 0.2021(5)
C95 C 0.7980(9) 0.7202(9) 0.2794(7)
C101 C 1.0665(9) 0.5982(8) 0.0069(7)
H80 H 1.0510 0.5806 -0.0150
C103 C 0.3030(10) 0.7377(8) 0.3896(5)
C104 C 0.0414(8) 0.5515(9) 0.3161(5)
H83 H -0.0060 0.5453 0.3316
C109 C 0.7731(9) 0.7394(7) 0.1187(5)
C111 C 0.3412(8) 0.8187(9) 0.3382(5)
C113 C 0.5749(10) 1.0615(7) 0.2053(6)
H89 H 0.5755 1.0468 0.2375
H90 H 0.5232 1.0805 0.1993
C114 C 0.2910(10) 0.5305(11) 0.4932(5)
H91 H 0.2422 0.5427 0.5059
C115 C 0.7558(12) 0.4736(10) 0.3831(6)
H92 H 0.7924 0.4385 0.3870
C117 C 1.1066(9) 0.5474(9) 0.0418(7)
H94 H 1.1494 0.5252 0.0273
H95 H 1.0718 0.5203 0.0577
H96 H 1.1241 0.5648 0.0624
C118 C 0.2218(9) 0.8301(12) 0.3838(6)
H97 H 0.1761 0.8538 0.3913
C119 C 0.1730(8) 0.5126(8) 0.2951(5)
C120 C 0.8596(7) 0.5023(7) 0.0980(4)
H98 H 0.9018 0.4922 0.0784
C124 C 0.5185(11) 0.4839(9) 0.4402(5)
C126 C 0.6678(10) 0.9108(7) 0.1530(5)
H102 H 0.6862 0.9474 0.1401
C128 C 0.8284(10) 0.7074(10) 0.2334(6)
H104 H 0.8296 0.7454 0.2113
H105 H 0.7956 0.6844 0.2257
H106 H 0.8790 0.6844 0.2347
C132 C 0.0987(8) 0.4477(9) 0.3515(5)
C133 C 0.1202(9) 0.6162(8) 0.2616(5)
C134 C 0.7170(9) 0.7551(9) 0.2788(7)
H109 H 0.7171 0.7947 0.2585
H110 H 0.6976 0.7597 0.3084
H111 H 0.6853 0.7330 0.2692
C135 C 0.7226(10) 0.5768(8) 0.3549(5)
C137 C 0.6826(13) 0.4683(7) 0.4000(5)
H113 H 0.6680 0.4307 0.4145
C138 C 0.8485(10) 0.7511(10) 0.2964(7)
H114 H 0.8501 0.7913 0.2774
H115 H 0.8990 0.7279 0.2965
H116 H 0.8290 0.7539 0.3263
C140 C 0.0291(8) 0.3869(12) 0.4131(7)
H117 H 0.0708 0.3801 0.4311
H118 H 0.0336 0.3525 0.4001
C144 C 0.4127(8) 0.8941(9) 0.2849(5)
C145 C 0.6245(15) 1.1339(9) 0.1381(7)
H125 H 0.6621 1.1603 0.1268
H126 H 0.5748 1.1569 0.1329
H127 H 0.6347 1.1016 0.1229
C146 C 0.7774(9) 0.5258(10) 0.3615(6)
H128 H 0.8283 0.5282 0.3511
C148 C 0.6277(11) 1.1074(8) 0.1871(7)
H132 H 0.6795 1.0852 0.1910
C149 C 0.4017(14) 0.4555(8) 0.4895(5)
H133 H 0.4264 0.4156 0.4991
C157 C 0.2910(11) 0.6362(9) 0.4431(6)
C161 C 0.8013(10) 0.6574(9) 0.3112(6)
C167 C -0.0532(14) 0.3965(16) 0.4432(10)
H144 H -0.0940 0.3965 0.4257
C168 C -0.0455(11) 0.3382(17) 0.4804(9)
H145 H -0.0374 0.3035 0.4677
H146 H -0.0912 0.3377 0.5008
H147 H -0.0029 0.3365 0.4961
C170 C 0.0417(11) 0.8562(9) 0.2022(7)
H149 H 0.0035 0.8341 0.2207
H150 H 0.0187 0.8972 0.1892
H151 H 0.0802 0.8572 0.2201
C172 C 0.6134(13) 1.1536(9) 0.2149(7)
H155 H 0.6201 1.1331 0.2455
H156 H 0.5622 1.1753 0.2130
H157 H 0.6487 1.1820 0.2037
C174 C 0.1360(14) 0.8568(10) 0.1366(9)
H159 H 0.1552 0.8359 0.1135
H160 H 0.1768 0.8563 0.1534
H161 H 0.1151 0.8984 0.1234
C175 C 0.0762(15) 0.8262(8) 0.1667(8)
C176 C 0.0149(14) 0.8173(10) 0.1402(9)
H162 H -0.0238 0.7979 0.1607
H163 H 0.0383 0.7921 0.1202
H164 H -0.0078 0.8563 0.1232
C177 C 0.8301(12) 0.0641(10) 0.3356(13)
H165 H 0.8641 0.0866 0.3428
H166 H 0.8435 0.0608 0.3053
H167 H 0.8341 0.0240 0.3555
C178 C 1.1189(10) 0.6450(10) -0.0174(8)
H168 H 1.0929 0.6758 -0.0399
H169 H 1.1643 0.6247 -0.0312
H170 H 1.1323 0.6636 0.0038
C183 C 0.691(2) 0.0597(12) 0.3338(12)
H177 H 0.6901 0.0242 0.3585
H178 H 0.7093 0.0472 0.3066
H179 H 0.6398 0.0820 0.3316
C184 C 0.0804(14) 0.7232(9) 0.2169(7)
C191 C -0.0665(14) 0.4545(18) 0.4568(9)
H191 H -0.0727 0.4881 0.4309
H192 H -0.0237 0.4569 0.4708
H193 H -0.1117 0.4563 0.4775
Cl2 Cl 0.1523(5) 1.2388(5) 0.4512(6)
Cl3 Cl 0.2918(5) 1.1733(3) 0.4191(3)
Cl4 Cl 0.2779(6) 1.2073(4) 0.4994(3)
C173 C 0.2479(14) 1.2283(10) 0.4460(8)
H158 H 0.2647 1.2670 0.4297
O2 O 0.3704(4) 0.4901(4) 0.1434(3)
O4 O 0.5655(6) 0.7254(5) 0.3655(3)
O15 O 0.4899(6) 0.6550(5) 0.3785(4)
O17 O 0.3866(5) 0.5464(4) 0.0726(3)
N6 N 0.4534(6) 0.5581(5) 0.1223(3)
H5 H 0.4765 0.5811 0.0999
N24 N 0.5216(6) 0.7095(5) 0.3089(5)
H14 H 0.5452 0.7388 0.2937
C6 C 0.3344(9) 0.5144(7) 0.0606(5)
H20 H 0.3179 0.5368 0.0317
H21 H 0.2897 0.5131 0.0825
C11 C 0.4731(7) 0.5517(6) 0.1666(4)
H24 H 0.5231 0.5628 0.1643
H25 H 0.4756 0.5093 0.1832
C39 C 0.3685(8) 0.4522(7) 0.0587(5)
C87 C 0.5677(10) 0.7152(8) 0.4123(5)
H68 H 0.6092 0.7328 0.4175
H69 H 0.5772 0.6716 0.4257
C96 C 0.4310(10) 0.4415(9) 0.0261(5)
H76 H 0.4498 0.4744 0.0058
C97 C 0.4168(7) 0.5907(7) 0.1914(4)
H77 H 0.3673 0.5783 0.1946
H78 H 0.4127 0.6327 0.1739
C102 C 0.5137(8) 0.6046(8) 0.2363(5)
H81 H 0.5186 0.6390 0.2107
H82 H 0.5519 0.5708 0.2305
C108 C 0.4378(9) 0.5873(7) 0.2385(4)
H84 H 0.3996 0.6145 0.2524
H85 H 0.4376 0.5461 0.2571
C116 C 0.3717(14) 0.3435(10) 0.0823(7)
H93 H 0.3507 0.3110 0.1017
C125 C 0.4838(8) 0.6788(7) 0.2853(5)
H100 H 0.4705 0.7067 0.2572
H101 H 0.4369 0.6684 0.3031
C131 C 0.4293(17) 0.3331(12) 0.0521(10)
H108 H 0.4465 0.2935 0.0490
C142 C 0.4489(13) 0.7115(9) 0.4698(6)
H122 H 0.4645 0.6701 0.4816
C143 C 0.5331(9) 0.6211(8) 0.2759(6)
H123 H 0.5861 0.6267 0.2709
H124 H 0.5275 0.5875 0.3021
C150 C 0.4929(11) 0.7433(9) 0.4345(6)
C158 C 0.399(2) 0.8344(13) 0.4356(13)
H136 H 0.3800 0.8752 0.4234
C159 C 0.3835(14) 0.7402(18) 0.4871(8)
H137 H 0.3549 0.7173 0.5107
C162 C 0.4702(14) 0.8049(11) 0.4172(6)
H138 H 0.5004 0.8271 0.3941
C163 C 0.4006(9) 0.5296(7) 0.1148(6)
C164 C 0.3426(10) 0.4023(9) 0.0848(5)
H139 H 0.3019 0.4079 0.1063
C165 C 0.4647(11) 0.3810(14) 0.0249(8)
H140 H 0.5092 0.3734 0.0063
C180 C 0.3575(18) 0.799(2) 0.4728(12)
H172 H 0.3129 0.8167 0.4867
C187 C 0.5206(8) 0.6939(8) 0.3518(7)
Cl6 Cl 0.0079(8) 0.8008(6) 0.0185(4)
Cl13 Cl -0.1096(7) 0.8072(7) -0.0283(5)
Cl17 Cl -0.0939(11) 0.9078(8) 0.0017(11)
C188 C -0.067(2) 0.8268(13) 0.0273(18)
H184 H -0.0923 0.8112 0.0573
Cl8 Cl 0.0296(7) 0.2590(7) 0.2455(5)
Cl12 Cl 0.0317(8) 0.2568(7) 0.3321(5)
Cl16 Cl -0.0688(9) 0.1975(10) 0.3009(15)
C179 C -0.043(2) 0.2605(16) 0.294(2)
H171 H -0.0834 0.2962 0.2908
Cl9 Cl 0.0076(8) 0.8150(8) 0.4325(5)
Cl10 Cl 0.0026(9) 0.9344(7) 0.3766(9)
Cl11 Cl -0.0877(8) 0.8518(7) 0.3668(7)
C192 C -0.007(2) 0.8602(12) 0.3767(13)
H194 H 0.0326 0.8450 0.3553
O30 O 0.3908(13) 0.9676(10) 0.0227(8)
Cl14 Cl 0.6755(12) 0.8636(10) 0.3798(7)
Cl15 Cl 0.6879(14) 0.9280(12) 0.2892(7)
Cl18 Cl 0.5462(12) 0.9596(11) 0.3480(9)
C182 C 0.6207(15) 0.9024(15) 0.3349(8)
H176 H 0.5972 0.8720 0.3273
O32 O 0.403(3) 0.958(2) -0.0597(16)
O33 O 0.938(12) 0.061(12) 1.054(8)
O34 O 0.965(19) 0.972(7) 0.874(12)
O35 O 0.929(4) 0.0668(17) 0.9905(13)
Cl19 Cl 0.3681(6) 1.0276(5) 0.3900(4)
Cl20 Cl 0.2800(11) 1.1036(15) 0.3197(9)
C195 C 0.3682(13) 1.0542(12) 0.3316(8)
H201 H 0.3752 1.0200 0.3176
Cl21 Cl 0.4301(5) 1.1056(4) 0.3040(3)
O37 O 0.2995(11) 0.9780(9) -0.0449(6)
O38 O 0.179(2) 0.8104(19) 0.5702(18)
O39 O 0.834(3) 0.960(2) 0.212(3)
O40 O 0.767(3) -0.010(3) 0.493(2)
O42 O 0.164(6) 0.055(5) 0.287(4)
O43 O 0.830(6) 0.022(5) 0.114(3)
O44 O 0.191(3) 0.706(2) 0.5651(16)
O46 O 0.040(5) 0.007(4) 0.263(3)
O47 O 0.106(6) 0.085(7) 0.188(5)
O48 O 0.302(4) 1.030(3) 0.016(3)
O31? O 0.4705(17) 0.9203(13) -0.0376(9)
O41? O 0.122(6) 0.092(5) 0.241(5)
O45? O 0.876(8) 0.059(6) 1.042(5)
loop_
_geom_bond_atom_site_label_1
_geom_bond_atom_site_label_2
_geom_bond_site_symmetry_1
_geom_bond_site_symmetry_2
Cl1 C185 1_555 1_555
F1 C19 1_555 1_555
F2 C10 1_555 1_555
F3 C9 1_555 1_555
Cl2 C173 1_555 1_555
F4 C42 1_555 1_555
F5 C82 1_555 1_555
F6 C76 1_555 1_555
Cl3 C173 1_555 1_555
F7 C52 1_555 1_555
O1 C47 1_555 1_555
F8 C100 1_555 1_555
Cl4 C173 1_555 1_555
O2 C163 1_555 1_555
O3 C78 1_555 1_555
O4 C87 1_555 1_555
O5 C41 1_555 1_555
O6 C88 1_555 1_555
O7 C17 1_555 1_555
N1 H1 1_555 1_555
O8 C151 1_555 1_555
O9 C73 1_555 1_555
O10 C132 1_555 1_555
O11 C105 1_555 1_555
Cl5 C185 1_555 1_555
O12 C124 1_555 1_555
O13 C69 1_555 1_555
N2 H2 1_555 1_555
N3 C1 1_555 1_555
O14 C139 1_555 1_555
N4 H3 1_555 1_555
O15 C187 1_555 1_555
O16 C30 1_555 1_555
N5 H4 1_555 1_555
O17 C6 1_555 1_555
N6 H5 1_555 1_555
O18 C175 1_555 1_555
N7 C44 1_555 1_555
N8 C3 1_555 1_555
O19 C121 1_555 1_555
N9 H6 1_555 1_555
O20 C90 1_555 1_555
N10 C45 1_555 1_555
O21 C160 1_555 1_555
N11 H7 1_555 1_555
N12 C59 1_555 1_555
N13 C103 1_555 1_555
N14 H8 1_555 1_555
N15 C15 1_555 1_555
O22 C161 1_555 1_555
N16 C22 1_555 1_555
N17 C21 1_555 1_555
N18 H9 1_555 1_555
Cl6 C188 1_555 1_555
O23 C144 1_555 1_555
N19 H10 1_555 1_555
O24 C34 1_555 1_555
N20 C110 1_555 1_555
Cl7 C185 1_555 1_555
N21 H11 1_555 1_555
N22 H12 1_555 1_555
N23 H13 1_555 1_555
O25 C92 1_555 1_555
N24 H14 1_555 1_555
C1 C2 1_555 1_555
O26 C109 1_555 1_555
C2 C62 1_555 1_555
Cl8 C179 1_555 1_555
O27 C157 1_555 1_555
N25 C89 1_555 1_555
N26 H15 1_555 1_555
Cl9 C192 1_555 1_555
N27 C106 1_555 1_555
N28 H16 1_555 1_555
N29 H17 1_555 1_555
Cl10 C192 1_555 1_555
N30 H18 1_555 1_555
N31 C36 1_555 1_555
C3 C5 1_555 1_555
Cl11 C192 1_555 1_555
C4 H19 1_555 1_555
C5 C16 1_555 1_555
C6 H20 1_555 1_555
H21 C6 1_555 1_555
C7 H22 1_555 1_555
H23 C7 1_555 1_555
N32 C24 1_555 1_555
C8 N3 1_555 1_555
C9 C1 1_555 1_555
C10 C22 1_555 1_555
C11 N6 1_555 1_555
H24 C11 1_555 1_555
H25 C11 1_555 1_555
C12 H26 1_555 1_555
H27 C12 1_555 1_555
H28 C12 1_555 1_555
C13 H29 1_555 1_555
C14 N23 1_555 1_555
C15 N5 1_555 1_555
C16 C4 1_555 1_555
C17 N1 1_555 1_555
O28 C184 1_555 1_555
C18 C8 1_555 1_555
H30 C18 1_555 1_555
C19 C3 1_555 1_555
C20 N8 1_555 1_555
C21 C26 1_555 1_555
O29 C154 1_555 1_555
Cl12 C179 1_555 1_555
C22 C28 1_555 1_555
C23 H31 1_555 1_555
C24 C124 1_555 1_555
C25 C5 1_555 1_555
H32 C25 1_555 1_555
C26 C56 1_555 1_555
C27 H33 1_555 1_555
C28 C60 1_555 1_555
C29 N18 1_555 1_555
C30 H34 1_555 1_555
H35 C30 1_555 1_555
C31 N2 1_555 1_555
C32 N4 1_555 1_555
C33 H36 1_555 1_555
C34 H37 1_555 1_555
H38 C34 1_555 1_555
C35 N1 1_555 1_555
C36 C73 1_555 1_555
C37 C40 1_555 1_555
C38 C104 1_555 1_555
Cl13 C188 1_555 1_555
C39 C6 1_555 1_555
C40 H39 1_555 1_555
C41 C33 1_555 1_555
H40 C41 1_555 1_555
H41 C41 1_555 1_555
C42 C29 1_555 1_555
C43 C35 1_555 1_555
H42 C43 1_555 1_555
C44 C86 1_555 1_555
C45 C37 1_555 1_555
C46 H43 1_555 1_555
C47 H44 1_555 1_555
H45 C47 1_555 1_555
C48 C31 1_555 1_555
H46 C48 1_555 1_555
C49 H47 1_555 1_555
H48 C49 1_555 1_555
H49 C49 1_555 1_555
C50 N9 1_555 1_555
C51 C40 1_555 1_555
H50 C51 1_555 1_555
C52 C119 1_555 1_555
C53 H51 1_555 1_555
C54 C32 1_555 1_555
H52 C54 1_555 1_555
C55 N32 1_555 1_555
C56 O24 1_555 1_555
C57 H53 1_555 1_555
C58 C7 1_555 1_555
H54 C58 1_555 1_555
C59 C57 1_555 1_555
C60 O1 1_555 1_555
C61 C85 1_555 1_555
C62 O5 1_555 1_555
C63 C26 1_555 1_555
H55 C63 1_555 1_555
C64 C15 1_555 1_555
H56 C64 1_555 1_555
C65 C56 1_555 1_555
H57 C65 1_555 1_555
C66 C2 1_555 1_555
H58 C66 1_555 1_555
C67 N16 1_555 1_555
C68 C81 1_555 1_555
C69 C12 1_555 1_555
C70 O16 1_555 1_555
C71 C70 1_555 1_555
H59 C71 1_555 1_555
C72 N7 1_555 1_555
C73 N4 1_555 1_555
C74 C60 1_555 1_555
H60 C74 1_555 1_555
C75 N17 1_555 1_555
C76 C107 1_555 1_555
C77 H61 1_555 1_555
C78 N5 1_555 1_555
C79 H62 1_555 1_555
Cl14 C182 1_555 1_555
C80 C29 1_555 1_555
H63 C80 1_555 1_555
C81 N12 1_555 1_555
C82 C45 1_555 1_555
C83 C36 1_555 1_555
H64 C83 1_555 1_555
C84 C25 1_555 1_555
H65 C84 1_555 1_555
C85 C23 1_555 1_555
H66 C85 1_555 1_555
C86 H67 1_555 1_555
C87 H68 1_555 1_555
H69 C87 1_555 1_555
C88 H70 1_555 1_555
H71 C88 1_555 1_555
C89 N19 1_555 1_555
C90 N23 1_555 1_555
C91 C53 1_555 1_555
H72 C91 1_555 1_555
C92 C57 1_555 1_555
C93 C69 1_555 1_555
H73 C93 1_555 1_555
H74 C93 1_555 1_555
H75 C93 1_555 1_555
C94 O6 1_555 1_555
C95 C128 1_555 1_555
C96 C39 1_555 1_555
H76 C96 1_555 1_555
C97 C11 1_555 1_555
H77 C97 1_555 1_555
H78 C97 1_555 1_555
C98 C34 1_555 1_555
H79 C98 1_555 1_555
C99 N10 1_555 1_555
C100 C14 1_555 1_555
Cl15 C182 1_555 1_555
C101 C47 1_555 1_555
H80 C101 1_555 1_555
C102 H81 1_555 1_555
H82 C102 1_555 1_555
C103 N29 1_555 1_555
C104 C79 1_555 1_555
H83 C104 1_555 1_555
C105 N22 1_555 1_555
C106 N11 1_555 1_555
C107 N22 1_555 1_555
C108 C97 1_555 1_555
H84 C108 1_555 1_555
H85 C108 1_555 1_555
C109 N18 1_555 1_555
C110 C77 1_555 1_555
C111 N13 1_555 1_555
C112 H86 1_555 1_555
H87 C112 1_555 1_555
H88 C112 1_555 1_555
C113 O25 1_555 1_555
H89 C113 1_555 1_555
H90 C113 1_555 1_555
Cl16 C179 1_555 1_555
C114 C46 1_555 1_555
H91 C114 1_555 1_555
C115 H92 1_555 1_555
C116 H93 1_555 1_555
C117 C101 1_555 1_555
H94 C117 1_555 1_555
H95 C117 1_555 1_555
H96 C117 1_555 1_555
C118 C13 1_555 1_555
H97 C118 1_555 1_555
C119 N31 1_555 1_555
C120 C28 1_555 1_555
H98 C120 1_555 1_555
C121 N9 1_555 1_555
C122 N20 1_555 1_555
C123 C30 1_555 1_555
H99 C123 1_555 1_555
C124 N19 1_555 1_555
C125 N24 1_555 1_555
H100 C125 1_555 1_555
H101 C125 1_555 1_555
C126 C68 1_555 1_555
H102 C126 1_555 1_555
C127 C14 1_555 1_555
H103 C127 1_555 1_555
C128 H104 1_555 1_555
H105 C128 1_555 1_555
H106 C128 1_555 1_555
C129 C106 1_555 1_555
H107 C129 1_555 1_555
C130 N21 1_555 1_555
C131 C116 1_555 1_555
H108 C131 1_555 1_555
C132 C38 1_555 1_555
C133 N26 1_555 1_555
C134 C95 1_555 1_555
H109 C134 1_555 1_555
H110 C134 1_555 1_555
H111 C134 1_555 1_555
C135 N25 1_555 1_555
C136 H112 1_555 1_555
C137 C89 1_555 1_555
H113 C137 1_555 1_555
C138 C95 1_555 1_555
H114 C138 1_555 1_555
H115 C138 1_555 1_555
H116 C138 1_555 1_555
C139 N11 1_555 1_555
C140 O10 1_555 1_555
H117 C140 1_555 1_555
H118 C140 1_555 1_555
C141 H119 1_555 1_555
H120 C141 1_555 1_555
H121 C141 1_555 1_555
C142 H122 1_555 1_555
C143 C102 1_555 1_555
H123 C143 1_555 1_555
H124 C143 1_555 1_555
C144 N14 1_555 1_555
C145 H125 1_555 1_555
H126 C145 1_555 1_555
H127 C145 1_555 1_555
C146 C115 1_555 1_555
H128 C146 1_555 1_555
C147 C123 1_555 1_555
H129 C147 1_555 1_555
H130 C147 1_555 1_555
H131 C147 1_555 1_555
C148 C113 1_555 1_555
H132 C148 1_555 1_555
C149 C24 1_555 1_555
H133 C149 1_555 1_555
C150 C87 1_555 1_555
C151 N2 1_555 1_555
C152 C88 1_555 1_555
H134 C152 1_555 1_555
C153 N27 1_555 1_555
C154 N30 1_555 1_555
C155 C129 1_555 1_555
H135 C155 1_555 1_555
C156 C154 1_555 1_555
C157 N29 1_555 1_555
C158 H136 1_555 1_555
C159 C142 1_555 1_555
H137 C159 1_555 1_555
C160 O13 1_555 1_555
Cl17 C188 1_555 1_555
C161 N28 1_555 1_555
C162 C150 1_555 1_555
H138 C162 1_555 1_555
C163 O17 1_555 1_555
C164 C39 1_555 1_555
H139 C164 1_555 1_555
C165 C96 1_555 1_555
H140 C165 1_555 1_555
C166 C58 1_555 1_555
H141 C166 1_555 1_555
H142 C166 1_555 1_555
H143 C166 1_555 1_555
C167 C140 1_555 1_555
H144 C167 1_555 1_555
C168 C167 1_555 1_555
H145 C168 1_555 1_555
H146 C168 1_555 1_555
H147 C168 1_555 1_555
C169 C48 1_555 1_555
H148 C169 1_555 1_555
C170 H149 1_555 1_555
H150 C170 1_555 1_555
H151 C170 1_555 1_555
C171 C98 1_555 1_555
H152 C171 1_555 1_555
H153 C171 1_555 1_555
H154 C171 1_555 1_555
C172 C148 1_555 1_555
H155 C172 1_555 1_555
H156 C172 1_555 1_555
H157 C172 1_555 1_555
C173 H158 1_555 1_555
C174 H159 1_555 1_555
H160 C174 1_555 1_555
H161 C174 1_555 1_555
C175 C170 1_555 1_555
C176 C175 1_555 1_555
H162 C176 1_555 1_555
H163 C176 1_555 1_555
H164 C176 1_555 1_555
C177 C33 1_555 1_555
H165 C177 1_555 1_555
H166 C177 1_555 1_555
H167 C177 1_555 1_555
C178 C101 1_555 1_555
H168 C178 1_555 1_555
H169 C178 1_555 1_555
H170 C178 1_555 1_555
C179 H171 1_555 1_555
C180 C158 1_555 1_555
H172 C180 1_555 1_555
Cl18 C182 1_555 1_555
C181 C98 1_555 1_555
H173 C181 1_555 1_555
H174 C181 1_555 1_555
H175 C181 1_555 1_555
C182 H176 1_555 1_555
C183 C33 1_555 1_555
H177 C183 1_555 1_555
H178 C183 1_555 1_555
H179 C183 1_555 1_555
C184 O18 1_555 1_555
C185 H180 1_555 1_555
C186 C69 1_555 1_555
H181 C186 1_555 1_555
H182 C186 1_555 1_555
H183 C186 1_555 1_555
C187 O4 1_555 1_555
C188 H184 1_555 1_555
C189 C156 1_555 1_555
H185 C189 1_555 1_555
H186 C189 1_555 1_555
H187 C189 1_555 1_555
C190 C156 1_555 1_555
H188 C190 1_555 1_555
H189 C190 1_555 1_555
H190 C190 1_555 1_555
C191 C167 1_555 1_555
H191 C191 1_555 1_555
H192 C191 1_555 1_555
H193 C191 1_555 1_555
C192 H194 1_555 1_555
Cl19 C195 1_555 1_555
C193 C152 1_555 1_555
H195 C193 1_555 1_555
H196 C193 1_555 1_555
H197 C193 1_555 1_555
O36 C7 1_555 1_555
C194 C156 1_555 1_555
H198 C194 1_555 1_555
H199 C194 1_555 1_555
H200 C194 1_555 1_555
Cl20 C195 1_555 1_555
C195 H201 1_555 1_555
Cl21 C195 1_555 1_555
N6 C163 1_555 1_555
N14 C111 1_555 1_555
N15 C31 1_555 1_555
N21 C160 1_555 1_555
N24 C187 1_555 1_555
N26 C184 1_555 1_555
N28 C135 1_555 1_555
N30 C153 1_555 1_555
C4 C20 1_555 1_555
C8 C17 1_555 1_555
C9 C32 1_555 1_555
C10 C35 1_555 1_555
C13 C103 1_555 1_555
C16 O36 1_555 1_555
C18 C62 1_555 1_555
C19 C50 1_555 1_555
C20 C78 1_555 1_555
C21 C100 1_555 1_555
C23 C107 1_555 1_555
C27 C111 1_555 1_555
C27 C118 1_555 1_555
C37 C70 1_555 1_555
C38 C119 1_555 1_555
C42 C81 1_555 1_555
C43 C120 1_555 1_555
C44 C151 1_555 1_555
C46 C149 1_555 1_555
C49 C58 1_555 1_555
C50 C84 1_555 1_555
C51 C130 1_555 1_555
C52 C133 1_555 1_555
C53 C72 1_555 1_555
C54 C66 1_555 1_555
C55 C114 1_555 1_555
C55 C157 1_555 1_555
C59 C144 1_555 1_555
C61 C94 1_555 1_555
C61 C122 1_555 1_555
C63 C127 1_555 1_555
C64 C169 1_555 1_555
C65 C75 1_555 1_555
C67 C74 1_555 1_555
C67 C109 1_555 1_555
C68 C92 1_555 1_555
C71 C99 1_555 1_555
C72 C139 1_555 1_555
C75 C121 1_555 1_555
C76 C122 1_555 1_555
C77 C94 1_555 1_555
C79 C133 1_555 1_555
C80 C126 1_555 1_555
C82 C130 1_555 1_555
C83 C132 1_555 1_555
C86 C91 1_555 1_555
C90 C110 1_555 1_555
C95 C161 1_555 1_555
C99 C105 1_555 1_555
C102 C108 1_555 1_555
C112 C123 1_555 1_555
C115 C137 1_555 1_555
C116 C164 1_555 1_555
C125 C143 1_555 1_555
C131 C165 1_555 1_555
C135 C146 1_555 1_555
C136 C153 1_555 1_555
C136 C155 1_555 1_555
C141 C152 1_555 1_555
C142 C150 1_555 1_555
C145 C148 1_555 1_555
C158 C162 1_555 1_555
C159 C180 1_555 1_555
C174 C175 1_555 1_555

#END
