
#######################################################################
#
#                 Cambridge Crystallographic Data Centre
#                                CCDC 
#
#######################################################################
#
# If this CIF has been generated from an entry in the Cambridge 
# Structural Database, then it will include bibliographic, chemical, 
# crystal, experimental, refinement or atomic coordinate data resulting 
# from the CCDC's data processing and validation procedures.
#
#######################################################################

data_EWOGOM
_chemical_name_common            
'tetrakis(2,3,5,6-Tetrafluoro-4-iodophenoxymethyl)methane bis(trans-1,2-bis(4-pyridyl)ethylene)'
_chemical_formula_moiety         'C29 H8 F16 I4 O4,2(C12 H10 N2)'
_chemical_name_systematic        
'Pentaerythritoltetrakis(2,3,5,6-tetrafluoro-4-iodophenyl) ether bis(trans-1,2-bis(4-pyridyl)ethylene)'
_symmetry_cell_setting           monoclinic
_symmetry_space_group_name_H-M   'P 21/c'
_symmetry_Int_Tables_number      14
_space_group_name_Hall           '-P 2ybc'
loop_
_symmetry_equiv_pos_site_id
_symmetry_equiv_pos_as_xyz
1 x,y,z
2 -x,1/2+y,1/2-z
3 -x,-y,-z
4 x,1/2-y,1/2+z
_cell_length_a                   12.900(2)
_cell_length_b                   10.3505(17)
_cell_length_c                   20.172(3)
_cell_angle_alpha                90
_cell_angle_beta                 97.446(2)
_cell_angle_gamma                90
_cell_volume                     2670.68
_exptl_crystal_colour            colorless
_exptl_crystal_description       'oblique prism'
_cell_formula_units_Z            2
loop_
_atom_site_label
_atom_site_type_symbol
_atom_site_fract_x
_atom_site_fract_y
_atom_site_fract_z
C1 C 0.5876(5) 0.3295(7) 0.4739(4)
H1 H 0.6035 0.3312 0.4303
C2 C 0.6341(5) 0.4128(6) 0.5198(3)
H2 H 0.6820 0.4712 0.5064
N1 N 0.6156(2) 0.4166(3) 0.58328(19)
C3 C 0.5466(5) 0.3315(6) 0.6006(4)
H3 H 0.5319 0.3315 0.6445
C4 C 0.4960(5) 0.2436(6) 0.5567(3)
H4 H 0.4484 0.1860 0.5712
C5 C 0.5155(5) 0.2409(6) 0.4927(3)
C6 C 0.4531(5) 0.1518(6) 0.4443(3)
H5 H 0.3959 0.1107 0.4586
C7 C 0.4723(5) 0.1277(7) 0.3844(3)
H6 H 0.5282 0.1725 0.3705
C8 C 0.4169(5) 0.0379(6) 0.3347(3)
C9 C 0.4627(6) -0.0083(8) 0.2834(3)
H7 H 0.5304 0.0170 0.2783
C10 C 0.4101(6) -0.0923(7) 0.2388(4)
H8 H 0.4433 -0.1231 0.2037
N2 N 0.3134(3) -0.1316(3) 0.24370(18)
C11 C 0.2699(6) -0.0841(6) 0.2952(4)
H9 H 0.2022 -0.1098 0.3000
C12 C 0.3172(6) -0.0030(7) 0.3395(4)
H10 H 0.2826 0.0266 0.3742
I1 I 0.28116(2) 0.41699(2) 0.320874(12)
I2 I -0.21118(2) -0.67627(3) -0.160310(14)
F1 F 0.2861(2) 0.0895(3) 0.11521(13)
F2 F 0.37060(19) 0.2579(3) 0.20429(14)
F3 F 0.04767(18) 0.3036(2) 0.28764(12)
F4 F -0.03814(16) 0.1332(3) 0.19853(11)
F5 F -0.2048(2) -0.3086(2) 0.03046(13)
F6 F -0.2880(2) -0.5006(3) -0.04836(19)
F7 F 0.0171(2) -0.5395(3) -0.15154(15)
F8 F 0.1099(3) -0.3481(3) -0.07653(16)
C13 C 0.0000 0.0000 0.0000
C14 C -0.0163(5) 0.0142(6) 0.0716(3)
H11 H -0.0506 0.0959 0.0778
O1 O 0.0812(2) 0.0097(3) 0.11334(12)
C15 C 0.1213(3) 0.1058(3) 0.15469(16)
C16 C 0.2267(3) 0.1426(4) 0.15879(19)
C17 C 0.2693(3) 0.2283(4) 0.20380(19)
C18 C 0.2112(3) 0.2876(3) 0.24943(16)
C19 C 0.1087(3) 0.2506(3) 0.24548(16)
C20 C 0.0636(3) 0.1639(3) 0.19966(17)
C21 C -0.0700(5) -0.1097(6) 0.0240(4)
H12 H -0.1365 -0.1159 -0.0043
H13 H -0.0823 -0.0966 0.0700
O2 O -0.0006(2) -0.2313(2) 0.01697(14)
C22 C -0.0458(4) -0.3247(3) -0.02267(19)
C23 C -0.1449(4) -0.3676(4) -0.0159(2)
C24 C -0.1922(3) -0.4665(4) -0.0560(2)
C25 C -0.1401(3) -0.5252(3) -0.10155(19)
C26 C -0.0385(4) -0.4840(3) -0.10828(19)
C27 C 0.0075(3) -0.3859(4) -0.0692(2)
C14B C 0.0163(5) -0.0142(6) -0.0716(3)
H11B H 0.0506 -0.0959 -0.0778
O1B O -0.0812(2) -0.0097(3) -0.11334(12)
C15B C -0.1213(3) -0.1058(3) -0.15469(16)
C16B C -0.2267(3) -0.1426(4) -0.15879(19)
F1B F -0.2861(2) -0.0895(3) -0.11521(13)
C17B C -0.2693(3) -0.2283(4) -0.20380(19)
F2B F -0.37060(19) -0.2579(3) -0.20429(14)
C18B C -0.2112(3) -0.2876(3) -0.24943(16)
I1B I -0.28116(2) -0.41699(2) -0.320874(12)
C19B C -0.1087(3) -0.2506(3) -0.24548(16)
F3B F -0.04767(18) -0.3036(2) -0.28764(12)
C20B C -0.0636(3) -0.1639(3) -0.19966(17)
F4B F 0.03814(16) -0.1332(3) -0.19853(11)
C21B C 0.0700(5) 0.1097(6) -0.0240(4)
H12B H 0.1365 0.1159 0.0043
H13B H 0.0823 0.0966 -0.0700
O2B O 0.0006(2) 0.2313(2) -0.01697(14)
C22B C 0.0458(4) 0.3247(3) 0.02267(19)
C23B C 0.1449(4) 0.3676(4) 0.0159(2)
F5B F 0.2048(2) 0.3086(2) -0.03046(13)
C24B C 0.1922(3) 0.4665(4) 0.0560(2)
F6B F 0.2880(2) 0.5006(3) 0.04836(19)
C25B C 0.1401(3) 0.5252(3) 0.10155(19)
I2B I 0.21118(2) 0.67627(3) 0.160310(14)
C26B C 0.0385(4) 0.4840(3) 0.10828(19)
F7B F -0.0171(2) 0.5395(3) 0.15154(15)
C27B C -0.0075(3) 0.3859(4) 0.0692(2)
F8B F -0.1099(3) 0.3481(3) 0.07653(16)
C28? C 0.6092(10) 0.3613(15) 0.4707(8)
H14? H 0.6291 0.3806 0.4291
C29? C 0.6416(10) 0.4394(15) 0.5231(6)
H15? H 0.6830 0.5106 0.5166
C30? C 0.5557(9) 0.3119(11) 0.5883(8)
H16? H 0.5369 0.2948 0.6304
C31? C 0.5194(11) 0.2281(15) 0.5389(7)
H17? H 0.4780 0.1575 0.5468
C32? C 0.5471(10) 0.2532(14) 0.4769(7)
C33? C 0.5027(10) 0.1755(13) 0.4172(7)
H18? H 0.5396 0.1809 0.3806
C34? C 0.4221(11) 0.1031(13) 0.4088(7)
H19? H 0.3786 0.1042 0.4421
C35? C 0.3914(10) 0.0172(14) 0.3505(7)
C36? C 0.4488(13) -0.0020(17) 0.3011(8)
H20? H 0.5150 0.0344 0.3023
C37? C 0.4077(10) -0.0760(14) 0.2493(8)
H21? H 0.4479 -0.0893 0.2148
C38? C 0.2567(12) -0.1124(14) 0.2927(7)
H22? H 0.1906 -0.1494 0.2908
C39? C 0.2943(12) -0.0396(16) 0.3452(8)
H23? H 0.2534 -0.0270 0.3794
H24? H -0.0610 -0.0547 0.0838
C40? C 0.0981(5) 0.0098(6) 0.0457(3)
H25? H -0.1339 -0.0888 -0.0362
H26? H 0.1430 -0.0622 0.0378
C41? C 0.0734(7) -0.1219(7) -0.0074(4)
H27? H 0.1395 -0.1156 0.0214
H28? H -0.0861 0.1350 0.0533
loop_
_geom_bond_atom_site_label_1
_geom_bond_atom_site_label_2
_geom_bond_site_symmetry_1
_geom_bond_site_symmetry_2
C1 H1 1_555 1_555
C2 C1 1_555 1_555
H2 C2 1_555 1_555
N1 C2 1_555 1_555
C3 N1 1_555 1_555
H3 C3 1_555 1_555
C4 C3 1_555 1_555
H4 C4 1_555 1_555
C5 C1 1_555 1_555
C6 C5 1_555 1_555
H5 C6 1_555 1_555
C7 C6 1_555 1_555
H6 C7 1_555 1_555
C8 C7 1_555 1_555
C9 C8 1_555 1_555
H7 C9 1_555 1_555
C10 C9 1_555 1_555
H8 C10 1_555 1_555
N2 C10 1_555 1_555
C11 N2 1_555 1_555
H9 C11 1_555 1_555
C12 C8 1_555 1_555
H10 C12 1_555 1_555
I1 C18 1_555 1_555
I2 C25 1_555 1_555
F1 C16 1_555 1_555
F2 C17 1_555 1_555
F3 C19 1_555 1_555
F4 C20 1_555 1_555
F5 C23 1_555 1_555
F6 C24 1_555 1_555
F7 C26 1_555 1_555
F8 C27 1_555 1_555
C13 C14 1_555 1_555
C14 H11 1_555 1_555
O1 C14 1_555 1_555
C15 O1 1_555 1_555
C16 C15 1_555 1_555
C17 C16 1_555 1_555
C18 C17 1_555 1_555
C19 C18 1_555 1_555
C20 C15 1_555 1_555
C21 C13 1_555 1_555
H12 C21 1_555 1_555
H13 C21 1_555 1_555
O2 C21 1_555 1_555
C22 O2 1_555 1_555
C23 C22 1_555 1_555
C24 C23 1_555 1_555
C25 C24 1_555 1_555
C26 C25 1_555 1_555
C27 C22 1_555 1_555
C14B C13 1_555 1_555
H11B C14B 1_555 1_555
O1B C14B 1_555 1_555
C15B O1B 1_555 1_555
C16B C15B 1_555 1_555
F1B C16B 1_555 1_555
C17B C16B 1_555 1_555
F2B C17B 1_555 1_555
C18B C17B 1_555 1_555
I1B C18B 1_555 1_555
C19B C18B 1_555 1_555
F3B C19B 1_555 1_555
C20B C15B 1_555 1_555
F4B C20B 1_555 1_555
C21B C13 1_555 1_555
H12B C21B 1_555 1_555
H13B C21B 1_555 1_555
O2B C21B 1_555 1_555
C22B O2B 1_555 1_555
C23B C22B 1_555 1_555
F5B C23B 1_555 1_555
C24B C23B 1_555 1_555
F6B C24B 1_555 1_555
C25B C24B 1_555 1_555
I2B C25B 1_555 1_555
C26B C25B 1_555 1_555
F7B C26B 1_555 1_555
C27B C22B 1_555 1_555
F8B C27B 1_555 1_555
C4 C5 1_555 1_555
C11 C12 1_555 1_555
C19 C20 1_555 1_555
C26 C27 1_555 1_555
C19B C20B 1_555 1_555
C26B C27B 1_555 1_555

#END
