
#######################################################################
#
#                 Cambridge Crystallographic Data Centre
#                                CCDC 
#
#######################################################################
#
# If this CIF has been generated from an entry in the Cambridge 
# Structural Database, then it will include bibliographic, chemical, 
# crystal, experimental, refinement or atomic coordinate data resulting 
# from the CCDC's data processing and validation procedures.
#
#######################################################################

data_EWOHUV
_chemical_formula_moiety         'C14 H25 N5 O3'
_chemical_name_systematic        
N,1,3,9-tetraethyl-2,4-dioxo-1,3,6,9-tetraazaspiro[4.4]nonane-6-carboxamide
_symmetry_cell_setting           orthorhombic
_symmetry_space_group_name_H-M   'P b c a'
_symmetry_Int_Tables_number      61
_space_group_name_Hall           '-P 2ac 2ab'
loop_
_symmetry_equiv_pos_site_id
_symmetry_equiv_pos_as_xyz
1 x,y,z
2 1/2-x,-y,1/2+z
3 1/2+x,1/2-y,-z
4 -x,1/2+y,1/2-z
5 -x,-y,-z
6 1/2+x,y,1/2-z
7 1/2-x,1/2+y,z
8 x,1/2-y,1/2+z
_cell_length_a                   16.6729(16)
_cell_length_b                   9.3071(8)
_cell_length_c                   22.318(2)
_cell_angle_alpha                90
_cell_angle_beta                 90
_cell_angle_gamma                90
_cell_volume                     3463.23
_exptl_crystal_colour            colorless
_exptl_crystal_description       needle
_cell_formula_units_Z            8
loop_
_atom_site_label
_atom_site_type_symbol
_atom_site_fract_x
_atom_site_fract_y
_atom_site_fract_z
C1 C 0.90024(18) -0.1564(3) 0.63595(13)
C2 C 0.87811(18) 0.0820(3) 0.61031(13)
C3 C 0.95389(18) -0.0529(3) 0.67334(14)
C4 C 0.97164(19) 0.2105(3) 0.68106(15)
H1 H 0.9759 0.1955 0.7240
H2 H 0.9346 0.2892 0.6744
C5 C 1.0528(2) 0.2512(4) 0.65668(17)
H3 H 1.0714 0.3367 0.6763
H4 H 1.0488 0.2683 0.6144
H5 H 1.0900 0.1743 0.6638
C6 C 0.79525(19) -0.0953(4) 0.55636(15)
H6 H 0.7520 -0.0259 0.5594
H7 H 0.7742 -0.1883 0.5680
C7 C 0.8235(3) -0.1027(5) 0.49170(16)
H8 H 0.7794 -0.1293 0.4664
H9 H 0.8654 -0.1729 0.4882
H10 H 0.8435 -0.0104 0.4797
C8 C 1.0178(2) -0.2153(3) 0.57342(16)
H11 H 1.0572 -0.1966 0.6045
H12 H 1.0078 -0.1259 0.5523
C9 C 1.0511(3) -0.3254(4) 0.52989(18)
H13 H 1.0997 -0.2894 0.5124
H14 H 1.0125 -0.3431 0.4988
H15 H 1.0620 -0.4133 0.5508
C10 C 0.9496(2) -0.3934(3) 0.63831(16)
H16 H 0.9935 -0.3851 0.6666
H17 H 0.9574 -0.4789 0.6141
C11 C 0.8692(2) -0.3968(3) 0.67023(15)
H18 H 0.8294 -0.4493 0.6472
H19 H 0.8738 -0.4394 0.7097
C12 C 0.80081(17) -0.1793(3) 0.71577(13)
C13 C 0.69783(18) -0.2121(3) 0.79209(14)
H20 H 0.6581 -0.2853 0.8010
H21 H 0.6700 -0.1307 0.7747
C14 C 0.7363(2) -0.1658(5) 0.84927(17)
H22 H 0.6960 -0.1299 0.8761
H23 H 0.7746 -0.0913 0.8411
H24 H 0.7630 -0.2462 0.8674
N1 N 0.85896(15) -0.0549(3) 0.59741(10)
N2 N 0.93979(14) 0.0814(2) 0.65338(11)
N3 N 0.84930(15) -0.2439(3) 0.67390(11)
N4 N 0.94315(16) -0.2656(3) 0.60105(11)
N5 N 0.75391(16) -0.2687(3) 0.74828(11)
O1 O 0.84914(13) 0.1911(2) 0.58900(10)
O2 O 1.00113(13) -0.0892(2) 0.71225(9)
O3 O 0.80138(12) -0.0486(2) 0.72248(9)
H25 H 0.7507(16) -0.358(3) 0.7382(12)
loop_
_geom_bond_atom_site_label_1
_geom_bond_atom_site_label_2
_geom_bond_site_symmetry_1
_geom_bond_site_symmetry_2
C1 C3 1_555 1_555
C2 N1 1_555 1_555
C3 N2 1_555 1_555
C4 H1 1_555 1_555
H2 C4 1_555 1_555
C5 C4 1_555 1_555
H3 C5 1_555 1_555
H4 C5 1_555 1_555
H5 C5 1_555 1_555
C6 H6 1_555 1_555
H7 C6 1_555 1_555
C7 C6 1_555 1_555
H8 C7 1_555 1_555
H9 C7 1_555 1_555
H10 C7 1_555 1_555
C8 H11 1_555 1_555
H12 C8 1_555 1_555
C9 C8 1_555 1_555
H13 C9 1_555 1_555
H14 C9 1_555 1_555
H15 C9 1_555 1_555
C10 H16 1_555 1_555
H17 C10 1_555 1_555
C11 C10 1_555 1_555
H18 C11 1_555 1_555
H19 C11 1_555 1_555
C12 N3 1_555 1_555
C13 H20 1_555 1_555
H21 C13 1_555 1_555
C14 C13 1_555 1_555
H22 C14 1_555 1_555
H23 C14 1_555 1_555
H24 C14 1_555 1_555
N1 C1 1_555 1_555
N2 C2 1_555 1_555
N3 C1 1_555 1_555
N4 C1 1_555 1_555
N5 C12 1_555 1_555
O1 C2 1_555 1_555
O2 C3 1_555 1_555
O3 C12 1_555 1_555
H25 N5 1_555 1_555
C4 N2 1_555 1_555
C6 N1 1_555 1_555
C8 N4 1_555 1_555
C10 N4 1_555 1_555
C11 N3 1_555 1_555
C13 N5 1_555 1_555

#END
