
#######################################################################
#
#                 Cambridge Crystallographic Data Centre
#                                CCDC 
#
#######################################################################
#
# If this CIF has been generated from an entry in the Cambridge 
# Structural Database, then it will include bibliographic, chemical, 
# crystal, experimental, refinement or atomic coordinate data resulting 
# from the CCDC's data processing and validation procedures.
#
#######################################################################

data_EWOHIJ
_chemical_formula_moiety         'C20 H16 Br1 N1 O3'
_chemical_name_systematic        
1-(4-bromophenyl)-7-methoxy-3-phenyl-6,7-dihydropyrano[3,4-c]pyrrol-4(2H)-one
_symmetry_cell_setting           monoclinic
_symmetry_space_group_name_H-M   'P 21/c'
_symmetry_Int_Tables_number      14
_space_group_name_Hall           '-P 2ybc'
loop_
_symmetry_equiv_pos_site_id
_symmetry_equiv_pos_as_xyz
1 x,y,z
2 -x,1/2+y,1/2-z
3 -x,-y,-z
4 x,1/2-y,1/2+z
_cell_length_a                   4.2880(5)
_cell_length_b                   27.2739(16)
_cell_length_c                   14.6976(9)
_cell_angle_alpha                90
_cell_angle_beta                 90.213(8)
_cell_angle_gamma                90
_cell_volume                     1718.88
_exptl_crystal_description       block
_cell_formula_units_Z            4
loop_
_atom_site_label
_atom_site_type_symbol
_atom_site_fract_x
_atom_site_fract_y
_atom_site_fract_z
Br1 Br 0.12592(10) 0.514860(12) 0.31973(2)
O1 O -0.3002(6) 0.71303(8) -0.20062(13)
O2 O -0.5331(7) 0.78277(9) -0.17232(15)
O3 O -0.4777(6) 0.61937(7) -0.10093(14)
N1 N -0.3333(7) 0.73394(9) 0.10437(16)
H1 H -0.3411 0.7428 0.1605
C1 C -0.3986(9) 0.74776(12) -0.1400(2)
C2 C -0.3463(8) 0.73601(11) -0.04502(19)
C3 C -0.2750(8) 0.68750(10) -0.01695(19)
C4 C -0.2045(8) 0.64859(11) -0.0846(2)
H2 H -0.0368 0.6276 -0.0611
C5 C -0.0960(9) 0.67396(12) -0.1704(2)
H3 H 0.1105 0.6874 -0.1598
H4 H -0.0792 0.6498 -0.2186
C6 C -0.4095(11) 0.57374(13) -0.1426(3)
H5 H -0.3150 0.5793 -0.2008
H6 H -0.5989 0.5554 -0.1506
H7 H -0.2684 0.5555 -0.1046
C7 C -0.2697(8) 0.68690(11) 0.0754(2)
C8 C -0.1869(8) 0.64662(11) 0.1376(2)
C9 C -0.2791(9) 0.59893(11) 0.1175(2)
H8 H -0.4042 0.5931 0.0668
C10 C -0.1880(9) 0.56026(12) 0.1714(2)
H9 H -0.2490 0.5285 0.1569
C11 C -0.0064(9) 0.56900(11) 0.2467(2)
C12 C 0.0887(9) 0.61574(11) 0.2698(2)
H10 H 0.2117 0.6212 0.3210
C13 C -0.0036(9) 0.65433(11) 0.2146(2)
H11 H 0.0581 0.6860 0.2293
C14 C -0.3823(8) 0.76459(11) 0.0320(2)
C15 C -0.4481(8) 0.81726(11) 0.04337(19)
C16 C -0.6260(9) 0.83432(11) 0.1152(2)
H12 H -0.7080 0.8124 0.1573
C17 C -0.6812(10) 0.88424(12) 0.1242(2)
H13 H -0.7990 0.8957 0.1728
C18 C -0.5638(9) 0.91691(12) 0.0620(2)
H14 H -0.6051 0.9502 0.0679
C19 C -0.3856(10) 0.90033(12) -0.0088(2)
H15 H -0.3060 0.9224 -0.0510
C20 C -0.3239(9) 0.85071(11) -0.0176(2)
H16 H -0.1981 0.8397 -0.0647
loop_
_geom_bond_atom_site_label_1
_geom_bond_atom_site_label_2
_geom_bond_site_symmetry_1
_geom_bond_site_symmetry_2
Br1 C11 1_555 1_555
O1 C1 1_555 1_555
O2 C1 1_555 1_555
O3 C4 1_555 1_555
N1 H1 1_555 1_555
C1 C2 1_555 1_555
C2 C3 1_555 1_555
C3 C4 1_555 1_555
C4 H2 1_555 1_555
C5 O1 1_555 1_555
H3 C5 1_555 1_555
H4 C5 1_555 1_555
C6 O3 1_555 1_555
H5 C6 1_555 1_555
H6 C6 1_555 1_555
H7 C6 1_555 1_555
C7 N1 1_555 1_555
C8 C7 1_555 1_555
C9 C8 1_555 1_555
H8 C9 1_555 1_555
C10 C9 1_555 1_555
H9 C10 1_555 1_555
C11 C10 1_555 1_555
C12 C11 1_555 1_555
H10 C12 1_555 1_555
C13 C8 1_555 1_555
H11 C13 1_555 1_555
C14 N1 1_555 1_555
C15 C14 1_555 1_555
C16 C15 1_555 1_555
H12 C16 1_555 1_555
C17 C16 1_555 1_555
H13 C17 1_555 1_555
C18 C17 1_555 1_555
H14 C18 1_555 1_555
C19 C18 1_555 1_555
H15 C19 1_555 1_555
C20 C15 1_555 1_555
H16 C20 1_555 1_555
C2 C14 1_555 1_555
C3 C7 1_555 1_555
C4 C5 1_555 1_555
C12 C13 1_555 1_555
C19 C20 1_555 1_555

#END
