
#######################################################################
#
#                 Cambridge Crystallographic Data Centre
#                                CCDC 
#
#######################################################################
#
# If this CIF has been generated from an entry in the Cambridge 
# Structural Database, then it will include bibliographic, chemical, 
# crystal, experimental, refinement or atomic coordinate data resulting 
# from the CCDC's data processing and validation procedures.
#
#######################################################################

data_EWOHII
_chemical_formula_moiety         'C22 H19 N3 2+,4(H2 O1),2(Cl1 1-)'
_chemical_name_systematic        
"2,2'-[4-(4-methylphenyl)pyridine-2,6-diyl]dipyridinium dichloride tetrahydrate"
_symmetry_cell_setting           triclinic
_symmetry_space_group_name_H-M   'P -1'
_symmetry_Int_Tables_number      2
_space_group_name_Hall           '-P 1'
loop_
_symmetry_equiv_pos_site_id
_symmetry_equiv_pos_as_xyz
1 x,y,z
2 -x,-y,-z
_cell_length_a                   7.9275(4)
_cell_length_b                   11.4889(6)
_cell_length_c                   13.6930(7)
_cell_angle_alpha                71.0030(10)
_cell_angle_beta                 73.2670(10)
_cell_angle_gamma                82.7500(10)
_cell_volume                     1128.55
_exptl_crystal_colour            yellow
_exptl_crystal_description       plate
_cell_formula_units_Z            2
loop_
_atom_site_label
_atom_site_type_symbol
_atom_site_fract_x
_atom_site_fract_y
_atom_site_fract_z
C1 C 0.75567(18) 0.00189(11) 0.86861(11)
H1 H 0.6665 -0.0511 0.8704
H2 H 0.7317 0.0154 0.9385
H3 H 0.8727 -0.0379 0.8521
C2 C 0.74977(15) 0.12373(10) 0.78378(9)
C3 C 0.87584(15) 0.15203(10) 0.68520(9)
H4 H 0.9688 0.0937 0.6720
C4 C 0.86900(14) 0.26362(10) 0.60570(9)
H5 H 0.9558 0.2796 0.5390
C5 C 0.73557(13) 0.35244(9) 0.62312(8)
C6 C 0.60931(14) 0.32417(10) 0.72283(9)
H6 H 0.5175 0.3829 0.7370
C7 C 0.61640(15) 0.21214(10) 0.80084(9)
H7 H 0.5287 0.1953 0.8672
C8 C 0.72677(13) 0.47243(9) 0.53987(8)
C9 C 0.83133(14) 0.49512(10) 0.43401(8)
H8 H 0.9114 0.4332 0.4134
C10 C 0.81599(13) 0.60982(9) 0.35953(8)
C11 C 0.60147(13) 0.67762(9) 0.48295(8)
C12 C 0.61150(14) 0.56820(9) 0.56365(8)
H9 H 0.5405 0.5584 0.6346
C13 C 0.47296(13) 0.77865(9) 0.50208(8)
C14 C 0.35208(15) 0.77584(10) 0.59869(9)
H10 H 0.3489 0.7058 0.6598
C15 C 0.23544(15) 0.87560(11) 0.60605(9)
H11 H 0.1530 0.8744 0.6723
C16 C 0.24002(15) 0.97720(10) 0.51596(9)
H12 H 0.1603 1.0457 0.5197
C17 C 0.36209(15) 0.97694(10) 0.42129(9)
H13 H 0.3669 1.0455 0.3589
C18 C 0.92585(14) 0.64199(9) 0.24715(8)
C19 C 1.05943(15) 0.56820(10) 0.20502(9)
H14 H 1.0875 0.4894 0.2489
C20 C 1.15221(16) 0.61010(11) 0.09805(10)
H15 H 1.2436 0.5595 0.0687
C21 C 1.11250(16) 0.72510(11) 0.03384(9)
H16 H 1.1751 0.7540 -0.0395
C22 C 0.98030(15) 0.79646(11) 0.07871(9)
H17 H 0.9513 0.8760 0.0364
N1 N 0.70193(11) 0.69981(8) 0.38233(7)
N2 N 0.47411(12) 0.87981(8) 0.41727(7)
H18 H 0.5523 0.8822 0.3562
N3 N 0.89229(12) 0.75391(8) 0.18196(7)
H19 H 0.8081 0.8014 0.2088
Cl1 Cl 0.17631(4) 0.26366(2) 0.34227(2)
Cl2 Cl 0.70317(4) 0.00504(2) 0.18956(2)
O1 O 0.31700(14) 0.55218(10) 0.83029(8)
H22 H 0.372(2) 0.5953(17) 0.8410(14)
H23 H 0.316(3) 0.489(2) 0.878(2)
O2 O 0.00097(14) 0.69353(10) 0.84459(8)
H24 H -0.037(3) 0.7028(18) 0.7938(16)
H25 H 0.104(4) 0.639(2) 0.837(2)
O3 O 0.49595(13) 0.26733(9) 0.14711(8)
H20 H 0.541(3) 0.1920(19) 0.1624(15)
H21 H 0.403(3) 0.2633(19) 0.2013(18)
O4 O 0.70006(16) 0.66897(10) 1.01211(9)
H26 H 0.636(3) 0.6807(18) 0.9823(16)
H27 H 0.806(4) 0.670(2) 0.960(2)
loop_
_geom_bond_atom_site_label_1
_geom_bond_atom_site_label_2
_geom_bond_site_symmetry_1
_geom_bond_site_symmetry_2
C1 H1 1_555 1_555
H2 C1 1_555 1_555
H3 C1 1_555 1_555
C2 C1 1_555 1_555
C3 C2 1_555 1_555
H4 C3 1_555 1_555
C4 C3 1_555 1_555
H5 C4 1_555 1_555
C5 C4 1_555 1_555
C6 C5 1_555 1_555
H6 C6 1_555 1_555
C7 C2 1_555 1_555
H7 C7 1_555 1_555
C8 C5 1_555 1_555
C9 C8 1_555 1_555
H8 C9 1_555 1_555
C10 C9 1_555 1_555
C11 C12 1_555 1_555
C12 C8 1_555 1_555
H9 C12 1_555 1_555
C13 C11 1_555 1_555
C14 C13 1_555 1_555
H10 C14 1_555 1_555
C15 C14 1_555 1_555
H11 C15 1_555 1_555
C16 C15 1_555 1_555
H12 C16 1_555 1_555
C17 C16 1_555 1_555
H13 C17 1_555 1_555
C18 C10 1_555 1_555
C19 C18 1_555 1_555
H14 C19 1_555 1_555
C20 C19 1_555 1_555
H15 C20 1_555 1_555
C21 C20 1_555 1_555
H16 C21 1_555 1_555
C22 C21 1_555 1_555
H17 C22 1_555 1_555
N1 C10 1_555 1_555
N2 C13 1_555 1_555
H18 N2 1_555 1_555
N3 C18 1_555 1_555
H19 N3 1_555 1_555
O1 H22 1_555 1_555
O2 H24 1_555 1_555
O3 H20 1_555 1_555
O4 H26 1_555 1_555
H21 O3 1_555 1_555
H23 O1 1_555 1_555
H25 O2 1_555 1_555
H27 O4 1_555 1_555
C6 C7 1_555 1_555
C11 N1 1_555 1_555
C17 N2 1_555 1_555
C22 N3 1_555 1_555

#END
