
#######################################################################
#
#                 Cambridge Crystallographic Data Centre
#                                CCDC 
#
#######################################################################
#
# If this CIF has been generated from an entry in the Cambridge 
# Structural Database, then it will include bibliographic, chemical, 
# crystal, experimental, refinement or atomic coordinate data resulting 
# from the CCDC's data processing and validation procedures.
#
#######################################################################

data_EWOJEH
_chemical_formula_moiety         'C20 H22 N4 O2,C1 H1 Cl3'
_chemical_name_systematic        
"2-(1-ethylimidazolidin-2-ylidene)-N,N'-diphenylmalonamide chloroform solvate"
_symmetry_cell_setting           monoclinic
_symmetry_space_group_name_H-M   'P 21/n'
_symmetry_Int_Tables_number      14
_space_group_name_Hall           '-P 2yn'
loop_
_symmetry_equiv_pos_site_id
_symmetry_equiv_pos_as_xyz
1 x,y,z
2 1/2-x,1/2+y,1/2-z
3 -x,-y,-z
4 1/2+x,1/2-y,1/2+z
_cell_length_a                   11.3215(4)
_cell_length_b                   10.1160(4)
_cell_length_c                   19.2521(7)
_cell_angle_alpha                90
_cell_angle_beta                 102.611(4)
_cell_angle_gamma                90
_cell_volume                     2151.72
_exptl_crystal_colour            colorless
_exptl_crystal_description       prism
_cell_formula_units_Z            4
loop_
_atom_site_label
_atom_site_type_symbol
_atom_site_fract_x
_atom_site_fract_y
_atom_site_fract_z
H1 H 0.5016(16) 0.1813(16) 0.0970(10)
H2 H 0.6320(16) 0.2550(16) -0.0793(9)
H3 H 0.3321(17) -0.023(2) -0.0765(10)
C1 C 0.50811(15) 0.12252(17) -0.08844(9)
C2 C 0.53465(15) 0.27400(17) 0.01819(9)
C3 C 0.45896(15) 0.18428(17) -0.03230(9)
C4 C 0.34619(15) 0.13707(17) -0.02140(8)
C5 C 0.17724(15) 0.00061(19) -0.03461(10)
H4 H 0.1757 -0.0824 -0.0096
H5 H 0.1146 -0.0005 -0.0780
C6 C 0.16218(16) 0.1175(2) 0.01212(10)
H6 H 0.0912 0.1689 -0.0092
H7 H 0.1546 0.0882 0.0589
C7 C 0.26692(16) 0.33683(18) 0.03202(10)
H8 H 0.1960 0.3744 0.0007
H9 H 0.3377 0.3806 0.0221
C8 C 0.26068(17) 0.3631(2) 0.10884(10)
H10 H 0.2566 0.4566 0.1164
H11 H 0.3316 0.3278 0.1400
H12 H 0.1899 0.3214 0.1187
C9 C 0.68797(15) 0.12750(18) -0.14349(9)
C10 C 0.66486(17) 0.0157(2) -0.18600(10)
H13 H 0.5901 -0.0262 -0.1925
C11 C 0.75333(18) -0.0337(2) -0.21896(10)
H14 H 0.7376 -0.1096 -0.2467
C12 C 0.86422(17) 0.0281(2) -0.21118(10)
H15 H 0.9233 -0.0060 -0.2330
C13 C 0.88560(17) 0.1415(2) -0.17041(10)
H16 H 0.9594 0.1850 -0.1655
C14 C 0.79892(16) 0.19137(19) -0.13683(9)
H17 H 0.8148 0.2679 -0.1097
C15 C 0.57881(14) 0.34157(17) 0.14498(9)
C16 C 0.62022(15) 0.28456(18) 0.21152(9)
H18 H 0.6137 0.1938 0.2173
C17 C 0.67125(15) 0.36335(19) 0.26927(9)
H19 H 0.6998 0.3251 0.3137
C18 C 0.67987(15) 0.49849(19) 0.26105(9)
H20 H 0.7153 0.5510 0.2997
C19 C 0.63561(15) 0.55528(18) 0.19520(9)
H21 H 0.6401 0.6464 0.1900
C20 C 0.58461(15) 0.47808(18) 0.13694(9)
H22 H 0.5545 0.5170 0.0929
N1 N 0.60689(13) 0.18250(16) -0.10502(8)
N2 N 0.52620(13) 0.25840(15) 0.08762(7)
N3 N 0.29516(13) 0.02495(16) -0.04956(8)
N4 N 0.27318(12) 0.19557(15) 0.01673(8)
O1 O 0.46536(10) 0.01968(12) -0.12001(6)
O2 O 0.60729(10) 0.35456(12) 0.00211(6)
C21 C 0.88059(18) 0.40481(19) 0.11146(11)
H23 H 0.7921 0.4091 0.1030
Cl1 Cl 0.94077(5) 0.56009(5) 0.14239(3)
Cl2 Cl 0.92206(4) 0.36575(5) 0.03100(3)
Cl3 Cl 0.93244(6) 0.28287(6) 0.17514(3)
loop_
_geom_bond_atom_site_label_1
_geom_bond_atom_site_label_2
_geom_bond_site_symmetry_1
_geom_bond_site_symmetry_2
H1 N2 1_555 1_555
H2 N1 1_555 1_555
H3 N3 1_555 1_555
C1 C3 1_555 1_555
C2 C3 1_555 1_555
C3 C4 1_555 1_555
C4 N3 1_555 1_555
C5 H4 1_555 1_555
H5 C5 1_555 1_555
C6 C5 1_555 1_555
H6 C6 1_555 1_555
H7 C6 1_555 1_555
C7 H8 1_555 1_555
H9 C7 1_555 1_555
C8 C7 1_555 1_555
H10 C8 1_555 1_555
H11 C8 1_555 1_555
H12 C8 1_555 1_555
C9 C10 1_555 1_555
C10 H13 1_555 1_555
C11 C10 1_555 1_555
H14 C11 1_555 1_555
C12 C11 1_555 1_555
H15 C12 1_555 1_555
C13 C12 1_555 1_555
H16 C13 1_555 1_555
C14 C9 1_555 1_555
H17 C14 1_555 1_555
C15 C16 1_555 1_555
C16 H18 1_555 1_555
C17 C16 1_555 1_555
H19 C17 1_555 1_555
C18 C17 1_555 1_555
H20 C18 1_555 1_555
C19 C18 1_555 1_555
H21 C19 1_555 1_555
C20 C15 1_555 1_555
H22 C20 1_555 1_555
N1 C1 1_555 1_555
N2 C2 1_555 1_555
N3 C5 1_555 1_555
N4 C4 1_555 1_555
O1 C1 1_555 1_555
O2 C2 1_555 1_555
C21 H23 1_555 1_555
Cl1 C21 1_555 1_555
Cl2 C21 1_555 1_555
Cl3 C21 1_555 1_555
C6 N4 1_555 1_555
C7 N4 1_555 1_555
C9 N1 1_555 1_555
C13 C14 1_555 1_555
C15 N2 1_555 1_555
C19 C20 1_555 1_555

#END
