
#######################################################################
#
#                 Cambridge Crystallographic Data Centre
#                                CCDC 
#
#######################################################################
#
# If this CIF has been generated from an entry in the Cambridge 
# Structural Database, then it will include bibliographic, chemical, 
# crystal, experimental, refinement or atomic coordinate data resulting 
# from the CCDC's data processing and validation procedures.
#
#######################################################################

data_EWOLUX
_chemical_formula_moiety         'C14 H16 N2'
_chemical_name_systematic        4-Isopropyl-N-(2-pyrrolylmethylene)aniline
_symmetry_cell_setting           monoclinic
_symmetry_space_group_name_H-M   'P 21/c'
_symmetry_Int_Tables_number      14
_space_group_name_Hall           '-P 2ybc'
loop_
_symmetry_equiv_pos_site_id
_symmetry_equiv_pos_as_xyz
1 x,y,z
2 x,1/2-y,1/2+z
3 -x,-y,-z
4 -x,1/2+y,1/2-z
_cell_length_a                   8.914(1)
_cell_length_b                   16.906(3)
_cell_length_c                   8.625(1)
_cell_angle_alpha                90
_cell_angle_beta                 112.059(3)
_cell_angle_gamma                90
_cell_volume                     1204.64
_exptl_crystal_colour            colorless
_exptl_crystal_description       prism
_cell_formula_units_Z            4
_exptl_crystal_recrystallization_method ethanol
loop_
_atom_site_label
_atom_site_type_symbol
_atom_site_fract_x
_atom_site_fract_y
_atom_site_fract_z
N1 N 0.5552(2) 0.41593(13) 0.3422(2)
H1 H 0.558(3) 0.4622(16) 0.380(3)
N2 N 0.3551(2) 0.41649(11) 0.5481(2)
C1 C 0.6378(3) 0.39083(16) 0.2467(3)
H2 H 0.716(3) 0.4251(14) 0.226(3)
C2 C 0.5970(3) 0.31428(16) 0.2014(3)
H3 H 0.637(3) 0.2856(14) 0.132(3)
C3 C 0.4854(3) 0.29153(16) 0.2706(3)
H4 H 0.435(3) 0.2415(16) 0.266(3)
C4 C 0.4603(3) 0.35531(13) 0.3587(3)
C5 C 0.3596(3) 0.35876(15) 0.4543(3)
H5 H 0.293(3) 0.3075(14) 0.448(3)
C6 C 0.2488(3) 0.40803(13) 0.6367(3)
C7 C 0.3120(3) 0.41341(15) 0.8098(3)
H6 H 0.434(3) 0.4247(14) 0.869(3)
C8 C 0.2136(3) 0.40547(17) 0.8995(4)
H7 H 0.260(4) 0.4064(15) 1.018(4)
C9 C 0.0496(3) 0.3948(2) 0.8223(4)
C10 C -0.0136(4) 0.3900(2) 0.6482(4)
H8 H -0.132(5) 0.371(2) 0.589(5)
C11 C 0.0844(4) 0.3965(2) 0.5560(4)
H9 H 0.033(4) 0.3952(19) 0.426(5)
C12 C -0.0540(4) 0.3855(3) 0.9261(5)
H10 H -0.0087 0.4229 1.0189
C13 C -0.2261(4) 0.4098(3) 0.8398(5)
H12 H -0.232(5) 0.460(2) 0.801(5)
H13 H -0.284(5) 0.4104(19) 0.915(5)
H14 H -0.282(6) 0.376(3) 0.743(6)
C14 C -0.0377(18) 0.3091(7) 1.004(2)
H15 H 0.0746 0.2985 1.0670
H16 H -0.0804 0.2693 0.9191
H17 H -0.0964 0.3084 1.0770
H11? H -0.0168 0.4333 0.9941
C15? C -0.005(2) 0.3325(11) 1.054(2)
H18? H -0.0769 0.3344 1.1130
H19? H 0.1029 0.3454 1.1289
H20? H -0.0057 0.2803 1.0098
loop_
_geom_bond_atom_site_label_1
_geom_bond_atom_site_label_2
_geom_bond_site_symmetry_1
_geom_bond_site_symmetry_2
N1 H1 1_555 1_555
N2 C5 1_555 1_555
C1 N1 1_555 1_555
H2 C1 1_555 1_555
C2 C1 1_555 1_555
H3 C2 1_555 1_555
C3 C2 1_555 1_555
H4 C3 1_555 1_555
C4 N1 1_555 1_555
C5 C4 1_555 1_555
H5 C5 1_555 1_555
C6 N2 1_555 1_555
C7 C6 1_555 1_555
H6 C7 1_555 1_555
C8 C7 1_555 1_555
H7 C8 1_555 1_555
C9 C8 1_555 1_555
C10 C9 1_555 1_555
H8 C10 1_555 1_555
C11 C6 1_555 1_555
H9 C11 1_555 1_555
C12 C9 1_555 1_555
H10 C12 1_555 1_555
C13 C12 1_555 1_555
H12 C13 1_555 1_555
H13 C13 1_555 1_555
H14 C13 1_555 1_555
C14 C12 1_555 1_555
H15 C14 1_555 1_555
H16 C14 1_555 1_555
H17 C14 1_555 1_555
C3 C4 1_555 1_555
C10 C11 1_555 1_555

#END
