
#######################################################################
#
#                 Cambridge Crystallographic Data Centre
#                                CCDC 
#
#######################################################################
#
# If this CIF has been generated from an entry in the Cambridge 
# Structural Database, then it will include bibliographic, chemical, 
# crystal, experimental, refinement or atomic coordinate data resulting 
# from the CCDC's data processing and validation procedures.
#
#######################################################################

data_EWOMAE
_chemical_formula_moiety         'C15 H24 N2'
_chemical_name_systematic        
4-t-Butyl-N-(2-pyrrolylmethylene)cyclohexylamine
_symmetry_cell_setting           orthorhombic
_symmetry_space_group_name_H-M   'P b c n'
_symmetry_Int_Tables_number      60
_space_group_name_Hall           '-P 2n 2ab'
loop_
_symmetry_equiv_pos_site_id
_symmetry_equiv_pos_as_xyz
1 x,y,z
2 1/2+x,1/2+y,1/2-z
3 1/2-x,1/2+y,z
4 x,-y,1/2+z
5 -x,-y,-z
6 1/2-x,1/2-y,1/2+z
7 1/2+x,1/2-y,-z
8 -x,y,1/2-z
_cell_length_a                   25.8290(10)
_cell_length_b                   11.1688(5)
_cell_length_c                   9.9736(9)
_cell_angle_alpha                90
_cell_angle_beta                 90
_cell_angle_gamma                90
_cell_volume                     2877.17
_exptl_crystal_colour            colorless
_exptl_crystal_description       prism
_cell_formula_units_Z            8
_exptl_crystal_recrystallization_method ethanol
loop_
_atom_site_label
_atom_site_type_symbol
_atom_site_fract_x
_atom_site_fract_y
_atom_site_fract_z
N1 N 0.55288(6) 0.64822(15) 0.13910(17)
H1 H 0.5461(8) 0.6902(19) 0.209(3)
N2 N 0.46021(5) 0.78496(13) 0.10157(13)
C1 C 0.52758(7) 0.66065(15) 0.01912(17)
C2 C 0.55318(8) 0.58862(18) -0.0717(2)
H2 H 0.5422(8) 0.575(2) -0.164(3)
C3 C 0.59382(8) 0.53244(19) -0.0052(2)
H3 H 0.6183(8) 0.4761(19) -0.039(2)
C4 C 0.59298(8) 0.57172(19) 0.1247(2)
H4 H 0.6181(7) 0.5542(18) 0.199(2)
C5 C 0.48410(7) 0.73845(16) 0.00295(17)
H5 H 0.4727(7) 0.7560(17) -0.0911(19)
C6 C 0.42011(7) 0.87370(16) 0.07394(18)
H6 H 0.4164(7) 0.8825(16) -0.025(2)
C7 C 0.36858(7) 0.83553(17) 0.1323(2)
H7 H 0.3739(7) 0.8202(16) 0.230(2)
H8 H 0.3569(7) 0.760(2) 0.0935(19)
C8 C 0.32724(7) 0.93120(17) 0.1132(2)
H9 H 0.2931(8) 0.9042(19) 0.150(2)
H10 H 0.3191(8) 0.9407(19) 0.007(2)
C9 C 0.34288(6) 1.05109(15) 0.17295(16)
H11 H 0.3482(6) 1.0371(15) 0.2717(19)
C10 C 0.39526(8) 1.08762(18) 0.1152(3)
H12 H 0.4068(8) 1.166(2) 0.149(2)
H13 H 0.3900(9) 1.102(2) 0.018(3)
C11 C 0.43630(7) 0.99204(18) 0.1357(3)
H14 H 0.4420(10) 0.976(2) 0.238(3)
H15 H 0.4696(8) 1.018(2) 0.106(2)
C12 C 0.30080(7) 1.15015(16) 0.16332(18)
C13 C 0.31771(11) 1.2585(2) 0.2451(3)
H16 H 0.3481(10) 1.297(2) 0.211(2)
H17 H 0.2903(9) 1.318(2) 0.249(2)
H18 H 0.3265(9) 1.239(2) 0.343(3)
C14 C 0.24998(9) 1.1056(2) 0.2222(3)
H19 H 0.2362(8) 1.041(2) 0.160(3)
H20 H 0.2242(8) 1.170(2) 0.227(2)
H21 H 0.2540(9) 1.071(2) 0.322(3)
C15 C 0.29214(14) 1.1900(3) 0.0175(2)
H22 H 0.2650(9) 1.254(2) 0.019(2)
H23 H 0.2821(11) 1.120(3) -0.042(3)
H24 H 0.3229(14) 1.223(3) -0.022(4)
loop_
_geom_bond_atom_site_label_1
_geom_bond_atom_site_label_2
_geom_bond_site_symmetry_1
_geom_bond_site_symmetry_2
N1 H1 1_555 1_555
N2 C5 1_555 1_555
C1 N1 1_555 1_555
C2 C1 1_555 1_555
H2 C2 1_555 1_555
C3 C2 1_555 1_555
H3 C3 1_555 1_555
C4 N1 1_555 1_555
H4 C4 1_555 1_555
C5 C1 1_555 1_555
H5 C5 1_555 1_555
C6 N2 1_555 1_555
H6 C6 1_555 1_555
C7 C6 1_555 1_555
H7 C7 1_555 1_555
H8 C7 1_555 1_555
C8 C7 1_555 1_555
H9 C8 1_555 1_555
H10 C8 1_555 1_555
C9 C8 1_555 1_555
H11 C9 1_555 1_555
C10 C9 1_555 1_555
H12 C10 1_555 1_555
H13 C10 1_555 1_555
C11 C6 1_555 1_555
H14 C11 1_555 1_555
H15 C11 1_555 1_555
C12 C9 1_555 1_555
C13 C12 1_555 1_555
H16 C13 1_555 1_555
H17 C13 1_555 1_555
H18 C13 1_555 1_555
C14 C12 1_555 1_555
H19 C14 1_555 1_555
H20 C14 1_555 1_555
H21 C14 1_555 1_555
C15 C12 1_555 1_555
H22 C15 1_555 1_555
H23 C15 1_555 1_555
H24 C15 1_555 1_555
C3 C4 1_555 1_555
C10 C11 1_555 1_555

#END
