
#######################################################################
#
#                 Cambridge Crystallographic Data Centre
#                                CCDC 
#
#######################################################################
#
# If this CIF has been generated from an entry in the Cambridge 
# Structural Database, then it will include bibliographic, chemical, 
# crystal, experimental, refinement or atomic coordinate data resulting 
# from the CCDC's data processing and validation procedures.
#
#######################################################################

data_EWOTIT
_chemical_formula_moiety         'C11 H11 Cl1 N2 O1 S1'
_chemical_name_systematic        
3-(2-Chlorobenzyl)-2-thioxoperhydropyrimidin-4-one
_symmetry_cell_setting           monoclinic
_symmetry_space_group_name_H-M   'P 21/c'
_symmetry_Int_Tables_number      14
_space_group_name_Hall           '-P 2ybc'
loop_
_symmetry_equiv_pos_site_id
_symmetry_equiv_pos_as_xyz
1 x,y,z
2 x,1/2-y,1/2+z
3 -x,-y,-z
4 -x,1/2+y,1/2-z
_cell_length_a                   5.3014(19)
_cell_length_b                   10.502(4)
_cell_length_c                   21.102(7)
_cell_angle_alpha                90
_cell_angle_beta                 95.591(5)
_cell_angle_gamma                90
_cell_volume                     1169.27
_exptl_crystal_colour            colorless
_exptl_crystal_description       prism
_cell_formula_units_Z            4
_exptl_crystal_recrystallization_method acetone/ethanol
loop_
_atom_site_label
_atom_site_type_symbol
_atom_site_fract_x
_atom_site_fract_y
_atom_site_fract_z
S1 S 0.18081(15) 0.03145(6) 0.41101(3)
Cl1 Cl 0.56245(13) 0.24933(7) 0.23656(3)
N1 N 0.4500(3) 0.24163(15) 0.44358(8)
N2 N 0.1974(4) 0.16176(16) 0.51716(8)
H1 H 0.1025 0.1024 0.5299
O1 O 0.7231(3) 0.40347(16) 0.47069(8)
C1 C 0.2795(4) 0.14993(18) 0.46061(9)
C2 C 0.5784(4) 0.32407(19) 0.48766(10)
C3 C 0.5273(5) 0.3054(2) 0.55546(10)
H2 H 0.6371 0.2390 0.5745
H3 H 0.5645 0.3834 0.5791
C4 C 0.2573(5) 0.2692(2) 0.55949(10)
H4 H 0.2316 0.2460 0.6029
H5 H 0.1474 0.3406 0.5470
C5 C 0.5102(4) 0.2500(2) 0.37714(9)
H6 H 0.5018 0.1655 0.3585
H7 H 0.6825 0.2808 0.3765
C6 C 0.3329(4) 0.33712(18) 0.33702(9)
C7 C 0.3489(4) 0.3461(2) 0.27159(10)
C8 C 0.1972(5) 0.4279(2) 0.23345(11)
H8 H 0.2150 0.4334 0.1901
C9 C 0.0199(5) 0.5012(2) 0.25988(11)
H9 H -0.0824 0.5568 0.2345
C10 C -0.0054(4) 0.4920(2) 0.32377(11)
H10 H -0.1287 0.5397 0.3415
C11 C 0.1516(4) 0.41211(19) 0.36218(10)
H11 H 0.1350 0.4087 0.4056
loop_
_geom_bond_atom_site_label_1
_geom_bond_atom_site_label_2
_geom_bond_site_symmetry_1
_geom_bond_site_symmetry_2
S1 C1 1_555 1_555
Cl1 C7 1_555 1_555
N1 C1 1_555 1_555
N2 H1 1_555 1_555
O1 C2 1_555 1_555
C1 N2 1_555 1_555
C2 N1 1_555 1_555
C3 C2 1_555 1_555
H2 C3 1_555 1_555
H3 C3 1_555 1_555
C4 N2 1_555 1_555
H4 C4 1_555 1_555
H5 C4 1_555 1_555
C5 N1 1_555 1_555
H6 C5 1_555 1_555
H7 C5 1_555 1_555
C6 C5 1_555 1_555
C7 C6 1_555 1_555
C8 C7 1_555 1_555
H8 C8 1_555 1_555
C9 C8 1_555 1_555
H9 C9 1_555 1_555
C10 C9 1_555 1_555
H10 C10 1_555 1_555
C11 C6 1_555 1_555
H11 C11 1_555 1_555
C3 C4 1_555 1_555
C10 C11 1_555 1_555

#END
