
#######################################################################
#
#                 Cambridge Crystallographic Data Centre
#                                CCDC 
#
#######################################################################
#
# If this CIF has been generated from an entry in the Cambridge 
# Structural Database, then it will include bibliographic, chemical, 
# crystal, experimental, refinement or atomic coordinate data resulting 
# from the CCDC's data processing and validation procedures.
#
#######################################################################

data_EWOTUF
_chemical_formula_moiety         'C7 H13 N1 O3'
_chemical_name_systematic        N-Acetyl-L-valine
_symmetry_cell_setting           orthorhombic
_symmetry_space_group_name_H-M   'P 21 21 21'
_symmetry_Int_Tables_number      19
_space_group_name_Hall           'P 2ac 2ab'
loop_
_symmetry_equiv_pos_site_id
_symmetry_equiv_pos_as_xyz
1 x,y,z
2 1/2-x,-y,1/2+z
3 1/2+x,1/2-y,-z
4 -x,1/2+y,1/2-z
_cell_length_a                   6.6540(10)
_cell_length_b                   9.444(2)
_cell_length_c                   13.182(3)
_cell_angle_alpha                90
_cell_angle_beta                 90
_cell_angle_gamma                90
_cell_volume                     828.362
_exptl_crystal_colour            colorless
_exptl_crystal_description       prism
_chemical_melting_point          '437-438 K'
_cell_formula_units_Z            4
_exptl_crystal_recrystallization_method ethanol
loop_
_atom_site_label
_atom_site_type_symbol
_atom_site_fract_x
_atom_site_fract_y
_atom_site_fract_z
O1 O 0.89825(19) 0.73896(12) 0.78888(12)
N1 N 0.8761(2) 0.51588(14) 0.72868(12)
H1 H 0.9308 0.4334 0.7279
O2 O 0.3855(2) 0.42029(16) 0.63941(12)
H2 H 0.3124 0.3540 0.6553
O3 O 0.5808(2) 0.33061(16) 0.75927(13)
C1 C 0.9624(3) 0.61527(18) 0.78453(16)
C2 C 0.7383(3) 0.5484(2) 0.55498(17)
H3 H 0.6098 0.5652 0.5206
C3 C 1.1434(3) 0.5709(2) 0.84340(17)
H4 H 1.1719 0.4731 0.8300
H5 H 1.1184 0.5835 0.9146
H6 H 1.2564 0.6278 0.8235
C4 C 0.5508(3) 0.4174(2) 0.69554(17)
C5 C 0.6955(3) 0.53645(19) 0.66871(17)
H7 H 0.6338 0.6256 0.6905
C6 C 0.8279(4) 0.4150(2) 0.51105(18)
H8 H 0.7393 0.3367 0.5238
H9 H 0.9558 0.3970 0.5422
H10 H 0.8455 0.4263 0.4392
C7 C 0.8729(4) 0.6763(2) 0.5345(2)
H11 H 0.8117 0.7598 0.5623
H12 H 0.8900 0.6878 0.4626
H13 H 1.0016 0.6616 0.5657
loop_
_geom_bond_atom_site_label_1
_geom_bond_atom_site_label_2
_geom_bond_site_symmetry_1
_geom_bond_site_symmetry_2
O1 C1 1_555 1_555
N1 H1 1_555 1_555
O2 H2 1_555 1_555
O3 C4 1_555 1_555
C1 N1 1_555 1_555
C2 H3 1_555 1_555
C3 C1 1_555 1_555
H4 C3 1_555 1_555
H5 C3 1_555 1_555
H6 C3 1_555 1_555
C4 O2 1_555 1_555
C5 N1 1_555 1_555
H7 C5 1_555 1_555
C6 C2 1_555 1_555
H8 C6 1_555 1_555
H9 C6 1_555 1_555
H10 C6 1_555 1_555
C7 C2 1_555 1_555
H11 C7 1_555 1_555
H12 C7 1_555 1_555
H13 C7 1_555 1_555
C2 C5 1_555 1_555
C4 C5 1_555 1_555

#END
