
#######################################################################
#
#                 Cambridge Crystallographic Data Centre
#                                CCDC 
#
#######################################################################
#
# If this CIF has been generated from an entry in the Cambridge 
# Structural Database, then it will include bibliographic, chemical, 
# crystal, experimental, refinement or atomic coordinate data resulting 
# from the CCDC's data processing and validation procedures.
#
#######################################################################

data_EWOYEU
_chemical_formula_moiety         'C7 H9 N3 O4'
_chemical_name_systematic        
'Ethyl 1-methyl-4-nitro-1H-imidazole-2-carboxylate'
_symmetry_cell_setting           orthorhombic
_symmetry_space_group_name_H-M   'P n m a'
_symmetry_Int_Tables_number      62
_space_group_name_Hall           '-P 2ac 2n'
loop_
_symmetry_equiv_pos_site_id
_symmetry_equiv_pos_as_xyz
1 x,y,z
2 1/2+x,y,1/2-z
3 x,1/2-y,z
4 1/2-x,1/2+y,1/2+z
5 -x,-y,-z
6 1/2-x,-y,1/2+z
7 -x,1/2+y,-z
8 1/2+x,1/2-y,1/2-z
_cell_length_a                   8.9400(10)
_cell_length_b                   6.7680(10)
_cell_length_c                   15.028(2)
_cell_angle_alpha                90
_cell_angle_beta                 90
_cell_angle_gamma                90
_cell_volume                     909.283
_exptl_crystal_colour            colorless
_exptl_crystal_description       Block
_cell_formula_units_Z            4
_exptl_crystal_recrystallization_method 'diethyl ether'
loop_
_atom_site_label
_atom_site_type_symbol
_atom_site_fract_x
_atom_site_fract_y
_atom_site_fract_z
O1 O 0.5077(2) 0.1981(2) 0.67890(10)
O2 O 0.2765(2) 0.279(2) 0.62500(10)
O3 O 0.7800(2) 0.2500 0.29940(10)
O4 O 0.8913(2) 0.2500 0.42570(10)
N1 N 0.6255(2) 0.2500 0.51300(10)
N2 N 0.4010(2) 0.2500 0.44920(10)
N3 N 0.7798(2) 0.2500 0.38080(10)
C1 C 0.4506(4) 0.1661(4) 0.7683(2)
C3 C 0.4082(2) 0.2500 0.61500(10)
C4 C 0.2380(2) 0.2500 0.4370(2)
C5 C 0.4806(2) 0.2500 0.52690(10)
C6 C 0.5012(2) 0.2500 0.38270(10)
C7 C 0.6370(2) 0.2500 0.42390(10)
H1 H 0.5236 0.0915 0.8022
H2 H 0.3599 0.0878 0.7650
H9 H 0.4821 0.2500 0.3218
O1B O 0.5077(2) 0.3019(2) 0.67890(10)
C1B C 0.4506(4) 0.3339(4) 0.7683(2)
O2B O 0.2765(2) 0.221(2) 0.62500(10)
H1B H 0.5236 0.4085 0.8022
H2B H 0.3599 0.4122 0.7650
C2? C 0.4181(4) 0.3511(5) 0.8151(2)
H3? H 0.3956 0.3232 0.8763
H4? H 0.3338 0.4147 0.7877
H5? H 0.5036 0.4366 0.8119
H6? H 0.2146 0.2852 0.3767
H7? H 0.1935 0.3442 0.4768
H8? H 0.1993 0.1207 0.4496
loop_
_geom_bond_atom_site_label_1
_geom_bond_atom_site_label_2
_geom_bond_site_symmetry_1
_geom_bond_site_symmetry_2
O1 C1 1_555 1_555
O2 C3 1_555 1_555
O3 N3 1_555 1_555
O4 N3 1_555 1_555
N1 C5 1_555 1_555
N2 C4 1_555 1_555
N3 C7 1_555 1_555
C1 H1 1_555 1_555
C3 O1 1_555 1_555
C5 N2 1_555 1_555
C6 N2 1_555 1_555
C7 N1 1_555 1_555
H2 C1 1_555 1_555
H9 C6 1_555 1_555
O1B O1 1_555 1_555
C1B O1 1_555 1_555
O2B O2 1_555 1_555
H1B C1B 1_555 1_555
H2B C1B 1_555 1_555
C1 O1B 1_555 1_555
C1 C1B 1_555 1_555
C3 O1B 1_555 1_555
C3 C5 1_555 1_555
C3 O2B 1_555 1_555
C6 C7 1_555 1_555
O1B C1B 1_555 1_555

#END
