
#######################################################################
#
#                 Cambridge Crystallographic Data Centre
#                                CCDC 
#
#######################################################################
#
# If this CIF has been generated from an entry in the Cambridge 
# Structural Database, then it will include bibliographic, chemical, 
# crystal, experimental, refinement or atomic coordinate data resulting 
# from the CCDC's data processing and validation procedures.
#
#######################################################################

data_EWOYOE
_chemical_formula_moiety         'C40 H36 N2 O2'
_chemical_name_systematic        
(R)-2,2'-Dimethoxy-3,3'-bis(((1S)-1-phenylethyl)iminomethyl)-1,1'-binaphthalene
_symmetry_cell_setting           orthorhombic
_symmetry_space_group_name_H-M   'P 21 21 21'
_symmetry_Int_Tables_number      19
_space_group_name_Hall           'P 2ac 2ab'
loop_
_symmetry_equiv_pos_site_id
_symmetry_equiv_pos_as_xyz
1 x,y,z
2 1/2-x,-y,1/2+z
3 -x,1/2+y,1/2-z
4 1/2+x,1/2-y,-z
_cell_length_a                   9.614(2)
_cell_length_b                   15.270(4)
_cell_length_c                   22.838(5)
_cell_angle_alpha                90
_cell_angle_beta                 90
_cell_angle_gamma                90
_cell_volume                     3352.75
_exptl_crystal_colour            colorless
_exptl_crystal_description       plate
_cell_formula_units_Z            4
_exptl_crystal_recrystallization_method ethanol
loop_
_atom_site_label
_atom_site_type_symbol
_atom_site_fract_x
_atom_site_fract_y
_atom_site_fract_z
O1 O 0.2021(2) 0.09955(12) 0.18980(9)
O2 O 0.1961(2) 0.01269(13) 0.05161(9)
N1 N -0.0269(3) 0.31859(16) 0.22208(12)
N2 N 0.3655(3) -0.22952(16) 0.05672(12)
C1 C 0.2219(3) 0.16980(18) 0.15185(13)
C2 C 0.1426(3) 0.24627(19) 0.16196(13)
C3 C 0.1550(3) 0.31506(19) 0.12366(13)
H1 H 0.1016 0.3651 0.1294
C4 C 0.2465(3) 0.31126(18) 0.07607(13)
C5 C 0.2592(3) 0.38212(19) 0.03702(13)
H2 H 0.2069 0.4326 0.0430
C6 C 0.3481(4) 0.3772(2) -0.00980(15)
H3 H 0.3561 0.4243 -0.0354
C7 C 0.4267(4) 0.3017(2) -0.01906(15)
H4 H 0.4867 0.2989 -0.0509
C8 C 0.4166(4) 0.2318(2) 0.01802(14)
H5 H 0.4703 0.1822 0.0111
C9 C 0.3260(3) 0.23354(19) 0.06681(13)
C10 C 0.3117(3) 0.16231(18) 0.10537(13)
C11 C 0.3916(3) 0.07878(19) 0.09726(13)
C12 C 0.5320(3) 0.07170(19) 0.11898(13)
C13 C 0.6028(4) 0.1430(2) 0.14243(14)
H6 H 0.5587 0.1971 0.1448
C14 C 0.7375(4) 0.1343(2) 0.16216(15)
H7 H 0.7840 0.1828 0.1771
C15 C 0.8041(4) 0.05441(19) 0.16003(15)
H8 H 0.8947 0.0494 0.1739
C16 C 0.7385(3) -0.0170(2) 0.13785(13)
H9 H 0.7838 -0.0708 0.1372
C17 C 0.6003(3) -0.00967(19) 0.11557(12)
C18 C 0.5293(3) -0.0821(2) 0.09278(13)
H10 H 0.5734 -0.1363 0.0925
C19 C 0.3960(4) -0.07564(19) 0.07072(13)
C20 C 0.3309(3) 0.0071(2) 0.07356(13)
C21 C 0.0403(3) 0.2500(2) 0.21023(13)
H11 H 0.0250 0.2000 0.2326
C22 C -0.1307(3) 0.3145(2) 0.26829(14)
H12 H -0.1340 0.2545 0.2835
C23 C -0.2725(3) 0.33791(19) 0.24419(13)
C24 C -0.3893(4) 0.3235(2) 0.27769(16)
H13 H -0.3803 0.2997 0.3150
C25 C -0.5199(4) 0.3440(3) 0.25651(19)
H14 H -0.5977 0.3338 0.2797
C26 C -0.5363(5) 0.3791(3) 0.20176(18)
H15 H -0.6246 0.3926 0.1878
C27 C -0.4223(4) 0.3942(3) 0.16783(19)
H16 H -0.4325 0.4183 0.1307
C28 C -0.2908(4) 0.3733(2) 0.18875(16)
H17 H -0.2136 0.3833 0.1652
C29 C -0.0885(4) 0.3764(2) 0.31832(15)
H18 H 0.0031 0.3614 0.3318
H19 H -0.1534 0.3708 0.3500
H20 H -0.0886 0.4357 0.3044
C30 C 0.3221(4) -0.15323(19) 0.04934(13)
H21 H 0.2388 -0.1453 0.0293
C31 C 0.2805(4) -0.3017(2) 0.03422(15)
H22 H 0.2060 -0.2777 0.0097
C32 C 0.2172(3) -0.3526(2) 0.08345(14)
C33 C 0.2965(4) -0.3817(2) 0.12994(14)
H23 H 0.3909 -0.3686 0.1314
C34 C 0.2361(4) -0.4303(3) 0.17431(18)
H24 H 0.2909 -0.4514 0.2047
C35 C 0.0958(4) -0.4477(3) 0.17387(18)
H25 H 0.0554 -0.4781 0.2048
C36 C 0.0154(5) -0.4204(3) 0.12785(17)
H26 H -0.0785 -0.4347 0.1261
C37 C 0.0766(4) -0.3709(3) 0.08388(17)
H27 H 0.0211 -0.3495 0.0538
C38 C 0.3750(5) -0.3598(2) -0.00366(19)
H28 H 0.4120 -0.3259 -0.0355
H29 H 0.3220 -0.4079 -0.0190
H30 H 0.4501 -0.3819 0.0198
C39 C 0.2962(5) 0.0975(3) 0.23807(16)
H31 H 0.3891 0.0882 0.2240
H32 H 0.2708 0.0507 0.2641
H33 H 0.2920 0.1522 0.2587
C40 C 0.1901(4) 0.0361(2) -0.00935(16)
H34 H 0.2217 0.0953 -0.0142
H35 H 0.0959 0.0313 -0.0230
H36 H 0.2485 -0.0026 -0.0315
loop_
_geom_bond_atom_site_label_1
_geom_bond_atom_site_label_2
_geom_bond_site_symmetry_1
_geom_bond_site_symmetry_2
O1 C1 1_555 1_555
O2 C20 1_555 1_555
N1 C21 1_555 1_555
N2 C30 1_555 1_555
C1 C2 1_555 1_555
C2 C3 1_555 1_555
C3 H1 1_555 1_555
C4 C3 1_555 1_555
C5 C4 1_555 1_555
H2 C5 1_555 1_555
C6 C5 1_555 1_555
H3 C6 1_555 1_555
C7 C6 1_555 1_555
H4 C7 1_555 1_555
C8 C7 1_555 1_555
H5 C8 1_555 1_555
C9 C4 1_555 1_555
C10 C1 1_555 1_555
C11 C10 1_555 1_555
C12 C11 1_555 1_555
C13 C12 1_555 1_555
H6 C13 1_555 1_555
C14 C13 1_555 1_555
H7 C14 1_555 1_555
C15 C14 1_555 1_555
H8 C15 1_555 1_555
C16 C15 1_555 1_555
H9 C16 1_555 1_555
C17 C12 1_555 1_555
C18 C17 1_555 1_555
H10 C18 1_555 1_555
C19 C18 1_555 1_555
C20 C11 1_555 1_555
C21 C2 1_555 1_555
H11 C21 1_555 1_555
C22 N1 1_555 1_555
H12 C22 1_555 1_555
C23 C22 1_555 1_555
C24 C23 1_555 1_555
H13 C24 1_555 1_555
C25 C24 1_555 1_555
H14 C25 1_555 1_555
C26 C25 1_555 1_555
H15 C26 1_555 1_555
C27 C26 1_555 1_555
H16 C27 1_555 1_555
C28 C23 1_555 1_555
H17 C28 1_555 1_555
C29 C22 1_555 1_555
H18 C29 1_555 1_555
H19 C29 1_555 1_555
H20 C29 1_555 1_555
C30 C19 1_555 1_555
H21 C30 1_555 1_555
C31 N2 1_555 1_555
H22 C31 1_555 1_555
C32 C31 1_555 1_555
C33 C32 1_555 1_555
H23 C33 1_555 1_555
C34 C33 1_555 1_555
H24 C34 1_555 1_555
C35 C34 1_555 1_555
H25 C35 1_555 1_555
C36 C35 1_555 1_555
H26 C36 1_555 1_555
C37 C32 1_555 1_555
H27 C37 1_555 1_555
C38 C31 1_555 1_555
H28 C38 1_555 1_555
H29 C38 1_555 1_555
H30 C38 1_555 1_555
C39 O1 1_555 1_555
H31 C39 1_555 1_555
H32 C39 1_555 1_555
H33 C39 1_555 1_555
C40 O2 1_555 1_555
H34 C40 1_555 1_555
H35 C40 1_555 1_555
H36 C40 1_555 1_555
C8 C9 1_555 1_555
C9 C10 1_555 1_555
C16 C17 1_555 1_555
C19 C20 1_555 1_555
C27 C28 1_555 1_555
C36 C37 1_555 1_555

#END
