
#######################################################################
#
#                 Cambridge Crystallographic Data Centre
#                                CCDC 
#
#######################################################################
#
# If this CIF has been generated from an entry in the Cambridge 
# Structural Database, then it will include bibliographic, chemical, 
# crystal, experimental, refinement or atomic coordinate data resulting 
# from the CCDC's data processing and validation procedures.
#
#######################################################################

data_EWUCAA
_chemical_formula_moiety         'C20 H24 N6 O4 S4'
_chemical_name_systematic        
bis(3-Ethyl-1-methyl-5-(2-oxothiazolidin-3-ylcarbonyl)pyrazol-4-yl)disulfide
_symmetry_cell_setting           monoclinic
_symmetry_space_group_name_H-M   'P 21/c'
_symmetry_Int_Tables_number      14
_space_group_name_Hall           '-P 2ybc'
loop_
_symmetry_equiv_pos_site_id
_symmetry_equiv_pos_as_xyz
1 x,y,z
2 x,1/2-y,1/2+z
3 -x,-y,-z
4 -x,1/2+y,1/2-z
_cell_length_a                   13.3420(10)
_cell_length_b                   15.5520(10)
_cell_length_c                   12.0130(8)
_cell_angle_alpha                90
_cell_angle_beta                 94.076(2)
_cell_angle_gamma                90
_cell_volume                     2486.33
_exptl_crystal_colour            colorless
_exptl_crystal_description       block
_chemical_melting_point          '384-385 K'
_cell_formula_units_Z            4
_exptl_crystal_recrystallization_method 'ethyl acetate'
loop_
_atom_site_label
_atom_site_type_symbol
_atom_site_fract_x
_atom_site_fract_y
_atom_site_fract_z
S1 S 0.77703(5) 0.64831(4) 0.10365(5)
S2 S 0.67273(6) 0.89651(5) 0.24815(7)
S3 S 0.70588(5) 0.53095(4) 0.06410(5)
S4 S 0.81304(7) 0.24531(6) 0.06394(9)
O1 O 0.69950(10) 0.63320(10) 0.45330(10)
O2 O 0.84130(10) 0.80990(10) 0.2732(2)
O3 O 0.81540(10) 0.42240(10) 0.38730(10)
O4 O 0.65090(10) 0.32460(10) 0.1185(2)
N1 N 0.9793(2) 0.57130(10) 0.3374(2)
N2 N 0.90760(10) 0.60430(10) 0.3976(2)
N3 N 0.69930(10) 0.74650(10) 0.3372(2)
N4 N 0.5274(2) 0.52360(10) 0.3105(2)
N5 N 0.6033(2) 0.46990(10) 0.3473(2)
N6 N 0.80110(10) 0.35950(10) 0.2186(2)
C1 C 1.1116(3) 0.5451(4) 0.1624(4)
C2 C 1.0047(2) 0.5496(2) 0.1381(3)
C3 C 0.9457(2) 0.5809(2) 0.2314(2)
C4 C 0.8521(2) 0.62180(10) 0.2232(2)
C5 C 0.8299(2) 0.63650(10) 0.3325(2)
C6 C 0.9208(2) 0.6028(2) 0.5196(2)
C7 C 0.7401(2) 0.67070(10) 0.3814(2)
C8 C 0.6006(2) 0.7723(2) 0.3693(2)
C9 C 0.5640(2) 0.8409(2) 0.2888(3)
C10 C 0.7533(2) 0.8106(2) 0.2868(2)
C11 C 0.3894(2) 0.6372(2) 0.1915(3)
C12 C 0.4863(2) 0.6129(2) 0.1429(2)
C13 C 0.5507(2) 0.5508(2) 0.2109(2)
C14 C 0.6414(2) 0.51390(10) 0.1827(2)
C15 C 0.6724(2) 0.46220(10) 0.2729(2)
C16 C 0.5998(3) 0.4301(2) 0.4563(2)
C17 C 0.7664(2) 0.41320(10) 0.2989(2)
C18 C 0.9024(2) 0.3241(2) 0.2385(3)
C19 C 0.9294(2) 0.2854(2) 0.1298(3)
C20 C 0.7402(2) 0.3170(2) 0.1364(2)
H1 H 1.1406 0.5991 0.1432
H2 H 1.1400 0.4999 0.1203
H3 H 1.1256 0.5345 0.2407
H4 H 0.9909 0.5876 0.0749
H5 H 0.9818 0.4920 0.1184
H6 H 0.8929 0.5507 0.5468
H7 H 0.8873 0.6513 0.5495
H8 H 0.9912 0.6053 0.5424
H9 H 0.5555 0.7233 0.3656
H10 H 0.6059 0.7950 0.4447
H11 H 0.5198 0.8805 0.3240
H12 H 0.5282 0.8150 0.2241
H13 H 0.3373 0.5977 0.1663
H14 H 0.3704 0.6944 0.1689
H15 H 0.3991 0.6347 0.2714
H16 H 0.4696 0.5868 0.0706
H17 H 0.5249 0.6648 0.1334
H18 H 0.6333 0.4663 0.5120
H19 H 0.6331 0.3753 0.4557
H20 H 0.5312 0.4220 0.4732
H21 H 0.9490 0.3694 0.2626
H22 H 0.9029 0.2798 0.2954
H23 H 0.9775 0.2391 0.1421
H24 H 0.9572 0.3293 0.0836
loop_
_geom_bond_atom_site_label_1
_geom_bond_atom_site_label_2
_geom_bond_site_symmetry_1
_geom_bond_site_symmetry_2
S1 S3 1_555 1_555
S2 C9 1_555 1_555
S3 C14 1_555 1_555
S4 C19 1_555 1_555
O1 C7 1_555 1_555
O2 C10 1_555 1_555
O3 C17 1_555 1_555
O4 C20 1_555 1_555
N1 N2 1_555 1_555
N2 C5 1_555 1_555
N3 C7 1_555 1_555
N4 N5 1_555 1_555
N5 C15 1_555 1_555
N6 C17 1_555 1_555
C1 C2 1_555 1_555
C2 C3 1_555 1_555
C3 N1 1_555 1_555
C4 S1 1_555 1_555
C5 C4 1_555 1_555
C6 N2 1_555 1_555
C7 C5 1_555 1_555
C8 N3 1_555 1_555
C9 C8 1_555 1_555
C10 S2 1_555 1_555
C11 C12 1_555 1_555
C12 C13 1_555 1_555
C13 N4 1_555 1_555
C14 C13 1_555 1_555
C15 C14 1_555 1_555
C16 N5 1_555 1_555
C17 C15 1_555 1_555
C18 N6 1_555 1_555
C19 C18 1_555 1_555
C20 S4 1_555 1_555
H1 C1 1_555 1_555
H2 C1 1_555 1_555
H3 C1 1_555 1_555
H4 C2 1_555 1_555
H5 C2 1_555 1_555
H6 C6 1_555 1_555
H7 C6 1_555 1_555
H8 C6 1_555 1_555
H9 C8 1_555 1_555
H10 C8 1_555 1_555
H11 C9 1_555 1_555
H12 C9 1_555 1_555
H13 C11 1_555 1_555
H14 C11 1_555 1_555
H15 C11 1_555 1_555
H16 C12 1_555 1_555
H17 C12 1_555 1_555
H18 C16 1_555 1_555
H19 C16 1_555 1_555
H20 C16 1_555 1_555
H21 C18 1_555 1_555
H22 C18 1_555 1_555
H23 C19 1_555 1_555
H24 C19 1_555 1_555
N3 C10 1_555 1_555
N6 C20 1_555 1_555
C3 C4 1_555 1_555

#END
