
#######################################################################
#
#                 Cambridge Crystallographic Data Centre
#                                CCDC 
#
#######################################################################
#
# If this CIF has been generated from an entry in the Cambridge 
# Structural Database, then it will include bibliographic, chemical, 
# crystal, experimental, refinement or atomic coordinate data resulting 
# from the CCDC's data processing and validation procedures.
#
#######################################################################

data_EWUDOP
_chemical_name_common            
'1-Ethyl-6-fluoro-1,4-dihydro-4-oxo-7-(1-piperazinyl)-1,8-napthyridine-3-carboxylic acid hydroiodide'
_chemical_formula_moiety         'C15 H18 F1 N4 O3 1+,I1 1-'
_chemical_name_systematic        'Enoxacin hydroiodide'
_chemical_properties_biological  'Enoxacin is an antibacterial agent'
_symmetry_cell_setting           triclinic
_symmetry_space_group_name_H-M   'P -1'
_symmetry_Int_Tables_number      2
_space_group_name_Hall           '-P 1'
loop_
_symmetry_equiv_pos_site_id
_symmetry_equiv_pos_as_xyz
1 x,y,z
2 -x,-y,-z
_cell_length_a                   6.9831(17)
_cell_length_b                   10.235(3)
_cell_length_c                   11.931(3)
_cell_angle_alpha                82.783(11)
_cell_angle_beta                 79.961(11)
_cell_angle_gamma                85.934(12)
_cell_volume                     831.976
_exptl_crystal_colour            'light yellow'
_exptl_crystal_description       irregular
_cell_formula_units_Z            2
loop_
_atom_site_label
_atom_site_type_symbol
_atom_site_fract_x
_atom_site_fract_y
_atom_site_fract_z
I1 I 0.70806(4) 0.55328(3) 0.77263(2)
F1 F 0.6576(3) 0.9896(3) 0.77860(19)
O1 O 0.9380(4) 0.9109(3) 0.3722(2)
O2 O 0.9727(4) 0.8435(3) 0.1801(2)
H1 H 0.9938 0.8720 0.2396
O3 O 0.7482(5) 0.7337(4) 0.1287(3)
N1 N 0.4069(4) 0.7437(3) 0.4558(3)
N2 N 0.3579(4) 0.8095(3) 0.6379(2)
N3 N 0.2833(5) 0.8713(3) 0.8195(3)
N4 N 0.1901(6) 0.6841(4) 1.0144(3)
C1 C 0.5152(5) 0.7386(4) 0.3518(3)
H2 H 0.4663 0.6948 0.2979
C2 C 0.6934(5) 0.7937(4) 0.3192(3)
C3 C 0.7735(5) 0.8584(3) 0.3988(3)
C4 C 0.6575(5) 0.8610(3) 0.5101(3)
C5 C 0.4758(5) 0.8058(3) 0.5377(3)
C6 C 0.7180(5) 0.9236(4) 0.5959(3)
H3 H 0.8401 0.9633 0.5825
C7 C 0.5979(6) 0.9257(4) 0.6976(3)
C8 C 0.4142(5) 0.8677(3) 0.7204(3)
C9 C 0.8033(6) 0.7866(4) 0.2020(3)
C10 C 0.2179(5) 0.6787(4) 0.4870(3)
H4 H 0.1672 0.6687 0.4163
H5 H 0.1226 0.7356 0.5330
C11 C 0.2374(6) 0.5451(4) 0.5547(3)
H6 H 0.3096 0.4831 0.5045
H7 H 0.1076 0.5131 0.5857
H8 H 0.3076 0.5522 0.6178
C12 C 0.1057(6) 0.7981(4) 0.8363(4)
H9 H 0.0722 0.7867 0.7609
H10 H -0.0038 0.8484 0.8787
C13 C 0.1354(6) 0.6649(4) 0.9025(3)
H11 H 0.0140 0.6167 0.9156
H12 H 0.2398 0.6123 0.8583
C14 C 0.3639(6) 0.7647(4) 1.0016(4)
H13 H 0.4805 0.7163 0.9640
H14 H 0.3870 0.7810 1.0781
C15 C 0.3303(7) 0.8943(4) 0.9304(3)
H15 H 0.2218 0.9463 0.9718
H16 H 0.4487 0.9455 0.9178
H17 H 0.091(9) 0.725(6) 1.060(5)
H18 H 0.212(7) 0.614(5) 1.056(4)
loop_
_geom_bond_atom_site_label_1
_geom_bond_atom_site_label_2
_geom_bond_site_symmetry_1
_geom_bond_site_symmetry_2
F1 C7 1_555 1_555
O1 C3 1_555 1_555
O2 H1 1_555 1_555
O3 C9 1_555 1_555
N1 C1 1_555 1_555
N2 C5 1_555 1_555
N3 C8 1_555 1_555
N4 C13 1_555 1_555
C1 H2 1_555 1_555
C2 C1 1_555 1_555
C3 C2 1_555 1_555
C4 C3 1_555 1_555
C5 N1 1_555 1_555
C6 C4 1_555 1_555
H3 C6 1_555 1_555
C7 C6 1_555 1_555
C8 N2 1_555 1_555
C9 O2 1_555 1_555
C10 N1 1_555 1_555
H4 C10 1_555 1_555
H5 C10 1_555 1_555
C11 C10 1_555 1_555
H6 C11 1_555 1_555
H7 C11 1_555 1_555
H8 C11 1_555 1_555
C12 N3 1_555 1_555
H9 C12 1_555 1_555
H10 C12 1_555 1_555
C13 C12 1_555 1_555
H11 C13 1_555 1_555
H12 C13 1_555 1_555
C14 N4 1_555 1_555
H13 C14 1_555 1_555
H14 C14 1_555 1_555
C15 N3 1_555 1_555
H15 C15 1_555 1_555
H16 C15 1_555 1_555
H17 N4 1_555 1_555
H18 N4 1_555 1_555
C2 C9 1_555 1_555
C4 C5 1_555 1_555
C7 C8 1_555 1_555
C14 C15 1_555 1_555

#END
