
#######################################################################
#
#                 Cambridge Crystallographic Data Centre
#                                CCDC 
#
#######################################################################
#
# If this CIF has been generated from an entry in the Cambridge 
# Structural Database, then it will include bibliographic, chemical, 
# crystal, experimental, refinement or atomic coordinate data resulting 
# from the CCDC's data processing and validation procedures.
#
#######################################################################

data_EWUJUB
_chemical_formula_moiety         'C23 H18 Cl2 N2 O1'
_chemical_name_systematic        
2-Amino-3-cyano-4-(2-chlorophenyl)-8-(2-chlorobenzylidene)-1,4,5,6,7-pentahydro-benzo(b)pyran
_symmetry_cell_setting           monoclinic
_symmetry_space_group_name_H-M   'P 21/n'
_symmetry_Int_Tables_number      14
_space_group_name_Hall           '-P 2yn'
loop_
_symmetry_equiv_pos_site_id
_symmetry_equiv_pos_as_xyz
1 x,y,z
2 1/2+x,1/2-y,1/2+z
3 -x,-y,-z
4 1/2-x,1/2+y,1/2-z
_cell_length_a                   13.582(2)
_cell_length_b                   8.974(1)
_cell_length_c                   16.960(2)
_cell_angle_alpha                90
_cell_angle_beta                 103.34(1)
_cell_angle_gamma                90
_cell_volume                     2011.39
_exptl_crystal_colour            'pale yellow'
_exptl_crystal_description       block
_chemical_melting_point          '510-511 K'
_cell_formula_units_Z            4
_exptl_crystal_recrystallization_method '95% ethanol'
loop_
_atom_site_label
_atom_site_type_symbol
_atom_site_fract_x
_atom_site_fract_y
_atom_site_fract_z
O1 O 0.26023(8) 0.27351(16) 0.42845(7)
N1 N 0.19270(14) 0.1304(2) 0.50810(11)
N2 N -0.06987(13) 0.0963(2) 0.41723(11)
C1 C 0.62393(14) 0.2756(2) 0.44623(12)
C2 C 0.72519(15) 0.2959(3) 0.44907(14)
H1 H 0.7723 0.2259 0.4747
C3 C 0.75613(16) 0.4183(3) 0.41431(15)
H2 H 0.8242 0.4316 0.4150
C4 C 0.68679(18) 0.5206(3) 0.37854(16)
H3 H 0.7078 0.6056 0.3557
C5 C 0.58541(16) 0.5002(3) 0.37565(15)
H4 H 0.5394 0.5726 0.3512
C6 C 0.54999(14) 0.3749(2) 0.40819(12)
C7 C 0.44261(13) 0.3462(2) 0.40525(12)
H5 H 0.4290 0.3016 0.4511
C8 C 0.36210(13) 0.3759(2) 0.34548(12)
C9 C 0.36530(15) 0.4472(3) 0.26535(13)
H6 H 0.3616 0.5546 0.2705
H7 H 0.4294 0.4235 0.2523
C10 C 0.28006(15) 0.3959(3) 0.19691(12)
H8 H 0.2877 0.2903 0.1875
H9 H 0.2833 0.4489 0.1477
C11 C 0.17791(15) 0.4233(3) 0.21628(12)
H10 H 0.1645 0.5295 0.2151
H11 H 0.1254 0.3764 0.1752
C12 C 0.17458(13) 0.3624(2) 0.29792(11)
C13 C 0.25961(13) 0.3383(2) 0.35321(11)
C14 C 0.17403(13) 0.2117(2) 0.43995(11)
C15 C 0.08328(12) 0.2338(2) 0.38836(11)
C16 C 0.07145(12) 0.3295(2) 0.31330(10)
H12 H 0.0334 0.2717 0.2672
C17 C 0.01381(12) 0.4748(2) 0.31714(10)
C18 C 0.05165(16) 0.5783(3) 0.37649(13)
H13 H 0.1105 0.5563 0.4151
C19 C 0.00454(18) 0.7137(3) 0.38025(15)
H14 H 0.0317 0.7813 0.4211
C20 C -0.08165(17) 0.7485(3) 0.32427(14)
H15 H -0.1128 0.8403 0.3261
C21 C -0.12167(16) 0.6484(3) 0.26584(14)
H16 H -0.1809 0.6706 0.2277
C22 C -0.07409(15) 0.5131(2) 0.26329(12)
C23 C -0.00182(14) 0.1584(2) 0.40379(11)
Cl1 Cl 0.5872(4) 0.1053(7) 0.4813(4)
Cl2 Cl -0.1131(2) 0.3974(6) 0.1773(3)
H17 H 0.2538(9) 0.109(2) 0.5315(11)
H18 H 0.1450(12) 0.081(2) 0.5232(12)
Cl3? Cl 0.5891(5) 0.1298(8) 0.4992(3)
Cl4? Cl -0.1454(2) 0.3820(6) 0.1995(3)
loop_
_geom_bond_atom_site_label_1
_geom_bond_atom_site_label_2
_geom_bond_site_symmetry_1
_geom_bond_site_symmetry_2
O1 C13 1_555 1_555
N1 C14 1_555 1_555
N2 C23 1_555 1_555
C1 C2 1_555 1_555
C2 H1 1_555 1_555
C3 C2 1_555 1_555
H2 C3 1_555 1_555
C4 C3 1_555 1_555
H3 C4 1_555 1_555
C5 C4 1_555 1_555
H4 C5 1_555 1_555
C6 C1 1_555 1_555
C7 C6 1_555 1_555
H5 C7 1_555 1_555
C8 C7 1_555 1_555
C9 C8 1_555 1_555
H6 C9 1_555 1_555
H7 C9 1_555 1_555
C10 C9 1_555 1_555
H8 C10 1_555 1_555
H9 C10 1_555 1_555
C11 C10 1_555 1_555
H10 C11 1_555 1_555
H11 C11 1_555 1_555
C12 C11 1_555 1_555
C13 C8 1_555 1_555
C14 O1 1_555 1_555
C15 C14 1_555 1_555
C16 C12 1_555 1_555
H12 C16 1_555 1_555
C17 C16 1_555 1_555
C18 C17 1_555 1_555
H13 C18 1_555 1_555
C19 C18 1_555 1_555
H14 C19 1_555 1_555
C20 C19 1_555 1_555
H15 C20 1_555 1_555
C21 C20 1_555 1_555
H16 C21 1_555 1_555
C22 C17 1_555 1_555
C23 C15 1_555 1_555
Cl1 C1 1_555 1_555
Cl2 C22 1_555 1_555
H17 N1 1_555 1_555
H18 N1 1_555 1_555
C5 C6 1_555 1_555
C12 C13 1_555 1_555
C15 C16 1_555 1_555
C21 C22 1_555 1_555

#END
