
#######################################################################
#
#                 Cambridge Crystallographic Data Centre
#                                CCDC 
#
#######################################################################
#
# If this CIF has been generated from an entry in the Cambridge 
# Structural Database, then it will include bibliographic, chemical, 
# crystal, experimental, refinement or atomic coordinate data resulting 
# from the CCDC's data processing and validation procedures.
#
#######################################################################

data_EWUKIQ01
_chemical_formula_moiety         'C3 H6 N6 O4'
_chemical_name_systematic        N,5-Dinitro-1,3,5-triazinan-2-imine
_symmetry_cell_setting           monoclinic
_symmetry_space_group_name_H-M   'P 21/c'
_symmetry_Int_Tables_number      14
_space_group_name_Hall           '-P 2ybc'
loop_
_symmetry_equiv_pos_site_id
_symmetry_equiv_pos_as_xyz
1 x,y,z
2 -x,1/2+y,1/2-z
3 -x,-y,-z
4 x,1/2-y,1/2+z
_cell_length_a                   9.4031(13)
_cell_length_b                   8.5891(12)
_cell_length_c                   9.0200(13)
_cell_angle_alpha                90
_cell_angle_beta                 91.213(2)
_cell_angle_gamma                90
_cell_volume                     728.33
_exptl_crystal_colour            colorless
_exptl_crystal_description       block
_cell_formula_units_Z            4
loop_
_atom_site_label
_atom_site_type_symbol
_atom_site_fract_x
_atom_site_fract_y
_atom_site_fract_z
N1 N 0.73213(15) 1.17544(16) 0.54919(15)
N2 N 0.66792(13) 0.96206(15) 0.31749(14)
N3 N 0.90584(14) 0.90658(17) 0.32716(15)
N4 N 0.75344(14) 0.74452(16) 0.18127(14)
N5 N 0.73089(15) 0.62076(17) 0.28164(16)
O1 O 0.60474(13) 1.17280(17) 0.51083(15)
O2 O 0.77772(16) 1.26550(18) 0.64525(18)
N6 N 0.83176(13) 1.08157(15) 0.49181(14)
O3 O 0.60888(15) 0.58194(17) 0.30070(18)
O4 O 0.83510(15) 0.55734(17) 0.33557(15)
C1 C 0.79567(15) 0.98549(16) 0.37761(16)
C2 C 0.89514(17) 0.8118(2) 0.19489(18)
H1 H 0.9655 0.7293 0.2000
H2 H 0.9139 0.8751 0.1084
C3 C 0.64410(18) 0.8642(2) 0.18749(19)
H3 H 0.5511 0.8157 0.1921
H4 H 0.6463 0.9275 0.0985
H5 H 0.984(2) 0.911(2) 0.375(2)
H6 H 0.597(2) 1.020(2) 0.350(2)
loop_
_geom_bond_atom_site_label_1
_geom_bond_atom_site_label_2
_geom_bond_site_symmetry_1
_geom_bond_site_symmetry_2
N1 O1 1_555 1_555
N2 C1 1_555 1_555
N3 C1 1_555 1_555
N4 N5 1_555 1_555
N5 O3 1_555 1_555
O2 N1 1_555 1_555
N6 N1 1_555 1_555
O4 N5 1_555 1_555
C1 N6 1_555 1_555
C2 N3 1_555 1_555
H1 C2 1_555 1_555
H2 C2 1_555 1_555
C3 N2 1_555 1_555
H3 C3 1_555 1_555
H4 C3 1_555 1_555
H5 N3 1_555 1_555
H6 N2 1_555 1_555
N4 C2 1_555 1_555
N4 C3 1_555 1_555

#END
