
#######################################################################
#
#                 Cambridge Crystallographic Data Centre
#                                CCDC 
#
#######################################################################
#
# If this CIF has been generated from an entry in the Cambridge 
# Structural Database, then it will include bibliographic, chemical, 
# crystal, experimental, refinement or atomic coordinate data resulting 
# from the CCDC's data processing and validation procedures.
#
#######################################################################

data_EXAGAM
_chemical_formula_moiety         'C27 H28 O6 S2'
_chemical_name_systematic        
'Methyl 3-(4-isopropylphenyl)-2-methylene-4,4-bis(phenylsulfonyl)butanoate'
_symmetry_cell_setting           monoclinic
_symmetry_space_group_name_H-M   'P 21'
_symmetry_Int_Tables_number      4
_space_group_name_Hall           'P 2yb'
loop_
_symmetry_equiv_pos_site_id
_symmetry_equiv_pos_as_xyz
1 x,y,z
2 -x,1/2+y,-z
_cell_length_a                   5.9399(10)
_cell_length_b                   19.911(3)
_cell_length_c                   10.9062(19)
_cell_angle_alpha                90
_cell_angle_beta                 103.389(4)
_cell_angle_gamma                90
_cell_volume                     1254.81
_exptl_crystal_colour            colorless
_exptl_crystal_description       rod
_cell_formula_units_Z            2
loop_
_atom_site_label
_atom_site_type_symbol
_atom_site_fract_x
_atom_site_fract_y
_atom_site_fract_z
S1 S 0.35659(13) 0.70277(3) 0.56764(7)
S2 S 0.30235(12) 0.72263(3) 0.29398(7)
O1 O 0.3146(4) 0.65351(11) 0.6554(2)
O2 O 0.5896(4) 0.71206(12) 0.5551(2)
O3 O 0.3123(4) 0.79194(10) 0.33156(19)
O4 O 0.5098(4) 0.68922(10) 0.2818(2)
O5 O 0.0675(4) 0.46414(11) 0.6051(2)
O6 O 0.3562(4) 0.47594(11) 0.50435(19)
C1 C 0.1829(5) 0.67712(15) 0.4104(3)
H1 H 0.0176 0.6904 0.4020
C2 C 0.2505(5) 0.77994(14) 0.6088(3)
C3 C 0.3664(5) 0.83968(15) 0.5948(3)
H2 H 0.4917 0.8398 0.5542
C4 C 0.2941(6) 0.89874(15) 0.6415(3)
H3 H 0.3695 0.9399 0.6325
C5 C 0.1142(6) 0.89778(16) 0.7007(3)
H4 H 0.0684 0.9383 0.7342
C6 C -0.0017(6) 0.83879(18) 0.7125(3)
H5 H -0.1279 0.8393 0.7524
C7 C 0.0643(5) 0.77932(15) 0.6668(3)
H6 H -0.0151 0.7387 0.6747
C8 C 0.0984(5) 0.71658(15) 0.1483(3)
C9 C 0.1620(6) 0.68437(16) 0.0488(3)
H7 H 0.3096 0.6638 0.0602
C10 C 0.0068(7) 0.68274(18) -0.0673(3)
H8 H 0.0475 0.6608 -0.1365
C11 C -0.2063(7) 0.7128(2) -0.0829(3)
H9 H -0.3120 0.7113 -0.1629
C12 C -0.2691(6) 0.74526(18) 0.0159(3)
H10 H -0.4176 0.7654 0.0039
C13 C -0.1152(5) 0.74847(15) 0.1331(3)
H11 H -0.1546 0.7718 0.2012
C14 C 0.2001(5) 0.59957(14) 0.3991(3)
H12 H 0.3673 0.5873 0.4278
C15 C 0.0701(5) 0.56176(14) 0.4830(3)
C16 C -0.1335(5) 0.57953(16) 0.5042(3)
H13 H -0.2104 0.5506 0.5505
H14 H -0.2019 0.6211 0.4729
C17 C 0.1817(5) 0.49672(15) 0.5309(3)
C18 C 0.1543(6) 0.39770(16) 0.6434(3)
H15 H 0.1463 0.3698 0.5685
H16 H 0.0600 0.3774 0.6964
H17 H 0.3153 0.4009 0.6912
C19 C 0.1151(5) 0.57236(14) 0.2656(3)
C20 C 0.2645(5) 0.53584(15) 0.2097(3)
H18 H 0.4231 0.5318 0.2514
C21 C 0.1829(5) 0.50529(16) 0.0934(3)
H19 H 0.2862 0.4796 0.0575
C22 C -0.0469(6) 0.51155(16) 0.0284(3)
C23 C -0.1934(5) 0.54858(15) 0.0843(3)
H20 H -0.3508 0.5538 0.0413
C24 C -0.1163(5) 0.57812(14) 0.2009(3)
H21 H -0.2214 0.6026 0.2375
C25 C -0.1348(6) 0.4733(2) -0.0950(3)
H22 H 0.0007 0.4655 -0.1331
C26 C -0.3154(8) 0.5122(2) -0.1908(3)
H23 H -0.3453 0.4889 -0.2723
H24 H -0.2578 0.5575 -0.2003
H25 H -0.4591 0.5150 -0.1616
C27 C -0.2282(8) 0.40476(18) -0.0698(4)
H26 H -0.1093 0.3802 -0.0091
H27 H -0.2703 0.3794 -0.1488
H28 H -0.3654 0.4106 -0.0353
loop_
_geom_bond_atom_site_label_1
_geom_bond_atom_site_label_2
_geom_bond_site_symmetry_1
_geom_bond_site_symmetry_2
S1 O1 1_555 1_555
S2 O3 1_555 1_555
O2 S1 1_555 1_555
O4 S2 1_555 1_555
O5 C17 1_555 1_555
O6 C17 1_555 1_555
C1 S1 1_555 1_555
H1 C1 1_555 1_555
C2 S1 1_555 1_555
C3 C2 1_555 1_555
H2 C3 1_555 1_555
C4 C3 1_555 1_555
H3 C4 1_555 1_555
C5 C4 1_555 1_555
H4 C5 1_555 1_555
C6 C5 1_555 1_555
H5 C6 1_555 1_555
C7 C2 1_555 1_555
H6 C7 1_555 1_555
C8 S2 1_555 1_555
C9 C8 1_555 1_555
H7 C9 1_555 1_555
C10 C9 1_555 1_555
H8 C10 1_555 1_555
C11 C10 1_555 1_555
H9 C11 1_555 1_555
C12 C11 1_555 1_555
H10 C12 1_555 1_555
C13 C8 1_555 1_555
H11 C13 1_555 1_555
C14 C1 1_555 1_555
H12 C14 1_555 1_555
C15 C14 1_555 1_555
C16 C15 1_555 1_555
H13 C16 1_555 1_555
H14 C16 1_555 1_555
C17 C15 1_555 1_555
C18 O5 1_555 1_555
H15 C18 1_555 1_555
H16 C18 1_555 1_555
H17 C18 1_555 1_555
C19 C14 1_555 1_555
C20 C19 1_555 1_555
H18 C20 1_555 1_555
C21 C20 1_555 1_555
H19 C21 1_555 1_555
C22 C21 1_555 1_555
C23 C22 1_555 1_555
H20 C23 1_555 1_555
C24 C19 1_555 1_555
H21 C24 1_555 1_555
C25 C22 1_555 1_555
H22 C25 1_555 1_555
C26 C25 1_555 1_555
H23 C26 1_555 1_555
H24 C26 1_555 1_555
H25 C26 1_555 1_555
C27 C25 1_555 1_555
H26 C27 1_555 1_555
H27 C27 1_555 1_555
H28 C27 1_555 1_555
S2 C1 1_555 1_555
C6 C7 1_555 1_555
C12 C13 1_555 1_555
C23 C24 1_555 1_555

#END
