
#######################################################################
#
#                 Cambridge Crystallographic Data Centre
#                                CCDC 
#
#######################################################################
#
# If this CIF has been generated from an entry in the Cambridge 
# Structural Database, then it will include bibliographic, chemical, 
# crystal, experimental, refinement or atomic coordinate data resulting 
# from the CCDC's data processing and validation procedures.
#
#######################################################################

data_EXAVUW
_chemical_formula_moiety         'C64 H86 N12'
_chemical_name_systematic        
N,N,N',N',N'',N'',N''',N'''-octabutyl-29H,31H-phthalocyanine-1,8,15,22-tetramine
_symmetry_cell_setting           monoclinic
_symmetry_space_group_name_H-M   'P 21/c'
_symmetry_Int_Tables_number      14
_space_group_name_Hall           '-P 2ybc'
loop_
_symmetry_equiv_pos_site_id
_symmetry_equiv_pos_as_xyz
1 x,y,z
2 -x,1/2+y,1/2-z
3 -x,-y,-z
4 x,1/2-y,1/2+z
_cell_length_a                   12.2251(3)
_cell_length_b                   15.5805(4)
_cell_length_c                   15.2914(4)
_cell_angle_alpha                90
_cell_angle_beta                 92.105(2)
_cell_angle_gamma                90
_cell_volume                     2910.64
_exptl_crystal_colour            green
_exptl_crystal_description       block
_cell_formula_units_Z            2
loop_
_atom_site_label
_atom_site_type_symbol
_atom_site_fract_x
_atom_site_fract_y
_atom_site_fract_z
C1 C 1.0375(4) 0.2599(3) 1.0813(4)
H1 H 1.1154 0.2720 1.0834
H2 H 0.9998 0.3146 1.0828
C2 C 1.0089(5) 0.2175(4) 0.9937(4)
H3 H 1.0196 0.2590 0.9475
H4 H 0.9319 0.2024 0.9921
C3 C 1.0762(9) 0.1362(9) 0.9741(7)
H5 H 1.1524 0.1474 0.9862
H6 H 1.0651 0.1209 0.9136
H7 H 1.0528 0.0898 1.0102
N1 N 0.62421(15) 0.01246(13) 1.08364(12)
H8 H 0.5689 0.0088 1.0474
C4 C 0.65664(18) -0.04800(17) 1.14295(14)
N2 N 0.69248(15) 0.15141(14) 1.04396(12)
N3 N 0.61470(15) -0.12538(14) 1.15683(12)
N4 N 0.53067(15) 0.11642(14) 0.95422(12)
C5 C 0.69475(17) 0.07996(16) 1.09168(14)
C6 C 0.61717(18) 0.16710(16) 0.98163(14)
C7 C 0.75325(18) -0.01812(17) 1.19316(15)
C8 C 0.77741(18) 0.06305(17) 1.16116(14)
N5 N 0.40180(17) 0.30672(15) 0.75925(13)
C9 C 0.68879(19) 0.31073(16) 0.92502(15)
H9 H 0.7499 0.3133 0.9630
C10 C 0.8457(2) 0.31367(18) 1.25760(18)
H10 H 0.8521 0.2766 1.3085
H11 H 0.9155 0.3422 1.2513
N6 N 0.89752(16) 0.18934(16) 1.16238(14)
C11 C 0.52074(19) 0.23965(16) 0.87267(14)
C12 C 0.4838(2) 0.18007(19) 0.62623(17)
H12 H 0.5529 0.2069 0.6132
H13 H 0.4867 0.1648 0.6878
C13 C 0.61422(18) 0.24456(16) 0.92900(14)
C14 C 0.9368(2) 0.0641(2) 1.25563(16)
H14 H 1.0009 0.0901 1.2768
C15 C 0.9104(2) -0.0164(2) 1.28697(17)
H15 H 0.9563 -0.0421 1.3292
C16 C 0.52931(18) -0.15705(16) 1.11225(14)
C17 C 0.6686(2) 0.37314(17) 0.86212(15)
H16 H 0.7185 0.4177 0.8564
C18 C 0.81757(19) -0.05932(19) 1.25708(16)
H17 H 0.7991 -0.1130 1.2786
C19 C 0.87114(18) 0.10799(18) 1.19331(15)
C20 C 0.4972(2) 0.30565(16) 0.81126(14)
C21 C 0.8199(2) 0.25902(19) 1.17623(17)
H18 H 0.7474 0.2346 1.1809
H19 H 0.8183 0.2961 1.1252
C22 C 0.4052(2) 0.32609(19) 0.66555(17)
H20 H 0.4740 0.3539 0.6536
H21 H 0.3464 0.3655 0.6494
C23 C 0.5756(2) 0.37069(17) 0.80744(15)
H22 H 0.5649 0.4143 0.7664
C24 C 0.3933(2) 0.2443(2) 0.61026(16)
H23 H 0.3240 0.2172 0.6225
H24 H 0.3910 0.2602 0.5489
C25 C 0.7586(3) 0.3799(2) 1.2716(2)
H25 H 0.6908 0.3511 1.2848
H26 H 0.7461 0.4123 1.2180
C26 C 0.4711(3) 0.0995(2) 0.5728(2)
H27 H 0.4022 0.0730 0.5844
H28 H 0.5295 0.0606 0.5883
H29 H 0.4734 0.1135 0.5118
C27 C 0.7896(3) 0.4415(2) 1.3458(2)
H30 H 0.8012 0.4099 1.3991
H31 H 0.7315 0.4822 1.3526
H32 H 0.8555 0.4714 1.3322
C28 C 1.0125(2) 0.2131(3) 1.1598(2)
C29 C 0.2978(2) 0.3036(2) 0.8013(2)
H33 H 0.2986 0.2563 0.8425
H34 H 0.2402 0.2926 0.7574
C30 C 0.2711(3) 0.3884(4) 0.8508(3)
H35 H 0.3382 0.4072 0.8806
H36 H 0.2524 0.4313 0.8068
C31 C 0.1702(4) 0.4748(4) 0.9539(3)
H37 H 0.2347 0.4921 0.9870
H38 H 0.1102 0.4694 0.9923
H39 H 0.1527 0.5171 0.9100
C32 C 0.1905(4) 0.3899(5) 0.9109(3)
H40 H 0.2091 0.3484 0.9562
H41 H 0.1227 0.3712 0.8820
H42 H 1.040(2) 0.2307(19) 1.216(2)
C1B C -0.0375(4) -0.2599(3) 0.9187(4)
H1B H -0.1154 -0.2720 0.9166
H2B H 0.0002 -0.3146 0.9172
C2B C -0.0089(5) -0.2175(4) 1.0063(4)
H3B H -0.0196 -0.2590 1.0525
H4B H 0.0681 -0.2024 1.0079
C3B C -0.0762(9) -0.1362(9) 1.0259(7)
H5B H -0.1524 -0.1474 1.0138
H6B H -0.0651 -0.1209 1.0864
H7B H -0.0528 -0.0898 0.9898
N1B N 0.37579(15) -0.01246(13) 0.91636(12)
H8B H 0.4311 -0.0088 0.9526
C4B C 0.34336(18) 0.04800(17) 0.85705(14)
N2B N 0.30752(15) -0.15141(14) 0.95604(12)
N3B N 0.38530(15) 0.12538(14) 0.84317(12)
N4B N 0.46933(15) -0.11642(14) 1.04578(12)
C5B C 0.30525(17) -0.07996(16) 0.90832(14)
C6B C 0.38283(18) -0.16710(16) 1.01837(14)
C7B C 0.24675(18) 0.01812(17) 0.80684(15)
C8B C 0.22259(18) -0.06305(17) 0.83884(14)
N5B N 0.59820(17) -0.30672(15) 1.24075(13)
C9B C 0.31121(19) -0.31073(16) 1.07498(15)
H9B H 0.2501 -0.3133 1.0370
C10B C 0.1543(2) -0.31367(18) 0.74240(18)
H10B H 0.1479 -0.2766 0.6915
H11B H 0.0845 -0.3422 0.7487
N6B N 0.10248(16) -0.18934(16) 0.83762(14)
C11B C 0.47926(19) -0.23965(16) 1.12733(14)
C12B C 0.5162(2) -0.18007(19) 1.37377(17)
H12B H 0.4471 -0.2069 1.3868
H13B H 0.5133 -0.1648 1.3122
C13B C 0.38578(18) -0.24456(16) 1.07100(14)
C14B C 0.0632(2) -0.0641(2) 0.74437(16)
H14B H -0.0009 -0.0901 0.7232
C15B C 0.0896(2) 0.0164(2) 0.71303(17)
H15B H 0.0437 0.0421 0.6708
C16B C 0.47069(18) 0.15705(16) 0.88775(14)
C17B C 0.3314(2) -0.37314(17) 1.13788(15)
H16B H 0.2815 -0.4177 1.1436
C18B C 0.18243(19) 0.05932(19) 0.74292(16)
H17B H 0.2009 0.1130 0.7214
C19B C 0.12886(18) -0.10799(18) 0.80669(15)
C20B C 0.5028(2) -0.30565(16) 1.18874(14)
C21B C 0.1801(2) -0.25902(19) 0.82377(17)
H18B H 0.2526 -0.2346 0.8191
H19B H 0.1817 -0.2961 0.8748
C22B C 0.5948(2) -0.32609(19) 1.33445(17)
H20B H 0.5260 -0.3539 1.3464
H21B H 0.6536 -0.3655 1.3506
C23B C 0.4244(2) -0.37069(17) 1.19256(15)
H22B H 0.4351 -0.4143 1.2336
C24B C 0.6067(2) -0.2443(2) 1.38974(16)
H23B H 0.6760 -0.2172 1.3775
H24B H 0.6090 -0.2602 1.4511
C25B C 0.2414(3) -0.3799(2) 0.7284(2)
H25B H 0.3092 -0.3511 0.7152
H26B H 0.2539 -0.4123 0.7820
C26B C 0.5289(3) -0.0995(2) 1.4272(2)
H27B H 0.5978 -0.0730 1.4156
H28B H 0.4705 -0.0606 1.4117
H29B H 0.5266 -0.1135 1.4882
C27B C 0.2104(3) -0.4415(2) 0.6542(2)
H30B H 0.1988 -0.4099 0.6009
H31B H 0.2685 -0.4822 0.6474
H32B H 0.1445 -0.4714 0.6678
C28B C -0.0125(2) -0.2131(3) 0.8402(2)
C29B C 0.7022(2) -0.3036(2) 1.1987(2)
H33B H 0.7014 -0.2563 1.1575
H34B H 0.7598 -0.2926 1.2426
C30B C 0.7289(3) -0.3884(4) 1.1492(3)
H35B H 0.6618 -0.4072 1.1194
H36B H 0.7476 -0.4313 1.1932
C31B C 0.8298(4) -0.4748(4) 1.0461(3)
H37B H 0.7653 -0.4921 1.0130
H38B H 0.8898 -0.4694 1.0077
H39B H 0.8473 -0.5171 1.0900
C32B C 0.8095(4) -0.3899(5) 1.0891(3)
H40B H 0.7909 -0.3484 1.0438
H41B H 0.8773 -0.3712 1.1180
H42B H -0.040(2) -0.2307(19) 0.784(2)
C33? C 1.0711(5) 0.1709(4) 1.1033(4)
H43? H 1.0845 0.1138 1.1266
H44? H 1.1415 0.1992 1.1005
C34? C 1.0230(7) 0.1613(6) 1.0083(6)
H45? H 0.9519 0.1339 1.0101
H46? H 1.0123 0.2180 0.9832
C35? C 1.0942(15) 0.1102(14) 0.9502(10)
H47? H 1.1568 0.1438 0.9357
H48? H 1.0535 0.0951 0.8976
H49? H 1.1179 0.0589 0.9801
H50? H 1.015(9) 0.2701(18) 1.148(8)
loop_
_geom_bond_atom_site_label_1
_geom_bond_atom_site_label_2
_geom_bond_site_symmetry_1
_geom_bond_site_symmetry_2
C1 H1 1_555 1_555
H2 C1 1_555 1_555
C2 C1 1_555 1_555
H3 C2 1_555 1_555
H4 C2 1_555 1_555
C3 C2 1_555 1_555
H5 C3 1_555 1_555
H6 C3 1_555 1_555
H7 C3 1_555 1_555
N1 H8 1_555 1_555
C4 N1 1_555 1_555
N2 C5 1_555 1_555
N3 C4 1_555 1_555
N4 C6 1_555 1_555
C5 N1 1_555 1_555
C6 N2 1_555 1_555
C7 C4 1_555 1_555
C8 C5 1_555 1_555
N5 C20 1_555 1_555
C9 H9 1_555 1_555
C10 H10 1_555 1_555
H11 C10 1_555 1_555
N6 C19 1_555 1_555
C11 C13 1_555 1_555
C12 H12 1_555 1_555
H13 C12 1_555 1_555
C13 C6 1_555 1_555
C14 H14 1_555 1_555
C15 C14 1_555 1_555
H15 C15 1_555 1_555
C16 N3 1_555 1_555
C17 C9 1_555 1_555
H16 C17 1_555 1_555
C18 C7 1_555 1_555
H17 C18 1_555 1_555
C19 C8 1_555 1_555
C20 C11 1_555 1_555
C21 C10 1_555 1_555
H18 C21 1_555 1_555
H19 C21 1_555 1_555
C22 N5 1_555 1_555
H20 C22 1_555 1_555
H21 C22 1_555 1_555
C23 C17 1_555 1_555
H22 C23 1_555 1_555
C24 C12 1_555 1_555
H23 C24 1_555 1_555
H24 C24 1_555 1_555
C25 C10 1_555 1_555
H25 C25 1_555 1_555
H26 C25 1_555 1_555
C26 C12 1_555 1_555
H27 C26 1_555 1_555
H28 C26 1_555 1_555
H29 C26 1_555 1_555
C27 C25 1_555 1_555
H30 C27 1_555 1_555
H31 C27 1_555 1_555
H32 C27 1_555 1_555
C28 C1 1_555 1_555
C29 N5 1_555 1_555
H33 C29 1_555 1_555
H34 C29 1_555 1_555
C30 C29 1_555 1_555
H35 C30 1_555 1_555
H36 C30 1_555 1_555
C31 H37 1_555 1_555
H38 C31 1_555 1_555
H39 C31 1_555 1_555
C32 C30 1_555 1_555
H40 C32 1_555 1_555
H41 C32 1_555 1_555
H42 C28 1_555 1_555
C1B H1B 1_555 1_555
H2B C1B 1_555 1_555
C2B C1B 1_555 1_555
H3B C2B 1_555 1_555
H4B C2B 1_555 1_555
C3B C2B 1_555 1_555
H5B C3B 1_555 1_555
H6B C3B 1_555 1_555
H7B C3B 1_555 1_555
N1B H8B 1_555 1_555
C4B N1B 1_555 1_555
N2B C5B 1_555 1_555
N3B C4B 1_555 1_555
N4B C16 1_555 1_555
C5B N1B 1_555 1_555
C6B N2B 1_555 1_555
C7B C4B 1_555 1_555
C8B C5B 1_555 1_555
N5B C20B 1_555 1_555
C9B H9B 1_555 1_555
C10B H10B 1_555 1_555
H11B C10B 1_555 1_555
N6B C19B 1_555 1_555
C11B C16 1_555 1_555
C12B H12B 1_555 1_555
H13B C12B 1_555 1_555
C13B C6B 1_555 1_555
C14B H14B 1_555 1_555
C15B C14B 1_555 1_555
H15B C15B 1_555 1_555
C16B N4 1_555 1_555
C17B C9B 1_555 1_555
H16B C17B 1_555 1_555
C18B C7B 1_555 1_555
H17B C18B 1_555 1_555
C19B C8B 1_555 1_555
C20B C11B 1_555 1_555
C21B C10B 1_555 1_555
H18B C21B 1_555 1_555
H19B C21B 1_555 1_555
C22B N5B 1_555 1_555
H20B C22B 1_555 1_555
H21B C22B 1_555 1_555
C23B C17B 1_555 1_555
H22B C23B 1_555 1_555
C24B C12B 1_555 1_555
H23B C24B 1_555 1_555
H24B C24B 1_555 1_555
C25B C10B 1_555 1_555
H25B C25B 1_555 1_555
H26B C25B 1_555 1_555
C26B C12B 1_555 1_555
H27B C26B 1_555 1_555
H28B C26B 1_555 1_555
H29B C26B 1_555 1_555
C27B C25B 1_555 1_555
H30B C27B 1_555 1_555
H31B C27B 1_555 1_555
H32B C27B 1_555 1_555
C28B C1B 1_555 1_555
C29B N5B 1_555 1_555
H33B C29B 1_555 1_555
H34B C29B 1_555 1_555
C30B C29B 1_555 1_555
H35B C30B 1_555 1_555
H36B C30B 1_555 1_555
C31B H37B 1_555 1_555
H38B C31B 1_555 1_555
H39B C31B 1_555 1_555
C32B C30B 1_555 1_555
H40B C32B 1_555 1_555
H41B C32B 1_555 1_555
H42B C28B 1_555 1_555
C7 C8 1_555 1_555
C9 C13 1_555 1_555
N6 C21 1_555 1_555
N6 C28 1_555 1_555
C11 C16B 1_555 1_555
C14 C19 1_555 1_555
C15 C18 1_555 1_555
C20 C23 1_555 1_555
C22 C24 1_555 1_555
C31 C32 1_555 1_555
N3B C16B 1_555 1_555
N4B C6B 1_555 1_555
C7B C8B 1_555 1_555
C9B C13B 1_555 1_555
N6B C21B 1_555 1_555
N6B C28B 1_555 1_555
C11B C13B 1_555 1_555
C14B C19B 1_555 1_555
C15B C18B 1_555 1_555
C20B C23B 1_555 1_555
C22B C24B 1_555 1_555
C31B C32B 1_555 1_555

#END
