
#######################################################################
#
#                 Cambridge Crystallographic Data Centre
#                                CCDC 
#
#######################################################################
#
# If this CIF has been generated from an entry in the Cambridge 
# Structural Database, then it will include bibliographic, chemical, 
# crystal, experimental, refinement or atomic coordinate data resulting 
# from the CCDC's data processing and validation procedures.
#
#######################################################################

data_EXAWUX
_chemical_formula_moiety         '2(C36 H30 N1 P2 1+),N6 O18 Si1 2-'
_chemical_name_systematic        
'bis(bis(triphenylphosphino)iminium) hexakis(nitrato)silicate'
_symmetry_cell_setting           triclinic
_symmetry_space_group_name_H-M   'P -1'
_symmetry_Int_Tables_number      2
_space_group_name_Hall           '-P 1'
loop_
_symmetry_equiv_pos_site_id
_symmetry_equiv_pos_as_xyz
1 x,y,z
2 -x,-y,-z
_cell_length_a                   13.1566(5)
_cell_length_b                   15.5873(6)
_cell_length_c                   17.2414(8)
_cell_angle_alpha                85.964(2)
_cell_angle_beta                 77.737(2)
_cell_angle_gamma                83.246(2)
_cell_volume                     3427.38
_exptl_crystal_colour            colorless
_exptl_crystal_description       block
_cell_formula_units_Z            2
loop_
_atom_site_label
_atom_site_type_symbol
_atom_site_fract_x
_atom_site_fract_y
_atom_site_fract_z
C1 C 1.09965(18) 0.91864(14) 0.26108(14)
C2 C 1.18735(19) 0.93323(14) 0.20276(14)
H1 H 1.1793 0.9630 0.1541
C3 C 1.28701(19) 0.90423(14) 0.21554(15)
H2 H 1.3471 0.9151 0.1761
C4 C 1.2979(2) 0.85943(14) 0.28624(14)
H3 H 1.3657 0.8400 0.2954
C5 C 1.21106(19) 0.84300(14) 0.34321(14)
H4 H 1.2195 0.8113 0.3909
C6 C 1.11151(19) 0.87214(14) 0.33183(14)
H5 H 1.0519 0.8608 0.3715
C7 C 0.96486(18) 1.06154(14) 0.20529(14)
C8 C 0.88664(19) 1.09290(16) 0.16394(15)
H6 H 0.8426 1.0546 0.1506
C9 C 0.8738(2) 1.18020(18) 0.14252(17)
H7 H 0.8217 1.2018 0.1135
C10 C 0.9364(2) 1.23576(17) 0.16331(18)
H8 H 0.9262 1.2957 0.1494
C11 C 1.0142(2) 1.20541(16) 0.20426(16)
H9 H 1.0572 1.2443 0.2181
C12 C 1.02901(19) 1.11796(15) 0.22488(15)
H10 H 1.0829 1.0965 0.2524
C13 C 0.94835(18) 0.88264(15) 0.17107(14)
C14 C 0.9696(2) 0.90376(18) 0.09042(16)
H11 H 0.9966 0.9569 0.0713
C15 C 0.9514(3) 0.8472(2) 0.03744(18)
H12 H 0.9633 0.8628 -0.0178
C16 C 0.9162(2) 0.7687(2) 0.06434(18)
H13 H 0.9049 0.7300 0.0276
C17 C 0.8974(2) 0.74605(18) 0.14429(18)
H14 H 0.8743 0.6913 0.1626
C18 C 0.9122(2) 0.80283(15) 0.19793(16)
H15 H 0.8978 0.7876 0.2532
C19 C 0.78974(17) 0.93416(14) 0.47959(13)
C20 C 0.78699(18) 0.84482(15) 0.48201(14)
H16 H 0.7926 0.8160 0.4343
C21 C 0.77603(19) 0.79816(16) 0.55423(15)
H17 H 0.7723 0.7375 0.5560
C22 C 0.77041(18) 0.83961(15) 0.62397(14)
H18 H 0.7638 0.8074 0.6733
C23 C 0.77450(18) 0.92772(16) 0.62129(14)
H19 H 0.7716 0.9561 0.6688
C24 C 0.78276(18) 0.97496(15) 0.54998(14)
H20 H 0.7837 1.0359 0.5489
C25 C 0.83365(18) 1.09854(15) 0.39672(14)
C26 C 0.92279(19) 1.10666(16) 0.42601(14)
H21 H 0.9660 1.0564 0.4379
C27 C 0.9486(2) 1.18749(17) 0.43783(15)
H22 H 1.0097 1.1927 0.4576
C28 C 0.8855(2) 1.26085(17) 0.42086(16)
H23 H 0.9020 1.3163 0.4307
C29 C 0.7984(2) 1.25394(16) 0.38969(16)
H24 H 0.7565 1.3045 0.3765
C30 C 0.77246(19) 1.17279(15) 0.37777(15)
H25 H 0.7125 1.1679 0.3565
C31 C 0.67719(18) 1.00392(14) 0.35695(13)
C32 C 0.66786(19) 0.97998(15) 0.28277(14)
H26 H 0.7274 0.9541 0.2475
C33 C 0.57260(19) 0.99360(16) 0.26014(15)
H27 H 0.5663 0.9765 0.2097
C34 C 0.4865(2) 1.03201(16) 0.31082(15)
H28 H 0.4216 1.0429 0.2943
C35 C 0.49360(19) 1.05516(16) 0.38611(15)
H29 H 0.4337 1.0808 0.4211
C36 C 0.58872(18) 1.04033(14) 0.40915(14)
H30 H 0.5941 1.0549 0.4606
N1 N 0.88754(15) 0.93578(12) 0.32343(11)
P1 P 0.80288(5) 0.99179(4) 0.38411(4)
P2 P 0.97054(5) 0.95114(4) 0.24413(4)
C37 C 0.51292(18) 0.67277(14) 0.31592(13)
C38 C 0.43728(19) 0.69518(14) 0.38362(14)
H31 H 0.3751 0.6672 0.3970
C39 C 0.4533(2) 0.75834(15) 0.43124(14)
H32 H 0.4013 0.7746 0.4766
C40 C 0.5448(2) 0.79758(16) 0.41262(15)
H33 H 0.5557 0.8407 0.4454
C41 C 0.6206(2) 0.77453(16) 0.34665(16)
H34 H 0.6837 0.8012 0.3347
C42 C 0.6048(2) 0.71252(15) 0.29784(15)
H35 H 0.6566 0.6972 0.2521
C43 C 0.46922(18) 0.49675(14) 0.30944(14)
C44 C 0.51988(19) 0.47582(15) 0.37286(14)
H36 H 0.5588 0.5165 0.3889
C45 C 0.5130(2) 0.39570(16) 0.41204(16)
H37 H 0.5477 0.3813 0.4549
C46 C 0.4559(2) 0.33615(16) 0.38934(16)
H38 H 0.4515 0.2812 0.4168
C47 C 0.40542(19) 0.35658(15) 0.32675(15)
H39 H 0.3667 0.3155 0.3111
C48 C 0.41106(18) 0.43656(14) 0.28689(14)
H40 H 0.3756 0.4507 0.2443
C49 C 0.37662(18) 0.63465(14) 0.21340(14)
C50 C 0.27644(19) 0.63338(14) 0.25975(15)
H41 H 0.2668 0.6071 0.3118
C51 C 0.1902(2) 0.67058(16) 0.22994(16)
H42 H 0.1217 0.6693 0.2614
C52 C 0.2046(2) 0.70938(15) 0.15432(16)
H43 H 0.1457 0.7349 0.1341
C53 C 0.3040(2) 0.71127(15) 0.10798(16)
H44 H 0.3132 0.7385 0.0563
C54 C 0.39026(19) 0.67361(14) 0.13673(14)
H45 H 0.4584 0.6742 0.1045
C55 C 0.69918(18) 0.55507(15) 0.02752(14)
C56 C 0.71496(18) 0.50147(16) -0.03641(14)
H46 H 0.7041 0.4421 -0.0272
C57 C 0.74644(18) 0.53491(17) -0.11329(14)
H47 H 0.7559 0.4986 -0.1568
C58 C 0.76416(19) 0.62071(17) -0.12705(15)
H48 H 0.7853 0.6432 -0.1800
C59 C 0.75136(19) 0.67422(16) -0.06414(15)
H49 H 0.7654 0.7329 -0.0738
C60 C 0.71802(18) 0.64190(15) 0.01304(14)
H50 H 0.7079 0.6788 0.0562
C61 C 0.62247(18) 0.41130(14) 0.13386(14)
C62 C 0.54380(19) 0.39988(16) 0.09346(15)
H51 H 0.5168 0.4466 0.0628
C63 C 0.5055(2) 0.32055(17) 0.09826(17)
H52 H 0.4539 0.3125 0.0691
C64 C 0.5409(2) 0.25312(17) 0.14456(18)
H53 H 0.5130 0.1991 0.1483
C65 C 0.6177(2) 0.26433(16) 0.18584(18)
H54 H 0.6425 0.2178 0.2179
C66 C 0.6585(2) 0.34286(15) 0.18052(16)
H55 H 0.7113 0.3501 0.2088
C67 C 0.79199(18) 0.50120(14) 0.16020(14)
C68 C 0.7956(2) 0.50815(16) 0.23965(15)
H56 H 0.7325 0.5198 0.2778
C69 C 0.8904(2) 0.49817(17) 0.26317(17)
H57 H 0.8925 0.5022 0.3175
C70 C 0.9822(2) 0.48233(17) 0.20753(17)
H58 H 1.0475 0.4768 0.2236
C71 C 0.9797(2) 0.47445(18) 0.12864(16)
H59 H 1.0429 0.4627 0.0907
C72 C 0.88499(19) 0.48372(16) 0.10532(15)
H60 H 0.8832 0.4781 0.0511
N2 N 0.59048(15) 0.58574(11) 0.18023(11)
P3 P 0.66857(5) 0.51585(4) 0.12966(4)
P4 P 0.49200(5) 0.59463(4) 0.25062(4)
N3 N 0.21296(17) 0.50180(15) 0.49646(13)
N4 N 0.11016(16) 0.41454(13) 0.36231(12)
N5 N -0.04287(19) 0.65053(13) 0.40506(13)
O1 O 0.12247(12) 0.54433(10) 0.48374(10)
O2 O 0.23152(14) 0.42487(12) 0.48618(12)
O3 O 0.04419(12) 0.41308(9) 0.43406(9)
O4 O 0.12515(14) 0.34576(10) 0.33037(10)
O5 O 0.14761(13) 0.48014(11) 0.33474(10)
O6 O -0.03485(13) 0.56414(10) 0.41898(9)
O7 O 0.01103(16) 0.69320(11) 0.43204(11)
O8 O 0.2806(12) 0.5467(17) 0.5025(14)
O9 O -0.0926(12) 0.681(2) 0.3553(12)
Si1 Si 0.0000 0.5000 0.5000
N3A N -0.21296(17) 0.49820(15) 0.50354(13)
N4A N -0.11016(16) 0.58546(13) 0.63769(12)
N5A N 0.04287(19) 0.34947(13) 0.59494(13)
O1A O -0.12247(12) 0.45567(10) 0.51626(10)
O2A O -0.23152(14) 0.57513(12) 0.51382(12)
O3A O -0.04419(12) 0.58692(9) 0.56594(9)
O4A O -0.12515(14) 0.65424(10) 0.66963(10)
O5A O -0.14761(13) 0.51986(11) 0.66526(10)
O6A O 0.03485(13) 0.43586(10) 0.58102(9)
O7A O -0.01103(16) 0.30680(11) 0.56796(11)
O8A O -0.2806(12) 0.4533(17) 0.4975(14)
O9A O 0.0926(12) 0.319(2) 0.6447(12)
N6 N 0.56541(17) 0.84372(13) 0.07557(12)
N7 N 0.34309(16) 1.09803(12) 0.10615(12)
N8 N 0.31889(17) 0.93061(13) -0.02413(13)
O12 O 0.55061(12) 0.93072(9) 0.07233(9)
O13 O 0.54417(13) 0.80241(10) 0.02585(10)
O14 O 0.44261(12) 1.06289(9) 0.08547(9)
O15 O 0.28351(13) 1.09934(10) 0.06044(10)
O16 O 0.32098(14) 1.12848(11) 0.17181(10)
O17 O 0.38901(12) 0.94071(10) 0.02060(9)
O18 O 0.34334(14) 0.93803(11) -0.09591(10)
O19 O 0.6214(7) 0.8184(10) 0.1235(5)
O20 O 0.2300(9) 0.9217(13) 0.0124(18)
Si2 Si 0.5000 1.0000 0.0000
N6A N 0.43459(17) 1.15628(13) -0.07557(12)
N7A N 0.65691(16) 0.90197(12) -0.10615(12)
N8A N 0.68111(17) 1.06939(13) 0.02413(13)
O12A O 0.44939(12) 1.06928(9) -0.07233(9)
O13A O 0.45583(13) 1.19759(10) -0.02585(10)
O14A O 0.55739(12) 0.93711(9) -0.08547(9)
O15A O 0.71649(13) 0.90066(10) -0.06044(10)
O16A O 0.67902(14) 0.87152(11) -0.17181(10)
O17A O 0.61099(12) 1.05929(10) -0.02060(9)
O18A O 0.65666(14) 1.06197(11) 0.09591(10)
O19A O 0.3786(7) 1.1816(10) -0.1235(5)
O20A O 0.7700(9) 1.0783(13) -0.0124(18)
O10? O 0.2616(13) 0.5476(17) 0.5266(14)
O11? O -0.1145(12) 0.6731(19) 0.3704(11)
O21? O 0.5819(7) 0.8104(10) 0.1395(5)
O22? O 0.2411(10) 0.8997(13) 0.0140(18)
loop_
_geom_bond_atom_site_label_1
_geom_bond_atom_site_label_2
_geom_bond_site_symmetry_1
_geom_bond_site_symmetry_2
C1 C2 1_555 1_555
C2 H1 1_555 1_555
C3 C2 1_555 1_555
H2 C3 1_555 1_555
C4 C3 1_555 1_555
H3 C4 1_555 1_555
C5 C4 1_555 1_555
H4 C5 1_555 1_555
C6 C1 1_555 1_555
H5 C6 1_555 1_555
C7 C8 1_555 1_555
C8 H6 1_555 1_555
C9 C8 1_555 1_555
H7 C9 1_555 1_555
C10 C9 1_555 1_555
H8 C10 1_555 1_555
C11 C10 1_555 1_555
H9 C11 1_555 1_555
C12 C7 1_555 1_555
H10 C12 1_555 1_555
C13 C14 1_555 1_555
C14 H11 1_555 1_555
C15 C14 1_555 1_555
H12 C15 1_555 1_555
C16 C15 1_555 1_555
H13 C16 1_555 1_555
C17 C16 1_555 1_555
H14 C17 1_555 1_555
C18 C13 1_555 1_555
H15 C18 1_555 1_555
C19 C20 1_555 1_555
C20 H16 1_555 1_555
C21 C20 1_555 1_555
H17 C21 1_555 1_555
C22 C21 1_555 1_555
H18 C22 1_555 1_555
C23 C22 1_555 1_555
H19 C23 1_555 1_555
C24 C19 1_555 1_555
H20 C24 1_555 1_555
C25 C26 1_555 1_555
C26 H21 1_555 1_555
C27 C26 1_555 1_555
H22 C27 1_555 1_555
C28 C27 1_555 1_555
H23 C28 1_555 1_555
C29 C28 1_555 1_555
H24 C29 1_555 1_555
C30 C25 1_555 1_555
H25 C30 1_555 1_555
C31 C32 1_555 1_555
C32 H26 1_555 1_555
C33 C32 1_555 1_555
H27 C33 1_555 1_555
C34 C33 1_555 1_555
H28 C34 1_555 1_555
C35 C34 1_555 1_555
H29 C35 1_555 1_555
C36 C31 1_555 1_555
H30 C36 1_555 1_555
N1 P1 1_555 1_555
P1 C19 1_555 1_555
P2 C1 1_555 1_555
C37 C38 1_555 1_555
C38 H31 1_555 1_555
C39 C38 1_555 1_555
H32 C39 1_555 1_555
C40 C39 1_555 1_555
H33 C40 1_555 1_555
C41 C40 1_555 1_555
H34 C41 1_555 1_555
C42 C37 1_555 1_555
H35 C42 1_555 1_555
C43 C44 1_555 1_555
C44 H36 1_555 1_555
C45 C44 1_555 1_555
H37 C45 1_555 1_555
C46 C45 1_555 1_555
H38 C46 1_555 1_555
C47 C46 1_555 1_555
H39 C47 1_555 1_555
C48 C43 1_555 1_555
H40 C48 1_555 1_555
C49 C50 1_555 1_555
C50 H41 1_555 1_555
C51 C50 1_555 1_555
H42 C51 1_555 1_555
C52 C51 1_555 1_555
H43 C52 1_555 1_555
C53 C52 1_555 1_555
H44 C53 1_555 1_555
C54 C49 1_555 1_555
H45 C54 1_555 1_555
C55 C56 1_555 1_555
C56 H46 1_555 1_555
C57 C56 1_555 1_555
H47 C57 1_555 1_555
C58 C57 1_555 1_555
H48 C58 1_555 1_555
C59 C58 1_555 1_555
H49 C59 1_555 1_555
C60 C55 1_555 1_555
H50 C60 1_555 1_555
C61 C62 1_555 1_555
C62 H51 1_555 1_555
C63 C62 1_555 1_555
H52 C63 1_555 1_555
C64 C63 1_555 1_555
H53 C64 1_555 1_555
C65 C64 1_555 1_555
H54 C65 1_555 1_555
C66 C61 1_555 1_555
H55 C66 1_555 1_555
C67 C68 1_555 1_555
C68 H56 1_555 1_555
C69 C68 1_555 1_555
H57 C69 1_555 1_555
C70 C69 1_555 1_555
H58 C70 1_555 1_555
C71 C70 1_555 1_555
H59 C71 1_555 1_555
C72 C67 1_555 1_555
H60 C72 1_555 1_555
N2 P3 1_555 1_555
P3 C55 1_555 1_555
P4 C37 1_555 1_555
N3 O1 1_555 1_555
N4 O3 1_555 1_555
N5 O6 1_555 1_555
O1 Si1 1_555 1_555
O2 N3 1_555 1_555
O3 Si1 1_555 1_555
O4 N4 1_555 1_555
O5 N4 1_555 1_555
O6 Si1 1_555 1_555
O7 N5 1_555 1_555
O8 N3 1_555 1_555
O9 N5 1_555 1_555
Si1 O1A 1_555 1_555
N6 O12 1_555 1_555
N7 O14 1_555 1_555
N8 O17 1_555 1_555
O12 Si2 1_555 1_555
O13 N6 1_555 1_555
O14 Si2 1_555 1_555
O15 N7 1_555 1_555
O16 N7 1_555 1_555
O17 Si2 1_555 1_555
O18 N8 1_555 1_555
O19 N6 1_555 1_555
O20 N8 1_555 1_555
Si2 O12A 1_555 1_555
N3A O1A 1_555 1_555
N4A O3A 1_555 1_555
N5A O6A 1_555 1_555
O2A N3A 1_555 1_555
O3A Si1 1_555 1_555
O4A N4A 1_555 1_555
O5A N4A 1_555 1_555
O6A Si1 1_555 1_555
O7A N5A 1_555 1_555
O8A N3A 1_555 1_555
O9A N5A 1_555 1_555
N6A O12A 1_555 1_555
N7A O14A 1_555 1_555
N8A O17A 1_555 1_555
O13A N6A 1_555 1_555
O14A Si2 1_555 1_555
O15A N7A 1_555 1_555
O16A N7A 1_555 1_555
O17A Si2 1_555 1_555
O18A N8A 1_555 1_555
O19A N6A 1_555 1_555
O20A N8A 1_555 1_555
C5 C6 1_555 1_555
C7 P2 1_555 1_555
C11 C12 1_555 1_555
C13 P2 1_555 1_555
C17 C18 1_555 1_555
C23 C24 1_555 1_555
C25 P1 1_555 1_555
C29 C30 1_555 1_555
C31 P1 1_555 1_555
C35 C36 1_555 1_555
N1 P2 1_555 1_555
C41 C42 1_555 1_555
C43 P4 1_555 1_555
C47 C48 1_555 1_555
C49 P4 1_555 1_555
C53 C54 1_555 1_555
C59 C60 1_555 1_555
C61 P3 1_555 1_555
C65 C66 1_555 1_555
C67 P3 1_555 1_555
C71 C72 1_555 1_555
N2 P4 1_555 1_555

#END
