
#######################################################################
#
#                 Cambridge Crystallographic Data Centre
#                                CCDC 
#
#######################################################################
#
# If this CIF has been generated from an entry in the Cambridge 
# Structural Database, then it will include bibliographic, chemical, 
# crystal, experimental, refinement or atomic coordinate data resulting 
# from the CCDC's data processing and validation procedures.
#
#######################################################################

data_EXBNTP
_chemical_formula_moiety         'C18 H15 O4 P1 S1'
_chemical_name_systematic        
12-Ethoxy-2,3-benzo-6,5-naphtho(b)-(7,12)-thiaphosphorin-7,7,12-trioxide
_symmetry_cell_setting           monoclinic
_symmetry_space_group_name_H-M   'P 21/n'
_symmetry_Int_Tables_number      14
_space_group_name_Hall           '-P 2yn'
loop_
_symmetry_equiv_pos_site_id
_symmetry_equiv_pos_as_xyz
1 x,y,z
2 1/2-x,1/2+y,1/2-z
3 -x,-y,-z
4 1/2+x,1/2-y,1/2+z
_cell_length_a                   14.71(1)
_cell_length_b                   8.07(2)
_cell_length_c                   14.30(1)
_cell_angle_alpha                90
_cell_angle_beta                 94.0(2)
_cell_angle_gamma                90
_cell_volume                     1693.41
_cell_formula_units_Z            4
loop_
_atom_site_label
_atom_site_type_symbol
_atom_site_fract_x
_atom_site_fract_y
_atom_site_fract_z
C1 C 0.32830 0.06730 -0.05030
C2 C 0.55540 0.32850 0.06280
C3 C 0.23110 -0.21600 0.04970
C4 C 0.21890 -0.21240 -0.04830
C5 C 0.20070 -0.35640 -0.09940
C6 C 0.19140 -0.50210 -0.05310
C7 C 0.20250 -0.50920 0.04100
C8 C 0.22280 -0.36750 0.09430
C9 C 0.10030 0.04040 0.15300
C10 C 0.03800 0.17900 0.15320
C11 C 0.38720 0.14240 -0.11030
C12 C 0.46180 0.22920 -0.07070
C13 C 0.47950 0.23830 0.02540
C14 C 0.42240 0.15550 0.08660
C15 C 0.34410 0.07130 0.04680
C16 C 0.44490 0.16480 0.18420
C17 C 0.52110 0.25290 0.21910
C18 C 0.57450 0.33430 0.15910
H1 H 0.59300 0.40400 0.00900
H2 H 0.18900 -0.35700 -0.16800
H3 H 0.17100 -0.58900 -0.08900
H4 H 0.20300 -0.59900 0.07600
H5 H 0.22100 -0.37900 0.16000
H6 H 0.11300 -0.00200 0.19300
H7 H 0.07000 -0.05800 0.11100
H8 H 0.07000 0.28400 0.17300
H9 H -0.03000 0.14100 0.17800
H10 H 0.03100 0.20100 0.09600
H11 H 0.36700 0.14000 -0.18000
H12 H 0.50800 0.27600 -0.11100
H13 H 0.40500 0.10000 0.22500
H14 H 0.53800 0.26700 0.28700
H15 H 0.63700 0.40800 0.17300
O1 O 0.30350 -0.09090 0.21080
O2 O 0.18590 0.08720 0.11610
O3 O 0.25180 -0.06090 -0.20290
O4 O 0.15360 0.08000 -0.09460
P1 P 0.26700 -0.03840 0.11800
S1 S 0.23050 -0.02360 -0.10880
loop_
_geom_bond_atom_site_label_1
_geom_bond_atom_site_label_2
_geom_bond_site_symmetry_1
_geom_bond_site_symmetry_2
C1 C11 1_555 1_555
C2 C13 1_555 1_555
C3 C4 1_555 1_555
C4 C5 1_555 1_555
C5 C6 1_555 1_555
C6 C7 1_555 1_555
C7 C8 1_555 1_555
C8 C3 1_555 1_555
C9 C10 1_555 1_555
C10 H8 1_555 1_555
C11 C12 1_555 1_555
C12 C13 1_555 1_555
C13 C14 1_555 1_555
C14 C15 1_555 1_555
C15 C1 1_555 1_555
C16 C14 1_555 1_555
C17 C16 1_555 1_555
C18 C2 1_555 1_555
H1 C2 1_555 1_555
H2 C5 1_555 1_555
H3 C6 1_555 1_555
H4 C7 1_555 1_555
H5 C8 1_555 1_555
H6 C9 1_555 1_555
H7 C9 1_555 1_555
H9 C10 1_555 1_555
H10 C10 1_555 1_555
H11 C11 1_555 1_555
H12 C12 1_555 1_555
H13 C16 1_555 1_555
H14 C17 1_555 1_555
H15 C18 1_555 1_555
O1 P1 1_555 1_555
O2 C9 1_555 1_555
O3 S1 1_555 1_555
O4 S1 1_555 1_555
P1 C3 1_555 1_555
S1 C1 1_555 1_555
C4 S1 1_555 1_555
C15 P1 1_555 1_555
C17 C18 1_555 1_555
O2 P1 1_555 1_555

#END
