
#######################################################################
#
#                 Cambridge Crystallographic Data Centre
#                                CCDC 
#
#######################################################################
#
# If this CIF has been generated from an entry in the Cambridge 
# Structural Database, then it will include bibliographic, chemical, 
# crystal, experimental, refinement or atomic coordinate data resulting 
# from the CCDC's data processing and validation procedures.
#
#######################################################################

data_EXEFUJ
_chemical_formula_moiety         'C22 H19 Br1 O7'
_chemical_name_systematic        
18-Bromo-13,14,15-trimethoxy-5,7,20-trioxahexacyclo[9.6.5.0^2,10^.0^4,8^.0^12,17^.0^18,22^]docosa-2(10),3,8,12,14,16-hexaen-19-one
_symmetry_cell_setting           monoclinic
_symmetry_space_group_name_H-M   'P 21'
_symmetry_Int_Tables_number      4
_space_group_name_Hall           'P 2yb'
loop_
_symmetry_equiv_pos_site_id
_symmetry_equiv_pos_as_xyz
1 x,y,z
2 -x,1/2+y,-z
_cell_length_a                   8.578(3)
_cell_length_b                   8.155(3)
_cell_length_c                   15.261(6)
_cell_angle_alpha                90
_cell_angle_beta                 101.193(4)
_cell_angle_gamma                90
_cell_volume                     1047.26
_exptl_crystal_colour            colorless
_exptl_crystal_description       block
_cell_formula_units_Z            2
loop_
_atom_site_label
_atom_site_type_symbol
_atom_site_fract_x
_atom_site_fract_y
_atom_site_fract_z
Br1 Br 0.31973(7) 0.50519(8) 0.73958(4)
C1 C 0.5498(6) 0.2488(7) 0.7250(4)
H1 H 0.6115 0.3350 0.7026
C2 C 0.6538(6) 0.1233(7) 0.7803(3)
C3 C 0.8195(6) 0.1332(7) 0.8028(4)
H2 H 0.8760 0.2176 0.7823
C4 C 0.8931(5) 0.0113(10) 0.8567(3)
C5 C 1.0659(8) -0.1468(12) 0.9481(6)
H3 H 1.1428 -0.2256 0.9348
H4 H 1.1008 -0.1091 1.0090
C6 C 0.8109(6) -0.1135(7) 0.8870(4)
C7 C 0.6473(6) -0.1258(7) 0.8662(4)
H5 H 0.5924 -0.2108 0.8873
C8 C 0.5708(5) -0.0025(9) 0.8117(3)
C9 C 0.3916(5) 0.0139(9) 0.7826(3)
H6 H 0.3348 -0.0792 0.8022
C10 C 0.3564(5) 0.0326(7) 0.6812(3)
C11 C 0.2519(6) -0.0620(6) 0.6218(4)
C12 C 0.2377(7) -0.0377(6) 0.5298(4)
C13 C 0.3259(7) 0.0872(7) 0.4993(4)
C14 C 0.4252(6) 0.1874(7) 0.5600(4)
H7 H 0.4808 0.2729 0.5398
C15 C 0.4399(6) 0.1583(7) 0.6500(3)
C16 C 0.4469(6) 0.3163(7) 0.7908(3)
C17 C 0.5504(7) 0.3760(7) 0.8759(4)
C18 C 0.3739(7) 0.1903(9) 0.9200(4)
H8 H 0.2806 0.2312 0.9401
H9 H 0.4001 0.0831 0.9463
C19 C 0.3426(7) 0.1790(7) 0.8195(3)
H10 H 0.2302 0.2012 0.7953
C20 C 0.0126(9) -0.1574(13) 0.6562(6)
H11 H -0.0003 -0.0430 0.6679
H12 H -0.0172 -0.2215 0.7031
H13 H -0.0537 -0.1861 0.6002
C21 C 0.0230(14) -0.1025(15) 0.4197(7)
H14 H -0.0485 -0.0561 0.4542
H15 H -0.0266 -0.1947 0.3864
H16 H 0.0488 -0.0213 0.3792
C22 C 0.3897(8) 0.2265(10) 0.3749(4)
H17 H 0.3591 0.3301 0.3962
H18 H 0.3648 0.2252 0.3108
H19 H 0.5018 0.2106 0.3949
O1 O 1.0546(4) -0.0115(8) 0.8879(3)
O2 O 0.9149(5) -0.2211(6) 0.9386(3)
O3 O 0.1724(4) -0.1888(5) 0.6526(3)
O4 O 0.1515(6) -0.1498(8) 0.4726(3)
O5 O 0.3059(5) 0.0988(6) 0.4086(3)
O6 O 0.5079(5) 0.3035(5) 0.9464(3)
O7 O 0.6548(5) 0.4729(5) 0.8837(3)
loop_
_geom_bond_atom_site_label_1
_geom_bond_atom_site_label_2
_geom_bond_site_symmetry_1
_geom_bond_site_symmetry_2
Br1 C16 1_555 1_555
C1 H1 1_555 1_555
C2 C1 1_555 1_555
C3 C2 1_555 1_555
H2 C3 1_555 1_555
C4 C3 1_555 1_555
C5 H3 1_555 1_555
H4 C5 1_555 1_555
C6 C4 1_555 1_555
C7 C6 1_555 1_555
H5 C7 1_555 1_555
C8 C2 1_555 1_555
C9 C8 1_555 1_555
H6 C9 1_555 1_555
C10 C9 1_555 1_555
C11 C10 1_555 1_555
C12 C11 1_555 1_555
C13 C12 1_555 1_555
C14 C13 1_555 1_555
H7 C14 1_555 1_555
C15 C1 1_555 1_555
C16 C1 1_555 1_555
C17 C16 1_555 1_555
C18 H8 1_555 1_555
H9 C18 1_555 1_555
C19 C9 1_555 1_555
H10 C19 1_555 1_555
C20 H11 1_555 1_555
H12 C20 1_555 1_555
H13 C20 1_555 1_555
C21 H14 1_555 1_555
H15 C21 1_555 1_555
H16 C21 1_555 1_555
C22 H17 1_555 1_555
H18 C22 1_555 1_555
H19 C22 1_555 1_555
O1 C4 1_555 1_555
O2 C5 1_555 1_555
O3 C11 1_555 1_555
O4 C12 1_555 1_555
O5 C13 1_555 1_555
O6 C17 1_555 1_555
O7 C17 1_555 1_555
C5 O1 1_555 1_555
C6 O2 1_555 1_555
C7 C8 1_555 1_555
C10 C15 1_555 1_555
C14 C15 1_555 1_555
C16 C19 1_555 1_555
C18 C19 1_555 1_555
C18 O6 1_555 1_555
C20 O3 1_555 1_555
C21 O4 1_555 1_555
C22 O5 1_555 1_555

#END
