
#######################################################################
#
#                 Cambridge Crystallographic Data Centre
#                                CCDC 
#
#######################################################################
#
# If this CIF has been generated from an entry in the Cambridge 
# Structural Database, then it will include bibliographic, chemical, 
# crystal, experimental, refinement or atomic coordinate data resulting 
# from the CCDC's data processing and validation procedures.
#
#######################################################################

data_EXEGEU
_chemical_formula_moiety         'C26 H29 Br1 O8'
_chemical_name_systematic        
5a-Bromo-9-butoxy-5-(3,4,5-trimethoxyphenyl)-5,8,8a,9-tetrahydrofuro[3',4':6,7]naphtho[2,3-d][1,3]dioxol-6(5aH)-one
_symmetry_cell_setting           monoclinic
_symmetry_space_group_name_H-M   'P 21'
_symmetry_Int_Tables_number      4
_space_group_name_Hall           'P 2yb'
loop_
_symmetry_equiv_pos_site_id
_symmetry_equiv_pos_as_xyz
1 x,y,z
2 -x,1/2+y,-z
_cell_length_a                   12.156(2)
_cell_length_b                   17.357(3)
_cell_length_c                   12.452(2)
_cell_angle_alpha                90
_cell_angle_beta                 104.737(2)
_cell_angle_gamma                90
_cell_volume                     2540.84
_exptl_crystal_colour            colorless
_exptl_crystal_description       block
_cell_formula_units_Z            4
loop_
_atom_site_label
_atom_site_type_symbol
_atom_site_fract_x
_atom_site_fract_y
_atom_site_fract_z
Br1 Br 0.60460(7) 0.84324(5) 0.20542(7)
C1 C 0.8504(6) 0.8347(5) 0.3764(6)
H1 H 0.7956 0.7922 0.3594
C2 C 0.8063(6) 0.8896(4) 0.4510(5)
C3 C 0.8218(6) 0.8685(5) 0.5624(6)
H2 H 0.8609 0.8238 0.5905
C4 C 0.7781(6) 0.9151(5) 0.6274(6)
C5 C 0.6979(9) 0.9606(6) 0.7577(7)
H3 H 0.7256 0.9849 0.8297
H4 H 0.6266 0.9349 0.7561
C6 C 0.7199(6) 0.9806(4) 0.5883(6)
C7 C 0.7044(5) 1.0043(4) 0.4797(5)
H5 H 0.6671 1.0503 0.4548
C8 C 0.7464(5) 0.9574(4) 0.4082(5)
C9 C 0.7244(5) 0.9827(4) 0.2888(5)
H6 H 0.6444 0.9982 0.2646
C10 C 0.7394(6) 0.9139(4) 0.2188(5)
C11 C 0.7385(6) 0.9227(4) 0.0980(6)
C12 C 0.8631(7) 0.8245(4) 0.1683(6)
H7 H 0.9429 0.8162 0.1719
H8 H 0.8259 0.7748 0.1663
C13 C 0.8493(6) 0.8720(4) 0.2665(5)
H9 H 0.9099 0.9107 0.2812
C14 C 0.7957(5) 1.0520(4) 0.2713(5)
C15 C 0.7502(6) 1.1038(4) 0.1885(6)
H10 H 0.6761 1.0973 0.1458
C16 C 0.8145(6) 1.1664(4) 0.1680(6)
C17 C 0.9241(6) 1.1773(4) 0.2322(6)
C18 C 0.9686(5) 1.1254(4) 0.3165(6)
C19 C 0.9046(5) 1.0632(4) 0.3372(5)
H11 H 0.9350 1.0293 0.3950
C20 C 1.1335(8) 1.0844(8) 0.4536(9)
H12 H 1.0982 1.0819 0.5143
H13 H 1.2122 1.0979 0.4812
H14 H 1.1277 1.0351 0.4177
C21 C 1.0710(7) 1.2298(5) 0.1611(8)
H15 H 1.1189 1.1884 0.1966
H16 H 1.1156 1.2758 0.1646
H17 H 1.0375 1.2168 0.0849
C22 C 0.6631(9) 1.2137(7) 0.0213(10)
H18 H 0.6562 1.1717 -0.0300
H19 H 0.6426 1.2609 -0.0190
H20 H 0.6134 1.2053 0.0690
C23 C 1.0436(8) 0.8552(6) 0.4680(7)
H21 H 1.0110 0.9019 0.4895
H22 H 1.0793 0.8679 0.4090
C24 C 1.1334(10) 0.8230(8) 0.5681(9)
H23 H 1.0948 0.8051 0.6228
H24 H 1.1690 0.7786 0.5437
C25 C 1.2241(10) 0.8776(11) 0.6233(13)
H25 H 1.2581 0.8983 0.5669
H26 H 1.1881 0.9203 0.6514
C26 C 1.3173(11) 0.8488(13) 0.7156(11)
H27 H 1.2856 0.8232 0.7692
H28 H 1.3633 0.8913 0.7504
H29 H 1.3633 0.8132 0.6871
O1 O 0.7794(5) 0.9063(4) 0.7387(4)
O2 O 0.6818(5) 1.0169(3) 0.6711(4)
O3 O 0.6855(5) 0.9662(4) 0.0283(4)
O4 O 0.8092(4) 0.8702(3) 0.0723(4)
O5 O 1.0776(4) 1.1410(4) 0.3760(5)
O6 O 0.9829(4) 1.2425(3) 0.2166(5)
O7 O 0.7767(5) 1.2186(3) 0.0861(5)
O8 O 0.9572(6) 0.8007(4) 0.4295(5)
Br2 Br 0.88213(8) 0.38379(4) 1.05137(7)
C27 C 0.9183(6) 0.5632(4) 1.1177(7)
H30 H 0.9624 0.5237 1.1664
C28 C 0.7978(5) 0.5642(4) 1.1326(6)
C29 C 0.7834(6) 0.6020(5) 1.2280(6)
H31 H 0.8443 0.6256 1.2777
C30 C 0.6775(6) 0.6030(5) 1.2450(5)
C31 C 0.5240(7) 0.6271(6) 1.3029(8)
H32 H 0.4878 0.6767 1.2831
H33 H 0.4998 0.6069 1.3658
C32 C 0.5882(5) 0.5678(4) 1.1720(5)
C33 C 0.5986(6) 0.5317(4) 1.0790(6)
H34 H 0.5364 0.5086 1.0305
C34 C 0.7078(6) 0.5302(4) 1.0582(5)
C35 C 0.7162(6) 0.4959(4) 0.9489(6)
H35 H 0.6743 0.4470 0.9384
C36 C 0.8412(6) 0.4782(4) 0.9556(6)
C37 C 0.8820(9) 0.4543(6) 0.8551(8)
C38 C 1.0277(7) 0.5221(6) 0.9699(9)
H36 H 1.0707 0.5675 0.9604
H37 H 1.0752 0.4890 1.0257
C39 C 0.9152(6) 0.5444(5) 1.0021(7)
H38 H 0.8840 0.5895 0.9574
C40 C 0.6618(6) 0.5491(4) 0.8505(5)
C41 C 0.6291(6) 0.5176(4) 0.7450(6)
H39 H 0.6353 0.4649 0.7344
C42 C 0.5869(6) 0.5661(5) 0.6550(6)
C43 C 0.5724(6) 0.6439(5) 0.6690(6)
C44 C 0.5997(6) 0.6744(4) 0.7762(6)
C45 C 0.6496(6) 0.6264(4) 0.8670(5)
H40 H 0.6742 0.6472 0.9379
C46 C 0.6154(9) 0.7858(5) 0.8897(8)
H41 H 0.5865 0.7581 0.9433
H42 H 0.5884 0.8380 0.8852
H43 H 0.6971 0.7856 0.9118
C47 C 0.5956(9) 0.7447(5) 0.5531(8)
H44 H 0.5865 0.7922 0.5894
H45 H 0.5767 0.7526 0.4742
H46 H 0.6730 0.7276 0.5780
C48 C 0.5739(9) 0.4613(6) 0.5271(8)
H47 H 0.6535 0.4494 0.5511
H48 H 0.5465 0.4501 0.4494
H49 H 0.5330 0.4308 0.5683
C49 C 1.0793(15) 0.6315(12) 1.2019(17)
H50 H 1.1184 0.6042 1.1546
H51 H 1.0859 0.6005 1.2681
C50 C 1.1391(14) 0.7049(10) 1.2354(15)
H52 H 1.1130 0.7404 1.1740
H53 H 1.1118 0.7248 1.2967
C51 C 1.2557(19) 0.7103(15) 1.2667(19)
H54 H 1.2875 0.6588 1.2785
H55 H 1.2816 0.7335 1.2066
C52 C 1.293(3) 0.750(2) 1.355(2)
H56 H 1.2371 0.7513 1.3970
H57 H 1.3090 0.8016 1.3353
H58 H 1.3618 0.7270 1.3990
O9 O 0.6428(5) 0.6357(4) 1.3311(4)
O10 O 0.4915(4) 0.5752(4) 1.2109(4)
O11 O 0.8361(7) 0.4170(5) 0.7782(6)
O12 O 0.9864(6) 0.4817(5) 0.8664(6)
O13 O 0.5777(5) 0.7502(3) 0.7848(4)
O14 O 0.5239(5) 0.6894(4) 0.5786(4)
O15 O 0.5571(4) 0.5414(3) 0.5459(4)
O16 O 0.9690(4) 0.6362(4) 1.1485(6)
loop_
_geom_bond_atom_site_label_1
_geom_bond_atom_site_label_2
_geom_bond_site_symmetry_1
_geom_bond_site_symmetry_2
Br1 C10 1_555 1_555
Br2 C36 1_555 1_555
C1 H1 1_555 1_555
C2 C1 1_555 1_555
C3 C2 1_555 1_555
H2 C3 1_555 1_555
C4 C3 1_555 1_555
C5 H3 1_555 1_555
H4 C5 1_555 1_555
C6 C4 1_555 1_555
C7 C6 1_555 1_555
H5 C7 1_555 1_555
C8 C2 1_555 1_555
C9 C8 1_555 1_555
H6 C9 1_555 1_555
C10 C9 1_555 1_555
C11 C10 1_555 1_555
C12 H7 1_555 1_555
H8 C12 1_555 1_555
C13 C1 1_555 1_555
H9 C13 1_555 1_555
C14 C9 1_555 1_555
C15 C14 1_555 1_555
H10 C15 1_555 1_555
C16 C15 1_555 1_555
C17 C16 1_555 1_555
C18 C17 1_555 1_555
C19 C14 1_555 1_555
H11 C19 1_555 1_555
C20 H12 1_555 1_555
H13 C20 1_555 1_555
H14 C20 1_555 1_555
C21 H15 1_555 1_555
H16 C21 1_555 1_555
H17 C21 1_555 1_555
C22 H18 1_555 1_555
H19 C22 1_555 1_555
H20 C22 1_555 1_555
C23 H21 1_555 1_555
H22 C23 1_555 1_555
C24 C23 1_555 1_555
H23 C24 1_555 1_555
H24 C24 1_555 1_555
C25 C24 1_555 1_555
H25 C25 1_555 1_555
H26 C25 1_555 1_555
C26 C25 1_555 1_555
H27 C26 1_555 1_555
H28 C26 1_555 1_555
H29 C26 1_555 1_555
C27 H30 1_555 1_555
C28 C27 1_555 1_555
C29 C28 1_555 1_555
H31 C29 1_555 1_555
C30 C29 1_555 1_555
C31 H32 1_555 1_555
H33 C31 1_555 1_555
C32 C30 1_555 1_555
C33 C32 1_555 1_555
H34 C33 1_555 1_555
C34 C28 1_555 1_555
C35 C34 1_555 1_555
H35 C35 1_555 1_555
C36 C35 1_555 1_555
C37 C36 1_555 1_555
C38 H36 1_555 1_555
H37 C38 1_555 1_555
C39 C27 1_555 1_555
H38 C39 1_555 1_555
C40 C35 1_555 1_555
C41 C40 1_555 1_555
H39 C41 1_555 1_555
C42 C41 1_555 1_555
C43 C42 1_555 1_555
C44 C43 1_555 1_555
C45 C40 1_555 1_555
H40 C45 1_555 1_555
C46 H41 1_555 1_555
H42 C46 1_555 1_555
H43 C46 1_555 1_555
C47 H44 1_555 1_555
H45 C47 1_555 1_555
H46 C47 1_555 1_555
C48 H47 1_555 1_555
H48 C48 1_555 1_555
H49 C48 1_555 1_555
C49 H50 1_555 1_555
H51 C49 1_555 1_555
C50 C49 1_555 1_555
H52 C50 1_555 1_555
H53 C50 1_555 1_555
C51 C50 1_555 1_555
H54 C51 1_555 1_555
H55 C51 1_555 1_555
C52 C51 1_555 1_555
H56 C52 1_555 1_555
H57 C52 1_555 1_555
H58 C52 1_555 1_555
O1 C4 1_555 1_555
O2 C5 1_555 1_555
O3 C11 1_555 1_555
O4 C11 1_555 1_555
O5 C18 1_555 1_555
O6 C17 1_555 1_555
O7 C16 1_555 1_555
O8 C1 1_555 1_555
O9 C30 1_555 1_555
O10 C31 1_555 1_555
O11 C37 1_555 1_555
O12 C37 1_555 1_555
O13 C44 1_555 1_555
O14 C43 1_555 1_555
O15 C42 1_555 1_555
O16 C27 1_555 1_555
C5 O1 1_555 1_555
C6 O2 1_555 1_555
C7 C8 1_555 1_555
C10 C13 1_555 1_555
C12 C13 1_555 1_555
C12 O4 1_555 1_555
C18 C19 1_555 1_555
C20 O5 1_555 1_555
C21 O6 1_555 1_555
C22 O7 1_555 1_555
C23 O8 1_555 1_555
C31 O9 1_555 1_555
C32 O10 1_555 1_555
C33 C34 1_555 1_555
C36 C39 1_555 1_555
C38 C39 1_555 1_555
C38 O12 1_555 1_555
C44 C45 1_555 1_555
C46 O13 1_555 1_555
C47 O14 1_555 1_555
C48 O15 1_555 1_555
C49 O16 1_555 1_555

#END
