
#######################################################################
#
#                 Cambridge Crystallographic Data Centre
#                                CCDC 
#
#######################################################################
#
# If this CIF has been generated from an entry in the Cambridge 
# Structural Database, then it will include bibliographic, chemical, 
# crystal, experimental, refinement or atomic coordinate data resulting 
# from the CCDC's data processing and validation procedures.
#
#######################################################################

data_EXEGIY
_chemical_formula_moiety         'C22 H21 Br1 O8'
_chemical_name_systematic        
5a-Bromo-9-hydroxy-5-(3,4,5-trimethoxyphenyl)-5,8,8a,9-tetrahydrofuro[3',4':6,7]naphtho[2,3-d][1,3]dioxol-6(5aH)-one
_symmetry_cell_setting           orthorhombic
_symmetry_space_group_name_H-M   'P 21 21 21'
_symmetry_Int_Tables_number      19
_space_group_name_Hall           'P 2ac 2ab'
loop_
_symmetry_equiv_pos_site_id
_symmetry_equiv_pos_as_xyz
1 x,y,z
2 1/2-x,-y,1/2+z
3 -x,1/2+y,1/2-z
4 1/2+x,1/2-y,-z
_cell_length_a                   10.193(5)
_cell_length_b                   12.672(6)
_cell_length_c                   16.255(8)
_cell_angle_alpha                90
_cell_angle_beta                 90
_cell_angle_gamma                90
_cell_volume                     2099.59
_exptl_crystal_colour            colorless
_exptl_crystal_description       block
_cell_formula_units_Z            4
loop_
_atom_site_label
_atom_site_type_symbol
_atom_site_fract_x
_atom_site_fract_y
_atom_site_fract_z
Br1 Br 0.34278(6) 0.59040(4) 0.07307(3)
C1 C 0.2514(5) 0.6866(4) 0.1539(3)
C2 C 0.2386(5) 0.7958(4) 0.1185(3)
H1 H 0.2002 0.8392 0.1621
C3 C 0.3672(5) 0.8487(4) 0.0956(3)
H2 H 0.3926 0.8282 0.0397
C4 C 0.4751(5) 0.8184(3) 0.1557(2)
C5 C 0.4607(4) 0.7431(3) 0.2179(2)
C6 C 0.3301(5) 0.6865(3) 0.2340(2)
H3 H 0.3494 0.6130 0.2484
C7 C 0.5970(5) 0.8680(4) 0.1437(3)
H4 H 0.6095 0.9158 0.1010
C8 C 0.6960(5) 0.8440(4) 0.1963(3)
C9 C 0.6809(4) 0.7727(4) 0.2594(3)
C10 C 0.5657(4) 0.7212(4) 0.2724(3)
H5 H 0.5562 0.6734 0.3154
C11 C 0.8847(5) 0.8325(4) 0.2645(4)
H6 H 0.9625 0.7948 0.2468
H7 H 0.9111 0.8862 0.3036
C12 C 0.1306(5) 0.7810(4) 0.0546(3)
H8 H 0.0822 0.8460 0.0462
H9 H 0.1666 0.7578 0.0024
C13 C 0.1123(5) 0.6436(4) 0.1489(3)
C14 C 0.2514(4) 0.7355(3) 0.3048(2)
C15 C 0.1691(5) 0.6709(3) 0.3503(2)
H10 H 0.1588 0.6004 0.3359
C16 C 0.1019(4) 0.7123(3) 0.4177(3)
C17 C 0.1151(4) 0.8172(4) 0.4385(3)
C18 C 0.1963(4) 0.8821(3) 0.3920(2)
C19 C 0.2663(4) 0.8412(3) 0.3252(2)
H11 H 0.3221 0.8843 0.2949
C20 C -0.0452(6) 0.5684(4) 0.4303(4)
H12 H -0.0881 0.5922 0.3811
H13 H -0.1094 0.5413 0.4680
H14 H 0.0163 0.5138 0.4168
C21 C -0.0846(6) 0.8687(5) 0.5023(4)
H15 H -0.1083 0.9209 0.4621
H16 H -0.1180 0.8892 0.5552
H17 H -0.1213 0.8018 0.4869
C22 C 0.2613(6) 1.0598(3) 0.3609(3)
H18 H 0.3538 1.0463 0.3572
H19 H 0.2473 1.1302 0.3809
H20 H 0.2222 1.0526 0.3075
O1 O 0.3472(5) 0.9601(2) 0.09913(19)
H21 H 0.3622 0.9860 0.0539
O2 O 0.8231(4) 0.8806(3) 0.1954(2)
O3 O 0.7963(3) 0.7617(3) 0.3023(2)
O4 O 0.0469(3) 0.6995(3) 0.0910(2)
O5 O 0.0631(4) 0.5740(3) 0.1867(2)
O6 O 0.0213(4) 0.6531(3) 0.46691(19)
O7 O 0.0545(4) 0.8603(3) 0.50624(18)
O8 O 0.2024(3) 0.9856(2) 0.41661(17)
loop_
_geom_bond_atom_site_label_1
_geom_bond_atom_site_label_2
_geom_bond_site_symmetry_1
_geom_bond_site_symmetry_2
Br1 C1 1_555 1_555
C1 C2 1_555 1_555
C2 H1 1_555 1_555
C3 C2 1_555 1_555
H2 C3 1_555 1_555
C4 C3 1_555 1_555
C5 C4 1_555 1_555
C6 C1 1_555 1_555
H3 C6 1_555 1_555
C7 C4 1_555 1_555
H4 C7 1_555 1_555
C8 C7 1_555 1_555
C9 C8 1_555 1_555
C10 C5 1_555 1_555
H5 C10 1_555 1_555
C11 H6 1_555 1_555
H7 C11 1_555 1_555
C12 C2 1_555 1_555
H8 C12 1_555 1_555
H9 C12 1_555 1_555
C13 C1 1_555 1_555
C14 C6 1_555 1_555
C15 C14 1_555 1_555
H10 C15 1_555 1_555
C16 C15 1_555 1_555
C17 C16 1_555 1_555
C18 C17 1_555 1_555
C19 C14 1_555 1_555
H11 C19 1_555 1_555
C20 H12 1_555 1_555
H13 C20 1_555 1_555
H14 C20 1_555 1_555
C21 H15 1_555 1_555
H16 C21 1_555 1_555
H17 C21 1_555 1_555
C22 H18 1_555 1_555
H19 C22 1_555 1_555
H20 C22 1_555 1_555
O1 C3 1_555 1_555
H21 O1 1_555 1_555
O2 C8 1_555 1_555
O3 C9 1_555 1_555
O4 C12 1_555 1_555
O5 C13 1_555 1_555
O6 C16 1_555 1_555
O7 C17 1_555 1_555
O8 C18 1_555 1_555
C5 C6 1_555 1_555
C9 C10 1_555 1_555
C11 O2 1_555 1_555
C11 O3 1_555 1_555
C13 O4 1_555 1_555
C18 C19 1_555 1_555
C20 O6 1_555 1_555
C21 O7 1_555 1_555
C22 O8 1_555 1_555

#END
