
#######################################################################
#
#                 Cambridge Crystallographic Data Centre
#                                CCDC 
#
#######################################################################
#
# If this CIF has been generated from an entry in the Cambridge 
# Structural Database, then it will include bibliographic, chemical, 
# crystal, experimental, refinement or atomic coordinate data resulting 
# from the CCDC's data processing and validation procedures.
#
#######################################################################

data_EXEPIG
_chemical_name_common            
10-(4-Nitrophenyl)-3,7-dimethyl-1H,9H,10H-dipyrano(3,4-e:4',3'-b)pyran-1,9-dione
_chemical_formula_moiety         'C19 H13 N1 O7'
_chemical_name_systematic        
10-(4-Nitrophenyl)-2,7-dimethyl-4,5-dioxo-3,6,9-trioxa-3,4,5,6,9,10-hexahydroanthracene
_symmetry_cell_setting           monoclinic
_symmetry_space_group_name_H-M   'P 21/c'
_symmetry_Int_Tables_number      14
_space_group_name_Hall           '-P 2ybc'
loop_
_symmetry_equiv_pos_site_id
_symmetry_equiv_pos_as_xyz
1 x,y,z
2 x,1/2-y,1/2+z
3 -x,-y,-z
4 -x,1/2+y,1/2-z
_cell_length_a                   10.6690(10)
_cell_length_b                   11.5440(10)
_cell_length_c                   14.045(2)
_cell_angle_alpha                90.00
_cell_angle_beta                 105.980(10)
_cell_angle_gamma                90.00
_cell_volume                     1662.98
_cell_formula_units_Z            4
loop_
_atom_site_label
_atom_site_type_symbol
_atom_site_fract_x
_atom_site_fract_y
_atom_site_fract_z
O1 O 0.42031(11) 0.20846(10) 0.20162(9)
O2 O 0.43836(13) 0.33490(11) 0.08767(10)
O3 O 0.66661(11) -0.02209(10) 0.12585(8)
O4 O 0.81948(12) 0.01404(12) -0.10914(9)
O5 O 0.72169(15) 0.18354(12) -0.15123(10)
O6 O 0.97466(18) 0.66154(14) 0.12119(14)
O7 O 1.09303(17) 0.54515(15) 0.22545(14)
N1 N 0.99710(17) 0.56654(14) 0.15818(14)
C1 C 0.47320(17) 0.24213(16) 0.12559(12)
C2 C 0.56247(15) 0.16325(14) 0.09939(11)
C3 C 0.58697(15) 0.06153(14) 0.14755(12)
C4 C 0.53080(16) 0.03021(16) 0.22456(12)
H1 H 0.5501 -0.0406 0.2568
C5 C 0.45000(17) 0.10448(16) 0.24946(12)
C6 C 0.37854(19) 0.08781(19) 0.32568(14)
H2 H 0.2867 0.0828 0.2939
H3 H 0.3953 0.1523 0.3706
H4 H 0.4075 0.0176 0.3617
C7 C 0.74247(17) 0.10582(17) -0.09240(13)
C8 C 0.69571(15) 0.09711(14) -0.00568(11)
C9 C 0.71649(16) -0.00192(15) 0.04697(12)
C10 C 0.79120(17) -0.09457(16) 0.02478(14)
H5 H 0.8048 -0.1617 0.0628
C11 C 0.84149(18) -0.08335(17) -0.05177(15)
C12 C 0.9229(2) -0.1686(2) -0.08735(17)
H6 H 0.9528 -0.2273 -0.0379
H7 H 0.9965 -0.1297 -0.0995
H8 H 0.8719 -0.2037 -0.1475
C13 C 0.62645(15) 0.20087(14) 0.02120(11)
H9 H 0.5589 0.2264 -0.0376
C14 C 0.72333(15) 0.29995(13) 0.05691(11)
C15 C 0.72887(17) 0.39360(15) -0.00393(12)
H10 H 0.6722 0.3968 -0.0674
C16 C 0.81724(17) 0.48181(15) 0.02857(13)
H11 H 0.8189 0.5459 -0.0112
C17 C 0.90334(16) 0.47267(14) 0.12181(13)
C18 C 0.90162(16) 0.38068(14) 0.18324(13)
H12 H 0.9610 0.3763 0.2456
C19 C 0.81026(16) 0.29501(14) 0.15068(12)
H13 H 0.8067 0.2329 0.1921
loop_
_geom_bond_atom_site_label_1
_geom_bond_atom_site_label_2
_geom_bond_site_symmetry_1
_geom_bond_site_symmetry_2
O1 C1 1_555 1_555
O2 C1 1_555 1_555
O3 C3 1_555 1_555
O4 C7 1_555 1_555
O5 C7 1_555 1_555
O6 N1 1_555 1_555
O7 N1 1_555 1_555
N1 C17 1_555 1_555
C1 C2 1_555 1_555
C2 C3 1_555 1_555
C3 C4 1_555 1_555
C4 H1 1_555 1_555
C5 O1 1_555 1_555
C6 C5 1_555 1_555
H2 C6 1_555 1_555
H3 C6 1_555 1_555
H4 C6 1_555 1_555
C7 C8 1_555 1_555
C8 C9 1_555 1_555
C9 O3 1_555 1_555
C10 C9 1_555 1_555
H5 C10 1_555 1_555
C11 O4 1_555 1_555
C12 C11 1_555 1_555
H6 C12 1_555 1_555
H7 C12 1_555 1_555
H8 C12 1_555 1_555
C13 C2 1_555 1_555
H9 C13 1_555 1_555
C14 C13 1_555 1_555
C15 C14 1_555 1_555
H10 C15 1_555 1_555
C16 C15 1_555 1_555
H11 C16 1_555 1_555
C17 C16 1_555 1_555
C18 C17 1_555 1_555
H12 C18 1_555 1_555
C19 C14 1_555 1_555
H13 C19 1_555 1_555
C4 C5 1_555 1_555
C8 C13 1_555 1_555
C10 C11 1_555 1_555
C18 C19 1_555 1_555

#END
