
#######################################################################
#
#                 Cambridge Crystallographic Data Centre
#                                CCDC 
#
#######################################################################
#
# If this CIF has been generated from an entry in the Cambridge 
# Structural Database, then it will include bibliographic, chemical, 
# crystal, experimental, refinement or atomic coordinate data resulting 
# from the CCDC's data processing and validation procedures.
#
#######################################################################

data_EXEQON
_chemical_formula_moiety         'C16 H19 N5 S1'
_chemical_name_systematic        
4-Phenyl-5-(1-t-butyl-5-methyl-4-pyrazolyl)-1,2,4-triazol-3-thione
_symmetry_cell_setting           monoclinic
_symmetry_space_group_name_H-M   'P 21/c'
_symmetry_Int_Tables_number      14
_space_group_name_Hall           '-P 2ybc'
loop_
_symmetry_equiv_pos_site_id
_symmetry_equiv_pos_as_xyz
1 x,y,z
2 x,1/2-y,1/2+z
3 -x,-y,-z
4 -x,1/2+y,1/2-z
_cell_length_a                   6.680(2)
_cell_length_b                   27.437(10)
_cell_length_c                   9.388(4)
_cell_angle_alpha                90
_cell_angle_beta                 106.738(6)
_cell_angle_gamma                90
_cell_volume                     1647.72
_exptl_crystal_colour            'light yellow'
_chemical_melting_point          184-185deg.C
_cell_formula_units_Z            4
_exptl_crystal_recrystallization_method ethanol
loop_
_atom_site_label
_atom_site_type_symbol
_atom_site_fract_x
_atom_site_fract_y
_atom_site_fract_z
S1 S 0.85800(15) 1.02306(3) 0.15759(11)
N1 N 0.9943(5) 0.75474(10) 0.1807(3)
N2 N 1.2020(5) 0.77230(11) 0.2318(4)
N3 N 0.9674(4) 0.92584(9) 0.1856(3)
N4 N 0.6502(5) 0.94071(11) 0.0216(3)
H1 H 0.5428 0.9562 -0.0317
N5 N 0.6706(4) 0.89101(11) 0.0208(3)
C1 C 0.8448(5) 0.79121(13) 0.1390(4)
C2 C 0.9604(5) 0.83441(12) 0.1632(4)
C3 C 1.1793(6) 0.82007(13) 0.2212(4)
H2 H 1.2899 0.8420 0.2476
C4 C 0.6035(6) 0.78464(15) 0.0853(5)
H3 H 0.5618 0.7619 0.1490
H4 H 0.5627 0.7725 -0.0149
H5 H 0.5370 0.8155 0.0886
C5 C 0.9604(7) 0.70078(13) 0.1710(4)
C6 C 0.8161(8) 0.68691(15) 0.0144(5)
H6 H 0.8746 0.6993 -0.0605
H7 H 0.6799 0.7008 0.0010
H8 H 0.8047 0.6521 0.0061
C7 C 0.8685(14) 0.68568(19) 0.2822(8)
H9 H 0.7284 0.6980 0.2593
H10 H 0.9491 0.6981 0.3770
H11 H 0.8659 0.6507 0.2857
C8 C 1.1787(8) 0.67577(16) 0.2060(7)
H12 H 1.2596 0.6839 0.3054
H13 H 1.2500 0.6869 0.1368
H14 H 1.1609 0.6411 0.1975
C9 C 0.8656(5) 0.88279(12) 0.1223(4)
C10 C 0.8254(5) 0.96344(13) 0.1198(4)
C11 C 1.1820(5) 0.93172(11) 0.3033(4)
C12 C 1.3525(6) 0.94552(13) 0.2680(4)
H15 H 1.3420 0.9529 0.1695
C13 C 1.5583(6) 0.94954(14) 0.3809(5)
H16 H 1.6713 0.9597 0.3492
C14 C 1.5928(6) 0.93968(13) 0.5241(5)
H17 H 1.7237 0.9418 0.5936
C15 C 1.4207(7) 0.92636(14) 0.5579(4)
H18 H 1.4316 0.9191 0.6566
C16 C 1.2127(6) 0.92247(13) 0.4473(4)
H19 H 1.0990 0.9132 0.4795
loop_
_geom_bond_atom_site_label_1
_geom_bond_atom_site_label_2
_geom_bond_site_symmetry_1
_geom_bond_site_symmetry_2
S1 C10 1_555 1_555
N1 N2 1_555 1_555
N2 C3 1_555 1_555
N3 C9 1_555 1_555
N4 H1 1_555 1_555
N5 N4 1_555 1_555
C1 N1 1_555 1_555
C2 C1 1_555 1_555
C3 C2 1_555 1_555
H2 C3 1_555 1_555
C4 C1 1_555 1_555
H3 C4 1_555 1_555
H4 C4 1_555 1_555
H5 C4 1_555 1_555
C5 N1 1_555 1_555
C6 C5 1_555 1_555
H6 C6 1_555 1_555
H7 C6 1_555 1_555
H8 C6 1_555 1_555
C7 C5 1_555 1_555
H9 C7 1_555 1_555
H10 C7 1_555 1_555
H11 C7 1_555 1_555
C8 C5 1_555 1_555
H12 C8 1_555 1_555
H13 C8 1_555 1_555
H14 C8 1_555 1_555
C9 N5 1_555 1_555
C10 N3 1_555 1_555
C11 N3 1_555 1_555
C12 C11 1_555 1_555
H15 C12 1_555 1_555
C13 C12 1_555 1_555
H16 C13 1_555 1_555
C14 C13 1_555 1_555
H17 C14 1_555 1_555
C15 C14 1_555 1_555
H18 C15 1_555 1_555
C16 C11 1_555 1_555
H19 C16 1_555 1_555
N4 C10 1_555 1_555
C2 C9 1_555 1_555
C15 C16 1_555 1_555

#END
