
#######################################################################
#
#                 Cambridge Crystallographic Data Centre
#                                CCDC 
#
#######################################################################
#
# If this CIF has been generated from an entry in the Cambridge 
# Structural Database, then it will include bibliographic, chemical, 
# crystal, experimental, refinement or atomic coordinate data resulting 
# from the CCDC's data processing and validation procedures.
#
#######################################################################

data_EXESOQ
_chemical_formula_moiety         'C28 H19 N1 O1,H2 O1'
_chemical_name_systematic        
'6,11-Diphenyl-11H-indeno[1,2-c]quinolin-11-ol monohydrate'
_symmetry_cell_setting           triclinic
_symmetry_space_group_name_H-M   'P -1'
_symmetry_Int_Tables_number      2
_space_group_name_Hall           '-P 1'
loop_
_symmetry_equiv_pos_site_id
_symmetry_equiv_pos_as_xyz
1 x,y,z
2 -x,-y,-z
_cell_length_a                   10.189(3)
_cell_length_b                   10.561(3)
_cell_length_c                   10.740(3)
_cell_angle_alpha                96.904(4)
_cell_angle_beta                 97.533(4)
_cell_angle_gamma                113.838(4)
_cell_volume                     1028.68
_exptl_crystal_colour            pink
_exptl_crystal_description       block
_chemical_melting_point          '261.4-261.8 deg.C'
_cell_formula_units_Z            2
loop_
_atom_site_label
_atom_site_type_symbol
_atom_site_fract_x
_atom_site_fract_y
_atom_site_fract_z
O1 O 0.48301(15) 0.18508(14) 0.08715(13)
H1 H 0.4089 0.1071 0.0458
N1 N 0.02836(18) 0.21582(17) 0.18114(16)
C1 C 0.4470(2) 0.2014(2) 0.21013(18)
C2 C 0.3069(2) 0.22312(19) 0.19672(17)
C3 C 0.2831(2) 0.33687(19) 0.15889(17)
C4 C 0.3909(2) 0.4567(2) 0.12929(19)
H2 H 0.4846 0.4626 0.1303
C5 C 0.3593(3) 0.5644(2) 0.0991(2)
H3 H 0.4318 0.6439 0.0809
C6 C 0.2183(3) 0.5554(2) 0.0957(2)
H4 H 0.1978 0.6296 0.0753
C7 C 0.1115(2) 0.4412(2) 0.1214(2)
H5 H 0.0179 0.4368 0.1171
C8 C 0.1398(2) 0.3278(2) 0.15482(18)
C9 C 0.0552(2) 0.1114(2) 0.21673(18)
C10 C 0.1955(2) 0.11339(19) 0.22745(17)
C11 C 0.2509(2) 0.01323(19) 0.27068(18)
C12 C 0.1864(3) -0.1086(2) 0.3186(2)
H6 H 0.0885 -0.1433 0.3256
C13 C 0.2711(3) -0.1774(2) 0.3557(2)
H7 H 0.2301 -0.2583 0.3898
C14 C 0.4143(3) -0.1278(2) 0.3429(3)
H8 H 0.4680 -0.1775 0.3660
C15 C 0.4804(3) -0.0065(2) 0.2968(2)
H9 H 0.5782 0.0272 0.2897
C16 C 0.3978(2) 0.0643(2) 0.26111(18)
C17 C 0.5753(2) 0.31891(19) 0.30411(19)
C18 C 0.5568(2) 0.3608(2) 0.4254(2)
H10 H 0.4651 0.3204 0.4466
C19 C 0.6728(3) 0.4614(2) 0.5146(2)
H11 H 0.6585 0.4884 0.5955
C20 C 0.8084(3) 0.5223(3) 0.4860(3)
H12 H 0.8867 0.5898 0.5470
C21 C 0.8278(3) 0.4827(3) 0.3663(3)
H13 H 0.9199 0.5246 0.3461
C22 C 0.7125(2) 0.3813(2) 0.2746(2)
H14 H 0.7274 0.3554 0.1937
C23 C -0.0681(2) -0.0089(2) 0.24487(19)
C24 C -0.1187(3) 0.0023(2) 0.3562(2)
H15 H -0.0818 0.0891 0.4113
C25 C -0.2236(3) -0.1141(3) 0.3864(2)
H16 H -0.2562 -0.1056 0.4626
C26 C -0.2807(3) -0.2420(3) 0.3062(2)
H17 H -0.3504 -0.3209 0.3279
C27 C -0.2342(3) -0.2528(3) 0.1934(2)
H18 H -0.2754 -0.3387 0.1364
C28 C -0.1278(3) -0.1382(2) 0.1636(2)
H19 H -0.0951 -0.1475 0.0876
O2 O 0.7083(2) 0.0979(2) 0.0531(2)
H20 H 0.7931 0.1353 0.0969
H21 H 0.6503 0.0944 0.1026
loop_
_geom_bond_atom_site_label_1
_geom_bond_atom_site_label_2
_geom_bond_site_symmetry_1
_geom_bond_site_symmetry_2
O1 H1 1_555 1_555
N1 C8 1_555 1_555
C1 O1 1_555 1_555
C2 C1 1_555 1_555
C3 C2 1_555 1_555
C4 C3 1_555 1_555
H2 C4 1_555 1_555
C5 C4 1_555 1_555
H3 C5 1_555 1_555
C6 C5 1_555 1_555
H4 C6 1_555 1_555
C7 C6 1_555 1_555
H5 C7 1_555 1_555
C8 C3 1_555 1_555
C9 N1 1_555 1_555
C10 C2 1_555 1_555
C11 C10 1_555 1_555
C12 C11 1_555 1_555
H6 C12 1_555 1_555
C13 C12 1_555 1_555
H7 C13 1_555 1_555
C14 C13 1_555 1_555
H8 C14 1_555 1_555
C15 C14 1_555 1_555
H9 C15 1_555 1_555
C16 C1 1_555 1_555
C17 C1 1_555 1_555
C18 C17 1_555 1_555
H10 C18 1_555 1_555
C19 C18 1_555 1_555
H11 C19 1_555 1_555
C20 C19 1_555 1_555
H12 C20 1_555 1_555
C21 C20 1_555 1_555
H13 C21 1_555 1_555
C22 C17 1_555 1_555
H14 C22 1_555 1_555
C23 C9 1_555 1_555
C24 C23 1_555 1_555
H15 C24 1_555 1_555
C25 C24 1_555 1_555
H16 C25 1_555 1_555
C26 C25 1_555 1_555
H17 C26 1_555 1_555
C27 C26 1_555 1_555
H18 C27 1_555 1_555
C28 C23 1_555 1_555
H19 C28 1_555 1_555
O2 H20 1_555 1_555
H21 O2 1_555 1_555
C7 C8 1_555 1_555
C9 C10 1_555 1_555
C11 C16 1_555 1_555
C15 C16 1_555 1_555
C21 C22 1_555 1_555
C27 C28 1_555 1_555

#END
