
#######################################################################
#
#                 Cambridge Crystallographic Data Centre
#                                CCDC 
#
#######################################################################
#
# If this CIF has been generated from an entry in the Cambridge 
# Structural Database, then it will include bibliographic, chemical, 
# crystal, experimental, refinement or atomic coordinate data resulting 
# from the CCDC's data processing and validation procedures.
#
#######################################################################

data_EXETAC
_chemical_name_common            'Hydroxy-tetraphenyl-N-confused porphyrin'
_chemical_formula_moiety         'C44 H30 N4 O1'
_chemical_name_systematic        
7^4^-Hydroxy-2,4,6,8-tetraphenyl-1,3,5,7(3,5)-tetrapyrrolaoctaphane-2,3,6,8-tetraene
_symmetry_cell_setting           triclinic
_symmetry_space_group_name_H-M   'P -1'
_symmetry_Int_Tables_number      2
_space_group_name_Hall           '-P 1'
loop_
_symmetry_equiv_pos_site_id
_symmetry_equiv_pos_as_xyz
1 x,y,z
2 -x,-y,-z
_cell_length_a                   6.1556(6)
_cell_length_b                   10.6385(11)
_cell_length_c                   12.5323(13)
_cell_angle_alpha                96.315(2)
_cell_angle_beta                 98.777(2)
_cell_angle_gamma                99.736(2)
_cell_volume                     791.595
_exptl_crystal_colour            'dark brown'
_exptl_crystal_description       plate
_cell_formula_units_Z            1
loop_
_atom_site_label
_atom_site_type_symbol
_atom_site_fract_x
_atom_site_fract_y
_atom_site_fract_z
N1 N 0.2185(4) 0.8489(2) 0.42194(16)
H1 H 0.3359 0.9072 0.4542
C1 C -0.1462(4) 0.7450(2) 0.62483(18)
C2 C 0.1828(4) 0.7953(2) 0.31436(18)
C3 C 0.3253(4) 0.8255(2) 0.23890(17)
C4 C -0.0249(4) 0.7085(3) 0.2967(2)
C5 C -0.1570(4) 0.6113(3) 0.6111(2)
C6 C 0.0321(4) 0.8302(2) 0.58380(19)
C7 C -0.3026(4) 0.7948(3) 0.6770(2)
C8 C 0.5288(4) 0.9142(2) 0.25927(19)
C9 C 0.2460(4) 0.7597(2) 0.12405(18)
C10 C 0.3743(5) 0.6825(3) 0.0762(2)
C11 C 0.0478(4) 0.7996(2) 0.47211(19)
C12 C 0.6409(4) 0.9644(2) 0.1776(2)
H2 H 0.5990 0.9368 0.1014
N3 N 0.8174(4) 1.0581(2) 0.2259(2)
C14 C 0.6463(4) 0.9813(2) 0.35910(19)
O1 O 0.6430(7) 0.9327(4) 0.4666(3)
H5 H 0.5117 0.8980 0.4701
C15 C -0.4769(5) 0.5843(3) 0.6994(2)
C16 C -0.4669(5) 0.7127(3) 0.7138(2)
C17 C -0.3220(5) 0.5321(3) 0.6482(2)
C18 C 0.1753(4) 0.9276(2) 0.6583(2)
C19 C -0.1037(5) 0.7102(3) 0.3915(2)
C20 C 0.2987(6) 0.6194(3) -0.0310(2)
C21 C 0.0445(5) 0.7740(3) 0.0638(2)
C22 C -0.0273(6) 0.7096(4) -0.0405(2)
C23 C 0.0992(6) 0.6339(3) -0.0872(2)
H6 H -0.094(4) 0.653(3) 0.227(2)
H7 H -0.033(5) 0.574(3) 0.580(2)
H8 H -0.319(4) 0.456(3) 0.639(2)
H9 H 0.517(5) 0.669(3) 0.116(2)
H10 H -0.241(5) 0.673(3) 0.405(2)
H11 H -0.575(5) 0.541(3) 0.726(3)
H12 H 0.051(6) 0.597(4) -0.153(3)
H13 H -0.574(5) 0.745(3) 0.744(2)
H14 H -0.060(5) 0.831(3) 0.090(3)
H15 H 0.388(5) 0.566(3) -0.056(3)
H16 H -0.304(4) 0.888(3) 0.688(2)
H17 H -0.142(6) 0.729(3) -0.073(3)
C18A C 0.8247(4) 1.0724(2) 0.3417(2)
C6A C 0.9679(4) 1.1698(2) 0.41620(19)
C1A C 1.1462(4) 1.2550(2) 0.37517(18)
C5A C 1.1570(4) 1.3887(3) 0.3889(2)
C17A C 1.3220(5) 1.4679(3) 0.3518(2)
C15A C 1.4769(5) 1.4157(3) 0.3006(2)
C16A C 1.4669(5) 1.2873(3) 0.2862(2)
C7A C 1.3026(4) 1.2052(3) 0.3230(2)
H16A H 1.304(4) 1.112(3) 0.312(2)
H13A H 1.574(5) 1.255(3) 0.256(2)
H11A H 1.575(5) 1.459(3) 0.274(3)
H8A H 1.319(4) 1.544(3) 0.361(2)
H7A H 1.033(5) 1.426(3) 0.420(2)
C11A C 0.9522(4) 1.2004(2) 0.52789(19)
N1A N 0.7815(4) 1.1511(2) 0.57806(16)
H1A H 0.6641 1.0928 0.5458
C2A C 0.8172(4) 1.2047(2) 0.68564(18)
C3A C 0.6747(4) 1.1745(2) 0.76110(17)
C8A C 0.4712(4) 1.0858(2) 0.74073(19)
C12A C 0.3591(4) 1.0356(2) 0.8224(2)
H2A H 0.4010 1.0632 0.8986
N3A N 0.1826(4) 0.9419(2) 0.7741(2)
C14A C 0.3537(4) 1.0187(2) 0.64090(19)
O1A O 0.3570(7) 1.0673(4) 0.5334(3)
H5A H 0.4883 1.1020 0.5299
C9A C 0.7540(4) 1.2403(2) 0.87595(18)
C10A C 0.6257(5) 1.3175(3) 0.9238(2)
C20A C 0.7013(6) 1.3806(3) 1.0310(2)
C23A C 0.9008(6) 1.3661(3) 1.0872(2)
C22A C 1.0273(6) 1.2904(4) 1.0405(2)
C21A C 0.9555(5) 1.2260(3) 0.9362(2)
H14A H 1.060(5) 1.169(3) 0.910(3)
H17A H 1.142(6) 1.271(3) 1.073(3)
H12A H 0.949(6) 1.403(4) 1.153(3)
H15A H 0.612(5) 1.434(3) 1.056(3)
H9A H 0.483(5) 1.331(3) 0.884(2)
C4A C 1.0249(4) 1.2915(3) 0.7033(2)
C19A C 1.1037(5) 1.2898(3) 0.6085(2)
H10A H 1.241(5) 1.327(3) 0.595(2)
H6A H 1.094(4) 1.347(3) 0.773(2)
C13? C 0.8174(4) 1.0581(2) 0.2259(2)
H3? H 0.9194 1.1064 0.1891
N2? N 0.6463(4) 0.9813(2) 0.35910(19)
H4? H 0.6129 0.9683 0.4233
loop_
_geom_bond_atom_site_label_1
_geom_bond_atom_site_label_2
_geom_bond_site_symmetry_1
_geom_bond_site_symmetry_2
N1 H1 1_555 1_555
C1 C5 1_555 1_555
C2 N1 1_555 1_555
C3 C2 1_555 1_555
C4 C2 1_555 1_555
C5 C17 1_555 1_555
C6 C1 1_555 1_555
C7 C1 1_555 1_555
C8 C3 1_555 1_555
C9 C3 1_555 1_555
C10 C9 1_555 1_555
C11 N1 1_555 1_555
C12 C8 1_555 1_555
H2 C12 1_555 1_555
N3 C12 1_555 1_555
C14 C8 1_555 1_555
O1 C14 1_555 1_555
H5 O1 1_555 1_555
C15 C16 1_555 1_555
C16 C7 1_555 1_555
C17 C15 1_555 1_555
C18 C6 1_555 1_555
C19 C4 1_555 1_555
C20 C10 1_555 1_555
C21 C9 1_555 1_555
C22 C21 1_555 1_555
C23 C20 1_555 1_555
H6 C4 1_555 1_555
H7 C5 1_555 1_555
H8 C17 1_555 1_555
H9 C10 1_555 1_555
H10 C19 1_555 1_555
H11 C15 1_555 1_555
H12 C23 1_555 1_555
H13 C16 1_555 1_555
H14 C21 1_555 1_555
H15 C20 1_555 1_555
H16 C7 1_555 1_555
H17 C22 1_555 1_555
C18A N3 1_555 1_555
C6A C18A 1_555 1_555
C1A C6A 1_555 1_555
C5A C1A 1_555 1_555
C17A C5A 1_555 1_555
C15A C17A 1_555 1_555
C16A C15A 1_555 1_555
C7A C1A 1_555 1_555
H16A C7A 1_555 1_555
H13A C16A 1_555 1_555
H11A C15A 1_555 1_555
H8A C17A 1_555 1_555
H7A C5A 1_555 1_555
C11A C6A 1_555 1_555
N1A C11A 1_555 1_555
H1A N1A 1_555 1_555
C2A N1A 1_555 1_555
C3A C2A 1_555 1_555
C8A C3A 1_555 1_555
C12A C8A 1_555 1_555
H2A C12A 1_555 1_555
N3A C18 1_555 1_555
C14A C18 1_555 1_555
O1A C14A 1_555 1_555
H5A O1A 1_555 1_555
C9A C3A 1_555 1_555
C10A C9A 1_555 1_555
C20A C10A 1_555 1_555
C23A C20A 1_555 1_555
C22A C23A 1_555 1_555
C21A C9A 1_555 1_555
H14A C21A 1_555 1_555
H17A C22A 1_555 1_555
H12A C23A 1_555 1_555
H15A C20A 1_555 1_555
H9A C10A 1_555 1_555
C4A C2A 1_555 1_555
C19A C11A 1_555 1_555
H10A C19A 1_555 1_555
H6A C4A 1_555 1_555
C6 C11 1_555 1_555
C11 C19 1_555 1_555
C14 C18A 1_555 1_555
C22 C23 1_555 1_555
C16A C7A 1_555 1_555
C8A C14A 1_555 1_555
C12A N3A 1_555 1_555
C22A C21A 1_555 1_555
C4A C19A 1_555 1_555

#END
