
#######################################################################
#
#                 Cambridge Crystallographic Data Centre
#                                CCDC 
#
#######################################################################
#
# If this CIF has been generated from an entry in the Cambridge 
# Structural Database, then it will include bibliographic, chemical, 
# crystal, experimental, refinement or atomic coordinate data resulting 
# from the CCDC's data processing and validation procedures.
#
#######################################################################

data_EXETUW
_chemical_formula_moiety         'C26 H40 N1 O2 P1'
_chemical_name_systematic        
'(aS)-(-)-N,N-Di-isopropyl 2-di-t-butylphosphino-8-methoxy-1-naphthamide'
_symmetry_cell_setting           orthorhombic
_symmetry_space_group_name_H-M   'P 21 21 21'
_symmetry_Int_Tables_number      19
_space_group_name_Hall           'P 2ac 2ab'
loop_
_symmetry_equiv_pos_site_id
_symmetry_equiv_pos_as_xyz
1 x,y,z
2 1/2-x,-y,1/2+z
3 -x,1/2+y,1/2-z
4 1/2+x,1/2-y,-z
_cell_length_a                   10.492(3)
_cell_length_b                   10.545(3)
_cell_length_c                   22.390(5)
_cell_angle_alpha                90
_cell_angle_beta                 90
_cell_angle_gamma                90
_cell_volume                     2477.19
_exptl_crystal_colour            colorless
_exptl_crystal_description       plate
_chemical_melting_point          203-204deg.C
_cell_formula_units_Z            4
loop_
_atom_site_label
_atom_site_type_symbol
_atom_site_fract_x
_atom_site_fract_y
_atom_site_fract_z
P1 P 0.18088(5) 0.34157(6) 0.35531(2)
N1 N 0.41091(17) 0.58297(17) 0.37397(8)
O1 O 0.39232(16) 0.72047(15) 0.48951(7)
O2 O 0.21600(14) 0.67230(15) 0.38689(7)
C1 C 0.2748(2) 0.5350(2) 0.51201(10)
C2 C 0.2595(2) 0.5005(2) 0.45013(9)
C3 C 0.1944(2) 0.38990(19) 0.43445(9)
C4 C 0.1425(2) 0.3135(2) 0.48047(10)
H1 H 0.0984 0.2378 0.4702
C5 C 0.1541(2) 0.3457(2) 0.53837(10)
H2 H 0.1166 0.2929 0.5679
C6 C 0.2202(2) 0.4554(2) 0.55652(10)
C7 C 0.2313(2) 0.4859(3) 0.61754(10)
H3 H 0.1935 0.4323 0.6467
C8 C 0.2952(2) 0.5905(2) 0.63498(10)
H4 H 0.3012 0.6104 0.6763
C9 C 0.3530(2) 0.6701(3) 0.59253(10)
H5 H 0.4004 0.7418 0.6055
C10 C 0.3415(2) 0.6454(2) 0.53266(10)
C11 C 0.2206(2) 0.1650(2) 0.35575(11)
C12 C 0.2616(2) 0.1369(2) 0.29154(11)
H6 H 0.2845 0.0472 0.2879
H7 H 0.3354 0.1895 0.2813
H8 H 0.1911 0.1561 0.2643
C13 C 0.1199(2) 0.0666(2) 0.37363(12)
H9 H 0.1568 -0.0186 0.3712
H10 H 0.0469 0.0725 0.3464
H11 H 0.0916 0.0830 0.4146
C14 C 0.3387(2) 0.1475(2) 0.39565(11)
H12 H 0.3623 0.0577 0.3967
H13 H 0.3193 0.1766 0.4362
H14 H 0.4097 0.1972 0.3795
C15 C 0.0050(2) 0.3636(2) 0.33952(10)
C16 C -0.0877(2) 0.3175(2) 0.38723(11)
H15 H -0.1753 0.3336 0.3741
H16 H -0.0716 0.3629 0.4247
H17 H -0.0758 0.2263 0.3936
C17 C -0.0268(2) 0.3025(3) 0.27948(11)
H18 H -0.1177 0.3137 0.2709
H19 H -0.0067 0.2118 0.2810
H20 H 0.0237 0.3428 0.2479
C18 C -0.0114(2) 0.5074(2) 0.33311(11)
H21 H -0.1009 0.5269 0.3246
H22 H 0.0421 0.5381 0.3003
H23 H 0.0140 0.5490 0.3704
C19 C 0.2955(2) 0.5930(2) 0.40127(9)
C20 C 0.4436(2) 0.6685(2) 0.32427(9)
H24 H 0.5322 0.6462 0.3117
C21 C 0.3581(2) 0.6442(2) 0.27044(10)
H25 H 0.3597 0.5537 0.2605
H26 H 0.3891 0.6935 0.2363
H27 H 0.2706 0.6698 0.2799
C22 C 0.4461(3) 0.8074(2) 0.34249(12)
H28 H 0.5025 0.8181 0.3770
H29 H 0.3598 0.8348 0.3531
H30 H 0.4777 0.8587 0.3091
C23 C 0.5065(2) 0.4881(2) 0.39155(10)
H31 H 0.4649 0.4290 0.4205
C24 C 0.6197(2) 0.5491(2) 0.42339(11)
H32 H 0.5891 0.5984 0.4576
H33 H 0.6647 0.6053 0.3956
H34 H 0.6780 0.4828 0.4374
C25 C 0.5494(2) 0.4098(2) 0.33833(9)
H35 H 0.4748 0.3723 0.3188
H36 H 0.6064 0.3421 0.3519
H37 H 0.5946 0.4643 0.3099
C26 C 0.4594(3) 0.8317(3) 0.50866(11)
H38 H 0.4915 0.8776 0.4737
H39 H 0.5311 0.8070 0.5342
H40 H 0.4015 0.8867 0.5312
loop_
_geom_bond_atom_site_label_1
_geom_bond_atom_site_label_2
_geom_bond_site_symmetry_1
_geom_bond_site_symmetry_2
P1 C3 1_555 1_555
N1 C19 1_555 1_555
O1 C10 1_555 1_555
O2 C19 1_555 1_555
C1 C2 1_555 1_555
C2 C3 1_555 1_555
C3 C4 1_555 1_555
C4 H1 1_555 1_555
C5 C4 1_555 1_555
H2 C5 1_555 1_555
C6 C1 1_555 1_555
C7 C6 1_555 1_555
H3 C7 1_555 1_555
C8 C7 1_555 1_555
H4 C8 1_555 1_555
C9 C8 1_555 1_555
H5 C9 1_555 1_555
C10 C1 1_555 1_555
C11 P1 1_555 1_555
C12 C11 1_555 1_555
H6 C12 1_555 1_555
H7 C12 1_555 1_555
H8 C12 1_555 1_555
C13 C11 1_555 1_555
H9 C13 1_555 1_555
H10 C13 1_555 1_555
H11 C13 1_555 1_555
C14 C11 1_555 1_555
H12 C14 1_555 1_555
H13 C14 1_555 1_555
H14 C14 1_555 1_555
C15 P1 1_555 1_555
C16 C15 1_555 1_555
H15 C16 1_555 1_555
H16 C16 1_555 1_555
H17 C16 1_555 1_555
C17 C15 1_555 1_555
H18 C17 1_555 1_555
H19 C17 1_555 1_555
H20 C17 1_555 1_555
C18 C15 1_555 1_555
H21 C18 1_555 1_555
H22 C18 1_555 1_555
H23 C18 1_555 1_555
C19 C2 1_555 1_555
C20 N1 1_555 1_555
H24 C20 1_555 1_555
C21 C20 1_555 1_555
H25 C21 1_555 1_555
H26 C21 1_555 1_555
H27 C21 1_555 1_555
C22 C20 1_555 1_555
H28 C22 1_555 1_555
H29 C22 1_555 1_555
H30 C22 1_555 1_555
C23 N1 1_555 1_555
H31 C23 1_555 1_555
C24 C23 1_555 1_555
H32 C24 1_555 1_555
H33 C24 1_555 1_555
H34 C24 1_555 1_555
C25 C23 1_555 1_555
H35 C25 1_555 1_555
H36 C25 1_555 1_555
H37 C25 1_555 1_555
C26 O1 1_555 1_555
H38 C26 1_555 1_555
H39 C26 1_555 1_555
H40 C26 1_555 1_555
C5 C6 1_555 1_555
C9 C10 1_555 1_555

#END
