
#######################################################################
#
#                 Cambridge Crystallographic Data Centre
#                                CCDC 
#
#######################################################################
#
# If this CIF has been generated from an entry in the Cambridge 
# Structural Database, then it will include bibliographic, chemical, 
# crystal, experimental, refinement or atomic coordinate data resulting 
# from the CCDC's data processing and validation procedures.
#
#######################################################################

data_EXETEG
_chemical_name_common            
'Dihydroxy-tetraphenyl-N-confused porphyrin toluene solvate'
_chemical_formula_moiety         'C44 H30 N4 O2,0.5(C7 H8)'
_chemical_name_systematic        
2,7^4^-Dihydroxy-2,4,6,8-tetraphenyl-1,3,5,7(3,5)-tetrapyrrolaoctaphane-3,5,7-triene
_symmetry_cell_setting           monoclinic
_symmetry_space_group_name_H-M   'P 21/n'
_symmetry_Int_Tables_number      14
_space_group_name_Hall           '-P 2yn'
loop_
_symmetry_equiv_pos_site_id
_symmetry_equiv_pos_as_xyz
1 x,y,z
2 1/2+x,1/2-y,1/2+z
3 -x,-y,-z
4 1/2-x,1/2+y,1/2-z
_cell_length_a                   6.6176(17)
_cell_length_b                   24.138(6)
_cell_length_c                   22.081(6)
_cell_angle_alpha                90
_cell_angle_beta                 97.140(7)
_cell_angle_gamma                90
_cell_volume                     3499.77
_exptl_crystal_colour            brown
_cell_formula_units_Z            4
_exptl_crystal_recrystallization_method hexane/toluene
loop_
_atom_site_label
_atom_site_type_symbol
_atom_site_fract_x
_atom_site_fract_y
_atom_site_fract_z
C47 C 0.8712(14) 0.5169(4) 0.0177(5)
C48 C 0.9264(15) 0.4870(4) 0.0710(4)
C50 C 0.7708(12) 0.5446(3) -0.0313(4)
C53 C 1.085(2) 0.4573(7) 0.0840(6)
C50B C 1.2292(12) 0.4554(3) 0.0313(4)
C47B C 1.1288(14) 0.4831(4) -0.0177(5)
C48B C 1.0736(15) 0.5130(4) -0.0710(4)
C53B C 0.915(2) 0.5427(7) -0.0840(6)
C1 C 0.8924(7) 0.20828(18) 0.0702(2)
O1 O 0.8807(9) 0.2108(2) 0.1338(3)
H1 H 0.9946 0.2199 0.1522
N1 N 0.9315(7) 0.10778(19) 0.1535(2)
C2 C 1.1362(6) 0.03924(17) 0.12339(18)
H2 H 1.2368 0.0202 0.1043
N2 N 1.0645(7) 0.20421(18) -0.0105(2)
C3 C 0.9196(8) 0.24517(19) -0.0206(2)
H3 H 0.8961 0.2674 -0.0563
C4 C 1.0271(8) 0.0179(2) 0.1649(2)
H4 H 1.0396 -0.0191 0.1795
C7 C 1.0759(7) 0.0950(2) 0.1128(2)
C8 C 1.1316(7) 0.1276(2) 0.0658(2)
C9 C 1.0461(8) 0.1792(2) 0.0462(2)
C10 C 0.8130(8) 0.2489(2) 0.0296(2)
C11 C 0.6368(8) 0.28217(19) 0.0340(2)
C12 C 0.5079(8) 0.2800(2) 0.0794(2)
C13 C 0.3292(8) 0.31188(18) 0.0830(2)
H7 H 0.2743 0.3393 0.0548
C14 C 0.2511(8) 0.29570(18) 0.1347(2)
H8 H 0.1326 0.3099 0.1494
C15 C 0.3801(8) 0.25389(19) 0.1620(2)
C16 C 0.3632(8) 0.2287(2) 0.2247(2)
C17 C 0.4193(8) 0.1686(2) 0.2348(2)
C18 C 0.3454(7) 0.1328(2) 0.27772(19)
H9 H 0.2428 0.1414 0.3027
C19 C 0.4467(8) 0.08422(19) 0.2769(2)
H10 H 0.4240 0.0521 0.2999
C20 C 0.5909(8) 0.0897(2) 0.2360(2)
C21 C 0.7369(8) 0.05053(19) 0.2237(2)
C22 C 0.8867(8) 0.05865(19) 0.1850(2)
C23 C 1.2768(8) 0.10335(19) 0.0256(2)
C24 C 1.4703(8) 0.12537(19) 0.0254(2)
H11 H 1.5134 0.1546 0.0527
C25 C 1.2188(8) 0.06119(18) -0.0149(2)
H12 H 1.0861 0.0459 -0.0160
C26 C 1.5999(8) 0.1061(2) -0.0129(2)
H13 H 1.7317 0.1219 -0.0125
C27 C 1.3470(8) 0.04072(19) -0.0536(2)
H14 H 1.3047 0.0112 -0.0807
C28 C 1.5373(9) 0.0634(2) -0.0526(2)
H15 H 1.6271 0.0496 -0.0794
C29 C 0.5763(8) 0.3207(2) -0.0176(2)
C30 C 0.6978(8) 0.3650(2) -0.0265(2)
H16 H 0.8191 0.3711 0.0005
C31 C 0.4033(9) 0.3129(2) -0.0553(2)
H17 H 0.3185 0.2825 -0.0481
C32 C 0.6441(10) 0.4012(2) -0.0751(2)
H18 H 0.7310 0.4312 -0.0822
C33 C 0.3428(8) 0.3481(2) -0.1048(2)
H19 H 0.2224 0.3412 -0.1319
C34 C 0.4669(10) 0.3932(2) -0.1123(2)
H20 H 0.4273 0.4191 -0.1441
C35 C 0.4837(10) 0.2657(2) 0.2711(2)
C36 C 0.7043(10) 0.2562(2) 0.2834(2)
H21 H 0.7644 0.2269 0.2630
C37 C 0.8281(10) 0.2899(2) 0.3249(2)
H22 H 0.9700 0.2830 0.3339
C38 C 0.7345(12) 0.3344(3) 0.3531(3)
H23 H 0.8144 0.3584 0.3805
C39 C 0.5157(11) 0.3429(3) 0.3399(3)
H24 H 0.4529 0.3729 0.3582
C40 C 0.3988(9) 0.3074(2) 0.3004(2)
H25 H 0.2554 0.3124 0.2938
C41 C 0.7292(9) -0.0053(2) 0.2520(2)
C42 C 0.8962(9) -0.0271(2) 0.2860(2)
H26 H 1.0183 -0.0061 0.2923
C43 C 0.5555(8) -0.0365(2) 0.2409(2)
H27 H 0.4404 -0.0221 0.2159
C44 C 0.8911(9) -0.0796(2) 0.3115(2)
H28 H 1.0069 -0.0937 0.3365
C45 C 0.5468(9) -0.0895(2) 0.2663(2)
H29 H 0.4245 -0.1104 0.2600
C46 C 0.7167(11) -0.1108(2) 0.3003(2)
H30 H 0.7137 -0.1474 0.3162
N5 N 0.5371(6) 0.24411(15) 0.13142(17)
H31 H 0.6376 0.2206 0.1411
N6 N 0.5688(6) 0.14313(15) 0.21063(16)
O3 O 0.1580(5) 0.23651(11) 0.23843(14)
H33 H 0.0809 0.2133 0.2189
N3? N 1.1362(6) 0.03924(17) 0.12339(18)
C5? C 1.0645(7) 0.20421(18) -0.0105(2)
H5? H 1.1607 0.1945 -0.0373
N4? N 0.8924(7) 0.20828(18) 0.0702(2)
C6? C 0.9315(7) 0.10778(19) 0.1535(2)
O2? O 0.9032(9) 0.1584(2) 0.1723(3)
H6? H 1.0122 0.1704 0.1913
H32? H 0.6412 0.1573 0.1835
H34? H 0.7489 0.5379 0.0130
H35? H 0.8418 0.4875 0.1027
C49? C 1.1054(16) 0.4562(4) 0.0778(3)
H36? H 1.1431 0.4358 0.1142
H37? H 1.3516 0.4344 0.0360
C51? C 1.1740(15) 0.4854(4) -0.0219(4)
H38? H 1.2587 0.4849 -0.0536
C52? C 0.9950(18) 0.5161(4) -0.0287(4)
H39? H 1.0129 0.5397 -0.1136
H40? H 0.8895 0.5818 -0.0759
H41? H 0.7868 0.5248 -0.1005
loop_
_geom_bond_atom_site_label_1
_geom_bond_atom_site_label_2
_geom_bond_site_symmetry_1
_geom_bond_site_symmetry_2
C1 O1 1_555 1_555
O1 H1 1_555 1_555
N1 C7 1_555 1_555
C2 H2 1_555 1_555
N2 C3 1_555 1_555
C3 H3 1_555 1_555
C4 C2 1_555 1_555
H4 C4 1_555 1_555
C7 C2 1_555 1_555
C8 C7 1_555 1_555
C9 C1 1_555 1_555
C10 C1 1_555 1_555
C11 C10 1_555 1_555
C12 C11 1_555 1_555
C13 C12 1_555 1_555
H7 C13 1_555 1_555
C14 C13 1_555 1_555
H8 C14 1_555 1_555
C15 C14 1_555 1_555
C16 C15 1_555 1_555
C17 C16 1_555 1_555
C18 C17 1_555 1_555
H9 C18 1_555 1_555
C19 C18 1_555 1_555
H10 C19 1_555 1_555
C20 C19 1_555 1_555
C21 C20 1_555 1_555
C22 N1 1_555 1_555
C23 C8 1_555 1_555
C24 C23 1_555 1_555
H11 C24 1_555 1_555
C25 C23 1_555 1_555
H12 C25 1_555 1_555
C26 C24 1_555 1_555
H13 C26 1_555 1_555
C27 C25 1_555 1_555
H14 C27 1_555 1_555
C28 C26 1_555 1_555
H15 C28 1_555 1_555
C29 C11 1_555 1_555
C30 C29 1_555 1_555
H16 C30 1_555 1_555
C31 C29 1_555 1_555
H17 C31 1_555 1_555
C32 C30 1_555 1_555
H18 C32 1_555 1_555
C33 C31 1_555 1_555
H19 C33 1_555 1_555
C34 C32 1_555 1_555
H20 C34 1_555 1_555
C35 C16 1_555 1_555
C36 C35 1_555 1_555
H21 C36 1_555 1_555
C37 C36 1_555 1_555
H22 C37 1_555 1_555
C38 C37 1_555 1_555
H23 C38 1_555 1_555
C39 C38 1_555 1_555
H24 C39 1_555 1_555
C40 C35 1_555 1_555
H25 C40 1_555 1_555
C41 C21 1_555 1_555
C42 C41 1_555 1_555
H26 C42 1_555 1_555
C43 C41 1_555 1_555
H27 C43 1_555 1_555
C44 C42 1_555 1_555
H28 C44 1_555 1_555
C45 C43 1_555 1_555
H29 C45 1_555 1_555
C46 C44 1_555 1_555
H30 C46 1_555 1_555
N5 C12 1_555 1_555
H31 N5 1_555 1_555
N6 C17 1_555 1_555
O3 C16 1_555 1_555
H33 O3 1_555 1_555
C47 C48 1_555 1_555
C48 C53 1_555 1_555
C50 C47 1_555 1_555
C53 C50B 1_555 1_555
C50B C47B 1_555 1_555
C47B C48B 1_555 1_555
C48B C53B 1_555 1_555
C53B C50 1_555 1_555
N2 C9 1_555 1_555
C3 C10 1_555 1_555
C4 C22 1_555 1_555
C8 C9 1_555 1_555
C15 N5 1_555 1_555
C20 N6 1_555 1_555
C21 C22 1_555 1_555
C27 C28 1_555 1_555
C33 C34 1_555 1_555
C39 C40 1_555 1_555
C45 C46 1_555 1_555

#END
