
#######################################################################
#
#                 Cambridge Crystallographic Data Centre
#                                CCDC 
#
#######################################################################
#
# If this CIF has been generated from an entry in the Cambridge 
# Structural Database, then it will include bibliographic, chemical, 
# crystal, experimental, refinement or atomic coordinate data resulting 
# from the CCDC's data processing and validation procedures.
#
#######################################################################

data_EXEYEL
_chemical_formula_moiety         'C32 H26 B2 N2 O3,C1 H2 Cl2,H2 O1'
_chemical_name_systematic        
'(\m~2~-Oxo)-bis((2-methyl-8-quinolinolato)phenylborane) dichloromethane solvate monohydrate'
_symmetry_cell_setting           triclinic
_symmetry_space_group_name_H-M   'P -1'
_symmetry_Int_Tables_number      2
_space_group_name_Hall           '-P 1'
loop_
_symmetry_equiv_pos_site_id
_symmetry_equiv_pos_as_xyz
1 x,y,z
2 -x,-y,-z
_cell_length_a                   10.069(3)
_cell_length_b                   12.863(4)
_cell_length_c                   13.361(4)
_cell_angle_alpha                108.604(6)
_cell_angle_beta                 94.475(5)
_cell_angle_gamma                110.489(5)
_cell_volume                     1500.83
_exptl_crystal_colour            yellow-green
_chemical_melting_point          270deg.C
_cell_formula_units_Z            2
loop_
_atom_site_label
_atom_site_type_symbol
_atom_site_fract_x
_atom_site_fract_y
_atom_site_fract_z
B1 B 0.4315(5) 0.7775(4) 0.1814(4)
O1 O 0.3763(3) 0.7025(2) 0.2376(2)
N1 N 0.5168(3) 0.9195(3) 0.2663(2)
C1 C 0.4748(5) 0.9926(4) 0.3380(3)
C2 C 0.5763(6) 1.1088(4) 0.3995(4)
H1 H 0.5468 1.1605 0.4496
C3 C 0.7163(6) 1.1483(4) 0.3883(4)
H2 H 0.7801 1.2264 0.4294
C4 C 0.9047(5) 1.0907(5) 0.2938(4)
H3 H 0.9807 1.1648 0.3300
C5 C 0.9279(5) 1.0016(6) 0.2211(5)
H4 H 1.0214 1.0164 0.2093
C6 C 0.8169(5) 0.8856(5) 0.1614(4)
H5 H 0.8375 0.8268 0.1118
C7 C 0.6816(4) 0.8641(4) 0.1789(3)
C8 C 0.6573(4) 0.9568(3) 0.2548(3)
C9 C 0.7651(5) 1.0708(4) 0.3144(3)
C10 C 0.3222(5) 0.9492(5) 0.3513(4)
H6 H 0.2574 0.9195 0.2826
H7 H 0.3058 1.0138 0.4012
H8 H 0.3047 0.8862 0.3787
O2 O 0.5606(3) 0.7645(2) 0.1349(2)
C11 C 0.3077(5) 0.7686(4) 0.0912(3)
C12 C 0.3382(6) 0.8301(5) 0.0223(5)
H9 H 0.4340 0.8801 0.0292
C13 C 0.2332(9) 0.8205(7) -0.0559(5)
H10 H 0.2577 0.8633 -0.1009
C14 C 0.0904(9) 0.7466(7) -0.0672(6)
H11 H 0.0178 0.7408 -0.1188
C15 C 0.0574(7) 0.6837(6) -0.0039(5)
H12 H -0.0382 0.6326 -0.0123
C16 C 0.1638(5) 0.6936(5) 0.0740(4)
H13 H 0.1380 0.6481 0.1166
B2 B 0.4491(5) 0.6714(4) 0.3086(3)
C17 C 0.5074(5) 0.4975(3) 0.1585(3)
N2 N 0.5447(3) 0.5975(3) 0.2456(2)
C18 C 0.6157(5) 0.4592(4) 0.1245(4)
H14 H 0.5899 0.3889 0.0647
C19 C 0.7571(6) 0.5208(4) 0.1758(4)
H15 H 0.8261 0.4920 0.1511
C20 C 0.9396(5) 0.7079(5) 0.3301(4)
H16 H 1.0202 0.6915 0.3143
C21 C 0.9560(5) 0.8076(5) 0.4137(4)
H17 H 1.0492 0.8583 0.4541
C22 C 0.8402(4) 0.8387(4) 0.4428(3)
H18 H 0.8561 0.9076 0.5015
C23 C 0.7040(4) 0.7653(3) 0.3828(3)
C24 C 0.6870(4) 0.6606(3) 0.2968(3)
C25 C 0.8010(4) 0.6293(4) 0.2672(3)
C26 C 0.3532(5) 0.4338(4) 0.1003(3)
H19 H 0.2959 0.3989 0.1444
H20 H 0.3449 0.3721 0.0336
H21 H 0.3190 0.4893 0.0852
O3 O 0.5774(3) 0.7760(2) 0.3925(2)
C27 C 0.3428(4) 0.5937(3) 0.3657(3)
C28 C 0.1950(5) 0.5361(4) 0.3249(4)
H22 H 0.1566 0.5426 0.2626
C29 C 0.1009(6) 0.4687(5) 0.3730(5)
H23 H 0.0019 0.4307 0.3430
C30 C 0.1564(7) 0.4593(5) 0.4653(5)
H24 H 0.0943 0.4153 0.4986
C31 C 0.3014(6) 0.5136(5) 0.5084(4)
H25 H 0.3384 0.5057 0.5702
C32 C 0.3942(5) 0.5810(4) 0.4599(4)
H26 H 0.4930 0.6187 0.4907
O4 O 0.3018(5) 0.2561(5) 0.2912(4)
C33 C 0.3383(16) 0.0729(11) 0.1392(11)
Cl1 Cl 0.2761(12) 0.1155(7) 0.0910(7)
Cl2 Cl 0.413(3) 0.2169(18) 0.2267(19)
Cl3? Cl 0.495(2) 0.1879(16) 0.163(2)
loop_
_geom_bond_atom_site_label_1
_geom_bond_atom_site_label_2
_geom_bond_site_symmetry_1
_geom_bond_site_symmetry_2
B1 O1 1_555 1_555
O1 B2 1_555 1_555
N1 B1 1_555 1_555
C1 N1 1_555 1_555
C2 C1 1_555 1_555
H1 C2 1_555 1_555
C3 C2 1_555 1_555
H2 C3 1_555 1_555
C4 H3 1_555 1_555
C5 C4 1_555 1_555
H4 C5 1_555 1_555
C6 C5 1_555 1_555
H5 C6 1_555 1_555
C7 C6 1_555 1_555
C8 N1 1_555 1_555
C9 C3 1_555 1_555
C10 C1 1_555 1_555
H6 C10 1_555 1_555
H7 C10 1_555 1_555
H8 C10 1_555 1_555
O2 B1 1_555 1_555
C11 B1 1_555 1_555
C12 C11 1_555 1_555
H9 C12 1_555 1_555
C13 C12 1_555 1_555
H10 C13 1_555 1_555
C14 C13 1_555 1_555
H11 C14 1_555 1_555
C15 C14 1_555 1_555
H12 C15 1_555 1_555
C16 C11 1_555 1_555
H13 C16 1_555 1_555
B2 N2 1_555 1_555
C17 N2 1_555 1_555
N2 C24 1_555 1_555
C18 C17 1_555 1_555
H14 C18 1_555 1_555
C19 C18 1_555 1_555
H15 C19 1_555 1_555
C20 H16 1_555 1_555
C21 C20 1_555 1_555
H17 C21 1_555 1_555
C22 C21 1_555 1_555
H18 C22 1_555 1_555
C23 C22 1_555 1_555
C24 C23 1_555 1_555
C25 C19 1_555 1_555
C26 C17 1_555 1_555
H19 C26 1_555 1_555
H20 C26 1_555 1_555
H21 C26 1_555 1_555
O3 B2 1_555 1_555
C27 B2 1_555 1_555
C28 C27 1_555 1_555
H22 C28 1_555 1_555
C29 C28 1_555 1_555
H23 C29 1_555 1_555
C30 C29 1_555 1_555
H24 C30 1_555 1_555
C31 C30 1_555 1_555
H25 C31 1_555 1_555
C32 C27 1_555 1_555
H26 C32 1_555 1_555
C33 Cl1 1_555 1_555
Cl2 C33 1_555 1_555
C4 C9 1_555 1_555
C7 C8 1_555 1_555
C7 O2 1_555 1_555
C8 C9 1_555 1_555
C15 C16 1_555 1_555
C20 C25 1_555 1_555
C23 O3 1_555 1_555
C24 C25 1_555 1_555
C31 C32 1_555 1_555

#END
