
#######################################################################
#
#                 Cambridge Crystallographic Data Centre
#                                CCDC 
#
#######################################################################
#
# If this CIF has been generated from an entry in the Cambridge 
# Structural Database, then it will include bibliographic, chemical, 
# crystal, experimental, refinement or atomic coordinate data resulting 
# from the CCDC's data processing and validation procedures.
#
#######################################################################

data_EXIBOC
_chemical_formula_moiety         'C5 H10 N1 O2 1+,C6 H2 N3 O7 1-'
_chemical_name_systematic        'L-Prolinium picrate'
_symmetry_cell_setting           orthorhombic
_symmetry_space_group_name_H-M   'P 21 21 21'
_symmetry_Int_Tables_number      19
_space_group_name_Hall           'P 2ac 2ab'
loop_
_symmetry_equiv_pos_site_id
_symmetry_equiv_pos_as_xyz
1 x,y,z
2 1/2-x,-y,1/2+z
3 -x,1/2+y,1/2-z
4 1/2+x,1/2-y,-z
_cell_length_a                   6.325(1)
_cell_length_b                   9.269(1)
_cell_length_c                   24.379(4)
_cell_angle_alpha                90
_cell_angle_beta                 90
_cell_angle_gamma                90
_cell_volume                     1429.25
_cell_formula_units_Z            4
loop_
_atom_site_label
_atom_site_type_symbol
_atom_site_fract_x
_atom_site_fract_y
_atom_site_fract_z
O1 O 0.5011(3) 0.5319(2) 0.51957(7)
H1 H 0.5404 0.5713 0.5479
O2 O 0.2434(3) 0.6984(2) 0.52170(7)
N1 N 0.0186(4) 0.5674(2) 0.44125(8)
H2 H 0.0203 0.6300 0.4130
H3 H -0.0342 0.6129 0.4709
C1 C -0.1159(5) 0.4397(3) 0.42727(13)
H4 H -0.1989 0.4582 0.3946
H5 H -0.2109 0.4166 0.4572
C2 C 0.0379(5) 0.3190(3) 0.41766(11)
H6 H 0.0884 0.3191 0.3801
H7 H -0.0259 0.2262 0.4256
C3 C 0.2165(5) 0.3522(3) 0.45762(11)
H8 H 0.3462 0.3040 0.4469
H9 H 0.1796 0.3236 0.4947
C4 C 0.2379(5) 0.5155(3) 0.45293(10)
H10 H 0.3274 0.5377 0.4212
C5 C 0.3256(4) 0.5928(3) 0.50240(11)
O3 O 0.1204(4) 0.8265(2) 0.39050(7)
O4 O 0.3925(4) 1.0153(3) 0.43239(8)
O5 O 0.6755(4) 1.0542(3) 0.38734(9)
O6 O 0.7055(5) 1.0014(3) 0.19546(10)
O7 O 0.4881(4) 0.8593(3) 0.15459(8)
O8 O -0.1281(4) 0.6992(3) 0.24329(10)
O9 O -0.1362(4) 0.6684(3) 0.32895(9)
N2 N 0.4961(5) 1.0083(3) 0.39037(9)
N3 N 0.5494(5) 0.9234(3) 0.19488(10)
N4 N -0.0542(4) 0.7185(3) 0.28846(11)
C6 C 0.2120(5) 0.8559(3) 0.34632(11)
C7 C 0.4023(5) 0.9410(3) 0.34184(11)
C8 C 0.5092(5) 0.9628(3) 0.29380(11)
H11 H 0.6333 1.0166 0.2935
C9 C 0.4324(5) 0.9049(3) 0.24596(11)
C10 C 0.2469(5) 0.8269(3) 0.24505(11)
H12 H 0.1948 0.7907 0.2121
C11 C 0.1399(4) 0.8032(3) 0.29316(11)
loop_
_geom_bond_atom_site_label_1
_geom_bond_atom_site_label_2
_geom_bond_site_symmetry_1
_geom_bond_site_symmetry_2
O1 H1 1_555 1_555
O2 C5 1_555 1_555
N1 H2 1_555 1_555
H3 N1 1_555 1_555
C1 N1 1_555 1_555
H4 C1 1_555 1_555
H5 C1 1_555 1_555
C2 C1 1_555 1_555
H6 C2 1_555 1_555
H7 C2 1_555 1_555
C3 C2 1_555 1_555
H8 C3 1_555 1_555
H9 C3 1_555 1_555
C4 N1 1_555 1_555
H10 C4 1_555 1_555
C5 O1 1_555 1_555
O3 C6 1_555 1_555
O4 N2 1_555 1_555
O5 N2 1_555 1_555
O6 N3 1_555 1_555
O7 N3 1_555 1_555
O8 N4 1_555 1_555
O9 N4 1_555 1_555
N2 C7 1_555 1_555
N3 C9 1_555 1_555
N4 C11 1_555 1_555
C6 C7 1_555 1_555
C7 C8 1_555 1_555
C8 H11 1_555 1_555
C9 C8 1_555 1_555
C10 C9 1_555 1_555
H12 C10 1_555 1_555
C11 C6 1_555 1_555
C3 C4 1_555 1_555
C4 C5 1_555 1_555
C10 C11 1_555 1_555

#END
