
#######################################################################
#
#                 Cambridge Crystallographic Data Centre
#                                CCDC 
#
#######################################################################
#
# If this CIF has been generated from an entry in the Cambridge 
# Structural Database, then it will include bibliographic, chemical, 
# crystal, experimental, refinement or atomic coordinate data resulting 
# from the CCDC's data processing and validation procedures.
#
#######################################################################

data_EXIFIB
_chemical_formula_moiety         'C12 H14 N4,C6 F4 I2'
_chemical_name_systematic        
"1,2,4,5-Tetrafluoro-3,6-diiodobenzene 4,4',6,6'-tetramethyl-2,2'-bipyrimidine"
_symmetry_cell_setting           monoclinic
_symmetry_space_group_name_H-M   'C 2/m'
_symmetry_Int_Tables_number      12
_space_group_name_Hall           '-C 2y'
loop_
_symmetry_equiv_pos_site_id
_symmetry_equiv_pos_as_xyz
1 x,y,z
2 -x,y,-z
3 1/2+x,1/2+y,z
4 1/2-x,1/2+y,-z
5 -x,-y,-z
6 x,-y,z
7 1/2-x,1/2-y,-z
8 1/2+x,1/2-y,z
_cell_length_a                   13.985(2)
_cell_length_b                   15.550(3)
_cell_length_c                   4.6026(7)
_cell_angle_alpha                90
_cell_angle_beta                 101.769(2)
_cell_angle_gamma                90
_cell_volume                     979.871
_exptl_crystal_colour            colorless
_exptl_crystal_description       block
_cell_formula_units_Z            2
loop_
_atom_site_label
_atom_site_type_symbol
_atom_site_fract_x
_atom_site_fract_y
_atom_site_fract_z
C1 C 0.4568(2) 0.5000 0.5742(7)
C2 C 0.34580(16) 0.42386(15) 0.7719(5)
C3 C 0.3069(2) 0.5000 0.8458(8)
H1 H 0.2550 0.5000 0.9442
C4 C 0.3053(2) 0.33868(16) 0.8423(8)
H2 H 0.2831 0.3071 0.6618
H3 H 0.2515 0.3479 0.9392
H4 H 0.3553 0.3065 0.9709
N1 N 0.42240(13) 0.42319(12) 0.6347(4)
C1A C 0.5432(2) 0.5000 0.4258(7)
C2A C 0.65420(16) 0.42386(15) 0.2281(5)
C2D C 0.65420(16) 0.57614(15) 0.2281(5)
C2E C 0.34580(16) 0.57614(15) 0.7719(5)
C3A C 0.6931(2) 0.5000 0.1542(8)
H1A H 0.7450 0.5000 0.0558
C4A C 0.6947(2) 0.33868(16) 0.1577(8)
C4D C 0.6947(2) 0.66132(16) 0.1577(8)
C4E C 0.3053(2) 0.66132(16) 0.8423(8)
H2A H 0.7169 0.3071 0.3382
H2D H 0.7169 0.6929 0.3382
H2E H 0.2831 0.6929 0.6618
H3A H 0.7485 0.3479 0.0608
H3D H 0.7485 0.6521 0.0608
H3E H 0.2515 0.6521 0.9392
H4A H 0.6447 0.3065 0.0291
H4D H 0.6447 0.6935 0.0291
H4E H 0.3553 0.6935 0.9709
N1A N 0.57760(13) 0.42319(12) 0.3653(4)
N1D N 0.57760(13) 0.57681(12) 0.3653(4)
N1E N 0.42240(13) 0.57681(12) 0.6347(4)
C5 C 0.5000 0.0912(2) 0.5000
C6 C 0.43715(16) 0.04419(16) 0.6354(5)
F1 F 0.37432(12) 0.08506(10) 0.7737(4)
I1 I 0.5000 0.225226(13) 0.5000
C5D C 0.5000 -0.0912(2) 0.5000
C6A C 0.56285(16) 0.04419(16) 0.3646(5)
C6D C 0.56285(16) -0.04419(16) 0.3646(5)
C6E C 0.43715(16) -0.04419(16) 0.6354(5)
F1A F 0.62568(12) 0.08506(10) 0.2263(4)
F1D F 0.62568(12) -0.08506(10) 0.2263(4)
F1E F 0.37432(12) -0.08506(10) 0.7737(4)
I1D I 0.5000 -0.225226(13) 0.5000
loop_
_geom_bond_atom_site_label_1
_geom_bond_atom_site_label_2
_geom_bond_site_symmetry_1
_geom_bond_site_symmetry_2
C1 N1 1_555 1_555
C2 C3 1_555 1_555
C3 H1 1_555 1_555
C4 C2 1_555 1_555
H2 C4 1_555 1_555
H3 C4 1_555 1_555
H4 C4 1_555 1_555
C5 C6 1_555 1_555
C6 F1 1_555 1_555
I1 C5 1_555 1_555
N1 C2 1_555 1_555
C1A C1 1_555 1_555
C2A C3A 1_555 1_555
C2D C3A 1_555 1_555
C2E C3 1_555 1_555
C3A H1A 1_555 1_555
C4A C2A 1_555 1_555
C4D C2D 1_555 1_555
C4E C2E 1_555 1_555
H2A C4A 1_555 1_555
H2D C4D 1_555 1_555
H2E C4E 1_555 1_555
H3A C4A 1_555 1_555
H3D C4D 1_555 1_555
H3E C4E 1_555 1_555
H4A C4A 1_555 1_555
H4D C4D 1_555 1_555
H4E C4E 1_555 1_555
C5D C6D 1_555 1_555
C6A C5 1_555 1_555
C6D C6A 1_555 1_555
C6E C6 1_555 1_555
F1A C6A 1_555 1_555
F1D C6D 1_555 1_555
F1E C6E 1_555 1_555
I1D C5D 1_555 1_555
N1A C1A 1_555 1_555
N1D C1A 1_555 1_555
N1E C1 1_555 1_555
C2A N1A 1_555 1_555
C2D N1D 1_555 1_555
C2E N1E 1_555 1_555
C5D C6E 1_555 1_555

#END
