
#######################################################################
#
#                 Cambridge Crystallographic Data Centre
#                                CCDC 
#
#######################################################################
#
# If this CIF has been generated from an entry in the Cambridge 
# Structural Database, then it will include bibliographic, chemical, 
# crystal, experimental, refinement or atomic coordinate data resulting 
# from the CCDC's data processing and validation procedures.
#
#######################################################################

data_EXIFAT
_chemical_formula_moiety         'C11 H6 N2 O1,C6 F4 I2'
_chemical_name_systematic        
"5H-Pyrido[3',2':4,5]cyclopenta[1,2-b]pyridin-5-one 1,2,4,5-tetrafluoro-3,6-diiodobenzene"
_symmetry_cell_setting           triclinic
_symmetry_space_group_name_H-M   'P -1'
_symmetry_Int_Tables_number      2
_space_group_name_Hall           '-P 1'
loop_
_symmetry_equiv_pos_site_id
_symmetry_equiv_pos_as_xyz
1 x,y,z
2 -x,-y,-z
_cell_length_a                   4.9382(7)
_cell_length_b                   12.6849(18)
_cell_length_c                   14.696(2)
_cell_angle_alpha                108.0410(10)
_cell_angle_beta                 92.996(2)
_cell_angle_gamma                97.953(2)
_cell_volume                     862.454
_exptl_crystal_colour            colorless
_exptl_crystal_description       block
_cell_formula_units_Z            2
loop_
_atom_site_label
_atom_site_type_symbol
_atom_site_fract_x
_atom_site_fract_y
_atom_site_fract_z
C1 C 0.9046(7) 0.7023(3) 0.9365(2)
C2 C 1.1084(7) 0.6521(3) 0.9685(3)
C3 C 1.1483(8) 0.5457(4) 0.9123(3)
H1 H 1.2813 0.5091 0.9308
C4 C 0.9785(9) 0.4981(4) 0.8276(3)
H2 H 0.9943 0.4267 0.7877
C5 C 0.7848(9) 0.5553(3) 0.8015(3)
H3 H 0.6760 0.5206 0.7435
C6 C 0.9021(7) 0.8136(3) 1.0114(3)
C7 C 1.1007(7) 0.8277(3) 1.0863(3)
C8 C 1.1342(9) 0.9235(4) 1.1650(3)
H4 H 1.2645 0.9355 1.2167
C9 C 0.9650(9) 1.0007(4) 1.1633(3)
H5 H 0.9805 1.0670 1.2145
C10 C 0.7729(8) 0.9799(3) 1.0859(3)
H6 H 0.6622 1.0340 1.0873
C11 C 1.2412(8) 0.7277(4) 1.0633(3)
N1 N 0.7441(6) 0.6580(3) 0.8549(2)
N2 N 0.7339(6) 0.8858(3) 1.0073(2)
O1 O 1.4243(6) 0.7091(3) 1.1119(2)
C12 C -0.1860(7) 0.2536(3) 0.3953(2)
C13 C -0.2542(7) 0.1652(3) 0.4300(3)
C14 C -0.1146(8) 0.1577(3) 0.5097(3)
C15 C 0.1073(8) 0.2389(3) 0.5588(3)
C16 C 0.1772(8) 0.3274(3) 0.5246(3)
C17 C 0.0318(7) 0.3350(3) 0.4453(3)
F1 F -0.4681(5) 0.08375(19) 0.38466(19)
F2 F -0.1927(5) 0.07003(18) 0.54061(18)
F3 F 0.3875(5) 0.4093(2) 0.56939(17)
F4 F 0.1061(5) 0.42475(17) 0.41613(16)
I1 I -0.40733(5) 0.26809(2) 0.275808(17)
I2 I 0.31506(6) 0.23192(2) 0.683179(19)
loop_
_geom_bond_atom_site_label_1
_geom_bond_atom_site_label_2
_geom_bond_site_symmetry_1
_geom_bond_site_symmetry_2
C1 C2 1_555 1_555
C2 C3 1_555 1_555
C3 H1 1_555 1_555
C4 C3 1_555 1_555
H2 C4 1_555 1_555
C5 C4 1_555 1_555
H3 C5 1_555 1_555
C6 C1 1_555 1_555
C7 C6 1_555 1_555
C8 C7 1_555 1_555
H4 C8 1_555 1_555
C9 C8 1_555 1_555
H5 C9 1_555 1_555
C10 C9 1_555 1_555
H6 C10 1_555 1_555
C11 C2 1_555 1_555
C12 C13 1_555 1_555
C13 C14 1_555 1_555
C14 C15 1_555 1_555
C15 C16 1_555 1_555
C16 C17 1_555 1_555
C17 C12 1_555 1_555
F1 C13 1_555 1_555
F2 C14 1_555 1_555
F3 C16 1_555 1_555
F4 C17 1_555 1_555
I1 C12 1_555 1_555
I2 C15 1_555 1_555
N1 C1 1_555 1_555
N2 C6 1_555 1_555
O1 C11 1_555 1_555
C5 N1 1_555 1_555
C7 C11 1_555 1_555
C10 N2 1_555 1_555

#END
