
#######################################################################
#
#                 Cambridge Crystallographic Data Centre
#                                CCDC 
#
#######################################################################
#
# If this CIF has been generated from an entry in the Cambridge 
# Structural Database, then it will include bibliographic, chemical, 
# crystal, experimental, refinement or atomic coordinate data resulting 
# from the CCDC's data processing and validation procedures.
#
#######################################################################

data_EXIFEX
_chemical_formula_moiety         'C12 H6 N2 O2,C6 F4 I2'
_chemical_name_systematic        
'1,10-Phenanthroline-5,6-dione 1,2,4,5-tetrafluoro-3,6-diiodobenzene'
_symmetry_cell_setting           monoclinic
_symmetry_space_group_name_H-M   'P 21/m'
_symmetry_Int_Tables_number      11
_space_group_name_Hall           '-P 2yb'
loop_
_symmetry_equiv_pos_site_id
_symmetry_equiv_pos_as_xyz
1 x,y,z
2 -x,1/2+y,-z
3 -x,-y,-z
4 x,1/2-y,z
_cell_length_a                   5.3613(13)
_cell_length_b                   15.321(4)
_cell_length_c                   11.904(3)
_cell_angle_alpha                90
_cell_angle_beta                 101.207(2)
_cell_angle_gamma                90
_cell_volume                     959.155
_exptl_crystal_colour            orange
_exptl_crystal_description       block
_cell_formula_units_Z            2
loop_
_atom_site_label
_atom_site_type_symbol
_atom_site_fract_x
_atom_site_fract_y
_atom_site_fract_z
C1 C 0.2157(6) 0.2978(2) 0.6838(3)
C2 C 0.3664(7) 0.3451(3) 0.6210(3)
C3 C 0.3593(10) 0.4358(3) 0.6262(4)
H1 H 0.4561 0.4692 0.5854
C4 C 0.2097(11) 0.4754(3) 0.6914(5)
H2 H 0.2030 0.5359 0.6960
C5 C 0.0695(10) 0.4242(3) 0.7501(4)
H3 H -0.0326 0.4518 0.7941
C6 C 0.5273(7) 0.2999(3) 0.5521(3)
N1 N 0.0699(7) 0.3370(2) 0.7482(3)
O1 O 0.6557(7) 0.3381(2) 0.4952(3)
C1C C 0.2157(6) 0.2022(2) 0.6838(3)
C2C C 0.3664(7) 0.1549(3) 0.6210(3)
C3C C 0.3593(10) 0.0642(3) 0.6262(4)
H1C H 0.4561 0.0308 0.5854
C4C C 0.2097(11) 0.0246(3) 0.6914(5)
H2C H 0.2030 -0.0359 0.6960
C5C C 0.0695(10) 0.0758(3) 0.7501(4)
H3C H -0.0326 0.0482 0.7941
C6C C 0.5273(7) 0.2001(3) 0.5521(3)
N1C N 0.0699(7) 0.1630(2) 0.7482(3)
O1C O 0.6557(7) 0.1619(2) 0.4952(3)
C7 C 0.2270(9) 0.2500 0.2089(4)
C8 C 0.3034(8) 0.3262(2) 0.1661(4)
C9 C 0.4507(8) 0.3260(3) 0.0836(4)
C10 C 0.5292(9) 0.2500 0.0402(4)
F1 F 0.2347(6) 0.40295(16) 0.2043(3)
F2 F 0.5191(7) 0.40345(18) 0.0454(3)
I1 I -0.00703(7) 0.2500 0.33015(3)
I2 I 0.76182(7) 0.2500 -0.08149(3)
C8C C 0.3034(8) 0.1738(2) 0.1661(4)
C9C C 0.4507(8) 0.1740(3) 0.0836(4)
F1C F 0.2347(6) 0.09705(16) 0.2043(3)
F2C F 0.5191(7) 0.09655(18) 0.0454(3)
loop_
_geom_bond_atom_site_label_1
_geom_bond_atom_site_label_2
_geom_bond_site_symmetry_1
_geom_bond_site_symmetry_2
C1 C2 1_555 1_555
C2 C3 1_555 1_555
C3 H1 1_555 1_555
C4 C3 1_555 1_555
H2 C4 1_555 1_555
C5 C4 1_555 1_555
H3 C5 1_555 1_555
C6 C2 1_555 1_555
C7 C8 1_555 1_555
C8 C9 1_555 1_555
C9 C10 1_555 1_555
C10 I2 1_555 1_555
F1 C8 1_555 1_555
F2 C9 1_555 1_555
I1 C7 1_555 1_555
N1 C1 1_555 1_555
O1 C6 1_555 1_555
C1C C1 1_555 1_555
C2C C1C 1_555 1_555
C3C C2C 1_555 1_555
H1C C3C 1_555 1_555
C4C C3C 1_555 1_555
H2C C4C 1_555 1_555
C5C C4C 1_555 1_555
H3C C5C 1_555 1_555
C6C C6 1_555 1_555
C8C C7 1_555 1_555
C9C C10 1_555 1_555
F1C C8C 1_555 1_555
F2C C9C 1_555 1_555
N1C C1C 1_555 1_555
O1C C6C 1_555 1_555
C5 N1 1_555 1_555
C2C C6C 1_555 1_555
C5C N1C 1_555 1_555
C8C C9C 1_555 1_555

#END
