
#######################################################################
#
#                 Cambridge Crystallographic Data Centre
#                                CCDC 
#
#######################################################################
#
# If this CIF has been generated from an entry in the Cambridge 
# Structural Database, then it will include bibliographic, chemical, 
# crystal, experimental, refinement or atomic coordinate data resulting 
# from the CCDC's data processing and validation procedures.
#
#######################################################################

data_EXIGOJ
_chemical_name_common            
'1-(2-chlorophenyl)-3-hydroxy-2-oxocyclohexanaminium chloride'
_chemical_formula_moiety         'C12 H15 Cl1 N1 O2 1+,Cl1 1-'
_chemical_name_systematic        
'(2R,6R)-2-amino-2-(2-chlorophenyl)-6-hydroxycyclohexanone hydrochloride'
_symmetry_cell_setting           monoclinic
_symmetry_space_group_name_H-M   'P 21'
_symmetry_Int_Tables_number      4
_space_group_name_Hall           'P 2yb'
loop_
_symmetry_equiv_pos_site_id
_symmetry_equiv_pos_as_xyz
1 x,y,z
2 -x,1/2+y,-z
_cell_length_a                   7.3549(6)
_cell_length_b                   7.4932(5)
_cell_length_c                   11.3498(8)
_cell_angle_alpha                90
_cell_angle_beta                 96.868(2)
_cell_angle_gamma                90
_cell_volume                     621.019
_exptl_crystal_colour            colorless
_exptl_crystal_description       Block
_chemical_melting_point          '239 deg.C'
_cell_formula_units_Z            2
loop_
_atom_site_label
_atom_site_type_symbol
_atom_site_fract_x
_atom_site_fract_y
_atom_site_fract_z
Cl1 Cl 0.34365(7) 0.80678(8) 0.86365(5)
O1 O 0.4777(2) 0.7045(2) 0.61488(14)
O2 O 0.8078(2) 0.5975(2) 0.72554(15)
H1 H 0.783(5) 0.700(4) 0.686(3)
N1 N 0.1437(2) 0.5707(3) 0.63107(17)
H2 H 0.154(4) 0.693(3) 0.633(2)
H3 H 0.127(4) 0.541(4) 0.550(2)
H4 H 0.034(3) 0.545(4) 0.665(2)
C1 C 0.4777(3) 0.5763(3) 0.68024(19)
C2 C 0.6518(3) 0.4905(3) 0.7374(2)
H5 H 0.6423 0.4708 0.8236
C3 C 0.6698(3) 0.3100(4) 0.6768(2)
H6 H 0.6881 0.3297 0.5928
H7 H 0.7788 0.2467 0.7160
C4 C 0.5001(3) 0.1942(3) 0.6824(2)
H8 H 0.4913 0.1604 0.7659
H9 H 0.5117 0.0834 0.6364
C5 C 0.3260(3) 0.2934(3) 0.6323(2)
H10 H 0.2184 0.2166 0.6396
H11 H 0.3304 0.3172 0.5468
C6 C 0.3023(3) 0.4721(3) 0.69685(19)
C7 C 0.2670(3) 0.4523(3) 0.82685(18)
C8 C 0.2804(3) 0.5944(3) 0.9065(2)
C9 C 0.2415(3) 0.5767(4) 1.0223(2)
H12 H 0.2518 0.6766 1.0741
C10 C 0.1875(3) 0.4126(4) 1.0622(2)
H13 H 0.1614 0.3989 1.1417
C11 C 0.1718(3) 0.2687(3) 0.9853(2)
H14 H 0.1351 0.1557 1.0123
C12 C 0.2095(3) 0.2883(4) 0.8689(2)
H15 H 0.1960 0.1887 0.8168
Cl2 Cl 0.96234(7) 0.95160(7) 0.62915(5)
loop_
_geom_bond_atom_site_label_1
_geom_bond_atom_site_label_2
_geom_bond_site_symmetry_1
_geom_bond_site_symmetry_2
Cl1 C8 1_555 1_555
O1 C1 1_555 1_555
O2 H1 1_555 1_555
N1 H2 1_555 1_555
H3 N1 1_555 1_555
H4 N1 1_555 1_555
C1 C2 1_555 1_555
C2 O2 1_555 1_555
H5 C2 1_555 1_555
C3 C2 1_555 1_555
H6 C3 1_555 1_555
H7 C3 1_555 1_555
C4 C3 1_555 1_555
H8 C4 1_555 1_555
H9 C4 1_555 1_555
C5 C4 1_555 1_555
H10 C5 1_555 1_555
H11 C5 1_555 1_555
C6 N1 1_555 1_555
C7 C6 1_555 1_555
C8 C7 1_555 1_555
C9 C8 1_555 1_555
H12 C9 1_555 1_555
C10 C9 1_555 1_555
H13 C10 1_555 1_555
C11 C10 1_555 1_555
H14 C11 1_555 1_555
C12 C7 1_555 1_555
H15 C12 1_555 1_555
C1 C6 1_555 1_555
C5 C6 1_555 1_555
C11 C12 1_555 1_555

#END
