
#######################################################################
#
#                 Cambridge Crystallographic Data Centre
#                                CCDC 
#
#######################################################################
#
# If this CIF has been generated from an entry in the Cambridge 
# Structural Database, then it will include bibliographic, chemical, 
# crystal, experimental, refinement or atomic coordinate data resulting 
# from the CCDC's data processing and validation procedures.
#
#######################################################################

data_EXINAB
_chemical_name_common            
'Benzyl (E)-3-(2-methylbenzylidene)dithiocarbazate'
_chemical_formula_moiety         'C16 H16 N2 S2'
_chemical_name_systematic        
'Benzyl 2-(2-methylbenzylidene)hydrazinecarbodithioate'
_symmetry_cell_setting           monoclinic
_symmetry_space_group_name_H-M   'P 21/n'
_symmetry_Int_Tables_number      14
_space_group_name_Hall           '-P 2yn'
loop_
_symmetry_equiv_pos_site_id
_symmetry_equiv_pos_as_xyz
1 x,y,z
2 1/2-x,1/2+y,1/2-z
3 -x,-y,-z
4 1/2+x,1/2-y,1/2+z
_cell_length_a                   21.976(7)
_cell_length_b                   6.126(3)
_cell_length_c                   23.099(6)
_cell_angle_alpha                90
_cell_angle_beta                 90.840(4)
_cell_angle_gamma                90
_cell_volume                     3109.37
_exptl_crystal_colour            yellow
_exptl_crystal_description       block
_cell_formula_units_Z            8
loop_
_atom_site_label
_atom_site_type_symbol
_atom_site_fract_x
_atom_site_fract_y
_atom_site_fract_z
S1 S 0.00768(5) 0.7325(2) 0.57333(6)
S2 S 0.12246(5) 0.58916(18) 0.63604(5)
N1 N 0.12405(14) 0.2604(6) 0.55431(16)
N2 N 0.07408(15) 0.3932(6) 0.54827(17)
H1 H 0.0474 0.3656 0.5217
C1 C 0.17913(18) -0.0439(6) 0.51748(19)
C2 C 0.1794(2) -0.2255(8) 0.4810(2)
C3 C 0.2286(3) -0.3619(9) 0.4846(3)
H3 H 0.2294 -0.4847 0.4610
C4 C 0.2768(3) -0.3257(9) 0.5215(3)
H4 H 0.3094 -0.4223 0.5228
C5 C 0.2763(2) -0.1464(9) 0.5561(2)
H5 H 0.3091 -0.1190 0.5810
C6 C 0.22812(18) -0.0064(7) 0.5549(2)
H6 H 0.2280 0.1148 0.5791
C7 C 0.12811(18) 0.1054(7) 0.5170(2)
H7 H 0.0976 0.0889 0.4890
C8 C 0.1282(2) -0.2723(8) 0.4390(2)
H8 H 0.1301 -0.1726 0.4071
H9 H 0.0900 -0.2550 0.4582
H10 H 0.1316 -0.4193 0.4251
C9 C 0.06632(17) 0.5648(6) 0.58315(19)
C10 C 0.0965(2) 0.8266(7) 0.6743(2)
H11 H 0.0980 0.9532 0.6492
H12 H 0.0547 0.8056 0.6860
C11 C 0.13608(16) 0.8637(7) 0.72670(19)
C12 C 0.17184(18) 1.0460(7) 0.7309(2)
H13 H 0.1729 1.1440 0.7002
C13 C 0.2064(2) 1.0868(8) 0.7802(3)
H14 H 0.2300 1.2126 0.7828
C14 C 0.2058(2) 0.9446(9) 0.8243(2)
H15 H 0.2294 0.9705 0.8574
C15 C 0.1703(2) 0.7607(9) 0.8206(2)
H16 H 0.1699 0.6613 0.8510
C16 C 0.13541(19) 0.7239(7) 0.7718(2)
H17 H 0.1109 0.6004 0.7698
S3 S 0.42020(6) 0.2494(2) 0.49716(6)
S4 S 0.35943(5) 0.34105(19) 0.38154(6)
N3 N 0.44164(15) 0.6850(6) 0.37635(17)
N4 N 0.44538(15) 0.5710(6) 0.42774(18)
H2 H 0.4702 0.6145 0.4544
C17 C 0.48183(18) 0.9804(7) 0.3223(2)
C18 C 0.51708(19) 1.1720(8) 0.3223(3)
C19 C 0.5172(2) 1.2945(8) 0.2726(3)
H18 H 0.5399 1.4227 0.2723
C20 C 0.4858(3) 1.2379(11) 0.2236(3)
H19 H 0.4871 1.3264 0.1909
C21 C 0.4525(2) 1.0512(10) 0.2228(3)
H20 H 0.4316 1.0090 0.1893
C22 C 0.4500(2) 0.9238(8) 0.2725(2)
H21 H 0.4263 0.7980 0.2723
C23 C 0.4788(2) 0.8437(7) 0.3726(2)
H22 H 0.5049 0.8723 0.4038
C24 C 0.5559(2) 1.2373(8) 0.3736(3)
H23 H 0.5888 1.1352 0.3783
H24 H 0.5317 1.2375 0.4078
H25 H 0.5721 1.3808 0.3673
C25 C 0.41069(17) 0.3917(7) 0.43703(19)
C26 C 0.31883(18) 0.1063(7) 0.4079(2)
H26 H 0.3464 -0.0166 0.4119
H27 H 0.3022 0.1380 0.4457
C27 C 0.26839(18) 0.0506(7) 0.3661(2)
C28 C 0.2196(2) 0.1840(9) 0.3593(3)
H28 H 0.2176 0.3112 0.3811
C29 C 0.1729(3) 0.1357(12) 0.3207(3)
H29 H 0.1400 0.2301 0.3168
C30 C 0.1750(3) -0.0472(11) 0.2887(3)
H30 H 0.1434 -0.0817 0.2631
C31 C 0.2229(3) -0.1785(8) 0.2943(2)
H31 H 0.2249 -0.3045 0.2719
C32 C 0.2703(2) -0.1306(8) 0.3329(2)
H32 H 0.3035 -0.2243 0.3359
loop_
_geom_bond_atom_site_label_1
_geom_bond_atom_site_label_2
_geom_bond_site_symmetry_1
_geom_bond_site_symmetry_2
S1 C9 1_555 1_555
S2 C9 1_555 1_555
S3 C25 1_555 1_555
S4 C25 1_555 1_555
N1 N2 1_555 1_555
N2 H1 1_555 1_555
N3 N4 1_555 1_555
N4 H2 1_555 1_555
C1 C2 1_555 1_555
C2 C3 1_555 1_555
C3 H3 1_555 1_555
C4 C3 1_555 1_555
H4 C4 1_555 1_555
C5 C4 1_555 1_555
H5 C5 1_555 1_555
C6 C1 1_555 1_555
H6 C6 1_555 1_555
C7 N1 1_555 1_555
H7 C7 1_555 1_555
C8 C2 1_555 1_555
H8 C8 1_555 1_555
H9 C8 1_555 1_555
H10 C8 1_555 1_555
C9 N2 1_555 1_555
C10 S2 1_555 1_555
H11 C10 1_555 1_555
H12 C10 1_555 1_555
C11 C10 1_555 1_555
C12 C11 1_555 1_555
H13 C12 1_555 1_555
C13 C12 1_555 1_555
H14 C13 1_555 1_555
C14 C13 1_555 1_555
H15 C14 1_555 1_555
C15 C14 1_555 1_555
H16 C15 1_555 1_555
C16 C11 1_555 1_555
H17 C16 1_555 1_555
C17 C18 1_555 1_555
C18 C19 1_555 1_555
C19 H18 1_555 1_555
C20 C19 1_555 1_555
H19 C20 1_555 1_555
C21 C20 1_555 1_555
H20 C21 1_555 1_555
C22 C17 1_555 1_555
H21 C22 1_555 1_555
C23 N3 1_555 1_555
H22 C23 1_555 1_555
C24 C18 1_555 1_555
H23 C24 1_555 1_555
H24 C24 1_555 1_555
H25 C24 1_555 1_555
C25 N4 1_555 1_555
C26 S4 1_555 1_555
H26 C26 1_555 1_555
H27 C26 1_555 1_555
C27 C26 1_555 1_555
C28 C27 1_555 1_555
H28 C28 1_555 1_555
C29 C28 1_555 1_555
H29 C29 1_555 1_555
C30 C29 1_555 1_555
H30 C30 1_555 1_555
C31 C30 1_555 1_555
H31 C31 1_555 1_555
C32 C27 1_555 1_555
H32 C32 1_555 1_555
C1 C7 1_555 1_555
C5 C6 1_555 1_555
C15 C16 1_555 1_555
C17 C23 1_555 1_555
C21 C22 1_555 1_555
C31 C32 1_555 1_555

#END
