
#######################################################################
#
#                 Cambridge Crystallographic Data Centre
#                                CCDC 
#
#######################################################################
#
# If this CIF has been generated from an entry in the Cambridge 
# Structural Database, then it will include bibliographic, chemical, 
# crystal, experimental, refinement or atomic coordinate data resulting 
# from the CCDC's data processing and validation procedures.
#
#######################################################################

data_EXIPOR
_chemical_formula_moiety         'C5 H8 N3 O1 1+,C5 H7 N3 O1,Cl1 O4 1-,H2 O1'
_chemical_name_systematic        
'2-Amino-4-methyl-6-oxo-3,6-dihydropyrimidin-1-ium perchlorate 2-amino-6-methylpyrimidin-4(1H)-one monohydrate'
_symmetry_cell_setting           monoclinic
_symmetry_space_group_name_H-M   'P 21/c'
_symmetry_Int_Tables_number      14
_space_group_name_Hall           '-P 2ybc'
loop_
_symmetry_equiv_pos_site_id
_symmetry_equiv_pos_as_xyz
1 x,y,z
2 -x,1/2+y,1/2-z
3 -x,-y,-z
4 x,1/2-y,1/2+z
_cell_length_a                   10.3669(3)
_cell_length_b                   10.4342(3)
_cell_length_c                   15.0780(5)
_cell_angle_alpha                90
_cell_angle_beta                 92.751(2)
_cell_angle_gamma                90
_cell_volume                     1629.11
_exptl_crystal_colour            colorless
_exptl_crystal_description       prismatic
_cell_formula_units_Z            4
loop_
_atom_site_label
_atom_site_type_symbol
_atom_site_fract_x
_atom_site_fract_y
_atom_site_fract_z
O1 O 0.98648(14) 0.24064(14) 0.41381(8)
N1 N 0.98287(15) 0.26652(14) 0.56248(9)
H1 H 1.0315 0.3329 0.5589
N2 N 0.87048(15) 0.12750(14) 0.64911(9)
H2 H 0.8495 0.1022 0.7007
N3 N 0.98691(18) 0.29455(16) 0.71393(10)
H3 H 0.9635 0.2717 0.7656
H4 H 1.0363 0.3600 0.7086
C1 C 0.94722(17) 0.22960(16) 0.64336(11)
C2 C 0.94490(18) 0.20263(17) 0.48438(11)
C3 C 0.85884(19) 0.09806(19) 0.49410(12)
H5 H 0.8263 0.0545 0.4441
C4 C 0.82387(18) 0.06148(17) 0.57560(12)
C5 C 0.7351(2) -0.0476(2) 0.59327(15)
H6 H 0.7149 -0.0929 0.5390
H7 H 0.6569 -0.0151 0.6165
H8 H 0.7763 -0.1048 0.6357
Cl1 Cl 0.32526(6) 0.13475(6) 0.68097(4)
O2 O 0.2309(8) 0.0465(8) 0.7085(4)
O3 O 0.2776(6) 0.2018(6) 0.6061(3)
O4 O 0.4372(9) 0.0699(10) 0.6589(6)
O5 O 0.3540(11) 0.2203(8) 0.7502(5)
O6 O 0.6081(9) 0.3409(9) 0.6947(5)
H9 H 0.620(6) 0.387(5) 0.739(3)
H10 H 0.549(5) 0.292(5) 0.703(4)
O7 O 0.85711(15) 0.49047(14) 0.30449(8)
N4 N 0.84030(15) 0.52739(15) 0.45051(9)
N5 N 0.68242(16) 0.41812(16) 0.52703(11)
H11 H 0.6483 0.4026 0.5768
N6 N 0.82368(19) 0.55766(18) 0.59950(11)
H12 H 0.8880 0.6097 0.5994
H13 H 0.7866 0.5420 0.6482
C6 C 0.78157(18) 0.50162(17) 0.52456(12)
C7 C 0.79858(19) 0.46791(18) 0.37411(12)
C8 C 0.6914(2) 0.3822(2) 0.37529(14)
H14 H 0.6605 0.3434 0.3230
C9 C 0.6351(2) 0.3576(2) 0.45156(14)
C10 C 0.5254(3) 0.2665(3) 0.46219(18)
H15 H 0.4962 0.2344 0.4050
H16 H 0.4558 0.3103 0.4890
H17 H 0.5538 0.1963 0.4994
H18? H 0.543(12) 0.457(6) 0.702(10)
H19? H 0.493(7) 0.342(10) 0.676(11)
O8? O 0.2053(11) 0.0786(17) 0.6977(12)
O9? O 0.559(2) 0.3844(18) 0.6839(13)
O10? O 0.308(2) 0.2428(18) 0.6303(18)
O11? O 0.3952(12) 0.0439(15) 0.6352(11)
O12? O 0.3901(18) 0.161(3) 0.7605(10)
loop_
_geom_bond_atom_site_label_1
_geom_bond_atom_site_label_2
_geom_bond_site_symmetry_1
_geom_bond_site_symmetry_2
O1 C2 1_555 1_555
N1 H1 1_555 1_555
N2 H2 1_555 1_555
N3 H3 1_555 1_555
H4 N3 1_555 1_555
C1 N1 1_555 1_555
C2 N1 1_555 1_555
C3 C2 1_555 1_555
H5 C3 1_555 1_555
C4 N2 1_555 1_555
C5 C4 1_555 1_555
H6 C5 1_555 1_555
H7 C5 1_555 1_555
H8 C5 1_555 1_555
Cl1 O2 1_555 1_555
O3 Cl1 1_555 1_555
O4 Cl1 1_555 1_555
O5 Cl1 1_555 1_555
O6 H9 1_555 1_555
H10 O6 1_555 1_555
O7 C7 1_555 1_555
N4 C6 1_555 1_555
N5 H11 1_555 1_555
N6 H12 1_555 1_555
H13 N6 1_555 1_555
C6 N5 1_555 1_555
C7 N4 1_555 1_555
C8 C7 1_555 1_555
H14 C8 1_555 1_555
C9 N5 1_555 1_555
C10 C9 1_555 1_555
H15 C10 1_555 1_555
H16 C10 1_555 1_555
H17 C10 1_555 1_555
N2 C1 1_555 1_555
N3 C1 1_555 1_555
C3 C4 1_555 1_555
N6 C6 1_555 1_555
C8 C9 1_555 1_555

#END
