
#######################################################################
#
#                 Cambridge Crystallographic Data Centre
#                                CCDC 
#
#######################################################################
#
# If this CIF has been generated from an entry in the Cambridge 
# Structural Database, then it will include bibliographic, chemical, 
# crystal, experimental, refinement or atomic coordinate data resulting 
# from the CCDC's data processing and validation procedures.
#
#######################################################################

data_EXIPEH
_chemical_name_common            'bis(ethanolaminium) succinate succinic acid'
_chemical_formula_moiety         'C4 H6 O4,C4 H4 O4 2-,2(C2 H8 N1 O1 1+)'
_chemical_name_systematic        
'bis(2-hydroxyethylammonium) succinate succinic acid'
_symmetry_cell_setting           triclinic
_symmetry_space_group_name_H-M   'P -1'
_symmetry_Int_Tables_number      2
_space_group_name_Hall           '-P 1'
loop_
_symmetry_equiv_pos_site_id
_symmetry_equiv_pos_as_xyz
1 x,y,z
2 -x,-y,-z
_cell_length_a                   5.821(5)
_cell_length_b                   8.428(7)
_cell_length_c                   9.077(7)
_cell_angle_alpha                87.740(10)
_cell_angle_beta                 73.628(11)
_cell_angle_gamma                80.380(12)
_cell_volume                     421.233
_exptl_crystal_colour            colorless
_exptl_crystal_description       prism
_cell_formula_units_Z            1
loop_
_atom_site_label
_atom_site_type_symbol
_atom_site_fract_x
_atom_site_fract_y
_atom_site_fract_z
O1 O 0.27229(18) 0.92694(13) 0.23761(10)
O2 O 0.49374(19) 0.79510(15) 0.37464(11)
H1 H 0.4875 0.7808 0.4655
C1 C 0.2989(2) 0.89023(16) 0.36369(14)
C2 C 0.1142(2) 0.95017(16) 0.51200(14)
H2 H 0.1871 1.0147 0.5668
H3 H 0.0709 0.8586 0.5756
O1A O -0.27229(18) 1.07306(13) 0.76239(10)
O2A O -0.49374(19) 1.20490(15) 0.62536(11)
H1A H -0.4875 1.2192 0.5345
C1A C -0.2989(2) 1.10977(16) 0.63631(14)
C2A C -0.1142(2) 1.04983(16) 0.48800(14)
H2A H -0.1871 0.9853 0.4332
H3A H -0.0709 1.1414 0.4244
O3 O 0.7920(2) 0.61078(13) 0.76185(11)
O4 O 0.54895(19) 0.74043(13) 0.63248(11)
C3 C 0.7343(2) 0.63837(16) 0.64176(14)
C4 C 0.8844(2) 0.55193(17) 0.49388(15)
H4 H 0.7865 0.4850 0.4619
H5 H 0.9250 0.6314 0.4146
O3A O 1.2080(2) 0.38922(13) 0.23815(11)
O4A O 1.45105(19) 0.25957(13) 0.36752(11)
C3A C 1.2657(2) 0.36163(16) 0.35824(14)
C4A C 1.1156(2) 0.44807(17) 0.50612(15)
H4A H 1.2135 0.5150 0.5381
H5A H 1.0750 0.3686 0.5854
O5 O 0.24811(17) 0.85165(11) 0.90544(11)
H6 H 0.3825 0.8324 0.8434
N1 N -0.25612(19) 0.82179(14) 1.00467(12)
H7 H -0.4002 0.8428 1.0740
H8 H -0.2650 0.7570 0.9321
H9 H -0.2131 0.9133 0.9624
C5 C 0.1738(2) 0.70523(16) 0.96716(17)
H10 H 0.2895 0.6486 1.0177
H11 H 0.1672 0.6370 0.8854
C6 C -0.0726(2) 0.74220(17) 1.08064(15)
H12 H -0.1207 0.6431 1.1278
H13 H -0.0653 0.8120 1.1610
loop_
_geom_bond_atom_site_label_1
_geom_bond_atom_site_label_2
_geom_bond_site_symmetry_1
_geom_bond_site_symmetry_2
O1 C1 1_555 1_555
O2 H1 1_555 1_555
C1 O2 1_555 1_555
C2 C1 1_555 1_555
H2 C2 1_555 1_555
H3 C2 1_555 1_555
O3 C3 1_555 1_555
O4 C3 1_555 1_555
C3 C4 1_555 1_555
C4 H4 1_555 1_555
H5 C4 1_555 1_555
O5 H6 1_555 1_555
N1 H7 1_555 1_555
H8 N1 1_555 1_555
H9 N1 1_555 1_555
C5 O5 1_555 1_555
H10 C5 1_555 1_555
H11 C5 1_555 1_555
C6 N1 1_555 1_555
H12 C6 1_555 1_555
H13 C6 1_555 1_555
O1A C1A 1_555 1_555
O2A H1A 1_555 1_555
C1A O2A 1_555 1_555
C2A C2 1_555 1_555
H2A C2A 1_555 1_555
H3A C2A 1_555 1_555
O3A C3A 1_555 1_555
O4A C3A 1_555 1_555
C3A C4A 1_555 1_555
C4A C4 1_555 1_555
H4A C4A 1_555 1_555
H5A C4A 1_555 1_555
C5 C6 1_555 1_555
C1A C2A 1_555 1_555

#END
