
#######################################################################
#
#                 Cambridge Crystallographic Data Centre
#                                CCDC 
#
#######################################################################
#
# If this CIF has been generated from an entry in the Cambridge 
# Structural Database, then it will include bibliographic, chemical, 
# crystal, experimental, refinement or atomic coordinate data resulting 
# from the CCDC's data processing and validation procedures.
#
#######################################################################

data_EXIPUY
_chemical_formula_moiety         '2(Na1 1+),C2 N12 O4 2-,2(H2 O1)'
_chemical_name_systematic        
"bis(sodium) ([1H,1'H-5,5'-bitetrazole]-1,1'-diyl)bis(nitroazanide) dihydrate"
_symmetry_cell_setting           monoclinic
_symmetry_space_group_name_H-M   'P 21/c'
_symmetry_Int_Tables_number      14
_space_group_name_Hall           '-P 2ybc'
loop_
_symmetry_equiv_pos_site_id
_symmetry_equiv_pos_as_xyz
1 x,y,z
2 -x,1/2+y,1/2-z
3 -x,-y,-z
4 x,1/2-y,1/2+z
_cell_length_a                   8.8842(8)
_cell_length_b                   9.4829(9)
_cell_length_c                   7.3238(8)
_cell_angle_alpha                90
_cell_angle_beta                 105.8920(10)
_cell_angle_gamma                90
_cell_volume                     593.433
_exptl_crystal_colour            colorless
_exptl_crystal_description       block
_cell_formula_units_Z            2
_chemical_properties_physical    impact-sensitive
_exptl_crystal_preparation       'energetic properties'
loop_
_atom_site_label
_atom_site_type_symbol
_atom_site_fract_x
_atom_site_fract_y
_atom_site_fract_z
Na1 Na 0.44571(9) 0.34022(8) 0.96330(11)
N1 N 0.18202(17) 0.09363(16) 0.9953(2)
N2 N 0.1944(2) 0.20507(18) 0.8864(2)
N3 N 0.0539(2) 0.2321(2) 0.7811(3)
N4 N -0.0513(2) 0.13999(18) 0.8191(2)
N5 N 0.31290(17) 0.04481(16) 1.1340(2)
N6 N 0.36126(18) -0.07480(16) 1.0719(2)
O1 O 0.30053(17) -0.12684(15) 0.91332(18)
O2 O 0.47523(16) -0.13334(15) 1.18730(19)
C1 C 0.0304(2) 0.05625(19) 0.9536(3)
N1B N -0.18202(17) -0.09363(16) 1.0047(2)
N2B N -0.1944(2) -0.20507(18) 1.1136(2)
N3B N -0.0539(2) -0.2321(2) 1.2189(3)
N4B N 0.0513(2) -0.13999(18) 1.1809(2)
N5B N -0.31290(17) -0.04481(16) 0.8660(2)
N6B N -0.36126(18) 0.07480(16) 0.9281(2)
O1B O -0.30053(17) 0.12684(15) 1.08668(18)
O2B O -0.47523(16) 0.13334(15) 0.81270(19)
C1B C -0.0304(2) -0.05625(19) 1.0464(3)
O3 O 0.68714(16) 0.45188(15) 0.97178(19)
H1 H 0.7099 0.4531 0.8664
H2 H 0.7642 0.4257 1.0625
loop_
_geom_bond_atom_site_label_1
_geom_bond_atom_site_label_2
_geom_bond_site_symmetry_1
_geom_bond_site_symmetry_2
N1 N2 1_555 1_555
N2 N3 1_555 1_555
N3 N4 1_555 1_555
N4 C1 1_555 1_555
N5 N1 1_555 1_555
N6 N5 1_555 1_555
O1 N6 1_555 1_555
O2 N6 1_555 1_555
C1 N1 1_555 1_555
O3 H1 1_555 1_555
H2 O3 1_555 1_555
N1B N2B 1_555 1_555
N2B N3B 1_555 1_555
N3B N4B 1_555 1_555
N4B C1B 1_555 1_555
N5B N1B 1_555 1_555
N6B N5B 1_555 1_555
O1B N6B 1_555 1_555
O2B N6B 1_555 1_555
C1B C1 1_555 1_555
N1B C1B 1_555 1_555

#END
