
#######################################################################
#
#                 Cambridge Crystallographic Data Centre
#                                CCDC 
#
#######################################################################
#
# If this CIF has been generated from an entry in the Cambridge 
# Structural Database, then it will include bibliographic, chemical, 
# crystal, experimental, refinement or atomic coordinate data resulting 
# from the CCDC's data processing and validation procedures.
#
#######################################################################

data_EXIQAE
_chemical_formula_moiety         'C21 H17 Cl2 N3 O1'
_chemical_name_systematic        
2-(1H-Benzotriazol-1-yl)-3-(2,6-dichlorophenyl)-1-phenylpropan-1-ol
_symmetry_cell_setting           triclinic
_symmetry_space_group_name_H-M   'P -1'
_symmetry_Int_Tables_number      2
_space_group_name_Hall           '-P 1'
loop_
_symmetry_equiv_pos_site_id
_symmetry_equiv_pos_as_xyz
1 x,y,z
2 -x,-y,-z
_cell_length_a                   9.3894(2)
_cell_length_b                   9.4947(2)
_cell_length_c                   21.2687(3)
_cell_angle_alpha                91.415(2)
_cell_angle_beta                 92.324(2)
_cell_angle_gamma                90.4060(10)
_cell_volume                     1893.9
_exptl_crystal_colour            colorless
_exptl_crystal_description       block
_cell_formula_units_Z            4
loop_
_atom_site_label
_atom_site_type_symbol
_atom_site_fract_x
_atom_site_fract_y
_atom_site_fract_z
Cl1 Cl 0.77473(4) 1.06219(5) 0.104106(19)
Cl2 Cl 0.97499(5) 0.66618(5) -0.05798(2)
O1 O 0.42613(13) 0.61760(13) -0.02537(6)
H1 H 0.4009 0.6380 0.0101
N1 N 0.60715(15) 0.74669(14) 0.06575(6)
N2 N 0.50172(15) 0.83379(15) 0.08432(7)
N3 N 0.49164(16) 0.82583(16) 0.14548(7)
C1 C 0.64956(17) 0.73778(17) 0.00021(7)
H2 H 0.7061 0.6522 -0.0048
C2 C 0.52030(18) 0.72524(18) -0.04605(8)
H3 H 0.4698 0.8152 -0.0462
C3 C 0.57040(18) 0.69279(18) -0.11180(8)
C4 C 0.5683(2) 0.7957(2) -0.15719(9)
H4 H 0.5318 0.8842 -0.1479
C5 C 0.6205(3) 0.7673(2) -0.21634(10)
H5 H 0.6183 0.8366 -0.2465
C6 C 0.6758(2) 0.6356(2) -0.23049(10)
H6 H 0.7117 0.6171 -0.2699
C7 C 0.6774(2) 0.5318(2) -0.18587(9)
H7 H 0.7136 0.4433 -0.1955
C8 C 0.6248(2) 0.55996(19) -0.12650(9)
H8 H 0.6260 0.4901 -0.0966
C9 C 0.66758(18) 0.68088(17) 0.11643(8)
C10 C 0.7773(2) 0.58173(18) 0.12292(8)
H9 H 0.8286 0.5502 0.0889
C11 C 0.8040(2) 0.5342(2) 0.18290(9)
H10 H 0.8748 0.4676 0.1894
C12 C 0.7273(2) 0.5834(2) 0.23490(9)
H11 H 0.7481 0.5472 0.2744
C13 C 0.6226(2) 0.6834(2) 0.22842(8)
H12 H 0.5740 0.7172 0.2628
C14 C 0.59246(18) 0.73200(17) 0.16758(8)
C15 C 0.74540(17) 0.86394(17) -0.01401(8)
H13 H 0.7664 0.8609 -0.0583
H14 H 0.6948 0.9506 -0.0055
C16 C 0.88295(17) 0.86400(17) 0.02488(8)
C17 C 0.90693(18) 0.94709(18) 0.07957(8)
C18 C 1.03235(19) 0.9434(2) 0.11631(9)
H15 H 1.0437 0.9998 0.1526
C19 C 1.1407(2) 0.8542(2) 0.09808(9)
H16 H 1.2255 0.8510 0.1222
C20 C 1.12324(19) 0.7704(2) 0.04434(10)
H17 H 1.1960 0.7113 0.0319
C21 C 0.99607(19) 0.77537(19) 0.00931(9)
Cl3 Cl 0.43627(5) 1.25631(4) 0.394633(19)
Cl4 Cl 0.83607(5) 1.47909(5) 0.56172(2)
O2 O 0.88141(13) 0.93042(12) 0.52629(6)
H18 H 0.8569 0.8991 0.4912
N4 N 0.74653(15) 1.09289(14) 0.43580(6)
N5 N 0.65658(15) 0.98414(14) 0.41974(7)
N6 N 0.65629(16) 0.96282(15) 0.35860(7)
C22 C 0.76151(17) 1.14764(16) 0.50055(7)
H19 H 0.8488 1.2049 0.5043
C23 C 0.77665(18) 1.02758(17) 0.54764(8)
H20 H 0.6849 0.9782 0.5494
C24 C 0.81778(18) 1.08827(17) 0.61265(8)
C25 C 0.95523(19) 1.14282(18) 0.62497(8)
H21 H 1.0218 1.1385 0.5938
C26 C 0.9927(2) 1.2033(2) 0.68340(9)
H22 H 1.0840 1.2402 0.6911
C27 C 0.8942(2) 1.2090(2) 0.73039(9)
H23 H 0.9194 1.2499 0.7695
C28 C 0.7588(2) 1.1537(2) 0.71895(9)
H24 H 0.6932 1.1569 0.7505
C29 C 0.7202(2) 1.09329(19) 0.66023(8)
H25 H 0.6289 1.0562 0.6528
C30 C 0.80557(17) 1.14485(17) 0.38334(7)
C31 C 0.90362(19) 1.25377(18) 0.37405(8)
H26 H 0.9412 1.3100 0.4072
C32 C 0.9407(2) 1.2722(2) 0.31273(9)
H27 H 1.0059 1.3427 0.3042
C33 C 0.8824(2) 1.1869(2) 0.26232(9)
H28 H 0.9107 1.2029 0.2217
C34 C 0.7850(2) 1.08096(19) 0.27169(8)
H29 H 0.7465 1.0257 0.2384
C35 C 0.74682(19) 1.06059(17) 0.33400(8)
C36 C 0.63528(17) 1.24411(16) 0.51530(7)
H30 H 0.5466 1.1929 0.5066
H31 H 0.6403 1.2706 0.5597
C37 C 0.63594(18) 1.37529(16) 0.47679(8)
C38 C 0.55197(18) 1.39105(17) 0.42163(8)
C39 C 0.5560(2) 1.51185(18) 0.38579(8)
H32 H 0.4990 1.5184 0.3492
C40 C 0.6460(2) 1.62216(18) 0.40542(9)
H33 H 0.6494 1.7032 0.3818
C41 C 0.7307(2) 1.61274(18) 0.45971(9)
H34 H 0.7903 1.6871 0.4731
C42 C 0.72545(19) 1.49006(18) 0.49406(8)
loop_
_geom_bond_atom_site_label_1
_geom_bond_atom_site_label_2
_geom_bond_site_symmetry_1
_geom_bond_site_symmetry_2
Cl1 C17 1_555 1_555
Cl2 C21 1_555 1_555
O1 H1 1_555 1_555
N1 N2 1_555 1_555
N2 N3 1_555 1_555
N3 C14 1_555 1_555
C1 N1 1_555 1_555
H2 C1 1_555 1_555
C2 O1 1_555 1_555
H3 C2 1_555 1_555
C3 C2 1_555 1_555
C4 C3 1_555 1_555
H4 C4 1_555 1_555
C5 C4 1_555 1_555
H5 C5 1_555 1_555
C6 C5 1_555 1_555
H6 C6 1_555 1_555
C7 C6 1_555 1_555
H7 C7 1_555 1_555
C8 C3 1_555 1_555
H8 C8 1_555 1_555
C9 N1 1_555 1_555
C10 C9 1_555 1_555
H9 C10 1_555 1_555
C11 C10 1_555 1_555
H10 C11 1_555 1_555
C12 C11 1_555 1_555
H11 C12 1_555 1_555
C13 C12 1_555 1_555
H12 C13 1_555 1_555
C14 C9 1_555 1_555
C15 C1 1_555 1_555
H13 C15 1_555 1_555
H14 C15 1_555 1_555
C16 C15 1_555 1_555
C17 C16 1_555 1_555
C18 C17 1_555 1_555
H15 C18 1_555 1_555
C19 C18 1_555 1_555
H16 C19 1_555 1_555
C20 C19 1_555 1_555
H17 C20 1_555 1_555
C21 C16 1_555 1_555
Cl3 C38 1_555 1_555
Cl4 C42 1_555 1_555
O2 H18 1_555 1_555
N4 N5 1_555 1_555
N5 N6 1_555 1_555
N6 C35 1_555 1_555
C22 N4 1_555 1_555
H19 C22 1_555 1_555
C23 O2 1_555 1_555
H20 C23 1_555 1_555
C24 C23 1_555 1_555
C25 C24 1_555 1_555
H21 C25 1_555 1_555
C26 C25 1_555 1_555
H22 C26 1_555 1_555
C27 C26 1_555 1_555
H23 C27 1_555 1_555
C28 C27 1_555 1_555
H24 C28 1_555 1_555
C29 C24 1_555 1_555
H25 C29 1_555 1_555
C30 N4 1_555 1_555
C31 C30 1_555 1_555
H26 C31 1_555 1_555
C32 C31 1_555 1_555
H27 C32 1_555 1_555
C33 C32 1_555 1_555
H28 C33 1_555 1_555
C34 C33 1_555 1_555
H29 C34 1_555 1_555
C35 C30 1_555 1_555
C36 C22 1_555 1_555
H30 C36 1_555 1_555
H31 C36 1_555 1_555
C37 C36 1_555 1_555
C38 C37 1_555 1_555
C39 C38 1_555 1_555
H32 C39 1_555 1_555
C40 C39 1_555 1_555
H33 C40 1_555 1_555
C41 C40 1_555 1_555
H34 C41 1_555 1_555
C42 C37 1_555 1_555
C1 C2 1_555 1_555
C7 C8 1_555 1_555
C13 C14 1_555 1_555
C20 C21 1_555 1_555
C22 C23 1_555 1_555
C28 C29 1_555 1_555
C34 C35 1_555 1_555
C41 C42 1_555 1_555

#END
