
#######################################################################
#
#                 Cambridge Crystallographic Data Centre
#                                CCDC 
#
#######################################################################
#
# If this CIF has been generated from an entry in the Cambridge 
# Structural Database, then it will include bibliographic, chemical, 
# crystal, experimental, refinement or atomic coordinate data resulting 
# from the CCDC's data processing and validation procedures.
#
#######################################################################

data_EXITOV
_chemical_name_common            
3-(4-((2-Hydroxybenzylidene)amino)-3-methyl-5-thioxo-4,5-dihydro-1H-1,2,4-triazol-1-yl)-1,3-diphenylpropan-1-one
_chemical_formula_moiety         'C25 H22 N4 O2 S1'
_chemical_name_systematic        
3-(4-[(2-Hydroxybenzylidene)amino]-3-methyl-5-sulfanylidene-4,5-dihydro-1H-1,2,4-triazol-1-yl)-1,3-diphenylpropan-1-one
_symmetry_cell_setting           triclinic
_symmetry_space_group_name_H-M   'P -1'
_symmetry_Int_Tables_number      2
_space_group_name_Hall           '-P 1'
loop_
_symmetry_equiv_pos_site_id
_symmetry_equiv_pos_as_xyz
1 x,y,z
2 -x,-y,-z
_cell_length_a                   12.1053(12)
_cell_length_b                   12.4682(12)
_cell_length_c                   15.5480(16)
_cell_angle_alpha                95.056(11)
_cell_angle_beta                 103.342(12)
_cell_angle_gamma                100.212(15)
_cell_volume                     2226.67
_exptl_crystal_colour            colorless
_exptl_crystal_description       prism
_cell_formula_units_Z            4
loop_
_atom_site_label
_atom_site_type_symbol
_atom_site_fract_x
_atom_site_fract_y
_atom_site_fract_z
S1 S 0.92386(6) 0.21027(5) 0.23449(5)
O1 O 0.62968(15) 0.17443(15) 0.27421(13)
O2 O 0.90261(17) -0.16179(16) -0.04063(13)
H1 H 0.866(3) -0.113(2) -0.027(2)
N1 N 0.71659(18) 0.20564(16) 0.11772(14)
N2 N 0.64145(18) 0.15040(17) 0.03849(15)
N3 N 0.79130(17) 0.07125(16) 0.08120(14)
N4 N 0.85762(18) -0.00627(16) 0.06624(15)
C1 C 0.8117(2) 0.1620(2) 0.14674(17)
C2 C 0.6902(2) 0.0697(2) 0.01751(17)
C3 C 0.6948(2) 0.31047(19) 0.15598(18)
H3 H 0.7493 0.3323 0.2165
C4 C 0.5720(2) 0.2947(2) 0.16793(18)
H4 H 0.5165 0.2660 0.1095
H5 H 0.5570 0.3670 0.1884
C5 C 0.5508(2) 0.2159(2) 0.23477(18)
C6 C 0.4334(2) 0.1894(2) 0.25256(17)
C7 C 0.4119(2) 0.1069(2) 0.30634(18)
H6 H 0.4700 0.0668 0.3277
C8 C 0.3057(2) 0.0837(2) 0.32840(19)
H7 H 0.2918 0.0283 0.3651
C9 C 0.2200(2) 0.1419(2) 0.29662(19)
H8 H 0.1484 0.1274 0.3130
C10 C 0.2389(2) 0.2212(2) 0.24093(19)
H9 H 0.1794 0.2593 0.2180
C11 C 0.3454(2) 0.2448(2) 0.21884(18)
H10 H 0.3581 0.2987 0.1807
C12 C 0.7260(2) 0.3993(2) 0.09762(18)
C13 C 0.6453(2) 0.4232(2) 0.02656(19)
H11 H 0.5661 0.3882 0.0156
C14 C 0.6790(3) 0.4981(2) -0.0292(2)
H12 H 0.6228 0.5136 -0.0777
C15 C 0.7950(3) 0.5500(2) -0.0134(2)
H13 H 0.8181 0.6013 -0.0508
C16 C 0.8761(3) 0.5263(2) 0.0568(2)
H14 H 0.9554 0.5610 0.0673
C17 C 0.8422(2) 0.4514(2) 0.1126(2)
H15 H 0.8985 0.4359 0.1610
C18 C 0.9372(2) -0.0246(2) 0.13119(18)
H16 H 0.9503 0.0139 0.1893
C19 C 1.0066(2) -0.1046(2) 0.11477(18)
C20 C 0.9894(2) -0.1674(2) 0.03076(18)
C21 C 1.0628(2) -0.2392(2) 0.0193(2)
H17 H 1.0514 -0.2812 -0.0372
C22 C 1.1522(2) -0.2495(2) 0.0898(2)
H18 H 1.2027 -0.2974 0.0809
C23 C 1.1690(2) -0.1903(2) 0.1739(2)
H19 H 1.2291 -0.1990 0.2226
C24 C 1.0965(2) -0.1186(2) 0.1852(2)
H20 H 1.1080 -0.0778 0.2423
C25 C 0.6467(2) -0.0121(2) -0.06449(18)
H21 H 0.5715 -0.0007 -0.0980
H22 H 0.6378 -0.0865 -0.0478
H23 H 0.7021 -0.0028 -0.1017
S2 S 0.83187(6) 0.71656(6) 0.49822(5)
O3 O 0.88771(17) 1.03662(15) 0.56160(13)
O4 O 0.38942(16) 0.58080(16) 0.60955(14)
H2 H 0.431(3) 0.627(2) 0.577(2)
N5 N 0.70663(18) 0.86606(17) 0.43391(15)
N6 N 0.59842(18) 0.89447(17) 0.42255(15)
N7 N 0.60683(18) 0.74759(17) 0.49396(14)
N8 N 0.56141(18) 0.66959(17) 0.54196(14)
C26 C 0.7169(2) 0.7757(2) 0.47639(17)
C27 C 0.5405(2) 0.8219(2) 0.46061(18)
C28 C 0.7919(2) 0.9226(2) 0.38905(18)
H24 H 0.8686 0.9038 0.4151
C29 C 0.8065(2) 1.0476(2) 0.40721(18)
H25 H 0.8567 1.0820 0.3709
H26 H 0.7297 1.0670 0.3874
C30 C 0.8588(2) 1.0960(2) 0.50451(19)
C31 C 0.8727(2) 1.2177(2) 0.52909(19)
C32 C 0.8483(2) 1.2898(2) 0.4661(2)
H27 H 0.8196 1.2617 0.4046
C33 C 0.8659(2) 1.4022(2) 0.4933(2)
H28 H 0.8492 1.4504 0.4502
C34 C 0.9079(2) 1.4445(2) 0.5830(2)
H29 H 0.9210 1.5214 0.6011
C35 C 0.9306(3) 1.3733(2) 0.6466(2)
H30 H 0.9579 1.4016 0.7081
C36 C 0.9132(2) 1.2612(2) 0.6194(2)
H31 H 0.9290 1.2132 0.6628
C37 C 0.7548(2) 0.8752(2) 0.29097(19)
C38 C 0.6689(2) 0.9106(2) 0.22952(19)
H32 H 0.6368 0.9703 0.2478
C39 C 0.6302(2) 0.8584(2) 0.14137(19)
H33 H 0.5709 0.8818 0.1004
C40 C 0.6784(2) 0.7724(2) 0.1137(2)
H34 H 0.6528 0.7376 0.0537
C41 C 0.7640(3) 0.7373(2) 0.1738(2)
H35 H 0.7972 0.6787 0.1550
C42 C 0.8011(2) 0.7882(2) 0.2617(2)
H36 H 0.8592 0.7631 0.3025
C43 C 0.6233(2) 0.6041(2) 0.58012(17)
H37 H 0.6998 0.6069 0.5734
C44 C 0.5754(2) 0.5258(2) 0.63360(18)
C45 C 0.4626(2) 0.5166(2) 0.64556(18)
C46 C 0.4213(3) 0.4391(2) 0.69749(19)
H38 H 0.3445 0.4321 0.7045
C47 C 0.4928(3) 0.3731(2) 0.7383(2)
H39 H 0.4647 0.3208 0.7732
C48 C 0.6053(3) 0.3830(2) 0.7286(2)
H40 H 0.6545 0.3385 0.7576
C49 C 0.6457(3) 0.4583(2) 0.67630(19)
H41 H 0.7224 0.4641 0.6694
C50 C 0.4191(2) 0.8177(2) 0.46712(19)
H42 H 0.3895 0.8777 0.4390
H43 H 0.4173 0.8256 0.5300
H44 H 0.3705 0.7471 0.4366
loop_
_geom_bond_atom_site_label_1
_geom_bond_atom_site_label_2
_geom_bond_site_symmetry_1
_geom_bond_site_symmetry_2
S1 C1 1_555 1_555
S2 C26 1_555 1_555
O1 C5 1_555 1_555
O2 H1 1_555 1_555
O3 C30 1_555 1_555
O4 H2 1_555 1_555
N1 N2 1_555 1_555
N2 C2 1_555 1_555
N3 N4 1_555 1_555
N4 C18 1_555 1_555
N5 N6 1_555 1_555
N6 C27 1_555 1_555
N7 N8 1_555 1_555
N8 C43 1_555 1_555
C1 N1 1_555 1_555
C2 N3 1_555 1_555
C3 N1 1_555 1_555
H3 C3 1_555 1_555
C4 C3 1_555 1_555
H4 C4 1_555 1_555
H5 C4 1_555 1_555
C5 C4 1_555 1_555
C6 C5 1_555 1_555
C7 C6 1_555 1_555
H6 C7 1_555 1_555
C8 C7 1_555 1_555
H7 C8 1_555 1_555
C9 C8 1_555 1_555
H8 C9 1_555 1_555
C10 C9 1_555 1_555
H9 C10 1_555 1_555
C11 C6 1_555 1_555
H10 C11 1_555 1_555
C12 C3 1_555 1_555
C13 C12 1_555 1_555
H11 C13 1_555 1_555
C14 C13 1_555 1_555
H12 C14 1_555 1_555
C15 C14 1_555 1_555
H13 C15 1_555 1_555
C16 C15 1_555 1_555
H14 C16 1_555 1_555
C17 C12 1_555 1_555
H15 C17 1_555 1_555
C18 H16 1_555 1_555
C19 C18 1_555 1_555
C20 O2 1_555 1_555
C21 C20 1_555 1_555
H17 C21 1_555 1_555
C22 C21 1_555 1_555
H18 C22 1_555 1_555
C23 C22 1_555 1_555
H19 C23 1_555 1_555
C24 C19 1_555 1_555
H20 C24 1_555 1_555
C25 C2 1_555 1_555
H21 C25 1_555 1_555
H22 C25 1_555 1_555
H23 C25 1_555 1_555
C26 N5 1_555 1_555
C27 N7 1_555 1_555
C28 N5 1_555 1_555
H24 C28 1_555 1_555
C29 C28 1_555 1_555
H25 C29 1_555 1_555
H26 C29 1_555 1_555
C30 C29 1_555 1_555
C31 C30 1_555 1_555
C32 C31 1_555 1_555
H27 C32 1_555 1_555
C33 C32 1_555 1_555
H28 C33 1_555 1_555
C34 C33 1_555 1_555
H29 C34 1_555 1_555
C35 C34 1_555 1_555
H30 C35 1_555 1_555
C36 C31 1_555 1_555
H31 C36 1_555 1_555
C37 C28 1_555 1_555
C38 C37 1_555 1_555
H32 C38 1_555 1_555
C39 C38 1_555 1_555
H33 C39 1_555 1_555
C40 C39 1_555 1_555
H34 C40 1_555 1_555
C41 C40 1_555 1_555
H35 C41 1_555 1_555
C42 C37 1_555 1_555
H36 C42 1_555 1_555
C43 H37 1_555 1_555
C44 C43 1_555 1_555
C45 O4 1_555 1_555
C46 C45 1_555 1_555
H38 C46 1_555 1_555
C47 C46 1_555 1_555
H39 C47 1_555 1_555
C48 C47 1_555 1_555
H40 C48 1_555 1_555
C49 C44 1_555 1_555
H41 C49 1_555 1_555
C50 C27 1_555 1_555
H42 C50 1_555 1_555
H43 C50 1_555 1_555
H44 C50 1_555 1_555
N3 C1 1_555 1_555
N7 C26 1_555 1_555
C10 C11 1_555 1_555
C16 C17 1_555 1_555
C19 C20 1_555 1_555
C23 C24 1_555 1_555
C35 C36 1_555 1_555
C41 C42 1_555 1_555
C44 C45 1_555 1_555
C48 C49 1_555 1_555

#END
