
#######################################################################
#
#                 Cambridge Crystallographic Data Centre
#                                CCDC 
#
#######################################################################
#
# If this CIF has been generated from an entry in the Cambridge 
# Structural Database, then it will include bibliographic, chemical, 
# crystal, experimental, refinement or atomic coordinate data resulting 
# from the CCDC's data processing and validation procedures.
#
#######################################################################

data_EXIYUH
_chemical_formula_moiety         'C20 H8 F10 N4,2(C2 H3 N1)'
_chemical_name_systematic        
"2,2'-(1,3-phenylenedimethylylidene)bis(1-(pentafluorophenyl)hydrazine) acetonitrile solvate"
_symmetry_cell_setting           monoclinic
_symmetry_space_group_name_H-M   'C 2/c'
_symmetry_Int_Tables_number      15
_space_group_name_Hall           '-C 2yn'
loop_
_symmetry_equiv_pos_site_id
_symmetry_equiv_pos_as_xyz
1 x,y,z
2 -x,y,1/2-z
3 1/2+x,1/2+y,z
4 1/2-x,1/2+y,1/2-z
5 -x,-y,-z
6 x,-y,1/2+z
7 1/2-x,1/2-y,-z
8 1/2+x,1/2-y,1/2+z
_cell_length_a                   17.235(4)
_cell_length_b                   11.395(2)
_cell_length_c                   12.796(3)
_cell_angle_alpha                90
_cell_angle_beta                 110.06(3)
_cell_angle_gamma                90
_cell_volume                     2360.59
_exptl_crystal_colour            colorless
_exptl_crystal_description       parallelepiped
_cell_formula_units_Z            4
loop_
_atom_site_label
_atom_site_type_symbol
_atom_site_fract_x
_atom_site_fract_y
_atom_site_fract_z
C1 C 0.31863(9) 0.42633(12) 0.14319(12)
C2 C 0.30215(9) 0.54538(12) 0.12753(12)
C3 C 0.22244(9) 0.58772(12) 0.09303(12)
C4 C 0.15784(9) 0.50898(12) 0.07307(12)
C5 C 0.17465(9) 0.39025(12) 0.08832(12)
C6 C 0.25490(8) 0.34406(11) 0.12506(11)
N1 N 0.26419(8) 0.22428(10) 0.13931(11)
H1 H 0.2204 0.1789 0.1246
N2 N 0.34164(7) 0.17629(10) 0.17639(10)
C7 C 0.34548(9) 0.06360(12) 0.17850(12)
H2 H 0.2959 0.0189 0.1556
C8 C 0.42519(9) 0.00346(11) 0.21567(11)
C9 C 0.42560(9) -0.11988(12) 0.21550(13)
H3 H 0.3749 -0.1618 0.1917
C10 C 0.5000 -0.18063(17) 0.2500
H4 H 0.5000 -0.2640 0.2500
C11 C 0.5000 0.06446(15) 0.2500
H5 H 0.5000 0.1478 0.2500
F1 F 0.39857(5) 0.39513(8) 0.17715(8)
F2 F 0.36539(6) 0.62019(8) 0.14669(9)
F3 F 0.20812(6) 0.70363(8) 0.07952(9)
F4 F 0.07999(6) 0.54716(8) 0.03834(8)
F5 F 0.11128(5) 0.31421(8) 0.06546(8)
C1A C 0.68137(9) 0.42633(12) 0.35681(12)
C2A C 0.69785(9) 0.54538(12) 0.37247(12)
C3A C 0.77756(9) 0.58772(12) 0.40697(12)
C4A C 0.84216(9) 0.50898(12) 0.42693(12)
C5A C 0.82535(9) 0.39025(12) 0.41168(12)
C6A C 0.74510(8) 0.34406(11) 0.37494(11)
N1A N 0.73581(8) 0.22428(10) 0.36069(11)
H1A H 0.7796 0.1789 0.3754
N2A N 0.65836(7) 0.17629(10) 0.32361(10)
C7A C 0.65452(9) 0.06360(12) 0.32150(12)
H2A H 0.7041 0.0189 0.3444
C8A C 0.57481(9) 0.00346(11) 0.28433(11)
C9A C 0.57440(9) -0.11988(12) 0.28450(13)
H3A H 0.6251 -0.1618 0.3083
F1A F 0.60143(5) 0.39513(8) 0.32285(8)
F2A F 0.63461(6) 0.62019(8) 0.35331(9)
F3A F 0.79188(6) 0.70363(8) 0.42048(9)
F4A F 0.92001(6) 0.54716(8) 0.46166(8)
F5A F 0.88872(5) 0.31421(8) 0.43454(8)
N3 N 0.13318(9) 1.01981(13) 0.08927(12)
C12 C 0.09451(9) 0.93585(13) 0.07833(13)
C13 C 0.04540(10) 0.82919(13) 0.06413(14)
H6 H -0.0103 0.8491 0.0625
H7 H 0.0714 0.7757 0.1263
H8 H 0.0421 0.7911 -0.0059
loop_
_geom_bond_atom_site_label_1
_geom_bond_atom_site_label_2
_geom_bond_site_symmetry_1
_geom_bond_site_symmetry_2
C1 C2 1_555 1_555
C2 C3 1_555 1_555
C3 C4 1_555 1_555
C4 C5 1_555 1_555
C5 C6 1_555 1_555
C6 C1 1_555 1_555
N1 C6 1_555 1_555
H1 N1 1_555 1_555
N2 N1 1_555 1_555
C7 N2 1_555 1_555
H2 C7 1_555 1_555
C8 C7 1_555 1_555
C9 C8 1_555 1_555
H3 C9 1_555 1_555
C10 C9 1_555 1_555
H4 C10 1_555 1_555
C11 C8 1_555 1_555
H5 C11 1_555 1_555
F1 C1 1_555 1_555
F2 C2 1_555 1_555
F3 C3 1_555 1_555
F4 C4 1_555 1_555
F5 C5 1_555 1_555
N3 C12 1_555 1_555
C12 C13 1_555 1_555
C13 H6 1_555 1_555
H7 C13 1_555 1_555
H8 C13 1_555 1_555
C1A C2A 1_555 1_555
C2A C3A 1_555 1_555
C3A C4A 1_555 1_555
C4A C5A 1_555 1_555
C5A C6A 1_555 1_555
C6A C1A 1_555 1_555
N1A C6A 1_555 1_555
H1A N1A 1_555 1_555
N2A N1A 1_555 1_555
C7A N2A 1_555 1_555
H2A C7A 1_555 1_555
C8A C11 1_555 1_555
C9A C10 1_555 1_555
H3A C9A 1_555 1_555
F1A C1A 1_555 1_555
F2A C2A 1_555 1_555
F3A C3A 1_555 1_555
F4A C4A 1_555 1_555
F5A C5A 1_555 1_555
C7A C8A 1_555 1_555
C8A C9A 1_555 1_555

#END
