
#######################################################################
#
#                 Cambridge Crystallographic Data Centre
#                                CCDC 
#
#######################################################################
#
# If this CIF has been generated from an entry in the Cambridge 
# Structural Database, then it will include bibliographic, chemical, 
# crystal, experimental, refinement or atomic coordinate data resulting 
# from the CCDC's data processing and validation procedures.
#
#######################################################################

data_EXIZER
_chemical_formula_moiety         'C15 H20 F2 N3 O2 P1'
_chemical_name_systematic        
N-(bis(pyrrolidin-1-yl)phosphoryl)-2,6-difluorobenzamide
_symmetry_cell_setting           monoclinic
_symmetry_space_group_name_H-M   'P 21/n'
_symmetry_Int_Tables_number      14
_space_group_name_Hall           '-P 2yn'
loop_
_symmetry_equiv_pos_site_id
_symmetry_equiv_pos_as_xyz
1 x,y,z
2 1/2-x,1/2+y,1/2-z
3 -x,-y,-z
4 1/2+x,1/2-y,1/2+z
_cell_length_a                   10.286(3)
_cell_length_b                   14.873(4)
_cell_length_c                   10.917(3)
_cell_angle_alpha                90
_cell_angle_beta                 99.296(3)
_cell_angle_gamma                90
_cell_volume                     1648.19
_exptl_crystal_colour            colorless
_exptl_crystal_description       block
_cell_formula_units_Z            4
loop_
_atom_site_label
_atom_site_type_symbol
_atom_site_fract_x
_atom_site_fract_y
_atom_site_fract_z
P1 P 0.58132(4) 0.60634(4) 0.14444(5)
F1 F 0.06841(11) 0.66217(8) 0.14052(12)
F2 F 0.33806(10) 0.40553(8) 0.20332(11)
O1 O 0.34013(13) 0.65942(10) 0.26101(14)
O2 O 0.65277(12) 0.54022(11) 0.07877(12)
N1 N 0.42250(14) 0.57290(13) 0.12010(15)
H1 H 0.402(2) 0.5349(12) 0.0604(16)
N2 N 0.64224(15) 0.60885(11) 0.29142(15)
N3 N 0.57871(16) 0.71092(14) 0.10109(18)
C1 C 0.08224(17) 0.57212(14) 0.15613(17)
C2 C -0.02954(17) 0.52080(14) 0.15101(18)
H2 H -0.1144 0.5478 0.1386
C3 C -0.01492(18) 0.42859(15) 0.16440(19)
H3 H -0.0908 0.3919 0.1621
C4 C 0.10900(19) 0.38887(14) 0.18117(18)
H4 H 0.1190 0.3256 0.1904
C5 C 0.21675(17) 0.44419(14) 0.18402(17)
C6 C 0.20909(16) 0.53694(13) 0.17294(16)
C7 C 0.32904(17) 0.59659(14) 0.18895(17)
C8 C 0.6309(2) 0.68401(14) 0.3773(2)
H5 H 0.5548 0.7229 0.3452
H6 H 0.7120 0.7209 0.3900
C9 C 0.6109(3) 0.63821(17) 0.4964(2)
H7 H 0.5167 0.6244 0.4962
H8 H 0.6438 0.6761 0.5695
C10 C 0.6916(3) 0.55236(17) 0.4966(2)
H9 H 0.6603 0.5057 0.5497
H10 H 0.7862 0.5641 0.5265
C11 C 0.6688(2) 0.52362(14) 0.36086(18)
H11 H 0.7477 0.4934 0.3391
H12 H 0.5926 0.4823 0.3431
C12 C 0.7037(2) 0.75855(18) 0.0940(3)
H13 H 0.7311 0.7953 0.1693
H14 H 0.7748 0.7152 0.0857
C13 C 0.6757(6) 0.8164(5) -0.0173(6)
H15 H 0.6871 0.7829 -0.0933
H16 H 0.7335 0.8700 -0.0094
C14 C 0.5338(4) 0.8424(3) -0.0195(4)
H17 H 0.4933 0.8646 -0.1024
H18 H 0.5252 0.8890 0.0434
C15 C 0.4701(2) 0.7512(2) 0.0127(3)
H19 H 0.3910 0.7613 0.0518
H20 H 0.4462 0.7131 -0.0620
C16? C 0.6387(15) 0.8325(12) 0.0017(13)
C17? C 0.5278(10) 0.7968(8) -0.0887(9)
H21? H 0.7680 0.7205 0.0597
H22? H 0.7447 0.7840 0.1748
H23? H 0.6062 0.8819 0.0495
H24? H 0.7061 0.8577 -0.0438
H25? H 0.5559 0.7543 -0.1492
H26? H 0.4704 0.8443 -0.1318
H27? H 0.4195 0.7936 0.0565
H28? H 0.4095 0.7034 -0.0250
loop_
_geom_bond_atom_site_label_1
_geom_bond_atom_site_label_2
_geom_bond_site_symmetry_1
_geom_bond_site_symmetry_2
P1 O2 1_555 1_555
F1 C1 1_555 1_555
F2 C5 1_555 1_555
O1 C7 1_555 1_555
N1 P1 1_555 1_555
H1 N1 1_555 1_555
N2 P1 1_555 1_555
N3 P1 1_555 1_555
C1 C2 1_555 1_555
C2 H2 1_555 1_555
C3 C2 1_555 1_555
H3 C3 1_555 1_555
C4 C3 1_555 1_555
H4 C4 1_555 1_555
C5 C4 1_555 1_555
C6 C1 1_555 1_555
C7 N1 1_555 1_555
C8 N2 1_555 1_555
H5 C8 1_555 1_555
H6 C8 1_555 1_555
C9 C8 1_555 1_555
H7 C9 1_555 1_555
H8 C9 1_555 1_555
C10 C9 1_555 1_555
H9 C10 1_555 1_555
H10 C10 1_555 1_555
C11 N2 1_555 1_555
H11 C11 1_555 1_555
H12 C11 1_555 1_555
C12 N3 1_555 1_555
H13 C12 1_555 1_555
H14 C12 1_555 1_555
C13 C12 1_555 1_555
H15 C13 1_555 1_555
H16 C13 1_555 1_555
C14 C13 1_555 1_555
H17 C14 1_555 1_555
H18 C14 1_555 1_555
C15 N3 1_555 1_555
H19 C15 1_555 1_555
H20 C15 1_555 1_555
C5 C6 1_555 1_555
C6 C7 1_555 1_555
C10 C11 1_555 1_555
C14 C15 1_555 1_555

#END
