
#######################################################################
#
#                 Cambridge Crystallographic Data Centre
#                                CCDC 
#
#######################################################################
#
# If this CIF has been generated from an entry in the Cambridge 
# Structural Database, then it will include bibliographic, chemical, 
# crystal, experimental, refinement or atomic coordinate data resulting 
# from the CCDC's data processing and validation procedures.
#
#######################################################################

data_EXIZOB
_chemical_formula_moiety         'C6 H8 N4 O3,2(H2 O1)'
_chemical_name_systematic        
'5-Acetamido-2-iminio-6-oxo-1,2,3,6-tetrahydropyrimidin-4-olate dihydrate'
_symmetry_cell_setting           monoclinic
_symmetry_space_group_name_H-M   'P 21/c'
_symmetry_Int_Tables_number      14
_space_group_name_Hall           '-P 2ybc'
loop_
_symmetry_equiv_pos_site_id
_symmetry_equiv_pos_as_xyz
1 x,y,z
2 -x,1/2+y,1/2-z
3 -x,-y,-z
4 x,1/2-y,1/2+z
_cell_length_a                   9.5501(12)
_cell_length_b                   12.2161(13)
_cell_length_c                   8.5324(8)
_cell_angle_alpha                90
_cell_angle_beta                 98.7080(10)
_cell_angle_gamma                90
_cell_volume                     983.958
_exptl_crystal_colour            colorless
_exptl_crystal_description       cuboid
_cell_formula_units_Z            4
loop_
_atom_site_label
_atom_site_type_symbol
_atom_site_fract_x
_atom_site_fract_y
_atom_site_fract_z
O1 O 0.21459(17) 0.66228(13) 0.37653(19)
H6 H 0.2598 0.6153 0.4382
H7 H 0.1272 0.6500 0.3778
N1 N 0.51891(18) 0.27137(14) 0.8076(2)
H1 H 0.5490 0.2108 0.8520
N2 N 0.53066(18) 0.45908(14) 0.7961(2)
H2 H 0.5664 0.5196 0.8351
N3 N 0.68269(19) 0.36480(15) 0.9877(2)
H3 H 0.7194 0.4256 1.0247
H4 H 0.7129 0.3038 1.0305
N4 N 0.25806(19) 0.36468(14) 0.4697(2)
H5 H 0.2839 0.3634 0.3774
O2 O 0.38963(16) 0.55753(12) 0.60969(18)
O3 O 0.35840(16) 0.17282(12) 0.64300(17)
O4 O 0.07419(17) 0.37021(14) 0.60637(19)
C1 C 0.5807(2) 0.36517(17) 0.8661(2)
C2 C 0.4238(2) 0.46472(18) 0.6633(2)
C3 C 0.3655(2) 0.36483(17) 0.6053(2)
C4 C 0.4087(2) 0.26646(18) 0.6789(2)
C5 C 0.1185(2) 0.36648(18) 0.4780(3)
C6 C 0.0201(3) 0.3621(2) 0.3226(3)
H10 H -0.0314 0.2944 0.3152
H11 H 0.0743 0.3670 0.2367
H12 H -0.0452 0.4222 0.3166
O5 O 0.1825(2) 0.06285(14) 0.4167(2)
H8 H 0.2207 0.1168 0.4697
H9 H 0.1527 0.0876 0.3245
loop_
_geom_bond_atom_site_label_1
_geom_bond_atom_site_label_2
_geom_bond_site_symmetry_1
_geom_bond_site_symmetry_2
O1 H6 1_555 1_555
N1 H1 1_555 1_555
N2 H2 1_555 1_555
N3 H3 1_555 1_555
H4 N3 1_555 1_555
N4 H5 1_555 1_555
O2 C2 1_555 1_555
O3 C4 1_555 1_555
O4 C5 1_555 1_555
H7 O1 1_555 1_555
O5 H8 1_555 1_555
H9 O5 1_555 1_555
C1 N1 1_555 1_555
C2 N2 1_555 1_555
C3 N4 1_555 1_555
C4 N1 1_555 1_555
C5 N4 1_555 1_555
C6 C5 1_555 1_555
H10 C6 1_555 1_555
H11 C6 1_555 1_555
H12 C6 1_555 1_555
N2 C1 1_555 1_555
N3 C1 1_555 1_555
C2 C3 1_555 1_555
C3 C4 1_555 1_555

#END
