
#######################################################################
#
#                 Cambridge Crystallographic Data Centre
#                                CCDC 
#
#######################################################################
#
# If this CIF has been generated from an entry in the Cambridge 
# Structural Database, then it will include bibliographic, chemical, 
# crystal, experimental, refinement or atomic coordinate data resulting 
# from the CCDC's data processing and validation procedures.
#
#######################################################################

data_EXOGEF
_chemical_formula_moiety         'C30 H32 N2 O1'
_chemical_name_systematic        
N-(1-(2,8-diphenyladamantan-1-yl)ethyl)pyridine-2-carboxamide
_symmetry_cell_setting           triclinic
_symmetry_space_group_name_H-M   'P 1'
_symmetry_Int_Tables_number      1
_space_group_name_Hall           'P 1'
loop_
_symmetry_equiv_pos_site_id
_symmetry_equiv_pos_as_xyz
1 x,y,z
_cell_length_a                   10.7617(4)
_cell_length_b                   11.3466(4)
_cell_length_c                   11.4673(4)
_cell_angle_alpha                77.9170(10)
_cell_angle_beta                 74.0850(10)
_cell_angle_gamma                63.7750(10)
_cell_volume                     1201.65
_exptl_crystal_colour            colorless
_exptl_crystal_description       block
_cell_formula_units_Z            2
_exptl_crystal_recrystallization_method dichloromethane/n-Hexane
loop_
_atom_site_label
_atom_site_type_symbol
_atom_site_fract_x
_atom_site_fract_y
_atom_site_fract_z
O1 O 0.38234(12) 0.29754(12) 0.67421(12)
C1 C 0.01134(15) 0.61785(13) 0.84104(14)
H1 H 0.0095 0.6549 0.7560
C2 C -0.03143(15) 0.49873(13) 0.85806(13)
C3 C 0.09316(15) 0.38083(14) 0.79526(14)
H2 H 0.1693 0.3515 0.8398
C4 C 0.4390(2) 0.5320(2) 0.8659(2)
H3 H 0.5315 0.5134 0.8685
C5 C 0.3517(2) 0.4971(2) 0.9663(2)
H4 H 0.3850 0.4562 1.0374
C6 C 0.21410(18) 0.52306(18) 0.96113(17)
H5 H 0.1568 0.4987 1.0294
C7 C 0.15999(16) 0.58458(14) 0.85634(15)
N1 N 0.14953(13) 0.42049(12) 0.66989(12)
H6 H 0.0909 0.4730 0.6246
C8 C 0.28881(16) 0.37869(15) 0.62206(15)
C9 C 0.32407(16) 0.44359(14) 0.49626(15)
C10 C 0.46239(17) 0.42547(17) 0.44329(18)
H7 H 0.5357 0.3706 0.4833
C11 C 0.48941(19) 0.49081(18) 0.32941(18)
H8 H 0.5809 0.4830 0.2928
C12 C 0.37888(19) 0.56766(17) 0.27097(16)
H9 H 0.3944 0.6105 0.1934
C13 C 0.3877(2) 0.5943(2) 0.7622(2)
H10 H 0.4452 0.6194 0.6947
C14 C 0.25080(19) 0.62008(18) 0.75743(18)
H11 H 0.2182 0.6623 0.6862
C15 C -0.10634(17) 0.72766(15) 0.91817(16)
H12 H -0.0777 0.8005 0.9091
C16 C -0.13533(18) 0.67836(17) 1.05392(16)
H13 H -0.0504 0.6475 1.0860
H14 H -0.2094 0.7499 1.0992
C17 C -0.18128(17) 0.56545(17) 1.06794(15)
H15 H -0.1988 0.5324 1.1543
C18 C -0.31718(17) 0.61605(17) 1.01958(16)
H16 H -0.3915 0.6876 1.0647
H17 H -0.3484 0.5455 1.0304
C19 C -0.28850(15) 0.66516(15) 0.88377(15)
H18 H -0.3758 0.6983 0.8532
C20 C -0.17300(15) 0.54711(14) 0.81309(14)
H19 H -0.2042 0.4751 0.8434
C21 C -0.17084(15) 0.56947(15) 0.67702(15)
C22 C -0.14099(17) 0.66850(17) 0.59488(16)
H20 H -0.1190 0.7267 0.6230
C23 C -0.14361(18) 0.6815(2) 0.47260(17)
H21 H -0.1229 0.7478 0.4199
C24 C -0.1767(2) 0.5970(2) 0.42777(18)
H22 H -0.1780 0.6061 0.3456
C25 C -0.2077(2) 0.4992(2) 0.5070(2)
H23 H -0.2302 0.4419 0.4781
C26 C -0.20553(18) 0.48618(18) 0.62939(18)
H24 H -0.2277 0.4203 0.6815
C27 C -0.24277(17) 0.77866(15) 0.87082(17)
H25 H -0.2272 0.8135 0.7859
H26 H -0.3169 0.8494 0.9170
C28 C -0.06577(16) 0.45273(15) 0.99498(14)
H27 H -0.0968 0.3823 1.0046
H28 H 0.0195 0.4176 1.0274
C29 C 0.06212(18) 0.26033(15) 0.79981(17)
H29 H -0.0125 0.2844 0.7573
H30 H 0.0335 0.2300 0.8832
H31 H 0.1459 0.1911 0.7618
N2 N 0.21530(14) 0.52017(15) 0.44171(14)
C30 C 0.2441(2) 0.57926(19) 0.33095(18)
H32 H 0.1695 0.6313 0.2916
O2 O -0.18478(13) 0.31108(13) 0.30585(14)
N3 N 0.04237(13) 0.16747(12) 0.24641(12)
H33 H 0.0992 0.1071 0.1992
C31 C -0.2384(3) 0.0816(3) 0.6387(2)
H34 H -0.3325 0.1084 0.6797
C32 C -0.1910(2) 0.0183(2) 0.5354(2)
H35 H -0.2531 -0.0005 0.5076
C33 C -0.0524(2) -0.01817(19) 0.47188(19)
H36 H -0.0234 -0.0613 0.4023
C34 C 0.0454(2) 0.00790(17) 0.50916(17)
C35 C 0.19218(18) -0.02646(15) 0.42794(15)
H37 H 0.1913 -0.0661 0.3602
C36 C 0.22909(16) 0.09438(14) 0.36674(14)
C37 C 0.10028(16) 0.20978(14) 0.32326(14)
H38 H 0.0264 0.2372 0.3966
C38 C -0.09590(16) 0.21949(14) 0.24715(15)
C39 C -0.13774(16) 0.15841(15) 0.16867(15)
N4 N -0.0387(2) 0.0534(2) 0.1171(2)
C40 C -0.0753(3) 0.0014(3) 0.0453(4)
H39 H -0.0056 -0.0716 0.0070
C41 C -0.2095(2) 0.0488(2) 0.0242(2)
H40 H -0.2314 0.0063 -0.0234
C42 C -0.2725(2) 0.2154(3) 0.1484(3)
H41 H -0.3393 0.2915 0.1838
C43 C -0.3081(2) 0.1583(3) 0.0744(3)
H42 H -0.3993 0.1954 0.0597
C44 C 0.12549(18) 0.33242(15) 0.26030(16)
H43 H 0.1999 0.3096 0.1891
H44 H 0.1523 0.3658 0.3153
H45 H 0.0402 0.3989 0.2370
C45 C 0.26894(18) 0.14536(15) 0.46046(16)
H46 H 0.2952 0.2178 0.4207
H47 H 0.1870 0.1789 0.5255
C46 C 0.3915(2) 0.03706(17) 0.51487(19)
H48 H 0.4123 0.0731 0.5742
C47 C 0.5218(2) -0.01104(19) 0.4126(2)
H49 H 0.6006 -0.0798 0.4458
H50 H 0.5484 0.0614 0.3736
C48 C 0.48794(19) -0.06522(17) 0.3185(2)
H51 H 0.5721 -0.0974 0.2535
C49 C 0.36571(16) 0.04810(15) 0.26288(16)
H52 H 0.3936 0.1225 0.2412
C50 C 0.35605(17) 0.01932(16) 0.14208(17)
C51 C 0.32890(18) -0.08550(17) 0.12571(18)
H53 H 0.3097 -0.1412 0.1932
C52 C 0.3301(2) -0.1080(2) 0.0106(2)
H54 H 0.3110 -0.1778 0.0023
C53 C 0.3594(2) -0.0273(2) -0.0914(2)
H55 H 0.3623 -0.0439 -0.1684
C54 C 0.3842(2) 0.0771(2) -0.0785(2)
H56 H 0.4022 0.1328 -0.1466
C55 C 0.38256(18) 0.09991(19) 0.03656(18)
H57 H 0.3997 0.1713 0.0437
C56 C 0.4492(2) -0.18050(17) 0.3833(2)
H58 H 0.5276 -0.2482 0.4178
H59 H 0.4313 -0.2190 0.3250
C57 C 0.3171(2) -0.13218(16) 0.48472(19)
H60 H 0.2932 -0.2069 0.5247
C58 C 0.3522(3) -0.07850(19) 0.5785(2)
H61 H 0.2709 -0.0488 0.6449
H62 H 0.4306 -0.1476 0.6118
C59 C -0.1424(3) 0.1045(3) 0.6804(2)
H63 H -0.1714 0.1446 0.7519
C60 C -0.0036(3) 0.0682(2) 0.61650(19)
H64 H 0.0588 0.0846 0.6462
loop_
_geom_bond_atom_site_label_1
_geom_bond_atom_site_label_2
_geom_bond_site_symmetry_1
_geom_bond_site_symmetry_2
O1 C8 1_555 1_555
C1 H1 1_555 1_555
C2 C1 1_555 1_555
C3 C2 1_555 1_555
H2 C3 1_555 1_555
C4 H3 1_555 1_555
C5 C4 1_555 1_555
H4 C5 1_555 1_555
C6 C5 1_555 1_555
H5 C6 1_555 1_555
C7 C1 1_555 1_555
N1 C3 1_555 1_555
H6 N1 1_555 1_555
C8 N1 1_555 1_555
C9 C8 1_555 1_555
C10 C9 1_555 1_555
H7 C10 1_555 1_555
C11 C10 1_555 1_555
H8 C11 1_555 1_555
C12 C11 1_555 1_555
H9 C12 1_555 1_555
C13 C4 1_555 1_555
H10 C13 1_555 1_555
C14 C7 1_555 1_555
H11 C14 1_555 1_555
C15 C1 1_555 1_555
H12 C15 1_555 1_555
C16 C15 1_555 1_555
H13 C16 1_555 1_555
H14 C16 1_555 1_555
C17 C16 1_555 1_555
H15 C17 1_555 1_555
C18 C17 1_555 1_555
H16 C18 1_555 1_555
H17 C18 1_555 1_555
C19 C18 1_555 1_555
H18 C19 1_555 1_555
C20 C2 1_555 1_555
H19 C20 1_555 1_555
C21 C20 1_555 1_555
C22 C21 1_555 1_555
H20 C22 1_555 1_555
C23 C22 1_555 1_555
H21 C23 1_555 1_555
C24 C23 1_555 1_555
H22 C24 1_555 1_555
C25 C24 1_555 1_555
H23 C25 1_555 1_555
C26 C21 1_555 1_555
H24 C26 1_555 1_555
C27 C15 1_555 1_555
H25 C27 1_555 1_555
H26 C27 1_555 1_555
C28 C2 1_555 1_555
H27 C28 1_555 1_555
H28 C28 1_555 1_555
C29 C3 1_555 1_555
H29 C29 1_555 1_555
H30 C29 1_555 1_555
H31 C29 1_555 1_555
N2 C9 1_555 1_555
C30 C12 1_555 1_555
H32 C30 1_555 1_555
O2 C38 1_555 1_555
N3 H33 1_555 1_555
C31 H34 1_555 1_555
C32 C31 1_555 1_555
H35 C32 1_555 1_555
C33 C32 1_555 1_555
H36 C33 1_555 1_555
C34 C33 1_555 1_555
C35 C34 1_555 1_555
H37 C35 1_555 1_555
C36 C35 1_555 1_555
C37 N3 1_555 1_555
H38 C37 1_555 1_555
C38 N3 1_555 1_555
C39 C38 1_555 1_555
N4 C39 1_555 1_555
C40 N4 1_555 1_555
H39 C40 1_555 1_555
C41 C40 1_555 1_555
H40 C41 1_555 1_555
C42 C39 1_555 1_555
H41 C42 1_555 1_555
C43 C41 1_555 1_555
H42 C43 1_555 1_555
C44 C37 1_555 1_555
H43 C44 1_555 1_555
H44 C44 1_555 1_555
H45 C44 1_555 1_555
C45 C36 1_555 1_555
H46 C45 1_555 1_555
H47 C45 1_555 1_555
C46 C45 1_555 1_555
H48 C46 1_555 1_555
C47 C46 1_555 1_555
H49 C47 1_555 1_555
H50 C47 1_555 1_555
C48 C47 1_555 1_555
H51 C48 1_555 1_555
C49 C36 1_555 1_555
H52 C49 1_555 1_555
C50 C49 1_555 1_555
C51 C50 1_555 1_555
H53 C51 1_555 1_555
C52 C51 1_555 1_555
H54 C52 1_555 1_555
C53 C52 1_555 1_555
H55 C53 1_555 1_555
C54 C53 1_555 1_555
H56 C54 1_555 1_555
C55 C50 1_555 1_555
H57 C55 1_555 1_555
C56 C48 1_555 1_555
H58 C56 1_555 1_555
H59 C56 1_555 1_555
C57 C35 1_555 1_555
H60 C57 1_555 1_555
C58 C46 1_555 1_555
H61 C58 1_555 1_555
H62 C58 1_555 1_555
C59 C31 1_555 1_555
H63 C59 1_555 1_555
C60 C34 1_555 1_555
H64 C60 1_555 1_555
C6 C7 1_555 1_555
C13 C14 1_555 1_555
C17 C28 1_555 1_555
C19 C20 1_555 1_555
C19 C27 1_555 1_555
C25 C26 1_555 1_555
N2 C30 1_555 1_555
C36 C37 1_555 1_555
C42 C43 1_555 1_555
C48 C49 1_555 1_555
C54 C55 1_555 1_555
C56 C57 1_555 1_555
C57 C58 1_555 1_555
C59 C60 1_555 1_555

#END
