
#######################################################################
#
#                 Cambridge Crystallographic Data Centre
#                                CCDC 
#
#######################################################################
#
# If this CIF has been generated from an entry in the Cambridge 
# Structural Database, then it will include bibliographic, chemical, 
# crystal, experimental, refinement or atomic coordinate data resulting 
# from the CCDC's data processing and validation procedures.
#
#######################################################################

data_EXOHII
_chemical_name_common            
2-Amino-3-cyano-4-(2-chlorophenyl)-1,4-dihydro-pyrano(3,2-h)quinoline
_chemical_formula_moiety         'C19 H12 Cl1 N3 O1'
_chemical_name_systematic        
2-Amino-3-cyano-4-(2-chlorophenyl)-1,4-dihydro-2H-pyrano(3,2-h)quinoline
_symmetry_cell_setting           triclinic
_symmetry_space_group_name_H-M   'P -1'
_symmetry_Int_Tables_number      2
_space_group_name_Hall           '-P 1'
loop_
_symmetry_equiv_pos_site_id
_symmetry_equiv_pos_as_xyz
1 x,y,z
2 -x,-y,-z
_cell_length_a                   7.488(2)
_cell_length_b                   9.127(3)
_cell_length_c                   12.252(3)
_cell_angle_alpha                73.58(2)
_cell_angle_beta                 78.38(2)
_cell_angle_gamma                75.39(2)
_cell_volume                     769.542
_exptl_crystal_colour            'pale yellow'
_exptl_crystal_description       needle
_cell_formula_units_Z            2
_exptl_crystal_recrystallization_method dimethylformamide/water
loop_
_atom_site_label
_atom_site_type_symbol
_atom_site_fract_x
_atom_site_fract_y
_atom_site_fract_z
Cl1 Cl 0.35259(16) 0.86788(16) 0.23530(11)
N1 N 1.2833(4) 0.6180(3) 0.5022(2)
N2 N 1.2103(5) 0.4777(4) 0.1836(3)
N3 N 0.7895(6) 0.5703(5) 0.0537(3)
C1 C 1.0752(5) 0.5674(4) 0.2406(3)
C2 C 0.9010(5) 0.6304(4) 0.2177(3)
C3 C 0.7625(5) 0.7398(4) 0.2822(3)
H1 H 0.6498 0.6969 0.3120
C4 C 0.8430(5) 0.7497(4) 0.3823(3)
C5 C 1.0225(5) 0.6783(4) 0.3998(3)
C6 C 1.1029(5) 0.6918(4) 0.4913(3)
C7 C 1.3538(6) 0.6387(4) 0.5861(3)
H2 H 1.4768 0.5898 0.5949
C8 C 1.2559(6) 0.7286(5) 0.6619(3)
H3 H 1.3141 0.7405 0.7183
C9 C 1.0753(6) 0.7990(5) 0.6535(3)
H4 H 1.0079 0.8575 0.7050
C10 C 0.9905(5) 0.7830(4) 0.5664(3)
C11 C 0.8032(6) 0.8527(4) 0.5494(3)
H5 H 0.7275 0.9100 0.5996
C12 C 0.7339(5) 0.8367(4) 0.4607(3)
H6 H 0.6108 0.8841 0.4509
C13 C 0.7085(5) 0.9026(4) 0.2023(3)
C14 C 0.8471(6) 0.9892(4) 0.1498(3)
H7 H 0.9696 0.9473 0.1635
C15 C 0.8031(7) 1.1353(5) 0.0785(3)
H8 H 0.8957 1.1922 0.0450
C16 C 0.6245(8) 1.1974(5) 0.0565(4)
H9 H 0.5969 1.2968 0.0084
C17 C 0.4854(6) 1.1169(5) 0.1036(4)
H10 H 0.3643 1.1595 0.0872
C18 C 0.5301(5) 0.9673(4) 0.1777(3)
C19 C 0.8410(6) 0.5951(4) 0.1269(3)
O1 O 1.1405(3) 0.5885(3) 0.3297(2)
H11 H 1.205(5) 0.459(4) 0.1199(17)
H12 H 1.314(3) 0.443(5) 0.209(3)
loop_
_geom_bond_atom_site_label_1
_geom_bond_atom_site_label_2
_geom_bond_site_symmetry_1
_geom_bond_site_symmetry_2
Cl1 C18 1_555 1_555
N1 C6 1_555 1_555
N2 C1 1_555 1_555
N3 C19 1_555 1_555
C1 C2 1_555 1_555
C2 C3 1_555 1_555
C3 H1 1_555 1_555
C4 C3 1_555 1_555
C5 C4 1_555 1_555
C6 C5 1_555 1_555
C7 N1 1_555 1_555
H2 C7 1_555 1_555
C8 C7 1_555 1_555
H3 C8 1_555 1_555
C9 C8 1_555 1_555
H4 C9 1_555 1_555
C10 C6 1_555 1_555
C11 C10 1_555 1_555
H5 C11 1_555 1_555
C12 C4 1_555 1_555
H6 C12 1_555 1_555
C13 C3 1_555 1_555
C14 C13 1_555 1_555
H7 C14 1_555 1_555
C15 C14 1_555 1_555
H8 C15 1_555 1_555
C16 C15 1_555 1_555
H9 C16 1_555 1_555
C17 C16 1_555 1_555
H10 C17 1_555 1_555
C18 C13 1_555 1_555
C19 C2 1_555 1_555
O1 C1 1_555 1_555
H11 N2 1_555 1_555
H12 N2 1_555 1_555
C5 O1 1_555 1_555
C9 C10 1_555 1_555
C11 C12 1_555 1_555
C17 C18 1_555 1_555

#END
