
#######################################################################
#
#                 Cambridge Crystallographic Data Centre
#                                CCDC 
#
#######################################################################
#
# If this CIF has been generated from an entry in the Cambridge 
# Structural Database, then it will include bibliographic, chemical, 
# crystal, experimental, refinement or atomic coordinate data resulting 
# from the CCDC's data processing and validation procedures.
#
#######################################################################

data_EXOQEO
_chemical_formula_moiety         'C11 H9 N3 O3'
_chemical_name_systematic        4-((3-Nitropyridin-2-yl)amino)phenol
_symmetry_cell_setting           monoclinic
_symmetry_space_group_name_H-M   'P 21/c'
_symmetry_Int_Tables_number      14
_space_group_name_Hall           '-P 2ybc'
loop_
_symmetry_equiv_pos_site_id
_symmetry_equiv_pos_as_xyz
1 x,y,z
2 -x,1/2+y,1/2-z
3 -x,-y,-z
4 x,1/2-y,1/2+z
_cell_length_a                   11.5236(19)
_cell_length_b                   8.7389(17)
_cell_length_c                   10.684(3)
_cell_angle_alpha                90
_cell_angle_beta                 107.76(3)
_cell_angle_gamma                90
_cell_volume                     1024.64
_exptl_crystal_colour            orange
_exptl_crystal_description       prism
_cell_formula_units_Z            4
loop_
_atom_site_label
_atom_site_type_symbol
_atom_site_fract_x
_atom_site_fract_y
_atom_site_fract_z
O1 O 0.4478(2) 0.4972(4) 1.2345(2)
H1 H 0.5209 0.5129 1.2497
O2 O 0.0051(3) 0.7800(4) 0.5408(3)
O3 O -0.0303(3) 0.7308(4) 0.3360(3)
N1 N 0.1921(3) 0.6508(4) 0.7184(3)
H2 H 0.1386 0.7225 0.7056
N2 N 0.0283(3) 0.7094(4) 0.4517(3)
N3 N 0.3017(3) 0.4848(4) 0.6325(3)
C1 C 0.2600(3) 0.6148(4) 0.8516(3)
C2 C 0.2135(3) 0.5117(5) 0.9204(4)
H3 H 0.1388 0.4654 0.8797
C3 C 0.2756(3) 0.4759(5) 1.0487(4)
H4 H 0.2426 0.4069 1.0947
C4 C 0.3869(3) 0.5426(5) 1.1087(3)
C5 C 0.4320(3) 0.6500(5) 1.0419(4)
H5 H 0.5054 0.6986 1.0836
C6 C 0.3689(3) 0.6863(5) 0.9130(4)
H6 H 0.4000 0.7587 0.8680
C7 C 0.2062(3) 0.5801(4) 0.6122(3)
C8 C 0.1272(3) 0.6010(4) 0.4826(3)
C9 C 0.1441(3) 0.5164(5) 0.3806(4)
H7 H 0.0908 0.5274 0.2959
C10 C 0.2393(4) 0.4164(5) 0.4043(4)
H8 H 0.2518 0.3566 0.3376
C11 C 0.3162(4) 0.4077(5) 0.5312(4)
H9 H 0.3832 0.3429 0.5472
loop_
_geom_bond_atom_site_label_1
_geom_bond_atom_site_label_2
_geom_bond_site_symmetry_1
_geom_bond_site_symmetry_2
O1 H1 1_555 1_555
O2 N2 1_555 1_555
O3 N2 1_555 1_555
N1 H2 1_555 1_555
N2 C8 1_555 1_555
N3 C7 1_555 1_555
C1 N1 1_555 1_555
C2 C1 1_555 1_555
H3 C2 1_555 1_555
C3 C2 1_555 1_555
H4 C3 1_555 1_555
C4 O1 1_555 1_555
C5 C4 1_555 1_555
H5 C5 1_555 1_555
C6 C1 1_555 1_555
H6 C6 1_555 1_555
C7 N1 1_555 1_555
C8 C7 1_555 1_555
C9 C8 1_555 1_555
H7 C9 1_555 1_555
C10 C9 1_555 1_555
H8 C10 1_555 1_555
C11 N3 1_555 1_555
H9 C11 1_555 1_555
C3 C4 1_555 1_555
C5 C6 1_555 1_555
C10 C11 1_555 1_555

#END
