
#######################################################################
#
#                 Cambridge Crystallographic Data Centre
#                                CCDC 
#
#######################################################################
#
# If this CIF has been generated from an entry in the Cambridge 
# Structural Database, then it will include bibliographic, chemical, 
# crystal, experimental, refinement or atomic coordinate data resulting 
# from the CCDC's data processing and validation procedures.
#
#######################################################################

data_EXUDAC
_chemical_formula_moiety         '0.68(C34 H30 O2 P2),0.32(C34 H30 O1 P2),H2 O1'
_chemical_name_systematic        
'(2-((Benzoylmethylene)diphenyl-\l^5^-phosphino)ethyl)diphenylphosphine oxide (2-((benzoylmethylene)diphenyl-\l^5^-phosphino)ethyl)diphenylphosphine monohydrate'
_symmetry_cell_setting           triclinic
_symmetry_space_group_name_H-M   'P -1'
_symmetry_Int_Tables_number      2
_space_group_name_Hall           '-P 1'
loop_
_symmetry_equiv_pos_site_id
_symmetry_equiv_pos_as_xyz
1 x,y,z
2 -x,-y,-z
_cell_length_a                   9.1392(4)
_cell_length_b                   11.8931(3)
_cell_length_c                   13.6025(5)
_cell_angle_alpha                105.725(2)
_cell_angle_beta                 92.472(2)
_cell_angle_gamma                101.934(2)
_cell_volume                     1384.67
_exptl_crystal_colour            colorless
_exptl_crystal_description       plate
_cell_formula_units_Z            2
_exptl_crystal_recrystallization_method 'light petroleum/benzene'
loop_
_atom_site_label
_atom_site_type_symbol
_atom_site_fract_x
_atom_site_fract_y
_atom_site_fract_z
O1 O 0.3943(2) 0.52924(17) 0.35852(15)
H3 H 0.3736 0.5870 0.3266
H4 H 0.3672 0.5652 0.4244
P1 P 0.18580(6) 0.73418(5) 0.05959(4)
P2 P 0.60170(7) 1.01348(5) 0.19183(5)
O2 O 0.6390(3) 1.0848(2) 0.12456(18)
O3 O 0.32371(18) 0.68827(16) 0.25708(13)
C1 C 0.3253(2) 0.8753(2) 0.09346(17)
C2 C 0.4776(2) 0.8670(2) 0.13901(18)
C3 C 0.0931(3) 0.6580(2) 0.33182(18)
C4 C -0.0553(3) 0.5920(2) 0.31448(18)
C5 C -0.1356(3) 0.5754(2) 0.3960(2)
C6 C -0.0686(3) 0.6254(3) 0.4957(2)
C7 C 0.0783(3) 0.6912(3) 0.51419(19)
C8 C 0.1595(3) 0.7067(2) 0.43283(18)
C9 C 0.1055(3) 0.6968(2) 0.16196(17)
C10 C 0.1823(3) 0.6811(2) 0.24619(17)
C11 C 0.0342(2) 0.7555(2) -0.01810(17)
C12 C -0.0166(3) 0.6814(2) -0.11679(18)
C13 C -0.1407(3) 0.6967(2) -0.17046(19)
C14 C -0.2118(3) 0.7882(2) -0.1260(2)
C15 C -0.1605(3) 0.8631(2) -0.0283(2)
C16 C -0.0381(3) 0.8468(2) 0.02628(18)
C17 C 0.2720(2) 0.62300(19) -0.01863(16)
C18 C 0.3599(3) 0.6487(2) -0.09478(17)
C19 C 0.4249(3) 0.5621(2) -0.15442(18)
C20 C 0.4026(3) 0.4491(2) -0.13845(18)
C21 C 0.3156(3) 0.4233(2) -0.06372(19)
C22 C 0.2504(2) 0.5103(2) -0.00306(18)
C23 C 0.7656(3) 0.9844(2) 0.25110(17)
C24 C 0.9043(3) 1.0604(2) 0.25247(18)
C25 C 1.0331(3) 1.0474(2) 0.30313(19)
C26 C 1.0230(3) 0.9582(2) 0.35124(19)
C27 C 0.8859(3) 0.8815(2) 0.3495(2)
C28 C 0.7578(3) 0.8945(2) 0.29957(19)
C29 C 0.5156(2) 1.0892(2) 0.30114(17)
C30 C 0.5246(3) 1.2106(2) 0.31965(18)
C31 C 0.4659(3) 1.2743(2) 0.4042(2)
C32 C 0.3996(3) 1.2151(3) 0.47173(19)
C33 C 0.3905(3) 1.0942(2) 0.45410(19)
C34 C 0.4461(3) 1.0295(2) 0.36834(19)
H1 H 0.3399 0.9027 0.0313
H2 H 0.2866 0.9364 0.1439
H5 H 0.5256 0.8177 0.0848
H6 H 0.4617 0.8267 0.1938
H7 H -0.1022 0.5578 0.2461
H8 H -0.2364 0.5297 0.3831
H9 H -0.1235 0.6146 0.5514
H10 H 0.1241 0.7260 0.5828
H11 H 0.2610 0.7508 0.4462
H12 H -0.0006 0.6860 0.1609
H13 H 0.0334 0.6202 -0.1477
H14 H -0.1769 0.6448 -0.2373
H15 H -0.2958 0.7992 -0.1629
H16 H -0.2088 0.9257 0.0017
H17 H -0.0036 0.8977 0.0937
H18 H 0.3749 0.7257 -0.1056
H19 H 0.4846 0.5796 -0.2062
H20 H 0.4476 0.3898 -0.1792
H21 H 0.3000 0.3460 -0.0535
H22 H 0.1913 0.4926 0.0489
H23 H 0.9113 1.1214 0.2188
H24 H 1.1274 1.0999 0.3045
H25 H 1.1107 0.9494 0.3857
H26 H 0.8796 0.8200 0.3825
H27 H 0.6638 0.8417 0.2984
H28 H 0.5715 1.2512 0.2740
H29 H 0.4712 1.3575 0.4157
H30 H 0.3604 1.2581 0.5302
H31 H 0.3458 1.0545 0.5010
H32 H 0.4370 0.9456 0.3556
loop_
_geom_bond_atom_site_label_1
_geom_bond_atom_site_label_2
_geom_bond_site_symmetry_1
_geom_bond_site_symmetry_2
P1 C1 1_555 1_555
P2 O2 1_555 1_555
O1 H3 1_555 1_555
O3 C10 1_555 1_555
C1 C2 1_555 1_555
C2 P2 1_555 1_555
C3 C4 1_555 1_555
C4 C5 1_555 1_555
C5 C6 1_555 1_555
C6 C7 1_555 1_555
C7 C8 1_555 1_555
C8 C3 1_555 1_555
C9 P1 1_555 1_555
C10 C3 1_555 1_555
C11 P1 1_555 1_555
C12 C11 1_555 1_555
C13 C12 1_555 1_555
C14 C13 1_555 1_555
C15 C14 1_555 1_555
C16 C11 1_555 1_555
C17 P1 1_555 1_555
C18 C17 1_555 1_555
C19 C18 1_555 1_555
C20 C19 1_555 1_555
C21 C20 1_555 1_555
C22 C17 1_555 1_555
C23 P2 1_555 1_555
C24 C23 1_555 1_555
C25 C24 1_555 1_555
C26 C25 1_555 1_555
C27 C26 1_555 1_555
C28 C23 1_555 1_555
C29 P2 1_555 1_555
C30 C29 1_555 1_555
C31 C30 1_555 1_555
C32 C31 1_555 1_555
C33 C32 1_555 1_555
C34 C29 1_555 1_555
H1 C1 1_555 1_555
H2 C1 1_555 1_555
H4 O1 1_555 1_555
H5 C2 1_555 1_555
H6 C2 1_555 1_555
H7 C4 1_555 1_555
H8 C5 1_555 1_555
H9 C6 1_555 1_555
H10 C7 1_555 1_555
H11 C8 1_555 1_555
H12 C9 1_555 1_555
H13 C12 1_555 1_555
H14 C13 1_555 1_555
H15 C14 1_555 1_555
H16 C15 1_555 1_555
H17 C16 1_555 1_555
H18 C18 1_555 1_555
H19 C19 1_555 1_555
H20 C20 1_555 1_555
H21 C21 1_555 1_555
H22 C22 1_555 1_555
H23 C24 1_555 1_555
H24 C25 1_555 1_555
H25 C26 1_555 1_555
H26 C27 1_555 1_555
H27 C28 1_555 1_555
H28 C30 1_555 1_555
H29 C31 1_555 1_555
H30 C32 1_555 1_555
H31 C33 1_555 1_555
H32 C34 1_555 1_555
C9 C10 1_555 1_555
C15 C16 1_555 1_555
C21 C22 1_555 1_555
C27 C28 1_555 1_555
C33 C34 1_555 1_555

#END
