
#######################################################################
#
#                 Cambridge Crystallographic Data Centre
#                                CCDC 
#
#######################################################################
#
# If this CIF has been generated from an entry in the Cambridge 
# Structural Database, then it will include bibliographic, chemical, 
# crystal, experimental, refinement or atomic coordinate data resulting 
# from the CCDC's data processing and validation procedures.
#
#######################################################################

data_EXUHEK
_chemical_formula_moiety         'C14 H7 F1 N2 O4'
_chemical_name_systematic        N-(4-Fluorophenyl)-4-nitrophthalimide
_symmetry_cell_setting           monoclinic
_symmetry_space_group_name_H-M   'P 21'
_symmetry_Int_Tables_number      4
_space_group_name_Hall           'P 2yb'
loop_
_symmetry_equiv_pos_site_id
_symmetry_equiv_pos_as_xyz
1 x,y,z
2 -x,1/2+y,-z
_cell_length_a                   3.7492(13)
_cell_length_b                   6.9376(14)
_cell_length_c                   23.099(8)
_cell_angle_alpha                90
_cell_angle_beta                 90.118(11)
_cell_angle_gamma                90
_cell_volume                     600.814
_exptl_crystal_colour            yellow
_exptl_crystal_description       plate
_cell_formula_units_Z            2
_exptl_crystal_recrystallization_method ethanol
loop_
_atom_site_label
_atom_site_type_symbol
_atom_site_fract_x
_atom_site_fract_y
_atom_site_fract_z
N1 N 0.8373(15) 0.5621(8) 0.2351(2)
C1 C 0.693(2) 0.6393(11) 0.2848(3)
O1 O 0.5499(14) 0.7969(7) 0.2890(2)
C2 C 0.9774(19) 0.3779(12) 0.2444(3)
O2 O 1.1382(14) 0.2786(7) 0.2098(2)
C3 C 0.901(2) 0.3314(10) 0.3067(3)
C4 C 0.974(2) 0.1666(11) 0.3377(3)
C5 C 0.862(2) 0.1736(11) 0.3950(3)
N2 N 0.9341(16) 0.0010(9) 0.4310(3)
O3 O 0.7959(16) -0.0063(9) 0.4793(2)
O4 O 1.1204(16) -0.1251(7) 0.4115(2)
C6 C 0.703(2) 0.3298(11) 0.4214(3)
C7 C 0.633(2) 0.4936(12) 0.3887(3)
C8 C 0.733(2) 0.4914(11) 0.3306(3)
C9 C 0.836(2) 0.6548(11) 0.1781(3)
C10 C 0.712(2) 0.5539(11) 0.1311(3)
C11 C 0.708(2) 0.6435(12) 0.0778(3)
C12 C 0.833(2) 0.8282(12) 0.0739(3)
F1 F 0.8358(13) 0.9151(6) 0.02062(18)
C13 C 0.958(2) 0.9307(11) 0.1198(3)
C14 C 0.965(2) 0.8390(10) 0.1744(3)
H1 H 1.0388 1.0597 0.1153
H2 H 1.0912 0.0579 0.3214
H3 H 0.6415 0.3254 0.4612
H4 H 0.5217 0.6034 0.4053
H5 H 0.6303 0.4249 0.1351
H6 H 0.6212 0.5783 0.0445
H7 H 1.0557 0.9033 0.2076
loop_
_geom_bond_atom_site_label_1
_geom_bond_atom_site_label_2
_geom_bond_site_symmetry_1
_geom_bond_site_symmetry_2
N1 C1 1_555 1_555
C1 O1 1_555 1_555
C2 N1 1_555 1_555
O2 C2 1_555 1_555
C3 C2 1_555 1_555
C4 C3 1_555 1_555
C5 C4 1_555 1_555
N2 C5 1_555 1_555
O3 N2 1_555 1_555
O4 N2 1_555 1_555
C6 C5 1_555 1_555
C7 C6 1_555 1_555
C8 C1 1_555 1_555
C9 N1 1_555 1_555
C10 C9 1_555 1_555
C11 C10 1_555 1_555
C12 C11 1_555 1_555
F1 C12 1_555 1_555
C13 C12 1_555 1_555
C14 C9 1_555 1_555
H1 C13 1_555 1_555
H2 C4 1_555 1_555
H3 C6 1_555 1_555
H4 C7 1_555 1_555
H5 C10 1_555 1_555
H6 C11 1_555 1_555
H7 C14 1_555 1_555
C3 C8 1_555 1_555
C7 C8 1_555 1_555
C13 C14 1_555 1_555

#END
