
#######################################################################
#
#                 Cambridge Crystallographic Data Centre
#                                CCDC 
#
#######################################################################
#
# If this CIF has been generated from an entry in the Cambridge 
# Structural Database, then it will include bibliographic, chemical, 
# crystal, experimental, refinement or atomic coordinate data resulting 
# from the CCDC's data processing and validation procedures.
#
#######################################################################

data_EXUJIS
_chemical_formula_moiety         'C14 H14 Br1 N1 O2 S1'
_chemical_name_systematic        
N-(2-bromo-4-methylphenyl)-4-methylbenzenesulfonamide
_symmetry_cell_setting           orthorhombic
_symmetry_space_group_name_H-M   'P c a 21'
_symmetry_Int_Tables_number      29
_space_group_name_Hall           'P 2c -2ac'
loop_
_symmetry_equiv_pos_site_id
_symmetry_equiv_pos_as_xyz
1 x,y,z
2 -x,-y,1/2+z
3 1/2+x,-y,z
4 1/2-x,y,1/2+z
_cell_length_a                   11.0367(2)
_cell_length_b                   12.7754(2)
_cell_length_c                   20.7955(5)
_cell_angle_alpha                90
_cell_angle_beta                 90
_cell_angle_gamma                90
_cell_volume                     2932.13
_exptl_crystal_colour            colorless
_exptl_crystal_description       parallelepiped
_cell_formula_units_Z            8
loop_
_atom_site_label
_atom_site_type_symbol
_atom_site_fract_x
_atom_site_fract_y
_atom_site_fract_z
Br1 Br 0.34838(3) 0.55246(2) 0.128171(15)
S1 S 0.56214(6) 0.80421(6) 0.18957(3)
O1 O 0.67575(17) 0.80491(17) 0.15634(10)
O2 O 0.52367(17) 0.89552(16) 0.22376(10)
N1 N 0.4591(2) 0.7795(2) 0.13422(12)
H1 H 0.479(3) 0.741(2) 0.1117(16)
C1 C 0.2715(2) 0.6786(2) 0.15431(13)
C2 C 0.1509(2) 0.6740(2) 0.17300(14)
H2 H 0.1089 0.6090 0.1720
C3 C 0.0916(2) 0.7636(3) 0.19299(14)
C4 C 0.1539(3) 0.8584(3) 0.19147(14)
H3 H 0.1141 0.9208 0.2045
C5 C 0.2732(2) 0.8627(2) 0.17116(13)
H4 H 0.3135 0.9283 0.1696
C6 C 0.3348(2) 0.7726(2) 0.15304(13)
C7 C -0.0394(3) 0.7580(3) 0.21661(19)
H5 H -0.0678 0.6854 0.2146
H6 H -0.0907 0.8020 0.1893
H7 H -0.0436 0.7829 0.2611
C8 C 0.5604(2) 0.6983(2) 0.24323(13)
C9 C 0.6496(2) 0.6219(3) 0.23925(15)
H8 H 0.7129 0.6275 0.2085
C10 C 0.6445(3) 0.5372(3) 0.28092(17)
H9 H 0.7068 0.4859 0.2791
C11 C 0.5512(3) 0.5248(3) 0.32541(16)
C12 C 0.4617(3) 0.6030(3) 0.32764(14)
H10 H 0.3966 0.5963 0.3572
C13 C 0.4665(2) 0.6895(2) 0.28768(13)
H11 H 0.4063 0.7424 0.2905
C14 C 0.5470(4) 0.4317(3) 0.36903(19)
H12 H 0.6170 0.3866 0.3605
H13 H 0.4722 0.3924 0.3612
H14 H 0.5490 0.4551 0.4139
Br2 Br 0.39043(3) 0.06687(2) 1.061940(16)
S2 S 0.21261(6) 0.33749(6) 1.00081(4)
O3 O 0.26143(19) 0.42154(15) 0.96390(10)
O4 O 0.10092(17) 0.35198(17) 1.03548(11)
N2 N 0.3136(2) 0.30567(19) 1.05552(12)
H15 H 0.288(3) 0.262(2) 1.0776(16)
C15 C 0.4854(2) 0.1839(2) 1.03727(13)
C16 C 0.6054(2) 0.1664(2) 1.02075(13)
H16 H 0.6378 0.0976 1.0231
C17 C 0.6787(2) 0.2488(2) 1.00077(14)
C18 C 0.6282(2) 0.3492(2) 0.99919(14)
H17 H 0.6766 0.4064 0.9853
C19 C 0.5099(2) 0.3672(2) 1.01721(13)
H18 H 0.4784 0.4364 1.0168
C20 C 0.4361(2) 0.2836(2) 1.03618(13)
C21 C 0.8084(3) 0.2294(3) 0.98190(16)
H19 H 0.8269 0.1547 0.9864
H20 H 0.8622 0.2701 1.0099
H21 H 0.8207 0.2507 0.9371
C22 C 0.1984(2) 0.2274(2) 0.95051(14)
C23 C 0.2804(3) 0.2145(2) 0.90030(15)
H22 H 0.3382 0.2674 0.8906
C24 C 0.2759(3) 0.1223(3) 0.86453(15)
H23 H 0.3336 0.1113 0.8313
C25 C 0.1890(3) 0.0463(3) 0.87646(15)
C26 C 0.1058(3) 0.0647(3) 0.92604(16)
H24 H 0.0438 0.0148 0.9341
C27 C 0.1118(3) 0.1525(2) 0.96296(15)
H25 H 0.0562 0.1621 0.9974
C28 C 0.1846(4) -0.0537(3) 0.8381(2)
H26 H 0.2482 -0.0526 0.8053
H27 H 0.1053 -0.0601 0.8173
H28 H 0.1974 -0.1135 0.8669
loop_
_geom_bond_atom_site_label_1
_geom_bond_atom_site_label_2
_geom_bond_site_symmetry_1
_geom_bond_site_symmetry_2
Br1 C1 1_555 1_555
S1 O1 1_555 1_555
O2 S1 1_555 1_555
N1 S1 1_555 1_555
H1 N1 1_555 1_555
C1 C2 1_555 1_555
C2 H2 1_555 1_555
C3 C2 1_555 1_555
C4 C3 1_555 1_555
H3 C4 1_555 1_555
C5 C4 1_555 1_555
H4 C5 1_555 1_555
C6 N1 1_555 1_555
C7 C3 1_555 1_555
H5 C7 1_555 1_555
H6 C7 1_555 1_555
H7 C7 1_555 1_555
C8 S1 1_555 1_555
C9 C8 1_555 1_555
H8 C9 1_555 1_555
C10 C9 1_555 1_555
H9 C10 1_555 1_555
C11 C10 1_555 1_555
C12 C11 1_555 1_555
H10 C12 1_555 1_555
C13 C8 1_555 1_555
H11 C13 1_555 1_555
C14 C11 1_555 1_555
H12 C14 1_555 1_555
H13 C14 1_555 1_555
H14 C14 1_555 1_555
Br2 C15 1_555 1_555
S2 O3 1_555 1_555
O4 S2 1_555 1_555
N2 S2 1_555 1_555
H15 N2 1_555 1_555
C15 C16 1_555 1_555
C16 H16 1_555 1_555
C17 C16 1_555 1_555
C18 C17 1_555 1_555
H17 C18 1_555 1_555
C19 C18 1_555 1_555
H18 C19 1_555 1_555
C20 N2 1_555 1_555
C21 C17 1_555 1_555
H19 C21 1_555 1_555
H20 C21 1_555 1_555
H21 C21 1_555 1_555
C22 S2 1_555 1_555
C23 C22 1_555 1_555
H22 C23 1_555 1_555
C24 C23 1_555 1_555
H23 C24 1_555 1_555
C25 C24 1_555 1_555
C26 C25 1_555 1_555
H24 C26 1_555 1_555
C27 C22 1_555 1_555
H25 C27 1_555 1_555
C28 C25 1_555 1_555
H26 C28 1_555 1_555
H27 C28 1_555 1_555
H28 C28 1_555 1_555
C1 C6 1_555 1_555
C5 C6 1_555 1_555
C12 C13 1_555 1_555
C15 C20 1_555 1_555
C19 C20 1_555 1_555
C26 C27 1_555 1_555

#END
