
#######################################################################
#
#                 Cambridge Crystallographic Data Centre
#                                CCDC 
#
#######################################################################
#
# If this CIF has been generated from an entry in the Cambridge 
# Structural Database, then it will include bibliographic, chemical, 
# crystal, experimental, refinement or atomic coordinate data resulting 
# from the CCDC's data processing and validation procedures.
#
#######################################################################

data_EXUSOG
_chemical_formula_moiety         'C25 H24 Br1 N1 O3'
_chemical_name_systematic        
2-(1-(4-Bromophenyl)-2-nitroethyl)-1,3-diphenylpentan-1-one
_symmetry_cell_setting           rhombohedral
_symmetry_space_group_name_H-M   'R 3'
_symmetry_Int_Tables_number      146
_space_group_name_Hall           'R 3'
loop_
_symmetry_equiv_pos_site_id
_symmetry_equiv_pos_as_xyz
1 x,y,z
2 -y,x-y,z
3 -x+y,-x,z
4 2/3+x,1/3+y,1/3+z
5 2/3-y,1/3+x-y,1/3+z
6 2/3-x+y,1/3-x,1/3+z
7 1/3+x,2/3+y,2/3+z
8 1/3-y,2/3+x-y,2/3+z
9 1/3-x+y,2/3-x,2/3+z
_cell_length_a                   20.3125(12)
_cell_length_b                   20.3125(12)
_cell_length_c                   15.9673(11)
_cell_angle_alpha                90
_cell_angle_beta                 90
_cell_angle_gamma                120
_cell_volume                     5705.44
_exptl_crystal_colour            colorless
_exptl_crystal_description       plate
_cell_formula_units_Z            9
loop_
_atom_site_label
_atom_site_type_symbol
_atom_site_fract_x
_atom_site_fract_y
_atom_site_fract_z
Br1 Br 0.49740(11) 1.07223(9) 0.41764(10)
C1 C 0.3457(4) 0.9035(4) 0.2092(4)
O1 O 0.2421(3) 0.6878(3) 0.2138(4)
C2 C 0.2338(4) 0.7427(4) 0.3387(6)
C3 C 0.2912(4) 0.8464(4) 0.1467(5)
H1 H 0.2764 0.8742 0.1081
C4 C 0.2337(4) 0.7381(4) 0.2490(6)
C5 C 0.2187(4) 0.7901(4) 0.1957(5)
H2 H 0.2053 0.8199 0.2331
C6 C 0.3380(5) 0.9630(4) 0.2322(5)
H3 H 0.3021 0.9709 0.2048
C7 C 0.3246(4) 0.8087(4) 0.0947(5)
H4 H 0.3481 0.7881 0.1311
H5 H 0.2845 0.7670 0.0635
C8 C 0.3997(4) 0.8953(4) 0.2495(5)
H6 H 0.4057 0.8543 0.2348
C9 C 0.2363(4) 0.6855(5) 0.3865(8)
H7 H 0.2377 0.6459 0.3590
C10 C 0.4466(5) 0.9438(5) 0.3113(6)
H8 H 0.4842 0.9373 0.3367
C11 C 0.1342(4) 0.7941(5) 0.0753(5)
C12 C 0.1172(5) 0.8460(5) 0.1118(5)
H9 H 0.1155 0.8491 0.1698
C13 C 0.1026(5) 0.8932(5) 0.0616(7)
H10 H 0.0913 0.9279 0.0860
C14 C 0.1051(5) 0.8885(6) -0.0251(7)
H11 H 0.0954 0.9201 -0.0587
C15 C 0.1221(5) 0.8367(7) -0.0616(4)
H12 H 0.1238 0.8336 -0.1195
C16 C 0.1367(5) 0.7895(6) -0.0113(6)
H13 H 0.1480 0.7548 -0.0358
C17 C 0.3807(6) 1.0122(5) 0.2939(7)
H14 H 0.3735 1.0522 0.3095
C18 C 0.2366(6) 0.6867(8) 0.4757(8)
H15 H 0.2353 0.6469 0.5060
C19 C 0.2363(6) 0.8017(7) 0.4684(9)
H16 H 0.2363 0.8420 0.4960
N1 N 0.3812(5) 0.8628(6) 0.0365(5)
C20 C 0.2389(6) 0.7471(7) 0.5161(7)
H17 H 0.2420 0.7510 0.5742
C21 C 0.4346(5) 1.0009(5) 0.3323(5)
C22 C 0.2338(5) 0.8010(5) 0.3810(6)
H18 H 0.2321 0.8399 0.3520
O2 O 0.3781(6) 0.9068(6) 0.0038(7)
O3 O 0.4364(6) 0.8607(7) 0.0257(6)
C23 C 0.0759(5) 0.6903(6) 0.1908(8)
H19 H 0.0650 0.7224 0.2263
H20 H 0.0876 0.6589 0.2267
C24 C 0.0021(7) 0.6364(7) 0.1338(8)
H21 H 0.0108 0.6006 0.1037
H22 H -0.0066 0.6672 0.0948
H23 H -0.0417 0.6095 0.1692
C25 C 0.1471(5) 0.7419(5) 0.1329(6)
H24 H 0.1581 0.7086 0.0983
loop_
_geom_bond_atom_site_label_1
_geom_bond_atom_site_label_2
_geom_bond_site_symmetry_1
_geom_bond_site_symmetry_2
Br1 C21 1_555 1_555
C1 C3 1_555 1_555
O1 C4 1_555 1_555
C2 C4 1_555 1_555
C3 H1 1_555 1_555
C4 C5 1_555 1_555
C5 C3 1_555 1_555
H2 C5 1_555 1_555
C6 C1 1_555 1_555
H3 C6 1_555 1_555
C7 C3 1_555 1_555
H4 C7 1_555 1_555
H5 C7 1_555 1_555
C8 C1 1_555 1_555
H6 C8 1_555 1_555
C9 C2 1_555 1_555
H7 C9 1_555 1_555
C10 C8 1_555 1_555
H8 C10 1_555 1_555
C11 C12 1_555 1_555
C12 H9 1_555 1_555
C13 C12 1_555 1_555
H10 C13 1_555 1_555
C14 C13 1_555 1_555
H11 C14 1_555 1_555
C15 C14 1_555 1_555
H12 C15 1_555 1_555
C16 C11 1_555 1_555
H13 C16 1_555 1_555
C17 C6 1_555 1_555
H14 C17 1_555 1_555
C18 C9 1_555 1_555
H15 C18 1_555 1_555
C19 H16 1_555 1_555
N1 C7 1_555 1_555
C20 C18 1_555 1_555
H17 C20 1_555 1_555
C21 C10 1_555 1_555
C22 C2 1_555 1_555
H18 C22 1_555 1_555
O2 N1 1_555 1_555
O3 N1 1_555 1_555
C23 H19 1_555 1_555
H20 C23 1_555 1_555
C24 C23 1_555 1_555
H21 C24 1_555 1_555
H22 C24 1_555 1_555
H23 C24 1_555 1_555
C25 C5 1_555 1_555
H24 C25 1_555 1_555
C11 C25 1_555 1_555
C15 C16 1_555 1_555
C17 C21 1_555 1_555
C19 C20 1_555 1_555
C19 C22 1_555 1_555
C23 C25 1_555 1_555

#END
