
#######################################################################
#
#                 Cambridge Crystallographic Data Centre
#                                CCDC 
#
#######################################################################
#
# If this CIF has been generated from an entry in the Cambridge 
# Structural Database, then it will include bibliographic, chemical, 
# crystal, experimental, refinement or atomic coordinate data resulting 
# from the CCDC's data processing and validation procedures.
#
#######################################################################

data_EYADEN
_chemical_name_common            'Boropinic acid'
_chemical_formula_moiety         'C15 H18 O4'
_chemical_name_systematic        
'3-(3-Methoxy-4-(3-methylbut-2-enoxy)phenyl)-2-propenoic acid'
_symmetry_cell_setting           monoclinic
_symmetry_space_group_name_H-M   'P 21/n'
_symmetry_Int_Tables_number      14
_space_group_name_Hall           '-P 2yn'
loop_
_symmetry_equiv_pos_site_id
_symmetry_equiv_pos_as_xyz
1 x,y,z
2 1/2-x,1/2+y,1/2-z
3 -x,-y,-z
4 1/2+x,1/2-y,1/2+z
_cell_length_a                   13.286(3)
_cell_length_b                   5.212(1)
_cell_length_c                   20.249(4)
_cell_angle_alpha                90
_cell_angle_beta                 100.81
_cell_angle_gamma                90
_cell_volume                     1377.29
_chemical_melting_point          '135-136 deg.C'
_cell_formula_units_Z            4
loop_
_atom_site_label
_atom_site_type_symbol
_atom_site_fract_x
_atom_site_fract_y
_atom_site_fract_z
O1 O 1.3847(2) -0.1373(5) 0.4682(1)
O2 O 1.4561(2) 0.2139(6) 0.4364(1)
O3 O 0.8816(2) -0.3606(4) 0.2436(1)
O4 O 0.8782(1) -0.0190(4) 0.1511(1)
C1 C 1.1281(2) 0.1320(6) 0.2549(1)
C2 C 1.0451(2) 0.1461(6) 0.2031(1)
C3 C 0.9627(2) -0.0221(5) 0.1993(1)
C4 C 0.9651(2) -0.2069(5) 0.2503(1)
C5 C 1.0495(2) -0.2192(5) 0.3020(1)
C6 C 1.1325(2) -0.0500(5) 0.3053(1)
C7 C 1.2197(2) -0.0685(6) 0.3608(1)
C8 C 1.2984(2) 0.0914(6) 0.3741(1)
C9 C 1.3837(2) 0.0486(6) 0.4301(1)
C10 C 0.8741(2) -0.5395(6) 0.2963(2)
C11 C 0.8731(2) 0.1769(7) 0.1005(1)
C12 C 0.7781(2) 0.1378(6) 0.0497(1)
C13 C 0.6950(2) 0.2854(6) 0.0423(2)
C14 C 0.6799(3) 0.5047(8) 0.0876(3)
C15 C 0.6062(3) 0.2317(9) -0.0137(2)
loop_
_geom_bond_atom_site_label_1
_geom_bond_atom_site_label_2
_geom_bond_site_symmetry_1
_geom_bond_site_symmetry_2
O1 C9 1_555 1_555
O2 C9 1_555 1_555
O3 C4 1_555 1_555
O4 C3 1_555 1_555
C1 C2 1_555 1_555
C2 C3 1_555 1_555
C3 C4 1_555 1_555
C4 C5 1_555 1_555
C5 C6 1_555 1_555
C6 C1 1_555 1_555
C7 C6 1_555 1_555
C8 C7 1_555 1_555
C9 C8 1_555 1_555
C10 O3 1_555 1_555
C11 O4 1_555 1_555
C12 C11 1_555 1_555
C13 C12 1_555 1_555
C14 C13 1_555 1_555
C15 C13 1_555 1_555

#END
