
#######################################################################
#
#                 Cambridge Crystallographic Data Centre
#                                CCDC 
#
#######################################################################
#
# If this CIF has been generated from an entry in the Cambridge 
# Structural Database, then it will include bibliographic, chemical, 
# crystal, experimental, refinement or atomic coordinate data resulting 
# from the CCDC's data processing and validation procedures.
#
#######################################################################

data_EYADOX
_chemical_formula_moiety         'C33 H32 N2 O4'
_chemical_name_systematic        
1,3,3-Trimethyl-6'-(4-n-butoxybenzoyloxy)spiro(2H)-indol-2,3'-(3H)-naphtho(2,1-b)(1,4)oxazine
_symmetry_cell_setting           monoclinic
_symmetry_space_group_name_H-M   'C 2'
_symmetry_Int_Tables_number      5
_space_group_name_Hall           'C 2y'
loop_
_symmetry_equiv_pos_site_id
_symmetry_equiv_pos_as_xyz
1 x,y,z
2 -x,y,-z
3 1/2+x,1/2+y,z
4 1/2-x,1/2+y,-z
_cell_length_a                   25.421(5)
_cell_length_b                   8.298(2)
_cell_length_c                   30.567(6)
_cell_angle_alpha                90
_cell_angle_beta                 111.51(3)
_cell_angle_gamma                90
_cell_volume                     5998.83
_exptl_crystal_colour            colorless
_chemical_melting_point          '156-159 deg.C'
_cell_formula_units_Z            8
_chemical_properties_physical    light-sensitive
_exptl_crystal_recrystallization_method acetone/ethanol
_exptl_crystal_preparation       
'photochromic and thermochromic reversibly forming the blue-colored open ring form'
loop_
_atom_site_label
_atom_site_type_symbol
_atom_site_fract_x
_atom_site_fract_y
_atom_site_fract_z
O1 O 0.3449(4) 0.4546(13) -0.1029(4)
O2 O 0.3987(4) 0.3452(14) 0.1438(4)
O3 O 0.3427(5) 0.1538(17) 0.1482(4)
O4 O 0.5322(4) 0.0723(12) 0.3485(4)
N1 N 0.4198(6) 0.4350(2) -0.1298(6)
N2 N 0.4153(6) 0.3390(17) -0.0150(4)
C1 C 0.3878(6) 0.3850(3) -0.1770(6)
C2 C 0.3875(8) 0.4550(2) -0.2164(7)
C3 C 0.3583(7) 0.3910(3) -0.2592(7)
C4 C 0.3253(8) 0.2630(3) -0.2628(7)
C5 C 0.3267(5) 0.1844(19) -0.2203(7)
C6 C 0.3586(6) 0.2422(15) -0.1775(6)
C7 C 0.3679(5) 0.2008(48) -0.1295(5)
C8 C 0.3897(5) 0.3470(2) -0.1009(4)
C9 C 0.4522(14) 0.5500(7) -0.1138(8)
C10 C 0.3188(6) 0.1150(2) -0.1195(7)
C11 C 0.4152(7) 0.0640(2) -0.1118(6)
C12 C 0.4293(6) 0.3050(3) -0.0508(6)
C13 C 0.3611(5) 0.4026(19) -0.0210(6)
C14 C 0.3280(5) 0.4604(18) -0.0665(5)
C15 C 0.2777(6) 0.5350(2) -0.0706(6)
C16 C 0.2621(5) 0.5570(2) -0.0330(8)
C17 C 0.2936(5) 0.4984(18) 0.0109(6)
C18 C 0.3443(7) 0.4263(17) 0.0195(6)
C19 C 0.3802(6) 0.3570(19) 0.0647(7)
C20 C 0.3626(6) 0.3940(2) 0.1012(7)
C21 C 0.3120(7) 0.4620(2) 0.0926(5)
C22 C 0.2775(5) 0.5170(2) 0.0487(7)
C23 C 0.3864(6) 0.2220(2) 0.1676(6)
C24 C 0.4251(6) 0.1905(15) 0.2132(5)
C25 C 0.4766(6) 0.2630(19) 0.2328(5)
C26 C 0.5114(5) 0.2379(17) 0.2767(6)
C27 C 0.4992(6) 0.1223(17) 0.3039(6)
C28 C 0.4495(6) 0.0385(18) 0.2856(5)
C29 C 0.4125(6) 0.0720(2) 0.2419(7)
C30 C 0.5821(7) 0.1520(3) 0.3741(6)
C31 C 0.6086(6) 0.0960(2) 0.4208(7)
C32 C 0.5790(8) 0.1340(3) 0.4492(6)
C33 C 0.6071(9) 0.0890(3) 0.4987(7)
loop_
_geom_bond_atom_site_label_1
_geom_bond_atom_site_label_2
_geom_bond_site_symmetry_1
_geom_bond_site_symmetry_2
O1 C8 1_555 1_555
O2 C20 1_555 1_555
O3 C23 1_555 1_555
O4 C27 1_555 1_555
N1 C1 1_555 1_555
N2 C12 1_555 1_555
C1 C2 1_555 1_555
C2 C3 1_555 1_555
C3 C4 1_555 1_555
C4 C5 1_555 1_555
C5 C6 1_555 1_555
C6 C1 1_555 1_555
C7 C6 1_555 1_555
C8 N1 1_555 1_555
C9 N1 1_555 1_555
C10 C7 1_555 1_555
C11 C7 1_555 1_555
C12 C8 1_555 1_555
C13 N2 1_555 1_555
C14 O1 1_555 1_555
C15 C14 1_555 1_555
C16 C15 1_555 1_555
C17 C16 1_555 1_555
C18 C13 1_555 1_555
C19 C18 1_555 1_555
C20 C19 1_555 1_555
C21 C20 1_555 1_555
C22 C17 1_555 1_555
C23 O2 1_555 1_555
C24 C23 1_555 1_555
C25 C24 1_555 1_555
C26 C25 1_555 1_555
C27 C26 1_555 1_555
C28 C27 1_555 1_555
C29 C24 1_555 1_555
C30 O4 1_555 1_555
C31 C30 1_555 1_555
C32 C31 1_555 1_555
C33 C32 1_555 1_555
C7 C8 1_555 1_555
C13 C14 1_555 1_555
C17 C18 1_555 1_555
C21 C22 1_555 1_555
C28 C29 1_555 1_555

#END
