
#######################################################################
#
#                 Cambridge Crystallographic Data Centre
#                                CCDC 
#
#######################################################################
#
# If this CIF has been generated from an entry in the Cambridge 
# Structural Database, then it will include bibliographic, chemical, 
# crystal, experimental, refinement or atomic coordinate data resulting 
# from the CCDC's data processing and validation procedures.
#
#######################################################################

data_EYAQIF
_chemical_formula_moiety         'C9 H10 N2 O2'
_chemical_name_systematic        N'-(2-Hydroxybenzylidene)acetohydrazide
_symmetry_cell_setting           monoclinic
_symmetry_space_group_name_H-M   'P 21/n'
_symmetry_Int_Tables_number      14
_space_group_name_Hall           '-P 2yn'
loop_
_symmetry_equiv_pos_site_id
_symmetry_equiv_pos_as_xyz
1 x,y,z
2 1/2-x,1/2+y,1/2-z
3 -x,-y,-z
4 1/2+x,1/2-y,1/2+z
_cell_length_a                   4.5294(5)
_cell_length_b                   26.375(2)
_cell_length_c                   7.5437(8)
_cell_angle_alpha                90
_cell_angle_beta                 95.434(1)
_cell_angle_gamma                90
_cell_volume                     897.142
_cell_formula_units_Z            4
loop_
_atom_site_label
_atom_site_type_symbol
_atom_site_fract_x
_atom_site_fract_y
_atom_site_fract_z
N1 N 0.4961(3) 0.0841 0.5748(2)
N2 N 0.2874(3) 0.0461 0.5816(2)
H1 H 0.2198 0.0312 0.4848
O1 O 0.8499(3) 0.1567 0.7129(2)
H2 H 0.7337 0.1329 0.7143
O2 O -0.0025(3) -0.0016 0.7387(2)
C1 C 0.5772(4) 0.0954(1) 0.4207(2)
H3 H 0.4976 0.0775 0.3212
C2 C 0.7909(4) 0.1357(1) 0.3987(2)
C3 C 0.9153(4) 0.1652(1) 0.5421(2)
C4 C 1.1097(4) 0.2044(1) 0.5133(3)
H4 H 1.1901 0.2240 0.6084
C5 C 1.1835(5) 0.2143(1) 0.3434(3)
H5 H 1.3126 0.2408 0.3249
C6 C 1.0682(4) 0.1854(1) 0.1997(3)
H6 H 1.1213 0.1919 0.0858
C7 C 0.8735(4) 0.1468(1) 0.2288(2)
H7 H 0.7945 0.1275 0.1325
C8 C 0.1876(4) 0.0321(1) 0.7372(2)
C9 C 0.3147(5) 0.0582(1) 0.9035(2)
H8 H 0.2224 0.0453 1.0036
H9 H 0.2788 0.0940 0.8928
H10 H 0.5244 0.0522 0.9207
loop_
_geom_bond_atom_site_label_1
_geom_bond_atom_site_label_2
_geom_bond_site_symmetry_1
_geom_bond_site_symmetry_2
N1 N2 1_555 1_555
N2 H1 1_555 1_555
O1 H2 1_555 1_555
O2 C8 1_555 1_555
C1 N1 1_555 1_555
H3 C1 1_555 1_555
C2 C1 1_555 1_555
C3 O1 1_555 1_555
C4 C3 1_555 1_555
H4 C4 1_555 1_555
C5 C4 1_555 1_555
H5 C5 1_555 1_555
C6 C5 1_555 1_555
H6 C6 1_555 1_555
C7 C2 1_555 1_555
H7 C7 1_555 1_555
C8 N2 1_555 1_555
C9 C8 1_555 1_555
H8 C9 1_555 1_555
H9 C9 1_555 1_555
H10 C9 1_555 1_555
C2 C3 1_555 1_555
C6 C7 1_555 1_555

#END
