
#######################################################################
#
#                 Cambridge Crystallographic Data Centre
#                                CCDC 
#
#######################################################################
#
# If this CIF has been generated from an entry in the Cambridge 
# Structural Database, then it will include bibliographic, chemical, 
# crystal, experimental, refinement or atomic coordinate data resulting 
# from the CCDC's data processing and validation procedures.
#
#######################################################################

data_EYAQIF01
_chemical_formula_moiety         'C9 H10 N2 O2'
_chemical_name_systematic        N'-(2-hydroxybenzylidene)acetohydrazide
_symmetry_cell_setting           monoclinic
_symmetry_space_group_name_H-M   'P 21/n'
_symmetry_Int_Tables_number      14
_space_group_name_Hall           '-P 2yn'
loop_
_symmetry_equiv_pos_site_id
_symmetry_equiv_pos_as_xyz
1 x,y,z
2 1/2-x,1/2+y,1/2-z
3 -x,-y,-z
4 1/2+x,1/2-y,1/2+z
_cell_length_a                   4.44860(10)
_cell_length_b                   25.8691(6)
_cell_length_c                   7.4266(2)
_cell_angle_alpha                90
_cell_angle_beta                 95.8670(10)
_cell_angle_gamma                90
_cell_volume                     850.186
_exptl_crystal_colour            colorless
_exptl_crystal_description       block
_cell_formula_units_Z            4
loop_
_atom_site_label
_atom_site_type_symbol
_atom_site_fract_x
_atom_site_fract_y
_atom_site_fract_z
O1 O 0.6262(2) 0.84365(4) 0.28193(12)
H1 H 0.7542 0.8675 0.2821
O2 O 1.50108(19) 1.00180(3) 0.25847(12)
N1 N 1.2041(2) 0.95428(4) 0.41900(14)
H2 H 1.2766 0.9698 0.5197
N2 N 0.9893(2) 0.91624(4) 0.42478(14)
C1 C 0.5600(3) 0.83489(5) 0.45400(17)
C2 C 0.3594(3) 0.79514(5) 0.48198(18)
H3 H 0.2743 0.7751 0.3823
C3 C 0.2834(3) 0.78466(5) 0.65385(19)
H4 H 0.1480 0.7572 0.6717
C4 C 0.4033(3) 0.81399(5) 0.80157(19)
H5 H 0.3484 0.8070 0.9194
C5 C 0.6031(3) 0.85340(5) 0.77401(17)
H6 H 0.6853 0.8734 0.8744
C6 C 0.6875(3) 0.86455(5) 0.60181(17)
C7 C 0.9077(3) 0.90510(5) 0.58096(17)
H7 H 0.9923 0.9236 0.6845
C8 C 1.3047(3) 0.96810(5) 0.26058(17)
C9 C 1.1694(3) 0.94169(5) 0.09160(17)
H8 H 1.2627 0.9552 -0.0128
H9 H 0.9513 0.9483 0.0751
H10 H 1.2056 0.9044 0.1020
loop_
_geom_bond_atom_site_label_1
_geom_bond_atom_site_label_2
_geom_bond_site_symmetry_1
_geom_bond_site_symmetry_2
O1 H1 1_555 1_555
O2 C8 1_555 1_555
N1 H2 1_555 1_555
N2 N1 1_555 1_555
C1 O1 1_555 1_555
C2 C1 1_555 1_555
H3 C2 1_555 1_555
C3 C2 1_555 1_555
H4 C3 1_555 1_555
C4 C3 1_555 1_555
H5 C4 1_555 1_555
C5 C4 1_555 1_555
H6 C5 1_555 1_555
C6 C1 1_555 1_555
C7 N2 1_555 1_555
H7 C7 1_555 1_555
C8 N1 1_555 1_555
C9 C8 1_555 1_555
H8 C9 1_555 1_555
H9 C9 1_555 1_555
H10 C9 1_555 1_555
C5 C6 1_555 1_555
C6 C7 1_555 1_555

#END
