
#######################################################################
#
#                 Cambridge Crystallographic Data Centre
#                                CCDC 
#
#######################################################################
#
# If this CIF has been generated from an entry in the Cambridge 
# Structural Database, then it will include bibliographic, chemical, 
# crystal, experimental, refinement or atomic coordinate data resulting 
# from the CCDC's data processing and validation procedures.
#
#######################################################################

data_EYATII
_chemical_formula_moiety         'C17 H11 Cl1 N2 O3'
_chemical_name_systematic        
N-(2-Chloro-3-formyl-7-phenoxyquinolin-6-yl)formamide
_symmetry_cell_setting           triclinic
_symmetry_space_group_name_H-M   'P -1'
_symmetry_Int_Tables_number      2
_space_group_name_Hall           '-P 1'
loop_
_symmetry_equiv_pos_site_id
_symmetry_equiv_pos_as_xyz
1 x,y,z
2 -x,-y,-z
_cell_length_a                   5.3015(9)
_cell_length_b                   9.0196(19)
_cell_length_c                   15.454(4)
_cell_angle_alpha                99.011(4)
_cell_angle_beta                 92.710(4)
_cell_angle_gamma                93.355(2)
_cell_volume                     727.404
_exptl_crystal_colour            colorless
_exptl_crystal_description       needle
_chemical_melting_point          '206-208 deg.C'
_cell_formula_units_Z            2
loop_
_atom_site_label
_atom_site_type_symbol
_atom_site_fract_x
_atom_site_fract_y
_atom_site_fract_z
Cl1 Cl -0.61852(8) 0.51058(4) 0.66802(3)
O1 O 0.3186(3) -0.03111(12) 0.74748(8)
O2 O 0.6486(3) 0.31864(13) 1.00372(7)
O3 O -0.2643(3) 0.81883(12) 0.87699(8)
N1 N -0.2850(3) 0.33039(14) 0.70701(9)
N2 N 0.5083(3) 0.12469(15) 0.89556(9)
H1 H 0.547(4) 0.040(3) 0.8749(14)
C1 C 0.2055(3) 0.10130(16) 0.77202(10)
C2 C 0.3123(4) 0.18763(16) 0.85309(10)
C3 C 0.2181(4) 0.32495(16) 0.88179(10)
H2 H 0.289(3) 0.385(2) 0.9344(12)
C4 C 0.0189(3) 0.37779(16) 0.83410(10)
C5 C -0.0830(4) 0.51868(16) 0.85888(10)
H3 H -0.012(4) 0.583(2) 0.9117(13)
C6 C -0.2791(3) 0.56262(16) 0.80998(10)
C7 C -0.3732(3) 0.45956(17) 0.73409(10)
C8 C -0.0890(3) 0.28783(16) 0.75562(10)
C9 C 0.0125(3) 0.14914(17) 0.72538(10)
H4 H -0.060(4) 0.092(2) 0.6681(13)
C10 C 0.2381(3) -0.11459(16) 0.66481(10)
C11 C 0.0170(4) -0.20551(18) 0.65568(12)
H5 H -0.078(4) -0.203(2) 0.7053(15)
C12 C -0.0513(3) -0.29201(18) 0.57468(13)
H6 H -0.201(4) -0.355(2) 0.5669(14)
C13 C 0.1001(3) -0.28652(18) 0.50501(11)
H7 H 0.052(4) -0.345(2) 0.4474(13)
C14 C 0.3204(4) -0.19467(19) 0.51546(12)
H8 H 0.428(4) -0.192(2) 0.4674(15)
C15 C 0.3900(3) -0.10676(18) 0.59642(11)
H9 H 0.538(4) -0.041(2) 0.6036(14)
C16 C 0.6601(4) 0.19109(18) 0.96576(10)
H10 H 0.789(4) 0.119(2) 0.9841(12)
C17 C -0.3852(4) 0.71091(17) 0.83411(11)
H11 H -0.561(4) 0.718(2) 0.8124(13)
loop_
_geom_bond_atom_site_label_1
_geom_bond_atom_site_label_2
_geom_bond_site_symmetry_1
_geom_bond_site_symmetry_2
Cl1 C7 1_555 1_555
O1 C1 1_555 1_555
O2 C16 1_555 1_555
O3 C17 1_555 1_555
N1 C7 1_555 1_555
N2 H1 1_555 1_555
C1 C2 1_555 1_555
C2 N2 1_555 1_555
C3 C2 1_555 1_555
H2 C3 1_555 1_555
C4 C3 1_555 1_555
C5 C4 1_555 1_555
H3 C5 1_555 1_555
C6 C5 1_555 1_555
C7 C6 1_555 1_555
C8 N1 1_555 1_555
C9 C1 1_555 1_555
H4 C9 1_555 1_555
C10 O1 1_555 1_555
C11 C10 1_555 1_555
H5 C11 1_555 1_555
C12 C11 1_555 1_555
H6 C12 1_555 1_555
C13 C12 1_555 1_555
H7 C13 1_555 1_555
C14 C13 1_555 1_555
H8 C14 1_555 1_555
C15 C10 1_555 1_555
H9 C15 1_555 1_555
C16 N2 1_555 1_555
H10 C16 1_555 1_555
C17 C6 1_555 1_555
H11 C17 1_555 1_555
C4 C8 1_555 1_555
C8 C9 1_555 1_555
C14 C15 1_555 1_555

#END
