
#######################################################################
#
#                 Cambridge Crystallographic Data Centre
#                                CCDC 
#
#######################################################################
#
# If this CIF has been generated from an entry in the Cambridge 
# Structural Database, then it will include bibliographic, chemical, 
# crystal, experimental, refinement or atomic coordinate data resulting 
# from the CCDC's data processing and validation procedures.
#
#######################################################################

data_EYAYOU
_chemical_name_common            'Stanozolol saccharinate'
_chemical_formula_moiety         'C21 H33 N2 O1 1+,C7 H4 N1 O3 S1 1-'
_chemical_name_systematic        
'1-hydroxy-1,10a,12a-trimethyl-1,2,3,3a,3b,4,5,5a,6,7,10,10a,10b,11,12,12a-hexadecahydrocyclopenta[5,6]naphtho[1,2-f]indazol-8-ium 3-oxo-3H-1,2-benzothiazol-2-ide 1,1-dioxide'
_chemical_properties_biological  
'Stanozolol is used for treating anemia, hereditary angioedema and osteoporosis'
_symmetry_cell_setting           orthorhombic
_symmetry_space_group_name_H-M   'P 21 21 21'
_symmetry_Int_Tables_number      19
_space_group_name_Hall           'P 2ac 2ab'
loop_
_symmetry_equiv_pos_site_id
_symmetry_equiv_pos_as_xyz
1 x,y,z
2 1/2-x,-y,1/2+z
3 -x,1/2+y,1/2-z
4 1/2+x,1/2-y,-z
_cell_length_a                   7.8028(6)
_cell_length_b                   17.6121(12)
_cell_length_c                   18.6177(12)
_cell_angle_alpha                90
_cell_angle_beta                 90
_cell_angle_gamma                90
_cell_volume                     2558.51
_exptl_crystal_colour            colorless
_exptl_crystal_description       block
_cell_formula_units_Z            4
loop_
_atom_site_label
_atom_site_type_symbol
_atom_site_fract_x
_atom_site_fract_y
_atom_site_fract_z
S1 S -0.54883(6) 0.78934(3) 0.38436(2)
O1 O -0.4739(2) 0.86219(9) 0.39884(9)
O2 O -0.5423(2) 0.73564(10) 0.44203(8)
O3 O -0.5531(2) 0.72818(11) 0.19692(8)
N1 N -0.4688(2) 0.75220(9) 0.31208(8)
C1 C -0.5829(3) 0.75249(11) 0.25776(10)
C2 C -0.7540(2) 0.78280(10) 0.27871(9)
C3 C -0.9000(3) 0.79113(11) 0.23702(11)
H1 H -0.8987 0.7788 0.1884
C4 C -1.0474(3) 0.81812(11) 0.26925(12)
H2 H -1.1464 0.8242 0.2420
C5 C -1.0498(3) 0.83621(11) 0.34146(12)
H3 H -1.1508 0.8539 0.3620
C6 C -0.9051(3) 0.82854(12) 0.38379(12)
H4 H -0.9065 0.8406 0.4324
C7 C -0.7584(2) 0.80220(10) 0.35052(10)
O4 O 0.75017(18) 0.33623(8) 0.66292(6)
H5 H 0.8377 0.3148 0.6765
N2 N -0.1000(2) 0.62373(8) 0.28557(8)
H6 H -0.1238 0.6215 0.2405
N3 N -0.1965(2) 0.65760(9) 0.33603(8)
C8 C 0.0397(3) 0.59384(10) 0.31694(9)
C9 C 0.1774(2) 0.54806(11) 0.28188(9)
H7 H 0.2217 0.5754 0.2406
H8 H 0.1300 0.5004 0.2651
C10 C 0.3247(2) 0.53214(10) 0.33515(9)
H9 H 0.3936 0.5785 0.3383
C11 C 0.4410(3) 0.46962(11) 0.30566(9)
H10 H 0.3728 0.4245 0.2970
H11 H 0.4878 0.4860 0.2600
C12 C 0.5886(2) 0.44938(11) 0.35610(9)
H12 H 0.6675 0.4918 0.3588
H13 H 0.6505 0.4062 0.3368
C13 C 0.5240(2) 0.43016(9) 0.43173(8)
H14 H 0.4482 0.3859 0.4284
C14 C 0.6704(2) 0.41107(9) 0.48285(9)
H15 H 0.7490 0.4545 0.4823
C15 C 0.7780(2) 0.34023(10) 0.46764(9)
H16 H 0.8620 0.3501 0.4304
H17 H 0.7060 0.2982 0.4528
C16 C 0.8670(2) 0.32293(11) 0.54055(9)
H18 H 0.8492 0.2703 0.5540
H19 H 0.9893 0.3322 0.5371
C17 C 0.7847(2) 0.37677(10) 0.59692(9)
C18 C 0.6130(2) 0.39982(9) 0.56140(9)
C19 C 0.5303(2) 0.47329(10) 0.58710(9)
H20 H 0.6128 0.5144 0.5843
H21 H 0.4953 0.4679 0.6368
C20 C 0.3741(2) 0.49232(11) 0.54071(9)
H22 H 0.3259 0.5403 0.5565
H23 H 0.2875 0.4534 0.5473
C21 C 0.4191(2) 0.49796(9) 0.46020(9)
H24 H 0.4933 0.5426 0.4553
C22 C 0.2602(2) 0.51363(10) 0.41227(8)
C23 C 0.1643(3) 0.58365(11) 0.44203(10)
H25 H 0.1097 0.5707 0.4872
H26 H 0.2453 0.6243 0.4510
C24 C 0.0315(2) 0.60986(10) 0.38943(9)
C25 C -0.1188(3) 0.65049(11) 0.39924(10)
H27 H -0.1587 0.6696 0.4427
C26 C 0.9015(2) 0.44298(11) 0.61500(11)
H28 H 0.8478 0.4744 0.6506
H29 H 0.9224 0.4724 0.5725
H30 H 1.0083 0.4241 0.6333
C27 C 0.4851(2) 0.33402(10) 0.56920(9)
H31 H 0.3972 0.3387 0.5334
H32 H 0.4342 0.3356 0.6161
H33 H 0.5441 0.2866 0.5630
C28 C 0.1363(2) 0.44600(11) 0.41120(10)
H34 H 0.0350 0.4595 0.3849
H35 H 0.1055 0.4328 0.4595
H36 H 0.1907 0.4034 0.3885
H37 H -0.291(3) 0.6843(12) 0.3265(11)
loop_
_geom_bond_atom_site_label_1
_geom_bond_atom_site_label_2
_geom_bond_site_symmetry_1
_geom_bond_site_symmetry_2
S1 O1 1_555 1_555
O2 S1 1_555 1_555
O3 C1 1_555 1_555
N1 S1 1_555 1_555
C1 N1 1_555 1_555
C2 C1 1_555 1_555
C3 C2 1_555 1_555
H1 C3 1_555 1_555
C4 C3 1_555 1_555
H2 C4 1_555 1_555
C5 C4 1_555 1_555
H3 C5 1_555 1_555
C6 C5 1_555 1_555
H4 C6 1_555 1_555
C7 S1 1_555 1_555
O4 H5 1_555 1_555
N2 H6 1_555 1_555
N3 N2 1_555 1_555
C8 N2 1_555 1_555
C9 C8 1_555 1_555
H7 C9 1_555 1_555
H8 C9 1_555 1_555
C10 C9 1_555 1_555
H9 C10 1_555 1_555
C11 C10 1_555 1_555
H10 C11 1_555 1_555
H11 C11 1_555 1_555
C12 C11 1_555 1_555
H12 C12 1_555 1_555
H13 C12 1_555 1_555
C13 C12 1_555 1_555
H14 C13 1_555 1_555
C14 C13 1_555 1_555
H15 C14 1_555 1_555
C15 C14 1_555 1_555
H16 C15 1_555 1_555
H17 C15 1_555 1_555
C16 C15 1_555 1_555
H18 C16 1_555 1_555
H19 C16 1_555 1_555
C17 O4 1_555 1_555
C18 C14 1_555 1_555
C19 C18 1_555 1_555
H20 C19 1_555 1_555
H21 C19 1_555 1_555
C20 C19 1_555 1_555
H22 C20 1_555 1_555
H23 C20 1_555 1_555
C21 C13 1_555 1_555
H24 C21 1_555 1_555
C22 C10 1_555 1_555
C23 C22 1_555 1_555
H25 C23 1_555 1_555
H26 C23 1_555 1_555
C24 C8 1_555 1_555
C25 N3 1_555 1_555
H27 C25 1_555 1_555
C26 C17 1_555 1_555
H28 C26 1_555 1_555
H29 C26 1_555 1_555
H30 C26 1_555 1_555
C27 C18 1_555 1_555
H31 C27 1_555 1_555
H32 C27 1_555 1_555
H33 C27 1_555 1_555
C28 C22 1_555 1_555
H34 C28 1_555 1_555
H35 C28 1_555 1_555
H36 C28 1_555 1_555
H37 N3 1_555 1_555
C2 C7 1_555 1_555
C6 C7 1_555 1_555
C16 C17 1_555 1_555
C17 C18 1_555 1_555
C20 C21 1_555 1_555
C21 C22 1_555 1_555
C23 C24 1_555 1_555
C24 C25 1_555 1_555

#END
