
#######################################################################
#
#                 Cambridge Crystallographic Data Centre
#                                CCDC 
#
#######################################################################
#
# If this CIF has been generated from an entry in the Cambridge 
# Structural Database, then it will include bibliographic, chemical, 
# crystal, experimental, refinement or atomic coordinate data resulting 
# from the CCDC's data processing and validation procedures.
#
#######################################################################

data_EYEJIC
_chemical_formula_moiety         'C16 H8 O2 S1'
_chemical_name_systematic        Indeno[2,1-b]thiochromene-6,11-dione
_symmetry_cell_setting           monoclinic
_symmetry_space_group_name_H-M   'P 21/n'
_symmetry_Int_Tables_number      14
_space_group_name_Hall           '-P 2yn'
loop_
_symmetry_equiv_pos_site_id
_symmetry_equiv_pos_as_xyz
1 x,y,z
2 1/2-x,1/2+y,1/2-z
3 -x,-y,-z
4 1/2+x,1/2-y,1/2+z
_cell_length_a                   7.2540(4)
_cell_length_b                   7.8419(5)
_cell_length_c                   19.8422(9)
_cell_angle_alpha                90
_cell_angle_beta                 90.1749(15)
_cell_angle_gamma                90
_cell_volume                     1128.72
_exptl_crystal_colour            red
_exptl_crystal_description       platelet
_cell_formula_units_Z            4
_exptl_crystal_recrystallization_method 'hexane/ethyl acetate'
loop_
_atom_site_label
_atom_site_type_symbol
_atom_site_fract_x
_atom_site_fract_y
_atom_site_fract_z
S1 S 0.14012(6) -0.30101(6) -0.00310(2)
O1 O 0.2001(2) -0.2009(2) -0.15436(8)
O2 O 0.3250(2) 0.19012(18) 0.09079(7)
C1 C 0.2346(2) -0.1006(2) -0.11514(9)
C2 C 0.2161(2) -0.1163(2) -0.03844(9)
C3 C 0.2683(2) 0.0307(2) -0.00755(9)
C4 C 0.3252(2) 0.1566(2) -0.05993(9)
C5 C 0.3042(2) 0.0820(2) -0.12370(9)
C6 C 0.3419(2) 0.1709(2) -0.18188(10)
C7 C 0.4050(2) 0.3386(2) -0.17612(10)
C8 C 0.4272(2) 0.4133(2) -0.11300(10)
C9 C 0.3862(2) 0.3225(2) -0.05378(10)
C10 C 0.2673(2) 0.0566(2) 0.06493(9)
C11 C 0.1953(2) -0.0852(2) 0.10706(9)
C12 C 0.1413(2) -0.2457(2) 0.08196(9)
C13 C 0.0836(2) -0.3754(2) 0.12624(9)
C14 C 0.0775(2) -0.3435(2) 0.19427(10)
C15 C 0.1278(2) -0.1847(2) 0.21997(10)
C16 C 0.1853(2) -0.0583(2) 0.17694(9)
H1 H 0.3254 0.1196 -0.2248
H2 H 0.4329 0.4021 -0.2156
H3 H 0.4708 0.5272 -0.1099
H4 H 0.4001 0.3741 -0.0107
H5 H 0.0491 -0.4841 0.1092
H6 H 0.0386 -0.4309 0.2242
H7 H 0.1223 -0.1639 0.2671
H8 H 0.2191 0.0497 0.1948
loop_
_geom_bond_atom_site_label_1
_geom_bond_atom_site_label_2
_geom_bond_site_symmetry_1
_geom_bond_site_symmetry_2
S1 C2 1_555 1_555
O1 C1 1_555 1_555
O2 C10 1_555 1_555
C1 C2 1_555 1_555
C2 C3 1_555 1_555
C3 C4 1_555 1_555
C4 C5 1_555 1_555
C5 C1 1_555 1_555
C6 C5 1_555 1_555
C7 C6 1_555 1_555
C8 C7 1_555 1_555
C9 C4 1_555 1_555
C10 C3 1_555 1_555
C11 C10 1_555 1_555
C12 S1 1_555 1_555
C13 C12 1_555 1_555
C14 C13 1_555 1_555
C15 C14 1_555 1_555
C16 C11 1_555 1_555
H1 C6 1_555 1_555
H2 C7 1_555 1_555
H3 C8 1_555 1_555
H4 C9 1_555 1_555
H5 C13 1_555 1_555
H6 C14 1_555 1_555
H7 C15 1_555 1_555
H8 C16 1_555 1_555
C8 C9 1_555 1_555
C11 C12 1_555 1_555
C15 C16 1_555 1_555

#END
