
#######################################################################
#
#                 Cambridge Crystallographic Data Centre
#                                CCDC 
#
#######################################################################
#
# If this CIF has been generated from an entry in the Cambridge 
# Structural Database, then it will include bibliographic, chemical, 
# crystal, experimental, refinement or atomic coordinate data resulting 
# from the CCDC's data processing and validation procedures.
#
#######################################################################

data_EYEKAW
_chemical_name_common            
'5,31-Diaza-2,8,15,18,21,28,34,41,44,47-decaoxaheptacyclo[46.4.0.04,32.06,30.09,14.022,27.035,40]dopentaconta-1(48),4,6(30),9(14),10,12,22(27),23,25,31,35(40),36,38,49,51-pentadecaene monohydrate'
_chemical_formula_moiety         'C40 H40 N2 O10,H2 O1'
_chemical_name_systematic        
"8,15,16,18,19,28,35,36,38,39-decahydro-6H,26H-bisdibenzo[11,12:2,3][1,4,7,10,13]pentaoxacycloheptadecino[15,16-b:15',16'-e]pyrazine monohydrate"
_symmetry_cell_setting           orthorhombic
_symmetry_space_group_name_H-M   'P n a 21'
_symmetry_Int_Tables_number      33
_space_group_name_Hall           'P 2c -2n'
loop_
_symmetry_equiv_pos_site_id
_symmetry_equiv_pos_as_xyz
1 x,y,z
2 -x,-y,1/2+z
3 1/2+x,1/2-y,z
4 1/2-x,1/2+y,1/2+z
_cell_length_a                   14.3387(16)
_cell_length_b                   25.331(3)
_cell_length_c                   9.8536(12)
_cell_angle_alpha                90
_cell_angle_beta                 90
_cell_angle_gamma                90
_cell_volume                     3578.96
_exptl_crystal_colour            colorless
_exptl_crystal_description       plate
_chemical_melting_point          '411 K'
_cell_formula_units_Z            4
_exptl_crystal_recrystallization_method dichloromethane/n-hexane
loop_
_atom_site_label
_atom_site_type_symbol
_atom_site_fract_x
_atom_site_fract_y
_atom_site_fract_z
O1 O 0.67821(17) 0.45499(11) 0.1761(3)
O2 O 0.65641(18) 0.53222(11) 0.3859(3)
O3 O 0.83422(18) 0.58208(11) 0.3799(3)
O4 O 0.94981(17) 0.54900(10) 0.1994(3)
O5 O 0.83100(18) 0.44063(12) 0.0478(3)
O6 O 1.1920(6) 0.3103(3) 0.2965(13)
O7 O 1.27572(18) 0.40252(12) 0.3371(3)
O8 O 1.41372(17) 0.35393(11) 0.2184(3)
O9 O 1.3660(2) 0.28879(12) -0.0169(3)
O10 O 1.2092(2) 0.23170(13) 0.0849(5)
N1 N 1.0973(2) 0.46794(12) 0.2427(3)
N2 N 1.0092(2) 0.37868(12) 0.1419(4)
C1 C 0.5946(3) 0.46321(19) 0.2534(5)
H1 H 0.557511 0.430266 0.257265
H2 H 0.555963 0.491095 0.210969
C2 C 0.6233(3) 0.47954(19) 0.3932(5)
H3 H 0.569517 0.477379 0.455874
H4 H 0.673105 0.455933 0.427271
C3 C 0.7038(3) 0.55023(18) 0.5037(5)
H5 H 0.746715 0.522578 0.537445
H6 H 0.658379 0.558539 0.576322
C4 C 0.7573(3) 0.59856(17) 0.4659(5)
H7 H 0.716631 0.623637 0.416587
H8 H 0.781337 0.616269 0.548381
C5 C 0.8806(3) 0.62096(16) 0.3113(4)
C6 C 0.8710(3) 0.67444(17) 0.3334(5)
H9 H 0.829458 0.686966 0.401278
C7 C 0.9220(3) 0.70976(17) 0.2563(5)
H10 H 0.914702 0.746560 0.271549
C8 C 0.9828(3) 0.69276(17) 0.1584(5)
H11 H 1.017221 0.717675 0.106581
C9 C 0.9942(3) 0.63894(16) 0.1350(5)
H12 H 1.036197 0.626874 0.067211
C10 C 0.9437(3) 0.60330(15) 0.2115(5)
C11 C 1.0130(3) 0.52743(14) 0.1006(4)
H13 H 1.071247 0.548407 0.097329
H14 H 0.984180 0.527675 0.009302
C12 C 1.0334(2) 0.47156(14) 0.1448(4)
C13 C 0.9898(2) 0.42695(15) 0.0926(4)
C14 C 0.9176(3) 0.42821(16) -0.0179(4)
H15 H 0.933293 0.455428 -0.086288
H16 H 0.913658 0.393503 -0.063760
C15 C 0.7517(3) 0.43693(15) -0.0308(4)
C16 C 0.7501(3) 0.42631(16) -0.1674(5)
H17 H 0.806848 0.421272 -0.215367
C17 C 0.6655(3) 0.42295(19) -0.2354(5)
H18 H 0.664308 0.415440 -0.329848
C18 C 0.5844(4) 0.43042(19) -0.1665(6)
H19 H 0.526776 0.428547 -0.213797
C19 C 0.5847(3) 0.44073(18) -0.0285(6)
H20 H 0.527499 0.445193 0.018900
C20 C 0.6685(3) 0.44449(17) 0.0399(5)
C21 C 1.0900(3) 0.32022(18) 0.2941(7)
H21 H 1.064089 0.316806 0.386817
H22 H 1.058819 0.293957 0.235105
C22 C 1.0725(3) 0.37501(16) 0.2408(5)
C23 C 1.1178(2) 0.41978(16) 0.2908(4)
C24 C 1.1909(2) 0.41773(17) 0.3988(4)
H23 H 1.197724 0.452804 0.441999
H24 H 1.173119 0.391873 0.469586
C25 C 1.3440(3) 0.38267(17) 0.4209(4)
C26 C 1.3420(3) 0.3873(2) 0.5604(5)
H25 H 1.292766 0.405898 0.603560
C27 C 1.4128(3) 0.3645(2) 0.6375(5)
H26 H 1.410396 0.366393 0.733723
C28 C 1.4854(3) 0.33944(19) 0.5760(5)
H27 H 1.533773 0.324387 0.629398
C29 C 1.4891(3) 0.33585(18) 0.4360(5)
H28 H 1.540614 0.319093 0.393279
C30 C 1.4175(3) 0.35674(16) 0.3578(4)
C31 C 1.4781(3) 0.31804(19) 0.1556(5)
H29 H 1.474371 0.282965 0.199606
H30 H 1.542694 0.331404 0.165083
C32 C 1.4526(3) 0.31375(19) 0.0086(5)
H31 H 1.450759 0.349689 -0.030785
H32 H 1.502170 0.293837 -0.038945
C33 C 1.3690(3) 0.23297(18) -0.0042(6)
H33 H 1.395208 0.223015 0.085131
H34 H 1.409112 0.217735 -0.076017
C34 C 1.2714(4) 0.2123(2) -0.0176(7)
H35 H 1.246728 0.222163 -0.107882
H36 H 1.273002 0.173227 -0.012777
C35 C 1.2295(3) 0.21946(18) 0.2174(7)
C36 C 1.2665(3) 0.17221(19) 0.2627(7)
H37 H 1.280979 0.145382 0.198746
C37 C 1.2827(4) 0.1632(2) 0.3979(8)
H38 H 1.309802 0.130748 0.425715
C38 C 1.2603(4) 0.2002(2) 0.4927(7)
H39 H 1.271628 0.194084 0.586394
C39 C 1.2207(5) 0.2470(2) 0.4491(8)
H40 H 1.202760 0.272723 0.514290
C40 C 1.2068(4) 0.25718(19) 0.3137(8)
O12 O 0.85464(19) 0.46186(12) 0.3548(3)
H43 H 0.871426 0.498942 0.341851
H44 H 0.817926 0.452542 0.275051
O11? O 1.1472(11) 0.2964(4) 0.2303(12)
H41? H 1.110879 0.322678 0.389643
H42? H 1.030653 0.300237 0.292784
loop_
_geom_bond_atom_site_label_1
_geom_bond_atom_site_label_2
_geom_bond_site_symmetry_1
_geom_bond_site_symmetry_2
O1 C1 1_555 1_555
O2 C2 1_555 1_555
O3 C4 1_555 1_555
O4 C10 1_555 1_555
O5 C14 1_555 1_555
O6 C21 1_555 1_555
O7 C24 1_555 1_555
O8 C30 1_555 1_555
O9 C32 1_555 1_555
O10 C34 1_555 1_555
N1 C12 1_555 1_555
N2 C13 1_555 1_555
C1 H1 1_555 1_555
H2 C1 1_555 1_555
C2 C1 1_555 1_555
H3 C2 1_555 1_555
H4 C2 1_555 1_555
C3 O2 1_555 1_555
H5 C3 1_555 1_555
H6 C3 1_555 1_555
C4 C3 1_555 1_555
H7 C4 1_555 1_555
H8 C4 1_555 1_555
C5 O3 1_555 1_555
C6 C5 1_555 1_555
H9 C6 1_555 1_555
C7 C6 1_555 1_555
H10 C7 1_555 1_555
C8 C7 1_555 1_555
H11 C8 1_555 1_555
C9 C8 1_555 1_555
H12 C9 1_555 1_555
C10 C5 1_555 1_555
C11 O4 1_555 1_555
H13 C11 1_555 1_555
H14 C11 1_555 1_555
C12 C11 1_555 1_555
C13 C12 1_555 1_555
C14 C13 1_555 1_555
H15 C14 1_555 1_555
H16 C14 1_555 1_555
C15 O5 1_555 1_555
C16 C15 1_555 1_555
H17 C16 1_555 1_555
C17 C16 1_555 1_555
H18 C17 1_555 1_555
C18 C17 1_555 1_555
H19 C18 1_555 1_555
C19 C18 1_555 1_555
H20 C19 1_555 1_555
C20 O1 1_555 1_555
C21 H21 1_555 1_555
H22 C21 1_555 1_555
C22 N2 1_555 1_555
C23 N1 1_555 1_555
C24 C23 1_555 1_555
H23 C24 1_555 1_555
H24 C24 1_555 1_555
C25 O7 1_555 1_555
C26 C25 1_555 1_555
H25 C26 1_555 1_555
C27 C26 1_555 1_555
H26 C27 1_555 1_555
C28 C27 1_555 1_555
H27 C28 1_555 1_555
C29 C28 1_555 1_555
H28 C29 1_555 1_555
C30 C25 1_555 1_555
C31 O8 1_555 1_555
H29 C31 1_555 1_555
H30 C31 1_555 1_555
C32 C31 1_555 1_555
H31 C32 1_555 1_555
H32 C32 1_555 1_555
C33 O9 1_555 1_555
H33 C33 1_555 1_555
H34 C33 1_555 1_555
C34 C33 1_555 1_555
H35 C34 1_555 1_555
H36 C34 1_555 1_555
C35 O10 1_555 1_555
C36 C35 1_555 1_555
H37 C36 1_555 1_555
C37 C36 1_555 1_555
H38 C37 1_555 1_555
C38 C37 1_555 1_555
H39 C38 1_555 1_555
C39 C38 1_555 1_555
H40 C39 1_555 1_555
C40 O6 1_555 1_555
O12 H43 1_555 1_555
H44 O12 1_555 1_555
C9 C10 1_555 1_555
C15 C20 1_555 1_555
C19 C20 1_555 1_555
C21 C22 1_555 1_555
C22 C23 1_555 1_555
C29 C30 1_555 1_555
C35 C40 1_555 1_555
C39 C40 1_555 1_555

#END
