
#######################################################################
#
#                 Cambridge Crystallographic Data Centre
#                                CCDC 
#
#######################################################################
#
# If this CIF has been generated from an entry in the Cambridge 
# Structural Database, then it will include bibliographic, chemical, 
# crystal, experimental, refinement or atomic coordinate data resulting 
# from the CCDC's data processing and validation procedures.
#
#######################################################################

data_EYESEI
_chemical_formula_moiety         'C34 H27 O3 P1'
_chemical_name_systematic        
1-(2-methoxyphenyl)-3-phenyl-3-(triphenylphosphoranylidene)propane-1,2-dione
_symmetry_cell_setting           triclinic
_symmetry_space_group_name_H-M   'P -1'
_symmetry_Int_Tables_number      2
_space_group_name_Hall           '-P 1'
loop_
_symmetry_equiv_pos_site_id
_symmetry_equiv_pos_as_xyz
1 x,y,z
2 -x,-y,-z
_cell_length_a                   9.828(3)
_cell_length_b                   10.622(3)
_cell_length_c                   13.692(3)
_cell_angle_alpha                74.94(3)
_cell_angle_beta                 73.96(3)
_cell_angle_gamma                78.45(3)
_cell_volume                     1313.76
_exptl_crystal_colour            yellow
_exptl_crystal_description       prism
_cell_formula_units_Z            2
loop_
_atom_site_label
_atom_site_type_symbol
_atom_site_fract_x
_atom_site_fract_y
_atom_site_fract_z
P1 P 0.12848(9) 0.18359(8) 0.15086(5)
O1 O 0.2419(3) 0.1178(2) 0.46402(14)
O2 O 0.3780(3) 0.1648(2) 0.22792(15)
O3 O 0.3255(3) 0.4602(2) 0.26386(16)
C1 C 0.1435(4) 0.2774(3) 0.2344(2)
C2 C 0.2778(4) 0.2525(3) 0.2561(2)
C3 C 0.3229(4) 0.3441(3) 0.3082(3)
C4 C 0.3851(4) 0.2891(3) 0.4011(3)
C5 C 0.3458(4) 0.1762(3) 0.4767(2)
C6 C 0.4087(4) 0.1320(3) 0.5615(3)
C7 C 0.5101(4) 0.1976(4) 0.5711(3)
C8 C 0.5512(4) 0.3093(4) 0.4972(3)
C9 C 0.4877(4) 0.3537(3) 0.4134(3)
C10 C 0.1888(4) 0.0132(3) 0.5468(3)
C11 C 0.2684(4) 0.2017(3) 0.0323(3)
C12 C 0.3245(4) 0.0999(4) -0.0214(3)
C13 C 0.4348(4) 0.1191(4) -0.1112(3)
C14 C 0.4877(4) 0.2365(4) -0.1465(3)
C15 C 0.4314(4) 0.3384(4) -0.0950(3)
C16 C 0.3227(4) 0.3211(4) -0.0056(3)
C17 C -0.0413(4) 0.2322(3) 0.1164(3)
C18 C -0.1661(4) 0.2075(4) 0.1948(3)
C19 C -0.2970(4) 0.2357(4) 0.1723(3)
C20 C -0.3101(4) 0.2922(4) 0.0712(3)
C21 C -0.1890(4) 0.3214(4) -0.0067(3)
C22 C -0.0550(4) 0.2904(4) 0.0156(3)
C23 C 0.1236(4) 0.0100(3) 0.2102(3)
C24 C 0.1765(4) -0.0482(3) 0.2992(3)
C25 C 0.1605(4) -0.1769(3) 0.3487(3)
C26 C 0.0945(4) -0.2507(4) 0.3103(3)
C27 C 0.0420(4) -0.1936(4) 0.2224(3)
C28 C 0.0576(4) -0.0649(4) 0.1719(3)
C29 C 0.0250(4) 0.3730(3) 0.2782(2)
C30 C -0.0571(4) 0.4671(3) 0.2172(3)
C31 C -0.1677(4) 0.5555(3) 0.2602(3)
C32 C -0.1962(4) 0.5555(3) 0.3653(3)
C33 C -0.1148(4) 0.4647(3) 0.4266(3)
C34 C -0.0074(4) 0.3738(3) 0.3845(3)
H1 H 0.3814 0.0562 0.6129
H2 H 0.5526 0.1663 0.6290
H3 H 0.6214 0.3542 0.5040
H4 H 0.5148 0.4303 0.3630
H5 H 0.1501 0.0454 0.6113
H6 H 0.2667 -0.0591 0.5562
H7 H 0.1130 -0.0185 0.5297
H8 H 0.2877 0.0183 0.0032
H9 H 0.4731 0.0503 -0.1478
H10 H 0.5639 0.2483 -0.2070
H11 H 0.4676 0.4203 -0.1211
H12 H 0.2850 0.3909 0.0300
H13 H -0.1590 0.1705 0.2645
H14 H -0.3798 0.2165 0.2261
H15 H -0.4013 0.3107 0.0555
H16 H -0.1977 0.3628 -0.0755
H17 H 0.0276 0.3090 -0.0384
H18 H 0.2233 0.0013 0.3253
H19 H 0.1950 -0.2154 0.4097
H20 H 0.0852 -0.3399 0.3439
H21 H -0.0050 -0.2434 0.1967
H22 H 0.0231 -0.0272 0.1108
H23 H -0.0368 0.4706 0.1446
H24 H -0.2239 0.6162 0.2175
H25 H -0.2705 0.6169 0.3947
H26 H -0.1327 0.4646 0.4985
H27 H 0.0452 0.3108 0.4285
loop_
_geom_bond_atom_site_label_1
_geom_bond_atom_site_label_2
_geom_bond_site_symmetry_1
_geom_bond_site_symmetry_2
P1 C1 1_555 1_555
O1 C5 1_555 1_555
O2 C2 1_555 1_555
O3 C3 1_555 1_555
C1 C2 1_555 1_555
C2 C3 1_555 1_555
C3 C4 1_555 1_555
C4 C5 1_555 1_555
C5 C6 1_555 1_555
C6 C7 1_555 1_555
C7 C8 1_555 1_555
C8 C9 1_555 1_555
C9 C4 1_555 1_555
C10 O1 1_555 1_555
C11 P1 1_555 1_555
C12 C11 1_555 1_555
C13 C12 1_555 1_555
C14 C13 1_555 1_555
C15 C14 1_555 1_555
C16 C11 1_555 1_555
C17 P1 1_555 1_555
C18 C17 1_555 1_555
C19 C18 1_555 1_555
C20 C19 1_555 1_555
C21 C20 1_555 1_555
C22 C17 1_555 1_555
C23 P1 1_555 1_555
C24 C23 1_555 1_555
C25 C24 1_555 1_555
C26 C25 1_555 1_555
C27 C26 1_555 1_555
C28 C23 1_555 1_555
C29 C1 1_555 1_555
C30 C29 1_555 1_555
C31 C30 1_555 1_555
C32 C31 1_555 1_555
C33 C32 1_555 1_555
C34 C29 1_555 1_555
H1 C6 1_555 1_555
H2 C7 1_555 1_555
H3 C8 1_555 1_555
H4 C9 1_555 1_555
H5 C10 1_555 1_555
H6 C10 1_555 1_555
H7 C10 1_555 1_555
H8 C12 1_555 1_555
H9 C13 1_555 1_555
H10 C14 1_555 1_555
H11 C15 1_555 1_555
H12 C16 1_555 1_555
H13 C18 1_555 1_555
H14 C19 1_555 1_555
H15 C20 1_555 1_555
H16 C21 1_555 1_555
H17 C22 1_555 1_555
H18 C24 1_555 1_555
H19 C25 1_555 1_555
H20 C26 1_555 1_555
H21 C27 1_555 1_555
H22 C28 1_555 1_555
H23 C30 1_555 1_555
H24 C31 1_555 1_555
H25 C32 1_555 1_555
H26 C33 1_555 1_555
H27 C34 1_555 1_555
C15 C16 1_555 1_555
C21 C22 1_555 1_555
C27 C28 1_555 1_555
C33 C34 1_555 1_555

#END
