
#######################################################################
#
#                 Cambridge Crystallographic Data Centre
#                                CCDC 
#
#######################################################################
#
# If this CIF has been generated from an entry in the Cambridge 
# Structural Database, then it will include bibliographic, chemical, 
# crystal, experimental, refinement or atomic coordinate data resulting 
# from the CCDC's data processing and validation procedures.
#
#######################################################################

data_EYIDAS
_chemical_formula_moiety         'C15 H20 O4'
_chemical_name_systematic        
6,8-Dihydroxy-5,8a-dimethyl-3-methylene-3a,5,6,7,8,8a,9,9a-octahydronaphtho[2,3-b]furan-2(3H)-one
_symmetry_cell_setting           orthorhombic
_symmetry_space_group_name_H-M   'P 21 21 21'
_symmetry_Int_Tables_number      19
_space_group_name_Hall           'P 2ac 2ab'
loop_
_symmetry_equiv_pos_site_id
_symmetry_equiv_pos_as_xyz
1 x,y,z
2 1/2-x,-y,1/2+z
3 -x,1/2+y,1/2-z
4 1/2+x,1/2-y,-z
_cell_length_a                   6.437(2)
_cell_length_b                   12.148(4)
_cell_length_c                   17.615(6)
_cell_angle_alpha                90
_cell_angle_beta                 90
_cell_angle_gamma                90
_cell_volume                     1377.43
_exptl_crystal_colour            colorless
_exptl_crystal_description       block
_cell_formula_units_Z            4
loop_
_atom_site_label
_atom_site_type_symbol
_atom_site_fract_x
_atom_site_fract_y
_atom_site_fract_z
C1 C 0.4022(4) 0.77323(19) 0.63285(13)
H1 H 0.5356 0.7345 0.6350
C2 C 0.2760(4) 0.72325(19) 0.56855(12)
H2 H 0.1421 0.7595 0.5654
H3 H 0.3479 0.7344 0.5208
C3 C 0.2451(4) 0.60236(18) 0.58180(12)
H4 H 0.3821 0.5675 0.5850
C4 C 0.1308(3) 0.58101(18) 0.65613(12)
H5 H 0.1450 0.5022 0.6670
C5 C 0.2311(4) 0.64220(17) 0.72197(12)
C6 C 0.2508(4) 0.59206(18) 0.78825(12)
H6 H 0.2211 0.5172 0.7893
C7 C 0.3162(4) 0.64354(19) 0.86206(12)
H7 H 0.4177 0.5959 0.8873
C8 C 0.4074(4) 0.7590(2) 0.85290(14)
H8 H 0.5337 0.7645 0.8837
C9 C 0.4584(4) 0.7914(2) 0.77250(14)
H9 H 0.5893 0.7571 0.7589
H10 H 0.4796 0.8704 0.7713
C10 C 0.2976(4) 0.76185(17) 0.71104(12)
C11 C 0.1314(4) 0.6614(2) 0.91402(14)
C12 C 0.0965(5) 0.7812(2) 0.91881(14)
C13 C -0.0243(6) 0.5897(3) 0.9288(2)
H11 H -0.1551 0.6158 0.9422
H12 H -0.0005 0.5143 0.9256
C14 C 0.1099(4) 0.8403(2) 0.71625(14)
H13 H 0.0235 0.8310 0.6723
H14 H 0.1581 0.9150 0.7186
H15 H 0.0311 0.8237 0.7611
C15 C -0.1012(4) 0.6047(2) 0.65038(16)
H16 H -0.1646 0.5948 0.6992
H17 H -0.1633 0.5551 0.6145
H18 H -0.1217 0.6792 0.6337
O1 O 0.4442(4) 0.88673(14) 0.62049(11)
H19 H 0.4981 0.8948 0.5787
O2 O 0.1373(3) 0.55640(13) 0.51822(8)
H20 H 0.1116 0.4914 0.5266
O3 O -0.0436(4) 0.82917(17) 0.94894(13)
O4 O 0.2499(3) 0.83494(14) 0.88384(9)
loop_
_geom_bond_atom_site_label_1
_geom_bond_atom_site_label_2
_geom_bond_site_symmetry_1
_geom_bond_site_symmetry_2
C1 H1 1_555 1_555
C2 C1 1_555 1_555
H2 C2 1_555 1_555
H3 C2 1_555 1_555
C3 C2 1_555 1_555
H4 C3 1_555 1_555
C4 C3 1_555 1_555
H5 C4 1_555 1_555
C5 C4 1_555 1_555
C6 C5 1_555 1_555
H6 C6 1_555 1_555
C7 C6 1_555 1_555
H7 C7 1_555 1_555
C8 C7 1_555 1_555
H8 C8 1_555 1_555
C9 C8 1_555 1_555
H9 C9 1_555 1_555
H10 C9 1_555 1_555
C10 C1 1_555 1_555
C11 C7 1_555 1_555
C12 C11 1_555 1_555
C13 C11 1_555 1_555
H11 C13 1_555 1_555
H12 C13 1_555 1_555
C14 C10 1_555 1_555
H13 C14 1_555 1_555
H14 C14 1_555 1_555
H15 C14 1_555 1_555
C15 C4 1_555 1_555
H16 C15 1_555 1_555
H17 C15 1_555 1_555
H18 C15 1_555 1_555
O1 C1 1_555 1_555
H19 O1 1_555 1_555
O2 C3 1_555 1_555
H20 O2 1_555 1_555
O3 C12 1_555 1_555
O4 C8 1_555 1_555
C5 C10 1_555 1_555
C9 C10 1_555 1_555
C12 O4 1_555 1_555

#END
