
#######################################################################
#
#                 Cambridge Crystallographic Data Centre
#                                CCDC 
#
#######################################################################
#
# If this CIF has been generated from an entry in the Cambridge 
# Structural Database, then it will include bibliographic, chemical, 
# crystal, experimental, refinement or atomic coordinate data resulting 
# from the CCDC's data processing and validation procedures.
#
#######################################################################

data_EYIFUO
_chemical_compound_source        'Pestalotiopsis clavispora'
_chemical_name_common            
'(15alpha)-15-hydroxysoyasapogenol B methanol solvate'
_chemical_formula_moiety         'C30 H50 O4,C1 H4 O1'
_chemical_name_systematic        
'olean-12-ene-3,15,22,23-tetrol methanol solvate'
_symmetry_cell_setting           monoclinic
_symmetry_space_group_name_H-M   'P 21'
_symmetry_Int_Tables_number      4
_space_group_name_Hall           'P 2yb'
loop_
_symmetry_equiv_pos_site_id
_symmetry_equiv_pos_as_xyz
1 x,y,z
2 -x,1/2+y,-z
_cell_length_a                   10.081(5)
_cell_length_b                   14.298(6)
_cell_length_c                   10.918(5)
_cell_angle_alpha                90
_cell_angle_beta                 99.541(9)
_cell_angle_gamma                90
_cell_volume                     1551.93
_cell_formula_units_Z            2
loop_
_atom_site_label
_atom_site_type_symbol
_atom_site_fract_x
_atom_site_fract_y
_atom_site_fract_z
C1 C 0.34532(16) 0.53166(10) 0.42890(13)
H1 H 0.2485 0.5298 0.4035
H2 H 0.3660 0.5031 0.5104
C2 C 0.39130(17) 0.63395(10) 0.43822(14)
H3 H 0.3436 0.6670 0.4951
H4 H 0.4867 0.6365 0.4713
C3 C 0.36547(15) 0.68158(9) 0.31266(15)
H5 H 0.2682 0.6817 0.2835
C4 C 0.43355(15) 0.63262(9) 0.21255(13)
C5 C 0.39360(14) 0.52671(9) 0.21000(12)
H6 H 0.2962 0.5268 0.1815
C6 C 0.44982(16) 0.46779(9) 0.11261(13)
H7 H 0.4469 0.5038 0.0369
H8 H 0.5429 0.4519 0.1434
C7 C 0.36720(15) 0.37815(9) 0.08458(12)
H9 H 0.4076 0.3406 0.0266
H10 H 0.2773 0.3949 0.0442
C8 C 0.35604(13) 0.31778(8) 0.20035(11)
C9 C 0.32763(14) 0.38059(9) 0.31004(11)
H11 H 0.2345 0.4016 0.2853
C10 C 0.41174(14) 0.47362(9) 0.33643(12)
C11 C 0.32556(17) 0.32142(9) 0.42706(12)
H12 H 0.4169 0.3152 0.4713
H13 H 0.2738 0.3542 0.4810
C12 C 0.26725(15) 0.22592(10) 0.40122(12)
H14 H 0.2585 0.1893 0.4698
C13 C 0.22653(13) 0.18798(8) 0.28989(12)
C14 C 0.23229(13) 0.24617(8) 0.17125(11)
C15 C 0.24807(14) 0.18192(9) 0.05896(12)
H15 H 0.3439 0.1684 0.0620
C16 C 0.17172(16) 0.08882(9) 0.05490(13)
H16 H 0.1946 0.0513 -0.0126
H17 H 0.0760 0.1015 0.0368
C17 C 0.20166(15) 0.03183(9) 0.17574(13)
C18 C 0.16104(14) 0.09140(9) 0.28196(12)
H18 H 0.1952 0.0590 0.3599
C19 C 0.00705(16) 0.10092(11) 0.27455(14)
H19 H -0.0106 0.1342 0.3476
H20 H -0.0280 0.1387 0.2026
C20 C -0.06986(16) 0.00760(11) 0.26551(15)
C21 C -0.03072(16) -0.04745(11) 0.15597(14)
H21 H -0.0722 -0.1088 0.1541
H22 H -0.0684 -0.0156 0.0796
C22 C 0.12010(16) -0.06051(10) 0.15764(15)
H23 H 0.1321 -0.0874 0.0776
C23 C 0.3753(2) 0.67649(11) 0.08567(15)
H24 H 0.3841 0.7433 0.0909
H25 H 0.2820 0.6602 0.0640
H26 H 0.4237 0.6533 0.0233
C24 C 0.58613(16) 0.64745(11) 0.23754(16)
H27 H 0.6204 0.6299 0.3227
H28 H 0.6270 0.6063 0.1838
C25 C 0.56023(15) 0.45670(11) 0.39573(14)
H29 H 0.5953 0.5117 0.4402
H30 H 0.6122 0.4432 0.3317
H31 H 0.5652 0.4048 0.4521
C26 C 0.49045(14) 0.26408(10) 0.23567(14)
H32 H 0.5025 0.2225 0.1693
H33 H 0.4885 0.2286 0.3100
H34 H 0.5636 0.3079 0.2496
C27 C 0.09486(14) 0.29807(10) 0.13869(13)
H35 H 0.0300 0.2572 0.0915
H36 H 0.1059 0.3529 0.0906
H37 H 0.0641 0.3160 0.2139
C28 C 0.35270(16) 0.00806(11) 0.20480(17)
H38 H 0.3712 -0.0256 0.2818
H39 H 0.4043 0.0648 0.2115
H40 H 0.3767 -0.0298 0.1392
C29 C -0.22175(19) 0.02811(16) 0.2377(2)
H41 H -0.2430 0.0597 0.1593
H42 H -0.2462 0.0670 0.3021
H43 H -0.2708 -0.0296 0.2343
C30 C -0.0402(2) -0.04640(14) 0.38919(17)
H44 H -0.0834 -0.1064 0.3796
H45 H -0.0739 -0.0116 0.4527
H46 H 0.0551 -0.0548 0.4123
O1 O 0.40965(12) 0.77774(7) 0.32693(12)
H50 H 0.3453 0.8126 0.3060
O2 O 0.62585(14) 0.74203(8) 0.21779(13)
H51 H 0.5786 0.7782 0.2499
O3 O 0.19831(11) 0.22889(7) -0.05708(8)
H52 H 0.2611 0.2394 -0.0942
O4 O 0.17452(12) -0.12569(8) 0.25361(12)
H53 H 0.1265 -0.1723 0.2493
C31 C 0.0214(3) 0.1674(3) 0.6625(3)
H47 H 0.0965 0.2011 0.6407
H48 H -0.0513 0.1679 0.5935
H49 H 0.0476 0.1040 0.6828
O5 O -0.01998(14) 0.20969(11) 0.76433(14)
H54 H 0.0446 0.2154 0.8203
loop_
_geom_bond_atom_site_label_1
_geom_bond_atom_site_label_2
_geom_bond_site_symmetry_1
_geom_bond_site_symmetry_2
C1 H1 1_555 1_555
H2 C1 1_555 1_555
C2 C1 1_555 1_555
H3 C2 1_555 1_555
H4 C2 1_555 1_555
C3 C2 1_555 1_555
H5 C3 1_555 1_555
C4 C3 1_555 1_555
C5 C4 1_555 1_555
H6 C5 1_555 1_555
C6 C5 1_555 1_555
H7 C6 1_555 1_555
H8 C6 1_555 1_555
C7 C6 1_555 1_555
H9 C7 1_555 1_555
H10 C7 1_555 1_555
C8 C7 1_555 1_555
C9 C8 1_555 1_555
H11 C9 1_555 1_555
C10 C1 1_555 1_555
C11 C9 1_555 1_555
H12 C11 1_555 1_555
H13 C11 1_555 1_555
C12 C11 1_555 1_555
H14 C12 1_555 1_555
C13 C12 1_555 1_555
C14 C8 1_555 1_555
C15 C14 1_555 1_555
H15 C15 1_555 1_555
C16 C15 1_555 1_555
H16 C16 1_555 1_555
H17 C16 1_555 1_555
C17 C16 1_555 1_555
C18 C13 1_555 1_555
H18 C18 1_555 1_555
C19 C18 1_555 1_555
H19 C19 1_555 1_555
H20 C19 1_555 1_555
C20 C19 1_555 1_555
C21 C20 1_555 1_555
H21 C21 1_555 1_555
H22 C21 1_555 1_555
C22 C17 1_555 1_555
H23 C22 1_555 1_555
C23 C4 1_555 1_555
H24 C23 1_555 1_555
H25 C23 1_555 1_555
H26 C23 1_555 1_555
C24 C4 1_555 1_555
H27 C24 1_555 1_555
H28 C24 1_555 1_555
C25 C10 1_555 1_555
H29 C25 1_555 1_555
H30 C25 1_555 1_555
H31 C25 1_555 1_555
C26 C8 1_555 1_555
H32 C26 1_555 1_555
H33 C26 1_555 1_555
H34 C26 1_555 1_555
C27 C14 1_555 1_555
H35 C27 1_555 1_555
H36 C27 1_555 1_555
H37 C27 1_555 1_555
C28 C17 1_555 1_555
H38 C28 1_555 1_555
H39 C28 1_555 1_555
H40 C28 1_555 1_555
C29 C20 1_555 1_555
H41 C29 1_555 1_555
H42 C29 1_555 1_555
H43 C29 1_555 1_555
C30 C20 1_555 1_555
H44 C30 1_555 1_555
H45 C30 1_555 1_555
H46 C30 1_555 1_555
C31 H47 1_555 1_555
H48 C31 1_555 1_555
H49 C31 1_555 1_555
O1 C3 1_555 1_555
H50 O1 1_555 1_555
O2 C24 1_555 1_555
H51 O2 1_555 1_555
O3 C15 1_555 1_555
H52 O3 1_555 1_555
O4 C22 1_555 1_555
H53 O4 1_555 1_555
O5 C31 1_555 1_555
H54 O5 1_555 1_555
C5 C10 1_555 1_555
C9 C10 1_555 1_555
C13 C14 1_555 1_555
C17 C18 1_555 1_555
C21 C22 1_555 1_555

#END
