
#######################################################################
#
#                 Cambridge Crystallographic Data Centre
#                                CCDC 
#
#######################################################################
#
# If this CIF has been generated from an entry in the Cambridge 
# Structural Database, then it will include bibliographic, chemical, 
# crystal, experimental, refinement or atomic coordinate data resulting 
# from the CCDC's data processing and validation procedures.
#
#######################################################################

data_EYIGID
_chemical_compound_source        'Beilschmiedia anacardioides'
_chemical_name_common            'beilschmiedic acid G'
_chemical_formula_moiety         'C22 H28 O4'
_chemical_name_systematic        
'3-Hydroxy-1-octyl-7-oxo-1a,2,6,7,7a,7b-hexahydro-1H-cyclobuta[bc]acenaphthylene-5-carboxylic acid'
_chemical_properties_biological  
'B. anacardioides has potent antibacterial activity'
_symmetry_cell_setting           monoclinic
_symmetry_space_group_name_H-M   'P 21/c'
_symmetry_Int_Tables_number      14
_space_group_name_Hall           '-P 2ybc'
loop_
_symmetry_equiv_pos_site_id
_symmetry_equiv_pos_as_xyz
1 x,y,z
2 -x,1/2+y,1/2-z
3 -x,-y,-z
4 x,1/2-y,1/2+z
_cell_length_a                   7.9900(2)
_cell_length_b                   21.9056(6)
_cell_length_c                   10.8257(3)
_cell_angle_alpha                90
_cell_angle_beta                 104.4814(16)
_cell_angle_gamma                90
_cell_volume                     1834.58
_exptl_crystal_colour            colorless
_exptl_crystal_description       needle
_cell_formula_units_Z            4
loop_
_atom_site_label
_atom_site_type_symbol
_atom_site_fract_x
_atom_site_fract_y
_atom_site_fract_z
O1 O 0.47151(12) 0.68029(5) 0.60067(11)
H1 H 0.447(3) 0.7066(10) 0.536(2)
O2 O 1.32504(12) 0.73737(5) 0.90960(10)
O3 O 0.80588(13) 0.54205(5) 0.91880(10)
H2 H 0.850(2) 0.5103(10) 0.982(2)
O4 O 1.08120(12) 0.54316(5) 0.90661(10)
C1 C 0.87981(17) 0.61042(6) 0.77211(13)
C2 C 1.00263(17) 0.64368(6) 0.72596(13)
C3 C 0.93923(18) 0.68440(6) 0.62749(14)
C4 C 0.76512(17) 0.70028(6) 0.58536(14)
C5 C 0.64523(17) 0.66801(7) 0.63322(14)
C6 C 0.70304(18) 0.62217(7) 0.72282(14)
H3 H 0.6187(19) 0.5994(7) 0.7558(14)
C7 C 1.19460(18) 0.65088(7) 0.78734(15)
H4 H 1.267(2) 0.6369(7) 0.7301(16)
H5 H 1.2329(18) 0.6303(7) 0.8708(15)
C8 C 1.23629(17) 0.71912(7) 0.80762(14)
C9 C 1.16751(18) 0.76065(6) 0.69488(14)
H6 H 1.265(2) 0.7826(7) 0.6754(15)
C10 C 1.05372(18) 0.72781(7) 0.57889(14)
H7 H 1.1115(19) 0.7109(7) 0.5153(15)
C11 C 0.93332(18) 0.78368(7) 0.54585(14)
H8 H 0.9593(18) 0.8116(7) 0.4826(15)
C12 C 0.74608(19) 0.75949(7) 0.50998(15)
H9 H 0.663(2) 0.7882(7) 0.5368(15)
H10 H 0.707(2) 0.7518(7) 0.4153(17)
C13 C 1.01107(18) 0.80667(6) 0.68530(14)
H11 H 0.939(2) 0.7930(7) 0.7411(15)
C14 C 0.93262(18) 0.56265(6) 0.87146(14)
C15 C 1.05116(19) 0.87418(7) 0.70662(15)
H12 H 0.942(2) 0.8968(7) 0.6741(15)
H13 H 1.1373(19) 0.8860(7) 0.6570(15)
C16 C 1.12017(19) 0.88944(7) 0.84747(15)
H14 H 1.0339(18) 0.8772(7) 0.8955(14)
H15 H 1.2243(19) 0.8637(7) 0.8844(14)
C17 C 1.1704(2) 0.95582(7) 0.87807(15)
H16 H 1.064(2) 0.9821(7) 0.8430(15)
H17 H 1.261(2) 0.9687(7) 0.8358(15)
C18 C 1.2350(2) 0.96605(7) 1.02113(15)
H18 H 1.140(2) 0.9540(7) 1.0637(16)
H19 H 1.3312(19) 0.9372(7) 1.0541(15)
C19 C 1.2937(2) 1.03073(7) 1.06024(15)
H20 H 1.197(2) 1.0593(8) 1.0292(16)
H21 H 1.386(2) 1.0432(7) 1.0197(15)
C20 C 1.3596(2) 1.03767(7) 1.20424(16)
H22 H 1.265(2) 1.0254(8) 1.2464(16)
H23 H 1.453(2) 1.0077(7) 1.2336(15)
C21 C 1.4230(2) 1.10150(8) 1.24855(17)
H24 H 1.321(2) 1.1335(8) 1.2190(16)
H25 H 1.516(2) 1.1151(8) 1.1992(17)
C22 C 1.4997(2) 1.10448(9) 1.39267(18)
H26 H 1.412(2) 1.0925(8) 1.4473(17)
H27 H 1.549(2) 1.1481(9) 1.4194(17)
H28 H 1.597(3) 1.0720(9) 1.4212(19)
loop_
_geom_bond_atom_site_label_1
_geom_bond_atom_site_label_2
_geom_bond_site_symmetry_1
_geom_bond_site_symmetry_2
O1 H1 1_555 1_555
O2 C8 1_555 1_555
O3 H2 1_555 1_555
O4 C14 1_555 1_555
C1 C2 1_555 1_555
C2 C3 1_555 1_555
C3 C4 1_555 1_555
C4 C5 1_555 1_555
C5 O1 1_555 1_555
C6 C1 1_555 1_555
H3 C6 1_555 1_555
C7 C2 1_555 1_555
H4 C7 1_555 1_555
H5 C7 1_555 1_555
C8 C7 1_555 1_555
C9 C8 1_555 1_555
H6 C9 1_555 1_555
C10 C3 1_555 1_555
H7 C10 1_555 1_555
C11 C10 1_555 1_555
H8 C11 1_555 1_555
C12 C4 1_555 1_555
H9 C12 1_555 1_555
H10 C12 1_555 1_555
C13 C9 1_555 1_555
H11 C13 1_555 1_555
C14 O3 1_555 1_555
C15 C13 1_555 1_555
H12 C15 1_555 1_555
H13 C15 1_555 1_555
C16 C15 1_555 1_555
H14 C16 1_555 1_555
H15 C16 1_555 1_555
C17 C16 1_555 1_555
H16 C17 1_555 1_555
H17 C17 1_555 1_555
C18 C17 1_555 1_555
H18 C18 1_555 1_555
H19 C18 1_555 1_555
C19 C18 1_555 1_555
H20 C19 1_555 1_555
H21 C19 1_555 1_555
C20 C19 1_555 1_555
H22 C20 1_555 1_555
H23 C20 1_555 1_555
C21 C20 1_555 1_555
H24 C21 1_555 1_555
H25 C21 1_555 1_555
C22 C21 1_555 1_555
H26 C22 1_555 1_555
H27 C22 1_555 1_555
H28 C22 1_555 1_555
C1 C14 1_555 1_555
C5 C6 1_555 1_555
C9 C10 1_555 1_555
C11 C12 1_555 1_555
C11 C13 1_555 1_555

#END
