
#######################################################################
#
#                 Cambridge Crystallographic Data Centre
#                                CCDC 
#
#######################################################################
#
# If this CIF has been generated from an entry in the Cambridge 
# Structural Database, then it will include bibliographic, chemical, 
# crystal, experimental, refinement or atomic coordinate data resulting 
# from the CCDC's data processing and validation procedures.
#
#######################################################################

data_EYILOP
_chemical_compound_source        'Inula lineariifolia'
_chemical_name_common            'lineariifolianoid J monohydrate'
_chemical_formula_moiety         'C34 H42 O10,H2 O1'
_chemical_name_systematic        
"9'-hydroxy-2',7,11'-trimethyl-7'-methylene-2,6'-dioxo-6-(3-oxobutyl)-4,7,8,8a-tetrahydro-3aH-spiro[cyclohepta[b]furan-3,13'-[5]oxatetracyclo[10.2.1.0^1,10^.0^4,8^]pentadec[10]ene]-4,15'-diyl diacetate monohydrate"
_symmetry_cell_setting           orthorhombic
_symmetry_space_group_name_H-M   'P 21 21 21'
_symmetry_Int_Tables_number      19
_space_group_name_Hall           'P 2ac 2ab'
loop_
_symmetry_equiv_pos_site_id
_symmetry_equiv_pos_as_xyz
1 x,y,z
2 1/2+x,1/2-y,-z
3 -x,1/2+y,1/2-z
4 1/2-x,-y,1/2+z
_cell_length_a                   9.71780(10)
_cell_length_b                   16.9875(2)
_cell_length_c                   19.0128(2)
_cell_angle_alpha                90
_cell_angle_beta                 90
_cell_angle_gamma                90
_cell_volume                     3138.65
_exptl_crystal_colour            colorless
_exptl_crystal_description       block
_cell_formula_units_Z            4
loop_
_atom_site_label
_atom_site_type_symbol
_atom_site_fract_x
_atom_site_fract_y
_atom_site_fract_z
O1 O 0.14576(19) -0.19304(10) -0.03076(8)
O2 O -0.14654(15) -0.35684(8) -0.26960(7)
O3 O 0.05822(19) -0.39027(13) -0.31485(9)
O4 O -0.42555(15) -0.35869(9) -0.18833(8)
O5 O -0.45117(18) -0.48263(9) -0.22275(9)
O6 O -0.06122(18) -0.43929(10) 0.05367(8)
O7 O -0.03329(15) -0.47742(8) -0.05849(7)
O8 O -0.40738(19) -0.66829(9) -0.21200(8)
H1 H -0.4365 -0.6226 -0.2202
O9 O -0.19106(17) -0.82365(9) -0.03394(8)
O10 O -0.30058(19) -0.93916(10) -0.04375(10)
C1 C -0.0616(2) -0.19497(12) -0.17087(10)
C2 C 0.0044(2) -0.43813(12) 0.00003(11)
C3 C -0.1673(2) -0.57784(11) -0.11857(10)
C4 C -0.0642(2) -0.38267(13) -0.32081(11)
C5 C 0.0359(3) -0.12697(13) -0.15525(11)
H2 H 0.0053 -0.1014 -0.1112
H3 H 0.0267 -0.0877 -0.1935
C6 C 0.1340(3) -0.39334(13) -0.01285(13)
H4 H 0.2090 -0.4168 0.0145
H5 H 0.1212 -0.3384 0.0015
H6 H 0.1568 -0.3954 -0.0630
C7 C -0.1575(2) -0.52285(11) -0.05447(10)
H7 H -0.1654 -0.5522 -0.0090
C8 C -0.1439(3) -0.40022(15) -0.38672(12)
H8 H -0.1977 -0.4485 -0.3801
H9 H -0.0798 -0.4074 -0.4260
H10 H -0.2061 -0.3563 -0.3970
C9 C 0.1882(2) -0.14763(13) -0.14766(12)
H11 H 0.2177 -0.1778 -0.1896
H12 H 0.2424 -0.0983 -0.1463
C10 C -0.2888(2) -0.47610(12) -0.07166(10)
H13 H -0.3153 -0.4347 -0.0369
C11 C 0.2198(2) -0.19536(13) -0.08234(12)
C12 C -0.3882(2) -0.54361(12) -0.07963(11)
C13 C -0.0130(2) -0.26426(12) -0.19284(10)
H14 H 0.0813 -0.2638 -0.2061
C14 C -0.3182(2) -0.60344(12) -0.10880(10)
C15 C -0.0832(2) -0.34329(12) -0.20003(10)
H15 H -0.0102 -0.3843 -0.1941
C16 C -0.3830(2) -0.67712(12) -0.13797(11)
H16 H -0.4735 -0.6854 -0.1140
C17 C -0.1939(2) -0.36109(11) -0.14581(10)
H17 H -0.1531 -0.3533 -0.0980
C18 C -0.2955(2) -0.75090(12) -0.12768(11)
H18 H -0.2323 -0.7564 -0.1689
C19 C -0.3249(2) -0.31027(12) -0.15072(11)
H19 H -0.3598 -0.2998 -0.1021
C20 C -0.2081(2) -0.74389(12) -0.06056(11)
H20 H -0.2599 -0.7122 -0.0250
C21 C -0.3134(2) -0.23316(12) -0.18979(11)
H21 H -0.4053 -0.2081 -0.1918
H22 H -0.2838 -0.2438 -0.2387
C22 C -0.0667(2) -0.70721(12) -0.07126(12)
H23 H -0.0010 -0.7495 -0.0836
H24 H -0.0362 -0.6841 -0.0261
C23 C -0.2120(2) -0.17590(12) -0.15598(11)
H25 H -0.2250 -0.1801 -0.1039
C24 C -0.0592(2) -0.64305(12) -0.12839(11)
H26 H -0.0804 -0.6694 -0.1742
C25 C -0.2537(2) -0.44568(12) -0.14909(10)
C26 C -0.3678(2) -0.82796(12) -0.11648(11)
C27 C -0.3850(2) -0.43406(13) -0.19083(11)
C28 C -0.2875(2) -0.87204(13) -0.06276(12)
C29 C -0.1675(2) -0.51475(11) -0.17913(10)
H27 H -0.0727 -0.4974 -0.1902
H28 H -0.2104 -0.5362 -0.2223
C30 C -0.4804(3) -0.85721(14) -0.14513(12)
H29 H -0.5123 -0.9078 -0.1316
H30 H -0.5295 -0.8276 -0.1793
C31 C -0.2534(3) -0.09134(13) -0.17712(14)
H31 H -0.1933 -0.0535 -0.1532
H32 H -0.3491 -0.0817 -0.1634
H33 H -0.2440 -0.0851 -0.2281
C32 C 0.0906(2) -0.61423(13) -0.13304(13)
H34 H 0.0974 -0.5725 -0.1685
H35 H 0.1504 -0.6582 -0.1464
H36 H 0.1194 -0.5936 -0.0872
C33 C 0.3490(3) -0.24337(15) -0.08416(15)
H37 H 0.3710 -0.2616 -0.0366
H38 H 0.4248 -0.2110 -0.1020
H39 H 0.3357 -0.2889 -0.1151
C34 C -0.5385(2) -0.53454(14) -0.06466(13)
H40 H -0.5515 -0.5210 -0.0150
H41 H -0.5860 -0.5841 -0.0750
H42 H -0.5765 -0.4926 -0.0942
O11 O 0.2542(2) -0.41374(19) -0.20235(12)
H43 H 0.2053 -0.4082 -0.2403
H44 H 0.3347 -0.4325 -0.2133
loop_
_geom_bond_atom_site_label_1
_geom_bond_atom_site_label_2
_geom_bond_site_symmetry_1
_geom_bond_site_symmetry_2
O1 C11 1_555 1_555
O2 C4 1_555 1_555
O3 C4 1_555 1_555
O4 C19 1_555 1_555
O5 C27 1_555 1_555
O6 C2 1_555 1_555
O7 C2 1_555 1_555
O8 H1 1_555 1_555
O9 C20 1_555 1_555
O10 C28 1_555 1_555
C1 C5 1_555 1_555
C2 C6 1_555 1_555
C3 C7 1_555 1_555
C4 C8 1_555 1_555
C5 H2 1_555 1_555
H3 C5 1_555 1_555
C6 H4 1_555 1_555
H5 C6 1_555 1_555
H6 C6 1_555 1_555
C7 O7 1_555 1_555
H7 C7 1_555 1_555
C8 H8 1_555 1_555
H9 C8 1_555 1_555
H10 C8 1_555 1_555
C9 C5 1_555 1_555
H11 C9 1_555 1_555
H12 C9 1_555 1_555
C10 C7 1_555 1_555
H13 C10 1_555 1_555
C11 C9 1_555 1_555
C12 C10 1_555 1_555
C13 C1 1_555 1_555
H14 C13 1_555 1_555
C14 C3 1_555 1_555
C15 O2 1_555 1_555
H15 C15 1_555 1_555
C16 O8 1_555 1_555
H16 C16 1_555 1_555
C17 C15 1_555 1_555
H17 C17 1_555 1_555
C18 C16 1_555 1_555
H18 C18 1_555 1_555
C19 C17 1_555 1_555
H19 C19 1_555 1_555
C20 C18 1_555 1_555
H20 C20 1_555 1_555
C21 C19 1_555 1_555
H21 C21 1_555 1_555
H22 C21 1_555 1_555
C22 C20 1_555 1_555
H23 C22 1_555 1_555
H24 C22 1_555 1_555
C23 C1 1_555 1_555
H25 C23 1_555 1_555
C24 C3 1_555 1_555
H26 C24 1_555 1_555
C25 C10 1_555 1_555
C26 C18 1_555 1_555
C27 O4 1_555 1_555
C28 O9 1_555 1_555
C29 C3 1_555 1_555
H27 C29 1_555 1_555
H28 C29 1_555 1_555
C30 C26 1_555 1_555
H29 C30 1_555 1_555
H30 C30 1_555 1_555
C31 C23 1_555 1_555
H31 C31 1_555 1_555
H32 C31 1_555 1_555
H33 C31 1_555 1_555
C32 C24 1_555 1_555
H34 C32 1_555 1_555
H35 C32 1_555 1_555
H36 C32 1_555 1_555
C33 C11 1_555 1_555
H37 C33 1_555 1_555
H38 C33 1_555 1_555
H39 C33 1_555 1_555
C34 C12 1_555 1_555
H40 C34 1_555 1_555
H41 C34 1_555 1_555
H42 C34 1_555 1_555
O11 H43 1_555 1_555
H44 O11 1_555 1_555
C12 C14 1_555 1_555
C13 C15 1_555 1_555
C14 C16 1_555 1_555
C17 C25 1_555 1_555
C21 C23 1_555 1_555
C22 C24 1_555 1_555
C25 C27 1_555 1_555
C25 C29 1_555 1_555
C26 C28 1_555 1_555

#END
