
#######################################################################
#
#                 Cambridge Crystallographic Data Centre
#                                CCDC 
#
#######################################################################
#
# If this CIF has been generated from an entry in the Cambridge 
# Structural Database, then it will include bibliographic, chemical, 
# crystal, experimental, refinement or atomic coordinate data resulting 
# from the CCDC's data processing and validation procedures.
#
#######################################################################

data_EYILUV
_chemical_compound_source        'Inula lineariifolia'
_chemical_name_common            'lineariifolianoid I'
_chemical_formula_moiety         'C32 H42 O8'
_chemical_name_systematic        
"3-hydroxy-3-(15'-hydroxy-2',5,7,11'-tetramethyl-7'-methylene-2,6'-dioxo-6,7,8,8a-tetrahydro-3aH-spiro[cyclohepta[b]furan-3,14'-[5]oxatetracyclo[10.2.1.0^1,10^.0^4,8^]pentadec[10]en]-6-yl)propyl acetate"
_symmetry_cell_setting           orthorhombic
_symmetry_space_group_name_H-M   'P 21 21 21'
_symmetry_Int_Tables_number      19
_space_group_name_Hall           'P 2ac 2ab'
loop_
_symmetry_equiv_pos_site_id
_symmetry_equiv_pos_as_xyz
1 x,y,z
2 1/2+x,1/2-y,-z
3 -x,1/2+y,1/2-z
4 1/2-x,-y,1/2+z
_cell_length_a                   8.76710(10)
_cell_length_b                   17.4066(3)
_cell_length_c                   18.8236(4)
_cell_angle_alpha                90
_cell_angle_beta                 90
_cell_angle_gamma                90
_cell_volume                     2872.58
_exptl_crystal_colour            colorless
_exptl_crystal_description       plate
_cell_formula_units_Z            4
loop_
_atom_site_label
_atom_site_type_symbol
_atom_site_fract_x
_atom_site_fract_y
_atom_site_fract_z
O1 O -0.5767(2) -0.24748(11) -0.20953(11)
H1 H -0.6219 -0.2108 -0.1895
O2 O -0.8823(2) -0.19692(13) -0.32724(12)
O3 O -0.8619(3) -0.07013(16) -0.3440(2)
O4 O -0.2370(2) -0.35647(11) -0.09417(10)
O5 O -0.1260(2) -0.37686(13) 0.00917(10)
O6 O -0.2408(2) -0.36258(12) 0.13699(11)
H2 H -0.1910 -0.3722 0.0999
O7 O -0.5278(2) -0.68461(10) -0.02771(11)
O8 O -0.7177(3) -0.75306(12) -0.07571(12)
C1 C -0.6705(3) -0.38076(15) -0.21863(13)
H3 H -0.7469 -0.4088 -0.2483
C2 C -0.9365(4) -0.1249(2) -0.32758(17)
C3 C -0.4274(3) -0.44477(14) 0.06552(14)
C4 C -0.6855(3) -0.29615(15) -0.24275(14)
H4 H -0.7889 -0.2780 -0.2279
C5 C -1.1013(4) -0.1230(3) -0.3051(2)
H5 H -1.1074 -0.1190 -0.2532
H6 H -1.1520 -0.1703 -0.3206
H7 H -1.1519 -0.0786 -0.3268
C6 C -0.3927(3) -0.38831(16) 0.12855(14)
H8 H -0.4268 -0.4128 0.1739
C7 C -0.6744(3) -0.28557(16) -0.32307(15)
H9 H -0.5680 -0.2947 -0.3384
H10 H -0.7401 -0.3240 -0.3469
C8 C -0.5124(3) -0.32877(15) 0.10588(15)
H11 H -0.5240 -0.2838 0.1385
C9 C -0.7227(3) -0.20588(17) -0.34571(17)
H12 H -0.6604 -0.1667 -0.3210
H13 H -0.7085 -0.1995 -0.3976
C10 C -0.6487(3) -0.38101(15) 0.10140(14)
C11 C -0.7295(3) -0.38982(14) -0.14293(14)
C12 C -0.6014(3) -0.44983(15) 0.07846(13)
C13 C -0.6510(3) -0.39921(14) -0.08291(14)
H14 H -0.7091 -0.3995 -0.0403
C14 C -0.7037(3) -0.51800(15) 0.06629(15)
H15 H -0.8080 -0.4990 0.0566
H16 H -0.7079 -0.5484 0.1107
C15 C -0.4811(3) -0.40946(14) -0.07430(13)
H17 H -0.4561 -0.4644 -0.0848
C16 C -0.6571(3) -0.57125(14) 0.00604(14)
H18 H -0.6363 -0.5392 -0.0369
C17 C -0.3904(3) -0.35937(15) -0.12535(14)
H19 H -0.4349 -0.3065 -0.1261
C18 C -0.5152(3) -0.61934(14) 0.02151(14)
H20 H -0.5218 -0.6391 0.0713
C19 C -0.3723(3) -0.38798(16) -0.20083(14)
H21 H -0.2937 -0.4288 -0.2010
H22 H -0.3331 -0.3451 -0.2302
C20 C -0.3630(3) -0.58065(15) 0.01165(14)
H23 H -0.3597 -0.5570 -0.0362
H24 H -0.2817 -0.6200 0.0138
C21 C -0.5172(3) -0.41989(15) -0.23670(14)
H25 H -0.5020 -0.4118 -0.2888
C22 C -0.3298(3) -0.51818(15) 0.06770(15)
H26 H -0.2226 -0.5011 0.0588
C23 C -0.4079(3) -0.38829(14) -0.00123(13)
C24 C -0.7699(3) -0.63288(14) -0.01424(14)
C25 C -0.2430(3) -0.37562(15) -0.02562(14)
C26 C -0.6775(3) -0.69728(15) -0.04308(15)
C27 C -0.4627(3) -0.30900(14) 0.02907(15)
H27 H -0.3787 -0.2710 0.0290
H28 H -0.5492 -0.2884 0.0011
C28 C -0.9197(4) -0.63523(18) -0.00800(17)
C29 C -0.5314(3) -0.50743(16) -0.22678(16)
H29 H -0.5537 -0.5189 -0.1769
H30 H -0.4353 -0.5322 -0.2404
H31 H -0.6142 -0.5270 -0.2567
C30 C -0.3295(4) -0.55357(17) 0.14237(16)
H32 H -0.4347 -0.5587 0.1593
H33 H -0.2722 -0.5202 0.1748
H34 H -0.2813 -0.6043 0.1407
C31 C -0.9018(3) -0.38906(17) -0.13867(15)
H35 H -0.9416 -0.3462 -0.1669
H36 H -0.9334 -0.3829 -0.0890
H37 H -0.9421 -0.4376 -0.1573
C32 C -0.8079(3) -0.35393(16) 0.11557(15)
H38 H -0.8400 -0.3190 0.0776
H39 H -0.8110 -0.3269 0.1612
H40 H -0.8769 -0.3982 0.1172
loop_
_geom_bond_atom_site_label_1
_geom_bond_atom_site_label_2
_geom_bond_site_symmetry_1
_geom_bond_site_symmetry_2
O1 H1 1_555 1_555
O2 C2 1_555 1_555
O3 C2 1_555 1_555
O4 C17 1_555 1_555
O5 C25 1_555 1_555
O6 H2 1_555 1_555
O7 C18 1_555 1_555
O8 C26 1_555 1_555
C1 H3 1_555 1_555
C2 C5 1_555 1_555
C3 C6 1_555 1_555
C4 O1 1_555 1_555
H4 C4 1_555 1_555
C5 H5 1_555 1_555
H6 C5 1_555 1_555
H7 C5 1_555 1_555
C6 O6 1_555 1_555
H8 C6 1_555 1_555
C7 C4 1_555 1_555
H9 C7 1_555 1_555
H10 C7 1_555 1_555
C8 C6 1_555 1_555
H11 C8 1_555 1_555
C9 O2 1_555 1_555
H12 C9 1_555 1_555
H13 C9 1_555 1_555
C10 C8 1_555 1_555
C11 C1 1_555 1_555
C12 C3 1_555 1_555
C13 C11 1_555 1_555
H14 C13 1_555 1_555
C14 C12 1_555 1_555
H15 C14 1_555 1_555
H16 C14 1_555 1_555
C15 C13 1_555 1_555
H17 C15 1_555 1_555
C16 C14 1_555 1_555
H18 C16 1_555 1_555
C17 C15 1_555 1_555
H19 C17 1_555 1_555
C18 C16 1_555 1_555
H20 C18 1_555 1_555
C19 C17 1_555 1_555
H21 C19 1_555 1_555
H22 C19 1_555 1_555
C20 C18 1_555 1_555
H23 C20 1_555 1_555
H24 C20 1_555 1_555
C21 C1 1_555 1_555
H25 C21 1_555 1_555
C22 C3 1_555 1_555
H26 C22 1_555 1_555
C23 C3 1_555 1_555
C24 C16 1_555 1_555
C25 O4 1_555 1_555
C26 O7 1_555 1_555
C27 C8 1_555 1_555
H27 C27 1_555 1_555
H28 C27 1_555 1_555
C28 C24 1_555 1_555
C29 C21 1_555 1_555
H29 C29 1_555 1_555
H30 C29 1_555 1_555
H31 C29 1_555 1_555
C30 C22 1_555 1_555
H32 C30 1_555 1_555
H33 C30 1_555 1_555
H34 C30 1_555 1_555
C31 C11 1_555 1_555
H35 C31 1_555 1_555
H36 C31 1_555 1_555
H37 C31 1_555 1_555
C32 C10 1_555 1_555
H38 C32 1_555 1_555
H39 C32 1_555 1_555
H40 C32 1_555 1_555
C1 C4 1_555 1_555
C7 C9 1_555 1_555
C10 C12 1_555 1_555
C15 C23 1_555 1_555
C19 C21 1_555 1_555
C20 C22 1_555 1_555
C23 C25 1_555 1_555
C23 C27 1_555 1_555
C24 C26 1_555 1_555

#END
