
#######################################################################
#
#                 Cambridge Crystallographic Data Centre
#                                CCDC 
#
#######################################################################
#
# If this CIF has been generated from an entry in the Cambridge 
# Structural Database, then it will include bibliographic, chemical, 
# crystal, experimental, refinement or atomic coordinate data resulting 
# from the CCDC's data processing and validation procedures.
#
#######################################################################

data_EYOBOL
_chemical_formula_moiety         'C38 H30 N1 1+,F6 P1 1-'
_chemical_name_systematic        
'1-methyl-4-(2-(4-(triphenylvinyl)phenyl)vinyl)quinolinium hexafluorophosphate'
_symmetry_cell_setting           triclinic
_symmetry_space_group_name_H-M   'P -1'
_symmetry_Int_Tables_number      2
_space_group_name_Hall           '-P 1'
loop_
_symmetry_equiv_pos_site_id
_symmetry_equiv_pos_as_xyz
1 x,y,z
2 -x,-y,-z
_cell_length_a                   9.4059(4)
_cell_length_b                   11.4024(5)
_cell_length_c                   15.4542(5)
_cell_angle_alpha                94.338(3)
_cell_angle_beta                 105.333(3)
_cell_angle_gamma                92.789(3)
_cell_volume                     1589.82
_cell_formula_units_Z            2
loop_
_atom_site_label
_atom_site_type_symbol
_atom_site_fract_x
_atom_site_fract_y
_atom_site_fract_z
N1 N 0.8227(5) 0.2707(4) 1.0758(3)
C1 C 0.8913(4) 0.7813(4) 0.3007(3)
H1 H 0.8180 0.7233 0.3001
C2 C 0.8975(6) 0.8250(5) 0.2205(3)
H2 H 0.8285 0.7964 0.1671
C3 C 1.0055(6) 0.9109(4) 0.2197(3)
H3 H 1.0082 0.9417 0.1660
C4 C 1.1089(5) 0.9504(4) 0.2985(4)
H4 H 1.1837 1.0066 0.2979
C5 C 1.1026(5) 0.9071(4) 0.3794(3)
H5 H 1.1730 0.9352 0.4323
C6 C 0.9923(4) 0.8222(3) 0.3823(2)
C7 C 0.9955(4) 0.7745(3) 0.4703(2)
C8 C 1.1459(4) 0.7799(3) 0.5359(3)
C9 C 1.2546(4) 0.7150(4) 0.5162(3)
H6 H 1.2332 0.6665 0.4625
C10 C 1.3946(4) 0.7203(5) 0.5739(4)
H7 H 1.4663 0.6745 0.5602
C11 C 1.4269(5) 0.7938(5) 0.6518(3)
H8 H 1.5207 0.7970 0.6917
C12 C 1.3214(5) 0.8634(5) 0.6719(3)
H9 H 1.3455 0.9163 0.7233
C13 C 1.1790(4) 0.8538(4) 0.6146(3)
H10 H 1.1060 0.8971 0.6294
C14 C 0.8762(4) 0.7319(3) 0.4937(3)
C15 C 0.7200(4) 0.7333(3) 0.4381(2)
C16 C 0.6559(5) 0.8359(4) 0.4113(3)
H11 H 0.7117 0.9076 0.4284
C17 C 0.5152(5) 0.8347(5) 0.3610(4)
H12 H 0.4757 0.9054 0.3442
C18 C 0.4293(5) 0.7318(6) 0.3342(4)
H13 H 0.3321 0.7322 0.2996
C19 C 0.4890(5) 0.6256(5) 0.3593(3)
H14 H 0.4327 0.5544 0.3408
C20 C 0.6327(5) 0.6283(4) 0.4119(3)
H15 H 0.6721 0.5581 0.4303
C21 C 0.8920(4) 0.6745(3) 0.5800(2)
C22 C 0.8040(4) 0.7038(4) 0.6360(3)
H16 H 0.7410 0.7640 0.6217
C23 C 0.8053(4) 0.6478(3) 0.7121(3)
H17 H 0.7461 0.6720 0.7488
C24 C 0.8954(4) 0.5547(3) 0.7343(2)
C25 C 0.9864(4) 0.5255(4) 0.6789(3)
H18 H 1.0497 0.4655 0.6932
C26 C 0.9849(4) 0.5832(4) 0.6039(3)
H19 H 1.0467 0.5613 0.5683
C27 C 0.8983(4) 0.4870(4) 0.8113(3)
H20 H 0.9603 0.4253 0.8185
C28 C 0.8229(5) 0.5032(4) 0.8721(3)
H21 H 0.7656 0.5678 0.8692
C29 C 0.8245(5) 0.4255(4) 0.9435(3)
C30 C 0.8881(6) 0.3201(4) 0.9449(3)
H22 H 0.9335 0.2981 0.9001
C31 C 0.8869(6) 0.2453(4) 1.0112(4)
H23 H 0.9327 0.1749 1.0101
C32 C 0.7585(4) 0.4562(4) 1.0145(3)
C33 C 0.7561(4) 0.3764(4) 1.0808(3)
C34 C 0.6874(5) 0.4026(5) 1.1493(3)
H24 H 0.6825 0.3482 1.1905
C35 C 0.6275(6) 0.5088(7) 1.1550(3)
H25 H 0.5844 0.5272 1.2016
C36 C 0.6300(5) 0.5896(5) 1.0926(4)
H26 H 0.5867 0.6607 1.0967
C37 C 0.6964(5) 0.5647(4) 1.0244(3)
H27 H 0.7002 0.6206 0.9841
C38 C 0.8225(8) 0.1861(6) 1.1434(4)
H28 H 0.7225 0.1588 1.1392
H29 H 0.8675 0.2242 1.2026
H30 H 0.8772 0.1204 1.1323
P1 P 0.30097(16) 0.10190(14) 0.07891(9)
F1 F 0.2541(15) 0.1514(8) -0.0037(5)
F2 F 0.1422(8) 0.0256(6) 0.0515(6)
F3 F 0.3233(13) -0.0165(9) 0.0326(9)
F4 F 0.2875(15) 0.0758(10) 0.1676(5)
F5 F 0.303(2) 0.2226(6) 0.1218(6)
F6 F 0.4534(8) 0.1260(17) 0.1126(7)
loop_
_geom_bond_atom_site_label_1
_geom_bond_atom_site_label_2
_geom_bond_site_symmetry_1
_geom_bond_site_symmetry_2
N1 C31 1_555 1_555
C1 H1 1_555 1_555
C2 C1 1_555 1_555
H2 C2 1_555 1_555
C3 C2 1_555 1_555
H3 C3 1_555 1_555
C4 C3 1_555 1_555
H4 C4 1_555 1_555
C5 C4 1_555 1_555
H5 C5 1_555 1_555
C6 C1 1_555 1_555
C7 C6 1_555 1_555
C8 C7 1_555 1_555
C9 C8 1_555 1_555
H6 C9 1_555 1_555
C10 C9 1_555 1_555
H7 C10 1_555 1_555
C11 C10 1_555 1_555
H8 C11 1_555 1_555
C12 C11 1_555 1_555
H9 C12 1_555 1_555
C13 C8 1_555 1_555
H10 C13 1_555 1_555
C14 C7 1_555 1_555
C15 C14 1_555 1_555
C16 C15 1_555 1_555
H11 C16 1_555 1_555
C17 C16 1_555 1_555
H12 C17 1_555 1_555
C18 C17 1_555 1_555
H13 C18 1_555 1_555
C19 C18 1_555 1_555
H14 C19 1_555 1_555
C20 C15 1_555 1_555
H15 C20 1_555 1_555
C21 C14 1_555 1_555
C22 C21 1_555 1_555
H16 C22 1_555 1_555
C23 C22 1_555 1_555
H17 C23 1_555 1_555
C24 C23 1_555 1_555
C25 C24 1_555 1_555
H18 C25 1_555 1_555
C26 C21 1_555 1_555
H19 C26 1_555 1_555
C27 C24 1_555 1_555
H20 C27 1_555 1_555
C28 C27 1_555 1_555
H21 C28 1_555 1_555
C29 C28 1_555 1_555
C30 C29 1_555 1_555
H22 C30 1_555 1_555
C31 C30 1_555 1_555
H23 C31 1_555 1_555
C32 C29 1_555 1_555
C33 N1 1_555 1_555
C34 C33 1_555 1_555
H24 C34 1_555 1_555
C35 C34 1_555 1_555
H25 C35 1_555 1_555
C36 C35 1_555 1_555
H26 C36 1_555 1_555
C37 C32 1_555 1_555
H27 C37 1_555 1_555
C38 N1 1_555 1_555
H28 C38 1_555 1_555
H29 C38 1_555 1_555
H30 C38 1_555 1_555
P1 F1 1_555 1_555
F2 P1 1_555 1_555
F3 P1 1_555 1_555
F4 P1 1_555 1_555
F5 P1 1_555 1_555
F6 P1 1_555 1_555
C5 C6 1_555 1_555
C12 C13 1_555 1_555
C19 C20 1_555 1_555
C25 C26 1_555 1_555
C32 C33 1_555 1_555
C36 C37 1_555 1_555

#END
