
#######################################################################
#
#                 Cambridge Crystallographic Data Centre
#                                CCDC 
#
#######################################################################
#
# If this CIF has been generated from an entry in the Cambridge 
# Structural Database, then it will include bibliographic, chemical, 
# crystal, experimental, refinement or atomic coordinate data resulting 
# from the CCDC's data processing and validation procedures.
#
#######################################################################

data_EYOBIF
_chemical_compound_source        'marine fungus Penicillium sp. SK5GW1L'
_chemical_name_common            '3-epiarigsugacin E'
_chemical_formula_moiety         'C27 H34 O6'
_chemical_name_systematic        
3,4a-dihydroxy-9-(4-methoxyphenyl)-4,4,6a,12b-tetramethyl-1,3,4,4a,5,6,6a,12,12a,12b-decahydro-2H,11H-benzo[f]pyrano[4,3-b]chromen-11-one
_chemical_properties_biological  
'weak anti-acetylcholinesterase inhibitory activity'
_symmetry_cell_setting           orthorhombic
_symmetry_space_group_name_H-M   'P 21 21 21'
_symmetry_Int_Tables_number      19
_space_group_name_Hall           'P 2ac 2ab'
loop_
_symmetry_equiv_pos_site_id
_symmetry_equiv_pos_as_xyz
1 x,y,z
2 1/2-x,-y,1/2+z
3 -x,1/2+y,1/2-z
4 1/2+x,1/2-y,-z
_cell_length_a                   10.70160(10)
_cell_length_b                   10.75190(10)
_cell_length_c                   20.1484(2)
_cell_angle_alpha                90
_cell_angle_beta                 90
_cell_angle_gamma                90
_cell_volume                     2318.33
_cell_formula_units_Z            4
loop_
_atom_site_label
_atom_site_type_symbol
_atom_site_fract_x
_atom_site_fract_y
_atom_site_fract_z
O1 O 0.81140(10) 0.85997(10) 0.22487(5)
O2 O 0.98623(8) 0.66338(10) -0.10772(5)
H1 H 1.0303 0.6077 -0.1227
O3 O 0.87640(9) 0.59214(9) 0.08623(5)
O4 O 0.71790(10) 0.98308(10) 0.15187(5)
O5 O 0.85238(13) 0.78851(11) -0.28990(5)
H2 H 0.8352 0.8608 -0.2991
O6 O 0.99178(12) 0.70808(11) 0.51230(5)
C1 C 0.77136(14) 0.82678(14) 0.03926(6)
H3 H 0.8060 0.9072 0.0276
H4 H 0.6814 0.8310 0.0340
C2 C 0.80287(12) 0.79672(14) 0.11009(7)
C3 C 0.85650(13) 0.68639(14) 0.12853(7)
C4 C 0.77445(13) 0.88510(14) 0.16028(7)
C5 C 0.78353(12) 0.73781(13) -0.08080(7)
C6 C 0.82725(14) 0.50643(13) -0.09252(7)
H5 H 0.8724 0.4439 -0.1176
H6 H 0.7386 0.4894 -0.0969
C7 C 0.86445(15) 0.49759(14) -0.01909(7)
H7 H 0.8409 0.4164 -0.0022
H8 H 0.9545 0.5049 -0.0155
C8 C 0.85581(12) 0.63549(13) -0.12122(7)
C9 C 1.00540(14) 0.67575(15) 0.33420(7)
H9 H 1.0560 0.6358 0.3033
C10 C 0.87388(14) 0.77783(14) -0.21995(7)
H10 H 0.9635 0.7888 -0.2119
C11 C 0.82161(14) 0.86702(13) -0.10703(7)
H11 H 0.7716 0.9300 -0.0851
H12 H 0.9085 0.8823 -0.0960
C12 C 0.89559(13) 0.66545(14) 0.19521(7)
H13 H 0.9368 0.5923 0.2066
C13 C 0.87229(13) 0.75250(14) 0.24147(7)
C14 C 0.82479(12) 0.72651(13) -0.00687(7)
H14 H 0.9155 0.7393 -0.0068
C15 C 0.95653(16) 0.72428(15) 0.44776(7)
C16 C 0.82888(16) 0.80402(15) 0.35992(7)
H15 H 0.7610 0.8516 0.3462
C17 C 0.80402(13) 0.59673(13) 0.02332(7)
C18 C 0.80458(15) 0.87886(14) -0.18231(7)
H16 H 0.7163 0.8741 -0.1929
H17 H 0.8348 0.9596 -0.1966
C19 C 0.64021(12) 0.72644(15) -0.08679(7)
H18 H 0.6016 0.7618 -0.0481
H19 H 0.6175 0.6403 -0.0904
H20 H 0.6124 0.7702 -0.1256
C20 C 0.90333(14) 0.74490(14) 0.31249(7)
C21 C 1.03261(15) 0.66564(16) 0.40107(7)
H21 H 1.1016 0.6198 0.4149
C22 C 0.70584(15) 0.61166(16) -0.22280(7)
H22 H 0.7067 0.6018 -0.2701
H23 H 0.6491 0.6772 -0.2110
H24 H 0.6793 0.5354 -0.2024
C23 C 0.92700(16) 0.55435(15) -0.23457(8)
H25 H 0.9055 0.4703 -0.2233
H26 H 1.0115 0.5708 -0.2212
H27 H 0.9195 0.5658 -0.2817
C24 C 0.85463(17) 0.79278(16) 0.42704(7)
H28 H 0.8033 0.8313 0.4581
C25 C 0.83788(13) 0.64466(14) -0.19848(7)
C26 C 0.66970(14) 0.56441(15) 0.04276(8)
H29 H 0.6703 0.4979 0.0746
H30 H 0.6242 0.5389 0.0040
H31 H 0.6303 0.6362 0.0619
C27 C 0.9144(2) 0.76188(18) 0.56253(8)
H32 H 0.9121 0.8505 0.5569
H33 H 0.9480 0.7424 0.6055
H34 H 0.8314 0.7289 0.5589
loop_
_geom_bond_atom_site_label_1
_geom_bond_atom_site_label_2
_geom_bond_site_symmetry_1
_geom_bond_site_symmetry_2
O1 C4 1_555 1_555
O2 H1 1_555 1_555
O3 C3 1_555 1_555
O4 C4 1_555 1_555
O5 H2 1_555 1_555
O6 C15 1_555 1_555
C1 H3 1_555 1_555
H4 C1 1_555 1_555
C2 C1 1_555 1_555
C3 C2 1_555 1_555
C4 C2 1_555 1_555
C5 C8 1_555 1_555
C6 H5 1_555 1_555
H6 C6 1_555 1_555
C7 C6 1_555 1_555
H7 C7 1_555 1_555
H8 C7 1_555 1_555
C8 O2 1_555 1_555
C9 H9 1_555 1_555
C10 O5 1_555 1_555
H10 C10 1_555 1_555
C11 C5 1_555 1_555
H11 C11 1_555 1_555
H12 C11 1_555 1_555
C12 C3 1_555 1_555
H13 C12 1_555 1_555
C13 O1 1_555 1_555
C14 C1 1_555 1_555
H14 C14 1_555 1_555
C15 C21 1_555 1_555
C16 H15 1_555 1_555
C17 O3 1_555 1_555
C18 C10 1_555 1_555
H16 C18 1_555 1_555
H17 C18 1_555 1_555
C19 C5 1_555 1_555
H18 C19 1_555 1_555
H19 C19 1_555 1_555
H20 C19 1_555 1_555
C20 C9 1_555 1_555
C21 C9 1_555 1_555
H21 C21 1_555 1_555
C22 H22 1_555 1_555
H23 C22 1_555 1_555
H24 C22 1_555 1_555
C23 H25 1_555 1_555
H26 C23 1_555 1_555
H27 C23 1_555 1_555
C24 C15 1_555 1_555
H28 C24 1_555 1_555
C25 C8 1_555 1_555
C26 C17 1_555 1_555
H29 C26 1_555 1_555
H30 C26 1_555 1_555
H31 C26 1_555 1_555
C27 O6 1_555 1_555
H32 C27 1_555 1_555
H33 C27 1_555 1_555
H34 C27 1_555 1_555
C5 C14 1_555 1_555
C6 C8 1_555 1_555
C7 C17 1_555 1_555
C10 C25 1_555 1_555
C11 C18 1_555 1_555
C12 C13 1_555 1_555
C13 C20 1_555 1_555
C14 C17 1_555 1_555
C16 C20 1_555 1_555
C16 C24 1_555 1_555
C22 C25 1_555 1_555
C23 C25 1_555 1_555

#END
