
#######################################################################
#
#                 Cambridge Crystallographic Data Centre
#                                CCDC 
#
#######################################################################
#
# If this CIF has been generated from an entry in the Cambridge 
# Structural Database, then it will include bibliographic, chemical, 
# crystal, experimental, refinement or atomic coordinate data resulting 
# from the CCDC's data processing and validation procedures.
#
#######################################################################

data_EYODUR
_chemical_formula_moiety         'C12 H24 N2 O9,2(H2 O1)'
_chemical_name_systematic        
"6,6'-Dideoxy-6,6'-diamino-\a,\a'-trehalose dihydrate"
_symmetry_cell_setting           tetragonal
_symmetry_space_group_name_H-M   'P 43 21 2'
_symmetry_Int_Tables_number      96
_space_group_name_Hall           'P 4nw 2abw'
loop_
_symmetry_equiv_pos_site_id
_symmetry_equiv_pos_as_xyz
1 x,y,z
2 1/2-y,1/2+x,3/4+z
3 -x,-y,1/2+z
4 1/2+y,1/2-x,1/4+z
5 1/2+x,1/2-y,1/4-z
6 y,x,-z
7 1/2-x,1/2+y,3/4-z
8 -y,-x,1/2-z
_cell_length_a                   8.6093(2)
_cell_length_b                   8.6093(2)
_cell_length_c                   22.1566(8)
_cell_angle_alpha                90
_cell_angle_beta                 90
_cell_angle_gamma                90
_cell_volume                     1642.25
_exptl_crystal_colour            colorless
_exptl_crystal_description       block
_chemical_melting_point          '498-500 K'
_cell_formula_units_Z            4
loop_
_atom_site_label
_atom_site_type_symbol
_atom_site_fract_x
_atom_site_fract_y
_atom_site_fract_z
O1 O 0.4945(2) 0.4945(2) 0.0000
O2 O 0.3645(2) 0.7739(2) 0.03877(8)
O3 O 0.5061(3) 0.7766(2) 0.15877(8)
O4 O 0.6403(2) 0.4922(2) 0.19747(7)
O5 O 0.3713(2) 0.3621(2) 0.07921(7)
N1 N 0.4929(3) 0.0674(3) 0.11205(10)
C1 C 0.3671(3) 0.4936(3) 0.04081(10)
C2 C 0.3706(3) 0.6426(3) 0.07738(10)
C3 C 0.5113(3) 0.6462(3) 0.11967(10)
C4 C 0.5079(3) 0.4998(3) 0.15854(11)
C5 C 0.5062(3) 0.3566(3) 0.11789(10)
C6 C 0.4944(3) 0.2040(3) 0.15198(11)
H1 H 0.4587 0.7994 0.0386
H3 H 0.4948 0.8607 0.1400
H4 H 0.6961 0.5720 0.2002
H8 H 0.5895 0.0725 0.0871
H9 H 0.3980 0.0792 0.0906
H10 H 0.2685 0.4908 0.0170
H11 H 0.2751 0.6444 0.1031
H12 H 0.6092 0.6488 0.0954
H13 H 0.4114 0.5005 0.1837
H14 H 0.6022 0.3558 0.0925
H15 H 0.5834 0.1955 0.1800
H16 H 0.3981 0.2045 0.1764
C1E C 0.4936(3) 0.3671(3) -0.04081(10)
O5E O 0.3621(2) 0.3713(2) -0.07921(7)
C5E C 0.3566(3) 0.5062(3) -0.11789(10)
C4E C 0.4998(3) 0.5079(3) -0.15854(11)
O4E O 0.4922(2) 0.6403(2) -0.19747(7)
H4E H 0.5720 0.6961 -0.2002
C3E C 0.6462(3) 0.5113(3) -0.11967(10)
O3E O 0.7766(2) 0.5061(3) -0.15877(8)
H3E H 0.8607 0.4948 -0.1400
C2E C 0.6426(3) 0.3706(3) -0.07738(10)
O2E O 0.7739(2) 0.3645(2) -0.03877(8)
H1E H 0.7994 0.4587 -0.0386
H10E H 0.4908 0.2685 -0.0170
H11E H 0.6444 0.2751 -0.1031
H12E H 0.6488 0.6092 -0.0954
H13E H 0.5005 0.4114 -0.1837
C6E C 0.2040(3) 0.4944(3) -0.15198(11)
N1E N 0.0674(3) 0.4929(3) -0.11205(10)
H8E H 0.0725 0.5895 -0.0871
H9E H 0.0792 0.3980 -0.0906
H15E H 0.1955 0.5834 -0.1800
H16E H 0.2045 0.3981 -0.1764
H14E H 0.3558 0.6022 -0.0925
O6 O 0.3753(3) 0.8426(3) 0.26482(9)
H6 H 0.4383 0.8455 0.2278
H2? H 0.2747 0.8119 0.0384
H5? H 0.5892 0.4461 0.2243
H7? H 0.2846 0.7714 0.2586
loop_
_geom_bond_atom_site_label_1
_geom_bond_atom_site_label_2
_geom_bond_site_symmetry_1
_geom_bond_site_symmetry_2
O1 C1 1_555 1_555
O2 C2 1_555 1_555
O3 C3 1_555 1_555
O4 C4 1_555 1_555
O5 C1 1_555 1_555
O6 H6 1_555 1_555
N1 C6 1_555 1_555
C1 C2 1_555 1_555
C2 C3 1_555 1_555
C3 C4 1_555 1_555
C4 C5 1_555 1_555
C5 O5 1_555 1_555
C6 C5 1_555 1_555
H1 O2 1_555 1_555
H3 O3 1_555 1_555
H4 O4 1_555 1_555
H8 N1 1_555 1_555
H9 N1 1_555 1_555
H10 C1 1_555 1_555
H11 C2 1_555 1_555
H12 C3 1_555 1_555
H13 C4 1_555 1_555
H14 C5 1_555 1_555
H15 C6 1_555 1_555
H16 C6 1_555 1_555
C1E O1 1_555 1_555
O5E C1E 1_555 1_555
C5E O5E 1_555 1_555
C4E C5E 1_555 1_555
O4E C4E 1_555 1_555
H4E O4E 1_555 1_555
C3E C4E 1_555 1_555
O3E C3E 1_555 1_555
H3E O3E 1_555 1_555
C2E C1E 1_555 1_555
O2E C2E 1_555 1_555
H1E O2E 1_555 1_555
H10E C1E 1_555 1_555
H11E C2E 1_555 1_555
H12E C3E 1_555 1_555
H13E C4E 1_555 1_555
C6E C5E 1_555 1_555
N1E C6E 1_555 1_555
H8E N1E 1_555 1_555
H9E N1E 1_555 1_555
H15E C6E 1_555 1_555
H16E C6E 1_555 1_555
H14E C5E 1_555 1_555
C3E C2E 1_555 1_555

#END
