
#######################################################################
#
#                 Cambridge Crystallographic Data Centre
#                                CCDC 
#
#######################################################################
#
# If this CIF has been generated from an entry in the Cambridge 
# Structural Database, then it will include bibliographic, chemical, 
# crystal, experimental, refinement or atomic coordinate data resulting 
# from the CCDC's data processing and validation procedures.
#
#######################################################################

data_EYODEB
_chemical_formula_moiety         'C38 H46 O21 S2'
_chemical_name_systematic        
2,2',3,3',4,4'-Hexa-O-acetyl-6,6'-di-O-(4-toluenesulfonyl)-\a,\a'-trehalose
_symmetry_cell_setting           orthorhombic
_symmetry_space_group_name_H-M   'P 21 21 21'
_symmetry_Int_Tables_number      19
_space_group_name_Hall           'P 2ac 2ab'
loop_
_symmetry_equiv_pos_site_id
_symmetry_equiv_pos_as_xyz
1 x,y,z
2 1/2-x,-y,1/2+z
3 -x,1/2+y,1/2-z
4 1/2+x,1/2-y,-z
_cell_length_a                   18.1484(9)
_cell_length_b                   21.1046(9)
_cell_length_c                   23.4224(14)
_cell_angle_alpha                90
_cell_angle_beta                 90
_cell_angle_gamma                90
_cell_volume                     8971.12
_exptl_crystal_colour            colorless
_exptl_crystal_description       lath
_chemical_melting_point          '431-434 K'
_cell_formula_units_Z            8
_exptl_crystal_recrystallization_method ethanol
loop_
_atom_site_label
_atom_site_type_symbol
_atom_site_fract_x
_atom_site_fract_y
_atom_site_fract_z
C1 C 0.2823(2) 0.2825(2) 0.0073(2)
C2 C 0.3524(3) 0.2477(2) -0.0090(2)
C3 C 0.3628(3) 0.1895(2) 0.0276(2)
C4 C 0.3566(3) 0.2053(2) 0.0899(2)
C5 C 0.2864(3) 0.2426(2) 0.1029(2)
O1 O 0.28341(17) 0.29753(15) 0.06555(15)
O2 O 0.22043(16) 0.24330(15) -0.00622(14)
O3 O 0.35004(17) 0.22817(15) -0.06771(16)
C6 C 0.3768(3) 0.2699(3) -0.1062(3)
O4 O 0.3993(2) 0.32150(19) -0.09272(18)
C7 C 0.3755(3) 0.2434(3) -0.1657(2)
O5 O 0.43702(16) 0.16739(15) 0.01695(15)
C8 C 0.4483(3) 0.1042(3) 0.0099(2)
O6 O 0.3990(2) 0.06620(18) 0.0117(2)
C9 C 0.5276(3) 0.0907(2) 0.0007(3)
O7 O 0.34950(17) 0.14673(15) 0.12111(16)
C10 C 0.4095(3) 0.1235(3) 0.1484(3)
O8 O 0.4663(2) 0.1520(2) 0.1512(2)
C11 C 0.3947(3) 0.0584(3) 0.1700(3)
C12 C 0.2842(3) 0.2678(2) 0.1620(2)
O9 O 0.20846(18) 0.28854(15) 0.17302(16)
S1 S 0.19409(8) 0.34989(7) 0.21051(7)
O10 O 0.1169(2) 0.34868(18) 0.22094(17)
O11 O 0.2455(2) 0.35042(18) 0.25691(16)
C13 C 0.2149(3) 0.4122(2) 0.1643(2)
C14 C 0.2674(4) 0.4566(3) 0.1781(3)
C15 C 0.2793(4) 0.5059(3) 0.1410(3)
C16 C 0.2437(3) 0.5117(3) 0.0905(3)
C17 C 0.1915(3) 0.4670(3) 0.0766(3)
C18 C 0.1764(3) 0.4182(3) 0.1134(3)
C19 C 0.2600(3) 0.5654(3) 0.0501(3)
C20 C 0.1545(3) 0.2796(2) -0.0103(2)
C21 C 0.0881(3) 0.2371(2) 0.0005(2)
C22 C 0.0769(3) 0.1899(2) -0.0471(2)
C23 C 0.0797(3) 0.2214(2) -0.1045(2)
C24 C 0.1469(3) 0.2642(2) -0.1104(2)
O12 O 0.14840(17) 0.30854(15) -0.06373(15)
O13 O 0.09614(18) 0.20283(17) 0.05266(17)
C25 C 0.0684(3) 0.2324(3) 0.1003(3)
O14 O 0.0433(2) 0.2837(2) 0.09920(17)
C26 C 0.0728(3) 0.1894(3) 0.1515(3)
O15 O 0.00380(17) 0.16370(16) -0.03715(16)
C27 C -0.0083(3) 0.1016(3) -0.0475(3)
O16 O 0.0384(2) 0.06656(18) -0.0658(2)
C28 C -0.0855(3) 0.0836(2) -0.0334(3)
O17 O 0.08762(18) 0.17426(17) -0.14887(16)
C29 C 0.0255(4) 0.1507(3) -0.1735(3)
O18 O -0.0349(2) 0.1690(2) -0.16320(19)
C30 C 0.0444(4) 0.0988(3) -0.2147(3)
C31 C 0.1439(3) 0.3029(3) -0.1642(3)
O19 O 0.21530(18) 0.33562(17) -0.16801(17)
S2 S 0.22312(8) 0.38606(7) -0.21745(7)
O20 O 0.1631(2) 0.42937(18) -0.2143(2)
O21 O 0.2342(2) 0.35406(19) -0.27059(17)
C32 C 0.3047(3) 0.4211(3) -0.1951(3)
C33 C 0.3048(4) 0.4568(3) -0.1444(3)
C34 C 0.3710(5) 0.4814(3) -0.1263(3)
C35 C 0.4359(4) 0.4721(3) -0.1559(4)
C36 C 0.4346(4) 0.4389(3) -0.2070(3)
C37 C 0.3682(3) 0.4130(3) -0.2261(3)
C38 C 0.5094(4) 0.4962(4) -0.1326(4)
H1 H 0.2790 0.3225 -0.0153
H2 H 0.3954 0.2767 -0.0034
H3 H 0.3261 0.1561 0.0169
H4 H 0.4010 0.2293 0.1030
H5 H 0.2424 0.2152 0.0960
H6 H 0.3751 0.2783 -0.1933
H7 H 0.3311 0.2176 -0.1708
H8 H 0.4193 0.2172 -0.1718
H9 H 0.5355 0.0448 0.0007
H10 H 0.5565 0.1100 0.0315
H11 H 0.5431 0.1084 -0.0360
H12 H 0.4383 0.0425 0.1901
H13 H 0.3834 0.0304 0.1378
H14 H 0.3527 0.0594 0.1962
H15 H 0.2986 0.2344 0.1896
H16 H 0.3187 0.3039 0.1660
H17 H 0.2949 0.4531 0.2124
H18 H 0.3140 0.5376 0.1514
H19 H 0.1657 0.4700 0.0414
H20 H 0.1393 0.3882 0.1040
H21 H 0.2716 0.6037 0.0720
H22 H 0.2168 0.5733 0.0260
H23 H 0.3021 0.5542 0.0259
H24 H 0.1557 0.3134 0.0197
H25 H 0.0431 0.2643 0.0034
H26 H 0.1149 0.1557 -0.0448
H27 H 0.0337 0.2465 -0.1109
H28 H 0.1928 0.2380 -0.1100
H29 H 0.0716 0.2149 0.1865
H30 H 0.1188 0.1651 0.1501
H31 H 0.0308 0.1602 0.1512
H32 H -0.0896 0.0373 -0.0322
H33 H -0.1188 0.1003 -0.0627
H34 H -0.0989 0.1012 0.0038
H35 H 0.0082 0.0645 -0.2113
H36 H 0.0937 0.0823 -0.2060
H37 H 0.0438 0.1155 -0.2537
H38 H 0.1364 0.2752 -0.1978
H39 H 0.1031 0.3339 -0.1624
H40 H 0.2608 0.4638 -0.1234
H41 H 0.3721 0.5056 -0.0921
H42 H 0.4784 0.4338 -0.2287
H43 H 0.3670 0.3896 -0.2608
H44 H 0.5230 0.4715 -0.0988
H45 H 0.5047 0.5409 -0.1222
H46 H 0.5476 0.4915 -0.1619
C39 C 0.2152(2) 0.7826(2) -0.0120(2)
C40 C 0.1473(3) 0.7443(2) 0.0038(2)
C41 C 0.1361(3) 0.6884(2) -0.0362(2)
C42 C 0.1406(3) 0.7091(2) -0.0979(2)
C43 C 0.2090(3) 0.7488(2) -0.1090(2)
O22 O 0.21055(16) 0.80155(15) -0.06949(15)
O23 O 0.27881(16) 0.74521(15) -0.00206(14)
O24 O 0.15398(18) 0.71882(16) 0.06037(16)
C44 C 0.1158(3) 0.7479(3) 0.1021(3)
O25 O 0.0805(2) 0.79616(18) 0.09450(16)
C45 C 0.1211(3) 0.7134(3) 0.1575(3)
O26 O 0.06341(16) 0.66463(16) -0.02448(15)
C46 C 0.0524(3) 0.6003(3) -0.0233(3)
O27 O 0.1010(2) 0.56270(18) -0.02933(19)
C47 C -0.0276(3) 0.5870(3) -0.0140(3)
O28 O 0.14873(18) 0.65245(16) -0.13194(15)
C48 C 0.0888(3) 0.6276(3) -0.1574(3)
O29 O 0.0292(2) 0.6525(2) -0.1559(2)
C49 C 0.1069(4) 0.5649(3) -0.1829(3)
C50 C 0.2073(3) 0.7761(2) -0.1675(2)
O30 O 0.28161(18) 0.79889(15) -0.18183(15)
S3 S 0.28957(8) 0.86651(7) -0.21056(7)
O31 O 0.2343(2) 0.87298(17) -0.25370(16)
O32 O 0.36546(19) 0.87061(17) -0.22487(17)
C51 C 0.2692(3) 0.9178(2) -0.1541(2)
C52 C 0.3192(3) 0.9232(2) -0.1094(2)
C53 C 0.3026(3) 0.9607(2) -0.0635(3)
C54 C 0.2374(3) 0.9940(2) -0.0610(3)
C55 C 0.1885(3) 0.9888(3) -0.1057(3)
C56 C 0.2038(3) 0.9509(2) -0.1522(3)
C57 C 0.2201(3) 1.0356(3) -0.0099(3)
C58 C 0.3426(3) 0.7828(2) 0.0067(2)
C59 C 0.4106(3) 0.7436(2) -0.0076(2)
C60 C 0.4203(3) 0.6900(2) 0.0338(2)
C61 C 0.4186(3) 0.7145(2) 0.0951(2)
C62 C 0.3485(3) 0.7524(2) 0.1051(2)
O33 O 0.34661(17) 0.80267(15) 0.06396(16)
O34 O 0.40426(18) 0.71665(16) -0.06365(16)
C63 C 0.4286(3) 0.7525(3) -0.1076(3)
O35 O 0.4498(2) 0.80604(18) -0.10127(17)
C64 C 0.4257(3) 0.7168(3) -0.1634(3)
O36 O 0.49263(16) 0.66269(16) 0.02471(16)
C65 C 0.4965(3) 0.6027(3) 0.0054(3)
O37 O 0.4427(2) 0.57111(19) -0.0049(2)
C66 C 0.5741(3) 0.5820(3) -0.0018(3)
O38 O 0.41842(18) 0.66013(16) 0.13239(15)
C67 C 0.4828(3) 0.6448(3) 0.1586(3)
O39 O 0.5365(2) 0.6759(2) 0.1561(2)
C68 C 0.4768(3) 0.5823(3) 0.1885(3)
C69 C 0.3447(3) 0.7820(3) 0.1628(2)
O40 O 0.2722(2) 0.80853(16) 0.17204(17)
S4 S 0.25718(8) 0.88184(7) 0.16115(8)
O41 O 0.2203(2) 0.8892(2) 0.10723(17)
O42 O 0.3236(2) 0.91536(18) 0.1719(2)
C70 C 0.1933(3) 0.8966(3) 0.2159(3)
C71 C 0.2177(3) 0.9151(3) 0.2686(3)
C72 C 0.1667(4) 0.9279(3) 0.3117(3)
C73 C 0.0926(3) 0.9211(3) 0.3018(3)
C74 C 0.0688(3) 0.9012(3) 0.2489(3)
C75 C 0.1198(3) 0.8887(3) 0.2058(3)
C76 C 0.0368(3) 0.9342(3) 0.3492(3)
H47 H 0.2174 0.8212 0.0127
H48 H 0.1030 0.7724 0.0020
H49 H 0.1737 0.6549 -0.0283
H50 H 0.0952 0.7328 -0.1092
H51 H 0.2542 0.7223 -0.1040
H52 H 0.1210 0.7439 0.1890
H53 H 0.1669 0.6887 0.1585
H54 H 0.0789 0.6847 0.1615
H55 H -0.0358 0.5411 -0.0141
H56 H -0.0565 0.6066 -0.0446
H57 H -0.0429 0.6046 0.0229
H58 H 0.0723 0.5330 -0.1688
H59 H 0.1573 0.5529 -0.1723
H60 H 0.1032 0.5676 -0.2246
H61 H 0.1916 0.7435 -0.1953
H62 H 0.1718 0.8117 -0.1691
H63 H 0.3647 0.9009 -0.1106
H64 H 0.3367 0.9638 -0.0329
H65 H 0.1435 1.0118 -0.1045
H66 H 0.1694 0.9476 -0.1826
H67 H 0.1702 1.0528 -0.0137
H68 H 0.2556 1.0706 -0.0081
H69 H 0.2235 1.0104 0.0252
H70 H 0.3406 0.8207 -0.0188
H71 H 0.4551 0.7715 -0.0062
H72 H 0.3811 0.6572 0.0280
H73 H 0.4629 0.7414 0.1027
H74 H 0.3048 0.7243 0.0995
H75 H 0.4290 0.7468 -0.1952
H76 H 0.3791 0.6934 -0.1659
H77 H 0.4670 0.6869 -0.1653
H78 H 0.5763 0.5356 -0.0021
H79 H 0.6039 0.5983 0.0299
H80 H 0.5935 0.5985 -0.0380
H81 H 0.4701 0.5486 0.1602
H82 H 0.4345 0.5830 0.2145
H83 H 0.5220 0.5745 0.2103
H84 H 0.3552 0.7497 0.1923
H85 H 0.3823 0.8158 0.1659
H86 H 0.2690 0.9192 0.2758
H87 H 0.1834 0.9414 0.3481
H88 H 0.0176 0.8960 0.2418
H89 H 0.1033 0.8747 0.1694
H90 H 0.0220 0.8941 0.3669
H91 H -0.0066 0.9551 0.3330
H92 H 0.0592 0.9617 0.3781
loop_
_geom_bond_atom_site_label_1
_geom_bond_atom_site_label_2
_geom_bond_site_symmetry_1
_geom_bond_site_symmetry_2
C1 C2 1_555 1_555
C2 C3 1_555 1_555
C3 C4 1_555 1_555
C4 C5 1_555 1_555
C5 O1 1_555 1_555
O1 C1 1_555 1_555
O2 C1 1_555 1_555
O3 C2 1_555 1_555
C6 O3 1_555 1_555
O4 C6 1_555 1_555
C7 C6 1_555 1_555
O5 C3 1_555 1_555
C8 O5 1_555 1_555
O6 C8 1_555 1_555
C9 C8 1_555 1_555
O7 C4 1_555 1_555
C10 O7 1_555 1_555
O8 C10 1_555 1_555
C11 C10 1_555 1_555
C12 C5 1_555 1_555
O9 C12 1_555 1_555
S1 O9 1_555 1_555
O10 S1 1_555 1_555
O11 S1 1_555 1_555
C13 S1 1_555 1_555
C14 C13 1_555 1_555
C15 C14 1_555 1_555
C16 C15 1_555 1_555
C17 C16 1_555 1_555
C18 C13 1_555 1_555
C19 C16 1_555 1_555
C20 O2 1_555 1_555
C21 C20 1_555 1_555
C22 C21 1_555 1_555
C23 C22 1_555 1_555
C24 C23 1_555 1_555
O12 C20 1_555 1_555
O13 C21 1_555 1_555
C25 O13 1_555 1_555
O14 C25 1_555 1_555
C26 C25 1_555 1_555
O15 C22 1_555 1_555
C27 O15 1_555 1_555
O16 C27 1_555 1_555
C28 C27 1_555 1_555
O17 C23 1_555 1_555
C29 O17 1_555 1_555
O18 C29 1_555 1_555
C30 C29 1_555 1_555
C31 C24 1_555 1_555
O19 C31 1_555 1_555
S2 O19 1_555 1_555
O20 S2 1_555 1_555
O21 S2 1_555 1_555
C32 S2 1_555 1_555
C33 C32 1_555 1_555
C34 C33 1_555 1_555
C35 C34 1_555 1_555
C36 C35 1_555 1_555
C37 C32 1_555 1_555
C38 C35 1_555 1_555
C39 C40 1_555 1_555
C40 C41 1_555 1_555
C41 C42 1_555 1_555
C42 C43 1_555 1_555
C43 O22 1_555 1_555
O22 C39 1_555 1_555
O23 C39 1_555 1_555
O24 C40 1_555 1_555
C44 O24 1_555 1_555
O25 C44 1_555 1_555
C45 C44 1_555 1_555
O26 C41 1_555 1_555
C46 O26 1_555 1_555
O27 C46 1_555 1_555
C47 C46 1_555 1_555
O28 C42 1_555 1_555
C48 O28 1_555 1_555
O29 C48 1_555 1_555
C49 C48 1_555 1_555
C50 C43 1_555 1_555
O30 C50 1_555 1_555
S3 O30 1_555 1_555
O31 S3 1_555 1_555
O32 S3 1_555 1_555
C51 S3 1_555 1_555
C52 C51 1_555 1_555
C53 C52 1_555 1_555
C54 C53 1_555 1_555
C55 C54 1_555 1_555
C56 C51 1_555 1_555
C57 C54 1_555 1_555
C58 O23 1_555 1_555
C59 C58 1_555 1_555
C60 C59 1_555 1_555
C61 C60 1_555 1_555
C62 C61 1_555 1_555
O33 C58 1_555 1_555
O34 C59 1_555 1_555
C63 O34 1_555 1_555
O35 C63 1_555 1_555
C64 C63 1_555 1_555
O36 C60 1_555 1_555
C65 O36 1_555 1_555
O37 C65 1_555 1_555
C66 C65 1_555 1_555
O38 C61 1_555 1_555
C67 O38 1_555 1_555
O39 C67 1_555 1_555
C68 C67 1_555 1_555
C69 C62 1_555 1_555
O40 C69 1_555 1_555
S4 O40 1_555 1_555
O41 S4 1_555 1_555
O42 S4 1_555 1_555
C70 S4 1_555 1_555
C71 C70 1_555 1_555
C72 C71 1_555 1_555
C73 C72 1_555 1_555
C74 C73 1_555 1_555
C75 C70 1_555 1_555
C76 C73 1_555 1_555
H1 C1 1_555 1_555
H2 C2 1_555 1_555
H3 C3 1_555 1_555
H4 C4 1_555 1_555
H5 C5 1_555 1_555
H6 C7 1_555 1_555
H7 C7 1_555 1_555
H8 C7 1_555 1_555
H9 C9 1_555 1_555
H10 C9 1_555 1_555
H11 C9 1_555 1_555
H12 C11 1_555 1_555
H13 C11 1_555 1_555
H14 C11 1_555 1_555
H15 C12 1_555 1_555
H16 C12 1_555 1_555
H17 C14 1_555 1_555
H18 C15 1_555 1_555
H19 C17 1_555 1_555
H20 C18 1_555 1_555
H21 C19 1_555 1_555
H22 C19 1_555 1_555
H23 C19 1_555 1_555
H24 C20 1_555 1_555
H25 C21 1_555 1_555
H26 C22 1_555 1_555
H27 C23 1_555 1_555
H28 C24 1_555 1_555
H29 C26 1_555 1_555
H30 C26 1_555 1_555
H31 C26 1_555 1_555
H32 C28 1_555 1_555
H33 C28 1_555 1_555
H34 C28 1_555 1_555
H35 C30 1_555 1_555
H36 C30 1_555 1_555
H37 C30 1_555 1_555
H38 C31 1_555 1_555
H39 C31 1_555 1_555
H40 C33 1_555 1_555
H41 C34 1_555 1_555
H42 C36 1_555 1_555
H43 C37 1_555 1_555
H44 C38 1_555 1_555
H45 C38 1_555 1_555
H46 C38 1_555 1_555
H47 C39 1_555 1_555
H48 C40 1_555 1_555
H49 C41 1_555 1_555
H50 C42 1_555 1_555
H51 C43 1_555 1_555
H52 C45 1_555 1_555
H53 C45 1_555 1_555
H54 C45 1_555 1_555
H55 C47 1_555 1_555
H56 C47 1_555 1_555
H57 C47 1_555 1_555
H58 C49 1_555 1_555
H59 C49 1_555 1_555
H60 C49 1_555 1_555
H61 C50 1_555 1_555
H62 C50 1_555 1_555
H63 C52 1_555 1_555
H64 C53 1_555 1_555
H65 C55 1_555 1_555
H66 C56 1_555 1_555
H67 C57 1_555 1_555
H68 C57 1_555 1_555
H69 C57 1_555 1_555
H70 C58 1_555 1_555
H71 C59 1_555 1_555
H72 C60 1_555 1_555
H73 C61 1_555 1_555
H74 C62 1_555 1_555
H75 C64 1_555 1_555
H76 C64 1_555 1_555
H77 C64 1_555 1_555
H78 C66 1_555 1_555
H79 C66 1_555 1_555
H80 C66 1_555 1_555
H81 C68 1_555 1_555
H82 C68 1_555 1_555
H83 C68 1_555 1_555
H84 C69 1_555 1_555
H85 C69 1_555 1_555
H86 C71 1_555 1_555
H87 C72 1_555 1_555
H88 C74 1_555 1_555
H89 C75 1_555 1_555
H90 C76 1_555 1_555
H91 C76 1_555 1_555
H92 C76 1_555 1_555
C17 C18 1_555 1_555
C24 O12 1_555 1_555
C36 C37 1_555 1_555
C55 C56 1_555 1_555
C62 O33 1_555 1_555
C74 C75 1_555 1_555

#END
