
#######################################################################
#
#                 Cambridge Crystallographic Data Centre
#                                CCDC 
#
#######################################################################
#
# If this CIF has been generated from an entry in the Cambridge 
# Structural Database, then it will include bibliographic, chemical, 
# crystal, experimental, refinement or atomic coordinate data resulting 
# from the CCDC's data processing and validation procedures.
#
#######################################################################

data_EYOFED
_chemical_formula_moiety         'C13 H11 I1 N2 O2'
_chemical_name_systematic        3-Iodo-N-(4-nitrobenzyl)aniline
_symmetry_cell_setting           orthorhombic
_symmetry_space_group_name_H-M   'P 21 21 21'
_symmetry_Int_Tables_number      19
_space_group_name_Hall           'P 2ac 2ab'
loop_
_symmetry_equiv_pos_site_id
_symmetry_equiv_pos_as_xyz
1 x,y,z
2 1/2-x,-y,1/2+z
3 -x,1/2+y,1/2-z
4 1/2+x,1/2-y,-z
_cell_length_a                   7.0966(2)
_cell_length_b                   12.5908(4)
_cell_length_c                   13.8360(6)
_cell_angle_alpha                90
_cell_angle_beta                 90
_cell_angle_gamma                90
_cell_volume                     1236.27
_exptl_crystal_colour            orange
_exptl_crystal_description       needle
_cell_formula_units_Z            4
_exptl_crystal_recrystallization_method ethanol
loop_
_atom_site_label
_atom_site_type_symbol
_atom_site_fract_x
_atom_site_fract_y
_atom_site_fract_z
N1 N 0.3919(5) 0.3395(3) 0.4693(2)
C1 C 0.4045(5) 0.2280(3) 0.4779(3)
C2 C 0.3936(4) 0.1839(2) 0.5785(3)
C3 C 0.4180(4) 0.0752(3) 0.5892(3)
C4 C 0.4024(5) 0.0272(3) 0.6789(3)
C5 C 0.3602(4) 0.0912(3) 0.7580(3)
N2 N 0.3393(4) 0.0413(3) 0.8530(2)
O1 O 0.3704(4) -0.0537(2) 0.86032(19)
O2 O 0.2921(4) 0.09823(19) 0.92151(19)
C6 C 0.3389(4) 0.1994(3) 0.7494(3)
C7 C 0.3554(5) 0.2455(3) 0.6593(2)
C8 C 0.3891(5) 0.3868(3) 0.3778(3)
C9 C 0.3470(5) 0.3278(3) 0.2944(3)
C10 C 0.3437(5) 0.3795(3) 0.2056(2)
I1 I 0.28995(3) 0.28735(2) 0.081314(17)
C11 C 0.3805(5) 0.4864(3) 0.1961(3)
C12 C 0.4207(5) 0.5439(3) 0.2803(3)
C13 C 0.4255(5) 0.4944(3) 0.3688(3)
H1 H 0.3858 0.3793 0.5214
H2 H 0.5253 0.2049 0.4489
H3 H 0.3019 0.1960 0.4392
H4 H 0.4458 0.0330 0.5341
H5 H 0.4201 -0.0472 0.6863
H6 H 0.3132 0.2417 0.8047
H7 H 0.3405 0.3201 0.6526
H8 H 0.3212 0.2539 0.2986
H9 H 0.3786 0.5200 0.1346
H10 H 0.4451 0.6179 0.2761
H11 H 0.4542 0.5348 0.4249
loop_
_geom_bond_atom_site_label_1
_geom_bond_atom_site_label_2
_geom_bond_site_symmetry_1
_geom_bond_site_symmetry_2
N1 C1 1_555 1_555
C1 C2 1_555 1_555
C2 C3 1_555 1_555
C3 C4 1_555 1_555
C4 C5 1_555 1_555
C5 N2 1_555 1_555
N2 O1 1_555 1_555
O2 N2 1_555 1_555
C6 C5 1_555 1_555
C7 C2 1_555 1_555
C8 N1 1_555 1_555
C9 C8 1_555 1_555
C10 C9 1_555 1_555
I1 C10 1_555 1_555
C11 C10 1_555 1_555
C12 C11 1_555 1_555
C13 C8 1_555 1_555
H1 N1 1_555 1_555
H2 C1 1_555 1_555
H3 C1 1_555 1_555
H4 C3 1_555 1_555
H5 C4 1_555 1_555
H6 C6 1_555 1_555
H7 C7 1_555 1_555
H8 C9 1_555 1_555
H9 C11 1_555 1_555
H10 C12 1_555 1_555
H11 C13 1_555 1_555
C6 C7 1_555 1_555
C12 C13 1_555 1_555

#END
