
#######################################################################
#
#                 Cambridge Crystallographic Data Centre
#                                CCDC 
#
#######################################################################
#
# If this CIF has been generated from an entry in the Cambridge 
# Structural Database, then it will include bibliographic, chemical, 
# crystal, experimental, refinement or atomic coordinate data resulting 
# from the CCDC's data processing and validation procedures.
#
#######################################################################

data_EYOFAZ
_chemical_formula_moiety         'C13 H11 I1 N2 O2'
_chemical_name_systematic        2-Iodo-N-(4-nitrobenzyl)aniline
_symmetry_cell_setting           monoclinic
_symmetry_space_group_name_H-M   'P 21/c'
_symmetry_Int_Tables_number      14
_space_group_name_Hall           '-P 2ybc'
loop_
_symmetry_equiv_pos_site_id
_symmetry_equiv_pos_as_xyz
1 x,y,z
2 x,1/2-y,1/2+z
3 -x,-y,-z
4 -x,1/2+y,1/2-z
_cell_length_a                   16.1564(6)
_cell_length_b                   9.3589(3)
_cell_length_c                   8.3326(3)
_cell_angle_alpha                90
_cell_angle_beta                 96.3330(10)
_cell_angle_gamma                90
_cell_volume                     1252.25
_exptl_crystal_colour            red
_exptl_crystal_description       block
_cell_formula_units_Z            4
_exptl_crystal_recrystallization_method ethanol
loop_
_atom_site_label
_atom_site_type_symbol
_atom_site_fract_x
_atom_site_fract_y
_atom_site_fract_z
N1 N 0.34831(15) 0.8976(3) 0.5028(3)
C1 C 0.21295(17) 0.8913(3) 0.6217(3)
C2 C 0.19261(19) 0.7557(3) 0.5640(4)
C3 C 0.1112(2) 0.7071(4) 0.5551(5)
C4 C 0.0509(2) 0.7958(3) 0.6038(4)
N2 N -0.03558(17) 0.7472(3) 0.5918(3)
O1 O -0.05405(19) 0.6383(4) 0.5214(5)
O2 O -0.0862(2) 0.8140(4) 0.6529(6)
C5 C 0.0693(2) 0.9301(4) 0.6644(5)
C6 C 0.1511(2) 0.9776(4) 0.6731(5)
C7 C 0.30204(17) 0.9441(3) 0.6341(3)
C8 C 0.33837(17) 0.9641(3) 0.3538(3)
C9 C 0.39526(16) 0.9418(3) 0.2390(3)
I1 I 0.499804(10) 0.810111(19) 0.29835(2)
C10 C 0.38454(17) 1.0054(3) 0.0883(3)
C11 C 0.31735(19) 1.0959(3) 0.0458(3)
C12 C 0.26030(18) 1.1191(3) 0.1566(4)
C13 C 0.27045(18) 1.0544(3) 0.3076(3)
H1 H 0.3833 0.8256 0.5187
H2 H 0.2348 0.6955 0.5302
H3 H 0.0972 0.6138 0.5159
H4 H 0.0270 0.9891 0.6996
H5 H 0.1649 1.0701 0.7146
H6 H 0.3017 1.0499 0.6368
H7 H 0.3317 0.9105 0.7375
H8 H 0.4234 0.9872 0.0131
H9 H 0.3106 1.1411 -0.0569
H10 H 0.2139 1.1799 0.1286
H11 H 0.2306 1.0716 0.3811
loop_
_geom_bond_atom_site_label_1
_geom_bond_atom_site_label_2
_geom_bond_site_symmetry_1
_geom_bond_site_symmetry_2
N1 C7 1_555 1_555
C1 C2 1_555 1_555
C2 C3 1_555 1_555
C3 C4 1_555 1_555
C4 N2 1_555 1_555
N2 O1 1_555 1_555
O2 N2 1_555 1_555
C5 C4 1_555 1_555
C6 C1 1_555 1_555
C7 C1 1_555 1_555
C8 N1 1_555 1_555
C9 C8 1_555 1_555
I1 C9 1_555 1_555
C10 C9 1_555 1_555
C11 C10 1_555 1_555
C12 C11 1_555 1_555
C13 C8 1_555 1_555
H1 N1 1_555 1_555
H2 C2 1_555 1_555
H3 C3 1_555 1_555
H4 C5 1_555 1_555
H5 C6 1_555 1_555
H6 C7 1_555 1_555
H7 C7 1_555 1_555
H8 C10 1_555 1_555
H9 C11 1_555 1_555
H10 C12 1_555 1_555
H11 C13 1_555 1_555
C5 C6 1_555 1_555
C12 C13 1_555 1_555

#END
