
#######################################################################
#
#                 Cambridge Crystallographic Data Centre
#                                CCDC 
#
#######################################################################
#
# If this CIF has been generated from an entry in the Cambridge 
# Structural Database, then it will include bibliographic, chemical, 
# crystal, experimental, refinement or atomic coordinate data resulting 
# from the CCDC's data processing and validation procedures.
#
#######################################################################

data_EYOFIH
_chemical_formula_moiety         'C13 H11 I1 N2 O2'
_chemical_name_systematic        4-Iodo-N-(3-nitrobenzyl)aniline
_symmetry_cell_setting           monoclinic
_symmetry_space_group_name_H-M   'P 21/c'
_symmetry_Int_Tables_number      14
_space_group_name_Hall           '-P 2ybc'
loop_
_symmetry_equiv_pos_site_id
_symmetry_equiv_pos_as_xyz
1 x,y,z
2 x,1/2-y,1/2+z
3 -x,-y,-z
4 -x,1/2+y,1/2-z
_cell_length_a                   21.2778(15)
_cell_length_b                   8.1809(5)
_cell_length_c                   7.2793(4)
_cell_angle_alpha                90
_cell_angle_beta                 94.316(2)
_cell_angle_gamma                90
_cell_volume                     1263.53
_exptl_crystal_colour            yellow
_exptl_crystal_description       needle
_cell_formula_units_Z            4
_exptl_crystal_recrystallization_method ethanol
loop_
_atom_site_label
_atom_site_type_symbol
_atom_site_fract_x
_atom_site_fract_y
_atom_site_fract_z
N1 N 0.29471(14) 0.6052(4) 0.0718(4)
C1 C 0.17805(17) 0.6034(5) 0.0486(4)
C2 C 0.17247(16) 0.7717(5) 0.0569(4)
C3 C 0.11592(18) 0.8393(5) 0.1011(5)
N2 N 0.11125(17) 1.0189(4) 0.1087(4)
O1 O 0.15922(13) 1.0989(3) 0.0901(4)
O2 O 0.05994(13) 1.0807(3) 0.1341(4)
C4 C 0.06417(18) 0.7463(5) 0.1383(4)
C5 C 0.07033(18) 0.5784(5) 0.1321(5)
C6 C 0.12658(19) 0.5077(5) 0.0873(5)
C7 C 0.23833(19) 0.5273(5) -0.0108(5)
C8 C 0.32330(17) 0.5586(4) 0.2411(5)
C9 C 0.29209(17) 0.4628(5) 0.3662(5)
C10 C 0.32217(17) 0.4212(5) 0.5346(5)
C11 C 0.38304(17) 0.4743(4) 0.5817(4)
I1 I 0.429933(12) 0.40696(3) 0.83507(3)
C12 C 0.41432(17) 0.5698(4) 0.4606(5)
C13 C 0.38440(17) 0.6114(4) 0.2919(5)
H1 H 0.3197 0.6537 -0.0023
H2 H 0.2070 0.8399 0.0327
H3 H 0.0258 0.7960 0.1671
H4 H 0.0359 0.5107 0.1585
H5 H 0.1300 0.3920 0.0831
H6 H 0.2391 0.4101 0.0231
H7 H 0.2384 0.5345 -0.1466
H8 H 0.2502 0.4266 0.3349
H9 H 0.3010 0.3558 0.6185
H10 H 0.4560 0.6064 0.4932
H11 H 0.4059 0.6772 0.2091
loop_
_geom_bond_atom_site_label_1
_geom_bond_atom_site_label_2
_geom_bond_site_symmetry_1
_geom_bond_site_symmetry_2
N1 C7 1_555 1_555
C1 C2 1_555 1_555
C2 C3 1_555 1_555
C3 N2 1_555 1_555
N2 O1 1_555 1_555
O2 N2 1_555 1_555
C4 C3 1_555 1_555
C5 C4 1_555 1_555
C6 C1 1_555 1_555
C7 C1 1_555 1_555
C8 N1 1_555 1_555
C9 C8 1_555 1_555
C10 C9 1_555 1_555
C11 C10 1_555 1_555
I1 C11 1_555 1_555
C12 C11 1_555 1_555
C13 C8 1_555 1_555
H1 N1 1_555 1_555
H2 C2 1_555 1_555
H3 C4 1_555 1_555
H4 C5 1_555 1_555
H5 C6 1_555 1_555
H6 C7 1_555 1_555
H7 C7 1_555 1_555
H8 C9 1_555 1_555
H9 C10 1_555 1_555
H10 C12 1_555 1_555
H11 C13 1_555 1_555
C5 C6 1_555 1_555
C12 C13 1_555 1_555

#END
