
#######################################################################
#
#                 Cambridge Crystallographic Data Centre
#                                CCDC 
#
#######################################################################
#
# If this CIF has been generated from an entry in the Cambridge 
# Structural Database, then it will include bibliographic, chemical, 
# crystal, experimental, refinement or atomic coordinate data resulting 
# from the CCDC's data processing and validation procedures.
#
#######################################################################

data_EYOGUU
_chemical_formula_moiety         'C48 H60 N2 O4'
_chemical_name_systematic        
N,N-Dicyclohexyl-2-(2'-((dicyclohexylcarbamoyl)methoxy)-(1,1')binaphthalen-2-yl-oxy)acetamide
_symmetry_cell_setting           monoclinic
_symmetry_space_group_name_H-M   'P 21/n'
_symmetry_Int_Tables_number      14
_space_group_name_Hall           '-P 2yn'
loop_
_symmetry_equiv_pos_site_id
_symmetry_equiv_pos_as_xyz
1 x,y,z
2 1/2+x,1/2-y,1/2+z
3 -x,-y,-z
4 1/2-x,1/2+y,1/2-z
_cell_length_a                   10.796(3)
_cell_length_b                   11.441(3)
_cell_length_c                   34.565(9)
_cell_angle_alpha                90
_cell_angle_beta                 93.87(2)
_cell_angle_gamma                90
_cell_volume                     4259.63
_exptl_crystal_colour            colorless
_cell_formula_units_Z            4
_exptl_crystal_recrystallization_method DMF
loop_
_atom_site_label
_atom_site_type_symbol
_atom_site_fract_x
_atom_site_fract_y
_atom_site_fract_z
O1 O 0.58997(13) 0.81299(14) 0.09072(4)
O2 O 0.72216(18) 0.59179(17) 0.13982(5)
O3 O 0.79478(12) 0.92818(13) 0.14687(4)
O4 O 1.09110(13) 0.95960(14) 0.18441(4)
N1 N 0.74590(17) 0.60843(16) 0.07535(5)
N2 N 0.93427(15) 1.02457(15) 0.21935(5)
C1 C 0.59051(19) 1.0114(2) 0.10571(6)
C2 C 0.5322(2) 1.1122(2) 0.12076(6)
C3 C 0.5898(2) 1.2224(2) 0.12243(6)
H1 H 0.6682 1.2309 0.1132
C4 C 0.5332(3) 1.3173(2) 0.13734(7)
H2 H 0.5734 1.3892 0.1384
C5 C 0.4151(3) 1.3067(3) 0.15107(7)
H3 H 0.3762 1.3719 0.1608
C6 C 0.3572(3) 1.2022(3) 0.15030(7)
H4 H 0.2788 1.1963 0.1598
C7 C 0.4131(2) 1.1013(3) 0.13535(6)
C8 C 0.3559(2) 0.9911(3) 0.13480(7)
H5 H 0.2778 0.9835 0.1443
C9 C 0.4121(2) 0.8954(2) 0.12065(7)
H6 H 0.3728 0.8230 0.1205
C10 C 0.53013(19) 0.9071(2) 0.10628(6)
C11 C 0.5674(2) 0.6994(2) 0.10550(7)
H7 H 0.5051 0.6601 0.0887
H8 H 0.5362 0.7058 0.1311
C12 C 0.6862(2) 0.6291(2) 0.10784(8)
C13 C 0.7021(2) 0.6545(2) 0.03698(6)
H9 H 0.6201 0.6888 0.0400
C14 C 0.6843(3) 0.5600(3) 0.00608(8)
H10 H 0.6299 0.4994 0.0148
H11 H 0.7636 0.5248 0.0014
C15 C 0.6270(3) 0.6152(3) -0.03161(8)
H12 H 0.6209 0.5564 -0.0519
H13 H 0.5438 0.6423 -0.0275
C16 C 0.7037(3) 0.7163(4) -0.04449(8)
H14 H 0.7830 0.6872 -0.0520
H15 H 0.6615 0.7524 -0.0671
C17 C 0.7259(2) 0.8068(3) -0.01339(7)
H16 H 0.6478 0.8434 -0.0081
H17 H 0.7807 0.8668 -0.0223
C18 C 0.7838(2) 0.7521(2) 0.02371(6)
H18 H 0.8653 0.7214 0.0191
H19 H 0.7938 0.8111 0.0438
C19 C 0.8664(2) 0.5460(2) 0.07834(7)
H20 H 0.8946 0.5428 0.0520
C20 C 0.8546(3) 0.4201(2) 0.09148(8)
H21 H 0.7963 0.3792 0.0737
H22 H 0.8224 0.4185 0.1170
C21 C 0.9797(3) 0.3580(3) 0.09294(10)
H23 H 0.9708 0.2802 0.1036
H24 H 1.0063 0.3500 0.0668
C22 C 1.0766(3) 0.4239(3) 0.11731(10)
H25 H 1.1559 0.3842 0.1165
H26 H 1.0543 0.4250 0.1440
C23 C 1.0888(3) 0.5473(3) 0.10300(9)
H27 H 1.1175 0.5462 0.0770
H28 H 1.1501 0.5886 0.1197
C24 C 0.9657(2) 0.6116(2) 0.10258(7)
H29 H 0.9408 0.6195 0.1289
H30 H 0.9751 0.6894 0.0920
C25 C 0.71649(19) 1.02079(19) 0.09046(6)
C26 C 0.7330(2) 1.0721(2) 0.05371(6)
C27 C 0.6323(2) 1.1103(2) 0.02868(7)
H31 H 0.5518 1.1033 0.0365
C28 C 0.6507(3) 1.1570(3) -0.00665(8)
H32 H 0.5828 1.1806 -0.0228
C29 C 0.7708(3) 1.1702(3) -0.01907(8)
H33 H 0.7824 1.2032 -0.0432
C30 C 0.8696(3) 1.1348(3) 0.00407(8)
H34 H 0.9491 1.1446 -0.0042
C31 C 0.8545(2) 1.0831(2) 0.04057(7)
C32 C 0.9555(2) 1.0431(2) 0.06479(7)
H35 H 1.0355 1.0514 0.0568
C33 C 0.93895(19) 0.9924(2) 0.09970(6)
H36 H 1.0070 0.9659 0.1152
C34 C 0.81899(19) 0.98036(19) 0.11221(6)
C35 C 0.89541(19) 0.8730(2) 0.16894(6)
H37 H 0.9440 0.8288 0.1514
H38 H 0.8615 0.8180 0.1868
C36 C 0.9811(2) 0.9569(2) 0.19191(6)
C37 C 0.80403(18) 1.01415(19) 0.23002(6)
H39 H 0.7636 0.9561 0.2125
C38 C 0.73181(19) 1.1272(2) 0.22412(7)
H40 H 0.7357 1.1533 0.1975
H41 H 0.7687 1.1872 0.2410
C39 C 0.59637(19) 1.1087(2) 0.23302(8)
H42 H 0.5523 1.1825 0.2306
H43 H 0.5573 1.0547 0.2143
C40 C 0.5870(2) 1.0607(2) 0.27354(7)
H44 H 0.6170 1.1187 0.2924
H45 H 0.5007 1.0446 0.2778
C41 C 0.6616(2) 0.9504(2) 0.27938(7)
H46 H 0.6257 0.8898 0.2625
H47 H 0.6576 0.9241 0.3059
C42 C 0.79580(19) 0.9687(2) 0.27089(6)
H48 H 0.8404 0.8953 0.2738
H49 H 0.8341 1.0242 0.2892
C43 C 1.01586(19) 1.1064(2) 0.24197(6)
H50 H 0.9636 1.1461 0.2600
C44 C 1.1178(2) 1.0446(2) 0.26670(7)
H51 H 1.0810 0.9878 0.2833
H52 H 1.1718 1.0032 0.2500
C45 C 1.1935(2) 1.1320(3) 0.29147(8)
H53 H 1.2603 1.0916 0.3061
H54 H 1.1410 1.1681 0.3098
C46 C 1.2476(3) 1.2261(3) 0.26657(10)
H55 H 1.3065 1.1911 0.2500
H56 H 1.2916 1.2831 0.2831
C47 C 1.1454(2) 1.2870(2) 0.24163(10)
H57 H 1.0920 1.3293 0.2582
H58 H 1.1824 1.3432 0.2249
C48 C 1.0681(2) 1.2010(2) 0.21708(7)
H59 H 1.1191 1.1655 0.1982
H60 H 1.0005 1.2421 0.2031
loop_
_geom_bond_atom_site_label_1
_geom_bond_atom_site_label_2
_geom_bond_site_symmetry_1
_geom_bond_site_symmetry_2
O1 C10 1_555 1_555
O2 C12 1_555 1_555
O3 C34 1_555 1_555
O4 C36 1_555 1_555
N1 C12 1_555 1_555
N2 C36 1_555 1_555
C1 C2 1_555 1_555
C2 C3 1_555 1_555
C3 H1 1_555 1_555
C4 C3 1_555 1_555
H2 C4 1_555 1_555
C5 C4 1_555 1_555
H3 C5 1_555 1_555
C6 C5 1_555 1_555
H4 C6 1_555 1_555
C7 C2 1_555 1_555
C8 C7 1_555 1_555
H5 C8 1_555 1_555
C9 C8 1_555 1_555
H6 C9 1_555 1_555
C10 C1 1_555 1_555
C11 O1 1_555 1_555
H7 C11 1_555 1_555
H8 C11 1_555 1_555
C12 C11 1_555 1_555
C13 N1 1_555 1_555
H9 C13 1_555 1_555
C14 C13 1_555 1_555
H10 C14 1_555 1_555
H11 C14 1_555 1_555
C15 C14 1_555 1_555
H12 C15 1_555 1_555
H13 C15 1_555 1_555
C16 C15 1_555 1_555
H14 C16 1_555 1_555
H15 C16 1_555 1_555
C17 C16 1_555 1_555
H16 C17 1_555 1_555
H17 C17 1_555 1_555
C18 C13 1_555 1_555
H18 C18 1_555 1_555
H19 C18 1_555 1_555
C19 N1 1_555 1_555
H20 C19 1_555 1_555
C20 C19 1_555 1_555
H21 C20 1_555 1_555
H22 C20 1_555 1_555
C21 C20 1_555 1_555
H23 C21 1_555 1_555
H24 C21 1_555 1_555
C22 C21 1_555 1_555
H25 C22 1_555 1_555
H26 C22 1_555 1_555
C23 C22 1_555 1_555
H27 C23 1_555 1_555
H28 C23 1_555 1_555
C24 C19 1_555 1_555
H29 C24 1_555 1_555
H30 C24 1_555 1_555
C25 C1 1_555 1_555
C26 C25 1_555 1_555
C27 C26 1_555 1_555
H31 C27 1_555 1_555
C28 C27 1_555 1_555
H32 C28 1_555 1_555
C29 C28 1_555 1_555
H33 C29 1_555 1_555
C30 C29 1_555 1_555
H34 C30 1_555 1_555
C31 C26 1_555 1_555
C32 C31 1_555 1_555
H35 C32 1_555 1_555
C33 C32 1_555 1_555
H36 C33 1_555 1_555
C34 C25 1_555 1_555
C35 O3 1_555 1_555
H37 C35 1_555 1_555
H38 C35 1_555 1_555
C36 C35 1_555 1_555
C37 N2 1_555 1_555
H39 C37 1_555 1_555
C38 C37 1_555 1_555
H40 C38 1_555 1_555
H41 C38 1_555 1_555
C39 C38 1_555 1_555
H42 C39 1_555 1_555
H43 C39 1_555 1_555
C40 C39 1_555 1_555
H44 C40 1_555 1_555
H45 C40 1_555 1_555
C41 C40 1_555 1_555
H46 C41 1_555 1_555
H47 C41 1_555 1_555
C42 C37 1_555 1_555
H48 C42 1_555 1_555
H49 C42 1_555 1_555
C43 N2 1_555 1_555
H50 C43 1_555 1_555
C44 C43 1_555 1_555
H51 C44 1_555 1_555
H52 C44 1_555 1_555
C45 C44 1_555 1_555
H53 C45 1_555 1_555
H54 C45 1_555 1_555
C46 C45 1_555 1_555
H55 C46 1_555 1_555
H56 C46 1_555 1_555
C47 C46 1_555 1_555
H57 C47 1_555 1_555
H58 C47 1_555 1_555
C48 C43 1_555 1_555
H59 C48 1_555 1_555
H60 C48 1_555 1_555
C6 C7 1_555 1_555
C9 C10 1_555 1_555
C17 C18 1_555 1_555
C23 C24 1_555 1_555
C30 C31 1_555 1_555
C33 C34 1_555 1_555
C41 C42 1_555 1_555
C47 C48 1_555 1_555

#END
