
#######################################################################
#
#                 Cambridge Crystallographic Data Centre
#                                CCDC 
#
#######################################################################
#
# If this CIF has been generated from an entry in the Cambridge 
# Structural Database, then it will include bibliographic, chemical, 
# crystal, experimental, refinement or atomic coordinate data resulting 
# from the CCDC's data processing and validation procedures.
#
#######################################################################

data_EYOJEJ
_chemical_formula_moiety         'C24 H27 N3 O5'
_chemical_name_systematic        
'diethyl 2-azido-4-(4-methoxyphenyl)-2-phenylcyclopentane-1,1-dicarboxylate'
_symmetry_cell_setting           monoclinic
_symmetry_space_group_name_H-M   'P 21/c'
_symmetry_Int_Tables_number      14
_space_group_name_Hall           '-P 2ybc'
loop_
_symmetry_equiv_pos_site_id
_symmetry_equiv_pos_as_xyz
1 x,y,z
2 -x,1/2+y,1/2-z
3 -x,-y,-z
4 x,1/2-y,1/2+z
_cell_length_a                   8.6521(3)
_cell_length_b                   31.6804(12)
_cell_length_c                   8.7706(3)
_cell_angle_alpha                90
_cell_angle_beta                 106.9440(10)
_cell_angle_gamma                90
_cell_volume                     2299.68
_exptl_crystal_colour            colorless
_exptl_crystal_description       block
_chemical_melting_point          '349 K'
_cell_formula_units_Z            4
_chemical_properties_physical    ', Heat-sensitive'
_exptl_crystal_recrystallization_method 'Ethyl acetate/ Hexane'
loop_
_atom_site_label
_atom_site_type_symbol
_atom_site_fract_x
_atom_site_fract_y
_atom_site_fract_z
O1 O 0.7531(3) 0.19301(8) 0.0997(3)
O2 O 0.2811(3) 0.03025(7) 0.6900(3)
O3 O 0.4594(3) 0.05890(8) 0.5821(3)
N1 N 0.3921(3) 0.10868(8) 0.8860(3)
O4 O -0.0356(3) 0.07623(8) 0.4536(3)
C1 C 0.3063(3) 0.13176(9) 0.7369(3)
N2 N 0.3103(4) 0.09587(9) 0.9704(3)
C2 C 0.1918(3) 0.16542(9) 0.7668(3)
C3 C -0.1207(8) 0.0186(2) 0.7394(10)
H1 H -0.2248 0.0082 0.7399
H2 H -0.0905 0.0061 0.6527
H3 H -0.0421 0.0115 0.8383
C4 C -0.1282(5) 0.06518(15) 0.7198(6)
H4 H -0.2088 0.0724 0.6207
H5 H -0.1604 0.0778 0.8066
O5 O 0.0286(3) 0.08217(7) 0.7185(3)
C5 C 0.0576(4) 0.08530(10) 0.5795(4)
C6 C 0.2297(4) 0.10029(9) 0.5960(3)
C7 C 0.2421(4) 0.12465(11) 0.4457(4)
H6 H 0.2846 0.1063 0.3791
H7 H 0.1361 0.1344 0.3838
C8 C 0.3566(4) 0.16284(10) 0.5027(4)
H8 H 0.2899 0.1881 0.4974
C9 C 0.4716(4) 0.17098(10) 0.4049(3)
C10 C 0.4801(4) 0.21026(10) 0.3359(4)
H9 H 0.4187 0.2325 0.3559
C11 C 0.5772(4) 0.21682(11) 0.2390(4)
H10 H 0.5819 0.2434 0.1958
C12 C 0.6674(4) 0.18433(10) 0.2052(4)
C13 C 0.8297(5) 0.15823(15) 0.0480(5)
H11 H 0.8857 0.1680 -0.0250
H12 H 0.9055 0.1454 0.1385
H13 H 0.7497 0.1379 -0.0042
C14 C 0.3191(6) -0.03066(13) 0.8509(6)
H14 H 0.3810 -0.0560 0.8817
H15 H 0.3306 -0.0132 0.9429
H16 H 0.2073 -0.0378 0.8049
C15 C 0.3778(5) -0.00774(12) 0.7332(6)
H17 H 0.4909 -0.0005 0.7783
H18 H 0.3670 -0.0252 0.6397
C16 C 0.3387(4) 0.06114(10) 0.6209(4)
N3 N 0.2539(5) 0.08291(13) 1.0619(4)
C17 C 0.0504(4) 0.17763(10) 0.6541(4)
H19 H 0.0169 0.1634 0.5574
C18 C -0.0430(4) 0.21104(11) 0.6832(4)
H20 H -0.1378 0.2187 0.6064
C19 C 0.0056(4) 0.23248(10) 0.8255(4)
H21 H -0.0556 0.2548 0.8455
C20 C 0.1460(4) 0.22056(10) 0.9382(4)
H22 H 0.1796 0.2350 1.0346
C21 C 0.2373(4) 0.18748(10) 0.9098(4)
H23 H 0.3312 0.1798 0.9880
C22 C 0.4395(4) 0.15285(10) 0.6796(3)
H24 H 0.5302 0.1339 0.6911
H25 H 0.4777 0.1785 0.7393
C23 C 0.6671(4) 0.14574(11) 0.2770(4)
H26 H 0.7321 0.1240 0.2598
C24 C 0.5697(4) 0.13955(11) 0.3747(4)
H27 H 0.5700 0.1133 0.4221
loop_
_geom_bond_atom_site_label_1
_geom_bond_atom_site_label_2
_geom_bond_site_symmetry_1
_geom_bond_site_symmetry_2
O1 C12 1_555 1_555
O2 C15 1_555 1_555
O3 C16 1_555 1_555
N1 C1 1_555 1_555
O4 C5 1_555 1_555
C1 C2 1_555 1_555
N2 N1 1_555 1_555
C2 C17 1_555 1_555
C3 H1 1_555 1_555
H2 C3 1_555 1_555
H3 C3 1_555 1_555
C4 C3 1_555 1_555
H4 C4 1_555 1_555
H5 C4 1_555 1_555
O5 C4 1_555 1_555
C5 O5 1_555 1_555
C6 C1 1_555 1_555
C7 C6 1_555 1_555
H6 C7 1_555 1_555
H7 C7 1_555 1_555
C8 C7 1_555 1_555
H8 C8 1_555 1_555
C9 C8 1_555 1_555
C10 C9 1_555 1_555
H9 C10 1_555 1_555
C11 C10 1_555 1_555
H10 C11 1_555 1_555
C12 C11 1_555 1_555
C13 O1 1_555 1_555
H11 C13 1_555 1_555
H12 C13 1_555 1_555
H13 C13 1_555 1_555
C14 H14 1_555 1_555
H15 C14 1_555 1_555
H16 C14 1_555 1_555
C15 C14 1_555 1_555
H17 C15 1_555 1_555
H18 C15 1_555 1_555
C16 O2 1_555 1_555
N3 N2 1_555 1_555
C17 H19 1_555 1_555
C18 C17 1_555 1_555
H20 C18 1_555 1_555
C19 C18 1_555 1_555
H21 C19 1_555 1_555
C20 C19 1_555 1_555
H22 C20 1_555 1_555
C21 C2 1_555 1_555
H23 C21 1_555 1_555
C22 C1 1_555 1_555
H24 C22 1_555 1_555
H25 C22 1_555 1_555
C23 C12 1_555 1_555
H26 C23 1_555 1_555
C24 C9 1_555 1_555
H27 C24 1_555 1_555
C5 C6 1_555 1_555
C6 C16 1_555 1_555
C8 C22 1_555 1_555
C20 C21 1_555 1_555
C23 C24 1_555 1_555

#END
