
#######################################################################
#
#                 Cambridge Crystallographic Data Centre
#                                CCDC 
#
#######################################################################
#
# If this CIF has been generated from an entry in the Cambridge 
# Structural Database, then it will include bibliographic, chemical, 
# crystal, experimental, refinement or atomic coordinate data resulting 
# from the CCDC's data processing and validation procedures.
#
#######################################################################

data_EYOJUY
_chemical_formula_moiety         'C17 H18 N2 O8'
_chemical_name_systematic        
'(3-Acetoxy-5-(7-methyl-2,5-dioxo-2H-pyrano[2,3-d]pyrimidin-3(5H)-yl)tetrahydrofuran-2-yl)methyl acetate'
_symmetry_cell_setting           monoclinic
_symmetry_space_group_name_H-M   'P 21'
_symmetry_Int_Tables_number      4
_space_group_name_Hall           'P 2yb'
loop_
_symmetry_equiv_pos_site_id
_symmetry_equiv_pos_as_xyz
1 x,y,z
2 -x,1/2+y,-z
_cell_length_a                   9.4955(10)
_cell_length_b                   6.7112(7)
_cell_length_c                   13.9717(15)
_cell_angle_alpha                90
_cell_angle_beta                 100.8210(10)
_cell_angle_gamma                90
_cell_volume                     874.531
_exptl_crystal_colour            colorless
_exptl_crystal_description       block
_cell_formula_units_Z            2
loop_
_atom_site_label
_atom_site_type_symbol
_atom_site_fract_x
_atom_site_fract_y
_atom_site_fract_z
C1 C 0.12087(19) 0.4950(3) 1.08305(14)
C2 C 0.04033(18) 0.4893(3) 0.99479(15)
H1 H -0.0586 0.4789 0.9889
C3 C 0.10034(18) 0.4985(3) 0.90732(14)
C4 C 0.25691(16) 0.5221(2) 0.92665(11)
C5 C 0.33626(16) 0.5252(2) 1.02217(11)
C6 C 0.0709(3) 0.4828(4) 1.17792(17)
H2 H -0.0316 0.4694 1.1661
H3 H 0.0983 0.6018 1.2149
H4 H 0.1139 0.3693 1.2138
C7 C 0.55422(16) 0.5484(3) 0.97393(12)
C8 C 0.33527(16) 0.5448(3) 0.85496(11)
H5 H 0.2887 0.5488 0.7902
C9 C 0.56417(18) 0.5975(3) 0.79949(12)
H6 H 0.6410 0.6924 0.8240
C10 C 0.62899(18) 0.4105(3) 0.76457(13)
H7 H 0.7264 0.3902 0.7994
H8 H 0.5721 0.2939 0.7727
C11 C 0.62583(16) 0.4536(3) 0.65806(13)
H9 H 0.6165 0.3318 0.6187
C12 C 0.49743(17) 0.5919(3) 0.62915(12)
H10 H 0.5247 0.6980 0.5880
C13 C 0.85545(18) 0.4737(4) 0.61219(13)
C14 C 0.9692(2) 0.6177(4) 0.59638(17)
H11 H 0.9984 0.5882 0.5358
H12 H 1.0501 0.6064 0.6488
H13 H 0.9319 0.7509 0.5944
C15 C 0.36106(18) 0.4974(3) 0.57570(13)
H14 H 0.2922 0.6010 0.5518
H15 H 0.3812 0.4243 0.5199
C16 C 0.31796(19) 0.1663(3) 0.63006(14)
C17 C 0.2422(2) 0.0576(4) 0.6980(2)
H16 H 0.3025 0.0518 0.7614
H17 H 0.2205 -0.0752 0.6743
H18 H 0.1549 0.1260 0.7024
N1 N 0.47575(14) 0.5380(2) 1.04623(9)
N2 N 0.47766(13) 0.5612(2) 0.87638(9)
O1 O 0.26889(12) 0.51387(19) 1.09924(8)
O2 O 0.02991(14) 0.4870(3) 0.82451(11)
O3 O 0.68453(12) 0.5496(2) 0.98816(10)
O4 O 0.47269(13) 0.6807(2) 0.71855(8)
O5 O 0.75095(11) 0.5697(2) 0.64682(9)
O6 O 0.85462(16) 0.2987(3) 0.59752(14)
O7 O 0.29981(13) 0.3639(2) 0.63763(10)
O8 O 0.38862(18) 0.0941(3) 0.57628(12)
loop_
_geom_bond_atom_site_label_1
_geom_bond_atom_site_label_2
_geom_bond_site_symmetry_1
_geom_bond_site_symmetry_2
C1 C2 1_555 1_555
C2 H1 1_555 1_555
C3 C2 1_555 1_555
C4 C3 1_555 1_555
C5 C4 1_555 1_555
C6 C1 1_555 1_555
H2 C6 1_555 1_555
H3 C6 1_555 1_555
H4 C6 1_555 1_555
C7 N1 1_555 1_555
C8 C4 1_555 1_555
H5 C8 1_555 1_555
C9 H6 1_555 1_555
C10 C9 1_555 1_555
H7 C10 1_555 1_555
H8 C10 1_555 1_555
C11 C10 1_555 1_555
H9 C11 1_555 1_555
C12 C11 1_555 1_555
H10 C12 1_555 1_555
C13 C14 1_555 1_555
C14 H11 1_555 1_555
H12 C14 1_555 1_555
H13 C14 1_555 1_555
C15 C12 1_555 1_555
H14 C15 1_555 1_555
H15 C15 1_555 1_555
C16 C17 1_555 1_555
C17 H16 1_555 1_555
H17 C17 1_555 1_555
H18 C17 1_555 1_555
N1 C5 1_555 1_555
N2 C7 1_555 1_555
O1 C1 1_555 1_555
O2 C3 1_555 1_555
O3 C7 1_555 1_555
O4 C9 1_555 1_555
O5 C11 1_555 1_555
O6 C13 1_555 1_555
O7 C15 1_555 1_555
O8 C16 1_555 1_555
C5 O1 1_555 1_555
C8 N2 1_555 1_555
C9 N2 1_555 1_555
C12 O4 1_555 1_555
C13 O5 1_555 1_555
C16 O7 1_555 1_555

#END
