
#######################################################################
#
#                 Cambridge Crystallographic Data Centre
#                                CCDC 
#
#######################################################################
#
# If this CIF has been generated from an entry in the Cambridge 
# Structural Database, then it will include bibliographic, chemical, 
# crystal, experimental, refinement or atomic coordinate data resulting 
# from the CCDC's data processing and validation procedures.
#
#######################################################################

data_EYOKOT
_chemical_formula_moiety         'C24 H27 N1 O7'
_chemical_name_systematic        
N-(2-sec-Butyl-3-oxo-2,3-dihydro-1,4-benzodioxin-2-yl)-3-ethyl-2-hydroxy-3-methyl-2,3-dihydro-1,4-benzodioxine-2-carboxamide
_symmetry_cell_setting           orthorhombic
_symmetry_space_group_name_H-M   'P 21 21 21'
_symmetry_Int_Tables_number      19
_space_group_name_Hall           'P 2ac 2ab'
loop_
_symmetry_equiv_pos_site_id
_symmetry_equiv_pos_as_xyz
1 x,y,z
2 1/2-x,-y,1/2+z
3 -x,1/2+y,1/2-z
4 1/2+x,1/2-y,-z
_cell_length_a                   9.983(2)
_cell_length_b                   10.796(2)
_cell_length_c                   20.198(4)
_cell_angle_alpha                90
_cell_angle_beta                 90
_cell_angle_gamma                90
_cell_volume                     2176.87
_exptl_crystal_description       parallelepiped
_cell_formula_units_Z            4
loop_
_atom_site_label
_atom_site_type_symbol
_atom_site_fract_x
_atom_site_fract_y
_atom_site_fract_z
O1 O 0.2896(3) 0.0111(3) 0.11127(16)
O2 O 0.0929(3) 0.1497(3) 0.04281(19)
O3 O 0.2463(4) 0.2719(4) 0.0045(2)
O4 O 0.2483(3) 0.2644(3) 0.16167(19)
O5 O 0.4537(5) 0.3147(4) 0.2590(2)
H1 H 0.4778 0.2442 0.2682
O6 O 0.5974(3) 0.2940(3) 0.16504(18)
O7 O 0.5616(3) 0.5350(3) 0.21266(17)
N1 N 0.4197(4) 0.1848(4) 0.1035(2)
C1 C 0.1215(6) -0.1231(5) 0.1463(3)
H2 H 0.1866 -0.1701 0.1676
C2 C -0.0139(7) -0.1571(6) 0.1496(3)
H3 H -0.0392 -0.2267 0.1737
C3 C -0.1085(6) -0.0885(6) 0.1177(4)
H4 H -0.1983 -0.1111 0.1201
C4 C -0.0716(5) 0.0126(6) 0.0827(3)
H5 H -0.1357 0.0590 0.0603
C5 C 0.0607(5) 0.0465(5) 0.0803(3)
C6 C 0.1556(5) -0.0207(4) 0.1117(2)
C7 C 0.3349(5) 0.1044(5) 0.0669(3)
C8 C 0.2212(5) 0.1831(5) 0.0367(3)
C9 C 0.3679(5) 0.2589(4) 0.1507(3)
C10 C 0.4698(5) 0.3349(4) 0.1901(2)
C11 C 0.4537(4) 0.4746(4) 0.1766(3)
C12 C 0.6878(5) 0.4867(4) 0.2025(2)
C13 C 0.7973(5) 0.5586(5) 0.2166(2)
H6 H 0.7859 0.6391 0.2321
C14 C 0.9256(5) 0.5113(6) 0.2077(3)
H7 H 1.0004 0.5588 0.2181
C15 C 0.9404(5) 0.3926(6) 0.1831(3)
H8 H 1.0257 0.3610 0.1755
C16 C 0.8316(5) 0.3222(5) 0.1701(3)
H9 H 0.8425 0.2419 0.1543
C17 C 0.7048(5) 0.3686(4) 0.1801(2)
C18 C 0.4115(5) 0.0438(5) 0.0104(3)
H10 H 0.4423 0.1093 -0.0195
C19 C 0.3209(5) -0.0417(6) -0.0285(3)
H11 H 0.2943 -0.1100 -0.0010
H12 H 0.3679 -0.0724 -0.0665
H13 H 0.2428 0.0029 -0.0426
C20 C 0.5358(5) -0.0270(5) 0.0356(3)
H14 H 0.5914 0.0292 0.0610
H15 H 0.5068 -0.0928 0.0650
C21 C 0.6178(6) -0.0818(7) -0.0188(3)
H16 H 0.5628 -0.1357 -0.0450
H17 H 0.6906 -0.1283 -0.0001
H18 H 0.6528 -0.0168 -0.0462
C22 C 0.3268(5) 0.5286(5) 0.2055(3)
H19 H 0.3301 0.5233 0.2529
H20 H 0.2509 0.4831 0.1894
H21 H 0.3189 0.6139 0.1925
C23 C 0.4664(5) 0.5022(5) 0.1032(3)
H22 H 0.5434 0.4577 0.0860
H23 H 0.3876 0.4703 0.0808
C24 C 0.4815(7) 0.6371(6) 0.0859(3)
H24 H 0.4034 0.6816 0.1001
H25 H 0.4916 0.6457 0.0389
H26 H 0.5592 0.6700 0.1077
loop_
_geom_bond_atom_site_label_1
_geom_bond_atom_site_label_2
_geom_bond_site_symmetry_1
_geom_bond_site_symmetry_2
O1 C6 1_555 1_555
O2 C5 1_555 1_555
O3 C8 1_555 1_555
O4 C9 1_555 1_555
O5 H1 1_555 1_555
O6 C10 1_555 1_555
O7 C11 1_555 1_555
N1 C7 1_555 1_555
C1 H2 1_555 1_555
C2 C1 1_555 1_555
H3 C2 1_555 1_555
C3 C2 1_555 1_555
H4 C3 1_555 1_555
C4 C3 1_555 1_555
H5 C4 1_555 1_555
C5 C4 1_555 1_555
C6 C1 1_555 1_555
C7 O1 1_555 1_555
C8 O2 1_555 1_555
C9 N1 1_555 1_555
C10 O5 1_555 1_555
C11 C10 1_555 1_555
C12 O7 1_555 1_555
C13 C12 1_555 1_555
H6 C13 1_555 1_555
C14 C13 1_555 1_555
H7 C14 1_555 1_555
C15 C14 1_555 1_555
H8 C15 1_555 1_555
C16 C15 1_555 1_555
H9 C16 1_555 1_555
C17 O6 1_555 1_555
C18 C7 1_555 1_555
H10 C18 1_555 1_555
C19 C18 1_555 1_555
H11 C19 1_555 1_555
H12 C19 1_555 1_555
H13 C19 1_555 1_555
C20 C18 1_555 1_555
H14 C20 1_555 1_555
H15 C20 1_555 1_555
C21 C20 1_555 1_555
H16 C21 1_555 1_555
H17 C21 1_555 1_555
H18 C21 1_555 1_555
C22 C11 1_555 1_555
H19 C22 1_555 1_555
H20 C22 1_555 1_555
H21 C22 1_555 1_555
C23 C11 1_555 1_555
H22 C23 1_555 1_555
H23 C23 1_555 1_555
C24 C23 1_555 1_555
H24 C24 1_555 1_555
H25 C24 1_555 1_555
H26 C24 1_555 1_555
C5 C6 1_555 1_555
C7 C8 1_555 1_555
C9 C10 1_555 1_555
C12 C17 1_555 1_555
C16 C17 1_555 1_555

#END
