
#######################################################################
#
#                 Cambridge Crystallographic Data Centre
#                                CCDC 
#
#######################################################################
#
# If this CIF has been generated from an entry in the Cambridge 
# Structural Database, then it will include bibliographic, chemical, 
# crystal, experimental, refinement or atomic coordinate data resulting 
# from the CCDC's data processing and validation procedures.
#
#######################################################################

data_EYOKIN
_chemical_name_common            
'Tetrabutylammonium 5,5,10,10,15,15,20,20-Octamethyl-tetrakis(N-p-toluenesulfonylpyrrolidine)calix[4]pyrrole chloride'
_chemical_formula_moiety         'C64 H72 N8 O8 S4,Cl1 1-,C16 H36 N1 1+'
_chemical_name_systematic        
'Tetrabutylammonium 2,2,10,10,18,18,26,26-octamethyl-6,14,22,30-tetrakis((4-methylphenyl)sulfonyl)-6,14,22,30,33,34,35,36-octaazanonacyclo[25.5.1.1^3,9^.1^11,17^.1^19,25^.0^4,8^.0^12,16^.0^20,24^.0^28,32^]hexatriaconta-1(32),3,8,11,16,19,24,27-octaene chloride'
_symmetry_cell_setting           tetragonal
_symmetry_space_group_name_H-M   'I 41 m d'
_symmetry_Int_Tables_number      109
_space_group_name_Hall           'I 4bw -2'
loop_
_symmetry_equiv_pos_site_id
_symmetry_equiv_pos_as_xyz
1 x,y,z
2 -x,y,z
3 1/2-x,1/2-y,1/2+z
4 1/2+x,1/2-y,1/2+z
5 -y,1/2-x,1/4+z
6 1/2+y,-x,3/4+z
7 -y,1/2+x,1/4+z
8 1/2+y,x,3/4+z
9 1/2+x,1/2+y,1/2+z
10 1/2-x,1/2+y,1/2+z
11 -x,-y,z
12 x,-y,z
13 1/2-y,-x,3/4+z
14 y,1/2-x,1/4+z
15 1/2-y,x,3/4+z
16 y,1/2+x,1/4+z
_cell_length_a                   23.5509(15)
_cell_length_b                   23.5509(15)
_cell_length_c                   14.5959(9)
_cell_angle_alpha                90
_cell_angle_beta                 90
_cell_angle_gamma                90
_cell_volume                     8095.54
_exptl_crystal_colour            colorless
_exptl_crystal_description       prisms
_cell_formula_units_Z            4
loop_
_atom_site_label
_atom_site_type_symbol
_atom_site_fract_x
_atom_site_fract_y
_atom_site_fract_z
S1 S 0.35158(7) 0.65552(7) 0.77661(12)
O1 O 0.3271(2) 0.6087(2) 0.8238(3)
O2 O 0.39713(19) 0.68651(18) 0.8179(3)
N1 N 0.42496(16) 0.57529(17) 0.4150(3)
H1 H 0.4375 0.5620 0.3624
N2 N 0.3738(2) 0.6301(2) 0.6807(4)
C1 C 0.5000 0.6537(2) 0.4240(5)
C2 C 0.4470(2) 0.6229(2) 0.4602(4)
C3 C 0.4159(2) 0.6290(2) 0.5386(4)
C4 C 0.4144(3) 0.6637(3) 0.6227(4)
H2 H 0.4524 0.6664 0.6515
H3 H 0.3999 0.7024 0.6104
C5 C 0.3410(3) 0.5881(2) 0.6289(4)
H4 H 0.3401 0.5509 0.6605
H5 H 0.3017 0.6012 0.6177
C6 C 0.3747(2) 0.5854(2) 0.5418(4)
C7 C 0.38130(19) 0.5525(2) 0.4641(4)
C8 C 0.3482(3) 0.5000 0.4302(5)
C9 C 0.2982(2) 0.7054(3) 0.7537(4)
C10 C 0.3120(3) 0.7605(3) 0.7380(4)
H6 H 0.3507 0.7719 0.7362
C11 C 0.2681(3) 0.8010(3) 0.7244(4)
H7 H 0.2777 0.8394 0.7127
C12 C 0.2117(3) 0.7854(4) 0.7279(5)
C13 C 0.1974(3) 0.7289(5) 0.7359(6)
H8 H 0.1589 0.7171 0.7321
C14 C 0.2406(4) 0.6896(4) 0.7498(5)
H9 H 0.2309 0.6507 0.7570
C15 C 0.1641(3) 0.8267(5) 0.7190(7)
H10 H 0.1699 0.8502 0.6644
H11 H 0.1281 0.8061 0.7134
H12 H 0.1629 0.8511 0.7735
C16 C 0.5000 0.7129(3) 0.4592(6)
H13 H 0.4667 0.7329 0.4392
H14 H 0.5000 0.7105 0.5248
C17 C 0.5000 0.6566(3) 0.3198(5)
H15 H 0.4667 0.6761 0.2985
H16 H 0.5000 0.6184 0.2966
C18 C 0.3414(3) 0.5000 0.3284(7)
H17 H 0.3209 0.5333 0.3099
H18 H 0.3782 0.5000 0.3001
C19 C 0.2885(3) 0.5000 0.4682(7)
H19 H 0.2685 0.5333 0.4483
H20 H 0.2911 0.5000 0.5338
S1A S 0.64842(7) 0.65552(7) 0.77661(12)
S1J S 0.64842(7) 0.34448(7) 0.77661(12)
S1K S 0.35158(7) 0.34448(7) 0.77661(12)
O1A O 0.6729(2) 0.6087(2) 0.8238(3)
O1J O 0.6729(2) 0.3913(2) 0.8238(3)
O1K O 0.3271(2) 0.3913(2) 0.8238(3)
O2A O 0.60287(19) 0.68651(18) 0.8179(3)
O2J O 0.60287(19) 0.31349(18) 0.8179(3)
O2K O 0.39713(19) 0.31349(18) 0.8179(3)
N1A N 0.57504(16) 0.57529(17) 0.4150(3)
N1J N 0.57504(16) 0.42471(17) 0.4150(3)
N1K N 0.42496(16) 0.42471(17) 0.4150(3)
H1A H 0.5625 0.5620 0.3624
H1J H 0.5625 0.4380 0.3624
H1K H 0.4375 0.4380 0.3624
N2A N 0.6262(2) 0.6301(2) 0.6807(4)
N2J N 0.6262(2) 0.3699(2) 0.6807(4)
N2K N 0.3738(2) 0.3699(2) 0.6807(4)
C1J C 0.5000 0.3463(2) 0.4240(5)
C2A C 0.5530(2) 0.6229(2) 0.4602(4)
C2J C 0.5530(2) 0.3771(2) 0.4602(4)
C2K C 0.4470(2) 0.3771(2) 0.4602(4)
C3A C 0.5841(2) 0.6290(2) 0.5386(4)
C3J C 0.5841(2) 0.3710(2) 0.5386(4)
C3K C 0.4159(2) 0.3710(2) 0.5386(4)
C4A C 0.5856(3) 0.6637(3) 0.6227(4)
C4J C 0.5856(3) 0.3363(3) 0.6227(4)
C4K C 0.4144(3) 0.3363(3) 0.6227(4)
H2A H 0.5476 0.6664 0.6515
H2J H 0.5476 0.3336 0.6515
H2K H 0.4524 0.3336 0.6515
H3A H 0.6001 0.7024 0.6104
H3J H 0.6001 0.2976 0.6104
H3K H 0.3999 0.2976 0.6104
C5A C 0.6590(3) 0.5881(2) 0.6289(4)
C5J C 0.6590(3) 0.4119(2) 0.6289(4)
C5K C 0.3410(3) 0.4119(2) 0.6289(4)
H4A H 0.6599 0.5509 0.6605
H4J H 0.6599 0.4491 0.6605
H4K H 0.3401 0.4491 0.6605
H5A H 0.6983 0.6012 0.6177
H5J H 0.6983 0.3988 0.6177
H5K H 0.3017 0.3988 0.6177
C6A C 0.6253(2) 0.5854(2) 0.5418(4)
C6J C 0.6253(2) 0.4146(2) 0.5418(4)
C6K C 0.3747(2) 0.4146(2) 0.5418(4)
C7A C 0.61870(19) 0.5525(2) 0.4641(4)
C7J C 0.61870(19) 0.4475(2) 0.4641(4)
C7K C 0.38130(19) 0.4475(2) 0.4641(4)
C8A C 0.6518(3) 0.5000 0.4302(5)
C9A C 0.7018(2) 0.7054(3) 0.7537(4)
C9J C 0.7018(2) 0.2946(3) 0.7537(4)
C9K C 0.2982(2) 0.2946(3) 0.7537(4)
C10A C 0.6880(3) 0.7605(3) 0.7380(4)
C10J C 0.6880(3) 0.2395(3) 0.7380(4)
C10K C 0.3120(3) 0.2395(3) 0.7380(4)
H6A H 0.6493 0.7719 0.7362
H6J H 0.6493 0.2281 0.7362
H6K H 0.3507 0.2281 0.7362
C11A C 0.7319(3) 0.8010(3) 0.7244(4)
C11J C 0.7319(3) 0.1990(3) 0.7244(4)
C11K C 0.2681(3) 0.1990(3) 0.7244(4)
H7A H 0.7223 0.8394 0.7127
H7J H 0.7223 0.1606 0.7127
H7K H 0.2777 0.1606 0.7127
C12A C 0.7883(3) 0.7854(4) 0.7279(5)
C12J C 0.7883(3) 0.2146(4) 0.7279(5)
C12K C 0.2117(3) 0.2146(4) 0.7279(5)
C13A C 0.8026(3) 0.7289(5) 0.7359(6)
C13J C 0.8026(3) 0.2711(5) 0.7359(6)
C13K C 0.1974(3) 0.2711(5) 0.7359(6)
H8A H 0.8411 0.7171 0.7321
H8J H 0.8411 0.2829 0.7321
H8K H 0.1589 0.2829 0.7321
C14A C 0.7594(4) 0.6896(4) 0.7498(5)
C14J C 0.7594(4) 0.3104(4) 0.7498(5)
C14K C 0.2406(4) 0.3104(4) 0.7498(5)
H9A H 0.7691 0.6507 0.7570
H9J H 0.7691 0.3493 0.7570
H9K H 0.2309 0.3493 0.7570
C15A C 0.8359(3) 0.8267(5) 0.7190(7)
C15J C 0.8359(3) 0.1733(5) 0.7190(7)
C15K C 0.1641(3) 0.1733(5) 0.7190(7)
H10A H 0.8301 0.8502 0.6644
H10J H 0.8301 0.1498 0.6644
H10K H 0.1699 0.1498 0.6644
H11A H 0.8719 0.8061 0.7134
H11J H 0.8719 0.1939 0.7134
H11K H 0.1281 0.1939 0.7134
H12A H 0.8371 0.8511 0.7735
H12J H 0.8371 0.1489 0.7735
H12K H 0.1629 0.1489 0.7735
C16J C 0.5000 0.2871(3) 0.4592(6)
H13A H 0.5333 0.7329 0.4392
H13J H 0.5333 0.2671 0.4392
H13K H 0.4667 0.2671 0.4392
H14J H 0.5000 0.2895 0.5248
C17J C 0.5000 0.3434(3) 0.3198(5)
H15A H 0.5333 0.6761 0.2985
H15J H 0.5333 0.3239 0.2985
H15K H 0.4667 0.3239 0.2985
H16J H 0.5000 0.3816 0.2966
C18A C 0.6586(3) 0.5000 0.3284(7)
H17A H 0.6791 0.5333 0.3099
H17J H 0.6791 0.4667 0.3099
H17K H 0.3209 0.4667 0.3099
H18A H 0.6218 0.5000 0.3001
C19A C 0.7115(3) 0.5000 0.4682(7)
H19A H 0.7315 0.5333 0.4483
H19J H 0.7315 0.4667 0.4483
H19K H 0.2685 0.4667 0.4483
H20A H 0.7089 0.5000 0.5338
Cl1 Cl 0.5000 0.5000 0.2602(2)
loop_
_geom_bond_atom_site_label_1
_geom_bond_atom_site_label_2
_geom_bond_site_symmetry_1
_geom_bond_site_symmetry_2
S1 O1 1_555 1_555
O2 S1 1_555 1_555
N1 H1 1_555 1_555
N2 S1 1_555 1_555
C1 C2 1_555 1_555
C2 N1 1_555 1_555
C3 C2 1_555 1_555
C4 N2 1_555 1_555
H2 C4 1_555 1_555
H3 C4 1_555 1_555
C5 N2 1_555 1_555
H4 C5 1_555 1_555
H5 C5 1_555 1_555
C6 C3 1_555 1_555
C7 N1 1_555 1_555
C8 C7 1_555 1_555
C9 S1 1_555 1_555
C10 C9 1_555 1_555
H6 C10 1_555 1_555
C11 C10 1_555 1_555
H7 C11 1_555 1_555
C12 C11 1_555 1_555
C13 C12 1_555 1_555
H8 C13 1_555 1_555
C14 C9 1_555 1_555
H9 C14 1_555 1_555
C15 C12 1_555 1_555
H10 C15 1_555 1_555
H11 C15 1_555 1_555
H12 C15 1_555 1_555
C16 C1 1_555 1_555
H13 C16 1_555 1_555
H14 C16 1_555 1_555
C17 C1 1_555 1_555
H15 C17 1_555 1_555
H16 C17 1_555 1_555
C18 C8 1_555 1_555
H17 C18 1_555 1_555
H18 C18 1_555 1_555
C19 C8 1_555 1_555
H19 C19 1_555 1_555
H20 C19 1_555 1_555
S1A O1A 1_555 1_555
S1J O1J 1_555 1_555
S1K O1K 1_555 1_555
O2A S1A 1_555 1_555
O2J S1J 1_555 1_555
O2K S1K 1_555 1_555
N1A H1A 1_555 1_555
N1J H1J 1_555 1_555
N1K H1K 1_555 1_555
N2A S1A 1_555 1_555
N2J S1J 1_555 1_555
N2K S1K 1_555 1_555
C1J C2J 1_555 1_555
C2A C1 1_555 1_555
C2J N1J 1_555 1_555
C2K N1K 1_555 1_555
C3A C2A 1_555 1_555
C3J C2J 1_555 1_555
C3K C2K 1_555 1_555
C4A N2A 1_555 1_555
C4J N2J 1_555 1_555
C4K N2K 1_555 1_555
H2A C4A 1_555 1_555
H2J C4J 1_555 1_555
H2K C4K 1_555 1_555
H3A C4A 1_555 1_555
H3J C4J 1_555 1_555
H3K C4K 1_555 1_555
C5A N2A 1_555 1_555
C5J N2J 1_555 1_555
C5K N2K 1_555 1_555
H4A C5A 1_555 1_555
H4J C5J 1_555 1_555
H4K C5K 1_555 1_555
H5A C5A 1_555 1_555
H5J C5J 1_555 1_555
H5K C5K 1_555 1_555
C6A C3A 1_555 1_555
C6J C3J 1_555 1_555
C6K C3K 1_555 1_555
C7A N1A 1_555 1_555
C7J N1J 1_555 1_555
C7K C8 1_555 1_555
C8A C7A 1_555 1_555
C9A S1A 1_555 1_555
C9J S1J 1_555 1_555
C9K S1K 1_555 1_555
C10A C9A 1_555 1_555
C10J C9J 1_555 1_555
C10K C9K 1_555 1_555
H6A C10A 1_555 1_555
H6J C10J 1_555 1_555
H6K C10K 1_555 1_555
C11A C10A 1_555 1_555
C11J C10J 1_555 1_555
C11K C10K 1_555 1_555
H7A C11A 1_555 1_555
H7J C11J 1_555 1_555
H7K C11K 1_555 1_555
C12A C11A 1_555 1_555
C12J C11J 1_555 1_555
C12K C11K 1_555 1_555
C13A C12A 1_555 1_555
C13J C12J 1_555 1_555
C13K C12K 1_555 1_555
H8A C13A 1_555 1_555
H8J C13J 1_555 1_555
H8K C13K 1_555 1_555
C14A C9A 1_555 1_555
C14J C9J 1_555 1_555
C14K C9K 1_555 1_555
H9A C14A 1_555 1_555
H9J C14J 1_555 1_555
H9K C14K 1_555 1_555
C15A C12A 1_555 1_555
C15J C12J 1_555 1_555
C15K C12K 1_555 1_555
H10A C15A 1_555 1_555
H10J C15J 1_555 1_555
H10K C15K 1_555 1_555
H11A C15A 1_555 1_555
H11J C15J 1_555 1_555
H11K C15K 1_555 1_555
H12A C15A 1_555 1_555
H12J C15J 1_555 1_555
H12K C15K 1_555 1_555
C16J C1J 1_555 1_555
H13A C16 1_555 1_555
H13J C16J 1_555 1_555
H13K C16J 1_555 1_555
H14J C16J 1_555 1_555
C17J C1J 1_555 1_555
H15A C17 1_555 1_555
H15J C17J 1_555 1_555
H15K C17J 1_555 1_555
H16J C17J 1_555 1_555
C18A C8A 1_555 1_555
H17A C18A 1_555 1_555
H17J C18A 1_555 1_555
H17K C18 1_555 1_555
H18A C18A 1_555 1_555
C19A C8A 1_555 1_555
H19A C19A 1_555 1_555
H19J C19A 1_555 1_555
H19K C19 1_555 1_555
H20A C19A 1_555 1_555
C3 C4 1_555 1_555
C5 C6 1_555 1_555
C6 C7 1_555 1_555
C13 C14 1_555 1_555
N1A C2A 1_555 1_555
N1K C7K 1_555 1_555
C1J C2K 1_555 1_555
C3A C4A 1_555 1_555
C3J C4J 1_555 1_555
C3K C4K 1_555 1_555
C5A C6A 1_555 1_555
C5J C6J 1_555 1_555
C5K C6K 1_555 1_555
C6A C7A 1_555 1_555
C6J C7J 1_555 1_555
C6K C7K 1_555 1_555
C7J C8A 1_555 1_555
C13A C14A 1_555 1_555
C13J C14J 1_555 1_555
C13K C14K 1_555 1_555

#END
