
#######################################################################
#
#                 Cambridge Crystallographic Data Centre
#                                CCDC 
#
#######################################################################
#
# If this CIF has been generated from an entry in the Cambridge 
# Structural Database, then it will include bibliographic, chemical, 
# crystal, experimental, refinement or atomic coordinate data resulting 
# from the CCDC's data processing and validation procedures.
#
#######################################################################

data_EYOKAF
_chemical_name_common            
'5,5,10,10,15,15,20,20-Octamethyl-tetrakis(N-p-toluenesulfonylpyrrolidine)calix[4]pyrrole dimethylformamide dichloromethane solvate'
_chemical_formula_moiety         
'C64 H72 N8 O8 S4,4(C3 H7 N1 O1),0.5(C1 H2 Cl2)'
_chemical_name_systematic        
'2,2,10,10,18,18,26,26-octamethyl-6,14,22,30-tetrakis((4-methylphenyl)sulfonyl)-6,14,22,30,33,34,35,36-octaazanonacyclo[25.5.1.1^3,9^.1^11,17^.1^19,25^.0^4,8^.0^12,16^.0^20,24^.0^28,32^]hexatriaconta-1(32),3,8,11,16,19,24,27-octaene dimethylformamide dichloromethane solvate'
_symmetry_cell_setting           triclinic
_symmetry_space_group_name_H-M   'P -1'
_symmetry_Int_Tables_number      2
_space_group_name_Hall           '-P 1'
loop_
_symmetry_equiv_pos_site_id
_symmetry_equiv_pos_as_xyz
1 x,y,z
2 -x,-y,-z
_cell_length_a                   11.4296(6)
_cell_length_b                   12.6286(6)
_cell_length_c                   15.0391(9)
_cell_angle_alpha                105.0390(10)
_cell_angle_beta                 90.9620(10)
_cell_angle_gamma                107.6010(10)
_cell_volume                     1987.52
_exptl_crystal_colour            colorless
_exptl_crystal_description       plates
_cell_formula_units_Z            1
loop_
_atom_site_label
_atom_site_type_symbol
_atom_site_fract_x
_atom_site_fract_y
_atom_site_fract_z
N5 N 0.1406(3) 0.2445(4) 0.5058(3)
O5 O 0.3200(2) 0.3945(2) 0.54735(16)
C33 C 0.2196(3) 0.3438(5) 0.5015(3)
H35 H 0.1962 0.3792 0.4587
C34 C 0.0232(5) 0.1895(6) 0.4466(6)
H36 H 0.0080 0.2437 0.4151
H37 H -0.0439 0.1679 0.4847
H38 H 0.0270 0.1201 0.4004
C35 C 0.1690(4) 0.1820(4) 0.5675(3)
H39 H 0.1006 0.1635 0.6052
H40 H 0.2446 0.2300 0.6080
H41 H 0.1808 0.1102 0.5308
S1 S 0.13041(5) -0.11490(5) 0.25275(4)
S2 S -0.10012(5) 0.39847(5) 0.30709(4)
O1 O 0.09293(13) -0.16655(13) 0.32578(11)
O2 O 0.04000(14) -0.10624(14) 0.19034(12)
O3 O -0.13855(13) 0.27514(13) 0.26576(11)
O4 O -0.15543(13) 0.44702(14) 0.38593(10)
N1 N 0.52198(16) 0.33057(16) 0.39059(12)
N2 N 0.43931(16) 0.57526(14) 0.37822(11)
N3 N 0.21873(15) 0.01652(14) 0.30217(12)
N4 N 0.04686(14) 0.43841(14) 0.33922(11)
C1 C 0.50020(17) 0.24184(17) 0.43131(13)
C2 C 0.39847(17) 0.15591(17) 0.37996(13)
C3 C 0.35879(17) 0.19406(17) 0.30839(13)
C4 C 0.43658(17) 0.30293(17) 0.31481(13)
C5 C 0.43348(17) 0.38684(17) 0.25990(13)
C6 C 0.37303(17) 0.47233(17) 0.31341(13)
C7 C 0.25188(17) 0.46705(17) 0.31694(13)
C8 C 0.24476(17) 0.56586(17) 0.38466(13)
C9 C 0.36218(17) 0.63364(17) 0.42267(13)
C10 C 0.41585(18) 0.75466(17) 0.48837(14)
C11 C 0.32129(18) 0.03448(18) 0.37270(15)
H1 H 0.3677 -0.0205 0.3513
H2 H 0.2904 0.0268 0.4326
C12 C 0.24961(18) 0.10295(17) 0.24782(15)
H3 H 0.1807 0.1335 0.2411
H4 H 0.2720 0.0700 0.1858
C13 C 0.2234(2) -0.18951(18) 0.18843(15)
C14 C 0.2626(2) -0.2663(2) 0.22308(15)
H5 H 0.2334 -0.2837 0.2781
C15 C 0.3441(2) -0.3174(2) 0.17765(16)
H6 H 0.3694 -0.3704 0.2018
C16 C 0.3897(2) -0.2936(2) 0.09803(17)
C17 C 0.3494(3) -0.2170(2) 0.06374(17)
H7 H 0.3795 -0.1993 0.0091
C18 C 0.2663(2) -0.1658(2) 0.10745(16)
H8 H 0.2389 -0.1148 0.0822
C19 C 0.4785(3) -0.3492(3) 0.0487(2)
H9 H 0.5066 -0.3906 0.0870
H10 H 0.5496 -0.2895 0.0372
H11 H 0.4372 -0.4039 -0.0105
C20 C 0.56389(18) 0.44796(18) 0.24045(15)
H12 H 0.6150 0.4917 0.2991
H13 H 0.5603 0.5010 0.2038
H14 H 0.5999 0.3904 0.2059
C21 C 0.35570(19) 0.31889(19) 0.16707(14)
H15 H 0.2719 0.2787 0.1783
H16 H 0.3930 0.2622 0.1328
H17 H 0.3525 0.3724 0.1308
C22 C 0.12564(18) 0.38734(18) 0.27304(14)
H18 H 0.1087 0.3916 0.2095
H19 H 0.1148 0.3062 0.2718
C23 C 0.11214(17) 0.56182(17) 0.39369(14)
H20 H 0.0939 0.5768 0.4591
H21 H 0.0908 0.6173 0.3658
C24 C -0.11817(17) 0.46375(19) 0.22040(14)
C25 C -0.13032(18) 0.57369(19) 0.24564(15)
H22 H -0.1306 0.6120 0.3089
C26 C -0.14196(19) 0.6266(2) 0.17776(16)
H23 H -0.1506 0.7015 0.1945
C27 C -0.1411(2) 0.5705(2) 0.08449(16)
C28 C -0.1288(2) 0.4603(2) 0.06046(16)
H24 H -0.1277 0.4223 -0.0028
C29 C -0.1182(2) 0.4058(2) 0.12729(15)
H25 H -0.1110 0.3303 0.1105
C30 C -0.1533(3) 0.6292(3) 0.01095(19)
H26 H -0.0758 0.6906 0.0126
H27 H -0.2204 0.6628 0.0225
H28 H -0.1717 0.5724 -0.0500
C31 C 0.30981(19) 0.79955(19) 0.52528(15)
H29 H 0.2604 0.7489 0.5597
H30 H 0.2575 0.8001 0.4732
H31 H 0.3441 0.8782 0.5663
C32 C 0.49182(19) 0.83488(18) 0.43400(15)
H32 H 0.5592 0.8068 0.4097
H33 H 0.5261 0.9135 0.4752
H34 H 0.4385 0.8354 0.3825
H42 H 0.521(2) 0.599(2) 0.3917(17)
H43 H 0.572(2) 0.390(2) 0.4050(15)
S1A S 0.86959(5) 1.11490(5) 0.74725(4)
S2A S 1.10012(5) 0.60153(5) 0.69291(4)
O1A O 0.90707(13) 1.16655(13) 0.67422(11)
O2A O 0.96000(14) 1.10624(14) 0.80966(12)
O3A O 1.13855(13) 0.72486(13) 0.73424(11)
O4A O 1.15543(13) 0.55298(14) 0.61407(10)
N1A N 0.47802(16) 0.66943(16) 0.60941(12)
N2A N 0.56069(16) 0.42474(14) 0.62178(11)
N3A N 0.78127(15) 0.98348(14) 0.69783(12)
N4A N 0.95314(14) 0.56159(14) 0.66078(11)
C1A C 0.49980(17) 0.75816(17) 0.56869(13)
C2A C 0.60153(17) 0.84409(17) 0.62004(13)
C3A C 0.64121(17) 0.80594(17) 0.69161(13)
C4A C 0.56342(17) 0.69707(17) 0.68519(13)
C5A C 0.56652(17) 0.61316(17) 0.74010(13)
C6A C 0.62697(17) 0.52767(17) 0.68659(13)
C7A C 0.74812(17) 0.53295(17) 0.68306(13)
C8A C 0.75524(17) 0.43414(17) 0.61534(13)
C9A C 0.63782(17) 0.36636(17) 0.57733(13)
C10A C 0.58415(18) 0.24534(17) 0.51163(14)
C11A C 0.67871(18) 0.96552(18) 0.62730(15)
H1A H 0.6323 1.0205 0.6487
H2A H 0.7096 0.9732 0.5674
C12A C 0.75039(18) 0.89705(17) 0.75218(15)
H3A H 0.8193 0.8665 0.7589
H4A H 0.7280 0.9300 0.8142
C13A C 0.7766(2) 1.18951(18) 0.81157(15)
C14A C 0.7374(2) 1.2663(2) 0.77692(15)
H5A H 0.7666 1.2837 0.7219
C15A C 0.6559(2) 1.3174(2) 0.82235(16)
H6A H 0.6306 1.3704 0.7982
C16A C 0.6103(2) 1.2936(2) 0.90197(17)
C17A C 0.6506(3) 1.2170(2) 0.93626(17)
H7A H 0.6205 1.1993 0.9909
C18A C 0.7337(2) 1.1658(2) 0.89255(16)
H8A H 0.7611 1.1148 0.9178
C19A C 0.5215(3) 1.3492(3) 0.9513(2)
H9A H 0.4934 1.3906 0.9130
H10A H 0.4504 1.2895 0.9628
H11A H 0.5628 1.4039 1.0105
C20A C 0.43611(18) 0.55204(18) 0.75955(15)
H12A H 0.3850 0.5083 0.7009
H13A H 0.4397 0.4990 0.7962
H14A H 0.4001 0.6096 0.7941
C21A C 0.64430(19) 0.68111(19) 0.83293(14)
H15A H 0.7281 0.7213 0.8217
H16A H 0.6070 0.7378 0.8672
H17A H 0.6475 0.6276 0.8692
C22A C 0.87436(18) 0.61266(18) 0.72696(14)
H18A H 0.8913 0.6084 0.7905
H19A H 0.8852 0.6938 0.7282
C23A C 0.88786(17) 0.43818(17) 0.60631(14)
H20A H 0.9061 0.4232 0.5409
H21A H 0.9092 0.3827 0.6342
C24A C 1.11817(17) 0.53625(19) 0.77960(14)
C25A C 1.13032(18) 0.42631(19) 0.75436(15)
H22A H 1.1306 0.3880 0.6911
C26A C 1.14196(19) 0.3734(2) 0.82224(16)
H23A H 1.1506 0.2985 0.8055
C27A C 1.1411(2) 0.4295(2) 0.91551(16)
C28A C 1.1288(2) 0.5397(2) 0.93954(16)
H24A H 1.1277 0.5777 1.0028
C29A C 1.1182(2) 0.5942(2) 0.87271(15)
H25A H 1.1110 0.6697 0.8895
C30A C 1.1533(3) 0.3708(3) 0.98905(19)
H26A H 1.0758 0.3094 0.9874
H27A H 1.2204 0.3372 0.9775
H28A H 1.1717 0.4276 1.0500
C31A C 0.69019(19) 0.20045(19) 0.47472(15)
H29A H 0.7396 0.2511 0.4403
H30A H 0.7425 0.1999 0.5268
H31A H 0.6559 0.1218 0.4337
C32A C 0.50818(19) 0.16512(18) 0.56600(15)
H32A H 0.4408 0.1932 0.5903
H33A H 0.4739 0.0865 0.5248
H34A H 0.5615 0.1646 0.6175
H42A H 0.479(2) 0.401(2) 0.6083(17)
H43A H 0.428(2) 0.610(2) 0.5950(15)
C36? C 0.2123(9) 0.3070(8) 0.5089(8)
C37? C 0.0177(13) 0.1765(13) 0.4219(12)
C38? C 0.1252(9) 0.1237(8) 0.5408(7)
H44? H 0.2058 0.3582 0.4740
H45? H 0.0245 0.2413 0.3957
H46? H -0.0596 0.1588 0.4507
H47? H 0.0181 0.1085 0.3725
H48? H 0.1035 0.0466 0.4968
H49? H 0.0658 0.1236 0.5870
H50? H 0.2083 0.1440 0.5717
N6? N 0.1220(9) 0.2077(7) 0.4917(7)
O6? O 0.3035(6) 0.3401(6) 0.5653(4)
loop_
_geom_bond_atom_site_label_1
_geom_bond_atom_site_label_2
_geom_bond_site_symmetry_1
_geom_bond_site_symmetry_2
S1 O1 1_555 1_555
S2 O3 1_555 1_555
O2 S1 1_555 1_555
O4 S2 1_555 1_555
N1 C1 1_555 1_555
N2 C6 1_555 1_555
N3 S1 1_555 1_555
N4 S2 1_555 1_555
C1 C2 1_555 1_555
C2 C3 1_555 1_555
C3 C4 1_555 1_555
C4 N1 1_555 1_555
C5 C4 1_555 1_555
C6 C5 1_555 1_555
C7 C6 1_555 1_555
C8 C7 1_555 1_555
C9 N2 1_555 1_555
C10 C9 1_555 1_555
C11 N3 1_555 1_555
H1 C11 1_555 1_555
H2 C11 1_555 1_555
C12 N3 1_555 1_555
H3 C12 1_555 1_555
H4 C12 1_555 1_555
C13 S1 1_555 1_555
C14 C13 1_555 1_555
H5 C14 1_555 1_555
C15 C14 1_555 1_555
H6 C15 1_555 1_555
C16 C15 1_555 1_555
C17 C16 1_555 1_555
H7 C17 1_555 1_555
C18 C13 1_555 1_555
H8 C18 1_555 1_555
C19 C16 1_555 1_555
H9 C19 1_555 1_555
H10 C19 1_555 1_555
H11 C19 1_555 1_555
C20 C5 1_555 1_555
H12 C20 1_555 1_555
H13 C20 1_555 1_555
H14 C20 1_555 1_555
C21 C5 1_555 1_555
H15 C21 1_555 1_555
H16 C21 1_555 1_555
H17 C21 1_555 1_555
C22 N4 1_555 1_555
H18 C22 1_555 1_555
H19 C22 1_555 1_555
C23 N4 1_555 1_555
H20 C23 1_555 1_555
H21 C23 1_555 1_555
C24 S2 1_555 1_555
C25 C24 1_555 1_555
H22 C25 1_555 1_555
C26 C25 1_555 1_555
H23 C26 1_555 1_555
C27 C26 1_555 1_555
C28 C27 1_555 1_555
H24 C28 1_555 1_555
C29 C24 1_555 1_555
H25 C29 1_555 1_555
C30 C27 1_555 1_555
H26 C30 1_555 1_555
H27 C30 1_555 1_555
H28 C30 1_555 1_555
C31 C10 1_555 1_555
H29 C31 1_555 1_555
H30 C31 1_555 1_555
H31 C31 1_555 1_555
C32 C10 1_555 1_555
H32 C32 1_555 1_555
H33 C32 1_555 1_555
H34 C32 1_555 1_555
N5 C33 1_555 1_555
O5 C33 1_555 1_555
C33 H35 1_555 1_555
C34 N5 1_555 1_555
H36 C34 1_555 1_555
H37 C34 1_555 1_555
H38 C34 1_555 1_555
C35 N5 1_555 1_555
H39 C35 1_555 1_555
H40 C35 1_555 1_555
H41 C35 1_555 1_555
H42 N2 1_555 1_555
H43 N1 1_555 1_555
S1A O1A 1_555 1_555
S2A O3A 1_555 1_555
O2A S1A 1_555 1_555
O4A S2A 1_555 1_555
N1A C1A 1_555 1_555
N2A C6A 1_555 1_555
N3A S1A 1_555 1_555
N4A S2A 1_555 1_555
C1A C10 1_555 1_555
C2A C1A 1_555 1_555
C3A C2A 1_555 1_555
C4A N1A 1_555 1_555
C5A C4A 1_555 1_555
C6A C5A 1_555 1_555
C7A C6A 1_555 1_555
C8A C7A 1_555 1_555
C9A N2A 1_555 1_555
C10A C1 1_555 1_555
C11A N3A 1_555 1_555
H1A C11A 1_555 1_555
H2A C11A 1_555 1_555
C12A N3A 1_555 1_555
H3A C12A 1_555 1_555
H4A C12A 1_555 1_555
C13A S1A 1_555 1_555
C14A C13A 1_555 1_555
H5A C14A 1_555 1_555
C15A C14A 1_555 1_555
H6A C15A 1_555 1_555
C16A C15A 1_555 1_555
C17A C16A 1_555 1_555
H7A C17A 1_555 1_555
C18A C13A 1_555 1_555
H8A C18A 1_555 1_555
C19A C16A 1_555 1_555
H9A C19A 1_555 1_555
H10A C19A 1_555 1_555
H11A C19A 1_555 1_555
C20A C5A 1_555 1_555
H12A C20A 1_555 1_555
H13A C20A 1_555 1_555
H14A C20A 1_555 1_555
C21A C5A 1_555 1_555
H15A C21A 1_555 1_555
H16A C21A 1_555 1_555
H17A C21A 1_555 1_555
C22A N4A 1_555 1_555
H18A C22A 1_555 1_555
H19A C22A 1_555 1_555
C23A N4A 1_555 1_555
H20A C23A 1_555 1_555
H21A C23A 1_555 1_555
C24A S2A 1_555 1_555
C25A C24A 1_555 1_555
H22A C25A 1_555 1_555
C26A C25A 1_555 1_555
H23A C26A 1_555 1_555
C27A C26A 1_555 1_555
C28A C27A 1_555 1_555
H24A C28A 1_555 1_555
C29A C24A 1_555 1_555
H25A C29A 1_555 1_555
C30A C27A 1_555 1_555
H26A C30A 1_555 1_555
H27A C30A 1_555 1_555
H28A C30A 1_555 1_555
C31A C10A 1_555 1_555
H29A C31A 1_555 1_555
H30A C31A 1_555 1_555
H31A C31A 1_555 1_555
C32A C10A 1_555 1_555
H32A C32A 1_555 1_555
H33A C32A 1_555 1_555
H34A C32A 1_555 1_555
H42A N2A 1_555 1_555
H43A N1A 1_555 1_555
C2 C11 1_555 1_555
C3 C12 1_555 1_555
C7 C22 1_555 1_555
C8 C9 1_555 1_555
C8 C23 1_555 1_555
C17 C18 1_555 1_555
C28 C29 1_555 1_555
C2A C11A 1_555 1_555
C3A C4A 1_555 1_555
C3A C12A 1_555 1_555
C7A C22A 1_555 1_555
C8A C9A 1_555 1_555
C8A C23A 1_555 1_555
C9A C10A 1_555 1_555
C17A C18A 1_555 1_555
C28A C29A 1_555 1_555

#END
