
#######################################################################
#
#                 Cambridge Crystallographic Data Centre
#                                CCDC 
#
#######################################################################
#
# If this CIF has been generated from an entry in the Cambridge 
# Structural Database, then it will include bibliographic, chemical, 
# crystal, experimental, refinement or atomic coordinate data resulting 
# from the CCDC's data processing and validation procedures.
#
#######################################################################

data_EYOKEJ
_chemical_name_common            
'5,5,10,10,15,15,20,20-Octamethyl-tetrakis(N-p-toluenesulfonylpyrrolidine)calix[4]pyrrole methanol solvate'
_chemical_formula_moiety         'C64 H72 N8 O8 S4,2(C1 H4 O1)'
_chemical_name_systematic        
'2,2,10,10,18,18,26,26-octamethyl-6,14,22,30-tetrakis((4-methylphenyl)sulfonyl)-6,14,22,30,33,34,35,36-octaazanonacyclo[25.5.1.1^3,9^.1^11,17^.1^19,25^.0^4,8^.0^12,16^.0^20,24^.0^28,32^]hexatriaconta-1(32),3,8,11,16,19,24,27-octaene methanol solvate'
_symmetry_cell_setting           monoclinic
_symmetry_space_group_name_H-M   'P 21/n'
_symmetry_Int_Tables_number      14
_space_group_name_Hall           '-P 2yn'
loop_
_symmetry_equiv_pos_site_id
_symmetry_equiv_pos_as_xyz
1 x,y,z
2 1/2-x,1/2+y,1/2-z
3 -x,-y,-z
4 1/2+x,1/2-y,1/2+z
_cell_length_a                   12.817(3)
_cell_length_b                   17.885(6)
_cell_length_c                   13.861(5)
_cell_angle_alpha                90
_cell_angle_beta                 98.261(11)
_cell_angle_gamma                90
_cell_volume                     3144.42
_exptl_crystal_colour            colorless
_exptl_crystal_description       laths
_cell_formula_units_Z            2
loop_
_atom_site_label
_atom_site_type_symbol
_atom_site_fract_x
_atom_site_fract_y
_atom_site_fract_z
S1 S 0.67734(19) 0.68842(15) 0.93773(16)
S2 S 0.1458(2) 0.55771(16) 0.85617(19)
O1 O 0.7510(4) 0.7449(4) 0.9259(4)
O2 O 0.6670(4) 0.6566(3) 1.0286(3)
O3 O 0.0789(5) 0.6137(4) 0.8110(4)
O4 O 0.2183(4) 0.5702(3) 0.9448(4)
N1 N 0.6545(5) 0.4787(4) 0.6219(4)
H1 H 0.6454 0.4481 0.5717
N2 N 0.3861(4) 0.4212(3) 0.5772(4)
H2 H 0.4223 0.3999 0.5354
N3 N 0.7016(5) 0.6232(4) 0.8664(4)
N4 N 0.2182(5) 0.5302(4) 0.7779(4)
C1 C 0.7131(6) 0.5418(5) 0.6257(5)
C2 C 0.7058(5) 0.5724(5) 0.7154(5)
C3 C 0.6436(5) 0.5267(5) 0.7646(5)
C4 C 0.6098(5) 0.4680(5) 0.7077(6)
C5 C 0.5332(6) 0.4065(5) 0.7189(5)
C6 C 0.4228(5) 0.4303(4) 0.6749(5)
C7 C 0.3451(5) 0.4651(4) 0.7129(5)
C8 C 0.2606(5) 0.4770(4) 0.6381(5)
C9 C 0.2860(5) 0.4494(4) 0.5532(5)
C10 C 0.2233(6) 0.4420(6) 0.4539(5)
C11 C 0.7435(6) 0.6374(5) 0.7749(5)
H3 H 0.7153 0.6845 0.7441
H4 H 0.8215 0.6397 0.7857
C12 C 0.6363(6) 0.5570(5) 0.8639(5)
H5 H 0.5627 0.5698 0.8712
H6 H 0.6644 0.5211 0.9154
C13 C 0.5495(6) 0.7225(5) 0.8922(6)
C14 C 0.5365(9) 0.7795(5) 0.8256(7)
H7 H 0.5956 0.8045 0.8062
C15 C 0.4358(10) 0.7995(6) 0.7878(7)
H8 H 0.4267 0.8401 0.7433
C16 C 0.3475(9) 0.7645(6) 0.8101(7)
C17 C 0.3613(8) 0.7088(5) 0.8793(7)
H9 H 0.3025 0.6843 0.8995
C18 C 0.4615(8) 0.6898(5) 0.9179(6)
H10 H 0.4706 0.6515 0.9658
C19 C 0.2385(8) 0.7840(7) 0.7633(8)
H11 H 0.2423 0.8207 0.7115
H12 H 0.1990 0.8051 0.8123
H13 H 0.2029 0.7388 0.7354
C20 C 0.5345(5) 0.3927(5) 0.8274(5)
H14 H 0.6064 0.3807 0.8576
H15 H 0.4876 0.3509 0.8367
H16 H 0.5104 0.4378 0.8579
C21 C 0.5661(6) 0.3345(5) 0.6724(6)
H17 H 0.5636 0.3420 0.6020
H18 H 0.5177 0.2941 0.6840
H19 H 0.6380 0.3212 0.7012
C22 C 0.3189(6) 0.4921(5) 0.8084(5)
H20 H 0.3108 0.4501 0.8531
H21 H 0.3730 0.5271 0.8402
C23 C 0.1711(5) 0.5149(5) 0.6775(5)
H22 H 0.1500 0.5616 0.6416
H23 H 0.1091 0.4816 0.6749
C24 C 0.0621(7) 0.4837(5) 0.8789(6)
C25 C -0.0397(8) 0.4808(6) 0.8323(6)
H24 H -0.0659 0.5199 0.7891
C26 C -0.1041(8) 0.4218(8) 0.8476(8)
H25 H -0.1739 0.4189 0.8138
C27 C -0.0663(8) 0.3678(7) 0.9117(8)
C28 C 0.0337(9) 0.3731(6) 0.9596(6)
H26 H 0.0584 0.3356 1.0059
C29 C 0.1002(6) 0.4305(6) 0.9436(6)
H27 H 0.1703 0.4328 0.9767
C30 C -0.1331(8) 0.3022(6) 0.9275(8)
H28 H -0.2063 0.3184 0.9262
H29 H -0.1076 0.2796 0.9909
H30 H -0.1293 0.2654 0.8758
C31 C 0.1298(6) 0.4950(7) 0.4442(6)
H31 H 0.1550 0.5465 0.4549
H32 H 0.0842 0.4821 0.4927
H33 H 0.0898 0.4906 0.3786
C32 C 0.1804(7) 0.3647(7) 0.4400(6)
H34 H 0.1309 0.3623 0.3792
H35 H 0.1437 0.3515 0.4949
H36 H 0.2384 0.3295 0.4367
S1B S 0.32266(19) 0.31158(15) 0.06227(16)
S2B S 0.8542(2) 0.44229(16) 0.14383(19)
O1B O 0.2490(4) 0.2551(4) 0.0741(4)
O2B O 0.3330(4) 0.3434(3) -0.0286(3)
O3B O 0.9211(5) 0.3863(4) 0.1890(4)
O4B O 0.7817(4) 0.4298(3) 0.0552(4)
N1B N 0.3455(5) 0.5213(4) 0.3781(4)
H1B H 0.3546 0.5519 0.4283
N2B N 0.6139(4) 0.5788(3) 0.4228(4)
H2B H 0.5777 0.6001 0.4646
N3B N 0.2984(5) 0.3768(4) 0.1336(4)
N4B N 0.7818(5) 0.4698(4) 0.2221(4)
C1B C 0.2869(6) 0.4582(5) 0.3743(5)
C2B C 0.2942(5) 0.4276(5) 0.2846(5)
C3B C 0.3564(5) 0.4733(5) 0.2354(5)
C4B C 0.3902(5) 0.5320(5) 0.2923(6)
C5B C 0.4668(6) 0.5935(5) 0.2811(5)
C6B C 0.5772(5) 0.5697(4) 0.3251(5)
C7B C 0.6549(5) 0.5349(4) 0.2871(5)
C8B C 0.7394(5) 0.5230(4) 0.3619(5)
C9B C 0.7140(5) 0.5506(4) 0.4468(5)
C10B C 0.7767(6) 0.5580(6) 0.5461(5)
C11B C 0.2565(6) 0.3626(5) 0.2251(5)
H3B H 0.2847 0.3155 0.2559
H4B H 0.1785 0.3603 0.2143
C12B C 0.3637(6) 0.4430(5) 0.1361(5)
H5B H 0.4373 0.4302 0.1288
H6B H 0.3356 0.4789 0.0846
C13B C 0.4505(6) 0.2775(5) 0.1078(6)
C14B C 0.4635(9) 0.2205(5) 0.1744(7)
H7B H 0.4044 0.1955 0.1938
C15B C 0.5642(10) 0.2005(6) 0.2122(7)
H8B H 0.5733 0.1599 0.2567
C16B C 0.6525(9) 0.2355(6) 0.1899(7)
C17B C 0.6387(8) 0.2912(5) 0.1207(7)
H9B H 0.6975 0.3157 0.1005
C18B C 0.5385(8) 0.3102(5) 0.0821(6)
H10B H 0.5294 0.3485 0.0342
C19B C 0.7615(8) 0.2160(7) 0.2367(8)
H11B H 0.7577 0.1793 0.2885
H12B H 0.8010 0.1949 0.1877
H13B H 0.7971 0.2612 0.2646
C20B C 0.4655(5) 0.6073(5) 0.1726(5)
H14B H 0.3936 0.6193 0.1424
H15B H 0.5124 0.6491 0.1633
H16B H 0.4896 0.5622 0.1421
C21B C 0.4339(6) 0.6655(5) 0.3276(6)
H17B H 0.4364 0.6580 0.3980
H18B H 0.4823 0.7059 0.3160
H19B H 0.3620 0.6788 0.2988
C22B C 0.6811(6) 0.5079(5) 0.1916(5)
H20B H 0.6892 0.5499 0.1469
H21B H 0.6270 0.4729 0.1598
C23B C 0.8289(5) 0.4851(5) 0.3225(5)
H22B H 0.8500 0.4384 0.3584
H23B H 0.8909 0.5184 0.3251
C24B C 0.9379(7) 0.5163(5) 0.1211(6)
C25B C 1.0397(8) 0.5192(6) 0.1677(6)
H24B H 1.0659 0.4801 0.2109
C26B C 1.1041(8) 0.5782(8) 0.1524(8)
H25B H 1.1739 0.5811 0.1862
C27B C 1.0663(8) 0.6322(7) 0.0883(8)
C28B C 0.9663(9) 0.6269(6) 0.0404(6)
H26B H 0.9416 0.6644 -0.0059
C29B C 0.8998(6) 0.5695(6) 0.0564(6)
H27B H 0.8297 0.5672 0.0233
C30B C 1.1331(8) 0.6978(6) 0.0725(8)
H28B H 1.2063 0.6816 0.0738
H29B H 1.1076 0.7204 0.0091
H30B H 1.1293 0.7346 0.1242
C31B C 0.8702(6) 0.5050(7) 0.5558(6)
H31B H 0.8450 0.4535 0.5451
H32B H 0.9158 0.5179 0.5073
H33B H 0.9102 0.5094 0.6214
C32B C 0.8196(7) 0.6353(7) 0.5600(6)
H34B H 0.8691 0.6377 0.6208
H35B H 0.8563 0.6485 0.5051
H36B H 0.7616 0.6705 0.5633
O5 O 0.5473(4) 0.4055(4) 0.4354(4)
C33 C 0.5880(8) 0.3533(6) 0.3804(7)
H37 H 0.6094 0.3124 0.4235
H38 H 0.6497 0.3686 0.3536
H39 H 0.5357 0.3336 0.3303
loop_
_geom_bond_atom_site_label_1
_geom_bond_atom_site_label_2
_geom_bond_site_symmetry_1
_geom_bond_site_symmetry_2
S1 O1 1_555 1_555
S2 O3 1_555 1_555
O2 S1 1_555 1_555
O4 S2 1_555 1_555
N1 H1 1_555 1_555
N2 H2 1_555 1_555
N3 S1 1_555 1_555
N4 S2 1_555 1_555
C1 N1 1_555 1_555
C2 C1 1_555 1_555
C3 C2 1_555 1_555
C4 N1 1_555 1_555
C5 C4 1_555 1_555
C6 N2 1_555 1_555
C7 C6 1_555 1_555
C8 C7 1_555 1_555
C9 N2 1_555 1_555
C10 C9 1_555 1_555
C11 N3 1_555 1_555
H3 C11 1_555 1_555
H4 C11 1_555 1_555
C12 N3 1_555 1_555
H5 C12 1_555 1_555
H6 C12 1_555 1_555
C13 S1 1_555 1_555
C14 C13 1_555 1_555
H7 C14 1_555 1_555
C15 C14 1_555 1_555
H8 C15 1_555 1_555
C16 C15 1_555 1_555
C17 C16 1_555 1_555
H9 C17 1_555 1_555
C18 C13 1_555 1_555
H10 C18 1_555 1_555
C19 C16 1_555 1_555
H11 C19 1_555 1_555
H12 C19 1_555 1_555
H13 C19 1_555 1_555
C20 C5 1_555 1_555
H14 C20 1_555 1_555
H15 C20 1_555 1_555
H16 C20 1_555 1_555
C21 C5 1_555 1_555
H17 C21 1_555 1_555
H18 C21 1_555 1_555
H19 C21 1_555 1_555
C22 N4 1_555 1_555
H20 C22 1_555 1_555
H21 C22 1_555 1_555
C23 N4 1_555 1_555
H22 C23 1_555 1_555
H23 C23 1_555 1_555
C24 S2 1_555 1_555
C25 C24 1_555 1_555
H24 C25 1_555 1_555
C26 C25 1_555 1_555
H25 C26 1_555 1_555
C27 C26 1_555 1_555
C28 C27 1_555 1_555
H26 C28 1_555 1_555
C29 C24 1_555 1_555
H27 C29 1_555 1_555
C30 C27 1_555 1_555
H28 C30 1_555 1_555
H29 C30 1_555 1_555
H30 C30 1_555 1_555
C31 C10 1_555 1_555
H31 C31 1_555 1_555
H32 C31 1_555 1_555
H33 C31 1_555 1_555
C32 C10 1_555 1_555
H34 C32 1_555 1_555
H35 C32 1_555 1_555
H36 C32 1_555 1_555
O5 C33 1_555 1_555
C33 H37 1_555 1_555
H38 C33 1_555 1_555
H39 C33 1_555 1_555
S1B O1B 1_555 1_555
S2B O3B 1_555 1_555
O2B S1B 1_555 1_555
O4B S2B 1_555 1_555
N1B H1B 1_555 1_555
N2B H2B 1_555 1_555
N3B S1B 1_555 1_555
N4B S2B 1_555 1_555
C1B C10 1_555 1_555
C2B C1B 1_555 1_555
C3B C2B 1_555 1_555
C4B N1B 1_555 1_555
C5B C4B 1_555 1_555
C6B N2B 1_555 1_555
C7B C6B 1_555 1_555
C8B C7B 1_555 1_555
C9B N2B 1_555 1_555
C10B C1 1_555 1_555
C11B N3B 1_555 1_555
H3B C11B 1_555 1_555
H4B C11B 1_555 1_555
C12B N3B 1_555 1_555
H5B C12B 1_555 1_555
H6B C12B 1_555 1_555
C13B S1B 1_555 1_555
C14B C13B 1_555 1_555
H7B C14B 1_555 1_555
C15B C14B 1_555 1_555
H8B C15B 1_555 1_555
C16B C15B 1_555 1_555
C17B C16B 1_555 1_555
H9B C17B 1_555 1_555
C18B C13B 1_555 1_555
H10B C18B 1_555 1_555
C19B C16B 1_555 1_555
H11B C19B 1_555 1_555
H12B C19B 1_555 1_555
H13B C19B 1_555 1_555
C20B C5B 1_555 1_555
H14B C20B 1_555 1_555
H15B C20B 1_555 1_555
H16B C20B 1_555 1_555
C21B C5B 1_555 1_555
H17B C21B 1_555 1_555
H18B C21B 1_555 1_555
H19B C21B 1_555 1_555
C22B N4B 1_555 1_555
H20B C22B 1_555 1_555
H21B C22B 1_555 1_555
C23B N4B 1_555 1_555
H22B C23B 1_555 1_555
H23B C23B 1_555 1_555
C24B S2B 1_555 1_555
C25B C24B 1_555 1_555
H24B C25B 1_555 1_555
C26B C25B 1_555 1_555
H25B C26B 1_555 1_555
C27B C26B 1_555 1_555
C28B C27B 1_555 1_555
H26B C28B 1_555 1_555
C29B C24B 1_555 1_555
H27B C29B 1_555 1_555
C30B C27B 1_555 1_555
H28B C30B 1_555 1_555
H29B C30B 1_555 1_555
H30B C30B 1_555 1_555
C31B C10B 1_555 1_555
H31B C31B 1_555 1_555
H32B C31B 1_555 1_555
H33B C31B 1_555 1_555
C32B C10B 1_555 1_555
H34B C32B 1_555 1_555
H35B C32B 1_555 1_555
H36B C32B 1_555 1_555
C2 C11 1_555 1_555
C3 C4 1_555 1_555
C3 C12 1_555 1_555
C5 C6 1_555 1_555
C7 C22 1_555 1_555
C8 C9 1_555 1_555
C8 C23 1_555 1_555
C17 C18 1_555 1_555
C28 C29 1_555 1_555
N1B C1B 1_555 1_555
C2B C11B 1_555 1_555
C3B C4B 1_555 1_555
C3B C12B 1_555 1_555
C5B C6B 1_555 1_555
C7B C22B 1_555 1_555
C8B C9B 1_555 1_555
C8B C23B 1_555 1_555
C9B C10B 1_555 1_555
C17B C18B 1_555 1_555
C28B C29B 1_555 1_555

#END
