
#######################################################################
#
#                 Cambridge Crystallographic Data Centre
#                                CCDC 
#
#######################################################################
#
# If this CIF has been generated from an entry in the Cambridge 
# Structural Database, then it will include bibliographic, chemical, 
# crystal, experimental, refinement or atomic coordinate data resulting 
# from the CCDC's data processing and validation procedures.
#
#######################################################################

data_EYOXOH
_chemical_formula_moiety         'C13 H12 F3 N1 O3 S1'
_chemical_name_systematic        
'1-(3,4-dihydro-2H-pyrrol-5-yl)-2-phenylethenyl trifluoromethanesulfonate'
_symmetry_cell_setting           triclinic
_symmetry_space_group_name_H-M   'P -1'
_symmetry_Int_Tables_number      2
_space_group_name_Hall           '-P 1'
loop_
_symmetry_equiv_pos_site_id
_symmetry_equiv_pos_as_xyz
1 x,y,z
2 -x,-y,-z
_cell_length_a                   8.2058(4)
_cell_length_b                   8.3755(4)
_cell_length_c                   10.9663(6)
_cell_angle_alpha                104.9124(13)
_cell_angle_beta                 93.2178(14)
_cell_angle_gamma                107.1769(11)
_cell_volume                     688.657
_exptl_crystal_colour            colorless
_exptl_crystal_description       platelet
_cell_formula_units_Z            2
loop_
_atom_site_label
_atom_site_type_symbol
_atom_site_fract_x
_atom_site_fract_y
_atom_site_fract_z
S1 S 1.25656(7) 0.86975(7) 0.26695(5)
F1 F 1.11900(19) 0.91324(19) 0.47709(13)
F2 F 1.33207(19) 0.8133(2) 0.47998(13)
F3 F 1.08300(19) 0.64516(18) 0.37925(14)
O1 O 1.07638(19) 0.87442(19) 0.21222(14)
O2 O 1.3707(3) 1.0422(3) 0.31446(17)
O3 O 1.3024(2) 0.7312(3) 0.18873(15)
N1 N 1.2347(3) 0.9422(3) 0.00993(18)
C1 C 1.2978(3) 0.9616(3) -0.1105(3)
C2 C 1.1635(3) 0.8267(4) -0.2210(3)
C3 C 1.0203(4) 0.7346(4) -0.1545(3)
C4 C 1.0897(3) 0.8213(3) -0.0161(2)
C5 C 0.9961(3) 0.7714(3) 0.0853(2)
C6 C 0.8426(3) 0.6510(3) 0.0673(3)
C7 C 0.7286(3) 0.5959(3) 0.1583(2)
C8 C 0.6010(3) 0.4325(3) 0.1155(3)
C9 C 0.4879(3) 0.3724(3) 0.1954(3)
C10 C 0.4982(3) 0.4763(4) 0.3178(3)
C11 C 0.6218(3) 0.6408(3) 0.3613(3)
C12 C 0.7365(3) 0.7001(3) 0.2819(3)
C13 C 1.1920(3) 0.8052(3) 0.4097(3)
H1 H 1.4104 0.9410 -0.1145
H2 H 1.3128 1.0810 -0.1161
H3 H 1.1187 0.8848 -0.2768
H4 H 1.2139 0.7428 -0.2728
H5 H 0.9102 0.7534 -0.1770
H6 H 1.0023 0.6077 -0.1770
H7 H 0.7985 0.5896 -0.0196
H8 H 0.5918 0.3618 0.0308
H9 H 0.4034 0.2601 0.1659
H10 H 0.4207 0.4353 0.3725
H11 H 0.6277 0.7125 0.4452
H12 H 0.8209 0.8123 0.3119
loop_
_geom_bond_atom_site_label_1
_geom_bond_atom_site_label_2
_geom_bond_site_symmetry_1
_geom_bond_site_symmetry_2
S1 O1 1_555 1_555
F1 C13 1_555 1_555
F2 C13 1_555 1_555
F3 C13 1_555 1_555
O1 C5 1_555 1_555
O2 S1 1_555 1_555
O3 S1 1_555 1_555
N1 C1 1_555 1_555
C1 C2 1_555 1_555
C2 C3 1_555 1_555
C3 C4 1_555 1_555
C4 N1 1_555 1_555
C5 C4 1_555 1_555
C6 C5 1_555 1_555
C7 C6 1_555 1_555
C8 C7 1_555 1_555
C9 C8 1_555 1_555
C10 C9 1_555 1_555
C11 C10 1_555 1_555
C12 C7 1_555 1_555
C13 S1 1_555 1_555
H1 C1 1_555 1_555
H2 C1 1_555 1_555
H3 C2 1_555 1_555
H4 C2 1_555 1_555
H5 C3 1_555 1_555
H6 C3 1_555 1_555
H7 C6 1_555 1_555
H8 C8 1_555 1_555
H9 C9 1_555 1_555
H10 C10 1_555 1_555
H11 C11 1_555 1_555
H12 C12 1_555 1_555
C11 C12 1_555 1_555

#END
