
#######################################################################
#
#                 Cambridge Crystallographic Data Centre
#                                CCDC 
#
#######################################################################
#
# If this CIF has been generated from an entry in the Cambridge 
# Structural Database, then it will include bibliographic, chemical, 
# crystal, experimental, refinement or atomic coordinate data resulting 
# from the CCDC's data processing and validation procedures.
#
#######################################################################

data_EYOYIA
_chemical_formula_moiety         'C16 H11 N2 S2 1+,Cl1 O4 1-'
_chemical_name_systematic        '2,3-Dithien-2-ylquinoxalin-1-ium perchlorate'
_symmetry_cell_setting           triclinic
_symmetry_space_group_name_H-M   'P -1'
_symmetry_Int_Tables_number      2
_space_group_name_Hall           '-P 1'
loop_
_symmetry_equiv_pos_site_id
_symmetry_equiv_pos_as_xyz
1 x,y,z
2 -x,-y,-z
_cell_length_a                   10.435(2)
_cell_length_b                   11.199(2)
_cell_length_c                   15.228(3)
_cell_angle_alpha                86.001(3)
_cell_angle_beta                 73.202(3)
_cell_angle_gamma                72.859(3)
_cell_volume                     1627.73
_exptl_crystal_colour            brown
_exptl_crystal_description       prism
_cell_formula_units_Z            4
_exptl_crystal_recrystallization_method ethanol
loop_
_atom_site_label
_atom_site_type_symbol
_atom_site_fract_x
_atom_site_fract_y
_atom_site_fract_z
N1 N 0.3818(2) 0.8392(2) 0.63029(14)
C1 C 0.4031(2) 0.8571(2) 0.54117(16)
C2 C 0.2989(2) 0.9411(2) 0.50483(16)
N2 N 0.1791(2) 0.99865(19) 0.56490(14)
C3 C 0.1513(3) 0.9834(2) 0.65796(16)
C4 C 0.0218(3) 1.0453(2) 0.71797(17)
H1 H -0.0511 1.0982 0.6955
C5 C 0.0037(3) 1.0267(3) 0.81047(18)
H2 H -0.0832 1.0670 0.8528
C6 C 0.1123(3) 0.9490(3) 0.84319(17)
H3 H 0.0980 0.9393 0.9075
C7 C 0.2378(3) 0.8870(2) 0.78475(17)
H4 H 0.3101 0.8346 0.8080
C8 C 0.2585(3) 0.9020(2) 0.68918(17)
C9 C 0.5411(3) 0.7888(2) 0.48366(16)
C10 C 0.6259(3) 0.8240(2) 0.40525(17)
H5 H 0.5975 0.8984 0.3732
C11 C 0.7599(3) 0.7370(3) 0.37786(18)
H6 H 0.8319 0.7473 0.3257
C12 C 0.7752(3) 0.6370(3) 0.43382(19)
H7 H 0.8580 0.5690 0.4248
S1 S 0.62760(7) 0.64819(6) 0.52234(4)
C13 C 0.3131(3) 0.9762(2) 0.40951(16)
C14 C 0.2952(3) 1.0982(2) 0.37840(17)
H8 H 0.2695 1.1694 0.4171
C15 C 0.3202(3) 1.1030(3) 0.2824(2)
H9 H 0.3159 1.1781 0.2488
C16 C 0.3508(3) 0.9894(3) 0.24293(18)
H10 H 0.3685 0.9766 0.1790
S2 S 0.35405(7) 0.87209(6) 0.32061(4)
H22 H 0.114(4) 1.049(3) 0.546(2)
Cl1 Cl 0.90574(6) 0.26979(6) 0.47879(4)
O1 O 0.9486(3) 0.2278(2) 0.38545(14)
O2 O 0.7576(2) 0.3208(2) 0.50820(18)
O3 O 0.9450(2) 0.1626(2) 0.53456(15)
O4 O 0.9734(3) 0.3597(2) 0.48688(16)
N3 N 0.9071(2) 0.3537(2) 0.10358(15)
C17 C 0.9271(3) 0.3674(2) 0.01425(17)
C18 C 0.8199(3) 0.4472(2) -0.02174(16)
N4 N 0.7011(2) 0.5071(2) 0.03771(14)
C19 C 0.6752(3) 0.4946(2) 0.13053(17)
C20 C 0.5453(3) 0.5557(3) 0.19107(18)
H11 H 0.4718 0.6075 0.1687
C21 C 0.5279(3) 0.5383(3) 0.28313(18)
H12 H 0.4406 0.5778 0.3253
C22 C 0.6376(3) 0.4626(2) 0.31621(17)
H13 H 0.6237 0.4537 0.3805
C23 C 0.7633(3) 0.4019(2) 0.25768(17)
H14 H 0.8362 0.3508 0.2809
C24 C 0.7838(3) 0.4158(2) 0.16230(17)
C25 C 1.0630(3) 0.2965(2) -0.04288(17)
C26 C 1.1375(3) 0.3103(2) -0.13167(18)
H15 H 1.1032 0.3729 -0.1714
C27 C 1.2704(3) 0.2218(3) -0.15758(19)
H16 H 1.3353 0.2188 -0.2164
C28 C 1.2958(3) 0.1414(3) -0.08971(19)
H17 H 1.3796 0.0753 -0.0957
S3 S 1.15926(7) 0.17294(7) 0.00756(5)
C29 C 0.8312(3) 0.4678(2) -0.11970(17)
C30 C 0.8447(3) 0.5748(3) -0.16891(19)
H18 H 0.8424 0.6500 -0.1424
C31 C 0.8620(3) 0.5581(3) -0.2630(2)
H19 H 0.8756 0.6205 -0.3074
C32 C 0.8574(3) 0.4453(3) -0.28339(19)
H20 H 0.8656 0.4198 -0.3434
S4 S 0.83539(8) 0.35278(7) -0.18999(5)
H21 H 0.634(4) 0.557(3) 0.018(2)
Cl2 Cl 0.59238(6) 0.22853(6) 0.01024(4)
O5 O 0.5887(3) 0.1883(2) -0.07619(17)
O6 O 0.5234(2) 0.1641(2) 0.08320(17)
O7 O 0.5221(2) 0.36182(19) 0.02118(16)
O8 O 0.7348(2) 0.20932(19) 0.00995(14)
loop_
_geom_bond_atom_site_label_1
_geom_bond_atom_site_label_2
_geom_bond_site_symmetry_1
_geom_bond_site_symmetry_2
N1 C1 1_555 1_555
C1 C2 1_555 1_555
C2 N2 1_555 1_555
N2 C3 1_555 1_555
C3 C4 1_555 1_555
C4 H1 1_555 1_555
C5 C4 1_555 1_555
H2 C5 1_555 1_555
C6 C5 1_555 1_555
H3 C6 1_555 1_555
C7 C6 1_555 1_555
H4 C7 1_555 1_555
C8 N1 1_555 1_555
C9 C1 1_555 1_555
C10 C9 1_555 1_555
H5 C10 1_555 1_555
C11 C10 1_555 1_555
H6 C11 1_555 1_555
C12 C11 1_555 1_555
H7 C12 1_555 1_555
S1 C9 1_555 1_555
C13 C2 1_555 1_555
C14 C13 1_555 1_555
H8 C14 1_555 1_555
C15 C14 1_555 1_555
H9 C15 1_555 1_555
C16 C15 1_555 1_555
H10 C16 1_555 1_555
S2 C13 1_555 1_555
Cl1 O1 1_555 1_555
O2 Cl1 1_555 1_555
O3 Cl1 1_555 1_555
O4 Cl1 1_555 1_555
N3 C17 1_555 1_555
C17 C18 1_555 1_555
C18 N4 1_555 1_555
N4 C19 1_555 1_555
C19 C20 1_555 1_555
C20 H11 1_555 1_555
C21 C20 1_555 1_555
H12 C21 1_555 1_555
C22 C21 1_555 1_555
H13 C22 1_555 1_555
C23 C22 1_555 1_555
H14 C23 1_555 1_555
C24 N3 1_555 1_555
C25 C17 1_555 1_555
C26 C25 1_555 1_555
H15 C26 1_555 1_555
C27 C26 1_555 1_555
H16 C27 1_555 1_555
C28 C27 1_555 1_555
H17 C28 1_555 1_555
S3 C25 1_555 1_555
C29 C18 1_555 1_555
C30 C29 1_555 1_555
H18 C30 1_555 1_555
C31 C30 1_555 1_555
H19 C31 1_555 1_555
C32 C31 1_555 1_555
H20 C32 1_555 1_555
S4 C29 1_555 1_555
Cl2 O5 1_555 1_555
O6 Cl2 1_555 1_555
O7 Cl2 1_555 1_555
O8 Cl2 1_555 1_555
H21 N4 1_555 1_555
H22 N2 1_555 1_555
C3 C8 1_555 1_555
C7 C8 1_555 1_555
C12 S1 1_555 1_555
C16 S2 1_555 1_555
C19 C24 1_555 1_555
C23 C24 1_555 1_555
C28 S3 1_555 1_555
C32 S4 1_555 1_555

#END
