
#######################################################################
#
#                 Cambridge Crystallographic Data Centre
#                                CCDC 
#
#######################################################################
#
# If this CIF has been generated from an entry in the Cambridge 
# Structural Database, then it will include bibliographic, chemical, 
# crystal, experimental, refinement or atomic coordinate data resulting 
# from the CCDC's data processing and validation procedures.
#
#######################################################################

data_EYOZOH
_chemical_formula_moiety         'C14 H10 N4'
_chemical_name_systematic        
7-(4-Methylphenyl)pyrazolo(2,3-a)pyrimidine-3-carbonitrile
_symmetry_cell_setting           orthorhombic
_symmetry_space_group_name_H-M   'P 21 21 21'
_symmetry_Int_Tables_number      19
_space_group_name_Hall           'P 2ac 2ab'
loop_
_symmetry_equiv_pos_site_id
_symmetry_equiv_pos_as_xyz
1 x,y,z
2 1/2-x,-y,1/2+z
3 -x,1/2+y,1/2-z
4 1/2+x,1/2-y,-z
_cell_length_a                   7.404(3)
_cell_length_b                   10.276(4)
_cell_length_c                   14.963(5)
_cell_angle_alpha                90
_cell_angle_beta                 90
_cell_angle_gamma                90
_cell_volume                     1138.44
_exptl_crystal_colour            yellow
_exptl_crystal_description       prism
_cell_formula_units_Z            4
_exptl_crystal_recrystallization_method ethanol/DMF
loop_
_atom_site_label
_atom_site_type_symbol
_atom_site_fract_x
_atom_site_fract_y
_atom_site_fract_z
N1 N 0.0356(3) 0.48741(19) 0.57263(12)
N2 N 0.1152(3) 0.52414(18) 0.49387(12)
N3 N 0.1765(3) 0.44069(19) 0.34719(13)
N4 N -0.0517(4) 0.1074(2) 0.39411(16)
C1 C -0.0176(4) 0.3665(2) 0.55726(17)
H1 H -0.0774 0.3158 0.5994
C2 C 0.0251(4) 0.3226(2) 0.47122(16)
C3 C -0.0183(4) 0.2020(2) 0.42924(17)
C4 C 0.1112(3) 0.4263(2) 0.43020(15)
C5 C 0.2399(4) 0.5571(2) 0.32872(15)
H2 H 0.2827 0.5719 0.2712
C6 C 0.2475(3) 0.6600(2) 0.38950(15)
H3 H 0.2944 0.7398 0.3716
C7 C 0.1863(3) 0.6445(2) 0.47547(14)
C8 C 0.1957(3) 0.7464(2) 0.54441(14)
C9 C 0.2463(4) 0.7203(2) 0.63219(15)
H4 H 0.2704 0.6352 0.6498
C10 C 0.2606(4) 0.8202(2) 0.69288(15)
H5 H 0.2957 0.8014 0.7511
C11 C 0.2241(4) 0.9484(2) 0.66965(15)
C12 C 0.1738(4) 0.9728(2) 0.58231(15)
H6 H 0.1484 1.0578 0.5650
C13 C 0.1602(3) 0.8744(2) 0.52041(15)
H7 H 0.1269 0.8937 0.4620
C14 C 0.2359(4) 1.0580(2) 0.73653(17)
H8 H 0.1204 1.0699 0.7646
H9 H 0.2702 1.1367 0.7065
H10 H 0.3245 1.0371 0.7811
loop_
_geom_bond_atom_site_label_1
_geom_bond_atom_site_label_2
_geom_bond_site_symmetry_1
_geom_bond_site_symmetry_2
N1 N2 1_555 1_555
N2 C4 1_555 1_555
N3 C4 1_555 1_555
N4 C3 1_555 1_555
C1 N1 1_555 1_555
H1 C1 1_555 1_555
C2 C1 1_555 1_555
C3 C2 1_555 1_555
C4 C2 1_555 1_555
C5 N3 1_555 1_555
H2 C5 1_555 1_555
C6 C5 1_555 1_555
H3 C6 1_555 1_555
C7 N2 1_555 1_555
C8 C7 1_555 1_555
C9 C8 1_555 1_555
H4 C9 1_555 1_555
C10 C9 1_555 1_555
H5 C10 1_555 1_555
C11 C10 1_555 1_555
C12 C11 1_555 1_555
H6 C12 1_555 1_555
C13 C8 1_555 1_555
H7 C13 1_555 1_555
C14 C11 1_555 1_555
H8 C14 1_555 1_555
H9 C14 1_555 1_555
H10 C14 1_555 1_555
C6 C7 1_555 1_555
C12 C13 1_555 1_555

#END
