
#######################################################################
#
#                 Cambridge Crystallographic Data Centre
#                                CCDC 
#
#######################################################################
#
# If this CIF has been generated from an entry in the Cambridge 
# Structural Database, then it will include bibliographic, chemical, 
# crystal, experimental, refinement or atomic coordinate data resulting 
# from the CCDC's data processing and validation procedures.
#
#######################################################################

data_EYUKAM
_chemical_formula_moiety         'C8 H20 N1 1+,C7 H5 N2 O4 1-'
_chemical_name_systematic        'dibutylammonium 2-amino-4-nitrobenzoate'
_symmetry_cell_setting           triclinic
_symmetry_space_group_name_H-M   'P -1'
_symmetry_Int_Tables_number      2
_space_group_name_Hall           '-P 1'
loop_
_symmetry_equiv_pos_site_id
_symmetry_equiv_pos_as_xyz
1 x,y,z
2 -x,-y,-z
_cell_length_a                   11.1615(3)
_cell_length_b                   12.5172(4)
_cell_length_c                   13.2399(4)
_cell_angle_alpha                82.4050(10)
_cell_angle_beta                 78.107(2)
_cell_angle_gamma                70.915(2)
_cell_volume                     1706.36
_exptl_crystal_colour            orange
_exptl_crystal_description       block
_cell_formula_units_Z            4
loop_
_atom_site_label
_atom_site_type_symbol
_atom_site_fract_x
_atom_site_fract_y
_atom_site_fract_z
O1 O 0.09438(14) -0.08417(13) 0.31913(11)
O2 O 0.04512(14) 0.10463(12) 0.30797(11)
O3 O 0.20429(17) -0.04415(15) -0.22162(12)
O4 O 0.21251(19) 0.12584(15) -0.22089(13)
N1 N 0.1320(2) -0.18640(17) 0.14324(15)
H1 H 0.133(2) -0.191(2) 0.2101(9)
H2 H 0.161(2) -0.2458(15) 0.1058(18)
N2 N 0.19793(18) 0.03761(17) -0.17638(14)
C1 C 0.12087(19) 0.01094(17) 0.15175(15)
C2 C 0.14160(19) -0.08524(17) 0.09664(16)
C3 C 0.1667(2) -0.07341(18) -0.01259(16)
H3 H 0.1786 -0.1356 -0.0517
C4 C 0.1740(2) 0.02861(18) -0.06210(15)
C5 C 0.1602(2) 0.12205(18) -0.01090(16)
H4 H 0.1692 0.1904 -0.0473
C6 C 0.1326(2) 0.11159(18) 0.09631(16)
H5 H 0.1212 0.1750 0.1336
C7 C 0.08429(19) 0.00996(18) 0.26807(16)
O5 O 0.72446(14) 0.36339(13) 0.03271(12)
O6 O 0.72498(15) 0.53352(13) -0.04335(12)
O7 O 1.17970(15) 0.40957(13) 0.29913(12)
O8 O 1.13244(16) 0.58920(14) 0.25348(13)
N3 N 0.84740(18) 0.28457(16) 0.19704(14)
H6 H 0.803(2) 0.274(2) 0.1533(15)
H7 H 0.8967(19) 0.2265(14) 0.2297(17)
N4 N 1.11558(18) 0.49651(16) 0.25530(14)
C8 C 0.83927(19) 0.46491(17) 0.09567(15)
C9 C 0.88906(19) 0.37761(17) 0.17018(16)
C10 C 0.98276(19) 0.39011(17) 0.22045(15)
H8 H 1.0238 0.3304 0.2660
C11 C 1.0146(2) 0.48871(18) 0.20342(15)
C12 C 0.9579(2) 0.58021(18) 0.13950(17)
H9 H 0.9762 0.6499 0.1339
C13 C 0.8730(2) 0.56440(18) 0.08413(17)
H10 H 0.8362 0.6237 0.0364
C14 C 0.75672(19) 0.45293(18) 0.02314(16)
N5 N 0.47820(19) 0.39824(17) 0.14284(15)
H11 H 0.5508(15) 0.393(2) 0.0988(16)
H12 H 0.4105(17) 0.427(2) 0.1109(18)
C15 C 0.4777(2) 0.4736(2) 0.22127(19)
H13 H 0.5582 0.4420 0.2503
H14 H 0.4046 0.4754 0.2786
C16 C 0.4667(2) 0.5925(2) 0.17610(19)
H15 H 0.3855 0.6248 0.1482
H16 H 0.5391 0.5908 0.1181
C17 C 0.4685(4) 0.6673(3) 0.2558(3)
H17 H 0.3895 0.6770 0.3087
H18 H 0.5432 0.6287 0.2909
C18 C 0.4764(4) 0.7816(3) 0.2122(3)
H19 H 0.5545 0.7730 0.1599
H20 H 0.4791 0.8248 0.2678
H21 H 0.4007 0.8220 0.1802
C19 C 0.4816(2) 0.2812(2) 0.1868(2)
H22 H 0.4137 0.2859 0.2488
H23 H 0.5658 0.2421 0.2086
C20 C 0.4617(3) 0.2132(2) 0.1099(2)
H24 H 0.5314 0.2068 0.0490
H25 H 0.3791 0.2544 0.0861
C21 C 0.4596(3) 0.0938(2) 0.1533(2)
H26 H 0.4319 0.0589 0.1030
H27 H 0.5479 0.0467 0.1618
C22 C 0.3696(3) 0.0943(3) 0.2571(3)
H28 H 0.4065 0.1135 0.3107
H29 H 0.3589 0.0191 0.2752
H30 H 0.2856 0.1506 0.2521
N6 N 0.05973(18) 0.13511(16) 0.50714(14)
H31 H 0.055(2) 0.1145(19) 0.4468(11)
H32 H 0.0105(19) 0.1068(19) 0.5573(14)
C23 C 0.0145(2) 0.26079(18) 0.50850(17)
H33 H 0.0715 0.2928 0.4545
H34 H 0.0200 0.2821 0.5764
C24 C -0.1226(2) 0.31081(19) 0.48958(17)
H35 H -0.1804 0.2829 0.5463
H36 H -0.1294 0.2849 0.4241
C25 C -0.1664(3) 0.4403(2) 0.48336(19)
H37 H -0.1697 0.4660 0.5517
H38 H -0.1023 0.4677 0.4328
C26 C -0.2977(3) 0.4922(3) 0.4515(3)
H39 H -0.2953 0.4664 0.3841
H40 H -0.3201 0.5750 0.4465
H41 H -0.3624 0.4686 0.5033
C27 C 0.1963(2) 0.08328(19) 0.52304(17)
H42 H 0.2048 0.1045 0.5900
H43 H 0.2528 0.1141 0.4676
C28 C 0.2400(2) -0.04449(19) 0.52239(17)
H44 H 0.2302 -0.0660 0.4559
H45 H 0.1847 -0.0757 0.5787
C29 C 0.3800(2) -0.0954(2) 0.53672(19)
H46 H 0.4354 -0.0679 0.4778
H47 H 0.3906 -0.0690 0.6006
C30 C 0.4242(3) -0.2240(2) 0.5439(2)
H48 H 0.3720 -0.2519 0.6038
H49 H 0.5149 -0.2525 0.5517
H50 H 0.4143 -0.2508 0.4807
loop_
_geom_bond_atom_site_label_1
_geom_bond_atom_site_label_2
_geom_bond_site_symmetry_1
_geom_bond_site_symmetry_2
O1 C7 1_555 1_555
O2 C7 1_555 1_555
O3 N2 1_555 1_555
O4 N2 1_555 1_555
N1 H1 1_555 1_555
H2 N1 1_555 1_555
N2 C4 1_555 1_555
C1 C2 1_555 1_555
C2 N1 1_555 1_555
C3 C2 1_555 1_555
H3 C3 1_555 1_555
C4 C3 1_555 1_555
C5 C4 1_555 1_555
H4 C5 1_555 1_555
C6 C1 1_555 1_555
H5 C6 1_555 1_555
C7 C1 1_555 1_555
O5 C14 1_555 1_555
O6 C14 1_555 1_555
O7 N4 1_555 1_555
O8 N4 1_555 1_555
N3 H6 1_555 1_555
H7 N3 1_555 1_555
N4 C11 1_555 1_555
C8 C9 1_555 1_555
C9 N3 1_555 1_555
C10 C9 1_555 1_555
H8 C10 1_555 1_555
C11 C10 1_555 1_555
C12 C11 1_555 1_555
H9 C12 1_555 1_555
C13 C8 1_555 1_555
H10 C13 1_555 1_555
C14 C8 1_555 1_555
N5 H11 1_555 1_555
H12 N5 1_555 1_555
C15 N5 1_555 1_555
H13 C15 1_555 1_555
H14 C15 1_555 1_555
C16 C15 1_555 1_555
H15 C16 1_555 1_555
H16 C16 1_555 1_555
C17 C16 1_555 1_555
H17 C17 1_555 1_555
H18 C17 1_555 1_555
C18 C17 1_555 1_555
H19 C18 1_555 1_555
H20 C18 1_555 1_555
H21 C18 1_555 1_555
C19 N5 1_555 1_555
H22 C19 1_555 1_555
H23 C19 1_555 1_555
C20 C19 1_555 1_555
H24 C20 1_555 1_555
H25 C20 1_555 1_555
C21 C20 1_555 1_555
H26 C21 1_555 1_555
H27 C21 1_555 1_555
C22 C21 1_555 1_555
H28 C22 1_555 1_555
H29 C22 1_555 1_555
H30 C22 1_555 1_555
N6 H31 1_555 1_555
H32 N6 1_555 1_555
C23 N6 1_555 1_555
H33 C23 1_555 1_555
H34 C23 1_555 1_555
C24 C23 1_555 1_555
H35 C24 1_555 1_555
H36 C24 1_555 1_555
C25 C24 1_555 1_555
H37 C25 1_555 1_555
H38 C25 1_555 1_555
C26 C25 1_555 1_555
H39 C26 1_555 1_555
H40 C26 1_555 1_555
H41 C26 1_555 1_555
C27 N6 1_555 1_555
H42 C27 1_555 1_555
H43 C27 1_555 1_555
C28 C27 1_555 1_555
H44 C28 1_555 1_555
H45 C28 1_555 1_555
C29 C28 1_555 1_555
H46 C29 1_555 1_555
H47 C29 1_555 1_555
C30 C29 1_555 1_555
H48 C30 1_555 1_555
H49 C30 1_555 1_555
H50 C30 1_555 1_555
C5 C6 1_555 1_555
C12 C13 1_555 1_555

#END
