
#######################################################################
#
#                 Cambridge Crystallographic Data Centre
#                                CCDC 
#
#######################################################################
#
# If this CIF has been generated from an entry in the Cambridge 
# Structural Database, then it will include bibliographic, chemical, 
# crystal, experimental, refinement or atomic coordinate data resulting 
# from the CCDC's data processing and validation procedures.
#
#######################################################################

data_EYUPUK
_chemical_formula_moiety         'C42 H38 N4'
_chemical_name_systematic        
4,4'-((2,3,5,6-Tetramethyl-1,4-phenylene)bis(methylene))bis(3,5-diphenyl-1H-pyrazole)
_symmetry_cell_setting           monoclinic
_symmetry_space_group_name_H-M   'P 21/c'
_symmetry_Int_Tables_number      14
_space_group_name_Hall           '-P 2ybc'
loop_
_symmetry_equiv_pos_site_id
_symmetry_equiv_pos_as_xyz
1 x,y,z
2 -x,1/2+y,1/2-z
3 -x,-y,-z
4 x,1/2-y,1/2+z
_cell_length_a                   13.643(3)
_cell_length_b                   13.343(3)
_cell_length_c                   9.3064(19)
_cell_angle_alpha                90
_cell_angle_beta                 103.65(3)
_cell_angle_gamma                90
_cell_volume                     1646.27
_exptl_crystal_colour            colorless
_exptl_crystal_description       block
_cell_formula_units_Z            2
loop_
_atom_site_label
_atom_site_type_symbol
_atom_site_fract_x
_atom_site_fract_y
_atom_site_fract_z
C1 C 0.41007(17) 0.09253(19) 0.9477(3)
H1 H 0.4429 0.0629 0.8816
C2 C 0.36386(18) 0.03316(18) 1.0342(3)
H2 H 0.3644 -0.0362 1.0252
C3 C 0.31710(16) 0.07734(17) 1.1333(3)
H3 H 0.2882 0.0378 1.1945
C4 C 0.40779(14) 0.19547(16) 0.9590(2)
H4 H 0.4406 0.2345 0.9020
C5 C 0.31301(14) 0.18037(15) 1.1424(2)
H5 H 0.2801 0.2093 1.2088
C6 C 0.35709(12) 0.24211(15) 1.0544(2)
C7 C 0.35245(12) 0.35205(14) 1.0626(2)
C8 C 0.27436(12) 0.41483(14) 1.0899(2)
C9 C 0.31143(13) 0.51174(14) 1.0872(2)
C10 C 0.27836(14) 0.61352(15) 1.1177(2)
C11 C 0.34362(19) 0.67312(18) 1.2201(3)
H6 H 0.4060 0.6476 1.2692
C12 C 0.3178(3) 0.7685(2) 1.2497(4)
H7 H 0.3624 0.8075 1.3182
C13 C 0.2258(3) 0.8065(2) 1.1780(4)
H8 H 0.2078 0.8711 1.1992
C14 C 0.1607(2) 0.75059(19) 1.0763(4)
H9 H 0.0984 0.7768 1.0284
C15 C 0.18729(16) 0.65424(16) 1.0439(3)
H10 H 0.1435 0.6168 0.9720
C16 C 0.04082(13) 0.43719(15) 0.9085(2)
C17 C 0.08420(12) 0.44097(14) 1.0601(2)
C18 C 0.08323(18) 0.36878(19) 0.8088(3)
H11 H 0.1425 0.3361 0.8654
H12 H 0.1004 0.4075 0.7313
H13 H 0.0337 0.3193 0.7665
C19 C -0.04346(14) 0.49709(16) 0.8476(2)
C20 C -0.0922(2) 0.4890(2) 0.6837(3)
H14 H -0.1620 0.5076 0.6663
H15 H -0.0871 0.4212 0.6515
H16 H -0.0584 0.5330 0.6295
C21 C 0.17729(13) 0.37811(15) 1.1234(3)
H17 H 0.1866 0.3750 1.2299
H18 H 0.1648 0.3104 1.0856
N1 N 0.42927(11) 0.40760(12) 1.04155(19)
H19 H 0.4841 0.3863 1.0216
N2 N 0.40379(12) 0.50318(12) 1.0577(2)
C1B C -0.41007(17) 0.90747(19) 1.0523(3)
H1B H -0.4429 0.9371 1.1184
C2B C -0.36386(18) 0.96684(18) 0.9658(3)
H2B H -0.3644 1.0362 0.9748
C3B C -0.31710(16) 0.92266(17) 0.8667(3)
H3B H -0.2882 0.9622 0.8055
C4B C -0.40779(14) 0.80453(16) 1.0410(2)
H4B H -0.4406 0.7655 1.0980
C5B C -0.31301(14) 0.81963(15) 0.8576(2)
H5B H -0.2801 0.7907 0.7912
C6B C -0.35709(12) 0.75789(15) 0.9456(2)
C7B C -0.35245(12) 0.64795(14) 0.9374(2)
C8B C -0.27436(12) 0.58517(14) 0.9101(2)
C9B C -0.31143(13) 0.48826(14) 0.9128(2)
C10B C -0.27836(14) 0.38648(15) 0.8823(2)
C11B C -0.34362(19) 0.32688(18) 0.7799(3)
H6B H -0.4060 0.3524 0.7308
C12B C -0.3178(3) 0.2315(2) 0.7503(4)
H7B H -0.3624 0.1925 0.6818
C13B C -0.2258(3) 0.1935(2) 0.8220(4)
H8B H -0.2078 0.1289 0.8008
C14B C -0.1607(2) 0.24941(19) 0.9237(4)
H9B H -0.0984 0.2232 0.9716
C15B C -0.18729(16) 0.34576(16) 0.9561(3)
H10B H -0.1435 0.3832 1.0280
C16B C -0.04082(13) 0.56281(15) 1.0915(2)
C17B C -0.08420(12) 0.55903(14) 0.9399(2)
C18B C -0.08323(18) 0.63122(19) 1.1912(3)
H11B H -0.1425 0.6639 1.1346
H12B H -0.1004 0.5925 1.2687
H13B H -0.0337 0.6807 1.2335
C19B C 0.04346(14) 0.50291(16) 1.1524(2)
C20B C 0.0922(2) 0.5110(2) 1.3163(3)
H14B H 0.1620 0.4924 1.3337
H15B H 0.0871 0.5788 1.3485
H16B H 0.0584 0.4670 1.3705
C21B C -0.17729(13) 0.62189(15) 0.8766(3)
H17B H -0.1866 0.6250 0.7701
H18B H -0.1648 0.6896 0.9144
N1B N -0.42927(11) 0.59240(12) 0.95845(19)
H19B H -0.4841 0.6137 0.9784
N2B N -0.40379(12) 0.49682(12) 0.9423(2)
loop_
_geom_bond_atom_site_label_1
_geom_bond_atom_site_label_2
_geom_bond_site_symmetry_1
_geom_bond_site_symmetry_2
C1 H1 1_555 1_555
C2 C1 1_555 1_555
H2 C2 1_555 1_555
C3 C2 1_555 1_555
H3 C3 1_555 1_555
C4 C1 1_555 1_555
H4 C4 1_555 1_555
C5 C3 1_555 1_555
H5 C5 1_555 1_555
C6 C4 1_555 1_555
C7 C6 1_555 1_555
C8 C7 1_555 1_555
C9 C8 1_555 1_555
C10 C9 1_555 1_555
C11 C10 1_555 1_555
H6 C11 1_555 1_555
C12 C11 1_555 1_555
H7 C12 1_555 1_555
C13 C12 1_555 1_555
H8 C13 1_555 1_555
C14 C13 1_555 1_555
H9 C14 1_555 1_555
C15 C10 1_555 1_555
H10 C15 1_555 1_555
C16 C17 1_555 1_555
C17 C21 1_555 1_555
C18 C16 1_555 1_555
H11 C18 1_555 1_555
H12 C18 1_555 1_555
H13 C18 1_555 1_555
C19 C16 1_555 1_555
C20 C19 1_555 1_555
H14 C20 1_555 1_555
H15 C20 1_555 1_555
H16 C20 1_555 1_555
C21 C8 1_555 1_555
H17 C21 1_555 1_555
H18 C21 1_555 1_555
N1 C7 1_555 1_555
H19 N1 1_555 1_555
N2 C9 1_555 1_555
C1B H1B 1_555 1_555
C2B C1B 1_555 1_555
H2B C2B 1_555 1_555
C3B C2B 1_555 1_555
H3B C3B 1_555 1_555
C4B C1B 1_555 1_555
H4B C4B 1_555 1_555
C5B C3B 1_555 1_555
H5B C5B 1_555 1_555
C6B C4B 1_555 1_555
C7B C6B 1_555 1_555
C8B C7B 1_555 1_555
C9B C8B 1_555 1_555
C10B C9B 1_555 1_555
C11B C10B 1_555 1_555
H6B C11B 1_555 1_555
C12B C11B 1_555 1_555
H7B C12B 1_555 1_555
C13B C12B 1_555 1_555
H8B C13B 1_555 1_555
C14B C13B 1_555 1_555
H9B C14B 1_555 1_555
C15B C10B 1_555 1_555
H10B C15B 1_555 1_555
C16B C17B 1_555 1_555
C17B C19 1_555 1_555
C18B C16B 1_555 1_555
H11B C18B 1_555 1_555
H12B C18B 1_555 1_555
H13B C18B 1_555 1_555
C19B C17 1_555 1_555
C20B C19B 1_555 1_555
H14B C20B 1_555 1_555
H15B C20B 1_555 1_555
H16B C20B 1_555 1_555
C21B C8B 1_555 1_555
H17B C21B 1_555 1_555
H18B C21B 1_555 1_555
N1B C7B 1_555 1_555
H19B N1B 1_555 1_555
N2B C9B 1_555 1_555
C5 C6 1_555 1_555
C14 C15 1_555 1_555
N1 N2 1_555 1_555
C5B C6B 1_555 1_555
C14B C15B 1_555 1_555
C16B C19B 1_555 1_555
C17B C21B 1_555 1_555
N1B N2B 1_555 1_555

#END
