
#######################################################################
#
#                 Cambridge Crystallographic Data Centre
#                                CCDC 
#
#######################################################################
#
# If this CIF has been generated from an entry in the Cambridge 
# Structural Database, then it will include bibliographic, chemical, 
# crystal, experimental, refinement or atomic coordinate data resulting 
# from the CCDC's data processing and validation procedures.
#
#######################################################################

data_EYUQOF
_chemical_formula_moiety         'C22 H30 N4,2(C1 H4 O1)'
_chemical_name_systematic        
"4,4'-((2,3,5,6-Tetramethyl-1,4-phenylene)bis(methylene))bis(3,5-dimethyl-1H-pyrazole) methanol solvate"
_symmetry_cell_setting           monoclinic
_symmetry_space_group_name_H-M   'P 21/c'
_symmetry_Int_Tables_number      14
_space_group_name_Hall           '-P 2ybc'
loop_
_symmetry_equiv_pos_site_id
_symmetry_equiv_pos_as_xyz
1 x,y,z
2 -x,1/2+y,1/2-z
3 -x,-y,-z
4 x,1/2-y,1/2+z
_cell_length_a                   15.825(3)
_cell_length_b                   5.2397(10)
_cell_length_c                   15.519(3)
_cell_angle_alpha                90
_cell_angle_beta                 108.97(3)
_cell_angle_gamma                90
_cell_volume                     1216.92
_cell_formula_units_Z            2
loop_
_atom_site_label
_atom_site_type_symbol
_atom_site_fract_x
_atom_site_fract_y
_atom_site_fract_z
C1 C 0.3495(8) 0.499(3) 0.6652(10)
H1 H 0.3367 0.3304 0.6406
H2 H 0.3153 0.5326 0.7050
H3 H 0.4121 0.5133 0.6990
C2 C 0.3254(7) 0.6895(15) 0.5893(7)
C3 C 0.2389(6) 0.763(2) 0.5285(7)
C4 C 0.2561(7) 0.942(2) 0.4699(6)
C5 C 0.1972(9) 1.085(3) 0.3892(9)
H4 H 0.2156 1.2606 0.3932
H5 H 0.1363 1.0755 0.3884
H6 H 0.2018 1.0115 0.3343
C6 C 0.1495(8) 0.649(2) 0.5322(8)
H7 H 0.1326 0.5088 0.4893
H8 H 0.1595 0.5792 0.5926
C7 C 0.0078(8) 0.652(3) 0.3544(8)
H9 H 0.0695 0.6215 0.3613
H10 H -0.0213 0.7286 0.2961
H11 H -0.0208 0.4929 0.3585
C8 C 0.0016(5) 0.8308(18) 0.4297(4)
C9 C 0.0716(7) 0.8353(19) 0.5113(7)
C10 C 0.0715(5) 1.001(2) 0.5813(7)
C11 C 0.1489(8) 1.007(3) 0.6741(8)
H12 H 0.1560 0.8405 0.7014
H13 H 0.1350 1.1279 0.7140
H14 H 0.2034 1.0561 0.6641
N1 N 0.3453(5) 0.977(2) 0.4961(6)
N2 N 0.3869(5) 0.826(2) 0.5670(7)
H18 H 0.4437 0.8180 0.5938
C1B C -0.3495(8) 1.501(3) 0.3348(10)
H1B H -0.3367 1.6696 0.3594
H2B H -0.3153 1.4674 0.2950
H3B H -0.4121 1.4867 0.3010
C2B C -0.3254(7) 1.3105(15) 0.4107(7)
C3B C -0.2389(6) 1.237(2) 0.4715(7)
C4B C -0.2561(7) 1.058(2) 0.5301(6)
C5B C -0.1972(9) 0.915(3) 0.6108(9)
H4B H -0.2156 0.7394 0.6068
H5B H -0.1363 0.9245 0.6116
H6B H -0.2018 0.9885 0.6657
C6B C -0.1495(8) 1.351(2) 0.4678(8)
H7B H -0.1326 1.4912 0.5107
H8B H -0.1595 1.4208 0.4074
C7B C -0.0078(8) 1.348(3) 0.6456(8)
H9B H -0.0695 1.3785 0.6387
H10B H 0.0213 1.2714 0.7039
H11B H 0.0208 1.5071 0.6415
C8B C -0.0016(5) 1.1692(18) 0.5703(4)
C9B C -0.0716(7) 1.1647(19) 0.4887(7)
C10B C -0.0715(5) 0.999(2) 0.4187(7)
C11B C -0.1489(8) 0.993(3) 0.3259(8)
H12B H -0.1560 1.1595 0.2986
H13B H -0.1350 0.8721 0.2860
H14B H -0.2034 0.9439 0.3359
N1B N -0.3453(5) 1.023(2) 0.5039(6)
N2B N -0.3869(5) 1.174(2) 0.4330(7)
H18B H -0.4437 1.1820 0.4062
C12 C 0.5932(10) 0.503(3) 0.6379(12)
H15 H 0.5868 0.4755 0.6966
H16 H 0.6541 0.4733 0.6415
H17 H 0.5548 0.3883 0.5944
O1 O 0.5697(6) 0.756(2) 0.6103(7)
H19 H 0.5747 0.7794 0.5599
loop_
_geom_bond_atom_site_label_1
_geom_bond_atom_site_label_2
_geom_bond_site_symmetry_1
_geom_bond_site_symmetry_2
C1 H1 1_555 1_555
H2 C1 1_555 1_555
H3 C1 1_555 1_555
C2 C1 1_555 1_555
C3 C2 1_555 1_555
C4 C3 1_555 1_555
C5 C4 1_555 1_555
H4 C5 1_555 1_555
H5 C5 1_555 1_555
H6 C5 1_555 1_555
C6 C3 1_555 1_555
H7 C6 1_555 1_555
H8 C6 1_555 1_555
C7 H9 1_555 1_555
H10 C7 1_555 1_555
H11 C7 1_555 1_555
C8 C7 1_555 1_555
C9 C6 1_555 1_555
C10 C9 1_555 1_555
C11 C10 1_555 1_555
H12 C11 1_555 1_555
H13 C11 1_555 1_555
H14 C11 1_555 1_555
C12 H15 1_555 1_555
H16 C12 1_555 1_555
H17 C12 1_555 1_555
N1 C4 1_555 1_555
N2 C2 1_555 1_555
H18 N2 1_555 1_555
O1 C12 1_555 1_555
H19 O1 1_555 1_555
C1B H1B 1_555 1_555
H2B C1B 1_555 1_555
H3B C1B 1_555 1_555
C2B C1B 1_555 1_555
C3B C2B 1_555 1_555
C4B C3B 1_555 1_555
C5B C4B 1_555 1_555
H4B C5B 1_555 1_555
H5B C5B 1_555 1_555
H6B C5B 1_555 1_555
C6B C3B 1_555 1_555
H7B C6B 1_555 1_555
H8B C6B 1_555 1_555
C7B H9B 1_555 1_555
H10B C7B 1_555 1_555
H11B C7B 1_555 1_555
C8B C10 1_555 1_555
C9B C6B 1_555 1_555
C10B C8 1_555 1_555
C11B C10B 1_555 1_555
H12B C11B 1_555 1_555
H13B C11B 1_555 1_555
H14B C11B 1_555 1_555
N1B C4B 1_555 1_555
N2B C2B 1_555 1_555
H18B N2B 1_555 1_555
C8 C9 1_555 1_555
N1 N2 1_555 1_555
C7B C8B 1_555 1_555
C8B C9B 1_555 1_555
C9B C10B 1_555 1_555
N1B N2B 1_555 1_555

#END
