
#######################################################################
#
#                 Cambridge Crystallographic Data Centre
#                                CCDC 
#
#######################################################################
#
# If this CIF has been generated from an entry in the Cambridge 
# Structural Database, then it will include bibliographic, chemical, 
# crystal, experimental, refinement or atomic coordinate data resulting 
# from the CCDC's data processing and validation procedures.
#
#######################################################################

data_EYUVUP
_chemical_formula_moiety         'C14 H17 N5 O2'
_chemical_name_systematic        
'1-Phenyl-3-methyl-4-propionyl-5-pyrazolone semicarbazone'
_symmetry_cell_setting           monoclinic
_symmetry_space_group_name_H-M   'C 2/c'
_symmetry_Int_Tables_number      15
_space_group_name_Hall           '-C 2yn'
loop_
_symmetry_equiv_pos_site_id
_symmetry_equiv_pos_as_xyz
1 x,y,z
2 -x,y,1/2-z
3 1/2+x,1/2+y,z
4 1/2-x,1/2+y,1/2-z
5 -x,-y,-z
6 x,-y,1/2+z
7 1/2-x,1/2-y,-z
8 1/2+x,1/2-y,1/2+z
_cell_length_a                   23.590(3)
_cell_length_b                   9.456(1)
_cell_length_c                   13.319(3)
_cell_angle_alpha                90
_cell_angle_beta                 101.65(2)
_cell_angle_gamma                90
_cell_volume                     2909.82
_chemical_melting_point          '227-229 deg.C'
_cell_formula_units_Z            8
loop_
_atom_site_label
_atom_site_type_symbol
_atom_site_fract_x
_atom_site_fract_y
_atom_site_fract_z
O1 O 0.2262(1) 0.0371(1) 0.4868(1)
O2 O -0.0094(1) -0.0605(1) 0.3756(1)
N1 N 0.3079(1) -0.0690(1) 0.5873(1)
N2 N 0.3192(1) -0.1806(1) 0.6580(1)
N3 N 0.1313(1) -0.0861(1) 0.5190(1)
N4 N 0.0710(1) -0.0883(2) 0.4967(1)
N5 N 0.0726(1) -0.1260(2) 0.3257(1)
C1 C 0.4105(1) -0.0174(2) 0.6190(1)
C2 C 0.4566(1) 0.0588(2) 0.5968(2)
C3 C 0.4483(1) 0.1618(2) 0.5241(2)
C4 C 0.3935(1) 0.1899(2) 0.4728(2)
C5 C 0.3464(1) 0.1163(2) 0.4924(2)
C6 C 0.3550(1) 0.0108(2) 0.5658(1)
C7 C 0.2494(1) -0.0533(2) 0.5503(1)
C8 C 0.2225(1) -0.1601(2) 0.6016(1)
C9 C 0.2693(1) -0.2332(2) 0.6665(1)
C10 C 0.2682(1) -0.3541(2) 0.7377(1)
C11 C 0.1625(1) -0.1757(2) 0.5854(1)
C12 C 0.1317(1) -0.2765(2) 0.6412(1)
C13 C 0.1163(1) -0.2063(2) 0.7348(2)
C14 C 0.0430(1) -0.0902(2) 0.3961(1)
loop_
_geom_bond_atom_site_label_1
_geom_bond_atom_site_label_2
_geom_bond_site_symmetry_1
_geom_bond_site_symmetry_2
O1 C7 1_555 1_555
O2 C14 1_555 1_555
N1 N2 1_555 1_555
N2 C9 1_555 1_555
N3 N4 1_555 1_555
N4 C14 1_555 1_555
N5 C14 1_555 1_555
C1 C2 1_555 1_555
C2 C3 1_555 1_555
C3 C4 1_555 1_555
C4 C5 1_555 1_555
C5 C6 1_555 1_555
C6 N1 1_555 1_555
C7 N1 1_555 1_555
C8 C7 1_555 1_555
C9 C8 1_555 1_555
C10 C9 1_555 1_555
C11 N3 1_555 1_555
C12 C11 1_555 1_555
C13 C12 1_555 1_555
C1 C6 1_555 1_555
C8 C11 1_555 1_555

#END
