
#######################################################################
#
#                 Cambridge Crystallographic Data Centre
#                                CCDC 
#
#######################################################################
#
# If this CIF has been generated from an entry in the Cambridge 
# Structural Database, then it will include bibliographic, chemical, 
# crystal, experimental, refinement or atomic coordinate data resulting 
# from the CCDC's data processing and validation procedures.
#
#######################################################################

data_EYUYUU
_chemical_formula_moiety         'C28 H26 N2 O3'
_chemical_name_systematic        
1'-ethyl-1-(1-ethyl-2-oxo-2,3-dihydro-1H-indol-3-yl)-3-hydroxy-1,3-dihydrospiro[indene-2,3'-indol]-2'(1'H)-one
_symmetry_cell_setting           monoclinic
_symmetry_space_group_name_H-M   'P 21/n'
_symmetry_Int_Tables_number      14
_space_group_name_Hall           '-P 2yn'
loop_
_symmetry_equiv_pos_site_id
_symmetry_equiv_pos_as_xyz
1 x,y,z
2 1/2-x,1/2+y,1/2-z
3 -x,-y,-z
4 1/2+x,1/2-y,1/2+z
_cell_length_a                   8.5370(12)
_cell_length_b                   28.755(4)
_cell_length_c                   8.9218(12)
_cell_angle_alpha                90
_cell_angle_beta                 99.532(2)
_cell_angle_gamma                90
_cell_volume                     2159.9
_exptl_crystal_colour            colorless
_exptl_crystal_description       block
_cell_formula_units_Z            4
loop_
_atom_site_label
_atom_site_type_symbol
_atom_site_fract_x
_atom_site_fract_y
_atom_site_fract_z
O1 O 0.51783(19) 0.05686(6) 1.14128(17)
O2 O 0.63337(18) 0.01688(5) 0.75149(18)
H1 H 0.5938 -0.0089 0.7689
O3 O 0.76206(19) 0.20290(6) 0.75517(17)
N1 N 0.7878(2) 0.05058(7) 1.1450(2)
N2 N 0.8883(2) 0.20700(6) 1.0036(2)
C1 C 0.8798(3) 0.19142(8) 1.4177(3)
H2 H 0.9399 0.1962 1.5160
C2 C 0.7289(3) 0.17238(8) 1.4038(2)
H3 H 0.6875 0.1641 1.4927
C3 C 0.6365(3) 0.16516(8) 1.2602(2)
H4 H 0.5329 0.1522 1.2508
C4 C 0.7001(2) 0.17741(7) 1.1328(2)
C5 C 0.6279(2) 0.17705(7) 0.9667(2)
H5 H 0.5443 0.2018 0.9535
C6 C 0.5441(2) 0.13176(7) 0.9070(2)
H6 H 0.4545 0.1278 0.9652
C7 C 0.6398(2) 0.08536(7) 0.9284(2)
C8 C 0.6378(3) 0.06329(7) 1.0841(2)
C9 C 0.8293(3) 0.02610(8) 1.2894(3)
H7 H 0.9122 0.0027 1.2798
H8 H 0.7345 0.0093 1.3113
C10 C 0.8891(4) 0.05783(10) 1.4210(3)
H9 H 0.9855 0.0737 1.4021
H10 H 0.9132 0.0395 1.5145
H11 H 0.8074 0.0809 1.4320
C11 C 1.1789(3) 0.19774(9) 1.0032(3)
H12 H 1.1858 0.1822 1.1018
H13 H 1.2752 0.2161 1.0016
H14 H 1.1685 0.1743 0.9223
C12 C 1.0349(3) 0.22957(8) 0.9782(3)
H15 H 1.0559 0.2566 1.0475
H16 H 1.0199 0.2415 0.8727
C13 C 0.8524(3) 0.19628(7) 1.1479(2)
C14 C 0.9452(3) 0.20380(8) 1.2886(3)
H17 H 1.0487 0.2168 1.2975
C15 C 0.4686(2) 0.13122(7) 0.7407(2)
C16 C 0.3933(3) 0.16706(8) 0.6528(2)
H18 H 0.3871 0.1973 0.6940
C17 C 0.3267(3) 0.15756(9) 0.5020(3)
H19 H 0.2756 0.1818 0.4398
C18 C 0.3341(3) 0.11308(9) 0.4418(2)
H20 H 0.2887 0.1073 0.3389
C19 C 0.4075(3) 0.07703(8) 0.5311(2)
H21 H 0.4126 0.0466 0.4908
C20 C 0.4732(2) 0.08684(8) 0.6814(2)
C21 C 0.5435(2) 0.05297(7) 0.8025(2)
H22 H 0.4543 0.0385 0.8460
C22 C 0.8960(3) 0.06388(8) 1.0491(2)
C23 C 1.0580(3) 0.05566(9) 1.0707(3)
H23 H 1.1117 0.0410 1.1601
C24 C 1.1386(3) 0.06991(9) 0.9543(3)
H24 H 1.2500 0.0651 0.9655
C25 C 1.0603(3) 0.09080(8) 0.8234(3)
H25 H 1.1182 0.0998 0.7459
C26 C 0.8964(3) 0.09882(8) 0.8042(3)
H26 H 0.8423 0.1129 0.7140
C27 C 0.8146(2) 0.08574(7) 0.9193(2)
C28 C 0.7645(2) 0.19571(7) 0.8908(2)
loop_
_geom_bond_atom_site_label_1
_geom_bond_atom_site_label_2
_geom_bond_site_symmetry_1
_geom_bond_site_symmetry_2
O1 C8 1_555 1_555
O2 H1 1_555 1_555
O3 C28 1_555 1_555
N1 C8 1_555 1_555
N2 C12 1_555 1_555
C1 H2 1_555 1_555
C2 C1 1_555 1_555
H3 C2 1_555 1_555
C3 C2 1_555 1_555
H4 C3 1_555 1_555
C4 C3 1_555 1_555
C5 C4 1_555 1_555
H5 C5 1_555 1_555
C6 C5 1_555 1_555
H6 C6 1_555 1_555
C7 C6 1_555 1_555
C8 C7 1_555 1_555
C9 N1 1_555 1_555
H7 C9 1_555 1_555
H8 C9 1_555 1_555
C10 C9 1_555 1_555
H9 C10 1_555 1_555
H10 C10 1_555 1_555
H11 C10 1_555 1_555
C11 H12 1_555 1_555
H13 C11 1_555 1_555
H14 C11 1_555 1_555
C12 C11 1_555 1_555
H15 C12 1_555 1_555
H16 C12 1_555 1_555
C13 N2 1_555 1_555
C14 C1 1_555 1_555
H17 C14 1_555 1_555
C15 C6 1_555 1_555
C16 C15 1_555 1_555
H18 C16 1_555 1_555
C17 C16 1_555 1_555
H19 C17 1_555 1_555
C18 C17 1_555 1_555
H20 C18 1_555 1_555
C19 C18 1_555 1_555
H21 C19 1_555 1_555
C20 C15 1_555 1_555
C21 O2 1_555 1_555
H22 C21 1_555 1_555
C22 N1 1_555 1_555
C23 C22 1_555 1_555
H23 C23 1_555 1_555
C24 C23 1_555 1_555
H24 C24 1_555 1_555
C25 C24 1_555 1_555
H25 C25 1_555 1_555
C26 C25 1_555 1_555
H26 C26 1_555 1_555
C27 C7 1_555 1_555
C28 N2 1_555 1_555
C4 C13 1_555 1_555
C5 C28 1_555 1_555
C7 C21 1_555 1_555
C13 C14 1_555 1_555
C19 C20 1_555 1_555
C20 C21 1_555 1_555
C22 C27 1_555 1_555
C26 C27 1_555 1_555

#END
