
#######################################################################
#
#                 Cambridge Crystallographic Data Centre
#                                CCDC 
#
#######################################################################
#
# If this CIF has been generated from an entry in the Cambridge 
# Structural Database, then it will include bibliographic, chemical, 
# crystal, experimental, refinement or atomic coordinate data resulting 
# from the CCDC's data processing and validation procedures.
#
#######################################################################

data_EYUZAB
_chemical_formula_moiety         'C31 H31 N3 O3 S1'
_chemical_name_systematic        
"1-hydroxy-1'-methyl-3-(1-methyl-2-oxo-3-(thiomorpholin-4-ylmethyl)-2,3-dihydro-1H-indol-3-yl)-1,3-dihydrospiro[indene-2,3'-indol]-2'(1'H)-one unknown solvate"
_symmetry_cell_setting           triclinic
_symmetry_space_group_name_H-M   'P -1'
_symmetry_Int_Tables_number      2
_space_group_name_Hall           '-P 1'
loop_
_symmetry_equiv_pos_site_id
_symmetry_equiv_pos_as_xyz
1 x,y,z
2 -x,-y,-z
_cell_length_a                   10.0500(7)
_cell_length_b                   11.5766(8)
_cell_length_c                   12.6000(9)
_cell_angle_alpha                98.7510(10)
_cell_angle_beta                 98.7420(10)
_cell_angle_gamma                99.6150(10)
_cell_volume                     1404.66
_exptl_crystal_colour            colorless
_exptl_crystal_description       block
_cell_formula_units_Z            2
loop_
_atom_site_label
_atom_site_type_symbol
_atom_site_fract_x
_atom_site_fract_y
_atom_site_fract_z
S1 S 1.01820(3) 0.36332(3) 0.36309(2)
O1 O 0.87960(8) 0.76116(7) 0.19098(7)
O2 O 0.25410(8) 0.63689(7) 0.12009(7)
O3 O 0.39903(10) 0.90761(8) 0.00019(7)
H1 H 0.3185 0.9060 0.0113
N1 N 0.79764(9) 0.49130(8) 0.24471(7)
N2 N 0.79124(9) 0.77150(8) 0.34903(7)
N3 N 0.33726(9) 0.80987(8) 0.24737(8)
C1 C 0.61754(12) 1.07136(10) 0.36796(9)
H2 H 0.6444 1.1381 0.4260
C2 C 0.49081(12) 0.99548(10) 0.35843(9)
H3 H 0.4305 1.0101 0.4079
C3 C 0.45694(11) 0.89812(9) 0.27375(8)
C4 C 0.54445(10) 0.87567(9) 0.19985(8)
C5 C 0.47502(10) 0.76512(9) 0.11750(8)
C6 C 0.56090(10) 0.66630(9) 0.09495(8)
H4 H 0.4922 0.5911 0.0643
C7 C 0.65351(10) 0.63879(9) 0.19525(8)
C8 C 0.58703(10) 0.63962(9) 0.29569(8)
C9 C 0.46561(11) 0.57383(10) 0.31193(9)
H5 H 0.4070 0.5179 0.2536
C10 C 0.43095(12) 0.59139(11) 0.41607(10)
H6 H 0.3472 0.5481 0.4281
C11 C 0.51799(13) 0.67162(11) 0.50202(10)
H7 H 0.4927 0.6824 0.5720
C12 C 1.04415(12) 0.49085(10) 0.29582(10)
H8 H 1.0539 0.5647 0.3499
H9 H 1.1303 0.4939 0.2664
C13 C 0.92540(11) 0.48531(10) 0.20317(9)
H10 H 0.9469 0.5525 0.1645
H11 H 0.9133 0.4102 0.1502
C14 C 0.69040(11) 0.51459(9) 0.16235(8)
H12 H 0.6071 0.4520 0.1527
H13 H 0.7223 0.5106 0.0916
C15 C 0.67353(11) 0.71863(9) 0.38342(8)
C16 C 0.78792(10) 0.73096(9) 0.24070(8)
C17 C 0.90391(12) 0.85726(11) 0.41933(9)
H14 H 0.9707 0.8864 0.3756
H15 H 0.9486 0.8190 0.4753
H16 H 0.8686 0.9243 0.4545
C18 C 0.64202(12) 0.73668(10) 0.48736(9)
H17 H 0.7022 0.7909 0.5460
C19 C 0.22283(12) 0.80640(11) 0.30501(10)
H18 H 0.1430 0.7497 0.2608
H19 H 0.2002 0.8859 0.3182
H20 H 0.2478 0.7812 0.3750
C20 C 0.34272(10) 0.72503(9) 0.16003(8)
C21 C 0.70513(12) 1.05162(9) 0.29461(9)
H21 H 0.7904 1.1048 0.3027
C22 C 0.66790(11) 0.95320(9) 0.20847(9)
H22 H 0.7264 0.9401 0.1571
C23 C 0.43169(11) 0.79415(9) 0.00093(8)
H23 H 0.3495 0.7331 -0.0381
C24 C 0.55099(11) 0.77408(9) -0.05309(8)
C25 C 0.62598(11) 0.70059(9) -0.00131(8)
C26 C 0.73753(12) 0.66822(10) -0.04411(9)
H24 H 0.7890 0.6168 -0.0116
C27 C 0.77233(14) 0.71256(12) -0.13537(10)
H25 H 0.8492 0.6919 -0.1639
C28 C 0.69658(14) 0.78652(11) -0.18549(10)
H26 H 0.7220 0.8157 -0.2475
C29 C 0.58412(13) 0.81741(10) -0.14476(9)
H27 H 0.5311 0.8669 -0.1786
C30 C 0.75079(11) 0.38696(10) 0.29187(9)
H28 H 0.7411 0.3137 0.2371
H29 H 0.6596 0.3908 0.3113
C31 C 0.85169(12) 0.38159(10) 0.39329(9)
H30 H 0.8139 0.3142 0.4267
H31 H 0.8626 0.4559 0.4471
loop_
_geom_bond_atom_site_label_1
_geom_bond_atom_site_label_2
_geom_bond_site_symmetry_1
_geom_bond_site_symmetry_2
S1 C12 1_555 1_555
O1 C16 1_555 1_555
O2 C20 1_555 1_555
O3 H1 1_555 1_555
N1 C13 1_555 1_555
N2 C15 1_555 1_555
N3 C3 1_555 1_555
C1 H2 1_555 1_555
C2 C1 1_555 1_555
H3 C2 1_555 1_555
C3 C2 1_555 1_555
C4 C3 1_555 1_555
C5 C4 1_555 1_555
C6 C5 1_555 1_555
H4 C6 1_555 1_555
C7 C6 1_555 1_555
C8 C7 1_555 1_555
C9 C8 1_555 1_555
H5 C9 1_555 1_555
C10 C9 1_555 1_555
H6 C10 1_555 1_555
C11 C10 1_555 1_555
H7 C11 1_555 1_555
C12 H8 1_555 1_555
H9 C12 1_555 1_555
C13 C12 1_555 1_555
H10 C13 1_555 1_555
H11 C13 1_555 1_555
C14 N1 1_555 1_555
H12 C14 1_555 1_555
H13 C14 1_555 1_555
C15 C8 1_555 1_555
C16 N2 1_555 1_555
C17 N2 1_555 1_555
H14 C17 1_555 1_555
H15 C17 1_555 1_555
H16 C17 1_555 1_555
C18 C11 1_555 1_555
H17 C18 1_555 1_555
C19 N3 1_555 1_555
H18 C19 1_555 1_555
H19 C19 1_555 1_555
H20 C19 1_555 1_555
C20 N3 1_555 1_555
C21 C1 1_555 1_555
H21 C21 1_555 1_555
C22 C4 1_555 1_555
H22 C22 1_555 1_555
C23 O3 1_555 1_555
H23 C23 1_555 1_555
C24 C23 1_555 1_555
C25 C6 1_555 1_555
C26 C25 1_555 1_555
H24 C26 1_555 1_555
C27 C26 1_555 1_555
H25 C27 1_555 1_555
C28 C27 1_555 1_555
H26 C28 1_555 1_555
C29 C24 1_555 1_555
H27 C29 1_555 1_555
C30 N1 1_555 1_555
H28 C30 1_555 1_555
H29 C30 1_555 1_555
C31 S1 1_555 1_555
H30 C31 1_555 1_555
H31 C31 1_555 1_555
C5 C20 1_555 1_555
C5 C23 1_555 1_555
C7 C14 1_555 1_555
C7 C16 1_555 1_555
C15 C18 1_555 1_555
C21 C22 1_555 1_555
C24 C25 1_555 1_555
C28 C29 1_555 1_555
C30 C31 1_555 1_555

#END
