
#######################################################################
#
#                 Cambridge Crystallographic Data Centre
#                                CCDC 
#
#######################################################################
#
# If this CIF has been generated from an entry in the Cambridge 
# Structural Database, then it will include bibliographic, chemical, 
# crystal, experimental, refinement or atomic coordinate data resulting 
# from the CCDC's data processing and validation procedures.
#
#######################################################################

data_EZAHUJ
_chemical_formula_moiety         'C27 H24 O6 S3'
_chemical_name_systematic        
1,3,5-tris(3-(ethoxycarbonyl)-2-thienyl)benzene
_symmetry_cell_setting           triclinic
_symmetry_space_group_name_H-M   'P -1'
_symmetry_Int_Tables_number      2
_space_group_name_Hall           '-P 1'
loop_
_symmetry_equiv_pos_site_id
_symmetry_equiv_pos_as_xyz
1 x,y,z
2 -x,-y,-z
_cell_length_a                   8.3376(2)
_cell_length_b                   10.1962(2)
_cell_length_c                   16.0046(3)
_cell_angle_alpha                77.9130(10)
_cell_angle_beta                 85.2290(10)
_cell_angle_gamma                89.6510(10)
_cell_volume                     1325.72
_cell_formula_units_Z            2
loop_
_atom_site_label
_atom_site_type_symbol
_atom_site_fract_x
_atom_site_fract_y
_atom_site_fract_z
S1 S 0.43772(12) -0.22807(8) 0.96108(5)
S2 S 0.25476(11) 0.16031(8) 0.51175(5)
S3 S 0.08327(9) -0.35269(8) 0.60797(5)
O1 O 0.0988(3) 0.1131(3) 0.84425(16)
O2 O 0.1471(4) 0.1783(3) 0.9631(2)
O3 O 0.7247(4) 0.3276(3) 0.6195(2)
O4 O 0.6970(3) 0.1054(2) 0.65995(17)
O5 O 0.4367(3) -0.6631(2) 0.77956(16)
O6 O 0.5259(3) -0.4522(2) 0.75299(16)
C1 C 0.3315(3) -0.1101(2) 0.80492(16)
C2 C 0.3671(3) 0.0041(2) 0.74104(16)
H1 H 0.3926 0.0843 0.7561
C3 C 0.3646(3) -0.0011(2) 0.65495(16)
C4 C 0.3254(3) -0.1220(2) 0.63288(16)
H2 H 0.3221 -0.1254 0.5754
C5 C 0.2912(3) -0.2371(2) 0.69553(16)
C6 C 0.2943(3) -0.2302(3) 0.78143(17)
H3 H 0.2712 -0.3067 0.8238
C7 C 0.3317(4) -0.1071(3) 0.89690(17)
C8 C 0.2634(4) -0.0201(3) 0.94405(17)
C9 C 0.2976(4) -0.0543(3) 1.03173(19)
H4 H 0.2599 -0.0058 1.0724
C10 C 0.3895(5) -0.1633(3) 1.04975(19)
H5 H 0.4228 -0.1990 1.1038
C11 C 0.1605(4) 0.0940(3) 0.9099(2)
C12 C 0.0537(8) 0.2992(5) 0.9378(5)
H6 H 0.0250 0.3074 0.8794
H7 H -0.0447 0.2952 0.9752
C13 C 0.1501(8) 0.4118(6) 0.9439(4)
H8 H 0.0911 0.4929 0.9271
H9 H 0.2471 0.4148 0.9068
H10 H 0.1768 0.4033 1.0020
C14 C 0.3924(3) 0.1212(2) 0.58725(16)
C15 C 0.5084(4) 0.2214(2) 0.57352(17)
C16 C 0.4823(4) 0.3258(3) 0.5020(2)
H11 H 0.5500 0.4003 0.4839
C17 C 0.3512(5) 0.3066(3) 0.4631(2)
H12 H 0.3169 0.3657 0.4156
C18 C 0.6527(4) 0.2258(3) 0.6197(2)
C19 C 0.8397(5) 0.0978(5) 0.7065(3)
H13 H 0.9264 0.1509 0.6713
H14 H 0.8175 0.1323 0.7583
C20 C 0.8843(8) -0.0386(7) 0.7275(6)
H15 H 0.9790 -0.0466 0.7583
H16 H 0.9060 -0.0717 0.6758
H17 H 0.7980 -0.0900 0.7625
C21 C 0.2389(3) -0.3628(2) 0.67269(16)
C22 C 0.2849(3) -0.4941(2) 0.69795(17)
C23 C 0.1879(4) -0.5844(3) 0.6656(2)
H18 H 0.2009 -0.6769 0.6776
C24 C 0.0771(4) -0.5226(3) 0.6166(2)
H19 H 0.0051 -0.5665 0.5902
C25 C 0.4205(4) -0.5462(3) 0.74777(19)
C26 C 0.6659(6) -0.4953(5) 0.8005(4)
H20 H 0.6311 -0.5385 0.8591
H21 H 0.7270 -0.5594 0.7741
C27 C 0.7621(7) -0.3836(7) 0.7999(4)
H22 H 0.8539 -0.4112 0.8314
H23 H 0.7010 -0.3205 0.8260
H24 H 0.7976 -0.3422 0.7418
loop_
_geom_bond_atom_site_label_1
_geom_bond_atom_site_label_2
_geom_bond_site_symmetry_1
_geom_bond_site_symmetry_2
S1 C7 1_555 1_555
S2 C14 1_555 1_555
S3 C21 1_555 1_555
O1 C11 1_555 1_555
O2 C11 1_555 1_555
O3 C18 1_555 1_555
O4 C18 1_555 1_555
O5 C25 1_555 1_555
O6 C25 1_555 1_555
C1 C2 1_555 1_555
C2 H1 1_555 1_555
C3 C2 1_555 1_555
C4 C3 1_555 1_555
H2 C4 1_555 1_555
C5 C4 1_555 1_555
C6 C1 1_555 1_555
H3 C6 1_555 1_555
C7 C1 1_555 1_555
C8 C7 1_555 1_555
C9 C8 1_555 1_555
H4 C9 1_555 1_555
C10 S1 1_555 1_555
H5 C10 1_555 1_555
C11 C8 1_555 1_555
C12 O2 1_555 1_555
H6 C12 1_555 1_555
H7 C12 1_555 1_555
C13 C12 1_555 1_555
H8 C13 1_555 1_555
H9 C13 1_555 1_555
H10 C13 1_555 1_555
C14 C3 1_555 1_555
C15 C14 1_555 1_555
C16 C15 1_555 1_555
H11 C16 1_555 1_555
C17 S2 1_555 1_555
H12 C17 1_555 1_555
C18 C15 1_555 1_555
C19 O4 1_555 1_555
H13 C19 1_555 1_555
H14 C19 1_555 1_555
C20 C19 1_555 1_555
H15 C20 1_555 1_555
H16 C20 1_555 1_555
H17 C20 1_555 1_555
C21 C5 1_555 1_555
C22 C21 1_555 1_555
C23 C22 1_555 1_555
H18 C23 1_555 1_555
C24 S3 1_555 1_555
H19 C24 1_555 1_555
C25 C22 1_555 1_555
C26 O6 1_555 1_555
H20 C26 1_555 1_555
H21 C26 1_555 1_555
C27 C26 1_555 1_555
H22 C27 1_555 1_555
H23 C27 1_555 1_555
H24 C27 1_555 1_555
C5 C6 1_555 1_555
C9 C10 1_555 1_555
C16 C17 1_555 1_555
C23 C24 1_555 1_555

#END
