
#######################################################################
#
#                 Cambridge Crystallographic Data Centre
#                                CCDC 
#
#######################################################################
#
# If this CIF has been generated from an entry in the Cambridge 
# Structural Database, then it will include bibliographic, chemical, 
# crystal, experimental, refinement or atomic coordinate data resulting 
# from the CCDC's data processing and validation procedures.
#
#######################################################################

data_EZAHUK
_chemical_formula_moiety         'C14 H12 F3 S1 1+,C1 F3 O3 S1 1-'
_chemical_name_systematic        
'diphenyl(2,2,2-trifluoroethyl)sulfonium trifluoromethanesulfonate unknown solvate'
_symmetry_cell_setting           triclinic
_symmetry_space_group_name_H-M   'P -1'
_symmetry_Int_Tables_number      2
_space_group_name_Hall           '-P 1'
loop_
_symmetry_equiv_pos_site_id
_symmetry_equiv_pos_as_xyz
1 x,y,z
2 -x,-y,-z
_cell_length_a                   9.4630(7)
_cell_length_b                   9.8729(8)
_cell_length_c                   12.4141(11)
_cell_angle_alpha                74.5280(10)
_cell_angle_beta                 72.4720(10)
_cell_angle_gamma                78.928(2)
_cell_volume                     1057.98
_cell_formula_units_Z            2
loop_
_atom_site_label
_atom_site_type_symbol
_atom_site_fract_x
_atom_site_fract_y
_atom_site_fract_z
F1 F 0.8644(4) 0.2241(5) 0.5743(3)
F2 F 0.8087(4) 0.1553(5) 0.4477(4)
F3 F 0.8228(4) 0.3722(5) 0.4246(3)
S1 S 0.55356(13) 0.12611(14) 0.66644(11)
C1 C 0.6175(5) 0.2820(6) 0.5640(4)
H1 H 0.5596 0.3110 0.5073
H2 H 0.6014 0.3580 0.6039
C2 C 0.7790(6) 0.2581(8) 0.5031(5)
C3 C 0.3561(5) 0.1689(5) 0.7029(4)
C4 C 0.2842(6) 0.2931(6) 0.7343(5)
H3 H 0.3388 0.3617 0.7349
C5 C 0.1287(7) 0.3153(8) 0.7650(5)
H4 H 0.0774 0.3982 0.7868
C6 C 0.0519(6) 0.2090(9) 0.7623(5)
H5 H -0.0520 0.2209 0.7830
C7 C 0.1262(7) 0.0903(9) 0.7301(6)
H6 H 0.0723 0.0218 0.7285
C8 C 0.2806(6) 0.0659(6) 0.6991(5)
H7 H 0.3308 -0.0169 0.6766
C9 C 0.6084(5) 0.1246(6) 0.7927(4)
C10 C 0.5888(6) 0.2411(6) 0.8386(4)
H8 H 0.5484 0.3285 0.8021
C11 C 0.6292(6) 0.2278(8) 0.9389(5)
H9 H 0.6149 0.3056 0.9715
C12 C 0.6915(7) 0.0972(11) 0.9908(5)
H10 H 0.7215 0.0883 1.0574
C13 C 0.7089(7) -0.0156(9) 0.9467(6)
H11 H 0.7486 -0.1027 0.9840
C14 C 0.6683(5) -0.0053(6) 0.8445(5)
H12 H 0.6815 -0.0840 0.8132
F4 F 0.8284(16) 0.764(2) 0.6349(16)
F5 F 0.8175(13) 0.6301(17) 0.5312(12)
F6 F 0.8171(13) 0.5401(18) 0.7074(15)
O1 O 0.5167(4) 0.5662(4) 0.6710(3)
O2 O 0.5330(8) 0.7212(19) 0.7927(8)
O3 O 0.5357(10) 0.8114(9) 0.5921(14)
S2 S 0.5665(14) 0.6869(16) 0.6811(12)
C15 C 0.7655(8) 0.6522(10) 0.6378(7)
O4? O 0.516(4) 0.802(5) 0.672(6)
O5? O 0.563(3) 0.600(6) 0.826(3)
S3? S 0.570(6) 0.660(7) 0.715(5)
F7? F 0.790(6) 0.710(7) 0.524(5)
F8? F 0.830(5) 0.516(6) 0.646(5)
F9? F 0.845(5) 0.713(6) 0.680(4)
loop_
_geom_bond_atom_site_label_1
_geom_bond_atom_site_label_2
_geom_bond_site_symmetry_1
_geom_bond_site_symmetry_2
F1 C2 1_555 1_555
F2 C2 1_555 1_555
F3 C2 1_555 1_555
S1 C1 1_555 1_555
C1 H1 1_555 1_555
H2 C1 1_555 1_555
C2 C1 1_555 1_555
C3 S1 1_555 1_555
C4 C3 1_555 1_555
H3 C4 1_555 1_555
C5 C4 1_555 1_555
H4 C5 1_555 1_555
C6 C5 1_555 1_555
H5 C6 1_555 1_555
C7 C6 1_555 1_555
H6 C7 1_555 1_555
C8 C3 1_555 1_555
H7 C8 1_555 1_555
C9 S1 1_555 1_555
C10 C9 1_555 1_555
H8 C10 1_555 1_555
C11 C10 1_555 1_555
H9 C11 1_555 1_555
C12 C11 1_555 1_555
H10 C12 1_555 1_555
C13 C12 1_555 1_555
H11 C13 1_555 1_555
C14 C9 1_555 1_555
H12 C14 1_555 1_555
F4 C15 1_555 1_555
F5 C15 1_555 1_555
F6 C15 1_555 1_555
O1 S2 1_555 1_555
O2 S2 1_555 1_555
O3 S2 1_555 1_555
S2 C15 1_555 1_555
C7 C8 1_555 1_555
C13 C14 1_555 1_555

#END
