
#######################################################################
#
#                 Cambridge Crystallographic Data Centre
#                                CCDC 
#
#######################################################################
#
# If this CIF has been generated from an entry in the Cambridge 
# Structural Database, then it will include bibliographic, chemical, 
# crystal, experimental, refinement or atomic coordinate data resulting 
# from the CCDC's data processing and validation procedures.
#
#######################################################################

data_EZALEW
_chemical_formula_moiety         'C12 H24 N2 O8'
_chemical_name_systematic        
N,N'-bis[tris(hydroxymethyl)methyl]succinamide
_symmetry_cell_setting           monoclinic
_symmetry_space_group_name_H-M   'P 21/n'
_symmetry_Int_Tables_number      14
_space_group_name_Hall           '-P 2yn'
loop_
_symmetry_equiv_pos_site_id
_symmetry_equiv_pos_as_xyz
1 x,y,z
2 1/2-x,1/2+y,1/2-z
3 -x,-y,-z
4 1/2+x,1/2-y,1/2+z
_cell_length_a                   6.4487(2)
_cell_length_b                   6.1087(2)
_cell_length_c                   19.2031(8)
_cell_angle_alpha                90
_cell_angle_beta                 98.4964(17)
_cell_angle_gamma                90
_cell_volume                     748.169
_exptl_crystal_colour            colorless
_exptl_crystal_description       block
_chemical_melting_point          224-225deg.C
_cell_formula_units_Z            2
_exptl_crystal_recrystallization_method ethanol
loop_
_atom_site_label
_atom_site_type_symbol
_atom_site_fract_x
_atom_site_fract_y
_atom_site_fract_z
C1 C -0.0555(6) 0.3880(7) 0.13374(19)
C2 C -0.1772(6) 0.5392(7) 0.1774(2)
H1 H -0.2590 0.6469 0.1460
H2 H -0.2765 0.4515 0.2006
O1 O -0.0355(5) 0.6505(5) 0.22906(15)
H3 H 0.0882 0.6219 0.2233
C3 C 0.0459(6) 0.1955(7) 0.1775(2)
H4 H 0.1507 0.2521 0.2162
H5 H -0.0629 0.1158 0.1987
O2 O 0.1461(4) 0.0482(5) 0.13510(16)
H6 H 0.2686 0.0919 0.1331
C4 C 0.1164(6) 0.5182(7) 0.1049(2)
H7 H 0.2143 0.5793 0.1447
H8 H 0.1968 0.4183 0.0783
O3 O 0.0325(5) 0.6922(5) 0.05986(14)
H9 H 0.0564 0.8122 0.0809
N1 N -0.1976(5) 0.3056(6) 0.07188(16)
H10 H -0.1616 0.3327 0.0303
C5 C -0.3731(6) 0.1952(6) 0.0728(2)
O4 O -0.4449(4) 0.1447(5) 0.12820(14)
C6 C -0.4894(6) 0.1249(7) 0.0023(2)
H11 H -0.4132 0.1778 -0.0356
H12 H -0.6306 0.1921 -0.0048
C6B C -0.5106(6) -0.1249(7) -0.0023(2)
C5B C -0.6269(6) -0.1952(6) -0.0728(2)
N1B N -0.8024(5) -0.3056(6) -0.07188(16)
C1B C -0.9445(6) -0.3880(7) -0.13374(19)
C2B C -0.8228(6) -0.5392(7) -0.1774(2)
H1B H -0.7410 -0.6469 -0.1460
H2B H -0.7235 -0.4515 -0.2006
O1B O -0.9645(5) -0.6505(5) -0.22906(15)
H3B H -1.0882 -0.6219 -0.2233
C3B C -1.0459(6) -0.1955(7) -0.1775(2)
H4B H -1.1507 -0.2521 -0.2162
H5B H -0.9371 -0.1158 -0.1987
O2B O -1.1461(4) -0.0482(5) -0.13510(16)
H6B H -1.2686 -0.0919 -0.1331
C4B C -1.1164(6) -0.5182(7) -0.1049(2)
H7B H -1.2143 -0.5793 -0.1447
H8B H -1.1968 -0.4183 -0.0783
O3B O -1.0325(5) -0.6922(5) -0.05986(14)
H9B H -1.0564 -0.8122 -0.0809
H10B H -0.8384 -0.3327 -0.0303
O4B O -0.5551(4) -0.1447(5) -0.12820(14)
H11B H -0.5868 -0.1778 0.0356
H12B H -0.3694 -0.1921 0.0048
loop_
_geom_bond_atom_site_label_1
_geom_bond_atom_site_label_2
_geom_bond_site_symmetry_1
_geom_bond_site_symmetry_2
C1 C2 1_555 1_555
C2 H1 1_555 1_555
H2 C2 1_555 1_555
O1 C2 1_555 1_555
H3 O1 1_555 1_555
C3 C1 1_555 1_555
H4 C3 1_555 1_555
H5 C3 1_555 1_555
O2 C3 1_555 1_555
H6 O2 1_555 1_555
C4 C1 1_555 1_555
H7 C4 1_555 1_555
H8 C4 1_555 1_555
O3 C4 1_555 1_555
H9 O3 1_555 1_555
N1 C1 1_555 1_555
H10 N1 1_555 1_555
C5 N1 1_555 1_555
O4 C5 1_555 1_555
C6 C5 1_555 1_555
H11 C6 1_555 1_555
H12 C6 1_555 1_555
C6B C6 1_555 1_555
C5B C6B 1_555 1_555
N1B C5B 1_555 1_555
C1B N1B 1_555 1_555
C2B C1B 1_555 1_555
H1B C2B 1_555 1_555
H2B C2B 1_555 1_555
O1B C2B 1_555 1_555
H3B O1B 1_555 1_555
C3B C1B 1_555 1_555
H4B C3B 1_555 1_555
H5B C3B 1_555 1_555
O2B C3B 1_555 1_555
H6B O2B 1_555 1_555
C4B C1B 1_555 1_555
H7B C4B 1_555 1_555
H8B C4B 1_555 1_555
O3B C4B 1_555 1_555
H9B O3B 1_555 1_555
H10B N1B 1_555 1_555
O4B C5B 1_555 1_555
H11B C6B 1_555 1_555
H12B C6B 1_555 1_555

#END
