
#######################################################################
#
#                 Cambridge Crystallographic Data Centre
#                                CCDC 
#
#######################################################################
#
# If this CIF has been generated from an entry in the Cambridge 
# Structural Database, then it will include bibliographic, chemical, 
# crystal, experimental, refinement or atomic coordinate data resulting 
# from the CCDC's data processing and validation procedures.
#
#######################################################################

data_EZAMEY
_chemical_formula_moiety         'C12 H13 N1 O3 S1'
_chemical_name_systematic        
4-(Ethylsulfanyl)-4-(3-nitrophenyl)but-3-en-2-one
_symmetry_cell_setting           orthorhombic
_symmetry_space_group_name_H-M   'P b c 21'
_symmetry_Int_Tables_number      29
_space_group_name_Hall           'P 2c -2b'
loop_
_symmetry_equiv_pos_site_id
_symmetry_equiv_pos_as_xyz
1 x,y,z
2 -x,-y,1/2+z
3 -x,1/2+y,z
4 x,1/2-y,1/2+z
_cell_length_a                   7.7751(6)
_cell_length_b                   10.3561(8)
_cell_length_c                   30.771(2)
_cell_angle_alpha                90
_cell_angle_beta                 90
_cell_angle_gamma                90
_cell_volume                     2477.67
_exptl_crystal_colour            brown
_exptl_crystal_description       prismatic
_cell_formula_units_Z            8
loop_
_atom_site_label
_atom_site_type_symbol
_atom_site_fract_x
_atom_site_fract_y
_atom_site_fract_z
S1 S 0.11477(11) 0.85565(7) 0.14001(3)
N1 N 0.3475(4) 0.3847(3) 0.16478(12)
O1 O 0.4169(3) 0.8538(2) 0.27291(9)
O2 O 0.3444(4) 0.2739(2) 0.17741(12)
O3 O 0.4056(4) 0.4174(3) 0.12972(11)
C1 C 0.2127(4) 0.8462(3) 0.19111(10)
C2 C 0.2685(4) 0.9493(3) 0.21353(10)
H1 H 0.2499 1.0297 0.2009
C3 C 0.3562(4) 0.9486(3) 0.25601(10)
C4 C 0.3688(5) 1.0790(3) 0.27741(12)
H2 H 0.2553 1.1127 0.2822
H3 H 0.4318 1.1368 0.2589
H4 H 0.4273 1.0707 0.3047
C5 C 0.2177(4) 0.7090(3) 0.20641(10)
C6 C 0.1463(4) 0.6738(3) 0.24588(11)
H5 H 0.0988 0.7370 0.2637
C7 C 0.1441(5) 0.5468(3) 0.25922(12)
H6 H 0.0979 0.5255 0.2862
C8 C 0.2099(4) 0.4511(3) 0.23300(12)
H7 H 0.2077 0.3652 0.2418
C9 C 0.2791(4) 0.4851(3) 0.19354(10)
C10 C 0.2854(4) 0.6129(3) 0.17958(10)
H8 H 0.3338 0.6338 0.1529
C11 C 0.1329(5) 1.0232(3) 0.12413(12)
H9 H 0.0777 1.0781 0.1455
H10 H 0.2530 1.0478 0.1221
C12 C 0.0461(6) 1.0388(4) 0.08045(13)
H11 H 0.1046 0.9868 0.0592
H12 H 0.0503 1.1278 0.0718
H13 H -0.0716 1.0115 0.0826
S2 S 0.38590(11) 0.63804(7) 0.49395(2)
N2 N 0.1597(4) 0.1658(3) 0.46706(12)
O4 O 0.0811(3) 0.6341(2) 0.36181(9)
O5 O 0.0996(4) 0.1956(3) 0.50212(11)
O6 O 0.1642(4) 0.0549(2) 0.45415(11)
C13 C 0.2869(4) 0.6289(3) 0.44305(10)
C14 C 0.2282(4) 0.7320(3) 0.42099(10)
H14 H 0.2476 0.8125 0.4335
C15 C 0.1369(4) 0.7311(3) 0.37921(10)
C16 C 0.1130(5) 0.8607(3) 0.35869(12)
H15 H 0.2209 0.8903 0.3473
H16 H 0.0720 0.9207 0.3801
H17 H 0.0307 0.8541 0.3355
C17 C 0.2860(4) 0.4926(3) 0.42764(10)
C18 C 0.2200(4) 0.3947(3) 0.45353(10)
H18 H 0.1706 0.4139 0.4803
C19 C 0.2284(4) 0.2696(3) 0.43928(10)
C20 C 0.3001(4) 0.2355(3) 0.39962(12)
H19 H 0.3033 0.1499 0.3905
C21 C 0.3669(4) 0.3334(3) 0.37412(12)
H20 H 0.4164 0.3138 0.3474
C22 C 0.3605(4) 0.4597(3) 0.38801(11)
H21 H 0.4068 0.5242 0.3706
C23 C 0.3667(5) 0.8048(3) 0.51014(12)
H22 H 0.4197 0.8602 0.4885
H23 H 0.2463 0.8283 0.5126
C24 C 0.4551(7) 0.8218(4) 0.55336(13)
H24 H 0.4061 0.7633 0.5742
H25 H 0.4401 0.9090 0.5632
H26 H 0.5756 0.8038 0.5502
loop_
_geom_bond_atom_site_label_1
_geom_bond_atom_site_label_2
_geom_bond_site_symmetry_1
_geom_bond_site_symmetry_2
S1 C1 1_555 1_555
S2 C13 1_555 1_555
N1 O2 1_555 1_555
N2 O5 1_555 1_555
O1 C3 1_555 1_555
O3 N1 1_555 1_555
O4 C15 1_555 1_555
O6 N2 1_555 1_555
C1 C2 1_555 1_555
C2 H1 1_555 1_555
C3 C2 1_555 1_555
C4 C3 1_555 1_555
H2 C4 1_555 1_555
H3 C4 1_555 1_555
H4 C4 1_555 1_555
C5 C1 1_555 1_555
C6 C5 1_555 1_555
H5 C6 1_555 1_555
C7 C6 1_555 1_555
H6 C7 1_555 1_555
C8 C7 1_555 1_555
H7 C8 1_555 1_555
C9 N1 1_555 1_555
C10 C5 1_555 1_555
H8 C10 1_555 1_555
C11 S1 1_555 1_555
H9 C11 1_555 1_555
H10 C11 1_555 1_555
C12 C11 1_555 1_555
H11 C12 1_555 1_555
H12 C12 1_555 1_555
H13 C12 1_555 1_555
C13 C14 1_555 1_555
C14 H14 1_555 1_555
C15 C14 1_555 1_555
C16 C15 1_555 1_555
H15 C16 1_555 1_555
H16 C16 1_555 1_555
H17 C16 1_555 1_555
C17 C13 1_555 1_555
C18 C17 1_555 1_555
H18 C18 1_555 1_555
C19 N2 1_555 1_555
C20 C19 1_555 1_555
H19 C20 1_555 1_555
C21 C20 1_555 1_555
H20 C21 1_555 1_555
C22 C17 1_555 1_555
H21 C22 1_555 1_555
C23 S2 1_555 1_555
H22 C23 1_555 1_555
H23 C23 1_555 1_555
C24 C23 1_555 1_555
H24 C24 1_555 1_555
H25 C24 1_555 1_555
H26 C24 1_555 1_555
C8 C9 1_555 1_555
C9 C10 1_555 1_555
C18 C19 1_555 1_555
C21 C22 1_555 1_555

#END
