
#######################################################################
#
#                 Cambridge Crystallographic Data Centre
#                                CCDC 
#
#######################################################################
#
# If this CIF has been generated from an entry in the Cambridge 
# Structural Database, then it will include bibliographic, chemical, 
# crystal, experimental, refinement or atomic coordinate data resulting 
# from the CCDC's data processing and validation procedures.
#
#######################################################################

data_EZAMID
_chemical_formula_moiety         'C26 H22 N2 O2 S2'
_chemical_name_systematic        
4-phenyl-3-(1-phenyl-2-((4-phenyl-4,5-dihydro-1,3-oxazol-2-yl)sulfanyl)ethyl)-1,3-thiazol-2(3H)-one
_symmetry_cell_setting           monoclinic
_symmetry_space_group_name_H-M   'P 21'
_symmetry_Int_Tables_number      4
_space_group_name_Hall           'P 2yb'
loop_
_symmetry_equiv_pos_site_id
_symmetry_equiv_pos_as_xyz
1 x,y,z
2 -x,1/2+y,-z
_cell_length_a                   8.1346(4)
_cell_length_b                   28.5536(10)
_cell_length_c                   9.8234(4)
_cell_angle_alpha                90
_cell_angle_beta                 90.9698(12)
_cell_angle_gamma                90
_cell_volume                     2281.38
_exptl_crystal_colour            colorless
_exptl_crystal_description       chunk
_cell_formula_units_Z            4
loop_
_atom_site_label
_atom_site_type_symbol
_atom_site_fract_x
_atom_site_fract_y
_atom_site_fract_z
S1 S 0.54691(10) 0.09239(3) 1.21808(6)
S2 S 0.81980(9) 0.22457(2) 0.98873(6)
O1 O 0.6044(2) 0.17870(6) 1.30711(14)
O2 O 0.8576(2) 0.21541(5) 0.73109(14)
N1 N 0.5082(2) 0.16861(6) 1.08543(16)
N2 N 0.6403(2) 0.26149(6) 0.78022(18)
C1 C 0.4868(3) 0.21913(6) 1.05785(19)
C2 C 0.5601(3) 0.15389(8) 1.2133(2)
C3 C 0.4829(3) 0.09066(8) 1.0497(2)
C4 C 0.4685(2) 0.13305(6) 0.9930(2)
C5 C 0.4264(2) 0.14227(6) 0.8493(2)
C6 C 0.5187(3) 0.12089(8) 0.7492(2)
C7 C 0.4801(3) 0.12743(10) 0.6135(2)
C8 C 0.3527(3) 0.15592(10) 0.5747(2)
C9 C 0.2607(3) 0.17718(8) 0.6727(2)
C10 C 0.2961(3) 0.17067(8) 0.8088(2)
C11 C 0.3405(3) 0.23900(8) 1.13520(19)
C12 C 0.3089(3) 0.28679(9) 1.1335(2)
C13 C 0.1777(4) 0.30483(11) 1.2059(3)
C14 C 0.0746(4) 0.27664(12) 1.2753(2)
C15 C 0.1010(3) 0.22982(12) 1.2738(2)
C16 C 0.2323(3) 0.21095(9) 1.2055(2)
C17 C 0.6464(3) 0.24683(8) 1.0799(2)
C18 C 0.7570(3) 0.23680(8) 0.8218(2)
C19 C 0.7984(3) 0.23081(9) 0.5996(2)
C20 C 0.6433(3) 0.25920(8) 0.6296(2)
C21 C 0.6427(2) 0.30702(8) 0.5622(2)
C22 C 0.5750(3) 0.31193(9) 0.4346(2)
C23 C 0.5817(4) 0.35529(11) 0.3699(2)
C24 C 0.6533(3) 0.39294(10) 0.4332(2)
C25 C 0.7174(3) 0.38807(9) 0.5608(2)
C26 C 0.7132(3) 0.34536(9) 0.6254(2)
H1 H 0.4584 0.2219 0.9608
H2 H 0.4605 0.0630 1.0030
H3 H 0.6074 0.1020 0.7741
H4 H 0.5413 0.1123 0.5476
H5 H 0.3288 0.1608 0.4829
H6 H 0.1730 0.1963 0.6468
H7 H 0.2325 0.1854 0.8739
H8 H 0.3755 0.3068 1.0839
H9 H 0.1604 0.3370 1.2067
H10 H -0.0127 0.2892 1.3230
H11 H 0.0295 0.2101 1.3194
H12 H 0.2483 0.1787 1.2068
H13 H 0.5470 0.2416 0.5971
H14 H 0.5249 0.2866 0.3915
H15 H 0.5371 0.3587 0.2827
H16 H 0.6581 0.4217 0.3890
H17 H 0.7644 0.4137 0.6049
H18 H 0.7584 0.3423 0.7126
H19 H 0.6739 0.2464 1.1764
H20 H 0.6270 0.2789 1.0509
H21 H 0.7722 0.2042 0.5418
H22 H 0.8798 0.2502 0.5557
S3 S 0.90755(9) 0.10324(2) 1.03053(5)
S4 S 0.65949(9) -0.01905(3) 0.77713(6)
O3 O 0.8908(2) 0.01522(6) 1.11518(13)
O4 O 0.6319(2) -0.00911(6) 0.51685(14)
N3 N 0.9759(2) 0.02926(6) 0.89478(14)
N4 N 0.8384(2) -0.05824(6) 0.57787(18)
C27 C 0.9902(2) -0.02022(6) 0.85779(18)
C28 C 0.9234(3) 0.04190(8) 1.0224(2)
C29 C 0.9604(2) 0.10785(8) 0.86154(19)
C30 C 0.9942(2) 0.06683(6) 0.80453(19)
C31 C 1.0434(2) 0.06037(6) 0.66119(19)
C32 C 0.9479(3) 0.08093(9) 0.5595(2)
C33 C 0.9955(3) 0.07749(11) 0.4240(2)
C34 C 1.1330(4) 0.05380(11) 0.3904(2)
C35 C 1.2282(3) 0.03334(9) 0.4900(2)
C36 C 1.1842(2) 0.03672(6) 0.6250(2)
C37 C 1.1332(3) -0.04438(8) 0.9311(2)
C38 C 1.1635(4) -0.09070(10) 0.9070(2)
C39 C 1.2949(5) -0.11334(12) 0.9753(4)
C40 C 1.3964(5) -0.08903(16) 1.0624(3)
C41 C 1.3673(4) -0.04318(12) 1.0840(2)
C42 C 1.2369(3) -0.02111(10) 1.0200(2)
C43 C 0.8255(3) -0.04561(8) 0.8726(2)
C44 C 0.7237(3) -0.03192(8) 0.6123(2)
C45 C 0.6898(3) -0.02738(9) 0.3876(2)
C46 C 0.8439(3) -0.05595(6) 0.4270(2)
C47 C 0.8466(2) -0.10290(8) 0.3580(2)
C48 C 0.9022(3) -0.10613(9) 0.2274(2)
C49 C 0.8982(4) -0.14888(11) 0.1596(2)
C50 C 0.8439(3) -0.18765(10) 0.2232(2)
C51 C 0.7908(4) -0.18480(9) 0.3542(2)
C52 C 0.7929(3) -0.14297(9) 0.4210(2)
H23 H 1.0155 -0.0209 0.7606
H24 H 0.9648 0.1362 0.8151
H25 H 0.8524 0.0970 0.5814
H26 H 0.9320 0.0916 0.3560
H27 H 1.1628 0.0514 0.2997
H28 H 1.3228 0.0171 0.4668
H29 H 1.2501 0.0229 0.6921
H30 H 1.0975 -0.1073 0.8456
H31 H 1.3128 -0.1451 0.9610
H32 H 1.4843 -0.1039 1.1060
H33 H 1.4358 -0.0263 1.1427
H34 H 1.2185 0.0105 1.0373
H35 H 0.9417 -0.0383 0.4009
H36 H 0.9426 -0.0797 0.1840
H37 H 0.9330 -0.1508 0.0700
H38 H 0.8426 -0.2163 0.1780
H39 H 0.7531 -0.2115 0.3980
H40 H 0.7575 -0.1415 0.5104
H41 H 0.8383 -0.0776 0.8413
H42 H 0.7970 -0.0457 0.9681
H43 H 0.7175 -0.0020 0.3264
H44 H 0.6072 -0.0472 0.3448
loop_
_geom_bond_atom_site_label_1
_geom_bond_atom_site_label_2
_geom_bond_site_symmetry_1
_geom_bond_site_symmetry_2
S1 C2 1_555 1_555
S2 C17 1_555 1_555
O1 C2 1_555 1_555
O2 C18 1_555 1_555
N1 C1 1_555 1_555
N2 C18 1_555 1_555
C1 C11 1_555 1_555
C2 N1 1_555 1_555
C3 S1 1_555 1_555
C4 N1 1_555 1_555
C5 C4 1_555 1_555
C6 C5 1_555 1_555
C7 C6 1_555 1_555
C8 C7 1_555 1_555
C9 C8 1_555 1_555
C10 C5 1_555 1_555
C11 C12 1_555 1_555
C12 C13 1_555 1_555
C13 C14 1_555 1_555
C14 C15 1_555 1_555
C15 C16 1_555 1_555
C16 C11 1_555 1_555
C17 C1 1_555 1_555
C18 S2 1_555 1_555
C19 O2 1_555 1_555
C20 N2 1_555 1_555
C21 C20 1_555 1_555
C22 C21 1_555 1_555
C23 C22 1_555 1_555
C24 C23 1_555 1_555
C25 C24 1_555 1_555
C26 C21 1_555 1_555
H1 C1 1_555 1_555
H2 C3 1_555 1_555
H3 C6 1_555 1_555
H4 C7 1_555 1_555
H5 C8 1_555 1_555
H6 C9 1_555 1_555
H7 C10 1_555 1_555
H8 C12 1_555 1_555
H9 C13 1_555 1_555
H10 C14 1_555 1_555
H11 C15 1_555 1_555
H12 C16 1_555 1_555
H13 C20 1_555 1_555
H14 C22 1_555 1_555
H15 C23 1_555 1_555
H16 C24 1_555 1_555
H17 C25 1_555 1_555
H18 C26 1_555 1_555
H19 C17 1_555 1_555
H20 C17 1_555 1_555
H21 C19 1_555 1_555
H22 C19 1_555 1_555
S3 C28 1_555 1_555
S4 C43 1_555 1_555
O3 C28 1_555 1_555
O4 C44 1_555 1_555
N3 C27 1_555 1_555
N4 C44 1_555 1_555
C27 C37 1_555 1_555
C28 N3 1_555 1_555
C29 S3 1_555 1_555
C30 N3 1_555 1_555
C31 C30 1_555 1_555
C32 C31 1_555 1_555
C33 C32 1_555 1_555
C34 C33 1_555 1_555
C35 C34 1_555 1_555
C36 C31 1_555 1_555
C37 C38 1_555 1_555
C38 C39 1_555 1_555
C39 C40 1_555 1_555
C40 C41 1_555 1_555
C41 C42 1_555 1_555
C42 C37 1_555 1_555
C43 C27 1_555 1_555
C44 S4 1_555 1_555
C45 O4 1_555 1_555
C46 N4 1_555 1_555
C47 C46 1_555 1_555
C48 C47 1_555 1_555
C49 C48 1_555 1_555
C50 C49 1_555 1_555
C51 C50 1_555 1_555
C52 C47 1_555 1_555
H23 C27 1_555 1_555
H24 C29 1_555 1_555
H25 C32 1_555 1_555
H26 C33 1_555 1_555
H27 C34 1_555 1_555
H28 C35 1_555 1_555
H29 C36 1_555 1_555
H30 C38 1_555 1_555
H31 C39 1_555 1_555
H32 C40 1_555 1_555
H33 C41 1_555 1_555
H34 C42 1_555 1_555
H35 C46 1_555 1_555
H36 C48 1_555 1_555
H37 C49 1_555 1_555
H38 C50 1_555 1_555
H39 C51 1_555 1_555
H40 C52 1_555 1_555
H41 C43 1_555 1_555
H42 C43 1_555 1_555
H43 C45 1_555 1_555
H44 C45 1_555 1_555
C3 C4 1_555 1_555
C9 C10 1_555 1_555
C19 C20 1_555 1_555
C25 C26 1_555 1_555
C29 C30 1_555 1_555
C35 C36 1_555 1_555
C45 C46 1_555 1_555
C51 C52 1_555 1_555

#END
