
#######################################################################
#
#                 Cambridge Crystallographic Data Centre
#                                CCDC 
#
#######################################################################
#
# If this CIF has been generated from an entry in the Cambridge 
# Structural Database, then it will include bibliographic, chemical, 
# crystal, experimental, refinement or atomic coordinate data resulting 
# from the CCDC's data processing and validation procedures.
#
#######################################################################

data_EZAMEZ
_chemical_formula_moiety         'C26 H21 F1 N2 O2 S2'
_chemical_name_systematic        
4-(3-fluorophenyl)-3-(1-phenyl-2-((4-phenyl-4,5-dihydro-1,3-oxazol-2-yl)sulfanyl)ethyl)-1,3-thiazol-2(3H)-one
_symmetry_cell_setting           orthorhombic
_symmetry_space_group_name_H-M   'P 21 21 21'
_symmetry_Int_Tables_number      19
_space_group_name_Hall           'P 2ac 2ab'
loop_
_symmetry_equiv_pos_site_id
_symmetry_equiv_pos_as_xyz
1 x,y,z
2 1/2+x,1/2-y,-z
3 -x,1/2+y,1/2-z
4 1/2-x,-y,1/2+z
_cell_length_a                   8.7066(5)
_cell_length_b                   10.0954(7)
_cell_length_c                   27.0330(16)
_cell_angle_alpha                90
_cell_angle_beta                 90
_cell_angle_gamma                90
_cell_volume                     2376.11
_exptl_crystal_colour            colorless
_exptl_crystal_description       chunk
_cell_formula_units_Z            4
loop_
_atom_site_label
_atom_site_type_symbol
_atom_site_fract_x
_atom_site_fract_y
_atom_site_fract_z
S1 S 0.25475(6) 0.68531(6) 0.13448(2)
S2 S 0.53887(6) 0.72525(5) 0.00615(2)
F1 F 0.88359(16) 0.63118(14) 0.23713(5)
O1 O 0.38072(17) 0.76913(12) 0.21530(5)
O2 O 0.29212(16) 0.56862(12) 0.00633(4)
N1 N 0.38262(18) 0.54528(16) 0.20944(5)
N2 N 0.47745(16) 0.53663(13) 0.06647(4)
C1 C 0.38155(19) 0.44950(19) 0.09730(6)
C2 C 0.2310(2) 0.51848(19) 0.11273(6)
C3 C 0.3474(2) 0.6551(2) 0.19079(6)
C4 C 0.4724(2) 0.7278(2) 0.25707(6)
C5 C 0.4488(2) 0.57707(18) 0.25867(6)
C6 C 0.3455(2) 0.53223(18) 0.30027(6)
C7 C 0.3989(2) 0.53584(19) 0.34858(6)
C8 C 0.3045(3) 0.5047(2) 0.38789(6)
C9 C 0.1560(2) 0.4686(2) 0.37953(6)
C10 C 0.1011(2) 0.4631(2) 0.33214(6)
C11 C 0.1966(2) 0.4954(2) 0.29306(6)
C12 C 0.4143(2) 0.59736(18) 0.02545(6)
C13 C 0.6654(2) 0.69051(18) 0.05337(6)
C14 C 0.6186(2) 0.58958(17) 0.08159(6)
C15 C 0.70782(19) 0.5302(2) 0.12284(6)
C16 C 0.7491(2) 0.3978(2) 0.12209(6)
C17 C 0.8356(2) 0.3445(2) 0.15953(8)
C18 C 0.8815(2) 0.4216(2) 0.19869(8)
C19 C 0.8406(2) 0.5523(2) 0.19843(6)
C20 C 0.7558(2) 0.6089(2) 0.16132(6)
C21 C 0.3558(2) 0.31414(18) 0.07380(6)
C22 C 0.4327(2) 0.2738(2) 0.03216(6)
C23 C 0.4148(3) 0.1478(2) 0.01317(9)
C24 C 0.3161(3) 0.0629(3) 0.03554(12)
C25 C 0.2389(3) 0.0979(2) 0.07665(12)
C26 C 0.2582(2) 0.2246(2) 0.09574(9)
H1 H 0.4394 0.4338 0.1278
H2 H 0.5489 0.5335 0.2619
H3 H 0.5004 0.5597 0.3546
H4 H 0.3423 0.5084 0.4200
H5 H 0.0921 0.4477 0.4060
H6 H 0.0000 0.4378 0.3262
H7 H 0.1581 0.4919 0.2610
H8 H 0.7563 0.7368 0.0586
H9 H 0.7179 0.3444 0.0959
H10 H 0.8632 0.2556 0.1584
H11 H 0.9387 0.3861 0.2245
H12 H 0.7312 0.6986 0.1622
H13 H 0.4985 0.3327 0.0163
H14 H 0.4699 0.1215 -0.0146
H15 H 0.3014 -0.0211 0.0222
H16 H 0.1735 0.0380 0.0921
H17 H 0.2040 0.2493 0.1239
H18 H 0.4365 0.7689 0.2874
H19 H 0.5798 0.7495 0.2520
H20 H 0.1631 0.5202 0.0843
H21 H 0.1842 0.4669 0.1390
loop_
_geom_bond_atom_site_label_1
_geom_bond_atom_site_label_2
_geom_bond_site_symmetry_1
_geom_bond_site_symmetry_2
S1 C2 1_555 1_555
S2 C12 1_555 1_555
F1 C19 1_555 1_555
O1 C3 1_555 1_555
O2 C12 1_555 1_555
N1 C3 1_555 1_555
N2 C1 1_555 1_555
C1 C2 1_555 1_555
C2 H20 1_555 1_555
C3 S1 1_555 1_555
C4 O1 1_555 1_555
C5 N1 1_555 1_555
C6 C5 1_555 1_555
C7 C6 1_555 1_555
C8 C7 1_555 1_555
C9 C8 1_555 1_555
C10 C9 1_555 1_555
C11 C6 1_555 1_555
C12 N2 1_555 1_555
C13 S2 1_555 1_555
C14 N2 1_555 1_555
C15 C14 1_555 1_555
C16 C15 1_555 1_555
C17 C16 1_555 1_555
C18 C17 1_555 1_555
C19 C18 1_555 1_555
C20 C15 1_555 1_555
C21 C1 1_555 1_555
C22 C21 1_555 1_555
C23 C22 1_555 1_555
C24 C23 1_555 1_555
C25 C24 1_555 1_555
C26 C21 1_555 1_555
H1 C1 1_555 1_555
H2 C5 1_555 1_555
H3 C7 1_555 1_555
H4 C8 1_555 1_555
H5 C9 1_555 1_555
H6 C10 1_555 1_555
H7 C11 1_555 1_555
H8 C13 1_555 1_555
H9 C16 1_555 1_555
H10 C17 1_555 1_555
H11 C18 1_555 1_555
H12 C20 1_555 1_555
H13 C22 1_555 1_555
H14 C23 1_555 1_555
H15 C24 1_555 1_555
H16 C25 1_555 1_555
H17 C26 1_555 1_555
H18 C4 1_555 1_555
H19 C4 1_555 1_555
H21 C2 1_555 1_555
C4 C5 1_555 1_555
C10 C11 1_555 1_555
C13 C14 1_555 1_555
C19 C20 1_555 1_555
C25 C26 1_555 1_555

#END
