
#######################################################################
#
#                 Cambridge Crystallographic Data Centre
#                                CCDC 
#
#######################################################################
#
# If this CIF has been generated from an entry in the Cambridge 
# Structural Database, then it will include bibliographic, chemical, 
# crystal, experimental, refinement or atomic coordinate data resulting 
# from the CCDC's data processing and validation procedures.
#
#######################################################################

data_EZAMIC
_chemical_formula_moiety         'C23 H18 O1'
_chemical_name_systematic        1,3,5-Triphenylpenta-2,4-dien-1-one
_symmetry_cell_setting           orthorhombic
_symmetry_space_group_name_H-M   'P 21 21 21'
_symmetry_Int_Tables_number      19
_space_group_name_Hall           'P 2ac 2ab'
loop_
_symmetry_equiv_pos_site_id
_symmetry_equiv_pos_as_xyz
1 x,y,z
2 1/2-x,-y,1/2+z
3 -x,1/2+y,1/2-z
4 1/2+x,1/2-y,-z
_cell_length_a                   10.4782(17)
_cell_length_b                   12.795(2)
_cell_length_c                   12.858(2)
_cell_angle_alpha                90
_cell_angle_beta                 90
_cell_angle_gamma                90
_cell_volume                     1723.85
_exptl_crystal_colour            green
_exptl_crystal_description       prismatic
_cell_formula_units_Z            4
loop_
_atom_site_label
_atom_site_type_symbol
_atom_site_fract_x
_atom_site_fract_y
_atom_site_fract_z
O1 O 0.68869(13) 0.31851(11) 0.73120(11)
C1 C 1.00577(19) 0.33423(13) 0.90637(12)
H1 H 1.0683 0.2832 0.9142
C2 C 0.88982(19) 0.30124(13) 0.88351(12)
H2 H 0.8265 0.3516 0.8756
C3 C 0.85280(18) 0.19232(12) 0.86965(12)
C4 C 0.74245(19) 0.16535(13) 0.82154(12)
H3 H 0.7214 0.0947 0.8216
C5 C 0.65318(19) 0.23577(14) 0.76956(13)
C6 C 0.51551(17) 0.20717(15) 0.76406(13)
C7 C 0.4656(2) 0.11750(16) 0.80911(14)
H4 H 0.5198 0.0702 0.8418
C8 C 0.3366(2) 0.0980(2) 0.80572(16)
H5 H 0.3042 0.0376 0.8361
C9 C 0.2558(2) 0.1669(2) 0.75791(18)
H6 H 0.1686 0.1534 0.7558
C10 C 0.3033(2) 0.2555(2) 0.71336(18)
H7 H 0.2482 0.3023 0.6810
C11 C 0.4316(2) 0.27595(17) 0.71605(15)
H8 H 0.4628 0.3366 0.6854
C12 C 1.04649(18) 0.44306(13) 0.92079(12)
C13 C 0.9616(2) 0.52459(14) 0.93374(14)
H9 H 0.8743 0.5112 0.9347
C14 C 1.0050(2) 0.62552(16) 0.94528(16)
H10 H 0.9470 0.6799 0.9535
C15 C 1.1338(3) 0.64620(16) 0.94464(17)
H11 H 1.1627 0.7146 0.9511
C16 C 1.2184(2) 0.56678(16) 0.93457(15)
H12 H 1.3055 0.5805 0.9358
C17 C 1.17526(19) 0.46561(14) 0.92241(13)
H13 H 1.2341 0.4116 0.9152
C18 C 0.93584(16) 0.10900(12) 0.91193(12)
C19 C 0.98685(17) 0.11458(14) 1.01134(13)
H14 H 0.9710 0.1732 1.0521
C20 C 1.0603(2) 0.03504(15) 1.05051(15)
H15 H 1.0928 0.0397 1.1177
C21 C 1.0861(2) -0.05125(15) 0.99090(17)
H16 H 1.1358 -0.1052 1.0175
C22 C 1.0385(2) -0.05753(15) 0.89230(16)
H17 H 1.0572 -0.1154 0.8512
C23 C 0.96331(18) 0.02104(13) 0.85356(14)
H18 H 0.9301 0.0151 0.7867
loop_
_geom_bond_atom_site_label_1
_geom_bond_atom_site_label_2
_geom_bond_site_symmetry_1
_geom_bond_site_symmetry_2
O1 C5 1_555 1_555
C1 H1 1_555 1_555
C2 C1 1_555 1_555
H2 C2 1_555 1_555
C3 C2 1_555 1_555
C4 C3 1_555 1_555
H3 C4 1_555 1_555
C5 C4 1_555 1_555
C6 C5 1_555 1_555
C7 C6 1_555 1_555
H4 C7 1_555 1_555
C8 C7 1_555 1_555
H5 C8 1_555 1_555
C9 C8 1_555 1_555
H6 C9 1_555 1_555
C10 C9 1_555 1_555
H7 C10 1_555 1_555
C11 C6 1_555 1_555
H8 C11 1_555 1_555
C12 C1 1_555 1_555
C13 C12 1_555 1_555
H9 C13 1_555 1_555
C14 C13 1_555 1_555
H10 C14 1_555 1_555
C15 C14 1_555 1_555
H11 C15 1_555 1_555
C16 C15 1_555 1_555
H12 C16 1_555 1_555
C17 C12 1_555 1_555
H13 C17 1_555 1_555
C18 C3 1_555 1_555
C19 C18 1_555 1_555
H14 C19 1_555 1_555
C20 C19 1_555 1_555
H15 C20 1_555 1_555
C21 C20 1_555 1_555
H16 C21 1_555 1_555
C22 C21 1_555 1_555
H17 C22 1_555 1_555
C23 C18 1_555 1_555
H18 C23 1_555 1_555
C10 C11 1_555 1_555
C16 C17 1_555 1_555
C22 C23 1_555 1_555

#END
