
#######################################################################
#
#                 Cambridge Crystallographic Data Centre
#                                CCDC 
#
#######################################################################
#
# If this CIF has been generated from an entry in the Cambridge 
# Structural Database, then it will include bibliographic, chemical, 
# crystal, experimental, refinement or atomic coordinate data resulting 
# from the CCDC's data processing and validation procedures.
#
#######################################################################

data_EZAWEH
_chemical_name_common            
'1$2!,2$2!,3$2!,4$2!-tetrakis(2,3,6-Trifluorophenyl)-1(2,4),2,3,4(4,2)-tetrakis((1,3,2)dioxaborolo(4,5-b)pyridina)cyclotetraphane benzene solvate'
_chemical_formula_moiety         'C44 H20 B4 F12 N4 O8,2(C6 H6)'
_chemical_name_systematic        
"tetrakis(\m~2~-2,3-Dioxypyridine-N,O,O')-tetrakis(2,3,6-trifluorophenyl)-tetra-boron benzene solvate"
_symmetry_cell_setting           triclinic
_symmetry_space_group_name_H-M   'P -1'
_symmetry_Int_Tables_number      2
_space_group_name_Hall           '-P 1'
loop_
_symmetry_equiv_pos_site_id
_symmetry_equiv_pos_as_xyz
1 x,y,z
2 -x,-y,-z
_cell_length_a                   13.538(4)
_cell_length_b                   13.595(10)
_cell_length_c                   13.813(12)
_cell_angle_alpha                80.64(7)
_cell_angle_beta                 85.41(4)
_cell_angle_gamma                80.58(4)
_cell_volume                     2470.87
_exptl_crystal_colour            colorless
_exptl_crystal_description       block
_cell_formula_units_Z            2
_exptl_crystal_recrystallization_method pentane/benzene
loop_
_atom_site_label
_atom_site_type_symbol
_atom_site_fract_x
_atom_site_fract_y
_atom_site_fract_z
F1 F -0.0636(3) 0.4581(3) 0.3320(3)
F2 F -0.0770(4) 0.6188(4) 0.4210(5)
F4 F 0.2859(3) 0.4398(3) 0.2992(3)
F5 F 0.2521(3) 0.2564(4) -0.1444(4)
F6 F 0.2796(6) 0.2465(7) -0.3364(7)
F8 F 0.2704(3) 0.6030(4) -0.2127(3)
F9 F 0.7043(3) 0.2539(4) 0.0517(4)
F10 F 0.6520(4) 0.0255(5) 0.3979(4)
F12 F 0.4922(3) 0.1183(4) 0.3062(3)
F13 F 0.2971(3) -0.1519(3) 0.1566(3)
F14 F 0.1723(5) -0.2816(5) 0.1611(6)
F16 F 0.0296(3) 0.1155(3) 0.1084(4)
O1 O 0.1837(3) 0.3766(3) 0.1518(3)
O2 O 0.0312(3) 0.3260(3) 0.2195(4)
O3 O 0.3318(3) 0.3482(3) -0.0036(3)
O4 O 0.2664(3) 0.5196(3) -0.0161(3)
O5 O 0.4086(3) 0.1772(3) 0.1358(3)
O6 O 0.5248(3) 0.2147(3) 0.0022(3)
O7 O 0.1987(3) 0.1643(3) 0.1700(4)
O8 O 0.3023(3) 0.0179(3) 0.2401(3)
N1 N 0.1447(3) 0.3989(4) -0.0144(4)
N2 N 0.4569(3) 0.3482(4) 0.1045(4)
N3 N 0.3246(4) 0.0754(4) 0.0590(4)
N4 N 0.1868(4) 0.2501(4) 0.3038(4)
C1 C 0.1230(4) 0.3737(5) 0.0820(6)
C2 C 0.0310(5) 0.3472(5) 0.1211(6)
C3 C -0.0422(5) 0.3499(5) 0.0586(6)
H1 H -0.1059 0.3326 0.0823
C4 C -0.0208(5) 0.3793(5) -0.0426(6)
H2 H -0.0712 0.3833 -0.0877
C5 C 0.0696(4) 0.4015(5) -0.0759(5)
H3 H 0.0822 0.4198 -0.1446
C6 C 0.3800(4) 0.3940(5) 0.0509(5)
C7 C 0.3432(5) 0.4959(6) 0.0439(5)
C8 C 0.3857(5) 0.5563(6) 0.0933(5)
H4 H 0.3617 0.6264 0.0898
C9 C 0.4668(5) 0.5085(6) 0.1494(5)
H5 H 0.4998 0.5475 0.1839
C10 C 0.4993(5) 0.4085(5) 0.1556(5)
H6 H 0.5529 0.3787 0.1964
C11 C 0.3948(5) 0.1326(5) 0.0592(5)
C12 C 0.4633(4) 0.1542(5) -0.0208(5)
C13 C 0.4607(5) 0.1131(5) -0.1011(6)
H7 H 0.5080 0.1239 -0.1550
C14 C 0.3849(5) 0.0522(5) -0.1042(5)
H8 H 0.3797 0.0230 -0.1612
C15 C 0.3213(5) 0.0367(5) -0.0259(5)
H9 H 0.2709 -0.0035 -0.0296
C16 C 0.2191(5) 0.1717(5) 0.2585(6)
C17 C 0.2783(5) 0.0836(6) 0.3042(6)
C18 C 0.2989(5) 0.0747(6) 0.4004(6)
H10 H 0.3362 0.0150 0.4332
C19 C 0.2626(5) 0.1577(6) 0.4491(5)
H11 H 0.2759 0.1544 0.5162
C20 C 0.2092(5) 0.2418(6) 0.4016(5)
H12 H 0.1862 0.2970 0.4360
C21 C 0.1120(5) 0.4417(5) 0.3095(5)
C22 C 0.0223(5) 0.4920(6) 0.3425(6)
C23 C 0.0152(5) 0.5758(6) 0.3888(6)
C24 C 0.0980(7) 0.6152(6) 0.4034(6)
H13 H 0.0920 0.6733 0.4347
C25 C 0.1902(7) 0.5694(7) 0.3721(6)
C26 C 0.1929(5) 0.4868(6) 0.3256(6)
C27 C 0.2657(5) 0.4297(6) -0.1695(5)
C28 C 0.2677(6) 0.3414(7) -0.2096(7)
C29 C 0.2809(7) 0.3374(9) -0.3096(8)
C30 C 0.2926(6) 0.4218(11) -0.3751(7)
H14 H 0.3026 0.4198 -0.4437
C31 C 0.2893(6) 0.5080(9) -0.3381(7)
C32 C 0.2767(5) 0.5123(7) -0.2409(6)
C33 C 0.5888(5) 0.1930(5) 0.1720(5)
C34 C 0.6864(5) 0.1974(6) 0.1389(7)
C35 C 0.7713(7) 0.1517(6) 0.1875(8)
C36 C 0.7589(5) 0.0911(6) 0.2765(7)
H15 H 0.8148 0.0550 0.3111
C37 C 0.6651(6) 0.0853(6) 0.3118(5)
C38 C 0.5818(5) 0.1342(7) 0.2631(6)
C39 C 0.1698(5) -0.0127(5) 0.1350(5)
C40 C 0.1998(5) -0.1155(6) 0.1458(6)
C41 C 0.1356(6) -0.1830(6) 0.1449(6)
C42 C 0.0362(6) -0.1513(6) 0.1359(6)
H16 H -0.0087 -0.1988 0.1398
C43 C 0.0012(5) -0.0505(7) 0.1213(6)
C44 C 0.0693(5) 0.0169(5) 0.1216(6)
B1 B 0.1268(6) 0.3495(7) 0.2472(6)
B2 B 0.2521(6) 0.4273(6) -0.0525(6)
B3 B 0.4963(6) 0.2336(6) 0.1062(6)
B4 B 0.2467(6) 0.0607(6) 0.1500(6)
C45 C 0.2064(7) 0.7993(6) 0.5061(7)
H17 H 0.2738 0.7693 0.5172
C46 C 0.1810(7) 0.8570(7) 0.4167(7)
H18 H 0.2317 0.8690 0.3665
C47 C 0.0814(8) 0.8971(7) 0.4005(7)
H19 H 0.0635 0.9333 0.3380
C48 C 0.0106(7) 0.8847(8) 0.4733(8)
H20 H -0.0566 0.9153 0.4622
C49 C 0.0320(7) 0.8300(8) 0.5619(8)
H21 H -0.0199 0.8214 0.6116
C50 C 0.1299(9) 0.7866(7) 0.5799(6)
H22 H 0.1453 0.7482 0.6422
C51 C 0.5345(7) 0.1793(9) -0.3741(8)
H23 H 0.5411 0.1192 -0.3276
C52 C 0.5003(7) 0.1803(8) -0.4657(8)
H24 H 0.4858 0.1196 -0.4831
C53 C 0.4865(7) 0.2705(10) -0.5344(8)
H25 H 0.4614 0.2719 -0.5970
C54 C 0.5112(8) 0.3562(9) -0.5063(12)
H26 H 0.5011 0.4175 -0.5510
C55 C 0.5501(7) 0.3574(11) -0.4156(12)
H27 H 0.5693 0.4165 -0.3992
C56 C 0.5590(7) 0.2673(10) -0.3512(9)
H28 H 0.5831 0.2659 -0.2881
F3? F 0.2782(11) 0.5984(15) 0.3847(15)
F7? F 0.2940(10) 0.5911(12) -0.4039(10)
F11? F 0.8672(10) 0.1630(18) 0.1636(17)
F15? F -0.0958(5) -0.0169(7) 0.1070(8)
loop_
_geom_bond_atom_site_label_1
_geom_bond_atom_site_label_2
_geom_bond_site_symmetry_1
_geom_bond_site_symmetry_2
F1 C22 1_555 1_555
F2 C23 1_555 1_555
F4 C26 1_555 1_555
F5 C28 1_555 1_555
F6 C29 1_555 1_555
F8 C32 1_555 1_555
F9 C34 1_555 1_555
F10 C37 1_555 1_555
F12 C38 1_555 1_555
F13 C40 1_555 1_555
F14 C41 1_555 1_555
F16 C44 1_555 1_555
O1 C1 1_555 1_555
O2 C2 1_555 1_555
O3 C6 1_555 1_555
O4 C7 1_555 1_555
O5 C11 1_555 1_555
O6 C12 1_555 1_555
O7 C16 1_555 1_555
O8 C17 1_555 1_555
N1 C1 1_555 1_555
N2 C6 1_555 1_555
N3 C11 1_555 1_555
N4 C16 1_555 1_555
C1 C2 1_555 1_555
C2 C3 1_555 1_555
C3 H1 1_555 1_555
C4 C3 1_555 1_555
H2 C4 1_555 1_555
C5 N1 1_555 1_555
H3 C5 1_555 1_555
C6 C7 1_555 1_555
C7 C8 1_555 1_555
C8 H4 1_555 1_555
C9 C8 1_555 1_555
H5 C9 1_555 1_555
C10 N2 1_555 1_555
H6 C10 1_555 1_555
C11 C12 1_555 1_555
C12 C13 1_555 1_555
C13 H7 1_555 1_555
C14 C13 1_555 1_555
H8 C14 1_555 1_555
C15 N3 1_555 1_555
H9 C15 1_555 1_555
C16 C17 1_555 1_555
C17 C18 1_555 1_555
C18 H10 1_555 1_555
C19 C18 1_555 1_555
H11 C19 1_555 1_555
C20 N4 1_555 1_555
H12 C20 1_555 1_555
C21 C22 1_555 1_555
C22 C23 1_555 1_555
C23 C24 1_555 1_555
C24 H13 1_555 1_555
C25 C24 1_555 1_555
C26 C21 1_555 1_555
C27 C28 1_555 1_555
C28 C29 1_555 1_555
C29 C30 1_555 1_555
C30 H14 1_555 1_555
C31 C30 1_555 1_555
C32 C27 1_555 1_555
C33 C34 1_555 1_555
C34 C35 1_555 1_555
C35 C36 1_555 1_555
C36 H15 1_555 1_555
C37 C36 1_555 1_555
C38 C33 1_555 1_555
C39 C40 1_555 1_555
C40 C41 1_555 1_555
C41 C42 1_555 1_555
C42 H16 1_555 1_555
C43 C42 1_555 1_555
C44 C39 1_555 1_555
B1 O1 1_555 1_555
B2 O3 1_555 1_555
B3 O5 1_555 1_555
B4 O7 1_555 1_555
C45 H17 1_555 1_555
C46 C45 1_555 1_555
H18 C46 1_555 1_555
C47 C46 1_555 1_555
H19 C47 1_555 1_555
C48 C47 1_555 1_555
H20 C48 1_555 1_555
C49 C48 1_555 1_555
H21 C49 1_555 1_555
C50 C45 1_555 1_555
H22 C50 1_555 1_555
C51 H23 1_555 1_555
C52 C51 1_555 1_555
H24 C52 1_555 1_555
C53 C52 1_555 1_555
H25 C53 1_555 1_555
C54 C53 1_555 1_555
H26 C54 1_555 1_555
C55 C54 1_555 1_555
H27 C55 1_555 1_555
C56 C51 1_555 1_555
H28 C56 1_555 1_555
O2 B1 1_555 1_555
O4 B2 1_555 1_555
O6 B3 1_555 1_555
O8 B4 1_555 1_555
N1 B2 1_555 1_555
N2 B3 1_555 1_555
N3 B4 1_555 1_555
N4 B1 1_555 1_555
C4 C5 1_555 1_555
C9 C10 1_555 1_555
C14 C15 1_555 1_555
C19 C20 1_555 1_555
C21 B1 1_555 1_555
C25 C26 1_555 1_555
C27 B2 1_555 1_555
C31 C32 1_555 1_555
C33 B3 1_555 1_555
C37 C38 1_555 1_555
C39 B4 1_555 1_555
C43 C44 1_555 1_555
C49 C50 1_555 1_555
C55 C56 1_555 1_555

#END
