
#######################################################################
#
#                 Cambridge Crystallographic Data Centre
#                                CCDC 
#
#######################################################################
#
# If this CIF has been generated from an entry in the Cambridge 
# Structural Database, then it will include bibliographic, chemical, 
# crystal, experimental, refinement or atomic coordinate data resulting 
# from the CCDC's data processing and validation procedures.
#
#######################################################################

data_EZAXUZ
_chemical_formula_moiety         'C33 H39 N1 O4 S2'
_chemical_name_systematic        
6',7'-bis(benzyloxy)-5'-((benzyloxy)methyl)-3'-methylhexahydrospiro[1,3-dithiane-2,1'-pyrrolizin]-2'-ol
_symmetry_cell_setting           orthorhombic
_symmetry_space_group_name_H-M   'P 21 21 21'
_symmetry_Int_Tables_number      19
_space_group_name_Hall           'P 2ac 2ab'
loop_
_symmetry_equiv_pos_site_id
_symmetry_equiv_pos_as_xyz
1 x,y,z
2 1/2-x,-y,1/2+z
3 -x,1/2+y,1/2-z
4 1/2+x,1/2-y,-z
_cell_length_a                   10.1866(15)
_cell_length_b                   13.017(2)
_cell_length_c                   22.877(4)
_cell_angle_alpha                90
_cell_angle_beta                 90
_cell_angle_gamma                90
_cell_volume                     3033.47
_exptl_crystal_colour            colorless
_exptl_crystal_description       needle
_cell_formula_units_Z            4
loop_
_atom_site_label
_atom_site_type_symbol
_atom_site_fract_x
_atom_site_fract_y
_atom_site_fract_z
S1 S 0.22303(8) 0.51822(6) 0.02938(3)
S2 S 0.15220(7) 0.39780(6) 0.13698(3)
O1 O 0.03956(18) 0.28910(15) 0.02690(9)
H1 H 0.0201 0.2946 -0.0086
O2 O 0.5557(2) 0.08832(16) 0.10290(9)
O3 O 0.55448(19) 0.31232(16) 0.20461(8)
O4 O 0.5477(2) 0.47935(15) 0.10521(9)
N1 N 0.3745(2) 0.24871(17) 0.07435(9)
C1 C 0.3733(3) 0.3628(2) 0.06984(11)
H2 H 0.4187 0.3826 0.0328
C2 C 0.2274(3) 0.3937(2) 0.06457(11)
C3 C 0.1769(3) 0.3019(2) 0.02768(12)
H3 H 0.2097 0.3089 -0.0133
C4 C 0.2431(3) 0.2097(2) 0.05656(11)
H4 H 0.1926 0.1909 0.0925
C5 C 0.4156(3) 0.2249(2) 0.13488(12)
H5 H 0.3404 0.2398 0.1617
C6 C 0.5206(3) 0.3063(2) 0.14429(11)
H6 H 0.6002 0.2899 0.1204
C7 C 0.4551(3) 0.4024(2) 0.12120(12)
H7 H 0.3951 0.4305 0.1518
C8 C 0.0491(3) 0.5459(2) 0.02892(15)
H8 H 0.0345 0.6122 0.0087
H9 H 0.0033 0.4919 0.0063
C9 C -0.0104(3) 0.5516(3) 0.08928(15)
H10 H -0.1021 0.5761 0.0858
H11 H 0.0387 0.6031 0.1125
C10 C -0.0102(3) 0.4500(3) 0.12232(14)
H12 H -0.0607 0.3990 0.0994
H13 H -0.0563 0.4599 0.1600
C11 C 0.2495(3) 0.1165(2) 0.01654(13)
H14 H 0.2919 0.0594 0.0372
H15 H 0.3004 0.1336 -0.0185
H16 H 0.1604 0.0963 0.0052
C12 C 0.4579(3) 0.1155(2) 0.14428(13)
H17 H 0.4932 0.1075 0.1843
H18 H 0.3814 0.0693 0.1401
C13 C 0.6433(3) 0.0111(2) 0.12524(14)
H19 H 0.6844 -0.0261 0.0922
H20 H 0.5928 -0.0392 0.1487
C14 C 0.7480(3) 0.0583(2) 0.16248(13)
C15 C 0.8452(3) 0.1170(3) 0.13575(16)
H21 H 0.8464 0.1233 0.0944
C16 C 0.9393(4) 0.1658(3) 0.1685(2)
H22 H 1.0057 0.2053 0.1499
C17 C 0.9369(4) 0.1570(3) 0.2287(2)
H23 H 1.0011 0.1913 0.2516
C18 C 0.8419(4) 0.0987(3) 0.25540(17)
H24 H 0.8407 0.0923 0.2968
C19 C 0.7489(4) 0.0497(3) 0.22223(14)
H25 H 0.6838 0.0092 0.2410
C20 C 0.6808(3) 0.3560(3) 0.21349(13)
H26 H 0.6838 0.4251 0.1955
H27 H 0.7477 0.3127 0.1941
C21 C 0.7120(3) 0.3644(2) 0.27702(12)
C22 C 0.8221(3) 0.4197(3) 0.29413(14)
H28 H 0.8741 0.4536 0.2656
C23 C 0.8565(4) 0.4256(3) 0.35257(15)
H29 H 0.9319 0.4637 0.3639
C24 C 0.7829(4) 0.3772(3) 0.39405(15)
H30 H 0.8083 0.3799 0.4340
C25 C 0.6717(4) 0.3244(3) 0.37781(14)
H31 H 0.6182 0.2928 0.4067
C26 C 0.6377(3) 0.3173(3) 0.31943(13)
H32 H 0.5620 0.2794 0.3085
C27 C 0.5203(4) 0.5756(3) 0.1324(2)
H33 H 0.5167 0.5670 0.1754
H34 H 0.4342 0.6019 0.1190
C28 C 0.6266(3) 0.6501(2) 0.11649(15)
C29 C 0.6509(4) 0.6777(3) 0.06061(16)
H35 H 0.5990 0.6478 0.0306
C30 C 0.7439(4) 0.7449(3) 0.0454(2)
H36 H 0.7586 0.7609 0.0054
C31 C 0.8167(4) 0.7896(3) 0.08758(19)
H37 H 0.8816 0.8382 0.0763
C32 C 0.8020(3) 0.7689(3) 0.14517(19)
H38 H 0.8556 0.8012 0.1738
C33 C 0.7014(4) 0.6954(3) 0.16168(18)
H39 H 0.6863 0.6783 0.2015
loop_
_geom_bond_atom_site_label_1
_geom_bond_atom_site_label_2
_geom_bond_site_symmetry_1
_geom_bond_site_symmetry_2
S1 C2 1_555 1_555
S2 C2 1_555 1_555
O1 H1 1_555 1_555
O2 C12 1_555 1_555
O3 C6 1_555 1_555
O4 C7 1_555 1_555
N1 C1 1_555 1_555
C1 H2 1_555 1_555
C2 C1 1_555 1_555
C3 O1 1_555 1_555
H3 C3 1_555 1_555
C4 N1 1_555 1_555
H4 C4 1_555 1_555
C5 N1 1_555 1_555
H5 C5 1_555 1_555
C6 C5 1_555 1_555
H6 C6 1_555 1_555
C7 C1 1_555 1_555
H7 C7 1_555 1_555
C8 S1 1_555 1_555
H8 C8 1_555 1_555
H9 C8 1_555 1_555
C9 C8 1_555 1_555
H10 C9 1_555 1_555
H11 C9 1_555 1_555
C10 S2 1_555 1_555
H12 C10 1_555 1_555
H13 C10 1_555 1_555
C11 C4 1_555 1_555
H14 C11 1_555 1_555
H15 C11 1_555 1_555
H16 C11 1_555 1_555
C12 C5 1_555 1_555
H17 C12 1_555 1_555
H18 C12 1_555 1_555
C13 O2 1_555 1_555
H19 C13 1_555 1_555
H20 C13 1_555 1_555
C14 C13 1_555 1_555
C15 C14 1_555 1_555
H21 C15 1_555 1_555
C16 C15 1_555 1_555
H22 C16 1_555 1_555
C17 C16 1_555 1_555
H23 C17 1_555 1_555
C18 C17 1_555 1_555
H24 C18 1_555 1_555
C19 C14 1_555 1_555
H25 C19 1_555 1_555
C20 O3 1_555 1_555
H26 C20 1_555 1_555
H27 C20 1_555 1_555
C21 C20 1_555 1_555
C22 C21 1_555 1_555
H28 C22 1_555 1_555
C23 C22 1_555 1_555
H29 C23 1_555 1_555
C24 C23 1_555 1_555
H30 C24 1_555 1_555
C25 C24 1_555 1_555
H31 C25 1_555 1_555
C26 C21 1_555 1_555
H32 C26 1_555 1_555
C27 O4 1_555 1_555
H33 C27 1_555 1_555
H34 C27 1_555 1_555
C28 C27 1_555 1_555
C29 C28 1_555 1_555
H35 C29 1_555 1_555
C30 C29 1_555 1_555
H36 C30 1_555 1_555
C31 C30 1_555 1_555
H37 C31 1_555 1_555
C32 C31 1_555 1_555
H38 C32 1_555 1_555
C33 C28 1_555 1_555
H39 C33 1_555 1_555
C2 C3 1_555 1_555
C3 C4 1_555 1_555
C6 C7 1_555 1_555
C9 C10 1_555 1_555
C18 C19 1_555 1_555
C25 C26 1_555 1_555
C32 C33 1_555 1_555

#END
