
#######################################################################
#
#                 Cambridge Crystallographic Data Centre
#                                CCDC 
#
#######################################################################
#
# If this CIF has been generated from an entry in the Cambridge 
# Structural Database, then it will include bibliographic, chemical, 
# crystal, experimental, refinement or atomic coordinate data resulting 
# from the CCDC's data processing and validation procedures.
#
#######################################################################

data_EZAYEK
_chemical_formula_moiety         'C30 H35 N1 O5'
_chemical_name_systematic        
6,7-bis(benzyloxy)-5-((benzyloxy)methyl)-3-methylhexahydro-1H-pyrrolizine-1,2-diol
_symmetry_cell_setting           monoclinic
_symmetry_space_group_name_H-M   'P 21'
_symmetry_Int_Tables_number      4
_space_group_name_Hall           'P 2yb'
loop_
_symmetry_equiv_pos_site_id
_symmetry_equiv_pos_as_xyz
1 x,y,z
2 -x,1/2+y,-z
_cell_length_a                   13.347(4)
_cell_length_b                   5.1520(15)
_cell_length_c                   19.349(6)
_cell_angle_alpha                90
_cell_angle_beta                 97.644(4)
_cell_angle_gamma                90
_cell_volume                     1318.69
_exptl_crystal_colour            colorless
_exptl_crystal_description       needle
_cell_formula_units_Z            2
loop_
_atom_site_label
_atom_site_type_symbol
_atom_site_fract_x
_atom_site_fract_y
_atom_site_fract_z
O1 O -0.09845(12) 0.1770(3) 0.05023(8)
H1 H -0.1044 0.2610 0.0127
O2 O 0.11780(12) -0.0488(3) 0.07264(8)
H2 H 0.1148 -0.1330 0.1095
O3 O 0.25460(12) 0.5059(4) 0.29861(8)
O4 O -0.04458(12) 0.6344(3) 0.32028(8)
O5 O -0.16975(11) 0.7263(4) 0.17290(8)
N1 N 0.08660(14) 0.5443(4) 0.17127(9)
C1 C -0.02045(16) 0.2301(5) 0.10499(11)
H3 H -0.0268 0.1027 0.1432
C2 C 0.08595(17) 0.2074(5) 0.08605(12)
H4 H 0.0904 0.3156 0.0437
C3 C 0.15147(17) 0.3324(5) 0.14767(12)
H5 H 0.1639 0.2009 0.1859
C4 C 0.08316(17) 0.5467(5) 0.24713(11)
H6 H 0.0802 0.3632 0.2636
C5 C -0.01800(17) 0.6760(5) 0.25277(11)
H7 H -0.0126 0.8666 0.2442
C6 C -0.08832(16) 0.5536(5) 0.19362(12)
H8 H -0.1151 0.3858 0.2096
C7 C -0.02050(16) 0.5008(5) 0.13650(11)
H9 H -0.0365 0.6304 0.0981
C8 C 0.17127(17) 0.6796(5) 0.28940(12)
H10 H 0.1896 0.8380 0.2650
H11 H 0.1528 0.7312 0.3354
C9 C 0.3409(2) 0.6234(7) 0.33711(18)
H12 H 0.3241 0.6841 0.3827
H13 H 0.3620 0.7755 0.3113
C10 C 0.42509(19) 0.4302(6) 0.34807(14)
C11 C 0.4883(2) 0.3939(9) 0.29937(19)
H14 H 0.4670 0.4845 0.2566
C12 C 0.5735(8) 0.249(3) 0.2982(7)
H15 H 0.6180 0.2670 0.2640
C13 C 0.5871(7) 0.0819(18) 0.3501(7)
H16 H 0.6403 -0.0419 0.3532
C14 C 0.5174(10) 0.092(3) 0.4030(9)
H17 H 0.5253 -0.0370 0.4383
C15 C 0.4392(3) 0.2786(9) 0.4060(2)
H18 H 0.4009 0.2939 0.4444
C16 C -0.1266(2) 0.7960(8) 0.33446(15)
H19 H -0.1886 0.7505 0.3027
H20 H -0.1104 0.9803 0.3267
C17 C -0.1440(2) 0.7565(6) 0.40887(14)
C18 C -0.0981(2) 0.9119(7) 0.46082(17)
H21 H -0.0534 1.0446 0.4497
C19 C -0.1152(3) 0.8804(8) 0.52893(16)
H22 H -0.0823 0.9903 0.5644
C20 C -0.1790(3) 0.6918(8) 0.54537(16)
H23 H -0.1911 0.6693 0.5923
C21 C -0.2258(3) 0.5348(8) 0.49410(19)
H24 H -0.2707 0.4031 0.5054
C22 C -0.2081(2) 0.5664(7) 0.42591(16)
H25 H -0.2406 0.4556 0.3906
C23 C -0.2495(2) 0.6054(6) 0.12741(15)
H26 H -0.2736 0.4490 0.1499
H27 H -0.2247 0.5517 0.0836
C24 C -0.33398(19) 0.7960(6) 0.11199(13)
C25 C -0.4133(2) 0.7972(7) 0.15030(17)
H28 H -0.4152 0.6730 0.1864
C26 C -0.4905(2) 0.9766(8) 0.13714(18)
H29 H -0.5444 0.9763 0.1646
C27 C -0.4897(2) 1.1534(7) 0.08508(16)
H30 H -0.5431 1.2756 0.0758
C28 C -0.4113(2) 1.1537(6) 0.04622(16)
H31 H -0.4101 1.2773 0.0099
C29 C -0.3337(2) 0.9748(6) 0.05947(14)
H32 H -0.2798 0.9759 0.0320
C30 C 0.25275(18) 0.4276(6) 0.13094(14)
H33 H 0.2919 0.4981 0.1732
H34 H 0.2422 0.5636 0.0953
H35 H 0.2898 0.2828 0.1135
C31? C 0.5569(9) 0.187(3) 0.3201(8)
C32? C 0.5669(8) 0.057(2) 0.3872(8)
C33? C 0.5149(11) 0.116(3) 0.4316(8)
H36? H 0.4862 0.4932 0.2572
H37? H 0.5993 0.1293 0.2874
H38? H 0.6155 0.9225 0.3966
H39? H 0.5258 0.0557 0.4784
H40? H 0.3858 0.2886 0.4345
loop_
_geom_bond_atom_site_label_1
_geom_bond_atom_site_label_2
_geom_bond_site_symmetry_1
_geom_bond_site_symmetry_2
O1 H1 1_555 1_555
O2 H2 1_555 1_555
O3 C8 1_555 1_555
O4 C5 1_555 1_555
O5 C6 1_555 1_555
N1 C3 1_555 1_555
C1 O1 1_555 1_555
H3 C1 1_555 1_555
C2 O2 1_555 1_555
H4 C2 1_555 1_555
C3 C2 1_555 1_555
H5 C3 1_555 1_555
C4 N1 1_555 1_555
H6 C4 1_555 1_555
C5 C4 1_555 1_555
H7 C5 1_555 1_555
C6 C5 1_555 1_555
H8 C6 1_555 1_555
C7 N1 1_555 1_555
H9 C7 1_555 1_555
C8 C4 1_555 1_555
H10 C8 1_555 1_555
H11 C8 1_555 1_555
C9 O3 1_555 1_555
H12 C9 1_555 1_555
H13 C9 1_555 1_555
C10 C9 1_555 1_555
C11 C10 1_555 1_555
H14 C11 1_555 1_555
C12 C11 1_555 1_555
H15 C12 1_555 1_555
C13 C12 1_555 1_555
H16 C13 1_555 1_555
C14 C13 1_555 1_555
H17 C14 1_555 1_555
C15 C10 1_555 1_555
H18 C15 1_555 1_555
C16 O4 1_555 1_555
H19 C16 1_555 1_555
H20 C16 1_555 1_555
C17 C16 1_555 1_555
C18 C17 1_555 1_555
H21 C18 1_555 1_555
C19 C18 1_555 1_555
H22 C19 1_555 1_555
C20 C19 1_555 1_555
H23 C20 1_555 1_555
C21 C20 1_555 1_555
H24 C21 1_555 1_555
C22 C17 1_555 1_555
H25 C22 1_555 1_555
C23 O5 1_555 1_555
H26 C23 1_555 1_555
H27 C23 1_555 1_555
C24 C23 1_555 1_555
C25 C24 1_555 1_555
H28 C25 1_555 1_555
C26 C25 1_555 1_555
H29 C26 1_555 1_555
C27 C26 1_555 1_555
H30 C27 1_555 1_555
C28 C27 1_555 1_555
H31 C28 1_555 1_555
C29 C24 1_555 1_555
H32 C29 1_555 1_555
C30 C3 1_555 1_555
H33 C30 1_555 1_555
H34 C30 1_555 1_555
H35 C30 1_555 1_555
C1 C2 1_555 1_555
C1 C7 1_555 1_555
C6 C7 1_555 1_555
C14 C15 1_555 1_555
C21 C22 1_555 1_555
C28 C29 1_555 1_555

#END
