
#######################################################################
#
#                 Cambridge Crystallographic Data Centre
#                                CCDC 
#
#######################################################################
#
# If this CIF has been generated from an entry in the Cambridge 
# Structural Database, then it will include bibliographic, chemical, 
# crystal, experimental, refinement or atomic coordinate data resulting 
# from the CCDC's data processing and validation procedures.
#
#######################################################################

data_EZAYIO
_chemical_formula_moiety         'C32 H39 N1 O6'
_chemical_name_systematic        
6,7-bis(benzyloxy)-5-((benzyloxy)methyl)-2-(methoxymethoxy)-3-methylhexahydro-1H-pyrrolizin-1-ol
_symmetry_cell_setting           monoclinic
_symmetry_space_group_name_H-M   'P 21'
_symmetry_Int_Tables_number      4
_space_group_name_Hall           'P 2yb'
loop_
_symmetry_equiv_pos_site_id
_symmetry_equiv_pos_as_xyz
1 x,y,z
2 -x,1/2+y,-z
_cell_length_a                   12.634(3)
_cell_length_b                   8.8253(18)
_cell_length_c                   14.418(3)
_cell_angle_alpha                90
_cell_angle_beta                 115.10(3)
_cell_angle_gamma                90
_cell_volume                     1455.78
_exptl_crystal_colour            colorless
_exptl_crystal_description       block
_cell_formula_units_Z            2
loop_
_atom_site_label
_atom_site_type_symbol
_atom_site_fract_x
_atom_site_fract_y
_atom_site_fract_z
O1 O 0.80869(14) 1.20411(19) -0.00023(13)
O2 O 0.86587(14) 0.9387(2) 0.22112(14)
O3 O 0.66351(15) 1.0915(2) 0.25885(12)
O4 O 0.38521(14) 0.9055(2) 0.07103(12)
H1 H 0.3362 0.8357 0.0452
O5 O 0.34794(13) 1.06996(19) -0.11563(13)
O6 O 0.17331(15) 0.9467(3) -0.21964(14)
N1 N 0.60904(15) 1.0468(2) -0.00235(13)
C1 C 0.8959(2) 1.2634(3) -0.02919(19)
H2 H 0.8768 1.3702 -0.0509
H3 H 0.8941 1.2054 -0.0886
C2 C 1.0179(2) 1.2562(3) 0.05635(19)
C3 C 1.0436(2) 1.3241(3) 0.1504(2)
H4 H 0.9836 1.3741 0.1618
C4 C 1.1560(2) 1.3195(4) 0.2277(2)
H5 H 1.1730 1.3668 0.2916
C5 C 1.2439(2) 1.2456(4) 0.2115(2)
H6 H 1.3210 1.2424 0.2646
C6 C 1.2196(2) 1.1767(3) 0.1187(2)
H7 H 1.2795 1.1254 0.1078
C7 C 1.1065(2) 1.1831(3) 0.0411(2)
H8 H 1.0897 1.1368 -0.0231
C8 C 0.8096(2) 1.0424(3) 0.00139(19)
H9 H 0.8901 1.0054 0.0426
H10 H 0.7833 1.0029 -0.0692
C9 C 0.9599(2) 1.0176(3) 0.2979(2)
H11 H 0.9373 1.0543 0.3518
H12 H 0.9827 1.1058 0.2679
C10 C 1.0589(2) 0.9073(3) 0.34164(19)
C11 C 1.0807(3) 0.8313(4) 0.4322(2)
H13 H 1.0346 0.8538 0.4682
C12 C 1.1678(3) 0.7236(5) 0.4711(3)
H14 H 1.1828 0.6745 0.5341
C13 C 1.2329(3) 0.6876(5) 0.4180(3)
H15 H 1.2909 0.6108 0.4431
C14 C 1.2141(3) 0.7631(5) 0.3282(3)
H16 H 1.2600 0.7395 0.2923
C15 C 1.1272(2) 0.8742(4) 0.2905(2)
H17 H 1.1151 0.9273 0.2295
C16 C 0.5792(2) 1.0534(3) 0.29628(19)
H18 H 0.5041 1.0306 0.2373
H19 H 0.5667 1.1426 0.3321
C17 C 0.6131(2) 0.9196(4) 0.36871(17)
C18 C 0.5315(3) 0.8610(5) 0.4005(3)
H20 H 0.4553 0.9036 0.3751
C19 C 0.5607(4) 0.7408(6) 0.4690(3)
H21 H 0.5046 0.7027 0.4908
C20 C 0.6704(4) 0.6762(5) 0.5059(3)
H22 H 0.6896 0.5932 0.5521
C21 C 0.7513(3) 0.7328(5) 0.4752(2)
H23 H 0.8271 0.6892 0.5006
C22 C 0.7231(2) 0.8538(4) 0.4071(2)
H24 H 0.7801 0.8921 0.3866
C23 C 0.72923(18) 0.9864(3) 0.04723(16)
H25 H 0.7251 0.8734 0.0417
C24 C 0.76802(19) 1.0290(3) 0.15897(17)
H26 H 0.7883 1.1390 0.1696
C25 C 0.65994(19) 0.9960(3) 0.17746(16)
H27 H 0.6591 0.8871 0.1963
C26 C 0.55727(18) 1.0289(3) 0.07296(16)
H28 H 0.5175 1.1250 0.0770
C27 C 0.46691(18) 0.9034(3) 0.02788(16)
H29 H 0.5077 0.8032 0.0425
C28 C 0.41886(19) 0.9365(3) -0.08762(17)
H30 H 0.3761 0.8471 -0.1293
C29 C 0.53247(19) 0.9670(3) -0.09885(16)
H31 H 0.5693 0.8671 -0.0999
C30 C 0.5170(2) 1.0534(4) -0.19509(18)
H32 H 0.5935 1.0687 -0.1958
H33 H 0.4810 1.1520 -0.1957
H34 H 0.4666 0.9952 -0.2557
C31 C 0.2288(2) 1.0447(3) -0.13825(19)
H35 H 0.2234 1.0028 -0.0767
H36 H 0.1872 1.1431 -0.1542
C32 C 0.1623(4) 1.0084(8) -0.3138(2)
H37 H 0.1239 0.9346 -0.3687
H38 H 0.2400 1.0322 -0.3095
H39 H 0.1153 1.1011 -0.3286
loop_
_geom_bond_atom_site_label_1
_geom_bond_atom_site_label_2
_geom_bond_site_symmetry_1
_geom_bond_site_symmetry_2
O1 C1 1_555 1_555
O2 C9 1_555 1_555
O3 C16 1_555 1_555
O4 H1 1_555 1_555
O5 C28 1_555 1_555
O6 C31 1_555 1_555
N1 C23 1_555 1_555
C1 H2 1_555 1_555
H3 C1 1_555 1_555
C2 C1 1_555 1_555
C3 C2 1_555 1_555
H4 C3 1_555 1_555
C4 C3 1_555 1_555
H5 C4 1_555 1_555
C5 C4 1_555 1_555
H6 C5 1_555 1_555
C6 C5 1_555 1_555
H7 C6 1_555 1_555
C7 C2 1_555 1_555
H8 C7 1_555 1_555
C8 O1 1_555 1_555
H9 C8 1_555 1_555
H10 C8 1_555 1_555
C9 H11 1_555 1_555
H12 C9 1_555 1_555
C10 C9 1_555 1_555
C11 C10 1_555 1_555
H13 C11 1_555 1_555
C12 C11 1_555 1_555
H14 C12 1_555 1_555
C13 C12 1_555 1_555
H15 C13 1_555 1_555
C14 C13 1_555 1_555
H16 C14 1_555 1_555
C15 C10 1_555 1_555
H17 C15 1_555 1_555
C16 H18 1_555 1_555
H19 C16 1_555 1_555
C17 C16 1_555 1_555
C18 C17 1_555 1_555
H20 C18 1_555 1_555
C19 C18 1_555 1_555
H21 C19 1_555 1_555
C20 C19 1_555 1_555
H22 C20 1_555 1_555
C21 C20 1_555 1_555
H23 C21 1_555 1_555
C22 C17 1_555 1_555
H24 C22 1_555 1_555
C23 C8 1_555 1_555
H25 C23 1_555 1_555
C24 O2 1_555 1_555
H26 C24 1_555 1_555
C25 O3 1_555 1_555
H27 C25 1_555 1_555
C26 N1 1_555 1_555
H28 C26 1_555 1_555
C27 O4 1_555 1_555
H29 C27 1_555 1_555
C28 C27 1_555 1_555
H30 C28 1_555 1_555
C29 N1 1_555 1_555
H31 C29 1_555 1_555
C30 C29 1_555 1_555
H32 C30 1_555 1_555
H33 C30 1_555 1_555
H34 C30 1_555 1_555
C31 O5 1_555 1_555
H35 C31 1_555 1_555
H36 C31 1_555 1_555
C32 O6 1_555 1_555
H37 C32 1_555 1_555
H38 C32 1_555 1_555
H39 C32 1_555 1_555
C6 C7 1_555 1_555
C14 C15 1_555 1_555
C21 C22 1_555 1_555
C23 C24 1_555 1_555
C24 C25 1_555 1_555
C25 C26 1_555 1_555
C26 C27 1_555 1_555
C28 C29 1_555 1_555

#END
