
#######################################################################
#
#                 Cambridge Crystallographic Data Centre
#                                CCDC 
#
#######################################################################
#
# If this CIF has been generated from an entry in the Cambridge 
# Structural Database, then it will include bibliographic, chemical, 
# crystal, experimental, refinement or atomic coordinate data resulting 
# from the CCDC's data processing and validation procedures.
#
#######################################################################

data_EZECOC01
_chemical_formula_moiety         'C10 H10 N2 2+,2(C2 H1 O4 1-)'
_chemical_name_systematic        "4,4'-bipyridinium bis(hydrogen oxalate)"
_symmetry_cell_setting           triclinic
_symmetry_space_group_name_H-M   'P -1'
_symmetry_Int_Tables_number      2
_space_group_name_Hall           '-P 1'
loop_
_symmetry_equiv_pos_site_id
_symmetry_equiv_pos_as_xyz
1 x,y,z
2 -x,-y,-z
_cell_length_a                   3.7117(17)
_cell_length_b                   9.871(4)
_cell_length_c                   10.440(7)
_cell_angle_alpha                116.081(7)
_cell_angle_beta                 97.186(7)
_cell_angle_gamma                97.626(5)
_cell_volume                     333.208
_exptl_crystal_colour            colorless
_exptl_crystal_description       block
_cell_formula_units_Z            1
loop_
_atom_site_label
_atom_site_type_symbol
_atom_site_fract_x
_atom_site_fract_y
_atom_site_fract_z
O1 O 0.1752(5) 0.37572(17) 0.57826(16)
H1 H 0.335(9) 0.452(3) 0.570(3)
O2 O 0.3954(4) 0.35777(16) 0.33653(16)
O3 O 0.0465(4) 0.11899(16) 0.20286(16)
O4 O -0.1645(4) 0.13987(17) 0.45306(16)
C1 C 0.0443(6) 0.2470(2) 0.4561(2)
C2 C 0.1736(6) 0.2405(2) 0.3186(2)
N1 N -0.4345(5) -0.13120(19) 0.15140(19)
H2 H -0.2924 -0.0384 0.1896
C3 C -0.5420(6) -0.1868(2) 0.2403(2)
H3 H -0.4650 -0.1262 0.3429
C4 C -0.7635(6) -0.3316(2) 0.1826(2)
H4 H -0.8383 -0.3709 0.2456
C5 C -0.8793(5) -0.4212(2) 0.0319(2)
C6 C -0.7608(6) -0.3577(2) -0.0553(2)
H5 H -0.8350 -0.4150 -0.1583
C7 C -0.5375(6) -0.2129(2) 0.0066(2)
H6 H -0.4564 -0.1708 -0.0536
N1A N -1.5655(5) -0.86880(19) -0.15140(19)
H2A H -1.7076 -0.9616 -0.1896
C3A C -1.4580(6) -0.8132(2) -0.2403(2)
H3A H -1.5350 -0.8738 -0.3429
C4A C -1.2365(6) -0.6684(2) -0.1826(2)
H4A H -1.1617 -0.6291 -0.2456
C5A C -1.1207(5) -0.5788(2) -0.0319(2)
C6A C -1.2392(6) -0.6423(2) 0.0553(2)
H5A H -1.1650 -0.5850 0.1583
C7A C -1.4625(6) -0.7871(2) -0.0066(2)
H6A H -1.5436 -0.8292 0.0536
loop_
_geom_bond_atom_site_label_1
_geom_bond_atom_site_label_2
_geom_bond_site_symmetry_1
_geom_bond_site_symmetry_2
O1 H1 1_555 1_555
O2 C2 1_555 1_555
O3 C2 1_555 1_555
O4 C1 1_555 1_555
N1 H2 1_555 1_555
C1 O1 1_555 1_555
C2 C1 1_555 1_555
C3 N1 1_555 1_555
H3 C3 1_555 1_555
C4 C3 1_555 1_555
H4 C4 1_555 1_555
C5 C4 1_555 1_555
C6 C5 1_555 1_555
H5 C6 1_555 1_555
C7 N1 1_555 1_555
H6 C7 1_555 1_555
N1A H2A 1_555 1_555
C3A N1A 1_555 1_555
H3A C3A 1_555 1_555
C4A C3A 1_555 1_555
H4A C4A 1_555 1_555
C5A C5 1_555 1_555
C6A C5A 1_555 1_555
H5A C6A 1_555 1_555
C7A N1A 1_555 1_555
H6A C7A 1_555 1_555
C6 C7 1_555 1_555
C4A C5A 1_555 1_555
C6A C7A 1_555 1_555

#END
