
#######################################################################
#
#                 Cambridge Crystallographic Data Centre
#                                CCDC 
#
#######################################################################
#
# If this CIF has been generated from an entry in the Cambridge 
# Structural Database, then it will include bibliographic, chemical, 
# crystal, experimental, refinement or atomic coordinate data resulting 
# from the CCDC's data processing and validation procedures.
#
#######################################################################

data_EZEDUK
_chemical_formula_moiety         'C26 H20 Cl1 N1 O3'
_chemical_name_systematic        
1-(5-(4-chlorophenyl)-4-(4-methoxybenzoyl)-2-phenyl-1H-pyrrol-3-yl)ethanone
_symmetry_cell_setting           triclinic
_symmetry_space_group_name_H-M   'P -1'
_symmetry_Int_Tables_number      2
_space_group_name_Hall           '-P 1'
loop_
_symmetry_equiv_pos_site_id
_symmetry_equiv_pos_as_xyz
1 x,y,z
2 -x,-y,-z
_cell_length_a                   7.3875(4)
_cell_length_b                   11.6702(6)
_cell_length_c                   13.4944(7)
_cell_angle_alpha                64.6470(10)
_cell_angle_beta                 82.9110(10)
_cell_angle_gamma                77.6900(10)
_cell_volume                     1026.5
_exptl_crystal_colour            colorless
_exptl_crystal_description       block
_cell_formula_units_Z            2
loop_
_atom_site_label
_atom_site_type_symbol
_atom_site_fract_x
_atom_site_fract_y
_atom_site_fract_z
Cl1 Cl 0.10466(2) 0.90205(2) 0.11974(2)
O1 O 0.85982(7) 0.53449(5) 0.33864(4)
O2 O 1.24354(7) 0.32732(5) -0.01279(4)
O3 O 1.07758(6) 0.22600(5) 0.48568(4)
N1 N 0.45461(7) 0.28834(5) 0.48636(4)
H1 H 0.3352 0.2893 0.5021
C1 C 0.52945(8) 0.38807(5) 0.40386(5)
C2 C 0.71924(8) 0.35076(5) 0.40536(5)
C3 C 0.76148(8) 0.22398(5) 0.49174(5)
C4 C 0.59130(8) 0.18825(5) 0.53997(5)
C5 C 0.41762(8) 0.51005(5) 0.33359(5)
C6 C 0.25677(8) 0.56556(6) 0.37486(5)
H2 H 0.2149 0.5214 0.4485
C7 C 0.15768(8) 0.68520(6) 0.30855(5)
H3 H 0.0471 0.7221 0.3360
C8 C 0.22254(9) 0.74975(6) 0.20196(5)
C9 C 0.37933(9) 0.69560(6) 0.15797(5)
H4 H 0.4200 0.7401 0.0841
C10 C 0.47533(8) 0.57530(6) 0.22387(5)
H5 H 0.5814 0.5366 0.1944
C11 C 0.85167(8) 0.43423(6) 0.33213(5)
C12 C 0.95884(8) 0.39774(5) 0.24640(5)
C13 C 1.09651(8) 0.46714(6) 0.18278(5)
H6 H 1.1254 0.5332 0.1982
C14 C 1.19052(8) 0.44041(6) 0.09795(5)
H7 H 1.2842 0.4875 0.0557
C15 C 1.14743(8) 0.34371(6) 0.07427(5)
C16 C 1.01298(9) 0.27237(6) 0.13781(5)
H8 H 0.9853 0.2055 0.1229
C17 C 0.91979(8) 0.30021(6) 0.22331(5)
H9 H 0.8280 0.2519 0.2666
C18 C 1.18882(11) 0.23947(7) -0.04632(6)
H10 H 1.2505 0.2475 -0.1170
H11 H 1.0541 0.2594 -0.0538
H12 H 1.2243 0.1512 0.0088
C19 C 0.95016(8) 0.16536(6) 0.52984(5)
C20 C 0.98931(9) 0.03497(6) 0.62393(6)
H13 H 0.9628 -0.0304 0.6031
H14 H 0.9107 0.0352 0.6879
H15 H 1.1200 0.0150 0.6422
C21 C 0.54090(8) 0.07352(6) 0.63353(5)
C22 C 0.58554(9) -0.04821(6) 0.63174(5)
H16 H 0.6505 -0.0580 0.5697
C23 C 0.53519(10) -0.15509(6) 0.72043(6)
H17 H 0.5653 -0.2375 0.7187
C24 C 0.44080(10) -0.14135(7) 0.81169(6)
H18 H 0.4077 -0.2146 0.8725
C25 C 0.39485(10) -0.02054(7) 0.81390(6)
H19 H 0.3302 -0.0113 0.8762
C26 C 0.44366(9) 0.08713(7) 0.72473(5)
H20 H 0.4108 0.1698 0.7260
loop_
_geom_bond_atom_site_label_1
_geom_bond_atom_site_label_2
_geom_bond_site_symmetry_1
_geom_bond_site_symmetry_2
Cl1 C8 1_555 1_555
O1 C11 1_555 1_555
O2 C15 1_555 1_555
O3 C19 1_555 1_555
N1 H1 1_555 1_555
C1 N1 1_555 1_555
C2 C1 1_555 1_555
C3 C2 1_555 1_555
C4 N1 1_555 1_555
C5 C1 1_555 1_555
C6 C5 1_555 1_555
H2 C6 1_555 1_555
C7 C6 1_555 1_555
H3 C7 1_555 1_555
C8 C7 1_555 1_555
C9 C8 1_555 1_555
H4 C9 1_555 1_555
C10 C5 1_555 1_555
H5 C10 1_555 1_555
C11 C2 1_555 1_555
C12 C11 1_555 1_555
C13 C12 1_555 1_555
H6 C13 1_555 1_555
C14 C13 1_555 1_555
H7 C14 1_555 1_555
C15 C14 1_555 1_555
C16 C15 1_555 1_555
H8 C16 1_555 1_555
C17 C12 1_555 1_555
H9 C17 1_555 1_555
C18 O2 1_555 1_555
H10 C18 1_555 1_555
H11 C18 1_555 1_555
H12 C18 1_555 1_555
C19 C3 1_555 1_555
C20 C19 1_555 1_555
H13 C20 1_555 1_555
H14 C20 1_555 1_555
H15 C20 1_555 1_555
C21 C4 1_555 1_555
C22 C21 1_555 1_555
H16 C22 1_555 1_555
C23 C22 1_555 1_555
H17 C23 1_555 1_555
C24 C23 1_555 1_555
H18 C24 1_555 1_555
C25 C24 1_555 1_555
H19 C25 1_555 1_555
C26 C21 1_555 1_555
H20 C26 1_555 1_555
C3 C4 1_555 1_555
C9 C10 1_555 1_555
C16 C17 1_555 1_555
C25 C26 1_555 1_555

#END
