
#######################################################################
#
#                 Cambridge Crystallographic Data Centre
#                                CCDC 
#
#######################################################################
#
# If this CIF has been generated from an entry in the Cambridge 
# Structural Database, then it will include bibliographic, chemical, 
# crystal, experimental, refinement or atomic coordinate data resulting 
# from the CCDC's data processing and validation procedures.
#
#######################################################################

data_EZEJOJ
_chemical_formula_moiety         'C28 H25 N3 O2 S1'
_chemical_name_systematic        
N-(1-(2-Benzylidene-1-phenylhydrazino)-2-phenylethylidene)-4-methylbenzenesulfonamide
_symmetry_cell_setting           monoclinic
_symmetry_space_group_name_H-M   'P 21/n'
_symmetry_Int_Tables_number      14
_space_group_name_Hall           '-P 2yn'
loop_
_symmetry_equiv_pos_site_id
_symmetry_equiv_pos_as_xyz
1 x,y,z
2 1/2-x,1/2+y,1/2-z
3 -x,-y,-z
4 1/2+x,1/2-y,1/2+z
_cell_length_a                   12.9773(9)
_cell_length_b                   11.3139(5)
_cell_length_c                   17.5902(10)
_cell_angle_alpha                90
_cell_angle_beta                 110.053(7)
_cell_angle_gamma                90
_cell_volume                     2426.09
_exptl_crystal_colour            colorless
_exptl_crystal_description       block
_cell_formula_units_Z            4
loop_
_atom_site_label
_atom_site_type_symbol
_atom_site_fract_x
_atom_site_fract_y
_atom_site_fract_z
S1 S 0.34932(5) 0.28388(4) 0.06818(3)
O1 O 0.41736(18) 0.25195(14) 0.02236(10)
O2 O 0.23720(15) 0.31036(14) 0.02263(10)
N1 N 0.48436(13) 0.55700(12) 0.18227(8)
N2 N 0.51229(13) 0.67220(13) 0.16929(9)
N3 N 0.40518(14) 0.38471(13) 0.13291(9)
C1 C 0.51485(15) 0.50279(15) 0.26150(10)
C2 C 0.44537(16) 0.51330(16) 0.30527(11)
H1 H 0.3823 0.5593 0.2861
C3 C 0.47116(17) 0.45407(18) 0.37834(12)
H2 H 0.4251 0.4602 0.4087
C4 C 0.2956(2) 0.73911(18) -0.01833(11)
H3 H 0.3589 0.7653 -0.0266
C5 C 0.2010(2) 0.5949(2) 0.03006(13)
H4 H 0.1994 0.5224 0.0546
C6 C 0.1088(2) 0.6660(2) 0.00749(14)
H5 H 0.0458 0.6412 0.0167
C7 C 0.1103(2) 0.7733(2) -0.02854(13)
H6 H 0.0481 0.8209 -0.0442
C8 C 0.2031(2) 0.8097(2) -0.04129(12)
H7 H 0.2043 0.8825 -0.0656
C9 C 0.56461(18) 0.38619(18) 0.40627(11)
H8 H 0.5812 0.3462 0.4552
C10 C 0.6692(2) 1.04072(19) 0.28469(17)
H9 H 0.6990 1.0859 0.3313
C11 C 0.6489(2) 1.0908(2) 0.21020(19)
H10 H 0.6645 1.1702 0.2060
C12 C 0.6055(2) 1.0237(2) 0.14179(16)
H11 H 0.5917 1.0581 0.0913
C13 C 0.58188(17) 0.90554(18) 0.14691(13)
H12 H 0.5540 0.8604 0.1001
C14 C 0.64509(18) 0.92271(18) 0.29055(13)
H13 H 0.6596 0.8888 0.3413
C15 C 0.63354(17) 0.37721(17) 0.36227(12)
H14 H 0.6969 0.3316 0.3815
C16 C 0.60862(16) 0.43593(16) 0.28946(11)
H15 H 0.6551 0.4303 0.2595
C17 C 0.56884(15) 0.73236(15) 0.23064(11)
H16 H 0.5907 0.6980 0.2818
C18 C 0.59977(15) 0.85434(16) 0.22191(11)
C19 C 0.31776(18) 0.05683(17) 0.10067(13)
H17 H 0.2953 0.0470 0.0449
C20 C 0.35090(16) 0.16659(16) 0.13443(11)
C21 C 0.42711(15) 0.49177(16) 0.11669(10)
C22 C 0.38379(18) 0.17990(18) 0.21691(12)
H18 H 0.4071 0.2532 0.2404
C23 C 0.3820(2) 0.08371(19) 0.26477(13)
H19 H 0.4035 0.0937 0.3205
C24 C 0.34944(17) -0.02654(18) 0.23235(13)
C25 C 0.31791(18) -0.03810(18) 0.14957(14)
H20 H 0.2962 -0.1118 0.1262
C26 C 0.3496(2) -0.1309(2) 0.28541(16)
H21 H 0.2998 -0.1164 0.3140
H22 H 0.4222 -0.1426 0.3235
H23 H 0.3269 -0.2003 0.2525
C27 C 0.29495(17) 0.62980(16) 0.01679(10)
C28 C 0.39367(17) 0.54976(17) 0.03477(10)
H24 H 0.3777 0.4887 -0.0064
H25 H 0.4550 0.5956 0.0312
loop_
_geom_bond_atom_site_label_1
_geom_bond_atom_site_label_2
_geom_bond_site_symmetry_1
_geom_bond_site_symmetry_2
S1 O1 1_555 1_555
O2 S1 1_555 1_555
N1 N2 1_555 1_555
N2 C17 1_555 1_555
N3 S1 1_555 1_555
C1 N1 1_555 1_555
C2 C1 1_555 1_555
H1 C2 1_555 1_555
C3 C2 1_555 1_555
H2 C3 1_555 1_555
C4 H3 1_555 1_555
C5 H4 1_555 1_555
C6 C5 1_555 1_555
H5 C6 1_555 1_555
C7 C6 1_555 1_555
H6 C7 1_555 1_555
C8 C4 1_555 1_555
H7 C8 1_555 1_555
C9 C3 1_555 1_555
H8 C9 1_555 1_555
C10 H9 1_555 1_555
C11 C10 1_555 1_555
H10 C11 1_555 1_555
C12 C11 1_555 1_555
H11 C12 1_555 1_555
C13 C12 1_555 1_555
H12 C13 1_555 1_555
C14 C10 1_555 1_555
H13 C14 1_555 1_555
C15 C9 1_555 1_555
H14 C15 1_555 1_555
C16 C1 1_555 1_555
H15 C16 1_555 1_555
C17 H16 1_555 1_555
C18 C13 1_555 1_555
C19 H17 1_555 1_555
C20 S1 1_555 1_555
C21 N1 1_555 1_555
C22 C20 1_555 1_555
H18 C22 1_555 1_555
C23 C22 1_555 1_555
H19 C23 1_555 1_555
C24 C23 1_555 1_555
C25 C19 1_555 1_555
H20 C25 1_555 1_555
C26 C24 1_555 1_555
H21 C26 1_555 1_555
H22 C26 1_555 1_555
H23 C26 1_555 1_555
C27 C4 1_555 1_555
C28 C21 1_555 1_555
H24 C28 1_555 1_555
H25 C28 1_555 1_555
N3 C21 1_555 1_555
C5 C27 1_555 1_555
C7 C8 1_555 1_555
C14 C18 1_555 1_555
C15 C16 1_555 1_555
C17 C18 1_555 1_555
C19 C20 1_555 1_555
C24 C25 1_555 1_555
C27 C28 1_555 1_555

#END
