
#######################################################################
#
#                 Cambridge Crystallographic Data Centre
#                                CCDC 
#
#######################################################################
#
# If this CIF has been generated from an entry in the Cambridge 
# Structural Database, then it will include bibliographic, chemical, 
# crystal, experimental, refinement or atomic coordinate data resulting 
# from the CCDC's data processing and validation procedures.
#
#######################################################################

data_EZEJOK
_chemical_formula_moiety         'C15 H10 O5,C10 H8 N2'
_chemical_name_systematic        
"5,7-dihydroxy-3-(4-hydroxyphenyl)-4H-chromen-4-one 4,4'-bipyridine"
_symmetry_cell_setting           triclinic
_symmetry_space_group_name_H-M   'P -1'
_symmetry_Int_Tables_number      2
_space_group_name_Hall           '-P 1'
loop_
_symmetry_equiv_pos_site_id
_symmetry_equiv_pos_as_xyz
1 x,y,z
2 -x,-y,-z
_cell_length_a                   8.1422(4)
_cell_length_b                   10.3279(5)
_cell_length_c                   12.2391(8)
_cell_angle_alpha                101.670(5)
_cell_angle_beta                 101.846(5)
_cell_angle_gamma                95.656(4)
_cell_volume                     975.875
_exptl_crystal_colour            yellow
_exptl_crystal_description       plate
_cell_formula_units_Z            2
loop_
_atom_site_label
_atom_site_type_symbol
_atom_site_fract_x
_atom_site_fract_y
_atom_site_fract_z
O1 O 1.11552(18) 1.03796(15) 0.25981(14)
O2 O 0.77743(17) 0.82489(15) 0.38438(13)
O3 O 1.35514(18) 0.94218(19) 0.37208(16)
H1 H 1.3091 0.9868 0.3298
C1 C 1.0647(3) 0.8891(2) 0.37494(17)
O4 O 0.5439(2) 1.24261(18) -0.07114(14)
H2 H 0.4589 1.2727 -0.0576
C2 C 1.0100(3) 0.9726(2) 0.29730(18)
C3 C 0.7273(3) 0.9022(2) 0.31023(19)
H3 H 0.6116 0.9055 0.2892
O5 O 1.2018(2) 0.62462(17) 0.57760(15)
H4 H 1.3048 0.6251 0.5916
C4 C 0.9912(3) 0.7267(2) 0.48234(19)
H5 H 0.9095 0.6774 0.5065
C5 C 0.8290(3) 0.9744(2) 0.26428(18)
C6 C 0.9468(3) 0.8139(2) 0.41459(18)
C7 C 0.7565(3) 1.0509(2) 0.18011(18)
C8 C 1.2842(3) 0.7900(2) 0.48002(18)
H6 H 1.3983 0.7836 0.5047
C9 C 0.6092(3) 1.1801(2) 0.01291(19)
C10 C 0.8155(3) 1.0479(2) 0.08067(18)
H7 H 0.9059 1.0023 0.0698
C11 C 0.7427(3) 1.1110(2) -0.0015(2)
H8 H 0.7837 1.1072 -0.0674
C12 C 0.5492(3) 1.1841(2) 0.11083(19)
H9 H 0.4594 1.2305 0.1216
C13 C 1.1611(3) 0.7137(2) 0.51397(19)
C14 C 1.2366(3) 0.8744(2) 0.41032(18)
C15 C 0.6217(3) 1.1196(2) 0.19286(19)
H10 H 0.5791 1.1225 0.2581
N1 N 0.4722(2) 0.41075(19) 0.35583(16)
C16 C 0.0301(3) 0.5400(2) 0.17726(18)
C17 C 0.1824(3) 0.4937(2) 0.23718(18)
C18 C 0.3412(3) 0.5709(2) 0.2664(2)
H11 H 0.3543 0.6528 0.2463
C19 C -0.1015(3) 0.6785(2) 0.0610(2)
H12 H -0.0891 0.7436 0.0195
N2 N -0.2577(3) 0.6318(2) 0.06597(17)
C20 C 0.0422(3) 0.6358(2) 0.11358(19)
H13 H 0.1480 0.6713 0.1065
C21 C -0.1324(3) 0.4905(2) 0.1813(2)
H14 H -0.1487 0.4255 0.2222
C22 C 0.4778(3) 0.5269(2) 0.3243(2)
H15 H 0.5820 0.5816 0.3432
C23 C 0.1757(3) 0.3720(2) 0.2691(2)
H16 H 0.0733 0.3152 0.2516
C24 C 0.3203(3) 0.3363(2) 0.3264(2)
H17 H 0.3120 0.2540 0.3462
C25 C -0.2695(3) 0.5376(3) 0.1246(2)
H18 H -0.3772 0.5012 0.1274
loop_
_geom_bond_atom_site_label_1
_geom_bond_atom_site_label_2
_geom_bond_site_symmetry_1
_geom_bond_site_symmetry_2
O1 C2 1_555 1_555
O2 C3 1_555 1_555
O3 H1 1_555 1_555
C1 C2 1_555 1_555
O4 H2 1_555 1_555
C2 C5 1_555 1_555
C3 H3 1_555 1_555
O5 H4 1_555 1_555
C4 H5 1_555 1_555
C5 C3 1_555 1_555
C6 O2 1_555 1_555
C7 C5 1_555 1_555
C8 H6 1_555 1_555
C9 O4 1_555 1_555
C10 C7 1_555 1_555
H7 C10 1_555 1_555
C11 C9 1_555 1_555
H8 C11 1_555 1_555
C12 C9 1_555 1_555
H9 C12 1_555 1_555
C13 O5 1_555 1_555
C14 O3 1_555 1_555
C15 C7 1_555 1_555
H10 C15 1_555 1_555
N1 C22 1_555 1_555
C16 C17 1_555 1_555
C17 C18 1_555 1_555
C18 H11 1_555 1_555
C19 H12 1_555 1_555
N2 C19 1_555 1_555
C20 C16 1_555 1_555
H13 C20 1_555 1_555
C21 C16 1_555 1_555
H14 C21 1_555 1_555
C22 C18 1_555 1_555
H15 C22 1_555 1_555
C23 C17 1_555 1_555
H16 C23 1_555 1_555
C24 N1 1_555 1_555
H17 C24 1_555 1_555
C25 N2 1_555 1_555
H18 C25 1_555 1_555
C1 C6 1_555 1_555
C1 C14 1_555 1_555
C4 C6 1_555 1_555
C4 C13 1_555 1_555
C8 C13 1_555 1_555
C8 C14 1_555 1_555
C10 C11 1_555 1_555
C12 C15 1_555 1_555
C19 C20 1_555 1_555
C21 C25 1_555 1_555
C23 C24 1_555 1_555

#END
