
#######################################################################
#
#                 Cambridge Crystallographic Data Centre
#                                CCDC 
#
#######################################################################
#
# If this CIF has been generated from an entry in the Cambridge 
# Structural Database, then it will include bibliographic, chemical, 
# crystal, experimental, refinement or atomic coordinate data resulting 
# from the CCDC's data processing and validation procedures.
#
#######################################################################

data_EZEKAW
_chemical_formula_moiety         'C90 H98 N2 O8,C1 H1 Cl3'
_chemical_name_systematic        
'5,11,17,23-tetrakis(adamantan-1-yl)-26,28-dihydroxy-25,27-bis(3-(1,3-dioxoisoindol-2-yl)propoxy)calix(4)arene chloroform solvate'
_symmetry_cell_setting           monoclinic
_symmetry_space_group_name_H-M   'C 2/c'
_symmetry_Int_Tables_number      15
_space_group_name_Hall           '-C 2yn'
loop_
_symmetry_equiv_pos_site_id
_symmetry_equiv_pos_as_xyz
1 x,y,z
2 -x,y,1/2-z
3 1/2+x,1/2+y,z
4 1/2-x,1/2+y,1/2-z
5 -x,-y,-z
6 x,-y,1/2+z
7 1/2-x,1/2-y,-z
8 1/2+x,1/2-y,1/2+z
_cell_length_a                   33.395(3)
_cell_length_b                   23.6578(16)
_cell_length_c                   24.4989(18)
_cell_angle_alpha                90
_cell_angle_beta                 120.257(5)
_cell_angle_gamma                90
_cell_volume                     16718.7
_exptl_crystal_colour            colorless
_exptl_crystal_description       block
_cell_formula_units_Z            8
loop_
_atom_site_label
_atom_site_type_symbol
_atom_site_fract_x
_atom_site_fract_y
_atom_site_fract_z
C1 C 0.85785(14) 0.48009(15) 0.68052(16)
H1 H 0.8904 0.4912 0.6961
H2 H 0.8526 0.4427 0.6599
C2 C 0.71008(14) 0.52987(15) 0.47591(16)
H3 H 0.7025 0.5588 0.4430
H4 H 0.7160 0.4938 0.4606
C3 C 0.62316(14) 0.42152(15) 0.56286(17)
H5 H 0.5902 0.4141 0.5491
H6 H 0.6360 0.3872 0.5542
C4 C 0.76752(12) 0.40226(14) 0.78055(16)
H7 H 0.7727 0.3978 0.8239
H8 H 0.7700 0.3644 0.7654
C5 C 0.82533(13) 0.52344(14) 0.63285(17)
C6 C 0.78668(14) 0.50856(14) 0.57537(17)
C7 C 0.75400(13) 0.54750(14) 0.53603(16)
C8 C 0.76130(13) 0.60484(14) 0.55423(16)
H9 H 0.7388 0.6321 0.5283
C9 C 0.80062(13) 0.62234(14) 0.60929(17)
C10 C 0.83151(13) 0.58096(14) 0.64762(18)
H10 H 0.8582 0.5924 0.6858
O1 O 0.77877(9) 0.45129(9) 0.55714(11)
C11 C 0.80120(15) 0.43124(15) 0.52344(18)
H11 H 0.8353 0.4340 0.5504
H12 H 0.7913 0.4539 0.4847
C12 C 0.78660(15) 0.37065(14) 0.50687(17)
H13 H 0.7997 0.3558 0.4814
H14 H 0.7524 0.3691 0.4803
C13 C 0.80195(14) 0.33221(15) 0.56459(18)
H15 H 0.8091 0.3560 0.6017
H16 H 0.7759 0.3070 0.5566
N1 N 0.84214(12) 0.29790(12) 0.57943(14)
C14 C 0.88804(15) 0.31632(17) 0.61149(18)
O2 O 0.90013(11) 0.36380(12) 0.63257(14)
C15 C 0.91660(15) 0.26788(17) 0.61155(18)
C16 C 0.96298(17) 0.2635(2) 0.6337(2)
H17 H 0.9836 0.2938 0.6554
C17 C 0.97883(18) 0.2118(2) 0.6230(3)
H18 H 1.0110 0.2071 0.6381
C18 C 0.94934(19) 0.1683(2) 0.5916(2)
H19 H 0.9614 0.1342 0.5850
C19 C 0.90246(17) 0.17260(19) 0.5692(2)
H20 H 0.8820 0.1421 0.5475
C20 C 0.88611(15) 0.22335(16) 0.57938(18)
C21 C 0.83908(15) 0.24142(16) 0.56064(18)
O3 O 0.80330(11) 0.21451(11) 0.53433(14)
C22 C 0.81166(13) 0.68412(14) 0.62953(16)
C23 C 0.81962(15) 0.69155(15) 0.69706(17)
H21 H 0.8449 0.6662 0.7266
H22 H 0.7911 0.6811 0.6975
C24 C 0.77244(14) 0.72426(14) 0.58539(18)
H23 H 0.7436 0.7135 0.5848
H24 H 0.7669 0.7204 0.5419
C25 C 0.85562(14) 0.70249(16) 0.6295(2)
H25 H 0.8507 0.6988 0.5863
H26 H 0.8816 0.6773 0.6577
C26 C 0.83249(15) 0.75370(16) 0.71871(18)
H27 H 0.8377 0.7576 0.7625
C27 C 0.78439(15) 0.78641(15) 0.60694(18)
H28 H 0.7583 0.8115 0.5772
C28 C 0.86833(15) 0.76392(16) 0.6519(2)
H29 H 0.8972 0.7748 0.6517
C29 C 0.79192(15) 0.79263(16) 0.67378(19)
H30 H 0.7634 0.7818 0.6741
H31 H 0.7993 0.8324 0.6879
C30 C 0.87616(16) 0.76991(17) 0.7191(2)
H32 H 0.9020 0.7451 0.7485
H33 H 0.8845 0.8094 0.7338
C31 C 0.82830(15) 0.80268(16) 0.6069(2)
H34 H 0.8363 0.8425 0.6205
H35 H 0.8232 0.7992 0.5636
C32 C 0.66893(14) 0.52242(14) 0.48495(16)
C33 C 0.66369(14) 0.47572(14) 0.51589(17)
C34 C 0.62613(14) 0.47100(15) 0.52515(16)
C35 C 0.59208(14) 0.51255(15) 0.50088(16)
H36 H 0.5659 0.5086 0.5060
C36 C 0.59511(14) 0.56044(15) 0.46884(16)
C37 C 0.63331(14) 0.56334(14) 0.46202(16)
H37 H 0.6360 0.5951 0.4404
O4 O 0.69447(10) 0.43176(10) 0.53823(13)
H38 H 0.7187 0.4409 0.5380
C38 C 0.55787(14) 0.60625(16) 0.44237(18)
C39 C 0.5282(2) 0.6005(3) 0.3722(2)
H39 H 0.5170 0.5610 0.3622
H40 H 0.5475 0.6079 0.3529
C40 C 0.5793(2) 0.6641(2) 0.4564(5)
H41 H 0.6055 0.6649 0.4482
H42 H 0.5915 0.6735 0.5014
C41 C 0.5249(2) 0.6042(2) 0.4676(3)
H43 H 0.5429 0.6063 0.5143
H44 H 0.5084 0.5675 0.4560
C42 C 0.4854(3) 0.6411(3) 0.3415(3)
H45 H 0.4644 0.6314 0.2959
C43 C 0.5369(2) 0.7143(2) 0.4079(4)
H46 H 0.5498 0.7522 0.4068
C44 C 0.4887(2) 0.6525(2) 0.4421(3)
H47 H 0.4700 0.6535 0.4636
C45 C 0.5080(2) 0.6898(3) 0.3472(3)
H48 H 0.4844 0.7185 0.3211
H49 H 0.5275 0.6838 0.3278
C46 C 0.4597(2) 0.6445(3) 0.3741(3)
H50 H 0.4415 0.6094 0.3662
H51 H 0.4375 0.6764 0.3564
C47 C 0.5194(4) 0.7099(2) 0.4556(4)
H52 H 0.5002 0.7433 0.4514
H53 H 0.5461 0.7092 0.4993
C48 C 0.64975(14) 0.43372(15) 0.63351(17)
C49 C 0.69285(14) 0.40844(14) 0.67509(17)
C50 C 0.71873(13) 0.42460(14) 0.73799(16)
C51 C 0.69992(13) 0.46370(14) 0.76102(17)
H54 H 0.7174 0.4747 0.8041
C52 C 0.65624(13) 0.48724(14) 0.72295(17)
C53 C 0.63270(14) 0.47211(16) 0.65915(18)
H55 H 0.6035 0.4891 0.6320
O5 O 0.71006(9) 0.36666(9) 0.65184(11)
C54 C 0.69127(14) 0.31119(14) 0.64919(18)
H56 H 0.6572 0.3135 0.6306
H57 H 0.7048 0.2953 0.6923
C55 C 0.70271(15) 0.27381(16) 0.60928(17)
H58 H 0.6968 0.2951 0.5711
H59 H 0.6815 0.2409 0.5951
C56 C 0.75238(15) 0.25230(15) 0.64235(18)
H60 H 0.7582 0.2328 0.6112
H61 H 0.7739 0.2848 0.6595
N2 N 0.76189(11) 0.21330(12) 0.69383(14)
C57 C 0.78878(14) 0.22654(15) 0.75833(18)
O6 O 0.80636(10) 0.27240(10) 0.77901(12)
C58 C 0.79002(13) 0.17437(14) 0.79280(16)
C59 C 0.81270(14) 0.16316(15) 0.85686(17)
H62 H 0.8317 0.1907 0.8872
C60 C 0.80635(14) 0.10936(15) 0.87485(18)
H63 H 0.8224 0.0996 0.9184
C61 C 0.77741(14) 0.07000(15) 0.83100(17)
H64 H 0.7725 0.0346 0.8451
C62 C 0.75520(13) 0.08142(14) 0.76632(17)
H65 H 0.7359 0.0542 0.7358
C63 C 0.76256(12) 0.13350(13) 0.74897(16)
C64 C 0.74576(14) 0.15760(14) 0.68452(18)
O7 O 0.72340(9) 0.13551(10) 0.63329(11)
C65 C 0.63253(13) 0.52671(15) 0.74762(17)
C66 C 0.58962(14) 0.49693(17) 0.74183(19)
H66 H 0.5686 0.4858 0.6973
H67 H 0.5994 0.4622 0.7678
C67 C 0.61676(15) 0.58191(16) 0.70804(18)
H68 H 0.6441 0.6019 0.7120
H69 H 0.5959 0.5725 0.6629
C68 C 0.66373(14) 0.54339(16) 0.81731(17)
H70 H 0.6739 0.5088 0.8437
H71 H 0.6917 0.5629 0.8226
C69 C 0.56389(16) 0.53540(19) 0.7635(2)
H72 H 0.5360 0.5153 0.7587
C70 C 0.59145(16) 0.62028(18) 0.7309(2)
H73 H 0.5815 0.6556 0.7050
C71 C 0.63858(15) 0.58203(17) 0.83975(19)
H74 H 0.6597 0.5920 0.8851
C72 C 0.54862(15) 0.58907(19) 0.7227(2)
H75 H 0.5282 0.5788 0.6777
H76 H 0.5309 0.6139 0.7355
C73 C 0.59556(17) 0.55133(19) 0.8324(2)
H77 H 0.6051 0.5169 0.8589
H78 H 0.5788 0.5763 0.8467
C74 C 0.62327(17) 0.63564(17) 0.79997(19)
H79 H 0.6067 0.6607 0.8144
H80 H 0.6507 0.6561 0.8049
C75 C 0.80537(13) 0.43995(13) 0.78326(16)
C76 C 0.81550(13) 0.44016(14) 0.73460(17)
C77 C 0.84926(13) 0.47621(14) 0.73593(17)
C78 C 0.87349(13) 0.51130(14) 0.78796(17)
H81 H 0.8968 0.5353 0.7893
C79 C 0.86515(13) 0.51277(14) 0.83827(17)
C80 C 0.83024(12) 0.47681(14) 0.83431(16)
H82 H 0.8232 0.4775 0.8674
O8 O 0.79466(10) 0.40453(10) 0.68294(12)
H83 H 0.7696 0.3924 0.6786
C81 C 0.89288(13) 0.55363(14) 0.89349(17)
C82 C 0.87960(14) 0.54942(16) 0.94508(17)
H84 H 0.8463 0.5582 0.9267
H85 H 0.8849 0.5104 0.9619
C83 C 0.88439(13) 0.61539(14) 0.86860(17)
H86 H 0.8936 0.6193 0.8362
H87 H 0.8510 0.6244 0.8486
C84 C 0.94492(14) 0.54145(15) 0.92378(18)
H88 H 0.9514 0.5023 0.9402
H89 H 0.9543 0.5449 0.8915
C85 C 0.90861(15) 0.59082(16) 0.99888(18)
H90 H 0.8997 0.5873 1.0320
C86 C 0.91240(14) 0.65690(15) 0.92282(19)
H91 H 0.9064 0.6964 0.9061
C87 C 0.97316(14) 0.58273(16) 0.97782(18)
H92 H 1.0069 0.5738 0.9971
C88 C 0.89877(16) 0.65106(16) 0.97278(19)
H93 H 0.8654 0.6596 0.9542
H94 H 0.9166 0.6783 1.0074
C89 C 0.95938(14) 0.57761(17) 1.02778(18)
H95 H 0.9656 0.5388 1.0452
H96 H 0.9779 0.6042 1.0628
C90 C 0.96428(14) 0.64309(16) 0.9520(2)
H97 H 0.9734 0.6467 0.9194
H98 H 0.9830 0.6700 0.9865
C91 C 0.63664(19) 0.1282(2) 1.0359(3)
H99 H 0.6372 0.1122 1.0740
Cl1 Cl 0.67433(5) 0.08921(5) 1.02046(7)
Cl2 Cl 0.65517(6) 0.19836(8) 1.05102(9)
Cl3 Cl 0.58039(5) 0.12597(7) 0.97253(11)
loop_
_geom_bond_atom_site_label_1
_geom_bond_atom_site_label_2
_geom_bond_site_symmetry_1
_geom_bond_site_symmetry_2
C1 H1 1_555 1_555
H2 C1 1_555 1_555
C2 H3 1_555 1_555
H4 C2 1_555 1_555
C3 H5 1_555 1_555
H6 C3 1_555 1_555
C4 H7 1_555 1_555
H8 C4 1_555 1_555
C5 C1 1_555 1_555
C6 C5 1_555 1_555
C7 C2 1_555 1_555
C8 C7 1_555 1_555
H9 C8 1_555 1_555
C9 C8 1_555 1_555
C10 C5 1_555 1_555
H10 C10 1_555 1_555
O1 C6 1_555 1_555
C11 O1 1_555 1_555
H11 C11 1_555 1_555
H12 C11 1_555 1_555
C12 C11 1_555 1_555
H13 C12 1_555 1_555
H14 C12 1_555 1_555
C13 C12 1_555 1_555
H15 C13 1_555 1_555
H16 C13 1_555 1_555
N1 C13 1_555 1_555
C14 N1 1_555 1_555
O2 C14 1_555 1_555
C15 C14 1_555 1_555
C16 C15 1_555 1_555
H17 C16 1_555 1_555
C17 C16 1_555 1_555
H18 C17 1_555 1_555
C18 C17 1_555 1_555
H19 C18 1_555 1_555
C19 C18 1_555 1_555
H20 C19 1_555 1_555
C20 C15 1_555 1_555
C21 N1 1_555 1_555
O3 C21 1_555 1_555
C22 C9 1_555 1_555
C23 C22 1_555 1_555
H21 C23 1_555 1_555
H22 C23 1_555 1_555
C24 C22 1_555 1_555
H23 C24 1_555 1_555
H24 C24 1_555 1_555
C25 C22 1_555 1_555
H25 C25 1_555 1_555
H26 C25 1_555 1_555
C26 C23 1_555 1_555
H27 C26 1_555 1_555
C27 C24 1_555 1_555
H28 C27 1_555 1_555
C28 C25 1_555 1_555
H29 C28 1_555 1_555
C29 C26 1_555 1_555
H30 C29 1_555 1_555
H31 C29 1_555 1_555
C30 C26 1_555 1_555
H32 C30 1_555 1_555
H33 C30 1_555 1_555
C31 C27 1_555 1_555
H34 C31 1_555 1_555
H35 C31 1_555 1_555
C32 C2 1_555 1_555
C33 C32 1_555 1_555
C34 C3 1_555 1_555
C35 C34 1_555 1_555
H36 C35 1_555 1_555
C36 C35 1_555 1_555
C37 C32 1_555 1_555
H37 C37 1_555 1_555
O4 C33 1_555 1_555
H38 O4 1_555 1_555
C38 C36 1_555 1_555
C39 C38 1_555 1_555
H39 C39 1_555 1_555
H40 C39 1_555 1_555
C40 C38 1_555 1_555
H41 C40 1_555 1_555
H42 C40 1_555 1_555
C41 C38 1_555 1_555
H43 C41 1_555 1_555
H44 C41 1_555 1_555
C42 C39 1_555 1_555
H45 C42 1_555 1_555
C43 C40 1_555 1_555
H46 C43 1_555 1_555
C44 C41 1_555 1_555
H47 C44 1_555 1_555
C45 C42 1_555 1_555
H48 C45 1_555 1_555
H49 C45 1_555 1_555
C46 C42 1_555 1_555
H50 C46 1_555 1_555
H51 C46 1_555 1_555
C47 C43 1_555 1_555
H52 C47 1_555 1_555
H53 C47 1_555 1_555
C48 C3 1_555 1_555
C49 C48 1_555 1_555
C50 C4 1_555 1_555
C51 C50 1_555 1_555
H54 C51 1_555 1_555
C52 C51 1_555 1_555
C53 C48 1_555 1_555
H55 C53 1_555 1_555
O5 C49 1_555 1_555
C54 O5 1_555 1_555
H56 C54 1_555 1_555
H57 C54 1_555 1_555
C55 C54 1_555 1_555
H58 C55 1_555 1_555
H59 C55 1_555 1_555
C56 C55 1_555 1_555
H60 C56 1_555 1_555
H61 C56 1_555 1_555
N2 C56 1_555 1_555
C57 N2 1_555 1_555
O6 C57 1_555 1_555
C58 C57 1_555 1_555
C59 C58 1_555 1_555
H62 C59 1_555 1_555
C60 C59 1_555 1_555
H63 C60 1_555 1_555
C61 C60 1_555 1_555
H64 C61 1_555 1_555
C62 C61 1_555 1_555
H65 C62 1_555 1_555
C63 C58 1_555 1_555
C64 N2 1_555 1_555
O7 C64 1_555 1_555
C65 C52 1_555 1_555
C66 C65 1_555 1_555
H66 C66 1_555 1_555
H67 C66 1_555 1_555
C67 C65 1_555 1_555
H68 C67 1_555 1_555
H69 C67 1_555 1_555
C68 C65 1_555 1_555
H70 C68 1_555 1_555
H71 C68 1_555 1_555
C69 C66 1_555 1_555
H72 C69 1_555 1_555
C70 C67 1_555 1_555
H73 C70 1_555 1_555
C71 C68 1_555 1_555
H74 C71 1_555 1_555
C72 C69 1_555 1_555
H75 C72 1_555 1_555
H76 C72 1_555 1_555
C73 C69 1_555 1_555
H77 C73 1_555 1_555
H78 C73 1_555 1_555
C74 C70 1_555 1_555
H79 C74 1_555 1_555
H80 C74 1_555 1_555
C75 C4 1_555 1_555
C76 C75 1_555 1_555
C77 C1 1_555 1_555
C78 C77 1_555 1_555
H81 C78 1_555 1_555
C79 C78 1_555 1_555
C80 C75 1_555 1_555
H82 C80 1_555 1_555
O8 C76 1_555 1_555
H83 O8 1_555 1_555
C81 C79 1_555 1_555
C82 C81 1_555 1_555
H84 C82 1_555 1_555
H85 C82 1_555 1_555
C83 C81 1_555 1_555
H86 C83 1_555 1_555
H87 C83 1_555 1_555
C84 C81 1_555 1_555
H88 C84 1_555 1_555
H89 C84 1_555 1_555
C85 C82 1_555 1_555
H90 C85 1_555 1_555
C86 C83 1_555 1_555
H91 C86 1_555 1_555
C87 C84 1_555 1_555
H92 C87 1_555 1_555
C88 C85 1_555 1_555
H93 C88 1_555 1_555
H94 C88 1_555 1_555
C89 C85 1_555 1_555
H95 C89 1_555 1_555
H96 C89 1_555 1_555
C90 C86 1_555 1_555
H97 C90 1_555 1_555
H98 C90 1_555 1_555
C91 H99 1_555 1_555
Cl1 C91 1_555 1_555
Cl2 C91 1_555 1_555
Cl3 C91 1_555 1_555
C6 C7 1_555 1_555
C9 C10 1_555 1_555
C19 C20 1_555 1_555
C20 C21 1_555 1_555
C27 C29 1_555 1_555
C28 C30 1_555 1_555
C28 C31 1_555 1_555
C33 C34 1_555 1_555
C36 C37 1_555 1_555
C43 C45 1_555 1_555
C44 C46 1_555 1_555
C44 C47 1_555 1_555
C49 C50 1_555 1_555
C52 C53 1_555 1_555
C62 C63 1_555 1_555
C63 C64 1_555 1_555
C70 C72 1_555 1_555
C71 C73 1_555 1_555
C71 C74 1_555 1_555
C76 C77 1_555 1_555
C79 C80 1_555 1_555
C86 C88 1_555 1_555
C87 C89 1_555 1_555
C87 C90 1_555 1_555

#END
