
#######################################################################
#
#                 Cambridge Crystallographic Data Centre
#                                CCDC 
#
#######################################################################
#
# If this CIF has been generated from an entry in the Cambridge 
# Structural Database, then it will include bibliographic, chemical, 
# crystal, experimental, refinement or atomic coordinate data resulting 
# from the CCDC's data processing and validation procedures.
#
#######################################################################

data_EZESIL
_chemical_formula_moiety         'C8 H7 F7 N2'
_chemical_name_systematic        
2-Methyl-4-(perfluoropropyl)-1,2-dihydropyrimidine
_symmetry_cell_setting           monoclinic
_symmetry_space_group_name_H-M   'P 21/c'
_symmetry_Int_Tables_number      14
_space_group_name_Hall           '-P 2ybc'
loop_
_symmetry_equiv_pos_site_id
_symmetry_equiv_pos_as_xyz
1 x,y,z
2 x,1/2-y,1/2+z
3 -x,-y,-z
4 -x,1/2+y,1/2-z
_cell_length_a                   13.286(2)
_cell_length_b                   9.0564(15)
_cell_length_c                   9.0912(15)
_cell_angle_alpha                90
_cell_angle_beta                 92.301(4)
_cell_angle_gamma                90
_cell_volume                     1093
_exptl_crystal_colour            yellow
_cell_formula_units_Z            4
loop_
_atom_site_label
_atom_site_type_symbol
_atom_site_fract_x
_atom_site_fract_y
_atom_site_fract_z
N1 N 0.1308(2) 0.3788(4) 0.5290(3)
N2 N 0.1344(3) 0.3381(4) 0.2726(4)
F1 F 0.20072(19) 0.5222(3) 0.7655(3)
F2 F 0.2636(2) 0.6898(3) 0.6322(3)
F3 F 0.3410(4) 0.3228(6) 0.6663(9)
F4 F 0.4112(3) 0.5320(10) 0.5580(6)
F5 F 0.3715(5) 0.4419(9) 0.9191(7)
F6 F 0.5027(3) 0.4539(7) 0.8059(6)
F7 F 0.4109(4) 0.6352(7) 0.8469(7)
C1 C 0.0691(3) 0.3455(5) 0.3968(5)
C2 C 0.1971(4) 0.4492(6) 0.2570(6)
C3 C 0.2151(4) 0.5437(5) 0.3709(5)
C4 C 0.1919(3) 0.4875(4) 0.5084(4)
C5 C 0.2511(3) 0.5422(5) 0.6433(5)
C6 C 0.3554(4) 0.4719(8) 0.6674(7)
C7 C 0.4141(7) 0.5067(14) 0.8068(11)
C8 C 0.0107(4) 0.2066(7) 0.4153(7)
H1 H 0.028(4) 0.436(6) 0.418(5)
H2 H 0.128(4) 0.263(5) 0.205(5)
H3 H 0.228(3) 0.447(4) 0.170(5)
H4 H 0.256(3) 0.625(4) 0.380(5)
H5 H 0.061(3) 0.128(4) 0.439(4)
H6 H -0.031(3) 0.215(4) 0.501(5)
H7 H -0.018(3) 0.199(5) 0.321(3)
F8? F 0.3881(13) 0.396(2) 0.569(3)
loop_
_geom_bond_atom_site_label_1
_geom_bond_atom_site_label_2
_geom_bond_site_symmetry_1
_geom_bond_site_symmetry_2
N1 C1 1_555 1_555
N2 C1 1_555 1_555
F1 C5 1_555 1_555
F2 C5 1_555 1_555
F3 C6 1_555 1_555
F4 C6 1_555 1_555
F5 C7 1_555 1_555
F6 C7 1_555 1_555
F7 C7 1_555 1_555
C1 C8 1_555 1_555
C2 N2 1_555 1_555
C3 C2 1_555 1_555
C4 N1 1_555 1_555
C5 C4 1_555 1_555
C6 C5 1_555 1_555
C7 C6 1_555 1_555
C8 H5 1_555 1_555
H1 C1 1_555 1_555
H2 N2 1_555 1_555
H3 C2 1_555 1_555
H4 C3 1_555 1_555
H6 C8 1_555 1_555
H7 C8 1_555 1_555
C3 C4 1_555 1_555

#END
