
#######################################################################
#
#                 Cambridge Crystallographic Data Centre
#                                CCDC 
#
#######################################################################
#
# If this CIF has been generated from an entry in the Cambridge 
# Structural Database, then it will include bibliographic, chemical, 
# crystal, experimental, refinement or atomic coordinate data resulting 
# from the CCDC's data processing and validation procedures.
#
#######################################################################

data_EZESUZ
_chemical_compound_source        'parasenecio roborowskii'
_chemical_formula_moiety         'C22 H30 O8'
_chemical_name_systematic        
(3S)-tigloyloxy-(6S)-acetyloxy-(8S,10S)-dihydroxy-(14R,15R)-eremophilenolide
_symmetry_cell_setting           monoclinic
_symmetry_space_group_name_H-M   'I 2'
_symmetry_Int_Tables_number      5
_space_group_name_Hall           'I 2y'
loop_
_symmetry_equiv_pos_site_id
_symmetry_equiv_pos_as_xyz
1 x,y,z
2 -x,y,-z
3 1/2+x,1/2+y,1/2+z
4 1/2-x,1/2+y,1/2-z
_cell_length_a                   13.69526(18)
_cell_length_b                   9.65494(13)
_cell_length_c                   17.1547(2)
_cell_angle_alpha                90
_cell_angle_beta                 105.9082(14)
_cell_angle_gamma                90
_cell_volume                     2181.44
_exptl_crystal_colour            colorless
_exptl_crystal_description       block
_cell_formula_units_Z            4
loop_
_atom_site_label
_atom_site_type_symbol
_atom_site_fract_x
_atom_site_fract_y
_atom_site_fract_z
O1 O -0.83339(12) -0.60300(16) -0.22423(11)
H1 H -0.789(3) -0.671(5) -0.211(3)
O2 O -0.78919(11) -0.81632(16) -0.10044(9)
O3 O -0.77309(18) -0.9974(3) -0.01688(15)
O4 O -0.76988(11) -0.85847(16) -0.27276(10)
H2 H -0.730(2) -0.929(4) -0.2586(18)
O5 O -0.89557(12) -1.01131(15) -0.34027(9)
O6 O -0.94950(15) -1.22960(18) -0.33934(11)
O7 O -1.15681(11) -0.55785(18) -0.17840(10)
O8 O -1.32234(14) -0.6007(3) -0.20226(15)
C1 C -1.00516(18) -0.5462(2) -0.28154(15)
H3 H -0.9955 -0.4726 -0.2417
H4 H -0.9884 -0.5095 -0.3289
C2 C -1.24776(16) -0.5404(3) -0.16503(14)
C3 C -1.11628(18) -0.5899(3) -0.30534(14)
H5 H -1.1585 -0.5085 -0.3214
H6 H -1.1287 -0.6513 -0.3518
C4 C -1.24388(17) -0.4382(2) -0.09927(13)
C5 C -1.14638(16) -0.6624(3) -0.23736(14)
H7 H -1.2128 -0.7058 -0.2600
C6 C -1.32079(19) -0.4408(3) -0.06558(15)
H8 H -1.3724 -0.5042 -0.0866
C7 C -1.07174(15) -0.7745(2) -0.19441(13)
H9 H -1.0767 -0.8489 -0.2342
C8 C -1.3320(3) -0.3520(4) 0.00243(18)
H10 H -1.4027 -0.3409 -0.0011
H11 H -1.3022 -0.2629 -0.0009
H12 H -1.2981 -0.3949 0.0531
C9 C -0.95806(15) -0.7272(2) -0.17034(12)
C10 C -1.1544(2) -0.3446(3) -0.07312(18)
H13 H -1.1433 -0.2988 -0.1196
H14 H -1.0954 -0.3979 -0.0468
H15 H -1.1668 -0.2767 -0.0361
C11 C -0.89253(14) -0.8596(2) -0.13982(12)
H16 H -0.9201 -0.9080 -0.1003
C12 C -0.89298(14) -0.9551(2) -0.20784(12)
C13 C -0.87075(15) -0.89760(19) -0.28280(13)
C14 C -0.93731(16) -0.7733(2) -0.31352(13)
H17 H -1.0070 -0.8040 -0.3352
H18 H -0.9160 -0.7306 -0.3573
C15 C -0.93269(15) -0.6648(2) -0.24667(13)
C16 C -0.92226(16) -1.0864(2) -0.21951(14)
C17 C -0.92481(17) -1.1231(2) -0.30370(15)
C18 C -0.9528(2) -1.1877(3) -0.16501(18)
H19 H -0.9478 -1.1450 -0.1135
H20 H -0.9087 -1.2669 -0.1574
H21 H -1.0216 -1.2166 -0.1890
C19 C -0.93478(18) -0.6218(2) -0.10011(13)
H22 H -0.8657 -0.5910 -0.0896
H23 H -0.9445 -0.6648 -0.0524
H24 H -0.9796 -0.5438 -0.1147
C20 C -1.10812(19) -0.8377(3) -0.12521(16)
H25 H -1.0711 -0.9214 -0.1069
H26 H -1.1793 -0.8583 -0.1443
H27 H -1.0967 -0.7730 -0.0811
C21 C -0.7378(2) -0.8952(3) -0.03835(15)
C22 C -0.6351(2) -0.8376(5) -0.0004(2)
H28 H -0.6182 -0.7713 -0.0364
H29 H -0.5861 -0.9112 0.0100
H30 H -0.6346 -0.7929 0.0497
loop_
_geom_bond_atom_site_label_1
_geom_bond_atom_site_label_2
_geom_bond_site_symmetry_1
_geom_bond_site_symmetry_2
O1 H1 1_555 1_555
O2 C11 1_555 1_555
O3 C21 1_555 1_555
O4 H2 1_555 1_555
O5 C13 1_555 1_555
O6 C17 1_555 1_555
O7 C2 1_555 1_555
O8 C2 1_555 1_555
C1 H3 1_555 1_555
H4 C1 1_555 1_555
C2 C4 1_555 1_555
C3 C1 1_555 1_555
H5 C3 1_555 1_555
H6 C3 1_555 1_555
C4 C6 1_555 1_555
C5 O7 1_555 1_555
H7 C5 1_555 1_555
C6 H8 1_555 1_555
C7 C5 1_555 1_555
H9 C7 1_555 1_555
C8 C6 1_555 1_555
H10 C8 1_555 1_555
H11 C8 1_555 1_555
H12 C8 1_555 1_555
C9 C7 1_555 1_555
C10 C4 1_555 1_555
H13 C10 1_555 1_555
H14 C10 1_555 1_555
H15 C10 1_555 1_555
C11 C9 1_555 1_555
H16 C11 1_555 1_555
C12 C11 1_555 1_555
C13 O4 1_555 1_555
C14 C13 1_555 1_555
H17 C14 1_555 1_555
H18 C14 1_555 1_555
C15 O1 1_555 1_555
C16 C12 1_555 1_555
C17 O5 1_555 1_555
C18 C16 1_555 1_555
H19 C18 1_555 1_555
H20 C18 1_555 1_555
H21 C18 1_555 1_555
C19 C9 1_555 1_555
H22 C19 1_555 1_555
H23 C19 1_555 1_555
H24 C19 1_555 1_555
C20 C7 1_555 1_555
H25 C20 1_555 1_555
H26 C20 1_555 1_555
H27 C20 1_555 1_555
C21 O2 1_555 1_555
C22 C21 1_555 1_555
H28 C22 1_555 1_555
H29 C22 1_555 1_555
H30 C22 1_555 1_555
C1 C15 1_555 1_555
C3 C5 1_555 1_555
C9 C15 1_555 1_555
C12 C13 1_555 1_555
C14 C15 1_555 1_555
C16 C17 1_555 1_555

#END
