
#######################################################################
#
#                 Cambridge Crystallographic Data Centre
#                                CCDC 
#
#######################################################################
#
# If this CIF has been generated from an entry in the Cambridge 
# Structural Database, then it will include bibliographic, chemical, 
# crystal, experimental, refinement or atomic coordinate data resulting 
# from the CCDC's data processing and validation procedures.
#
#######################################################################

data_EZETIO
_chemical_formula_moiety         'C26 H25 F3 N4 O3'
_chemical_name_systematic        
2-(((1aS,7bS)-2,2-dimethyl-6-(trifluoromethyl)-1a,2-dihydrocyclopropa[c]chromen-7b(1H)-yl)methyl)-7-(4-methyl-1H-imidazol-1-yl)-3,4-dihydro-2H-pyrido[1,2-a]pyrazine-1,6-dione
_chemical_properties_biological  
"pyridopyrazine-1,6-dione gamma-secretase modulator for the treatment of Alzheimer's disease (AD)"
_symmetry_cell_setting           orthorhombic
_symmetry_space_group_name_H-M   'P 21 21 21'
_symmetry_Int_Tables_number      19
_space_group_name_Hall           'P 2ac 2ab'
loop_
_symmetry_equiv_pos_site_id
_symmetry_equiv_pos_as_xyz
1 x,y,z
2 1/2-x,-y,1/2+z
3 -x,1/2+y,1/2-z
4 1/2+x,1/2-y,-z
_cell_length_a                   6.1848(2)
_cell_length_b                   13.6417(3)
_cell_length_c                   27.9922(7)
_cell_angle_alpha                90
_cell_angle_beta                 90
_cell_angle_gamma                90
_cell_volume                     2361.74
_exptl_crystal_description       tabular
_cell_formula_units_Z            4
loop_
_atom_site_label
_atom_site_type_symbol
_atom_site_fract_x
_atom_site_fract_y
_atom_site_fract_z
C1 C 0.1645(5) -0.0237(2) 0.83567(11)
C2 C 0.2782(5) -0.1079(2) 0.84751(11)
H1 H 0.2526 -0.1382 0.8767
C3 C 0.4295(5) -0.1475(2) 0.81645(11)
C4 C 0.4673(6) -0.1043(2) 0.77238(11)
H2 H 0.5676 -0.1314 0.7514
C5 C 0.3553(6) -0.0210(2) 0.75987(11)
H3 H 0.3796 0.0083 0.7303
C6 C 0.2068(5) 0.0192(2) 0.79111(10)
C7 C 0.5518(6) -0.2360(2) 0.83191(13)
C8 C 0.0325(5) 0.1719(2) 0.81147(10)
C9 C -0.0762(5) 0.1228(2) 0.85327(12)
H4 H -0.1162 0.1660 0.8798
C10 C -0.0023(5) 0.0204(2) 0.86700(12)
C11 C 0.2327(5) 0.2255(2) 0.82792(10)
H5 H 0.3010 0.2563 0.8010
H6 H 0.3312 0.1799 0.8423
H7 H 0.1931 0.2746 0.8509
C12 C -0.1228(6) 0.2387(3) 0.78502(12)
H8 H -0.2448 0.2014 0.7741
H9 H -0.0505 0.2674 0.7581
H10 H -0.1714 0.2897 0.8061
C13 C -0.2236(6) 0.0382(3) 0.84444(17)
H11 H -0.2446 0.0174 0.8116
H12 H -0.3499 0.0317 0.8647
C14 C -0.0084(5) -0.0101(2) 0.91876(13)
H13 H -0.1245 0.0253 0.9345
H14 H -0.0430 -0.0794 0.9203
C15 C 0.4957(6) -0.0457(2) 0.99457(10)
C16 C 0.2957(6) -0.0688(2) 0.96711(12)
C17 C 0.7321(6) 0.0776(2) 1.03069(15)
C18 C 0.8596(7) -0.0020(2) 1.04879(10)
C19 C 0.8043(10) -0.0961(3) 1.03898(12)
H15 H 0.8896 -0.1469 1.0507
C20 C 0.6213(8) -0.1182(2) 1.01158(11)
H16 H 0.5865 -0.1832 1.0051
C21 C 1.3289(8) 0.0067(4) 1.12164(12)
C22 C 1.1908(6) -0.0424(3) 1.09286(16)
H17 H 1.2070 -0.1078 1.0842
C23 C 1.5193(8) -0.0268(4) 1.14957(16)
H18 H 1.4875 -0.0227 1.1831
H19 H 1.6413 0.0141 1.1423
H20 H 1.5523 -0.0935 1.1413
C24 C 1.0583(10) 0.0989(4) 1.10231(19)
H21 H 0.9688 0.1536 1.1005
C25 C 0.2924(15) 0.1085(7) 0.9494(4)
H22 H 0.3975 0.1164 0.9240
H23 H 0.1799 0.1571 0.9446
C26 C 0.4018(7) 0.1289(3) 0.99626(15)
H24 H 0.4764 0.1914 0.9951
H25 H 0.2964 0.1309 1.0219
F1 F 0.6610(17) -0.2237(5) 0.8709(4)
F2 F 0.4118(13) -0.3093(8) 0.8444(4)
F3 F 0.672(2) -0.2747(7) 0.7991(3)
N1 N 0.1922(4) 0.00681(17) 0.94543(9)
N2 N 0.5540(5) 0.05017(17) 1.00400(11)
N3 N 1.0281(18) 0.0147(7) 1.0783(3)
N4 N 1.2325(9) 0.0924(4) 1.12850(17)
O1 O 0.0934(4) 0.09951(16) 0.77578(7)
O2 O 0.2352(5) -0.15423(15) 0.96433(11)
O3 O 0.7645(8) 0.1677(3) 1.0457(3)
C27? C 1.1893(17) 0.1247(6) 1.0818(3)
H26? H 1.1474 0.1835 1.0677
C28? C 0.214(3) 0.1010(17) 0.9533(9)
H27? H 0.1284 0.1204 0.9807
H28? H 0.1656 0.1379 0.9257
C29? C 0.4470(18) 0.1213(6) 0.9625(3)
H29? H 0.4626 0.1892 0.9723
H30? H 0.5270 0.1127 0.9330
F4? F 0.479(4) -0.3160(9) 0.8221(12)
F5? F 0.754(3) -0.2359(19) 0.8121(9)
F6? F 0.614(4) -0.2307(12) 0.8769(6)
N5? N 1.066(4) 0.0363(15) 1.0742(8)
N6? N 1.3615(15) 0.1207(6) 1.1090(3)
O4? O 0.7975(11) 0.1555(5) 1.0166(6)
loop_
_geom_bond_atom_site_label_1
_geom_bond_atom_site_label_2
_geom_bond_site_symmetry_1
_geom_bond_site_symmetry_2
C1 C2 1_555 1_555
C2 H1 1_555 1_555
C3 C2 1_555 1_555
C4 C3 1_555 1_555
H2 C4 1_555 1_555
C5 C4 1_555 1_555
H3 C5 1_555 1_555
C6 C1 1_555 1_555
C7 C3 1_555 1_555
C8 C9 1_555 1_555
C9 H4 1_555 1_555
C10 C1 1_555 1_555
C11 C8 1_555 1_555
H5 C11 1_555 1_555
H6 C11 1_555 1_555
H7 C11 1_555 1_555
C12 C8 1_555 1_555
H8 C12 1_555 1_555
H9 C12 1_555 1_555
H10 C12 1_555 1_555
C13 C9 1_555 1_555
H11 C13 1_555 1_555
H12 C13 1_555 1_555
C14 C10 1_555 1_555
H13 C14 1_555 1_555
H14 C14 1_555 1_555
C15 C16 1_555 1_555
C16 N1 1_555 1_555
C17 C18 1_555 1_555
C18 C19 1_555 1_555
C19 H15 1_555 1_555
C20 C15 1_555 1_555
H16 C20 1_555 1_555
C21 C22 1_555 1_555
C22 H17 1_555 1_555
C23 C21 1_555 1_555
H18 C23 1_555 1_555
H19 C23 1_555 1_555
H20 C23 1_555 1_555
C24 H21 1_555 1_555
C25 H22 1_555 1_555
H23 C25 1_555 1_555
C26 C25 1_555 1_555
H24 C26 1_555 1_555
H25 C26 1_555 1_555
F1 C7 1_555 1_555
F2 C7 1_555 1_555
F3 C7 1_555 1_555
N1 C14 1_555 1_555
N2 C15 1_555 1_555
N3 C18 1_555 1_555
N4 C21 1_555 1_555
O1 C6 1_555 1_555
O2 C16 1_555 1_555
O3 C17 1_555 1_555
C5 C6 1_555 1_555
C8 O1 1_555 1_555
C9 C10 1_555 1_555
C10 C13 1_555 1_555
C17 N2 1_555 1_555
C19 C20 1_555 1_555
C22 N3 1_555 1_555
C24 N3 1_555 1_555
C24 N4 1_555 1_555
C25 N1 1_555 1_555
C26 N2 1_555 1_555

#END
