
#######################################################################
#
#                 Cambridge Crystallographic Data Centre
#                                CCDC 
#
#######################################################################
#
# If this CIF has been generated from an entry in the Cambridge 
# Structural Database, then it will include bibliographic, chemical, 
# crystal, experimental, refinement or atomic coordinate data resulting 
# from the CCDC's data processing and validation procedures.
#
#######################################################################

data_EZEVUB
_chemical_formula_moiety         'C16 H17 Br1 O3'
_chemical_name_systematic        
3-(4-Bromophenyl)-6-hydroxyspiro[4.5]decane-1,7-dione
_symmetry_cell_setting           monoclinic
_symmetry_space_group_name_H-M   'P 21'
_symmetry_Int_Tables_number      4
_space_group_name_Hall           'P 2yb'
loop_
_symmetry_equiv_pos_site_id
_symmetry_equiv_pos_as_xyz
1 x,y,z
2 -x,1/2+y,-z
_cell_length_a                   10.108(5)
_cell_length_b                   11.098(6)
_cell_length_c                   13.813(7)
_cell_angle_alpha                90
_cell_angle_beta                 107.767(6)
_cell_angle_gamma                90
_cell_volume                     1475.62
_exptl_crystal_colour            colorless
_exptl_crystal_description       block
_cell_formula_units_Z            4
loop_
_atom_site_label
_atom_site_type_symbol
_atom_site_fract_x
_atom_site_fract_y
_atom_site_fract_z
Br1 Br -0.19229(7) 0.53547(7) -0.25681(5)
C1 C 0.1244(7) 0.4376(7) -0.0037(5)
H1 H 0.1969 0.3823 0.0104
C2 C 0.0353(7) 0.4449(7) -0.1012(5)
H2 H 0.0483 0.3953 -0.1518
C3 C -0.0706(6) 0.5240(7) -0.1234(4)
C4 C -0.0923(6) 0.5967(6) -0.0474(5)
H3 H -0.1675 0.6493 -0.0626
C5 C -0.0014(6) 0.5906(6) 0.0516(5)
H4 H -0.0152 0.6402 0.1019
C6 C 0.1101(6) 0.5103(6) 0.0752(5)
C7 C 0.2172(6) 0.5055(6) 0.1773(4)
H5 H 0.2999 0.5470 0.1713
C8 C 0.2622(7) 0.3800(6) 0.2175(5)
H6 H 0.1824 0.3283 0.2102
H7 H 0.3216 0.3438 0.1821
C9 C 0.3402(6) 0.4010(6) 0.3274(5)
C10 C 0.1811(6) 0.5630(5) 0.2674(4)
H8 H 0.1863 0.6501 0.2644
H9 H 0.0878 0.5406 0.2662
C11 C 0.2871(5) 0.5157(5) 0.3636(4)
C12 C 0.2172(6) 0.4884(6) 0.4465(5)
H10 H 0.1770 0.5621 0.4628
H11 H 0.1422 0.4314 0.4197
C13 C 0.3165(7) 0.4376(8) 0.5426(5)
H12 H 0.2699 0.4327 0.5943
H13 H 0.3426 0.3565 0.5294
C14 C 0.4450(7) 0.5126(8) 0.5817(5)
H14 H 0.4226 0.5828 0.6155
H15 H 0.5137 0.4662 0.6323
C15 C 0.5079(7) 0.5539(7) 0.5037(5)
C16 C 0.4053(6) 0.6006(6) 0.4065(4)
H16 H 0.3653 0.6747 0.4243
O1 O 0.4334(5) 0.3416(4) 0.3793(4)
O2 O 0.4694(5) 0.6321(5) 0.3336(4)
H33 H 0.5534 0.6382 0.3609
O3 O 0.6289(4) 0.5528(5) 0.5133(3)
Br2 Br 1.17714(8) 0.18508(8) 0.68350(6)
C17 C 0.8469(7) 0.3380(5) 0.4640(5)
H17 H 0.7779 0.3942 0.4624
C18 C 0.9413(7) 0.3096(7) 0.5531(5)
H18 H 0.9375 0.3466 0.6126
C19 C 1.0429(7) 0.2267(6) 0.5569(5)
C20 C 1.0480(7) 0.1711(8) 0.4697(6)
H19 H 1.1151 0.1133 0.4712
C21 C 0.9504(6) 0.2036(6) 0.3794(5)
H20 H 0.9541 0.1676 0.3195
C22 C 0.8516(6) 0.2841(5) 0.3746(5)
C23 C 0.7450(6) 0.3215(6) 0.2745(5)
H21 H 0.6950 0.3919 0.2884
C24 C 0.6379(6) 0.2259(6) 0.2256(5)
H22 H 0.6811 0.1477 0.2265
H23 H 0.5671 0.2200 0.2596
C25 C 0.5776(6) 0.2725(5) 0.1178(5)
C26 C 0.8044(6) 0.3552(6) 0.1910(5)
H24 H 0.8762 0.2987 0.1881
H25 H 0.8443 0.4355 0.2021
C27 C 0.6833(6) 0.3511(5) 0.0925(5)
C28 C 0.7234(7) 0.3023(6) 0.0007(5)
H26 H 0.7992 0.3505 -0.0076
H27 H 0.7572 0.2204 0.0156
C29 C 0.6079(8) 0.3023(7) -0.0972(6)
H28 H 0.5394 0.2427 -0.0935
H29 H 0.6445 0.2789 -0.1517
C30 C 0.5372(8) 0.4237(7) -0.1224(5)
H30 H 0.5980 0.4784 -0.1436
H31 H 0.4528 0.4144 -0.1790
C31 C 0.5023(7) 0.4764(6) -0.0359(6)
C32 C 0.6155(7) 0.4772(5) 0.0625(5)
H32 H 0.6883 0.5307 0.0540
O4 O 0.4606(5) 0.2538(4) 0.0654(3)
O5 O 0.5738(6) 0.5233(5) 0.1416(4)
H34 H 0.5030 0.5634 0.1186
O6 O 0.3894(5) 0.5171(5) -0.0410(4)
loop_
_geom_bond_atom_site_label_1
_geom_bond_atom_site_label_2
_geom_bond_site_symmetry_1
_geom_bond_site_symmetry_2
Br1 C3 1_555 1_555
Br2 C19 1_555 1_555
C1 H1 1_555 1_555
C2 C1 1_555 1_555
H2 C2 1_555 1_555
C3 C2 1_555 1_555
C4 C3 1_555 1_555
H3 C4 1_555 1_555
C5 C4 1_555 1_555
H4 C5 1_555 1_555
C6 C1 1_555 1_555
C7 C6 1_555 1_555
H5 C7 1_555 1_555
C8 C7 1_555 1_555
H6 C8 1_555 1_555
H7 C8 1_555 1_555
C9 C8 1_555 1_555
C10 C7 1_555 1_555
H8 C10 1_555 1_555
H9 C10 1_555 1_555
C11 C9 1_555 1_555
C12 C11 1_555 1_555
H10 C12 1_555 1_555
H11 C12 1_555 1_555
C13 C12 1_555 1_555
H12 C13 1_555 1_555
H13 C13 1_555 1_555
C14 C13 1_555 1_555
H14 C14 1_555 1_555
H15 C14 1_555 1_555
C15 C14 1_555 1_555
C16 C11 1_555 1_555
H16 C16 1_555 1_555
C17 H17 1_555 1_555
C18 C17 1_555 1_555
H18 C18 1_555 1_555
C19 C18 1_555 1_555
C20 C19 1_555 1_555
H19 C20 1_555 1_555
C21 C20 1_555 1_555
H20 C21 1_555 1_555
C22 C17 1_555 1_555
C23 C22 1_555 1_555
H21 C23 1_555 1_555
C24 C23 1_555 1_555
H22 C24 1_555 1_555
H23 C24 1_555 1_555
C25 C24 1_555 1_555
C26 C23 1_555 1_555
H24 C26 1_555 1_555
H25 C26 1_555 1_555
C27 C25 1_555 1_555
C28 C27 1_555 1_555
H26 C28 1_555 1_555
H27 C28 1_555 1_555
C29 C28 1_555 1_555
H28 C29 1_555 1_555
H29 C29 1_555 1_555
C30 C29 1_555 1_555
H30 C30 1_555 1_555
H31 C30 1_555 1_555
C31 C30 1_555 1_555
C32 C27 1_555 1_555
H32 C32 1_555 1_555
O1 C9 1_555 1_555
O2 C16 1_555 1_555
H33 O2 1_555 1_555
O3 C15 1_555 1_555
O4 C25 1_555 1_555
O5 C32 1_555 1_555
H34 O5 1_555 1_555
O6 C31 1_555 1_555
C5 C6 1_555 1_555
C10 C11 1_555 1_555
C15 C16 1_555 1_555
C21 C22 1_555 1_555
C26 C27 1_555 1_555
C31 C32 1_555 1_555

#END
