
#######################################################################
#
#                 Cambridge Crystallographic Data Centre
#                                CCDC 
#
#######################################################################
#
# If this CIF has been generated from an entry in the Cambridge 
# Structural Database, then it will include bibliographic, chemical, 
# crystal, experimental, refinement or atomic coordinate data resulting 
# from the CCDC's data processing and validation procedures.
#
#######################################################################

data_EZEZIU
_chemical_formula_moiety         'C10 H18 O5'
_chemical_name_systematic        
'Butyl 2-deoxy-3,6-anhydro-\b-D-arabinohexofuranoside'
_chemical_properties_biological  'anti-inflammatory activity'
_symmetry_cell_setting           orthorhombic
_symmetry_space_group_name_H-M   'P 21 21 21'
_symmetry_Int_Tables_number      19
_space_group_name_Hall           'P 2ac 2ab'
loop_
_symmetry_equiv_pos_site_id
_symmetry_equiv_pos_as_xyz
1 x,y,z
2 1/2-x,-y,1/2+z
3 -x,1/2+y,1/2-z
4 1/2+x,1/2-y,-z
_cell_length_a                   5.3124(4)
_cell_length_b                   7.0459(8)
_cell_length_c                   29.215(2)
_cell_angle_alpha                90
_cell_angle_beta                 90
_cell_angle_gamma                90
_cell_volume                     1093.54
_exptl_crystal_colour            colorless
_exptl_crystal_description       block
_chemical_melting_point          '350.15-351.15 K'
_cell_formula_units_Z            4
_exptl_crystal_recrystallization_method 'Hexane/ethyl acetate  6:1'
loop_
_atom_site_label
_atom_site_type_symbol
_atom_site_fract_x
_atom_site_fract_y
_atom_site_fract_z
C1 C 0.2257(7) -0.3050(4) 0.06859(11)
H1 H 0.3157 -0.3976 0.0497
C2 C 0.3807(7) -0.2697(5) 0.11160(12)
H2 H 0.2782 -0.2111 0.1352
H3 H 0.4480 -0.3880 0.1234
C3 C 0.5089(6) -0.0453(4) 0.05651(10)
H4 H 0.6268 -0.0702 0.0314
C4 C 0.2428(6) -0.1121(4) 0.04509(10)
H5 H 0.2156 -0.1218 0.0120
C5 C 0.2138(6) 0.1758(4) 0.08601(10)
H6 H 0.1340 0.2973 0.0785
C6 C 0.4735(6) 0.1660(4) 0.06479(10)
H7 H 0.6039 0.2195 0.0847
C7 C 0.0103(7) 0.1899(5) 0.15819(12)
H8 H -0.1170 0.0986 0.1491
H9 H -0.0531 0.3164 0.1520
C8 C 0.0696(9) 0.1684(10) 0.20842(14)
H10 H -0.0831 0.1941 0.2255
H11 H 0.1138 0.0368 0.2139
C9 C 0.2662(12) 0.2848(10) 0.22691(18)
H12 H 0.2186 0.4173 0.2243
H13 H 0.4189 0.2659 0.2093
C10 C 0.3177(14) 0.2369(14) 0.27766(18)
H14 H 0.1628 0.2421 0.2946
H15 H 0.4344 0.3272 0.2901
H16 H 0.3877 0.1117 0.2799
O1 O -0.0190(5) -0.3732(3) 0.07592(9)
H17 H -0.1082 -0.2869 0.0855
O2 O 0.5796(4) -0.1457(3) 0.09813(8)
O3 O 0.4578(4) 0.2607(3) 0.02189(7)
H18 H 0.5925 0.2508 0.0084
O4 O 0.0756(4) 0.0234(3) 0.06595(7)
O5 O 0.2381(4) 0.1577(4) 0.13325(7)
loop_
_geom_bond_atom_site_label_1
_geom_bond_atom_site_label_2
_geom_bond_site_symmetry_1
_geom_bond_site_symmetry_2
C1 H1 1_555 1_555
C2 C1 1_555 1_555
H2 C2 1_555 1_555
H3 C2 1_555 1_555
C3 H4 1_555 1_555
C4 C1 1_555 1_555
H5 C4 1_555 1_555
C5 H6 1_555 1_555
C6 C3 1_555 1_555
H7 C6 1_555 1_555
C7 H8 1_555 1_555
H9 C7 1_555 1_555
C8 C7 1_555 1_555
H10 C8 1_555 1_555
H11 C8 1_555 1_555
C9 C8 1_555 1_555
H12 C9 1_555 1_555
H13 C9 1_555 1_555
C10 C9 1_555 1_555
H14 C10 1_555 1_555
H15 C10 1_555 1_555
H16 C10 1_555 1_555
O1 C1 1_555 1_555
H17 O1 1_555 1_555
O2 C2 1_555 1_555
O3 C6 1_555 1_555
H18 O3 1_555 1_555
O4 C4 1_555 1_555
O5 C5 1_555 1_555
C3 C4 1_555 1_555
C3 O2 1_555 1_555
C5 C6 1_555 1_555
C5 O4 1_555 1_555
C7 O5 1_555 1_555

#END
