
#######################################################################
#
#                 Cambridge Crystallographic Data Centre
#                                CCDC 
#
#######################################################################
#
# If this CIF has been generated from an entry in the Cambridge 
# Structural Database, then it will include bibliographic, chemical, 
# crystal, experimental, refinement or atomic coordinate data resulting 
# from the CCDC's data processing and validation procedures.
#
#######################################################################

data_EZIFIE
_chemical_formula_moiety         'C36 H26 Br1 N1 O3'
_chemical_name_systematic        
5'-bromo-3-phenyl-1'-trityl-3H-spiro[furan-2,3'-indole]-2',5(1'H,4H)-dione
_symmetry_cell_setting           orthorhombic
_symmetry_space_group_name_H-M   'P 21 21 21'
_symmetry_Int_Tables_number      19
_space_group_name_Hall           'P 2ac 2ab'
loop_
_symmetry_equiv_pos_site_id
_symmetry_equiv_pos_as_xyz
1 x,y,z
2 1/2-x,-y,1/2+z
3 1/2+x,1/2-y,-z
4 -x,1/2+y,1/2-z
_cell_length_a                   8.9615(6)
_cell_length_b                   16.4652(13)
_cell_length_c                   19.3782(12)
_cell_angle_alpha                90
_cell_angle_beta                 90
_cell_angle_gamma                90
_cell_volume                     2859.31
_exptl_crystal_colour            colorless
_exptl_crystal_description       block
_cell_formula_units_Z            4
loop_
_atom_site_label
_atom_site_type_symbol
_atom_site_fract_x
_atom_site_fract_y
_atom_site_fract_z
Br1 Br 0.97146(4) 0.18450(3) 0.957436(18)
O1 O 0.5048(2) 0.47994(13) 0.74471(11)
O2 O 0.5489(2) 0.44326(13) 0.88657(11)
O3 O 0.3605(3) 0.50854(18) 0.93634(15)
N1 N 0.7148(2) 0.39711(15) 0.73208(12)
C1 C 0.9332(3) 0.3134(2) 0.77437(15)
H1 H 0.9911 0.3224 0.7353
C2 C 0.9848(3) 0.26516(19) 0.82770(15)
H2 H 1.0774 0.2401 0.8240
C3 C 0.8998(4) 0.2540(2) 0.88630(16)
C4 C 0.7624(3) 0.2900(2) 0.89363(16)
H3 H 0.7058 0.2824 0.9333
C5 C 0.7114(3) 0.33752(19) 0.84073(15)
C6 C 0.7934(3) 0.34791(18) 0.78069(15)
C7 C 0.5882(3) 0.42699(19) 0.76414(16)
C8 C 0.5678(3) 0.3825(2) 0.83338(16)
C9 C 0.4230(3) 0.3316(2) 0.83599(15)
H4 H 0.4343 0.2925 0.8737
C10 C 0.3104(3) 0.3947(2) 0.85945(18)
H5 H 0.2619 0.4199 0.8201
H6 H 0.2348 0.3702 0.8886
C11 C 0.3996(4) 0.4555(2) 0.89887(19)
C12 C 0.3947(3) 0.28362(19) 0.77109(16)
C13 C 0.4602(4) 0.20827(19) 0.76311(18)
H7 H 0.5192 0.1870 0.7982
C14 C 0.4384(4) 0.1642(2) 0.7031(2)
H8 H 0.4851 0.1141 0.6979
C15 C 0.3496(4) 0.1931(3) 0.6516(2)
H9 H 0.3325 0.1622 0.6122
C16 C 0.2854(4) 0.2689(3) 0.6585(2)
H10 H 0.2266 0.2898 0.6232
C17 C 0.3081(3) 0.3133(2) 0.71740(17)
H11 H 0.2645 0.3643 0.7214
C18 C 0.7867(3) 0.43194(18) 0.66891(16)
C19 C 0.9153(3) 0.48614(19) 0.69643(16)
C20 C 0.8807(4) 0.5416(2) 0.7486(2)
H12 H 0.7832 0.5448 0.7648
C21 C 0.9878(4) 0.5917(2) 0.7767(2)
H13 H 0.9622 0.6282 0.8114
C22 C 1.1325(4) 0.5877(2) 0.7536(2)
H14 H 1.2051 0.6213 0.7726
C23 C 1.1685(4) 0.5342(2) 0.7027(2)
H15 H 1.2662 0.5317 0.6866
C24 C 1.0617(3) 0.4838(2) 0.67478(17)
H16 H 1.0891 0.4472 0.6405
C25 C 0.6729(3) 0.4801(2) 0.62496(17)
C26 C 0.6974(4) 0.5593(2) 0.60608(19)
H17 H 0.7805 0.5868 0.6229
C27 C 0.5997(5) 0.5986(3) 0.5624(2)
H18 H 0.6187 0.6519 0.5491
C28 C 0.4748(5) 0.5599(3) 0.5383(2)
H19 H 0.4081 0.5870 0.5097
C29 C 0.4491(4) 0.4802(3) 0.55706(19)
H20 H 0.3648 0.4533 0.5408
C30 C 0.5480(4) 0.4405(2) 0.59973(17)
H21 H 0.5307 0.3866 0.6117
C31 C 0.8372(3) 0.3628(2) 0.62108(16)
C32 C 0.9214(3) 0.3811(2) 0.56239(16)
H22 H 0.9449 0.4350 0.5528
C33 C 0.9698(4) 0.3211(3) 0.51878(16)
H23 H 1.0295 0.3343 0.4811
C34 C 0.9308(4) 0.2420(3) 0.53036(19)
H24 H 0.9661 0.2015 0.5012
C35 C 0.8399(5) 0.2223(2) 0.58461(19)
H25 H 0.8098 0.1688 0.5911
C36 C 0.7926(4) 0.2826(2) 0.63021(18)
H26 H 0.7308 0.2691 0.6670
loop_
_geom_bond_atom_site_label_1
_geom_bond_atom_site_label_2
_geom_bond_site_symmetry_1
_geom_bond_site_symmetry_2
Br1 C3 1_555 1_555
O1 C7 1_555 1_555
O2 C8 1_555 1_555
O3 C11 1_555 1_555
N1 C6 1_555 1_555
C1 H1 1_555 1_555
C2 C1 1_555 1_555
H2 C2 1_555 1_555
C3 C2 1_555 1_555
C4 C3 1_555 1_555
H3 C4 1_555 1_555
C5 C4 1_555 1_555
C6 C1 1_555 1_555
C7 N1 1_555 1_555
C8 C5 1_555 1_555
C9 C8 1_555 1_555
H4 C9 1_555 1_555
C10 C9 1_555 1_555
H5 C10 1_555 1_555
H6 C10 1_555 1_555
C11 O2 1_555 1_555
C12 C9 1_555 1_555
C13 C12 1_555 1_555
H7 C13 1_555 1_555
C14 C13 1_555 1_555
H8 C14 1_555 1_555
C15 C14 1_555 1_555
H9 C15 1_555 1_555
C16 C15 1_555 1_555
H10 C16 1_555 1_555
C17 C12 1_555 1_555
H11 C17 1_555 1_555
C18 N1 1_555 1_555
C19 C18 1_555 1_555
C20 C19 1_555 1_555
H12 C20 1_555 1_555
C21 C20 1_555 1_555
H13 C21 1_555 1_555
C22 C21 1_555 1_555
H14 C22 1_555 1_555
C23 C22 1_555 1_555
H15 C23 1_555 1_555
C24 C19 1_555 1_555
H16 C24 1_555 1_555
C25 C18 1_555 1_555
C26 C25 1_555 1_555
H17 C26 1_555 1_555
C27 C26 1_555 1_555
H18 C27 1_555 1_555
C28 C27 1_555 1_555
H19 C28 1_555 1_555
C29 C28 1_555 1_555
H20 C29 1_555 1_555
C30 C25 1_555 1_555
H21 C30 1_555 1_555
C31 C18 1_555 1_555
C32 C31 1_555 1_555
H22 C32 1_555 1_555
C33 C32 1_555 1_555
H23 C33 1_555 1_555
C34 C33 1_555 1_555
H24 C34 1_555 1_555
C35 C34 1_555 1_555
H25 C35 1_555 1_555
C36 C31 1_555 1_555
H26 C36 1_555 1_555
C5 C6 1_555 1_555
C7 C8 1_555 1_555
C10 C11 1_555 1_555
C16 C17 1_555 1_555
C23 C24 1_555 1_555
C29 C30 1_555 1_555
C35 C36 1_555 1_555

#END
