
#######################################################################
#
#                 Cambridge Crystallographic Data Centre
#                                CCDC 
#
#######################################################################
#
# If this CIF has been generated from an entry in the Cambridge 
# Structural Database, then it will include bibliographic, chemical, 
# crystal, experimental, refinement or atomic coordinate data resulting 
# from the CCDC's data processing and validation procedures.
#
#######################################################################

data_EZIFOJ
_chemical_formula_moiety         'C31 H68 N2 O1 2+,2(Cl1 1-),H2 O1'
_chemical_name_systematic        
"N,N'-Didodecyl-2-hydroxy-N,N,N',N'-tetramethylpropane-1,3-diaminium dichloride monohydrate"
_symmetry_cell_setting           monoclinic
_symmetry_space_group_name_H-M   'P 21/c'
_symmetry_Int_Tables_number      14
_space_group_name_Hall           '-P 2ybc'
loop_
_symmetry_equiv_pos_site_id
_symmetry_equiv_pos_as_xyz
1 x,y,z
2 -x,1/2+y,1/2-z
3 -x,-y,-z
4 x,1/2-y,1/2+z
_cell_length_a                   22.999(3)
_cell_length_b                   9.6368(12)
_cell_length_c                   17.2702(16)
_cell_angle_alpha                90
_cell_angle_beta                 100.665(2)
_cell_angle_gamma                90
_cell_volume                     3761.59
_exptl_crystal_colour            colorless
_exptl_crystal_description       plate
_cell_formula_units_Z            4
_exptl_crystal_recrystallization_method acetone
loop_
_atom_site_label
_atom_site_type_symbol
_atom_site_fract_x
_atom_site_fract_y
_atom_site_fract_z
Cl1 Cl 0.91213(4) 0.79204(10) 0.00740(5)
Cl2 Cl 0.86389(6) 0.16952(11) 0.69116(6)
N1 N 0.90233(10) 0.2027(3) 0.94616(13)
N2 N 0.91492(12) 0.6285(3) 0.76996(16)
O1 O 0.84049(10) 0.3887(2) 0.81003(12)
H1 H 0.8373 0.3310 0.7746
C1 C 0.91252(14) 0.3556(3) 0.93152(17)
H4 H 0.9532 0.3776 0.9543
H5 H 0.8875 0.4095 0.9597
C2 C 0.90078(14) 0.4035(3) 0.84523(17)
H6 H 0.9255 0.3503 0.8153
C3 C 0.91912(14) 0.5557(3) 0.84853(17)
H7 H 0.8946 0.6056 0.8793
H8 H 0.9597 0.5620 0.8765
C4 C 0.83736(13) 0.1592(3) 0.92824(18)
H9 H 0.8238 0.1623 0.8716
H10 H 0.8346 0.0637 0.9448
C5 C 0.79585(14) 0.2462(3) 0.96676(19)
H11 H 0.8116 0.2549 1.0227
H12 H 0.7926 0.3385 0.9439
C6 C 0.73534(15) 0.1794(4) 0.9549(2)
H13 H 0.7223 0.1610 0.8992
H14 H 0.7387 0.0910 0.9821
C7 C 0.68894(15) 0.2655(4) 0.9837(2)
H15 H 0.6849 0.3531 0.9555
H16 H 0.7023 0.2857 1.0392
C8 C 0.62839(15) 0.1957(4) 0.9732(2)
H17 H 0.6160 0.1720 0.9180
H18 H 0.6325 0.1097 1.0029
C9 C 0.58024(15) 0.2807(4) 0.9985(2)
H19 H 0.5754 0.3657 0.9680
H20 H 0.5929 0.3062 1.0534
C10 C 0.52092(16) 0.2101(4) 0.9897(2)
H21 H 0.5257 0.1257 1.0208
H22 H 0.5086 0.1832 0.9349
C11 C 0.47181(16) 0.2951(4) 1.0138(2)
H23 H 0.4838 0.3212 1.0687
H24 H 0.4671 0.3799 0.9829
C12 C 0.41313(16) 0.2235(4) 1.0038(2)
H25 H 0.4175 0.1414 1.0368
H26 H 0.4023 0.1928 0.9495
C13 C 0.36313(16) 0.3094(4) 1.0235(2)
H27 H 0.3743 0.3407 1.0776
H28 H 0.3588 0.3912 0.9902
C14 C 0.30397(18) 0.2395(4) 1.0145(3)
H29 H 0.3074 0.1610 1.0502
H30 H 0.2934 0.2038 0.9612
C15 C 0.25491(18) 0.3316(5) 1.0305(3)
H31 H 0.2506 0.4090 0.9949
H32 H 0.2641 0.3648 1.0838
H33 H 0.2186 0.2799 1.0231
C16 C 0.85369(18) 0.6706(4) 0.7307(2)
H34 H 0.8558 0.7058 0.6787
H35 H 0.8293 0.5878 0.7235
C17 C 0.8237(2) 0.7737(5) 0.7704(3)
H36 H 0.8483 0.8558 0.7802
H37 H 0.8185 0.7372 0.8211
C18 C 0.7642(2) 0.8143(6) 0.7240(3)
H38 H 0.7705 0.8533 0.6744
H39 H 0.7413 0.7301 0.7116
C19 C 0.7303(3) 0.9060(8) 0.7566(4)
H40 H 0.7519 0.9929 0.7644
H41 H 0.7275 0.8712 0.8085
C20 C 0.6689(3) 0.9389(9) 0.7152(4)
H42 H 0.6698 1.0326 0.6950
H43 H 0.6605 0.8780 0.6698
C21 C 0.6219(3) 0.9319(8) 0.7513(4)
H44 H 0.6320 0.9931 0.7963
H45 H 0.6235 0.8388 0.7728
C22 C 0.5627(3) 0.9555(8) 0.7241(4)
H46 H 0.5531 0.9013 0.6762
H47 H 0.5603 1.0519 0.7076
C23 C 0.5154(3) 0.9367(9) 0.7620(4)
H48 H 0.5193 0.8412 0.7800
H49 H 0.5254 0.9927 0.8093
C24 C 0.4561(4) 0.9544(9) 0.7395(4)
H50 H 0.4465 0.9038 0.6902
H51 H 0.4520 1.0517 0.7252
C25 C 0.4091(4) 0.9290(9) 0.7759(5)
H52 H 0.4146 0.8328 0.7922
H53 H 0.4183 0.9826 0.8241
C26 C 0.3501(4) 0.9412(9) 0.7550(5)
H54 H 0.3407 0.8922 0.7051
H55 H 0.3440 1.0386 0.7420
C27 C 0.3047(3) 0.9081(9) 0.7925(5)
H56 H 0.3093 0.9575 0.8415
H57 H 0.3050 0.8101 0.8025
H58 H 0.2678 0.9335 0.7598
C28 C 0.92749(13) 0.1756(3) 1.03136(16)
H59 H 0.9091 0.2362 1.0637
H60 H 0.9694 0.1923 1.0410
H61 H 0.9201 0.0808 1.0438
C29 C 0.93590(14) 0.1127(3) 0.89821(17)
H62 H 0.9769 0.1391 0.9083
H63 H 0.9198 0.1244 0.8432
H64 H 0.9324 0.0173 0.9126
C30 C 0.93932(18) 0.5380(4) 0.7127(2)
H65 H 0.9435 0.5916 0.6671
H66 H 0.9128 0.4620 0.6970
H67 H 0.9773 0.5027 0.7373
C31 C 0.95358(15) 0.7563(4) 0.7848(2)
H68 H 0.9418 0.8108 0.8258
H69 H 0.9493 0.8104 0.7374
H70 H 0.9942 0.7288 0.8005
O2 O 0.94520(11) 0.5398(3) 0.11948(16)
H2 H 0.9295 0.6047 0.0894
H3 H 0.9179 0.4925 0.1340
loop_
_geom_bond_atom_site_label_1
_geom_bond_atom_site_label_2
_geom_bond_site_symmetry_1
_geom_bond_site_symmetry_2
N1 C1 1_555 1_555
N2 C3 1_555 1_555
O1 H1 1_555 1_555
O2 H2 1_555 1_555
H3 O2 1_555 1_555
C1 H4 1_555 1_555
H5 C1 1_555 1_555
C2 O1 1_555 1_555
H6 C2 1_555 1_555
C3 C2 1_555 1_555
H7 C3 1_555 1_555
H8 C3 1_555 1_555
C4 N1 1_555 1_555
H9 C4 1_555 1_555
H10 C4 1_555 1_555
C5 C4 1_555 1_555
H11 C5 1_555 1_555
H12 C5 1_555 1_555
C6 C5 1_555 1_555
H13 C6 1_555 1_555
H14 C6 1_555 1_555
C7 C6 1_555 1_555
H15 C7 1_555 1_555
H16 C7 1_555 1_555
C8 C7 1_555 1_555
H17 C8 1_555 1_555
H18 C8 1_555 1_555
C9 C8 1_555 1_555
H19 C9 1_555 1_555
H20 C9 1_555 1_555
C10 C9 1_555 1_555
H21 C10 1_555 1_555
H22 C10 1_555 1_555
C11 C10 1_555 1_555
H23 C11 1_555 1_555
H24 C11 1_555 1_555
C12 C11 1_555 1_555
H25 C12 1_555 1_555
H26 C12 1_555 1_555
C13 C12 1_555 1_555
H27 C13 1_555 1_555
H28 C13 1_555 1_555
C14 C13 1_555 1_555
H29 C14 1_555 1_555
H30 C14 1_555 1_555
C15 C14 1_555 1_555
H31 C15 1_555 1_555
H32 C15 1_555 1_555
H33 C15 1_555 1_555
C16 N2 1_555 1_555
H34 C16 1_555 1_555
H35 C16 1_555 1_555
C17 C16 1_555 1_555
H36 C17 1_555 1_555
H37 C17 1_555 1_555
C18 C17 1_555 1_555
H38 C18 1_555 1_555
H39 C18 1_555 1_555
C19 C18 1_555 1_555
H40 C19 1_555 1_555
H41 C19 1_555 1_555
C20 C19 1_555 1_555
H42 C20 1_555 1_555
H43 C20 1_555 1_555
C21 C20 1_555 1_555
H44 C21 1_555 1_555
H45 C21 1_555 1_555
C22 C21 1_555 1_555
H46 C22 1_555 1_555
H47 C22 1_555 1_555
C23 C22 1_555 1_555
H48 C23 1_555 1_555
H49 C23 1_555 1_555
C24 C23 1_555 1_555
H50 C24 1_555 1_555
H51 C24 1_555 1_555
C25 C24 1_555 1_555
H52 C25 1_555 1_555
H53 C25 1_555 1_555
C26 C25 1_555 1_555
H54 C26 1_555 1_555
H55 C26 1_555 1_555
C27 C26 1_555 1_555
H56 C27 1_555 1_555
H57 C27 1_555 1_555
H58 C27 1_555 1_555
C28 N1 1_555 1_555
H59 C28 1_555 1_555
H60 C28 1_555 1_555
H61 C28 1_555 1_555
C29 N1 1_555 1_555
H62 C29 1_555 1_555
H63 C29 1_555 1_555
H64 C29 1_555 1_555
C30 N2 1_555 1_555
H65 C30 1_555 1_555
H66 C30 1_555 1_555
H67 C30 1_555 1_555
C31 N2 1_555 1_555
H68 C31 1_555 1_555
H69 C31 1_555 1_555
H70 C31 1_555 1_555
C1 C2 1_555 1_555

#END
