
#######################################################################
#
#                 Cambridge Crystallographic Data Centre
#                                CCDC 
#
#######################################################################
#
# If this CIF has been generated from an entry in the Cambridge 
# Structural Database, then it will include bibliographic, chemical, 
# crystal, experimental, refinement or atomic coordinate data resulting 
# from the CCDC's data processing and validation procedures.
#
#######################################################################

data_EZIGAW
_chemical_formula_moiety         'C39 H84 N2 O1 2+,2(Cl1 1-),H2 O1'
_chemical_name_systematic        
"N,N'-Dihexadecyl-2-hydroxy-N,N,N',N'-tetramethylpropane-1,3-diaminium dichloride monohydrate"
_symmetry_cell_setting           monoclinic
_symmetry_space_group_name_H-M   'P 21/c'
_symmetry_Int_Tables_number      14
_space_group_name_Hall           '-P 2ybc'
loop_
_symmetry_equiv_pos_site_id
_symmetry_equiv_pos_as_xyz
1 x,y,z
2 -x,1/2+y,1/2-z
3 -x,-y,-z
4 x,1/2-y,1/2+z
_cell_length_a                   27.977(3)
_cell_length_b                   9.5824(9)
_cell_length_c                   17.1634(15)
_cell_angle_alpha                90
_cell_angle_beta                 102.438(2)
_cell_angle_gamma                90
_cell_volume                     4493.29
_exptl_crystal_colour            colorless
_exptl_crystal_description       plate
_cell_formula_units_Z            4
_exptl_crystal_recrystallization_method acetone
loop_
_atom_site_label
_atom_site_type_symbol
_atom_site_fract_x
_atom_site_fract_y
_atom_site_fract_z
Cl1 Cl 0.92734(5) 0.79039(14) 0.50352(8)
Cl2 Cl 0.11433(7) 0.67017(16) 0.31604(8)
N1 N 0.08041(13) 0.7972(4) 0.55902(19)
N2 N 0.07019(16) 0.3699(4) 0.7336(2)
O1 O 0.13181(12) 0.6089(3) 0.69771(18)
H1 H 0.1367 0.6820 0.7229
C1 C 0.07179(15) 0.6449(5) 0.5727(2)
H4 H 0.0926 0.5904 0.5458
H5 H 0.0381 0.6229 0.5479
C2 C 0.08134(17) 0.5982(5) 0.6606(3)
H6 H 0.0613 0.6519 0.6901
C3 C 0.06633(17) 0.4451(5) 0.6554(3)
H7 H 0.0327 0.4390 0.6258
H8 H 0.0865 0.3961 0.6247
C4 C 0.05968(16) 0.8246(4) 0.4715(2)
H9 H 0.0667 0.9191 0.4590
H10 H 0.0249 0.8105 0.4601
H11 H 0.0743 0.7617 0.4399
C5 C 0.05322(16) 0.8876(5) 0.6049(2)
H12 H 0.0659 0.8743 0.6610
H13 H 0.0191 0.8635 0.5920
H14 H 0.0571 0.9836 0.5914
C6 C 0.03904(18) 0.2411(5) 0.7177(3)
H15 H 0.0424 0.1880 0.7660
H16 H 0.0494 0.1855 0.6778
H17 H 0.0054 0.2675 0.6992
C7 C 0.0514(2) 0.4580(6) 0.7906(3)
H18 H 0.0753 0.5276 0.8121
H19 H 0.0449 0.4011 0.8332
H20 H 0.0217 0.5029 0.7638
C8 C 0.13356(16) 0.8397(4) 0.5806(3)
H21 H 0.1444 0.8360 0.6382
H22 H 0.1361 0.9360 0.5645
C9 C 0.16814(16) 0.7521(5) 0.5440(3)
H23 H 0.1710 0.6597 0.5675
H24 H 0.1551 0.7423 0.4871
C10 C 0.21807(17) 0.8196(5) 0.5578(3)
H25 H 0.2292 0.8374 0.6144
H26 H 0.2150 0.9090 0.5306
C11 C 0.25656(17) 0.7344(5) 0.5296(3)
H27 H 0.2452 0.7144 0.4732
H28 H 0.2605 0.6461 0.5579
C12 C 0.30589(17) 0.8056(5) 0.5419(3)
H29 H 0.3019 0.8926 0.5123
H30 H 0.3165 0.8286 0.5980
C13 C 0.34557(18) 0.7220(5) 0.5170(3)
H31 H 0.3504 0.6365 0.5479
H32 H 0.3346 0.6964 0.4613
C14 C 0.39397(18) 0.7956(5) 0.5270(3)
H33 H 0.4050 0.8204 0.5828
H34 H 0.3889 0.8817 0.4967
C15 C 0.43425(18) 0.7143(5) 0.5016(3)
H35 H 0.4398 0.6291 0.5327
H36 H 0.4230 0.6878 0.4461
C16 C 0.48204(18) 0.7887(5) 0.5101(3)
H37 H 0.4765 0.8731 0.4783
H38 H 0.4928 0.8169 0.5654
C17 C 0.52252(18) 0.7091(5) 0.4867(3)
H39 H 0.5117 0.6807 0.4314
H40 H 0.5281 0.6249 0.5187
C18 C 0.57025(18) 0.7833(5) 0.4949(3)
H41 H 0.5810 0.8127 0.5499
H42 H 0.5648 0.8669 0.4623
C19 C 0.61109(18) 0.7016(5) 0.4720(3)
H43 H 0.6161 0.6171 0.5038
H44 H 0.6007 0.6738 0.4166
C20 C 0.65872(19) 0.7750(5) 0.4817(3)
H45 H 0.6686 0.8059 0.5367
H46 H 0.6540 0.8576 0.4483
C21 C 0.69977(19) 0.6912(5) 0.4616(3)
H47 H 0.6897 0.6604 0.4067
H48 H 0.7042 0.6084 0.4949
C22 C 0.7485(2) 0.7627(6) 0.4712(4)
H49 H 0.7574 0.8005 0.5248
H50 H 0.7448 0.8407 0.4344
C23 C 0.7903(2) 0.6721(6) 0.4572(4)
H51 H 0.7853 0.6495 0.4015
H52 H 0.7915 0.5877 0.4877
H53 H 0.8206 0.7217 0.4735
C24 C 0.1199(2) 0.3304(7) 0.7760(4)
H54 H 0.1399 0.4139 0.7831
H55 H 0.1180 0.2979 0.8288
C25 C 0.1450(3) 0.2255(8) 0.7400(4)
H56 H 0.1487 0.2596 0.6884
H57 H 0.1245 0.1429 0.7307
C26 C 0.1938(3) 0.1844(9) 0.7865(5)
H58 H 0.2130 0.2690 0.7983
H59 H 0.1892 0.1477 0.8371
C27 C 0.2211(3) 0.0913(10) 0.7565(5)
H60 H 0.2232 0.1246 0.7039
H61 H 0.2028 0.0048 0.7486
C28 C 0.2733(4) 0.0541(11) 0.8000(6)
H62 H 0.2805 0.1072 0.8492
H63 H 0.2734 -0.0436 0.8147
C29 C 0.3114(5) 0.0743(11) 0.7623(6)
H64 H 0.3101 0.1725 0.7483
H65 H 0.3022 0.0239 0.7123
C30 C 0.3606(5) 0.0454(11) 0.7903(6)
H66 H 0.3617 -0.0525 0.8048
H67 H 0.3696 0.0964 0.8401
C31 C 0.3997(5) 0.0642(11) 0.7531(7)
H68 H 0.3908 0.0087 0.7048
H69 H 0.3965 0.1605 0.7354
C32 C 0.4489(5) 0.0451(12) 0.7768(7)
H70 H 0.4522 -0.0509 0.7950
H71 H 0.4580 0.1016 0.8246
C33 C 0.4871(6) 0.0635(12) 0.7381(7)
H72 H 0.4840 0.1601 0.7210
H73 H 0.4773 0.0089 0.6897
C34 C 0.5375(6) 0.0428(12) 0.7601(7)
H74 H 0.5468 0.0924 0.8103
H75 H 0.5405 -0.0554 0.7740
C35 C 0.5757(6) 0.0662(13) 0.7240(8)
H76 H 0.5729 0.1644 0.7102
H77 H 0.5665 0.0166 0.6737
C36 C 0.6256(6) 0.0448(13) 0.7467(8)
H78 H 0.6292 -0.0540 0.7589
H79 H 0.6354 0.0926 0.7975
C37 C 0.6623(6) 0.0747(13) 0.7063(8)
H80 H 0.6539 0.0228 0.6567
H81 H 0.6581 0.1725 0.6917
C38 C 0.7113(6) 0.0563(13) 0.7334(8)
H82 H 0.7158 -0.0415 0.7476
H83 H 0.7200 0.1081 0.7830
C39 C 0.7481(4) 0.0889(11) 0.6899(7)
H84 H 0.7461 0.1860 0.6758
H85 H 0.7431 0.0334 0.6423
H86 H 0.7798 0.0693 0.7224
O2 O 0.95366(13) 0.5365(4) 0.6167(2)
H2 H 0.9409 0.6022 0.5859
H3 H 0.9309 0.4895 0.6300
loop_
_geom_bond_atom_site_label_1
_geom_bond_atom_site_label_2
_geom_bond_site_symmetry_1
_geom_bond_site_symmetry_2
N1 C1 1_555 1_555
N2 C3 1_555 1_555
O1 H1 1_555 1_555
O2 H2 1_555 1_555
H3 O2 1_555 1_555
C1 H4 1_555 1_555
H5 C1 1_555 1_555
C2 O1 1_555 1_555
H6 C2 1_555 1_555
C3 C2 1_555 1_555
H7 C3 1_555 1_555
H8 C3 1_555 1_555
C4 N1 1_555 1_555
H9 C4 1_555 1_555
H10 C4 1_555 1_555
H11 C4 1_555 1_555
C5 N1 1_555 1_555
H12 C5 1_555 1_555
H13 C5 1_555 1_555
H14 C5 1_555 1_555
C6 N2 1_555 1_555
H15 C6 1_555 1_555
H16 C6 1_555 1_555
H17 C6 1_555 1_555
C7 N2 1_555 1_555
H18 C7 1_555 1_555
H19 C7 1_555 1_555
H20 C7 1_555 1_555
C8 N1 1_555 1_555
H21 C8 1_555 1_555
H22 C8 1_555 1_555
C9 C8 1_555 1_555
H23 C9 1_555 1_555
H24 C9 1_555 1_555
C10 C9 1_555 1_555
H25 C10 1_555 1_555
H26 C10 1_555 1_555
C11 C10 1_555 1_555
H27 C11 1_555 1_555
H28 C11 1_555 1_555
C12 C11 1_555 1_555
H29 C12 1_555 1_555
H30 C12 1_555 1_555
C13 C12 1_555 1_555
H31 C13 1_555 1_555
H32 C13 1_555 1_555
C14 C13 1_555 1_555
H33 C14 1_555 1_555
H34 C14 1_555 1_555
C15 C14 1_555 1_555
H35 C15 1_555 1_555
H36 C15 1_555 1_555
C16 C15 1_555 1_555
H37 C16 1_555 1_555
H38 C16 1_555 1_555
C17 C16 1_555 1_555
H39 C17 1_555 1_555
H40 C17 1_555 1_555
C18 C17 1_555 1_555
H41 C18 1_555 1_555
H42 C18 1_555 1_555
C19 C18 1_555 1_555
H43 C19 1_555 1_555
H44 C19 1_555 1_555
C20 C19 1_555 1_555
H45 C20 1_555 1_555
H46 C20 1_555 1_555
C21 C20 1_555 1_555
H47 C21 1_555 1_555
H48 C21 1_555 1_555
C22 C21 1_555 1_555
H49 C22 1_555 1_555
H50 C22 1_555 1_555
C23 C22 1_555 1_555
H51 C23 1_555 1_555
H52 C23 1_555 1_555
H53 C23 1_555 1_555
C24 N2 1_555 1_555
H54 C24 1_555 1_555
H55 C24 1_555 1_555
C25 C24 1_555 1_555
H56 C25 1_555 1_555
H57 C25 1_555 1_555
C26 C25 1_555 1_555
H58 C26 1_555 1_555
H59 C26 1_555 1_555
C27 C26 1_555 1_555
H60 C27 1_555 1_555
H61 C27 1_555 1_555
C28 C27 1_555 1_555
H62 C28 1_555 1_555
H63 C28 1_555 1_555
C29 C28 1_555 1_555
H64 C29 1_555 1_555
H65 C29 1_555 1_555
C30 C29 1_555 1_555
H66 C30 1_555 1_555
H67 C30 1_555 1_555
C31 C30 1_555 1_555
H68 C31 1_555 1_555
H69 C31 1_555 1_555
C32 C31 1_555 1_555
H70 C32 1_555 1_555
H71 C32 1_555 1_555
C33 C32 1_555 1_555
H72 C33 1_555 1_555
H73 C33 1_555 1_555
C34 C33 1_555 1_555
H74 C34 1_555 1_555
H75 C34 1_555 1_555
C35 C34 1_555 1_555
H76 C35 1_555 1_555
H77 C35 1_555 1_555
C36 C35 1_555 1_555
H78 C36 1_555 1_555
H79 C36 1_555 1_555
C37 C36 1_555 1_555
H80 C37 1_555 1_555
H81 C37 1_555 1_555
C38 C37 1_555 1_555
H82 C38 1_555 1_555
H83 C38 1_555 1_555
C39 C38 1_555 1_555
H84 C39 1_555 1_555
H85 C39 1_555 1_555
H86 C39 1_555 1_555
C1 C2 1_555 1_555

#END
