
#######################################################################
#
#                 Cambridge Crystallographic Data Centre
#                                CCDC 
#
#######################################################################
#
# If this CIF has been generated from an entry in the Cambridge 
# Structural Database, then it will include bibliographic, chemical, 
# crystal, experimental, refinement or atomic coordinate data resulting 
# from the CCDC's data processing and validation procedures.
#
#######################################################################

data_EZIJII
_chemical_compound_source        'Salvia plebeia'
_chemical_name_common            'plebedipene A'
_chemical_formula_moiety         'C22 H30 O5'
_chemical_name_systematic        
'11-hydroxy-12-oxo-8,20-epoxyabieta -9(11),13-dien-2-yl acetate'
_symmetry_cell_setting           orthorhombic
_symmetry_space_group_name_H-M   'P 21 21 21'
_symmetry_Int_Tables_number      19
_space_group_name_Hall           'P 2ac 2ab'
loop_
_symmetry_equiv_pos_site_id
_symmetry_equiv_pos_as_xyz
1 x,y,z
2 1/2-x,-y,1/2+z
3 -x,1/2+y,1/2-z
4 1/2+x,1/2-y,-z
_cell_length_a                   6.5355(13)
_cell_length_b                   12.797(3)
_cell_length_c                   24.340(5)
_cell_angle_alpha                90
_cell_angle_beta                 90
_cell_angle_gamma                90
_cell_volume                     2035.67
_cell_formula_units_Z            4
loop_
_atom_site_label
_atom_site_type_symbol
_atom_site_fract_x
_atom_site_fract_y
_atom_site_fract_z
O1 O 0.8303(3) 0.62050(16) 0.74773(8)
O2 O 1.1375(4) 0.31597(16) 0.80525(9)
H1 H 1.1473 0.2663 0.7841
O3 O 0.5124(4) 0.33552(18) 0.91392(9)
O4 O 1.3784(4) 0.33222(18) 0.71799(10)
C1 C 1.1351(4) 0.4064(2) 0.77609(12)
C2 C 0.8457(5) 0.5093(2) 0.82726(11)
C3 C 1.1400(5) 0.6678(2) 0.79622(12)
H2 H 1.2744 0.6429 0.8069
H3 H 1.1571 0.7341 0.7774
C4 C 1.1482(5) 0.5804(3) 0.70358(12)
H4 H 1.1402 0.6363 0.6793
C5 C 1.0179(4) 0.4879(2) 0.78757(11)
C6 C 0.7010(4) 0.5680(3) 0.78793(12)
H5 H 0.6093 0.5194 0.7698
H6 H 0.6197 0.6187 0.8080
C7 C 0.7484(5) 0.4093(2) 0.85042(13)
H7 H 0.6805 0.3715 0.8211
H8 H 0.8544 0.3646 0.8654
C8 C 1.2559(5) 0.4970(3) 0.68892(12)
C9 C 0.7864(5) 0.5972(2) 0.92377(12)
C10 C 1.0082(5) 0.6837(2) 0.84750(13)
H9 H 0.8905 0.7260 0.8378
H10 H 1.0870 0.7221 0.8746
O5 O 0.2326(4) 0.4163(2) 0.94552(10)
C11 C 1.0398(4) 0.5884(2) 0.75712(12)
C12 C 1.2688(5) 0.4088(3) 0.72700(13)
C13 C 0.5945(5) 0.4354(2) 0.89498(12)
H11 H 0.4845 0.4790 0.8800
C14 C 0.9326(4) 0.5813(2) 0.87362(11)
H12 H 1.0545 0.5459 0.8879
C15 C 0.7006(5) 0.4914(3) 0.94158(12)
H13 H 0.8114 0.4482 0.9552
H14 H 0.6042 0.5019 0.9714
C16 C 0.6085(6) 0.6741(3) 0.91442(15)
H15 H 0.6619 0.7404 0.9029
H16 H 0.5334 0.6827 0.9480
H17 H 0.5191 0.6470 0.8865
C17 C 1.3653(5) 0.4864(3) 0.63395(13)
H18 H 1.3401 0.4143 0.6221
C18 C 0.3270(6) 0.3379(3) 0.93716(14)
C19 C 0.9175(7) 0.6408(3) 0.97146(15)
H19 H 1.0309 0.5949 0.9781
H20 H 0.8352 0.6458 1.0040
H21 H 0.9677 0.7089 0.9618
C20 C 1.5934(6) 0.4952(4) 0.63946(18)
H22 H 1.6409 0.4463 0.6665
H23 H 1.6287 0.5648 0.6506
H24 H 1.6566 0.4800 0.6048
C21 C 1.2759(8) 0.5530(4) 0.59021(17)
H25 H 1.1306 0.5423 0.5888
H26 H 1.3353 0.5346 0.5554
H27 H 1.3040 0.6250 0.5981
C22 C 0.2528(7) 0.2317(3) 0.9512(2)
H28 H 0.1195 0.2365 0.9676
H29 H 0.3458 0.1997 0.9767
H30 H 0.2451 0.1901 0.9185
loop_
_geom_bond_atom_site_label_1
_geom_bond_atom_site_label_2
_geom_bond_site_symmetry_1
_geom_bond_site_symmetry_2
O1 C6 1_555 1_555
O2 H1 1_555 1_555
O3 C13 1_555 1_555
O4 C12 1_555 1_555
C1 O2 1_555 1_555
C2 C5 1_555 1_555
C3 H2 1_555 1_555
H3 C3 1_555 1_555
C4 H4 1_555 1_555
C5 C1 1_555 1_555
C6 C2 1_555 1_555
H5 C6 1_555 1_555
H6 C6 1_555 1_555
C7 C2 1_555 1_555
H7 C7 1_555 1_555
H8 C7 1_555 1_555
C8 C4 1_555 1_555
C9 C14 1_555 1_555
C10 C3 1_555 1_555
H9 C10 1_555 1_555
H10 C10 1_555 1_555
O5 C18 1_555 1_555
C11 O1 1_555 1_555
C12 C1 1_555 1_555
C13 C7 1_555 1_555
H11 C13 1_555 1_555
C14 C2 1_555 1_555
H12 C14 1_555 1_555
C15 C9 1_555 1_555
H13 C15 1_555 1_555
H14 C15 1_555 1_555
C16 C9 1_555 1_555
H15 C16 1_555 1_555
H16 C16 1_555 1_555
H17 C16 1_555 1_555
C17 C8 1_555 1_555
H18 C17 1_555 1_555
C18 O3 1_555 1_555
C19 C9 1_555 1_555
H19 C19 1_555 1_555
H20 C19 1_555 1_555
H21 C19 1_555 1_555
C20 C17 1_555 1_555
H22 C20 1_555 1_555
H23 C20 1_555 1_555
H24 C20 1_555 1_555
C21 C17 1_555 1_555
H25 C21 1_555 1_555
H26 C21 1_555 1_555
H27 C21 1_555 1_555
C22 C18 1_555 1_555
H28 C22 1_555 1_555
H29 C22 1_555 1_555
H30 C22 1_555 1_555
C3 C11 1_555 1_555
C4 C11 1_555 1_555
C5 C11 1_555 1_555
C8 C12 1_555 1_555
C10 C14 1_555 1_555
C13 C15 1_555 1_555

#END
