
#######################################################################
#
#                 Cambridge Crystallographic Data Centre
#                                CCDC 
#
#######################################################################
#
# If this CIF has been generated from an entry in the Cambridge 
# Structural Database, then it will include bibliographic, chemical, 
# crystal, experimental, refinement or atomic coordinate data resulting 
# from the CCDC's data processing and validation procedures.
#
#######################################################################

data_EZIMAD
_chemical_compound_source        
'isolated from a Micromonospora sp. cultivated from the marine ascidian Symplegma brakenhielmi'
_chemical_name_common            'micromonohalimane A monohydrate'
_chemical_formula_moiety         'C22 H34 O6,H2 O1'
_chemical_name_systematic        
'1-(3,4-dihydroxy-5-oxotetrahydrofuran-3-yl)-2-(1,2,5,5-tetramethyl-1,2,3,5,6,7,8,8a-octahydronaphthalen-1-yl)ethyl acetate monohydrate'
_symmetry_cell_setting           monoclinic
_symmetry_space_group_name_H-M   'P 21'
_symmetry_Int_Tables_number      4
_space_group_name_Hall           'P 2yb'
loop_
_symmetry_equiv_pos_site_id
_symmetry_equiv_pos_as_xyz
1 x,y,z
2 -x,1/2+y,-z
_cell_length_a                   9.2381(5)
_cell_length_b                   6.9763(6)
_cell_length_c                   16.8910(8)
_cell_angle_alpha                90
_cell_angle_beta                 90.987(3)
_cell_angle_gamma                90
_cell_volume                     1088.43
_exptl_crystal_colour            colorless
_exptl_crystal_description       block
_cell_formula_units_Z            2
loop_
_atom_site_label
_atom_site_type_symbol
_atom_site_fract_x
_atom_site_fract_y
_atom_site_fract_z
O1 O 0.05322(13) 0.8123(2) 0.62799(7)
O2 O 0.03470(12) 0.49473(19) 0.64698(7)
O3 O -0.18367(12) 0.28584(18) 0.56305(7)
H1 H -0.0949 0.2699 0.5555
O4 O -0.06838(12) 0.60229(19) 0.47782(6)
H2 H -0.0824 0.5143 0.4446
O5 O -0.36060(14) 0.6270(2) 0.41122(7)
O6 O -0.43566(12) 0.5322(2) 0.52948(7)
C1 C 0.4226(2) 0.3681(4) 0.80401(12)
H3 H 0.3702 0.3367 0.7548
H4 H 0.5201 0.3128 0.8027
H5 H 0.4297 0.5076 0.8095
C2 C 0.4287(2) 0.3313(4) 0.95048(11)
H6 H 0.4459 0.4698 0.9533
H7 H 0.5217 0.2638 0.9492
H8 H 0.3750 0.2902 0.9970
C3 C 0.34041(19) 0.2847(3) 0.87521(10)
C4 C 0.3317(2) 0.0651(3) 0.86721(11)
H9 H 0.4305 0.0136 0.8603
H10 H 0.2935 0.0110 0.9169
C5 C 0.23600(19) -0.0010(3) 0.79802(11)
H11 H 0.2304 -0.1427 0.7975
H12 H 0.2783 0.0414 0.7475
C6 C 0.08426(19) 0.0836(3) 0.80611(11)
H13 H 0.0403 0.0333 0.8550
H14 H 0.0232 0.0416 0.7606
C7 C 0.08530(18) 0.3041(3) 0.80938(9)
H15 H 0.1266 0.3499 0.7584
C8 C 0.18770(18) 0.3721(3) 0.87564(10)
C9 C 0.1495(2) 0.5061(3) 0.92741(10)
H16 H 0.2151 0.5348 0.9697
C10 C 0.0101(2) 0.6139(3) 0.92331(10)
H17 H 0.0287 0.7501 0.9364
H18 H -0.0563 0.5618 0.9634
C11 C -0.06310(19) 0.6014(3) 0.84133(9)
H19 H -0.0001 0.6711 0.8033
C12 C -0.2093(2) 0.7052(3) 0.84234(11)
H20 H -0.2773 0.6320 0.8744
H21 H -0.2477 0.7168 0.7881
H22 H -0.1963 0.8333 0.8652
C13 C -0.07112(18) 0.3898(3) 0.81440(10)
C14 C -0.15980(18) 0.2734(3) 0.87406(10)
H23 H -0.2488 0.3432 0.8863
H24 H -0.1024 0.2546 0.9228
H25 H -0.1847 0.1485 0.8511
C15 C -0.15071(17) 0.3711(3) 0.73295(9)
H26 H -0.1304 0.2414 0.7121
H27 H -0.2560 0.3775 0.7426
C16 C -0.11730(16) 0.5146(3) 0.66773(9)
H28 H -0.1364 0.6479 0.6866
C17 C -0.20758(17) 0.4738(3) 0.59237(9)
C18 C -0.37008(17) 0.4923(3) 0.60715(9)
H29 H -0.4090 0.3719 0.6294
H30 H -0.3892 0.5984 0.6445
C19 C -0.33471(18) 0.5973(3) 0.48024(10)
C20 C -0.19111(17) 0.6216(3) 0.52510(9)
H31 H -0.1894 0.7525 0.5492
C21 C 0.10791(18) 0.6546(3) 0.62942(9)
C22 C 0.26370(18) 0.6132(3) 0.61343(10)
H32 H 0.2827 0.4763 0.6216
H33 H 0.3253 0.6885 0.6496
H34 H 0.2851 0.6476 0.5586
O7 O -0.3443(2) -0.0374(3) 0.63393(12)
H35 H -0.278(2) 0.055(3) 0.6169(15)
H36 H -0.4377(13) 0.013(4) 0.6248(15)
O8? O -0.294(2) -0.071(3) 0.6532(10)
O9? O -0.4098(17) -0.024(3) 0.7025(9)
loop_
_geom_bond_atom_site_label_1
_geom_bond_atom_site_label_2
_geom_bond_site_symmetry_1
_geom_bond_site_symmetry_2
O1 C21 1_555 1_555
O2 C16 1_555 1_555
O3 H1 1_555 1_555
O4 H2 1_555 1_555
O5 C19 1_555 1_555
O6 C18 1_555 1_555
C1 H3 1_555 1_555
H4 C1 1_555 1_555
H5 C1 1_555 1_555
C2 H6 1_555 1_555
H7 C2 1_555 1_555
H8 C2 1_555 1_555
C3 C1 1_555 1_555
C4 C3 1_555 1_555
H9 C4 1_555 1_555
H10 C4 1_555 1_555
C5 C4 1_555 1_555
H11 C5 1_555 1_555
H12 C5 1_555 1_555
C6 C5 1_555 1_555
H13 C6 1_555 1_555
H14 C6 1_555 1_555
C7 C6 1_555 1_555
H15 C7 1_555 1_555
C8 C3 1_555 1_555
C9 C8 1_555 1_555
H16 C9 1_555 1_555
C10 C9 1_555 1_555
H17 C10 1_555 1_555
H18 C10 1_555 1_555
C11 C10 1_555 1_555
H19 C11 1_555 1_555
C12 C11 1_555 1_555
H20 C12 1_555 1_555
H21 C12 1_555 1_555
H22 C12 1_555 1_555
C13 C7 1_555 1_555
C14 C13 1_555 1_555
H23 C14 1_555 1_555
H24 C14 1_555 1_555
H25 C14 1_555 1_555
C15 C13 1_555 1_555
H26 C15 1_555 1_555
H27 C15 1_555 1_555
C16 C15 1_555 1_555
H28 C16 1_555 1_555
C17 O3 1_555 1_555
C18 C17 1_555 1_555
H29 C18 1_555 1_555
H30 C18 1_555 1_555
C19 O6 1_555 1_555
C20 O4 1_555 1_555
H31 C20 1_555 1_555
C21 O2 1_555 1_555
C22 C21 1_555 1_555
H32 C22 1_555 1_555
H33 C22 1_555 1_555
H34 C22 1_555 1_555
O7 H35 1_555 1_555
H36 O7 1_555 1_555
C2 C3 1_555 1_555
C7 C8 1_555 1_555
C11 C13 1_555 1_555
C16 C17 1_555 1_555
C17 C20 1_555 1_555
C19 C20 1_555 1_555

#END
