
#######################################################################
#
#                 Cambridge Crystallographic Data Centre
#                                CCDC 
#
#######################################################################
#
# If this CIF has been generated from an entry in the Cambridge 
# Structural Database, then it will include bibliographic, chemical, 
# crystal, experimental, refinement or atomic coordinate data resulting 
# from the CCDC's data processing and validation procedures.
#
#######################################################################

data_EZIPIN
_chemical_compound_source        'whole plant of Ainsliaea macrocephala'
_chemical_name_common            'Ainsliadimer C methanol solvate'
_chemical_formula_moiety         'C30 H36 O7,C1 H4 O1'
_chemical_name_systematic        
"5a'-Hydroxy-1',3,8'-trimethyl-6-methylene-3a,4,5,5',5a',6,6',6a,7,7',7a',8',9a,9b,10a',10b'-hexadecahydro-2H-spiro[azuleno[4,5-b]furan-9,3'-benzo[1,8]azuleno[4,5-b]furan]-2,2',8,9'(1'H,3H,4'H)-tetrone methanol solvate"
_symmetry_cell_setting           monoclinic
_symmetry_space_group_name_H-M   'P 21'
_symmetry_Int_Tables_number      4
_space_group_name_Hall           'P 2yb'
loop_
_symmetry_equiv_pos_site_id
_symmetry_equiv_pos_as_xyz
1 x,y,z
2 -x,1/2+y,-z
_cell_length_a                   7.8681(9)
_cell_length_b                   13.5538(15)
_cell_length_c                   13.9435(15)
_cell_angle_alpha                90
_cell_angle_beta                 104.534(1)
_cell_angle_gamma                90
_cell_volume                     1439.39
_exptl_crystal_colour            colorless
_exptl_crystal_description       prism
_cell_formula_units_Z            2
loop_
_atom_site_label
_atom_site_type_symbol
_atom_site_fract_x
_atom_site_fract_y
_atom_site_fract_z
O1 O 0.4485(3) 0.65010(15) -0.29329(17)
O2 O 0.1542(2) 0.80310(13) -0.00816(11)
H1 H 0.210(3) 0.7522(16) 0.005(2)
O3 O 0.5258(2) 1.00314(12) -0.12828(12)
O4 O 0.6367(3) 1.15281(17) -0.09672(16)
O5 O 0.3517(3) 0.51438(16) -0.10308(15)
O6 O -0.1201(2) 0.73415(11) -0.38848(11)
O7 O -0.2337(3) 0.84446(15) -0.50460(15)
C1 C 0.2037(2) 0.79199(15) -0.17075(14)
C2 C 0.2344(3) 0.70496(15) -0.20872(14)
C3 C 0.3901(3) 0.71356(16) -0.24913(17)
C4 C 0.4665(3) 0.81587(16) -0.22571(16)
H2 H 0.5675 0.8113 -0.1681
C5 C 0.3192(3) 0.87241(15) -0.19491(14)
H3 H 0.2508 0.9069 -0.2538
C6 C 0.3747(3) 0.94835(16) -0.11369(16)
H4 H 0.4046 0.9158 -0.0489
C7 C 0.2364(3) 1.02753(17) -0.11600(16)
H5 H 0.1870 1.0454 -0.1855
C8 C 0.0852(3) 0.99598(18) -0.07383(18)
H6 H 0.0070 1.0518 -0.0765
H7 H 0.1316 0.9788 -0.0046
C9 C -0.0217(3) 0.90877(19) -0.12656(18)
H8 H -0.0550 0.9229 -0.1970
H9 H -0.1290 0.9045 -0.1045
C10 C 0.0681(3) 0.80722(17) -0.11165(14)
C11 C 0.3499(4) 1.11404(18) -0.06655(18)
H10 H 0.3724 1.1066 0.0055
C12 C 0.5196(4) 1.09592(19) -0.09603(18)
C13 C 0.2749(6) 1.2163(2) -0.0947(2)
H11 H 0.3561 1.2652 -0.0604
H12 H 0.1655 1.2229 -0.0766
H13 H 0.2557 1.2255 -0.1648
C14 C -0.0693(3) 0.72549(19) -0.14109(16)
H14 H -0.1434 0.7258 -0.0950
H15 H -0.1432 0.7401 -0.2064
C15 C 0.5277(3) 0.8609(2) -0.31087(19)
H16 H 0.6151 0.8192 -0.3270
H17 H 0.5770 0.9249 -0.2919
H18 H 0.4296 0.8672 -0.3676
C16 C 0.0382(3) 0.47049(17) -0.33253(17)
H19 H 0.0468 0.4544 -0.3997
C17 C 0.2148(4) 0.4445(2) -0.2613(2)
H20 H 0.2097 0.3795 -0.2330
H21 H 0.3075 0.4448 -0.2959
C18 C 0.2483(3) 0.52162(18) -0.18177(17)
C19 C 0.1286(3) 0.61218(16) -0.21471(14)
C20 C 0.0353(3) 0.58547(15) -0.32416(15)
H22 H 0.1113 0.6104 -0.3647
C21 C -0.1441(3) 0.63022(16) -0.36676(15)
H23 H -0.2135 0.6257 -0.3176
C22 C -0.2498(3) 0.58560(18) -0.46522(16)
H24 H -0.1685 0.5608 -0.5026
C23 C -0.3681(3) 0.5018(2) -0.44852(19)
H25 H -0.4519 0.4873 -0.5108
H26 H -0.4338 0.5239 -0.4023
C24 C -0.2713(4) 0.4066(2) -0.4086(2)
H27 H -0.3558 0.3603 -0.3945
H28 H -0.2242 0.3780 -0.4603
C25 C -0.1228(4) 0.41815(19) -0.3163(2)
C26 C -0.3473(3) 0.6757(2) -0.51835(16)
H29 H -0.4587 0.6817 -0.4995
C27 C -0.2323(3) 0.76106(19) -0.47386(18)
C28 C -0.3878(4) 0.6731(3) -0.63146(19)
H30 H -0.4398 0.7346 -0.6578
H31 H -0.4680 0.6202 -0.6560
H32 H -0.2810 0.6629 -0.6516
C29 C -0.1322(5) 0.3808(3) -0.2307(2)
H33 H -0.2318 0.3462 -0.2258
H34 H -0.0392 0.3889 -0.1750
C30 C 0.0080(3) 0.62252(18) -0.14256(16)
H35 H -0.0873 0.5754 -0.1613
H36 H 0.0751 0.6059 -0.0762
C31 C -0.1377(6) 1.0812(5) -0.3857(5)
H37 H -0.2116 1.0688 -0.3417
H38 H -0.2092 1.0912 -0.4516
H39 H -0.0681 1.1390 -0.3643
O8 O -0.0270(4) 1.0001(3) -0.3848(2)
H40 H -0.0845 0.9536 -0.4137
loop_
_geom_bond_atom_site_label_1
_geom_bond_atom_site_label_2
_geom_bond_site_symmetry_1
_geom_bond_site_symmetry_2
O1 C3 1_555 1_555
O2 H1 1_555 1_555
O3 C6 1_555 1_555
O4 C12 1_555 1_555
O5 C18 1_555 1_555
O6 C21 1_555 1_555
O7 C27 1_555 1_555
C1 C2 1_555 1_555
C2 C3 1_555 1_555
C3 C4 1_555 1_555
C4 H2 1_555 1_555
C5 C1 1_555 1_555
H3 C5 1_555 1_555
C6 C5 1_555 1_555
H4 C6 1_555 1_555
C7 C6 1_555 1_555
H5 C7 1_555 1_555
C8 C7 1_555 1_555
H6 C8 1_555 1_555
H7 C8 1_555 1_555
C9 C8 1_555 1_555
H8 C9 1_555 1_555
H9 C9 1_555 1_555
C10 O2 1_555 1_555
C11 C7 1_555 1_555
H10 C11 1_555 1_555
C12 O3 1_555 1_555
C13 C11 1_555 1_555
H11 C13 1_555 1_555
H12 C13 1_555 1_555
H13 C13 1_555 1_555
C14 C10 1_555 1_555
H14 C14 1_555 1_555
H15 C14 1_555 1_555
C15 C4 1_555 1_555
H16 C15 1_555 1_555
H17 C15 1_555 1_555
H18 C15 1_555 1_555
C16 H19 1_555 1_555
C17 C16 1_555 1_555
H20 C17 1_555 1_555
H21 C17 1_555 1_555
C18 C17 1_555 1_555
C19 C2 1_555 1_555
C20 C16 1_555 1_555
H22 C20 1_555 1_555
C21 C20 1_555 1_555
H23 C21 1_555 1_555
C22 C21 1_555 1_555
H24 C22 1_555 1_555
C23 C22 1_555 1_555
H25 C23 1_555 1_555
H26 C23 1_555 1_555
C24 C23 1_555 1_555
H27 C24 1_555 1_555
H28 C24 1_555 1_555
C25 C16 1_555 1_555
C26 C22 1_555 1_555
H29 C26 1_555 1_555
C27 O6 1_555 1_555
C28 C26 1_555 1_555
H30 C28 1_555 1_555
H31 C28 1_555 1_555
H32 C28 1_555 1_555
C29 C25 1_555 1_555
H33 C29 1_555 1_555
H34 C29 1_555 1_555
C30 C14 1_555 1_555
H35 C30 1_555 1_555
H36 C30 1_555 1_555
C31 H37 1_555 1_555
H38 C31 1_555 1_555
H39 C31 1_555 1_555
O8 C31 1_555 1_555
H40 O8 1_555 1_555
C1 C10 1_555 1_555
C4 C5 1_555 1_555
C9 C10 1_555 1_555
C11 C12 1_555 1_555
C18 C19 1_555 1_555
C19 C20 1_555 1_555
C19 C30 1_555 1_555
C24 C25 1_555 1_555
C26 C27 1_555 1_555

#END
