
#######################################################################
#
#                 Cambridge Crystallographic Data Centre
#                                CCDC 
#
#######################################################################
#
# If this CIF has been generated from an entry in the Cambridge 
# Structural Database, then it will include bibliographic, chemical, 
# crystal, experimental, refinement or atomic coordinate data resulting 
# from the CCDC's data processing and validation procedures.
#
#######################################################################

data_EZIRAH
_chemical_compound_source        'bark of Melia azedarach'
_chemical_formula_moiety         'C25 H40 O5,0.5(C1 H4 O1)'
_chemical_name_systematic        
'(20R)-2\a,3\a,20-Trihydroxy-5\a-pregnane 16\b-methacrylate methanol solvate'
_chemical_properties_biological  'cytotoxic activity'
_symmetry_cell_setting           triclinic
_symmetry_space_group_name_H-M   'P 1'
_symmetry_Int_Tables_number      1
_space_group_name_Hall           'P 1'
loop_
_symmetry_equiv_pos_site_id
_symmetry_equiv_pos_as_xyz
1 x,y,z
_cell_length_a                   6.0445(4)
_cell_length_b                   12.4052(8)
_cell_length_c                   16.8601(11)
_cell_angle_alpha                108.671(2)
_cell_angle_beta                 97.047(2)
_cell_angle_gamma                94.213(2)
_cell_volume                     1180.07
_exptl_crystal_colour            colorless
_exptl_crystal_description       block
_chemical_melting_point          '206-207 deg.C'
_cell_formula_units_Z            2
loop_
_atom_site_label
_atom_site_type_symbol
_atom_site_fract_x
_atom_site_fract_y
_atom_site_fract_z
C1 C -1.0591(6) 0.3288(3) 1.0513(2)
H1 H -0.9662 0.4040 1.0680
H2 H -1.2146 0.3432 1.0603
C2 C -0.9691(7) 0.2621(3) 1.1070(2)
H3 H -0.9885 0.3030 1.1669
C3 C -1.0993(9) 0.1430(3) 1.0772(3)
H4 H -1.2594 0.1531 1.0838
C4 C -1.0958(7) 0.0799(3) 0.9836(2)
H5 H -1.1830 0.0033 0.9672
H6 H -0.9389 0.0687 0.9750
C5 C -1.1931(5) 0.1440(3) 0.9262(2)
C6 C -1.0579(5) 0.2650(2) 0.9579(2)
H7 H -0.8982 0.2535 0.9515
C7 C -1.1337(7) 0.3346(3) 0.9016(2)
H8 H -1.2924 0.3473 0.9054
H9 H -1.0419 0.4104 0.9220
C8 C -1.1104(6) 0.2735(3) 0.8100(2)
H10 H -0.9491 0.2705 0.8054
H11 H -1.1710 0.3183 0.7749
C9 C -1.2318(5) 0.1520(2) 0.7749(2)
H12 H -1.3966 0.1565 0.7738
C10 C -1.1562(5) 0.0839(2) 0.8334(2)
H13 H -0.9901 0.0848 0.8352
C11 C -1.2548(6) -0.0431(3) 0.7964(2)
H14 H -1.4169 -0.0491 0.8005
H15 H -1.1816 -0.0853 0.8311
C12 C -1.2250(6) -0.1005(2) 0.7035(2)
H16 H -1.0636 -0.1059 0.7003
H17 H -1.3047 -0.1793 0.6822
C13 C -1.3156(5) -0.0338(2) 0.6477(2)
C14 C -1.1917(5) 0.0898(2) 0.6861(2)
H18 H -1.0274 0.0825 0.6897
C15 C -1.2516(6) 0.1416(3) 0.6161(2)
H19 H -1.3965 0.1737 0.6209
H20 H -1.1335 0.2032 0.6193
C16 C -1.2680(5) 0.0419(3) 0.5336(2)
H21 H -1.1432 0.0537 0.5023
C17 C -1.2496(5) -0.0679(2) 0.5576(2)
H22 H -1.0861 -0.0769 0.5648
C18 C -1.3661(6) -0.1792(3) 0.4915(2)
H23 H -1.5327 -0.1802 0.4878
C19 C -1.3000(7) -0.1981(3) 0.4051(2)
H24 H -1.3799 -0.2704 0.3653
H25 H -1.1377 -0.2015 0.4086
H26 H -1.3393 -0.1348 0.3854
C20 C -1.5078(6) 0.0974(3) 0.4350(2)
C21 C -1.7279(6) 0.0733(3) 0.3789(2)
C22 C -1.8583(9) -0.0204(5) 0.3669(4)
C23 C -1.7826(10) 0.1565(4) 0.3350(3)
H27 H -1.9327 0.1323 0.3012
H28 H -1.6719 0.1594 0.2977
H29 H -1.7795 0.2326 0.3771
C24 C -1.4457(6) 0.1484(3) 0.9306(3)
H30 H -1.4666 0.1864 0.9894
H31 H -1.5238 0.0702 0.9101
H32 H -1.5074 0.1914 0.8951
C25 C -1.5718(5) -0.0374(3) 0.6427(2)
H33 H -1.6414 -0.1172 0.6185
H34 H -1.6282 0.0060 0.6067
H35 H -1.6091 -0.0034 0.6997
O1 O -1.0246(8) 0.0766(3) 1.12778(18)
H71 H -0.9036 0.0524 1.1144
O2 O -0.7368(4) 0.2502(2) 1.10353(16)
H72 H -0.6648 0.3150 1.1140
O3 O -1.2950(4) -0.26910(18) 0.52175(16)
H73 H -1.3983 -0.3239 0.5066
O4 O -1.3635(5) 0.1730(2) 0.43962(19)
O5 O -1.4847(4) 0.02842(17) 0.48040(15)
H83 H -1.994(8) -0.040(4) 0.326(3)
H84 H -1.824(9) -0.067(4) 0.402(4)
C26 C -0.7665(5) 0.4029(3) 0.5529(2)
H36 H -0.6697 0.3416 0.5335
H37 H -0.9224 0.3661 0.5447
C27 C -0.7568(5) 0.4810(3) 0.4991(2)
H38 H -0.8254 0.4365 0.4393
C28 C -0.8878(5) 0.5799(3) 0.5331(2)
H39 H -1.0483 0.5484 0.5272
C29 C -0.8048(5) 0.6464(3) 0.6269(2)
H40 H -0.8954 0.7105 0.6462
H41 H -0.6467 0.6795 0.6337
C30 C -0.8206(5) 0.5704(2) 0.6828(2)
C31 C -0.6896(5) 0.4682(2) 0.6471(2)
H42 H -0.5305 0.5014 0.6524
C32 C -0.6849(6) 0.3888(3) 0.6997(2)
H43 H -0.5923 0.3270 0.6763
H44 H -0.8393 0.3528 0.6959
C33 C -0.5892(6) 0.4530(3) 0.7926(2)
H45 H -0.6061 0.4004 0.8255
H46 H -0.4267 0.4762 0.7971
C34 C -0.7021(5) 0.5591(2) 0.8318(2)
H47 H -0.8602 0.5341 0.8358
C35 C -0.7065(5) 0.6368(2) 0.7752(2)
H48 H -0.5460 0.6575 0.7715
C36 C -0.7957(6) 0.7504(3) 0.8180(2)
H49 H -0.7782 0.8009 0.7835
H50 H -0.9581 0.7349 0.8191
C37 C -0.6763(6) 0.8133(3) 0.9086(2)
H51 H -0.5178 0.8380 0.9071
H52 H -0.7485 0.8828 0.9337
C38 C -0.6839(5) 0.7375(3) 0.9645(2)
C39 C -0.5823(5) 0.6285(3) 0.9202(2)
H53 H -0.4277 0.6547 0.9131
C40 C -0.5512(6) 0.5689(3) 0.9863(2)
H54 H -0.4294 0.5193 0.9764
H55 H -0.6915 0.5218 0.9854
C41 C -0.4897(6) 0.6679(3) 1.0703(2)
H56 H -0.3293 0.6697 1.0944
C42 C -0.5225(6) 0.7796(3) 1.0498(2)
H57 H -0.3748 0.8062 1.0371
C43 C -0.5770(7) 0.8780(3) 1.1237(2)
H58 H -0.7223 0.8547 1.1398
C44 C -0.3942(7) 0.9089(4) 1.2001(3)
H59 H -0.4332 0.9724 1.2462
H60 H -0.2513 0.9319 1.1848
H61 H -0.3799 0.8422 1.2188
C45 C -0.6129(6) 0.5777(3) 1.1665(2)
C46 C -0.7565(6) 0.5869(3) 1.2331(2)
C47 C -0.9339(9) 0.6608(5) 1.2380(3)
H62 H -1.0145 0.6588 1.2847
H63 H -1.0387 0.6338 1.1846
H64 H -0.8681 0.7395 1.2481
C48 C -0.7171(10) 0.5280(4) 1.2850(3)
C49 C -1.0710(5) 0.5324(3) 0.6809(2)
H65 H -1.1411 0.4908 0.6223
H66 H -1.1472 0.6000 0.7041
H67 H -1.0835 0.4822 0.7151
C50 C -0.9274(5) 0.7143(3) 0.9784(2)
H68 H -1.0268 0.6883 0.9237
H69 H -0.9732 0.7849 1.0153
H70 H -0.9371 0.6549 1.0051
O6 O -0.5300(4) 0.52488(18) 0.50047(14)
H74 H -0.4686 0.4746 0.4669
O7 O -0.8780(4) 0.65456(19) 0.48369(14)
H75 H -0.9932 0.6887 0.4857
O8 O -0.5993(8) 0.9759(2) 1.09749(19)
H76 H -0.7227 1.0001 1.1074
O9 O -0.4885(5) 0.5044(2) 1.14453(19)
O10 O -0.6353(4) 0.66026(18) 1.13201(14)
H81 H -0.593(7) 0.483(3) 1.280(3)
H82 H -0.810(8) 0.529(4) 1.328(3)
O11 O -1.3150(5) 0.3653(2) 0.39140(19)
H77 H -1.313(10) 0.288(5) 0.405(4)
C51 C -1.2622(10) 0.3429(5) 0.3082(4)
H78 H -1.1490 0.4036 0.3081
H79 H -1.3981 0.3408 0.2693
H80 H -1.2031 0.2689 0.2900
loop_
_geom_bond_atom_site_label_1
_geom_bond_atom_site_label_2
_geom_bond_site_symmetry_1
_geom_bond_site_symmetry_2
C1 H1 1_555 1_555
H2 C1 1_555 1_555
C2 C1 1_555 1_555
H3 C2 1_555 1_555
C3 C2 1_555 1_555
H4 C3 1_555 1_555
C4 C3 1_555 1_555
H5 C4 1_555 1_555
H6 C4 1_555 1_555
C5 C4 1_555 1_555
C6 C1 1_555 1_555
H7 C6 1_555 1_555
C7 C6 1_555 1_555
H8 C7 1_555 1_555
H9 C7 1_555 1_555
C8 C7 1_555 1_555
H10 C8 1_555 1_555
H11 C8 1_555 1_555
C9 C8 1_555 1_555
H12 C9 1_555 1_555
C10 C5 1_555 1_555
H13 C10 1_555 1_555
C11 C10 1_555 1_555
H14 C11 1_555 1_555
H15 C11 1_555 1_555
C12 C11 1_555 1_555
H16 C12 1_555 1_555
H17 C12 1_555 1_555
C13 C12 1_555 1_555
C14 C9 1_555 1_555
H18 C14 1_555 1_555
C15 C14 1_555 1_555
H19 C15 1_555 1_555
H20 C15 1_555 1_555
C16 C15 1_555 1_555
H21 C16 1_555 1_555
C17 C13 1_555 1_555
H22 C17 1_555 1_555
C18 C17 1_555 1_555
H23 C18 1_555 1_555
C19 C18 1_555 1_555
H24 C19 1_555 1_555
H25 C19 1_555 1_555
H26 C19 1_555 1_555
C20 C21 1_555 1_555
C21 C22 1_555 1_555
C22 H83 1_555 1_555
C23 C21 1_555 1_555
H27 C23 1_555 1_555
H28 C23 1_555 1_555
H29 C23 1_555 1_555
C24 C5 1_555 1_555
H30 C24 1_555 1_555
H31 C24 1_555 1_555
H32 C24 1_555 1_555
C25 C13 1_555 1_555
H33 C25 1_555 1_555
H34 C25 1_555 1_555
H35 C25 1_555 1_555
C26 H36 1_555 1_555
H37 C26 1_555 1_555
C27 C26 1_555 1_555
H38 C27 1_555 1_555
C28 C27 1_555 1_555
H39 C28 1_555 1_555
C29 C28 1_555 1_555
H40 C29 1_555 1_555
H41 C29 1_555 1_555
C30 C29 1_555 1_555
C31 C26 1_555 1_555
H42 C31 1_555 1_555
C32 C31 1_555 1_555
H43 C32 1_555 1_555
H44 C32 1_555 1_555
C33 C32 1_555 1_555
H45 C33 1_555 1_555
H46 C33 1_555 1_555
C34 C33 1_555 1_555
H47 C34 1_555 1_555
C35 C30 1_555 1_555
H48 C35 1_555 1_555
C36 C35 1_555 1_555
H49 C36 1_555 1_555
H50 C36 1_555 1_555
C37 C36 1_555 1_555
H51 C37 1_555 1_555
H52 C37 1_555 1_555
C38 C37 1_555 1_555
C39 C34 1_555 1_555
H53 C39 1_555 1_555
C40 C39 1_555 1_555
H54 C40 1_555 1_555
H55 C40 1_555 1_555
C41 C40 1_555 1_555
H56 C41 1_555 1_555
C42 C38 1_555 1_555
H57 C42 1_555 1_555
C43 C42 1_555 1_555
H58 C43 1_555 1_555
C44 C43 1_555 1_555
H59 C44 1_555 1_555
H60 C44 1_555 1_555
H61 C44 1_555 1_555
C45 C46 1_555 1_555
C46 C47 1_555 1_555
C47 H62 1_555 1_555
H63 C47 1_555 1_555
H64 C47 1_555 1_555
C48 C46 1_555 1_555
C49 C30 1_555 1_555
H65 C49 1_555 1_555
H66 C49 1_555 1_555
H67 C49 1_555 1_555
C50 C38 1_555 1_555
H68 C50 1_555 1_555
H69 C50 1_555 1_555
H70 C50 1_555 1_555
O1 C3 1_555 1_555
H71 O1 1_555 1_555
O2 C2 1_555 1_555
H72 O2 1_555 1_555
O3 C18 1_555 1_555
H73 O3 1_555 1_555
O4 C20 1_555 1_555
O5 C16 1_555 1_555
O6 C27 1_555 1_555
H74 O6 1_555 1_555
O7 C28 1_555 1_555
H75 O7 1_555 1_555
O8 C43 1_555 1_555
H76 O8 1_555 1_555
O9 C45 1_555 1_555
O10 C41 1_555 1_555
O11 H77 1_555 1_555
C51 O11 1_555 1_555
H78 C51 1_555 1_555
H79 C51 1_555 1_555
H80 C51 1_555 1_555
H81 C48 1_555 1_555
H82 C48 1_555 1_555
H84 C22 1_555 1_555
C5 C6 1_555 1_555
C9 C10 1_555 1_555
C13 C14 1_555 1_555
C16 C17 1_555 1_555
C20 O5 1_555 1_555
C30 C31 1_555 1_555
C34 C35 1_555 1_555
C38 C39 1_555 1_555
C41 C42 1_555 1_555
C45 O10 1_555 1_555

#END
