
#######################################################################
#
#                 Cambridge Crystallographic Data Centre
#                                CCDC 
#
#######################################################################
#
# If this CIF has been generated from an entry in the Cambridge 
# Structural Database, then it will include bibliographic, chemical, 
# crystal, experimental, refinement or atomic coordinate data resulting 
# from the CCDC's data processing and validation procedures.
#
#######################################################################

data_EZIZAQ
_chemical_formula_moiety         'C21 H23 N1 O3 S1'
_chemical_name_systematic        
4-methyl-N-(14-oxatetracyclo[6.5.1.0^1,10^.0^2,7^]tetradeca-2,4,6-trien-8-ylmethyl)benzenesulfonamide
_symmetry_cell_setting           monoclinic
_symmetry_space_group_name_H-M   'P 21/n'
_symmetry_Int_Tables_number      14
_space_group_name_Hall           '-P 2yn'
loop_
_symmetry_equiv_pos_site_id
_symmetry_equiv_pos_as_xyz
1 x,y,z
2 1/2-x,1/2+y,1/2-z
3 -x,-y,-z
4 1/2+x,1/2-y,1/2+z
_cell_length_a                   10.264(3)
_cell_length_b                   17.364(5)
_cell_length_c                   21.635(7)
_cell_angle_alpha                90
_cell_angle_beta                 93.165(9)
_cell_angle_gamma                90
_cell_volume                     3850
_exptl_crystal_colour            colorless
_exptl_crystal_description       Prism
_cell_formula_units_Z            8
loop_
_atom_site_label
_atom_site_type_symbol
_atom_site_fract_x
_atom_site_fract_y
_atom_site_fract_z
S1 S 0.49174(13) 0.20227(7) 0.17483(5)
O1 O 0.3674(3) 0.2048(2) 0.13979(16)
O2 O 0.7273(3) 0.41205(18) 0.13406(15)
O3 O 0.4942(4) 0.1922(2) 0.24025(15)
N1 N 0.5648(4) 0.2819(2) 0.16319(17)
H1 H 0.5933 0.3095 0.1941
C1 C 0.5111(5) 0.4458(3) 0.1258(2)
C2 C 0.5853(5) 0.1285(3) 0.1438(2)
C3 C 0.6087(5) 0.3925(3) 0.0969(2)
C4 C 0.5836(5) 0.5105(3) 0.1462(2)
C5 C 0.3802(5) 0.4416(4) 0.1303(3)
H2 H 0.3315 0.3999 0.1149
C6 C 0.7138(5) 0.5014(3) 0.0537(3)
H3 H 0.6642 0.5467 0.0390
C7 C 0.6431(6) 0.4266(3) 0.0338(2)
H4 H 0.6999 0.3925 0.0121
H5 H 0.5653 0.4371 0.0076
C8 C 0.5833(5) 0.3080(3) 0.0993(2)
H6 H 0.5058 0.2960 0.0734
H7 H 0.6562 0.2806 0.0830
C9 C 0.5240(6) 0.5716(3) 0.1731(2)
H8 H 0.5716 0.6146 0.1864
C10 C 0.3218(6) 0.5050(4) 0.1598(3)
H9 H 0.2327 0.5036 0.1655
C11 C 0.6990(6) 0.1030(3) 0.1768(3)
H10 H 0.7223 0.1231 0.2157
C12 C 0.7181(5) 0.4961(3) 0.1255(2)
C13 C 0.6347(7) 0.0443(4) 0.0608(3)
H11 H 0.6128 0.0243 0.0217
C14 C 0.5553(6) 0.0992(3) 0.0852(2)
H12 H 0.4817 0.1166 0.0623
C15 C 0.7450(7) 0.0187(4) 0.0928(4)
C16 C 0.3911(7) 0.5675(4) 0.1800(3)
H13 H 0.3488 0.6080 0.1986
C17 C 0.7748(7) 0.0481(4) 0.1510(4)
H14 H 0.8486 0.0302 0.1734
C18 C 0.8406(6) 0.5344(3) 0.1494(3)
H15 H 0.8716 0.5124 0.1887
H16 H 0.8272 0.5892 0.1547
C19 C 0.8344(9) -0.0395(5) 0.0635(5)
H17 H 0.9066 -0.0512 0.0920
H18 H 0.7865 -0.0858 0.0537
H19 H 0.8663 -0.0181 0.0263
C20 C 0.8586(7) 0.5081(4) 0.0384(4)
H20 H 0.8867 0.4617 0.0180
H21 H 0.8712 0.5517 0.0113
C21 C 0.9357(7) 0.5192(4) 0.1001(5)
H22 H 0.9865 0.4734 0.1104
H23 H 0.9952 0.5624 0.0974
S2 S 0.95531(13) 0.26443(7) 0.20521(5)
O4 O 0.9229(3) 0.30638(17) -0.00408(13)
O5 O 0.8278(3) 0.2693(2) 0.22937(15)
N2 N 0.9361(4) 0.2910(2) 0.13451(15)
H24 H 0.8613 0.3071 0.1199
O6 O 1.0218(4) 0.1919(2) 0.20624(16)
C22 C 1.1226(5) 0.2519(3) -0.01164(19)
C23 C 1.0115(5) 0.2567(3) 0.03068(19)
C24 C 1.0666(5) 0.2586(3) -0.0716(2)
C25 C 0.9211(5) 0.2631(3) -0.06255(18)
C26 C 1.0480(5) 0.2876(3) 0.09465(19)
H25 H 1.1151 0.2550 0.1142
H26 H 1.0842 0.3388 0.0909
C27 C 0.9373(5) 0.1788(3) 0.0256(2)
H27 H 0.9967 0.1354 0.0298
H28 H 0.8725 0.1748 0.0565
C28 C 0.8730(5) 0.1840(3) -0.0402(2)
H29 H 0.9029 0.1422 -0.0665
C29 C 1.0565(5) 0.3319(3) 0.24479(19)
C30 C 0.8205(5) 0.2939(3) -0.1087(2)
H30 H 0.8426 0.2808 -0.1504
H31 H 0.8148 0.3495 -0.1054
C31 C 1.1918(5) 0.3235(3) 0.2464(2)
H32 H 1.2297 0.2816 0.2276
C32 C 1.2569(5) 0.2420(3) -0.0026(2)
H33 H 1.2960 0.2376 0.0370
C33 C 1.2679(6) 0.3786(4) 0.2764(3)
H34 H 1.3581 0.3735 0.2770
C34 C 1.0032(6) 0.3937(4) 0.2736(2)
H35 H 0.9130 0.3993 0.2725
C35 C 0.6924(6) 0.2570(4) -0.0938(3)
H36 H 0.6353 0.2949 -0.0765
H37 H 0.6491 0.2361 -0.1311
C36 C 0.7224(5) 0.1937(3) -0.0477(2)
H38 H 0.6823 0.1460 -0.0622
H39 H 0.6879 0.2068 -0.0082
C37 C 1.2739(6) 0.2437(4) -0.1131(3)
H40 H 1.3259 0.2415 -0.1469
C38 C 1.2161(8) 0.4405(4) 0.3054(3)
C39 C 1.1395(6) 0.2519(3) -0.1223(2)
H41 H 1.1000 0.2529 -0.1621
C40 C 1.3301(6) 0.2389(4) -0.0538(2)
H42 H 1.4201 0.2335 -0.0484
C41 C 1.0802(8) 0.4471(4) 0.3039(3)
H43 H 1.0421 0.4882 0.3237
C42 C 1.3005(9) 0.5008(5) 0.3371(4)
H44 H 1.2464 0.5393 0.3546
H45 H 1.3547 0.4773 0.3695
H46 H 1.3545 0.5244 0.3076
loop_
_geom_bond_atom_site_label_1
_geom_bond_atom_site_label_2
_geom_bond_site_symmetry_1
_geom_bond_site_symmetry_2
S1 O1 1_555 1_555
O2 C3 1_555 1_555
O3 S1 1_555 1_555
N1 S1 1_555 1_555
H1 N1 1_555 1_555
C1 C3 1_555 1_555
C2 S1 1_555 1_555
C3 C7 1_555 1_555
C4 C1 1_555 1_555
C5 C1 1_555 1_555
H2 C5 1_555 1_555
C6 H3 1_555 1_555
C7 C6 1_555 1_555
H4 C7 1_555 1_555
H5 C7 1_555 1_555
C8 N1 1_555 1_555
H6 C8 1_555 1_555
H7 C8 1_555 1_555
C9 C4 1_555 1_555
H8 C9 1_555 1_555
C10 C5 1_555 1_555
H9 C10 1_555 1_555
C11 C2 1_555 1_555
H10 C11 1_555 1_555
C12 O2 1_555 1_555
C13 H11 1_555 1_555
C14 C2 1_555 1_555
H12 C14 1_555 1_555
C15 C13 1_555 1_555
C16 C9 1_555 1_555
H13 C16 1_555 1_555
C17 C11 1_555 1_555
H14 C17 1_555 1_555
C18 C12 1_555 1_555
H15 C18 1_555 1_555
H16 C18 1_555 1_555
C19 C15 1_555 1_555
H17 C19 1_555 1_555
H18 C19 1_555 1_555
H19 C19 1_555 1_555
C20 C6 1_555 1_555
H20 C20 1_555 1_555
H21 C20 1_555 1_555
C21 C18 1_555 1_555
H22 C21 1_555 1_555
H23 C21 1_555 1_555
S2 O5 1_555 1_555
O4 C23 1_555 1_555
N2 S2 1_555 1_555
H24 N2 1_555 1_555
O6 S2 1_555 1_555
C22 C23 1_555 1_555
C23 C26 1_555 1_555
C24 C22 1_555 1_555
C25 O4 1_555 1_555
C26 N2 1_555 1_555
H25 C26 1_555 1_555
H26 C26 1_555 1_555
C27 C23 1_555 1_555
H27 C27 1_555 1_555
H28 C27 1_555 1_555
C28 C25 1_555 1_555
H29 C28 1_555 1_555
C29 S2 1_555 1_555
C30 C25 1_555 1_555
H30 C30 1_555 1_555
H31 C30 1_555 1_555
C31 C29 1_555 1_555
H32 C31 1_555 1_555
C32 C22 1_555 1_555
H33 C32 1_555 1_555
C33 C31 1_555 1_555
H34 C33 1_555 1_555
C34 C29 1_555 1_555
H35 C34 1_555 1_555
C35 C30 1_555 1_555
H36 C35 1_555 1_555
H37 C35 1_555 1_555
C36 C28 1_555 1_555
H38 C36 1_555 1_555
H39 C36 1_555 1_555
C37 H40 1_555 1_555
C38 C33 1_555 1_555
C39 C24 1_555 1_555
H41 C39 1_555 1_555
C40 C32 1_555 1_555
H42 C40 1_555 1_555
C41 C34 1_555 1_555
H43 C41 1_555 1_555
C42 C38 1_555 1_555
H44 C42 1_555 1_555
H45 C42 1_555 1_555
H46 C42 1_555 1_555
C3 C8 1_555 1_555
C4 C12 1_555 1_555
C6 C12 1_555 1_555
C10 C16 1_555 1_555
C13 C14 1_555 1_555
C15 C17 1_555 1_555
C20 C21 1_555 1_555
C24 C25 1_555 1_555
C27 C28 1_555 1_555
C35 C36 1_555 1_555
C37 C39 1_555 1_555
C37 C40 1_555 1_555
C38 C41 1_555 1_555

#END
