
#######################################################################
#
#                 Cambridge Crystallographic Data Centre
#                                CCDC 
#
#######################################################################
#
# If this CIF has been generated from an entry in the Cambridge 
# Structural Database, then it will include bibliographic, chemical, 
# crystal, experimental, refinement or atomic coordinate data resulting 
# from the CCDC's data processing and validation procedures.
#
#######################################################################

data_EZOHEI
_chemical_formula_moiety         'C15 H15 N1 O4'
_chemical_name_systematic        
5-ethoxy-1'-ethyl-3H-spiro[furan-2,3'-indole]-2',3(1'H)-dione
_symmetry_cell_setting           orthorhombic
_symmetry_space_group_name_H-M   'P 21 21 21'
_symmetry_Int_Tables_number      19
_space_group_name_Hall           'P 2ac 2ab'
loop_
_symmetry_equiv_pos_site_id
_symmetry_equiv_pos_as_xyz
1 x,y,z
2 1/2-x,-y,1/2+z
3 -x,1/2+y,1/2-z
4 1/2+x,1/2-y,-z
_cell_length_a                   8.56310(8)
_cell_length_b                   11.52249(11)
_cell_length_c                   13.97167(11)
_cell_angle_alpha                90
_cell_angle_beta                 90
_cell_angle_gamma                90
_cell_volume                     1378.56
_exptl_crystal_colour            colorless
_exptl_crystal_description       prism
_cell_formula_units_Z            4
loop_
_atom_site_label
_atom_site_type_symbol
_atom_site_fract_x
_atom_site_fract_y
_atom_site_fract_z
O1 O 0.91621(18) 0.72976(14) 0.22006(10)
O2 O 0.58509(15) 0.65849(9) 0.24215(8)
O3 O 0.68752(14) 0.90477(10) 0.37881(9)
O4 O 0.39988(15) 0.70678(11) 0.14208(9)
N1 N 0.92536(15) 0.64700(12) 0.37008(10)
C1 C 0.85432(18) 0.69718(14) 0.29312(11)
C2 C 0.67880(17) 0.70755(13) 0.31769(11)
C3 C 0.62956(17) 0.83612(13) 0.32273(11)
C4 C 0.5100(2) 0.84869(13) 0.25284(12)
H1 H 0.4547 0.9162 0.2391
C5 C 0.49155(18) 0.74405(14) 0.20988(11)
C6 C 0.66574(17) 0.64372(13) 0.41036(11)
C7 C 0.81507(17) 0.61158(13) 0.43924(11)
C8 C 0.8399(2) 0.55318(15) 0.52397(13)
H2 H 0.9397 0.5311 0.5429
C9 C 0.7099(2) 0.52859(17) 0.57987(13)
H3 H 0.7235 0.4891 0.6373
C10 C 0.5611(2) 0.56100(17) 0.55274(13)
H4 H 0.4763 0.5431 0.5916
C11 C 0.53787(19) 0.62050(15) 0.46711(13)
H5 H 0.4384 0.6440 0.4487
C12 C 1.09398(19) 0.62726(17) 0.37532(14)
H6 H 1.1266 0.6290 0.4418
H7 H 1.1476 0.6895 0.3421
C13 C 1.1397(3) 0.5146(3) 0.3325(3)
H8 H 1.1096 0.5131 0.2663
H9 H 1.0884 0.4526 0.3659
H10 H 1.2508 0.5050 0.3374
C14 C 0.2857(2) 0.78910(19) 0.10481(14)
H11 H 0.3380 0.8578 0.0807
H12 H 0.2142 0.8124 0.1551
C15 C 0.1989(3) 0.7307(3) 0.0263(2)
H13 H 0.2685 0.7156 -0.0260
H14 H 0.1154 0.7800 0.0050
H15 H 0.1565 0.6588 0.0493
loop_
_geom_bond_atom_site_label_1
_geom_bond_atom_site_label_2
_geom_bond_site_symmetry_1
_geom_bond_site_symmetry_2
O1 C1 1_555 1_555
O2 C2 1_555 1_555
O3 C3 1_555 1_555
O4 C5 1_555 1_555
N1 C1 1_555 1_555
C1 C2 1_555 1_555
C2 C3 1_555 1_555
C3 C4 1_555 1_555
C4 H1 1_555 1_555
C5 O2 1_555 1_555
C6 C2 1_555 1_555
C7 N1 1_555 1_555
C8 C7 1_555 1_555
H2 C8 1_555 1_555
C9 C8 1_555 1_555
H3 C9 1_555 1_555
C10 C9 1_555 1_555
H4 C10 1_555 1_555
C11 C6 1_555 1_555
H5 C11 1_555 1_555
C12 N1 1_555 1_555
H6 C12 1_555 1_555
H7 C12 1_555 1_555
C13 C12 1_555 1_555
H8 C13 1_555 1_555
H9 C13 1_555 1_555
H10 C13 1_555 1_555
C14 O4 1_555 1_555
H11 C14 1_555 1_555
H12 C14 1_555 1_555
C15 C14 1_555 1_555
H13 C15 1_555 1_555
H14 C15 1_555 1_555
H15 C15 1_555 1_555
C4 C5 1_555 1_555
C6 C7 1_555 1_555
C10 C11 1_555 1_555

#END
