
#######################################################################
#
#                 Cambridge Crystallographic Data Centre
#                                CCDC 
#
#######################################################################
#
# If this CIF has been generated from an entry in the Cambridge 
# Structural Database, then it will include bibliographic, chemical, 
# crystal, experimental, refinement or atomic coordinate data resulting 
# from the CCDC's data processing and validation procedures.
#
#######################################################################

data_EZOHEH
_chemical_compound_source        
'endophytic fungus Aspergillus terreus IFB-E030'
_chemical_name_common            'Cytochalasin Z16 monohydrate'
_chemical_formula_moiety         'C28 H33 N1 O5,H2 O1'
_chemical_name_systematic        
'14-Benzyl-11-hydroxy-5,7,13-trimethyl-12-methylene-8,10a,11,12,13,13a,14,15-octahydro-2H-oxacyclododecino[2,3-d]isoindole-2,6,16(3H,7H)-trione monohydrate'
_symmetry_cell_setting           monoclinic
_symmetry_space_group_name_H-M   'P 21'
_symmetry_Int_Tables_number      4
_space_group_name_Hall           'P 2yb'
loop_
_symmetry_equiv_pos_site_id
_symmetry_equiv_pos_as_xyz
1 x,y,z
2 -x,1/2+y,-z
_cell_length_a                   10.050(2)
_cell_length_b                   11.819(2)
_cell_length_c                   11.250(2)
_cell_angle_alpha                90
_cell_angle_beta                 100.86(3)
_cell_angle_gamma                90
_cell_volume                     1312.35
_exptl_crystal_colour            colorless
_exptl_crystal_description       block
_cell_formula_units_Z            2
_exptl_crystal_recrystallization_method methanol/water
loop_
_atom_site_label
_atom_site_type_symbol
_atom_site_fract_x
_atom_site_fract_y
_atom_site_fract_z
O1 O 0.2505(4) 0.6828(3) 0.9237(3)
O2 O 0.2128(4) 1.0829(3) 0.9993(4)
H1 H 0.1565 1.1321 1.0043
O3 O -0.0013(4) 0.7279(4) 0.9969(4)
C1 C 0.2498(6) 0.8567(5) 1.1014(5)
H2 H 0.1710 0.8443 1.1315
C2 C 0.1745(5) 0.7862(4) 0.8856(5)
O4 O 0.4395(4) 0.7434(4) 0.8620(4)
N1 N -0.0500(4) 0.7652(4) 0.7951(4)
H3 H -0.1363 0.7571 0.7877
C3 C 0.3802(6) 0.6768(5) 0.9140(5)
C4 C 0.0320(5) 0.7560(5) 0.9009(5)
C5 C 0.2077(6) 0.9341(5) 0.7284(5)
H4 H 0.3034 0.9401 0.7668
C6 C 0.2342(6) 0.8856(5) 0.9692(5)
H5 H 0.3250 0.9009 0.9533
C7 C 0.1482(6) 0.9900(5) 0.9303(5)
H6 H 0.0586 0.9787 0.9509
C8 C 0.1304(7) 1.0133(5) 0.7955(6)
C9 C 0.4790(7) 0.7185(7) 1.3523(6)
H7 H 0.5579 0.7245 1.3131
C10 C 0.3651(7) 0.8475(5) 1.1776(6)
H8 H 0.4437 0.8599 1.1472
C11 C 0.1630(5) 0.8110(5) 0.7497(5)
H9 H 0.2203 0.7579 0.7153
C12 C 0.0124(6) 0.7898(5) 0.6916(5)
H10 H -0.0264 0.8599 0.6534
C13 C 0.4659(6) 0.6002(6) 1.1143(6)
H11 H 0.5391 0.6462 1.1458
C14 C 0.3899(7) 0.5646(6) 1.1905(7)
C15 C 0.3820(7) 0.8187(7) 1.3093(6)
H12 H 0.2936 0.8008 1.3272
H13 H 0.4154 0.8851 1.3561
C16 C 0.0591(7) 0.5856(6) 0.6418(6)
C17 C -0.0112(7) 0.6942(6) 0.5981(5)
H14 H -0.1078 0.6800 0.5759
H15 H 0.0201 0.7187 0.5258
C18 C 0.0124(8) 0.5132(6) 0.7216(7)
H16 H -0.0681 0.5302 0.7472
C19 C 0.4455(6) 0.5736(6) 0.9814(6)
H17 H 0.3872 0.5080 0.9626
H18 H 0.5317 0.5575 0.9582
C20 C 0.0514(10) 1.0939(6) 0.7443(7)
H19 H 0.0398 1.1053 0.6612
H20 H 0.0064 1.1401 0.7909
C21 C 0.1993(8) 0.9590(7) 0.5936(6)
H21 H 0.2439 0.8998 0.5577
H22 H 0.2427 1.0299 0.5844
H23 H 0.1060 0.9628 0.5541
C22 C 0.1780(8) 0.5548(7) 0.6045(8)
H24 H 0.2126 0.6008 0.5505
C23 C 0.4092(9) 0.6071(7) 1.3169(7)
C24 C 0.2457(10) 0.4567(8) 0.6466(10)
H25 H 0.3247 0.4372 0.6198
C25 C 0.2739(10) 0.4830(9) 1.1551(9)
H26 H 0.2943 0.4315 1.0951
H27 H 0.1929 0.5242 1.1227
H28 H 0.2605 0.4412 1.2251
O5 O 0.3596(8) 0.5543(7) 1.3902(6)
C26 C 0.0823(10) 0.4168(7) 0.7638(9)
H29 H 0.0497 0.3704 0.8186
C27 C 0.1991(10) 0.3890(8) 0.7257(11)
H30 H 0.2462 0.3238 0.7542
C28 C 0.5280(8) 0.7259(9) 1.4909(6)
H31 H 0.4523 0.7155 1.5307
H32 H 0.5678 0.7988 1.5116
H33 H 0.5942 0.6680 1.5165
O6 O 0.6826(5) 0.6629(6) 0.7674(5)
H34 H 0.615(6) 0.702(7) 0.775(7)
H35 H 0.702(7) 0.620(5) 0.827(4)
loop_
_geom_bond_atom_site_label_1
_geom_bond_atom_site_label_2
_geom_bond_site_symmetry_1
_geom_bond_site_symmetry_2
O1 C2 1_555 1_555
O2 H1 1_555 1_555
O3 C4 1_555 1_555
C1 H2 1_555 1_555
C2 C4 1_555 1_555
O4 C3 1_555 1_555
N1 H3 1_555 1_555
C3 O1 1_555 1_555
C4 N1 1_555 1_555
C5 H4 1_555 1_555
C6 C1 1_555 1_555
H5 C6 1_555 1_555
C7 O2 1_555 1_555
H6 C7 1_555 1_555
C8 C5 1_555 1_555
C9 H7 1_555 1_555
C10 C1 1_555 1_555
H8 C10 1_555 1_555
C11 C2 1_555 1_555
H9 C11 1_555 1_555
C12 N1 1_555 1_555
H10 C12 1_555 1_555
C13 H11 1_555 1_555
C14 C13 1_555 1_555
C15 C9 1_555 1_555
H12 C15 1_555 1_555
H13 C15 1_555 1_555
C16 C17 1_555 1_555
C17 C12 1_555 1_555
H14 C17 1_555 1_555
H15 C17 1_555 1_555
C18 C16 1_555 1_555
H16 C18 1_555 1_555
C19 C3 1_555 1_555
H17 C19 1_555 1_555
H18 C19 1_555 1_555
C20 C8 1_555 1_555
H19 C20 1_555 1_555
H20 C20 1_555 1_555
C21 C5 1_555 1_555
H21 C21 1_555 1_555
H22 C21 1_555 1_555
H23 C21 1_555 1_555
C22 C16 1_555 1_555
H24 C22 1_555 1_555
C23 C9 1_555 1_555
C24 C22 1_555 1_555
H25 C24 1_555 1_555
C25 C14 1_555 1_555
H26 C25 1_555 1_555
H27 C25 1_555 1_555
H28 C25 1_555 1_555
O5 C23 1_555 1_555
C26 C18 1_555 1_555
H29 C26 1_555 1_555
C27 C24 1_555 1_555
H30 C27 1_555 1_555
C28 C9 1_555 1_555
H31 C28 1_555 1_555
H32 C28 1_555 1_555
H33 C28 1_555 1_555
O6 H34 1_555 1_555
H35 O6 1_555 1_555
C2 C6 1_555 1_555
C5 C11 1_555 1_555
C6 C7 1_555 1_555
C7 C8 1_555 1_555
C10 C15 1_555 1_555
C11 C12 1_555 1_555
C13 C19 1_555 1_555
C14 C23 1_555 1_555
C26 C27 1_555 1_555

#END
