
#######################################################################
#
#                 Cambridge Crystallographic Data Centre
#                                CCDC 
#
#######################################################################
#
# If this CIF has been generated from an entry in the Cambridge 
# Structural Database, then it will include bibliographic, chemical, 
# crystal, experimental, refinement or atomic coordinate data resulting 
# from the CCDC's data processing and validation procedures.
#
#######################################################################

data_EZOHUX
_chemical_compound_source        'stems and roots of Tripterygium wilfordii'
_chemical_name_common            
(+-)-5,4'-Dihydroxy-2'-methoxy-6',6''-dimethypyrano(2'',3'':7,8)-6-methyflavanone
_chemical_formula_moiety         'C22 H22 O6'
_chemical_name_systematic        
5-Hydroxy-2-(4-hydroxy-2-methoxyphenyl)-6,8,8-trimethyl-2,3-dihydro-4H,8H-pyrano[2,3-f]chromen-4-one
_symmetry_cell_setting           monoclinic
_symmetry_space_group_name_H-M   'P 21/c'
_symmetry_Int_Tables_number      14
_space_group_name_Hall           '-P 2ybc'
loop_
_symmetry_equiv_pos_site_id
_symmetry_equiv_pos_as_xyz
1 x,y,z
2 -x,1/2+y,1/2-z
3 -x,-y,-z
4 x,1/2-y,1/2+z
_cell_length_a                   8.9776(4)
_cell_length_b                   15.9640(9)
_cell_length_c                   13.8468(7)
_cell_angle_alpha                90
_cell_angle_beta                 108.134(3)
_cell_angle_gamma                90
_cell_volume                     1885.93
_exptl_crystal_colour            yellow
_exptl_crystal_description       needle
_cell_formula_units_Z            4
_exptl_crystal_recrystallization_method methanol
loop_
_atom_site_label
_atom_site_type_symbol
_atom_site_fract_x
_atom_site_fract_y
_atom_site_fract_z
O1 O 0.77097(17) 0.03614(8) 0.91258(10)
O2 O 0.9929(3) 0.15337(12) 0.54483(13)
O3 O 0.63331(17) 0.06372(9) 1.21445(11)
O4 O 0.67455(19) -0.05837(10) 0.62394(11)
O5 O 0.7914(2) -0.21929(9) 0.94286(13)
O6 O 0.6871(2) -0.20600(9) 1.09716(13)
C1 C 0.6155(4) 0.19279(17) 1.2928(2)
H1 H 0.5074 0.1968 1.2522
H2 H 0.6579 0.2480 1.3096
H3 H 0.6232 0.1626 1.3541
C2 C 0.7069(3) 0.14695(13) 1.23357(17)
C3 C 0.6937(3) 0.18799(14) 1.13355(18)
H4 H 0.6833 0.2459 1.1274
C4 C 0.6969(2) 0.14271(13) 1.05404(16)
H5 H 0.6955 0.1689 0.9938
C5 C 0.7027(2) 0.05201(13) 1.06151(14)
C6 C 0.7338(2) -0.00104(12) 0.99078(14)
C7 C 0.7545(2) -0.01578(13) 0.82434(15)
H6 H 0.6431 -0.0278 0.7916
C8 C 0.8155(2) 0.03373(12) 0.75181(15)
C9 C 0.7746(2) 0.00856(13) 0.64982(16)
C10 C 0.8359(3) 0.04932(14) 0.58239(16)
H7 H 0.8098 0.0316 0.5152
C11 C 0.9359(3) 0.11648(14) 0.61554(16)
C12 C 0.8770(3) 0.13390(17) 1.29638(17)
H8 H 0.8817 0.1053 1.3582
H9 H 0.9281 0.1873 1.3122
H10 H 0.9287 0.1009 1.2584
C13 C 0.6665(2) 0.01442(13) 1.14369(15)
C14 C 0.6550(2) -0.07168(13) 1.15581(15)
C15 C 0.6177(3) -0.10752(15) 1.24594(19)
H11 H 0.5061 -0.1118 1.2308
H12 H 0.6593 -0.0715 1.3036
H13 H 0.6638 -0.1621 1.2610
C16 C 0.6884(2) -0.12242(12) 1.08401(15)
C17 C 0.7303(2) -0.08892(12) 1.00067(15)
C18 C 0.9144(2) 0.10150(13) 0.78150(16)
H14 H 0.9408 0.1198 0.8485
C19 C 0.9755(2) 0.14315(14) 0.71445(16)
H15 H 1.0424 0.1886 0.7363
C20 C 0.6382(3) -0.09078(16) 0.52417(18)
H16 H 0.5915 -0.0476 0.4760
H17 H 0.5660 -0.1366 0.5162
H18 H 0.7324 -0.1102 0.5126
C21 C 0.8413(3) -0.09782(13) 0.85700(17)
H19 H 0.8251 -0.1339 0.7982
H20 H 0.9528 -0.0868 0.8850
C22 C 0.7853(2) -0.14149(13) 0.93500(16)
H21 H 0.707(4) -0.232(2) 1.044(3)
H22 H 1.073(4) 0.198(2) 0.574(2)
loop_
_geom_bond_atom_site_label_1
_geom_bond_atom_site_label_2
_geom_bond_site_symmetry_1
_geom_bond_site_symmetry_2
O1 C6 1_555 1_555
O2 C11 1_555 1_555
O3 C2 1_555 1_555
O4 C9 1_555 1_555
O5 C22 1_555 1_555
O6 C16 1_555 1_555
C1 H1 1_555 1_555
H2 C1 1_555 1_555
H3 C1 1_555 1_555
C2 C1 1_555 1_555
C3 C2 1_555 1_555
H4 C3 1_555 1_555
C4 C3 1_555 1_555
H5 C4 1_555 1_555
C5 C4 1_555 1_555
C6 C5 1_555 1_555
C7 O1 1_555 1_555
H6 C7 1_555 1_555
C8 C7 1_555 1_555
C9 C8 1_555 1_555
C10 C9 1_555 1_555
H7 C10 1_555 1_555
C11 C10 1_555 1_555
C12 C2 1_555 1_555
H8 C12 1_555 1_555
H9 C12 1_555 1_555
H10 C12 1_555 1_555
C13 O3 1_555 1_555
C14 C13 1_555 1_555
C15 C14 1_555 1_555
H11 C15 1_555 1_555
H12 C15 1_555 1_555
H13 C15 1_555 1_555
C16 C14 1_555 1_555
C17 C6 1_555 1_555
C18 C8 1_555 1_555
H14 C18 1_555 1_555
C19 C11 1_555 1_555
H15 C19 1_555 1_555
C20 O4 1_555 1_555
H16 C20 1_555 1_555
H17 C20 1_555 1_555
H18 C20 1_555 1_555
C21 C7 1_555 1_555
H19 C21 1_555 1_555
H20 C21 1_555 1_555
C22 C17 1_555 1_555
H21 O6 1_555 1_555
H22 O2 1_555 1_555
C5 C13 1_555 1_555
C16 C17 1_555 1_555
C18 C19 1_555 1_555
C21 C22 1_555 1_555

#END
