
#######################################################################
#
#                 Cambridge Crystallographic Data Centre
#                                CCDC 
#
#######################################################################
#
# If this CIF has been generated from an entry in the Cambridge 
# Structural Database, then it will include bibliographic, chemical, 
# crystal, experimental, refinement or atomic coordinate data resulting 
# from the CCDC's data processing and validation procedures.
#
#######################################################################

data_EZOJEJ
_chemical_compound_source        'leaves and twigs of Garcinia hanburyi'
_chemical_name_common            '3-Acetoxyalphitolic acid monohydrate'
_chemical_formula_moiety         'C32 H50 O5,H2 O1'
_chemical_name_systematic        
'2\a-Hydroxy-3\b-acetoxy-19\b-hydrogen-lup-20(29)-en-28-oic acid monohydrate'
_chemical_properties_biological  
'tested for anti-HIV activity and anti-inflammatory activity in an ethyl phenylpropiolate-induced ear edema model'
_symmetry_cell_setting           orthorhombic
_symmetry_space_group_name_H-M   'P 21 21 21'
_symmetry_Int_Tables_number      19
_space_group_name_Hall           'P 2ac 2ab'
loop_
_symmetry_equiv_pos_site_id
_symmetry_equiv_pos_as_xyz
1 x,y,z
2 1/2-x,-y,1/2+z
3 1/2+x,1/2-y,-z
4 -x,1/2+y,1/2-z
_cell_length_a                   6.9960(11)
_cell_length_b                   12.7871(10)
_cell_length_c                   33.389(3)
_cell_angle_alpha                90
_cell_angle_beta                 90
_cell_angle_gamma                90
_cell_volume                     2986.93
_exptl_crystal_colour            colorless
_exptl_crystal_description       prism
_cell_formula_units_Z            4
loop_
_atom_site_label
_atom_site_type_symbol
_atom_site_fract_x
_atom_site_fract_y
_atom_site_fract_z
O1 O -0.6228(10) -0.6209(5) -0.38984(18)
O2 O -0.8530(10) -0.6384(5) -0.45790(16)
C1 C -0.8798(13) -0.1478(7) -0.3880(2)
C2 C -0.8069(14) 0.0174(7) -0.2894(2)
C3 C -1.0453(14) 0.0211(7) -0.3603(3)
C4 C -0.7798(13) -0.2511(7) -0.3737(3)
O3 O -0.8526(12) 0.2732(6) -0.3397(2)
C5 C -0.8986(14) 0.1183(7) -0.3035(3)
C6 C -0.8667(16) -0.5458(7) -0.4328(2)
C7 C -0.9437(13) -0.0831(8) -0.3489(3)
C8 C -0.6758(15) -0.5322(7) -0.4135(3)
O4 O -0.6195(13) 0.1588(6) -0.3439(2)
C9 C -0.9411(14) -0.4526(7) -0.4568(3)
C10 C -0.6429(15) 0.0531(7) -0.2605(3)
C11 C -0.7400(13) -0.3353(7) -0.4074(3)
C12 C -0.9307(13) -0.3563(7) -0.4285(2)
C13 C -0.7604(14) -0.0597(6) -0.3235(2)
C14 C -0.6104(15) -0.2292(8) -0.3461(3)
C15 C -0.9129(16) 0.1777(8) -0.2631(3)
C16 C -0.6622(15) -0.1584(7) -0.3103(2)
C17 C -0.6776(16) -0.4357(7) -0.3865(3)
C18 C -1.0548(14) -0.1743(8) -0.4138(3)
C19 C -0.583(2) -0.0213(9) -0.2273(3)
O6 O -1.0867(14) -0.7212(7) -0.4264(3)
C20 C -1.0899(13) -0.1469(8) -0.3239(3)
C21 C -1.0125(15) -0.2549(7) -0.4465(3)
C22 C -0.7415(15) -0.0790(8) -0.4137(3)
C23 C -0.7766(18) 0.1806(8) -0.3308(3)
C24 C -0.5761(14) -0.3026(8) -0.4352(3)
C25 C -0.8309(15) -0.4400(8) -0.4966(3)
C26 C -1.1469(16) -0.4761(8) -0.4675(3)
C27 C -0.9648(18) -0.7199(8) -0.4512(3)
C28 C -1.0861(16) 0.0926(8) -0.3253(3)
C29 C -0.921(2) -0.8095(8) -0.4780(3)
C30 C -0.734(3) -0.0667(15) -0.2018(4)
C31 C -0.7235(17) 0.1572(10) -0.2442(3)
C32 C -0.405(2) -0.0384(11) -0.2207(4)
H1 H -0.5800 -0.6666 -0.4045
H2 H -0.9018 -0.0214 -0.2749
H3 H -1.1649 0.0049 -0.3730
H4 H -0.9664 0.0598 -0.3786
H5 H -0.8746 -0.2789 -0.3559
H6 H -0.8265 0.2881 -0.3630
H7 H -0.9592 -0.5572 -0.4120
H8 H -0.5816 -0.5226 -0.4341
H9 H -0.5339 0.0671 -0.2771
H10 H -1.0227 -0.3749 -0.4084
H11 H -0.6672 -0.0250 -0.3399
H12 H -0.5113 -0.1951 -0.3611
H13 H -0.5629 -0.2939 -0.3355
H16 H -1.0177 0.1493 -0.2481
H17 H -0.9355 0.2506 -0.2681
H18 H -0.7481 -0.1970 -0.2934
H19 H -0.5483 -0.1417 -0.2955
H20 H -0.5539 -0.4250 -0.3748
H21 H -0.7693 -0.4492 -0.3658
H22 H -1.1002 -0.1121 -0.4268
H23 H -1.1546 -0.2028 -0.3973
H24 H -1.1264 -0.1070 -0.3008
H25 H -1.2009 -0.1614 -0.3399
H26 H -1.0326 -0.2115 -0.3155
H27 H -1.1291 -0.2705 -0.4604
H28 H -0.9204 -0.2276 -0.4650
H29 H -0.8064 -0.0161 -0.4216
H30 H -0.6301 -0.0613 -0.3983
H31 H -0.7040 -0.1173 -0.4371
H32 H -0.5536 -0.3556 -0.4550
H33 H -0.6084 -0.2380 -0.4482
H34 H -0.4627 -0.2930 -0.4194
H35 H -0.8816 -0.3808 -0.5107
H36 H -0.6981 -0.4284 -0.4909
H37 H -0.8446 -0.5016 -0.5128
H38 H -1.2004 -0.4193 -0.4827
H39 H -1.1538 -0.5392 -0.4830
H40 H -1.2175 -0.4848 -0.4431
H41 H -1.1692 0.0566 -0.3070
H42 H -1.1468 0.1557 -0.3343
H43 H -1.0044 -0.8671 -0.4720
H44 H -0.9402 -0.7879 -0.5052
H45 H -0.7907 -0.8307 -0.4743
H46 H -0.6822 -0.1120 -0.1817
H47 H -0.7991 -0.0094 -0.1893
H48 H -0.8227 -0.1052 -0.2181
H49 H -0.6367 0.2129 -0.2506
H50 H -0.7377 0.1522 -0.2157
H51 H -0.3681 -0.0848 -0.1995
H52 H -0.3099 -0.0043 -0.2367
O5 O -0.4596(12) 0.1992(6) -0.4197(2)
H14 H -0.5906 0.2058 -0.4279
H15 H -0.3589 0.2058 -0.4391
loop_
_geom_bond_atom_site_label_1
_geom_bond_atom_site_label_2
_geom_bond_site_symmetry_1
_geom_bond_site_symmetry_2
O1 C8 1_555 1_555
O2 C6 1_555 1_555
C1 C4 1_555 1_555
C2 C5 1_555 1_555
C3 C7 1_555 1_555
C4 C11 1_555 1_555
O3 C23 1_555 1_555
C5 C15 1_555 1_555
C6 C8 1_555 1_555
C7 C1 1_555 1_555
C8 C17 1_555 1_555
O4 C23 1_555 1_555
C9 C6 1_555 1_555
C10 C2 1_555 1_555
C11 C12 1_555 1_555
C12 C9 1_555 1_555
C13 C2 1_555 1_555
C14 C4 1_555 1_555
O5 H14 1_555 1_555
C15 C31 1_555 1_555
C16 C13 1_555 1_555
C17 C11 1_555 1_555
C18 C1 1_555 1_555
C19 C10 1_555 1_555
O6 C27 1_555 1_555
C20 C7 1_555 1_555
C21 C12 1_555 1_555
C22 C1 1_555 1_555
C23 C5 1_555 1_555
C24 C11 1_555 1_555
C25 C9 1_555 1_555
C26 C9 1_555 1_555
C27 O2 1_555 1_555
C28 C3 1_555 1_555
C29 C27 1_555 1_555
C30 C19 1_555 1_555
C31 C10 1_555 1_555
C32 C19 1_555 1_555
H1 O1 1_555 1_555
H2 C2 1_555 1_555
H3 C3 1_555 1_555
H4 C3 1_555 1_555
H5 C4 1_555 1_555
H6 O3 1_555 1_555
H7 C6 1_555 1_555
H8 C8 1_555 1_555
H9 C10 1_555 1_555
H10 C12 1_555 1_555
H11 C13 1_555 1_555
H12 C14 1_555 1_555
H13 C14 1_555 1_555
H15 O5 1_555 1_555
H16 C15 1_555 1_555
H17 C15 1_555 1_555
H18 C16 1_555 1_555
H19 C16 1_555 1_555
H20 C17 1_555 1_555
H21 C17 1_555 1_555
H22 C18 1_555 1_555
H23 C18 1_555 1_555
H24 C20 1_555 1_555
H25 C20 1_555 1_555
H26 C20 1_555 1_555
H27 C21 1_555 1_555
H28 C21 1_555 1_555
H29 C22 1_555 1_555
H30 C22 1_555 1_555
H31 C22 1_555 1_555
H32 C24 1_555 1_555
H33 C24 1_555 1_555
H34 C24 1_555 1_555
H35 C25 1_555 1_555
H36 C25 1_555 1_555
H37 C25 1_555 1_555
H38 C26 1_555 1_555
H39 C26 1_555 1_555
H40 C26 1_555 1_555
H41 C28 1_555 1_555
H42 C28 1_555 1_555
H43 C29 1_555 1_555
H44 C29 1_555 1_555
H45 C29 1_555 1_555
H46 C30 1_555 1_555
H47 C30 1_555 1_555
H48 C30 1_555 1_555
H49 C31 1_555 1_555
H50 C31 1_555 1_555
H51 C32 1_555 1_555
H52 C32 1_555 1_555
C5 C28 1_555 1_555
C7 C13 1_555 1_555
C14 C16 1_555 1_555
C18 C21 1_555 1_555

#END
