
#######################################################################
#
#                 Cambridge Crystallographic Data Centre
#                                CCDC 
#
#######################################################################
#
# If this CIF has been generated from an entry in the Cambridge 
# Structural Database, then it will include bibliographic, chemical, 
# crystal, experimental, refinement or atomic coordinate data resulting 
# from the CCDC's data processing and validation procedures.
#
#######################################################################

data_EZOJOU
_chemical_formula_moiety         'C27 H22 F1 N1 O2,C2 H3 N1'
_chemical_name_systematic        
'ethyl 5-fluoro-4-(4-methylphenyl)-2,6-diphenylnicotinate acetonitrile solvate'
_symmetry_cell_setting           triclinic
_symmetry_space_group_name_H-M   'P -1'
_symmetry_Int_Tables_number      2
_space_group_name_Hall           '-P 1'
loop_
_symmetry_equiv_pos_site_id
_symmetry_equiv_pos_as_xyz
1 x,y,z
2 -x,-y,-z
_cell_length_a                   9.0735(17)
_cell_length_b                   11.2570(19)
_cell_length_c                   11.893(2)
_cell_angle_alpha                91.917(5)
_cell_angle_beta                 90.265(5)
_cell_angle_gamma                99.335(5)
_cell_volume                     1197.94
_exptl_crystal_colour            colorless
_exptl_crystal_description       block
_cell_formula_units_Z            2
loop_
_atom_site_label
_atom_site_type_symbol
_atom_site_fract_x
_atom_site_fract_y
_atom_site_fract_z
C1 C 0.3007(2) 0.83855(16) -0.30265(15)
H1 H 0.3502 0.8983 -0.2538
C2 C 0.2997(2) 0.85698(17) -0.41745(16)
H2 H 0.3497 0.9285 -0.4454
C3 C 0.2241(2) 0.76874(17) -0.49083(16)
H3 H 0.2239 0.7812 -0.5677
C4 C 0.1491(2) 0.66245(16) -0.44945(15)
H4 H 0.0975 0.6038 -0.4984
C5 C 0.1510(2) 0.64356(15) -0.33452(15)
H5 H 0.1006 0.5721 -0.3068
C6 C 0.22812(19) 0.73114(15) -0.26036(15)
C7 C 0.23247(19) 0.70454(15) -0.13860(15)
C8 C 0.21789(19) 0.78816(15) -0.05188(15)
C9 C 0.21237(19) 0.75948(15) 0.06005(15)
C10 C 0.22711(19) 0.64093(15) 0.08377(15)
C11 C 0.24020(18) 0.55863(15) -0.00626(14)
C12 C 0.24718(19) 0.42951(15) 0.01277(14)
C13 C 0.1480(2) 0.36379(15) 0.08515(15)
H6 H 0.0749 0.4003 0.1205
C14 C 0.1567(2) 0.24450(16) 0.10537(16)
H7 H 0.0895 0.2015 0.1539
C15 C 0.2656(2) 0.18928(16) 0.05327(16)
H8 H 0.2727 0.1097 0.0675
C16 C 0.3637(2) 0.25372(16) -0.02015(16)
H9 H 0.4363 0.2167 -0.0557
C17 C 0.3548(2) 0.37293(16) -0.04117(15)
H10 H 0.4204 0.4151 -0.0912
C18 C 0.22453(19) 0.60289(14) 0.20386(14)
C19 C 0.1924(2) 0.85212(15) 0.14992(14)
C20 C 0.3114(2) 0.90342(16) 0.21913(15)
H11 H 0.4042 0.8796 0.2104
C21 C 0.2920(2) 0.99040(16) 0.30146(15)
H12 H 0.3728 1.0250 0.3464
C22 C 0.1535(2) 1.02632(15) 0.31755(15)
C23 C 0.0345(2) 0.97303(16) 0.24828(16)
H13 H -0.0592 0.9948 0.2586
C24 C 0.0537(2) 0.88807(16) 0.16422(16)
H14 H -0.0262 0.8553 0.1176
C25 C 0.1332(2) 1.12066(18) 0.40692(17)
H15 H 0.1241 1.0846 0.4791
H16 H 0.0444 1.1535 0.3907
H17 H 0.2180 1.1839 0.4077
C26 C 0.3483(2) 0.49962(18) 0.33715(16)
H18 H 0.2491 0.4580 0.3540
H19 H 0.3800 0.5590 0.3971
C27 C 0.4560(2) 0.41149(19) 0.32679(18)
H20 H 0.4217 0.3519 0.2688
H21 H 0.4620 0.3729 0.3971
H22 H 0.5529 0.4534 0.3079
F1 F 0.20465(12) 0.90219(9) -0.07813(9)
N1 N 0.24188(15) 0.58986(12) -0.11405(12)
O1 O 0.34755(13) 0.55789(11) 0.22945(10)
O2 O 0.12339(14) 0.61066(11) 0.26758(10)
C28 C 0.3015(2) 0.2388(2) 0.66653(19)
C29 C 0.1963(3) 0.3231(2) 0.6681(2)
H23 H 0.2118 0.3725 0.6035
H24 H 0.2113 0.3732 0.7354
H25 H 0.0962 0.2794 0.6663
N2 N 0.3814(3) 0.1712(2) 0.6642(2)
loop_
_geom_bond_atom_site_label_1
_geom_bond_atom_site_label_2
_geom_bond_site_symmetry_1
_geom_bond_site_symmetry_2
C1 H1 1_555 1_555
C2 C1 1_555 1_555
H2 C2 1_555 1_555
C3 C2 1_555 1_555
H3 C3 1_555 1_555
C4 C3 1_555 1_555
H4 C4 1_555 1_555
C5 C4 1_555 1_555
H5 C5 1_555 1_555
C6 C1 1_555 1_555
C7 C6 1_555 1_555
C8 C7 1_555 1_555
C9 C8 1_555 1_555
C10 C9 1_555 1_555
C11 C10 1_555 1_555
C12 C11 1_555 1_555
C13 C12 1_555 1_555
H6 C13 1_555 1_555
C14 C13 1_555 1_555
H7 C14 1_555 1_555
C15 C14 1_555 1_555
H8 C15 1_555 1_555
C16 C15 1_555 1_555
H9 C16 1_555 1_555
C17 C12 1_555 1_555
H10 C17 1_555 1_555
C18 C10 1_555 1_555
C19 C9 1_555 1_555
C20 C19 1_555 1_555
H11 C20 1_555 1_555
C21 C20 1_555 1_555
H12 C21 1_555 1_555
C22 C21 1_555 1_555
C23 C22 1_555 1_555
H13 C23 1_555 1_555
C24 C19 1_555 1_555
H14 C24 1_555 1_555
C25 C22 1_555 1_555
H15 C25 1_555 1_555
H16 C25 1_555 1_555
H17 C25 1_555 1_555
C26 H18 1_555 1_555
H19 C26 1_555 1_555
C27 C26 1_555 1_555
H20 C27 1_555 1_555
H21 C27 1_555 1_555
H22 C27 1_555 1_555
F1 C8 1_555 1_555
N1 C7 1_555 1_555
O1 C18 1_555 1_555
O2 C18 1_555 1_555
C28 C29 1_555 1_555
C29 H23 1_555 1_555
H24 C29 1_555 1_555
H25 C29 1_555 1_555
N2 C28 1_555 1_555
C5 C6 1_555 1_555
C11 N1 1_555 1_555
C16 C17 1_555 1_555
C23 C24 1_555 1_555
C26 O1 1_555 1_555

#END
