
#######################################################################
#
#                 Cambridge Crystallographic Data Centre
#                                CCDC 
#
#######################################################################
#
# If this CIF has been generated from an entry in the Cambridge 
# Structural Database, then it will include bibliographic, chemical, 
# crystal, experimental, refinement or atomic coordinate data resulting 
# from the CCDC's data processing and validation procedures.
#
#######################################################################

data_EZOKEL
_chemical_formula_moiety         'C32 H29 N3 O7 S1'
_chemical_name_systematic        
'ethyl 1-formyl-2-((4-methylphenyl)sulfonyl)-3-(2-naphthyl)-7-(2-nitrophenyl)-2,3,6,7-tetrahydro-1H-1,2-diazepine-4-carboxylate'
_symmetry_cell_setting           triclinic
_symmetry_space_group_name_H-M   'P -1'
_symmetry_Int_Tables_number      2
_space_group_name_Hall           '-P 1'
loop_
_symmetry_equiv_pos_site_id
_symmetry_equiv_pos_as_xyz
1 x,y,z
2 -x,-y,-z
_cell_length_a                   10.840(2)
_cell_length_b                   12.665(3)
_cell_length_c                   12.992(3)
_cell_angle_alpha                113.98(3)
_cell_angle_beta                 112.44(3)
_cell_angle_gamma                91.38(3)
_cell_volume                     1471.99
_exptl_crystal_colour            colorless
_exptl_crystal_description       plate
_cell_formula_units_Z            2
loop_
_atom_site_label
_atom_site_type_symbol
_atom_site_fract_x
_atom_site_fract_y
_atom_site_fract_z
S1 S 0.50633(7) 0.71343(6) 0.31947(6)
O1 O 0.63086(19) 0.7154(2) 0.41466(17)
O2 O 0.4950(2) 0.80625(16) 0.28283(19)
O3 O 0.3786(2) 0.56610(18) 0.54431(19)
O4 O 0.3741(2) 0.9226(2) 0.79857(18)
O5 O 0.5435(2) 1.06813(18) 0.93926(19)
O6 O 0.0650(2) 0.8415(2) 0.18376(19)
N1 N 0.3867(2) 0.71090(18) 0.36858(17)
N2 N 0.4141(2) 0.69664(17) 0.47547(18)
N3 N 0.4970(2) 0.9663(2) 0.85623(19)
C1 C 0.2829(4) 0.2452(3) -0.1424(3)
H1 H 0.1973 0.2128 -0.1497
H2 H 0.3436 0.1919 -0.1356
H3 H 0.2681 0.2560 -0.2149
C2 C 0.3455(3) 0.3628(3) -0.0276(3)
C3 C 0.4258(3) 0.3691(2) 0.0891(3)
H4 H 0.4432 0.3000 0.0955
C4 C 0.4797(3) 0.4765(2) 0.1953(3)
H5 H 0.5322 0.4796 0.2727
C5 C 0.4543(3) 0.5790(2) 0.1848(2)
C6 C 0.3791(3) 0.5757(3) 0.0687(2)
H6 H 0.3649 0.6450 0.0617
C7 C 0.3263(3) 0.4670(3) -0.0356(3)
H7 H 0.2763 0.4640 -0.1133
C8 C 0.4365(2) 0.8017(2) 0.5924(2)
H8 H 0.3578 0.7943 0.6106
C9 C 0.4469(2) 0.9133(2) 0.5763(2)
H9 H 0.4790 0.9807 0.6578
H10 H 0.5159 0.9140 0.5461
C10 C 0.3178(3) 0.9302(2) 0.4896(2)
H11 H 0.2940 1.0028 0.5210
C11 C 0.2337(2) 0.8526(2) 0.3726(2)
C12 C 0.2496(2) 0.7301(2) 0.3021(2)
H12 H 0.2514 0.7296 0.2270
C13 C 0.5655(2) 0.8129(2) 0.7036(2)
C14 C 0.5945(3) 0.8942(2) 0.8265(2)
C15 C 0.7163(3) 0.9129(3) 0.9283(2)
H13 H 0.7324 0.9683 1.0083
C16 C 0.8126(3) 0.8481(3) 0.9085(3)
H14 H 0.8938 0.8585 0.9755
C17 C 0.7877(3) 0.7674(3) 0.7886(3)
H15 H 0.8527 0.7240 0.7752
C18 C 0.6657(3) 0.7507(2) 0.6876(2)
H16 H 0.6514 0.6966 0.6077
C19 C 0.1200(3) 0.8908(2) 0.2959(3)
C20 C 0.3773(3) 0.5855(2) 0.4602(3)
H17 H 0.3500 0.5221 0.3817
O7 O 0.0965(5) 0.9929(4) 0.3594(4)
C21 C 0.1434(7) 0.6226(6) 0.2534(5)
C22 C 0.0779(5) 0.6212(5) 0.3248(5)
H18 H 0.0969 0.6873 0.3996
C23 C -0.0195(6) 0.5185(5) 0.2844(5)
C24 C -0.0453(7) 0.4197(6) 0.1730(7)
C25 C 0.0235(5) 0.4237(4) 0.0999(4)
H19 H 0.0055 0.3587 0.0246
C26 C 0.1158(5) 0.5234(4) 0.1412(5)
H20 H 0.1611 0.5253 0.0938
C27 C -0.0878(5) 0.5137(5) 0.3552(5)
H21 H -0.0697 0.5782 0.4309
C28 C -0.1812(6) 0.4139(6) 0.3127(6)
H22 H -0.2261 0.4115 0.3603
C29 C -0.2109(7) 0.3148(7) 0.1986(7)
H23 H -0.2763 0.2486 0.1705
C30 C -0.1435(5) 0.3162(5) 0.1294(5)
H24 H -0.1612 0.2505 0.0546
C31 C 0.0007(6) 1.0421(4) 0.2882(5)
H25 H -0.0877 0.9882 0.2352
H26 H 0.0343 1.0610 0.2370
C32 C -0.0074(12) 1.1528(8) 0.3890(9)
H27 H -0.0706 1.1924 0.3512
H28 H 0.0812 1.2044 0.4399
H29 H -0.0380 1.1318 0.4397
H30? H 0.2360 0.7168 0.2183
C33? C -0.0427(13) 1.0258(10) 0.3326(15)
H31? H -0.0962 1.0392 0.3802
H32? H -0.1034 0.9762 0.2455
C34? C -0.0126(6) 0.5845(5) 0.3694(6)
H33? H -0.0464 0.6032 0.4291
C35? C -0.1590(8) 0.3837(8) 0.2480(9)
H34? H -0.1953 0.3991 0.3057
C36? C -0.0113(9) 0.4456(7) 0.1706(8)
C37? C -0.1578(7) 0.2506(6) 0.0541(7)
H35? H -0.1919 0.1777 -0.0163
C38? C -0.0605(7) 0.4712(6) 0.2672(7)
C39? C 0.0870(6) 0.5334(5) 0.1906(6)
H36? H 0.1225 0.5174 0.1324
C40? C -0.2036(10) 0.2747(9) 0.1451(8)
H37? H -0.2655 0.2164 0.1369
C41? C -0.0627(6) 0.3329(5) 0.0666(5)
H38? H -0.0311 0.3145 0.0054
C42? C 0.016(2) 1.142(2) 0.347(2)
H39? H 0.0749 1.1301 0.3054
H40? H 0.0683 1.1948 0.4342
H41? H -0.0562 1.1763 0.3114
O8? O 0.0646(11) 0.9639(10) 0.3754(10)
C43? C 0.1340(9) 0.6427(7) 0.2925(7)
C44? C 0.0830(6) 0.6680(6) 0.3826(7)
H42? H 0.1142 0.7418 0.4517
loop_
_geom_bond_atom_site_label_1
_geom_bond_atom_site_label_2
_geom_bond_site_symmetry_1
_geom_bond_site_symmetry_2
S1 O1 1_555 1_555
O2 S1 1_555 1_555
O3 C20 1_555 1_555
O4 N3 1_555 1_555
O5 N3 1_555 1_555
O6 C19 1_555 1_555
N1 S1 1_555 1_555
N2 N1 1_555 1_555
N3 C14 1_555 1_555
C1 H1 1_555 1_555
H2 C1 1_555 1_555
H3 C1 1_555 1_555
C2 C1 1_555 1_555
C3 C2 1_555 1_555
H4 C3 1_555 1_555
C4 C3 1_555 1_555
H5 C4 1_555 1_555
C5 S1 1_555 1_555
C6 C5 1_555 1_555
H6 C6 1_555 1_555
C7 C2 1_555 1_555
H7 C7 1_555 1_555
C8 N2 1_555 1_555
H8 C8 1_555 1_555
C9 C8 1_555 1_555
H9 C9 1_555 1_555
H10 C9 1_555 1_555
C10 C9 1_555 1_555
H11 C10 1_555 1_555
C11 C10 1_555 1_555
C12 N1 1_555 1_555
H12 C12 1_555 1_555
C13 C8 1_555 1_555
C14 C13 1_555 1_555
C15 C14 1_555 1_555
H13 C15 1_555 1_555
C16 C15 1_555 1_555
H14 C16 1_555 1_555
C17 C16 1_555 1_555
H15 C17 1_555 1_555
C18 C13 1_555 1_555
H16 C18 1_555 1_555
C19 C11 1_555 1_555
C20 N2 1_555 1_555
H17 C20 1_555 1_555
O7 C19 1_555 1_555
C21 C12 1_555 1_555
C22 C21 1_555 1_555
H18 C22 1_555 1_555
C23 C22 1_555 1_555
C24 C23 1_555 1_555
C25 C24 1_555 1_555
H19 C25 1_555 1_555
C26 C21 1_555 1_555
H20 C26 1_555 1_555
C27 C23 1_555 1_555
H21 C27 1_555 1_555
C28 C27 1_555 1_555
H22 C28 1_555 1_555
C29 C28 1_555 1_555
H23 C29 1_555 1_555
C30 C24 1_555 1_555
H24 C30 1_555 1_555
C31 O7 1_555 1_555
H25 C31 1_555 1_555
H26 C31 1_555 1_555
C32 C31 1_555 1_555
H27 C32 1_555 1_555
H28 C32 1_555 1_555
H29 C32 1_555 1_555
C4 C5 1_555 1_555
C6 C7 1_555 1_555
C11 C12 1_555 1_555
C17 C18 1_555 1_555
C25 C26 1_555 1_555
C29 C30 1_555 1_555

#END
