
#######################################################################
#
#                 Cambridge Crystallographic Data Centre
#                                CCDC 
#
#######################################################################
#
# If this CIF has been generated from an entry in the Cambridge 
# Structural Database, then it will include bibliographic, chemical, 
# crystal, experimental, refinement or atomic coordinate data resulting 
# from the CCDC's data processing and validation procedures.
#
#######################################################################

data_EZUDOU
_chemical_formula_moiety         'C7 H12 O2'
_chemical_name_systematic        'hept-2-enoic acid'
_symmetry_cell_setting           triclinic
_symmetry_space_group_name_H-M   'P -1'
_symmetry_Int_Tables_number      2
_space_group_name_Hall           '-P 1'
loop_
_symmetry_equiv_pos_site_id
_symmetry_equiv_pos_as_xyz
1 x,y,z
2 -x,-y,-z
_cell_length_a                   5.3049(2)
_cell_length_b                   6.6322(3)
_cell_length_c                   11.1428(5)
_cell_angle_alpha                103.972(3)
_cell_angle_beta                 97.542(3)
_cell_angle_gamma                90.104(3)
_cell_volume                     376.92
_exptl_crystal_colour            colorless
_exptl_crystal_description       prism
_cell_formula_units_Z            2
loop_
_atom_site_label
_atom_site_type_symbol
_atom_site_fract_x
_atom_site_fract_y
_atom_site_fract_z
C1 C 0.08780(18) 0.28336(16) 0.08673(9)
C2 C 0.15082(19) 0.49968(16) 0.15493(9)
H1 H 0.0246 0.5806 0.1954
C3 C 0.37978(19) 0.58458(16) 0.16131(10)
H2 H 0.5003 0.4990 0.1192
C4 C 0.4673(2) 0.80108(17) 0.22804(11)
H3 H 0.5191 0.8722 0.1661
H4 H 0.6206 0.7940 0.2878
C5 C 0.27670(19) 0.93410(16) 0.29887(10)
H5 H 0.2201 0.8631 0.3598
H6 H 0.1258 0.9484 0.2394
C6 C 0.3856(2) 1.14979(17) 0.36789(11)
H7 H 0.5336 1.1356 0.4290
H8 H 0.4467 1.2193 0.3073
C7 C 0.1925(3) 1.28478(19) 0.43579(13)
H9 H 0.0468 1.3015 0.3755
H10 H 0.2714 1.4215 0.4782
H11 H 0.1345 1.2185 0.4975
O1 O -0.14257(13) 0.22017(12) 0.09658(7)
O2 O 0.23455(13) 0.17084(11) 0.02699(7)
H12 H -0.171(3) 0.087(3) 0.0520(15)
loop_
_geom_bond_atom_site_label_1
_geom_bond_atom_site_label_2
_geom_bond_site_symmetry_1
_geom_bond_site_symmetry_2
C1 C2 1_555 1_555
C2 H1 1_555 1_555
C3 C2 1_555 1_555
H2 C3 1_555 1_555
C4 C3 1_555 1_555
H3 C4 1_555 1_555
H4 C4 1_555 1_555
C5 C4 1_555 1_555
H5 C5 1_555 1_555
H6 C5 1_555 1_555
C6 C5 1_555 1_555
H7 C6 1_555 1_555
H8 C6 1_555 1_555
C7 C6 1_555 1_555
H9 C7 1_555 1_555
H10 C7 1_555 1_555
H11 C7 1_555 1_555
O1 C1 1_555 1_555
O2 C1 1_555 1_555
H12 O1 1_555 1_555

#END
