
#######################################################################
#
#                 Cambridge Crystallographic Data Centre
#                                CCDC 
#
#######################################################################
#
# If this CIF has been generated from an entry in the Cambridge 
# Structural Database, then it will include bibliographic, chemical, 
# crystal, experimental, refinement or atomic coordinate data resulting 
# from the CCDC's data processing and validation procedures.
#
#######################################################################

data_EZUFUA
_chemical_formula_moiety         'C18 H33 N3 O5'
_chemical_name_systematic        
1-Cyclohexyl-4,9,13-trimethyl-2,7,12-trioxo-1,6,11-triaza-5,10-dioxatetradecane
_symmetry_cell_setting           triclinic
_symmetry_space_group_name_H-M   'P 1'
_symmetry_Int_Tables_number      1
_space_group_name_Hall           'P 1'
loop_
_symmetry_equiv_pos_site_id
_symmetry_equiv_pos_as_xyz
1 x,y,z
_cell_length_a                   4.8460(10)
_cell_length_b                   5.9490(12)
_cell_length_c                   19.861(4)
_cell_angle_alpha                85.00(3)
_cell_angle_beta                 88.23(3)
_cell_angle_gamma                68.31(3)
_cell_volume                     530.005
_exptl_crystal_colour            colorless
_exptl_crystal_description       prism
_chemical_melting_point          189-190deg.C
_cell_formula_units_Z            1
loop_
_atom_site_label
_atom_site_type_symbol
_atom_site_fract_x
_atom_site_fract_y
_atom_site_fract_z
O1 O 0.6597(11) 0.4866(10) 1.34166(19)
O2 O 0.4825(9) 0.3393(8) 1.14583(17)
O3 O 0.3317(9) 0.7844(8) 0.95823(16)
O4 O 0.7026(11) 0.7785(10) 0.85310(19)
O5 O -0.0327(11) 0.6726(10) 1.0992(2)
N1 N 0.2035(15) 0.5178(12) 1.3740(2)
N2 N 0.4594(15) 0.5673(13) 1.1176(2)
N3 N 0.2686(12) 0.7671(10) 0.8917(2)
C1 C 0.4107(16) 0.4951(11) 1.3277(3)
C2 C 0.3213(13) 0.4889(12) 1.2560(3)
H1 H 0.1465 0.4461 1.2568
H2 H 0.2686 0.6499 1.2331
C3 C 0.5595(14) 0.3132(13) 1.2171(3)
H3 H 0.7486 0.3344 1.2225
C4 C 0.593(2) 0.0510(15) 1.2390(4)
H4 H 0.7487 -0.0581 1.2135
H5 H 0.4094 0.0301 1.2310
H6 H 0.6401 0.0167 1.2863
C5 C 0.2344(15) 0.5449(15) 1.4450(3)
H7 H 0.4285 0.5565 1.4510
C6 C 0.229(2) 0.3303(17) 1.4876(3)
H8 H 0.3924 0.1873 1.4748
H9 H 0.0454 0.3070 1.4798
C7 C 0.256(3) 0.3585(17) 1.5628(3)
H10 H 0.2371 0.2202 1.5894
H11 H 0.4500 0.3616 1.5716
C8 C 0.020(2) 0.588(2) 1.5835(3)
H12 H -0.1739 0.5773 1.5794
H13 H 0.0492 0.6077 1.6304
C9 C 0.033(2) 0.7990(17) 1.5401(4)
H14 H 0.2207 0.8161 1.5474
H15 H -0.1247 0.9449 1.5533
C10 C 0.000(2) 0.7761(17) 1.4662(4)
H16 H 0.0201 0.9143 1.4398
H17 H -0.1954 0.7752 1.4578
C11 C 0.196(2) 0.7155(15) 1.0942(3)
C12 C 0.1914(15) 0.9549(12) 1.0599(3)
H18 H 0.0532 1.0867 1.0835
H19 H 0.3872 0.9620 1.0633
C13 C 0.1040(15) 0.9905(13) 0.9872(3)
H20 H -0.0917 0.9801 0.9828
C14 C 0.103(2) 1.2266(15) 0.9535(4)
H21 H 0.0437 1.2413 0.9071
H22 H 0.2983 1.2310 0.9555
H23 H -0.0346 1.3586 0.9763
C15 C 0.4687(17) 0.7516(12) 0.8440(3)
C16 C 0.3833(15) 0.6964(14) 0.7762(3)
H24 H 0.1815 0.6954 0.7790
C17 C 0.596(2) 0.4498(16) 0.7599(4)
H25 H 0.5480 0.4149 0.7165
H26 H 0.5816 0.3293 0.7937
H27 H 0.7953 0.4481 0.7591
C18 C 0.394(2) 0.8860(16) 0.7216(3)
H28 H 0.3395 0.8488 0.6791
H29 H 0.5919 0.8869 0.7186
H30 H 0.2582 1.0427 0.7324
H31 H 0.060(16) 0.530(12) 1.360(3)
H32 H 0.65(2) 0.604(16) 1.110(4)
H33 H 0.125(10) 0.739(8) 0.885(2)
loop_
_geom_bond_atom_site_label_1
_geom_bond_atom_site_label_2
_geom_bond_site_symmetry_1
_geom_bond_site_symmetry_2
O1 C1 1_555 1_555
O2 N2 1_555 1_555
O3 N3 1_555 1_555
O4 C15 1_555 1_555
O5 C11 1_555 1_555
N1 C1 1_555 1_555
N2 C11 1_555 1_555
N3 C15 1_555 1_555
C1 C2 1_555 1_555
C2 H1 1_555 1_555
H2 C2 1_555 1_555
C3 O2 1_555 1_555
H3 C3 1_555 1_555
C4 C3 1_555 1_555
H4 C4 1_555 1_555
H5 C4 1_555 1_555
H6 C4 1_555 1_555
C5 N1 1_555 1_555
H7 C5 1_555 1_555
C6 C5 1_555 1_555
H8 C6 1_555 1_555
H9 C6 1_555 1_555
C7 C6 1_555 1_555
H10 C7 1_555 1_555
H11 C7 1_555 1_555
C8 C7 1_555 1_555
H12 C8 1_555 1_555
H13 C8 1_555 1_555
C9 C8 1_555 1_555
H14 C9 1_555 1_555
H15 C9 1_555 1_555
C10 C5 1_555 1_555
H16 C10 1_555 1_555
H17 C10 1_555 1_555
C11 C12 1_555 1_555
C12 H18 1_555 1_555
H19 C12 1_555 1_555
C13 O3 1_555 1_555
H20 C13 1_555 1_555
C14 C13 1_555 1_555
H21 C14 1_555 1_555
H22 C14 1_555 1_555
H23 C14 1_555 1_555
C15 C16 1_555 1_555
C16 H24 1_555 1_555
C17 C16 1_555 1_555
H25 C17 1_555 1_555
H26 C17 1_555 1_555
H27 C17 1_555 1_555
C18 C16 1_555 1_555
H28 C18 1_555 1_555
H29 C18 1_555 1_555
H30 C18 1_555 1_555
H31 N1 1_555 1_555
H32 N2 1_555 1_555
H33 N3 1_555 1_555
C2 C3 1_555 1_555
C9 C10 1_555 1_555
C12 C13 1_555 1_555

#END
