
#######################################################################
#
#                 Cambridge Crystallographic Data Centre
#                                CCDC 
#
#######################################################################
#
# If this CIF has been generated from an entry in the Cambridge 
# Structural Database, then it will include bibliographic, chemical, 
# crystal, experimental, refinement or atomic coordinate data resulting 
# from the CCDC's data processing and validation procedures.
#
#######################################################################

data_EZUFIO
_chemical_formula_moiety         'C18 H34 N2 O3'
_chemical_name_systematic        
1-Cyclohexyl-4-isobutyl-8,8-dimethyl-2,7-dioxo-1,6-diaza-5-oxanonane
_symmetry_cell_setting           orthorhombic
_symmetry_space_group_name_H-M   'P 21 21 21'
_symmetry_Int_Tables_number      19
_space_group_name_Hall           'P 2ac 2ab'
loop_
_symmetry_equiv_pos_site_id
_symmetry_equiv_pos_as_xyz
1 x,y,z
2 1/2-x,-y,1/2+z
3 1/2+x,1/2-y,-z
4 -x,1/2+y,1/2-z
_cell_length_a                   10.225(2)
_cell_length_b                   11.534(2)
_cell_length_c                   18.169(4)
_cell_angle_alpha                90
_cell_angle_beta                 90
_cell_angle_gamma                90
_cell_volume                     2142.76
_exptl_crystal_colour            colorless
_exptl_crystal_description       prism
_chemical_melting_point          152-153deg.C
_cell_formula_units_Z            4
loop_
_atom_site_label
_atom_site_type_symbol
_atom_site_fract_x
_atom_site_fract_y
_atom_site_fract_z
O1 O 0.8163(3) 0.9704(3) 0.5974(2)
O2 O 0.9233(3) 0.9044(3) 0.7283(2)
O3 O 0.8022(3) 1.2419(3) 0.8051(2)
N1 N 0.9892(4) 0.8940(4) 0.6587(3)
N2 N 0.7266(3) 1.1087(4) 0.7226(3)
C1 C 0.9234(5) 0.9220(4) 0.5952(3)
C2 C 0.9926(5) 0.8928(5) 0.5227(3)
C3 C 0.921(2) 0.950(2) 0.4579(9)
H1 H 0.8385 0.9118 0.4502
H2 H 0.9732 0.9438 0.4143
H3 H 0.9057 1.0304 0.4688
C4 C 0.9975(17) 0.7591(11) 0.5129(9)
H4 H 0.9128 0.7269 0.5231
H5 H 1.0605 0.7269 0.5462
H6 H 1.0220 0.7410 0.4632
C5 C 1.1349(13) 0.9324(13) 0.5271(9)
H7 H 1.1787 0.8910 0.5658
H8 H 1.1378 1.0141 0.5373
H9 H 1.1776 0.9171 0.4811
C6 C 0.8212(4) 1.1631(5) 0.7605(3)
C7 C 0.9601(3) 1.1144(4) 0.7448(3)
H10 H 0.9735 1.1129 0.6919
H11 H 1.0242 1.1672 0.7655
C8 C 0.9855(4) 0.9934(4) 0.7752(3)
H12 H 1.0801 0.9798 0.7754
C9 C 0.9334(4) 0.9737(5) 0.8541(3)
H13 H 0.9571 1.0405 0.8837
H14 H 0.8386 0.9712 0.8519
C10 C 0.9800(5) 0.8655(5) 0.8940(3)
H15 H 0.9606 0.7990 0.8623
C11 C 1.1247(5) 0.8651(7) 0.9083(4)
H16 H 1.1462 0.9263 0.9420
H17 H 1.1707 0.8768 0.8629
H18 H 1.1497 0.7919 0.9292
C12 C 0.9039(7) 0.8485(6) 0.9659(3)
H19 H 0.9201 0.9128 0.9982
H20 H 0.9320 0.7781 0.9893
H21 H 0.8121 0.8438 0.9554
C13 C 0.5859(4) 1.1343(4) 0.7312(3)
H22 H 0.5703 1.1617 0.7815
C14 C 0.5418(4) 1.2259(5) 0.6783(3)
H23 H 0.5649 1.2030 0.6286
H24 H 0.5866 1.2980 0.6892
C15 C 0.3928(4) 1.2451(5) 0.6831(4)
H25 H 0.3705 1.2749 0.7314
H26 H 0.3664 1.3022 0.6468
C16 C 0.3203(4) 1.1340(6) 0.6698(4)
H27 H 0.2271 1.1478 0.6743
H28 H 0.3375 1.1074 0.6201
C17 C 0.3603(5) 1.0428(6) 0.7229(5)
H29 H 0.3146 0.9713 0.7117
H30 H 0.3360 1.0663 0.7723
C18 C 0.5101(4) 1.0219(5) 0.7194(5)
H31 H 0.5348 0.9662 0.7569
H32 H 0.5327 0.9895 0.6718
H42 H 0.742(3) 1.052(3) 0.685(2)
H43 H 1.054(5) 0.834(5) 0.660(3)
C19? C 0.902(2) 0.814(3) 0.4790(13)
H33? H 0.9082 0.7368 0.4978
H34? H 0.9279 0.8152 0.4282
H35? H 0.8141 0.8417 0.4835
C20? C 1.1303(14) 0.8442(18) 0.5275(10)
H36? H 1.1263 0.7622 0.5361
H37? H 1.1761 0.8809 0.5673
H38? H 1.1756 0.8589 0.4822
C21? C 1.005(2) 1.0100(16) 0.4811(12)
H39? H 1.0378 0.9962 0.4324
H40? H 1.0643 1.0598 0.5071
H41? H 0.9207 1.0463 0.4781
loop_
_geom_bond_atom_site_label_1
_geom_bond_atom_site_label_2
_geom_bond_site_symmetry_1
_geom_bond_site_symmetry_2
O1 C1 1_555 1_555
O2 N1 1_555 1_555
O3 C6 1_555 1_555
N1 C1 1_555 1_555
N2 C6 1_555 1_555
C1 C2 1_555 1_555
C2 C3 1_555 1_555
C3 H1 1_555 1_555
H2 C3 1_555 1_555
H3 C3 1_555 1_555
C4 C2 1_555 1_555
H4 C4 1_555 1_555
H5 C4 1_555 1_555
H6 C4 1_555 1_555
C5 C2 1_555 1_555
H7 C5 1_555 1_555
H8 C5 1_555 1_555
H9 C5 1_555 1_555
C6 C7 1_555 1_555
C7 H10 1_555 1_555
H11 C7 1_555 1_555
C8 O2 1_555 1_555
H12 C8 1_555 1_555
C9 C8 1_555 1_555
H13 C9 1_555 1_555
H14 C9 1_555 1_555
C10 C9 1_555 1_555
H15 C10 1_555 1_555
C11 C10 1_555 1_555
H16 C11 1_555 1_555
H17 C11 1_555 1_555
H18 C11 1_555 1_555
C12 C10 1_555 1_555
H19 C12 1_555 1_555
H20 C12 1_555 1_555
H21 C12 1_555 1_555
C13 N2 1_555 1_555
H22 C13 1_555 1_555
C14 C13 1_555 1_555
H23 C14 1_555 1_555
H24 C14 1_555 1_555
C15 C14 1_555 1_555
H25 C15 1_555 1_555
H26 C15 1_555 1_555
C16 C15 1_555 1_555
H27 C16 1_555 1_555
H28 C16 1_555 1_555
C17 C16 1_555 1_555
H29 C17 1_555 1_555
H30 C17 1_555 1_555
C18 C13 1_555 1_555
H31 C18 1_555 1_555
H32 C18 1_555 1_555
H42 N2 1_555 1_555
H43 N1 1_555 1_555
C7 C8 1_555 1_555
C17 C18 1_555 1_555

#END
