
#######################################################################
#
#                 Cambridge Crystallographic Data Centre
#                                CCDC 
#
#######################################################################
#
# If this CIF has been generated from an entry in the Cambridge 
# Structural Database, then it will include bibliographic, chemical, 
# crystal, experimental, refinement or atomic coordinate data resulting 
# from the CCDC's data processing and validation procedures.
#
#######################################################################

data_EZUFEK
_chemical_formula_moiety         'C18 H34 N2 O4'
_chemical_name_systematic        
't-Butyl 7-cyclohexyl-4-isobutyl-6-oxo-2,7-diaza-3-oxaheptanoate'
_symmetry_cell_setting           orthorhombic
_symmetry_space_group_name_H-M   'P 21 21 21'
_symmetry_Int_Tables_number      19
_space_group_name_Hall           'P 2ac 2ab'
loop_
_symmetry_equiv_pos_site_id
_symmetry_equiv_pos_as_xyz
1 x,y,z
2 1/2-x,-y,1/2+z
3 1/2+x,1/2-y,-z
4 -x,1/2+y,1/2-z
_cell_length_a                   10.143(2)
_cell_length_b                   11.246(2)
_cell_length_c                   18.721(4)
_cell_angle_alpha                90
_cell_angle_beta                 90
_cell_angle_gamma                90
_cell_volume                     2135.47
_chemical_melting_point          146-147deg.C
_cell_formula_units_Z            4
loop_
_atom_site_label
_atom_site_type_symbol
_atom_site_fract_x
_atom_site_fract_y
_atom_site_fract_z
O1 O 0.3458(3) 0.5680(3) 0.90978(15)
O2 O 0.5284(3) 0.6554(3) 0.95689(14)
O3 O 0.4369(2) 0.6263(2) 0.77929(14)
O4 O 0.2918(2) 0.2955(3) 0.70992(15)
N1 N 0.5144(3) 0.6359(3) 0.84162(19)
N2 N 0.2318(3) 0.4264(3) 0.79373(18)
C1 C 0.4521(4) 0.6175(4) 0.9041(2)
C2 C 0.4943(5) 0.6306(5) 1.0320(2)
C3 C 0.6127(6) 0.6858(7) 1.0726(3)
H1 H 0.6150 0.7700 1.0643
H2 H 0.6932 0.6505 1.0559
H3 H 0.6031 0.6709 1.1228
C4 C 0.3690(7) 0.6944(8) 1.0507(3)
H4 H 0.3791 0.7778 1.0413
H5 H 0.3498 0.6828 1.1004
H6 H 0.2979 0.6635 1.0224
C5 C 0.4940(8) 0.4976(6) 1.0443(4)
H7 H 0.5774 0.4650 1.0300
H8 H 0.4249 0.4618 1.0166
H9 H 0.4796 0.4816 1.0940
C6 C 0.3216(3) 0.3713(4) 0.7541(2)
C7 C 0.4623(3) 0.4121(3) 0.7642(2)
H10 H 0.4820 0.4127 0.8149
H11 H 0.5206 0.3548 0.7419
C8 C 0.4917(4) 0.5336(4) 0.7340(2)
H12 H 0.5875 0.5441 0.7311
C9 C 0.4324(5) 0.5534(6) 0.6608(2)
H13 H 0.4282 0.4762 0.6377
H14 H 0.3421 0.5789 0.6682
C10 C 0.4875(6) 0.6306(10) 0.6125(3)
C11 C 0.6276(6) 0.6290(10) 0.5958(4)
H15 H 0.6467 0.6900 0.5614
H16 H 0.6510 0.5529 0.5764
H17 H 0.6775 0.6432 0.6385
C12 C 0.4059(7) 0.6453(10) 0.5445(3)
H18 H 0.4502 0.6988 0.5126
H19 H 0.3208 0.6769 0.5564
H20 H 0.3955 0.5694 0.5218
C13 C 0.0901(3) 0.4057(3) 0.7885(2)
H21 H 0.0714 0.3804 0.7394
C14 C 0.0443(4) 0.3094(5) 0.8369(3)
H22 H 0.0714 0.3272 0.8854
H23 H 0.0851 0.2349 0.8230
C15 C -0.1039(5) 0.2963(6) 0.8344(4)
H24 H -0.1293 0.2677 0.7875
H25 H -0.1307 0.2371 0.8692
C16 C -0.1747(4) 0.4088(6) 0.8492(3)
H26 H -0.2689 0.3962 0.8447
H27 H -0.1567 0.4343 0.8978
C17 C -0.1320(5) 0.5019(5) 0.7986(4)
H28 H -0.1749 0.5764 0.8105
H29 H -0.1583 0.4799 0.7506
C18 C 0.0173(4) 0.5185(5) 0.8012(4)
H30 H 0.0430 0.5762 0.7653
H31 H 0.0418 0.5500 0.8475
H32 H 0.264(3) 0.481(4) 0.8266(19)
H33 H 0.563(4) 0.687(4) 0.844(2)
loop_
_geom_bond_atom_site_label_1
_geom_bond_atom_site_label_2
_geom_bond_site_symmetry_1
_geom_bond_site_symmetry_2
O1 C1 1_555 1_555
O2 C1 1_555 1_555
O3 N1 1_555 1_555
O4 C6 1_555 1_555
N1 C1 1_555 1_555
N2 C6 1_555 1_555
C2 O2 1_555 1_555
C3 C2 1_555 1_555
H1 C3 1_555 1_555
H2 C3 1_555 1_555
H3 C3 1_555 1_555
C4 C2 1_555 1_555
H4 C4 1_555 1_555
H5 C4 1_555 1_555
H6 C4 1_555 1_555
C5 C2 1_555 1_555
H7 C5 1_555 1_555
H8 C5 1_555 1_555
H9 C5 1_555 1_555
C6 C7 1_555 1_555
C7 H10 1_555 1_555
H11 C7 1_555 1_555
C8 O3 1_555 1_555
H12 C8 1_555 1_555
C9 C8 1_555 1_555
H13 C9 1_555 1_555
H14 C9 1_555 1_555
C10 C9 1_555 1_555
C11 C10 1_555 1_555
H15 C11 1_555 1_555
H16 C11 1_555 1_555
H17 C11 1_555 1_555
C12 C10 1_555 1_555
H18 C12 1_555 1_555
H19 C12 1_555 1_555
H20 C12 1_555 1_555
C13 N2 1_555 1_555
H21 C13 1_555 1_555
C14 C13 1_555 1_555
H22 C14 1_555 1_555
H23 C14 1_555 1_555
C15 C14 1_555 1_555
H24 C15 1_555 1_555
H25 C15 1_555 1_555
C16 C15 1_555 1_555
H26 C16 1_555 1_555
H27 C16 1_555 1_555
C17 C16 1_555 1_555
H28 C17 1_555 1_555
H29 C17 1_555 1_555
C18 C13 1_555 1_555
H30 C18 1_555 1_555
H31 C18 1_555 1_555
H32 N2 1_555 1_555
H33 N1 1_555 1_555
C7 C8 1_555 1_555
C17 C18 1_555 1_555

#END
