
#######################################################################
#
#                 Cambridge Crystallographic Data Centre
#                                CCDC 
#
#######################################################################
#
# If this CIF has been generated from an entry in the Cambridge 
# Structural Database, then it will include bibliographic, chemical, 
# crystal, experimental, refinement or atomic coordinate data resulting 
# from the CCDC's data processing and validation procedures.
#
#######################################################################

data_EZUFAG
_chemical_formula_moiety         'C20 H30 N2 O5,0.5(H2 O1)'
_chemical_name_systematic        
'Benzyl 2,2,11-trimethyl-3,8-dioxo-4,9-diaza-5-oxadodecane-6-carboxylate hemihydrate'
_symmetry_cell_setting           tetragonal
_symmetry_space_group_name_H-M   'I 41/a'
_symmetry_Int_Tables_number      88
_space_group_name_Hall           '-I 4ad'
loop_
_symmetry_equiv_pos_site_id
_symmetry_equiv_pos_as_xyz
1 x,y,z
2 3/4-y,1/4+x,1/4+z
3 1/4+y,1/4-x,1/4+z
4 1/2+x,1/2+y,1/2+z
5 1/4-y,3/4+x,3/4+z
6 x,1/2+y,-z
7 1/2+x,y,1/2-z
8 1/4-y,1/4+x,1/4-z
9 -x,-y,-z
10 1/4+y,3/4-x,3/4-z
11 3/4-y,3/4+x,3/4-z
12 1/2-x,1/2-y,1/2-z
13 3/4+y,1/4-x,1/4-z
14 -x,1/2-y,z
15 1/2-x,-y,1/2+z
16 3/4+y,3/4-x,3/4+z
_cell_length_a                   26.917(4)
_cell_length_b                   26.917(4)
_cell_length_c                   12.114(2)
_cell_angle_alpha                90
_cell_angle_beta                 90
_cell_angle_gamma                90
_cell_volume                     8776.89
_chemical_melting_point          120-121deg.C
_cell_formula_units_Z            16
loop_
_atom_site_label
_atom_site_type_symbol
_atom_site_fract_x
_atom_site_fract_y
_atom_site_fract_z
O1 O 0.25074(10) 0.22077(10) 0.0574(2)
O2 O 0.15599(9) 0.21934(9) 0.10955(19)
O3 O 0.15898(9) 0.36999(9) 0.2116(2)
O4 O 0.10073(14) 0.16591(12) 0.2565(2)
O5 O 0.13113(10) 0.20872(10) 0.3976(2)
N1 N 0.18273(12) 0.17543(12) 0.0898(3)
N2 N 0.21140(12) 0.31665(12) 0.1296(3)
C1 C 0.22907(13) 0.18058(14) 0.0512(3)
C2 C 0.25291(13) 0.13368(12) 0.0040(3)
C3 C 0.24568(16) 0.08938(14) 0.0794(4)
H1 H 0.2613 0.0607 0.0475
H2 H 0.2108 0.0831 0.0885
H3 H 0.2603 0.0963 0.1501
C4 C 0.22846(17) 0.12414(17) -0.1078(3)
H4 H 0.2424 0.0947 -0.1402
H5 H 0.2343 0.1520 -0.1556
H6 H 0.1934 0.1197 -0.0978
C5 C 0.30882(15) 0.14256(17) -0.0105(4)
H7 H 0.3241 0.1131 -0.0394
H8 H 0.3233 0.1506 0.0596
H9 H 0.3140 0.1696 -0.0609
C6 C 0.15804(14) 0.23280(13) 0.2228(3)
H10 H 0.1925 0.2314 0.2486
C7 C 0.12651(15) 0.19815(14) 0.2908(3)
C8 C 0.13882(16) 0.28571(13) 0.2313(3)
H11 H 0.1073 0.2873 0.1927
H12 H 0.1322 0.2926 0.3085
C9 C 0.17126(14) 0.32687(14) 0.1876(3)
C10 C 0.24327(15) 0.35505(14) 0.0858(3)
H13 H 0.2756 0.3407 0.0704
H14 H 0.2478 0.3803 0.1421
C11 C 0.22424(18) 0.37989(17) -0.0184(3)
H15 H 0.1936 0.3974 0.0016
C12 C 0.2115(2) 0.3456(2) -0.1064(4)
H16 H 0.1878 0.3218 -0.0797
H17 H 0.2409 0.3286 -0.1306
H18 H 0.1974 0.3637 -0.1671
C13 C 0.2608(3) 0.4187(2) -0.0554(5)
H19 H 0.2685 0.4404 0.0052
H20 H 0.2467 0.4377 -0.1147
H21 H 0.2907 0.4028 -0.0804
C14 C 0.10328(19) 0.17912(16) 0.4743(3)
H22 H 0.1127 0.1445 0.4674
H23 H 0.0680 0.1820 0.4588
C15 C 0.11407(16) 0.19735(14) 0.5895(3)
C16 C 0.0790(2) 0.18734(17) 0.6709(4)
H24 H 0.0495 0.1713 0.6528
C17 C 0.0882(3) 0.20114(19) 0.7776(5)
H25 H 0.0652 0.1933 0.8321
C18 C 0.1293(3) 0.2255(2) 0.8048(4)
H26 H 0.1343 0.2353 0.8775
C19 C 0.16484(19) 0.23646(19) 0.7253(4)
H27 H 0.1938 0.2533 0.7443
C20 C 0.15649(16) 0.22192(16) 0.6175(4)
H28 H 0.1801 0.2290 0.5636
H29 H 0.1626(16) 0.1507(18) 0.077(3)
H30 H 0.2199(16) 0.2820(19) 0.104(3)
O6? O -0.0026(2) 0.26515(13) 0.2417(3)
loop_
_geom_bond_atom_site_label_1
_geom_bond_atom_site_label_2
_geom_bond_site_symmetry_1
_geom_bond_site_symmetry_2
O1 C1 1_555 1_555
O2 N1 1_555 1_555
O3 C9 1_555 1_555
O4 C7 1_555 1_555
O5 C7 1_555 1_555
N1 C1 1_555 1_555
N2 C9 1_555 1_555
C1 C2 1_555 1_555
C2 C3 1_555 1_555
C3 H1 1_555 1_555
H2 C3 1_555 1_555
H3 C3 1_555 1_555
C4 C2 1_555 1_555
H4 C4 1_555 1_555
H5 C4 1_555 1_555
H6 C4 1_555 1_555
C5 C2 1_555 1_555
H7 C5 1_555 1_555
H8 C5 1_555 1_555
H9 C5 1_555 1_555
C6 O2 1_555 1_555
H10 C6 1_555 1_555
C7 C6 1_555 1_555
C8 C6 1_555 1_555
H11 C8 1_555 1_555
H12 C8 1_555 1_555
C9 C8 1_555 1_555
C10 N2 1_555 1_555
H13 C10 1_555 1_555
H14 C10 1_555 1_555
C11 C10 1_555 1_555
H15 C11 1_555 1_555
C12 C11 1_555 1_555
H16 C12 1_555 1_555
H17 C12 1_555 1_555
H18 C12 1_555 1_555
C13 C11 1_555 1_555
H19 C13 1_555 1_555
H20 C13 1_555 1_555
H21 C13 1_555 1_555
C14 O5 1_555 1_555
H22 C14 1_555 1_555
H23 C14 1_555 1_555
C15 C14 1_555 1_555
C16 C15 1_555 1_555
H24 C16 1_555 1_555
C17 C16 1_555 1_555
H25 C17 1_555 1_555
C18 C17 1_555 1_555
H26 C18 1_555 1_555
C19 C18 1_555 1_555
H27 C19 1_555 1_555
C20 C15 1_555 1_555
H28 C20 1_555 1_555
H29 N1 1_555 1_555
H30 N2 1_555 1_555
C19 C20 1_555 1_555

#END
