
#######################################################################
#
#                 Cambridge Crystallographic Data Centre
#                                CCDC 
#
#######################################################################
#
# If this CIF has been generated from an entry in the Cambridge 
# Structural Database, then it will include bibliographic, chemical, 
# crystal, experimental, refinement or atomic coordinate data resulting 
# from the CCDC's data processing and validation procedures.
#
#######################################################################

data_EZUJIS
_chemical_formula_moiety         'C42 H26 N4,C13 H5 N3 O7'
_chemical_name_systematic        
'4,6-bis(6-(Anthracen-9-yl)pyridin-2-yl)pyrimidine 2,4,7-trinitrofluoren-9-one'
_symmetry_cell_setting           triclinic
_symmetry_space_group_name_H-M   'P -1'
_symmetry_Int_Tables_number      2
_space_group_name_Hall           '-P 1'
loop_
_symmetry_equiv_pos_site_id
_symmetry_equiv_pos_as_xyz
1 x,y,z
2 -x,-y,-z
_cell_length_a                   9.3171(2)
_cell_length_b                   11.5016(3)
_cell_length_c                   20.4556(7)
_cell_angle_alpha                80.867(5)
_cell_angle_beta                 80.186(5)
_cell_angle_gamma                77.429(5)
_cell_volume                     2091.27
_exptl_crystal_colour            red
_exptl_crystal_description       prism
_cell_formula_units_Z            2
_exptl_crystal_recrystallization_method cyclohexane/chloroform
loop_
_atom_site_label
_atom_site_type_symbol
_atom_site_fract_x
_atom_site_fract_y
_atom_site_fract_z
C1 C 0.2185(5) 0.0510(4) 0.3678(2)
C2 C 0.0781(5) 0.0453(5) 0.3512(3)
C3 C 0.0642(6) -0.0353(5) 0.3122(3)
C4 C 0.1908(6) -0.1157(5) 0.2860(3)
C5 C 0.3263(6) -0.1137(5) 0.3002(3)
C6 C 0.3474(5) -0.0302(4) 0.3404(3)
C7 C 0.4866(5) -0.0260(5) 0.3544(3)
C8 C 0.5068(5) 0.0562(4) 0.3932(3)
C9 C 0.6492(5) 0.0621(5) 0.4068(3)
C10 C 0.6670(6) 0.1435(6) 0.4438(3)
C11 C 0.5440(6) 0.2285(5) 0.4682(3)
C12 C 0.4048(5) 0.2271(5) 0.4567(3)
C13 C 0.3798(5) 0.1396(4) 0.4196(2)
C14 C 0.2369(5) 0.1339(4) 0.4082(2)
C15 C 0.1050(5) 0.2152(4) 0.4407(2)
C16 C 0.0304(5) 0.1775(5) 0.5021(3)
C17 C -0.0872(5) 0.2565(5) 0.5322(3)
C18 C -0.1295(5) 0.3699(4) 0.4997(2)
C19 C -0.0517(5) 0.4012(4) 0.4373(2)
N1 N 0.0647(4) 0.3253(3) 0.4082(2)
C20 C -0.0918(5) 0.5206(4) 0.3981(2)
N2 N -0.1890(4) 0.6059(4) 0.4289(2)
C21 C -0.2225(6) 0.7104(5) 0.3905(3)
N3 N -0.1700(5) 0.7421(4) 0.3272(2)
C22 C -0.0710(5) 0.6552(4) 0.2983(2)
C23 C -0.0319(5) 0.5423(4) 0.3318(2)
C24 C -0.0045(5) 0.6858(4) 0.2272(3)
C25 C -0.0693(5) 0.7844(5) 0.1869(3)
C26 C -0.0045(6) 0.8053(5) 0.1212(3)
C27 C 0.1211(6) 0.7264(5) 0.0988(3)
C28 C 0.1807(5) 0.6295(5) 0.1420(3)
N4 N 0.1199(4) 0.6091(4) 0.2060(2)
C29 C 0.3175(5) 0.5410(4) 0.1191(3)
C30 C 0.4568(6) 0.5431(5) 0.1375(3)
C31 C 0.4765(6) 0.6263(5) 0.1780(3)
C32 C 0.6118(6) 0.6243(5) 0.1957(3)
C33 C 0.7361(6) 0.5392(5) 0.1740(3)
C34 C 0.7235(6) 0.4593(5) 0.1343(3)
C35 C 0.5853(5) 0.4574(5) 0.1146(3)
C36 C 0.5712(6) 0.3773(5) 0.0728(3)
C37 C 0.4355(5) 0.3754(4) 0.0531(2)
C38 C 0.4219(6) 0.2959(5) 0.0089(3)
C39 C 0.2893(6) 0.2951(5) -0.0090(3)
C40 C 0.1595(6) 0.3701(5) 0.0183(3)
C41 C 0.1666(6) 0.4489(5) 0.0601(3)
C42 C 0.3049(5) 0.4580(5) 0.0781(3)
H1 H -0.0080 0.0993 0.3678
H2 H -0.0311 -0.0378 0.3024
H3 H 0.1803 -0.1714 0.2583
H4 H 0.4098 -0.1695 0.2830
H5 H 0.5707 -0.0810 0.3370
H6 H 0.7338 0.0075 0.3894
H7 H 0.7630 0.1437 0.4536
H8 H 0.5585 0.2873 0.4930
H9 H 0.3232 0.2850 0.4734
H10 H 0.0595 0.0983 0.5235
H11 H -0.1382 0.2325 0.5748
H12 H -0.2100 0.4255 0.5194
H13 H -0.2940 0.7706 0.4115
H14 H 0.0347 0.4806 0.3100
H15 H -0.1565 0.8369 0.2039
H16 H -0.0458 0.8726 0.0922
H17 H 0.1670 0.7383 0.0538
H18 H 0.3936 0.6848 0.1930
H19 H 0.6218 0.6809 0.2230
H20 H 0.8295 0.5376 0.1872
H21 H 0.8092 0.4032 0.1193
H22 H 0.6570 0.3219 0.0572
H23 H 0.5077 0.2422 -0.0083
H24 H 0.2834 0.2438 -0.0402
H25 H 0.0660 0.3656 0.0074
H26 H 0.0778 0.4989 0.0777
C43 C 0.4697(6) 0.2125(5) 0.2265(3)
C44 C 0.6056(5) 0.2204(5) 0.2425(3)
C45 C 0.6170(6) 0.3062(5) 0.2818(3)
C46 C 0.4884(6) 0.3814(5) 0.3045(3)
C47 C 0.3509(6) 0.3774(5) 0.2897(3)
C48 C 0.3456(5) 0.2925(5) 0.2513(3)
C49 C 0.2104(6) 0.2749(5) 0.2257(3)
O1 O 0.0826(4) 0.3253(4) 0.2365(2)
C50 C 0.2691(6) 0.1776(5) 0.1826(3)
C51 C 0.1918(6) 0.1347(5) 0.1418(3)
C52 C 0.2751(6) 0.0513(5) 0.1015(3)
C53 C 0.4229(6) 0.0094(5) 0.1027(3)
C54 C 0.4987(6) 0.0508(5) 0.1427(3)
C55 C 0.4235(6) 0.1376(5) 0.1823(3)
N5 N 0.2032(6) 0.0168(4) 0.0499(3)
O2 O 0.0727(5) 0.0665(4) 0.0469(2)
O3 O 0.2766(6) -0.0540(4) 0.0135(2)
N6 N 0.5049(6) 0.4742(5) 0.3443(3)
O4 O 0.3890(5) 0.5427(4) 0.3641(2)
O5 O 0.6281(4) 0.4767(4) 0.3554(2)
N7 N 0.7436(7) 0.1443(6) 0.2185(3)
O6 O 0.8554(9) 0.1769(8) 0.2122(4)
O7 O 0.7401(8) 0.0367(7) 0.2208(4)
H27 H 0.7103 0.3123 0.2923
H28 H 0.2639 0.4313 0.3055
H29 H 0.0879 0.1614 0.1417
H30 H 0.4745 -0.0499 0.0751
N8? N 0.650(2) 0.019(2) 0.1407(7)
O8? O 0.6812 -0.0803 0.1220
O9? O 0.7370 0.0768 0.1478
loop_
_geom_bond_atom_site_label_1
_geom_bond_atom_site_label_2
_geom_bond_site_symmetry_1
_geom_bond_site_symmetry_2
C1 C2 1_555 1_555
C2 C3 1_555 1_555
C3 C4 1_555 1_555
C4 C5 1_555 1_555
C5 C6 1_555 1_555
C6 C1 1_555 1_555
C7 C6 1_555 1_555
C8 C7 1_555 1_555
C9 C8 1_555 1_555
C10 C9 1_555 1_555
C11 C10 1_555 1_555
C12 C11 1_555 1_555
C13 C8 1_555 1_555
C14 C1 1_555 1_555
C15 C14 1_555 1_555
C16 C15 1_555 1_555
C17 C16 1_555 1_555
C18 C17 1_555 1_555
C19 C18 1_555 1_555
N1 C15 1_555 1_555
C20 C19 1_555 1_555
N2 C20 1_555 1_555
C21 N2 1_555 1_555
N3 C21 1_555 1_555
C22 N3 1_555 1_555
C23 C20 1_555 1_555
C24 C22 1_555 1_555
C25 C24 1_555 1_555
C26 C25 1_555 1_555
C27 C26 1_555 1_555
C28 C27 1_555 1_555
N4 C24 1_555 1_555
C29 C28 1_555 1_555
C30 C29 1_555 1_555
C31 C30 1_555 1_555
C32 C31 1_555 1_555
C33 C32 1_555 1_555
C34 C33 1_555 1_555
C35 C30 1_555 1_555
C36 C35 1_555 1_555
C37 C36 1_555 1_555
C38 C37 1_555 1_555
C39 C38 1_555 1_555
C40 C39 1_555 1_555
C41 C40 1_555 1_555
C42 C29 1_555 1_555
C43 C44 1_555 1_555
C44 C45 1_555 1_555
C45 C46 1_555 1_555
C46 C47 1_555 1_555
C47 C48 1_555 1_555
C48 C43 1_555 1_555
C49 C48 1_555 1_555
O1 C49 1_555 1_555
C50 C49 1_555 1_555
C51 C50 1_555 1_555
C52 C51 1_555 1_555
C53 C52 1_555 1_555
C54 C53 1_555 1_555
C55 C43 1_555 1_555
N5 C52 1_555 1_555
O2 N5 1_555 1_555
O3 N5 1_555 1_555
N6 C46 1_555 1_555
O4 N6 1_555 1_555
O5 N6 1_555 1_555
N7 C44 1_555 1_555
O6 N7 1_555 1_555
O7 N7 1_555 1_555
H1 C2 1_555 1_555
H2 C3 1_555 1_555
H3 C4 1_555 1_555
H4 C5 1_555 1_555
H5 C7 1_555 1_555
H6 C9 1_555 1_555
H7 C10 1_555 1_555
H8 C11 1_555 1_555
H9 C12 1_555 1_555
H10 C16 1_555 1_555
H11 C17 1_555 1_555
H12 C18 1_555 1_555
H13 C21 1_555 1_555
H14 C23 1_555 1_555
H15 C25 1_555 1_555
H16 C26 1_555 1_555
H17 C27 1_555 1_555
H18 C31 1_555 1_555
H19 C32 1_555 1_555
H20 C33 1_555 1_555
H21 C34 1_555 1_555
H22 C36 1_555 1_555
H23 C38 1_555 1_555
H24 C39 1_555 1_555
H25 C40 1_555 1_555
H26 C41 1_555 1_555
H27 C45 1_555 1_555
H28 C47 1_555 1_555
H29 C51 1_555 1_555
H30 C53 1_555 1_555
C12 C13 1_555 1_555
C13 C14 1_555 1_555
C19 N1 1_555 1_555
C22 C23 1_555 1_555
C28 N4 1_555 1_555
C34 C35 1_555 1_555
C37 C42 1_555 1_555
C41 C42 1_555 1_555
C50 C55 1_555 1_555
C54 C55 1_555 1_555

#END
