
#######################################################################
#
#                 Cambridge Crystallographic Data Centre
#                                CCDC 
#
#######################################################################
#
# If this CIF has been generated from an entry in the Cambridge 
# Structural Database, then it will include bibliographic, chemical, 
# crystal, experimental, refinement or atomic coordinate data resulting 
# from the CCDC's data processing and validation procedures.
#
#######################################################################

data_EZUJAL
_chemical_formula_moiety         'C23 H20 N2 O3'
_chemical_name_systematic        
(4-Nitro-3,5-diphenylpyrrolidin-2-yl)(phenyl)methanone
_symmetry_cell_setting           orthorhombic
_symmetry_space_group_name_H-M   'P n a 21'
_symmetry_Int_Tables_number      33
_space_group_name_Hall           'P 2c -2n'
loop_
_symmetry_equiv_pos_site_id
_symmetry_equiv_pos_as_xyz
1 x,y,z
2 -x,-y,1/2+z
3 1/2-x,1/2+y,1/2+z
4 1/2+x,1/2-y,z
_cell_length_a                   21.9909(8)
_cell_length_b                   13.9411(6)
_cell_length_c                   6.3316(2)
_cell_angle_alpha                90
_cell_angle_beta                 90
_cell_angle_gamma                90
_cell_volume                     1941.13
_exptl_crystal_colour            yellow
_exptl_crystal_description       needle
_cell_formula_units_Z            4
loop_
_atom_site_label
_atom_site_type_symbol
_atom_site_fract_x
_atom_site_fract_y
_atom_site_fract_z
O1 O 0.00615(14) 0.3536(3) 0.2339(6)
O2 O 0.1447(2) 0.3459(3) -0.6210(7)
O3 O 0.22301(18) 0.3688(4) -0.4470(9)
N1 N 0.07306(15) 0.4669(2) -0.0288(8)
H1 H 0.0708 0.4946 0.0924
N2 N 0.17050(19) 0.3599(3) -0.4601(8)
C1 C -0.0845(2) 0.2237(4) 0.1175(9)
H2 H -0.0671 0.2167 0.2504
C2 C -0.1338(3) 0.1689(4) 0.0637(11)
H3 H -0.1503 0.1264 0.1616
C3 C -0.1589(2) 0.1763(4) -0.1316(11)
H4 H -0.1913 0.1368 -0.1693
C4 C -0.1365(2) 0.2422(4) -0.2743(9)
H5 H -0.1545 0.2489 -0.4064
C5 C -0.08680(18) 0.2987(3) -0.2193(8)
H6 H -0.0714 0.3431 -0.3149
C6 C -0.06032(16) 0.2887(3) -0.0219(7)
C7 C -0.00758(16) 0.3486(3) 0.0485(8)
C8 C 0.03005(16) 0.3977(3) -0.1210(8)
H7 H 0.0023 0.4328 -0.2145
C9 C 0.06929(18) 0.3258(3) -0.2618(7)
H8 H 0.0541 0.3293 -0.4071
C10 C 0.07048(16) 0.2223(3) -0.1976(7)
C11 C 0.0935(2) 0.1923(3) -0.0067(7)
H9 H 0.1075 0.2377 0.0893
C12 C 0.0963(2) 0.0958(3) 0.0456(9)
H10 H 0.1120 0.0771 0.1757
C13 C 0.0762(2) 0.0283(3) -0.0937(11)
H11 H 0.0785 -0.0364 -0.0588
C14 C 0.0529(3) 0.0551(4) -0.2820(12)
H12 H 0.0385 0.0088 -0.3752
C15 C 0.05031(19) 0.1524(3) -0.3379(8)
H13 H 0.0351 0.1702 -0.4691
C16 C 0.13206(19) 0.3735(3) -0.2558(7)
H14 H 0.1547 0.3429 -0.1408
C17 C 0.11985(17) 0.4782(3) -0.1864(9)
H15 H 0.1021 0.5124 -0.3068
C18 C 0.17662(17) 0.5314(3) -0.1197(8)
C19 C 0.2002(2) 0.6013(3) -0.2462(10)
H16 H 0.1807 0.6176 -0.3715
C20 C 0.2532(2) 0.6479(4) -0.1873(12)
H17 H 0.2692 0.6954 -0.2742
C21 C 0.2816(2) 0.6256(4) -0.0079(12)
H18 H 0.3172 0.6575 0.0291
C22 C 0.2591(2) 0.5575(4) 0.1198(11)
H19 H 0.2790 0.5420 0.2450
C23 C 0.2065(2) 0.5106(4) 0.0639(10)
H20 H 0.1908 0.4636 0.1531
loop_
_geom_bond_atom_site_label_1
_geom_bond_atom_site_label_2
_geom_bond_site_symmetry_1
_geom_bond_site_symmetry_2
O1 C7 1_555 1_555
O2 N2 1_555 1_555
O3 N2 1_555 1_555
N1 H1 1_555 1_555
N2 C16 1_555 1_555
C1 H2 1_555 1_555
C2 C1 1_555 1_555
H3 C2 1_555 1_555
C3 C2 1_555 1_555
H4 C3 1_555 1_555
C4 C3 1_555 1_555
H5 C4 1_555 1_555
C5 C4 1_555 1_555
H6 C5 1_555 1_555
C6 C1 1_555 1_555
C7 C6 1_555 1_555
C8 N1 1_555 1_555
H7 C8 1_555 1_555
C9 C8 1_555 1_555
H8 C9 1_555 1_555
C10 C9 1_555 1_555
C11 C10 1_555 1_555
H9 C11 1_555 1_555
C12 C11 1_555 1_555
H10 C12 1_555 1_555
C13 C12 1_555 1_555
H11 C13 1_555 1_555
C14 C13 1_555 1_555
H12 C14 1_555 1_555
C15 C10 1_555 1_555
H13 C15 1_555 1_555
C16 C9 1_555 1_555
H14 C16 1_555 1_555
C17 N1 1_555 1_555
H15 C17 1_555 1_555
C18 C17 1_555 1_555
C19 C18 1_555 1_555
H16 C19 1_555 1_555
C20 C19 1_555 1_555
H17 C20 1_555 1_555
C21 C20 1_555 1_555
H18 C21 1_555 1_555
C22 C21 1_555 1_555
H19 C22 1_555 1_555
C23 C18 1_555 1_555
H20 C23 1_555 1_555
C5 C6 1_555 1_555
C7 C8 1_555 1_555
C14 C15 1_555 1_555
C16 C17 1_555 1_555
C22 C23 1_555 1_555

#END
