
#######################################################################
#
#                 Cambridge Crystallographic Data Centre
#                                CCDC 
#
#######################################################################
#
# If this CIF has been generated from an entry in the Cambridge 
# Structural Database, then it will include bibliographic, chemical, 
# crystal, experimental, refinement or atomic coordinate data resulting 
# from the CCDC's data processing and validation procedures.
#
#######################################################################

data_EZUJIT
_chemical_formula_moiety         'C14 H18 N2 O2'
_chemical_name_systematic        
4a-(Prop-2-en-1-yl)-2,4a,8,9,9a,10-hexahydro-5H,7H-pyrido(3,2-f)pyrrolo(2,1-c)oxazepin-5-one
_symmetry_cell_setting           tetragonal
_symmetry_space_group_name_H-M   'P 43 21 2'
_symmetry_Int_Tables_number      96
_space_group_name_Hall           'P 4nw 2abw'
loop_
_symmetry_equiv_pos_site_id
_symmetry_equiv_pos_as_xyz
1 x,y,z
2 -x,-y,1/2+z
3 1/2-y,1/2+x,3/4+z
4 1/2+y,1/2-x,1/4+z
5 1/2-x,1/2+y,3/4-z
6 1/2+x,1/2-y,1/4-z
7 y,x,-z
8 -y,-x,1/2-z
_cell_length_a                   11.0581(5)
_cell_length_b                   11.0581(5)
_cell_length_c                   20.481(4)
_cell_angle_alpha                90
_cell_angle_beta                 90
_cell_angle_gamma                90
_cell_volume                     2504.45
_exptl_crystal_colour            colorless
_exptl_crystal_description       rectangular
_chemical_melting_point          '105.5-106.5 deg.C'
_cell_formula_units_Z            8
loop_
_atom_site_label
_atom_site_type_symbol
_atom_site_fract_x
_atom_site_fract_y
_atom_site_fract_z
N1 N 0.20820(14) 0.45162(12) 0.04298(6)
C1 C 0.3013(2) 0.53739(17) 0.02375(8)
H1 H 0.2630 0.6148 0.0156
H2 H 0.3361 0.5102 -0.0172
C2 C 0.40025(18) 0.55608(16) 0.07064(8)
H3 H 0.4686 0.5979 0.0569
C3 C 0.39659(16) 0.51639(14) 0.13128(8)
H4 H 0.4624 0.5291 0.1587
C4 C 0.28750(14) 0.45102(13) 0.15650(7)
C5 C 0.33024(14) 0.34357(13) 0.19890(7)
N2 N 0.32233(11) 0.23045(11) 0.17618(5)
C6 C 0.35999(15) 0.12838(15) 0.21688(7)
H5 H 0.3261 0.1345 0.2604
H6 H 0.4474 0.1240 0.2201
C7 C 0.30973(19) 0.02024(16) 0.18101(9)
H7 H 0.2269 0.0043 0.1940
H8 H 0.3582 -0.0513 0.1892
C8 C 0.31650(17) 0.05718(15) 0.10980(8)
H9 H 0.2592 0.0117 0.0837
H10 H 0.3972 0.0445 0.0925
C9 C 0.28449(14) 0.19098(13) 0.11051(7)
H11 H 0.3317 0.2338 0.0773
C10 C 0.15157(14) 0.21391(15) 0.09997(8)
H12 H 0.1322 0.2026 0.0542
H13 H 0.1049 0.1560 0.1250
C11 C 0.20702(14) 0.41548(14) 0.10050(7)
O1 O 0.11925(10) 0.33345(10) 0.11929(5)
C12 C 0.21268(19) 0.53628(15) 0.20221(8)
H14 H 0.1336 0.5013 0.2101
H15 H 0.2536 0.5443 0.2439
C13 C 0.0946(4) 0.6906(5) 0.14117(19)
H16 H 0.0317 0.6349 0.1398
H17 H 0.0853 0.7663 0.1220
C14 C 0.1981(6) 0.6620(6) 0.1706(3)
H18 H 0.2612 0.7175 0.1721
O2 O 0.37277(12) 0.36467(10) 0.25274(5)
C15? C 0.1471(7) 0.6307(6) 0.1641(3)
H19? H 0.0761 0.6087 0.1429
C16? C 0.1813(8) 0.7355(7) 0.1592(3)
H20? H 0.2519 0.7602 0.1799
H21? H 0.1366 0.7905 0.1347
loop_
_geom_bond_atom_site_label_1
_geom_bond_atom_site_label_2
_geom_bond_site_symmetry_1
_geom_bond_site_symmetry_2
N1 C1 1_555 1_555
C1 H1 1_555 1_555
H2 C1 1_555 1_555
C2 C1 1_555 1_555
H3 C2 1_555 1_555
C3 C2 1_555 1_555
H4 C3 1_555 1_555
C4 C3 1_555 1_555
C5 C4 1_555 1_555
N2 C5 1_555 1_555
C6 N2 1_555 1_555
H5 C6 1_555 1_555
H6 C6 1_555 1_555
C7 C6 1_555 1_555
H7 C7 1_555 1_555
H8 C7 1_555 1_555
C8 C7 1_555 1_555
H9 C8 1_555 1_555
H10 C8 1_555 1_555
C9 N2 1_555 1_555
H11 C9 1_555 1_555
C10 C9 1_555 1_555
H12 C10 1_555 1_555
H13 C10 1_555 1_555
C11 N1 1_555 1_555
O1 C10 1_555 1_555
C12 C4 1_555 1_555
H14 C12 1_555 1_555
H15 C12 1_555 1_555
C13 H16 1_555 1_555
H17 C13 1_555 1_555
C14 C12 1_555 1_555
H18 C14 1_555 1_555
O2 C5 1_555 1_555
C4 C11 1_555 1_555
C8 C9 1_555 1_555
C11 O1 1_555 1_555
C13 C14 1_555 1_555

#END
