
#######################################################################
#
#                 Cambridge Crystallographic Data Centre
#                                CCDC 
#
#######################################################################
#
# If this CIF has been generated from an entry in the Cambridge 
# Structural Database, then it will include bibliographic, chemical, 
# crystal, experimental, refinement or atomic coordinate data resulting 
# from the CCDC's data processing and validation procedures.
#
#######################################################################

data_EZUJEP
_chemical_formula_moiety         'C24 H17 N1 O1'
_chemical_name_systematic        
5-Methyl-6-phenyldibenzo[3,4:5,6]cyclohepta[1,2-b]pyrrol-8(7H)-one
_symmetry_cell_setting           rhombohedral
_symmetry_space_group_name_H-M   'R -3'
_symmetry_Int_Tables_number      148
_space_group_name_Hall           '-R 3'
loop_
_symmetry_equiv_pos_site_id
_symmetry_equiv_pos_as_xyz
1 x,y,z
2 -y,x-y,z
3 -x+y,-x,z
4 2/3+x,1/3+y,1/3+z
5 2/3-y,1/3+x-y,1/3+z
6 2/3-x+y,1/3-x,1/3+z
7 1/3+x,2/3+y,2/3+z
8 1/3-y,2/3+x-y,2/3+z
9 1/3-x+y,2/3-x,2/3+z
10 -x,-y,-z
11 y,-x+y,-z
12 x-y,x,-z
13 1/3-x,2/3-y,2/3-z
14 1/3+y,2/3-x+y,2/3-z
15 1/3+x-y,2/3+x,2/3-z
16 2/3-x,1/3-y,1/3-z
17 2/3+y,1/3-x+y,1/3-z
18 2/3+x-y,1/3+x,1/3-z
_cell_length_a                   29.2867(13)
_cell_length_b                   29.2867(13)
_cell_length_c                   10.8321(5)
_cell_angle_alpha                90
_cell_angle_beta                 90
_cell_angle_gamma                120
_cell_volume                     8046.08
_exptl_crystal_colour            red
_exptl_crystal_description       block
_cell_formula_units_Z            18
loop_
_atom_site_label
_atom_site_type_symbol
_atom_site_fract_x
_atom_site_fract_y
_atom_site_fract_z
O1 O 0.38062(5) 0.15234(5) 1.13091(9)
N1 N 0.30554(4) 0.14467(4) 0.96883(10)
H1 H 0.3030 0.1565 1.0397
C1 C 0.33490(7) 0.05129(6) 0.66775(13)
H2 H 0.2992 0.0390 0.6556
C2 C 0.35844(9) 0.02784(8) 0.60459(15)
H3 H 0.3389 0.0006 0.5494
C3 C 0.41058(9) 0.04464(8) 0.62314(15)
H4 H 0.4266 0.0287 0.5809
C4 C 0.43939(8) 0.08509(7) 0.70434(13)
H5 H 0.4747 0.0957 0.7169
C5 C 0.41712(6) 0.11097(6) 0.76915(12)
C6 C 0.36302(6) 0.09323(5) 0.74992(11)
C7 C 0.33396(5) 0.11450(5) 0.81523(12)
C8 C 0.34466(5) 0.13490(5) 0.93507(12)
C9 C 0.38707(6) 0.14798(6) 1.01995(12)
C10 C 0.44088(6) 0.16554(6) 0.97072(12)
C11 C 0.45332(6) 0.15408(6) 0.85318(12)
C12 C 0.50655(7) 0.18333(7) 0.81769(16)
H6 H 0.5158 0.1785 0.7387
C13 C 0.54519(7) 0.21848(7) 0.89435(19)
H7 H 0.5799 0.2372 0.8669
C14 C 0.53286(7) 0.22635(7) 1.01240(19)
H8 H 0.5592 0.2489 1.0665
C15 C 0.48118(7) 0.20034(7) 1.04831(16)
H9 H 0.4727 0.2061 1.1273
C16 C 0.28695(5) 0.11335(5) 0.77705(12)
C17 C 0.26072(6) 0.09889(6) 0.65326(12)
H10 H 0.2349 0.0620 0.6521
H11 H 0.2867 0.1063 0.5906
H12 H 0.2437 0.1191 0.6377
C18 C 0.27102(5) 0.13300(5) 0.87395(12)
C19 C 0.22663(6) 0.14256(6) 0.88520(13)
C20 C 0.17728(7) 0.10625(9) 0.83975(17)
H13 H 0.1725 0.0763 0.7988
C21 C 0.13533(9) 0.11464(14) 0.8553(2)
H14 H 0.1024 0.0903 0.8241
C22 C 0.14138(12) 0.15807(15) 0.9159(2)
H15 H 0.1127 0.1630 0.9272
C23 C 0.19003(12) 0.19444(13) 0.9600(2)
H16 H 0.1944 0.2244 1.0005
C24 C 0.23256(8) 0.18697(8) 0.94459(16)
H17 H 0.2655 0.2120 0.9744
loop_
_geom_bond_atom_site_label_1
_geom_bond_atom_site_label_2
_geom_bond_site_symmetry_1
_geom_bond_site_symmetry_2
O1 C9 1_555 1_555
N1 H1 1_555 1_555
C1 H2 1_555 1_555
C2 C1 1_555 1_555
H3 C2 1_555 1_555
C3 C2 1_555 1_555
H4 C3 1_555 1_555
C4 C3 1_555 1_555
H5 C4 1_555 1_555
C5 C4 1_555 1_555
C6 C1 1_555 1_555
C7 C6 1_555 1_555
C8 N1 1_555 1_555
C9 C8 1_555 1_555
C10 C9 1_555 1_555
C11 C5 1_555 1_555
C12 C11 1_555 1_555
H6 C12 1_555 1_555
C13 C12 1_555 1_555
H7 C13 1_555 1_555
C14 C13 1_555 1_555
H8 C14 1_555 1_555
C15 C10 1_555 1_555
H9 C15 1_555 1_555
C16 C7 1_555 1_555
C17 C16 1_555 1_555
H10 C17 1_555 1_555
H11 C17 1_555 1_555
H12 C17 1_555 1_555
C18 N1 1_555 1_555
C19 C18 1_555 1_555
C20 C19 1_555 1_555
H13 C20 1_555 1_555
C21 C20 1_555 1_555
H14 C21 1_555 1_555
C22 C21 1_555 1_555
H15 C22 1_555 1_555
C23 C22 1_555 1_555
H16 C23 1_555 1_555
C24 C19 1_555 1_555
H17 C24 1_555 1_555
C5 C6 1_555 1_555
C7 C8 1_555 1_555
C10 C11 1_555 1_555
C14 C15 1_555 1_555
C16 C18 1_555 1_555
C23 C24 1_555 1_555

#END
