
#######################################################################
#
#                 Cambridge Crystallographic Data Centre
#                                CCDC 
#
#######################################################################
#
# If this CIF has been generated from an entry in the Cambridge 
# Structural Database, then it will include bibliographic, chemical, 
# crystal, experimental, refinement or atomic coordinate data resulting 
# from the CCDC's data processing and validation procedures.
#
#######################################################################

data_EZUJUG
_chemical_formula_moiety         'C11 H9 B1 Br2 F2 N2 O2'
_chemical_name_systematic        
(5-bromo-2-[(5-bromo-3-methoxy-2H-pyrrol-2-ylidene)methyl]-3-methoxy-1H-pyrrol-1-yl)difluoro-boron
_symmetry_cell_setting           monoclinic
_symmetry_space_group_name_H-M   'P 21/n'
_symmetry_Int_Tables_number      14
_space_group_name_Hall           '-P 2yn'
loop_
_symmetry_equiv_pos_site_id
_symmetry_equiv_pos_as_xyz
1 x,y,z
2 1/2-x,1/2+y,1/2-z
3 -x,-y,-z
4 1/2+x,1/2-y,1/2+z
_cell_length_a                   7.1123(11)
_cell_length_b                   13.579(2)
_cell_length_c                   13.939(2)
_cell_angle_alpha                90
_cell_angle_beta                 100.474(2)
_cell_angle_gamma                90
_cell_volume                     1323.77
_exptl_crystal_colour            colorless
_exptl_crystal_description       block
_cell_formula_units_Z            4
loop_
_atom_site_label
_atom_site_type_symbol
_atom_site_fract_x
_atom_site_fract_y
_atom_site_fract_z
B1 B 0.2789(11) 0.3884(6) 0.6186(6)
Br1 Br 0.1004(2) 0.18080(9) 0.52245(9)
Br2 Br 0.46602(18) 0.48133(9) 0.83075(8)
C1 C 0.4065(10) 0.5472(5) 0.7157(5)
C2 C 0.4340(11) 0.6469(5) 0.7016(5)
H1 H 0.4793 0.6940 0.7487
C3 C 0.3789(10) 0.6611(5) 0.6015(6)
C4 C 0.3168(10) 0.5697(5) 0.5585(5)
C5 C 0.2500(10) 0.5452(5) 0.4627(5)
H2 H 0.2416 0.5934 0.4148
C6 C 0.1949(9) 0.4491(5) 0.4365(5)
C7 C 0.1265(10) 0.4066(5) 0.3443(5)
C8 C 0.0811(11) 0.3080(6) 0.3578(6)
H3 H 0.0301 0.2623 0.3105
C9 C 0.1296(10) 0.2936(5) 0.4583(6)
C10 C 0.4450(17) 0.8310(5) 0.6018(8)
H4 H 0.3525 0.8519 0.6398
H5 H 0.4621 0.8820 0.5564
H6 H 0.5646 0.8181 0.6442
C11 C 0.0520(15) 0.4070(7) 0.1741(6)
H7 H 0.1445 0.3575 0.1665
H8 H 0.0400 0.4527 0.1208
H9 H -0.0694 0.3764 0.1748
F1 F 0.4367(7) 0.3295(3) 0.6468(4)
F2 F 0.1361(7) 0.3652(3) 0.6713(3)
N1 N 0.3360(9) 0.4985(4) 0.6325(4)
N2 N 0.1975(9) 0.3764(4) 0.5080(4)
O1 O 0.3784(9) 0.7422(4) 0.5488(4)
O2 O 0.1122(9) 0.4575(4) 0.2624(4)
loop_
_geom_bond_atom_site_label_1
_geom_bond_atom_site_label_2
_geom_bond_site_symmetry_1
_geom_bond_site_symmetry_2
B1 F1 1_555 1_555
Br1 C9 1_555 1_555
Br2 C1 1_555 1_555
C1 C2 1_555 1_555
C2 H1 1_555 1_555
C3 C2 1_555 1_555
C4 C3 1_555 1_555
C5 C4 1_555 1_555
H2 C5 1_555 1_555
C6 C5 1_555 1_555
C7 C6 1_555 1_555
C8 C7 1_555 1_555
H3 C8 1_555 1_555
C9 C8 1_555 1_555
C10 H4 1_555 1_555
H5 C10 1_555 1_555
H6 C10 1_555 1_555
C11 H7 1_555 1_555
H8 C11 1_555 1_555
H9 C11 1_555 1_555
F2 B1 1_555 1_555
N1 B1 1_555 1_555
N2 B1 1_555 1_555
O1 C3 1_555 1_555
O2 C7 1_555 1_555
C1 N1 1_555 1_555
C4 N1 1_555 1_555
C6 N2 1_555 1_555
C9 N2 1_555 1_555
C10 O1 1_555 1_555
C11 O2 1_555 1_555

#END
