
#######################################################################
#
#                 Cambridge Crystallographic Data Centre
#                                CCDC 
#
#######################################################################
#
# If this CIF has been generated from an entry in the Cambridge 
# Structural Database, then it will include bibliographic, chemical, 
# crystal, experimental, refinement or atomic coordinate data resulting 
# from the CCDC's data processing and validation procedures.
#
#######################################################################

data_EZUKEQ
_chemical_formula_moiety         'C17 H16 O7'
_chemical_name_systematic        
1-Hydroxy-2,3,4,6-tetramethoxy-9H-xanthen-9-one
_symmetry_cell_setting           monoclinic
_symmetry_space_group_name_H-M   'P 21/n'
_symmetry_Int_Tables_number      14
_space_group_name_Hall           '-P 2yn'
loop_
_symmetry_equiv_pos_site_id
_symmetry_equiv_pos_as_xyz
1 x,y,z
2 1/2-x,1/2+y,1/2-z
3 -x,-y,-z
4 1/2+x,1/2-y,1/2+z
_cell_length_a                   8.5022(4)
_cell_length_b                   16.5872(7)
_cell_length_c                   10.7154(5)
_cell_angle_alpha                90
_cell_angle_beta                 101.109(3)
_cell_angle_gamma                90
_cell_volume                     1482.85
_exptl_crystal_colour            yellow
_exptl_crystal_description       prisms
_cell_formula_units_Z            4
loop_
_atom_site_label
_atom_site_type_symbol
_atom_site_fract_x
_atom_site_fract_y
_atom_site_fract_z
O1 O 0.56782(16) 0.65237(9) 0.51585(14)
O2 O 0.65693(17) 0.75177(9) 0.71529(14)
O3 O 0.47961(18) 0.76283(9) 0.89850(14)
O4 O 0.17752(17) 0.69060(9) 0.86784(14)
O5 O 0.08326(18) 0.58743(10) 0.66776(17)
O6 O 0.13758(18) 0.53208(10) 0.45176(14)
O7 O 0.69363(18) 0.54865(10) 0.13326(14)
C1 C 0.4672(2) 0.65804(13) 0.6016(2)
C2 C 0.5189(2) 0.70728(13) 0.7058(2)
C3 C 0.4239(2) 0.71313(13) 0.7986(2)
C4 C 0.2769(2) 0.67300(14) 0.7845(2)
C5 C 0.2272(2) 0.62400(13) 0.6788(2)
C6 C 0.3214(2) 0.61589(13) 0.5852(2)
C7 C 0.2688(3) 0.56804(13) 0.4717(2)
C8 C 0.3780(2) 0.56443(13) 0.3838(2)
C9 C 0.3446(3) 0.51884(14) 0.2703(2)
C10 C 0.4507(3) 0.51465(14) 0.1895(2)
C11 C 0.5971(3) 0.55656(13) 0.2196(2)
C12 C 0.6346(3) 0.60225(14) 0.3301(2)
C13 C 0.5238(3) 0.60507(13) 0.4095(2)
C14 C 0.7930(3) 0.71532(18) 0.7954(3)
C15 C 0.4667(3) 0.73410(18) 1.0230(2)
C16 C 0.1388(3) 0.62550(17) 0.9445(3)
C17 C 0.8472(3) 0.58825(18) 0.1602(3)
H1 H 0.067(4) 0.558(2) 0.596(3)
H2 H 0.246(3) 0.4916(14) 0.253(2)
H3 H 0.425(3) 0.4811(15) 0.109(2)
H4 H 0.732(3) 0.6318(14) 0.349(2)
H5 H 0.817(3) 0.6650(17) 0.754(2)
H6 H 0.887(3) 0.7524(15) 0.797(2)
H7 H 0.769(3) 0.7076(17) 0.883(3)
H8 H 0.466(3) 0.6725(19) 1.025(2)
H9 H 0.360(3) 0.7534(15) 1.049(2)
H10 H 0.562(3) 0.7591(15) 1.081(2)
H11 H 0.232(3) 0.5923(15) 0.978(2)
H12 H 0.051(3) 0.5920(15) 0.899(2)
H13 H 0.102(3) 0.6482(16) 1.020(3)
H14 H 0.900(3) 0.5702(18) 0.092(3)
H15 H 0.832(3) 0.6497(16) 0.156(2)
H16 H 0.911(3) 0.5687(16) 0.241(3)
loop_
_geom_bond_atom_site_label_1
_geom_bond_atom_site_label_2
_geom_bond_site_symmetry_1
_geom_bond_site_symmetry_2
O1 C1 1_555 1_555
O2 C2 1_555 1_555
O3 C3 1_555 1_555
O4 C4 1_555 1_555
O5 C5 1_555 1_555
O6 C7 1_555 1_555
O7 C11 1_555 1_555
C1 C2 1_555 1_555
C2 C3 1_555 1_555
C3 C4 1_555 1_555
C4 C5 1_555 1_555
C5 C6 1_555 1_555
C6 C1 1_555 1_555
C7 C6 1_555 1_555
C8 C7 1_555 1_555
C9 C8 1_555 1_555
C10 C9 1_555 1_555
C11 C10 1_555 1_555
C12 C11 1_555 1_555
C13 O1 1_555 1_555
C14 O2 1_555 1_555
C15 O3 1_555 1_555
C16 O4 1_555 1_555
C17 O7 1_555 1_555
H1 O5 1_555 1_555
H2 C9 1_555 1_555
H3 C10 1_555 1_555
H4 C12 1_555 1_555
H5 C14 1_555 1_555
H6 C14 1_555 1_555
H7 C14 1_555 1_555
H8 C15 1_555 1_555
H9 C15 1_555 1_555
H10 C15 1_555 1_555
H11 C16 1_555 1_555
H12 C16 1_555 1_555
H13 C16 1_555 1_555
H14 C17 1_555 1_555
H15 C17 1_555 1_555
H16 C17 1_555 1_555
C8 C13 1_555 1_555
C12 C13 1_555 1_555

#END
