
#######################################################################
#
#                 Cambridge Crystallographic Data Centre
#                                CCDC 
#
#######################################################################
#
# If this CIF has been generated from an entry in the Cambridge 
# Structural Database, then it will include bibliographic, chemical, 
# crystal, experimental, refinement or atomic coordinate data resulting 
# from the CCDC's data processing and validation procedures.
#
#######################################################################

data_EZURAU
_chemical_formula_moiety         'C26 H19 I1'
_chemical_name_systematic        2-(2,2-diphenylvinyl)-2'-iodobiphenyl
_symmetry_cell_setting           orthorhombic
_symmetry_space_group_name_H-M   'P b c a'
_symmetry_Int_Tables_number      61
_space_group_name_Hall           '-P 2ac 2ab'
loop_
_symmetry_equiv_pos_site_id
_symmetry_equiv_pos_as_xyz
1 x,y,z
2 1/2-x,-y,1/2+z
3 -x,1/2+y,1/2-z
4 1/2+x,1/2-y,-z
5 -x,-y,-z
6 1/2+x,y,1/2-z
7 x,1/2-y,1/2+z
8 1/2-x,1/2+y,z
_cell_length_a                   16.0575(12)
_cell_length_b                   11.4137(9)
_cell_length_c                   21.6746(17)
_cell_angle_alpha                90
_cell_angle_beta                 90
_cell_angle_gamma                90
_cell_volume                     3972.42
_exptl_crystal_colour            colorless
_exptl_crystal_description       block
_cell_formula_units_Z            8
loop_
_atom_site_label
_atom_site_type_symbol
_atom_site_fract_x
_atom_site_fract_y
_atom_site_fract_z
I1 I 0.42514(5) 0.41702(6) 0.36478(3)
C1 C 0.3565(3) 0.3983(4) 0.63237(19)
C2 C 0.4274(3) 0.3293(4) 0.60585(19)
C3 C 0.4788(3) 0.2607(4) 0.65014(19)
C4 C 0.3294(3) 0.5023(4) 0.6053(2)
H1 H 0.3579 0.5322 0.5703
C5 C 0.5114(3) 0.3128(4) 0.7031(2)
H2 H 0.4992 0.3925 0.7118
C6 C 0.3148(3) 0.3593(4) 0.68526(19)
H3 H 0.3333 0.2901 0.7054
C7 C 0.6459(3) 0.1832(4) 0.4440(2)
H4 H 0.6912 0.1505 0.4218
C8 C 0.2201(3) 0.5221(4) 0.6802(2)
H5 H 0.1734 0.5636 0.6959
C9 C 0.2471(3) 0.4199(4) 0.7088(2)
H6 H 0.2191 0.3915 0.7444
C10 C 0.4958(3) 0.1419(4) 0.6398(2)
H7 H 0.4735 0.1038 0.6045
C11 C 0.2619(3) 0.5628(4) 0.6286(2)
H8 H 0.2439 0.6329 0.6091
C12 C 0.5111(3) 0.2775(4) 0.5101(2)
C13 C 0.4400(3) 0.3284(4) 0.5445(2)
H9 H 0.3982 0.3648 0.5202
C14 C 0.5451(3) 0.0796(5) 0.6808(2)
H10 H 0.5560 -0.0010 0.6734
C15 C 0.5918(3) 0.2837(4) 0.5328(2)
H11 H 0.6018 0.3199 0.5715
C16 C 0.6583(3) 0.2377(4) 0.4996(2)
H12 H 0.7132 0.2441 0.5156
C17 C 0.5613(3) 0.2495(5) 0.7432(2)
H13 H 0.5839 0.2866 0.7786
C18 C 0.5786(3) 0.1329(5) 0.7321(2)
H14 H 0.6131 0.0900 0.7595
C19 C 0.5664(3) 0.1771(5) 0.4214(2)
H15 H 0.5575 0.1405 0.3825
C20 C 0.4982(4) 0.2221(7) 0.4528(2)
C21 C 0.4061(3) 0.1823(5) 0.4303(2)
C22 C 0.3696(3) 0.2583(4) 0.3881(3)
C23 C 0.2938(3) 0.2296(5) 0.3611(3)
H16 H 0.2688 0.2816 0.3323
C24 C 0.2545(3) 0.1250(5) 0.3762(3)
H17 H 0.2027 0.1054 0.3578
C25 C 0.2911(3) 0.0490(4) 0.4184(3)
H18 H 0.2642 -0.0226 0.4288
C26 C 0.3669(3) 0.0777(4) 0.4455(2)
H19 H 0.3918 0.0257 0.4743
I2? I 0.35876(6) 0.05307(8) 0.46758(4)
C27? C 0.4305(4) 0.2789(7) 0.4112(3)
C28? C 0.4305(4) 0.3755(6) 0.3722(4)
H20? H 0.4764 0.4280 0.3722
C29? C 0.3632(5) 0.3954(6) 0.3332(4)
H21? H 0.3632 0.4615 0.3066
C30? C 0.2960(4) 0.3186(8) 0.3332(4)
H22? H 0.2501 0.3322 0.3066
C31? C 0.2961(4) 0.2220(7) 0.3722(4)
H23? H 0.2502 0.1695 0.3722
C32? C 0.3634(5) 0.2021(6) 0.4112(4)
loop_
_geom_bond_atom_site_label_1
_geom_bond_atom_site_label_2
_geom_bond_site_symmetry_1
_geom_bond_site_symmetry_2
I1 C22 1_555 1_555
C1 C2 1_555 1_555
C2 C3 1_555 1_555
C3 C5 1_555 1_555
C4 C1 1_555 1_555
H1 C4 1_555 1_555
C5 H2 1_555 1_555
C6 C1 1_555 1_555
H3 C6 1_555 1_555
C7 H4 1_555 1_555
C8 H5 1_555 1_555
C9 C6 1_555 1_555
H6 C9 1_555 1_555
C10 C3 1_555 1_555
H7 C10 1_555 1_555
C11 C4 1_555 1_555
H8 C11 1_555 1_555
C12 C13 1_555 1_555
C13 C2 1_555 1_555
H9 C13 1_555 1_555
C14 C10 1_555 1_555
H10 C14 1_555 1_555
C15 C12 1_555 1_555
H11 C15 1_555 1_555
C16 C7 1_555 1_555
H12 C16 1_555 1_555
C17 C5 1_555 1_555
H13 C17 1_555 1_555
C18 C14 1_555 1_555
H14 C18 1_555 1_555
C19 C7 1_555 1_555
H15 C19 1_555 1_555
C20 C12 1_555 1_555
C21 C20 1_555 1_555
C22 C21 1_555 1_555
C23 C22 1_555 1_555
H16 C23 1_555 1_555
C24 C23 1_555 1_555
H17 C24 1_555 1_555
C25 C24 1_555 1_555
H18 C25 1_555 1_555
C26 C21 1_555 1_555
H19 C26 1_555 1_555
C8 C9 1_555 1_555
C8 C11 1_555 1_555
C15 C16 1_555 1_555
C17 C18 1_555 1_555
C19 C20 1_555 1_555
C25 C26 1_555 1_555

#END
