
#######################################################################
#
#                 Cambridge Crystallographic Data Centre
#                                CCDC 
#
#######################################################################
#
# If this CIF has been generated from an entry in the Cambridge 
# Structural Database, then it will include bibliographic, chemical, 
# crystal, experimental, refinement or atomic coordinate data resulting 
# from the CCDC's data processing and validation procedures.
#
#######################################################################

data_EZUROG
_chemical_formula_moiety         'C56 H40 N2 O10,2(C3 H6 O1)'
_chemical_name_systematic        
"N,N'-Disalicylidene-meso-1,2-bis(3,5-dibenzoyldiphenyl)ethylenediamine acetone solvate"
_symmetry_cell_setting           triclinic
_symmetry_space_group_name_H-M   'P -1'
_symmetry_Int_Tables_number      2
_space_group_name_Hall           '-P 1'
loop_
_symmetry_equiv_pos_site_id
_symmetry_equiv_pos_as_xyz
1 x,y,z
2 -x,-y,-z
_cell_length_a                   9.3498(8)
_cell_length_b                   11.7346(11)
_cell_length_c                   12.4850(13)
_cell_angle_alpha                101.320(6)
_cell_angle_beta                 95.220(5)
_cell_angle_gamma                96.393(5)
_cell_volume                     1325.83
_exptl_crystal_colour            colorless
_exptl_crystal_description       plates
_cell_formula_units_Z            1
loop_
_atom_site_label
_atom_site_type_symbol
_atom_site_fract_x
_atom_site_fract_y
_atom_site_fract_z
C1 C 0.9609(5) 0.5523(5) 0.4894(3)
H1 H 1.0322 0.6251 0.5034
N1 N 0.8934(4) 0.5272(4) 0.3757(3)
C2 C 0.9533(5) 0.5838(5) 0.3102(4)
H2 H 1.0398 0.6360 0.3373
C3 C 0.8950(6) 0.5715(5) 0.1968(4)
C4 C 0.9627(6) 0.6358(5) 0.1283(4)
H3 H 1.0509 0.6854 0.1565
C5 C 0.9066(8) 0.6298(6) 0.0218(4)
H4 H 0.9547 0.6744 -0.0232
C6 C 0.7779(8) 0.5572(6) -0.0186(5)
H5 H 0.7382 0.5518 -0.0925
C7 C 0.7063(6) 0.4926(5) 0.0459(4)
H6 H 0.6167 0.4451 0.0176
C8 C 0.7670(6) 0.4978(5) 0.1532(4)
O1 O 0.6938(4) 0.4321(4) 0.2148(3)
H7 H 0.746(5) 0.453(5) 0.277(3)
C9 C 0.8421(5) 0.5693(5) 0.5668(4)
C10 C 0.7264(5) 0.4817(5) 0.5566(4)
H8 H 0.7180 0.4122 0.5014
C11 C 0.6228(5) 0.4981(5) 0.6294(4)
C12 C 0.6311(6) 0.5990(6) 0.7084(4)
H9 H 0.5582 0.6100 0.7563
C13 C 0.7464(6) 0.6828(5) 0.7161(4)
C14 C 0.8560(5) 0.6701(5) 0.6484(4)
H10 H 0.9377 0.7284 0.6578
O2 O 0.5060(3) 0.4081(3) 0.6182(2)
C15 C 0.5060(6) 0.3461(5) 0.6998(4)
O3 O 0.5995(5) 0.3625(4) 0.7753(3)
C16 C 0.3715(6) 0.2579(5) 0.6846(4)
C17 C 0.2815(6) 0.2290(5) 0.5876(4)
H11 H 0.3033 0.2634 0.5272
C18 C 0.1574(6) 0.1482(5) 0.5789(5)
H12 H 0.0946 0.1271 0.5119
C19 C 0.1258(7) 0.0996(6) 0.6654(6)
H13 H 0.0408 0.0450 0.6589
C20 C 0.2155(10) 0.1286(7) 0.7616(6)
H14 H 0.1923 0.0943 0.8217
C21 C 0.3408(8) 0.2081(6) 0.7728(5)
H15 H 0.4038 0.2276 0.8397
O4 O 0.7541(4) 0.7813(4) 0.8013(3)
C22 C 0.7677(6) 0.8905(6) 0.7794(5)
O5 O 0.7838(6) 0.9067(4) 0.6903(4)
C23 C 0.7513(5) 0.9824(3) 0.8759(3)
C24 C 0.7827(7) 1.1019(4) 0.8804(4)
H16 H 0.8383 1.1289 0.8282
C25 C 0.7326(9) 1.1820(3) 0.9613(5)
H17 H 0.7541 1.2637 0.9643
C26 C 0.6512(8) 1.1425(6) 1.0377(5)
H18 H 0.6170 1.1972 1.0929
C27 C 0.6198(8) 1.0229(6) 1.0332(5)
H19 H 0.5641 0.9959 1.0855
C28 C 0.6698(7) 0.9429(4) 0.9524(5)
H20 H 0.6484 0.8612 0.9493
C1A C 1.0391(5) 0.4477(5) 0.5106(3)
H1A H 0.9678 0.3749 0.4966
N1A N 1.1066(4) 0.4728(4) 0.6243(3)
C2A C 1.0467(5) 0.4162(5) 0.6898(4)
H2A H 0.9602 0.3640 0.6627
C3A C 1.1050(6) 0.4285(5) 0.8032(4)
C4A C 1.0373(6) 0.3642(5) 0.8717(4)
H3A H 0.9491 0.3146 0.8435
C5A C 1.0934(8) 0.3702(6) 0.9782(4)
H4A H 1.0453 0.3256 1.0232
C6A C 1.2221(8) 0.4428(6) 1.0186(5)
H5A H 1.2618 0.4482 1.0925
C7A C 1.2937(6) 0.5074(5) 0.9541(4)
H6A H 1.3833 0.5549 0.9824
C8A C 1.2330(6) 0.5022(5) 0.8468(4)
O1A O 1.3062(4) 0.5679(4) 0.7852(3)
H7A H 1.254(5) 0.547(5) 0.723(3)
C9A C 1.1579(5) 0.4307(5) 0.4332(4)
C10A C 1.2736(5) 0.5183(5) 0.4434(4)
H8A H 1.2820 0.5878 0.4986
C11A C 1.3772(5) 0.5019(5) 0.3706(4)
C12A C 1.3689(6) 0.4010(6) 0.2916(4)
H9A H 1.4418 0.3900 0.2437
C13A C 1.2536(6) 0.3172(5) 0.2839(4)
C14A C 1.1440(5) 0.3299(5) 0.3516(4)
H10A H 1.0623 0.2716 0.3422
O4A O 1.2459(4) 0.2187(4) 0.1987(3)
C22A C 1.2323(6) 0.1095(6) 0.2206(5)
O5A O 1.2162(6) 0.0933(4) 0.3097(4)
C23A C 1.2487(5) 0.0176(3) 0.1241(3)
C24A C 1.2173(7) -0.1019(4) 0.1196(4)
H16A H 1.1617 -0.1289 0.1718
C25A C 1.2674(9) -0.1820(3) 0.0387(5)
H17A H 1.2459 -0.2637 0.0357
C26A C 1.3488(8) -0.1425(6) -0.0377(5)
H18A H 1.3830 -0.1972 -0.0929
C27A C 1.3802(8) -0.0229(6) -0.0332(5)
H19A H 1.4359 0.0041 -0.0855
C28A C 1.3302(7) 0.0571(4) 0.0476(5)
H20A H 1.3516 0.1388 0.0507
O2A O 1.4940(3) 0.5919(3) 0.3818(2)
C15A C 1.4940(6) 0.6539(5) 0.3002(4)
O3A O 1.4005(5) 0.6375(4) 0.2247(3)
C16A C 1.6285(6) 0.7421(5) 0.3154(4)
C17A C 1.7185(6) 0.7710(5) 0.4124(4)
H11A H 1.6967 0.7366 0.4728
C18A C 1.8426(6) 0.8518(5) 0.4211(5)
H12A H 1.9054 0.8729 0.4881
C19A C 1.8742(7) 0.9004(6) 0.3346(6)
H13A H 1.9592 0.9550 0.3411
C20A C 1.7845(10) 0.8714(7) 0.2384(6)
H14A H 1.8077 0.9057 0.1783
C21A C 1.6592(8) 0.7919(6) 0.2272(5)
H15A H 1.5962 0.7724 0.1603
O6 O 1.1677(7) 0.8113(5) 0.5872(7)
C29 C 1.2827(9) 0.8499(7) 0.5672(11)
C30 C 1.3116(12) 0.8844(10) 0.4663(9)
H21 H 1.2257 0.8595 0.4120
H22 H 1.3934 0.8475 0.4381
H23 H 1.3353 0.9698 0.4798
C31 C 1.4084(11) 0.8676(10) 0.6531(8)
H24 H 1.3760 0.8461 0.7198
H25 H 1.4511 0.9501 0.6699
H26 H 1.4811 0.8183 0.6264
C32? C 0.7200(9) 1.0886(4) 0.8516(4)
H27? H 0.6907 1.0937 0.7780
C33? C 0.7322(11) 1.1872(4) 0.9364(6)
H28? H 0.7010 1.2578 0.9225
C34? C 0.7903(10) 1.1817(5) 1.0416(5)
H29? H 0.7893 1.2456 1.1014
C35? C 0.8498(10) 1.0826(6) 1.0592(4)
H30? H 0.9008 1.0825 1.1286
C36? C 0.8346(9) 0.9834(5) 0.9748(4)
H31? H 0.8804 0.9173 0.9843
loop_
_geom_bond_atom_site_label_1
_geom_bond_atom_site_label_2
_geom_bond_site_symmetry_1
_geom_bond_site_symmetry_2
C1 H1 1_555 1_555
N1 C1 1_555 1_555
C2 N1 1_555 1_555
H2 C2 1_555 1_555
C3 C2 1_555 1_555
C4 C3 1_555 1_555
H3 C4 1_555 1_555
C5 C4 1_555 1_555
H4 C5 1_555 1_555
C6 C5 1_555 1_555
H5 C6 1_555 1_555
C7 C6 1_555 1_555
H6 C7 1_555 1_555
C8 C3 1_555 1_555
O1 C8 1_555 1_555
H7 O1 1_555 1_555
C9 C1 1_555 1_555
C10 C9 1_555 1_555
H8 C10 1_555 1_555
C11 C10 1_555 1_555
C12 C11 1_555 1_555
H9 C12 1_555 1_555
C13 C12 1_555 1_555
C14 C9 1_555 1_555
H10 C14 1_555 1_555
O2 C11 1_555 1_555
C15 O2 1_555 1_555
O3 C15 1_555 1_555
C16 C15 1_555 1_555
C17 C16 1_555 1_555
H11 C17 1_555 1_555
C18 C17 1_555 1_555
H12 C18 1_555 1_555
C19 C18 1_555 1_555
H13 C19 1_555 1_555
C20 C19 1_555 1_555
H14 C20 1_555 1_555
C21 C16 1_555 1_555
H15 C21 1_555 1_555
O4 C13 1_555 1_555
C22 O4 1_555 1_555
O5 C22 1_555 1_555
C23 C22 1_555 1_555
C24 C23 1_555 1_555
H16 C24 1_555 1_555
C25 C24 1_555 1_555
H17 C25 1_555 1_555
C26 C25 1_555 1_555
H18 C26 1_555 1_555
C27 C26 1_555 1_555
H19 C27 1_555 1_555
C28 C23 1_555 1_555
H20 C28 1_555 1_555
O6 C29 1_555 1_555
C29 C30 1_555 1_555
C30 H21 1_555 1_555
H22 C30 1_555 1_555
H23 C30 1_555 1_555
C31 C29 1_555 1_555
H24 C31 1_555 1_555
H25 C31 1_555 1_555
H26 C31 1_555 1_555
C1A C1 1_555 1_555
H1A C1A 1_555 1_555
N1A C1A 1_555 1_555
C2A N1A 1_555 1_555
H2A C2A 1_555 1_555
C3A C2A 1_555 1_555
C4A C3A 1_555 1_555
H3A C4A 1_555 1_555
C5A C4A 1_555 1_555
H4A C5A 1_555 1_555
C6A C5A 1_555 1_555
H5A C6A 1_555 1_555
C7A C6A 1_555 1_555
H6A C7A 1_555 1_555
C8A C3A 1_555 1_555
O1A C8A 1_555 1_555
H7A O1A 1_555 1_555
C9A C1A 1_555 1_555
C10A C9A 1_555 1_555
H8A C10A 1_555 1_555
C11A C10A 1_555 1_555
C12A C11A 1_555 1_555
H9A C12A 1_555 1_555
C13A C12A 1_555 1_555
C14A C9A 1_555 1_555
H10A C14A 1_555 1_555
O4A C13A 1_555 1_555
C22A O4A 1_555 1_555
O5A C22A 1_555 1_555
C23A C22A 1_555 1_555
C24A C23A 1_555 1_555
H16A C24A 1_555 1_555
C25A C24A 1_555 1_555
H17A C25A 1_555 1_555
C26A C25A 1_555 1_555
H18A C26A 1_555 1_555
C27A C26A 1_555 1_555
H19A C27A 1_555 1_555
C28A C23A 1_555 1_555
H20A C28A 1_555 1_555
O2A C11A 1_555 1_555
C15A O2A 1_555 1_555
O3A C15A 1_555 1_555
C16A C15A 1_555 1_555
C17A C16A 1_555 1_555
H11A C17A 1_555 1_555
C18A C17A 1_555 1_555
H12A C18A 1_555 1_555
C19A C18A 1_555 1_555
H13A C19A 1_555 1_555
C20A C19A 1_555 1_555
H14A C20A 1_555 1_555
C21A C16A 1_555 1_555
H15A C21A 1_555 1_555
C7 C8 1_555 1_555
C13 C14 1_555 1_555
C20 C21 1_555 1_555
C27 C28 1_555 1_555
C7A C8A 1_555 1_555
C13A C14A 1_555 1_555
C27A C28A 1_555 1_555
C20A C21A 1_555 1_555

#END
