
#######################################################################
#
#                 Cambridge Crystallographic Data Centre
#                                CCDC 
#
#######################################################################
#
# If this CIF has been generated from an entry in the Cambridge 
# Structural Database, then it will include bibliographic, chemical, 
# crystal, experimental, refinement or atomic coordinate data resulting 
# from the CCDC's data processing and validation procedures.
#
#######################################################################

data_EZUYUU
_chemical_formula_moiety         'C32 H36 B1 N1'
_chemical_name_systematic        
2'-(Dimesitylboryl)-N,N-dimethylbiphenyl-2-amine
_symmetry_cell_setting           monoclinic
_symmetry_space_group_name_H-M   'P 21/c'
_symmetry_Int_Tables_number      14
_space_group_name_Hall           '-P 2ybc'
loop_
_symmetry_equiv_pos_site_id
_symmetry_equiv_pos_as_xyz
1 x,y,z
2 -x,1/2+y,1/2-z
3 -x,-y,-z
4 x,1/2-y,1/2+z
_cell_length_a                   18.568
_cell_length_b                   8.451
_cell_length_c                   16.951
_cell_angle_alpha                90
_cell_angle_beta                 91.12
_cell_angle_gamma                90
_cell_volume                     2659.41
_exptl_crystal_colour            green
_exptl_crystal_description       block
_cell_formula_units_Z            4
loop_
_atom_site_label
_atom_site_type_symbol
_atom_site_fract_x
_atom_site_fract_y
_atom_site_fract_z
N1 N 0.18072(15) 0.1091(3) 0.61526(16)
C1 C 0.32251(16) -0.0510(3) 0.51972(17)
C2 C 0.39709(17) -0.0569(4) 0.53221(19)
H1 H 0.4259 0.0066 0.5010
C3 C 0.43032(19) -0.1522(4) 0.5886(2)
H2 H 0.4803 -0.1542 0.5939
C4 C 0.3886(2) -0.2435(4) 0.6364(2)
H3 H 0.4101 -0.3073 0.6749
C5 C 0.3144(2) -0.2408(4) 0.62745(19)
H4 H 0.2866 -0.3028 0.6604
C6 C 0.28015(17) -0.1469(4) 0.56980(17)
C7 C 0.19967(17) -0.1586(4) 0.56333(17)
C8 C 0.15243(18) -0.0351(4) 0.58406(18)
C9 C 0.0785(2) -0.0580(5) 0.5719(2)
H5 H 0.0467 0.0232 0.5840
C10 C 0.0514(2) -0.1998(6) 0.5421(2)
H6 H 0.0021 -0.2119 0.5337
C11 C 0.0972(2) -0.3218(5) 0.5251(2)
H7 H 0.0793 -0.4173 0.5057
C12 C 0.1700(2) -0.3007(4) 0.5371(2)
H8 H 0.2007 -0.3850 0.5273
C13 C 0.34201(16) 0.2008(4) 0.42397(17)
C14 C 0.36809(16) 0.2165(4) 0.34634(17)
C15 C 0.40769(18) 0.3498(5) 0.3256(2)
C16 C 0.42368(17) 0.4695(4) 0.3780(2)
C17 C 0.39889(18) 0.4538(4) 0.4543(2)
C18 C 0.35945(16) 0.3230(4) 0.47804(18)
C19 C 0.22532(16) 0.0127(3) 0.39624(16)
C20 C 0.17243(16) 0.1288(4) 0.37965(17)
C21 C 0.11345(19) 0.0937(5) 0.3314(2)
C22 C 0.10496(18) -0.0514(5) 0.29481(19)
C23 C 0.1569(2) -0.1643(5) 0.3103(2)
C24 C 0.21637(17) -0.1374(4) 0.36001(18)
C25 C 0.2716(2) -0.2675(4) 0.3687(2)
H9 H 0.3095 -0.2339 0.4042
H10 H 0.2914 -0.2908 0.3181
H11 H 0.2491 -0.3607 0.3893
C26 C 0.0413(2) -0.0853(6) 0.2397(2)
H12 H 0.0109 0.0065 0.2363
H13 H 0.0142 -0.1728 0.2597
H14 H 0.0584 -0.1110 0.1882
C27 C 0.17779(19) 0.2954(4) 0.4125(2)
H15 H 0.2206 0.3047 0.4448
H16 H 0.1363 0.3173 0.4437
H17 H 0.1798 0.3697 0.3697
C28 C 0.3565(2) 0.0876(4) 0.28553(19)
H18 H 0.3779 0.1187 0.2368
H19 H 0.3058 0.0710 0.2771
H20 H 0.3784 -0.0086 0.3041
C29 C 0.4671(2) 0.6133(5) 0.3547(3)
H21 H 0.4799 0.6047 0.3003
H22 H 0.5100 0.6192 0.3870
H23 H 0.4388 0.7070 0.3621
C30 C 0.3341(2) 0.3193(4) 0.56216(18)
H24 H 0.3076 0.2236 0.5709
H25 H 0.3037 0.4089 0.5714
H26 H 0.3751 0.3230 0.5976
C31 C 0.1304(2) 0.2420(5) 0.6177(3)
H27 H 0.1544 0.3330 0.6396
H28 H 0.0903 0.2145 0.6500
H29 H 0.1133 0.2657 0.5652
C32 C 0.2184(2) 0.0932(5) 0.6914(2)
H30 H 0.2358 0.1949 0.7083
H31 H 0.2583 0.0219 0.6862
H32 H 0.1858 0.0523 0.7297
B1 B 0.29409(19) 0.0536(4) 0.44852(19)
H33 H 0.1544(16) -0.265(4) 0.2858(18)
H34 H 0.0804(16) 0.174(4) 0.3215(17)
H35 H 0.4077(16) 0.537(4) 0.4940(19)
H36 H 0.4243(16) 0.360(4) 0.272(2)
loop_
_geom_bond_atom_site_label_1
_geom_bond_atom_site_label_2
_geom_bond_site_symmetry_1
_geom_bond_site_symmetry_2
N1 C8 1_555 1_555
C1 C2 1_555 1_555
C2 H1 1_555 1_555
C3 C2 1_555 1_555
H2 C3 1_555 1_555
C4 C3 1_555 1_555
H3 C4 1_555 1_555
C5 C4 1_555 1_555
H4 C5 1_555 1_555
C6 C1 1_555 1_555
C7 C6 1_555 1_555
C8 C7 1_555 1_555
C9 C8 1_555 1_555
H5 C9 1_555 1_555
C10 C9 1_555 1_555
H6 C10 1_555 1_555
C11 C10 1_555 1_555
H7 C11 1_555 1_555
C12 C7 1_555 1_555
H8 C12 1_555 1_555
C13 C14 1_555 1_555
C14 C15 1_555 1_555
C15 C16 1_555 1_555
C16 C17 1_555 1_555
C17 C18 1_555 1_555
C18 C13 1_555 1_555
C19 C20 1_555 1_555
C20 C21 1_555 1_555
C21 C22 1_555 1_555
C22 C23 1_555 1_555
C23 C24 1_555 1_555
C24 C19 1_555 1_555
C25 C24 1_555 1_555
H9 C25 1_555 1_555
H10 C25 1_555 1_555
H11 C25 1_555 1_555
C26 C22 1_555 1_555
H12 C26 1_555 1_555
H13 C26 1_555 1_555
H14 C26 1_555 1_555
C27 C20 1_555 1_555
H15 C27 1_555 1_555
H16 C27 1_555 1_555
H17 C27 1_555 1_555
C28 C14 1_555 1_555
H18 C28 1_555 1_555
H19 C28 1_555 1_555
H20 C28 1_555 1_555
C29 C16 1_555 1_555
H21 C29 1_555 1_555
H22 C29 1_555 1_555
H23 C29 1_555 1_555
C30 C18 1_555 1_555
H24 C30 1_555 1_555
H25 C30 1_555 1_555
H26 C30 1_555 1_555
C31 N1 1_555 1_555
H27 C31 1_555 1_555
H28 C31 1_555 1_555
H29 C31 1_555 1_555
C32 N1 1_555 1_555
H30 C32 1_555 1_555
H31 C32 1_555 1_555
H32 C32 1_555 1_555
B1 C1 1_555 1_555
H33 C23 1_555 1_555
H34 C21 1_555 1_555
H35 C17 1_555 1_555
H36 C15 1_555 1_555
C5 C6 1_555 1_555
C11 C12 1_555 1_555
C13 B1 1_555 1_555
C19 B1 1_555 1_555

#END
