
#######################################################################
#
#                 Cambridge Crystallographic Data Centre
#                                CCDC 
#
#######################################################################
#
# If this CIF has been generated from an entry in the Cambridge 
# Structural Database, then it will include bibliographic, chemical, 
# crystal, experimental, refinement or atomic coordinate data resulting 
# from the CCDC's data processing and validation procedures.
#
#######################################################################

data_EZUYII
_chemical_formula_moiety         'C54 H68 O10,C3 H6 O1'
_chemical_name_systematic        
'4-(decyloxy)-9,14,19,24,26,28,30,32,34-nonamethoxyhexacyclo[21.2.2.2^3,6^.2^8,11^.2^13,16^.2^18,21^]pentatriaconta-1(25),3,5,8,10,13,15,18,20,23,26,28,30,32,34-pentadecaene acetone solvate'
_symmetry_cell_setting           orthorhombic
_symmetry_space_group_name_H-M   'P n 21 a'
_symmetry_Int_Tables_number      33
_space_group_name_Hall           'P -2ac -2n'
loop_
_symmetry_equiv_pos_site_id
_symmetry_equiv_pos_as_xyz
1 x,y,z
2 -x,1/2+y,-z
3 1/2+x,y,1/2-z
4 1/2-x,1/2+y,1/2+z
_cell_length_a                   36.409(3)
_cell_length_b                   11.5008(5)
_cell_length_c                   12.1481(5)
_cell_angle_alpha                90
_cell_angle_beta                 90
_cell_angle_gamma                90
_cell_volume                     5086.81
_exptl_crystal_colour            colorless
_exptl_crystal_description       block
_cell_formula_units_Z            4
loop_
_atom_site_label
_atom_site_type_symbol
_atom_site_fract_x
_atom_site_fract_y
_atom_site_fract_z
O1 O 0.12825(19) 0.1660(6) -0.0175(5)
O2 O 0.05467(12) 0.5792(5) -0.0781(3)
O3 O 0.24182(12) 0.2660(4) 0.2237(4)
O4 O 0.19008(12) 0.5789(4) -0.0849(3)
O5 O 0.18929(11) 0.4060(4) 0.5960(3)
O6 O 0.23643(13) 0.7296(4) 0.2910(4)
O7 O 0.05575(11) 0.3641(5) 0.5793(3)
O8 O 0.11676(16) 0.7989(6) 0.5217(5)
O9 O 0.01503(16) 0.2345(5) 0.1837(4)
O10 O 0.00896(13) 0.6916(5) 0.3145(4)
C1 C 0.0725(2) 0.2810(8) -0.0057(5)
H1 H 0.0598 0.2191 0.0255
C2 C 0.05434(18) 0.3850(8) -0.0200(4)
C3 C 0.07373(17) 0.4763(7) -0.0670(4)
C4 C 0.11009(17) 0.4615(6) -0.0982(4)
H2 H 0.1224 0.5235 -0.1305
C5 C 0.12867(18) 0.3574(7) -0.0828(4)
C6 C 0.1092(2) 0.2638(7) -0.0358(5)
C7 C 0.0737(2) 0.6713(7) -0.1287(6)
H3 H 0.0772 0.6541 -0.2053
H4 H 0.0972 0.6811 -0.0938
H5 H 0.0597 0.7417 -0.1214
C8 C 0.1082(4) 0.0775(12) 0.0402(10)
H6 H 0.0882 0.0503 -0.0058
H7 H 0.0977 0.1106 0.1065
C9 C 0.1312(4) -0.0194(13) 0.0695(11)
H8 H 0.1498 0.0070 0.1211
H9 H 0.1438 -0.0468 0.0040
C10 C 0.1086(3) -0.1298(13) 0.1255(11)
H10 H 0.0951 -0.1017 0.1891
H11 H 0.0908 -0.1586 0.0727
C11 C 0.1309(3) -0.2205(15) 0.1577(13)
H12 H 0.1467 -0.1950 0.2173
H13 H 0.1464 -0.2437 0.0965
C12 C 0.1084(3) -0.3231(11) 0.1953(7)
H14 H 0.0939 -0.3008 0.2588
H15 H 0.0917 -0.3459 0.1371
C13 C 0.1315(3) -0.4205(12) 0.2239(9)
H16 H 0.1467 -0.4405 0.1611
H17 H 0.1477 -0.3979 0.2837
C14 C 0.1107(2) -0.5212(11) 0.2569(8)
H18 H 0.0948 -0.5426 0.1962
H19 H 0.0951 -0.4989 0.3179
C15 C 0.1320(2) -0.6284(13) 0.2909(9)
H20 H 0.1482 -0.6505 0.2310
H21 H 0.1473 -0.6087 0.3535
C16 C 0.1096(3) -0.7275(13) 0.3199(9)
H22 H 0.0949 -0.7483 0.2563
H23 H 0.0929 -0.7042 0.3779
C17 C 0.1298(4) -0.8338(15) 0.3574(11)
H24 H 0.1478 -0.8549 0.3033
H25 H 0.1128 -0.8967 0.3668
H26 H 0.1418 -0.8180 0.4262
C18 C 0.16907(18) 0.3475(7) -0.1124(5)
H27 H 0.1747 0.2673 -0.1307
H28 H 0.1741 0.3948 -0.1767
C19 C 0.19321(16) 0.3863(6) -0.0186(5)
C20 C 0.20334(15) 0.5041(6) -0.0062(5)
C21 C 0.22469(14) 0.5381(6) 0.0820(5)
H29 H 0.2307 0.6163 0.0896
C22 C 0.23761(15) 0.4589(6) 0.1601(5)
C23 C 0.22812(16) 0.3425(6) 0.1455(5)
C24 C 0.20678(16) 0.3075(6) 0.0570(5)
H30 H 0.2015 0.2290 0.0483
C25 C 0.2005(2) 0.6975(7) -0.0752(6)
H31 H 0.1906 0.7407 -0.1359
H32 H 0.2269 0.7033 -0.0759
H33 H 0.1912 0.7286 -0.0074
C26 C 0.2346(2) 0.1465(6) 0.2076(6)
H34 H 0.2435 0.1232 0.1366
H35 H 0.2086 0.1330 0.2117
H36 H 0.2468 0.1021 0.2637
C27 C 0.25948(13) 0.5010(6) 0.2596(5)
H37 H 0.2757 0.4392 0.2839
H38 H 0.2746 0.5664 0.2377
C28 C 0.23550(15) 0.5372(6) 0.3540(4)
C29 C 0.22369(15) 0.6522(5) 0.3680(5)
C30 C 0.20020(16) 0.6801(6) 0.4536(5)
H39 H 0.1921 0.7564 0.4603
C31 C 0.18815(16) 0.5976(6) 0.5306(5)
C32 C 0.20110(15) 0.4842(6) 0.5167(4)
C33 C 0.22383(14) 0.4540(6) 0.4304(4)
H40 H 0.2315 0.3772 0.4229
C34 C 0.2272(2) 0.8493(6) 0.3090(7)
H41 H 0.2406 0.8971 0.2581
H42 H 0.2335 0.8708 0.3829
H43 H 0.2013 0.8602 0.2979
C35 C 0.2028(2) 0.2913(7) 0.5869(6)
H44 H 0.1944 0.2575 0.5192
H45 H 0.1942 0.2459 0.6478
H46 H 0.2292 0.2927 0.5874
C36 C 0.16180(17) 0.6292(6) 0.6198(5)
H47 H 0.1646 0.7110 0.6373
H48 H 0.1676 0.5849 0.6854
C37 C 0.12244(16) 0.6061(6) 0.5874(5)
C38 C 0.10045(19) 0.6907(6) 0.5381(5)
C39 C 0.06460(17) 0.6668(8) 0.5074(5)
H49 H 0.0503 0.7256 0.4771
C40 C 0.04960(16) 0.5560(7) 0.5210(4)
C41 C 0.07148(16) 0.4713(7) 0.5694(4)
C42 C 0.10725(16) 0.4991(6) 0.6035(4)
H50 H 0.1212 0.4422 0.6385
C43 C 0.0984(4) 0.8924(13) 0.4595(9)
H51 H 0.0821 0.8589 0.4062
H52 H 0.1165 0.9388 0.4226
H53 H 0.0846 0.9405 0.5093
C44 C 0.07680(18) 0.2762(7) 0.6330(6)
H54 H 0.0985 0.2601 0.5906
H55 H 0.0624 0.2067 0.6395
H56 H 0.0838 0.3027 0.7049
C45 C 0.01120(16) 0.5297(8) 0.4815(4)
H57 H -0.0041 0.5981 0.4911
H58 H 0.0009 0.4675 0.5256
C46 C 0.01089(15) 0.4941(8) 0.3610(4)
C47 C 0.00985(16) 0.5797(8) 0.2791(6)
C48 C 0.01089(16) 0.5475(8) 0.1672(5)
H59 H 0.0102 0.6045 0.1130
C49 C 0.01285(16) 0.4327(8) 0.1381(5)
C50 C 0.01308(17) 0.3494(8) 0.2202(5)
C51 C 0.01224(17) 0.3796(8) 0.3299(5)
H60 H 0.0126 0.3217 0.3833
C52 C 0.0052(2) 0.7822(8) 0.2352(6)
H61 H -0.0144 0.7635 0.1854
H62 H 0.0277 0.7903 0.1948
H63 H -0.0003 0.8540 0.2721
C53 C 0.0113(3) 0.1462(9) 0.2644(6)
H64 H 0.0101 0.0718 0.2289
H65 H -0.0107 0.1591 0.3060
H66 H 0.0321 0.1480 0.3129
C54 C 0.01505(17) 0.3982(8) 0.0179(4)
H67 H 0.0022 0.3253 0.0071
H68 H 0.0030 0.4570 -0.0266
O11 O 0.1367(2) 0.8677(8) -0.1943(7)
C55 C 0.0810(2) 0.9813(17) -0.2356(13)
H69 H 0.0701 0.9664 -0.3062
H70 H 0.0777 1.0617 -0.2167
H71 H 0.0694 0.9333 -0.1810
C56 C 0.1220(3) 0.9535(11) -0.2401(9)
C57 C 0.1418(3) 1.0563(15) -0.2937(15)
H72 H 0.1572 1.0938 -0.2401
H73 H 0.1240 1.1109 -0.3208
H74 H 0.1567 1.0289 -0.3536
loop_
_geom_bond_atom_site_label_1
_geom_bond_atom_site_label_2
_geom_bond_site_symmetry_1
_geom_bond_site_symmetry_2
O1 C6 1_555 1_555
O2 C3 1_555 1_555
O3 C23 1_555 1_555
O4 C20 1_555 1_555
O5 C32 1_555 1_555
O6 C29 1_555 1_555
O7 C41 1_555 1_555
O8 C38 1_555 1_555
O9 C50 1_555 1_555
O10 C47 1_555 1_555
O11 C56 1_555 1_555
C1 H1 1_555 1_555
C2 C1 1_555 1_555
C3 C2 1_555 1_555
C4 C3 1_555 1_555
H2 C4 1_555 1_555
C5 C4 1_555 1_555
C6 C1 1_555 1_555
C7 O2 1_555 1_555
H3 C7 1_555 1_555
H4 C7 1_555 1_555
H5 C7 1_555 1_555
C8 O1 1_555 1_555
H6 C8 1_555 1_555
H7 C8 1_555 1_555
C9 C8 1_555 1_555
H8 C9 1_555 1_555
H9 C9 1_555 1_555
C10 C9 1_555 1_555
H10 C10 1_555 1_555
H11 C10 1_555 1_555
C11 C10 1_555 1_555
H12 C11 1_555 1_555
H13 C11 1_555 1_555
C12 C11 1_555 1_555
H14 C12 1_555 1_555
H15 C12 1_555 1_555
C13 C12 1_555 1_555
H16 C13 1_555 1_555
H17 C13 1_555 1_555
C14 C13 1_555 1_555
H18 C14 1_555 1_555
H19 C14 1_555 1_555
C15 C14 1_555 1_555
H20 C15 1_555 1_555
H21 C15 1_555 1_555
C16 C15 1_555 1_555
H22 C16 1_555 1_555
H23 C16 1_555 1_555
C17 C16 1_555 1_555
H24 C17 1_555 1_555
H25 C17 1_555 1_555
H26 C17 1_555 1_555
C18 C5 1_555 1_555
H27 C18 1_555 1_555
H28 C18 1_555 1_555
C19 C18 1_555 1_555
C20 C19 1_555 1_555
C21 C20 1_555 1_555
H29 C21 1_555 1_555
C22 C21 1_555 1_555
C23 C22 1_555 1_555
C24 C19 1_555 1_555
H30 C24 1_555 1_555
C25 O4 1_555 1_555
H31 C25 1_555 1_555
H32 C25 1_555 1_555
H33 C25 1_555 1_555
C26 O3 1_555 1_555
H34 C26 1_555 1_555
H35 C26 1_555 1_555
H36 C26 1_555 1_555
C27 C22 1_555 1_555
H37 C27 1_555 1_555
H38 C27 1_555 1_555
C28 C27 1_555 1_555
C29 C28 1_555 1_555
C30 C29 1_555 1_555
H39 C30 1_555 1_555
C31 C30 1_555 1_555
C32 C31 1_555 1_555
C33 C28 1_555 1_555
H40 C33 1_555 1_555
C34 O6 1_555 1_555
H41 C34 1_555 1_555
H42 C34 1_555 1_555
H43 C34 1_555 1_555
C35 O5 1_555 1_555
H44 C35 1_555 1_555
H45 C35 1_555 1_555
H46 C35 1_555 1_555
C36 C31 1_555 1_555
H47 C36 1_555 1_555
H48 C36 1_555 1_555
C37 C36 1_555 1_555
C38 C37 1_555 1_555
C39 C38 1_555 1_555
H49 C39 1_555 1_555
C40 C39 1_555 1_555
C41 C40 1_555 1_555
C42 C37 1_555 1_555
H50 C42 1_555 1_555
C43 O8 1_555 1_555
H51 C43 1_555 1_555
H52 C43 1_555 1_555
H53 C43 1_555 1_555
C44 O7 1_555 1_555
H54 C44 1_555 1_555
H55 C44 1_555 1_555
H56 C44 1_555 1_555
C45 C40 1_555 1_555
H57 C45 1_555 1_555
H58 C45 1_555 1_555
C46 C45 1_555 1_555
C47 C46 1_555 1_555
C48 C47 1_555 1_555
H59 C48 1_555 1_555
C49 C48 1_555 1_555
C50 C49 1_555 1_555
C51 C46 1_555 1_555
H60 C51 1_555 1_555
C52 O10 1_555 1_555
H61 C52 1_555 1_555
H62 C52 1_555 1_555
H63 C52 1_555 1_555
C53 O9 1_555 1_555
H64 C53 1_555 1_555
H65 C53 1_555 1_555
H66 C53 1_555 1_555
C54 C2 1_555 1_555
H67 C54 1_555 1_555
H68 C54 1_555 1_555
C55 H69 1_555 1_555
H70 C55 1_555 1_555
H71 C55 1_555 1_555
C56 C55 1_555 1_555
C57 C56 1_555 1_555
H72 C57 1_555 1_555
H73 C57 1_555 1_555
H74 C57 1_555 1_555
C5 C6 1_555 1_555
C23 C24 1_555 1_555
C32 C33 1_555 1_555
C41 C42 1_555 1_555
C49 C54 1_555 1_555
C50 C51 1_555 1_555

#END
