
#######################################################################
#
#                 Cambridge Crystallographic Data Centre
#                                CCDC 
#
#######################################################################
#
# If this CIF has been generated from an entry in the Cambridge 
# Structural Database, then it will include bibliographic, chemical, 
# crystal, experimental, refinement or atomic coordinate data resulting 
# from the CCDC's data processing and validation procedures.
#
#######################################################################

data_FABGAT
_chemical_formula_moiety         'C15 H11 F1 O3'
_chemical_name_systematic        '(E)-3-(4-Fluorophenoxy)-3-phenylacrylic acid'
_symmetry_cell_setting           triclinic
_symmetry_space_group_name_H-M   'P -1'
_symmetry_Int_Tables_number      2
_space_group_name_Hall           '-P 1'
loop_
_symmetry_equiv_pos_site_id
_symmetry_equiv_pos_as_xyz
1 x,y,z
2 -x,-y,-z
_cell_length_a                   9.0287(13)
_cell_length_b                   9.1723(13)
_cell_length_c                   9.4113(13)
_cell_angle_alpha                111.221(3)
_cell_angle_beta                 109.509(3)
_cell_angle_gamma                102.445(3)
_cell_volume                     632.655
_exptl_crystal_colour            colorless
_exptl_crystal_description       prismatic
_cell_formula_units_Z            2
loop_
_atom_site_label
_atom_site_type_symbol
_atom_site_fract_x
_atom_site_fract_y
_atom_site_fract_z
F1 F 0.49666(18) 0.1574(2) 0.13771(14)
O1 O 0.79684(14) 0.15479(15) 0.74300(14)
O2 O 1.33089(16) 0.38049(17) 0.78409(14)
O3 O 1.33680(14) 0.44534(15) 1.03718(13)
C1 C 1.2571(2) 0.37094(19) 0.88155(19)
C2 C 1.0764(2) 0.2718(2) 0.78318(19)
H1 H 1.0302 0.2337 0.6659
C3 C 0.96871(19) 0.22915(19) 0.84368(18)
C4 C 1.0057(2) 0.24697(18) 1.01437(19)
C5 C 1.1319(2) 0.2043(2) 1.0986(2)
H2 H 1.1982 0.1659 1.0484
C6 C 1.1604(3) 0.2182(3) 1.2570(3)
H3 H 1.2453 0.1885 1.3131
C7 C 1.0646(4) 0.2755(3) 1.3314(3)
H4 H 1.0849 0.2857 1.4388
C8 C 0.9385(3) 0.3181(3) 1.2492(3)
H5 H 0.8742 0.3582 1.3014
C9 C 0.9063(2) 0.3019(2) 1.0897(2)
H6 H 0.8183 0.3277 1.0326
C10 C 0.7274(2) 0.1584(2) 0.58793(19)
C11 C 0.6808(2) 0.0174(2) 0.4394(2)
H7 H 0.7026 -0.0765 0.4416
C12 C 0.6008(3) 0.0170(3) 0.2863(2)
H8 H 0.5665 -0.0777 0.1833
C13 C 0.5730(2) 0.1568(3) 0.2885(2)
C14 C 0.6186(3) 0.2972(3) 0.4345(2)
H9 H 0.5972 0.3910 0.4312
C15 C 0.6974(2) 0.2982(2) 0.5884(2)
H10 H 0.7297 0.3927 0.6909
H11 H 1.455(3) 0.439(3) 0.856(3)
loop_
_geom_bond_atom_site_label_1
_geom_bond_atom_site_label_2
_geom_bond_site_symmetry_1
_geom_bond_site_symmetry_2
F1 C13 1_555 1_555
O1 C3 1_555 1_555
O2 C1 1_555 1_555
O3 C1 1_555 1_555
C1 C2 1_555 1_555
C2 H1 1_555 1_555
C3 C2 1_555 1_555
C4 C3 1_555 1_555
C5 C4 1_555 1_555
H2 C5 1_555 1_555
C6 C5 1_555 1_555
H3 C6 1_555 1_555
C7 C6 1_555 1_555
H4 C7 1_555 1_555
C8 C7 1_555 1_555
H5 C8 1_555 1_555
C9 C4 1_555 1_555
H6 C9 1_555 1_555
C10 O1 1_555 1_555
C11 C10 1_555 1_555
H7 C11 1_555 1_555
C12 C11 1_555 1_555
H8 C12 1_555 1_555
C13 C12 1_555 1_555
C14 C13 1_555 1_555
H9 C14 1_555 1_555
C15 C10 1_555 1_555
H10 C15 1_555 1_555
H11 O2 1_555 1_555
C8 C9 1_555 1_555
C14 C15 1_555 1_555

#END
