
#######################################################################
#
#                 Cambridge Crystallographic Data Centre
#                                CCDC 
#
#######################################################################
#
# If this CIF has been generated from an entry in the Cambridge 
# Structural Database, then it will include bibliographic, chemical, 
# crystal, experimental, refinement or atomic coordinate data resulting 
# from the CCDC's data processing and validation procedures.
#
#######################################################################

data_FABHOF
_chemical_formula_moiety         'C10 H10 Cl1 N1 O4'
_chemical_name_systematic        '1-(4-Nitrophenyl)ethyl chloroacetate'
_symmetry_cell_setting           monoclinic
_symmetry_space_group_name_H-M   'P 21/c'
_symmetry_Int_Tables_number      14
_space_group_name_Hall           '-P 2ybc'
loop_
_symmetry_equiv_pos_site_id
_symmetry_equiv_pos_as_xyz
1 x,y,z
2 -x,1/2+y,1/2-z
3 -x,-y,-z
4 x,1/2-y,1/2+z
_cell_length_a                   7.292(2)
_cell_length_b                   15.039(4)
_cell_length_c                   10.153(3)
_cell_angle_alpha                90
_cell_angle_beta                 94.38(2)
_cell_angle_gamma                90
_cell_volume                     1110.17
_exptl_crystal_colour            'pale yellow'
_chemical_melting_point          346-347K
_cell_formula_units_Z            4
loop_
_atom_site_label
_atom_site_type_symbol
_atom_site_fract_x
_atom_site_fract_y
_atom_site_fract_z
Cl1 Cl 0.7932(1) 0.0398(1) 0.0437(1)
C1 C 0.5206(3) 0.1516(2) -0.0475(3)
O1 O 0.4092(2) 0.2164(1) -0.0146(2)
O2 O 0.5329(3) 0.1243(1) -0.1560(2)
C2 C 0.2952(3) 0.2585(2) -0.1204(2)
C3 C 0.1138(4) 0.2103(2) -0.1374(4)
C4 C 0.6239(4) 0.1182(2) 0.0758(3)
C5 C 0.2736(3) 0.3548(2) -0.0847(2)
C6 C 0.3083(3) 0.3864(2) 0.0420(2)
C7 C 0.2894(3) 0.4755(2) 0.0715(2)
C8 C 0.2352(3) 0.5326(2) -0.0296(3)
C9 C 0.1987(3) 0.5042(2) -0.1571(3)
C10 C 0.2180(3) 0.4151(2) -0.1838(2)
N1 N 0.2229(3) 0.6279(2) 0.0005(3)
O3 O 0.1725(3) 0.6783(1) -0.0894(2)
O4 O 0.2655(3) 0.6536(1) 0.1125(2)
H1 H 0.3500 0.2556 -0.2033
H2 H 0.0375 0.2383 -0.2067
H3 H 0.0526 0.2115 -0.0570
H4 H 0.1367 0.1498 -0.1612
H5 H 0.6822 0.1677 0.1216
H6 H 0.5382 0.0910 0.1307
H7 H 0.3466 0.3457 0.1115
H8 H 0.3135 0.4969 0.1603
H9 H 0.1605 0.5453 -0.2260
H10 H 0.1926 0.3942 -0.2727
loop_
_geom_bond_atom_site_label_1
_geom_bond_atom_site_label_2
_geom_bond_site_symmetry_1
_geom_bond_site_symmetry_2
Cl1 C4 1_555 1_555
C1 O1 1_555 1_555
O1 C2 1_555 1_555
O2 C1 1_555 1_555
C2 C3 1_555 1_555
C3 H2 1_555 1_555
C4 C1 1_555 1_555
C5 C2 1_555 1_555
C6 C5 1_555 1_555
C7 C6 1_555 1_555
C8 C7 1_555 1_555
C9 C8 1_555 1_555
C10 C5 1_555 1_555
N1 C8 1_555 1_555
O3 N1 1_555 1_555
O4 N1 1_555 1_555
H1 C2 1_555 1_555
H3 C3 1_555 1_555
H4 C3 1_555 1_555
H5 C4 1_555 1_555
H6 C4 1_555 1_555
H7 C6 1_555 1_555
H8 C7 1_555 1_555
H9 C9 1_555 1_555
H10 C10 1_555 1_555
C9 C10 1_555 1_555

#END
