
#######################################################################
#
#                 Cambridge Crystallographic Data Centre
#                                CCDC 
#
#######################################################################
#
# If this CIF has been generated from an entry in the Cambridge 
# Structural Database, then it will include bibliographic, chemical, 
# crystal, experimental, refinement or atomic coordinate data resulting 
# from the CCDC's data processing and validation procedures.
#
#######################################################################

data_FABJAW
_chemical_formula_moiety         'C15 H13 N3 O2'
_chemical_name_systematic        
3-Amino-5,6-dimethyl-2-nitrobiphenyl-4-carbonitrile
_symmetry_cell_setting           triclinic
_symmetry_space_group_name_H-M   'P -1'
_symmetry_Int_Tables_number      2
_space_group_name_Hall           '-P 1'
loop_
_symmetry_equiv_pos_site_id
_symmetry_equiv_pos_as_xyz
1 x,y,z
2 -x,-y,-z
_cell_length_a                   8.607(3)
_cell_length_b                   8.616(3)
_cell_length_c                   10.540(3)
_cell_angle_alpha                69.067(5)
_cell_angle_beta                 72.279(6)
_cell_angle_gamma                78.507(6)
_cell_volume                     691.789
_exptl_crystal_colour            yellow
_exptl_crystal_description       needle
_chemical_melting_point          '425 K'
_cell_formula_units_Z            2
loop_
_atom_site_label
_atom_site_type_symbol
_atom_site_fract_x
_atom_site_fract_y
_atom_site_fract_z
N1 N 0.4390(5) 0.0842(4) 1.1272(4)
N2 N 0.4277(5) 0.2887(4) 0.7833(4)
H1 H 0.4619 0.1916 0.8324
H2 H 0.4389 0.3103 0.6950
O1 O 0.4259(7) 0.6755(7) 0.5382(4)
O2 O 0.2214(6) 0.5584(6) 0.5850(4)
C1 C 0.2787(6) 0.9820(5) 0.6631(5)
H3 H 0.3889 0.9588 0.6633
C2 C 0.2214(7) 1.1373(5) 0.5847(5)
H4 H 0.2940 1.2179 0.5327
C3 C 0.0615(7) 1.1743(5) 0.5825(5)
H5 H 0.0247 1.2796 0.5298
C4 C -0.0445(6) 1.0566(6) 0.6574(5)
H6 H -0.1542 1.0805 0.6558
C5 C 0.0118(5) 0.9008(5) 0.7362(4)
H7 H -0.0614 0.8207 0.7874
C6 C 0.1727(5) 0.8620(4) 0.7405(4)
C7 C 0.2295(4) 0.6939(4) 0.8296(3)
C8 C 0.2992(4) 0.5691(4) 0.7700(3)
C9 C 0.3561(5) 0.4078(4) 0.8452(4)
C10 C 0.3349(4) 0.3790(4) 0.9886(3)
C11 C 0.2630(5) 0.5012(4) 1.0531(4)
C12 C 0.2099(5) 0.6605(4) 0.9735(4)
C13 C 0.1331(7) 0.7935(5) 1.0424(4)
H8 H 0.0271 0.7655 1.1030
H9 H 0.1216 0.8993 0.9714
H10 H 0.2018 0.8004 1.0965
C14 C 0.2440(6) 0.4593(5) 1.2074(4)
H11 H 0.3004 0.3512 1.2420
H12 H 0.1297 0.4583 1.2556
H13 H 0.2896 0.5416 1.2234
C15 C 0.3932(5) 0.2146(5) 1.0686(4)
N3 N 0.3172(6) 0.6046(4) 0.6209(4)
loop_
_geom_bond_atom_site_label_1
_geom_bond_atom_site_label_2
_geom_bond_site_symmetry_1
_geom_bond_site_symmetry_2
N1 C15 1_555 1_555
N2 H1 1_555 1_555
H2 N2 1_555 1_555
O1 N3 1_555 1_555
O2 N3 1_555 1_555
C1 H3 1_555 1_555
C2 C1 1_555 1_555
H4 C2 1_555 1_555
C3 C2 1_555 1_555
H5 C3 1_555 1_555
C4 C3 1_555 1_555
H6 C4 1_555 1_555
C5 C4 1_555 1_555
H7 C5 1_555 1_555
C6 C1 1_555 1_555
C7 C6 1_555 1_555
C8 C7 1_555 1_555
C9 N2 1_555 1_555
C10 C9 1_555 1_555
C11 C10 1_555 1_555
C12 C7 1_555 1_555
C13 C12 1_555 1_555
H8 C13 1_555 1_555
H9 C13 1_555 1_555
H10 C13 1_555 1_555
C14 C11 1_555 1_555
H11 C14 1_555 1_555
H12 C14 1_555 1_555
H13 C14 1_555 1_555
C15 C10 1_555 1_555
N3 C8 1_555 1_555
C5 C6 1_555 1_555
C8 C9 1_555 1_555
C11 C12 1_555 1_555

#END
