
#######################################################################
#
#                 Cambridge Crystallographic Data Centre
#                                CCDC 
#
#######################################################################
#
# If this CIF has been generated from an entry in the Cambridge 
# Structural Database, then it will include bibliographic, chemical, 
# crystal, experimental, refinement or atomic coordinate data resulting 
# from the CCDC's data processing and validation procedures.
#
#######################################################################

data_FABNOO
_chemical_formula_moiety         'C111 H109 F6 N19 O17,5.5(C1 H1 Cl3)'
_chemical_name_systematic        
'N-(6-((6-((6-(2,2-Dimethylpropanamido)pyridin-2-yl)carbamoyl)pyridine-2-carbonyl)amino)pyridin-2-yl)-(7-((7-((7-((7-((7-((7-((t-butoxycarbonyl)amino)-8-fluoro-4-(2-methylpropoxy)quinoline-2-carbonyl)amino)-8-fluoro-4-(2-methylpropoxy)quinoline-2-carbonyl)amino)-8-fluoro-4-(2-methylpropoxy)quinoline-2-carbonyl)amino)-8-fluoro-4-(2-methylpropoxy)quinoline-2-carbonyl)amino)-8-fluoro-4-(2-methylpropoxy)quinoline-2-carbonyl)amino)-8-fluoro-4-(2-methylpropoxy)quinoline-2-carbonyl)amine chloroform solvate'
_symmetry_cell_setting           orthorhombic
_symmetry_space_group_name_H-M   'P n n a'
_symmetry_Int_Tables_number      52
_space_group_name_Hall           '-P 2a 2bc'
loop_
_symmetry_equiv_pos_site_id
_symmetry_equiv_pos_as_xyz
1 x,y,z
2 1/2-x,-y,z
3 1/2-x,1/2+y,1/2-z
4 x,1/2-y,1/2-z
5 -x,-y,-z
6 1/2+x,y,-z
7 1/2+x,1/2-y,1/2+z
8 -x,1/2+y,1/2+z
_cell_length_a                   45.001(5)
_cell_length_b                   23.593(7)
_cell_length_c                   25.085(4)
_cell_angle_alpha                90
_cell_angle_beta                 90
_cell_angle_gamma                90
_cell_volume                     26633
_exptl_crystal_colour            yellow
_exptl_crystal_description       Prism
_cell_formula_units_Z            8
_chemical_properties_physical    Air-sensitive
_exptl_crystal_recrystallization_method chloroform/n-hexane
loop_
_atom_site_label
_atom_site_type_symbol
_atom_site_fract_x
_atom_site_fract_y
_atom_site_fract_z
C1 C 0.5778(3) 0.5361(6) 0.1369(6)
H1 H 0.5751 0.5287 0.1008
O1 O 0.5978(3) 0.2664(6) -0.0962(8)
N1 N 0.6286(2) 0.3709(4) 0.3964(4)
H2 H 0.6215 0.3720 0.3647
C2 C 0.6041(3) 0.5539(6) 0.1557(6)
H3 H 0.6203 0.5576 0.1328
O2 O 0.6740(3) 0.2864(5) 0.0541(6)
N2 N 0.5293(2) 0.4214(4) 0.4449(5)
C3 C 0.4482(3) 0.4498(6) 0.3805(10)
O3 O 0.6256(3) 0.6076(9) 0.3084(6)
N3 N 0.5818(2) 0.5728(4) 0.2976(4)
H4 H 0.5658 0.5622 0.3136
C4 C 0.5943(3) 0.6049(8) 0.3852(6)
F1 F 0.5468(2) 0.2313(3) 0.1149(4)
C5 C 0.7806(7) 0.1625(18) 0.4003(18)
H5 H 0.7677 0.1577 0.3703
H6 H 0.8007 0.1662 0.3881
H7 H 0.7750 0.1961 0.4196
C6 C 0.5274(3) 0.4026(5) 0.6447(5)
H8 H 0.5126 0.3748 0.6347
H9 H 0.5178 0.4393 0.6472
C7 C 0.5410(3) 0.3868(6) 0.6982(5)
H10 H 0.5569 0.4138 0.7062
C8 C 0.5542(3) 0.3280(5) 0.6974(5)
H11 H 0.5387 0.3006 0.6926
H12 H 0.5642 0.3210 0.7305
H13 H 0.5681 0.3251 0.6685
O4 O 0.5275(2) 0.5170(4) 0.0676(6)
N4 N 0.5561(2) 0.5416(4) 0.2241(5)
C9 C 0.6151(4) 0.6463(10) 0.4096(8)
H14 H 0.6342 0.6432 0.3929
H15 H 0.6169 0.6386 0.4470
H16 H 0.6075 0.6840 0.4047
F2 F 0.4868(2) 0.1806(3) 0.2420(4)
N5 N 0.6729(3) 0.0155(5) 0.1640(7)
H17 H 0.6541 0.0172 0.1578
C10 C 0.7781(7) 0.1112(17) 0.4369(17)
H18 H 0.7859 0.1203 0.4724
O5 O 0.4571(3) 0.2094(5) 0.0050(5)
N6 N 0.6553(2) 0.3363(4) 0.3065(6)
C11 C 0.6816(3) 0.0258(6) 0.2168(9)
C12 C 0.7178(3) 0.3364(7) 0.2997(8)
C13 C 0.6678(4) 0.0514(7) 0.3078(11)
C14 C 0.5543(6) 0.1144(7) 0.4122(12)
C15 C 0.4494(9) 0.1587(10) 0.3882(13)
C16 C 0.5776(6) 0.1045(7) 0.4411(12)
C17 C 0.6614(4) 0.0380(6) 0.2541(10)
C18 C 0.6896(4) 0.0037(7) 0.1230(10)
C19 C 0.5248(8) 0.1272(8) 0.4306(10)
C20 C 0.6856(4) -0.0189(8) 0.0285(8)
F3 F 0.57374(14) 0.4012(3) 0.3719(4)
O6 O 0.3925(2) 0.4768(5) 0.2020(5)
N7 N 0.5257(2) 0.5116(4) 0.1575(5)
H19 H 0.5141 0.5011 0.1829
C21 C 0.5609(3) 0.6314(7) 0.3901(5)
H20 H 0.5592 0.6641 0.3674
H21 H 0.5572 0.6424 0.4264
H22 H 0.5466 0.6035 0.3794
C22 C 0.6550(5) 0.0731(7) 0.3943(12)
C23 C 0.4702(4) 0.1749(7) 0.6449(7)
H23 H 0.4758 0.1382 0.6601
C24 C 0.4750(5) 0.1523(7) 0.429(2)
C25 C 0.5748(5) 0.1051(6) 0.4979(8)
H24 H 0.5906 0.0960 0.5201
C26 C 0.4721(8) 0.1535(7) 0.4849(10)
H25 H 0.4542 0.1621 0.5015
C27 C 0.4946(4) 0.2171(7) 0.6598(7)
H26 H 0.5137 0.2004 0.6532
H27 H 0.4930 0.2267 0.6969
H28 H 0.4925 0.2508 0.6386
C28 C 0.6604(4) -0.0238(8) -0.0088(7)
H29 H 0.6522 0.0132 -0.0153
H30 H 0.6454 -0.0477 0.0065
H31 H 0.6672 -0.0399 -0.0417
C29 C 0.4656(4) 0.1665(7) 0.5885(11)
H32 H 0.4583 0.2013 0.5725
H33 H 0.4507 0.1373 0.5830
C30 C 0.7024(4) -0.0740(8) 0.0306(8)
H34 H 0.7083 -0.0847 -0.0048
H35 H 0.6899 -0.1030 0.0453
H36 H 0.7197 -0.0695 0.0525
C31 C 0.5475(6) 0.1200(6) 0.5180(9)
H37 H 0.5452 0.1231 0.5547
C32 C 0.5539(3) 0.5290(5) 0.1741(6)
C33 C 0.4804(4) 0.4949(5) 0.1065(7)
O7 O 0.4239(3) 0.1658(5) 0.4003(6)
N8 N 0.4948(5) 0.2098(5) 0.0665(7)
H38 H 0.4986 0.2049 0.0998
C34 C 0.6844(6) 0.0783(8) 0.4128(11)
H39 H 0.6888 0.0875 0.4480
O8 O 0.4932(3) 0.1499(5) 0.5632(7)
N9 N 0.4597(6) 0.1904(7) 0.1526(13)
C35 C 0.4689(4) 0.4896(5) 0.0552(6)
H40 H 0.4804 0.4925 0.0245
C36 C 0.4236(4) 0.4779(7) 0.1032(12)
H41 H 0.4030 0.4755 0.1035
O9 O 0.7360(3) 0.0762(6) 0.3839(6)
N10 N 0.5004(5) 0.1391(5) 0.3980(8)
C37 C 0.7193(4) 0.0455(8) 0.2838(10)
H42 H 0.7393 0.0471 0.2932
C38 C 0.4012(4) 0.4713(7) 0.3113(8)
H43 H 0.3857 0.4767 0.2873
N11 N 0.5993(5) 0.2579(5) 0.0664(6)
F4 F 0.62218(17) 0.3134(3) 0.2198(3)
O10 O 0.4582(2) 0.4456(4) 0.4959(4)
N12 N 0.4670(3) 0.4915(4) 0.1519(6)
C39 C 0.5943(3) 0.5466(8) 0.4138(6)
H44 H 0.5780 0.5242 0.4008
H45 H 0.5921 0.5523 0.4515
H46 H 0.6127 0.5274 0.4069
C40 C 0.8033(3) 0.3693(10) 0.2720(10)
H47 H 0.7932 0.4052 0.2727
H48 H 0.8241 0.3752 0.2666
H49 H 0.7955 0.3467 0.2433
C41 C 0.7050(5) 0.0302(8) 0.0122(9)
H50 H 0.7111 0.0255 -0.0242
H51 H 0.7223 0.0314 0.0347
H52 H 0.6941 0.0649 0.0158
C42 C 0.5705(6) 0.2460(7) -0.0153(15)
C43 C 0.5432(5) 0.2344(7) -0.0457(7)
H53 H 0.5432 0.2350 -0.0828
C44 C 0.5205(5) 0.2241(6) -0.0205(9)
H54 H 0.5033 0.2174 -0.0402
C45 C 0.5176(5) 0.2211(5) 0.0384(7)
C46 C 0.5446(7) 0.2323(7) 0.0626(9)
C47 C 0.5720(7) 0.2437(8) 0.0399(11)
C48 C 0.6226(5) 0.2693(7) 0.0372(11)
C49 C 0.6499(6) 0.2820(7) 0.0721(11)
C50 C 0.8093(6) 0.2930(17) 0.3309(16)
H55 H 0.8220 0.2969 0.3614
H56 H 0.8203 0.2772 0.3017
H57 H 0.7930 0.2685 0.3396
C51 C 0.6009(4) 0.5948(8) 0.3271(6)
O11 O 0.55062(17) 0.4045(4) 0.6048(4)
N13 N 0.4382(3) 0.4712(5) 0.2428(8)
H58 H 0.4568 0.4717 0.2354
F5 F 0.63211(16) 0.0393(3) 0.2414(4)
O12 O 0.6714(2) 0.3560(4) 0.4408(5)
N14 N 0.4526(2) 0.4561(5) 0.3306(8)
C52 C 0.5821(3) 0.5622(5) 0.2415(6)
C53 C 0.4547(6) 0.1783(6) 0.2507(16)
C54 C 0.4430(7) 0.1846(9) 0.1976(14)
C55 C 0.4478(6) 0.1961(7) 0.1072(16)
C56 C 0.4636(5) 0.2036(6) 0.0534(14)
C57 C 0.6354(11) 0.327(2) -0.2098(14)
H59 H 0.6333 0.2934 -0.2308
H60 H 0.6556 0.3308 -0.1984
H61 H 0.6300 0.3595 -0.2309
C58 C 0.5944(5) 0.3649(11) -0.1665(8)
H62 H 0.5964 0.3877 -0.1980
H63 H 0.5960 0.3885 -0.1355
H64 H 0.5754 0.3465 -0.1667
C59 C 0.6169(10) 0.324(2) -0.1656(15)
H65 H 0.6041 0.2962 -0.1834
C60 C 0.6198(6) 0.2913(13) -0.1242(8)
H66 H 0.6311 0.3132 -0.0984
H67 H 0.6328 0.2607 -0.1354
C61 C 0.6259(5) 0.2726(7) -0.0159(9)
C62 C 0.5966(8) 0.2594(8) -0.0432(9)
F6 F 0.5552(2) 0.1132(3) 0.3569(5)
O13 O 0.7469(2) 0.3317(5) 0.2923(4)
N15 N 0.4738(3) 0.4420(4) 0.4088(6)
H68 H 0.4896 0.4383 0.3899
C63 C 0.6072(3) 0.5670(5) 0.2108(7)
H69 H 0.6253 0.5783 0.2252
C64 C 0.6315(7) 0.0853(7) 0.4313(10)
C65 C 0.3103(7) 0.1433(17) 0.1208(16)
H70 H 0.2891 0.1389 0.1196
H71 H 0.3174 0.1344 0.1559
H72 H 0.3193 0.1181 0.0954
C66 C 0.3073(8) 0.2127(18) 0.0550(18)
H73 H 0.3105 0.2494 0.0395
H74 H 0.3167 0.1844 0.0333
H75 H 0.2864 0.2051 0.0571
C67 C 0.3194(7) 0.2116(19) 0.1054(19)
H76 H 0.3160 0.2425 0.1307
C68 C 0.3541(6) 0.1949(13) 0.0842(14)
H77 H 0.3542 0.1607 0.0626
H78 H 0.3631 0.2257 0.0643
C69 C 0.4155(6) 0.1929(8) 0.0890(13)
H79 H 0.4083 0.1936 0.0543
C70 C 0.4001(6) 0.1891(8) 0.1338(13)
C71 C 0.4098(5) 0.1822(7) 0.1919(14)
C72 C 0.3961(6) 0.1746(8) 0.2390(12)
H80 H 0.3754 0.1729 0.2391
C73 C 0.4106(6) 0.1692(6) 0.2868(7)
H81 H 0.3982 0.1661 0.3163
C74 C 0.4431(9) 0.1674(12) 0.299(2)
C75 C 0.5142(4) 0.5088(6) 0.1112(8)
O14 O 0.3683(4) 0.1863(6) 0.1340(6)
C76 C 0.5801(3) 0.3973(5) 0.4245(6)
N16 N 0.4597(5) 0.1630(9) 0.3388(13)
H82 H 0.4786 0.1628 0.3339
O15 O 0.6356(3) 0.0846(5) 0.4818(7)
C77 C 0.4376(4) 0.4791(6) 0.0543(9)
H83 H 0.4273 0.4735 0.0226
C78 C 0.5418(3) 0.4095(5) 0.5551(7)
N17 N 0.6040(5) 0.0921(5) 0.4149(6)
H84 H 0.6019 0.0879 0.3811
O16 O 0.7165(3) 0.0020(7) 0.1232(7)
C79 C 0.4374(5) 0.4800(6) 0.1504(9)
C80 C 0.4299(3) 0.4659(6) 0.2968(9)
C81 C 0.4193(5) 0.4756(6) 0.2027(10)
O17 O 0.6730(2) -0.0062(4) 0.0802(6)
N18 N 0.6463(4) 0.0612(5) 0.3437(9)
C82 C 0.4203(3) 0.4569(5) 0.4049(7)
H85 H 0.4173 0.4545 0.4415
C83 C 0.3972(3) 0.4680(7) 0.3678(11)
H86 H 0.3781 0.4735 0.3811
C84 C 0.4780(3) 0.4390(5) 0.4633(9)
C85 C 0.4965(7) 0.1415(8) 0.5122(13)
C86 C 0.5084(3) 0.4274(5) 0.4805(6)
C87 C 0.5135(3) 0.4225(4) 0.5342(7)
H87 H 0.4978 0.4280 0.5577
C88 C 0.5168(4) 0.3936(7) 0.7396(6)
H88 H 0.5101 0.4322 0.7399
H89 H 0.5246 0.3838 0.7740
H90 H 0.5005 0.3690 0.7310
C89 C 0.5659(3) 0.4045(5) 0.5154(6)
C90 C 0.6151(3) 0.3824(5) 0.4913(7)
H91 H 0.6346 0.3758 0.5017
C91 C 0.5948(3) 0.3906(5) 0.5293(5)
H92 H 0.6000 0.3870 0.5650
C92 C 0.6087(3) 0.3832(5) 0.4366(6)
C93 C 0.5582(3) 0.4092(4) 0.4636(6)
C94 C 0.5234(5) 0.1304(6) 0.4861(14)
C95 C 0.6573(3) 0.3575(6) 0.3996(7)
C96 C 0.6715(3) 0.3457(5) 0.3467(7)
C97 C 0.7045(3) 0.3463(6) 0.3476(7)
H93 H 0.7152 0.3529 0.3786
C98 C 0.7130(4) 0.0317(8) 0.2306(11)
H94 H 0.7280 0.0265 0.2055
C99 C 0.6692(3) 0.3247(5) 0.2598(7)
C100 C 0.7061(5) 0.0690(9) 0.3761(11)
C101 C 0.6526(4) 0.3127(6) 0.2167(8)
C102 C 0.4411(5) 0.1919(8) 0.6701(9)
H95 H 0.4358 0.2294 0.6585
H96 H 0.4430 0.1915 0.7082
H97 H 0.4259 0.1657 0.6596
C103 C 0.6645(4) 0.2996(6) 0.1668(8)
C104 C 0.6989(5) 0.0571(8) 0.3243(15)
C105 C 0.7125(4) 0.3088(7) 0.2019(8)
H98 H 0.7329 0.3092 0.1961
C106 C 0.6950(4) 0.2965(6) 0.1631(7)
H99 H 0.7033 0.2849 0.1310
C107 C 0.7978(6) 0.0773(15) 0.4097(13)
H100 H 0.7993 0.0413 0.4273
H101 H 0.7908 0.0716 0.3739
H102 H 0.8169 0.0951 0.4088
C108 C 0.7670(3) 0.3514(10) 0.3354(6)
H103 H 0.7634 0.3299 0.3677
H104 H 0.7635 0.3911 0.3429
N19 N 0.6445(3) 0.2863(5) 0.1246(6)
H105 H 0.6264 0.2802 0.1340
C109 C 0.7007(3) 0.3225(6) 0.2572(6)
C110 C 0.7426(5) 0.0931(12) 0.4407(11)
H106 H 0.7396 0.0616 0.4650
H107 H 0.7303 0.1247 0.4519
C111 C 0.7990(5) 0.3429(19) 0.3173(8)
H108 H 0.8097 0.3677 0.3421
Cl1 Cl 0.37118(10) 0.0613(3) 0.5099(2)
Cl2 Cl 0.38152(17) 0.1760(4) 0.5302(4)
Cl3 Cl 0.3505(2) 0.1408(4) 0.4348(4)
C112 C 0.3791(5) 0.1288(9) 0.4808(10)
H109 H 0.3981 0.1269 0.4620
Cl4 Cl 0.70742(17) 0.5109(4) -0.0604(4)
Cl5 Cl 0.6952(2) 0.3932(4) -0.0780(6)
Cl6 Cl 0.65754(13) 0.4772(3) -0.1197(3)
C113 C 0.6793(4) 0.4584(11) -0.0732(8)
H110 H 0.6671 0.4572 -0.0409
loop_
_geom_bond_atom_site_label_1
_geom_bond_atom_site_label_2
_geom_bond_site_symmetry_1
_geom_bond_site_symmetry_2
C1 H1 1_555 1_555
O1 C60 1_555 1_555
N1 H2 1_555 1_555
C2 C1 1_555 1_555
H3 C2 1_555 1_555
O2 C49 1_555 1_555
N2 C86 1_555 1_555
C3 N14 1_555 1_555
O3 C51 1_555 1_555
N3 H4 1_555 1_555
C4 C9 1_555 1_555
F1 C46 1_555 1_555
C5 H5 1_555 1_555
H6 C5 1_555 1_555
H7 C5 1_555 1_555
C6 H8 1_555 1_555
H9 C6 1_555 1_555
C7 C6 1_555 1_555
H10 C7 1_555 1_555
C8 C7 1_555 1_555
H11 C8 1_555 1_555
H12 C8 1_555 1_555
H13 C8 1_555 1_555
O4 C75 1_555 1_555
N4 C32 1_555 1_555
C9 H14 1_555 1_555
H15 C9 1_555 1_555
H16 C9 1_555 1_555
F2 C53 1_555 1_555
N5 H17 1_555 1_555
C10 C5 1_555 1_555
H18 C10 1_555 1_555
O5 C56 1_555 1_555
N6 C96 1_555 1_555
C11 N5 1_555 1_555
C12 O13 1_555 1_555
C13 C17 1_555 1_555
C14 C16 1_555 1_555
C15 C24 1_555 1_555
C16 C25 1_555 1_555
C17 C11 1_555 1_555
C18 N5 1_555 1_555
C19 C14 1_555 1_555
C20 C28 1_555 1_555
F3 C76 1_555 1_555
O6 C81 1_555 1_555
N7 H19 1_555 1_555
C21 C4 1_555 1_555
H20 C21 1_555 1_555
H21 C21 1_555 1_555
H22 C21 1_555 1_555
C22 C34 1_555 1_555
C23 H23 1_555 1_555
C24 C26 1_555 1_555
C25 H24 1_555 1_555
C26 H25 1_555 1_555
C27 C23 1_555 1_555
H26 C27 1_555 1_555
H27 C27 1_555 1_555
H28 C27 1_555 1_555
C28 H29 1_555 1_555
H30 C28 1_555 1_555
H31 C28 1_555 1_555
C29 C23 1_555 1_555
H32 C29 1_555 1_555
H33 C29 1_555 1_555
C30 C20 1_555 1_555
H34 C30 1_555 1_555
H35 C30 1_555 1_555
H36 C30 1_555 1_555
C31 C25 1_555 1_555
H37 C31 1_555 1_555
C32 C1 1_555 1_555
C33 C35 1_555 1_555
O7 C15 1_555 1_555
N8 H38 1_555 1_555
C34 H39 1_555 1_555
O8 C29 1_555 1_555
N9 C54 1_555 1_555
C35 H40 1_555 1_555
C36 H41 1_555 1_555
O9 C100 1_555 1_555
N10 C19 1_555 1_555
C37 H42 1_555 1_555
C38 H43 1_555 1_555
N11 C47 1_555 1_555
F4 C101 1_555 1_555
O10 C84 1_555 1_555
N12 C33 1_555 1_555
C39 C4 1_555 1_555
H44 C39 1_555 1_555
H45 C39 1_555 1_555
H46 C39 1_555 1_555
C40 H47 1_555 1_555
H48 C40 1_555 1_555
H49 C40 1_555 1_555
C41 C20 1_555 1_555
H50 C41 1_555 1_555
H51 C41 1_555 1_555
H52 C41 1_555 1_555
C42 C43 1_555 1_555
C43 H53 1_555 1_555
C44 C43 1_555 1_555
H54 C44 1_555 1_555
C45 N8 1_555 1_555
C46 C45 1_555 1_555
C47 C42 1_555 1_555
C48 N11 1_555 1_555
C49 C48 1_555 1_555
C50 H55 1_555 1_555
H56 C50 1_555 1_555
H57 C50 1_555 1_555
C51 N3 1_555 1_555
O11 C6 1_555 1_555
N13 H58 1_555 1_555
F5 C17 1_555 1_555
O12 C95 1_555 1_555
N14 C80 1_555 1_555
C52 N3 1_555 1_555
C53 C54 1_555 1_555
C54 C71 1_555 1_555
C55 N9 1_555 1_555
C56 N8 1_555 1_555
C57 H59 1_555 1_555
H60 C57 1_555 1_555
H61 C57 1_555 1_555
C58 H62 1_555 1_555
H63 C58 1_555 1_555
H64 C58 1_555 1_555
C59 C57 1_555 1_555
H65 C59 1_555 1_555
C60 C59 1_555 1_555
H66 C60 1_555 1_555
H67 C60 1_555 1_555
C61 C48 1_555 1_555
C62 O1 1_555 1_555
F6 C14 1_555 1_555
O13 C108 1_555 1_555
N15 C3 1_555 1_555
H68 N15 1_555 1_555
C63 C2 1_555 1_555
H69 C63 1_555 1_555
C64 C22 1_555 1_555
C65 H70 1_555 1_555
H71 C65 1_555 1_555
H72 C65 1_555 1_555
C66 H73 1_555 1_555
H74 C66 1_555 1_555
H75 C66 1_555 1_555
C67 C65 1_555 1_555
H76 C67 1_555 1_555
C68 C67 1_555 1_555
H77 C68 1_555 1_555
H78 C68 1_555 1_555
C69 C55 1_555 1_555
H79 C69 1_555 1_555
C70 C69 1_555 1_555
C71 C70 1_555 1_555
C72 C71 1_555 1_555
H80 C72 1_555 1_555
C73 C72 1_555 1_555
H81 C73 1_555 1_555
C74 C53 1_555 1_555
C75 N7 1_555 1_555
O14 C68 1_555 1_555
C76 C92 1_555 1_555
N16 C15 1_555 1_555
H82 N16 1_555 1_555
O15 C64 1_555 1_555
C77 C35 1_555 1_555
H83 C77 1_555 1_555
C78 O11 1_555 1_555
N17 C16 1_555 1_555
H84 N17 1_555 1_555
O16 C18 1_555 1_555
C79 C36 1_555 1_555
C80 C38 1_555 1_555
C81 N13 1_555 1_555
O17 C18 1_555 1_555
N18 C13 1_555 1_555
C82 C3 1_555 1_555
H85 C82 1_555 1_555
C83 C38 1_555 1_555
H86 C83 1_555 1_555
C84 N15 1_555 1_555
C85 C26 1_555 1_555
C86 C84 1_555 1_555
C87 C78 1_555 1_555
H87 C87 1_555 1_555
C88 C7 1_555 1_555
H88 C88 1_555 1_555
H89 C88 1_555 1_555
H90 C88 1_555 1_555
C89 C78 1_555 1_555
C90 H91 1_555 1_555
C91 C89 1_555 1_555
H92 C91 1_555 1_555
C92 N1 1_555 1_555
C93 N2 1_555 1_555
C94 C19 1_555 1_555
C95 N1 1_555 1_555
C96 C95 1_555 1_555
C97 C12 1_555 1_555
H93 C97 1_555 1_555
C98 C11 1_555 1_555
H94 C98 1_555 1_555
C99 N6 1_555 1_555
C100 C34 1_555 1_555
C101 C99 1_555 1_555
C102 C23 1_555 1_555
H95 C102 1_555 1_555
H96 C102 1_555 1_555
H97 C102 1_555 1_555
C103 C101 1_555 1_555
C104 C13 1_555 1_555
C105 H98 1_555 1_555
C106 C103 1_555 1_555
H99 C106 1_555 1_555
C107 C10 1_555 1_555
H100 C107 1_555 1_555
H101 C107 1_555 1_555
H102 C107 1_555 1_555
C108 H103 1_555 1_555
H104 C108 1_555 1_555
N19 C49 1_555 1_555
H105 N19 1_555 1_555
C109 C12 1_555 1_555
C110 C10 1_555 1_555
H106 C110 1_555 1_555
H107 C110 1_555 1_555
C111 C40 1_555 1_555
H108 C111 1_555 1_555
Cl1 C112 1_555 1_555
Cl2 C112 1_555 1_555
Cl3 C112 1_555 1_555
C112 H109 1_555 1_555
Cl4 C113 1_555 1_555
Cl5 C113 1_555 1_555
Cl6 C113 1_555 1_555
C113 H110 1_555 1_555
C4 C51 1_555 1_555
N4 C52 1_555 1_555
C20 O17 1_555 1_555
N7 C32 1_555 1_555
C22 N18 1_555 1_555
C24 N10 1_555 1_555
C31 C94 1_555 1_555
C33 C75 1_555 1_555
O8 C85 1_555 1_555
C36 C77 1_555 1_555
O9 C110 1_555 1_555
C37 C98 1_555 1_555
C37 C104 1_555 1_555
N12 C79 1_555 1_555
C42 C62 1_555 1_555
C44 C45 1_555 1_555
C46 C47 1_555 1_555
C50 C111 1_555 1_555
N13 C80 1_555 1_555
C52 C63 1_555 1_555
C55 C56 1_555 1_555
C58 C59 1_555 1_555
C61 C62 1_555 1_555
C64 N17 1_555 1_555
C66 C67 1_555 1_555
C70 O14 1_555 1_555
C73 C74 1_555 1_555
C74 N16 1_555 1_555
C76 C93 1_555 1_555
C79 C81 1_555 1_555
C82 C83 1_555 1_555
C85 C94 1_555 1_555
C86 C87 1_555 1_555
C89 C93 1_555 1_555
C90 C91 1_555 1_555
C90 C92 1_555 1_555
C96 C97 1_555 1_555
C99 C109 1_555 1_555
C100 C104 1_555 1_555
C103 N19 1_555 1_555
C105 C106 1_555 1_555
C105 C109 1_555 1_555
C108 C111 1_555 1_555

#END
