
#######################################################################
#
#                 Cambridge Crystallographic Data Centre
#                                CCDC 
#
#######################################################################
#
# If this CIF has been generated from an entry in the Cambridge 
# Structural Database, then it will include bibliographic, chemical, 
# crystal, experimental, refinement or atomic coordinate data resulting 
# from the CCDC's data processing and validation procedures.
#
#######################################################################

data_FABPOO
_chemical_formula_moiety         'Cl1 O4 1-,C12 H28 N7 O3 1+'
_chemical_name_systematic        
'tris(2-(Methylureido)ethyl)ammonium perchlorate'
_symmetry_cell_setting           monoclinic
_symmetry_space_group_name_H-M   'P 21/n'
_symmetry_Int_Tables_number      14
_space_group_name_Hall           '-P 2yn'
loop_
_symmetry_equiv_pos_site_id
_symmetry_equiv_pos_as_xyz
1 x,y,z
2 1/2-x,1/2+y,1/2-z
3 -x,-y,-z
4 1/2+x,1/2-y,1/2+z
_cell_length_a                   7.554(4)
_cell_length_b                   10.523(6)
_cell_length_c                   24.70(1)
_cell_angle_alpha                90
_cell_angle_beta                 90.78(4)
_cell_angle_gamma                90
_cell_volume                     1963.24
_exptl_crystal_colour            colorless
_cell_formula_units_Z            4
_exptl_crystal_recrystallization_method 'diethyl ether/methanol'
loop_
_atom_site_label
_atom_site_type_symbol
_atom_site_fract_x
_atom_site_fract_y
_atom_site_fract_z
Cl1 Cl 0.30189(13) 0.34578(10) 0.16505(4)
O4 O 0.3806(8) 0.2867(4) 0.20825(18)
O5 O 0.1399(4) 0.2885(3) 0.15071(15)
O6 O 0.2745(5) 0.4752(3) 0.17934(17)
O7 O 0.4133(5) 0.3423(6) 0.12075(18)
O1 O -0.1355(3) 0.6941(3) 0.19308(11)
O2 O 0.2615(4) 0.9135(3) 0.07817(10)
O3 O -0.2371(4) 0.8370(3) 0.08075(9)
N1 N -0.3254(4) 0.5676(3) 0.14747(15)
N2 N -0.4253(4) 0.7431(3) 0.19198(13)
N3 N -0.2271(3) 0.9952(3) 0.16559(11)
N4 N 0.1331(4) 0.8597(3) 0.15687(12)
N5 N 0.2290(4) 0.7063(3) 0.09914(13)
N6 N -0.2657(5) 1.0247(3) 0.03633(13)
N7 N -0.1943(5) 0.8434(4) -0.00911(12)
C1 C -0.2859(5) 0.6698(4) 0.17778(14)
C2 C 0.2077(4) 0.8318(3) 0.10943(14)
C3 C -0.2332(5) 0.8987(4) 0.03788(14)
C4 C -0.4053(5) 0.8516(4) 0.22686(15)
C5 C -0.3920(5) 0.9773(4) 0.19781(15)
C6 C -0.0669(5) 1.0080(4) 0.20196(14)
C7 C 0.1058(5) 0.9899(4) 0.17406(17)
C8 C -0.2463(5) 1.1111(4) 0.12990(16)
C9 C -0.3577(5) 1.0869(4) 0.07935(17)
C10 C -0.1925(7) 0.4889(5) 0.12477(22)
C11 C 0.3186(7) 0.6630(5) 0.05166(19)
C12 C -0.1458(8) 0.7140(6) -0.01194(18)
H1 H -0.43900 0.54500 0.14200
H2 H -0.52800 0.72500 0.17500
H3 H -0.22100 0.93000 0.14200
H4 H 0.07400 0.80000 0.17500
H5 H 0.18800 0.65000 0.12300
H6 H -0.26600 1.06200 0.00400
H7 H -0.20900 0.88600 -0.04000
H8 H -0.50300 0.85500 0.25200
H9 H -0.29900 0.84200 0.24900
H10 H -0.39900 1.04500 0.22400
H11 H -0.49300 0.98500 0.17400
H12 H -0.06900 1.09000 0.21900
H13 H -0.07500 0.94500 0.23000
H14 H 0.20300 1.01600 0.19700
H15 H 0.10800 1.04500 0.14200
H16 H -0.29700 1.17900 0.15000
H17 H -0.13100 1.13800 0.11800
H18 H -0.40600 1.16600 0.06700
H19 H -0.45700 1.03500 0.09000
H20 H -0.24200 0.42000 0.10400
H21 H -0.11500 0.53500 0.10100
H22 H -0.11700 0.45100 0.15200
H23 H 0.32300 0.57200 0.05000
H24 H 0.26000 0.69200 0.01900
H25 H 0.43900 0.69400 0.05000
H26 H -0.12500 0.68500 -0.04800
H27 H -0.04300 0.69400 0.01000
H28 H -0.24100 0.65700 0.00200
loop_
_geom_bond_atom_site_label_1
_geom_bond_atom_site_label_2
_geom_bond_site_symmetry_1
_geom_bond_site_symmetry_2
Cl1 O4 1_555 1_555
O1 C1 1_555 1_555
O2 C2 1_555 1_555
O3 C3 1_555 1_555
O5 Cl1 1_555 1_555
O6 Cl1 1_555 1_555
O7 Cl1 1_555 1_555
N1 C1 1_555 1_555
N2 C1 1_555 1_555
N3 C5 1_555 1_555
N4 C2 1_555 1_555
N5 C2 1_555 1_555
N6 C3 1_555 1_555
N7 C3 1_555 1_555
C4 N2 1_555 1_555
C5 C4 1_555 1_555
C6 N3 1_555 1_555
C7 N4 1_555 1_555
C8 N3 1_555 1_555
C9 N6 1_555 1_555
C10 N1 1_555 1_555
C11 N5 1_555 1_555
C12 N7 1_555 1_555
H1 N1 1_555 1_555
H2 N2 1_555 1_555
H3 N3 1_555 1_555
H4 N4 1_555 1_555
H5 N5 1_555 1_555
H6 N6 1_555 1_555
H7 N7 1_555 1_555
H8 C4 1_555 1_555
H9 C4 1_555 1_555
H10 C5 1_555 1_555
H11 C5 1_555 1_555
H12 C6 1_555 1_555
H13 C6 1_555 1_555
H14 C7 1_555 1_555
H15 C7 1_555 1_555
H16 C8 1_555 1_555
H17 C8 1_555 1_555
H18 C9 1_555 1_555
H19 C9 1_555 1_555
H20 C10 1_555 1_555
H21 C10 1_555 1_555
H22 C10 1_555 1_555
H23 C11 1_555 1_555
H24 C11 1_555 1_555
H25 C11 1_555 1_555
H26 C12 1_555 1_555
H27 C12 1_555 1_555
H28 C12 1_555 1_555
C6 C7 1_555 1_555
C8 C9 1_555 1_555

#END
