
#######################################################################
#
#                 Cambridge Crystallographic Data Centre
#                                CCDC 
#
#######################################################################
#
# If this CIF has been generated from an entry in the Cambridge 
# Structural Database, then it will include bibliographic, chemical, 
# crystal, experimental, refinement or atomic coordinate data resulting 
# from the CCDC's data processing and validation procedures.
#
#######################################################################

data_FABPUU
_chemical_formula_moiety         'C12 H27 N7 O3'
_chemical_name_systematic        tris(2-(Methylureido)ethyl)amine
_symmetry_cell_setting           monoclinic
_symmetry_space_group_name_H-M   'C 2/c'
_symmetry_Int_Tables_number      15
_space_group_name_Hall           '-C 2yn'
loop_
_symmetry_equiv_pos_site_id
_symmetry_equiv_pos_as_xyz
1 x,y,z
2 -x,y,1/2-z
3 1/2+x,1/2+y,z
4 1/2-x,1/2+y,1/2-z
5 -x,-y,-z
6 x,-y,1/2+z
7 1/2-x,1/2-y,-z
8 1/2+x,1/2-y,1/2+z
_cell_length_a                   25.014(6)
_cell_length_b                   10.6033(20)
_cell_length_c                   15.267(4)
_cell_angle_alpha                90
_cell_angle_beta                 119.97(2)
_cell_angle_gamma                90
_cell_volume                     3507.84
_exptl_crystal_colour            colorless
_chemical_melting_point          '116-118 deg.C'
_cell_formula_units_Z            8
_exptl_crystal_recrystallization_method 'diethyl ether/methanol/water'
loop_
_atom_site_label
_atom_site_type_symbol
_atom_site_fract_x
_atom_site_fract_y
_atom_site_fract_z
N1 N 0.13786(13) 0.5614(3) 0.32775(24)
N2 N 0.27267(13) 0.5838(3) 0.45416(24)
N3 N 0.35953(15) 0.5049(4) 0.5893(3)
N4 N 0.08354(14) 0.2649(3) 0.1744(3)
N5 N 0.02060(13) 0.1736(3) 0.0224(3)
N6 N 0.11754(18) 0.4873(5) 0.4965(3)
N7 N 0.17401(12) 0.3117(5) 0.5643(3)
C1 C 0.17445(19) 0.6681(4) 0.3264(3)
C2 C 0.23878(18) 0.6338(4) 0.3530(3)
C3 C 0.33275(17) 0.5533(4) 0.4959(3)
C4 C 0.42378(19) 0.4768(5) 0.6457(3)
C5 C 0.11569(18) 0.4808(5) 0.2392(3)
C6 C 0.09844(19) 0.3509(5) 0.2568(3)
C7 C 0.02627(18) 0.2558(4) 0.0928(3)
C8 C -0.03596(19) 0.1623(5) -0.0719(3)
C9 C 0.08760(18) 0.6058(5) 0.3434(4)
C10 C 0.10695(20) 0.6108(6) 0.4538(4)
C11 C 0.17366(23) 0.4361(6) 0.5488(3)
C12 C 0.2290(3) 0.2415(6) 0.6148(4)
O1 O 0.36155(11) 0.5703(3) 0.45038(20)
O2 O -0.01705(12) 0.3163(3) 0.08650(21)
O3 O 0.22202(12) 0.4980(3) 0.58188(20)
H1 H 0.25100 0.57400 0.49200
H2 H 0.33400 0.48800 0.62100
H3 H 0.11600 0.21200 0.17700
H4 H 0.05400 0.11800 0.03500
H5 H 0.08100 0.44200 0.48700
H6 H 0.13700 0.26400 0.54200
H7 H 0.15400 0.70900 0.26100
H8 H 0.17800 0.73100 0.37500
H9 H 0.26000 0.70400 0.34500
H10 H 0.23700 0.56900 0.30500
H11 H 0.43600 0.44200 0.71300
H12 H 0.43500 0.41500 0.61200
H13 H 0.44900 0.55000 0.65700
H14 H 0.08100 0.51900 0.18200
H15 H 0.14800 0.47100 0.22100
H16 H 0.06200 0.35900 0.26600
H17 H 0.13100 0.31800 0.32000
H18 H -0.03400 0.09900 -0.11600
H19 H -0.07000 0.14200 -0.06400
H20 H -0.04600 0.24200 -0.11000
H21 H 0.07400 0.68900 0.31000
H22 H 0.05200 0.55100 0.30900
H23 H 0.07600 0.65900 0.46200
H24 H 0.14400 0.66300 0.48800
H25 H 0.22600 0.15100 0.62300
H26 H 0.25500 0.24600 0.58200
H27 H 0.25800 0.27100 0.68500
loop_
_geom_bond_atom_site_label_1
_geom_bond_atom_site_label_2
_geom_bond_site_symmetry_1
_geom_bond_site_symmetry_2
N1 C1 1_555 1_555
N2 C2 1_555 1_555
N3 C3 1_555 1_555
N4 C6 1_555 1_555
N5 C7 1_555 1_555
N6 C10 1_555 1_555
N7 C11 1_555 1_555
C1 C2 1_555 1_555
C2 H9 1_555 1_555
C3 N2 1_555 1_555
C4 N3 1_555 1_555
C5 N1 1_555 1_555
C6 C5 1_555 1_555
C7 N4 1_555 1_555
C8 N5 1_555 1_555
C9 N1 1_555 1_555
C10 C9 1_555 1_555
C11 N6 1_555 1_555
C12 N7 1_555 1_555
O1 C3 1_555 1_555
O2 C7 1_555 1_555
O3 C11 1_555 1_555
H1 N2 1_555 1_555
H2 N3 1_555 1_555
H3 N4 1_555 1_555
H4 N5 1_555 1_555
H5 N6 1_555 1_555
H6 N7 1_555 1_555
H7 C1 1_555 1_555
H8 C1 1_555 1_555
H10 C2 1_555 1_555
H11 C4 1_555 1_555
H12 C4 1_555 1_555
H13 C4 1_555 1_555
H14 C5 1_555 1_555
H15 C5 1_555 1_555
H16 C6 1_555 1_555
H17 C6 1_555 1_555
H18 C8 1_555 1_555
H19 C8 1_555 1_555
H20 C8 1_555 1_555
H21 C9 1_555 1_555
H22 C9 1_555 1_555
H23 C10 1_555 1_555
H24 C10 1_555 1_555
H25 C12 1_555 1_555
H26 C12 1_555 1_555
H27 C12 1_555 1_555

#END
