
#######################################################################
#
#                 Cambridge Crystallographic Data Centre
#                                CCDC 
#
#######################################################################
#
# If this CIF has been generated from an entry in the Cambridge 
# Structural Database, then it will include bibliographic, chemical, 
# crystal, experimental, refinement or atomic coordinate data resulting 
# from the CCDC's data processing and validation procedures.
#
#######################################################################

data_FABQUX
_chemical_formula_moiety         'C86 H84 O2,2(C7 H8)'
_chemical_name_systematic        
'7,17-bis(Hexyloxy)-5,9,15,19-tetramesitylbenzo[pqr]fluoreno[3,2-c]indeno[1,2-l]tetraphene toluene solvate'
_symmetry_cell_setting           monoclinic
_symmetry_space_group_name_H-M   'P 21/c'
_symmetry_Int_Tables_number      14
_space_group_name_Hall           '-P 2ybc'
loop_
_symmetry_equiv_pos_site_id
_symmetry_equiv_pos_as_xyz
1 x,y,z
2 -x,1/2+y,1/2-z
3 -x,-y,-z
4 x,1/2-y,1/2+z
_cell_length_a                   9.2447(4)
_cell_length_b                   27.6365(10)
_cell_length_c                   14.8907(5)
_cell_angle_alpha                90
_cell_angle_beta                 98.658(3)
_cell_angle_gamma                90
_cell_volume                     3761.09
_exptl_crystal_colour            black
_exptl_crystal_description       'prism frag'
_cell_formula_units_Z            2
loop_
_atom_site_label
_atom_site_type_symbol
_atom_site_fract_x
_atom_site_fract_y
_atom_site_fract_z
O1 O 0.26760(16) 0.56049(5) 0.16500(9)
C1 C 0.3171(2) 0.48315(7) 0.10516(13)
H1 H 0.2516 0.4688 0.1408
C2 C 0.3346(2) 0.53241(7) 0.10792(13)
C3 C 0.4242(2) 0.55648(7) 0.05130(13)
C4 C 0.4369(2) 0.60862(7) 0.04412(13)
C5 C 0.3444(2) 0.64154(7) 0.07850(13)
H2 H 0.2705 0.6298 0.1107
C6 C 0.3583(2) 0.69165(7) 0.06649(13)
C7 C 0.2716(2) 0.73007(7) 0.08865(13)
C8 C 0.1379(2) 0.72534(7) 0.13200(13)
C9 C 0.1485(2) 0.70894(7) 0.22245(13)
C10 C 0.0212(3) 0.70318(8) 0.26044(14)
H3 H 0.0281 0.6912 0.3207
C11 C -0.1157(2) 0.71435(8) 0.21317(14)
C12 C -0.1228(2) 0.73184(8) 0.12508(14)
H4 H -0.2155 0.7405 0.0923
C13 C 0.0008(2) 0.73712(7) 0.08340(13)
C14 C 0.3345(2) 0.77458(7) 0.05948(13)
C15 C 0.2909(2) 0.82263(7) 0.06394(13)
H5 H 0.2065 0.8308 0.0902
C16 C 0.3724(2) 0.85842(8) 0.02951(14)
H6 H 0.3424 0.8912 0.0315
C17 C 0.4971(2) 0.84704(8) -0.00776(14)
H7 H 0.5522 0.8722 -0.0301
C18 C 0.5423(2) 0.79910(7) -0.01275(14)
H8 H 0.6276 0.7914 -0.0383
C19 C 0.4611(2) 0.76308(7) 0.02006(13)
C20 C 0.4754(2) 0.71044(7) 0.02236(13)
C21 C 0.5675(2) 0.67970(7) -0.01137(13)
H9 H 0.6454 0.6922 -0.0394
C22 C 0.5485(2) 0.62819(7) -0.00517(13)
C23 C 0.6338(2) 0.59770(7) -0.04957(13)
C24 C 0.6079(2) 0.54700(7) -0.05166(13)
C25 C 0.5066(2) 0.52580(7) 0.00025(13)
C26 C 0.1914(2) 0.53649(8) 0.22967(13)
H10 H 0.2575 0.5135 0.2667
H11 H 0.1068 0.5182 0.1977
C27 C 0.1395(3) 0.57482(8) 0.28979(14)
H12 H 0.0665 0.5958 0.2530
H13 H 0.2234 0.5953 0.3157
C28 C 0.0713(3) 0.55200(8) 0.36670(14)
H14 H -0.0049 0.5287 0.3405
H15 H 0.1476 0.5337 0.4066
C29 C 0.0029(3) 0.58879(8) 0.42374(14)
H16 H 0.0770 0.6136 0.4460
H17 H -0.0787 0.6053 0.3849
C30 C -0.0543(3) 0.56636(9) 0.50424(15)
H18 H 0.0256 0.5477 0.5403
H19 H -0.1334 0.5433 0.4815
C31 C -0.1128(3) 0.60267(10) 0.56597(17)
H20 H -0.0330 0.6238 0.5934
H21 H -0.1536 0.5855 0.6140
H22 H -0.1894 0.6222 0.5305
C32 C 0.7575(2) 0.61736(7) -0.09329(13)
C33 C 0.7345(2) 0.63804(7) -0.18016(14)
C34 C 0.8548(3) 0.65505(8) -0.21724(14)
H23 H 0.8392 0.6697 -0.2756
C35 C 0.9958(3) 0.65120(8) -0.17145(14)
C36 C 1.0160(2) 0.63072(8) -0.08536(14)
H24 H 1.1124 0.6280 -0.0530
C37 C 0.8993(2) 0.61402(7) -0.04507(14)
C38 C 0.2952(2) 0.69987(8) 0.27947(14)
H25 H 0.2814 0.6933 0.3423
H26 H 0.3574 0.7285 0.2778
H27 H 0.3420 0.6719 0.2553
C39 C -0.2537(3) 0.70848(10) 0.25581(16)
H28 H -0.2777 0.7393 0.2826
H29 H -0.2378 0.6837 0.3033
H30 H -0.3346 0.6987 0.2091
C40 C -0.0175(3) 0.75457(8) -0.01385(14)
H31 H -0.1067 0.7406 -0.0479
H32 H 0.0672 0.7445 -0.0417
H33 H -0.0250 0.7899 -0.0151
C41 C 0.5826(3) 0.64274(9) -0.23316(16)
H34 H 0.5268 0.6664 -0.2034
H35 H 0.5333 0.6113 -0.2354
H36 H 0.5893 0.6536 -0.2951
C42 C 1.1261(3) 0.66861(9) -0.21235(17)
H37 H 1.1713 0.6412 -0.2392
H38 H 1.1975 0.6833 -0.1649
H39 H 1.0942 0.6927 -0.2595
C43 C 0.9269(3) 0.59351(9) 0.04954(15)
H40 H 1.0326 0.5911 0.0697
H41 H 0.8827 0.5613 0.0498
H42 H 0.8835 0.6148 0.0908
O1B O 0.73240(16) 0.43951(5) -0.16500(9)
C1B C 0.6829(2) 0.51685(7) -0.10516(13)
H1B H 0.7484 0.5312 -0.1408
C2B C 0.6654(2) 0.46759(7) -0.10792(13)
C3B C 0.5758(2) 0.44352(7) -0.05130(13)
C4B C 0.5631(2) 0.39138(7) -0.04412(13)
C5B C 0.6556(2) 0.35846(7) -0.07850(13)
H2B H 0.7295 0.3702 -0.1107
C6B C 0.6417(2) 0.30835(7) -0.06649(13)
C7B C 0.7284(2) 0.26993(7) -0.08865(13)
C8B C 0.8621(2) 0.27466(7) -0.13200(13)
C9B C 0.8515(2) 0.29106(7) -0.22245(13)
C10B C 0.9788(3) 0.29682(8) -0.26044(14)
H3B H 0.9719 0.3088 -0.3207
C11B C 1.1157(2) 0.28565(8) -0.21317(14)
C12B C 1.1228(2) 0.26816(8) -0.12508(14)
H4B H 1.2155 0.2595 -0.0923
C13B C 0.9992(2) 0.26288(7) -0.08340(13)
C14B C 0.6655(2) 0.22542(7) -0.05948(13)
C15B C 0.7091(2) 0.17737(7) -0.06394(13)
H5B H 0.7935 0.1692 -0.0902
C16B C 0.6276(2) 0.14158(8) -0.02951(14)
H6B H 0.6576 0.1088 -0.0315
C17B C 0.5029(2) 0.15296(8) 0.00776(14)
H7B H 0.4478 0.1278 0.0301
C18B C 0.4577(2) 0.20090(7) 0.01275(14)
H8B H 0.3724 0.2086 0.0383
C19B C 0.5389(2) 0.23692(7) -0.02006(13)
C20B C 0.5246(2) 0.28956(7) -0.02236(13)
C21B C 0.4325(2) 0.32030(7) 0.01137(13)
H9B H 0.3546 0.3078 0.0394
C22B C 0.4515(2) 0.37181(7) 0.00517(13)
C23B C 0.3662(2) 0.40230(7) 0.04957(13)
C24B C 0.3921(2) 0.45300(7) 0.05166(13)
C25B C 0.4934(2) 0.47420(7) -0.00025(13)
C26B C 0.8086(2) 0.46351(8) -0.22967(13)
H10B H 0.7425 0.4865 -0.2667
H11B H 0.8932 0.4818 -0.1977
C27B C 0.8605(3) 0.42518(8) -0.28979(14)
H12B H 0.9335 0.4042 -0.2530
H13B H 0.7766 0.4047 -0.3157
C28B C 0.9287(3) 0.44800(8) -0.36670(14)
H14B H 1.0049 0.4713 -0.3405
H15B H 0.8524 0.4663 -0.4066
C29B C 0.9971(3) 0.41121(8) -0.42374(14)
H16B H 0.9230 0.3864 -0.4460
H17B H 1.0787 0.3947 -0.3849
C30B C 1.0543(3) 0.43364(9) -0.50424(15)
H18B H 0.9744 0.4523 -0.5403
H19B H 1.1334 0.4567 -0.4815
C31B C 1.1128(3) 0.39733(10) -0.56597(17)
H20B H 1.0330 0.3762 -0.5934
H21B H 1.1536 0.4145 -0.6140
H22B H 1.1894 0.3778 -0.5305
C32B C 0.2425(2) 0.38264(7) 0.09329(13)
C33B C 0.2655(2) 0.36196(7) 0.18016(14)
C34B C 0.1452(3) 0.34495(8) 0.21724(14)
H23B H 0.1608 0.3303 0.2756
C35B C 0.0042(3) 0.34880(8) 0.17145(14)
C36B C -0.0160(2) 0.36928(8) 0.08536(14)
H24B H -0.1124 0.3720 0.0530
C37B C 0.1007(2) 0.38598(7) 0.04507(14)
C38B C 0.7048(2) 0.30013(8) -0.27947(14)
H25B H 0.7186 0.3067 -0.3423
H26B H 0.6426 0.2715 -0.2778
H27B H 0.6580 0.3281 -0.2553
C39B C 1.2537(3) 0.29152(10) -0.25581(16)
H28B H 1.2777 0.2607 -0.2826
H29B H 1.2378 0.3163 -0.3033
H30B H 1.3346 0.3013 -0.2091
C40B C 1.0175(3) 0.24543(8) 0.01385(14)
H31B H 1.1067 0.2594 0.0479
H32B H 0.9328 0.2555 0.0417
H33B H 1.0250 0.2101 0.0151
C41B C 0.4174(3) 0.35726(9) 0.23316(16)
H34B H 0.4732 0.3336 0.2034
H35B H 0.4667 0.3887 0.2354
H36B H 0.4107 0.3464 0.2951
C42B C -0.1261(3) 0.33139(9) 0.21235(17)
H37B H -0.1713 0.3588 0.2392
H38B H -0.1975 0.3167 0.1649
H39B H -0.0942 0.3073 0.2595
C43B C 0.0731(3) 0.40649(9) -0.04954(15)
H40B H -0.0326 0.4089 -0.0697
H41B H 0.1173 0.4387 -0.0498
H42B H 0.1165 0.3852 -0.0908
C44 C 0.5371(3) 0.53635(10) 0.36613(18)
H43 H 0.4788 0.5510 0.4059
C45 C 0.5900(3) 0.56359(10) 0.30043(18)
H44 H 0.5683 0.5972 0.2951
C46 C 0.6745(3) 0.54222(9) 0.24237(17)
H45 H 0.7107 0.5613 0.1976
C47 C 0.7071(3) 0.49325(9) 0.24855(16)
C48 C 0.6548(3) 0.46684(9) 0.31530(17)
H46 H 0.6779 0.4334 0.3216
C49 C 0.5695(3) 0.48789(10) 0.37344(18)
H47 H 0.5334 0.4688 0.4183
C50 C 0.7966(3) 0.46907(10) 0.18460(17)
H48 H 0.8863 0.4558 0.2193
H49 H 0.8220 0.4928 0.1407
H50 H 0.7396 0.4428 0.1522
loop_
_geom_bond_atom_site_label_1
_geom_bond_atom_site_label_2
_geom_bond_site_symmetry_1
_geom_bond_site_symmetry_2
O1 C2 1_555 1_555
C1 H1 1_555 1_555
C2 C1 1_555 1_555
C3 C2 1_555 1_555
C4 C3 1_555 1_555
C5 C4 1_555 1_555
H2 C5 1_555 1_555
C6 C5 1_555 1_555
C7 C6 1_555 1_555
C8 C7 1_555 1_555
C9 C8 1_555 1_555
C10 C9 1_555 1_555
H3 C10 1_555 1_555
C11 C10 1_555 1_555
C12 C11 1_555 1_555
H4 C12 1_555 1_555
C13 C8 1_555 1_555
C14 C7 1_555 1_555
C15 C14 1_555 1_555
H5 C15 1_555 1_555
C16 C15 1_555 1_555
H6 C16 1_555 1_555
C17 C16 1_555 1_555
H7 C17 1_555 1_555
C18 C17 1_555 1_555
H8 C18 1_555 1_555
C19 C14 1_555 1_555
C20 C6 1_555 1_555
C21 C20 1_555 1_555
H9 C21 1_555 1_555
C22 C4 1_555 1_555
C23 C22 1_555 1_555
C24 C23 1_555 1_555
C25 C3 1_555 1_555
C26 O1 1_555 1_555
H10 C26 1_555 1_555
H11 C26 1_555 1_555
C27 C26 1_555 1_555
H12 C27 1_555 1_555
H13 C27 1_555 1_555
C28 C27 1_555 1_555
H14 C28 1_555 1_555
H15 C28 1_555 1_555
C29 C28 1_555 1_555
H16 C29 1_555 1_555
H17 C29 1_555 1_555
C30 C29 1_555 1_555
H18 C30 1_555 1_555
H19 C30 1_555 1_555
C31 C30 1_555 1_555
H20 C31 1_555 1_555
H21 C31 1_555 1_555
H22 C31 1_555 1_555
C32 C23 1_555 1_555
C33 C32 1_555 1_555
C34 C33 1_555 1_555
H23 C34 1_555 1_555
C35 C34 1_555 1_555
C36 C35 1_555 1_555
H24 C36 1_555 1_555
C37 C32 1_555 1_555
C38 C9 1_555 1_555
H25 C38 1_555 1_555
H26 C38 1_555 1_555
H27 C38 1_555 1_555
C39 C11 1_555 1_555
H28 C39 1_555 1_555
H29 C39 1_555 1_555
H30 C39 1_555 1_555
C40 C13 1_555 1_555
H31 C40 1_555 1_555
H32 C40 1_555 1_555
H33 C40 1_555 1_555
C41 C33 1_555 1_555
H34 C41 1_555 1_555
H35 C41 1_555 1_555
H36 C41 1_555 1_555
C42 C35 1_555 1_555
H37 C42 1_555 1_555
H38 C42 1_555 1_555
H39 C42 1_555 1_555
C43 C37 1_555 1_555
H40 C43 1_555 1_555
H41 C43 1_555 1_555
H42 C43 1_555 1_555
C44 H43 1_555 1_555
C45 C44 1_555 1_555
H44 C45 1_555 1_555
C46 C45 1_555 1_555
H45 C46 1_555 1_555
C47 C46 1_555 1_555
C48 C47 1_555 1_555
H46 C48 1_555 1_555
C49 C44 1_555 1_555
H47 C49 1_555 1_555
C50 C47 1_555 1_555
H48 C50 1_555 1_555
H49 C50 1_555 1_555
H50 C50 1_555 1_555
O1B C2B 1_555 1_555
C1B C24 1_555 1_555
H1B C1B 1_555 1_555
C2B C1B 1_555 1_555
C3B C2B 1_555 1_555
C4B C3B 1_555 1_555
C5B C4B 1_555 1_555
H2B C5B 1_555 1_555
C6B C5B 1_555 1_555
C7B C6B 1_555 1_555
C8B C7B 1_555 1_555
C9B C8B 1_555 1_555
C10B C9B 1_555 1_555
H3B C10B 1_555 1_555
C11B C10B 1_555 1_555
C12B C11B 1_555 1_555
H4B C12B 1_555 1_555
C13B C8B 1_555 1_555
C14B C7B 1_555 1_555
C15B C14B 1_555 1_555
H5B C15B 1_555 1_555
C16B C15B 1_555 1_555
H6B C16B 1_555 1_555
C17B C16B 1_555 1_555
H7B C17B 1_555 1_555
C18B C17B 1_555 1_555
H8B C18B 1_555 1_555
C19B C14B 1_555 1_555
C20B C6B 1_555 1_555
C21B C20B 1_555 1_555
H9B C21B 1_555 1_555
C22B C4B 1_555 1_555
C23B C22B 1_555 1_555
C24B C1 1_555 1_555
C25B C25 1_555 1_555
C26B O1B 1_555 1_555
H10B C26B 1_555 1_555
H11B C26B 1_555 1_555
C27B C26B 1_555 1_555
H12B C27B 1_555 1_555
H13B C27B 1_555 1_555
C28B C27B 1_555 1_555
H14B C28B 1_555 1_555
H15B C28B 1_555 1_555
C29B C28B 1_555 1_555
H16B C29B 1_555 1_555
H17B C29B 1_555 1_555
C30B C29B 1_555 1_555
H18B C30B 1_555 1_555
H19B C30B 1_555 1_555
C31B C30B 1_555 1_555
H20B C31B 1_555 1_555
H21B C31B 1_555 1_555
H22B C31B 1_555 1_555
C32B C23B 1_555 1_555
C33B C32B 1_555 1_555
C34B C33B 1_555 1_555
H23B C34B 1_555 1_555
C35B C34B 1_555 1_555
C36B C35B 1_555 1_555
H24B C36B 1_555 1_555
C37B C32B 1_555 1_555
C38B C9B 1_555 1_555
H25B C38B 1_555 1_555
H26B C38B 1_555 1_555
H27B C38B 1_555 1_555
C39B C11B 1_555 1_555
H28B C39B 1_555 1_555
H29B C39B 1_555 1_555
H30B C39B 1_555 1_555
C40B C13B 1_555 1_555
H31B C40B 1_555 1_555
H32B C40B 1_555 1_555
H33B C40B 1_555 1_555
C41B C33B 1_555 1_555
H34B C41B 1_555 1_555
H35B C41B 1_555 1_555
H36B C41B 1_555 1_555
C42B C35B 1_555 1_555
H37B C42B 1_555 1_555
H38B C42B 1_555 1_555
H39B C42B 1_555 1_555
C43B C37B 1_555 1_555
H40B C43B 1_555 1_555
H41B C43B 1_555 1_555
H42B C43B 1_555 1_555
C12 C13 1_555 1_555
C18 C19 1_555 1_555
C19 C20 1_555 1_555
C21 C22 1_555 1_555
C24 C25 1_555 1_555
C36 C37 1_555 1_555
C48 C49 1_555 1_555
C3B C25B 1_555 1_555
C12B C13B 1_555 1_555
C18B C19B 1_555 1_555
C19B C20B 1_555 1_555
C21B C22B 1_555 1_555
C23B C24B 1_555 1_555
C24B C25B 1_555 1_555
C36B C37B 1_555 1_555

#END
