
#######################################################################
#
#                 Cambridge Crystallographic Data Centre
#                                CCDC 
#
#######################################################################
#
# If this CIF has been generated from an entry in the Cambridge 
# Structural Database, then it will include bibliographic, chemical, 
# crystal, experimental, refinement or atomic coordinate data resulting 
# from the CCDC's data processing and validation procedures.
#
#######################################################################

data_FABQIK
_chemical_name_common            N-Formylanonaine
_chemical_formula_moiety         'C18 H15 N1 O3'
_chemical_name_systematic        
5,6,7a,8-Tetrahydro-7H-[1,3]benzodioxolo[6,5,4-de]benzo[g]quinoline-7-carbaldehyde
_symmetry_cell_setting           orthorhombic
_symmetry_space_group_name_H-M   'P 21 21 21'
_symmetry_Int_Tables_number      19
_space_group_name_Hall           'P 2ac 2ab'
loop_
_symmetry_equiv_pos_site_id
_symmetry_equiv_pos_as_xyz
1 x,y,z
2 1/2-x,-y,1/2+z
3 -x,1/2+y,1/2-z
4 1/2+x,1/2-y,-z
_cell_length_a                   7.0524(19)
_cell_length_b                   11.472(3)
_cell_length_c                   16.774(5)
_cell_angle_alpha                90
_cell_angle_beta                 90
_cell_angle_gamma                90
_cell_volume                     1357.1
_exptl_crystal_colour            colorless
_exptl_crystal_description       block
_cell_formula_units_Z            4
loop_
_atom_site_label
_atom_site_type_symbol
_atom_site_fract_x
_atom_site_fract_y
_atom_site_fract_z
O1 O 0.69689(19) 0.39058(11) 0.39478(8)
O2 O 0.4370(2) 0.35360(11) 0.47493(8)
O3 O 0.5466(2) 1.04055(11) 0.37023(8)
N1 N 0.3526(2) 0.88224(13) 0.36034(9)
C1 C 0.2915(3) 0.54717(16) 0.46220(10)
H1 H 0.1845 0.5290 0.4943
C2 C 0.3891(3) 0.99547(15) 0.37216(11)
H2 H 0.2842 1.0450 0.3829
C3 C 0.5869(3) 0.48977(15) 0.40045(10)
C4 C 0.3122(2) 0.65731(15) 0.42634(10)
C5 C 0.7608(3) 0.62133(15) 0.30262(10)
C6 C 0.4321(3) 0.46748(15) 0.44891(10)
C7 C 1.0302(3) 0.66677(16) 0.18445(11)
H3 H 1.1206 0.6815 0.1437
C8 C 0.9249(3) 0.55275(15) 0.29583(11)
H4 H 0.9448 0.4901 0.3319
C9 C 0.6095(2) 0.59535(14) 0.36128(10)
C10 C 0.4695(2) 0.68074(14) 0.37878(10)
C11 C 1.0580(3) 0.57550(16) 0.23714(12)
H5 H 1.1684 0.5284 0.2331
C12 C 0.5607(3) 0.79086(15) 0.25729(10)
H6 H 0.4543 0.7553 0.2274
H7 H 0.5857 0.8691 0.2347
C13 C 0.1617(3) 0.74876(16) 0.43822(11)
H8 H 0.1855 0.7910 0.4887
H9 H 0.0359 0.7109 0.4420
C14 C 0.5088(2) 0.80147(14) 0.34552(10)
H10 H 0.6227 0.8326 0.3739
C15 C 0.7351(3) 0.71570(15) 0.24990(10)
C16 C 0.8705(3) 0.73679(16) 0.19120(11)
H11 H 0.8533 0.7999 0.1553
C17 C 0.6214(3) 0.31242(15) 0.45377(12)
H12 H 0.6132 0.2324 0.4319
H13 H 0.7046 0.3110 0.5013
C18 C 0.1620(3) 0.83465(16) 0.36911(11)
H14 H 0.1236 0.7946 0.3194
H15 H 0.0707 0.8984 0.3796
loop_
_geom_bond_atom_site_label_1
_geom_bond_atom_site_label_2
_geom_bond_site_symmetry_1
_geom_bond_site_symmetry_2
O1 C3 1_555 1_555
O2 C6 1_555 1_555
O3 C2 1_555 1_555
N1 C2 1_555 1_555
C1 H1 1_555 1_555
C2 H2 1_555 1_555
C3 C6 1_555 1_555
C4 C1 1_555 1_555
C5 C8 1_555 1_555
C6 C1 1_555 1_555
C7 H3 1_555 1_555
C8 H4 1_555 1_555
C9 C3 1_555 1_555
C10 C4 1_555 1_555
C11 C7 1_555 1_555
H5 C11 1_555 1_555
C12 H6 1_555 1_555
H7 C12 1_555 1_555
C13 C4 1_555 1_555
H8 C13 1_555 1_555
H9 C13 1_555 1_555
C14 N1 1_555 1_555
H10 C14 1_555 1_555
C15 C5 1_555 1_555
C16 C7 1_555 1_555
H11 C16 1_555 1_555
C17 O1 1_555 1_555
H12 C17 1_555 1_555
H13 C17 1_555 1_555
C18 N1 1_555 1_555
H14 C18 1_555 1_555
H15 C18 1_555 1_555
O2 C17 1_555 1_555
C5 C9 1_555 1_555
C8 C11 1_555 1_555
C9 C10 1_555 1_555
C10 C14 1_555 1_555
C12 C14 1_555 1_555
C12 C15 1_555 1_555
C13 C18 1_555 1_555
C15 C16 1_555 1_555

#END
