
#######################################################################
#
#                 Cambridge Crystallographic Data Centre
#                                CCDC 
#
#######################################################################
#
# If this CIF has been generated from an entry in the Cambridge 
# Structural Database, then it will include bibliographic, chemical, 
# crystal, experimental, refinement or atomic coordinate data resulting 
# from the CCDC's data processing and validation procedures.
#
#######################################################################

data_FABREI
_chemical_formula_moiety         'C48 H46 O1,C7 H8'
_chemical_name_systematic        
'1-(Hexyloxy)-7,13-dimesitylbenzo[fg]indeno[1,2-b]anthracene toluene solvate'
_symmetry_cell_setting           monoclinic
_symmetry_space_group_name_H-M   'P 21/n'
_symmetry_Int_Tables_number      14
_space_group_name_Hall           '-P 2yn'
loop_
_symmetry_equiv_pos_site_id
_symmetry_equiv_pos_as_xyz
1 x,y,z
2 1/2-x,1/2+y,1/2-z
3 -x,-y,-z
4 1/2+x,1/2-y,1/2+z
_cell_length_a                   14.9865(5)
_cell_length_b                   7.9786(3)
_cell_length_c                   34.6321(12)
_cell_angle_alpha                90
_cell_angle_beta                 101.364(2)
_cell_angle_gamma                90
_cell_volume                     4059.82
_exptl_crystal_colour            black
_exptl_crystal_description       'prism frag'
_cell_formula_units_Z            4
loop_
_atom_site_label
_atom_site_type_symbol
_atom_site_fract_x
_atom_site_fract_y
_atom_site_fract_z
O1 O 0.58263(8) 0.66384(14) 0.00791(3)
C1 C 0.50431(11) 0.74828(19) 0.00895(5)
C2 C 0.44209(11) 0.7855(2) -0.02625(5)
H1 H 0.4557 0.7534 -0.0509
C3 C 0.36254(11) 0.8673(2) -0.02517(5)
H2 H 0.3210 0.8900 -0.0491
C4 C 0.34143(11) 0.9183(2) 0.01076(5)
C5 C 0.25822(11) 0.9987(2) 0.01229(5)
H3 H 0.2155 1.0177 -0.0115
C6 C 0.23776(11) 1.0497(2) 0.04720(5)
H4 H 0.1807 1.1004 0.0477
C7 C 0.30191(11) 1.0265(2) 0.08227(5)
H5 H 0.2883 1.0651 0.1064
C8 C 0.38497(11) 0.94832(19) 0.08245(5)
C9 C 0.45164(11) 0.92988(19) 0.11875(4)
C10 C 0.53037(11) 0.84046(19) 0.11942(4)
C11 C 0.59403(11) 0.8195(2) 0.15667(5)
H6 H 0.5839 0.8776 0.1794
C12 C 0.66725(11) 0.7188(2) 0.15937(4)
C13 C 0.74197(11) 0.6750(2) 0.19218(5)
C14 C 0.76404(11) 0.7279(2) 0.23103(5)
H7 H 0.7264 0.8051 0.2412
C15 C 0.84311(12) 0.6646(2) 0.25482(5)
H8 H 0.8588 0.6982 0.2816
C16 C 0.89911(12) 0.5535(2) 0.23994(5)
H9 H 0.9527 0.5127 0.2567
C17 C 0.87800(11) 0.5007(2) 0.20081(5)
H10 H 0.9167 0.4251 0.1907
C18 C 0.79874(11) 0.5617(2) 0.17686(5)
C19 C 0.76186(11) 0.5345(2) 0.13476(5)
C20 C 0.68350(11) 0.6294(2) 0.12485(5)
C21 C 0.62387(11) 0.6533(2) 0.08786(5)
H11 H 0.6352 0.5948 0.0654
C22 C 0.54997(11) 0.75977(19) 0.08388(4)
C23 C 0.48782(11) 0.79608(19) 0.04605(4)
C24 C 0.40576(11) 0.88629(19) 0.04646(5)
C25 C 0.60550(12) 0.6245(2) -0.02960(5)
H12 H 0.6066 0.7278 -0.0453
H13 H 0.5600 0.5468 -0.0446
C26 C 0.69834(12) 0.5436(2) -0.02120(5)
H14 H 0.6966 0.4427 -0.0047
H15 H 0.7430 0.6228 -0.0062
C27 C 0.72883(12) 0.4936(2) -0.05912(5)
H16 H 0.6882 0.4044 -0.0724
H17 H 0.7231 0.5916 -0.0770
C28 C 0.82659(13) 0.4311(2) -0.05160(5)
H18 H 0.8328 0.3383 -0.0323
H19 H 0.8671 0.5230 -0.0396
C29 C 0.85871(14) 0.3693(2) -0.08837(6)
H20 H 0.9211 0.3239 -0.0804
H21 H 0.8187 0.2765 -0.1002
C30 C 0.85884(15) 0.5043(3) -0.11935(6)
H22 H 0.7966 0.5447 -0.1287
H23 H 0.8825 0.4576 -0.1415
H24 H 0.8975 0.5978 -0.1078
C31 C 0.42798(10) 1.0049(2) 0.15512(4)
C32 C 0.44370(11) 1.1749(2) 0.16399(5)
C33 C 0.41144(11) 1.2438(2) 0.19572(5)
H25 H 0.4220 1.3591 0.2018
C34 C 0.36449(11) 1.1486(2) 0.21861(5)
C35 C 0.35068(11) 0.9801(2) 0.20954(5)
H26 H 0.3189 0.9133 0.2251
C36 C 0.38178(11) 0.9057(2) 0.17845(5)
C37 C 0.80932(11) 0.4348(2) 0.10891(5)
C38 C 0.85250(11) 0.5169(2) 0.08165(5)
C39 C 0.90335(11) 0.4239(2) 0.05967(5)
H27 H 0.9318 0.4797 0.0411
C40 C 0.91346(11) 0.2519(2) 0.06422(5)
C41 C 0.86935(11) 0.1724(2) 0.09078(5)
H28 H 0.8750 0.0543 0.0939
C42 C 0.81708(11) 0.2601(2) 0.11304(5)
C43 C 0.49313(13) 1.2853(2) 0.13962(5)
H29 H 0.4494 1.3322 0.1175
H30 H 0.5386 1.2187 0.1296
H31 H 0.5235 1.3768 0.1560
C44 C 0.32965(14) 1.2230(3) 0.25281(6)
H32 H 0.2669 1.1860 0.2519
H33 H 0.3313 1.3456 0.2512
H34 H 0.3681 1.1859 0.2776
C45 C 0.36497(13) 0.7220(2) 0.16974(5)
H35 H 0.3295 0.7087 0.1429
H36 H 0.3311 0.6742 0.1886
H37 H 0.4234 0.6638 0.1720
C46 C 0.84611(13) 0.7045(2) 0.07657(5)
H38 H 0.7846 0.7348 0.0629
H39 H 0.8904 0.7421 0.0610
H40 H 0.8592 0.7586 0.1025
C47 C 0.97154(13) 0.1541(2) 0.04094(6)
H41 H 0.9329 0.1086 0.0171
H42 H 1.0019 0.0619 0.0571
H43 H 1.0174 0.2285 0.0336
C48 C 0.76726(12) 0.1658(2) 0.14013(5)
H44 H 0.7825 0.2142 0.1666
H45 H 0.7855 0.0477 0.1411
H46 H 0.7015 0.1744 0.1302
C49 C -0.00790(13) 0.0549(2) 0.21085(6)
C50 C -0.02508(14) -0.0812(2) 0.18549(6)
H47 H -0.0736 -0.1555 0.1873
C51 C 0.02777(15) -0.1098(3) 0.15750(6)
H48 H 0.0153 -0.2039 0.1405
C52 C 0.09863(15) -0.0026(3) 0.15407(6)
H49 H 0.1349 -0.0227 0.1349
C53 C 0.11538(15) 0.1329(3) 0.17885(6)
H50 H 0.1635 0.2076 0.1767
C54 C 0.06329(14) 0.1623(2) 0.20692(6)
H51 H 0.0761 0.2569 0.2238
C55 C -0.06424(15) 0.0838(3) 0.24126(6)
H52 H -0.1278 0.1021 0.2283
H53 H -0.0416 0.1827 0.2570
H54 H -0.0604 -0.0144 0.2585
loop_
_geom_bond_atom_site_label_1
_geom_bond_atom_site_label_2
_geom_bond_site_symmetry_1
_geom_bond_site_symmetry_2
O1 C1 1_555 1_555
C1 C2 1_555 1_555
C2 H1 1_555 1_555
C3 C2 1_555 1_555
H2 C3 1_555 1_555
C4 C3 1_555 1_555
C5 C4 1_555 1_555
H3 C5 1_555 1_555
C6 C5 1_555 1_555
H4 C6 1_555 1_555
C7 C6 1_555 1_555
H5 C7 1_555 1_555
C8 C7 1_555 1_555
C9 C8 1_555 1_555
C10 C9 1_555 1_555
C11 C10 1_555 1_555
H6 C11 1_555 1_555
C12 C11 1_555 1_555
C13 C12 1_555 1_555
C14 C13 1_555 1_555
H7 C14 1_555 1_555
C15 C14 1_555 1_555
H8 C15 1_555 1_555
C16 C15 1_555 1_555
H9 C16 1_555 1_555
C17 C16 1_555 1_555
H10 C17 1_555 1_555
C18 C13 1_555 1_555
C19 C18 1_555 1_555
C20 C12 1_555 1_555
C21 C20 1_555 1_555
H11 C21 1_555 1_555
C22 C10 1_555 1_555
C23 C1 1_555 1_555
C24 C4 1_555 1_555
C25 O1 1_555 1_555
H12 C25 1_555 1_555
H13 C25 1_555 1_555
C26 C25 1_555 1_555
H14 C26 1_555 1_555
H15 C26 1_555 1_555
C27 C26 1_555 1_555
H16 C27 1_555 1_555
H17 C27 1_555 1_555
C28 C27 1_555 1_555
H18 C28 1_555 1_555
H19 C28 1_555 1_555
C29 C28 1_555 1_555
H20 C29 1_555 1_555
H21 C29 1_555 1_555
C30 C29 1_555 1_555
H22 C30 1_555 1_555
H23 C30 1_555 1_555
H24 C30 1_555 1_555
C31 C9 1_555 1_555
C32 C31 1_555 1_555
C33 C32 1_555 1_555
H25 C33 1_555 1_555
C34 C33 1_555 1_555
C35 C34 1_555 1_555
H26 C35 1_555 1_555
C36 C31 1_555 1_555
C37 C19 1_555 1_555
C38 C37 1_555 1_555
C39 C38 1_555 1_555
H27 C39 1_555 1_555
C40 C39 1_555 1_555
C41 C40 1_555 1_555
H28 C41 1_555 1_555
C42 C37 1_555 1_555
C43 C32 1_555 1_555
H29 C43 1_555 1_555
H30 C43 1_555 1_555
H31 C43 1_555 1_555
C44 C34 1_555 1_555
H32 C44 1_555 1_555
H33 C44 1_555 1_555
H34 C44 1_555 1_555
C45 C36 1_555 1_555
H35 C45 1_555 1_555
H36 C45 1_555 1_555
H37 C45 1_555 1_555
C46 C38 1_555 1_555
H38 C46 1_555 1_555
H39 C46 1_555 1_555
H40 C46 1_555 1_555
C47 C40 1_555 1_555
H41 C47 1_555 1_555
H42 C47 1_555 1_555
H43 C47 1_555 1_555
C48 C42 1_555 1_555
H44 C48 1_555 1_555
H45 C48 1_555 1_555
H46 C48 1_555 1_555
C49 C50 1_555 1_555
C50 H47 1_555 1_555
C51 C50 1_555 1_555
H48 C51 1_555 1_555
C52 C51 1_555 1_555
H49 C52 1_555 1_555
C53 C52 1_555 1_555
H50 C53 1_555 1_555
C54 C49 1_555 1_555
H51 C54 1_555 1_555
C55 C49 1_555 1_555
H52 C55 1_555 1_555
H53 C55 1_555 1_555
H54 C55 1_555 1_555
C8 C24 1_555 1_555
C17 C18 1_555 1_555
C19 C20 1_555 1_555
C21 C22 1_555 1_555
C22 C23 1_555 1_555
C23 C24 1_555 1_555
C35 C36 1_555 1_555
C41 C42 1_555 1_555
C53 C54 1_555 1_555

#END
