
#######################################################################
#
#                 Cambridge Crystallographic Data Centre
#                                CCDC 
#
#######################################################################
#
# If this CIF has been generated from an entry in the Cambridge 
# Structural Database, then it will include bibliographic, chemical, 
# crystal, experimental, refinement or atomic coordinate data resulting 
# from the CCDC's data processing and validation procedures.
#
#######################################################################

data_FABRIJ01
_chemical_formula_moiety         'C18 H11 N7 O10,C1 H2 Cl2'
_chemical_name_systematic        
'2,2-bis(p-Nitrophenyl)-1-picrylhydrazine dichloromethane solvate'
_symmetry_cell_setting           triclinic
_symmetry_space_group_name_H-M   'P -1'
_symmetry_Int_Tables_number      2
_space_group_name_Hall           '-P 1'
loop_
_symmetry_equiv_pos_site_id
_symmetry_equiv_pos_as_xyz
1 x,y,z
2 -x,-y,-z
_cell_length_a                   9.055(3)
_cell_length_b                   13.3187(3)
_cell_length_c                   10.396(4)
_cell_angle_alpha                90.17(2)
_cell_angle_beta                 70.89(3)
_cell_angle_gamma                100.11(3)
_cell_volume                     1164.27
_exptl_crystal_colour            yellow
_chemical_melting_point          124.8deg.C
_cell_formula_units_Z            2
loop_
_atom_site_label
_atom_site_type_symbol
_atom_site_fract_x
_atom_site_fract_y
_atom_site_fract_z
H1 H 0.040(5) 0.793(3) 0.417(3)
C1 C 0.2376(2) 0.7715(1) 0.4260(2)
C2 C 0.2653(2) 0.8423(2) 0.5206(2)
C3 C 0.4061(3) 0.8604(2) 0.5491(2)
C4 C 0.5239(2) 0.8089(2) 0.4826(2)
C5 C 0.5041(2) 0.7356(2) 0.3930(2)
C6 C 0.3613(2) 0.7158(1) 0.3705(2)
N1 N 0.1481(3) 0.9037(2) 0.5927(2)
O1 O 0.1814(3) 0.9639(2) 0.6715(3)
O2 O 0.0213(2) 0.8911(2) 0.5740(2)
N2 N 0.6740(2) 0.8308(2) 0.5103(2)
O3 O 0.7836(2) 0.7929(2) 0.4376(2)
O4 O 0.6806(3) 0.8841(3) 0.6030(3)
N3 N 0.3366(2) 0.6241(1) 0.2951(2)
O5 O 0.2182(2) 0.5597(1) 0.3507(2)
O6 O 0.4406(3) 0.6153(2) 0.1885(2)
N4 N 0.1060(2) 0.7586(1) 0.3891(2)
N5 N 0.1171(2) 0.7254(1) 0.2589(2)
C7 C -0.0117(2) 0.6501(1) 0.2539(2)
C8 C -0.0344(3) 0.6317(2) 0.1294(2)
C9 C -0.1597(3) 0.5579(2) 0.1223(3)
C10 C -0.2613(3) 0.5047(2) 0.2402(3)
C11 C -0.2403(3) 0.5213(2) 0.3650(3)
C12 C -0.1132(3) 0.5931(2) 0.3707(2)
N6 N -0.3948(3) 0.4277(2) 0.2342(3)
O7 O -0.3997(3) 0.4037(2) 0.1224(3)
O8 O -0.4986(3) 0.3938(2) 0.3432(3)
C13 C 0.1795(2) 0.8081(2) 0.1543(2)
C14 C 0.3155(3) 0.8019(2) 0.0460(2)
C15 C 0.3779(3) 0.8805(2) -0.0541(3)
C16 C 0.3015(3) 0.9627(2) -0.0428(2)
C17 C 0.1667(3) 0.9698(2) 0.0649(3)
C18 C 0.1048(3) 0.8918(2) 0.1639(3)
N7 N 0.3677(3) 1.0458(2) -0.1496(2)
O9 O 0.4953(3) 1.0429(2) -0.2369(2)
O10 O 0.2902(3) 1.1126(2) -0.1462(2)
H2 H 0.424(4) 0.912(3) 0.605(3)
H3 H 0.577(5) 0.699(3) 0.358(4)
H4 H 0.034(5) 0.662(3) 0.050(5)
H5 H -0.160(5) 0.548(3) 0.042(6)
H6 H -0.304(5) 0.487(3) 0.437(4)
H7 H -0.099(5) 0.602(3) 0.452(4)
H8 H 0.354(4) 0.743(3) 0.041(3)
H9 H 0.460(6) 0.879(3) -0.117(5)
H10 H 0.132(5) 1.020(4) 0.069(4)
H11 H 0.024(6) 0.899(3) 0.235(5)
C19 C 0.2066(4) 0.3282(3) 0.2179(4)
Cl1 Cl 0.0119(1) 0.3502(1) 0.2556(1)
Cl2 Cl 0.2545(1) 0.2477(1) 0.0859(1)
H12 H 0.280(7) 0.387(4) 0.186(5)
H13 H 0.187(7) 0.260(4) 0.307(6)
loop_
_geom_bond_atom_site_label_1
_geom_bond_atom_site_label_2
_geom_bond_site_symmetry_1
_geom_bond_site_symmetry_2
H1 N4 1_555 1_555
C1 C2 1_555 1_555
C2 C3 1_555 1_555
C3 C4 1_555 1_555
C4 C5 1_555 1_555
C5 C6 1_555 1_555
C6 C1 1_555 1_555
N1 C2 1_555 1_555
O1 N1 1_555 1_555
O2 N1 1_555 1_555
N2 C4 1_555 1_555
O3 N2 1_555 1_555
O4 N2 1_555 1_555
N3 C6 1_555 1_555
O5 N3 1_555 1_555
O6 N3 1_555 1_555
N4 C1 1_555 1_555
N5 N4 1_555 1_555
C7 N5 1_555 1_555
C8 C7 1_555 1_555
C9 C8 1_555 1_555
C10 C9 1_555 1_555
C11 C10 1_555 1_555
C12 C7 1_555 1_555
N6 C10 1_555 1_555
O7 N6 1_555 1_555
O8 N6 1_555 1_555
C13 N5 1_555 1_555
C14 C13 1_555 1_555
C15 C14 1_555 1_555
C16 C15 1_555 1_555
C17 C16 1_555 1_555
C18 C13 1_555 1_555
N7 C16 1_555 1_555
O9 N7 1_555 1_555
O10 N7 1_555 1_555
H2 C3 1_555 1_555
H3 C5 1_555 1_555
H4 C8 1_555 1_555
H5 C9 1_555 1_555
H6 C11 1_555 1_555
H7 C12 1_555 1_555
H8 C14 1_555 1_555
H9 C15 1_555 1_555
H10 C17 1_555 1_555
H11 C18 1_555 1_555
C19 Cl1 1_555 1_555
Cl2 C19 1_555 1_555
H12 C19 1_555 1_555
H13 C19 1_555 1_555
C11 C12 1_555 1_555
C17 C18 1_555 1_555

#END
