
#######################################################################
#
#                 Cambridge Crystallographic Data Centre
#                                CCDC 
#
#######################################################################
#
# If this CIF has been generated from an entry in the Cambridge 
# Structural Database, then it will include bibliographic, chemical, 
# crystal, experimental, refinement or atomic coordinate data resulting 
# from the CCDC's data processing and validation procedures.
#
#######################################################################

data_FABTUA
_chemical_formula_moiety         'C28 H4 F18 N4,2(C1 D1 Cl3)'
_chemical_name_systematic        
"4,7,11,14-tetrafluoro-2,9-bis(heptafluoropropyl)pyrimido[4',5',6':6,7]phenaleno[1,2,3-gh]perimidine perdeuterochloroform solvate"
_symmetry_cell_setting           monoclinic
_symmetry_space_group_name_H-M   'P 21/c'
_symmetry_Int_Tables_number      14
_space_group_name_Hall           '-P 2ybc'
loop_
_symmetry_equiv_pos_site_id
_symmetry_equiv_pos_as_xyz
1 x,y,z
2 -x,1/2+y,1/2-z
3 -x,-y,-z
4 x,1/2-y,1/2+z
_cell_length_a                   10.1702(3)
_cell_length_b                   10.1392(3)
_cell_length_c                   16.4662(5)
_cell_angle_alpha                90
_cell_angle_beta                 94.768(3)
_cell_angle_gamma                90
_cell_volume                     1692.08
_exptl_crystal_colour            yellow
_exptl_crystal_description       plate
_cell_formula_units_Z            2
loop_
_atom_site_label
_atom_site_type_symbol
_atom_site_fract_x
_atom_site_fract_y
_atom_site_fract_z
Cl1 Cl 0.64120(6) 0.66663(7) 0.56643(4)
Cl2 Cl 0.82484(7) 0.79514(6) 0.46706(5)
Cl3 Cl 0.65593(7) 0.58628(7) 0.39868(4)
C1 C 0.7465(2) 0.6459(2) 0.48736(14)
D1 D 0.8156 0.5794 0.5052
F1 F 0.47734(13) 0.81126(13) 0.21727(7)
F2 F 0.15551(13) 0.67889(12) 0.57626(7)
F3 F 0.18189(12) 0.44517(11) 0.23735(7)
F4 F 0.06869(12) 0.42471(11) 0.34370(7)
F5 F 0.04649(14) 0.66155(14) 0.18879(9)
F6 F -0.05704(13) 0.66310(13) 0.29945(9)
F7 F -0.20180(14) 0.57421(13) 0.16649(10)
F8 F -0.16700(16) 0.42725(16) 0.25901(10)
F9 F -0.06355(16) 0.41927(17) 0.15109(11)
N1 N 0.29793(15) 0.66867(15) 0.29621(10)
N2 N 0.18533(15) 0.62888(15) 0.41681(9)
C2 C 0.36956(18) 0.76451(17) 0.33586(11)
C3 C 0.46262(19) 0.84128(18) 0.29573(11)
C4 C 0.53120(18) 0.94168(18) 0.33216(11)
H1 H 0.5891 0.9920 0.3020
C5 C 0.51788(17) 0.97364(17) 0.41616(11)
C6 C 0.42744(17) 0.89989(16) 0.45940(10)
C7 C 0.35391(17) 0.79719(17) 0.41814(11)
C8 C 0.25979(18) 0.72246(17) 0.45663(11)
C9 C 0.24387(18) 0.75133(17) 0.54023(11)
C10 C 0.31366(18) 0.84649(17) 0.58183(11)
H2 H 0.3005 0.8618 0.6375
C11 C 0.40790(17) 0.92486(16) 0.54254(11)
C12 C 0.20967(18) 0.61003(17) 0.33977(11)
C13 C 0.11728(18) 0.51304(17) 0.29268(11)
C14 C -0.0002(2) 0.58521(18) 0.24662(12)
C15 C -0.1097(2) 0.4990(2) 0.20482(13)
F1B F 0.52266(13) 1.18874(13) 0.78273(7)
F2B F 0.84449(13) 1.32111(12) 0.42374(7)
F3B F 0.81811(12) 1.55483(11) 0.76265(7)
F4B F 0.93131(12) 1.57529(11) 0.65630(7)
F5B F 0.95351(14) 1.33845(14) 0.81121(9)
F6B F 1.05704(13) 1.33690(13) 0.70055(9)
F7B F 1.20180(14) 1.42579(13) 0.83351(10)
F8B F 1.16700(16) 1.57275(16) 0.74099(10)
F9B F 1.06355(16) 1.58073(17) 0.84891(11)
N1B N 0.70207(15) 1.33133(15) 0.70379(10)
N2B N 0.81467(15) 1.37112(15) 0.58319(9)
C2B C 0.63044(18) 1.23549(17) 0.66414(11)
C3B C 0.53738(19) 1.15872(18) 0.70427(11)
C4B C 0.46880(18) 1.05832(18) 0.66784(11)
H1B H 0.4109 1.0080 0.6980
C5B C 0.48212(17) 1.02636(17) 0.58384(11)
C6B C 0.57256(17) 1.10011(16) 0.54060(10)
C7B C 0.64609(17) 1.20281(17) 0.58186(11)
C8B C 0.74021(18) 1.27754(17) 0.54337(11)
C9B C 0.75613(18) 1.24867(17) 0.45977(11)
C10B C 0.68634(18) 1.15351(17) 0.41817(11)
H2B H 0.6995 1.1382 0.3625
C11B C 0.59210(17) 1.07514(16) 0.45746(11)
C12B C 0.79033(18) 1.38997(17) 0.66023(11)
C13B C 0.88272(18) 1.48696(17) 0.70732(11)
C14B C 1.0002(2) 1.41479(18) 0.75338(12)
C15B C 1.1097(2) 1.5010(2) 0.79518(13)
loop_
_geom_bond_atom_site_label_1
_geom_bond_atom_site_label_2
_geom_bond_site_symmetry_1
_geom_bond_site_symmetry_2
Cl1 C1 1_555 1_555
Cl2 C1 1_555 1_555
Cl3 C1 1_555 1_555
C1 D1 1_555 1_555
F1 C3 1_555 1_555
F2 C9 1_555 1_555
F3 C13 1_555 1_555
F4 C13 1_555 1_555
F5 C14 1_555 1_555
F6 C14 1_555 1_555
F7 C15 1_555 1_555
F8 C15 1_555 1_555
F9 C15 1_555 1_555
N1 C2 1_555 1_555
N2 C8 1_555 1_555
C2 C3 1_555 1_555
C3 C4 1_555 1_555
C4 H1 1_555 1_555
C5 C4 1_555 1_555
C6 C5 1_555 1_555
C7 C2 1_555 1_555
C8 C7 1_555 1_555
C9 C8 1_555 1_555
C10 C9 1_555 1_555
H2 C10 1_555 1_555
C11 C6 1_555 1_555
C12 N1 1_555 1_555
C13 C12 1_555 1_555
C14 C13 1_555 1_555
C15 C14 1_555 1_555
F1B C3B 1_555 1_555
F2B C9B 1_555 1_555
F3B C13B 1_555 1_555
F4B C13B 1_555 1_555
F5B C14B 1_555 1_555
F6B C14B 1_555 1_555
F7B C15B 1_555 1_555
F8B C15B 1_555 1_555
F9B C15B 1_555 1_555
N1B C2B 1_555 1_555
N2B C8B 1_555 1_555
C2B C3B 1_555 1_555
C3B C4B 1_555 1_555
C4B H1B 1_555 1_555
C5B C11 1_555 1_555
C6B C5B 1_555 1_555
C7B C2B 1_555 1_555
C8B C7B 1_555 1_555
C9B C8B 1_555 1_555
C10B C9B 1_555 1_555
H2B C10B 1_555 1_555
C11B C5 1_555 1_555
C12B N1B 1_555 1_555
C13B C12B 1_555 1_555
C14B C13B 1_555 1_555
C15B C14B 1_555 1_555
N2 C12 1_555 1_555
C6 C7 1_555 1_555
C10 C11 1_555 1_555
N2B C12B 1_555 1_555
C4B C5B 1_555 1_555
C6B C7B 1_555 1_555
C6B C11B 1_555 1_555
C10B C11B 1_555 1_555

#END
