
#######################################################################
#
#                 Cambridge Crystallographic Data Centre
#                                CCDC 
#
#######################################################################
#
# If this CIF has been generated from an entry in the Cambridge 
# Structural Database, then it will include bibliographic, chemical, 
# crystal, experimental, refinement or atomic coordinate data resulting 
# from the CCDC's data processing and validation procedures.
#
#######################################################################

data_FABVAH
_chemical_name_common            
4,4'-bis([3-(2-pyridyl)-1,2,4-triazol-1-yl]-methyl)biphenyl
_chemical_formula_moiety         'C28 H22 N8'
_chemical_name_systematic        
2,2'-(Biphenyl-4,4'-diylbis(methylene-1H-1,2,4-triazole-1,5-diyl))dipyridine
_symmetry_cell_setting           monoclinic
_symmetry_space_group_name_H-M   'P 21/n'
_symmetry_Int_Tables_number      14
_space_group_name_Hall           '-P 2yn'
loop_
_symmetry_equiv_pos_site_id
_symmetry_equiv_pos_as_xyz
1 x,y,z
2 1/2-x,1/2+y,1/2-z
3 -x,-y,-z
4 1/2+x,1/2-y,1/2+z
_cell_length_a                   8.0956(17)
_cell_length_b                   14.817(3)
_cell_length_c                   19.235(4)
_cell_angle_alpha                90
_cell_angle_beta                 100.834(3)
_cell_angle_gamma                90
_cell_volume                     2266.16
_exptl_crystal_colour            colorless
_exptl_crystal_description       prism
_cell_formula_units_Z            4
loop_
_atom_site_label
_atom_site_type_symbol
_atom_site_fract_x
_atom_site_fract_y
_atom_site_fract_z
N1 N 0.73992(14) 0.09158(9) 1.11066(6)
N2 N 0.93912(14) 0.28208(8) 1.21388(6)
N3 N 1.00174(14) 0.34045(8) 1.11292(6)
N4 N 0.90467(14) 0.26489(8) 1.09848(6)
N5 N -0.41419(13) 0.48345(8) 0.79842(6)
N6 N -0.47827(14) 0.54794(8) 0.83665(6)
N7 N -0.46379(15) 0.60089(8) 0.72766(6)
N8 N -0.28613(14) 0.38516(8) 0.68807(6)
C1 C 0.66031(18) 0.01493(11) 1.12057(8)
H1 H 0.6358 -0.0259 1.0819
C2 C 0.61121(18) -0.00906(11) 1.18298(8)
H2 H 0.5575 -0.0652 1.1874
C3 C 0.64226(18) 0.05083(11) 1.23883(8)
H3 H 0.6089 0.0370 1.2824
C4 C 0.72248(17) 0.13106(10) 1.23039(7)
H4 H 0.7439 0.1737 1.2679
C5 C 0.77145(16) 0.14863(10) 1.16635(7)
C6 C 0.86825(16) 0.23111(10) 1.15893(7)
C7 C 1.01873(17) 0.34666(10) 1.18253(8)
H5 H 1.0825 0.3933 1.2089
C8 C 0.84519(17) 0.24003(10) 1.02452(7)
H6 H 0.8600 0.1742 1.0191
H7 H 0.9146 0.2713 0.9947
C9 C 0.66265(17) 0.26397(9) 0.99870(7)
C10 C 0.57059(16) 0.21771(9) 0.94146(7)
H8 H 0.6213 0.1691 0.9211
C11 C 0.40603(16) 0.24150(9) 0.91368(7)
H9 H 0.3467 0.2098 0.8737
C12 C 0.32506(16) 0.31137(9) 0.94333(7)
C13 C 0.41784(17) 0.35628(10) 1.00157(7)
H10 H 0.3661 0.4032 1.0234
C14 C 0.58403(17) 0.33390(10) 1.02824(7)
H11 H 0.6450 0.3667 1.0672
C15 C 0.14754(16) 0.33546(9) 0.91394(7)
C16 C 0.04112(16) 0.27335(9) 0.87284(7)
H12 H 0.0832 0.2154 0.8643
C17 C -0.12428(16) 0.29464(10) 0.84441(7)
H13 H -0.1927 0.2519 0.8154
C18 C -0.19148(16) 0.37756(9) 0.85771(6)
C19 C -0.08768(17) 0.44014(9) 0.89876(7)
H14 H -0.1317 0.4972 0.9085
C20 C 0.07978(16) 0.41983(10) 0.92561(7)
H15 H 0.1495 0.4640 0.9524
C21 C -0.37563(16) 0.39456(9) 0.83061(7)
H16 H -0.4187 0.3477 0.7951
H17 H -0.4364 0.3879 0.8704
C22 C -0.50497(18) 0.61608(10) 0.79157(7)
H18 H -0.5501 0.6720 0.8033
C23 C -0.40673(16) 0.51629(10) 0.73324(7)
C24 C -0.34646(15) 0.46902(10) 0.67558(7)
C25 C -0.35585(17) 0.51279(11) 0.61077(7)
H19 H -0.4003 0.5721 0.6039
C26 C -0.29934(19) 0.46826(12) 0.55678(8)
H20 H -0.3038 0.4965 0.5121
C27 C -0.23602(19) 0.38170(12) 0.56886(8)
H21 H -0.1960 0.3494 0.5327
C28 C -0.23221(17) 0.34333(11) 0.63465(8)
H22 H -0.1889 0.2839 0.6425
loop_
_geom_bond_atom_site_label_1
_geom_bond_atom_site_label_2
_geom_bond_site_symmetry_1
_geom_bond_site_symmetry_2
N1 C1 1_555 1_555
N2 C6 1_555 1_555
N3 N4 1_555 1_555
N4 C6 1_555 1_555
N5 N6 1_555 1_555
N6 C22 1_555 1_555
N7 C22 1_555 1_555
N8 C24 1_555 1_555
C1 H1 1_555 1_555
C2 C1 1_555 1_555
H2 C2 1_555 1_555
C3 C2 1_555 1_555
H3 C3 1_555 1_555
C4 C3 1_555 1_555
H4 C4 1_555 1_555
C5 N1 1_555 1_555
C6 C5 1_555 1_555
C7 N2 1_555 1_555
H5 C7 1_555 1_555
C8 N4 1_555 1_555
H6 C8 1_555 1_555
H7 C8 1_555 1_555
C9 C8 1_555 1_555
C10 C9 1_555 1_555
H8 C10 1_555 1_555
C11 C10 1_555 1_555
H9 C11 1_555 1_555
C12 C11 1_555 1_555
C13 C12 1_555 1_555
H10 C13 1_555 1_555
C14 C9 1_555 1_555
H11 C14 1_555 1_555
C15 C12 1_555 1_555
C16 C15 1_555 1_555
H12 C16 1_555 1_555
C17 C16 1_555 1_555
H13 C17 1_555 1_555
C18 C17 1_555 1_555
C19 C18 1_555 1_555
H14 C19 1_555 1_555
C20 C15 1_555 1_555
H15 C20 1_555 1_555
C21 N5 1_555 1_555
H16 C21 1_555 1_555
H17 C21 1_555 1_555
C22 H18 1_555 1_555
C23 N5 1_555 1_555
C24 C23 1_555 1_555
C25 C24 1_555 1_555
H19 C25 1_555 1_555
C26 C25 1_555 1_555
H20 C26 1_555 1_555
C27 C26 1_555 1_555
H21 C27 1_555 1_555
C28 N8 1_555 1_555
H22 C28 1_555 1_555
N3 C7 1_555 1_555
N7 C23 1_555 1_555
C4 C5 1_555 1_555
C13 C14 1_555 1_555
C18 C21 1_555 1_555
C19 C20 1_555 1_555
C27 C28 1_555 1_555

#END
