
#######################################################################
#
#                 Cambridge Crystallographic Data Centre
#                                CCDC 
#
#######################################################################
#
# If this CIF has been generated from an entry in the Cambridge 
# Structural Database, then it will include bibliographic, chemical, 
# crystal, experimental, refinement or atomic coordinate data resulting 
# from the CCDC's data processing and validation procedures.
#
#######################################################################

data_FABWOX
_chemical_formula_moiety         'C8 H4 Cl1 I1'
_chemical_name_systematic        1-chloro-4-(iodoethynyl)benzene
_symmetry_cell_setting           monoclinic
_symmetry_space_group_name_H-M   'P 21/n'
_symmetry_Int_Tables_number      14
_space_group_name_Hall           '-P 2yn'
loop_
_symmetry_equiv_pos_site_id
_symmetry_equiv_pos_as_xyz
1 x,y,z
2 1/2-x,1/2+y,1/2-z
3 -x,-y,-z
4 1/2+x,1/2-y,1/2+z
_cell_length_a                   4.153(2)
_cell_length_b                   28.944(15)
_cell_length_c                   7.008(4)
_cell_angle_alpha                90
_cell_angle_beta                 96.843(12)
_cell_angle_gamma                90
_cell_volume                     836.392
_exptl_crystal_colour            colorless
_exptl_crystal_description       plate
_cell_formula_units_Z            4
loop_
_atom_site_label
_atom_site_type_symbol
_atom_site_fract_x
_atom_site_fract_y
_atom_site_fract_z
I1 I 0.08114(6) 0.769456(10) 0.10847(3)
Cl1 Cl -0.8246(4) 0.96449(5) -0.82511(19)
C1 C -0.1084(9) 0.81536(14) -0.0839(5)
C2 C -0.2245(10) 0.84201(15) -0.2032(5)
C3 C -0.3663(9) 0.87256(13) -0.3519(5)
C4 C -0.3468(12) 0.86187(15) -0.5431(6)
H1 H -0.2362 0.8354 -0.5735
C5 C -0.4883(13) 0.88971(16) -0.6882(6)
H2 H -0.4781 0.8819 -0.8160
C6 C -0.6455(11) 0.92933(16) -0.6421(6)
C7 C -0.6616(13) 0.94100(16) -0.4535(6)
H3 H -0.7664 0.9680 -0.4239
C8 C -0.5240(12) 0.91304(16) -0.3093(6)
H4 H -0.5358 0.9211 -0.1819
loop_
_geom_bond_atom_site_label_1
_geom_bond_atom_site_label_2
_geom_bond_site_symmetry_1
_geom_bond_site_symmetry_2
I1 C1 1_555 1_555
Cl1 C6 1_555 1_555
C1 C2 1_555 1_555
C2 C3 1_555 1_555
C3 C4 1_555 1_555
C4 H1 1_555 1_555
C5 C4 1_555 1_555
H2 C5 1_555 1_555
C6 C5 1_555 1_555
C7 C6 1_555 1_555
H3 C7 1_555 1_555
C8 C3 1_555 1_555
H4 C8 1_555 1_555
C7 C8 1_555 1_555

#END
