
#######################################################################
#
#                 Cambridge Crystallographic Data Centre
#                                CCDC 
#
#######################################################################
#
# If this CIF has been generated from an entry in the Cambridge 
# Structural Database, then it will include bibliographic, chemical, 
# crystal, experimental, refinement or atomic coordinate data resulting 
# from the CCDC's data processing and validation procedures.
#
#######################################################################

data_FABWUD
_chemical_formula_moiety         'C16 H9 Br1 Cl1 I1'
_chemical_name_systematic        6-bromo-2-(4-chlorophenyl)-3-iodonaphthalene
_symmetry_cell_setting           triclinic
_symmetry_space_group_name_H-M   'P 1'
_symmetry_Int_Tables_number      1
_space_group_name_Hall           'P 1'
loop_
_symmetry_equiv_pos_site_id
_symmetry_equiv_pos_as_xyz
1 x,y,z
_cell_length_a                   4.115(7)
_cell_length_b                   11.24(2)
_cell_length_c                   15.93(3)
_cell_angle_alpha                100.51(2)
_cell_angle_beta                 93.72(3)
_cell_angle_gamma                91.22(4)
_cell_volume                     722.504
_exptl_crystal_colour            colorless
_exptl_crystal_description       needle
_cell_formula_units_Z            2
loop_
_atom_site_label
_atom_site_type_symbol
_atom_site_fract_x
_atom_site_fract_y
_atom_site_fract_z
I1 I 1.62917(8) -0.30387(4) 0.12258(3)
Br1 Br 0.8092(2) 0.36053(8) 0.14218(7)
Cl1 Cl 1.6836(7) -0.5384(2) 0.48527(15)
C1 C 1.4259(15) -0.1539(6) 0.1949(4)
C2 C 1.3469(19) -0.0623(7) 0.1536(5)
H1 H 1.3918 -0.0681 0.0966
C3 C 1.1965(17) 0.0428(6) 0.1957(4)
C4 C 1.1043(19) 0.1397(8) 0.1531(5)
H2 H 1.1478 0.1379 0.0964
C5 C 0.9508(18) 0.2348(7) 0.1980(5)
C6 C 0.895(2) 0.2435(8) 0.2849(6)
H3 H 0.7939 0.3109 0.3135
C7 C 0.9863(19) 0.1547(6) 0.3270(5)
H4 H 0.9468 0.1610 0.3845
C8 C 1.1410(17) 0.0524(6) 0.2850(5)
C9 C 1.2363(18) -0.0450(7) 0.3248(5)
H5 H 1.2074 -0.0382 0.3829
C10 C 1.3676(15) -0.1483(6) 0.2841(4)
C11 C 1.4496(15) -0.2461(6) 0.3317(4)
C12 C 1.6299(19) -0.2188(7) 0.4097(5)
H6 H 1.7033 -0.1392 0.4301
C13 C 1.704(2) -0.3058(8) 0.4580(5)
H7 H 1.8272 -0.2857 0.5099
C14 C 1.5884(18) -0.4257(7) 0.4275(4)
C15 C 1.3928(19) -0.4544(7) 0.3510(5)
H8 H 1.3103 -0.5330 0.3319
C16 C 1.3243(17) -0.3667(6) 0.3050(5)
H9 H 1.1917 -0.3861 0.2545
I2 I -0.65319(7) 1.40259(3) 0.93350(3)
Br2 Br -1.4426(3) 2.06349(8) 0.91851(8)
Cl2 Cl -0.7808(7) 0.9821(2) 0.57132(15)
C17 C -0.8937(15) 1.5160(6) 0.8599(4)
C18 C -0.9442(16) 1.6293(6) 0.9021(4)
H10 H -0.8665 1.6514 0.9591
C19 C -1.1132(17) 1.7161(6) 0.8618(5)
C20 C -1.3523(18) 1.9079(7) 0.8593(5)
C21 C -1.459(2) 1.8702(8) 0.7749(6)
H11 H -1.5739 1.9229 0.7463
C22 C -1.4020(19) 1.7607(7) 0.7338(6)
H12 H -1.4817 1.7378 0.6770
C23 C -1.2233(17) 1.6766(7) 0.7730(5)
C24 C -1.1607(19) 1.5592(7) 0.7331(5)
H13 H -1.2315 1.5352 0.6757
C25 C -1.0003(16) 1.4767(6) 0.7734(4)
C26 C -0.9534(15) 1.3526(6) 0.7246(4)
C27 C -0.8084(19) 1.3410(7) 0.6464(4)
H14 H -0.7430 1.4100 0.6265
C28 C -0.7615(19) 1.2272(7) 0.5982(5)
H15 H -0.6687 1.2201 0.5459
C29 C -0.8536(18) 1.1247(7) 0.6285(5)
C30 C -1.0081(19) 1.1348(7) 0.7040(5)
H16 H -1.0796 1.0661 0.7233
C31 C -1.0540(17) 1.2493(6) 0.7501(5)
H17 H -1.1581 1.2560 0.8008
C32 C -1.1820(14) 1.8460(7) 0.9133(5)
H18 H -1.1177 1.8754 0.9705
loop_
_geom_bond_atom_site_label_1
_geom_bond_atom_site_label_2
_geom_bond_site_symmetry_1
_geom_bond_site_symmetry_2
I1 C1 1_555 1_555
Br1 C5 1_555 1_555
Cl1 C14 1_555 1_555
C1 C2 1_555 1_555
C2 H1 1_555 1_555
C3 C2 1_555 1_555
C4 C3 1_555 1_555
H2 C4 1_555 1_555
C5 C4 1_555 1_555
C6 C5 1_555 1_555
H3 C6 1_555 1_555
C7 C6 1_555 1_555
H4 C7 1_555 1_555
C8 C3 1_555 1_555
C9 C8 1_555 1_555
H5 C9 1_555 1_555
C10 C1 1_555 1_555
C11 C10 1_555 1_555
C12 C11 1_555 1_555
H6 C12 1_555 1_555
C13 C12 1_555 1_555
H7 C13 1_555 1_555
C14 C13 1_555 1_555
C15 C14 1_555 1_555
H8 C15 1_555 1_555
C16 C11 1_555 1_555
H9 C16 1_555 1_555
I2 C17 1_555 1_555
Br2 C20 1_555 1_555
Cl2 C29 1_555 1_555
C17 C18 1_555 1_555
C18 H10 1_555 1_555
C19 C18 1_555 1_555
C20 C21 1_555 1_555
C21 H11 1_555 1_555
C22 C21 1_555 1_555
H12 C22 1_555 1_555
C23 C19 1_555 1_555
C24 C23 1_555 1_555
H13 C24 1_555 1_555
C25 C17 1_555 1_555
C26 C25 1_555 1_555
C27 C26 1_555 1_555
H14 C27 1_555 1_555
C28 C27 1_555 1_555
H15 C28 1_555 1_555
C29 C28 1_555 1_555
C30 C29 1_555 1_555
H16 C30 1_555 1_555
C31 C26 1_555 1_555
H17 C31 1_555 1_555
C32 C19 1_555 1_555
H18 C32 1_555 1_555
C7 C8 1_555 1_555
C9 C10 1_555 1_555
C15 C16 1_555 1_555
C20 C32 1_555 1_555
C22 C23 1_555 1_555
C24 C25 1_555 1_555
C30 C31 1_555 1_555

#END
