
#######################################################################
#
#                 Cambridge Crystallographic Data Centre
#                                CCDC 
#
#######################################################################
#
# If this CIF has been generated from an entry in the Cambridge 
# Structural Database, then it will include bibliographic, chemical, 
# crystal, experimental, refinement or atomic coordinate data resulting 
# from the CCDC's data processing and validation procedures.
#
#######################################################################

data_FABWAJ
_chemical_formula_moiety         'C8 H4 Br1 I1'
_chemical_name_systematic        1-bromo-4-(iodoethynyl)benzene
_symmetry_cell_setting           monoclinic
_symmetry_space_group_name_H-M   'P 21/n'
_symmetry_Int_Tables_number      14
_space_group_name_Hall           '-P 2yn'
loop_
_symmetry_equiv_pos_site_id
_symmetry_equiv_pos_as_xyz
1 x,y,z
2 1/2-x,1/2+y,1/2-z
3 -x,-y,-z
4 1/2+x,1/2-y,1/2+z
_cell_length_a                   4.2003(6)
_cell_length_b                   29.555(4)
_cell_length_c                   7.1305(11)
_cell_angle_alpha                90
_cell_angle_beta                 96.922(3)
_cell_angle_gamma                90
_cell_volume                     878.727
_exptl_crystal_colour            colorless
_exptl_crystal_description       plate
_cell_formula_units_Z            4
loop_
_atom_site_label
_atom_site_type_symbol
_atom_site_fract_x
_atom_site_fract_y
_atom_site_fract_z
I1 I 0.91522(10) 0.230544(13) 0.88034(5)
Br1 Br 1.82502(19) 0.03715(3) 1.82567(10)
C1 C 1.1023(13) 0.1851(2) 1.0731(7)
C2 C 1.2118(13) 0.16004(19) 1.1900(7)
C3 C 1.3510(12) 0.13023(17) 1.3387(7)
C4 C 1.3327(15) 0.14067(19) 1.5277(8)
H1 H 1.2239 0.1666 1.5578
C5 C 1.4739(16) 0.11310(19) 1.6714(8)
H2 H 1.4623 0.1207 1.7969
C6 C 1.6314(14) 0.07442(19) 1.6275(8)
C7 C 1.6484(15) 0.06250(19) 1.4431(8)
H3 H 1.7485 0.0357 1.4147
C8 C 1.5154(16) 0.09063(19) 1.3000(8)
H4 H 1.5352 0.0832 1.1752
loop_
_geom_bond_atom_site_label_1
_geom_bond_atom_site_label_2
_geom_bond_site_symmetry_1
_geom_bond_site_symmetry_2
I1 C1 1_555 1_555
Br1 C6 1_555 1_555
C1 C2 1_555 1_555
C2 C3 1_555 1_555
C3 C4 1_555 1_555
C4 H1 1_555 1_555
C5 C4 1_555 1_555
H2 C5 1_555 1_555
C6 C5 1_555 1_555
C7 C6 1_555 1_555
H3 C7 1_555 1_555
C8 C3 1_555 1_555
H4 C8 1_555 1_555
C7 C8 1_555 1_555

#END
