
#######################################################################
#
#                 Cambridge Crystallographic Data Centre
#                                CCDC 
#
#######################################################################
#
# If this CIF has been generated from an entry in the Cambridge 
# Structural Database, then it will include bibliographic, chemical, 
# crystal, experimental, refinement or atomic coordinate data resulting 
# from the CCDC's data processing and validation procedures.
#
#######################################################################

data_FACCUJ
_chemical_formula_moiety         'C19 H16 F5 N1 O1'
_chemical_name_systematic        
9-Methyl-5-(pentafluorophenyl)-3,4,4a,5,6,10b-hexahydro-2H-pyrano[3,2-c]quinoline
_symmetry_cell_setting           monoclinic
_symmetry_space_group_name_H-M   'P 21/c'
_symmetry_Int_Tables_number      14
_space_group_name_Hall           '-P 2ybc'
loop_
_symmetry_equiv_pos_site_id
_symmetry_equiv_pos_as_xyz
1 x,y,z
2 -x,1/2+y,1/2-z
3 -x,-y,-z
4 x,1/2-y,1/2+z
_cell_length_a                   8.7332(13)
_cell_length_b                   9.4049(14)
_cell_length_c                   20.384(3)
_cell_angle_alpha                90
_cell_angle_beta                 101.871(2)
_cell_angle_gamma                90
_cell_volume                     1638.43
_exptl_crystal_colour            'pale yellow'
_exptl_crystal_description       block
_cell_formula_units_Z            4
loop_
_atom_site_label
_atom_site_type_symbol
_atom_site_fract_x
_atom_site_fract_y
_atom_site_fract_z
F1 F 0.02231(11) 1.23024(10) 0.38856(6)
F2 F 0.25989(14) 1.37577(11) 0.46064(6)
F3 F 0.55367(14) 1.26997(15) 0.48275(7)
F4 F 0.60879(12) 1.01389(15) 0.43031(7)
F5 F 0.37222(13) 0.86341(11) 0.35998(7)
O1 O -0.10070(13) 0.66652(11) 0.33740(5)
N1 N -0.04268(16) 1.02174(16) 0.27925(7)
H1 H -0.0086 1.0976 0.2635
C1 C 0.16577(18) 1.17339(17) 0.39680(8)
C2 C 0.2869(2) 1.25013(18) 0.43400(9)
C3 C 0.4360(2) 1.1965(2) 0.44542(9)
C4 C 0.46290(19) 1.0674(2) 0.41899(10)
C5 C 0.3398(2) 0.99186(18) 0.38257(9)
C6 C 0.18716(18) 1.04059(17) 0.37035(8)
C7 C 0.05276(18) 0.94786(17) 0.33602(8)
H2 H 0.0956 0.8616 0.3196
C8 C -0.05336(18) 0.90434(16) 0.38441(8)
H3 H -0.1092 0.9894 0.3944
C9 C 0.0297(2) 0.83962(17) 0.45096(8)
H4 H 0.1177 0.8994 0.4706
H5 H -0.0420 0.8377 0.4815
C10 C 0.0882(2) 0.68932(19) 0.44295(9)
H6 H 0.1784 0.6931 0.4221
H7 H 0.1207 0.6459 0.4868
C11 C -0.0385(2) 0.59969(18) 0.40042(9)
H8 H 0.0043 0.5076 0.3925
H9 H -0.1222 0.5845 0.4244
C12 C -0.17420(18) 0.79965(16) 0.34746(8)
H10 H -0.2517 0.7820 0.3751
C13 C -0.25747(18) 0.85780(16) 0.28133(8)
C14 C -0.18974(19) 0.96789(17) 0.25089(8)
C15 C -0.2770(2) 1.02749(19) 0.19252(9)
H11 H -0.2336 1.0998 0.1711
C16 C -0.4266(2) 0.9811(2) 0.16598(9)
H12 H -0.4824 1.0237 0.1272
C17 C -0.4963(2) 0.8726(2) 0.19555(9)
C18 C -0.40786(19) 0.81240(19) 0.25316(9)
H13 H -0.4511 0.7386 0.2738
C19 C -0.6631(2) 0.8256(3) 0.16924(12)
H14 H -0.6746 0.7280 0.1812
H15 H -0.6879 0.8351 0.1213
H16 H -0.7327 0.8837 0.1885
loop_
_geom_bond_atom_site_label_1
_geom_bond_atom_site_label_2
_geom_bond_site_symmetry_1
_geom_bond_site_symmetry_2
F1 C1 1_555 1_555
F2 C2 1_555 1_555
F3 C3 1_555 1_555
F4 C4 1_555 1_555
F5 C5 1_555 1_555
O1 C11 1_555 1_555
N1 H1 1_555 1_555
C1 C2 1_555 1_555
C2 C3 1_555 1_555
C3 C4 1_555 1_555
C4 C5 1_555 1_555
C5 C6 1_555 1_555
C6 C1 1_555 1_555
C7 N1 1_555 1_555
H2 C7 1_555 1_555
C8 C7 1_555 1_555
H3 C8 1_555 1_555
C9 C8 1_555 1_555
H4 C9 1_555 1_555
H5 C9 1_555 1_555
C10 C9 1_555 1_555
H6 C10 1_555 1_555
H7 C10 1_555 1_555
C11 C10 1_555 1_555
H8 C11 1_555 1_555
H9 C11 1_555 1_555
C12 O1 1_555 1_555
H10 C12 1_555 1_555
C13 C12 1_555 1_555
C14 N1 1_555 1_555
C15 C14 1_555 1_555
H11 C15 1_555 1_555
C16 C15 1_555 1_555
H12 C16 1_555 1_555
C17 C16 1_555 1_555
C18 C13 1_555 1_555
H13 C18 1_555 1_555
C19 C17 1_555 1_555
H14 C19 1_555 1_555
H15 C19 1_555 1_555
H16 C19 1_555 1_555
C6 C7 1_555 1_555
C8 C12 1_555 1_555
C13 C14 1_555 1_555
C17 C18 1_555 1_555

#END
