
#######################################################################
#
#                 Cambridge Crystallographic Data Centre
#                                CCDC 
#
#######################################################################
#
# If this CIF has been generated from an entry in the Cambridge 
# Structural Database, then it will include bibliographic, chemical, 
# crystal, experimental, refinement or atomic coordinate data resulting 
# from the CCDC's data processing and validation procedures.
#
#######################################################################

data_FACDEV
_chemical_formula_moiety         'C41 H33 N3 O6'
_chemical_name_systematic        
'2,6-bis(2-(isonicotinoyloxy)-5-methylbenzyl)-4-methylphenyl isonicotinate'
_symmetry_cell_setting           monoclinic
_symmetry_space_group_name_H-M   'P 21/c'
_symmetry_Int_Tables_number      14
_space_group_name_Hall           '-P 2ybc'
loop_
_symmetry_equiv_pos_site_id
_symmetry_equiv_pos_as_xyz
1 x,y,z
2 -x,1/2+y,1/2-z
3 -x,-y,-z
4 x,1/2-y,1/2+z
_cell_length_a                   11.1829(5)
_cell_length_b                   11.5006(5)
_cell_length_c                   26.2259(12)
_cell_angle_alpha                90
_cell_angle_beta                 92.219(3)
_cell_angle_gamma                90
_cell_volume                     3370.39
_exptl_crystal_colour            colorless
_exptl_crystal_description       block
_cell_formula_units_Z            4
loop_
_atom_site_label
_atom_site_type_symbol
_atom_site_fract_x
_atom_site_fract_y
_atom_site_fract_z
O1 O 0.0827(9) 0.9641(9) -0.0047(3)
O2 O 0.2567(6) 0.9747(4) 0.01815(18)
O3 O -0.0024(6) 0.7346(6) 0.0717(2)
O4 O 0.1505(5) 0.6142(5) 0.0579(2)
O5 O 0.5095(7) 1.1305(8) 0.1412(3)
O6 O 0.3414(6) 1.2225(6) 0.1582(2)
N1 N 0.2585(9) 1.1076(6) -0.1607(2)
N2 N 0.0458(12) 0.5072(14) 0.2335(5)
N3 N 0.4558(10) 1.0380(8) 0.3231(3)
C1 C 0.1597(10) 1.0726(9) -0.1395(6)
H1 H 0.0877 1.0740 -0.1599
C2 C 0.1534(15) 1.0356(11) -0.0917(7)
H2 H 0.0780 1.0101 -0.0805
C3 C 0.233(2) 1.0328(11) -0.0635(5)
C4 C 0.3475(15) 1.0642(10) -0.0778(6)
H3 H 0.4161 1.0585 -0.0554
C5 C 0.3522(10) 1.1060(9) -0.1292(6)
H4 H 0.4264 1.1336 -0.1409
C6 C 0.1831(13) 0.9904(11) -0.0126(5)
C7 C 0.2561(6) 0.9342(6) 0.0689(2)
C8 C 0.3065(6) 0.8244(6) 0.0798(2)
C9 C 0.3101(7) 0.7919(7) 0.1301(3)
H5 H 0.3475 0.7204 0.1394
C10 C 0.2608(8) 0.8597(7) 0.1684(3)
C11 C 0.2113(7) 0.9638(7) 0.1555(3)
H6 H 0.1768 1.0095 0.1813
C12 C 0.2090(6) 1.0067(6) 0.1050(2)
C13 C 0.2607(8) 0.8164(8) 0.2237(3)
H7 H 0.2999 0.7403 0.2260
H8 H 0.3041 0.8718 0.2459
H9 H 0.1780 0.8094 0.2344
C14 C 0.1293(11) 0.4690(12) 0.1982(6)
H10 H 0.1831 0.4078 0.2072
C15 C 0.1327(9) 0.5159(9) 0.1549(5)
H11 H 0.1895 0.4865 0.1322
C16 C 0.0648(8) 0.6017(8) 0.1387(3)
C17 C -0.0190(10) 0.6458(12) 0.1696(4)
H12 H -0.0716 0.7060 0.1581
C18 C -0.0254(12) 0.5990(18) 0.2197(5)
H13 H -0.0787 0.6313 0.2432
C19 C 0.0662(8) 0.6615(8) 0.0860(4)
C20 C 0.1569(7) 0.6595(6) 0.0085(3)
C21 C 0.2647(6) 0.7140(6) -0.0022(3)
C22 C 0.2800(7) 0.7429(6) -0.0535(3)
H14 H 0.3510 0.7825 -0.0620
C23 C 0.1970(8) 0.7166(7) -0.0924(3)
C24 C 0.0913(8) 0.6624(7) -0.0777(3)
H15 H 0.0316 0.6449 -0.1032
C25 C 0.0704(7) 0.6335(6) -0.0282(3)
H16 H -0.0019 0.5964 -0.0195
C26 C 0.2186(9) 0.7427(10) -0.1454(3)
H17 H 0.1497 0.7176 -0.1668
H18 H 0.2302 0.8266 -0.1493
H19 H 0.2904 0.7015 -0.1557
C27 C 0.3550(6) 0.7484(7) 0.0391(3)
H20 H 0.3881 0.6770 0.0553
H21 H 0.4218 0.7897 0.0233
C28 C 0.3718(10) 1.1112(10) 0.3081(4)
H22 H 0.3165 1.1345 0.3327
C29 C 0.3571(9) 1.1557(8) 0.2618(4)
H23 H 0.2947 1.2097 0.2541
C30 C 0.4335(9) 1.1222(7) 0.2254(3)
C31 C 0.5237(10) 1.0446(10) 0.2410(5)
H24 H 0.5801 1.0178 0.2175
C32 C 0.5294(11) 1.0077(9) 0.2911(6)
H25 H 0.5924 0.9568 0.3017
C33 C 0.4210(8) 1.1656(8) 0.1722(3)
C34 C 0.3338(7) 1.2590(6) 0.1039(2)
C35 C 0.2424(6) 1.2141(6) 0.0738(2)
C36 C 0.2282(6) 1.2595(5) 0.0251(2)
H26 H 0.1636 1.2326 0.0036
C37 C 0.3041(7) 1.3420(6) 0.0066(3)
C38 C 0.3933(7) 1.3831(7) 0.0395(3)
H27 H 0.4464 1.4410 0.0278
C39 C 0.4075(7) 1.3434(7) 0.0878(3)
H28 H 0.4684 1.3743 0.1101
C40 C 0.2900(8) 1.3852(7) -0.0477(3)
H29 H 0.3518 1.4435 -0.0539
H30 H 0.2985 1.3199 -0.0712
H31 H 0.2107 1.4204 -0.0531
C41 C 0.1559(6) 1.1229(6) 0.0922(2)
H32 H 0.1178 1.1534 0.1229
H33 H 0.0920 1.1119 0.0655
O1B O 0.9173(9) 1.0359(9) 0.0047(3)
O2B O 0.7433(6) 1.0253(4) -0.01815(18)
O3B O 1.0024(6) 1.2654(6) -0.0717(2)
O4B O 0.8495(5) 1.3858(5) -0.0579(2)
O5B O 0.4905(7) 0.8695(8) -0.1412(3)
O6B O 0.6586(6) 0.7775(6) -0.1582(2)
N1B N 0.7415(9) 0.8924(6) 0.1607(2)
N2B N 0.9542(12) 1.4928(14) -0.2335(5)
N3B N 0.5442(10) 0.9620(8) -0.3231(3)
C1B C 0.8403(10) 0.9274(9) 0.1395(6)
H1B H 0.9123 0.9260 0.1599
C2B C 0.8466(15) 0.9644(11) 0.0917(7)
H2B H 0.9220 0.9899 0.0805
C3B C 0.767(2) 0.9672(11) 0.0635(5)
C4B C 0.6525(15) 0.9358(10) 0.0778(6)
H3B H 0.5839 0.9415 0.0554
C5B C 0.6478(10) 0.8940(9) 0.1292(6)
H4B H 0.5736 0.8664 0.1409
C6B C 0.8169(13) 1.0096(11) 0.0126(5)
C7B C 0.7439(6) 1.0658(6) -0.0689(2)
C8B C 0.6935(6) 1.1756(6) -0.0798(2)
C9B C 0.6899(7) 1.2081(7) -0.1301(3)
H5B H 0.6525 1.2796 -0.1394
C10B C 0.7392(8) 1.1403(7) -0.1684(3)
C11B C 0.7887(7) 1.0362(7) -0.1555(3)
H6B H 0.8232 0.9905 -0.1813
C12B C 0.7910(6) 0.9933(6) -0.1050(2)
C13B C 0.7393(8) 1.1836(8) -0.2237(3)
H7B H 0.7001 1.2597 -0.2260
H8B H 0.6959 1.1282 -0.2459
H9B H 0.8220 1.1906 -0.2344
C14B C 0.8707(11) 1.5310(12) -0.1982(6)
H10B H 0.8169 1.5922 -0.2072
C15B C 0.8673(9) 1.4841(9) -0.1549(5)
H11B H 0.8105 1.5135 -0.1322
C16B C 0.9352(8) 1.3983(8) -0.1387(3)
C17B C 1.0190(10) 1.3542(12) -0.1696(4)
H12B H 1.0716 1.2940 -0.1581
C18B C 1.0254(12) 1.4010(18) -0.2197(5)
H13B H 1.0787 1.3687 -0.2432
C19B C 0.9338(8) 1.3385(8) -0.0860(4)
C20B C 0.8431(7) 1.3405(6) -0.0085(3)
C21B C 0.7353(6) 1.2860(6) 0.0022(3)
C22B C 0.7200(7) 1.2571(6) 0.0535(3)
H14B H 0.6490 1.2175 0.0620
C23B C 0.8030(8) 1.2834(7) 0.0924(3)
C24B C 0.9087(8) 1.3376(7) 0.0777(3)
H15B H 0.9684 1.3551 0.1032
C25B C 0.9296(7) 1.3665(6) 0.0282(3)
H16B H 1.0019 1.4036 0.0195
C26B C 0.7814(9) 1.2573(10) 0.1454(3)
H17B H 0.8503 1.2824 0.1668
H18B H 0.7698 1.1734 0.1493
H19B H 0.7096 1.2985 0.1557
C27B C 0.6450(6) 1.2516(7) -0.0391(3)
H20B H 0.6119 1.3230 -0.0553
H21B H 0.5782 1.2103 -0.0233
C28B C 0.6282(10) 0.8888(10) -0.3081(4)
H22B H 0.6835 0.8655 -0.3327
C29B C 0.6429(9) 0.8443(8) -0.2618(4)
H23B H 0.7053 0.7903 -0.2541
C30B C 0.5665(9) 0.8778(7) -0.2254(3)
C31B C 0.4763(10) 0.9554(10) -0.2410(5)
H24B H 0.4199 0.9822 -0.2175
C32B C 0.4706(11) 0.9923(9) -0.2911(6)
H25B H 0.4076 1.0432 -0.3017
C33B C 0.5790(8) 0.8344(8) -0.1722(3)
C34B C 0.6662(7) 0.7410(6) -0.1039(2)
C35B C 0.7576(6) 0.7859(6) -0.0738(2)
C36B C 0.7718(6) 0.7405(5) -0.0251(2)
H26B H 0.8364 0.7674 -0.0036
C37B C 0.6959(7) 0.6580(6) -0.0066(3)
C38B C 0.6067(7) 0.6169(7) -0.0395(3)
H27B H 0.5536 0.5590 -0.0278
C39B C 0.5925(7) 0.6566(7) -0.0878(3)
H28B H 0.5316 0.6257 -0.1101
C40B C 0.7100(8) 0.6148(7) 0.0477(3)
H29B H 0.6482 0.5565 0.0539
H30B H 0.7015 0.6801 0.0712
H31B H 0.7893 0.5796 0.0531
C41B C 0.8441(6) 0.8771(6) -0.0922(2)
H32B H 0.8822 0.8466 -0.1229
H33B H 0.9080 0.8881 -0.0655
O7? O 0.4259(10) 1.0125(10) 0.0114(4)
C42? C 0.3244(14) 1.0075(13) -0.0082(5)
loop_
_geom_bond_atom_site_label_1
_geom_bond_atom_site_label_2
_geom_bond_site_symmetry_1
_geom_bond_site_symmetry_2
O1 C6 1_555 1_555
O2 C6 1_555 1_555
O3 C19 1_555 1_555
O4 C19 1_555 1_555
O5 C33 1_555 1_555
O6 C33 1_555 1_555
N1 C1 1_555 1_555
N2 C14 1_555 1_555
N3 C28 1_555 1_555
C1 H1 1_555 1_555
C2 C1 1_555 1_555
H2 C2 1_555 1_555
C3 C2 1_555 1_555
C4 C3 1_555 1_555
H3 C4 1_555 1_555
C5 N1 1_555 1_555
H4 C5 1_555 1_555
C6 C3 1_555 1_555
C7 O2 1_555 1_555
C8 C7 1_555 1_555
C9 C8 1_555 1_555
H5 C9 1_555 1_555
C10 C9 1_555 1_555
C11 C10 1_555 1_555
H6 C11 1_555 1_555
C12 C7 1_555 1_555
C13 C10 1_555 1_555
H7 C13 1_555 1_555
H8 C13 1_555 1_555
H9 C13 1_555 1_555
C14 H10 1_555 1_555
C15 C14 1_555 1_555
H11 C15 1_555 1_555
C16 C15 1_555 1_555
C17 C16 1_555 1_555
H12 C17 1_555 1_555
C18 N2 1_555 1_555
H13 C18 1_555 1_555
C19 C16 1_555 1_555
C20 O4 1_555 1_555
C21 C20 1_555 1_555
C22 C21 1_555 1_555
H14 C22 1_555 1_555
C23 C22 1_555 1_555
C24 C23 1_555 1_555
H15 C24 1_555 1_555
C25 C20 1_555 1_555
H16 C25 1_555 1_555
C26 C23 1_555 1_555
H17 C26 1_555 1_555
H18 C26 1_555 1_555
H19 C26 1_555 1_555
C27 C8 1_555 1_555
H20 C27 1_555 1_555
H21 C27 1_555 1_555
C28 H22 1_555 1_555
C29 C28 1_555 1_555
H23 C29 1_555 1_555
C30 C29 1_555 1_555
C31 C30 1_555 1_555
H24 C31 1_555 1_555
C32 N3 1_555 1_555
H25 C32 1_555 1_555
C33 C30 1_555 1_555
C34 O6 1_555 1_555
C35 C34 1_555 1_555
C36 C35 1_555 1_555
H26 C36 1_555 1_555
C37 C36 1_555 1_555
C38 C37 1_555 1_555
H27 C38 1_555 1_555
C39 C34 1_555 1_555
H28 C39 1_555 1_555
C40 C37 1_555 1_555
H29 C40 1_555 1_555
H30 C40 1_555 1_555
H31 C40 1_555 1_555
C41 C12 1_555 1_555
H32 C41 1_555 1_555
H33 C41 1_555 1_555
O1B C6B 1_555 1_555
O2B C6B 1_555 1_555
O3B C19B 1_555 1_555
O4B C19B 1_555 1_555
O5B C33B 1_555 1_555
O6B C33B 1_555 1_555
N1B C1B 1_555 1_555
N2B C14B 1_555 1_555
N3B C28B 1_555 1_555
C1B H1B 1_555 1_555
C2B C1B 1_555 1_555
H2B C2B 1_555 1_555
C3B C2B 1_555 1_555
C4B C3B 1_555 1_555
H3B C4B 1_555 1_555
C5B N1B 1_555 1_555
H4B C5B 1_555 1_555
C6B C3B 1_555 1_555
C7B O2B 1_555 1_555
C8B C7B 1_555 1_555
C9B C8B 1_555 1_555
H5B C9B 1_555 1_555
C10B C9B 1_555 1_555
C11B C10B 1_555 1_555
H6B C11B 1_555 1_555
C12B C7B 1_555 1_555
C13B C10B 1_555 1_555
H7B C13B 1_555 1_555
H8B C13B 1_555 1_555
H9B C13B 1_555 1_555
C14B H10B 1_555 1_555
C15B C14B 1_555 1_555
H11B C15B 1_555 1_555
C16B C15B 1_555 1_555
C17B C16B 1_555 1_555
H12B C17B 1_555 1_555
C18B N2B 1_555 1_555
H13B C18B 1_555 1_555
C19B C16B 1_555 1_555
C20B O4B 1_555 1_555
C21B C20B 1_555 1_555
C22B C21B 1_555 1_555
H14B C22B 1_555 1_555
C23B C22B 1_555 1_555
C24B C23B 1_555 1_555
H15B C24B 1_555 1_555
C25B C20B 1_555 1_555
H16B C25B 1_555 1_555
C26B C23B 1_555 1_555
H17B C26B 1_555 1_555
H18B C26B 1_555 1_555
H19B C26B 1_555 1_555
C27B C8B 1_555 1_555
H20B C27B 1_555 1_555
H21B C27B 1_555 1_555
C28B H22B 1_555 1_555
C29B C28B 1_555 1_555
H23B C29B 1_555 1_555
C30B C29B 1_555 1_555
C31B C30B 1_555 1_555
H24B C31B 1_555 1_555
C32B N3B 1_555 1_555
H25B C32B 1_555 1_555
C33B C30B 1_555 1_555
C34B O6B 1_555 1_555
C35B C34B 1_555 1_555
C36B C35B 1_555 1_555
H26B C36B 1_555 1_555
C37B C36B 1_555 1_555
C38B C37B 1_555 1_555
H27B C38B 1_555 1_555
C39B C34B 1_555 1_555
H28B C39B 1_555 1_555
C40B C37B 1_555 1_555
H29B C40B 1_555 1_555
H30B C40B 1_555 1_555
H31B C40B 1_555 1_555
C41B C12B 1_555 1_555
H32B C41B 1_555 1_555
H33B C41B 1_555 1_555
C4 C5 1_555 1_555
C11 C12 1_555 1_555
C17 C18 1_555 1_555
C21 C27 1_555 1_555
C24 C25 1_555 1_555
C31 C32 1_555 1_555
C35 C41 1_555 1_555
C38 C39 1_555 1_555
C4B C5B 1_555 1_555
C11B C12B 1_555 1_555
C17B C18B 1_555 1_555
C21B C27B 1_555 1_555
C24B C25B 1_555 1_555
C31B C32B 1_555 1_555
C35B C41B 1_555 1_555
C38B C39B 1_555 1_555

#END
