
#######################################################################
#
#                 Cambridge Crystallographic Data Centre
#                                CCDC 
#
#######################################################################
#
# If this CIF has been generated from an entry in the Cambridge 
# Structural Database, then it will include bibliographic, chemical, 
# crystal, experimental, refinement or atomic coordinate data resulting 
# from the CCDC's data processing and validation procedures.
#
#######################################################################

data_FACMED
_chemical_formula_moiety         'C74 H74 O14,2(C2 H3 N1)'
_chemical_name_systematic        
"Di-t-butyl 4,4'-(2,5,8,11,14,25,28,31,34,37-decaoxatetracyclo[36.2.2.0^15,20^.0^19,24^]dotetraconta-1(40),15,17,19,21,23,38,41-octaene-39,41-diylbis(ethyne-2,1-diyl-4,1-phenyleneethyne-2,1-diyl))dibenzoate acetonitrile solvate"
_symmetry_cell_setting           triclinic
_symmetry_space_group_name_H-M   'P -1'
_symmetry_Int_Tables_number      2
_space_group_name_Hall           '-P 1'
loop_
_symmetry_equiv_pos_site_id
_symmetry_equiv_pos_as_xyz
1 x,y,z
2 -x,-y,-z
_cell_length_a                   10.8058(17)
_cell_length_b                   11.873(3)
_cell_length_c                   27.000(5)
_cell_angle_alpha                92.247(16)
_cell_angle_beta                 90.886(13)
_cell_angle_gamma                91.194(14)
_cell_volume                     3460.15
_cell_formula_units_Z            2
loop_
_atom_site_label
_atom_site_type_symbol
_atom_site_fract_x
_atom_site_fract_y
_atom_site_fract_z
O1 O 0.5293(4) 0.2490(4) 1.04138(17)
O2 O 0.6167(3) 0.0410(4) 1.07313(15)
O3 O 0.7865(3) -0.1347(5) 1.08476(16)
O4 O 0.9430(4) -0.3846(4) 1.03784(16)
O5 O 0.9389(3) -0.2163(4) 0.95402(16)
O6 O 0.7899(3) 0.1588(4) 0.82750(17)
O7 O 0.6783(4) 0.2674(5) 0.7436(2)
O8 O 0.5935(4) 0.4840(5) 0.71430(18)
O9 O 0.7145(4) 0.6105(5) 0.79604(18)
O10 O 0.6005(4) 0.5073(5) 0.87882(17)
O11 O 1.2578(8) 0.3693(7) 1.5401(3)
O12 O 1.2965(4) 0.5492(6) 1.52663(18)
O13 O -0.2134(4) 0.0646(5) 0.4089(2)
O14 O -0.3350(4) -0.0397(5) 0.45792(16)
C1 C 0.5414(6) 0.3093(7) 1.0002(3)
C2 C 0.6260(6) 0.4001(7) 1.0053(3)
C3 C 0.6474(5) 0.4678(6) 0.9653(3)
H1 H 0.7051 0.5292 0.9687
C4 C 0.5856(6) 0.4467(7) 0.9207(3)
C5 C 0.4998(6) 0.3554(7) 0.9159(3)
C6 C 0.4802(5) 0.2894(6) 0.9559(3)
H2 H 0.4224 0.2281 0.9527
C7 C 0.4583(6) 0.1451(7) 1.0380(2)
H3 H 0.4770 0.1018 1.0070
H4 H 0.3686 0.1601 1.0384
C8 C 0.4955(5) 0.0816(6) 1.0820(3)
H5 H 0.4958 0.1315 1.1123
H6 H 0.4370 0.0178 1.0866
C9 C 0.6881(5) 0.0269(7) 1.1172(2)
H7 H 0.6440 -0.0245 1.1393
H8 H 0.7019 0.1005 1.1352
C10 C 0.8091(6) -0.0218(7) 1.1023(3)
H9 H 0.8464 0.0227 1.0758
H10 H 0.8673 -0.0200 1.1310
C11 C 0.8956(5) -0.1949(6) 1.0722(2)
H11 H 0.9459 -0.2087 1.1022
H12 H 0.9468 -0.1524 1.0489
C12 C 0.8484(5) -0.3044(6) 1.0482(3)
H13 H 0.7869 -0.3387 1.0702
H14 H 0.8051 -0.2881 1.0167
C13 C 1.0399(5) -0.3477(7) 1.0059(2)
H15 H 1.1034 -0.4065 1.0042
H16 H 1.0796 -0.2787 1.0213
C14 C 1.0006(6) -0.3231(6) 0.9546(2)
H17 H 1.0739 -0.3207 0.9331
H18 H 0.9437 -0.3839 0.9413
C15 C 0.9214(6) -0.1683(7) 0.9093(3)
C16 C 0.8662(5) -0.0590(7) 0.9119(3)
C17 C 0.8269(5) -0.0119(7) 0.9583(3)
H19 H 0.7689 -0.0669 0.9727
C18 C 0.7707(5) 0.0907(7) 0.9590(3)
H21 H 0.7404 0.1212 0.9894
C19 C 0.7572(5) 0.1510(6) 0.9162(3)
H22 H 0.7211 0.2233 0.9179
C20 C 0.7956(5) 0.1069(7) 0.8715(3)
C21 C 0.8482(5) -0.0026(6) 0.8683(3)
C22 C 0.8851(6) -0.0521(7) 0.8223(3)
H23 H 0.8752 -0.0127 0.7926
C23 C 0.9355(6) -0.1581(7) 0.8211(3)
H24 H 0.9567 -0.1929 0.7902
C24 C 0.9558(5) -0.2147(6) 0.8648(3)
H25 H 0.9938 -0.2861 0.8634
C25 C 0.7443(6) 0.2706(6) 0.8281(3)
H26 H 0.7897 0.3179 0.8536
H27 H 0.6554 0.2695 0.8365
C26 C 0.7607(6) 0.3192(7) 0.7785(3)
H28 H 0.7459 0.4012 0.7808
H29 H 0.8468 0.3081 0.7676
C27 C 0.6929(8) 0.3073(8) 0.6951(3)
H30 H 0.7752 0.3452 0.6940
H31 H 0.6946 0.2408 0.6719
C28 C 0.6130(19) 0.3749(19) 0.6785(7)
H32 H 0.5328 0.3339 0.6737
H33 H 0.6398 0.3998 0.6457
C29 C 0.6821(17) 0.562(2) 0.7073(6)
H34 H 0.6664 0.5963 0.6751
H35 H 0.7627 0.5237 0.7053
C30 C 0.6925(10) 0.6587(9) 0.7491(3)
H36 H 0.7612 0.7115 0.7417
H37 H 0.6148 0.7014 0.7500
C31 C 0.6557(6) 0.6677(7) 0.8354(3)
H38 H 0.5658 0.6713 0.8281
H39 H 0.6893 0.7458 0.8392
C32 C 0.6756(6) 0.6086(7) 0.8823(3)
H40 H 0.7640 0.5901 0.8864
H41 H 0.6509 0.6568 0.9110
C33 C 0.6861(5) 0.4223(6) 1.0527(3)
C34 C 0.7290(6) 0.4309(6) 1.0943(3)
C35 C 0.7850(6) 0.4327(7) 1.1427(3)
C36 C 0.7356(6) 0.3671(7) 1.1793(3)
H42 H 0.6627 0.3232 1.1718
C37 C 0.7874(6) 0.3634(6) 1.2254(3)
H43 H 0.7505 0.3180 1.2496
C38 C 0.8960(6) 0.4272(7) 1.2372(3)
C39 C 0.9466(6) 0.4918(7) 1.2013(3)
H44 H 1.0204 0.5344 1.2088
C40 C 0.8933(5) 0.4965(6) 1.1548(2)
H45 H 0.9297 0.5428 1.1308
C41 C 0.9517(6) 0.4246(6) 1.2862(3)
C42 C 0.9991(6) 0.4227(7) 1.3264(3)
C43 C 1.0607(6) 0.4282(9) 1.3749(3)
C44 C 1.1032(6) 0.3323(8) 1.3954(3)
H46 H 1.0921 0.2610 1.3785
C45 C 1.1635(7) 0.3416(9) 1.4420(3)
H47 H 1.1890 0.2753 1.4576
C46 C 1.1860(6) 0.4449(8) 1.4653(3)
C47 C 1.1431(6) 0.5374(8) 1.4449(3)
H48 H 1.1553 0.6086 1.4618
C48 C 1.0811(7) 0.5312(8) 1.3996(3)
H49 H 1.0525 0.5981 1.3855
C49 C 1.2532(8) 0.4503(11) 1.5149(3)
C50 C 1.3629(6) 0.5734(8) 1.5741(3)
C51 C 1.2705(12) 0.5850(16) 1.6125(5)
H50 H 1.2285 0.5121 1.6166
H51 H 1.2096 0.6406 1.6029
H52 H 1.3110 0.6102 1.6438
C52 C 1.4621(10) 0.4803(12) 1.5861(5)
H53 H 1.5220 0.4752 1.5592
H54 H 1.4198 0.4071 1.5890
H55 H 1.5054 0.5014 1.6173
C53 C 1.4316(12) 0.6816(12) 1.5636(5)
H56 H 1.4773 0.7089 1.5935
H57 H 1.3724 0.7384 1.5539
H58 H 1.4899 0.6677 1.5367
C54 C 0.4333(6) 0.3369(6) 0.8708(3)
C55 C 0.3724(6) 0.3194(6) 0.8332(3)
C56 C 0.2925(6) 0.2954(7) 0.7907(3)
C57 C 0.1917(6) 0.2201(7) 0.7947(3)
H59 H 0.1766 0.1852 0.8252
C58 C 0.1143(6) 0.1970(6) 0.7541(3)
H60 H 0.0450 0.1473 0.7571
C59 C 0.1368(6) 0.2453(7) 0.7095(3)
C60 C 0.2361(6) 0.3234(7) 0.7057(3)
H61 H 0.2496 0.3605 0.6757
C61 C 0.3132(6) 0.3452(7) 0.7462(3)
H62 H 0.3820 0.3955 0.7435
C62 C 0.0645(6) 0.2120(7) 0.6656(3)
C63 C 0.0124(6) 0.1797(7) 0.6280(3)
C64 C -0.0477(6) 0.1406(7) 0.5828(3)
C65 C -0.1390(6) 0.0547(7) 0.5844(3)
H63 H -0.1596 0.0230 0.6151
C66 C -0.1991(6) 0.0164(7) 0.5406(3)
H64 H -0.2600 -0.0423 0.5415
C67 C -0.1711(6) 0.0625(7) 0.4962(3)
C68 C -0.0781(6) 0.1462(7) 0.4940(3)
H65 H -0.0572 0.1773 0.4633
C69 C -0.0172(6) 0.1827(7) 0.5374(3)
H66 H 0.0472 0.2381 0.5360
C70 C -0.2377(7) 0.0305(7) 0.4491(3)
C71 C -0.4235(6) -0.0788(7) 0.4179(3)
C72 C -0.3541(6) -0.1476(7) 0.3787(3)
H67 H -0.2992 -0.0975 0.3607
H68 H -0.4138 -0.1849 0.3554
H69 H -0.3049 -0.2046 0.3948
C73 C -0.4900(6) 0.0193(7) 0.3972(3)
H70 H -0.5214 0.0669 0.4245
H71 H -0.5593 -0.0086 0.3760
H72 H -0.4325 0.0637 0.3776
C74 C -0.5104(6) -0.1554(7) 0.4467(3)
H73 H -0.5474 -0.1115 0.4739
H74 H -0.4633 -0.2172 0.4602
H75 H -0.5760 -0.1864 0.4244
N1 N 0.4163(8) -0.1449(9) 0.7529(4)
C75 C 0.4779(9) -0.0669(11) 0.7553(4)
C76 C 0.5589(10) 0.0298(11) 0.7593(4)
H76 H 0.6230 0.0232 0.7342
H77 H 0.5978 0.0347 0.7924
H78 H 0.5113 0.0979 0.7542
N2 N -0.1195(9) 0.9101(7) 0.6937(3)
C77 C -0.0139(11) 0.9072(8) 0.6968(3)
C78 C 0.1169(9) 0.9017(8) 0.7003(3)
H79 H 0.1438 0.8300 0.6853
H80 H 0.1431 0.9071 0.7352
H81 H 0.1543 0.9643 0.6827
H20? H 0.9003 -0.0051 0.9807
C79? C 0.6929(8) 0.3073(8) 0.6951(3)
H82? H 0.6258 0.2742 0.6735
H83? H 0.7725 0.2802 0.6819
C80? C 0.6912(13) 0.4391(14) 0.6922(5)
H84? H 0.7678 0.4718 0.7080
H85? H 0.6907 0.4592 0.6569
C81? C 0.6028(16) 0.6139(14) 0.7207(6)
H86? H 0.6111 0.6447 0.6874
H87? H 0.5233 0.6404 0.7341
C82? C 0.6925(10) 0.6587(9) 0.7491(3)
H88? H 0.6747 0.7395 0.7552
H89? H 0.7701 0.6549 0.7302
C83? C 1.321(2) 0.515(3) 1.6177(8)
H90? H 1.3336 0.4336 1.6126
H91? H 1.2325 0.5281 1.6225
H92? H 1.3680 0.5429 1.6470
C84? C 1.4905(19) 0.571(3) 1.5600(9)
H93? H 1.5113 0.4934 1.5494
H94? H 1.5433 0.5955 1.5883
H95? H 1.5039 0.6209 1.5325
C85? C 1.322(2) 0.706(2) 1.5850(9)
H96? H 1.3759 0.7414 1.6108
H97? H 1.2357 0.7072 1.5961
H98? H 1.3289 0.7478 1.5545
loop_
_geom_bond_atom_site_label_1
_geom_bond_atom_site_label_2
_geom_bond_site_symmetry_1
_geom_bond_site_symmetry_2
O1 C1 1_555 1_555
O2 C8 1_555 1_555
O3 C10 1_555 1_555
O4 C12 1_555 1_555
O5 C14 1_555 1_555
O6 C20 1_555 1_555
O7 C26 1_555 1_555
O8 C28 1_555 1_555
O9 C30 1_555 1_555
O10 C4 1_555 1_555
O11 C49 1_555 1_555
O12 C49 1_555 1_555
O13 C70 1_555 1_555
O14 C70 1_555 1_555
C1 C2 1_555 1_555
C2 C3 1_555 1_555
C3 H1 1_555 1_555
C4 C3 1_555 1_555
C5 C4 1_555 1_555
C6 C1 1_555 1_555
H2 C6 1_555 1_555
C7 O1 1_555 1_555
H3 C7 1_555 1_555
H4 C7 1_555 1_555
C8 C7 1_555 1_555
H5 C8 1_555 1_555
H6 C8 1_555 1_555
C9 O2 1_555 1_555
H7 C9 1_555 1_555
H8 C9 1_555 1_555
C10 C9 1_555 1_555
H9 C10 1_555 1_555
H10 C10 1_555 1_555
C11 O3 1_555 1_555
H11 C11 1_555 1_555
H12 C11 1_555 1_555
C12 C11 1_555 1_555
H13 C12 1_555 1_555
H14 C12 1_555 1_555
C13 O4 1_555 1_555
H15 C13 1_555 1_555
H16 C13 1_555 1_555
C14 C13 1_555 1_555
H17 C14 1_555 1_555
H18 C14 1_555 1_555
C15 O5 1_555 1_555
C16 C15 1_555 1_555
C17 C16 1_555 1_555
H19 C17 1_555 1_555
C18 C17 1_555 1_555
H21 C18 1_555 1_555
C19 C18 1_555 1_555
H22 C19 1_555 1_555
C20 C19 1_555 1_555
C21 C16 1_555 1_555
C22 C21 1_555 1_555
H23 C22 1_555 1_555
C23 C22 1_555 1_555
H24 C23 1_555 1_555
C24 C15 1_555 1_555
H25 C24 1_555 1_555
C25 O6 1_555 1_555
H26 C25 1_555 1_555
H27 C25 1_555 1_555
C26 C25 1_555 1_555
H28 C26 1_555 1_555
H29 C26 1_555 1_555
C27 O7 1_555 1_555
H30 C27 1_555 1_555
H31 C27 1_555 1_555
C28 C27 1_555 1_555
H32 C28 1_555 1_555
H33 C28 1_555 1_555
C29 O8 1_555 1_555
H34 C29 1_555 1_555
H35 C29 1_555 1_555
C30 C29 1_555 1_555
H36 C30 1_555 1_555
H37 C30 1_555 1_555
C31 O9 1_555 1_555
H38 C31 1_555 1_555
H39 C31 1_555 1_555
C32 O10 1_555 1_555
H40 C32 1_555 1_555
H41 C32 1_555 1_555
C33 C2 1_555 1_555
C34 C33 1_555 1_555
C35 C34 1_555 1_555
C36 C35 1_555 1_555
H42 C36 1_555 1_555
C37 C36 1_555 1_555
H43 C37 1_555 1_555
C38 C37 1_555 1_555
C39 C38 1_555 1_555
H44 C39 1_555 1_555
C40 C35 1_555 1_555
H45 C40 1_555 1_555
C41 C38 1_555 1_555
C42 C41 1_555 1_555
C43 C42 1_555 1_555
C44 C43 1_555 1_555
H46 C44 1_555 1_555
C45 C44 1_555 1_555
H47 C45 1_555 1_555
C46 C45 1_555 1_555
C47 C46 1_555 1_555
H48 C47 1_555 1_555
C48 C43 1_555 1_555
H49 C48 1_555 1_555
C49 C46 1_555 1_555
C50 O12 1_555 1_555
C51 C50 1_555 1_555
H50 C51 1_555 1_555
H51 C51 1_555 1_555
H52 C51 1_555 1_555
C52 C50 1_555 1_555
H53 C52 1_555 1_555
H54 C52 1_555 1_555
H55 C52 1_555 1_555
C53 C50 1_555 1_555
H56 C53 1_555 1_555
H57 C53 1_555 1_555
H58 C53 1_555 1_555
C54 C5 1_555 1_555
C55 C54 1_555 1_555
C56 C55 1_555 1_555
C57 C56 1_555 1_555
H59 C57 1_555 1_555
C58 C57 1_555 1_555
H60 C58 1_555 1_555
C59 C58 1_555 1_555
C60 C59 1_555 1_555
H61 C60 1_555 1_555
C61 C56 1_555 1_555
H62 C61 1_555 1_555
C62 C59 1_555 1_555
C63 C62 1_555 1_555
C64 C63 1_555 1_555
C65 C64 1_555 1_555
H63 C65 1_555 1_555
C66 C65 1_555 1_555
H64 C66 1_555 1_555
C67 C66 1_555 1_555
C68 C67 1_555 1_555
H65 C68 1_555 1_555
C69 C64 1_555 1_555
H66 C69 1_555 1_555
C70 C67 1_555 1_555
C71 O14 1_555 1_555
C72 C71 1_555 1_555
H67 C72 1_555 1_555
H68 C72 1_555 1_555
H69 C72 1_555 1_555
C73 C71 1_555 1_555
H70 C73 1_555 1_555
H71 C73 1_555 1_555
H72 C73 1_555 1_555
C74 C71 1_555 1_555
H73 C74 1_555 1_555
H74 C74 1_555 1_555
H75 C74 1_555 1_555
N1 C75 1_555 1_555
C75 C76 1_555 1_555
C76 H76 1_555 1_555
H77 C76 1_555 1_555
H78 C76 1_555 1_555
N2 C77 1_555 1_555
C77 C78 1_555 1_555
C78 H79 1_555 1_555
H80 C78 1_555 1_555
H81 C78 1_555 1_555
C5 C6 1_555 1_555
C20 C21 1_555 1_555
C23 C24 1_555 1_555
C31 C32 1_555 1_555
C39 C40 1_555 1_555
C47 C48 1_555 1_555
C60 C61 1_555 1_555
C68 C69 1_555 1_555

#END
