
#######################################################################
#
#                 Cambridge Crystallographic Data Centre
#                                CCDC 
#
#######################################################################
#
# If this CIF has been generated from an entry in the Cambridge 
# Structural Database, then it will include bibliographic, chemical, 
# crystal, experimental, refinement or atomic coordinate data resulting 
# from the CCDC's data processing and validation procedures.
#
#######################################################################

data_FACPEG
_chemical_formula_moiety         'C27 H24 N1 1+,Br1 1-'
_chemical_name_systematic        
'1-Butyl-4-(2-(pyren-1-yl)vinyl)pyridinium bromide'
_symmetry_cell_setting           orthorhombic
_symmetry_space_group_name_H-M   'P 21 21 21'
_symmetry_Int_Tables_number      19
_space_group_name_Hall           'P 2ac 2ab'
loop_
_symmetry_equiv_pos_site_id
_symmetry_equiv_pos_as_xyz
1 x,y,z
2 1/2-x,-y,1/2+z
3 -x,1/2+y,1/2-z
4 1/2+x,1/2-y,-z
_cell_length_a                   9.3984(5)
_cell_length_b                   9.7875(5)
_cell_length_c                   22.8417(11)
_cell_angle_alpha                90
_cell_angle_beta                 90
_cell_angle_gamma                90
_cell_volume                     2101.14
_exptl_crystal_colour            orange
_exptl_crystal_description       block
_cell_formula_units_Z            4
_exptl_crystal_recrystallization_method ethanol
loop_
_atom_site_label
_atom_site_type_symbol
_atom_site_fract_x
_atom_site_fract_y
_atom_site_fract_z
Br1 Br 0.49028(3) 0.39453(2) 0.317217(10)
N1 N 0.2684(2) -0.1650(2) 0.33751(9)
C1 C 0.2721(3) 0.3666(3) 0.51441(10)
C2 C 0.2064(3) 0.3214(3) 0.56616(11)
H1 H 0.1752 0.2303 0.5685
C3 C 0.1862(3) 0.4072(3) 0.61399(11)
H2 H 0.1427 0.3730 0.6480
C4 C 0.2290(3) 0.5411(3) 0.61213(10)
C5 C 0.2031(3) 0.6323(3) 0.66007(11)
H3 H 0.1585 0.5992 0.6941
C6 C 0.2421(3) 0.7657(3) 0.65716(12)
H4 H 0.2200 0.8242 0.6885
C7 C 0.3159(3) 0.8191(3) 0.60758(11)
C8 C 0.3631(3) 0.9554(3) 0.60445(12)
H5 H 0.3432 1.0158 0.6354
C9 C 0.4382(3) 1.0012(3) 0.55655(12)
H6 H 0.4719 1.0916 0.5560
C10 C 0.4648(3) 0.9179(2) 0.50969(11)
H7 H 0.5149 0.9523 0.4772
C11 C 0.4180(2) 0.7812(3) 0.50960(10)
C12 C 0.4413(3) 0.6888(3) 0.46126(10)
H8 H 0.4907 0.7206 0.4282
C13 C 0.3945(2) 0.5577(3) 0.46195(10)
H9 H 0.4097 0.5018 0.4291
C14 C 0.3217(3) 0.5024(2) 0.51230(9)
C15 C 0.2987(2) 0.5903(3) 0.56114(9)
C16 C 0.3436(3) 0.7293(2) 0.55920(10)
C17 C 0.2870(3) 0.2736(3) 0.46432(10)
H10 H 0.3500 0.2983 0.4342
C18 C 0.2150(3) 0.1539(3) 0.45915(11)
H11 H 0.1454 0.1363 0.4877
C19 C 0.1865(3) -0.1801(3) 0.38557(10)
H12 H 0.1415 -0.2642 0.3928
C20 C 0.1682(3) -0.0739(3) 0.42393(11)
H13 H 0.1104 -0.0860 0.4571
C21 C 0.2335(3) 0.0506(3) 0.41447(10)
C22 C 0.3142(3) 0.0646(3) 0.36299(11)
H14 H 0.3576 0.1486 0.3542
C23 C 0.3296(3) -0.0430(3) 0.32588(11)
H15 H 0.3836 -0.0323 0.2916
C24 C 0.2892(3) -0.2861(3) 0.29782(12)
H16 H 0.3246 -0.3635 0.3208
H17 H 0.3611 -0.2639 0.2682
C25 C 0.1526(4) -0.3267(3) 0.26764(12)
H18 H 0.0827 -0.3546 0.2972
H19 H 0.1709 -0.4054 0.2422
C26 C 0.0898(4) -0.2083(4) 0.23051(16)
H20 H 0.0570 -0.1350 0.2564
H21 H 0.1637 -0.1709 0.2048
C27 C -0.0347(4) -0.2603(7) 0.19357(18)
H22 H -0.0004 -0.3277 0.1658
H23 H -0.0771 -0.1844 0.1725
H24 H -0.1054 -0.3016 0.2189
loop_
_geom_bond_atom_site_label_1
_geom_bond_atom_site_label_2
_geom_bond_site_symmetry_1
_geom_bond_site_symmetry_2
N1 C19 1_555 1_555
C1 C2 1_555 1_555
C2 H1 1_555 1_555
C3 C2 1_555 1_555
H2 C3 1_555 1_555
C4 C3 1_555 1_555
C5 C4 1_555 1_555
H3 C5 1_555 1_555
C6 C5 1_555 1_555
H4 C6 1_555 1_555
C7 C6 1_555 1_555
C8 C7 1_555 1_555
H5 C8 1_555 1_555
C9 C8 1_555 1_555
H6 C9 1_555 1_555
C10 C9 1_555 1_555
H7 C10 1_555 1_555
C11 C10 1_555 1_555
C12 C11 1_555 1_555
H8 C12 1_555 1_555
C13 C12 1_555 1_555
H9 C13 1_555 1_555
C14 C1 1_555 1_555
C15 C4 1_555 1_555
C16 C7 1_555 1_555
C17 C1 1_555 1_555
H10 C17 1_555 1_555
C18 C17 1_555 1_555
H11 C18 1_555 1_555
C19 H12 1_555 1_555
C20 C19 1_555 1_555
H13 C20 1_555 1_555
C21 C18 1_555 1_555
C22 C21 1_555 1_555
H14 C22 1_555 1_555
C23 N1 1_555 1_555
H15 C23 1_555 1_555
C24 N1 1_555 1_555
H16 C24 1_555 1_555
H17 C24 1_555 1_555
C25 C24 1_555 1_555
H18 C25 1_555 1_555
H19 C25 1_555 1_555
C26 C25 1_555 1_555
H20 C26 1_555 1_555
H21 C26 1_555 1_555
C27 C26 1_555 1_555
H22 C27 1_555 1_555
H23 C27 1_555 1_555
H24 C27 1_555 1_555
C11 C16 1_555 1_555
C13 C14 1_555 1_555
C14 C15 1_555 1_555
C15 C16 1_555 1_555
C20 C21 1_555 1_555
C22 C23 1_555 1_555

#END
