
#######################################################################
#
#                 Cambridge Crystallographic Data Centre
#                                CCDC 
#
#######################################################################
#
# If this CIF has been generated from an entry in the Cambridge 
# Structural Database, then it will include bibliographic, chemical, 
# crystal, experimental, refinement or atomic coordinate data resulting 
# from the CCDC's data processing and validation procedures.
#
#######################################################################

data_FACROR
_chemical_formula_moiety         'C25 H17 Cl2 N1 O4 S1'
_chemical_name_systematic        
'Dimethyl 1,3-dichloro-8-phenyl-5-phenylsulfanylisoquinoline-6,7-dicarboxylate'
_symmetry_cell_setting           orthorhombic
_symmetry_space_group_name_H-M   'P b c a'
_symmetry_Int_Tables_number      61
_space_group_name_Hall           '-P 2ac 2ab'
loop_
_symmetry_equiv_pos_site_id
_symmetry_equiv_pos_as_xyz
1 x,y,z
2 1/2+x,y,1/2-z
3 1/2-x,1/2+y,z
4 x,1/2-y,1/2+z
5 -x,-y,-z
6 1/2-x,-y,1/2+z
7 1/2+x,1/2-y,-z
8 -x,1/2+y,1/2-z
_cell_length_a                   10.84870(10)
_cell_length_b                   12.69440(10)
_cell_length_c                   32.6567(3)
_cell_angle_alpha                90
_cell_angle_beta                 90
_cell_angle_gamma                90
_cell_volume                     4497.41
_exptl_crystal_colour            yellow
_exptl_crystal_description       slab
_chemical_melting_point          451-452K
_cell_formula_units_Z            8
_exptl_crystal_recrystallization_method 'ethyl acetate/petroleum ether'
loop_
_atom_site_label
_atom_site_type_symbol
_atom_site_fract_x
_atom_site_fract_y
_atom_site_fract_z
S1 S 0.25989(5) 0.66546(5) 0.105916(18)
Cl1 Cl -0.07308(8) 0.23165(6) 0.04895(2)
Cl2 Cl 0.20583(6) 0.45899(6) -0.039946(18)
O1 O 0.07394(15) 0.64709(14) 0.20668(5)
O2 O 0.26755(15) 0.58816(14) 0.19865(5)
O3 O -0.12207(15) 0.43194(15) 0.20996(5)
O4 O 0.07793(15) 0.40436(13) 0.22478(5)
N1 N 0.07058(19) 0.35817(17) 0.01297(6)
C1 C 0.04441(19) 0.40293(17) 0.08513(7)
C2 C 0.0226(2) 0.34076(18) 0.04884(7)
C3 C 0.1462(2) 0.4410(2) 0.00896(7)
C4 C 0.1771(2) 0.50744(19) 0.03971(7)
H1 H 0.2303 0.5636 0.0351
C5 C 0.12649(19) 0.48959(17) 0.07909(7)
C6 C 0.15881(19) 0.55593(17) 0.11310(7)
C7 C 0.11659(19) 0.53105(17) 0.15154(6)
C8 C 0.03230(19) 0.44653(17) 0.15714(6)
C9 C -0.00699(19) 0.38438(17) 0.12492(6)
C10 C -0.10114(19) 0.30140(17) 0.13418(6)
C11 C -0.2251(2) 0.3207(2) 0.12660(8)
H2 H -0.2493 0.3844 0.1151
C12 C -0.3123(2) 0.2457(2) 0.13612(9)
H3 H -0.3952 0.2595 0.1314
C13 C -0.2775(2) 0.1510(2) 0.15255(8)
H4 H -0.3363 0.0994 0.1578
C14 C -0.1560(2) 0.1323(2) 0.16122(8)
H5 H -0.1328 0.0689 0.1732
C15 C -0.0677(2) 0.20730(18) 0.15218(7)
H6 H 0.0147 0.1943 0.1583
C16 C 0.1544(2) 0.77203(17) 0.09981(7)
C17 C 0.0859(2) 0.7843(2) 0.06419(8)
H7 H 0.0888 0.7333 0.0438
C18 C 0.0131(3) 0.8735(2) 0.05930(8)
H8 H -0.0326 0.8823 0.0354
C19 C 0.0081(2) 0.9494(2) 0.08964(9)
H9 H -0.0402 1.0092 0.0861
C20 C 0.0742(2) 0.9362(2) 0.12486(8)
H10 H 0.0701 0.9872 0.1453
C21 C 0.1473(2) 0.84774(19) 0.13057(7)
H11 H 0.1912 0.8391 0.1548
C22 C -0.0166(2) 0.42686(17) 0.19974(7)
C23 C 0.0460(3) 0.3898(2) 0.26773(7)
H12 H 0.1200 0.3827 0.2836
H13 H -0.0032 0.3274 0.2707
H14 H 0.0002 0.4497 0.2772
C24 C 0.1489(2) 0.59632(17) 0.18847(7)
C25 C 0.3041(3) 0.6502(2) 0.23393(8)
H15 H 0.3909 0.6417 0.2386
H16 H 0.2594 0.6268 0.2576
H17 H 0.2862 0.7231 0.2289
loop_
_geom_bond_atom_site_label_1
_geom_bond_atom_site_label_2
_geom_bond_site_symmetry_1
_geom_bond_site_symmetry_2
S1 C6 1_555 1_555
Cl1 C2 1_555 1_555
Cl2 C3 1_555 1_555
O1 C24 1_555 1_555
O2 C24 1_555 1_555
O3 C22 1_555 1_555
O4 C22 1_555 1_555
N1 C2 1_555 1_555
C1 C2 1_555 1_555
C3 N1 1_555 1_555
C4 C3 1_555 1_555
H1 C4 1_555 1_555
C5 C1 1_555 1_555
C6 C5 1_555 1_555
C7 C6 1_555 1_555
C8 C7 1_555 1_555
C9 C1 1_555 1_555
C10 C9 1_555 1_555
C11 C10 1_555 1_555
H2 C11 1_555 1_555
C12 C11 1_555 1_555
H3 C12 1_555 1_555
C13 C12 1_555 1_555
H4 C13 1_555 1_555
C14 C13 1_555 1_555
H5 C14 1_555 1_555
C15 C10 1_555 1_555
H6 C15 1_555 1_555
C16 S1 1_555 1_555
C17 C16 1_555 1_555
H7 C17 1_555 1_555
C18 C17 1_555 1_555
H8 C18 1_555 1_555
C19 C18 1_555 1_555
H9 C19 1_555 1_555
C20 C19 1_555 1_555
H10 C20 1_555 1_555
C21 C16 1_555 1_555
H11 C21 1_555 1_555
C22 C8 1_555 1_555
C23 O4 1_555 1_555
H12 C23 1_555 1_555
H13 C23 1_555 1_555
H14 C23 1_555 1_555
C24 C7 1_555 1_555
C25 O2 1_555 1_555
H15 C25 1_555 1_555
H16 C25 1_555 1_555
H17 C25 1_555 1_555
C4 C5 1_555 1_555
C8 C9 1_555 1_555
C14 C15 1_555 1_555
C20 C21 1_555 1_555

#END
