
#######################################################################
#
#                 Cambridge Crystallographic Data Centre
#                                CCDC 
#
#######################################################################
#
# If this CIF has been generated from an entry in the Cambridge 
# Structural Database, then it will include bibliographic, chemical, 
# crystal, experimental, refinement or atomic coordinate data resulting 
# from the CCDC's data processing and validation procedures.
#
#######################################################################

data_FACSEI
_chemical_formula_moiety         'C19 H20 N4'
_chemical_name_systematic        
3-Amino-4'-(N,N-diethylamino)-5-methylbiphenyl-2,4-dicarbonitrile
_symmetry_cell_setting           monoclinic
_symmetry_space_group_name_H-M   'P 21/c'
_symmetry_Int_Tables_number      14
_space_group_name_Hall           '-P 2ybc'
loop_
_symmetry_equiv_pos_site_id
_symmetry_equiv_pos_as_xyz
1 x,y,z
2 x,1/2-y,1/2+z
3 -x,-y,-z
4 -x,1/2+y,1/2-z
_cell_length_a                   9.2925(4)
_cell_length_b                   10.8655(3)
_cell_length_c                   16.7229(5)
_cell_angle_alpha                90
_cell_angle_beta                 90.367(2)
_cell_angle_gamma                90
_cell_volume                     1688.44
_exptl_crystal_colour            yellow
_exptl_crystal_description       slab
_cell_formula_units_Z            4
_exptl_crystal_recrystallization_method 'ethyl acetate/hexane'
loop_
_atom_site_label
_atom_site_type_symbol
_atom_site_fract_x
_atom_site_fract_y
_atom_site_fract_z
N1 N 1.2550(3) 0.1435(2) -0.04938(17)
H1 H 1.3355 0.1044 -0.0492
H2 H 1.2323 0.1895 -0.0894
N2 N 0.9802(4) 0.3249(3) -0.1129(2)
N3 N 1.4420(4) -0.0533(3) 0.0832(2)
N4 N 0.4297(3) 0.4792(3) 0.10641(17)
C1 C 0.8075(3) 0.2666(3) 0.08398(19)
C2 C 0.8091(4) 0.3932(3) 0.07514(19)
H3 H 0.8953 0.4320 0.0629
C3 C 0.6867(4) 0.4634(3) 0.08397(19)
H4 H 0.6927 0.5485 0.0788
C4 C 0.5531(3) 0.4092(3) 0.10059(19)
C5 C 0.5515(3) 0.2820(3) 0.1093(2)
H5 H 0.4652 0.2423 0.1203
C6 C 0.6752(3) 0.2137(3) 0.10183(19)
H6 H 0.6702 0.1289 0.1090
C7 C 0.9396(3) 0.1910(3) 0.0799(2)
C8 C 1.0330(3) 0.1983(3) 0.0147(2)
C9 C 1.1640(4) 0.1325(3) 0.0133(2)
C10 C 1.1961(3) 0.0586(3) 0.0799(2)
C11 C 1.1036(4) 0.0476(3) 0.1446(2)
C12 C 0.9761(4) 0.1141(3) 0.1434(2)
H7 H 0.9132 0.1070 0.1862
C13 C 0.9996(3) 0.2700(3) -0.0548(2)
C14 C 1.3319(4) -0.0049(3) 0.0824(2)
C15 C 1.1408(4) -0.0327(3) 0.2149(2)
H8 H 1.0646 -0.0291 0.2534
H9 H 1.2287 -0.0042 0.2391
H10 H 1.1529 -0.1161 0.1972
C16 C 0.2906(4) 0.4206(3) 0.1182(3)
H11 H 0.2878 0.3455 0.0869
H12 H 0.2164 0.4748 0.0973
C17 C 0.2543(5) 0.3893(5) 0.2031(3)
H13 H 0.3252 0.3335 0.2242
H14 H 0.1612 0.3512 0.2048
H15 H 0.2535 0.4631 0.2347
C18 C 0.4342(4) 0.6127(3) 0.1089(2)
H16 H 0.3396 0.6443 0.0952
H17 H 0.5008 0.6416 0.0687
C19 C 0.4785(6) 0.6639(4) 0.1883(2)
H18 H 0.4118 0.6376 0.2284
H19 H 0.4791 0.7522 0.1857
H20 H 0.5732 0.6349 0.2018
loop_
_geom_bond_atom_site_label_1
_geom_bond_atom_site_label_2
_geom_bond_site_symmetry_1
_geom_bond_site_symmetry_2
N1 H1 1_555 1_555
H2 N1 1_555 1_555
N2 C13 1_555 1_555
N3 C14 1_555 1_555
N4 C4 1_555 1_555
C1 C2 1_555 1_555
C2 H3 1_555 1_555
C3 C2 1_555 1_555
H4 C3 1_555 1_555
C4 C3 1_555 1_555
C5 C4 1_555 1_555
H5 C5 1_555 1_555
C6 C1 1_555 1_555
H6 C6 1_555 1_555
C7 C1 1_555 1_555
C8 C7 1_555 1_555
C9 N1 1_555 1_555
C10 C9 1_555 1_555
C11 C10 1_555 1_555
C12 C7 1_555 1_555
H7 C12 1_555 1_555
C13 C8 1_555 1_555
C14 C10 1_555 1_555
C15 C11 1_555 1_555
H8 C15 1_555 1_555
H9 C15 1_555 1_555
H10 C15 1_555 1_555
C16 N4 1_555 1_555
H11 C16 1_555 1_555
H12 C16 1_555 1_555
C17 C16 1_555 1_555
H13 C17 1_555 1_555
H14 C17 1_555 1_555
H15 C17 1_555 1_555
C18 N4 1_555 1_555
H16 C18 1_555 1_555
H17 C18 1_555 1_555
C19 C18 1_555 1_555
H18 C19 1_555 1_555
H19 C19 1_555 1_555
H20 C19 1_555 1_555
C5 C6 1_555 1_555
C8 C9 1_555 1_555
C11 C12 1_555 1_555

#END
