
#######################################################################
#
#                 Cambridge Crystallographic Data Centre
#                                CCDC 
#
#######################################################################
#
# If this CIF has been generated from an entry in the Cambridge 
# Structural Database, then it will include bibliographic, chemical, 
# crystal, experimental, refinement or atomic coordinate data resulting 
# from the CCDC's data processing and validation procedures.
#
#######################################################################

data_FACWIP02
_chemical_formula_moiety         'C36 H60 N8 6+,6(N1 O3 1-),2(H2 O1)'
_chemical_name_systematic        
'4,12,18,26,31,39-Hexa-ammonio-1,15-diazapentacyclo-(13.13.13.1^6,10^.1^20,24^.1^33,37^)tetratetraconta-6(11),7,9,20(25),21,23,33(38),34,36-nonaene hexanitrate clathrate dihydrate'
_symmetry_cell_setting           triclinic
_symmetry_space_group_name_H-M   'P -1'
_symmetry_Int_Tables_number      2
_space_group_name_Hall           '-P 1'
loop_
_symmetry_equiv_pos_site_id
_symmetry_equiv_pos_as_xyz
1 x,y,z
2 -x,-y,-z
_cell_length_a                   10.240(2)
_cell_length_b                   10.369(2)
_cell_length_c                   25.633(5)
_cell_angle_alpha                80.46(3)
_cell_angle_beta                 84.96(3)
_cell_angle_gamma                62.23(3)
_cell_volume                     2374.72
_exptl_crystal_colour            colorless
_exptl_crystal_description       prism
_cell_formula_units_Z            2
_exptl_crystal_recrystallization_method ethanol/water
loop_
_atom_site_label
_atom_site_type_symbol
_atom_site_fract_x
_atom_site_fract_y
_atom_site_fract_z
N1 N 0.5451(2) 0.7278(2) 0.06596(9)
C1 C 0.6673(3) 0.7434(3) 0.03525(11)
H1 H 0.6337 0.7902 -0.0004
H2 H 0.7480 0.6460 0.0328
C2 C 0.7249(3) 0.8314(3) 0.05820(12)
H3 H 0.7757 0.8676 0.0306
H4 H 0.6423 0.9159 0.0707
N2 N 0.8283(3) 0.7428(3) 0.10293(10)
H5 H 0.7828 0.7049 0.1277
H6 H 0.9075 0.6673 0.0909
C3 C 0.8778(4) 0.8328(3) 0.12723(12)
H7 H 0.7922 0.9149 0.1396
H8 H 0.9277 0.8725 0.1005
C4 C 0.9806(3) 0.7453(3) 0.17288(12)
C5 C 0.9382(3) 0.7781(3) 0.22352(12)
H9 H 0.8429 0.8498 0.2295
C6 C 1.1203(3) 0.6345(3) 0.16453(13)
H10 H 1.1499 0.6095 0.1307
C7 C 1.2159(4) 0.5609(4) 0.20633(13)
H11 H 1.3092 0.4853 0.2006
C8 C 1.1745(3) 0.5985(4) 0.25640(13)
H12 H 1.2413 0.5509 0.2839
C9 C 1.0340(3) 0.7069(3) 0.26597(12)
C10 C 0.9839(4) 0.7483(3) 0.32027(12)
H13 H 1.0554 0.7691 0.3348
H14 H 0.8903 0.8372 0.3177
N3 N 0.9667(3) 0.6303(3) 0.35655(9)
H15 H 1.0553 0.5503 0.3610
H16 H 0.9069 0.6054 0.3416
C11 C 0.9048(3) 0.6736(3) 0.40924(12)
H17 H 0.8132 0.7644 0.4043
H18 H 0.9734 0.6922 0.4267
C12 C 0.8758(3) 0.5577(4) 0.44426(11)
H19 H 0.9561 0.4615 0.4398
H20 H 0.8748 0.5712 0.4809
N4 N 0.7350(3) 0.5610(3) 0.43307(8)
C13 C 0.7420(4) 0.4174(3) 0.45487(12)
H21 H 0.6424 0.4284 0.4586
H22 H 0.7844 0.3874 0.4899
C14 C 0.8310(4) 0.2985(4) 0.42150(13)
H23 H 0.9139 0.3127 0.4058
H24 H 0.8701 0.2038 0.4439
N5 N 0.7426(3) 0.2969(3) 0.37856(10)
H25 H 0.6671 0.2811 0.3931
H26 H 0.7043 0.3855 0.3583
C15 C 0.8321(4) 0.1818(4) 0.34490(13)
H27 H 0.8733 0.0865 0.3669
H28 H 0.9137 0.1988 0.3294
C16 C 0.7450(3) 0.1789(3) 0.30143(12)
C17 C 0.7666(3) 0.2291(3) 0.24974(12)
H29 H 0.8298 0.2717 0.2428
C18 C 0.6472(4) 0.1197(4) 0.31156(13)
H30 H 0.6299 0.0864 0.3462
C19 C 0.5754(4) 0.1099(4) 0.27049(14)
H31 H 0.5091 0.0710 0.2776
C20 C 0.6012(4) 0.1573(4) 0.21905(14)
H32 H 0.5537 0.1485 0.1916
C21 C 0.6976(3) 0.2182(3) 0.20790(12)
C22 C 0.7317(3) 0.2649(3) 0.15220(12)
H33 H 0.8204 0.2767 0.1518
H34 H 0.7514 0.1880 0.1312
N6 N 0.6096(3) 0.4055(3) 0.12741(9)
H35 H 0.5285 0.3934 0.1263
H36 H 0.5883 0.4761 0.1477
C23 C 0.6473(3) 0.4546(3) 0.07310(11)
H37 H 0.6597 0.3835 0.0504
H38 H 0.7406 0.4571 0.0738
C24 C 0.5308(3) 0.6050(3) 0.05001(12)
H39 H 0.5366 0.6129 0.0117
H40 H 0.4342 0.6139 0.0609
C25 C 0.4067(3) 0.8644(3) 0.05330(11)
H41 H 0.3730 0.8643 0.0191
H42 H 0.4272 0.9477 0.0503
C26 C 0.2842(3) 0.8850(4) 0.09342(12)
H43 H 0.1902 0.9503 0.0766
H44 H 0.2855 0.7907 0.1055
N7 N 0.2973(3) 0.9471(3) 0.13978(10)
H45 H 0.3819 0.8836 0.1566
H46 H 0.3025 1.0315 0.1283
C27 C 0.1726(4) 0.9772(4) 0.17778(14)
H47 H 0.1630 0.8877 0.1883
H48 H 0.0823 1.0505 0.1602
C28 C 0.1899(3) 1.0309(4) 0.22656(13)
C29 C 0.2326(3) 0.9358(4) 0.27356(14)
H49 H 0.2569 0.8373 0.2739
C30 C 0.1575(4) 1.1763(4) 0.22627(14)
H50 H 0.1282 1.2423 0.1952
C31 C 0.1686(4) 1.2230(4) 0.27225(15)
H51 H 0.1490 1.3203 0.2716
C32 C 0.2082(4) 1.1283(4) 0.31899(14)
H52 H 0.2134 1.1622 0.3498
C33 C 0.2401(3) 0.9832(4) 0.32024(13)
C34 C 0.2759(4) 0.8787(4) 0.37120(14)
H53 H 0.2030 0.9251 0.3979
H54 H 0.2694 0.7914 0.3659
N8 N 0.4257(3) 0.8340(3) 0.39093(10)
H55 H 0.4932 0.7955 0.3656
H56 H 0.4302 0.9141 0.3979
C35 C 0.4620(3) 0.7241(4) 0.43953(12)
H57 H 0.4560 0.6383 0.4321
H58 H 0.3896 0.7660 0.4669
C36 C 0.6149(3) 0.6769(4) 0.45959(12)
H59 H 0.6325 0.7623 0.4551
H60 H 0.6176 0.6418 0.4972
N9 N 0.6032(3) 0.6653(3) 0.18620(10)
O1 O 0.7284(3) 0.5645(3) 0.17809(9)
O2 O 0.4939(3) 0.6401(3) 0.19227(9)
O3 O 0.5858(3) 0.7924(3) 0.18569(9)
N10 N 0.6817(3) 0.6205(3) 0.31367(9)
O4 O 0.8083(3) 0.5186(3) 0.30769(8)
O5 O 0.5743(3) 0.5926(3) 0.32150(10)
O6 O 0.6624(3) 0.7480(3) 0.31398(9)
N11 N 1.3290(3) 0.4157(3) 0.39483(10)
O7 O 1.2415(3) 0.3766(3) 0.38137(12)
O8 O 1.4548(3) 0.3210(3) 0.40921(10)
O9 O 1.2862(4) 0.5457(3) 0.39552(14)
N12 N 0.8657(4) -0.0706(4) 0.47794(13)
O10 O 0.7472(3) 0.0404(4) 0.46488(14)
O11 O 0.9804(3) -0.0885(3) 0.45288(12)
O12 O 0.8667(4) -0.1646(4) 0.51417(12)
N13 N 0.3770(3) 0.2523(3) 0.10093(10)
O13 O 0.3626(3) 0.3770(3) 0.09968(11)
O14 O 0.2626(3) 0.2361(3) 0.09964(11)
O15 O 0.4967(4) 0.1479(3) 0.10163(14)
N14 N 0.9130(4) 0.1869(4) 0.01685(14)
O16 O 1.0075(4) 0.1940(4) 0.04052(16)
O17 O 0.8705(4) 0.2598(4) -0.02647(13)
O18 O 0.8575(4) 0.1095(4) 0.03785(14)
O19 O 1.0195(4) 0.4985(5) 0.05761(17)
H61 H 1.0515 0.4173 0.0872
H62 H 1.0148 0.4377 0.0339
O20 O 0.4313(3) 1.0456(3) 0.43732(11)
H64 H 0.4206 1.1348 0.4257
H65 H 0.3455 1.0801 0.4513
H63? H 1.0513 0.5598 0.0386
loop_
_geom_bond_atom_site_label_1
_geom_bond_atom_site_label_2
_geom_bond_site_symmetry_1
_geom_bond_site_symmetry_2
N1 C1 1_555 1_555
C1 H1 1_555 1_555
H2 C1 1_555 1_555
C2 C1 1_555 1_555
H3 C2 1_555 1_555
H4 C2 1_555 1_555
N2 C2 1_555 1_555
H5 N2 1_555 1_555
H6 N2 1_555 1_555
C3 N2 1_555 1_555
H7 C3 1_555 1_555
H8 C3 1_555 1_555
C4 C3 1_555 1_555
C5 C4 1_555 1_555
H9 C5 1_555 1_555
C6 C4 1_555 1_555
H10 C6 1_555 1_555
C7 C6 1_555 1_555
H11 C7 1_555 1_555
C8 C7 1_555 1_555
H12 C8 1_555 1_555
C9 C5 1_555 1_555
C10 C9 1_555 1_555
H13 C10 1_555 1_555
H14 C10 1_555 1_555
N3 C10 1_555 1_555
H15 N3 1_555 1_555
H16 N3 1_555 1_555
C11 N3 1_555 1_555
H17 C11 1_555 1_555
H18 C11 1_555 1_555
C12 C11 1_555 1_555
H19 C12 1_555 1_555
H20 C12 1_555 1_555
N4 C12 1_555 1_555
C13 N4 1_555 1_555
H21 C13 1_555 1_555
H22 C13 1_555 1_555
C14 C13 1_555 1_555
H23 C14 1_555 1_555
H24 C14 1_555 1_555
N5 C14 1_555 1_555
H25 N5 1_555 1_555
H26 N5 1_555 1_555
C15 N5 1_555 1_555
H27 C15 1_555 1_555
H28 C15 1_555 1_555
C16 C15 1_555 1_555
C17 C16 1_555 1_555
H29 C17 1_555 1_555
C18 C16 1_555 1_555
H30 C18 1_555 1_555
C19 C18 1_555 1_555
H31 C19 1_555 1_555
C20 C19 1_555 1_555
H32 C20 1_555 1_555
C21 C17 1_555 1_555
C22 C21 1_555 1_555
H33 C22 1_555 1_555
H34 C22 1_555 1_555
N6 C22 1_555 1_555
H35 N6 1_555 1_555
H36 N6 1_555 1_555
C23 N6 1_555 1_555
H37 C23 1_555 1_555
H38 C23 1_555 1_555
C24 N1 1_555 1_555
H39 C24 1_555 1_555
H40 C24 1_555 1_555
C25 N1 1_555 1_555
H41 C25 1_555 1_555
H42 C25 1_555 1_555
C26 C25 1_555 1_555
H43 C26 1_555 1_555
H44 C26 1_555 1_555
N7 C26 1_555 1_555
H45 N7 1_555 1_555
H46 N7 1_555 1_555
C27 N7 1_555 1_555
H47 C27 1_555 1_555
H48 C27 1_555 1_555
C28 C27 1_555 1_555
C29 C28 1_555 1_555
H49 C29 1_555 1_555
C30 C28 1_555 1_555
H50 C30 1_555 1_555
C31 C30 1_555 1_555
H51 C31 1_555 1_555
C32 C31 1_555 1_555
H52 C32 1_555 1_555
C33 C29 1_555 1_555
C34 C33 1_555 1_555
H53 C34 1_555 1_555
H54 C34 1_555 1_555
N8 C34 1_555 1_555
H55 N8 1_555 1_555
H56 N8 1_555 1_555
C35 N8 1_555 1_555
H57 C35 1_555 1_555
H58 C35 1_555 1_555
C36 N4 1_555 1_555
H59 C36 1_555 1_555
H60 C36 1_555 1_555
N9 O1 1_555 1_555
O2 N9 1_555 1_555
O3 N9 1_555 1_555
N10 O4 1_555 1_555
O5 N10 1_555 1_555
O6 N10 1_555 1_555
N11 O7 1_555 1_555
O8 N11 1_555 1_555
O9 N11 1_555 1_555
N12 O10 1_555 1_555
O11 N12 1_555 1_555
O12 N12 1_555 1_555
N13 O13 1_555 1_555
O14 N13 1_555 1_555
O15 N13 1_555 1_555
N14 O16 1_555 1_555
O17 N14 1_555 1_555
O18 N14 1_555 1_555
O19 H61 1_555 1_555
H62 O19 1_555 1_555
O20 H64 1_555 1_555
H65 O20 1_555 1_555
C8 C9 1_555 1_555
C20 C21 1_555 1_555
C23 C24 1_555 1_555
C32 C33 1_555 1_555
C35 C36 1_555 1_555

#END
