
#######################################################################
#
#                 Cambridge Crystallographic Data Centre
#                                CCDC 
#
#######################################################################
#
# If this CIF has been generated from an entry in the Cambridge 
# Structural Database, then it will include bibliographic, chemical, 
# crystal, experimental, refinement or atomic coordinate data resulting 
# from the CCDC's data processing and validation procedures.
#
#######################################################################

data_FACXAI
_chemical_compound_source        'skin extracts of Dendrobates histrionicus'
_chemical_formula_moiety         'C15 H26 N1 1+,Cl1 1-'
_chemical_name_systematic        
'(2S,4aS,5S,8aS)-2,5-Diallyl-trans-decahydroquinoline hydrochloride'
_symmetry_cell_setting           orthorhombic
_symmetry_space_group_name_H-M   'P 21 21 21'
_symmetry_Int_Tables_number      19
_space_group_name_Hall           'P 2ac 2ab'
loop_
_symmetry_equiv_pos_site_id
_symmetry_equiv_pos_as_xyz
1 x,y,z
2 1/2+x,1/2-y,-z
3 -x,1/2+y,1/2-z
4 1/2-x,-y,1/2+z
_cell_length_a                   7.340(3)
_cell_length_b                   8.400(3)
_cell_length_c                   25.096(8)
_cell_angle_alpha                90
_cell_angle_beta                 90
_cell_angle_gamma                90
_cell_volume                     1547.32
_cell_formula_units_Z            4
loop_
_atom_site_label
_atom_site_type_symbol
_atom_site_fract_x
_atom_site_fract_y
_atom_site_fract_z
Cl1 Cl 0.9667(1) 0.6160(1) 0.0524(1)
N1 N 0.3931(4) 0.6410(5) 0.0399(1)
C1 C 0.4661(6) 0.4774(6) 0.0271(2)
C2 C 0.4486(7) 0.3752(60) 0.0771(2)
C3 C 0.5373(7) 0.4506(5) 0.1259(2)
C4 C 0.4499(5) 0.6131(4) 0.1365(2)
C5 C 0.5192(6) 0.6957(5) 0.1873(2)
C6 C 0.4180(6) 0.8519(5) 0.1945(2)
C7 C 0.4422(7) 0.9603(5) 0.1466(2)
C8 C 0.3768(6) 0.8797(5) 0.0957(2)
C9 C 0.4701(6) 0.7197(4) 0.0882(2)
C10 C 0.3573(17) 0.3792(15) -0.0145(3)
C11 C 0.4056(13) 0.4311(11) -0.0690(3)
C12 C 0.4590(8) 0.3263(7) -0.1062(2)
C13 C 0.7253(7) 0.7140(7) 0.1894(2)
C14 C 0.7903(8) 0.7714(7) 0.2421(2)
C15 C 0.8802(10) 0.8952(9) 0.2529(3)
H1 H 0.5860 0.4997 0.0138
H2 H 0.3215 0.3589 0.0843
H3 H 0.5060 0.2745 0.0704
H4 H 0.6655 0.4637 0.1198
H5 H 0.5186 0.3827 0.1562
H6 H 0.3228 0.5935 0.1427
H7 H 0.4925 0.6278 0.2171
H8 H 0.2906 0.8301 0.1991
H9 H 0.4642 0.9047 0.2256
H10 H 0.3730 1.0559 0.1522
H11 H 0.5688 0.9867 0.1429
H12 H 0.4042 0.9468 0.0658
H13 H 0.2476 0.8635 0.0978
H14 H 0.5984 0.7376 0.0838
H15 H 0.7617 0.7891 0.1626
H16 H 0.7802 0.6126 0.1821
H17 H 0.7599 0.7051 0.2720
H18 H 0.9152 0.9669 0.2249
H19 H 0.9138 0.9178 0.2891
H20 H 0.2865(40) 0.6360(34) 0.0428(11)
H21 H 0.4135(77) 0.6969(60) 0.0005(21)
loop_
_geom_bond_atom_site_label_1
_geom_bond_atom_site_label_2
_geom_bond_site_symmetry_1
_geom_bond_site_symmetry_2
N1 C1 1_555 1_555
C1 C2 1_555 1_555
C2 C3 1_555 1_555
C3 C4 1_555 1_555
C4 C5 1_555 1_555
C5 C6 1_555 1_555
C6 C7 1_555 1_555
C7 C8 1_555 1_555
C8 C9 1_555 1_555
C9 N1 1_555 1_555
C10 C1 1_555 1_555
C11 C10 1_555 1_555
C12 C11 1_555 1_555
C13 C5 1_555 1_555
C14 C13 1_555 1_555
C15 C14 1_555 1_555
H1 C1 1_555 1_555
H2 C2 1_555 1_555
H3 C2 1_555 1_555
H4 C3 1_555 1_555
H5 C3 1_555 1_555
H6 C4 1_555 1_555
H7 C5 1_555 1_555
H8 C6 1_555 1_555
H9 C6 1_555 1_555
H10 C7 1_555 1_555
H11 C7 1_555 1_555
H12 C8 1_555 1_555
H13 C8 1_555 1_555
H14 C9 1_555 1_555
H15 C13 1_555 1_555
H16 C13 1_555 1_555
H17 C14 1_555 1_555
H18 C15 1_555 1_555
H19 C15 1_555 1_555
H20 N1 1_555 1_555
H21 N1 1_555 1_555
C4 C9 1_555 1_555

#END
