
#######################################################################
#
#                 Cambridge Crystallographic Data Centre
#                                CCDC 
#
#######################################################################
#
# If this CIF has been generated from an entry in the Cambridge 
# Structural Database, then it will include bibliographic, chemical, 
# crystal, experimental, refinement or atomic coordinate data resulting 
# from the CCDC's data processing and validation procedures.
#
#######################################################################

data_FACXIQ
_chemical_formula_moiety         'C21 H26 O4'
_chemical_name_systematic        
trans-1,4-Dimethoxy-14\a-methyl-11-oxo-9\a-estra-1,3,5(10)-triene
_symmetry_cell_setting           monoclinic
_symmetry_space_group_name_H-M   'P 21/n'
_symmetry_Int_Tables_number      14
_space_group_name_Hall           '-P 2yn'
loop_
_symmetry_equiv_pos_site_id
_symmetry_equiv_pos_as_xyz
1 x,y,z
2 1/2-x,1/2+y,1/2-z
3 -x,-y,-z
4 1/2+x,1/2-y,1/2+z
_cell_length_a                   11.178(3)
_cell_length_b                   8.321(2)
_cell_length_c                   19.967(8)
_cell_angle_alpha                90
_cell_angle_beta                 94.95(3)
_cell_angle_gamma                90
_cell_volume                     1850.25
_chemical_melting_point          175-176deg.C
_cell_formula_units_Z            4
loop_
_atom_site_label
_atom_site_type_symbol
_atom_site_fract_x
_atom_site_fract_y
_atom_site_fract_z
O1 O 0.0878(3) 0.4099(4) 0.8210(2)
O2 O 0.0524(3) 0.1256(4) 0.5705(1)
O3 O -0.1609(2) 0.3242(3) 0.8222(1)
O4 O -0.2249(3) -0.1016(4) 1.0112(1)
C1 C 0.0813(3) 0.3441(5) 0.7565(2)
C2 C 0.1272(4) 0.4240(5) 0.7036(2)
C3 C 0.1178(3) 0.3535(6) 0.6407(2)
C4 C 0.0647(3) 0.2058(5) 0.6313(2)
C5 C 0.0223(3) 0.1210(5) 0.6846(2)
C6 C -0.0196(3) -0.0508(5) 0.6757(2)
C7 C -0.0108(3) -0.1424(5) 0.7417(2)
C8 C -0.0809(3) -0.0514(4) 0.7915(2)
C9 C -0.0189(3) 0.1120(4) 0.8081(2)
C10 C 0.0272(3) 0.1937(5) 0.7475(2)
C11 C -0.1041(3) 0.2107(5) 0.8463(2)
C12 C -0.1278(3) 0.1375(5) 0.9135(2)
C13 C -0.1862(3) -0.0255(5) 0.8968(2)
C14 C -0.1047(3) -0.1342(4) 0.8575(2)
C15 C -0.1778(4) -0.2925(5) 0.8527(2)
C16 C -0.2256(4) -0.3044(5) 0.9232(2)
C17 C -0.2136(4) -0.1370(6) 0.9533(2)
C18 C -0.3113(3) 0.0058(5) 0.8591(2)
C19 C 0.0145(4) -0.1743(5) 0.8996(2)
C20 C 0.1979(5) 0.4517(9) 0.8501(3)
C21 C 0.0932(6) 0.2060(8) 0.5134(2)
H1 H 0.165(3) 0.530(5) 0.711(2)
H2 H 0.143(3) 0.412(4) 0.605(2)
H3 H 0.027(3) -0.100(4) 0.643(2)
H4 H -0.105(3) -0.054(4) 0.656(1)
H5 H 0.075(3) -0.152(4) 0.758(1)
H6 H -0.045(3) -0.252(4) 0.735(1)
H7 H -0.160(2) -0.028(3) 0.768(1)
H8 H 0.048(2) 0.091(3) 0.837(1)
H9 H -0.181(3) 0.209(4) 0.935(2)
H10 H -0.053(3) 0.122(4) 0.941(2)
H11 H -0.127(3) -0.380(4) 0.842(2)
H12 H -0.245(3) -0.286(4) 0.815(2)
H13 H -0.179(3) -0.375(4) 0.950(2)
H14 H -0.310(3) -0.341(4) 0.922(2)
H15 H -0.359(3) 0.065(5) 0.884(2)
H16 H -0.307(3) 0.065(5) 0.816(2)
H17 H -0.353(4) -0.098(6) 0.843(2)
H18 H 0.068(3) -0.234(5) 0.871(2)
H19 H 0.055(3) -0.086(4) 0.915(2)
H20 H 0.001(3) -0.245(4) 0.937(2)
H21 H 0.197(3) 0.471(5) 0.894(2)
H22 H 0.194(4) 0.335(7) 0.836(2)
H23 H 0.258(4) 0.465(7) 0.829(3)
H24 H 0.063(4) 0.134(6) 0.478(2)
H25 H 0.041(4) 0.291(6) 0.504(2)
H26 H 0.169(5) 0.274(8) 0.527(3)
loop_
_geom_bond_atom_site_label_1
_geom_bond_atom_site_label_2
_geom_bond_site_symmetry_1
_geom_bond_site_symmetry_2
O1 C1 1_555 1_555
O2 C4 1_555 1_555
O3 C11 1_555 1_555
O4 C17 1_555 1_555
C1 C2 1_555 1_555
C2 C3 1_555 1_555
C3 C4 1_555 1_555
C4 C5 1_555 1_555
C5 C6 1_555 1_555
C6 C7 1_555 1_555
C7 C8 1_555 1_555
C8 C9 1_555 1_555
C9 C10 1_555 1_555
C10 C1 1_555 1_555
C11 C9 1_555 1_555
C12 C11 1_555 1_555
C13 C12 1_555 1_555
C14 C8 1_555 1_555
C15 C14 1_555 1_555
C16 C15 1_555 1_555
C17 C13 1_555 1_555
C18 C13 1_555 1_555
C19 C14 1_555 1_555
C20 O1 1_555 1_555
C21 O2 1_555 1_555
H1 C2 1_555 1_555
H2 C3 1_555 1_555
H3 C6 1_555 1_555
H4 C6 1_555 1_555
H5 C7 1_555 1_555
H6 C7 1_555 1_555
H7 C8 1_555 1_555
H8 C9 1_555 1_555
H9 C12 1_555 1_555
H10 C12 1_555 1_555
H11 C15 1_555 1_555
H12 C15 1_555 1_555
H13 C16 1_555 1_555
H14 C16 1_555 1_555
H15 C18 1_555 1_555
H16 C18 1_555 1_555
H17 C18 1_555 1_555
H18 C19 1_555 1_555
H19 C19 1_555 1_555
H20 C19 1_555 1_555
H21 C20 1_555 1_555
H22 C20 1_555 1_555
H23 C20 1_555 1_555
H24 C21 1_555 1_555
H25 C21 1_555 1_555
H26 C21 1_555 1_555
C5 C10 1_555 1_555
C13 C14 1_555 1_555
C16 C17 1_555 1_555

#END
