
#######################################################################
#
#                 Cambridge Crystallographic Data Centre
#                                CCDC 
#
#######################################################################
#
# If this CIF has been generated from an entry in the Cambridge 
# Structural Database, then it will include bibliographic, chemical, 
# crystal, experimental, refinement or atomic coordinate data resulting 
# from the CCDC's data processing and validation procedures.
#
#######################################################################

data_FACZEP
_chemical_formula_moiety         'C19 H16 O5'
_chemical_name_systematic        
'(+-)-2-Oxo-4-(2-oxo-2-phenylethyl)-5-phenyltetrahydrofuran-3-carboxylic acid'
_symmetry_cell_setting           monoclinic
_symmetry_space_group_name_H-M   'C 2/c'
_symmetry_Int_Tables_number      15
_space_group_name_Hall           '-C 2yn'
loop_
_symmetry_equiv_pos_site_id
_symmetry_equiv_pos_as_xyz
1 x,y,z
2 1/2+x,1/2+y,z
3 x,-y,1/2+z
4 1/2+x,1/2-y,1/2+z
5 -x,-y,-z
6 1/2-x,1/2-y,-z
7 -x,y,1/2-z
8 1/2-x,1/2+y,1/2-z
_cell_length_a                   30.0282(4)
_cell_length_b                   8.92260(10)
_cell_length_c                   12.1979(2)
_cell_angle_alpha                90
_cell_angle_beta                 104.8840(10)
_cell_angle_gamma                90
_cell_volume                     3158.52
_exptl_crystal_colour            colorless
_exptl_crystal_description       prismatic
_chemical_melting_point          130-132deg.C
_cell_formula_units_Z            8
_exptl_crystal_recrystallization_method dichloromethane/hexane
loop_
_atom_site_label
_atom_site_type_symbol
_atom_site_fract_x
_atom_site_fract_y
_atom_site_fract_z
O1 O 0.02622(3) 0.06044(11) 0.61898(8)
O2 O 0.05222(3) 0.43059(11) 0.51859(9)
O3 O 0.09404(3) -0.00993(10) 0.59291(7)
O4 O 0.19441(3) 0.20465(11) 0.45237(8)
O5 O -0.01351(3) 0.31388(11) 0.43670(10)
H1 H -0.0251 0.3952 0.4503
C1 C 0.18191(4) 0.32455(14) 0.27511(11)
C2 C 0.12161(5) -0.09861(15) 0.43314(11)
C3 C 0.16888(5) 0.42504(16) 0.08592(12)
H2 H 0.1496 0.4375 0.0115
C4 C 0.05491(5) 0.07121(14) 0.56675(11)
C5 C 0.05476(4) 0.17228(14) 0.46548(11)
H3 H 0.0377 0.121 0.3941
C6 C 0.03137(4) 0.31961(15) 0.47628(11)
C7 C 0.10582(4) 0.18119(14) 0.46827(11)
H4 H 0.1202 0.2594 0.5251
C8 C 0.16628(5) 0.24622(14) 0.36648(11)
C9 C 0.12375(5) 0.02611(15) 0.51819(11)
H5 H 0.1562 0.037 0.565
C10 C 0.08136(5) -0.17789(16) 0.38821(11)
H6 H 0.0544 -0.1559 0.4123
C11 C 0.11532(4) 0.22346(15) 0.35525(11)
H7 H 0.1036 0.1432 0.2992
H8 H 0.0985 0.3169 0.3267
C12 C 0.11918(7) -0.32168(18) 0.27205(13)
H9 H 0.1182 -0.397 0.2164
C13 C 0.22634(5) 0.38428(16) 0.30194(12)
H10 H 0.2463 0.3683 0.3752
C14 C 0.16096(6) -0.13375(17) 0.39779(14)
H11 H 0.1889 -0.0817 0.4292
C15 C 0.21256(5) 0.48722(17) 0.11422(12)
H12 H 0.2229 0.5441 0.0597
C16 C 0.15318(5) 0.34436(15) 0.16621(11)
H13 H 0.123 0.3029 0.147
C17 C 0.15950(6) -0.24448(18) 0.31686(14)
H14 H 0.1863 -0.267 0.2924
C18 C 0.24141(5) 0.46674(17) 0.22220(12)
H15 H 0.2714 0.5092 0.2413
C19 C 0.08033(6) -0.28965(17) 0.30798(13)
H16 H 0.0527 -0.3441 0.2779
loop_
_geom_bond_atom_site_label_1
_geom_bond_atom_site_label_2
_geom_bond_site_symmetry_1
_geom_bond_site_symmetry_2
O1 C4 1_555 1_555
O2 C6 1_555 1_555
O3 C4 1_555 1_555
O4 C8 1_555 1_555
O5 H1 1_555 1_555
C1 C8 1_555 1_555
C2 C9 1_555 1_555
C3 H2 1_555 1_555
C4 C5 1_555 1_555
C5 H3 1_555 1_555
C6 O5 1_555 1_555
C7 C5 1_555 1_555
H4 C7 1_555 1_555
C8 C11 1_555 1_555
C9 O3 1_555 1_555
H5 C9 1_555 1_555
C10 C2 1_555 1_555
H6 C10 1_555 1_555
C11 C7 1_555 1_555
H7 C11 1_555 1_555
H8 C11 1_555 1_555
C12 H9 1_555 1_555
C13 C1 1_555 1_555
H10 C13 1_555 1_555
C14 C2 1_555 1_555
H11 C14 1_555 1_555
C15 C3 1_555 1_555
H12 C15 1_555 1_555
C16 C1 1_555 1_555
H13 C16 1_555 1_555
C17 C12 1_555 1_555
H14 C17 1_555 1_555
C18 C13 1_555 1_555
H15 C18 1_555 1_555
C19 C10 1_555 1_555
H16 C19 1_555 1_555
C3 C16 1_555 1_555
C5 C6 1_555 1_555
C7 C9 1_555 1_555
C12 C19 1_555 1_555
C14 C17 1_555 1_555
C15 C18 1_555 1_555

#END
