
#######################################################################
#
#                 Cambridge Crystallographic Data Centre
#                                CCDC 
#
#######################################################################
#
# If this CIF has been generated from an entry in the Cambridge 
# Structural Database, then it will include bibliographic, chemical, 
# crystal, experimental, refinement or atomic coordinate data resulting 
# from the CCDC's data processing and validation procedures.
#
#######################################################################

data_FADGOG
_chemical_formula_moiety         'C16 H14 N2 O7'
_chemical_name_systematic        '1-(4-Methoxyphenyl)ethyl 3,5-dinitrobenzoate'
_symmetry_cell_setting           orthorhombic
_symmetry_space_group_name_H-M   'P b c a'
_symmetry_Int_Tables_number      61
_space_group_name_Hall           '-P 2ac 2ab'
loop_
_symmetry_equiv_pos_site_id
_symmetry_equiv_pos_as_xyz
1 x,y,z
2 1/2-x,-y,1/2+z
3 1/2+x,1/2-y,-z
4 -x,1/2+y,1/2-z
5 -x,-y,-z
6 1/2+x,y,1/2-z
7 1/2-x,1/2+y,z
8 x,1/2-y,1/2+z
_cell_length_a                   11.177(2)
_cell_length_b                   15.987(2)
_cell_length_c                   18.577(3)
_cell_angle_alpha                90
_cell_angle_beta                 90
_cell_angle_gamma                90
_cell_volume                     3319.46
_exptl_crystal_colour            'pale yellow'
_chemical_melting_point          '359-361 deg.C'
_cell_formula_units_Z            8
loop_
_atom_site_label
_atom_site_type_symbol
_atom_site_fract_x
_atom_site_fract_y
_atom_site_fract_z
C1 C 0.2589(4) 0.4353(2) 0.5615(2)
O1 O 0.1924(2) 0.3976(1) 0.6108(1)
O2 O 0.2468(2) 0.5058(1) 0.5397(1)
C2 C 0.0951(4) 0.4466(2) 0.6445(2)
C3 C 0.1452(5) 0.4795(3) 0.7147(2)
C4 C 0.3552(3) 0.3784(2) 0.5341(2)
C5 C 0.3785(4) 0.3013(2) 0.5666(2)
C6 C 0.4672(3) 0.2516(2) 0.5384(2)
C7 C 0.5352(3) 0.2737(2) 0.4803(2)
C8 C 0.5110(3) 0.3503(2) 0.4498(2)
C9 C 0.4223(3) 0.4032(2) 0.4751(2)
N1 N 0.4899(3) 0.1693(1) 0.5730(1)
O3 O 0.5565(3) 0.1210(1) 0.5421(1)
O4 O 0.4398(2) 0.1551(1) 0.6300(1)
N2 N 0.5817(3) 0.3760(2) 0.3864(2)
O5 O 0.6692(3) 0.3346(2) 0.3709(2)
O6 O 0.5480(2) 0.4381(2) 0.3535(1)
C10 C -0.0091(4) 0.3885(2) 0.6509(2)
C11 C -0.0092(4) 0.3205(2) 0.6980(2)
C12 C -0.1023(4) 0.2655(2) 0.7009(2)
C13 C -0.2007(4) 0.2763(2) 0.6569(2)
C14 C -0.2041(3) 0.3452(2) 0.6103(2)
C15 C -0.1097(4) 0.3996(2) 0.6085(2)
O7 O -0.2978(3) 0.2245(2) 0.6538(2)
C16 C -0.2876(4) 0.1465(3) 0.6912(2)
H1 H 0.0674 0.4943 0.6179
H2 H 0.0774 0.5088 0.7340
H3 H 0.2115 0.5173 0.7104
H4 H 0.1664 0.4344 0.7463
H5 H 0.3335 0.2834 0.6079
H6 H 0.5965 0.2376 0.4617
H7 H 0.4077 0.4561 0.4522
H8 H 0.0582 0.3122 0.7292
H9 H -0.0994 0.2190 0.7336
H10 H -0.2723 0.3541 0.5798
H11 H -0.1134 0.4471 0.5769
H12 H -0.3592 0.1143 0.6842
H13 H -0.2771 0.1577 0.7416
H14 H -0.2201 0.1155 0.6736
loop_
_geom_bond_atom_site_label_1
_geom_bond_atom_site_label_2
_geom_bond_site_symmetry_1
_geom_bond_site_symmetry_2
C1 O1 1_555 1_555
O1 C2 1_555 1_555
O2 C1 1_555 1_555
C2 C3 1_555 1_555
C3 H2 1_555 1_555
C4 C1 1_555 1_555
C5 C4 1_555 1_555
C6 C5 1_555 1_555
C7 C6 1_555 1_555
C8 C7 1_555 1_555
C9 C4 1_555 1_555
N1 C6 1_555 1_555
O3 N1 1_555 1_555
O4 N1 1_555 1_555
N2 C8 1_555 1_555
O5 N2 1_555 1_555
O6 N2 1_555 1_555
C10 C2 1_555 1_555
C11 C10 1_555 1_555
C12 C11 1_555 1_555
C13 C12 1_555 1_555
C14 C13 1_555 1_555
C15 C10 1_555 1_555
O7 C13 1_555 1_555
C16 O7 1_555 1_555
H1 C2 1_555 1_555
H3 C3 1_555 1_555
H4 C3 1_555 1_555
H5 C5 1_555 1_555
H6 C7 1_555 1_555
H7 C9 1_555 1_555
H8 C11 1_555 1_555
H9 C12 1_555 1_555
H10 C14 1_555 1_555
H11 C15 1_555 1_555
H12 C16 1_555 1_555
H13 C16 1_555 1_555
H14 C16 1_555 1_555
C8 C9 1_555 1_555
C14 C15 1_555 1_555

#END
