
#######################################################################
#
#                 Cambridge Crystallographic Data Centre
#                                CCDC 
#
#######################################################################
#
# If this CIF has been generated from an entry in the Cambridge 
# Structural Database, then it will include bibliographic, chemical, 
# crystal, experimental, refinement or atomic coordinate data resulting 
# from the CCDC's data processing and validation procedures.
#
#######################################################################

data_FADGUM
_chemical_formula_moiety         'C15 H12 N2 O6'
_chemical_name_systematic        '1-Phenylethyl 3,5-dinitrobenzoate'
_symmetry_cell_setting           orthorhombic
_symmetry_space_group_name_H-M   'P 21 21 21'
_symmetry_Int_Tables_number      19
_space_group_name_Hall           'P 2ac 2ab'
loop_
_symmetry_equiv_pos_site_id
_symmetry_equiv_pos_as_xyz
1 x,y,z
2 1/2+x,1/2-y,-z
3 -x,1/2+y,1/2-z
4 1/2-x,-y,1/2+z
_cell_length_a                   6.185(1)
_cell_length_b                   11.029(2)
_cell_length_c                   21.703(3)
_cell_angle_alpha                90
_cell_angle_beta                 90
_cell_angle_gamma                90
_cell_volume                     1480.46
_exptl_crystal_colour            colorless
_chemical_melting_point          '373-374 deg.C'
_cell_formula_units_Z            4
loop_
_atom_site_label
_atom_site_type_symbol
_atom_site_fract_x
_atom_site_fract_y
_atom_site_fract_z
C1 C 0.1843(3) 0.5561(2) 0.3766(1)
O1 O 0.3340(2) 0.5114(1) 0.4133(1)
O2 O 0.0615(3) 0.6378(2) 0.3892(1)
C2 C 0.3507(4) 0.5655(2) 0.4756(1)
C3 C 0.5350(5) 0.6547(3) 0.4751(1)
C4 C 0.1791(3) 0.4927(2) 0.3155(1)
C5 C 0.3365(3) 0.4093(2) 0.2982(1)
C6 C 0.3140(3) 0.3523(2) 0.2418(1)
C7 C 0.1432(3) 0.3727(2) 0.2023(1)
C8 C -0.0044(3) 0.4589(2) 0.2208(1)
C9 C 0.0089(3) 0.5184(2) 0.2764(1)
N1 N 0.4807(3) 0.2642(1) 0.2230(1)
O3 O 0.6496(2) 0.2617(1) 0.2521(1)
O4 O 0.4408(3) 0.1986(1) 0.1789(1)
N2 N -0.1910(3) 0.4846(2) 0.1804(1)
O5 O -0.3141(3) 0.5651(2) 0.1958(1)
O6 O -0.2128(3) 0.4241(2) 0.1340(1)
C10 C 0.3763(3) 0.4620(2) 0.5201(1)
C11 C 0.2194(4) 0.4433(2) 0.5643(1)
C12 C 0.2396(4) 0.3511(2) 0.6069(1)
C13 C 0.4141(5) 0.2764(2) 0.6054(1)
C14 C 0.5722(4) 0.2929(2) 0.5619(1)
C15 C 0.5536(4) 0.3857(2) 0.5190(1)
H1 H 0.2253 0.6106 0.4880
H2 H 0.5570 0.6856 0.5159
H3 H 0.5080 0.7209 0.4474
H4 H 0.6618 0.6116 0.4620
H5 H 0.4572 0.3919 0.3245
H6 H 0.1280 0.3294 0.1641
H7 H -0.0986 0.5770 0.2878
H8 H 0.0946 0.4951 0.5654
H9 H 0.1298 0.3396 0.6376
H10 H 0.4270 0.2120 0.6349
H11 H 0.6957 0.2402 0.5610
H12 H 0.6642 0.3970 0.4885
loop_
_geom_bond_atom_site_label_1
_geom_bond_atom_site_label_2
_geom_bond_site_symmetry_1
_geom_bond_site_symmetry_2
C1 O1 1_555 1_555
O1 C2 1_555 1_555
O2 C1 1_555 1_555
C2 C3 1_555 1_555
C3 H2 1_555 1_555
C4 C1 1_555 1_555
C5 C4 1_555 1_555
C6 C5 1_555 1_555
C7 C6 1_555 1_555
C8 C7 1_555 1_555
C9 C4 1_555 1_555
N1 C6 1_555 1_555
O3 N1 1_555 1_555
O4 N1 1_555 1_555
N2 C8 1_555 1_555
O5 N2 1_555 1_555
O6 N2 1_555 1_555
C10 C2 1_555 1_555
C11 C10 1_555 1_555
C12 C11 1_555 1_555
C13 C12 1_555 1_555
C14 C13 1_555 1_555
C15 C10 1_555 1_555
H1 C2 1_555 1_555
H3 C3 1_555 1_555
H4 C3 1_555 1_555
H5 C5 1_555 1_555
H6 C7 1_555 1_555
H7 C9 1_555 1_555
H8 C11 1_555 1_555
H9 C12 1_555 1_555
H10 C13 1_555 1_555
H11 C14 1_555 1_555
H12 C15 1_555 1_555
C8 C9 1_555 1_555
C14 C15 1_555 1_555

#END
