
#######################################################################
#
#                 Cambridge Crystallographic Data Centre
#                                CCDC 
#
#######################################################################
#
# If this CIF has been generated from an entry in the Cambridge 
# Structural Database, then it will include bibliographic, chemical, 
# crystal, experimental, refinement or atomic coordinate data resulting 
# from the CCDC's data processing and validation procedures.
#
#######################################################################

data_FADHAT
_chemical_formula_moiety         'C15 H11 F1 N2 O6'
_chemical_name_systematic        '1-(3-Fluorophenyl)ethyl 3,5-dinitrobenzoate'
_symmetry_cell_setting           monoclinic
_symmetry_space_group_name_H-M   'P 21/c'
_symmetry_Int_Tables_number      14
_space_group_name_Hall           '-P 2ybc'
loop_
_symmetry_equiv_pos_site_id
_symmetry_equiv_pos_as_xyz
1 x,y,z
2 -x,1/2+y,1/2-z
3 -x,-y,-z
4 x,1/2-y,1/2+z
_cell_length_a                   15.228(3)
_cell_length_b                   7.356(1)
_cell_length_c                   14.334(3)
_cell_angle_alpha                90
_cell_angle_beta                 108.76(2)
_cell_angle_gamma                90
_cell_volume                     1520.35
_exptl_crystal_colour            colorless
_chemical_melting_point          355-356deg.C
_cell_formula_units_Z            4
loop_
_atom_site_label
_atom_site_type_symbol
_atom_site_fract_x
_atom_site_fract_y
_atom_site_fract_z
C1 C 0.1698(2) 0.5167(4) 0.6608(2)
O1 O 0.1965(1) 0.5773(3) 0.5868(1)
O2 O 0.0909(1) 0.4960(4) 0.6577(1)
C2 C 0.1259(2) 0.6014(4) 0.4909(2)
C3 C 0.0787(2) 0.7834(5) 0.4864(3)
C4 C 0.2514(2) 0.4715(4) 0.7492(2)
C5 C 0.2357(2) 0.4215(4) 0.8356(2)
C6 C 0.3108(2) 0.3683(4) 0.9150(2)
C7 C 0.3999(2) 0.3635(4) 0.9119(2)
C8 C 0.4125(2) 0.4176(4) 0.8257(2)
C9 C 0.3407(2) 0.4719(4) 0.7445(2)
N1 N 0.2942(2) 0.3150(4) 1.0070(2)
O3 O 0.3615(2) 0.2588(5) 1.0749(2)
O4 O 0.2166(2) 0.3282(4) 1.0121(2)
N2 N 0.5075(2) 0.4176(4) 0.8201(2)
O5 O 0.5690(2) 0.3522(4) 0.8883(2)
O6 O 0.5189(2) 0.4883(6) 0.7487(2)
C10 C 0.1753(2) 0.5820(4) 0.4155(2)
C11 C 0.2684(2) 0.6269(4) 0.4370(2)
C12 C 0.3095(2) 0.6080(4) 0.3657(2)
C13 C 0.2637(2) 0.5503(4) 0.2723(2)
C14 C 0.1717(2) 0.5068(5) 0.2517(2)
C15 C 0.1273(2) 0.5224(5) 0.3215(2)
F1 F 0.4015(2) 0.6534(4) 0.3907(2)
H1 H 0.0774 0.5125 0.4784
H2 H 0.0339 0.7958 0.4220
H3 H 0.1236 0.8794 0.4971
H4 H 0.0480 0.7905 0.5352
H5 H 0.1743 0.4236 0.8404
H6 H 0.4509 0.3242 0.9674
H7 H 0.3524 0.5095 0.6855
H8 H 0.3034 0.6708 0.5012
H9 H 0.2942 0.5406 0.2235
H10 H 0.1373 0.4632 0.1871
H11 H 0.0627 0.4918 0.3046
loop_
_geom_bond_atom_site_label_1
_geom_bond_atom_site_label_2
_geom_bond_site_symmetry_1
_geom_bond_site_symmetry_2
C1 O1 1_555 1_555
O1 C2 1_555 1_555
O2 C1 1_555 1_555
C2 C3 1_555 1_555
C3 H2 1_555 1_555
C4 C1 1_555 1_555
C5 C4 1_555 1_555
C6 C5 1_555 1_555
C7 C6 1_555 1_555
C8 C7 1_555 1_555
C9 C4 1_555 1_555
N1 C6 1_555 1_555
O3 N1 1_555 1_555
O4 N1 1_555 1_555
N2 C8 1_555 1_555
O5 N2 1_555 1_555
O6 N2 1_555 1_555
C10 C2 1_555 1_555
C11 C10 1_555 1_555
C12 C11 1_555 1_555
C13 C12 1_555 1_555
C14 C13 1_555 1_555
C15 C10 1_555 1_555
F1 C12 1_555 1_555
H1 C2 1_555 1_555
H3 C3 1_555 1_555
H4 C3 1_555 1_555
H5 C5 1_555 1_555
H6 C7 1_555 1_555
H7 C9 1_555 1_555
H8 C11 1_555 1_555
H9 C13 1_555 1_555
H10 C14 1_555 1_555
H11 C15 1_555 1_555
C8 C9 1_555 1_555
C14 C15 1_555 1_555

#END
