
#######################################################################
#
#                 Cambridge Crystallographic Data Centre
#                                CCDC 
#
#######################################################################
#
# If this CIF has been generated from an entry in the Cambridge 
# Structural Database, then it will include bibliographic, chemical, 
# crystal, experimental, refinement or atomic coordinate data resulting 
# from the CCDC's data processing and validation procedures.
#
#######################################################################

data_FADLUU
_chemical_formula_moiety         'C19 H16 N2 O5'
_chemical_name_systematic        
'Dimethyl 2-benzoylquinoxaline-1,4-dicarboxylate'
_symmetry_cell_setting           triclinic
_symmetry_space_group_name_H-M   'P -1'
_symmetry_Int_Tables_number      2
_space_group_name_Hall           '-P 1'
loop_
_symmetry_equiv_pos_site_id
_symmetry_equiv_pos_as_xyz
1 x,y,z
2 -x,-y,-z
_cell_length_a                   8.2202(12)
_cell_length_b                   9.7813(15)
_cell_length_c                   11.0702(16)
_cell_angle_alpha                76.682(3)
_cell_angle_beta                 83.806(3)
_cell_angle_gamma                74.334(3)
_cell_volume                     832.985
_exptl_crystal_colour            colorless
_exptl_crystal_description       prismatic
_cell_formula_units_Z            2
loop_
_atom_site_label
_atom_site_type_symbol
_atom_site_fract_x
_atom_site_fract_y
_atom_site_fract_z
N1 N 0.15106(18) 0.68466(15) 0.31777(12)
N2 N 0.2715(2) 0.92082(15) 0.29270(13)
O1 O 0.22668(17) 0.50557(14) 0.20906(11)
O2 O 0.27488(17) 0.45641(13) 0.41244(11)
O3 O 0.49315(18) 0.98999(15) 0.34792(13)
O4 O 0.4210(2) 1.04253(17) 0.14917(13)
O5 O 0.0690(2) 0.82828(17) -0.00363(12)
C1 C 0.1553(2) 0.73759(18) 0.42743(15)
C2 C 0.0889(2) 0.6784(2) 0.54148(17)
H1 H 0.0421 0.6000 0.5493
C3 C 0.0922(3) 0.7361(2) 0.64366(18)
H2 H 0.0487 0.6955 0.7206
C4 C 0.1590(3) 0.8525(2) 0.63241(18)
H3 H 0.1621 0.8897 0.7020
C5 C 0.2221(2) 0.9153(2) 0.51813(17)
H4 H 0.2651 0.9958 0.5104
C6 C 0.2205(2) 0.85714(18) 0.41512(15)
C7 C 0.1863(2) 0.90661(19) 0.19454(16)
H5 H 0.1735 0.9776 0.1217
C8 C 0.1243(2) 0.79244(19) 0.20555(15)
C9 C 0.0297(2) 0.77824(19) 0.10308(16)
C10 C -0.1132(2) 0.70832(19) 0.13181(16)
C11 C -0.1529(3) 0.6454(2) 0.04156(18)
H6 H -0.0904 0.6482 -0.0338
C12 C -0.2841(3) 0.5792(3) 0.0637(2)
H7 H -0.3091 0.5358 0.0040
C13 C -0.3783(3) 0.5771(3) 0.1740(2)
H8 H -0.4668 0.5320 0.1888
C14 C -0.3430(3) 0.6410(3) 0.2623(2)
H9 H -0.4092 0.6411 0.3359
C15 C -0.2094(2) 0.7052(2) 0.24255(18)
H10 H -0.1840 0.7464 0.3037
C16 C 0.2196(2) 0.54365(18) 0.30603(15)
C17 C 0.3557(3) 0.3078(2) 0.4042(2)
H11 H 0.2813 0.2700 0.3675
H12 H 0.3808 0.2503 0.4860
H13 H 0.4588 0.3045 0.3538
C18 C 0.4048(2) 0.98677(19) 0.26968(17)
C19 C 0.5630(3) 1.1065(3) 0.1117(2)
H14 H 0.5544 1.1820 0.1559
H15 H 0.5621 1.1466 0.0240
H16 H 0.6665 1.0332 0.1304
loop_
_geom_bond_atom_site_label_1
_geom_bond_atom_site_label_2
_geom_bond_site_symmetry_1
_geom_bond_site_symmetry_2
N1 C1 1_555 1_555
N2 C6 1_555 1_555
O1 C16 1_555 1_555
O2 C16 1_555 1_555
O3 C18 1_555 1_555
O4 C18 1_555 1_555
O5 C9 1_555 1_555
C1 C2 1_555 1_555
C2 H1 1_555 1_555
C3 C2 1_555 1_555
H2 C3 1_555 1_555
C4 C3 1_555 1_555
H3 C4 1_555 1_555
C5 C4 1_555 1_555
H4 C5 1_555 1_555
C6 C1 1_555 1_555
C7 N2 1_555 1_555
H5 C7 1_555 1_555
C8 N1 1_555 1_555
C9 C8 1_555 1_555
C10 C9 1_555 1_555
C11 C10 1_555 1_555
H6 C11 1_555 1_555
C12 C11 1_555 1_555
H7 C12 1_555 1_555
C13 C12 1_555 1_555
H8 C13 1_555 1_555
C14 C13 1_555 1_555
H9 C14 1_555 1_555
C15 C10 1_555 1_555
H10 C15 1_555 1_555
C16 N1 1_555 1_555
C17 O2 1_555 1_555
H11 C17 1_555 1_555
H12 C17 1_555 1_555
H13 C17 1_555 1_555
C18 N2 1_555 1_555
C19 O4 1_555 1_555
H14 C19 1_555 1_555
H15 C19 1_555 1_555
H16 C19 1_555 1_555
C5 C6 1_555 1_555
C7 C8 1_555 1_555
C14 C15 1_555 1_555

#END
