
#######################################################################
#
#                 Cambridge Crystallographic Data Centre
#                                CCDC 
#
#######################################################################
#
# If this CIF has been generated from an entry in the Cambridge 
# Structural Database, then it will include bibliographic, chemical, 
# crystal, experimental, refinement or atomic coordinate data resulting 
# from the CCDC's data processing and validation procedures.
#
#######################################################################

data_FADMEF
_chemical_formula_moiety         'C26 H25 N1 O6 S1'
_chemical_name_systematic        
'Methyl 3-phenyl-2-(3,4,5-trimethoxybenzoyl)-2,3-dihydro-4H-1,4-benzothiazine-4-carboxylate'
_symmetry_cell_setting           monoclinic
_symmetry_space_group_name_H-M   'P 21/n'
_symmetry_Int_Tables_number      14
_space_group_name_Hall           '-P 2yn'
loop_
_symmetry_equiv_pos_site_id
_symmetry_equiv_pos_as_xyz
1 x,y,z
2 1/2-x,1/2+y,1/2-z
3 -x,-y,-z
4 1/2+x,1/2-y,1/2+z
_cell_length_a                   15.9871(15)
_cell_length_b                   7.2038(7)
_cell_length_c                   20.3361(19)
_cell_angle_alpha                90
_cell_angle_beta                 99.697(2)
_cell_angle_gamma                90
_cell_volume                     2308.6
_exptl_crystal_colour            colorless
_exptl_crystal_description       block
_cell_formula_units_Z            4
loop_
_atom_site_label
_atom_site_type_symbol
_atom_site_fract_x
_atom_site_fract_y
_atom_site_fract_z
S1 S 0.87892(3) 0.50380(7) 0.21263(2)
O1 O 1.00206(9) -0.05286(17) 0.12055(7)
O2 O 1.09641(9) 0.15982(18) 0.09781(7)
O3 O 0.91342(9) 0.33985(19) 0.04993(7)
O4 O 0.61828(8) 0.50847(18) -0.06895(7)
O5 O 0.58714(8) 0.84513(18) -0.02010(7)
O6 O 0.69541(8) 1.00524(17) 0.07531(7)
N1 N 1.01629(9) 0.22742(19) 0.17522(7)
C1 C 0.90485(12) 0.2791(2) 0.24285(9)
C2 C 0.86085(13) 0.2168(3) 0.29224(10)
H1 H 0.8174 0.2922 0.3048
C3 C 0.87914(14) 0.0482(3) 0.32310(11)
H2 H 0.8485 0.0074 0.3566
C4 C 0.94255(14) -0.0616(3) 0.30490(10)
H3 H 0.9555 -0.1783 0.3259
C5 C 0.98680(13) -0.0015(3) 0.25634(9)
H4 H 1.0307 -0.0771 0.2446
C6 C 0.96838(12) 0.1679(2) 0.22402(9)
C7 C 1.02809(11) 0.4269(2) 0.16224(9)
H5 H 1.0526 0.4329 0.1202
C8 C 0.94259(11) 0.5285(2) 0.14742(9)
H6 H 0.9554 0.6637 0.1440
C9 C 0.89093(12) 0.4704(2) 0.08092(9)
C10 C 0.81126(12) 0.5728(2) 0.05561(9)
C11 C 0.75385(12) 0.4894(3) 0.00526(9)
H7 H 0.7665 0.3721 -0.0120
C12 C 0.67841(12) 0.5777(3) -0.01957(9)
C13 C 0.65967(12) 0.7503(2) 0.00564(9)
C14 C 0.71849(12) 0.8346(2) 0.05514(9)
C15 C 0.79396(12) 0.7464(2) 0.08058(9)
H8 H 0.8335 0.8035 0.1147
C16 C 0.75644(14) 1.1003(3) 0.12311(11)
H9 H 0.8100 1.1113 0.1060
H10 H 0.7660 1.0303 0.1650
H11 H 0.7352 1.2244 0.1311
C17 C 0.51004(14) 0.7634(3) -0.00678(13)
H12 H 0.5000 0.6459 -0.0311
H13 H 0.4626 0.8483 -0.0213
H14 H 0.5148 0.7402 0.0412
C18 C 0.63720(14) 0.3378(3) -0.09899(11)
H15 H 0.5896 0.3031 -0.1338
H16 H 0.6465 0.2402 -0.0650
H17 H 0.6885 0.3529 -0.1189
C19 C 1.03507(12) 0.0980(3) 0.12964(9)
C20 C 1.11922(16) 0.0361(3) 0.04771(11)
H18 H 1.0777 0.0480 0.0066
H19 H 1.1196 -0.0921 0.0638
H20 H 1.1758 0.0687 0.0388
C21 C 1.09100(11) 0.5252(2) 0.21482(9)
C22 C 1.08804(12) 0.5203(2) 0.28273(9)
H21 H 1.0457 0.4483 0.2985
C23 C 1.14608(13) 0.6193(3) 0.32764(10)
H22 H 1.1437 0.6136 0.3740
C24 C 1.20737(13) 0.7263(3) 0.30545(11)
H23 H 1.2470 0.7945 0.3363
C25 C 1.21069(13) 0.7336(3) 0.23833(11)
H24 H 1.2526 0.8075 0.2228
C26 C 1.15328(12) 0.6338(3) 0.19323(10)
H25 H 1.1564 0.6393 0.1470
loop_
_geom_bond_atom_site_label_1
_geom_bond_atom_site_label_2
_geom_bond_site_symmetry_1
_geom_bond_site_symmetry_2
S1 C1 1_555 1_555
O1 C19 1_555 1_555
O2 C19 1_555 1_555
O3 C9 1_555 1_555
O4 C12 1_555 1_555
O5 C13 1_555 1_555
O6 C14 1_555 1_555
N1 C6 1_555 1_555
C1 C2 1_555 1_555
C2 H1 1_555 1_555
C3 C2 1_555 1_555
H2 C3 1_555 1_555
C4 C3 1_555 1_555
H3 C4 1_555 1_555
C5 C4 1_555 1_555
H4 C5 1_555 1_555
C6 C1 1_555 1_555
C7 N1 1_555 1_555
H5 C7 1_555 1_555
C8 S1 1_555 1_555
H6 C8 1_555 1_555
C9 C8 1_555 1_555
C10 C9 1_555 1_555
C11 C10 1_555 1_555
H7 C11 1_555 1_555
C12 C11 1_555 1_555
C13 C12 1_555 1_555
C14 C13 1_555 1_555
C15 C10 1_555 1_555
H8 C15 1_555 1_555
C16 O6 1_555 1_555
H9 C16 1_555 1_555
H10 C16 1_555 1_555
H11 C16 1_555 1_555
C17 O5 1_555 1_555
H12 C17 1_555 1_555
H13 C17 1_555 1_555
H14 C17 1_555 1_555
C18 O4 1_555 1_555
H15 C18 1_555 1_555
H16 C18 1_555 1_555
H17 C18 1_555 1_555
C19 N1 1_555 1_555
C20 O2 1_555 1_555
H18 C20 1_555 1_555
H19 C20 1_555 1_555
H20 C20 1_555 1_555
C21 C7 1_555 1_555
C22 C21 1_555 1_555
H21 C22 1_555 1_555
C23 C22 1_555 1_555
H22 C23 1_555 1_555
C24 C23 1_555 1_555
H23 C24 1_555 1_555
C25 C24 1_555 1_555
H24 C25 1_555 1_555
C26 C21 1_555 1_555
H25 C26 1_555 1_555
C5 C6 1_555 1_555
C7 C8 1_555 1_555
C14 C15 1_555 1_555
C25 C26 1_555 1_555

#END
