
#######################################################################
#
#                 Cambridge Crystallographic Data Centre
#                                CCDC 
#
#######################################################################
#
# If this CIF has been generated from an entry in the Cambridge 
# Structural Database, then it will include bibliographic, chemical, 
# crystal, experimental, refinement or atomic coordinate data resulting 
# from the CCDC's data processing and validation procedures.
#
#######################################################################

data_FADQAE
_chemical_formula_moiety         'C20 H18 N2 O3'
_chemical_name_systematic        
2-Ethyl-1-(4-((2-hydroxybenzylidene)amino)phenyl)-1,2-dihydropyridine-3,4-diol
_symmetry_cell_setting           triclinic
_symmetry_space_group_name_H-M   'P -1'
_symmetry_Int_Tables_number      2
_space_group_name_Hall           '-P 1'
loop_
_symmetry_equiv_pos_site_id
_symmetry_equiv_pos_as_xyz
1 x,y,z
2 -x,-y,-z
_cell_length_a                   12.492(2)
_cell_length_b                   13.916(2)
_cell_length_c                   9.745(2)
_cell_angle_alpha                90
_cell_angle_beta                 93.742(2)
_cell_angle_gamma                90
_cell_volume                     1690.45
_chemical_melting_point          183deg.C
_cell_formula_units_Z            4
loop_
_atom_site_label
_atom_site_type_symbol
_atom_site_fract_x
_atom_site_fract_y
_atom_site_fract_z
N1 N 0.1416(4) 0.1094(3) 1.0702(4)
N2 N 0.3717(6) 0.1220(3) 0.5930(5)
O1 O 0.1057(4) -0.0537(3) 1.3494(4)
O2 O -0.0031(4) 0.1065(3) 1.4312(4)
O3 O 0.3788(6) 0.1039(4) 0.3239(5)
C1 C 0.129 0.021 1.133
C2 C 0.0987(5) 0.0280(4) 1.2708(6)
C3 C 0.0427(5) 0.1082(4) 1.3187(6)
C4 C 0.0369(3) 0.1869(4) 1.2281(6)
C5 C 0.0850(6) 0.1863(4) 1.1088(7)
C6 C 0.2007(6) 0.1137(4) 0.9479(6)
C7 C 0.3006(6) 0.1515(5) 0.9561(6)
C8 C 0.3583(6) 0.1560(5) 0.8413(7)
C9 C 0.3130(6) 0.1230(4) 0.7156(6)
C10 C 0.2115(6) 0.0885(5) 0.7073(6)
C11 C 0.1535(5) 0.0839(4) 0.8231(6)
C12 C 0.2093(7) -0.0601(5) 1.1059(7)
C13 C 0.1439(12) -0.1244(10) 1.0424(15)
C14 C 0.4730(3) 0.1316(4) 0.5970(7)
C15 C 0.5315(8) 0.1303(4) 0.4743(7)
C16 C 0.4836(9) 0.1199(5) 0.3155(7)
C17 C 0.5438(10) 0.1214(6) 0.2299(8)
C18 C 0.6569(10) 0.1344(6) 0.2489(10)
C19 C 0.7058(8) 0.1460(5) 0.3757(10)
C20 C 0.6430(9) 0.1470(5) 0.4895(8)
loop_
_geom_bond_atom_site_label_1
_geom_bond_atom_site_label_2
_geom_bond_site_symmetry_1
_geom_bond_site_symmetry_2
N1 C1 1_555 1_555
N2 C9 1_555 1_555
O1 C2 1_555 1_555
O2 C3 1_555 1_555
O3 C16 1_555 1_555
C1 C2 1_555 1_555
C2 C3 1_555 1_555
C3 C4 1_555 1_555
C4 C5 1_555 1_555
C5 N1 1_555 1_555
C6 N1 1_555 1_555
C7 C6 1_555 1_555
C8 C7 1_555 1_555
C9 C8 1_555 1_555
C10 C9 1_555 1_555
C11 C6 1_555 1_555
C12 C1 1_555 1_555
C13 C12 1_555 1_555
C14 N2 1_555 1_555
C15 C14 1_555 1_555
C16 C15 1_555 1_555
C17 C16 1_555 1_555
C18 C17 1_555 1_555
C19 C18 1_555 1_555
C20 C15 1_555 1_555
C10 C11 1_555 1_555
C19 C20 1_555 1_555

#END
