
#######################################################################
#
#                 Cambridge Crystallographic Data Centre
#                                CCDC 
#
#######################################################################
#
# If this CIF has been generated from an entry in the Cambridge 
# Structural Database, then it will include bibliographic, chemical, 
# crystal, experimental, refinement or atomic coordinate data resulting 
# from the CCDC's data processing and validation procedures.
#
#######################################################################

data_FADSOU
_chemical_name_common            
'Methyl 2-(3-methyl-2-phenyl-4-thioxoazetidin-1-yl)-3-phenylpropanoate'
_chemical_formula_moiety         'C20 H21 N1 O2 S1'
_chemical_name_systematic        
'Methyl 2-(S)-(3-(S)-methyl-4-(S)-phenyl-2-thioxo-1-azetidinyl)-3-phenylpropionate'
_symmetry_cell_setting           orthorhombic
_symmetry_space_group_name_H-M   'P n a 21'
_symmetry_Int_Tables_number      33
_space_group_name_Hall           'P 2c -2n'
loop_
_symmetry_equiv_pos_site_id
_symmetry_equiv_pos_as_xyz
1 x,y,z
2 -x,-y,1/2+z
3 1/2+x,1/2-y,z
4 1/2-x,1/2+y,1/2+z
_cell_length_a                   18.130(1)
_cell_length_b                   14.861(1)
_cell_length_c                   6.948(1)
_cell_angle_alpha                90
_cell_angle_beta                 90
_cell_angle_gamma                90
_cell_volume                     1872
_exptl_crystal_colour            colorless
_chemical_melting_point          '372.5-373.5 K'
_cell_formula_units_Z            4
loop_
_atom_site_label
_atom_site_type_symbol
_atom_site_fract_x
_atom_site_fract_y
_atom_site_fract_z
S1 S 0.66750(4) 0.91246(5) 0.716
O1 O 0.5638(1) 0.9027(2) 0.2030(6)
O2 O 0.5992(1) 1.0426(1) 0.2597(4)
N1 N 0.7285(1) 0.9810(1) 0.3882(3)
C1 C 0.7165(1) 0.9793(2) 0.5802(4)
C2 C 0.7602(2) 1.0646(2) 0.6135(5)
C3 C 0.7647(1) 1.0711(2) 0.3874(5)
C4 C 0.6917(1) 0.9334(2) 0.2338(5)
C5 C 0.6106(1) 0.9554(2) 0.2304(6)
C6 C 0.5235(2) 1.0722(3) 0.2569(7)
C7 C 0.7029(2) 0.8309(2) 0.2402(6)
C8 C 0.7804(2) 0.8018(2) 0.2256(6)
C9 C 0.8172(2) 0.7675(2) 0.3824(6)
C10 C 0.8888(3) 0.7387(3) 0.3652(8)
C11 C 0.9249(2) 0.7458(3) 0.197(1)
C12 C 0.8892(2) 0.7798(3) 0.0396(8)
C13 C 0.8178(2) 0.8079(2) 0.0525(6)
C14 C 0.8301(2) 1.0551(3) 0.7255(7)
C15 C 0.8372(1) 1.0793(2) 0.2911(4)
C16 C 0.8587(2) 1.1641(2) 0.2281(7)
C17 C 0.9255(2) 1.1770(2) 0.1420(6)
C18 C 0.9723(2) 1.1058(3) 0.1176(6)
C19 C 0.9517(2) 1.0212(2) 0.1799(6)
C20 C 0.8849(2) 1.0087(2) 0.2658(5)
H1 H 0.726(1) 1.111(2) 0.666(5)
H2 H 0.730(1) 1.118(2) 0.333(4)
H3 H 0.713(1) 0.957(2) 0.118(4)
H4 H 0.792(2) 0.762(2) 0.478(6)
H5 H 0.918(2) 0.722(3) 0.466(7)
H6 H 0.975(2) 0.726(2) 0.190(7)
H7 H 0.914(2) 0.787(2) -0.085(6)
H8 H 0.793(2) 0.825(2) -0.052(6)
H9 H 0.822(1) 1.206(2) 0.233(7)
H10 H 0.943(2) 1.233(2) 0.082(5)
H11 H 1.021(2) 1.116(2) 0.063(5)
H12 H 0.990(2) 0.972(2) 0.169(5)
H13 H 0.870(1) 0.956(2) 0.304(4)
H14 H 0.520(2) 1.122(2) 0.298(7)
H15 H 0.494(2) 1.025(2) 0.287(5)
H16 H 0.499(2) 1.069(2) 0.122(6)
H17 H 0.683(1) 0.808(2) 0.341(4)
H18 H 0.671(2) 0.812(2) 0.126(5)
H19 H 0.860(2) 1.108(2) 0.722(7)
H20 H 0.859(2) 1.004(2) 0.682(6)
H21 H 0.821(2) 1.049(2) 0.834(6)
loop_
_geom_bond_atom_site_label_1
_geom_bond_atom_site_label_2
_geom_bond_site_symmetry_1
_geom_bond_site_symmetry_2
S1 C1 1_555 1_555
O1 C5 1_555 1_555
O2 C5 1_555 1_555
N1 C1 1_555 1_555
C1 C2 1_555 1_555
C2 C3 1_555 1_555
C3 N1 1_555 1_555
C4 N1 1_555 1_555
C5 C4 1_555 1_555
C6 O2 1_555 1_555
C7 C4 1_555 1_555
C8 C7 1_555 1_555
C9 C8 1_555 1_555
C10 C9 1_555 1_555
C11 C10 1_555 1_555
C12 C11 1_555 1_555
C13 C8 1_555 1_555
C14 C2 1_555 1_555
C15 C3 1_555 1_555
C16 C15 1_555 1_555
C17 C16 1_555 1_555
C18 C17 1_555 1_555
C19 C18 1_555 1_555
C20 C15 1_555 1_555
H1 C2 1_555 1_555
H2 C3 1_555 1_555
H3 C4 1_555 1_555
H4 C9 1_555 1_555
H5 C10 1_555 1_555
H6 C11 1_555 1_555
H7 C12 1_555 1_555
H8 C13 1_555 1_555
H9 C16 1_555 1_555
H10 C17 1_555 1_555
H11 C18 1_555 1_555
H12 C19 1_555 1_555
H13 C20 1_555 1_555
H14 C6 1_555 1_555
H15 C6 1_555 1_555
H16 C6 1_555 1_555
H17 C7 1_555 1_555
H18 C7 1_555 1_555
H19 C14 1_555 1_555
H20 C14 1_555 1_555
H21 C14 1_555 1_555
C12 C13 1_555 1_555
C19 C20 1_555 1_555

#END
