
#######################################################################
#
#                 Cambridge Crystallographic Data Centre
#                                CCDC 
#
#######################################################################
#
# If this CIF has been generated from an entry in the Cambridge 
# Structural Database, then it will include bibliographic, chemical, 
# crystal, experimental, refinement or atomic coordinate data resulting 
# from the CCDC's data processing and validation procedures.
#
#######################################################################

data_FADYAM
_chemical_formula_moiety         'C14 H10 N6 O2,2(H2 O1)'
_chemical_name_systematic        
'6,9,15,17,18,20-Hexa-azapentacyclo-[12.3.3.0^1,14^.0^2,7^.0^8,13^]icosa-2,4,6,8,10,12-hexaene-16,19-dione dihydrate'
_symmetry_cell_setting           monoclinic
_symmetry_space_group_name_H-M   'P 21/c'
_symmetry_Int_Tables_number      14
_space_group_name_Hall           '-P 2ybc'
loop_
_symmetry_equiv_pos_site_id
_symmetry_equiv_pos_as_xyz
1 x,y,z
2 -x,1/2+y,1/2-z
3 -x,-y,-z
4 x,1/2-y,1/2+z
_cell_length_a                   18.545(5)
_cell_length_b                   12.504(3)
_cell_length_c                   12.818(3)
_cell_angle_alpha                90
_cell_angle_beta                 108.476(8)
_cell_angle_gamma                90
_cell_volume                     2819.12
_cell_formula_units_Z            8
loop_
_atom_site_label
_atom_site_type_symbol
_atom_site_fract_x
_atom_site_fract_y
_atom_site_fract_z
O1 O 0.3209(10) 0.7325(12) 1.1003(16)
N1 N 0.22037(17) 0.9236(3) 0.6423(3)
H1 H 0.2558 0.8797 0.6411
C1 C 0.1033(2) 0.8201(3) 0.6170(3)
C2 C 0.0445(2) 1.0192(3) 0.6816(3)
N2 N 0.18805(19) 0.8621(3) 0.8012(3)
H2 H 0.1927 0.7964 0.8220
N3 N 0.15441(18) 1.0734(3) 0.6216(3)
H3 H 0.1342 1.1324 0.5920
N4 N 0.17297(18) 1.0360(3) 0.8145(3)
H4 H 0.1768 1.0990 0.8428
C3 C 0.1295(2) 1.0121(3) 0.6990(3)
C4 C 0.1602(2) 0.8979(3) 0.6876(3)
N5 N -0.07535(18) 0.9285(3) 0.6424(3)
C5 C -0.0020(2) 0.9301(3) 0.6448(3)
N6 N -0.0273(2) 0.7659(3) 0.5416(4)
C6 C 0.2146(2) 1.0246(3) 0.6020(3)
C7 C 0.0256(2) 0.8343(3) 0.6011(3)
C8 C 0.1253(2) 0.7312(3) 0.5706(4)
H5 H 0.1764 0.7198 0.5791
C9 C 0.2059(2) 0.9488(3) 0.8707(3)
C10 C 0.0712(3) 0.6593(4) 0.5115(4)
H6 H 0.0853 0.5980 0.4815
C11 C 0.0131(2) 1.1100(4) 0.7084(4)
H7 H 0.0430 1.1704 0.7324
C12 C -0.1036(2) 1.0187(4) 0.6701(4)
H8 H -0.1539 1.0184 0.6693
C13 C -0.0045(3) 0.6809(4) 0.4980(5)
H9 H -0.0411 0.6337 0.4564
C14 C -0.0628(2) 1.1120(4) 0.6998(4)
H10 H -0.0857 1.1742 0.7135
O2 O 0.25651(17) 1.0650(3) 0.5552(3)
O3 O 0.24488(19) 0.9445(3) 0.9682(3)
N7 N 0.30319(18) 1.0834(3) 1.1523(3)
H11 H 0.3064 1.0842 1.0868
C15 C 0.4065(2) 1.1354(3) 1.4194(3)
C16 C 0.35031(19) 1.0192(3) 1.2411(3)
C17 C 0.4315(2) 1.0133(3) 1.2382(3)
C18 C 0.4903(2) 1.0713(3) 1.3125(3)
N8 N 0.27413(19) 1.1420(3) 1.2963(3)
H12 H 0.2517 1.1782 1.3341
N9 N 0.53736(18) 1.1884(3) 1.4695(3)
C19 C 0.3394(2) 1.0732(3) 1.3454(3)
N10 N 0.31951(18) 0.9125(2) 1.2464(3)
H13 H 0.3110 0.8663 1.1942
N11 N 0.32171(19) 0.9830(3) 1.4040(3)
H14 H 0.3214 0.9858 1.4709
C20 C 0.4770(2) 1.1336(3) 1.4036(3)
C21 C 0.3060(2) 0.8945(3) 1.3418(3)
C22 C 0.2524(2) 1.1432(3) 1.1857(3)
C23 C 0.5280(2) 1.2411(4) 1.5534(4)
H15 H 0.5696 1.2777 1.5998
C24 C 0.4603(3) 1.2453(4) 1.5764(4)
H16 H 0.4565 1.2835 1.6367
C25 C 0.4481(2) 0.9531(4) 1.1584(4)
H17 H 0.4101 0.9141 1.1078
C26 C 0.3986(2) 1.1918(3) 1.5083(4)
H18 H 0.3522 1.1934 1.5216
C27 C 0.5768(2) 1.0123(4) 1.2308(4)
H19 H 0.6262 1.0112 1.2278
C28 C 0.5217(3) 0.9515(4) 1.1548(4)
H20 H 0.5342 0.9105 1.1025
N12 N 0.56188(18) 1.0716(3) 1.3073(3)
O4 O 0.28305(17) 0.8090(2) 1.3693(3)
O5 O 0.19774(17) 1.1918(2) 1.1245(3)
C29? C 0.32233(18) 0.7309(3) 1.1022(3)
C30? C 0.17945(16) 0.2532(2) 0.4022(2)
loop_
_geom_bond_atom_site_label_1
_geom_bond_atom_site_label_2
_geom_bond_site_symmetry_1
_geom_bond_site_symmetry_2
N1 H1 1_555 1_555
C1 C4 1_555 1_555
C2 C3 1_555 1_555
N2 H2 1_555 1_555
N3 H3 1_555 1_555
N4 H4 1_555 1_555
C3 N3 1_555 1_555
C4 N1 1_555 1_555
N5 C5 1_555 1_555
C5 C2 1_555 1_555
N6 C7 1_555 1_555
C6 N1 1_555 1_555
C7 C1 1_555 1_555
C8 C1 1_555 1_555
H5 C8 1_555 1_555
C9 N2 1_555 1_555
C10 C8 1_555 1_555
H6 C10 1_555 1_555
C11 C2 1_555 1_555
H7 C11 1_555 1_555
C12 N5 1_555 1_555
H8 C12 1_555 1_555
C13 N6 1_555 1_555
H9 C13 1_555 1_555
C14 C11 1_555 1_555
H10 C14 1_555 1_555
O2 C6 1_555 1_555
O3 C9 1_555 1_555
N7 H11 1_555 1_555
C15 C19 1_555 1_555
C16 N7 1_555 1_555
C17 C16 1_555 1_555
C18 C17 1_555 1_555
N8 H12 1_555 1_555
N9 C20 1_555 1_555
C19 C16 1_555 1_555
N10 C16 1_555 1_555
H13 N10 1_555 1_555
N11 C19 1_555 1_555
H14 N11 1_555 1_555
C20 C15 1_555 1_555
C21 N10 1_555 1_555
C22 N7 1_555 1_555
C23 N9 1_555 1_555
H15 C23 1_555 1_555
C24 C23 1_555 1_555
H16 C24 1_555 1_555
C25 C17 1_555 1_555
H17 C25 1_555 1_555
C26 C15 1_555 1_555
H18 C26 1_555 1_555
C27 H19 1_555 1_555
C28 C25 1_555 1_555
H20 C28 1_555 1_555
N12 C18 1_555 1_555
O4 C21 1_555 1_555
O5 C22 1_555 1_555
N2 C4 1_555 1_555
N3 C6 1_555 1_555
N4 C3 1_555 1_555
N4 C9 1_555 1_555
C3 C4 1_555 1_555
C5 C7 1_555 1_555
C10 C13 1_555 1_555
C12 C14 1_555 1_555
C18 C20 1_555 1_555
N8 C19 1_555 1_555
N8 C22 1_555 1_555
N11 C21 1_555 1_555
C24 C26 1_555 1_555
C27 C28 1_555 1_555
C27 N12 1_555 1_555

#END
