
#######################################################################
#
#                 Cambridge Crystallographic Data Centre
#                                CCDC 
#
#######################################################################
#
# If this CIF has been generated from an entry in the Cambridge 
# Structural Database, then it will include bibliographic, chemical, 
# crystal, experimental, refinement or atomic coordinate data resulting 
# from the CCDC's data processing and validation procedures.
#
#######################################################################

data_FAFBOG
_chemical_name_common            
N'-(4-fluorobenzylidene)pyrazine-2-carbohydrazide
_chemical_formula_moiety         'C12 H9 F1 N4 O1'
_chemical_name_systematic        
'4-Fluorobenzaldehyde (pyrazin-2-ylcarbonyl)hydrazone'
_symmetry_cell_setting           triclinic
_symmetry_space_group_name_H-M   'P -1'
_symmetry_Int_Tables_number      2
_space_group_name_Hall           '-P 1'
loop_
_symmetry_equiv_pos_site_id
_symmetry_equiv_pos_as_xyz
1 x,y,z
2 -x,-y,-z
_cell_length_a                   5.6456(2)
_cell_length_b                   7.4363(2)
_cell_length_c                   14.0885(5)
_cell_angle_alpha                102.4427(16)
_cell_angle_beta                 94.1226(17)
_cell_angle_gamma                109.7299(17)
_cell_volume                     536.897
_exptl_crystal_colour            colorless
_exptl_crystal_description       slab
_cell_formula_units_Z            2
loop_
_atom_site_label
_atom_site_type_symbol
_atom_site_fract_x
_atom_site_fract_y
_atom_site_fract_z
F1 F 0.75873(16) 0.99095(13) 0.03464(7)
O1 O -0.22403(17) 0.19901(13) 0.32599(7)
N1 N -0.3881(2) -0.28151(16) 0.44829(8)
N2 N 0.04624(19) -0.15696(14) 0.35753(7)
N3 N 0.1551(2) 0.17391(15) 0.29135(8)
H1 H 0.2608 0.1110 0.2955
N4 N 0.2152(2) 0.33086(15) 0.24868(8)
C1 C -0.1157(2) -0.05997(16) 0.36757(8)
C2 C -0.3299(2) -0.12076(18) 0.41248(9)
H2 H -0.4384 -0.0466 0.4181
C3 C -0.2290(2) -0.38028(18) 0.43631(9)
H3 H -0.2640 -0.4964 0.4592
C4 C -0.0142(2) -0.31916(17) 0.39154(9)
H4 H 0.0927 -0.3946 0.3849
C5 C -0.0681(2) 0.11733(17) 0.32686(9)
C6 C 0.4246(2) 0.36905(18) 0.21354(9)
H5 H 0.5250 0.2901 0.2175
C7 C 0.5101(2) 0.53371(17) 0.16736(9)
C8 C 0.3906(2) 0.67238(18) 0.17355(9)
H6 H 0.2513 0.6609 0.2088
C9 C 0.4739(2) 0.82580(18) 0.12869(9)
H7 H 0.3926 0.9195 0.1323
C10 C 0.6783(2) 0.8397(2) 0.07844(10)
C11 C 0.8025(2) 0.7076(2) 0.07115(10)
H8 H 0.9424 0.7211 0.0361
C12 C 0.7174(2) 0.55427(19) 0.11661(9)
H9 H 0.8012 0.4622 0.1131
loop_
_geom_bond_atom_site_label_1
_geom_bond_atom_site_label_2
_geom_bond_site_symmetry_1
_geom_bond_site_symmetry_2
F1 C10 1_555 1_555
O1 C5 1_555 1_555
N1 C2 1_555 1_555
N2 C1 1_555 1_555
N3 H1 1_555 1_555
N4 N3 1_555 1_555
C1 C2 1_555 1_555
C2 H2 1_555 1_555
C3 N1 1_555 1_555
H3 C3 1_555 1_555
C4 N2 1_555 1_555
H4 C4 1_555 1_555
C5 N3 1_555 1_555
C6 N4 1_555 1_555
H5 C6 1_555 1_555
C7 C6 1_555 1_555
C8 C7 1_555 1_555
H6 C8 1_555 1_555
C9 C8 1_555 1_555
H7 C9 1_555 1_555
C10 C9 1_555 1_555
C11 C10 1_555 1_555
H8 C11 1_555 1_555
C12 C7 1_555 1_555
H9 C12 1_555 1_555
C1 C5 1_555 1_555
C3 C4 1_555 1_555
C11 C12 1_555 1_555

#END
