
#######################################################################
#
#                 Cambridge Crystallographic Data Centre
#                                CCDC 
#
#######################################################################
#
# If this CIF has been generated from an entry in the Cambridge 
# Structural Database, then it will include bibliographic, chemical, 
# crystal, experimental, refinement or atomic coordinate data resulting 
# from the CCDC's data processing and validation procedures.
#
#######################################################################

data_FAFCEX
_chemical_name_common            
N'-(3-chlorobenzylidene)pyrazine-2-carbohydrazide
_chemical_formula_moiety         'C12 H9 Cl1 N4 O1'
_chemical_name_systematic        
'3-Chlorobenzaldehyde (pyrazin-2-ylcarbonyl)hydrazone'
_symmetry_cell_setting           monoclinic
_symmetry_space_group_name_H-M   'C 2/c'
_symmetry_Int_Tables_number      15
_space_group_name_Hall           '-C 2yn'
loop_
_symmetry_equiv_pos_site_id
_symmetry_equiv_pos_as_xyz
1 x,y,z
2 -x,y,1/2-z
3 1/2+x,1/2+y,z
4 1/2-x,1/2+y,1/2-z
5 -x,-y,-z
6 x,-y,1/2+z
7 1/2-x,1/2-y,-z
8 1/2+x,1/2-y,1/2+z
_cell_length_a                   14.2202(17)
_cell_length_b                   6.0930(7)
_cell_length_c                   27.170(4)
_cell_angle_alpha                90
_cell_angle_beta                 103.794(6)
_cell_angle_gamma                90
_cell_volume                     2286.21
_exptl_crystal_colour            colorless
_exptl_crystal_description       plate
_cell_formula_units_Z            8
loop_
_atom_site_label
_atom_site_type_symbol
_atom_site_fract_x
_atom_site_fract_y
_atom_site_fract_z
Cl1 Cl 0.61848(7) 0.55410(17) 0.73126(4)
O1 O 0.34546(19) 0.1752(5) 0.48641(10)
N1 N 0.1487(2) 0.1900(5) 0.34488(13)
N2 N 0.2330(2) 0.5710(5) 0.39445(12)
N3 N 0.3543(2) 0.5505(6) 0.48629(13)
H1 H 0.3358 0.6710 0.4688
N4 N 0.4160(2) 0.5658(5) 0.53344(12)
C1 C 0.2522(3) 0.3711(6) 0.41504(15)
C2 C 0.2095(3) 0.1836(7) 0.39045(16)
H2 H 0.2243 0.0456 0.4067
C3 C 0.1303(3) 0.3920(7) 0.32421(16)
H3 H 0.0875 0.4063 0.2917
C4 C 0.1717(3) 0.5760(6) 0.34892(15)
H4 H 0.1560 0.7143 0.3329
C5 C 0.3215(3) 0.3552(7) 0.46618(15)
C6 C 0.4441(3) 0.7642(7) 0.54559(15)
H5 H 0.4226 0.8786 0.5218
C7 C 0.5081(3) 0.8188(6) 0.59465(15)
C8 C 0.5310(3) 0.6682(7) 0.63442(14)
H6 H 0.5060 0.5230 0.6304
C9 C 0.5910(3) 0.7351(6) 0.67971(15)
C10 C 0.6304(3) 0.9441(7) 0.68658(16)
H7 H 0.6731 0.9849 0.7177
C11 C 0.6058(3) 1.0918(7) 0.64691(17)
H8 H 0.6314 1.2365 0.6510
C12 C 0.5449(3) 1.0319(7) 0.60162(16)
H9 H 0.5278 1.1359 0.5749
loop_
_geom_bond_atom_site_label_1
_geom_bond_atom_site_label_2
_geom_bond_site_symmetry_1
_geom_bond_site_symmetry_2
Cl1 C9 1_555 1_555
O1 C5 1_555 1_555
N1 C2 1_555 1_555
N2 C1 1_555 1_555
N3 H1 1_555 1_555
N4 N3 1_555 1_555
C1 C2 1_555 1_555
C2 H2 1_555 1_555
C3 N1 1_555 1_555
H3 C3 1_555 1_555
C4 N2 1_555 1_555
H4 C4 1_555 1_555
C5 N3 1_555 1_555
C6 N4 1_555 1_555
H5 C6 1_555 1_555
C7 C6 1_555 1_555
C8 C7 1_555 1_555
H6 C8 1_555 1_555
C9 C8 1_555 1_555
C10 C9 1_555 1_555
H7 C10 1_555 1_555
C11 C10 1_555 1_555
H8 C11 1_555 1_555
C12 C7 1_555 1_555
H9 C12 1_555 1_555
C1 C5 1_555 1_555
C3 C4 1_555 1_555
C11 C12 1_555 1_555

#END
