
#######################################################################
#
#                 Cambridge Crystallographic Data Centre
#                                CCDC 
#
#######################################################################
#
# If this CIF has been generated from an entry in the Cambridge 
# Structural Database, then it will include bibliographic, chemical, 
# crystal, experimental, refinement or atomic coordinate data resulting 
# from the CCDC's data processing and validation procedures.
#
#######################################################################

data_FAFDAS
_chemical_formula_moiety         'C7 H8 O2'
_chemical_name_systematic        
(3SR,7SR)-5-Oxatricyclo(5.1.0.0^1,3^)octane-4-one
_symmetry_cell_setting           orthorhombic
_symmetry_space_group_name_H-M   'P 21 21 21'
_symmetry_Int_Tables_number      19
_space_group_name_Hall           'P 2ac 2ab'
loop_
_symmetry_equiv_pos_site_id
_symmetry_equiv_pos_as_xyz
1 x,y,z
2 1/2-x,-y,1/2+z
3 -x,1/2+y,1/2-z
4 1/2+x,1/2-y,-z
_cell_length_a                   7.4346(8)
_cell_length_b                   8.1758(9)
_cell_length_c                   9.963(1)
_cell_angle_alpha                90
_cell_angle_beta                 90
_cell_angle_gamma                90
_cell_volume                     605.589
_exptl_crystal_colour            colorless
_exptl_crystal_description       plate
_chemical_melting_point          42-43deg.C
_cell_formula_units_Z            4
loop_
_atom_site_label
_atom_site_type_symbol
_atom_site_fract_x
_atom_site_fract_y
_atom_site_fract_z
O1 O -0.0131(3) 0.9015(3) 1.0312(2)
O2 O -0.0039(4) 0.7222(2) 0.8671(2)
C1 C -0.0023(6) 0.4250(4) 0.9016(3)
C2 C 0.1285(5) 0.3234(5) 0.9878(4)
C3 C 0.0561(5) 0.6268(4) 1.0945(4)
C4 C -0.0984(6) 0.5182(5) 1.1518(4)
C5 C 0.0231(5) 0.4583(4) 1.0465(3)
C6 C 0.0701(5) 0.5636(4) 0.8192(4)
C7 C 0.0120(5) 0.7607(4) 0.9988(3)
H1 H -0.119(5) 0.382(4) 0.871(3)
H2 H 0.151(4) 0.644(3) 1.150(3)
H3 H 0.088(5) 0.209(5) 1.005(3)
H4 H 0.265(4) 0.339(4) 0.975(4)
H5 H -0.073(5) 0.479(4) 1.244(4)
H6 H -0.224(4) 0.545(4) 1.122(4)
H7 H 0.036(4) 0.563(3) 0.728(3)
H8 H 0.214(4) 0.578(4) 0.830(3)
loop_
_geom_bond_atom_site_label_1
_geom_bond_atom_site_label_2
_geom_bond_site_symmetry_1
_geom_bond_site_symmetry_2
O1 C7 1_555 1_555
O2 C6 1_555 1_555
C1 C2 1_555 1_555
C2 C5 1_555 1_555
C3 C4 1_555 1_555
C4 C5 1_555 1_555
C5 C1 1_555 1_555
C6 C1 1_555 1_555
C7 O2 1_555 1_555
H1 C1 1_555 1_555
H2 C3 1_555 1_555
H3 C2 1_555 1_555
H4 C2 1_555 1_555
H5 C4 1_555 1_555
H6 C4 1_555 1_555
H7 C6 1_555 1_555
H8 C6 1_555 1_555
C3 C5 1_555 1_555
C3 C7 1_555 1_555

#END
