
#######################################################################
#
#                 Cambridge Crystallographic Data Centre
#                                CCDC 
#
#######################################################################
#
# If this CIF has been generated from an entry in the Cambridge 
# Structural Database, then it will include bibliographic, chemical, 
# crystal, experimental, refinement or atomic coordinate data resulting 
# from the CCDC's data processing and validation procedures.
#
#######################################################################

data_FAFJEC
_chemical_formula_moiety         'C55 H60 N12 O10,C2 H3 N1,2(C2 H6 O1 S1)'
_chemical_name_systematic        
'1,3-bis(3,5-bis(6-(Butyrylamino)pyridin-2-ylcarbamoyl)phenoxy)propane acetonitrile dimethylsulfoxide solvate'
_symmetry_cell_setting           monoclinic
_symmetry_space_group_name_H-M   'C 2/c'
_symmetry_Int_Tables_number      15
_space_group_name_Hall           '-C 2yn'
loop_
_symmetry_equiv_pos_site_id
_symmetry_equiv_pos_as_xyz
1 x,y,z
2 1/2+x,1/2+y,z
3 x,-y,1/2+z
4 1/2+x,1/2-y,1/2+z
5 -x,-y,-z
6 1/2-x,1/2-y,-z
7 -x,y,1/2-z
8 1/2-x,1/2+y,1/2-z
_cell_length_a                   33.815(7)
_cell_length_b                   4.9757(10)
_cell_length_c                   43.915(9)
_cell_angle_alpha                90
_cell_angle_beta                 97.47(3)
_cell_angle_gamma                90
_cell_volume                     7326.13
_exptl_crystal_colour            colorless
_exptl_crystal_description       parallelepiped
_chemical_melting_point          155-160deg.C
_cell_formula_units_Z            4
loop_
_atom_site_label
_atom_site_type_symbol
_atom_site_fract_x
_atom_site_fract_y
_atom_site_fract_z
O1 O 0.07021(6) -0.5955(5) 0.00084(4)
O2 O 0.00731(6) 0.4433(4) 0.12451(4)
O3 O 0.04491(5) 0.7771(3) 0.23436(4)
O4 O 0.16162(5) -0.0295(4) 0.20490(4)
O5 O 0.22741(6) -0.6250(4) 0.36735(4)
N1 N 0.08502(6) -0.5087(5) 0.05202(5)
H1 H 0.1008 -0.5543 0.0681
N2 N 0.06605(6) -0.1773(5) 0.08259(5)
N3 N 0.05434(6) 0.1334(5) 0.11802(5)
H2 H 0.0772 0.0772 0.1265
N4 N 0.14335(5) 0.0002(4) 0.25300(4)
H3 H 0.1265 0.0721 0.2636
N5 N 0.18019(5) -0.1198(4) 0.29892(5)
N6 N 0.21351(6) -0.2080(4) 0.34706(5)
H4 H 0.2110 -0.0416 0.3517
C1 C 0.16549(10) -1.1752(7) 0.00394(9)
H5 H 0.1692 -1.2519 -0.0155
H6 H 0.1593 -1.3152 0.0176
H7 H 0.1895 -1.0853 0.0125
C2 C 0.13132(9) -0.9744(7) -0.00045(7)
H8 H 0.1374 -0.8361 -0.0147
H9 H 0.1072 -1.0657 -0.0094
C3 C 0.12384(8) -0.8436(6) 0.02937(6)
H10 H 0.1481 -0.7551 0.0385
H11 H 0.1175 -0.9822 0.0435
C4 C 0.09023(7) -0.6395(5) 0.02551(6)
C5 C 0.05691(7) -0.3082(5) 0.05609(6)
C6 C 0.02303(8) -0.2525(6) 0.03540(6)
H12 H 0.0173 -0.3479 0.0172
C7 C -0.00163(8) -0.0497(6) 0.04319(6)
H13 H -0.0243 -0.0061 0.0298
C8 C 0.00670(8) 0.0904(6) 0.07055(6)
H14 H -0.0098 0.2272 0.0759
C9 C 0.04110(7) 0.0158(5) 0.08957(6)
C10 C 0.03731(7) 0.3200(5) 0.13440(6)
C11 C 0.05799(7) 0.3636(5) 0.16649(5)
C12 C 0.04230(7) 0.5620(5) 0.18423(5)
H15 H 0.0215 0.6707 0.1755
C13 C 0.05804(6) 0.5954(5) 0.21490(5)
C14 C 0.01000(6) 0.9341(5) 0.22338(5)
H16 H -0.0121 0.8168 0.2161
H17 H 0.0154 1.0493 0.2066
C15 C 0.0000 1.1012(7) 0.2500
H18 H -0.0212(8) 1.211(6) 0.2423(7)
C16 C 0.08954(6) 0.4325(5) 0.22825(5)
H19 H 0.0998 0.4542 0.2488
C17 C 0.10515(6) 0.2386(5) 0.21046(5)
C18 C 0.13941(7) 0.0569(5) 0.22266(5)
C19 C 0.17301(6) -0.1684(5) 0.26863(5)
C20 C 0.19176(7) -0.3718(5) 0.25410(6)
H20 H 0.1858 -0.4022 0.2331
C21 C 0.21979(7) -0.5277(5) 0.27220(6)
H21 H 0.2329 -0.6654 0.2633
C22 C 0.22833(7) -0.4797(5) 0.30334(6)
H22 H 0.2474 -0.5799 0.3156
C23 C 0.20716(7) -0.2754(5) 0.31560(5)
C24 C 0.22340(7) -0.3839(5) 0.37091(6)
C25 C 0.22911(9) -0.2523(6) 0.40216(6)
H23 H 0.2091 -0.1134 0.4026
H24 H 0.2550 -0.1659 0.4052
C26 C 0.22635(10) -0.4444(6) 0.42842(6)
H25 H 0.2469 -0.5804 0.4286
H26 H 0.2007 -0.5342 0.4255
C27 C 0.23124(11) -0.2979(8) 0.45905(7)
H27 H 0.2292 -0.4243 0.4753
H28 H 0.2107 -0.1648 0.4590
H29 H 0.2569 -0.2121 0.4622
C34 C 0.08961(7) 0.2032(5) 0.17966(5)
C14F C -0.01000(6) 0.9341(5) 0.27662(5)
O3F O -0.04491(5) 0.7771(3) 0.26564(4)
C13F C -0.05804(6) 0.5954(5) 0.28510(5)
C12F C -0.04230(7) 0.5620(5) 0.31577(5)
C11F C -0.05799(7) 0.3636(5) 0.33351(5)
C10F C -0.03731(7) 0.3200(5) 0.36560(6)
O2F O -0.00731(6) 0.4433(4) 0.37549(4)
N3F N -0.05434(6) 0.1334(5) 0.38198(5)
H2F H -0.0772 0.0772 0.3735
C9F C -0.04110(7) 0.0158(5) 0.41043(6)
N2F N -0.06605(6) -0.1773(5) 0.41741(5)
C5F C -0.05691(7) -0.3082(5) 0.44391(6)
N1F N -0.08502(6) -0.5087(5) 0.44798(5)
H1F H -0.1008 -0.5543 0.4319
C4F C -0.09023(7) -0.6395(5) 0.47449(6)
O1F O -0.07021(6) -0.5955(5) 0.49916(4)
C3F C -0.12384(8) -0.8436(6) 0.47063(6)
C2F C -0.13132(9) -0.9744(7) 0.50045(7)
C1F C -0.16549(10) -1.1752(7) 0.49606(9)
H5F H -0.1692 -1.2519 0.5155
H6F H -0.1593 -1.3152 0.4824
H7F H -0.1895 -1.0853 0.4875
H8F H -0.1374 -0.8361 0.5147
H9F H -0.1072 -1.0657 0.5094
H10F H -0.1481 -0.7551 0.4615
H11F H -0.1175 -0.9822 0.4565
C6F C -0.02303(8) -0.2525(6) 0.46460(6)
H12F H -0.0173 -0.3479 0.4828
C7F C 0.00163(8) -0.0497(6) 0.45681(6)
H13F H 0.0243 -0.0061 0.4702
C8F C -0.00670(8) 0.0904(6) 0.42945(6)
H14F H 0.0098 0.2272 0.4241
C34F C -0.08961(7) 0.2032(5) 0.32034(5)
C17F C -0.10515(6) 0.2386(5) 0.28954(5)
C16F C -0.08954(6) 0.4325(5) 0.27175(5)
H19F H -0.0998 0.4542 0.2512
C18F C -0.13941(7) 0.0569(5) 0.27734(5)
O4F O -0.16162(5) -0.0295(4) 0.29510(4)
N4F N -0.14335(5) 0.0002(4) 0.24700(4)
H3F H -0.1265 0.0721 0.2364
C19F C -0.17301(6) -0.1684(5) 0.23137(5)
N5F N -0.18019(5) -0.1198(4) 0.20108(5)
C23F C -0.20716(7) -0.2754(5) 0.18440(5)
N6F N -0.21351(6) -0.2080(4) 0.15294(5)
H4F H -0.2110 -0.0416 0.1483
C24F C -0.22340(7) -0.3839(5) 0.12909(6)
O5F O -0.22741(6) -0.6250(4) 0.13265(4)
C25F C -0.22911(9) -0.2523(6) 0.09784(6)
H23F H -0.2091 -0.1134 0.0974
H24F H -0.2550 -0.1659 0.0948
C26F C -0.22635(10) -0.4444(6) 0.07158(6)
H25F H -0.2469 -0.5804 0.0714
H26F H -0.2007 -0.5342 0.0745
C27F C -0.23124(11) -0.2979(8) 0.04095(7)
H27F H -0.2292 -0.4243 0.0247
H28F H -0.2107 -0.1648 0.0410
H29F H -0.2569 -0.2121 0.0378
C22F C -0.22833(7) -0.4797(5) 0.19666(6)
C21F C -0.21979(7) -0.5277(5) 0.22780(6)
C20F C -0.19176(7) -0.3718(5) 0.24590(6)
H20F H -0.1858 -0.4022 0.2669
H21F H -0.2329 -0.6654 0.2367
H22F H -0.2474 -0.5799 0.1844
H15F H -0.0215 0.6707 0.3245
H16F H 0.0121 0.8168 0.2839
H17F H -0.0154 1.0493 0.2934
H18F H 0.0212(8) 1.211(6) 0.2577(7)
S1 S 0.144992(19) 0.60345(14) 0.130385(16)
O6 O 0.13571(7) 0.3653(5) 0.10961(5)
C28 C 0.18359(8) 0.4935(6) 0.15962(6)
H30 H 0.1726 0.3716 0.1732
H31 H 0.1948 0.6461 0.1710
H32 H 0.2041 0.4040 0.1503
C29 C 0.17467(10) 0.8172(7) 0.11038(9)
H33 H 0.1584 0.8967 0.0932
H34 H 0.1956 0.7145 0.1032
H35 H 0.1861 0.9563 0.1239
S2 S 0.10039(2) 0.08203(16) 0.326947(16)
O7 O 0.08978(6) 0.1747(5) 0.29436(5)
C30 C 0.13369(9) 0.3279(7) 0.34491(8)
H36 H 0.1589 0.3130 0.3373
H37 H 0.1373 0.2996 0.3667
H38 H 0.1228 0.5038 0.3404
C31 C 0.05835(10) 0.1644(11) 0.34594(8)
H39 H 0.0365 0.0471 0.3388
H40 H 0.0506 0.3473 0.3415
H41 H 0.0653 0.1430 0.3677
N7 N 0.37141(10) 0.4366(8) 0.08845(8)
C32 C 0.39217(10) 0.2709(8) 0.08186(7)
C33 C 0.41931(11) 0.0650(8) 0.07369(8)
H42 H 0.4237(13) 0.113(10) 0.0513(12)
H43 H 0.4072(12) -0.109(9) 0.0736(9)
H44 H 0.4462(15) 0.098(10) 0.0870(11)
loop_
_geom_bond_atom_site_label_1
_geom_bond_atom_site_label_2
_geom_bond_site_symmetry_1
_geom_bond_site_symmetry_2
O1 C4 1_555 1_555
O2 C10 1_555 1_555
O3 C13 1_555 1_555
O4 C18 1_555 1_555
O5 C24 1_555 1_555
N1 H1 1_555 1_555
N2 C5 1_555 1_555
N3 H2 1_555 1_555
N4 H3 1_555 1_555
N5 C19 1_555 1_555
N6 H4 1_555 1_555
C1 H5 1_555 1_555
H6 C1 1_555 1_555
H7 C1 1_555 1_555
C2 C1 1_555 1_555
H8 C2 1_555 1_555
H9 C2 1_555 1_555
C3 C2 1_555 1_555
H10 C3 1_555 1_555
H11 C3 1_555 1_555
C4 N1 1_555 1_555
C5 N1 1_555 1_555
C6 C5 1_555 1_555
H12 C6 1_555 1_555
C7 C6 1_555 1_555
H13 C7 1_555 1_555
C8 C7 1_555 1_555
H14 C8 1_555 1_555
C9 N2 1_555 1_555
C10 N3 1_555 1_555
C11 C10 1_555 1_555
C12 C11 1_555 1_555
H15 C12 1_555 1_555
C13 C12 1_555 1_555
C14 O3 1_555 1_555
H16 C14 1_555 1_555
H17 C14 1_555 1_555
C15 C14 1_555 1_555
H18 C15 1_555 1_555
C16 C13 1_555 1_555
H19 C16 1_555 1_555
C17 C16 1_555 1_555
C18 N4 1_555 1_555
C19 N4 1_555 1_555
C20 C19 1_555 1_555
H20 C20 1_555 1_555
C21 C20 1_555 1_555
H21 C21 1_555 1_555
C22 C21 1_555 1_555
H22 C22 1_555 1_555
C23 N5 1_555 1_555
C24 N6 1_555 1_555
C25 C24 1_555 1_555
H23 C25 1_555 1_555
H24 C25 1_555 1_555
C26 C25 1_555 1_555
H25 C26 1_555 1_555
H26 C26 1_555 1_555
C27 C26 1_555 1_555
H27 C27 1_555 1_555
H28 C27 1_555 1_555
H29 C27 1_555 1_555
S1 O6 1_555 1_555
C28 S1 1_555 1_555
H30 C28 1_555 1_555
H31 C28 1_555 1_555
H32 C28 1_555 1_555
C29 S1 1_555 1_555
H33 C29 1_555 1_555
H34 C29 1_555 1_555
H35 C29 1_555 1_555
S2 O7 1_555 1_555
C30 S2 1_555 1_555
H36 C30 1_555 1_555
H37 C30 1_555 1_555
H38 C30 1_555 1_555
C31 S2 1_555 1_555
H39 C31 1_555 1_555
H40 C31 1_555 1_555
H41 C31 1_555 1_555
N7 C32 1_555 1_555
C32 C33 1_555 1_555
C33 H42 1_555 1_555
H43 C33 1_555 1_555
H44 C33 1_555 1_555
C34 C11 1_555 1_555
C14F C15 1_555 1_555
O3F C14F 1_555 1_555
C13F O3F 1_555 1_555
C12F C13F 1_555 1_555
C11F C12F 1_555 1_555
C10F C11F 1_555 1_555
O2F C10F 1_555 1_555
N3F C10F 1_555 1_555
H2F N3F 1_555 1_555
C9F N3F 1_555 1_555
N2F C9F 1_555 1_555
C5F N2F 1_555 1_555
N1F C5F 1_555 1_555
H1F N1F 1_555 1_555
C4F N1F 1_555 1_555
O1F C4F 1_555 1_555
C3F C4F 1_555 1_555
C2F C3F 1_555 1_555
C1F C2F 1_555 1_555
H5F C1F 1_555 1_555
H6F C1F 1_555 1_555
H7F C1F 1_555 1_555
H8F C2F 1_555 1_555
H9F C2F 1_555 1_555
H10F C3F 1_555 1_555
H11F C3F 1_555 1_555
C6F C5F 1_555 1_555
H12F C6F 1_555 1_555
C7F C6F 1_555 1_555
H13F C7F 1_555 1_555
C8F C9F 1_555 1_555
H14F C8F 1_555 1_555
C34F C11F 1_555 1_555
C17F C34F 1_555 1_555
C16F C13F 1_555 1_555
H19F C16F 1_555 1_555
C18F C17F 1_555 1_555
O4F C18F 1_555 1_555
N4F C18F 1_555 1_555
H3F N4F 1_555 1_555
C19F N4F 1_555 1_555
N5F C19F 1_555 1_555
C23F N5F 1_555 1_555
N6F C23F 1_555 1_555
H4F N6F 1_555 1_555
C24F N6F 1_555 1_555
O5F C24F 1_555 1_555
C25F C24F 1_555 1_555
H23F C25F 1_555 1_555
H24F C25F 1_555 1_555
C26F C25F 1_555 1_555
H25F C26F 1_555 1_555
H26F C26F 1_555 1_555
C27F C26F 1_555 1_555
H27F C27F 1_555 1_555
H28F C27F 1_555 1_555
H29F C27F 1_555 1_555
C22F C23F 1_555 1_555
C21F C22F 1_555 1_555
C20F C19F 1_555 1_555
H20F C20F 1_555 1_555
H21F C21F 1_555 1_555
H22F C22F 1_555 1_555
H15F C12F 1_555 1_555
H16F C14F 1_555 1_555
H17F C14F 1_555 1_555
H18F C15 1_555 1_555
N3 C9 1_555 1_555
N6 C23 1_555 1_555
C3 C4 1_555 1_555
C8 C9 1_555 1_555
C17 C18 1_555 1_555
C17 C34 1_555 1_555
C22 C23 1_555 1_555
C7F C8F 1_555 1_555
C17F C16F 1_555 1_555
C21F C20F 1_555 1_555

#END
