
#######################################################################
#
#                 Cambridge Crystallographic Data Centre
#                                CCDC 
#
#######################################################################
#
# If this CIF has been generated from an entry in the Cambridge 
# Structural Database, then it will include bibliographic, chemical, 
# crystal, experimental, refinement or atomic coordinate data resulting 
# from the CCDC's data processing and validation procedures.
#
#######################################################################

data_FAFTEO
_chemical_formula_moiety         'C26 H27 N1 O1 Si1'
_chemical_name_systematic        
8-((t-butyl(dimethyl)silyl)oxy)-8H-benzo[h]indeno[1,2-b]quinoline
_symmetry_cell_setting           orthorhombic
_symmetry_space_group_name_H-M   'P 21 21 21'
_symmetry_Int_Tables_number      19
_space_group_name_Hall           'P 2ac 2ab'
loop_
_symmetry_equiv_pos_site_id
_symmetry_equiv_pos_as_xyz
1 x,y,z
2 1/2+x,1/2-y,-z
3 -x,1/2+y,1/2-z
4 1/2-x,-y,1/2+z
_cell_length_a                   6.1128(8)
_cell_length_b                   12.1338(15)
_cell_length_c                   29.773(4)
_cell_angle_alpha                90
_cell_angle_beta                 90
_cell_angle_gamma                90
_cell_volume                     2208.31
_exptl_crystal_colour            colorless
_exptl_crystal_description       block
_cell_formula_units_Z            4
loop_
_atom_site_label
_atom_site_type_symbol
_atom_site_fract_x
_atom_site_fract_y
_atom_site_fract_z
Si1 Si -0.55508(11) -0.25141(6) -0.18437(2)
O1 O -0.7817(3) -0.22869(14) -0.15519(5)
N1 N -1.2353(3) -0.02235(15) -0.06570(6)
C1 C -1.1956(4) 0.07871(19) -0.08365(7)
C2 C -1.3472(4) 0.16583(19) -0.07250(7)
C3 C -1.5320(4) 0.14633(19) -0.04562(8)
H1 H -1.5627 0.0736 -0.0356
C4 C -1.6684(4) 0.2310(2) -0.03372(8)
H2 H -1.7922 0.2170 -0.0153
C5 C -1.6254(5) 0.3381(2) -0.04869(9)
H3 H -1.7180 0.3970 -0.0397
C6 C -1.4516(4) 0.3585(2) -0.07607(9)
H4 H -1.4270 0.4313 -0.0867
C7 C -1.3075(4) 0.27346(19) -0.08892(8)
C8 C -1.1206(5) 0.2928(2) -0.11662(8)
H5 H -1.0935 0.3651 -0.1274
C9 C -0.9818(4) 0.2111(2) -0.12780(8)
H6 H -0.8607 0.2267 -0.1468
C10 C -1.0136(4) 0.10106(19) -0.11162(8)
C11 C -0.8681(4) 0.0149(2) -0.12200(8)
H7 H -0.7454 0.0272 -0.1409
C12 C -0.9079(4) -0.08680(19) -0.10417(7)
C13 C -0.7903(4) -0.19559(19) -0.10960(7)
H8 H -0.6396 -0.1913 -0.0966
C14 C -0.9328(4) -0.27247(19) -0.08197(7)
C15 C -0.9122(4) -0.3847(2) -0.07542(8)
H9 H -0.7949 -0.4244 -0.0887
C16 C -1.0658(4) -0.43828(19) -0.04905(8)
H10 H -1.0530 -0.5155 -0.0444
C17 C -1.2396(4) -0.3814(2) -0.02902(8)
H11 H -1.3424 -0.4197 -0.0109
C18 C -1.2610(4) -0.26808(19) -0.03576(7)
H12 H -1.3775 -0.2279 -0.0224
C19 C -1.1075(4) -0.21620(18) -0.06248(7)
C20 C -1.0938(4) -0.10018(19) -0.07620(7)
C21 C -0.3708(5) -0.1308(2) -0.18029(10)
H13 H -0.4245 -0.0719 -0.1999
H14 H -0.2230 -0.1522 -0.1896
H15 H -0.3672 -0.1045 -0.1492
C22 C -0.4146(5) -0.3754(3) -0.16197(10)
H16 H -0.3706 -0.3621 -0.1308
H17 H -0.2846 -0.3910 -0.1802
H18 H -0.5143 -0.4386 -0.1631
C23 C -0.6591(4) -0.2714(2) -0.24301(8)
C24 C -0.7768(6) -0.1661(3) -0.25829(10)
H19 H -0.8954 -0.1491 -0.2373
H20 H -0.8376 -0.1773 -0.2884
H21 H -0.6726 -0.1048 -0.2590
C25 C -0.4694(5) -0.2953(3) -0.27525(10)
H22 H -0.3673 -0.2330 -0.2751
H23 H -0.5268 -0.3059 -0.3057
H24 H -0.3930 -0.3622 -0.2656
C26 C -0.8208(6) -0.3678(3) -0.24455(11)
H25 H -0.7493 -0.4345 -0.2333
H26 H -0.8685 -0.3797 -0.2756
H27 H -0.9480 -0.3507 -0.2258
loop_
_geom_bond_atom_site_label_1
_geom_bond_atom_site_label_2
_geom_bond_site_symmetry_1
_geom_bond_site_symmetry_2
Si1 O1 1_555 1_555
O1 C13 1_555 1_555
N1 C1 1_555 1_555
C1 C2 1_555 1_555
C2 C3 1_555 1_555
C3 H1 1_555 1_555
C4 C3 1_555 1_555
H2 C4 1_555 1_555
C5 C4 1_555 1_555
H3 C5 1_555 1_555
C6 C5 1_555 1_555
H4 C6 1_555 1_555
C7 C2 1_555 1_555
C8 C7 1_555 1_555
H5 C8 1_555 1_555
C9 C8 1_555 1_555
H6 C9 1_555 1_555
C10 C1 1_555 1_555
C11 C10 1_555 1_555
H7 C11 1_555 1_555
C12 C11 1_555 1_555
C13 C12 1_555 1_555
H8 C13 1_555 1_555
C14 C13 1_555 1_555
C15 C14 1_555 1_555
H9 C15 1_555 1_555
C16 C15 1_555 1_555
H10 C16 1_555 1_555
C17 C16 1_555 1_555
H11 C17 1_555 1_555
C18 C17 1_555 1_555
H12 C18 1_555 1_555
C19 C14 1_555 1_555
C20 N1 1_555 1_555
C21 Si1 1_555 1_555
H13 C21 1_555 1_555
H14 C21 1_555 1_555
H15 C21 1_555 1_555
C22 Si1 1_555 1_555
H16 C22 1_555 1_555
H17 C22 1_555 1_555
H18 C22 1_555 1_555
C23 Si1 1_555 1_555
C24 C23 1_555 1_555
H19 C24 1_555 1_555
H20 C24 1_555 1_555
H21 C24 1_555 1_555
C25 C23 1_555 1_555
H22 C25 1_555 1_555
H23 C25 1_555 1_555
H24 C25 1_555 1_555
C26 C23 1_555 1_555
H25 C26 1_555 1_555
H26 C26 1_555 1_555
H27 C26 1_555 1_555
C6 C7 1_555 1_555
C9 C10 1_555 1_555
C12 C20 1_555 1_555
C18 C19 1_555 1_555
C19 C20 1_555 1_555

#END
