
#######################################################################
#
#                 Cambridge Crystallographic Data Centre
#                                CCDC 
#
#######################################################################
#
# If this CIF has been generated from an entry in the Cambridge 
# Structural Database, then it will include bibliographic, chemical, 
# crystal, experimental, refinement or atomic coordinate data resulting 
# from the CCDC's data processing and validation procedures.
#
#######################################################################

data_FAFTIS
_chemical_formula_moiety         'C21 H24 N2 O1 Si1'
_chemical_name_systematic        
10-((t-butyl(dimethyl)silyl)oxy)-10H-indeno[1,2-b][1,5]naphthyridine
_symmetry_cell_setting           monoclinic
_symmetry_space_group_name_H-M   'P 21/c'
_symmetry_Int_Tables_number      14
_space_group_name_Hall           '-P 2ybc'
loop_
_symmetry_equiv_pos_site_id
_symmetry_equiv_pos_as_xyz
1 x,y,z
2 -x,1/2+y,1/2-z
3 -x,-y,-z
4 x,1/2-y,1/2+z
_cell_length_a                   11.3866(8)
_cell_length_b                   12.5192(8)
_cell_length_c                   13.6691(9)
_cell_angle_alpha                90
_cell_angle_beta                 99.0840(10)
_cell_angle_gamma                90
_cell_volume                     1924.11
_exptl_crystal_colour            colorless
_exptl_crystal_description       block
_cell_formula_units_Z            4
loop_
_atom_site_label
_atom_site_type_symbol
_atom_site_fract_x
_atom_site_fract_y
_atom_site_fract_z
Si1 Si 0.62999(3) 0.35709(3) 0.81464(2)
O1 O 0.73541(7) 0.44547(7) 0.80296(6)
N1 N 1.00157(9) 0.70586(8) 0.94881(7)
N2 N 0.74470(10) 0.77248(9) 1.07391(8)
C1 C 0.83892(10) 0.45765(9) 0.87526(8)
H1 H 0.8398 0.4015 0.9274
C2 C 0.95207(10) 0.45057(9) 0.83023(8)
C3 C 0.99014(11) 0.36900(9) 0.77417(9)
H2 H 0.9427 0.3071 0.7582
C4 C 1.09943(12) 0.37997(11) 0.74194(9)
H3 H 1.1269 0.3247 0.7037
C5 C 1.16897(12) 0.47040(11) 0.76482(10)
H4 H 1.2432 0.4763 0.7418
C6 C 1.13131(11) 0.55220(11) 0.82081(9)
H5 H 1.1788 0.6141 0.8367
C7 C 1.02238(10) 0.54111(9) 0.85299(8)
C8 C 0.96061(10) 0.61397(9) 0.91186(8)
C9 C 0.84950(10) 0.56708(9) 0.92334(8)
C10 C 0.77673(10) 0.61964(9) 0.97664(9)
H6 H 0.7022 0.5905 0.9857
C11 C 0.81600(11) 0.71965(10) 1.01838(8)
C12 C 0.92808(11) 0.75917(9) 1.00263(8)
C13 C 0.96561(13) 0.85866(10) 1.04499(10)
H7 H 1.0395 0.8888 1.0353
C14 C 0.89343(14) 0.91079(11) 1.10033(10)
H8 H 0.9166 0.9778 1.1298
C15 C 0.78480(14) 0.86418(11) 1.11302(11)
H9 H 0.7368 0.9014 1.1526
C16 C 0.69944(13) 0.22684(10) 0.85512(11)
H10 H 0.7485 0.2025 0.8067
H11 H 0.6371 0.1741 0.8600
H12 H 0.7493 0.2353 0.9200
C17 C 0.54070(14) 0.40391(12) 0.90875(12)
H13 H 0.5912 0.4070 0.9737
H14 H 0.4748 0.3542 0.9115
H15 H 0.5089 0.4752 0.8907
C18 C 0.53806(12) 0.34955(11) 0.68859(11)
C19 C 0.43502(17) 0.27041(14) 0.69222(17)
H16 H 0.4673 0.1985 0.7066
H17 H 0.3824 0.2702 0.6281
H18 H 0.3899 0.2922 0.7443
C20 C 0.48476(13) 0.45854(13) 0.65755(13)
H19 H 0.4396 0.4847 0.7080
H20 H 0.4317 0.4519 0.5940
H21 H 0.5488 0.5090 0.6506
C21 C 0.6143(2) 0.31396(19) 0.61185(13)
H22 H 0.6817 0.3629 0.6131
H23 H 0.5662 0.3147 0.5458
H24 H 0.6440 0.2415 0.6275
loop_
_geom_bond_atom_site_label_1
_geom_bond_atom_site_label_2
_geom_bond_site_symmetry_1
_geom_bond_site_symmetry_2
Si1 O1 1_555 1_555
O1 C1 1_555 1_555
N1 C8 1_555 1_555
N2 C11 1_555 1_555
C1 H1 1_555 1_555
C2 C1 1_555 1_555
C3 C2 1_555 1_555
H2 C3 1_555 1_555
C4 C3 1_555 1_555
H3 C4 1_555 1_555
C5 C4 1_555 1_555
H4 C5 1_555 1_555
C6 C5 1_555 1_555
H5 C6 1_555 1_555
C7 C2 1_555 1_555
C8 C7 1_555 1_555
C9 C1 1_555 1_555
C10 C9 1_555 1_555
H6 C10 1_555 1_555
C11 C10 1_555 1_555
C12 N1 1_555 1_555
C13 C12 1_555 1_555
H7 C13 1_555 1_555
C14 C13 1_555 1_555
H8 C14 1_555 1_555
C15 N2 1_555 1_555
H9 C15 1_555 1_555
C16 Si1 1_555 1_555
H10 C16 1_555 1_555
H11 C16 1_555 1_555
H12 C16 1_555 1_555
C17 Si1 1_555 1_555
H13 C17 1_555 1_555
H14 C17 1_555 1_555
H15 C17 1_555 1_555
C18 Si1 1_555 1_555
C19 C18 1_555 1_555
H16 C19 1_555 1_555
H17 C19 1_555 1_555
H18 C19 1_555 1_555
C20 C18 1_555 1_555
H19 C20 1_555 1_555
H20 C20 1_555 1_555
H21 C20 1_555 1_555
C21 C18 1_555 1_555
H22 C21 1_555 1_555
H23 C21 1_555 1_555
H24 C21 1_555 1_555
C6 C7 1_555 1_555
C8 C9 1_555 1_555
C11 C12 1_555 1_555
C14 C15 1_555 1_555

#END
