
#######################################################################
#
#                 Cambridge Crystallographic Data Centre
#                                CCDC 
#
#######################################################################
#
# If this CIF has been generated from an entry in the Cambridge 
# Structural Database, then it will include bibliographic, chemical, 
# crystal, experimental, refinement or atomic coordinate data resulting 
# from the CCDC's data processing and validation procedures.
#
#######################################################################

data_FAFTEM
_chemical_formula_moiety         'C14 H22 O4 Si1'
_chemical_name_systematic        
6-Ethoxycarbonyl-5-trimethylsilyl-cyclo-octa-5-en-1,4-dione
_symmetry_cell_setting           monoclinic
_symmetry_space_group_name_H-M   'P 21/n'
_symmetry_Int_Tables_number      14
_space_group_name_Hall           '-P 2yn'
loop_
_symmetry_equiv_pos_site_id
_symmetry_equiv_pos_as_xyz
1 x,y,z
2 1/2+x,1/2-y,1/2+z
3 -x,-y,-z
4 1/2-x,1/2+y,1/2-z
_cell_length_a                   9.15
_cell_length_b                   17.44
_cell_length_c                   9.66
_cell_angle_alpha                90
_cell_angle_beta                 92.31
_cell_angle_gamma                90
_cell_volume                     1540.25
_exptl_crystal_colour            colorless
_exptl_crystal_description       rhombic
_cell_formula_units_Z            4
_exptl_crystal_recrystallization_method dichloromethane/pentane
loop_
_atom_site_label
_atom_site_type_symbol
_atom_site_fract_x
_atom_site_fract_y
_atom_site_fract_z
Si1 Si 0.8969(1) 0.2930(1) 0.9089(1)
O1 O 0.620 0.396 1.080
O2 O 0.984 0.532 0.721
O3 O 1.065 0.416 0.787
O4 O 0.566 0.412 0.565
C1 C 0.639 0.381 0.958
C2 C 0.787 0.387 0.899
C3 C 0.823 0.455 0.844
C4 C 0.719 0.523 0.834
C5 C 0.629 0.524 0.695
C6 C 0.548 0.450 0.670
C7 C 0.446 0.422 0.778
C8 C 0.513 0.355 0.864
C9 C 0.931 0.255 0.734
C10 C 0.775 0.223 0.995
C11 C 1.065 0.300 1.022
C12 C 0.969 0.464 0.783
C13 C 1.126 0.547 0.660
C14 C 1.119 0.625 0.598
H1 H 0.653 0.520 0.907
H2 H 0.774 0.569 0.843
H3 H 0.694 0.532 0.622
H4 H 0.560 0.564 0.696
H5 H 0.429 0.462 0.841
H6 H 0.357 0.406 0.734
H7 H 0.440 0.332 0.918
H8 H 0.548 0.318 0.801
H9 H 0.993 0.289 0.688
H10 H 0.977 0.206 0.742
H11 H 0.841 0.250 0.683
H12 H 0.823 0.175 1.004
H13 H 0.687 0.217 0.942
H14 H 0.754 0.242 1.085
H15 H 1.041 0.318 1.111
H16 H 1.131 0.334 0.982
H17 H 1.109 0.251 1.031
H18 H 1.143 0.510 0.590
H19 H 1.202 0.544 0.729
H20 H 1.209 0.636 0.557
H21 H 1.041 0.627 0.530
H22 H 1.102 0.661 0.669
loop_
_geom_bond_atom_site_label_1
_geom_bond_atom_site_label_2
_geom_bond_site_symmetry_1
_geom_bond_site_symmetry_2
Si1 C2 1_555 1_555
O1 C1 1_555 1_555
O2 C12 1_555 1_555
O3 C12 1_555 1_555
O4 C6 1_555 1_555
C1 C2 1_555 1_555
C2 C3 1_555 1_555
C3 C4 1_555 1_555
C4 C5 1_555 1_555
C5 C6 1_555 1_555
C6 C7 1_555 1_555
C7 C8 1_555 1_555
C8 C1 1_555 1_555
C9 Si1 1_555 1_555
C10 Si1 1_555 1_555
C11 Si1 1_555 1_555
C12 C3 1_555 1_555
C13 O2 1_555 1_555
C14 C13 1_555 1_555
H1 C4 1_555 1_555
H2 C4 1_555 1_555
H3 C5 1_555 1_555
H4 C5 1_555 1_555
H5 C7 1_555 1_555
H6 C7 1_555 1_555
H7 C8 1_555 1_555
H8 C8 1_555 1_555
H9 C9 1_555 1_555
H10 C9 1_555 1_555
H11 C9 1_555 1_555
H12 C10 1_555 1_555
H13 C10 1_555 1_555
H14 C10 1_555 1_555
H15 C11 1_555 1_555
H16 C11 1_555 1_555
H17 C11 1_555 1_555
H18 C13 1_555 1_555
H19 C13 1_555 1_555
H20 C14 1_555 1_555
H21 C14 1_555 1_555
H22 C14 1_555 1_555

#END
