
#######################################################################
#
#                 Cambridge Crystallographic Data Centre
#                                CCDC 
#
#######################################################################
#
# If this CIF has been generated from an entry in the Cambridge 
# Structural Database, then it will include bibliographic, chemical, 
# crystal, experimental, refinement or atomic coordinate data resulting 
# from the CCDC's data processing and validation procedures.
#
#######################################################################

data_FAFVUE
_chemical_formula_moiety         'C30 H36 N2 O10'
_chemical_name_systematic        
N,N'-bis(1-(Tetrahydrofuran-2-one-5-ylidene)-1-(ethoxycarbonyl)-hex-2-en-2,6-diyl)succinamide
_symmetry_cell_setting           monoclinic
_symmetry_space_group_name_H-M   'P 21/c'
_symmetry_Int_Tables_number      14
_space_group_name_Hall           '-P 2ybc'
loop_
_symmetry_equiv_pos_site_id
_symmetry_equiv_pos_as_xyz
1 x,y,z
2 -x,1/2+y,1/2-z
3 -x,-y,-z
4 x,1/2-y,1/2+z
_cell_length_a                   10.4022(6)
_cell_length_b                   9.3515(3)
_cell_length_c                   15.5690(5)
_cell_angle_alpha                90
_cell_angle_beta                 105.669(3)
_cell_angle_gamma                90
_cell_volume                     1458.21
_exptl_crystal_colour            'pale yellow'
_exptl_crystal_description       prisms
_chemical_melting_point          135-137deg.C
_cell_formula_units_Z            2
_exptl_crystal_recrystallization_method 'ethyl acetate/petroleum ether'
loop_
_atom_site_label
_atom_site_type_symbol
_atom_site_fract_x
_atom_site_fract_y
_atom_site_fract_z
O1 O 0.35678(13) 0.06516(14) 0.65935(9)
C1 C 0.3942(2) -0.0241(2) 0.7332(2)
O2 O 0.4089(2) 0.0247(2) 0.80578(12)
C2 C 0.4099(2) -0.1718(2) 0.7018(2)
H1 H 0.3426(2) -0.2346(2) 0.7137(2)
H2 H 0.4974(2) -0.2094(2) 0.7318(2)
C3 C 0.3936(2) -0.1603(2) 0.6030(2)
H3 H 0.4773(2) -0.1790(2) 0.5889(2)
H4 H 0.3267(2) -0.2270(2) 0.5703(2)
C4 C 0.3496(2) -0.0087(2) 0.58138(13)
C5 C 0.3038(2) 0.0597(2) 0.50378(13)
C6 C 0.2642(2) 0.2134(2) 0.49795(12)
C7 C 0.3516(2) 0.3179(2) 0.52619(12)
H5 H 0.4379(2) 0.2928(2) 0.55785(12)
C8 C 0.3205(2) 0.4738(2) 0.51045(15)
H6 H 0.3849(2) 0.5159(2) 0.48304(15)
H7 H 0.3306(2) 0.5204(2) 0.56753(15)
C9 C 0.1807(2) 0.5030(2) 0.4514(2)
H8 H 0.1208(2) 0.5208(2) 0.4884(2)
H9 H 0.1820(2) 0.5876(2) 0.4156(2)
C10 C 0.1299(2) 0.3767(2) 0.39052(14)
H10 H 0.0394(2) 0.3948(2) 0.35483(14)
H11 H 0.1859(2) 0.3621(2) 0.35057(14)
N1 N 0.13284(14) 0.2493(2) 0.44593(10)
C11 C 0.0170(2) 0.1830(2) 0.44643(14)
O3 O -0.08811(14) 0.2129(2) 0.39099(13)
C12 C 0.0159(2) 0.0754(2) 0.51860(13)
H12 H -0.0501(2) 0.1039(2) 0.54897(13)
H13 H 0.1026(2) 0.0752(2) 0.56206(13)
C13 C 0.2951(2) -0.0188(2) 0.41982(14)
O4 O 0.3179(2) -0.1437(2) 0.41281(13)
O5 O 0.2568(2) 0.0687(2) 0.34971(10)
C14 C 0.2294(3) 0.0086(3) 0.2608(2)
H14 H 0.1741(3) -0.0761(3) 0.2561(2)
H15 H 0.3120(3) -0.0175(3) 0.2472(2)
C15 C 0.1583(3) 0.1212(3) 0.1983(2)
H16 H 0.1380(3) 0.0858(3) 0.1383(2)
H17 H 0.2141(3) 0.2043(3) 0.2038(2)
H18 H 0.0769(3) 0.1460(3) 0.2126(2)
C12B C -0.0159(2) -0.0754(2) 0.48140(13)
C11B C -0.0170(2) -0.1830(2) 0.55357(14)
N1B N -0.13284(14) -0.2493(2) 0.55407(10)
C6B C -0.2642(2) -0.2134(2) 0.50205(12)
C5B C -0.3038(2) -0.0597(2) 0.49622(13)
C4B C -0.3496(2) 0.0087(2) 0.41862(13)
O1B O -0.35678(13) -0.06516(14) 0.34065(9)
C1B C -0.3942(2) 0.0241(2) 0.2668(2)
O2B O -0.4089(2) -0.0247(2) 0.19422(12)
C2B C -0.4099(2) 0.1718(2) 0.2982(2)
H1B H -0.3426(2) 0.2346(2) 0.2863(2)
H2B H -0.4974(2) 0.2094(2) 0.2682(2)
C3B C -0.3936(2) 0.1603(2) 0.3970(2)
H3B H -0.4773(2) 0.1790(2) 0.4111(2)
H4B H -0.3267(2) 0.2270(2) 0.4297(2)
C13B C -0.2951(2) 0.0188(2) 0.58018(14)
O4B O -0.3179(2) 0.1437(2) 0.58719(13)
O5B O -0.2568(2) -0.0687(2) 0.65029(10)
C14B C -0.2294(3) -0.0086(3) 0.7392(2)
H14B H -0.1741(3) 0.0761(3) 0.7439(2)
H15B H -0.3120(3) 0.0175(3) 0.7528(2)
C15B C -0.1583(3) -0.1212(3) 0.8017(2)
H16B H -0.1380(3) -0.0858(3) 0.8617(2)
H17B H -0.2141(3) -0.2043(3) 0.7962(2)
H18B H -0.0769(3) -0.1460(3) 0.7874(2)
C7B C -0.3516(2) -0.3179(2) 0.47381(12)
H5B H -0.4379(2) -0.2928(2) 0.44215(12)
C8B C -0.3205(2) -0.4738(2) 0.48955(15)
H6B H -0.3849(2) -0.5159(2) 0.51696(15)
H7B H -0.3306(2) -0.5204(2) 0.43247(15)
C9B C -0.1807(2) -0.5030(2) 0.5486(2)
H8B H -0.1208(2) -0.5208(2) 0.5116(2)
H9B H -0.1820(2) -0.5876(2) 0.5844(2)
C10B C -0.1299(2) -0.3767(2) 0.60948(14)
H10B H -0.0394(2) -0.3948(2) 0.64517(14)
H11B H -0.1859(2) -0.3621(2) 0.64943(14)
O3B O 0.08811(14) -0.2129(2) 0.60901(13)
H12B H 0.0501(2) -0.1039(2) 0.45103(13)
H13B H -0.1026(2) -0.0752(2) 0.43794(13)
loop_
_geom_bond_atom_site_label_1
_geom_bond_atom_site_label_2
_geom_bond_site_symmetry_1
_geom_bond_site_symmetry_2
O1 C1 1_555 1_555
C1 O2 1_555 1_555
C2 C1 1_555 1_555
H1 C2 1_555 1_555
H2 C2 1_555 1_555
C3 C2 1_555 1_555
H3 C3 1_555 1_555
H4 C3 1_555 1_555
C4 O1 1_555 1_555
C5 C4 1_555 1_555
C6 C5 1_555 1_555
C7 C6 1_555 1_555
H5 C7 1_555 1_555
C8 C7 1_555 1_555
H6 C8 1_555 1_555
H7 C8 1_555 1_555
C9 C8 1_555 1_555
H8 C9 1_555 1_555
H9 C9 1_555 1_555
C10 C9 1_555 1_555
H10 C10 1_555 1_555
H11 C10 1_555 1_555
N1 C6 1_555 1_555
C11 N1 1_555 1_555
O3 C11 1_555 1_555
C12 C11 1_555 1_555
H12 C12 1_555 1_555
H13 C12 1_555 1_555
C13 C5 1_555 1_555
O4 C13 1_555 1_555
O5 C13 1_555 1_555
C14 O5 1_555 1_555
H14 C14 1_555 1_555
H15 C14 1_555 1_555
C15 C14 1_555 1_555
H16 C15 1_555 1_555
H17 C15 1_555 1_555
H18 C15 1_555 1_555
C12B C12 1_555 1_555
C11B C12B 1_555 1_555
N1B C11B 1_555 1_555
C6B N1B 1_555 1_555
C5B C6B 1_555 1_555
C4B C5B 1_555 1_555
O1B C4B 1_555 1_555
C1B O1B 1_555 1_555
O2B C1B 1_555 1_555
C2B C1B 1_555 1_555
H1B C2B 1_555 1_555
H2B C2B 1_555 1_555
C3B C4B 1_555 1_555
H3B C3B 1_555 1_555
H4B C3B 1_555 1_555
C13B C5B 1_555 1_555
O4B C13B 1_555 1_555
O5B C13B 1_555 1_555
C14B O5B 1_555 1_555
H14B C14B 1_555 1_555
H15B C14B 1_555 1_555
C15B C14B 1_555 1_555
H16B C15B 1_555 1_555
H17B C15B 1_555 1_555
H18B C15B 1_555 1_555
C7B C6B 1_555 1_555
H5B C7B 1_555 1_555
C8B C7B 1_555 1_555
H6B C8B 1_555 1_555
H7B C8B 1_555 1_555
C9B C8B 1_555 1_555
H8B C9B 1_555 1_555
H9B C9B 1_555 1_555
C10B N1B 1_555 1_555
H10B C10B 1_555 1_555
H11B C10B 1_555 1_555
O3B C11B 1_555 1_555
H12B C12B 1_555 1_555
H13B C12B 1_555 1_555
C3 C4 1_555 1_555
C10 N1 1_555 1_555
C2B C3B 1_555 1_555
C9B C10B 1_555 1_555

#END
