
#######################################################################
#
#                 Cambridge Crystallographic Data Centre
#                                CCDC 
#
#######################################################################
#
# If this CIF has been generated from an entry in the Cambridge 
# Structural Database, then it will include bibliographic, chemical, 
# crystal, experimental, refinement or atomic coordinate data resulting 
# from the CCDC's data processing and validation procedures.
#
#######################################################################

data_FAFWAL
_chemical_formula_moiety         'C32 H40 N2 O10'
_chemical_name_systematic        
N,N'-bis(1-(Tetrahydrofuran-2-one-5-ylidene)-1-(ethoxycarbonyl)-hept-2-en-2,7-diyl)succinamide
_symmetry_cell_setting           triclinic
_symmetry_space_group_name_H-M   'P -1'
_symmetry_Int_Tables_number      2
_space_group_name_Hall           '-P 1'
loop_
_symmetry_equiv_pos_site_id
_symmetry_equiv_pos_as_xyz
1 x,y,z
2 -x,-y,-z
_cell_length_a                   9.643(6)
_cell_length_b                   9.7438(9)
_cell_length_c                   10.445(3)
_cell_angle_alpha                112.37(2)
_cell_angle_beta                 116.90(3)
_cell_angle_gamma                92.83(2)
_cell_volume                     779.595
_exptl_crystal_colour            colorless
_exptl_crystal_description       rhombs
_chemical_melting_point          221-223deg.C
_cell_formula_units_Z            1
_exptl_crystal_recrystallization_method 'methanol/ethyl acetate/petroleum'
loop_
_atom_site_label
_atom_site_type_symbol
_atom_site_fract_x
_atom_site_fract_y
_atom_site_fract_z
O1 O 0.2666(2) 0.1720(2) 0.4322(2)
C1 C 0.2151(3) 0.1214(3) 0.5161(3)
O2 O 0.2696(3) 0.0286(2) 0.5562(2)
C2 C 0.0957(4) 0.2020(3) 0.5390(3)
H1 H 0.1363(4) 0.2657(3) 0.6526(3)
H2 H -0.0052(4) 0.1283(3) 0.4937(3)
C3 C 0.0712(3) 0.2995(3) 0.4529(3)
H3 H 0.0957(3) 0.4072(3) 0.5258(3)
H4 H -0.0392(3) 0.2667(3) 0.3643(3)
C4 C 0.1868(2) 0.2753(2) 0.3922(2)
C5 C 0.2169(2) 0.3339(2) 0.3072(2)
C6 C 0.3279(2) 0.2879(2) 0.2451(2)
C7 C 0.4801(3) 0.2943(3) 0.3338(3)
H5 H 0.5228(3) 0.3346(3) 0.4443(3)
C8 C 0.5902(4) 0.2418(4) 0.2705(4)
H6 H 0.5489(4) 0.1312(4) 0.2032(4)
H7 H 0.6954(4) 0.2605(4) 0.3614(4)
C9 C 0.6134(4) 0.3142(6) 0.1753(5)
H8 H 0.7013(4) 0.2844(6) 0.1598(5)
H9 H 0.6476(4) 0.4252(6) 0.2400(5)
C10 C 0.4705(3) 0.2766(4) 0.0126(4)
H10 H 0.5027(3) 0.3267(4) -0.0378(4)
H11 H 0.4370(3) 0.1663(4) -0.0552(4)
C11 C 0.3305(3) 0.3273(3) 0.0239(3)
H12 H 0.3667(3) 0.4355(3) 0.1001(3)
H13 H 0.2492(3) 0.3161(3) -0.0804(3)
N1 N 0.2575(2) 0.2383(2) 0.0748(2)
C12 C 0.1389(2) 0.1062(2) -0.0396(2)
O3 O 0.0782(2) 0.0702(2) -0.1833(2)
C13 C 0.0852(2) 0.0012(2) 0.0148(2)
H14 H 0.1595(2) 0.0362(2) 0.1287(2)
H15 H 0.0882(2) -0.1025(2) -0.0430(2)
C14 C 0.1347(2) 0.4513(2) 0.2741(2)
O4 O 0.0120(2) 0.4700(2) 0.2739(3)
O5 O 0.2179(2) 0.5403(2) 0.2482(2)
C15 C 0.1611(3) 0.6705(3) 0.2285(3)
H16 H 0.1490(3) 0.7337(3) 0.3183(3)
H17 H 0.0576(3) 0.6348(3) 0.1299(3)
C16 C 0.2845(5) 0.7603(4) 0.2219(6)
H18 H 0.2517(5) 0.8478(4) 0.2089(6)
H19 H 0.2953(5) 0.6964(4) 0.1326(6)
H20 H 0.3862(5) 0.7948(4) 0.3201(6)
C13A C -0.0852(2) -0.0012(2) -0.0148(2)
C12A C -0.1389(2) -0.1062(2) 0.0396(2)
N1A N -0.2575(2) -0.2383(2) -0.0748(2)
C6A C -0.3279(2) -0.2879(2) -0.2451(2)
C5A C -0.2169(2) -0.3339(2) -0.3072(2)
C4A C -0.1868(2) -0.2753(2) -0.3922(2)
O1A O -0.2666(2) -0.1720(2) -0.4322(2)
C1A C -0.2151(3) -0.1214(3) -0.5161(3)
O2A O -0.2696(3) -0.0286(2) -0.5562(2)
C2A C -0.0957(4) -0.2020(3) -0.5390(3)
H1A H -0.1363(4) -0.2657(3) -0.6526(3)
H2A H 0.0052(4) -0.1283(3) -0.4937(3)
C3A C -0.0712(3) -0.2995(3) -0.4529(3)
H3A H -0.0957(3) -0.4072(3) -0.5258(3)
H4A H 0.0392(3) -0.2667(3) -0.3643(3)
C14A C -0.1347(2) -0.4513(2) -0.2741(2)
O4A O -0.0120(2) -0.4700(2) -0.2739(3)
O5A O -0.2179(2) -0.5403(2) -0.2482(2)
C15A C -0.1611(3) -0.6705(3) -0.2285(3)
H16A H -0.1490(3) -0.7337(3) -0.3183(3)
H17A H -0.0576(3) -0.6348(3) -0.1299(3)
C16A C -0.2845(5) -0.7603(4) -0.2219(6)
H18A H -0.2517(5) -0.8478(4) -0.2089(6)
H19A H -0.2953(5) -0.6964(4) -0.1326(6)
H20A H -0.3862(5) -0.7948(4) -0.3201(6)
C7A C -0.4801(3) -0.2943(3) -0.3338(3)
H5A H -0.5228(3) -0.3346(3) -0.4443(3)
C8A C -0.5902(4) -0.2418(4) -0.2705(4)
H6A H -0.5489(4) -0.1312(4) -0.2032(4)
H7A H -0.6954(4) -0.2605(4) -0.3614(4)
C9A C -0.6134(4) -0.3142(6) -0.1753(5)
H8A H -0.7013(4) -0.2844(6) -0.1598(5)
H9A H -0.6476(4) -0.4252(6) -0.2400(5)
C10A C -0.4705(3) -0.2766(4) -0.0126(4)
H10A H -0.5027(3) -0.3267(4) 0.0378(4)
H11A H -0.4370(3) -0.1663(4) 0.0552(4)
C11A C -0.3305(3) -0.3273(3) -0.0239(3)
H12A H -0.3667(3) -0.4355(3) -0.1001(3)
H13A H -0.2492(3) -0.3161(3) 0.0804(3)
O3A O -0.0782(2) -0.0702(2) 0.1833(2)
H14A H -0.1595(2) -0.0362(2) -0.1287(2)
H15A H -0.0882(2) 0.1025(2) 0.0430(2)
H21? H 0.6843(4) 0.3287(4) 0.3293(4)
H22? H 0.6270(4) 0.1632(4) 0.3029(4)
C17? C 0.5411(28) 0.1794(15) 0.0974(11)
H23? H 0.4622(28) 0.0804(15) 0.0391(11)
H24? H 0.6350(28) 0.1607(15) 0.0887(11)
H25? H 0.5553(3) 0.3676(4) 0.0572(4)
H26? H 0.4362(3) 0.2182(4) -0.1002(4)
loop_
_geom_bond_atom_site_label_1
_geom_bond_atom_site_label_2
_geom_bond_site_symmetry_1
_geom_bond_site_symmetry_2
O1 C1 1_555 1_555
C1 O2 1_555 1_555
C2 C1 1_555 1_555
H1 C2 1_555 1_555
H2 C2 1_555 1_555
C3 C2 1_555 1_555
H3 C3 1_555 1_555
H4 C3 1_555 1_555
C4 O1 1_555 1_555
C5 C4 1_555 1_555
C6 C5 1_555 1_555
C7 C6 1_555 1_555
H5 C7 1_555 1_555
C8 C7 1_555 1_555
H6 C8 1_555 1_555
H7 C8 1_555 1_555
C9 C8 1_555 1_555
H8 C9 1_555 1_555
H9 C9 1_555 1_555
C10 C9 1_555 1_555
H10 C10 1_555 1_555
H11 C10 1_555 1_555
C11 C10 1_555 1_555
H12 C11 1_555 1_555
H13 C11 1_555 1_555
N1 C6 1_555 1_555
C12 N1 1_555 1_555
O3 C12 1_555 1_555
C13 C12 1_555 1_555
H14 C13 1_555 1_555
H15 C13 1_555 1_555
C14 C5 1_555 1_555
O4 C14 1_555 1_555
O5 C14 1_555 1_555
C15 O5 1_555 1_555
H16 C15 1_555 1_555
H17 C15 1_555 1_555
C16 C15 1_555 1_555
H18 C16 1_555 1_555
H19 C16 1_555 1_555
H20 C16 1_555 1_555
C13A C13 1_555 1_555
C12A C13A 1_555 1_555
N1A C12A 1_555 1_555
C6A N1A 1_555 1_555
C5A C6A 1_555 1_555
C4A C5A 1_555 1_555
O1A C4A 1_555 1_555
C1A O1A 1_555 1_555
O2A C1A 1_555 1_555
C2A C1A 1_555 1_555
H1A C2A 1_555 1_555
H2A C2A 1_555 1_555
C3A C4A 1_555 1_555
H3A C3A 1_555 1_555
H4A C3A 1_555 1_555
C14A C5A 1_555 1_555
O4A C14A 1_555 1_555
O5A C14A 1_555 1_555
C15A O5A 1_555 1_555
H16A C15A 1_555 1_555
H17A C15A 1_555 1_555
C16A C15A 1_555 1_555
H18A C16A 1_555 1_555
H19A C16A 1_555 1_555
H20A C16A 1_555 1_555
C7A C6A 1_555 1_555
H5A C7A 1_555 1_555
C8A C7A 1_555 1_555
H6A C8A 1_555 1_555
H7A C8A 1_555 1_555
C9A C8A 1_555 1_555
H8A C9A 1_555 1_555
H9A C9A 1_555 1_555
C10A C9A 1_555 1_555
H10A C10A 1_555 1_555
H11A C10A 1_555 1_555
C11A N1A 1_555 1_555
H12A C11A 1_555 1_555
H13A C11A 1_555 1_555
O3A C12A 1_555 1_555
H14A C13A 1_555 1_555
H15A C13A 1_555 1_555
C3 C4 1_555 1_555
C11 N1 1_555 1_555
C2A C3A 1_555 1_555
C10A C11A 1_555 1_555

#END
