
#######################################################################
#
#                 Cambridge Crystallographic Data Centre
#                                CCDC 
#
#######################################################################
#
# If this CIF has been generated from an entry in the Cambridge 
# Structural Database, then it will include bibliographic, chemical, 
# crystal, experimental, refinement or atomic coordinate data resulting 
# from the CCDC's data processing and validation procedures.
#
#######################################################################

data_FAFWEP
_chemical_formula_moiety         'C34 H32 N2 O7'
_chemical_name_systematic        
'Ethyl 11-(6-(2-ethoxy-2-oxo-1-(3-oxo-2-benzofuran-1(3H)-ylidene)ethyl)-3,4-dihydropyridin-1(2H)-yl)-6-oxo-2,3,4,5-tetrahydropyrido[1,2-b][2]benzazepine-12-carboxylate'
_symmetry_cell_setting           triclinic
_symmetry_space_group_name_H-M   'P -1'
_symmetry_Int_Tables_number      2
_space_group_name_Hall           '-P 1'
loop_
_symmetry_equiv_pos_site_id
_symmetry_equiv_pos_as_xyz
1 x,y,z
2 -x,-y,-z
_cell_length_a                   9.788(2)
_cell_length_b                   10.672(2)
_cell_length_c                   15.600(2)
_cell_angle_alpha                109.187(15)
_cell_angle_beta                 102.65(2)
_cell_angle_gamma                92.433(11)
_cell_volume                     1490.04
_exptl_crystal_colour            yellow
_exptl_crystal_description       blocks
_chemical_melting_point          198-200deg.C
_cell_formula_units_Z            2
_exptl_crystal_recrystallization_method 'ethyl acetate/petroleum ether'
loop_
_atom_site_label
_atom_site_type_symbol
_atom_site_fract_x
_atom_site_fract_y
_atom_site_fract_z
C1 C 0.4236(3) 0.6545(3) 0.2025(2)
H1 H 0.4030(3) 0.5776(3) 0.1495(2)
C2 C 0.3517(3) 0.7735(3) 0.1965(2)
H2 H 0.2504(3) 0.7488(3) 0.1804(2)
H3 H 0.3746(3) 0.7986(3) 0.1464(2)
C3 C 0.3925(4) 0.8922(3) 0.2857(3)
H4 H 0.3137(4) 0.9440(3) 0.2907(3)
H5 H 0.4709(4) 0.9486(3) 0.2834(3)
C4 C 0.4339(3) 0.8529(3) 0.3714(2)
H6 H 0.4663(3) 0.9322(3) 0.4268(2)
H7 H 0.3532(3) 0.8049(3) 0.3785(2)
N1 N 0.5476(2) 0.7671(2) 0.36064(14)
C5 C 0.6804(3) 0.8134(2) 0.4154(2)
O1 O 0.7032(2) 0.9101(2) 0.48847(13)
C6 C 0.8030(2) 0.7543(2) 0.37919(14)
C7 C 0.9177(3) 0.8494(2) 0.3980(2)
H8 H 0.9131(3) 0.9382(2) 0.4319(2)
C8 C 1.0382(3) 0.8158(3) 0.3677(2)
H9 H 1.1130(3) 0.8813(3) 0.3805(2)
C9 C 1.0462(3) 0.6838(3) 0.3182(2)
H10 H 1.1263(3) 0.6599(3) 0.2970(2)
C10 C 0.9344(2) 0.5874(2) 0.3002(2)
H11 H 0.9415(2) 0.4986(2) 0.2678(2)
C11 C 0.8113(2) 0.6196(2) 0.32941(14)
C12 C 0.6982(2) 0.5087(2) 0.30978(14)
C13 C 0.5598(2) 0.5264(2) 0.29143(14)
C14 C 0.5140(2) 0.6508(2) 0.2776(2)
N2 N 0.7463(2) 0.3856(2) 0.30352(13)
C15 C 0.8591(2) 0.3743(2) 0.3787(2)
H12 H 0.8886(2) 0.4613(2) 0.4275(2)
H13 H 0.9398(2) 0.3454(2) 0.3542(2)
C16 C 0.8114(2) 0.2772(2) 0.4194(2)
H14 H 0.7320(2) 0.3067(2) 0.4453(2)
H15 H 0.8872(2) 0.2728(2) 0.4697(2)
C17 C 0.7682(2) 0.1392(2) 0.3438(2)
H16 H 0.8518(2) 0.0961(2) 0.3352(2)
H17 H 0.7092(2) 0.0848(2) 0.3640(2)
C18 C 0.6894(2) 0.1480(2) 0.2528(2)
H18 H 0.6480(2) 0.0688(2) 0.2046(2)
C19 C 0.6748(2) 0.2622(2) 0.2364(2)
C20 C 0.5969(2) 0.2695(2) 0.1452(2)
C21 C 0.4684(2) 0.2023(2) 0.0986(2)
O2 O 0.4066(2) 0.1218(2) 0.13811(12)
C22 C 0.2768(3) 0.0563(3) 0.0796(2)
O3 O 0.2059(2) -0.0149(2) 0.1022(2)
C23 C 0.2548(3) 0.0979(2) -0.0027(2)
C24 C 0.1379(3) 0.0630(3) -0.0783(2)
H19 H 0.0635(3) 0.0008(3) -0.0846(2)
C25 C 0.1366(3) 0.1238(3) -0.1432(2)
H20 H 0.0600(3) 0.1024(3) -0.1949(2)
C26 C 0.2476(3) 0.2167(3) -0.1328(2)
H21 H 0.2431(3) 0.2573(3) -0.1776(2)
C27 C 0.3659(3) 0.2513(3) -0.0573(2)
H22 H 0.4402(3) 0.3133(3) -0.0514(2)
C28 C 0.3688(3) 0.1896(2) 0.0093(2)
C29 C 0.4428(3) 0.4327(2) 0.2919(2)
O4 O 0.3243(2) 0.4161(3) 0.2452(2)
O5 O 0.4814(2) 0.3719(2) 0.35414(14)
C30 C 0.3718(4) 0.2833(3) 0.3637(2)
H23 H 0.4156(4) 0.2204(3) 0.3905(2)
H24 H 0.3119(4) 0.2327(3) 0.3022(2)
C31 C 0.2844(4) 0.3607(4) 0.4243(3)
H25 H 0.2135(4) 0.3004(4) 0.4294(3)
H26 H 0.2398(4) 0.4220(4) 0.3972(3)
H27 H 0.3434(4) 0.4097(4) 0.4854(3)
C32 C 0.6698(3) 0.3507(2) 0.1025(2)
O6 O 0.6193(2) 0.4326(2) 0.0718(2)
O7 O 0.8002(2) 0.3210(2) 0.10350(13)
C33 C 0.8819(3) 0.3911(4) 0.0612(2)
H28 H 0.8833(3) 0.4870(4) 0.0895(2)
H29 H 0.8398(3) 0.3651(4) -0.0054(2)
C34 C 1.0265(5) 0.3550(5) 0.0774(4)
H30 H 1.0824(5) 0.4000(5) 0.0502(4)
H31 H 1.0240(5) 0.2601(5) 0.0490(4)
H32 H 1.0673(5) 0.3815(5) 0.1435(4)
H33? H 0.8332(2) 0.4147(2) 0.4367(2)
H34? H 0.9425(2) 0.4276(2) 0.3813(2)
C35? C 0.8990(8) 0.2425(12) 0.3819(31)
H35? H 0.9510(8) 0.2478(12) 0.4430(31)
H36? H 0.9588(8) 0.2143(12) 0.3396(31)
H37? H 0.7119(2) 0.1605(2) 0.3888(2)
H38? H 0.7942(2) 0.0511(2) 0.3355(2)
loop_
_geom_bond_atom_site_label_1
_geom_bond_atom_site_label_2
_geom_bond_site_symmetry_1
_geom_bond_site_symmetry_2
C1 H1 1_555 1_555
C2 C1 1_555 1_555
H2 C2 1_555 1_555
H3 C2 1_555 1_555
C3 C2 1_555 1_555
H4 C3 1_555 1_555
H5 C3 1_555 1_555
C4 C3 1_555 1_555
H6 C4 1_555 1_555
H7 C4 1_555 1_555
N1 C4 1_555 1_555
C5 N1 1_555 1_555
O1 C5 1_555 1_555
C6 C5 1_555 1_555
C7 C6 1_555 1_555
H8 C7 1_555 1_555
C8 C7 1_555 1_555
H9 C8 1_555 1_555
C9 C8 1_555 1_555
H10 C9 1_555 1_555
C10 C9 1_555 1_555
H11 C10 1_555 1_555
C11 C6 1_555 1_555
C12 C11 1_555 1_555
C13 C12 1_555 1_555
C14 C1 1_555 1_555
N2 C12 1_555 1_555
C15 N2 1_555 1_555
H12 C15 1_555 1_555
H13 C15 1_555 1_555
C16 C15 1_555 1_555
H14 C16 1_555 1_555
H15 C16 1_555 1_555
C17 C16 1_555 1_555
H16 C17 1_555 1_555
H17 C17 1_555 1_555
C18 C17 1_555 1_555
H18 C18 1_555 1_555
C19 N2 1_555 1_555
C20 C19 1_555 1_555
C21 C20 1_555 1_555
O2 C21 1_555 1_555
C22 O2 1_555 1_555
O3 C22 1_555 1_555
C23 C22 1_555 1_555
C24 C23 1_555 1_555
H19 C24 1_555 1_555
C25 C24 1_555 1_555
H20 C25 1_555 1_555
C26 C25 1_555 1_555
H21 C26 1_555 1_555
C27 C26 1_555 1_555
H22 C27 1_555 1_555
C28 C21 1_555 1_555
C29 C13 1_555 1_555
O4 C29 1_555 1_555
O5 C29 1_555 1_555
C30 O5 1_555 1_555
H23 C30 1_555 1_555
H24 C30 1_555 1_555
C31 C30 1_555 1_555
H25 C31 1_555 1_555
H26 C31 1_555 1_555
H27 C31 1_555 1_555
C32 C20 1_555 1_555
O6 C32 1_555 1_555
O7 C32 1_555 1_555
C33 O7 1_555 1_555
H28 C33 1_555 1_555
H29 C33 1_555 1_555
C34 C33 1_555 1_555
H30 C34 1_555 1_555
H31 C34 1_555 1_555
H32 C34 1_555 1_555
N1 C14 1_555 1_555
C10 C11 1_555 1_555
C13 C14 1_555 1_555
C18 C19 1_555 1_555
C23 C28 1_555 1_555
C27 C28 1_555 1_555

#END
