
#######################################################################
#
#                 Cambridge Crystallographic Data Centre
#                                CCDC 
#
#######################################################################
#
# If this CIF has been generated from an entry in the Cambridge 
# Structural Database, then it will include bibliographic, chemical, 
# crystal, experimental, refinement or atomic coordinate data resulting 
# from the CCDC's data processing and validation procedures.
#
#######################################################################

data_FAFWIT
_chemical_formula_moiety         'C36 H38 N2 O8'
_chemical_name_systematic        
'Ethyl 2-(azepan-2-ylidene)-3-(2-((7-(2-ethoxy-2-oxo-1-(3-oxo-2-benzofuran-1(3H)-ylidene)ethyl)-2,3,4,5-tetrahydro-1H-azepan-1-yl)carbonyl)phenyl)-3-oxopropanoate'
_symmetry_cell_setting           monoclinic
_symmetry_space_group_name_H-M   'P 21/n'
_symmetry_Int_Tables_number      14
_space_group_name_Hall           '-P 2yn'
loop_
_symmetry_equiv_pos_site_id
_symmetry_equiv_pos_as_xyz
1 x,y,z
2 1/2-x,1/2+y,1/2-z
3 -x,-y,-z
4 1/2+x,1/2-y,1/2+z
_cell_length_a                   9.5946(5)
_cell_length_b                   13.3704(4)
_cell_length_c                   25.4789(11)
_cell_angle_alpha                90
_cell_angle_beta                 93.377(4)
_cell_angle_gamma                90
_cell_volume                     3262.85
_exptl_crystal_colour            colorless
_exptl_crystal_description       'platy prisms'
_chemical_melting_point          195-197deg.C
_cell_formula_units_Z            4
_exptl_crystal_recrystallization_method 'acetone/ethyl acetate/petroleum ether'
loop_
_atom_site_label
_atom_site_type_symbol
_atom_site_fract_x
_atom_site_fract_y
_atom_site_fract_z
C1 C -0.5641(5) -0.8622(4) -0.3669(2)
H1 H -0.6601(5) -0.8798(4) -0.3768(2)
H2 H -0.5100(5) -0.9235(4) -0.3651(2)
C2 C -0.5092(6) -0.7955(5) -0.4090(2)
H3 H -0.4788(6) -0.8370(5) -0.4374(2)
H4 H -0.4284(6) -0.7594(5) -0.3943(2)
C3 C -0.6166(8) -0.7199(5) -0.4317(2)
H5 H -0.6947(8) -0.7562(5) -0.4484(2)
H6 H -0.5743(8) -0.6809(5) -0.4586(2)
C4 C -0.6723(8) -0.6482(5) -0.3909(2)
H7 H -0.5950(8) -0.6086(5) -0.3759(2)
H8 H -0.7380(8) -0.6026(5) -0.4087(2)
C5 C -0.7415(6) -0.6969(5) -0.3478(2)
H9 H -0.8008(6) -0.6484(5) -0.3317(2)
H10 H -0.8011(6) -0.7499(5) -0.3624(2)
N1 N -0.6448(5) -0.7394(3) -0.30714(15)
H11 H -0.6373(68) -0.7144(44) -0.2743(10)
C6 C -0.5581(4) -0.8145(3) -0.3134(2)
C7 C -0.4696(4) -0.8493(3) -0.27130(14)
C8 C -0.4768(4) -0.8078(3) -0.21932(14)
O1 O -0.5675(3) -0.7453(2) -0.20853(11)
C9 C -0.3717(4) -0.8331(3) -0.17522(14)
C10 C -0.2304(4) -0.8276(3) -0.1829(2)
H12 H -0.2015(4) -0.8132(3) -0.2163(2)
C11 C -0.1306(4) -0.8432(4) -0.1420(2)
H13 H -0.0361(4) -0.8400(4) -0.1481(2)
C12 C -0.1725(5) -0.8634(4) -0.0927(2)
H14 H -0.1064(5) -0.8750(4) -0.0652(2)
C13 C -0.3145(5) -0.8665(3) -0.0837(2)
H15 H -0.3425(5) -0.8787(3) -0.0499(2)
C14 C -0.4142(4) -0.8514(3) -0.12454(14)
C15 C -0.5643(4) -0.8727(3) -0.11467(13)
O2 O -0.6246(3) -0.9415(2) -0.13865(12)
N2 N -0.6255(3) -0.8224(2) -0.07602(11)
C16 C -0.5677(4) -0.7345(3) -0.05057(14)
C17 C -0.5424(5) -0.7348(3) 0.0009(2)
H16 H -0.5116(5) -0.6754(3) 0.0166(2)
C18 C -0.5592(6) -0.8238(4) 0.0362(2)
H17 H -0.5277(6) -0.8053(4) 0.0718(2)
H18 H -0.4989(6) -0.8771(4) 0.0251(2)
C19 C -0.7084(6) -0.8643(4) 0.0370(2)
H19 H -0.7130(6) -0.9099(4) 0.0665(2)
H20 H -0.7708(6) -0.8090(4) 0.0430(2)
C20 C -0.7601(5) -0.9181(4) -0.0123(2)
H21 H -0.8533(5) -0.9432(4) -0.0074(2)
H22 H -0.7002(5) -0.9753(4) -0.0174(2)
C21 C -0.7645(4) -0.8541(3) -0.0618(2)
H23 H -0.8088(4) -0.8918(3) -0.0907(2)
H24 H -0.8211(4) -0.7953(3) -0.0563(2)
C22 C -0.5520(5) -0.6437(3) -0.0831(2)
C23 C -0.6377(4) -0.6178(3) -0.12423(15)
O3 O -0.7555(3) -0.6755(2) -0.13629(11)
C24 C -0.8220(5) -0.6436(3) -0.1834(2)
O4 O -0.9212(4) -0.6868(3) -0.20255(14)
C25 C -0.7440(4) -0.5571(3) -0.2010(2)
C26 C -0.7676(5) -0.5003(3) -0.2462(2)
H25 H -0.8431(5) -0.5129(3) -0.2699(2)
C27 C -0.6739(5) -0.4243(4) -0.2546(2)
H26 H -0.6859(5) -0.3849(4) -0.2846(2)
C28 C -0.5630(5) -0.4059(4) -0.2191(2)
H27 H -0.5025(5) -0.3535(4) -0.2254(2)
C29 C -0.5391(5) -0.4638(3) -0.1739(2)
H28 H -0.4631(5) -0.4515(3) -0.1504(2)
C30 C -0.6324(4) -0.5402(3) -0.1652(2)
C31 C -0.3723(4) -0.9316(3) -0.28045(14)
O5 O -0.2995(4) -0.9405(3) -0.31729(12)
O6 O -0.3737(3) -0.9999(2) -0.24181(11)
C32 C -0.2732(6) -1.0807(4) -0.2427(2)
H29 H -0.1793(6) -1.0542(4) -0.2439(2)
H30 H -0.2924(6) -1.1226(4) -0.2733(2)
C33 C -0.2869(10) -1.1382(5) -0.1947(3)
H31 H -0.2218(10) -1.1928(5) -0.1937(3)
H32 H -0.3802(10) -1.1639(5) -0.1941(3)
H33 H -0.2677(10) -1.0958(5) -0.1648(3)
C34 C -0.4364(6) -0.5727(3) -0.0669(2)
O7 O -0.4538(5) -0.4853(2) -0.0590(2)
O8 O -0.3121(4) -0.6164(3) -0.0648(2)
C35 C -0.1919(8) -0.5506(5) -0.0513(3)
H34 H -0.1987(8) -0.4899(5) -0.0722(3)
H35 H -0.1903(8) -0.5322(5) -0.0145(3)
C36 C -0.0667(8) -0.6048(6) -0.0621(3)
H36 H 0.0134(8) -0.5636(6) -0.0537(3)
H37 H -0.0693(8) -0.6224(6) -0.0987(3)
H38 H -0.0609(8) -0.6645(6) -0.0412(3)
loop_
_geom_bond_atom_site_label_1
_geom_bond_atom_site_label_2
_geom_bond_site_symmetry_1
_geom_bond_site_symmetry_2
C1 H1 1_555 1_555
H2 C1 1_555 1_555
C2 C1 1_555 1_555
H3 C2 1_555 1_555
H4 C2 1_555 1_555
C3 C2 1_555 1_555
H5 C3 1_555 1_555
H6 C3 1_555 1_555
C4 C3 1_555 1_555
H7 C4 1_555 1_555
H8 C4 1_555 1_555
C5 C4 1_555 1_555
H9 C5 1_555 1_555
H10 C5 1_555 1_555
N1 C5 1_555 1_555
H11 N1 1_555 1_555
C6 C1 1_555 1_555
C7 C6 1_555 1_555
C8 C7 1_555 1_555
O1 C8 1_555 1_555
C9 C8 1_555 1_555
C10 C9 1_555 1_555
H12 C10 1_555 1_555
C11 C10 1_555 1_555
H13 C11 1_555 1_555
C12 C11 1_555 1_555
H14 C12 1_555 1_555
C13 C12 1_555 1_555
H15 C13 1_555 1_555
C14 C9 1_555 1_555
C15 C14 1_555 1_555
O2 C15 1_555 1_555
N2 C15 1_555 1_555
C16 N2 1_555 1_555
C17 C16 1_555 1_555
H16 C17 1_555 1_555
C18 C17 1_555 1_555
H17 C18 1_555 1_555
H18 C18 1_555 1_555
C19 C18 1_555 1_555
H19 C19 1_555 1_555
H20 C19 1_555 1_555
C20 C19 1_555 1_555
H21 C20 1_555 1_555
H22 C20 1_555 1_555
C21 N2 1_555 1_555
H23 C21 1_555 1_555
H24 C21 1_555 1_555
C22 C16 1_555 1_555
C23 C22 1_555 1_555
O3 C23 1_555 1_555
C24 O3 1_555 1_555
O4 C24 1_555 1_555
C25 C24 1_555 1_555
C26 C25 1_555 1_555
H25 C26 1_555 1_555
C27 C26 1_555 1_555
H26 C27 1_555 1_555
C28 C27 1_555 1_555
H27 C28 1_555 1_555
C29 C28 1_555 1_555
H28 C29 1_555 1_555
C30 C23 1_555 1_555
C31 C7 1_555 1_555
O5 C31 1_555 1_555
O6 C31 1_555 1_555
C32 O6 1_555 1_555
H29 C32 1_555 1_555
H30 C32 1_555 1_555
C33 C32 1_555 1_555
H31 C33 1_555 1_555
H32 C33 1_555 1_555
H33 C33 1_555 1_555
C34 C22 1_555 1_555
O7 C34 1_555 1_555
O8 C34 1_555 1_555
C35 O8 1_555 1_555
H34 C35 1_555 1_555
H35 C35 1_555 1_555
C36 C35 1_555 1_555
H36 C36 1_555 1_555
H37 C36 1_555 1_555
H38 C36 1_555 1_555
N1 C6 1_555 1_555
C13 C14 1_555 1_555
C20 C21 1_555 1_555
C25 C30 1_555 1_555
C29 C30 1_555 1_555

#END
