
#######################################################################
#
#                 Cambridge Crystallographic Data Centre
#                                CCDC 
#
#######################################################################
#
# If this CIF has been generated from an entry in the Cambridge 
# Structural Database, then it will include bibliographic, chemical, 
# crystal, experimental, refinement or atomic coordinate data resulting 
# from the CCDC's data processing and validation procedures.
#
#######################################################################

data_FAGBOG
_chemical_formula_moiety         'C26 H27 N1 O2 S1'
_chemical_name_systematic        
1-((4-Methylphenyl)sulfonyl)-3,3a-diphenyloctahydrocyclopenta[b]pyrrole
_symmetry_cell_setting           orthorhombic
_symmetry_space_group_name_H-M   'P 21 21 21'
_symmetry_Int_Tables_number      19
_space_group_name_Hall           'P 2ac 2ab'
loop_
_symmetry_equiv_pos_site_id
_symmetry_equiv_pos_as_xyz
1 x,y,z
2 1/2-x,-y,1/2+z
3 -x,1/2+y,1/2-z
4 1/2+x,1/2-y,-z
_cell_length_a                   7.4773(6)
_cell_length_b                   11.8993(9)
_cell_length_c                   25.2455(19)
_cell_angle_alpha                90
_cell_angle_beta                 90
_cell_angle_gamma                90
_cell_volume                     2246.21
_exptl_crystal_colour            colorless
_exptl_crystal_description       block
_cell_formula_units_Z            4
loop_
_atom_site_label
_atom_site_type_symbol
_atom_site_fract_x
_atom_site_fract_y
_atom_site_fract_z
C1 C 0.4623(3) 0.63148(15) 0.05458(8)
C2 C 0.3612(3) 0.55139(17) 0.02910(9)
H1 H 0.2727 0.5125 0.0474
C3 C 0.3918(3) 0.52923(19) -0.02344(10)
H2 H 0.3236 0.4744 -0.0402
C4 C 0.5199(3) 0.5852(2) -0.05227(9)
C5 C 0.6172(4) 0.6641(2) -0.02602(11)
H3 H 0.7041 0.7036 -0.0446
C6 C 0.5927(4) 0.68802(19) 0.02695(11)
H4 H 0.6634 0.7416 0.0437
C7 C 0.5500(5) 0.5624(3) -0.11034(10)
H5 H 0.4777 0.6126 -0.1310
H6 H 0.5175 0.4862 -0.1182
H7 H 0.6738 0.5740 -0.1188
C8 C 0.4893(2) 0.44515(15) 0.14954(8)
H8 H 0.4918 0.4205 0.1129
H9 H 0.3702 0.4337 0.1638
C9 C 0.6285(2) 0.38494(14) 0.18220(7)
H10 H 0.6037 0.4036 0.2193
C10 C 0.8074(2) 0.44687(17) 0.16724(7)
C11 C 0.9308(3) 0.4553(2) 0.21612(8)
H11 H 0.9260 0.3868 0.2369
H12 H 1.0536 0.4688 0.2055
C12 C 0.8578(3) 0.5544(2) 0.24760(9)
H13 H 0.7533 0.5327 0.2680
H14 H 0.9477 0.5842 0.2715
C13 C 0.8095(3) 0.6393(2) 0.20537(10)
H15 H 0.9131 0.6840 0.1957
H16 H 0.7160 0.6892 0.2178
C14 C 0.7444(3) 0.57031(17) 0.15801(8)
H17 H 0.7944 0.6000 0.1250
C15 C 0.6248(2) 0.25895(15) 0.17837(7)
C16 C 0.5807(3) 0.20137(16) 0.13248(8)
H18 H 0.5546 0.2417 0.1019
C17 C 0.5746(3) 0.08599(18) 0.13117(10)
H19 H 0.5456 0.0495 0.0998
C18 C 0.6110(3) 0.02420(19) 0.17569(11)
H20 H 0.6045 -0.0538 0.1750
C19 C 0.6571(3) 0.0795(2) 0.22135(11)
H21 H 0.6857 0.0385 0.2515
C20 C 0.6614(3) 0.19573(18) 0.22296(8)
H22 H 0.6894 0.2318 0.2546
C21 C 0.8964(2) 0.39364(15) 0.11913(8)
C22 C 0.8520(3) 0.42352(18) 0.06771(8)
H23 H 0.7668 0.4792 0.0621
C23 C 0.9314(3) 0.3724(2) 0.02450(9)
H24 H 0.8999 0.3948 -0.0095
C24 C 1.0540(4) 0.2906(2) 0.03123(11)
H25 H 1.1069 0.2565 0.0020
C25 C 1.1000(3) 0.2579(2) 0.08151(12)
H26 H 1.1849 0.2017 0.0863
C26 C 1.0209(3) 0.30814(18) 0.12526(10)
H27 H 1.0518 0.2842 0.1591
N1 N 0.5452(2) 0.56281(13) 0.15447(7)
O1 O 0.5093(3) 0.76291(12) 0.13466(7)
O2 O 0.2455(2) 0.63591(14) 0.13459(7)
S1 S 0.43018(9) 0.65712(5) 0.12262(2)
loop_
_geom_bond_atom_site_label_1
_geom_bond_atom_site_label_2
_geom_bond_site_symmetry_1
_geom_bond_site_symmetry_2
C1 C2 1_555 1_555
C2 H1 1_555 1_555
C3 C2 1_555 1_555
H2 C3 1_555 1_555
C4 C3 1_555 1_555
C5 C4 1_555 1_555
H3 C5 1_555 1_555
C6 C1 1_555 1_555
H4 C6 1_555 1_555
C7 C4 1_555 1_555
H5 C7 1_555 1_555
H6 C7 1_555 1_555
H7 C7 1_555 1_555
C8 H8 1_555 1_555
H9 C8 1_555 1_555
C9 C8 1_555 1_555
H10 C9 1_555 1_555
C10 C9 1_555 1_555
C11 C10 1_555 1_555
H11 C11 1_555 1_555
H12 C11 1_555 1_555
C12 C11 1_555 1_555
H13 C12 1_555 1_555
H14 C12 1_555 1_555
C13 C12 1_555 1_555
H15 C13 1_555 1_555
H16 C13 1_555 1_555
C14 C10 1_555 1_555
H17 C14 1_555 1_555
C15 C9 1_555 1_555
C16 C15 1_555 1_555
H18 C16 1_555 1_555
C17 C16 1_555 1_555
H19 C17 1_555 1_555
C18 C17 1_555 1_555
H20 C18 1_555 1_555
C19 C18 1_555 1_555
H21 C19 1_555 1_555
C20 C15 1_555 1_555
H22 C20 1_555 1_555
C21 C10 1_555 1_555
C22 C21 1_555 1_555
H23 C22 1_555 1_555
C23 C22 1_555 1_555
H24 C23 1_555 1_555
C24 C23 1_555 1_555
H25 C24 1_555 1_555
C25 C24 1_555 1_555
H26 C25 1_555 1_555
C26 C21 1_555 1_555
H27 C26 1_555 1_555
N1 C8 1_555 1_555
O1 S1 1_555 1_555
O2 S1 1_555 1_555
S1 C1 1_555 1_555
C5 C6 1_555 1_555
C13 C14 1_555 1_555
C14 N1 1_555 1_555
C19 C20 1_555 1_555
C25 C26 1_555 1_555
N1 S1 1_555 1_555

#END
