
#######################################################################
#
#                 Cambridge Crystallographic Data Centre
#                                CCDC 
#
#######################################################################
#
# If this CIF has been generated from an entry in the Cambridge 
# Structural Database, then it will include bibliographic, chemical, 
# crystal, experimental, refinement or atomic coordinate data resulting 
# from the CCDC's data processing and validation procedures.
#
#######################################################################

data_FAGDEY
_chemical_formula_moiety         'C15 H12 F3 N1 O3'
_chemical_name_systematic        
'Ethyl 6-oxo-5-phenyl-2-(trifluoromethyl)-1,6-dihydropyridine-3-carboxylate'
_symmetry_cell_setting           monoclinic
_symmetry_space_group_name_H-M   'P 21/c'
_symmetry_Int_Tables_number      14
_space_group_name_Hall           '-P 2ybc'
loop_
_symmetry_equiv_pos_site_id
_symmetry_equiv_pos_as_xyz
1 x,y,z
2 -x,1/2+y,1/2-z
3 -x,-y,-z
4 x,1/2-y,1/2+z
_cell_length_a                   12.602(7)
_cell_length_b                   7.454(4)
_cell_length_c                   15.219(8)
_cell_angle_alpha                90
_cell_angle_beta                 91.550(6)
_cell_angle_gamma                90
_cell_volume                     1429.08
_chemical_melting_point          '135.4-136.9 deg.C'
_cell_formula_units_Z            4
loop_
_atom_site_label
_atom_site_type_symbol
_atom_site_fract_x
_atom_site_fract_y
_atom_site_fract_z
C1 C 0.6947(2) 0.1808(3) 0.40609(16)
H1 H 0.7477 0.1818 0.4498
C2 C 0.5929(2) 0.1356(3) 0.42606(15)
H2 H 0.5769 0.1060 0.4836
C3 C 0.51396(18) 0.1335(3) 0.36158(13)
H3 H 0.4452 0.1021 0.3760
C4 C 0.53588(15) 0.1779(2) 0.27517(12)
C5 C 0.63966(17) 0.2229(3) 0.25586(15)
C6 C 0.71804(19) 0.2250(3) 0.32068(16)
H4 H 0.7870 0.2562 0.3069
C7 C 0.44949(15) 0.1769(2) 0.20748(11)
C8 C 0.34969(15) 0.2347(2) 0.22439(12)
H5 H 0.3366 0.2782 0.2803
C9 C 0.26488(15) 0.2321(3) 0.16185(12)
C10 C 0.28519(15) 0.1647(3) 0.08048(13)
C11 C 0.47023(15) 0.1095(3) 0.12010(12)
C12 C 0.20543(19) 0.1430(4) 0.00556(16)
C13 C 0.16100(17) 0.3006(3) 0.19140(15)
C14 C 0.0025(2) 0.4576(5) 0.1515(2)
H6 H 0.0001 0.4756 0.2145
H7 H -0.0083 0.5730 0.1231
C15 C -0.0821(2) 0.3352(5) 0.1235(3)
H8 H -0.1495 0.3845 0.1389
H9 H -0.0721 0.2216 0.1522
H10 H -0.0804 0.3188 0.0610
F1 F 0.11444(12) 0.0782(3) 0.03176(12)
F2 F 0.18546(15) 0.2953(3) -0.03520(11)
F3 F 0.23976(12) 0.0284(3) -0.05407(10)
O1 O 0.55685(11) 0.0536(2) 0.09594(9)
N1 N 0.38442(13) 0.1083(2) 0.06209(10)
H11 H 0.3946 0.0686 0.0099
O2 O 0.13400(15) 0.2861(4) 0.26480(13)
O3 O 0.10617(12) 0.3864(3) 0.12903(11)
H12 H 0.6560(18) 0.256(3) 0.1969(16)
loop_
_geom_bond_atom_site_label_1
_geom_bond_atom_site_label_2
_geom_bond_site_symmetry_1
_geom_bond_site_symmetry_2
C1 H1 1_555 1_555
C2 C1 1_555 1_555
H2 C2 1_555 1_555
C3 C2 1_555 1_555
H3 C3 1_555 1_555
C4 C3 1_555 1_555
C5 C4 1_555 1_555
C6 C1 1_555 1_555
H4 C6 1_555 1_555
C7 C4 1_555 1_555
C8 C7 1_555 1_555
H5 C8 1_555 1_555
C9 C8 1_555 1_555
C10 C9 1_555 1_555
C11 C7 1_555 1_555
C12 C10 1_555 1_555
C13 C9 1_555 1_555
C14 H6 1_555 1_555
H7 C14 1_555 1_555
C15 C14 1_555 1_555
H8 C15 1_555 1_555
H9 C15 1_555 1_555
H10 C15 1_555 1_555
F1 C12 1_555 1_555
F2 C12 1_555 1_555
F3 C12 1_555 1_555
O1 C11 1_555 1_555
N1 C10 1_555 1_555
H11 N1 1_555 1_555
O2 C13 1_555 1_555
O3 C13 1_555 1_555
H12 C5 1_555 1_555
C5 C6 1_555 1_555
C11 N1 1_555 1_555
C14 O3 1_555 1_555

#END
