
#######################################################################
#
#                 Cambridge Crystallographic Data Centre
#                                CCDC 
#
#######################################################################
#
# If this CIF has been generated from an entry in the Cambridge 
# Structural Database, then it will include bibliographic, chemical, 
# crystal, experimental, refinement or atomic coordinate data resulting 
# from the CCDC's data processing and validation procedures.
#
#######################################################################

data_FAGFUR
_chemical_formula_moiety         'C48 H32 N2 O2 S1,C1 H2 Cl2'
_chemical_name_systematic        
"9-(4'-((4'-(9H-carbazol-9-yl)biphenyl-4-yl)sulfonyl)biphenyl-4-yl)-9H-carbazole dichloromethane solvate"
_symmetry_cell_setting           orthorhombic
_symmetry_space_group_name_H-M   'P b c n'
_symmetry_Int_Tables_number      60
_space_group_name_Hall           '-P 2n 2ab'
loop_
_symmetry_equiv_pos_site_id
_symmetry_equiv_pos_as_xyz
1 x,y,z
2 1/2-x,1/2-y,1/2+z
3 -x,y,1/2-z
4 1/2+x,1/2-y,-z
5 -x,-y,-z
6 1/2+x,1/2+y,1/2-z
7 x,-y,1/2+z
8 1/2-x,1/2+y,z
_cell_length_a                   15.9195(4)
_cell_length_b                   13.7674(3)
_cell_length_c                   17.3771(4)
_cell_angle_alpha                90
_cell_angle_beta                 90
_cell_angle_gamma                90
_cell_volume                     3808.54
_exptl_crystal_colour            colorless
_exptl_crystal_description       block
_cell_formula_units_Z            4
loop_
_atom_site_label
_atom_site_type_symbol
_atom_site_fract_x
_atom_site_fract_y
_atom_site_fract_z
S1 S 0.0000 0.22319(6) 0.2500
O1 O -0.05493(13) 0.17042(13) 0.30078(11)
N1 N 0.37588(12) 0.69560(14) 0.54781(11)
C1 C 0.32155(15) 0.62984(16) 0.50995(13)
C2 C 0.46349(15) 0.69645(17) 0.54076(14)
C3 C 0.16370(15) 0.42685(16) 0.39136(13)
C4 C 0.25972(15) 0.57933(16) 0.54996(13)
H1 H 0.2534 0.5886 0.6026
C5 C 0.21717(14) 0.49774(16) 0.43309(13)
C6 C 0.20726(15) 0.51475(16) 0.51109(13)
H2 H 0.1650 0.4827 0.5379
C7 C 0.35224(15) 0.76971(16) 0.59850(13)
C8 C 0.19676(15) 0.37389(17) 0.33026(14)
H3 H 0.2534 0.3800 0.3182
C9 C 0.14674(16) 0.31215(17) 0.28701(14)
H4 H 0.1693 0.2783 0.2456
C10 C 0.27977(16) 0.54920(17) 0.39350(13)
H5 H 0.2871 0.5388 0.3410
C11 C 0.49585(15) 0.77228(17) 0.58666(14)
C12 C 0.33064(16) 0.61489(17) 0.43102(14)
H6 H 0.3711 0.6493 0.4037
C13 C 0.07931(16) 0.41255(18) 0.41086(14)
H7 H 0.0567 0.4458 0.4526
C14 C 0.42502(16) 0.81924(17) 0.62287(13)
C15 C 0.27251(16) 0.79729(17) 0.62303(14)
H8 H 0.2247 0.7649 0.6061
C16 C 0.02898(16) 0.34993(19) 0.36920(15)
H9 H -0.0268 0.3403 0.3832
C17 C 0.41754(18) 0.89777(19) 0.67291(14)
H10 H 0.4649 0.9317 0.6889
C18 C 0.26710(18) 0.87485(19) 0.67352(14)
H11 H 0.2146 0.8944 0.6913
C19 C 0.51547(16) 0.63417(18) 0.49968(15)
H12 H 0.4935 0.5845 0.4695
C20 C 0.06263(15) 0.30147(16) 0.30621(13)
C21 C 0.33873(19) 0.92454(19) 0.69846(15)
H13 H 0.3332 0.9762 0.7326
C22 C 0.63406(17) 0.7237(2) 0.55051(17)
H14 H 0.6920 0.7320 0.5531
C23 C 0.60126(17) 0.6491(2) 0.50542(17)
H15 H 0.6377 0.6085 0.4787
C24 C 0.58280(17) 0.7854(2) 0.59123(16)
H16 H 0.6055 0.8348 0.6212
O1B O 0.05493(13) 0.17042(13) 0.19922(11)
N1B N -0.37588(12) 0.69560(14) -0.04781(11)
C1B C -0.32155(15) 0.62984(16) -0.00995(13)
C2B C -0.46349(15) 0.69645(17) -0.04076(14)
C3B C -0.16370(15) 0.42685(16) 0.10864(13)
C4B C -0.25972(15) 0.57933(16) -0.04996(13)
H1B H -0.2534 0.5886 -0.1026
C5B C -0.21717(14) 0.49774(16) 0.06691(13)
C6B C -0.20726(15) 0.51475(16) -0.01109(13)
H2B H -0.1650 0.4827 -0.0379
C7B C -0.35224(15) 0.76971(16) -0.09850(13)
C8B C -0.19676(15) 0.37389(17) 0.16974(14)
H3B H -0.2534 0.3800 0.1818
C9B C -0.14674(16) 0.31215(17) 0.21299(14)
H4B H -0.1693 0.2783 0.2544
C10B C -0.27977(16) 0.54920(17) 0.10650(13)
H5B H -0.2871 0.5388 0.1590
C11B C -0.49585(15) 0.77228(17) -0.08666(14)
C12B C -0.33064(16) 0.61489(17) 0.06898(14)
H6B H -0.3711 0.6493 0.0963
C13B C -0.07931(16) 0.41255(18) 0.08914(14)
H7B H -0.0567 0.4458 0.0474
C14B C -0.42502(16) 0.81924(17) -0.12287(13)
C15B C -0.27251(16) 0.79729(17) -0.12303(14)
H8B H -0.2247 0.7649 -0.1061
C16B C -0.02898(16) 0.34993(19) 0.13080(15)
H9B H 0.0268 0.3403 0.1168
C17B C -0.41754(18) 0.89777(19) -0.17291(14)
H10B H -0.4649 0.9317 -0.1889
C18B C -0.26710(18) 0.87485(19) -0.17352(14)
H11B H -0.2146 0.8944 -0.1913
C19B C -0.51547(16) 0.63417(18) 0.00032(15)
H12B H -0.4935 0.5845 0.0305
C20B C -0.06263(15) 0.30147(16) 0.19379(13)
C21B C -0.33873(19) 0.92454(19) -0.19846(15)
H13B H -0.3332 0.9762 -0.2326
C22B C -0.63406(17) 0.7237(2) -0.05051(17)
H14B H -0.6920 0.7320 -0.0531
C23B C -0.60126(17) 0.6491(2) -0.00542(17)
H15B H -0.6377 0.6085 0.0213
C24B C -0.58280(17) 0.7854(2) -0.09123(16)
H16B H -0.6055 0.8348 -0.1212
C25? C 0.4788(5) 0.5609(5) 0.7878(4)
H17? H 0.461(6) 0.592(7) 0.832(5)
H18? H 0.477(6) 0.499(7) 0.789(5)
Cl1? Cl 0.41138(8) 0.58909(11) 0.72765(9)
loop_
_geom_bond_atom_site_label_1
_geom_bond_atom_site_label_2
_geom_bond_site_symmetry_1
_geom_bond_site_symmetry_2
S1 O1 1_555 1_555
N1 C1 1_555 1_555
C1 C4 1_555 1_555
C2 N1 1_555 1_555
C3 C5 1_555 1_555
C4 H1 1_555 1_555
C5 C6 1_555 1_555
C6 C4 1_555 1_555
H2 C6 1_555 1_555
C7 N1 1_555 1_555
C8 C3 1_555 1_555
H3 C8 1_555 1_555
C9 C8 1_555 1_555
H4 C9 1_555 1_555
C10 C5 1_555 1_555
H5 C10 1_555 1_555
C11 C2 1_555 1_555
C12 C1 1_555 1_555
H6 C12 1_555 1_555
C13 C3 1_555 1_555
H7 C13 1_555 1_555
C14 C7 1_555 1_555
C15 C7 1_555 1_555
H8 C15 1_555 1_555
C16 C13 1_555 1_555
H9 C16 1_555 1_555
C17 C14 1_555 1_555
H10 C17 1_555 1_555
C18 C15 1_555 1_555
H11 C18 1_555 1_555
C19 C2 1_555 1_555
H12 C19 1_555 1_555
C20 S1 1_555 1_555
C21 C17 1_555 1_555
H13 C21 1_555 1_555
C22 H14 1_555 1_555
C23 C19 1_555 1_555
H15 C23 1_555 1_555
C24 C11 1_555 1_555
H16 C24 1_555 1_555
O1B S1 1_555 1_555
N1B C1B 1_555 1_555
C1B C4B 1_555 1_555
C2B N1B 1_555 1_555
C3B C5B 1_555 1_555
C4B H1B 1_555 1_555
C5B C6B 1_555 1_555
C6B C4B 1_555 1_555
H2B C6B 1_555 1_555
C7B N1B 1_555 1_555
C8B C3B 1_555 1_555
H3B C8B 1_555 1_555
C9B C8B 1_555 1_555
H4B C9B 1_555 1_555
C10B C5B 1_555 1_555
H5B C10B 1_555 1_555
C11B C2B 1_555 1_555
C12B C1B 1_555 1_555
H6B C12B 1_555 1_555
C13B C3B 1_555 1_555
H7B C13B 1_555 1_555
C14B C7B 1_555 1_555
C15B C7B 1_555 1_555
H8B C15B 1_555 1_555
C16B C13B 1_555 1_555
H9B C16B 1_555 1_555
C17B C14B 1_555 1_555
H10B C17B 1_555 1_555
C18B C15B 1_555 1_555
H11B C18B 1_555 1_555
C19B C2B 1_555 1_555
H12B C19B 1_555 1_555
C20B S1 1_555 1_555
C21B C17B 1_555 1_555
H13B C21B 1_555 1_555
C22B H14B 1_555 1_555
C23B C19B 1_555 1_555
H15B C23B 1_555 1_555
C24B C11B 1_555 1_555
H16B C24B 1_555 1_555
C9 C20 1_555 1_555
C10 C12 1_555 1_555
C11 C14 1_555 1_555
C16 C20 1_555 1_555
C18 C21 1_555 1_555
C22 C23 1_555 1_555
C22 C24 1_555 1_555
C9B C20B 1_555 1_555
C10B C12B 1_555 1_555
C11B C14B 1_555 1_555
C16B C20B 1_555 1_555
C18B C21B 1_555 1_555
C22B C23B 1_555 1_555
C22B C24B 1_555 1_555

#END
