
#######################################################################
#
#                 Cambridge Crystallographic Data Centre
#                                CCDC 
#
#######################################################################
#
# If this CIF has been generated from an entry in the Cambridge 
# Structural Database, then it will include bibliographic, chemical, 
# crystal, experimental, refinement or atomic coordinate data resulting 
# from the CCDC's data processing and validation procedures.
#
#######################################################################

data_FAGGEC
_chemical_formula_moiety         'C42 H28 N2 O2 S2'
_chemical_name_systematic        
10-(4-((4'-(9H-carbazol-9-yl)biphenyl-4-yl)sulfonyl)phenyl)-10H-phenothiazine
_symmetry_cell_setting           monoclinic
_symmetry_space_group_name_H-M   'P 21/c'
_symmetry_Int_Tables_number      14
_space_group_name_Hall           '-P 2ybc'
loop_
_symmetry_equiv_pos_site_id
_symmetry_equiv_pos_as_xyz
1 x,y,z
2 -x,1/2+y,1/2-z
3 -x,-y,-z
4 x,1/2-y,1/2+z
_cell_length_a                   19.365(4)
_cell_length_b                   12.947(3)
_cell_length_c                   13.257(3)
_cell_angle_alpha                90
_cell_angle_beta                 106.41(3)
_cell_angle_gamma                90
_cell_volume                     3188.38
_exptl_crystal_colour            colorless
_exptl_crystal_description       platelet
_cell_formula_units_Z            4
loop_
_atom_site_label
_atom_site_type_symbol
_atom_site_fract_x
_atom_site_fract_y
_atom_site_fract_z
S1 S 0.27022(3) 0.59796(4) 0.36705(4)
S2 S 0.36685(3) 0.06685(5) 0.66280(4)
O1 O 0.23216(8) 0.58470(12) 0.25793(11)
O2 O 0.32427(8) 0.67792(11) 0.39722(12)
C1 C 0.31148(10) 0.48015(15) 0.41626(14)
N1 N 0.42700(9) 0.21036(13) 0.53349(12)
N2 N -0.09161(9) 0.69494(14) 0.79593(13)
C2 C 0.20681(11) 0.62141(15) 0.43776(15)
C3 C 0.22524(11) 0.68501(16) 0.52622(16)
H1 H 0.2704 0.7160 0.5472
C4 C 0.33141(11) 0.29814(15) 0.39945(15)
H2 H 0.3198 0.2369 0.3617
C5 C 0.37599(11) 0.03903(16) 0.53641(15)
C6 C 0.46880(11) 0.20582(16) 0.64188(15)
C7 C -0.04166(11) 0.68993(16) 0.73451(16)
C8 C 0.44536(11) 0.14283(17) 0.71127(16)
C9 C 0.10839(11) 0.65508(16) 0.55293(15)
C10 C 0.40061(11) 0.39180(16) 0.55263(15)
H3 H 0.4349 0.3931 0.6178
C11 C 0.36388(11) 0.48104(16) 0.51288(15)
H4 H 0.3742 0.5422 0.5510
C12 C 0.38655(10) 0.29895(15) 0.49534(14)
C13 C -0.06648(12) 0.68655(18) 0.62565(16)
H5 H -0.1155 0.6905 0.5920
C14 C 0.09075(12) 0.59176(17) 0.46331(16)
H6 H 0.0457 0.5607 0.4420
C15 C 0.17610(12) 0.70195(17) 0.58278(16)
H7 H 0.1883 0.7450 0.6413
C16 C 0.41946(12) 0.08731(16) 0.38894(16)
H8 H 0.4426 0.1343 0.3565
C17 C 0.40678(11) 0.11193(15) 0.48478(15)
C18 C 0.08004(12) 0.67771(19) 0.72484(17)
H9 H 0.1292 0.6762 0.7586
C19 C -0.07163(12) 0.51912(18) 0.88066(16)
H10 H -0.0359 0.4989 0.8504
C20 C 0.29438(11) 0.38842(15) 0.36103(15)
H11 H 0.2579 0.3872 0.2979
C21 C 0.53195(12) 0.26249(17) 0.67761(17)
H12 H 0.5494 0.3002 0.6303
C22 C -0.22946(12) 0.82207(19) 0.88309(16)
H13 H -0.2575 0.8064 0.9275
C23 C 0.05603(11) 0.67057(16) 0.61518(15)
C24 C -0.17985(11) 0.75061(17) 0.86655(15)
C25 C -0.13773(11) 0.77709(17) 0.79825(15)
C26 C 0.56914(12) 0.26295(18) 0.78421(17)
H14 H 0.6105 0.3027 0.8087
C27 C 0.35352(12) -0.05570(17) 0.48760(18)
H15 H 0.3319 -0.1041 0.5208
C28 C -0.15833(11) 0.64770(17) 0.90593(15)
C29 C -0.01751(12) 0.67716(18) 0.56721(16)
H16 H -0.0344 0.6752 0.4942
C30 C -0.14869(13) 0.48395(19) 0.99310(17)
H17 H -0.1631 0.4386 1.0377
C31 C -0.10377(11) 0.61604(17) 0.86097(15)
C32 C 0.54389(13) 0.20349(19) 0.85365(18)
H18 H 0.5677 0.2054 0.9252
C33 C 0.03151(12) 0.68698(19) 0.78380(16)
H19 H 0.0482 0.6912 0.8567
C34 C 0.13968(12) 0.57496(17) 0.40614(16)
H20 H 0.1275 0.5328 0.3470
C35 C -0.23640(13) 0.91653(19) 0.83256(18)
H21 H -0.2691 0.9647 0.8437
C36 C -0.18035(12) 0.58008(19) 0.97291(16)
H22 H -0.2160 0.5996 1.0036
C37 C -0.09503(13) 0.45410(19) 0.94698(17)
H23 H -0.0746 0.3888 0.9613
C38 C 0.36300(13) -0.07811(17) 0.39075(18)
H24 H 0.3464 -0.1403 0.3577
C39 C 0.48380(13) 0.14146(19) 0.81748(17)
H25 H 0.4690 0.0989 0.8640
C40 C 0.39746(13) -0.00742(17) 0.34260(17)
H26 H 0.4058 -0.0239 0.2788
C41 C -0.14436(12) 0.87165(18) 0.74759(17)
H27 H -0.1161 0.8883 0.7037
C42 C -0.19473(14) 0.94056(19) 0.76477(18)
H28 H -0.2010 1.0041 0.7306
loop_
_geom_bond_atom_site_label_1
_geom_bond_atom_site_label_2
_geom_bond_site_symmetry_1
_geom_bond_site_symmetry_2
S1 O1 1_555 1_555
S2 C5 1_555 1_555
O2 S1 1_555 1_555
C1 S1 1_555 1_555
N1 C6 1_555 1_555
N2 C7 1_555 1_555
C2 S1 1_555 1_555
C3 C2 1_555 1_555
H1 C3 1_555 1_555
C4 H2 1_555 1_555
C5 C17 1_555 1_555
C6 C8 1_555 1_555
C7 C13 1_555 1_555
C8 S2 1_555 1_555
C9 C14 1_555 1_555
C10 H3 1_555 1_555
C11 C1 1_555 1_555
H4 C11 1_555 1_555
C12 N1 1_555 1_555
C13 H5 1_555 1_555
C14 H6 1_555 1_555
C15 C3 1_555 1_555
H7 C15 1_555 1_555
C16 H8 1_555 1_555
C17 N1 1_555 1_555
C18 H9 1_555 1_555
C19 H10 1_555 1_555
C20 C1 1_555 1_555
H11 C20 1_555 1_555
C21 C6 1_555 1_555
H12 C21 1_555 1_555
C22 H13 1_555 1_555
C23 C9 1_555 1_555
C24 C22 1_555 1_555
C25 N2 1_555 1_555
C26 C21 1_555 1_555
H14 C26 1_555 1_555
C27 C5 1_555 1_555
H15 C27 1_555 1_555
C28 C24 1_555 1_555
C29 C13 1_555 1_555
H16 C29 1_555 1_555
C30 H17 1_555 1_555
C31 N2 1_555 1_555
C32 C26 1_555 1_555
H18 C32 1_555 1_555
C33 C7 1_555 1_555
H19 C33 1_555 1_555
C34 C2 1_555 1_555
H20 C34 1_555 1_555
C35 C22 1_555 1_555
H21 C35 1_555 1_555
C36 C28 1_555 1_555
H22 C36 1_555 1_555
C37 C19 1_555 1_555
H23 C37 1_555 1_555
C38 C27 1_555 1_555
H24 C38 1_555 1_555
C39 C8 1_555 1_555
H25 C39 1_555 1_555
C40 C16 1_555 1_555
H26 C40 1_555 1_555
C41 C25 1_555 1_555
H27 C41 1_555 1_555
C42 C35 1_555 1_555
H28 C42 1_555 1_555
C4 C12 1_555 1_555
C4 C20 1_555 1_555
C9 C15 1_555 1_555
C10 C11 1_555 1_555
C10 C12 1_555 1_555
C14 C34 1_555 1_555
C16 C17 1_555 1_555
C18 C23 1_555 1_555
C18 C33 1_555 1_555
C19 C31 1_555 1_555
C23 C29 1_555 1_555
C24 C25 1_555 1_555
C28 C31 1_555 1_555
C30 C36 1_555 1_555
C30 C37 1_555 1_555
C32 C39 1_555 1_555
C38 C40 1_555 1_555
C41 C42 1_555 1_555

#END
