
#######################################################################
#
#                 Cambridge Crystallographic Data Centre
#                                CCDC 
#
#######################################################################
#
# If this CIF has been generated from an entry in the Cambridge 
# Structural Database, then it will include bibliographic, chemical, 
# crystal, experimental, refinement or atomic coordinate data resulting 
# from the CCDC's data processing and validation procedures.
#
#######################################################################

data_FAGHIF
_chemical_formula_moiety         'C10 H12 O1 Se2'
_chemical_name_systematic        cis-2-Phenyl-1,3-diselenan-5-ol
_symmetry_cell_setting           monoclinic
_symmetry_space_group_name_H-M   'P 21/c'
_symmetry_Int_Tables_number      14
_space_group_name_Hall           '-P 2ybc'
loop_
_symmetry_equiv_pos_site_id
_symmetry_equiv_pos_as_xyz
1 x,y,z
2 x,1/2-y,1/2+z
3 -x,-y,-z
4 -x,1/2+y,1/2-z
_cell_length_a                   12.460(2)
_cell_length_b                   5.657(3)
_cell_length_c                   15.233(2)
_cell_angle_alpha                90
_cell_angle_beta                 96.659(13)
_cell_angle_gamma                90
_cell_volume                     1066.47
_exptl_crystal_colour            colorless
_exptl_crystal_description       block
_cell_formula_units_Z            4
_exptl_crystal_recrystallization_method hexane/dichloromethane
loop_
_atom_site_label
_atom_site_type_symbol
_atom_site_fract_x
_atom_site_fract_y
_atom_site_fract_z
Se1 Se 0.19683(3) 0.11505(8) 0.07830(2)
Se2 Se 0.39275(3) 0.30012(8) 0.22171(2)
O1 O 0.3603(2) 0.5276(5) 0.0254(2)
C1 C 0.2789(3) 0.0630(7) 0.1944(2)
C2 C 0.3162(4) 0.1118(8) 0.0054(3)
C3 C 0.4018(3) 0.2953(7) 0.0307(2)
C4 C 0.4692(3) 0.2495(9) 0.1185(3)
C5 C 0.2023(3) 0.0776(6) 0.2634(2)
C6 C 0.1953(3) -0.1039(8) 0.3238(3)
C7 C 0.1223(4) -0.0919(9) 0.3853(3)
C8 C 0.0562(3) 0.0991(9) 0.3880(2)
C9 C 0.0623(3) 0.2818(9) 0.3298(3)
C10 C 0.1360(3) 0.2732(7) 0.2680(2)
H1 H 0.310(4) 0.530(9) 0.048(3)
H2 H 0.307(3) -0.100(7) 0.193(2)
H3 H 0.346(3) -0.024(8) 0.008(2)
H4 H 0.283(3) 0.141(7) -0.049(3)
H5 H 0.451(3) 0.286(7) -0.014(2)
H6 H 0.499(3) 0.093(8) 0.116(3)
H7 H 0.524(3) 0.358(8) 0.130(3)
H8 H 0.231(3) -0.224(6) 0.317(2)
H9 H 0.117(4) -0.207(8) 0.424(3)
H10 H 0.002(4) 0.119(8) 0.429(3)
H11 H 0.025(3) 0.405(7) 0.325(2)
H12 H 0.145(3) 0.402(7) 0.227(2)
loop_
_geom_bond_atom_site_label_1
_geom_bond_atom_site_label_2
_geom_bond_site_symmetry_1
_geom_bond_site_symmetry_2
Se1 C1 1_555 1_555
Se2 C1 1_555 1_555
O1 C3 1_555 1_555
C1 C5 1_555 1_555
C2 Se1 1_555 1_555
C3 C2 1_555 1_555
C4 Se2 1_555 1_555
C5 C6 1_555 1_555
C6 C7 1_555 1_555
C7 C8 1_555 1_555
C8 C9 1_555 1_555
C9 C10 1_555 1_555
C10 C5 1_555 1_555
H1 O1 1_555 1_555
H2 C1 1_555 1_555
H3 C2 1_555 1_555
H4 C2 1_555 1_555
H5 C3 1_555 1_555
H6 C4 1_555 1_555
H7 C4 1_555 1_555
H8 C6 1_555 1_555
H9 C7 1_555 1_555
H10 C8 1_555 1_555
H11 C9 1_555 1_555
H12 C10 1_555 1_555
C3 C4 1_555 1_555

#END
