
#######################################################################
#
#                 Cambridge Crystallographic Data Centre
#                                CCDC 
#
#######################################################################
#
# If this CIF has been generated from an entry in the Cambridge 
# Structural Database, then it will include bibliographic, chemical, 
# crystal, experimental, refinement or atomic coordinate data resulting 
# from the CCDC's data processing and validation procedures.
#
#######################################################################

data_FAGKAC
_chemical_formula_moiety         'C42 H34 N2 O2 S3'
_chemical_name_systematic        
10,10'-(5,5-dioxidodibenzo[b,d]thiene-2,8-diyl)bis(1-isopropyl-10H-phenothiazine)
_symmetry_cell_setting           monoclinic
_symmetry_space_group_name_H-M   'I 2/a'
_symmetry_Int_Tables_number      15
_space_group_name_Hall           '-I 2ya'
loop_
_symmetry_equiv_pos_site_id
_symmetry_equiv_pos_as_xyz
1 x,y,z
2 1/2-x,y,-z
3 1/2+x,1/2+y,1/2+z
4 -x,1/2+y,1/2-z
5 -x,-y,-z
6 1/2+x,-y,z
7 1/2-x,1/2-y,1/2-z
8 x,1/2-y,1/2+z
_cell_length_a                   12.7719(10)
_cell_length_b                   13.6832(10)
_cell_length_c                   19.915(2)
_cell_angle_alpha                90
_cell_angle_beta                 98.962(3)
_cell_angle_gamma                90
_cell_volume                     3437.87
_exptl_crystal_colour            colorless
_exptl_crystal_description       block
_cell_formula_units_Z            4
_exptl_crystal_recrystallization_method dichloromethane/hexane
loop_
_atom_site_label
_atom_site_type_symbol
_atom_site_fract_x
_atom_site_fract_y
_atom_site_fract_z
S1 S 0.2500 0.20113(3) 0.5000
S2 S -0.04561(3) 0.59719(3) 0.28388(2)
O1 O 0.15371(14) 0.14554(9) 0.49716(6)
N1 N 0.17698(8) 0.53492(7) 0.30942(5)
C1 C 0.23493(11) 0.28961(8) 0.43488(6)
C2 C 0.23878(9) 0.38313(8) 0.46266(5)
C3 C 0.21912(9) 0.46412(8) 0.42136(6)
H1 H 0.2213 0.5277 0.4407
C4 C 0.19589(9) 0.45230(8) 0.35056(6)
C5 C 0.19305(10) 0.35713(9) 0.32309(6)
H2 H 0.1778 0.3485 0.2752
C6 C 0.21215(11) 0.27594(9) 0.36496(6)
H3 H 0.2097 0.2120 0.3461
C7 C 0.13179(10) 0.52785(8) 0.23948(6)
C8 C 0.02635(10) 0.55526(9) 0.22053(6)
C9 C -0.01854(11) 0.55345(10) 0.15195(7)
H4 H -0.0904 0.5723 0.1386
C10 C 0.04173(13) 0.52425(10) 0.10364(7)
H5 H 0.0108 0.5222 0.0571
C11 C 0.14716(13) 0.49790(10) 0.12251(6)
H6 H 0.1880 0.4777 0.0890
C12 C 0.19278(11) 0.50115(9) 0.19049(6)
H7 H 0.2655 0.4852 0.2034
C13 C 0.16093(9) 0.62775(8) 0.33981(6)
C14 C 0.05749(10) 0.66328(9) 0.33363(6)
C15 C 0.03691(12) 0.75113(11) 0.36449(7)
H8 H -0.0333 0.7759 0.3604
C16 C 0.12101(13) 0.80172(10) 0.40125(8)
H9 H 0.1077 0.8601 0.4244
C17 C 0.22418(12) 0.76831(9) 0.40474(7)
H10 H 0.2806 0.8053 0.4291
C18 C 0.24682(10) 0.68137(8) 0.37323(6)
C19 C 0.35917(10) 0.64743(10) 0.37159(7)
H11 H 0.3581 0.5745 0.3687
C20 C 0.43778(13) 0.67595(14) 0.43458(9)
H12 H 0.4459 0.7472 0.4362
H13 H 0.5066 0.6455 0.4324
H14 H 0.4112 0.6534 0.4755
C21 C 0.39493(13) 0.68679(13) 0.30649(9)
H15 H 0.3466 0.6632 0.2667
H16 H 0.4670 0.6639 0.3041
H17 H 0.3940 0.7584 0.3071
S2A S 0.54561(3) 0.59719(3) 0.71612(2)
O1A O 0.34629(14) 0.14554(9) 0.50284(6)
N1A N 0.32302(8) 0.53492(7) 0.69058(5)
C1A C 0.26507(11) 0.28961(8) 0.56512(6)
C2A C 0.26122(9) 0.38313(8) 0.53734(5)
C3A C 0.28088(9) 0.46412(8) 0.57864(6)
H1A H 0.2787 0.5277 0.5593
C4A C 0.30411(9) 0.45230(8) 0.64944(6)
C5A C 0.30695(10) 0.35713(9) 0.67691(6)
H2A H 0.3222 0.3485 0.7248
C6A C 0.28785(11) 0.27594(9) 0.63504(6)
H3A H 0.2903 0.2120 0.6539
C7A C 0.36821(10) 0.52785(8) 0.76052(6)
C8A C 0.47365(10) 0.55526(9) 0.77947(6)
C9A C 0.51854(11) 0.55345(10) 0.84805(7)
H4A H 0.5904 0.5723 0.8614
C10A C 0.45827(13) 0.52425(10) 0.89636(7)
H5A H 0.4892 0.5222 0.9429
C11A C 0.35284(13) 0.49790(10) 0.87749(6)
H6A H 0.3120 0.4777 0.9110
C12A C 0.30722(11) 0.50115(9) 0.80951(6)
H7A H 0.2345 0.4852 0.7966
C13A C 0.33907(9) 0.62775(8) 0.66019(6)
C14A C 0.44251(10) 0.66328(9) 0.66637(6)
C15A C 0.46309(12) 0.75113(11) 0.63551(7)
H8A H 0.5333 0.7759 0.6396
C16A C 0.37899(13) 0.80172(10) 0.59875(8)
H9A H 0.3923 0.8601 0.5756
C17A C 0.27582(12) 0.76831(9) 0.59526(7)
H10A H 0.2194 0.8053 0.5709
C18A C 0.25318(10) 0.68137(8) 0.62677(6)
C19A C 0.14083(10) 0.64743(10) 0.62841(7)
H11A H 0.1419 0.5745 0.6313
C20A C 0.06222(13) 0.67595(14) 0.56542(9)
H12A H 0.0541 0.7472 0.5638
H13A H -0.0066 0.6455 0.5676
H14A H 0.0888 0.6534 0.5245
C21A C 0.10507(13) 0.68679(13) 0.69351(9)
H15A H 0.1534 0.6632 0.7333
H16A H 0.0330 0.6639 0.6959
H17A H 0.1060 0.7584 0.6929
loop_
_geom_bond_atom_site_label_1
_geom_bond_atom_site_label_2
_geom_bond_site_symmetry_1
_geom_bond_site_symmetry_2
S1 O1 1_555 1_555
S2 C8 1_555 1_555
N1 C4 1_555 1_555
C1 S1 1_555 1_555
C2 C1 1_555 1_555
C3 C2 1_555 1_555
H1 C3 1_555 1_555
C4 C3 1_555 1_555
C5 C4 1_555 1_555
H2 C5 1_555 1_555
C6 C1 1_555 1_555
H3 C6 1_555 1_555
C7 N1 1_555 1_555
C8 C7 1_555 1_555
C9 C8 1_555 1_555
H4 C9 1_555 1_555
C10 C9 1_555 1_555
H5 C10 1_555 1_555
C11 C10 1_555 1_555
H6 C11 1_555 1_555
C12 C7 1_555 1_555
H7 C12 1_555 1_555
C13 N1 1_555 1_555
C14 S2 1_555 1_555
C15 C14 1_555 1_555
H8 C15 1_555 1_555
C16 C15 1_555 1_555
H9 C16 1_555 1_555
C17 C16 1_555 1_555
H10 C17 1_555 1_555
C18 C13 1_555 1_555
C19 C18 1_555 1_555
H11 C19 1_555 1_555
C20 C19 1_555 1_555
H12 C20 1_555 1_555
H13 C20 1_555 1_555
H14 C20 1_555 1_555
C21 C19 1_555 1_555
H15 C21 1_555 1_555
H16 C21 1_555 1_555
H17 C21 1_555 1_555
S2A C8A 1_555 1_555
O1A S1 1_555 1_555
N1A C4A 1_555 1_555
C1A S1 1_555 1_555
C2A C2 1_555 1_555
C3A C2A 1_555 1_555
H1A C3A 1_555 1_555
C4A C3A 1_555 1_555
C5A C4A 1_555 1_555
H2A C5A 1_555 1_555
C6A C1A 1_555 1_555
H3A C6A 1_555 1_555
C7A N1A 1_555 1_555
C8A C7A 1_555 1_555
C9A C8A 1_555 1_555
H4A C9A 1_555 1_555
C10A C9A 1_555 1_555
H5A C10A 1_555 1_555
C11A C10A 1_555 1_555
H6A C11A 1_555 1_555
C12A C7A 1_555 1_555
H7A C12A 1_555 1_555
C13A N1A 1_555 1_555
C14A S2A 1_555 1_555
C15A C14A 1_555 1_555
H8A C15A 1_555 1_555
C16A C15A 1_555 1_555
H9A C16A 1_555 1_555
C17A C16A 1_555 1_555
H10A C17A 1_555 1_555
C18A C13A 1_555 1_555
C19A C18A 1_555 1_555
H11A C19A 1_555 1_555
C20A C19A 1_555 1_555
H12A C20A 1_555 1_555
H13A C20A 1_555 1_555
H14A C20A 1_555 1_555
C21A C19A 1_555 1_555
H15A C21A 1_555 1_555
H16A C21A 1_555 1_555
H17A C21A 1_555 1_555
C5 C6 1_555 1_555
C11 C12 1_555 1_555
C13 C14 1_555 1_555
C17 C18 1_555 1_555
C1A C2A 1_555 1_555
C5A C6A 1_555 1_555
C11A C12A 1_555 1_555
C13A C14A 1_555 1_555
C17A C18A 1_555 1_555

#END
