
#######################################################################
#
#                 Cambridge Crystallographic Data Centre
#                                CCDC 
#
#######################################################################
#
# If this CIF has been generated from an entry in the Cambridge 
# Structural Database, then it will include bibliographic, chemical, 
# crystal, experimental, refinement or atomic coordinate data resulting 
# from the CCDC's data processing and validation procedures.
#
#######################################################################

data_FAGKOQ
_chemical_formula_moiety         'C38 H26 N2 O2 S3,C4 H8 O1'
_chemical_name_systematic        
"10,10'-(5,5-dioxidodibenzo[b,d]thiene-2,8-diyl)bis(1-methyl-10H-phenothiazine) tetrahydrofuran solvate"
_symmetry_cell_setting           monoclinic
_symmetry_space_group_name_H-M   'P 21/c'
_symmetry_Int_Tables_number      14
_space_group_name_Hall           '-P 2ybc'
loop_
_symmetry_equiv_pos_site_id
_symmetry_equiv_pos_as_xyz
1 x,y,z
2 -x,1/2+y,1/2-z
3 -x,-y,-z
4 x,1/2-y,1/2+z
_cell_length_a                   11.6805(3)
_cell_length_b                   15.8659(4)
_cell_length_c                   19.4344(5)
_cell_angle_alpha                90
_cell_angle_beta                 98.3230(14)
_cell_angle_gamma                90
_cell_volume                     3563.68
_exptl_crystal_colour            colorless
_exptl_crystal_description       'irregular plate'
_cell_formula_units_Z            4
_exptl_crystal_recrystallization_method tetrahydrofuran/cyclohexane
loop_
_atom_site_label
_atom_site_type_symbol
_atom_site_fract_x
_atom_site_fract_y
_atom_site_fract_z
S1 S 0.71302(10) 0.24307(8) 0.08628(7)
S2 S 0.93478(13) 0.58001(10) 0.34029(9)
O1 O 0.7875(3) 0.2660(3) 0.0368(2)
O2 O 0.6911(3) 0.1546(2) 0.0933(2)
N1 N 0.8147(3) 0.4198(3) 0.3571(2)
N2 N 0.2905(3) 0.4522(3) 0.0678(2)
C1 C 0.7566(4) 0.2894(3) 0.1680(3)
C2 C 0.8590(4) 0.2772(3) 0.2119(3)
H1 H 0.9166 0.2402 0.1993
C3 C 0.8765(4) 0.3195(4) 0.2747(3)
H2 H 0.9456 0.3098 0.3059
C4 C 0.7940(4) 0.3768(3) 0.2934(3)
C5 C 0.6910(4) 0.3886(3) 0.2477(3)
H3 H 0.6337 0.4264 0.2595
C6 C 0.6726(4) 0.3450(3) 0.1852(3)
C7 C 0.5721(4) 0.3512(3) 0.1295(3)
C8 C 0.4748(4) 0.4013(3) 0.1290(3)
H4 H 0.4663 0.4355 0.1680
C9 C 0.3890(4) 0.4013(3) 0.0705(3)
C10 C 0.4027(4) 0.3479(3) 0.0146(3)
H5 H 0.3437 0.3457 -0.0246
C11 C 0.5001(4) 0.2987(3) 0.0155(3)
H6 H 0.5093 0.2638 -0.0230
C12 C 0.5832(4) 0.3009(3) 0.0728(3)
C13 C 0.7440(4) 0.4916(3) 0.3673(3)
C14 C 0.6366(5) 0.4819(4) 0.3885(3)
C15 C 0.5705(5) 0.5556(4) 0.3936(3)
H7 H 0.4946 0.5511 0.4053
C16 C 0.6148(5) 0.6339(4) 0.3819(3)
H8 H 0.5681 0.6826 0.3843
C17 C 0.7247(5) 0.6426(4) 0.3667(3)
H9 H 0.7556 0.6976 0.3633
C18 C 0.7914(5) 0.5744(3) 0.3563(3)
C19 C 0.9938(5) 0.4949(4) 0.3898(3)
C20 C 0.9278(4) 0.4242(4) 0.3944(3)
C21 C 0.9705(5) 0.3547(4) 0.4380(3)
H10 H 0.9235 0.3068 0.4426
C22 C 1.0800(5) 0.3593(4) 0.4726(4)
H11 H 1.1102 0.3140 0.5016
C23 C 1.1471(5) 0.4288(4) 0.4660(3)
H12 H 1.2250 0.4284 0.4885
C24 C 1.1072(5) 0.4992(4) 0.4284(3)
H13 H 1.1533 0.5485 0.4282
C25 C 0.5926(6) 0.3981(5) 0.4089(4)
H14 H 0.5654 0.3650 0.3669
H15 H 0.5283 0.4060 0.4357
H16 H 0.6555 0.3675 0.4374
S3 S 0.0894(5) 0.3622(5) 0.1141(3)
C26 C 0.2602(9) 0.4807(6) 0.1342(5)
C27 C 0.3129(16) 0.5527(9) 0.1653(7)
C28 C 0.2823(9) 0.5806(7) 0.2302(6)
H17 H 0.3191 0.6282 0.2534
C29 C 0.1990(8) 0.5374(7) 0.2580(6)
H18 H 0.1829 0.5529 0.3028
C30 C 0.1376(10) 0.4724(9) 0.2237(7)
H19 H 0.0732 0.4490 0.2418
C31 C 0.1701(8) 0.4405(6) 0.1619(5)
C32 C 0.0993(8) 0.3984(7) 0.0298(4)
C33 C 0.1951(7) 0.4429(7) 0.0128(5)
C34 C 0.1986(13) 0.4740(12) -0.0529(6)
H20 H 0.2630 0.5058 -0.0630
C35 C 0.1064(10) 0.4578(9) -0.1035(7)
H21 H 0.1073 0.4785 -0.1493
C36 C 0.0133(10) 0.4124(9) -0.0893(6)
H22 H -0.0473 0.4003 -0.1261
C37 C 0.0043(10) 0.3836(10) -0.0238(5)
H23 H -0.0630 0.3548 -0.0144
C38 C 0.3985(10) 0.6104(7) 0.1288(6)
H24 H 0.4768 0.5868 0.1376
H25 H 0.3990 0.6675 0.1480
H26 H 0.3723 0.6122 0.0786
S4? S 0.1169(9) 0.3660(8) 0.1343(5)
C39? C 0.2678(13) 0.4997(9) 0.1268(7)
C40? C 0.326(3) 0.5705(14) 0.1516(11)
H27? H 0.3767 0.5982 0.1252
C41? C 0.3082(15) 0.6018(12) 0.2169(10)
H28? H 0.3499 0.6498 0.2360
C42? C 0.2301(16) 0.5624(11) 0.2532(10)
H29? H 0.2165 0.5863 0.2961
C43? C 0.1711(17) 0.4904(14) 0.2305(10)
H30? H 0.1209 0.4628 0.2576
C44? C 0.1890(13) 0.4595(9) 0.1644(8)
C45? C 0.0951(11) 0.3867(10) 0.0460(7)
C46? C 0.1853(10) 0.4274(10) 0.0219(7)
C47? C 0.175(2) 0.454(2) -0.0467(9)
C48? C 0.0764(17) 0.4326(13) -0.0938(10)
H31? H 0.0707 0.4477 -0.1415
C49? C -0.0102(16) 0.3898(13) -0.0701(11)
H32? H -0.0761 0.3736 -0.1019
C50? C -0.0048(16) 0.3694(17) -0.0010(9)
H33? H -0.0692 0.3433 0.0150
C51? C 0.2726(14) 0.5078(11) -0.0737(9)
H34? H 0.2930 0.5552 -0.0420
H35? H 0.2448 0.5294 -0.1205
H36? H 0.3410 0.4725 -0.0753
loop_
_geom_bond_atom_site_label_1
_geom_bond_atom_site_label_2
_geom_bond_site_symmetry_1
_geom_bond_site_symmetry_2
S1 O1 1_555 1_555
S2 C18 1_555 1_555
O2 S1 1_555 1_555
N1 C4 1_555 1_555
N2 C9 1_555 1_555
C1 S1 1_555 1_555
C2 C1 1_555 1_555
H1 C2 1_555 1_555
C3 C2 1_555 1_555
H2 C3 1_555 1_555
C4 C3 1_555 1_555
C5 C4 1_555 1_555
H3 C5 1_555 1_555
C6 C1 1_555 1_555
C7 C6 1_555 1_555
C8 C7 1_555 1_555
H4 C8 1_555 1_555
C9 C8 1_555 1_555
C10 C9 1_555 1_555
H5 C10 1_555 1_555
C11 C10 1_555 1_555
H6 C11 1_555 1_555
C12 S1 1_555 1_555
C13 N1 1_555 1_555
C14 C13 1_555 1_555
C15 C14 1_555 1_555
H7 C15 1_555 1_555
C16 C15 1_555 1_555
H8 C16 1_555 1_555
C17 C16 1_555 1_555
H9 C17 1_555 1_555
C18 C13 1_555 1_555
C19 S2 1_555 1_555
C20 N1 1_555 1_555
C21 C20 1_555 1_555
H10 C21 1_555 1_555
C22 C21 1_555 1_555
H11 C22 1_555 1_555
C23 C22 1_555 1_555
H12 C23 1_555 1_555
C24 C19 1_555 1_555
H13 C24 1_555 1_555
C25 C14 1_555 1_555
H14 C25 1_555 1_555
H15 C25 1_555 1_555
H16 C25 1_555 1_555
S3 C31 1_555 1_555
C26 N2 1_555 1_555
C27 C26 1_555 1_555
C28 C27 1_555 1_555
H17 C28 1_555 1_555
C29 C28 1_555 1_555
H18 C29 1_555 1_555
C30 C29 1_555 1_555
H19 C30 1_555 1_555
C31 C26 1_555 1_555
C32 S3 1_555 1_555
C33 N2 1_555 1_555
C34 C33 1_555 1_555
H20 C34 1_555 1_555
C35 C34 1_555 1_555
H21 C35 1_555 1_555
C36 C35 1_555 1_555
H22 C36 1_555 1_555
C37 C32 1_555 1_555
H23 C37 1_555 1_555
C38 C27 1_555 1_555
H24 C38 1_555 1_555
H25 C38 1_555 1_555
H26 C38 1_555 1_555
C5 C6 1_555 1_555
C7 C12 1_555 1_555
C11 C12 1_555 1_555
C17 C18 1_555 1_555
C19 C20 1_555 1_555
C23 C24 1_555 1_555
C30 C31 1_555 1_555
C32 C33 1_555 1_555
C36 C37 1_555 1_555

#END
