
#######################################################################
#
#                 Cambridge Crystallographic Data Centre
#                                CCDC 
#
#######################################################################
#
# If this CIF has been generated from an entry in the Cambridge 
# Structural Database, then it will include bibliographic, chemical, 
# crystal, experimental, refinement or atomic coordinate data resulting 
# from the CCDC's data processing and validation procedures.
#
#######################################################################

data_FAGLUU
_chemical_name_common            
9,9',10,10'-Tetrafluoro-9,9',10,10'-tetrahydro-(9,10':9',10-bianthracene)
_chemical_formula_moiety         'C28 H16 F4'
_chemical_name_systematic        
3,4:7,8:9,10:11,12-Tetrabenzo-1,2,5,6-tetrafluoro-tricyclo(4.2.2.2^2,5^)dodecane
_symmetry_cell_setting           monoclinic
_symmetry_space_group_name_H-M   'P 21/c'
_symmetry_Int_Tables_number      14
_space_group_name_Hall           '-P 2ybc'
loop_
_symmetry_equiv_pos_site_id
_symmetry_equiv_pos_as_xyz
1 x,y,z
2 -x,1/2+y,1/2-z
3 -x,-y,-z
4 x,1/2-y,1/2+z
_cell_length_a                   14.796(5)
_cell_length_b                   9.812(4)
_cell_length_c                   13.197(5)
_cell_angle_alpha                90
_cell_angle_beta                 93.07(3)
_cell_angle_gamma                90
_cell_volume                     1913.17
_cell_formula_units_Z            4
loop_
_atom_site_label
_atom_site_type_symbol
_atom_site_fract_x
_atom_site_fract_y
_atom_site_fract_z
C1 C 0.80597(27) 0.27417(37) 0.24504(32)
C2 C 0.83325(27) 0.38928(36) 0.19410(31)
C3 C 0.85797(26) 0.38183(36) 0.09590(31)
C4 C 0.85672(29) 0.25669(36) 0.04587(32)
C5 C 0.93234(25) -0.19860(36) 0.09416(29)
C6 C 0.96733(28) -0.28870(36) 0.16779(34)
C7 C 0.94223(28) -0.28060(37) 0.26594(35)
C8 C 0.88138(26) -0.18305(37) 0.29363(28)
C9 C 0.77789(23) 0.01773(34) 0.24454(23)
C10 C 0.82834(23) 0.00110(33) 0.04676(24)
C11 C 0.87075(22) -0.10101(32) 0.12236(25)
C12 C 0.84537(23) -0.09085(33) 0.22155(25)
C13 C 0.80587(23) 0.14917(34) 0.19512(26)
C14 C 0.83191(23) 0.14029(32) 0.09580(26)
C15 C 0.69561(26) -0.29987(37) 0.01147(30)
C16 C 0.66827(26) -0.41421(35) 0.06190(32)
C17 C 0.64249(26) -0.40503(35) 0.15940(31)
C18 C 0.64427(27) -0.28027(35) 0.21008(32)
C19 C 0.57145(25) 0.17494(36) 0.15873(28)
C20 C 0.53399(28) 0.26152(35) 0.08447(35)
C21 C 0.55834(30) 0.25003(36) -0.01419(35)
C22 C 0.62020(25) 0.15328(36) -0.04149(27)
C23 C 0.72528(23) -0.04342(33) 0.01073(23)
C24 C 0.67472(22) -0.02458(33) 0.20784(23)
C25 C 0.63282(22) 0.07636(33) 0.13208(25)
C26 C 0.65769(22) 0.06480(32) 0.03323(24)
C27 C 0.69746(23) -0.17395(34) 0.06025(27)
C28 C 0.67143(24) -0.16487(23) 0.15929(26)
F1 F 0.77761(13) 0.03634(20) 0.34944(13)
F2 F 0.87786(13) 0.00386(19) -0.03927(13)
F3 F 0.72643(13) -0.06314(19) -0.09401(14)
F4 F 0.62541(13) -0.02542(19) 0.29471(14)
H1 H 0.7866 0.2807 0.3168
H2 H 0.8348 0.4797 0.2298
H3 H 0.8770 0.4661 0.0599
H4 H 0.8740 0.2512 -0.0266
H5 H 0.9515 -0.2040 0.0222
H6 H 1.0113 -0.3608 0.1486
H7 H 0.9684 -0.3459 0.3183
H8 H 0.8629 -0.1782 0.3657
H9 H 0.7143 -0.3074 -0.0604
H10 H 0.6674 -0.5050 0.0269
H11 H 0.6218 -0.4888 0.1951
H12 H 0.6261 -0.2740 0.2823
H13 H 0.5541 0.1835 0.2311
H14 H 0.4893 0.3328 0.1033
H15 H 0.5307 0.3129 -0.0672
H16 H 0.6381 0.1460 -0.1136
loop_
_geom_bond_atom_site_label_1
_geom_bond_atom_site_label_2
_geom_bond_site_symmetry_1
_geom_bond_site_symmetry_2
C1 C2 1_555 1_555
C2 C3 1_555 1_555
C3 C4 1_555 1_555
C4 C14 1_555 1_555
C5 C6 1_555 1_555
C6 C7 1_555 1_555
C7 C8 1_555 1_555
C8 C12 1_555 1_555
C9 C12 1_555 1_555
C10 C11 1_555 1_555
C11 C5 1_555 1_555
C12 C11 1_555 1_555
C13 C1 1_555 1_555
C14 C10 1_555 1_555
C15 C16 1_555 1_555
C16 C17 1_555 1_555
C17 C18 1_555 1_555
C18 C28 1_555 1_555
C19 C20 1_555 1_555
C20 C21 1_555 1_555
C21 C22 1_555 1_555
C22 C26 1_555 1_555
C23 C10 1_555 1_555
C24 C9 1_555 1_555
C25 C19 1_555 1_555
C26 C23 1_555 1_555
C27 C15 1_555 1_555
C28 C24 1_555 1_555
F1 C9 1_555 1_555
F2 C10 1_555 1_555
F3 C23 1_555 1_555
F4 C24 1_555 1_555
H1 C1 1_555 1_555
H2 C2 1_555 1_555
H3 C3 1_555 1_555
H4 C4 1_555 1_555
H5 C5 1_555 1_555
H6 C6 1_555 1_555
H7 C7 1_555 1_555
H8 C8 1_555 1_555
H9 C15 1_555 1_555
H10 C16 1_555 1_555
H11 C17 1_555 1_555
H12 C18 1_555 1_555
H13 C19 1_555 1_555
H14 C20 1_555 1_555
H15 C21 1_555 1_555
H16 C22 1_555 1_555
C9 C13 1_555 1_555
C13 C14 1_555 1_555
C23 C27 1_555 1_555
C24 C25 1_555 1_555
C25 C26 1_555 1_555
C27 C28 1_555 1_555

#END
