
#######################################################################
#
#                 Cambridge Crystallographic Data Centre
#                                CCDC 
#
#######################################################################
#
# If this CIF has been generated from an entry in the Cambridge 
# Structural Database, then it will include bibliographic, chemical, 
# crystal, experimental, refinement or atomic coordinate data resulting 
# from the CCDC's data processing and validation procedures.
#
#######################################################################

data_FAGQIQ
_chemical_formula_moiety         'C38 H26 N2'
_chemical_name_systematic        
6-Methyl-3,4,8,9-tetraphenyl-1,9b-diazacyclopenta[cd]phenalene
_symmetry_cell_setting           monoclinic
_symmetry_space_group_name_H-M   'P 21/c'
_symmetry_Int_Tables_number      14
_space_group_name_Hall           '-P 2ybc'
loop_
_symmetry_equiv_pos_site_id
_symmetry_equiv_pos_as_xyz
1 x,y,z
2 -x,1/2+y,1/2-z
3 -x,-y,-z
4 x,1/2-y,1/2+z
_cell_length_a                   6.8920(14)
_cell_length_b                   16.172(3)
_cell_length_c                   25.048(6)
_cell_angle_alpha                90
_cell_angle_beta                 100.10(3)
_cell_angle_gamma                90
_cell_volume                     2748.52
_exptl_crystal_colour            'yellow green'
_exptl_crystal_description       prism
_cell_formula_units_Z            4
loop_
_atom_site_label
_atom_site_type_symbol
_atom_site_fract_x
_atom_site_fract_y
_atom_site_fract_z
N1 N 0.6985(2) 0.89638(9) 0.78049(6)
C1 C 0.5037(3) 0.79242(11) 0.79064(7)
H1 H 0.3982 0.7538 0.7848
N2 N 0.6527(2) 0.79365(10) 0.83517(7)
C2 C 0.7727(3) 0.85804(11) 0.82892(7)
C3 C 0.9526(3) 0.88948(11) 0.85993(7)
C4 C 1.0382(3) 0.95805(11) 0.84151(7)
C5 C 0.9473(3) 0.99968(11) 0.79131(7)
C6 C 1.0157(3) 1.07369(12) 0.77199(8)
H2 H 1.1328 1.0982 0.7911
C7 C 0.9159(3) 1.11199(12) 0.72535(8)
C8 C 0.7470(3) 1.07571(12) 0.69589(8)
H3 H 0.6832 1.1012 0.6633
C9 C 0.6688(3) 1.00218(11) 0.71336(7)
C10 C 0.4909(3) 0.96028(11) 0.68555(7)
C11 C 0.4248(3) 0.88869(11) 0.70602(7)
C12 C 0.5307(3) 0.85544(11) 0.75610(7)
C13 C 0.7734(3) 0.96711(11) 0.76139(7)
C14 C 1.0359(3) 0.84350(11) 0.91041(7)
C15 C 1.2238(3) 0.80888(13) 0.91739(8)
H4 H 1.3039 0.8170 0.8906
C16 C 1.2948(4) 0.76244(14) 0.96353(9)
H5 H 1.4226 0.7386 0.9681
C17 C 1.1777(4) 0.75111(14) 1.00301(9)
H6 H 1.2256 0.7192 1.0344
C18 C 0.9928(4) 0.78600(14) 0.99660(9)
H7 H 0.9144 0.7792 1.0239
C19 C 0.9209(3) 0.83118(13) 0.95018(8)
H8 H 0.7919 0.8539 0.9455
C20 C 1.2210(3) 0.99593(11) 0.87295(7)
C21 C 1.2237(3) 1.03026(12) 0.92394(8)
H9 H 1.1084 1.0283 0.9399
C22 C 1.3922(3) 1.06727(14) 0.95176(8)
H10 H 1.3921 1.0905 0.9866
C23 C 1.5617(3) 1.07062(13) 0.92891(9)
H11 H 1.6776 1.0961 0.9480
C24 C 1.5607(3) 1.03677(13) 0.87832(9)
H12 H 1.6765 1.0386 0.8626
C25 C 1.3914(3) 1.00020(13) 0.85041(8)
H13 H 1.3916 0.9777 0.8154
C26 C 0.9887(3) 1.19417(13) 0.70844(9)
H14 H 0.9183 1.2389 0.7233
H15 H 0.9649 1.1978 0.6688
H16 H 1.1303 1.1992 0.7223
C27 C 0.3891(3) 0.99603(12) 0.63308(8)
C28 C 0.2990(4) 1.07297(14) 0.63127(9)
H17 H 0.3013 1.1031 0.6640
C29 C 0.2058(4) 1.10660(15) 0.58270(9)
H18 H 0.1434 1.1590 0.5824
C30 C 0.2032(4) 1.06425(15) 0.53467(9)
H19 H 0.1403 1.0876 0.5013
C31 C 0.2929(3) 0.98751(15) 0.53549(8)
H20 H 0.2911 0.9580 0.5026
C32 C 0.3852(3) 0.95365(13) 0.58415(8)
H21 H 0.4467 0.9010 0.5843
C33 C 0.2442(3) 0.84350(12) 0.68037(7)
C34 C 0.2536(3) 0.75988(12) 0.66638(7)
H22 H 0.3766 0.7318 0.6730
C35 C 0.0856(3) 0.71797(13) 0.64299(8)
H23 H 0.0943 0.6617 0.6328
C36 C -0.0951(3) 0.75726(14) 0.63437(8)
H24 H -0.2108 0.7279 0.6189
C37 C -0.1063(3) 0.83951(14) 0.64837(9)
H25 H -0.2303 0.8667 0.6423
C38 C 0.0621(3) 0.88295(13) 0.67118(8)
H26 H 0.0527 0.9396 0.6805
N3? N 0.5037(3) 0.79242(11) 0.79064(7)
C39? C 0.6527(2) 0.79365(10) 0.83517(7)
H27? H 0.6686 0.7562 0.8648
loop_
_geom_bond_atom_site_label_1
_geom_bond_atom_site_label_2
_geom_bond_site_symmetry_1
_geom_bond_site_symmetry_2
N1 C2 1_555 1_555
C1 H1 1_555 1_555
N2 C1 1_555 1_555
C2 N2 1_555 1_555
C3 C2 1_555 1_555
C4 C3 1_555 1_555
C5 C4 1_555 1_555
C6 C5 1_555 1_555
H2 C6 1_555 1_555
C7 C6 1_555 1_555
C8 C7 1_555 1_555
H3 C8 1_555 1_555
C9 C8 1_555 1_555
C10 C9 1_555 1_555
C11 C10 1_555 1_555
C12 N1 1_555 1_555
C13 N1 1_555 1_555
C14 C3 1_555 1_555
C15 C14 1_555 1_555
H4 C15 1_555 1_555
C16 C15 1_555 1_555
H5 C16 1_555 1_555
C17 C16 1_555 1_555
H6 C17 1_555 1_555
C18 C17 1_555 1_555
H7 C18 1_555 1_555
C19 C14 1_555 1_555
H8 C19 1_555 1_555
C20 C4 1_555 1_555
C21 C20 1_555 1_555
H9 C21 1_555 1_555
C22 C21 1_555 1_555
H10 C22 1_555 1_555
C23 C22 1_555 1_555
H11 C23 1_555 1_555
C24 C23 1_555 1_555
H12 C24 1_555 1_555
C25 C20 1_555 1_555
H13 C25 1_555 1_555
C26 C7 1_555 1_555
H14 C26 1_555 1_555
H15 C26 1_555 1_555
H16 C26 1_555 1_555
C27 C10 1_555 1_555
C28 C27 1_555 1_555
H17 C28 1_555 1_555
C29 C28 1_555 1_555
H18 C29 1_555 1_555
C30 C29 1_555 1_555
H19 C30 1_555 1_555
C31 C30 1_555 1_555
H20 C31 1_555 1_555
C32 C27 1_555 1_555
H21 C32 1_555 1_555
C33 C11 1_555 1_555
C34 C33 1_555 1_555
H22 C34 1_555 1_555
C35 C34 1_555 1_555
H23 C35 1_555 1_555
C36 C35 1_555 1_555
H24 C36 1_555 1_555
C37 C36 1_555 1_555
H25 C37 1_555 1_555
C38 C33 1_555 1_555
H26 C38 1_555 1_555
C1 C12 1_555 1_555
C5 C13 1_555 1_555
C9 C13 1_555 1_555
C11 C12 1_555 1_555
C18 C19 1_555 1_555
C24 C25 1_555 1_555
C31 C32 1_555 1_555
C37 C38 1_555 1_555

#END
