
#######################################################################
#
#                 Cambridge Crystallographic Data Centre
#                                CCDC 
#
#######################################################################
#
# If this CIF has been generated from an entry in the Cambridge 
# Structural Database, then it will include bibliographic, chemical, 
# crystal, experimental, refinement or atomic coordinate data resulting 
# from the CCDC's data processing and validation procedures.
#
#######################################################################

data_FAGSUB
_chemical_formula_moiety         'C6 H9 N3'
_chemical_name_systematic        4-Amino-2,6-dimethylpyrimidine
_symmetry_cell_setting           monoclinic
_symmetry_space_group_name_H-M   'P 21/n'
_symmetry_Int_Tables_number      14
_space_group_name_Hall           '-P 2yn'
loop_
_symmetry_equiv_pos_site_id
_symmetry_equiv_pos_as_xyz
1 x,y,z
2 1/2-x,1/2+y,1/2-z
3 -x,-y,-z
4 1/2+x,1/2-y,1/2+z
_cell_length_a                   11.786
_cell_length_b                   7.867
_cell_length_c                   7.470
_cell_angle_alpha                90
_cell_angle_beta                 99.36
_cell_angle_gamma                90
_cell_volume                     683.4
_exptl_crystal_colour            colorless
_cell_formula_units_Z            4
loop_
_atom_site_label
_atom_site_type_symbol
_atom_site_fract_x
_atom_site_fract_y
_atom_site_fract_z
H1 H -0.0903(22) 0.0917(36) 0.0030(37)
H2 H -0.1508(26) 0.2082(40) 0.1175(40)
H3 H -0.0820(22) 0.2948(34) 0.4400(34)
H4 H 0.1536(27) 0.3856(43) 0.7516(41)
H5 H 0.0941(26) 0.2294(43) 0.8336(43)
H6 H 0.2881(26) -0.0173(43) 0.2041(45)
H7 H 0.2727(29) -0.1531(50) 0.3434(45)
H8 H 0.3408(28) 0.0058(42) 0.4032(43)
H9 H 0.0229(29) 0.3878(46) 0.7327(44)
N1 N 0.0858(2) 0.0636(3) 0.2251(2)
N2 N -0.0970(2) 0.1525(4) 0.1131(3)
C1 C -0.0084(2) 0.1508(3) 0.251(3)
C2 C -0.0118(2) 0.2345(3) 0.4168(3)
C3 C 0.0843(2) 0.2280(3) 0.5471(3)
C4 C 0.1755(2) 0.0674(3) 0.3604(3)
N3 N 0.1809(2) 0.1456(3) 0.5195(2)
C5 C 0.2808(3) -0.0253(5) 0.3255(5)
C6 C 0.0896(3) 0.3106(5) 0.7298(4)
loop_
_geom_bond_atom_site_label_1
_geom_bond_atom_site_label_2
_geom_bond_site_symmetry_1
_geom_bond_site_symmetry_2
H1 N2 1_555 1_555
H2 N2 1_555 1_555
H3 C2 1_555 1_555
H4 C6 1_555 1_555
H5 C6 1_555 1_555
H6 C5 1_555 1_555
H7 C5 1_555 1_555
H8 C5 1_555 1_555
H9 C6 1_555 1_555
N1 C1 1_555 1_555
N2 C1 1_555 1_555
C1 C2 1_555 1_555
C2 C3 1_555 1_555
C3 N3 1_555 1_555
C4 N1 1_555 1_555
N3 C4 1_555 1_555
C5 C4 1_555 1_555
C6 C3 1_555 1_555

#END
