
#######################################################################
#
#                 Cambridge Crystallographic Data Centre
#                                CCDC 
#
#######################################################################
#
# If this CIF has been generated from an entry in the Cambridge 
# Structural Database, then it will include bibliographic, chemical, 
# crystal, experimental, refinement or atomic coordinate data resulting 
# from the CCDC's data processing and validation procedures.
#
#######################################################################

data_FAGTAI
_chemical_compound_source        'Medicinal herb Tripterygium Wilfordii Hook.f'
_chemical_formula_moiety         'C21 H26 O3'
_chemical_name_systematic        'Triptophenolide methyl ether'
_chemical_properties_biological  'anticancer and antileukaemia drug'
_symmetry_cell_setting           monoclinic
_symmetry_space_group_name_H-M   'P 21'
_symmetry_Int_Tables_number      4
_space_group_name_Hall           'P 2yb'
loop_
_symmetry_equiv_pos_site_id
_symmetry_equiv_pos_as_xyz
1 x,y,z
2 -x,1/2+y,-z
_cell_length_a                   13.449(2)
_cell_length_b                   10.439(4)
_cell_length_c                   14.331(2)
_cell_angle_alpha                90
_cell_angle_beta                 117.19
_cell_angle_gamma                90
_cell_volume                     1789.66
_cell_formula_units_Z            4
loop_
_atom_site_label
_atom_site_type_symbol
_atom_site_fract_x
_atom_site_fract_y
_atom_site_fract_z
C1 C 0.7372(5) 0.1846(7) 0.3248(5)
C2 C 0.8056(5) 0.1796(8) 0.2646(5)
C3 C 0.9246(5) 0.2069(6) 0.3361(4)
C4 C 0.9642(5) 0.2474(6) 0.4331(4)
C5 C 0.8929(5) 0.2684(6) 0.4883(4)
C6 C 0.9363(4) 0.3683(7) 0.5736(4)
C7 C 0.8697(5) 0.3656(7) 0.6350(5)
C8 C 0.7457(4) 0.3357(6) 0.5687(4)
C9 C 0.6993(4) 0.2984(6) 0.4649(4)
C10 C 0.7717(4) 0.2931(6) 0.4078(4)
C11 C 0.5868(5) 0.2713(7) 0.4128(4)
C12 C 0.5205(4) 0.2761(8) 0.4640(5)
C13 C 0.5644(4) 0.3082(7) 0.5678(4)
C14 C 0.6773(4) 0.3419(6) 0.6180(4)
C15 C 0.4939(5) 0.3037(8) 0.6266(5)
C16 C 0.4436(6) 0.1745(9) 0.6193(6)
C17 C 0.4034(6) 0.4074(9) 0.5885(6)
C18 C 1.0167(5) 0.1963(6) 0.3094(5)
C19 C 1.0859(5) 0.2675(8) 0.4764(5)
C20 C 0.7580(5) 0.4226(7) 0.3527(4)
C21 C 0.7209(6) 0.5144(8) 0.7373(5)
O1 O 1.1128(3) 0.2303(6) 0.3937(3)
O2 O 1.0177(4) 0.1645(5) 0.2289(3)
O3 O 0.7254(3) 0.3794(5) 0.7234(3)
C22 C 0.2659(5) 0.4443(8) 0.2380(4)
C23 C 0.1951(5) 0.5040(9) 0.2854(4)
C24 C 0.0751(4) 0.4804(6) 0.2166(4)
C25 C 0.0335(4) 0.4376(6) 0.1193(4)
C26 C 0.1019(4) 0.4024(6) 0.0650(4)
C27 C 0.0452(4) 0.4230(7) -0.0527(4)
C28 C 0.1193(5) 0.3700(7) -0.0991(4)
C29 C 0.2439(4) 0.3946(6) -0.0348(4)
C30 C 0.2900(4) 0.4324(6) 0.0703(4)
C31 C 0.2161(4) 0.4727(6) 0.1201(4)
C32 C 0.4066(5) 0.4478 0.1251(4)
C33 C 0.4714(5) 0.4332(8) 0.0759(5)
C34 C 0.4265(4) 0.4022(7) -0.0313(4)
C35 C 0.3133(4) 0.3803(6) -0.0818(4)
C36 C 0.4997(5) 0.3980(9) -0.0858(4)
C37 C 0.5971(6) 0.3090(11) -0.0349(7)
C38 C 0.5408(7) 0.5332(10) -0.0933(6)
C39 C -0.0165(5) 0.5024(6) 0.2427(4)
C40 C -0.0896(5) 0.4303(9) 0.0749(4)
C41 C 0.1996(5) 0.6190(7) 0.1035(5)
C42 C 0.2634(6) 0.2144(8) -0.20654(5)
O4 O -0.1140(3) 0.4725(5) 0.1580(3)
O5 O -0.0139(3) 0.5395(5) 0.3230(3)
O6 O 0.2648(3) 0.3475(5) -0.1874(3)
loop_
_geom_bond_atom_site_label_1
_geom_bond_atom_site_label_2
_geom_bond_site_symmetry_1
_geom_bond_site_symmetry_2
C1 C2 1_555 1_555
C2 C3 1_555 1_555
C3 C4 1_555 1_555
C4 C5 1_555 1_555
C5 C6 1_555 1_555
C6 C7 1_555 1_555
C7 C8 1_555 1_555
C8 C9 1_555 1_555
C9 C10 1_555 1_555
C10 C1 1_555 1_555
C11 C9 1_555 1_555
C12 C11 1_555 1_555
C13 C12 1_555 1_555
C14 C8 1_555 1_555
C15 C13 1_555 1_555
C16 C15 1_555 1_555
C17 C15 1_555 1_555
C18 C3 1_555 1_555
C19 C4 1_555 1_555
C20 C10 1_555 1_555
C21 O3 1_555 1_555
O1 C18 1_555 1_555
O2 C18 1_555 1_555
O3 C14 1_555 1_555
C22 C23 1_555 1_555
C23 C24 1_555 1_555
C24 C25 1_555 1_555
C25 C26 1_555 1_555
C26 C27 1_555 1_555
C27 C28 1_555 1_555
C28 C29 1_555 1_555
C29 C30 1_555 1_555
C30 C31 1_555 1_555
C31 C22 1_555 1_555
C32 C30 1_555 1_555
C33 C32 1_555 1_555
C34 C33 1_555 1_555
C35 C29 1_555 1_555
C36 C34 1_555 1_555
C37 C36 1_555 1_555
C38 C36 1_555 1_555
C39 C24 1_555 1_555
C40 C25 1_555 1_555
C41 C31 1_555 1_555
C42 O6 1_555 1_555
O4 C39 1_555 1_555
O5 C39 1_555 1_555
O6 C35 1_555 1_555
C5 C10 1_555 1_555
C13 C14 1_555 1_555
C19 O1 1_555 1_555
C26 C31 1_555 1_555
C34 C35 1_555 1_555
C40 O4 1_555 1_555

#END
