
#######################################################################
#
#                 Cambridge Crystallographic Data Centre
#                                CCDC 
#
#######################################################################
#
# If this CIF has been generated from an entry in the Cambridge 
# Structural Database, then it will include bibliographic, chemical, 
# crystal, experimental, refinement or atomic coordinate data resulting 
# from the CCDC's data processing and validation procedures.
#
#######################################################################

data_FAGVEQ
_chemical_name_common            
'(E)-2-(4-Hydroxyphenylimino)-4-methyl-7-acetamidyl-1,8-naphthyridine hemihydrate'
_chemical_formula_moiety         'C18 H16 N4 O2,0.5(H2 O1)'
_chemical_name_systematic        
'N-(7-(((4-Hydroxyphenyl)imino)methyl)-5-methyl-1,8-naphthyridin-2-yl)acetamide hemihydrate'
_symmetry_cell_setting           triclinic
_symmetry_space_group_name_H-M   'P -1'
_symmetry_Int_Tables_number      2
_space_group_name_Hall           '-P 1'
loop_
_symmetry_equiv_pos_site_id
_symmetry_equiv_pos_as_xyz
1 x,y,z
2 -x,-y,-z
_cell_length_a                   7.5496(15)
_cell_length_b                   13.657(3)
_cell_length_c                   30.427(6)
_cell_angle_alpha                90.00(3)
_cell_angle_beta                 90.00(3)
_cell_angle_gamma                90.00(3)
_cell_volume                     3137.17
_exptl_crystal_colour            'pale yellow'
_exptl_crystal_description       block
_cell_formula_units_Z            8
loop_
_atom_site_label
_atom_site_type_symbol
_atom_site_fract_x
_atom_site_fract_y
_atom_site_fract_z
O1 O 0.1997(4) 0.9999(2) 0.24999(10)
H59 H 0.273(13) 0.971(8) 0.266(4)
H60 H 0.28(2) 1.027(17) 0.237(7)
O2 O 0.6997(4) 0.5003(2) 0.25003(10)
H58 H 0.770(19) 0.522(13) 0.268(5)
H61 H 0.759(7) 0.472(4) 0.2308(16)
N1 N 0.3313(4) 0.7863(2) 0.08932(9)
N2 N 0.1919(4) 0.7871(2) 0.15632(9)
N3 N 0.0495(4) 0.8022(2) 0.22231(10)
O3 O 0.7508(3) 1.00208(17) -0.15389(8)
H1 H 0.7628 1.0592 -0.1461
C1 C 0.4654(5) 0.7991(2) 0.01963(11)
H2 H 0.4626 0.8668 0.0227
C2 C 0.2535(4) 0.6291(2) 0.12194(11)
C3 C 0.3286(4) 0.5782(2) 0.08551(11)
N4 N 0.5275(4) 0.7623(2) -0.01579(9)
C4 C 0.1700(4) 0.5832(2) 0.15764(11)
H3 H 0.1621 0.5152 0.1584
C5 C 0.2598(4) 0.7329(2) 0.12283(11)
C6 C 0.1006(5) 0.6365(2) 0.19105(11)
H4 H 0.0448 0.6059 0.2146
C7 C 0.3977(4) 0.7374(2) 0.05594(11)
C8 C 0.4014(4) 0.6343(2) 0.05321(11)
H5 H 0.4542 0.6043 0.0291
C9 C 0.1151(4) 0.7400(2) 0.18930(11)
C10 C 0.5870(4) 0.8263(2) -0.04944(11)
O4 O -0.0801(4) 0.6912(2) 0.26847(9)
C11 C 0.6974(5) 0.9463(2) -0.11850(11)
C12 C 0.7131(4) 0.9784(2) -0.07575(11)
H6 H 0.7609 1.0399 -0.0701
C13 C 0.5764(5) 0.7950(3) -0.09244(11)
H7 H 0.5329 0.7326 -0.0984
C14 C 0.6582(4) 0.9198(2) -0.04119(11)
H8 H 0.6683 0.9423 -0.0124
C15 C -0.0397(5) 0.7751(3) 0.25945(12)
C16 C 0.3251(5) 0.4688(2) 0.08318(12)
H9 H 0.3840 0.4475 0.0569
H10 H 0.2045 0.4465 0.0828
H11 H 0.3846 0.4421 0.1084
C17 C 0.6287(5) 0.8540(2) -0.12694(12)
H12 H 0.6179 0.8319 -0.1557
C18 C -0.0900(6) 0.8584(3) 0.28966(13)
H13 H -0.1943 0.8410 0.3059
H14 H -0.1131 0.9161 0.2725
H15 H 0.0055 0.8710 0.3097
N5 N 0.1918(4) 0.2130(2) 0.34374(9)
N6 N 0.3312(4) 0.2136(2) 0.41060(9)
O5 O 0.7509(3) -0.00192(17) 0.65386(8)
H16 H 0.7688 -0.0583 0.6458
N7 N 0.0497(4) 0.1980(2) 0.27755(10)
C19 C 0.4654(4) 0.2007(2) 0.48055(11)
H17 H 0.4633 0.1330 0.4776
N8 N 0.5268(4) 0.2380(2) 0.51599(9)
C20 C 0.3288(4) 0.4216(2) 0.41457(11)
C21 C 0.2537(4) 0.3711(2) 0.37796(11)
C22 C 0.1008(5) 0.3633(2) 0.30925(12)
H18 H 0.0443 0.3938 0.2858
C23 C 0.4021(4) 0.3659(2) 0.44713(11)
H19 H 0.4550 0.3960 0.4712
C24 C 0.1700(5) 0.4170(2) 0.34233(11)
H20 H 0.1621 0.4849 0.3415
C25 C 0.5872(4) 0.1735(2) 0.54936(11)
C26 C 0.2599(4) 0.2676(2) 0.37726(11)
C27 C 0.3978(4) 0.2619(2) 0.44431(11)
C28 C 0.1154(4) 0.2597(2) 0.31077(11)
O6 O -0.0799(4) 0.3091(2) 0.23158(9)
C29 C 0.7139(5) 0.0212(2) 0.57547(11)
H21 H 0.7620 -0.0401 0.5696
C30 C 0.6977(5) 0.0536(2) 0.61864(11)
C31 C 0.6582(4) 0.0807(2) 0.54134(11)
H22 H 0.6681 0.0585 0.5125
C32 C 0.5765(5) 0.2050(2) 0.59244(11)
H23 H 0.5330 0.2674 0.5983
C33 C -0.0401(5) 0.2248(3) 0.24039(12)
C34 C 0.6288(5) 0.1460(2) 0.62699(12)
H24 H 0.6178 0.1682 0.6558
C35 C 0.3259(5) 0.5310(2) 0.41677(12)
H25 H 0.3829 0.5523 0.4433
H26 H 0.2054 0.5535 0.4166
H27 H 0.3875 0.5575 0.3918
C72 C -0.0903(6) 0.1418(3) 0.21063(13)
H62 H -0.1926 0.1599 0.1937
H63 H -0.1170 0.0849 0.2279
H64 H 0.0064 0.1276 0.1912
N9 N 0.8313(4) 0.2865(2) 0.41064(9)
N10 N 0.6915(4) 0.2870(2) 0.34377(9)
O7 O 1.2506(3) 0.50214(17) 0.65390(8)
H28 H 1.2658 0.5589 0.6460
N11 N 0.5497(4) 0.3018(2) 0.27775(10)
C36 C 0.9650(4) 0.2993(2) 0.48039(11)
H29 H 0.9621 0.3670 0.4773
N12 N 1.0271(4) 0.2622(2) 0.51594(9)
C37 C 0.6695(5) 0.0830(2) 0.34239(11)
H30 H 0.6611 0.0150 0.3417
C38 C 0.7538(4) 0.1292(2) 0.37808(11)
C39 C 0.9017(4) 0.1344(2) 0.44713(11)
H31 H 0.9539 0.1043 0.4713
C40 C 1.0867(4) 0.3263(2) 0.54935(11)
C41 C 1.1977(5) 0.4466(2) 0.61858(11)
O8 O 0.4199(4) 0.1908(2) 0.23174(9)
C42 C 0.7594(4) 0.2326(2) 0.37739(11)
C43 C 0.8288(4) 0.0783(2) 0.41444(11)
C44 C 0.6007(5) 0.1363(3) 0.30907(12)
H32 H 0.5448 0.1059 0.2855
C45 C 0.6156(4) 0.2399(2) 0.31084(11)
C46 C 0.8980(4) 0.2375(2) 0.44426(11)
C47 C 1.1581(5) 0.4195(2) 0.54126(11)
H33 H 1.1683 0.4419 0.5125
C48 C 1.0763(5) 0.2948(2) 0.59242(11)
H34 H 1.0332 0.2324 0.5983
C49 C 1.2134(4) 0.4786(2) 0.57558(11)
H35 H 1.2613 0.5399 0.5697
C50 C 0.4602(5) 0.2750(3) 0.24039(12)
C51 C 1.1287(5) 0.3542(2) 0.62713(12)
H36 H 1.1175 0.3323 0.6559
C52 C 0.8252(5) -0.0309(2) 0.41685(12)
H37 H 0.8824 -0.0520 0.4434
H38 H 0.8863 -0.0577 0.3919
H39 H 0.7046 -0.0531 0.4168
C53 C 0.4096(6) 0.3585(3) 0.21054(13)
H40 H 0.5040 0.3708 0.1901
H41 H 0.3885 0.4162 0.2278
H42 H 0.3040 0.3417 0.1947
N13 N 0.8317(4) 0.71381(19) 0.08948(9)
N14 N 0.6917(4) 0.7130(2) 0.15624(9)
O9 O 1.2506(3) 0.49809(17) -0.15383(8)
H43 H 1.2626 0.4410 -0.1461
C54 C 0.9653(4) 0.7007(2) 0.01951(11)
H44 H 0.9626 0.6330 0.0224
N15 N 0.5500(4) 0.6979(2) 0.22227(10)
N16 N 1.0267(4) 0.7378(2) -0.01582(9)
C55 C 0.7536(4) 0.8706(2) 0.12201(11)
C56 C 0.9020(4) 0.8659(2) 0.05295(11)
H45 H 0.9543 0.8961 0.0288
C57 C 0.6698(5) 0.9170(2) 0.15765(11)
H46 H 0.6617 0.9849 0.1584
C58 C 0.8293(4) 0.9214(2) 0.08549(11)
C59 C 0.6011(5) 0.8632(2) 0.19072(11)
H47 H 0.5448 0.8937 0.2142
C60 C 1.0875(4) 0.6736(2) -0.04945(11)
C61 C 1.1978(5) 0.5538(2) -0.11857(11)
C62 C 1.1583(4) 0.5806(2) -0.04127(11)
H48 H 1.1684 0.5584 -0.0125
C63 C 0.8983(4) 0.7619(2) 0.05579(11)
C64 C 0.6155(4) 0.7598(2) 0.18925(11)
C65 C 0.7602(4) 0.7672(2) 0.12282(11)
O10 O 0.4199(4) 0.8089(2) 0.26841(9)
C66 C 1.0768(5) 0.7052(2) -0.09253(11)
H49 H 1.0333 0.7675 -0.0984
C67 C 1.2134(4) 0.5215(3) -0.07561(11)
H50 H 1.2609 0.4601 -0.0698
C68 C 0.4601(5) 0.7251(3) 0.25961(12)
C69 C 1.1293(5) 0.6461(2) -0.12721(11)
H51 H 1.1186 0.6681 -0.1560
C70 C 0.8254(5) 1.0314(2) 0.08313(12)
H52 H 0.8811 1.0527 0.0564
H53 H 0.8879 1.0582 0.1078
H54 H 0.7048 1.0537 0.0836
C71 C 0.4106(6) 0.6416(3) 0.28934(13)
H55 H 0.5061 0.6288 0.3094
H56 H 0.3880 0.5842 0.2720
H57 H 0.3061 0.6584 0.3056
loop_
_geom_bond_atom_site_label_1
_geom_bond_atom_site_label_2
_geom_bond_site_symmetry_1
_geom_bond_site_symmetry_2
O1 H59 1_555 1_555
O2 H58 1_555 1_555
N1 C5 1_555 1_555
N2 C5 1_555 1_555
N3 C9 1_555 1_555
O3 H1 1_555 1_555
C1 H2 1_555 1_555
C2 C3 1_555 1_555
C3 C8 1_555 1_555
N4 C1 1_555 1_555
C4 C2 1_555 1_555
H3 C4 1_555 1_555
C5 C2 1_555 1_555
C6 C4 1_555 1_555
H4 C6 1_555 1_555
C7 N1 1_555 1_555
C8 C7 1_555 1_555
H5 C8 1_555 1_555
C9 N2 1_555 1_555
C10 N4 1_555 1_555
O4 C15 1_555 1_555
C11 O3 1_555 1_555
C12 C11 1_555 1_555
H6 C12 1_555 1_555
C13 C10 1_555 1_555
H7 C13 1_555 1_555
C14 C10 1_555 1_555
H8 C14 1_555 1_555
C15 N3 1_555 1_555
C16 C3 1_555 1_555
H9 C16 1_555 1_555
H10 C16 1_555 1_555
H11 C16 1_555 1_555
C17 C11 1_555 1_555
H12 C17 1_555 1_555
C18 C15 1_555 1_555
H13 C18 1_555 1_555
H14 C18 1_555 1_555
H15 C18 1_555 1_555
N5 C26 1_555 1_555
N6 C26 1_555 1_555
O5 H16 1_555 1_555
N7 C28 1_555 1_555
C19 H17 1_555 1_555
N8 C19 1_555 1_555
C20 C21 1_555 1_555
C21 C24 1_555 1_555
C22 H18 1_555 1_555
C23 C20 1_555 1_555
H19 C23 1_555 1_555
C24 C22 1_555 1_555
H20 C24 1_555 1_555
C25 N8 1_555 1_555
C26 C21 1_555 1_555
C27 N6 1_555 1_555
C28 N5 1_555 1_555
O6 C33 1_555 1_555
C29 H21 1_555 1_555
C30 O5 1_555 1_555
C31 C25 1_555 1_555
H22 C31 1_555 1_555
C32 C25 1_555 1_555
H23 C32 1_555 1_555
C33 N7 1_555 1_555
C34 C30 1_555 1_555
H24 C34 1_555 1_555
C35 C20 1_555 1_555
H25 C35 1_555 1_555
H26 C35 1_555 1_555
H27 C35 1_555 1_555
N9 C42 1_555 1_555
N10 C42 1_555 1_555
O7 H28 1_555 1_555
N11 C45 1_555 1_555
C36 H29 1_555 1_555
N12 C36 1_555 1_555
C37 H30 1_555 1_555
C38 C37 1_555 1_555
C39 H31 1_555 1_555
C40 N12 1_555 1_555
C41 O7 1_555 1_555
O8 C50 1_555 1_555
C42 C38 1_555 1_555
C43 C38 1_555 1_555
C44 C37 1_555 1_555
H32 C44 1_555 1_555
C45 N10 1_555 1_555
C46 N9 1_555 1_555
C47 C40 1_555 1_555
H33 C47 1_555 1_555
C48 C40 1_555 1_555
H34 C48 1_555 1_555
C49 C41 1_555 1_555
H35 C49 1_555 1_555
C50 N11 1_555 1_555
C51 C41 1_555 1_555
H36 C51 1_555 1_555
C52 C43 1_555 1_555
H37 C52 1_555 1_555
H38 C52 1_555 1_555
H39 C52 1_555 1_555
C53 C50 1_555 1_555
H40 C53 1_555 1_555
H41 C53 1_555 1_555
H42 C53 1_555 1_555
N13 C63 1_555 1_555
N14 C64 1_555 1_555
O9 H43 1_555 1_555
C54 H44 1_555 1_555
N15 C64 1_555 1_555
N16 C54 1_555 1_555
C55 C57 1_555 1_555
C56 H45 1_555 1_555
C57 H46 1_555 1_555
C58 C55 1_555 1_555
C59 C57 1_555 1_555
H47 C59 1_555 1_555
C60 N16 1_555 1_555
C61 O9 1_555 1_555
C62 C60 1_555 1_555
H48 C62 1_555 1_555
C63 C54 1_555 1_555
C64 C59 1_555 1_555
C65 N13 1_555 1_555
O10 C68 1_555 1_555
C66 C60 1_555 1_555
H49 C66 1_555 1_555
C67 C61 1_555 1_555
H50 C67 1_555 1_555
C68 N15 1_555 1_555
C69 C61 1_555 1_555
H51 C69 1_555 1_555
C70 C58 1_555 1_555
H52 C70 1_555 1_555
H53 C70 1_555 1_555
H54 C70 1_555 1_555
C71 C68 1_555 1_555
H55 C71 1_555 1_555
H56 C71 1_555 1_555
H57 C71 1_555 1_555
H60 O1 1_555 1_555
H61 O2 1_555 1_555
C72 C33 1_555 1_555
H62 C72 1_555 1_555
H63 C72 1_555 1_555
H64 C72 1_555 1_555
C1 C7 1_555 1_555
C6 C9 1_555 1_555
C12 C14 1_555 1_555
C13 C17 1_555 1_555
C19 C27 1_555 1_555
C22 C28 1_555 1_555
C23 C27 1_555 1_555
C29 C30 1_555 1_555
C29 C31 1_555 1_555
C32 C34 1_555 1_555
C36 C46 1_555 1_555
C39 C43 1_555 1_555
C39 C46 1_555 1_555
C44 C45 1_555 1_555
C47 C49 1_555 1_555
C48 C51 1_555 1_555
N14 C65 1_555 1_555
C55 C65 1_555 1_555
C56 C58 1_555 1_555
C56 C63 1_555 1_555
C62 C67 1_555 1_555
C66 C69 1_555 1_555

#END
