
#######################################################################
#
#                 Cambridge Crystallographic Data Centre
#                                CCDC 
#
#######################################################################
#
# If this CIF has been generated from an entry in the Cambridge 
# Structural Database, then it will include bibliographic, chemical, 
# crystal, experimental, refinement or atomic coordinate data resulting 
# from the CCDC's data processing and validation procedures.
#
#######################################################################

data_FAGYET
_chemical_formula_moiety         'C24 H14 N4,Br1 1-,C16 H36 N1 1+'
_chemical_name_systematic        
"Tetrabutylammonium bromide 5,6-dihydrodiindolo[3,2-a:2',3'-c]phenazine"
_symmetry_cell_setting           orthorhombic
_symmetry_space_group_name_H-M   'P 21 21 21'
_symmetry_Int_Tables_number      19
_space_group_name_Hall           'P 2ac 2ab'
loop_
_symmetry_equiv_pos_site_id
_symmetry_equiv_pos_as_xyz
1 x,y,z
2 1/2-x,-y,1/2+z
3 -x,1/2+y,1/2-z
4 1/2+x,1/2-y,-z
_cell_length_a                   13.188(3)
_cell_length_b                   14.799(3)
_cell_length_c                   18.574(4)
_cell_angle_alpha                90
_cell_angle_beta                 90
_cell_angle_gamma                90
_cell_volume                     3625.07
_cell_formula_units_Z            4
loop_
_atom_site_label
_atom_site_type_symbol
_atom_site_fract_x
_atom_site_fract_y
_atom_site_fract_z
Br1 Br 0.40653(6) 0.37729(6) 0.72306(4)
N1 N 0.3434(4) 0.6721(4) 0.2350(3)
H1 H 0.2792 0.6818 0.2334
N2 N 0.6716(4) 0.5803(4) 0.1748(3)
N3 N 0.5981(5) 0.4863(3) 0.0508(3)
N4 N 0.2644(5) 0.5577(4) 0.1056(3)
H2 H 0.2112 0.5808 0.1251
C1 C 0.4103(6) 0.7055(4) 0.2870(3)
C2 C 0.3929(7) 0.7600(5) 0.3464(4)
H3 H 0.3281 0.7816 0.3563
C3 C 0.4732(7) 0.7818(5) 0.3908(4)
H4 H 0.4627 0.8189 0.4305
C4 C 0.5703(6) 0.7483(5) 0.3764(4)
H5 H 0.6230 0.7614 0.4079
C5 C 0.5899(7) 0.6952(4) 0.3153(3)
H6 H 0.6550 0.6742 0.3056
C6 C 0.5093(5) 0.6749(4) 0.2695(3)
C7 C 0.4992(5) 0.6221(5) 0.2047(3)
C8 C 0.5726(5) 0.5763(4) 0.1591(3)
C9 C 0.7362(5) 0.5354(4) 0.1281(3)
C10 C 0.8411(6) 0.5359(5) 0.1428(4)
H7 H 0.8656 0.5640 0.1840
C11 C 0.9060(7) 0.4955(5) 0.0968(4)
H8 H 0.9752 0.4971 0.1063
C12 C 0.8710(6) 0.4512(6) 0.0352(4)
H9 H 0.9173 0.4243 0.0041
C13 C 0.7701(6) 0.4469(5) 0.0198(4)
H10 H 0.7477 0.4158 -0.0207
C14 C 0.6992(6) 0.4900(5) 0.0660(3)
C15 C 0.5346(5) 0.5284(4) 0.0963(3)
C16 C 0.4278(6) 0.5242(4) 0.0842(3)
C17 C 0.3679(6) 0.4775(5) 0.0307(3)
C18 C 0.3871(7) 0.4204(5) -0.0277(3)
H11 H 0.4530 0.4041 -0.0399
C19 C 0.3043(6) 0.3885(5) -0.0670(3)
H12 H 0.3163 0.3501 -0.1058
C20 C 0.2043(7) 0.4116(5) -0.0508(4)
H13 H 0.1516 0.3880 -0.0783
C21 C 0.1833(6) 0.4685(6) 0.0049(4)
H14 H 0.1171 0.4859 0.0152
C22 C 0.2658(5) 0.4999(5) 0.0464(3)
C23 C 0.3623(5) 0.5713(5) 0.1272(3)
C24 C 0.3983(5) 0.6211(5) 0.1869(3)
N5 N 0.6280(5) 0.1595(4) 0.6728(3)
C25 C 0.5440(6) 0.0930(5) 0.6631(4)
H15 H 0.5551 0.0437 0.6966
H16 H 0.5493 0.0682 0.6149
C26 C 0.4364(6) 0.1263(6) 0.6733(4)
H17 H 0.4230 0.1772 0.6417
H18 H 0.4260 0.1456 0.7227
C27 C 0.3645(6) 0.0462(7) 0.6548(5)
H19 H 0.3701 0.0315 0.6041
H20 H 0.3837 -0.0067 0.6825
C28 C 0.2572(7) 0.0722(8) 0.6722(6)
H21 H 0.2126 0.0233 0.6599
H22 H 0.2388 0.1249 0.6451
H23 H 0.2516 0.0850 0.7227
H24 H 0.6743 0.2776 0.6256
H25 H 0.5576 0.2601 0.6159
C30 C 0.6440(14) 0.1896(9) 0.5413(6)
H26 H 0.5843 0.1583 0.5237
H27 H 0.7000 0.1472 0.5435
C31 C 0.6703(11) 0.2700(9) 0.4921(7)
H28 H 0.6334 0.3234 0.5071
H29 H 0.6522 0.2564 0.4427
C32 C 0.7855(12) 0.2860(13) 0.4985(11)
H30 H 0.8048 0.3355 0.4680
H31 H 0.8211 0.2325 0.4839
H32 H 0.8023 0.3000 0.5475
C33 C 0.6238(8) 0.2316(5) 0.6156(3)
C37 C 0.6121(16) 0.1964(9) 0.7488(5)
H43 H 0.6702 0.2348 0.7582
C38 C 0.5962(12) 0.1413(7) 0.8181(5)
H44 H 0.5452 0.0954 0.8092
H45 H 0.6590 0.1106 0.8301
C39 C 0.5635(10) 0.1977(8) 0.8819(6)
H46 H 0.5536 0.1581 0.9230
H47 H 0.4986 0.2253 0.8709
C40 C 0.6380(10) 0.2721(8) 0.9031(7)
H48 H 0.6117 0.3050 0.9435
H50 H 0.7020 0.2455 0.9158
H51 H 0.5632 0.2498 0.7429
C45 C 0.7128(7) 0.0881(7) 0.6827(7)
H60 H 0.6935 0.0471 0.7210
H61 H 0.7188 0.0531 0.6387
C46 C 0.8170(7) 0.1294(8) 0.7007(6)
H62 H 0.8270 0.1842 0.6729
H63 H 0.8196 0.1450 0.7514
C47 C 0.9017(9) 0.0615(11) 0.6832(11)
H64 H 0.9057 0.0531 0.6314
H65 H 0.8858 0.0036 0.7049
C48 C 1.0047(9) 0.0952(11) 0.7116(10)
H66 H 1.0565 0.0522 0.6997
H67 H 1.0013 0.1020 0.7630
H68 H 1.0206 0.1524 0.6900
C29? C 0.6238(8) 0.2316(5) 0.6156(3)
H33? H 0.6865 0.2654 0.6199
H34? H 0.5699 0.2724 0.6298
C34? C 0.6087(15) 0.2143(10) 0.5339(5)
H35? H 0.6724 0.1905 0.5159
H36? H 0.5594 0.1660 0.5297
C35? C 0.5757(13) 0.2883(10) 0.4811(6)
H37? H 0.6118 0.3439 0.4918
H38? H 0.5925 0.2703 0.4324
C36? C 0.4628(14) 0.3043(16) 0.4871(12)
H39? H 0.4436 0.3533 0.4561
H40? H 0.4459 0.3191 0.5360
H41? H 0.4271 0.2506 0.4730
H42? H 0.5540 0.2364 0.7455
H49? H 0.6474 0.3125 0.8632
C41? C 0.6289(19) 0.2215(9) 0.7365(6)
H52? H 0.6796 0.2684 0.7305
C42? C 0.6548(14) 0.1610(10) 0.8012(7)
H53? H 0.7225 0.1362 0.7960
H54? H 0.6069 0.1115 0.8047
C43? C 0.6486(12) 0.2213(12) 0.8688(7)
H55? H 0.6777 0.1903 0.9099
H56? H 0.6858 0.2770 0.8611
C44? C 0.5366(13) 0.2418(13) 0.8825(9)
H57? H 0.5303 0.2784 0.9249
H58? H 0.5003 0.1862 0.8892
H59? H 0.5090 0.2736 0.8420
C49? C 0.7319(9) 0.1221(13) 0.6518(11)
H69? H 0.7246 0.0932 0.6053
H70? H 0.7487 0.0750 0.6861
C50? C 0.8238(13) 0.1854(11) 0.6470(11)
H71? H 0.8292 0.2201 0.6912
H72? H 0.8143 0.2274 0.6075
C51? C 0.9227(13) 0.1316(14) 0.6352(8)
H73? H 0.9157 0.0930 0.5932
H74? H 0.9785 0.1730 0.6267
C52? C 0.944(2) 0.0745(14) 0.7012(10)
H75? H 1.0057 0.0407 0.6938
H76? H 0.8891 0.0336 0.7093
H77? H 0.9523 0.1131 0.7424
loop_
_geom_bond_atom_site_label_1
_geom_bond_atom_site_label_2
_geom_bond_site_symmetry_1
_geom_bond_site_symmetry_2
N1 H1 1_555 1_555
N2 C8 1_555 1_555
N3 C14 1_555 1_555
N4 H2 1_555 1_555
C1 N1 1_555 1_555
C2 C1 1_555 1_555
H3 C2 1_555 1_555
C3 C2 1_555 1_555
H4 C3 1_555 1_555
C4 C3 1_555 1_555
H5 C4 1_555 1_555
C5 C4 1_555 1_555
H6 C5 1_555 1_555
C6 C1 1_555 1_555
C7 C6 1_555 1_555
C8 C7 1_555 1_555
C9 N2 1_555 1_555
C10 C9 1_555 1_555
H7 C10 1_555 1_555
C11 C10 1_555 1_555
H8 C11 1_555 1_555
C12 C11 1_555 1_555
H9 C12 1_555 1_555
C13 C12 1_555 1_555
H10 C13 1_555 1_555
C14 C9 1_555 1_555
C15 N3 1_555 1_555
C16 C15 1_555 1_555
C17 C16 1_555 1_555
C18 C17 1_555 1_555
H11 C18 1_555 1_555
C19 C18 1_555 1_555
H12 C19 1_555 1_555
C20 C19 1_555 1_555
H13 C20 1_555 1_555
C21 C20 1_555 1_555
H14 C21 1_555 1_555
C22 N4 1_555 1_555
C23 N4 1_555 1_555
C24 N1 1_555 1_555
N5 C25 1_555 1_555
C25 H15 1_555 1_555
H16 C25 1_555 1_555
C26 C25 1_555 1_555
H17 C26 1_555 1_555
H18 C26 1_555 1_555
C27 C26 1_555 1_555
H19 C27 1_555 1_555
H20 C27 1_555 1_555
C28 C27 1_555 1_555
H21 C28 1_555 1_555
H22 C28 1_555 1_555
H23 C28 1_555 1_555
H24 C33 1_555 1_555
H25 C33 1_555 1_555
C30 H26 1_555 1_555
H27 C30 1_555 1_555
C31 C30 1_555 1_555
H28 C31 1_555 1_555
H29 C31 1_555 1_555
C32 C31 1_555 1_555
H30 C32 1_555 1_555
H31 C32 1_555 1_555
H32 C32 1_555 1_555
C33 N5 1_555 1_555
C37 N5 1_555 1_555
H43 C37 1_555 1_555
C38 C37 1_555 1_555
H44 C38 1_555 1_555
H45 C38 1_555 1_555
C39 C38 1_555 1_555
H46 C39 1_555 1_555
H47 C39 1_555 1_555
C40 C39 1_555 1_555
H48 C40 1_555 1_555
H50 C40 1_555 1_555
H51 C37 1_555 1_555
C45 N5 1_555 1_555
H60 C45 1_555 1_555
H61 C45 1_555 1_555
C46 C45 1_555 1_555
H62 C46 1_555 1_555
H63 C46 1_555 1_555
C47 C46 1_555 1_555
H64 C47 1_555 1_555
H65 C47 1_555 1_555
C48 C47 1_555 1_555
H66 C48 1_555 1_555
H67 C48 1_555 1_555
H68 C48 1_555 1_555
C5 C6 1_555 1_555
C7 C24 1_555 1_555
C8 C15 1_555 1_555
C13 C14 1_555 1_555
C16 C23 1_555 1_555
C17 C22 1_555 1_555
C21 C22 1_555 1_555
C23 C24 1_555 1_555
C30 C33 1_555 1_555

#END
