
#######################################################################
#
#                 Cambridge Crystallographic Data Centre
#                                CCDC 
#
#######################################################################
#
# If this CIF has been generated from an entry in the Cambridge 
# Structural Database, then it will include bibliographic, chemical, 
# crystal, experimental, refinement or atomic coordinate data resulting 
# from the CCDC's data processing and validation procedures.
#
#######################################################################

data_FAGZEU
_chemical_formula_moiety         '2(C24 H14 N4),F6 Si1 2-,2(C16 H36 N1 1+)'
_chemical_name_systematic        
"bis(Tetrabutylammonium) hexafluorosilicate bis(5,6-dihydrodiindolo[3,2-a:2',3'-c]phenazine)"
_symmetry_cell_setting           monoclinic
_symmetry_space_group_name_H-M   'P 21/c'
_symmetry_Int_Tables_number      14
_space_group_name_Hall           '-P 2ybc'
loop_
_symmetry_equiv_pos_site_id
_symmetry_equiv_pos_as_xyz
1 x,y,z
2 -x,1/2+y,1/2-z
3 -x,-y,-z
4 x,1/2-y,1/2+z
_cell_length_a                   9.5475(19)
_cell_length_b                   21.996(5)
_cell_length_c                   17.778(4)
_cell_angle_alpha                90
_cell_angle_beta                 96.892(4)
_cell_angle_gamma                90
_cell_volume                     3706.52
_cell_formula_units_Z            2
loop_
_atom_site_label
_atom_site_type_symbol
_atom_site_fract_x
_atom_site_fract_y
_atom_site_fract_z
N1 N -0.0700(2) 0.26473(10) 0.24345(13)
N2 N -0.0647(2) 0.36269(10) 0.13677(13)
N3 N 0.2657(3) 0.36096(11) 0.41899(14)
N4 N 0.2670(2) 0.47155(11) 0.30285(14)
C1 C -0.1522(3) 0.26387(13) 0.17438(17)
C2 C -0.2395(3) 0.21237(14) 0.15443(18)
H1 H -0.2403 0.1802 0.1883
C3 C -0.3222(3) 0.20966(17) 0.0861(2)
H2 H -0.3769 0.1754 0.0734
C4 C -0.3244(3) 0.25880(18) 0.0350(2)
H3 H -0.3826 0.2571 -0.0108
C5 C -0.2413(3) 0.30934(16) 0.05214(18)
H4 H -0.2441 0.3414 0.0179
C6 C -0.1509(3) 0.31292(14) 0.12200(16)
C7 C 0.0183(3) 0.36307(12) 0.20354(15)
C8 C 0.0133(3) 0.31375(12) 0.25889(15)
C9 C 0.1011(3) 0.31817(12) 0.33067(15)
C10 C 0.1206(3) 0.27793(13) 0.39642(15)
C11 C 0.0600(3) 0.22239(13) 0.41640(17)
H5 H -0.0085 0.2032 0.3830
C12 C 0.1045(3) 0.19713(15) 0.48657(18)
H6 H 0.0642 0.1609 0.5003
C13 C 0.2092(4) 0.22504(15) 0.53756(18)
H7 H 0.2376 0.2067 0.5840
C14 C 0.2709(3) 0.27948(15) 0.51975(17)
H8 H 0.3408 0.2977 0.5533
C15 C 0.2246(3) 0.30616(13) 0.44956(16)
C16 C 0.1905(3) 0.36828(13) 0.34785(15)
C17 C 0.1937(3) 0.41704(12) 0.29512(15)
C18 C 0.2354(3) 0.50492(13) 0.23621(16)
C19 C 0.2822(3) 0.56289(14) 0.21835(18)
H9 H 0.3433 0.5850 0.2528
C20 C 0.2339(3) 0.58625(14) 0.14725(19)
H10 H 0.2631 0.6247 0.1339
C21 C 0.1414(3) 0.55274(15) 0.09491(19)
H11 H 0.1114 0.5694 0.0476
C22 C 0.0942(3) 0.49525(13) 0.11286(17)
H12 H 0.0334 0.4735 0.0779
C23 C 0.1403(3) 0.47038(12) 0.18501(16)
C24 C 0.1120(3) 0.41419(12) 0.22378(15)
H49 H 0.332(2) 0.3860(11) 0.4410(16)
H50 H 0.324(3) 0.4838(14) 0.3439(12)
N5 N 0.7707(2) 0.57009(10) 0.26674(12)
C25 C 0.6900(3) 0.51363(12) 0.28939(16)
H13 H 0.6724 0.5184 0.3417
H14 H 0.5991 0.5125 0.2585
C26 C 0.7629(3) 0.45233(14) 0.28175(19)
H15 H 0.8007 0.4508 0.2335
H16 H 0.8411 0.4484 0.3217
C27 C 0.6607(4) 0.39937(14) 0.28668(19)
H17 H 0.6109 0.4051 0.3306
H18 H 0.7142 0.3619 0.2939
C28 C 0.5527(4) 0.39327(16) 0.2158(2)
H19 H 0.4987 0.4301 0.2086
H20 H 0.4906 0.3598 0.2222
H21 H 0.6012 0.3861 0.1724
C29 C 0.9181(3) 0.57400(15) 0.31266(16)
H22 H 0.9690 0.5370 0.3040
H23 H 0.9687 0.6074 0.2928
C30 C 0.9220(3) 0.58286(15) 0.39798(16)
H24 H 0.8614 0.5532 0.4182
H25 H 0.8875 0.6231 0.4084
C31 C 1.0733(3) 0.57545(16) 0.43632(18)
H26 H 1.0989 0.5328 0.4358
H27 H 1.1365 0.5975 0.4073
C32 C 1.0939(4) 0.59817(19) 0.5175(2)
H28 H 1.0787 0.6413 0.5181
H29 H 1.1882 0.5892 0.5398
H30 H 1.0277 0.5784 0.5460
C33 C 0.6804(3) 0.62519(12) 0.28177(16)
H31 H 0.6634 0.6241 0.3345
H32 H 0.5897 0.6211 0.2511
C34 C 0.7414(3) 0.68774(13) 0.26578(17)
H33 H 0.7812 0.6864 0.2181
H34 H 0.8167 0.6977 0.3055
C35 C 0.6268(3) 0.73747(14) 0.26189(18)
H35 H 0.5750 0.7331 0.3053
H36 H 0.6724 0.7769 0.2656
C36 C 0.5222(4) 0.73580(16) 0.1898(2)
H37 H 0.5721 0.7409 0.1465
H38 H 0.4548 0.7680 0.1913
H39 H 0.4741 0.6974 0.1865
C37 C 0.7952(3) 0.56724(15) 0.18312(15)
H40 H 0.8583 0.6001 0.1735
H41 H 0.8434 0.5294 0.1749
C38 C 0.6647(3) 0.57124(17) 0.12465(17)
H42 H 0.6267 0.6122 0.1239
H43 H 0.5929 0.5436 0.1385
C39 C 0.7025(4) 0.55486(18) 0.04601(17)
H44 H 0.7908 0.5745 0.0386
H45 H 0.7167 0.5113 0.0435
C40 C 0.5900(4) 0.57372(19) -0.0177(2)
H46 H 0.5008 0.5567 -0.0089
H47 H 0.6152 0.5592 -0.0651
H48 H 0.5829 0.6172 -0.0191
Si1 Si 0.5000 0.5000 0.5000
F1 F 0.4387(2) 0.53232(10) 0.41509(11)
F2 F 0.33523(18) 0.47951(10) 0.51238(11)
F3 F 0.4828(2) 0.56673(9) 0.54480(11)
F1B F 0.5613(2) 0.46768(10) 0.58491(11)
F2B F 0.66477(18) 0.52049(10) 0.48762(11)
F3B F 0.5172(2) 0.43327(9) 0.45520(11)
loop_
_geom_bond_atom_site_label_1
_geom_bond_atom_site_label_2
_geom_bond_site_symmetry_1
_geom_bond_site_symmetry_2
N1 C1 1_555 1_555
N2 C6 1_555 1_555
N3 C15 1_555 1_555
N4 C17 1_555 1_555
C1 C2 1_555 1_555
C2 H1 1_555 1_555
C3 C2 1_555 1_555
H2 C3 1_555 1_555
C4 C3 1_555 1_555
H3 C4 1_555 1_555
C5 C4 1_555 1_555
H4 C5 1_555 1_555
C6 C1 1_555 1_555
C7 N2 1_555 1_555
C8 N1 1_555 1_555
C9 C8 1_555 1_555
C10 C9 1_555 1_555
C11 C10 1_555 1_555
H5 C11 1_555 1_555
C12 C11 1_555 1_555
H6 C12 1_555 1_555
C13 C12 1_555 1_555
H7 C13 1_555 1_555
C14 C13 1_555 1_555
H8 C14 1_555 1_555
C15 C10 1_555 1_555
C16 N3 1_555 1_555
C17 C16 1_555 1_555
C18 N4 1_555 1_555
C19 C18 1_555 1_555
H9 C19 1_555 1_555
C20 C19 1_555 1_555
H10 C20 1_555 1_555
C21 C20 1_555 1_555
H11 C21 1_555 1_555
C22 C21 1_555 1_555
H12 C22 1_555 1_555
C23 C18 1_555 1_555
C24 C7 1_555 1_555
N5 C25 1_555 1_555
C25 H13 1_555 1_555
H14 C25 1_555 1_555
C26 C25 1_555 1_555
H15 C26 1_555 1_555
H16 C26 1_555 1_555
C27 C26 1_555 1_555
H17 C27 1_555 1_555
H18 C27 1_555 1_555
C28 C27 1_555 1_555
H19 C28 1_555 1_555
H20 C28 1_555 1_555
H21 C28 1_555 1_555
C29 N5 1_555 1_555
H22 C29 1_555 1_555
H23 C29 1_555 1_555
C30 C29 1_555 1_555
H24 C30 1_555 1_555
H25 C30 1_555 1_555
C31 C30 1_555 1_555
H26 C31 1_555 1_555
H27 C31 1_555 1_555
C32 C31 1_555 1_555
H28 C32 1_555 1_555
H29 C32 1_555 1_555
H30 C32 1_555 1_555
C33 N5 1_555 1_555
H31 C33 1_555 1_555
H32 C33 1_555 1_555
C34 C33 1_555 1_555
H33 C34 1_555 1_555
H34 C34 1_555 1_555
C35 C34 1_555 1_555
H35 C35 1_555 1_555
H36 C35 1_555 1_555
C36 C35 1_555 1_555
H37 C36 1_555 1_555
H38 C36 1_555 1_555
H39 C36 1_555 1_555
C37 N5 1_555 1_555
H40 C37 1_555 1_555
H41 C37 1_555 1_555
C38 C37 1_555 1_555
H42 C38 1_555 1_555
H43 C38 1_555 1_555
C39 C38 1_555 1_555
H44 C39 1_555 1_555
H45 C39 1_555 1_555
C40 C39 1_555 1_555
H46 C40 1_555 1_555
H47 C40 1_555 1_555
H48 C40 1_555 1_555
Si1 F1 1_555 1_555
F2 Si1 1_555 1_555
F3 Si1 1_555 1_555
H49 N3 1_555 1_555
H50 N4 1_555 1_555
F1B Si1 1_555 1_555
F2B Si1 1_555 1_555
F3B Si1 1_555 1_555
C5 C6 1_555 1_555
C7 C8 1_555 1_555
C9 C16 1_555 1_555
C14 C15 1_555 1_555
C17 C24 1_555 1_555
C22 C23 1_555 1_555
C23 C24 1_555 1_555

#END
