
#######################################################################
#
#                 Cambridge Crystallographic Data Centre
#                                CCDC 
#
#######################################################################
#
# If this CIF has been generated from an entry in the Cambridge 
# Structural Database, then it will include bibliographic, chemical, 
# crystal, experimental, refinement or atomic coordinate data resulting 
# from the CCDC's data processing and validation procedures.
#
#######################################################################

data_FAGZAQ
_chemical_formula_moiety         'C24 H14 N4,C2 H3 O2 1-,C16 H36 N1 1+'
_chemical_name_systematic        
"Tetrabutylammonium acetate 5,6-dihydrodiindolo[3,2-a:2',3'-c]phenazine"
_symmetry_cell_setting           monoclinic
_symmetry_space_group_name_H-M   'P 21/c'
_symmetry_Int_Tables_number      14
_space_group_name_Hall           '-P 2ybc'
loop_
_symmetry_equiv_pos_site_id
_symmetry_equiv_pos_as_xyz
1 x,y,z
2 -x,1/2+y,1/2-z
3 -x,-y,-z
4 x,1/2-y,1/2+z
_cell_length_a                   21.802(4)
_cell_length_b                   8.4417(17)
_cell_length_c                   22.560(5)
_cell_angle_alpha                90
_cell_angle_beta                 118.82(3)
_cell_angle_gamma                90
_cell_volume                     3637.79
_cell_formula_units_Z            4
loop_
_atom_site_label
_atom_site_type_symbol
_atom_site_fract_x
_atom_site_fract_y
_atom_site_fract_z
N1 N 0.34578(7) 0.32117(19) 0.50554(7)
N2 N 0.15863(7) 0.10027(18) 0.31435(6)
N3 N 0.07622(7) 0.07622(18) 0.38134(6)
N4 N 0.25688(7) 0.28630(19) 0.58061(6)
C1 C 0.36306(8) 0.3098(2) 0.45419(8)
C2 C 0.42416(9) 0.3561(2) 0.45405(8)
H1 H 0.4611 0.4006 0.4923
C3 C 0.42840(9) 0.3341(2) 0.39539(8)
H2 H 0.4689 0.3641 0.3942
C4 C 0.37269(9) 0.2673(2) 0.33764(8)
H3 H 0.3766 0.2541 0.2987
C5 C 0.31202(9) 0.2208(2) 0.33785(8)
H4 H 0.2753 0.1764 0.2993
C6 C 0.30631(8) 0.2412(2) 0.39653(8)
C7 C 0.25266(8) 0.2103(2) 0.41482(7)
C8 C 0.18353(8) 0.1460(2) 0.37860(7)
C9 C 0.09180(8) 0.0433(2) 0.28243(8)
C10 C 0.06215(9) -0.0050(2) 0.21383(8)
H5 H 0.0886 0.0015 0.1917
C11 C -0.00434(9) -0.0604(2) 0.18032(8)
H6 H -0.0231 -0.0924 0.1355
C12 C -0.04529(9) -0.0698(2) 0.21333(8)
H7 H -0.0911 -0.1067 0.1898
C13 C -0.01852(9) -0.0256(2) 0.27906(9)
H8 H -0.0459 -0.0333 0.3002
C14 C 0.05098(9) 0.0322(2) 0.31562(8)
C15 C 0.14161(8) 0.1333(2) 0.41282(7)
C16 C 0.17132(8) 0.1852(2) 0.48151(8)
C17 C 0.14626(9) 0.1827(2) 0.53011(8)
C18 C 0.08410(9) 0.1370(2) 0.52916(8)
H9 H 0.0469 0.0975 0.4897
C19 C 0.07865(10) 0.1513(2) 0.58761(8)
H10 H 0.0370 0.1235 0.5869
C20 C 0.13475(10) 0.2068(2) 0.64773(8)
H11 H 0.1304 0.2118 0.6867
C21 C 0.19655(9) 0.2543(2) 0.65002(8)
H12 H 0.2337 0.2918 0.6900
C22 C 0.20162(9) 0.2443(2) 0.59110(8)
C23 C 0.23898(8) 0.2484(2) 0.51504(8)
C24 C 0.27956(8) 0.2619(2) 0.48157(8)
H52 H 0.3732(8) 0.358(2) 0.5490(6)
H53 H 0.3006(7) 0.323(2) 0.6131(8)
N5 N 0.27390(7) 0.73078(18) 0.22798(7)
C25 C 0.29692(10) 0.6197(2) 0.18927(9)
H13 H 0.3323 0.5488 0.2214
H14 H 0.2571 0.5555 0.1591
C26 C 0.32616(10) 0.6998(2) 0.14777(9)
H15 H 0.2949 0.7840 0.1208
H16 H 0.3714 0.7464 0.1778
C27 C 0.33410(10) 0.5800(3) 0.10174(9)
H17 H 0.3612 0.4906 0.1286
H18 H 0.2882 0.5411 0.0692
C28 C 0.36966(12) 0.6485(3) 0.06395(10)
H19 H 0.3424 0.7352 0.0362
H20 H 0.3735 0.5680 0.0358
H21 H 0.4155 0.6855 0.0958
C29 C 0.21385(9) 0.8360(2) 0.17983(8)
H22 H 0.2291 0.8950 0.1524
H23 H 0.2043 0.9123 0.2065
C30 C 0.14579(10) 0.7518(3) 0.13277(9)
H24 H 0.1220 0.7216 0.1579
H25 H 0.1562 0.6559 0.1156
C31 C 0.09767(10) 0.8577(3) 0.07337(9)
H26 H 0.0503 0.8168 0.0537
H27 H 0.0976 0.9633 0.0903
C32 C 0.11867(12) 0.8689(3) 0.01857(9)
H28 H 0.1649 0.9126 0.0372
H29 H 0.0863 0.9361 -0.0172
H30 H 0.1181 0.7651 0.0009
C33 C 0.25027(10) 0.6280(2) 0.26877(9)
H31 H 0.2152 0.5543 0.2381
H32 H 0.2900 0.5661 0.3007
C34 C 0.22012(10) 0.7163(2) 0.30779(9)
H33 H 0.2461 0.8136 0.3262
H34 H 0.1717 0.7441 0.2774
C35 C 0.22402(11) 0.6149(3) 0.36474(10)
H35 H 0.2728 0.5943 0.3967
H36 H 0.2016 0.5140 0.3465
C36 C 0.18941(13) 0.6915(3) 0.40179(11)
H37 H 0.2126 0.7896 0.4215
H38 H 0.1926 0.6218 0.4368
H39 H 0.1411 0.7119 0.3705
C37 C 0.33404(9) 0.8377(2) 0.27455(8)
H40 H 0.3189 0.9010 0.3010
H41 H 0.3442 0.9098 0.2469
C38 C 0.40155(9) 0.7525(2) 0.32299(8)
H42 H 0.4276 0.7263 0.2995
H43 H 0.3903 0.6544 0.3380
C39 C 0.44686(10) 0.8559(3) 0.38441(8)
H44 H 0.4939 0.8127 0.4075
H45 H 0.4496 0.9616 0.3690
C40 C 0.41879(10) 0.8669(3) 0.43411(9)
H46 H 0.3736 0.9164 0.4125
H47 H 0.4503 0.9287 0.4725
H48 H 0.4148 0.7624 0.4487
O1 O 0.37515(6) 0.10245(18) 0.18413(6)
O2 O 0.43592(6) 0.0691(2) 0.12854(6)
C41 C 0.42900(9) 0.0634(2) 0.18066(9)
C42 C 0.49160(9) 0.0032(3) 0.24525(9)
H49 H 0.5256 -0.0411 0.2345
H50 H 0.4764 -0.0768 0.2655
H51 H 0.5122 0.0895 0.2764
loop_
_geom_bond_atom_site_label_1
_geom_bond_atom_site_label_2
_geom_bond_site_symmetry_1
_geom_bond_site_symmetry_2
N1 C1 1_555 1_555
N2 C8 1_555 1_555
N3 C14 1_555 1_555
N4 C22 1_555 1_555
C1 C2 1_555 1_555
C2 H1 1_555 1_555
C3 C2 1_555 1_555
H2 C3 1_555 1_555
C4 C3 1_555 1_555
H3 C4 1_555 1_555
C5 C4 1_555 1_555
H4 C5 1_555 1_555
C6 C1 1_555 1_555
C7 C6 1_555 1_555
C8 C7 1_555 1_555
C9 N2 1_555 1_555
C10 C9 1_555 1_555
H5 C10 1_555 1_555
C11 C10 1_555 1_555
H6 C11 1_555 1_555
C12 C11 1_555 1_555
H7 C12 1_555 1_555
C13 C12 1_555 1_555
H8 C13 1_555 1_555
C14 C9 1_555 1_555
C15 N3 1_555 1_555
C16 C15 1_555 1_555
C17 C16 1_555 1_555
C18 C17 1_555 1_555
H9 C18 1_555 1_555
C19 C18 1_555 1_555
H10 C19 1_555 1_555
C20 C19 1_555 1_555
H11 C20 1_555 1_555
C21 C20 1_555 1_555
H12 C21 1_555 1_555
C22 C17 1_555 1_555
C23 N4 1_555 1_555
C24 N1 1_555 1_555
N5 C25 1_555 1_555
C25 H13 1_555 1_555
H14 C25 1_555 1_555
C26 C25 1_555 1_555
H15 C26 1_555 1_555
H16 C26 1_555 1_555
C27 C26 1_555 1_555
H17 C27 1_555 1_555
H18 C27 1_555 1_555
C28 C27 1_555 1_555
H19 C28 1_555 1_555
H20 C28 1_555 1_555
H21 C28 1_555 1_555
C29 N5 1_555 1_555
H22 C29 1_555 1_555
H23 C29 1_555 1_555
C30 C29 1_555 1_555
H24 C30 1_555 1_555
H25 C30 1_555 1_555
C31 C30 1_555 1_555
H26 C31 1_555 1_555
H27 C31 1_555 1_555
C32 C31 1_555 1_555
H28 C32 1_555 1_555
H29 C32 1_555 1_555
H30 C32 1_555 1_555
C33 N5 1_555 1_555
H31 C33 1_555 1_555
H32 C33 1_555 1_555
C34 C33 1_555 1_555
H33 C34 1_555 1_555
H34 C34 1_555 1_555
C35 C34 1_555 1_555
H35 C35 1_555 1_555
H36 C35 1_555 1_555
C36 C35 1_555 1_555
H37 C36 1_555 1_555
H38 C36 1_555 1_555
H39 C36 1_555 1_555
C37 N5 1_555 1_555
H40 C37 1_555 1_555
H41 C37 1_555 1_555
C38 C37 1_555 1_555
H42 C38 1_555 1_555
H43 C38 1_555 1_555
C39 C38 1_555 1_555
H44 C39 1_555 1_555
H45 C39 1_555 1_555
C40 C39 1_555 1_555
H46 C40 1_555 1_555
H47 C40 1_555 1_555
H48 C40 1_555 1_555
O1 C41 1_555 1_555
O2 C41 1_555 1_555
C41 C42 1_555 1_555
C42 H49 1_555 1_555
H50 C42 1_555 1_555
H51 C42 1_555 1_555
H52 N1 1_555 1_555
H53 N4 1_555 1_555
C5 C6 1_555 1_555
C7 C24 1_555 1_555
C8 C15 1_555 1_555
C13 C14 1_555 1_555
C16 C23 1_555 1_555
C21 C22 1_555 1_555
C23 C24 1_555 1_555

#END
