
#######################################################################
#
#                 Cambridge Crystallographic Data Centre
#                                CCDC 
#
#######################################################################
#
# If this CIF has been generated from an entry in the Cambridge 
# Structural Database, then it will include bibliographic, chemical, 
# crystal, experimental, refinement or atomic coordinate data resulting 
# from the CCDC's data processing and validation procedures.
#
#######################################################################

data_FAHBOH
_chemical_formula_moiety         'C2 H7 N1 O6 P2 2-,C4 H12 N2 2+,H2 O1'
_chemical_name_systematic        
'Piperazine-1,4-diium (1-ammonio-1-(hydroxyphosphinato)ethyl)phosphonate monohydrate'
_symmetry_cell_setting           monoclinic
_symmetry_space_group_name_H-M   'P 21/n'
_symmetry_Int_Tables_number      14
_space_group_name_Hall           '-P 2yn'
loop_
_symmetry_equiv_pos_site_id
_symmetry_equiv_pos_as_xyz
1 x,y,z
2 1/2-x,1/2+y,1/2-z
3 -x,-y,-z
4 1/2+x,1/2-y,1/2+z
_cell_length_a                   5.7306(5)
_cell_length_b                   19.9861(18)
_cell_length_c                   11.2688(10)
_cell_angle_alpha                90
_cell_angle_beta                 101.3420(10)
_cell_angle_gamma                90
_cell_volume                     1265.44
_exptl_crystal_colour            colorless
_exptl_crystal_description       block
_cell_formula_units_Z            4
loop_
_atom_site_label
_atom_site_type_symbol
_atom_site_fract_x
_atom_site_fract_y
_atom_site_fract_z
C1 C 0.2993(2) 0.00279(5) 0.77207(10)
N1 N 0.56120(19) 0.00367(5) 0.82758(10)
H1 H 0.6238 -0.0363 0.8187
H2 H 0.5805 0.0134 0.9060
H3 H 0.6339 0.0345 0.7908
H12 H 0.064(5) 0.0732(13) 0.980(2)
C6 C 0.2787(3) -0.00442(7) 0.63496(12)
H15 H 0.3565 0.0327 0.6049
H16 H 0.1138 -0.0050 0.5962
H17 H 0.3530 -0.0454 0.6178
O1 O -0.09083(16) 0.08200(5) 0.74133(9)
O2 O 0.31671(17) 0.13891(5) 0.77509(9)
O3 O 0.18976(17) 0.08559(5) 0.94696(8)
O4 O 0.32451(16) -0.13035(5) 0.80998(8)
O5 O 0.17402(17) -0.06048(5) 0.96478(8)
O6 O -0.08657(16) -0.07741(4) 0.75874(9)
P1 P 0.16359(5) 0.082698(15) 0.80623(3)
P2 P 0.16727(5) -0.072433(15) 0.83079(3)
C2 C 0.2482(3) 0.73067(7) 0.15706(13)
H4 H 0.3757 0.7412 0.2248
H5 H 0.1038 0.7239 0.1883
C3 C 0.5206(3) 0.67789(7) 0.04430(14)
H6 H 0.5469 0.6377 0.0006
H7 H 0.6585 0.6846 0.1085
C4 C 0.4954(2) 0.73689(7) -0.04092(13)
H8 H 0.6452 0.7442 -0.0667
H9 H 0.3755 0.7268 -0.1122
C5 C 0.2131(3) 0.78865(7) 0.06912(14)
H10 H 0.0767 0.7799 0.0050
H11 H 0.1812 0.8291 0.1109
N2 N 0.3070(2) 0.66873(6) 0.09814(10)
H18 H 0.1829 0.6568 0.0399
H19 H 0.3335 0.6355 0.1531
N3 N 0.4274(2) 0.79870(5) 0.01589(11)
H20 H 0.3986 0.8313 -0.0401
H21 H 0.5493 0.8120 0.0743
H13 H 0.690(2) 0.1341(10) 0.6311(17)
H14 H 0.480(3) 0.1521(11) 0.6561(15)
O7 O 0.56372(19) 0.15566(6) 0.60260(9)
loop_
_geom_bond_atom_site_label_1
_geom_bond_atom_site_label_2
_geom_bond_site_symmetry_1
_geom_bond_site_symmetry_2
C1 N1 1_555 1_555
N1 H1 1_555 1_555
H2 N1 1_555 1_555
H3 N1 1_555 1_555
C2 H4 1_555 1_555
H5 C2 1_555 1_555
C3 H6 1_555 1_555
H7 C3 1_555 1_555
C4 C3 1_555 1_555
H8 C4 1_555 1_555
H9 C4 1_555 1_555
C5 C2 1_555 1_555
H10 C5 1_555 1_555
H11 C5 1_555 1_555
H12 O3 1_555 1_555
H13 O7 1_555 1_555
H14 O7 1_555 1_555
C6 C1 1_555 1_555
H15 C6 1_555 1_555
H16 C6 1_555 1_555
H17 C6 1_555 1_555
N2 C2 1_555 1_555
H18 N2 1_555 1_555
H19 N2 1_555 1_555
N3 C4 1_555 1_555
H20 N3 1_555 1_555
H21 N3 1_555 1_555
O1 P1 1_555 1_555
O2 P1 1_555 1_555
O3 P1 1_555 1_555
O4 P2 1_555 1_555
O5 P2 1_555 1_555
O6 P2 1_555 1_555
P1 C1 1_555 1_555
P2 C1 1_555 1_555
C3 N2 1_555 1_555
C5 N3 1_555 1_555

#END
