
#######################################################################
#
#                 Cambridge Crystallographic Data Centre
#                                CCDC 
#
#######################################################################
#
# If this CIF has been generated from an entry in the Cambridge 
# Structural Database, then it will include bibliographic, chemical, 
# crystal, experimental, refinement or atomic coordinate data resulting 
# from the CCDC's data processing and validation procedures.
#
#######################################################################

data_FAHBAT
_chemical_formula_moiety         'C3 H10 N1 O6 P2 1-,0.5(C4 H12 N2 2+)'
_chemical_name_systematic        
'hemikis(Piperazin-1,4-diium) (1-ammoniopropane-1,1-diyl)bis(hydrogen phosphonate)'
_symmetry_cell_setting           monoclinic
_symmetry_space_group_name_H-M   'C 2/c'
_symmetry_Int_Tables_number      15
_space_group_name_Hall           '-C 2yn'
loop_
_symmetry_equiv_pos_site_id
_symmetry_equiv_pos_as_xyz
1 x,y,z
2 -x,y,1/2-z
3 1/2+x,1/2+y,z
4 1/2-x,1/2+y,1/2-z
5 -x,-y,-z
6 x,-y,1/2+z
7 1/2-x,1/2-y,-z
8 1/2+x,1/2-y,1/2+z
_cell_length_a                   23.5570(17)
_cell_length_b                   5.7463(4)
_cell_length_c                   18.8938(13)
_cell_angle_alpha                90
_cell_angle_beta                 121.9600(10)
_cell_angle_gamma                90
_cell_volume                     2169.89
_exptl_crystal_colour            colorless
_exptl_crystal_description       block
_cell_formula_units_Z            8
loop_
_atom_site_label
_atom_site_type_symbol
_atom_site_fract_x
_atom_site_fract_y
_atom_site_fract_z
C1 C 0.08511(18) 0.3226(7) 0.3439(3)
H1 H 0.0595 0.3831 0.3659
H2 H 0.1118 0.1941 0.3776
H3 H 0.0554 0.2707 0.2877
C2 C 0.17443(7) 0.4563(3) 0.31249(9)
C3 C 0.12759(10) 0.5001(4) 0.34497(13)
H8 H 0.2840(16) 0.437(6) 0.5031(14)
H9 H 0.1826(15) 0.488(2) 0.1632(19)
N1 N 0.20029(7) 0.6913(2) 0.30628(8)
H10 H 0.2178 0.7654 0.3548
H11 H 0.1667 0.7748 0.2664
H12 H 0.2316 0.6721 0.2939
O1 O 0.22795(6) 0.0746(2) 0.41501(7)
O2 O 0.28793(6) 0.4636(2) 0.46192(7)
O3 O 0.29005(6) 0.2450(2) 0.35013(7)
O4 O 0.17751(7) 0.3494(2) 0.17376(8)
O5 O 0.06695(6) 0.4619(2) 0.15390(8)
O6 O 0.11970(6) 0.0706(2) 0.21490(7)
P1 P 0.24915(2) 0.28655(7) 0.38836(2)
P2 P 0.129527(19) 0.32432(7) 0.20707(2)
C4 C 0.05285(10) 0.8566(4) 0.00810(14)
H4 H 0.0284 0.7382 -0.0339
H5 H 0.1003 0.8234 0.0350
C5 C -0.03803(11) 0.9072(4) 0.03288(14)
H6 H -0.0488 0.9073 0.0758
H7 H -0.0654 0.7903 -0.0082
N2 N 0.03344(8) 0.8501(3) 0.07032(10)
H13 H 0.0585 0.9525 0.1113
H14 H 0.0415 0.7072 0.0932
C4D C -0.05285(10) 1.1434(4) -0.00810(14)
H4D H -0.0284 1.2618 0.0339
H5D H -0.1003 1.1766 -0.0350
C5D C 0.03803(11) 1.0928(4) -0.03288(14)
H6D H 0.0488 1.0927 -0.0758
H7D H 0.0654 1.2097 0.0082
N2D N -0.03344(8) 1.1499(3) -0.07032(10)
H13D H -0.0585 1.0475 -0.1113
H14D H -0.0415 1.2928 -0.0932
C6? C 0.0750(3) 0.6569(10) 0.3099(4)
H15? H 0.0492 0.6367 0.2505
H16? H 0.0923 0.8127 0.3230
H17? H 0.0471 0.6301 0.3320
loop_
_geom_bond_atom_site_label_1
_geom_bond_atom_site_label_2
_geom_bond_site_symmetry_1
_geom_bond_site_symmetry_2
C1 H1 1_555 1_555
H2 C1 1_555 1_555
H3 C1 1_555 1_555
C2 C3 1_555 1_555
C3 C1 1_555 1_555
C4 H4 1_555 1_555
H5 C4 1_555 1_555
C5 H6 1_555 1_555
H7 C5 1_555 1_555
H8 O2 1_555 1_555
H9 O4 1_555 1_555
N1 C2 1_555 1_555
H10 N1 1_555 1_555
H11 N1 1_555 1_555
H12 N1 1_555 1_555
N2 C4 1_555 1_555
H13 N2 1_555 1_555
H14 N2 1_555 1_555
O1 P1 1_555 1_555
O2 P1 1_555 1_555
O3 P1 1_555 1_555
O4 P2 1_555 1_555
O5 P2 1_555 1_555
O6 P2 1_555 1_555
P1 C2 1_555 1_555
P2 C2 1_555 1_555
C4D C5 1_555 1_555
H4D C4D 1_555 1_555
H5D C4D 1_555 1_555
C5D C4 1_555 1_555
H6D C5D 1_555 1_555
H7D C5D 1_555 1_555
N2D C4D 1_555 1_555
H13D N2D 1_555 1_555
H14D N2D 1_555 1_555
C5 N2 1_555 1_555
C5D N2D 1_555 1_555

#END
