
#######################################################################
#
#                 Cambridge Crystallographic Data Centre
#                                CCDC 
#
#######################################################################
#
# If this CIF has been generated from an entry in the Cambridge 
# Structural Database, then it will include bibliographic, chemical, 
# crystal, experimental, refinement or atomic coordinate data resulting 
# from the CCDC's data processing and validation procedures.
#
#######################################################################

data_FAHBUL
_chemical_compound_source        
'twigs of Agrostistachys hookeri Benth. and Hook.f.(Euphorbiaceae)'
_chemical_formula_moiety         'C20 H30 O3'
_chemical_name_systematic        Agrostistachin
_symmetry_cell_setting           orthorhombic
_symmetry_space_group_name_H-M   'P 21 21 21'
_symmetry_Int_Tables_number      19
_space_group_name_Hall           'P 2ac 2ab'
loop_
_symmetry_equiv_pos_site_id
_symmetry_equiv_pos_as_xyz
1 x,y,z
2 1/2+x,1/2-y,-z
3 -x,1/2+y,1/2-z
4 1/2-x,-y,1/2+z
_cell_length_a                   10.885
_cell_length_b                   12.009
_cell_length_c                   15.219
_cell_angle_alpha                90
_cell_angle_beta                 90
_cell_angle_gamma                90
_cell_volume                     1989.4
_exptl_crystal_colour            colorless
_chemical_melting_point          155-157deg.C
_cell_formula_units_Z            4
loop_
_atom_site_label
_atom_site_type_symbol
_atom_site_fract_x
_atom_site_fract_y
_atom_site_fract_z
C1 C -0.00351(84) 0.05980(72) 0.12766(65)
O1 O -0.10932(58) -0.00499(54) 0.10451(49)
C2 C -0.01951(82) 0.24693(73) 0.05034(63)
C3 C 0.23362(90) 0.12088(74) 0.20533(53)
C4 C 0.10564(23) -0.02006(74) 0.13940(62)
O2 O 0.14940(75) 0.41682(63) -0.11564(44)
C5 C 0.29589(86) 0.41389(78) 0.13419(60)
C6 C 0.12912(98) 0.37596(80) -0.02728(57)
C7 C 0.02139(82) 0.14162(77) 0.05172(59)
C8 C 0.22407(90) 0.01672(71) 0.17413(59)
O3 O 0.08658(72) -0.11767(54) 0.12048(56)
C9 C 0.36191(94) 0.28930(75) 0.25921(58)
C10 C 0.19907(85) 0.49560(75) 0.10188(61)
C11 C 0.12638(89) 0.47729(73) 0.03271(64)
C12 C 0.26267(97) 0.37137(72) 0.22848(55)
C13 C 0.00396(97) 0.31086(82) -0.03288(67)
C14 C 0.34966(95) 0.16361(72) 0.24494(60)
C15 C 0.3402(10) 0.21642(75) 0.33919(62)
C16 C 0.4568(10) 0.1949(10) 0.39699(73)
C17 C 0.1901(11) 0.60448(85) 0.15161(76)
C18 C -0.0884(10) 0.30207(84) 0.12651(77)
C19 C 0.2156(10) 0.21644(92) 0.38895(67)
C20 C 0.3277(10) -0.06994(85) 0.1740(10)
loop_
_geom_bond_atom_site_label_1
_geom_bond_atom_site_label_2
_geom_bond_site_symmetry_1
_geom_bond_site_symmetry_2
C1 O1 1_555 1_555
C2 C7 1_555 1_555
C3 C8 1_555 1_555
C4 C1 1_555 1_555
O2 C6 1_555 1_555
C5 C10 1_555 1_555
C6 C11 1_555 1_555
C7 C1 1_555 1_555
C8 C4 1_555 1_555
O3 C4 1_555 1_555
C9 C12 1_555 1_555
C10 C11 1_555 1_555
C12 C5 1_555 1_555
C13 C2 1_555 1_555
C14 C3 1_555 1_555
C15 C9 1_555 1_555
C16 C15 1_555 1_555
C17 C10 1_555 1_555
C18 C2 1_555 1_555
C19 C15 1_555 1_555
C20 C8 1_555 1_555
C6 C13 1_555 1_555
C9 C14 1_555 1_555
C14 C15 1_555 1_555

#END
