
#######################################################################
#
#                 Cambridge Crystallographic Data Centre
#                                CCDC 
#
#######################################################################
#
# If this CIF has been generated from an entry in the Cambridge 
# Structural Database, then it will include bibliographic, chemical, 
# crystal, experimental, refinement or atomic coordinate data resulting 
# from the CCDC's data processing and validation procedures.
#
#######################################################################

data_FAHDUN
_chemical_compound_source        
'roots of Tripterygium hypoglaucum (Levl) Hutch'
_chemical_formula_moiety         'C41 H47 N1 O19,2(C2 H6 O1)'
_chemical_name_systematic        'Wilforgine ethanol solvate'
_chemical_properties_biological  'antiinflammatory analgetic agent'
_symmetry_cell_setting           monoclinic
_symmetry_space_group_name_H-M   'P 21'
_symmetry_Int_Tables_number      4
_space_group_name_Hall           'P 2yb'
loop_
_symmetry_equiv_pos_site_id
_symmetry_equiv_pos_as_xyz
1 x,y,z
2 -x,1/2+y,-z
_cell_length_a                   10.044
_cell_length_b                   15.524
_cell_length_c                   16.333
_cell_angle_alpha                90
_cell_angle_beta                 107.35
_cell_angle_gamma                90
_cell_volume                     2430.82
_exptl_crystal_colour            colorless
_cell_formula_units_Z            2
_chemical_properties_physical    Efflorescent
loop_
_atom_site_label
_atom_site_type_symbol
_atom_site_fract_x
_atom_site_fract_y
_atom_site_fract_z
C1 C 0.2822(12) 0.3574(9) 0.7484(8)
C2 C 0.2315(14) 0.2769(9) 0.7012(8)
C3 C 0.1374(14) 0.2931(9) 0.6134(8)
C4 C 0.0264(14) 0.3658(9) 0.6056(8)
C5 C 0.0898(10) 0.4427(7) 0.6585(6)
C6 C -0.0084(12) 0.5208(10) 0.6582(8)
C7 C 0.0968(13) 0.5961(10) 0.6719(8)
C8 C 0.1825(15) 0.5949(10) 0.7629(8)
C9 C 0.2528(13) 0.5087(9) 0.7942(8)
C10 C 0.1725(13) 0.4249(10) 0.7518(9)
C11 C 0.1458(12) 0.6745(9) 0.8769(8)
C12 C 0.0395(21) 0.6969(15) 0.9241(13)
C13 C 0.4136(17) 0.5230(13) 0.9294(10)
C14 C 0.4360(21) 0.5218(15) 1.0235(11)
C15 C 0.0954(16) 0.3869(11) 0.8108(11)
C16 C -0.0921(17) 0.4231(12) 0.8691(10)
C17 C -0.2050(25) 0.4874(18) 0.8667(17)
C18 C 0.5063(14) 0.3182(9) 0.8393(9)
C19 C 0.5950(20) 0.3010(14) 0.9272(10)
C20 C 0.2042(17) 0.1495(11) 0.7796(12)
C21 C 0.1064(16) 0.1083(10) 0.8242(10)
C22 C 0.0015(16) 0.1388(12) 0.8384(11)
C23 C -0.0240(20) 0.0043(13) 0.8935(13)
C24 C 0.1216(26) 0.0195(13) 0.8561(13)
C25 C -0.1030(13) 0.3266(10) 0.6279(10)
C26 C -0.2518(14) 0.5361(10) 0.5807(10)
C27 C -0.3466(20) 0.5343(14) 0.4926(12)
C28 C 0.1827(14) 0.5750(10) 0.6101(9)
C29 C 0.3323(14) 0.6033(10) 0.6362(10)
C30 C 0.1082(15) 0.6039(11) 0.5227(9)
C31 C 0.1591(15) 0.5289(11) 0.4102(9)
C32 C 0.2472(11) 0.5252(8) 0.3486(7)
C33 C 0.3095(14) 0.6036(11) 0.3384(9)
C34 C 0.3943(17) 0.6037(14) 0.2831(11)
C35 C 0.4064(9) 0.5320(14) 0.2430(12)
C36 C 0.2653(12) 0.4565(8) 0.3048(8)
C37 C 0.2097(18) 0.3637(11) 0.3091(11)
C38 C 0.3169(14) 0.3061(9) 0.3666(8)
C39 C 0.3496(14) 0.3201(11) 0.4609(9)
C40 C 0.4857(20) 0.2826(15) 0.5155(13)
C41 C 0.2278(14) 0.2840(9) 0.4925(8)
N1 N 0.3466(11) 0.4576(7) 0.2511(6)
O1 O 0.0917(8) 0.6226(5) 0.8137(5)
O2 O 0.2603(11) 0.6994(8) 0.8998(7)
O3 O 0.2879(7) 0.5052(5) 0.8843(4)
O4 O 0.5098(9) 0.5345(8) 0.8981(6)
O5 O -0.0090(8) 0.4484(5) 0.8204(6)
O6 O -0.0712(13) 0.3600(9) 0.9057(9)
O7 O 0.3731(7) 0.3399(5) 0.8318(5)
O8 O 0.5436(8) 0.3134(6) 0.7765(6)
O9 O 0.1508(7) 0.2248(5) 0.7465(5)
O10 O 0.3141(14) 0.1243(8) 0.7835(11)
O11 O -0.0548(13) 0.0783(10) 0.8801(9)
O12 O -0.0294(7) 0.3853(5) 0.5167(4)
O13 O -0.1148(7) 0.5299(6) 0.5788(5)
O14 O -0.2755(9) 0.5426(9) 0.6451(7)
O15 O 0.1859(7) 0.4786(4) 0.6161(4)
O16 O 0.1910(8) 0.5920(5) 0.4633(5)
O17 O 0.0701(10) 0.4745(6) 0.4057(6)
O18 O 0.1511(9) 0.2276(6) 0.4600(6)
O19 O 0.2333(7) 0.3202(5) 0.5678(4)
loop_
_geom_bond_atom_site_label_1
_geom_bond_atom_site_label_2
_geom_bond_site_symmetry_1
_geom_bond_site_symmetry_2
C1 C2 1_555 1_555
C2 C3 1_555 1_555
C3 C4 1_555 1_555
C4 C5 1_555 1_555
C5 C6 1_555 1_555
C6 C7 1_555 1_555
C7 C8 1_555 1_555
C8 C9 1_555 1_555
C9 C10 1_555 1_555
C10 C1 1_555 1_555
C11 C12 1_555 1_555
C13 C14 1_555 1_555
C15 C10 1_555 1_555
C16 C17 1_555 1_555
C18 C19 1_555 1_555
C20 C21 1_555 1_555
C21 C22 1_555 1_555
C22 O11 1_555 1_555
C23 C24 1_555 1_555
C24 C21 1_555 1_555
C25 C4 1_555 1_555
C26 C27 1_555 1_555
C28 C7 1_555 1_555
C29 C28 1_555 1_555
C30 C28 1_555 1_555
C31 C32 1_555 1_555
C32 C33 1_555 1_555
C33 C34 1_555 1_555
C34 C35 1_555 1_555
C35 N1 1_555 1_555
C36 C32 1_555 1_555
C37 C36 1_555 1_555
C38 C37 1_555 1_555
C39 C38 1_555 1_555
C40 C39 1_555 1_555
C41 C39 1_555 1_555
N1 C36 1_555 1_555
O1 C8 1_555 1_555
O2 C11 1_555 1_555
O3 C9 1_555 1_555
O4 C13 1_555 1_555
O5 C15 1_555 1_555
O6 C16 1_555 1_555
O7 C1 1_555 1_555
O8 C18 1_555 1_555
O9 C2 1_555 1_555
O10 C20 1_555 1_555
O11 C23 1_555 1_555
O12 C4 1_555 1_555
O13 C6 1_555 1_555
O14 C26 1_555 1_555
O15 C5 1_555 1_555
O16 C30 1_555 1_555
O17 C31 1_555 1_555
O18 C41 1_555 1_555
O19 C3 1_555 1_555
C5 C10 1_555 1_555
C11 O1 1_555 1_555
C13 O3 1_555 1_555
C16 O5 1_555 1_555
C18 O7 1_555 1_555
C20 O9 1_555 1_555
C26 O13 1_555 1_555
C28 O15 1_555 1_555
C31 O16 1_555 1_555
C41 O19 1_555 1_555

#END
