
#######################################################################
#
#                 Cambridge Crystallographic Data Centre
#                                CCDC 
#
#######################################################################
#
# If this CIF has been generated from an entry in the Cambridge 
# Structural Database, then it will include bibliographic, chemical, 
# crystal, experimental, refinement or atomic coordinate data resulting 
# from the CCDC's data processing and validation procedures.
#
#######################################################################

data_FAHSUD
_chemical_formula_moiety         'C15 H14 Br2 O7,0.5(H2 O1)'
_chemical_name_systematic        
'rel-(4aS*,10aR*)-(+-)-6,7-dibromo-4a-hydroxy-3,8-dihydroxymethyl-10a-methoxy-1,4,4a,10a-tetrahydrodibenzo(b,e)(1,4)dioxin-1-one hemihydrate'
_symmetry_cell_setting           triclinic
_symmetry_space_group_name_H-M   'P -1'
_symmetry_Int_Tables_number      2
_space_group_name_Hall           '-P 1'
loop_
_symmetry_equiv_pos_site_id
_symmetry_equiv_pos_as_xyz
1 x,y,z
2 -x,-y,-z
_cell_length_a                   16.389(3)
_cell_length_b                   7.402(1)
_cell_length_c                   7.287(1)
_cell_angle_alpha                78.24(1)
_cell_angle_beta                 78.51(1)
_cell_angle_gamma                94.74(1)
_cell_volume                     841.071
_exptl_crystal_colour            brown
_chemical_melting_point          '193-195 deg.C'
_cell_formula_units_Z            2
_exptl_crystal_recrystallization_method acetone
loop_
_atom_site_label
_atom_site_type_symbol
_atom_site_fract_x
_atom_site_fract_y
_atom_site_fract_z
Br1 Br 0.9482(1) -0.1759(2) 0.3581(3)
Br2 Br 0.9786(1) 0.2717(2) 0.1404(3)
O1 O 1.1876(6) -0.4350(14) 0.3609(16)
O2 O 1.4289(8) 1.0120(18) -0.5768(25)
O3 O 1.4461(7) 0.3579(16) -0.2448(19)
O4 O 1.3060(6) 0.4823(14) 0.0757(16)
O5 O 1.2977(6) 0.1991(13) -0.0241(15)
O6 O 1.1594(6) 0.4079(12) -0.0357(15)
O7 O 1.2388(6) 0.3707(13) -0.3270(15)
C1 C 1.1247(9) -0.1548(19) 0.2494(22)
C2 C 1.0586(9) -0.0537(19) 0.2429(22)
C3 C 1.0680(8) 0.1401(18) 0.1477(22)
C4 C 1.1485(9) 0.2208(19) 0.0590(23)
C5 C 1.2166(8) 0.1235(20) 0.0615(22)
C6 C 1.2053(9) -0.0660(19) 0.1581(23)
C7 C 1.1145(9) -0.3602(20) 0.3468(23)
C8 C 1.3921(10) 0.4575(22) -0.2340(30)
C9 C 1.4009(10) 0.6494(22) -0.3480(30)
C10 C 1.3388(10) 0.7465(21) -0.3500(30)
C11 C 1.2484(9) 0.6728(19) -0.2407(23)
C12 C 1.2375(8) 0.4639(19) -0.1751(23)
C13 C 1.3087(9) 0.3975(20) -0.0890(30)
C14 C 1.3453(13) 0.9523(24) -0.4610(30)
C15 C 1.3753(11) 0.4520(30) 0.1740(30)
H1 H 1.242 -0.383 0.383
H2 H 1.461 0.883 -0.617
H3 H 1.230 0.483 -0.450
H4 H 1.260 -0.142 0.159
H5 H 1.083 -0.438 0.264
H6 H 1.077 -0.379 0.489
H7 H 1.463 0.711 -0.437
H8 H 1.234 0.734 -0.115
H9 H 1.206 0.717 -0.333
H10 H 1.331 1.046 -0.365
H11 H 1.300 0.967 -0.556
H12 H 1.423 0.409 0.072
H13 H 1.349 0.328 0.292
H14 H 1.393 0.573 0.222
O8 O 0.4507(20) 0.9880(40) 0.0400(60)
H15? H 0.408 0.917 0.083
H16? H 0.496 0.896 0.001
loop_
_geom_bond_atom_site_label_1
_geom_bond_atom_site_label_2
_geom_bond_site_symmetry_1
_geom_bond_site_symmetry_2
Br1 C2 1_555 1_555
Br2 C3 1_555 1_555
O1 C7 1_555 1_555
O2 C14 1_555 1_555
O3 C8 1_555 1_555
O4 C13 1_555 1_555
O5 C5 1_555 1_555
O6 C4 1_555 1_555
O7 C12 1_555 1_555
C1 C2 1_555 1_555
C2 C3 1_555 1_555
C3 C4 1_555 1_555
C4 C5 1_555 1_555
C5 C6 1_555 1_555
C6 C1 1_555 1_555
C7 C1 1_555 1_555
C8 C9 1_555 1_555
C9 C10 1_555 1_555
C10 C11 1_555 1_555
C11 C12 1_555 1_555
C12 O6 1_555 1_555
C13 O5 1_555 1_555
C14 C10 1_555 1_555
C15 O4 1_555 1_555
H1 O1 1_555 1_555
H2 O2 1_555 1_555
H3 O7 1_555 1_555
H4 C6 1_555 1_555
H5 C7 1_555 1_555
H6 C7 1_555 1_555
H7 C9 1_555 1_555
H8 C11 1_555 1_555
H9 C11 1_555 1_555
H10 C14 1_555 1_555
H11 C14 1_555 1_555
H12 C15 1_555 1_555
H13 C15 1_555 1_555
H14 C15 1_555 1_555
C8 C13 1_555 1_555
C12 C13 1_555 1_555

#END
