
#######################################################################
#
#                 Cambridge Crystallographic Data Centre
#                                CCDC 
#
#######################################################################
#
# If this CIF has been generated from an entry in the Cambridge 
# Structural Database, then it will include bibliographic, chemical, 
# crystal, experimental, refinement or atomic coordinate data resulting 
# from the CCDC's data processing and validation procedures.
#
#######################################################################

data_FAHYAR
_chemical_formula_moiety         'C11 H16 N2 O1 S1'
_chemical_name_systematic        2-(t-Butylsulfanyl)-N-(pyridin-3-yl)acetamide
_symmetry_cell_setting           monoclinic
_symmetry_space_group_name_H-M   'P 21/c'
_symmetry_Int_Tables_number      14
_space_group_name_Hall           '-P 2ybc'
loop_
_symmetry_equiv_pos_site_id
_symmetry_equiv_pos_as_xyz
1 x,y,z
2 -x,1/2+y,1/2-z
3 -x,-y,-z
4 x,1/2-y,1/2+z
_cell_length_a                   11.893(10)
_cell_length_b                   9.067(8)
_cell_length_c                   11.931(10)
_cell_angle_alpha                90
_cell_angle_beta                 106.043(12)
_cell_angle_gamma                90
_cell_volume                     1236.46
_exptl_crystal_colour            colorless
_exptl_crystal_description       block
_cell_formula_units_Z            4
loop_
_atom_site_label
_atom_site_type_symbol
_atom_site_fract_x
_atom_site_fract_y
_atom_site_fract_z
S1 S 0.25897(17) 0.1622(2) 1.09404(18)
O1 O 0.3508(4) -0.0497(6) 0.8869(4)
N1 N 0.1240(6) -0.3233(6) 0.6616(5)
N2 N 0.2109(5) -0.1569(5) 0.9544(5)
H1 H 0.1867 -0.1672 1.0155
C1 C 0.1857(6) -0.2512(7) 0.7556(5)
H2 H 0.2574 -0.2108 0.7549
C2 C 0.1478(6) -0.2338(7) 0.8540(5)
C3 C 0.0408(7) -0.2922(8) 0.8528(7)
H3 H 0.0118 -0.2821 0.9172
C4 C -0.0223(7) -0.3651(9) 0.7557(7)
H4 H -0.0945 -0.4062 0.7536
C5 C 0.0209(7) -0.3772(8) 0.6624(7)
H5 H -0.0237 -0.4253 0.5962
C6 C 0.3050(6) -0.0689(7) 0.9657(6)
C7 C 0.3460(6) 0.0047(7) 1.0814(5)
H6 H 0.4266 0.0356 1.0937
H7 H 0.3438 -0.0657 1.1420
C8 C 0.3360(8) 0.3209(8) 1.0580(7)
C9 C 0.4514(8) 0.3391(10) 1.1543(10)
H8 H 0.4858 0.4327 1.1455
H9 H 0.5043 0.2614 1.1482
H10 H 0.4363 0.3346 1.2292
C10 C 0.3564(13) 0.3066(12) 0.9408(9)
H11 H 0.2825 0.3041 0.8821
H12 H 0.3985 0.2171 0.9376
H13 H 0.4011 0.3894 0.9272
C11 C 0.2625(10) 0.4466(10) 1.0668(10)
H14 H 0.3043 0.5364 1.0637
H15 H 0.2424 0.4419 1.1393
H16 H 0.1924 0.4444 1.0032
loop_
_geom_bond_atom_site_label_1
_geom_bond_atom_site_label_2
_geom_bond_site_symmetry_1
_geom_bond_site_symmetry_2
S1 C7 1_555 1_555
O1 C6 1_555 1_555
N1 C1 1_555 1_555
N2 H1 1_555 1_555
C1 H2 1_555 1_555
C2 N2 1_555 1_555
C3 C2 1_555 1_555
H3 C3 1_555 1_555
C4 C3 1_555 1_555
H4 C4 1_555 1_555
C5 N1 1_555 1_555
H5 C5 1_555 1_555
C6 N2 1_555 1_555
C7 C6 1_555 1_555
H6 C7 1_555 1_555
H7 C7 1_555 1_555
C8 S1 1_555 1_555
C9 C8 1_555 1_555
H8 C9 1_555 1_555
H9 C9 1_555 1_555
H10 C9 1_555 1_555
C10 C8 1_555 1_555
H11 C10 1_555 1_555
H12 C10 1_555 1_555
H13 C10 1_555 1_555
C11 C8 1_555 1_555
H14 C11 1_555 1_555
H15 C11 1_555 1_555
H16 C11 1_555 1_555
C1 C2 1_555 1_555
C4 C5 1_555 1_555

#END
