
#######################################################################
#
#                 Cambridge Crystallographic Data Centre
#                                CCDC 
#
#######################################################################
#
# If this CIF has been generated from an entry in the Cambridge 
# Structural Database, then it will include bibliographic, chemical, 
# crystal, experimental, refinement or atomic coordinate data resulting 
# from the CCDC's data processing and validation procedures.
#
#######################################################################

data_FAJBOK01
_chemical_formula_moiety         'C22 H22 N2 O2'
_chemical_name_systematic        
5,6-Di-n-propylphthalazino[2,3-a]cinnoline-8,13-dione
_symmetry_cell_setting           monoclinic
_symmetry_space_group_name_H-M   'P 21/n'
_symmetry_Int_Tables_number      14
_space_group_name_Hall           '-P 2yn'
loop_
_symmetry_equiv_pos_site_id
_symmetry_equiv_pos_as_xyz
1 x,y,z
2 1/2-x,1/2+y,1/2-z
3 -x,-y,-z
4 1/2+x,1/2-y,1/2+z
_cell_length_a                   8.8711(7)
_cell_length_b                   8.6175(6)
_cell_length_c                   23.698(2)
_cell_angle_alpha                90
_cell_angle_beta                 99.672(4)
_cell_angle_gamma                90
_cell_volume                     1785.88
_exptl_crystal_colour            orange
_exptl_crystal_description       block
_cell_formula_units_Z            4
loop_
_atom_site_label
_atom_site_type_symbol
_atom_site_fract_x
_atom_site_fract_y
_atom_site_fract_z
C1 C -0.0632(2) 0.3401(2) 0.06495(10)
H1 H -0.1029 0.3292 0.0244
H2 H -0.1352 0.4034 0.0814
C2 C 0.0105(2) 0.6434(3) 0.13449(9)
H3 H -0.0774 0.5785 0.1372
H4 H -0.0267 0.7388 0.1153
C3 C -0.0576(3) 0.1802(3) 0.09234(13)
H5 H -0.1598 0.1365 0.0859
H6 H 0.0067 0.1134 0.0735
C4 C 0.0925(3) 0.6819(3) 0.19488(11)
H7 H 0.1694 0.7601 0.1920
H8 H 0.0188 0.7271 0.2160
C5 C 0.1672(4) 0.5497(5) 0.22811(11)
H9 H 0.2164 0.5854 0.2650
H10 H 0.2419 0.5047 0.2081
H11 H 0.0917 0.4731 0.2328
C6 C 0.0012(4) 0.1802(4) 0.15434(17)
H12 H 0.0027 0.0759 0.1687
H13 H -0.0638 0.2430 0.1736
H14 H 0.1031 0.2218 0.1612
N1 N 0.38243(15) 0.52725(16) 0.10830(6)
N2 N 0.25819(16) 0.63184(16) 0.09974(6)
O1 O 0.17675(16) 0.87531(16) 0.07850(7)
C7 C 0.53518(19) 0.7336(2) 0.15617(7)
C8 C 0.08719(19) 0.4259(2) 0.07134(7)
C9 C 0.4304(2) 0.8411(2) 0.12868(7)
O2 O 0.61735(15) 0.47147(16) 0.15763(6)
C10 C 0.5168(2) 0.5669(2) 0.14328(8)
C11 C 0.21374(19) 0.3577(2) 0.04659(7)
C12 C 0.2802(2) 0.7886(2) 0.09832(8)
C13 C 0.36383(19) 0.40445(19) 0.06747(7)
C14 C 0.11139(19) 0.5610(2) 0.09891(8)
C15 C 0.4611(2) 0.9990(2) 0.13425(8)
H15 H 0.3922 1.0707 0.1153
C16 C 0.6675(2) 0.7856(2) 0.19067(9)
H16 H 0.7372 0.7146 0.2096
C17 C 0.4621(2) 0.2265(2) 0.00602(9)
H17 H 0.5446 0.1813 -0.0073
C18 C 0.4873(2) 0.3395(2) 0.04766(8)
H18 H 0.5863 0.3716 0.0622
C19 C 0.1931(2) 0.2441(2) 0.00413(8)
H19 H 0.0947 0.2111 -0.0109
C20 C 0.6954(3) 0.9419(3) 0.19691(10)
H20 H 0.7831 0.9763 0.2207
C21 C 0.5940(3) 1.0488(2) 0.16794(10)
H21 H 0.6157 1.1543 0.1713
C22 C 0.3160(3) 0.1801(2) -0.01595(9)
H22 H 0.2999 0.1050 -0.0445
loop_
_geom_bond_atom_site_label_1
_geom_bond_atom_site_label_2
_geom_bond_site_symmetry_1
_geom_bond_site_symmetry_2
C1 H1 1_555 1_555
H2 C1 1_555 1_555
C2 H3 1_555 1_555
H4 C2 1_555 1_555
C3 C1 1_555 1_555
H5 C3 1_555 1_555
H6 C3 1_555 1_555
C4 C2 1_555 1_555
H7 C4 1_555 1_555
H8 C4 1_555 1_555
C5 C4 1_555 1_555
H9 C5 1_555 1_555
H10 C5 1_555 1_555
H11 C5 1_555 1_555
C6 C3 1_555 1_555
H12 C6 1_555 1_555
H13 C6 1_555 1_555
H14 C6 1_555 1_555
N1 N2 1_555 1_555
N2 C12 1_555 1_555
O1 C12 1_555 1_555
C7 C9 1_555 1_555
C8 C1 1_555 1_555
C9 C12 1_555 1_555
O2 C10 1_555 1_555
C10 N1 1_555 1_555
C11 C8 1_555 1_555
C13 N1 1_555 1_555
C14 C2 1_555 1_555
C15 C9 1_555 1_555
H15 C15 1_555 1_555
C16 C7 1_555 1_555
H16 C16 1_555 1_555
C17 H17 1_555 1_555
C18 C13 1_555 1_555
H18 C18 1_555 1_555
C19 C11 1_555 1_555
H19 C19 1_555 1_555
C20 C16 1_555 1_555
H20 C20 1_555 1_555
C21 C15 1_555 1_555
H21 C21 1_555 1_555
C22 C17 1_555 1_555
H22 C22 1_555 1_555
N2 C14 1_555 1_555
C7 C10 1_555 1_555
C8 C14 1_555 1_555
C11 C13 1_555 1_555
C17 C18 1_555 1_555
C19 C22 1_555 1_555
C20 C21 1_555 1_555

#END
