
#######################################################################
#
#                 Cambridge Crystallographic Data Centre
#                                CCDC 
#
#######################################################################
#
# If this CIF has been generated from an entry in the Cambridge 
# Structural Database, then it will include bibliographic, chemical, 
# crystal, experimental, refinement or atomic coordinate data resulting 
# from the CCDC's data processing and validation procedures.
#
#######################################################################

data_FAJFOL
_chemical_formula_moiety         'C23 H20 N2 O8,C3 H7 N1 O1'
_chemical_name_systematic        
"2',3'-O-Dibenzoyl-uridine N,N-dimethylformamide solvate"
_symmetry_cell_setting           triclinic
_symmetry_space_group_name_H-M   'P 1'
_symmetry_Int_Tables_number      1
_space_group_name_Hall           'P 1'
loop_
_symmetry_equiv_pos_site_id
_symmetry_equiv_pos_as_xyz
1 x,y,z
_cell_length_a                   5.734(1)
_cell_length_b                   10.124(3)
_cell_length_c                   11.905(3)
_cell_angle_alpha                73.07(2)
_cell_angle_beta                 84.36(2)
_cell_angle_gamma                81.61(2)
_cell_volume                     652.933
_exptl_crystal_colour            colorless
_chemical_melting_point          187-189deg.C
_cell_formula_units_Z            1
loop_
_atom_site_label
_atom_site_type_symbol
_atom_site_fract_x
_atom_site_fract_y
_atom_site_fract_z
N1 N 1.0664(8) 0.6925(4) 0.9214(4)
C1 C 1.2750(10) 0.6301(6) 0.8856(5)
N2 N 1.2924(9) 0.4869(5) 0.9175(5)
C2 C 1.1208(11) 0.4059(6) 0.9792(6)
C3 C 0.9069(12) 0.4803(6) 1.0134(6)
C4 C 0.8880(10) 0.6206(6) 0.9837(5)
C5 C 0.7861(11) 1.0121(6) 0.6134(6)
C6 C 0.8971(13) 1.0308(6) 0.4961(6)
C7 C 1.1264(11) 0.9809(7) 0.4745(6)
C8 C 1.2152(17) 0.9971(9) 0.3598(8)
C9 C 1.0836(19) 1.0667(10) 0.2657(8)
C10 C 0.8589(20) 1.1211(9) 0.2873(7)
C11 C 0.7573(15) 1.1048(7) 0.4014(6)
O1 O 1.4329(8) 0.6901(4) 0.8304(4)
O2 O 1.1599(10) 0.2787(4) 0.9996(5)
O3 O 0.5799(9) 1.0524(6) 0.6369(5)
C12 C 1.0368(10) 0.8456(5) 0.8964(5)
C13 C 0.8378(9) 0.9215(5) 0.8169(5)
C14 C 0.7659(10) 1.0539(5) 0.8549(5)
C15 C 0.8232(11) 1.0095(5) 0.9848(5)
O4 O 0.9607(9) 0.8740(5) 1.0050(4)
C16 C 0.6088(13) 0.9981(8) 1.0660(7)
C17 C 0.8526(11) 1.2865(6) 0.7846(5)
C18 C 1.0113(12) 1.3812(6) 0.7065(4)
C19 C 1.2188(12) 1.3345(7) 0.6545(7)
C20 C 1.3615(15) 1.4288(9) 0.5867(8)
C21 C 1.2948(18) 1.5713(9) 0.5699(8)
C22 C 1.0893(19) 1.6141(7) 0.6199(8)
C23 C 0.9430(15) 1.5244(6) 0.6913(7)
O5 O 0.9281(7) 0.9410(4) 0.6986(4)
O6 O 0.9226(7) 1.1527(4) 0.7848(4)
O7 O 0.4591(12) 0.9160(8) 1.0337(6)
O8 O 0.6841(8) 1.3189(4) 0.8420(5)
C24 C 0.2116(23) 0.6593(14) 0.2310(12)
N3 N 0.1223(14) 0.5456(9) 0.2839(7)
C25 C -0.1040(30) 0.5475(31) 0.3389(16)
C26 C 0.2701(38) 0.4173(15) 0.2756(15)
O9 O 0.4113(16) 0.6517(10) 0.1750(9)
loop_
_geom_bond_atom_site_label_1
_geom_bond_atom_site_label_2
_geom_bond_site_symmetry_1
_geom_bond_site_symmetry_2
N1 C1 1_555 1_555
C1 N2 1_555 1_555
N2 C2 1_555 1_555
C2 C3 1_555 1_555
C3 C4 1_555 1_555
C4 N1 1_555 1_555
C5 C6 1_555 1_555
C6 C7 1_555 1_555
C7 C8 1_555 1_555
C8 C9 1_555 1_555
C9 C10 1_555 1_555
C10 C11 1_555 1_555
C11 C6 1_555 1_555
O1 C1 1_555 1_555
O2 C2 1_555 1_555
O3 C5 1_555 1_555
C12 N1 1_555 1_555
C13 C12 1_555 1_555
C14 C13 1_555 1_555
C15 C14 1_555 1_555
O4 C12 1_555 1_555
C16 C15 1_555 1_555
C17 C18 1_555 1_555
C18 C19 1_555 1_555
C19 C20 1_555 1_555
C20 C21 1_555 1_555
C21 C22 1_555 1_555
C22 C23 1_555 1_555
C23 C18 1_555 1_555
O5 C5 1_555 1_555
O6 C14 1_555 1_555
O7 C16 1_555 1_555
O8 C17 1_555 1_555
C24 N3 1_555 1_555
N3 C25 1_555 1_555
C26 N3 1_555 1_555
O9 C24 1_555 1_555
C13 O5 1_555 1_555
C15 O4 1_555 1_555
C17 O6 1_555 1_555

#END
