
#######################################################################
#
#                 Cambridge Crystallographic Data Centre
#                                CCDC 
#
#######################################################################
#
# If this CIF has been generated from an entry in the Cambridge 
# Structural Database, then it will include bibliographic, chemical, 
# crystal, experimental, refinement or atomic coordinate data resulting 
# from the CCDC's data processing and validation procedures.
#
#######################################################################

data_FAJGIJ
_chemical_formula_moiety         'C14 H14 N4 O3'
_chemical_name_systematic        
2-amino-3-((2,3,4-trimethoxybenzylidene)amino)but-2-enedinitrile
_symmetry_cell_setting           monoclinic
_symmetry_space_group_name_H-M   'P 21/c'
_symmetry_Int_Tables_number      14
_space_group_name_Hall           '-P 2ybc'
loop_
_symmetry_equiv_pos_site_id
_symmetry_equiv_pos_as_xyz
1 x,y,z
2 -x,1/2+y,1/2-z
3 -x,-y,-z
4 x,1/2-y,1/2+z
_cell_length_a                   14.0220(4)
_cell_length_b                   7.4166(2)
_cell_length_c                   13.7583(4)
_cell_angle_alpha                90
_cell_angle_beta                 90.411(3)
_cell_angle_gamma                90
_cell_volume                     1430.77
_cell_formula_units_Z            4
loop_
_atom_site_label
_atom_site_type_symbol
_atom_site_fract_x
_atom_site_fract_y
_atom_site_fract_z
O1 O 0.32752(7) -0.04738(13) 0.23688(7)
O2 O 0.41805(7) 0.12362(13) 0.08709(7)
O3 O 0.39816(7) 0.48027(13) 0.06013(7)
N1 N 0.16571(8) 0.22142(16) 0.43498(8)
N2 N 0.07829(9) 0.40332(16) 0.58796(9)
H1 H 0.1039 0.4685 0.5415
H2 H 0.0502 0.4566 0.6372
N3 N 0.13579(9) -0.22104(18) 0.51133(9)
N4 N 0.00057(10) 0.05349(18) 0.72510(9)
C1 C 0.31390(10) 0.13550(19) 0.22346(10)
C2 C 0.35907(10) 0.22184(19) 0.14717(9)
C3 C 0.34827(10) 0.40794(19) 0.13526(10)
C4 C 0.29099(10) 0.5058(2) 0.19885(10)
H3 H 0.2835 0.6322 0.1909
C5 C 0.24515(10) 0.41703(19) 0.27370(10)
H4 H 0.2056 0.4838 0.3164
C6 C 0.25567(10) 0.23134(19) 0.28784(10)
C7 C 0.41583(11) -0.0845(2) 0.28570(11)
H5 H 0.4202 -0.2138 0.2997
H6 H 0.4188 -0.0165 0.3467
H7 H 0.4690 -0.0487 0.2441
C8 C 0.37971(10) 0.1012(2) -0.00966(10)
H8 H 0.4225 0.0245 -0.0476
H9 H 0.3739 0.2194 -0.0411
H10 H 0.3167 0.0446 -0.0061
C9 C 0.39604(11) 0.67239(19) 0.04928(11)
H11 H 0.4384 0.7080 -0.0037
H12 H 0.4175 0.7293 0.1099
H13 H 0.3308 0.7113 0.0343
C10 C 0.20893(10) 0.1360(2) 0.36702(10)
H14 H 0.2105 0.0080 0.3684
C11 C 0.12399(10) 0.12611(19) 0.51079(10)
C12 C 0.08214(10) 0.2230(2) 0.58376(10)
C13 C 0.12768(10) -0.0667(2) 0.51467(10)
C14 C 0.03739(10) 0.1273(2) 0.66279(11)
loop_
_geom_bond_atom_site_label_1
_geom_bond_atom_site_label_2
_geom_bond_site_symmetry_1
_geom_bond_site_symmetry_2
O1 C1 1_555 1_555
O2 C2 1_555 1_555
O3 C3 1_555 1_555
N1 C10 1_555 1_555
N2 H1 1_555 1_555
H2 N2 1_555 1_555
N3 C13 1_555 1_555
N4 C14 1_555 1_555
C1 C2 1_555 1_555
C2 C3 1_555 1_555
C3 C4 1_555 1_555
C4 H3 1_555 1_555
C5 C4 1_555 1_555
H4 C5 1_555 1_555
C6 C1 1_555 1_555
C7 O1 1_555 1_555
H5 C7 1_555 1_555
H6 C7 1_555 1_555
H7 C7 1_555 1_555
C8 O2 1_555 1_555
H8 C8 1_555 1_555
H9 C8 1_555 1_555
H10 C8 1_555 1_555
C9 O3 1_555 1_555
H11 C9 1_555 1_555
H12 C9 1_555 1_555
H13 C9 1_555 1_555
C10 C6 1_555 1_555
H14 C10 1_555 1_555
C11 N1 1_555 1_555
C12 N2 1_555 1_555
C13 C11 1_555 1_555
C14 C12 1_555 1_555
C5 C6 1_555 1_555
C11 C12 1_555 1_555

#END
