
#######################################################################
#
#                 Cambridge Crystallographic Data Centre
#                                CCDC 
#
#######################################################################
#
# If this CIF has been generated from an entry in the Cambridge 
# Structural Database, then it will include bibliographic, chemical, 
# crystal, experimental, refinement or atomic coordinate data resulting 
# from the CCDC's data processing and validation procedures.
#
#######################################################################

data_FAJHII
_chemical_formula_moiety         'C16 H18 O3 S1'
_chemical_name_systematic        2-Phenyl-1-(p-toluenesulfonyl)propan-2-ol
_symmetry_cell_setting           orthorhombic
_symmetry_space_group_name_H-M   'P b c a'
_symmetry_Int_Tables_number      61
_space_group_name_Hall           '-P 2ac 2ab'
loop_
_symmetry_equiv_pos_site_id
_symmetry_equiv_pos_as_xyz
1 x,y,z
2 1/2-x,-y,1/2+z
3 -x,1/2+y,1/2-z
4 1/2+x,1/2-y,-z
5 -x,-y,-z
6 1/2+x,y,1/2-z
7 x,1/2-y,1/2+z
8 1/2-x,1/2+y,z
_cell_length_a                   10.199(3)
_cell_length_b                   16.367(6)
_cell_length_c                   17.701(5)
_cell_angle_alpha                90
_cell_angle_beta                 90
_cell_angle_gamma                90
_cell_volume                     2954.78
_exptl_crystal_colour            colorless
_exptl_crystal_description       plate
_cell_formula_units_Z            8
loop_
_atom_site_label
_atom_site_type_symbol
_atom_site_fract_x
_atom_site_fract_y
_atom_site_fract_z
S1 S 0.07231(17) 0.16822(9) 0.30862(8)
O1 O -0.0127(4) 0.1854(2) 0.3715(2)
O2 O 0.0234(4) 0.1199(2) 0.2468(2)
O3 O 0.1573(4) 0.1078(2) 0.47645(19)
H1 H 0.0867 0.1294 0.4669
C1 C 0.2781(6) 0.2275(3) 0.4368(3)
C2 C 0.3754(6) 0.2665(3) 0.3943(3)
H2 H 0.4225 0.2370 0.3585
C3 C 0.4024(7) 0.3488(4) 0.4050(3)
H3 H 0.4656 0.3742 0.3753
C4 C 0.3370(7) 0.3929(4) 0.4588(4)
H4 H 0.3568 0.4477 0.4668
C5 C 0.2417(7) 0.3549(4) 0.5006(3)
H5 H 0.1954 0.3845 0.5366
C6 C 0.2136(6) 0.2731(3) 0.4898(3)
H6 H 0.1494 0.2485 0.5193
C7 C 0.2543(7) 0.1371(3) 0.4255(3)
C8 C 0.3784(6) 0.0886(3) 0.4432(3)
H7 H 0.3599 0.0312 0.4401
H8 H 0.4078 0.1017 0.4933
H9 H 0.4456 0.1025 0.4075
C9 C 0.2132(6) 0.1166(3) 0.3445(3)
H10 H 0.1970 0.0583 0.3417
H11 H 0.2865 0.1284 0.3114
C10 C 0.1278(6) 0.2607(3) 0.2703(3)
C11 C 0.2036(6) 0.2589(3) 0.2050(3)
H12 H 0.2291 0.2093 0.1840
C12 C 0.2403(6) 0.3311(4) 0.1719(3)
H13 H 0.2916 0.3298 0.1285
C13 C 0.2029(6) 0.4058(3) 0.2015(3)
C14 C 0.1305(7) 0.4069(3) 0.2669(3)
H14 H 0.1072 0.4567 0.2882
C15 C 0.0913(6) 0.3347(3) 0.3019(3)
H15 H 0.0413 0.3361 0.3458
C16 C 0.2415(7) 0.4843(4) 0.1623(3)
H16 H 0.2903 0.4718 0.1174
H17 H 0.2947 0.5167 0.1955
H18 H 0.1640 0.5144 0.1490
loop_
_geom_bond_atom_site_label_1
_geom_bond_atom_site_label_2
_geom_bond_site_symmetry_1
_geom_bond_site_symmetry_2
S1 O1 1_555 1_555
O2 S1 1_555 1_555
O3 H1 1_555 1_555
C1 C2 1_555 1_555
C2 H2 1_555 1_555
C3 C2 1_555 1_555
H3 C3 1_555 1_555
C4 C3 1_555 1_555
H4 C4 1_555 1_555
C5 C4 1_555 1_555
H5 C5 1_555 1_555
C6 C1 1_555 1_555
H6 C6 1_555 1_555
C7 O3 1_555 1_555
C8 C7 1_555 1_555
H7 C8 1_555 1_555
H8 C8 1_555 1_555
H9 C8 1_555 1_555
C9 S1 1_555 1_555
H10 C9 1_555 1_555
H11 C9 1_555 1_555
C10 S1 1_555 1_555
C11 C10 1_555 1_555
H12 C11 1_555 1_555
C12 C11 1_555 1_555
H13 C12 1_555 1_555
C13 C12 1_555 1_555
C14 C13 1_555 1_555
H14 C14 1_555 1_555
C15 C10 1_555 1_555
H15 C15 1_555 1_555
C16 C13 1_555 1_555
H16 C16 1_555 1_555
H17 C16 1_555 1_555
H18 C16 1_555 1_555
C1 C7 1_555 1_555
C5 C6 1_555 1_555
C7 C9 1_555 1_555
C14 C15 1_555 1_555

#END
