
#######################################################################
#
#                 Cambridge Crystallographic Data Centre
#                                CCDC 
#
#######################################################################
#
# If this CIF has been generated from an entry in the Cambridge 
# Structural Database, then it will include bibliographic, chemical, 
# crystal, experimental, refinement or atomic coordinate data resulting 
# from the CCDC's data processing and validation procedures.
#
#######################################################################

data_FAJHEG
_chemical_formula_moiety         'C22 H24 Br2 N2'
_chemical_name_systematic        
7'-Bromo-1-(4-bromophenyl)-3a'-methyl-2',3',3a',4'-tetrahydro-1'H-spiro[pyrrolidine-2,5'-pyrrolo[1,2-a]quinoline]
_symmetry_cell_setting           triclinic
_symmetry_space_group_name_H-M   'P -1'
_symmetry_Int_Tables_number      2
_space_group_name_Hall           '-P 1'
loop_
_symmetry_equiv_pos_site_id
_symmetry_equiv_pos_as_xyz
1 x,y,z
2 -x,-y,-z
_cell_length_a                   9.1241(2)
_cell_length_b                   10.2171(2)
_cell_length_c                   11.3635(8)
_cell_angle_alpha                78.194(6)
_cell_angle_beta                 82.379(6)
_cell_angle_gamma                72.418(5)
_cell_volume                     985.628
_exptl_crystal_colour            colorless
_exptl_crystal_description       Block
_cell_formula_units_Z            2
loop_
_atom_site_label
_atom_site_type_symbol
_atom_site_fract_x
_atom_site_fract_y
_atom_site_fract_z
Br1 Br 0.28391(7) 0.48347(7) 1.04692(5)
Br2 Br 0.43811(5) 0.22456(5) 0.36831(4)
N1 N 0.1753(4) 0.0413(3) 0.8106(3)
C1 C -0.2788(7) 0.0741(5) 0.6516(5)
H1 H -0.3705 0.1200 0.6099
H2 H -0.2959 -0.0020 0.7115
H3 H -0.1951 0.0393 0.5951
C2 C -0.4659(6) 0.3746(6) 0.6767(5)
H4 H -0.5438 0.3461 0.6462
H5 H -0.5148 0.4612 0.7064
C3 C -0.3851(5) 0.2611(6) 0.7771(4)
H6 H -0.3597 0.3022 0.8386
H7 H -0.4500 0.2019 0.8143
C4 C -0.2388(5) 0.1781(4) 0.7128(3)
C5 C -0.1060(5) 0.1110(4) 0.7933(3)
H8 H -0.1267 0.0307 0.8470
H9 H -0.1030 0.1770 0.8427
C6 C 0.0533(5) 0.0639(4) 0.7270(3)
C7 C 0.1969(4) 0.1430(4) 0.8628(3)
C8 C 0.1285(5) 0.2867(4) 0.8246(4)
H10 H 0.0650 0.3151 0.7611
C9 C 0.1534(5) 0.3857(5) 0.8789(4)
H11 H 0.1070 0.4798 0.8518
C10 C 0.2472(5) 0.3459(5) 0.9735(4)
C11 C 0.0722(4) 0.1662(4) 0.6119(3)
C12 C 0.2166(5) 0.1573(4) 0.5536(3)
H12 H 0.3020 0.0910 0.5870
C13 C 0.2365(4) 0.2449(4) 0.4468(3)
C14 C 0.1114(5) 0.3449(4) 0.3963(3)
H13 H 0.1253 0.4033 0.3240
C15 C -0.0327(5) 0.3577(4) 0.4527(4)
H14 H -0.1164 0.4255 0.4182
C16 C -0.0569(5) 0.2705(4) 0.5619(3)
N2 N -0.2000(4) 0.2889(4) 0.6232(3)
C17 C -0.3376(5) 0.3924(5) 0.5771(5)
H15 H -0.3595 0.3747 0.5016
H16 H -0.3260 0.4857 0.5647
C18 C 0.0913(7) -0.0858(4) 0.6973(4)
H17 H -0.0005 -0.1031 0.6772
H18 H 0.1687 -0.0981 0.6301
C19 C 0.1512(8) -0.1822(5) 0.8108(5)
H19 H 0.0668 -0.2010 0.8665
H20 H 0.2198 -0.2698 0.7923
C20 C 0.2350(6) -0.1072(4) 0.8625(4)
H21 H 0.3449 -0.1403 0.8418
H22 H 0.2169 -0.1213 0.9496
C21 C 0.2928(5) 0.1070(5) 0.9586(3)
H23 H 0.3416 0.0135 0.9859
C22 C 0.3159(5) 0.2081(5) 1.0130(4)
H24 H 0.3787 0.1818 1.0769
loop_
_geom_bond_atom_site_label_1
_geom_bond_atom_site_label_2
_geom_bond_site_symmetry_1
_geom_bond_site_symmetry_2
Br1 C10 1_555 1_555
Br2 C13 1_555 1_555
N1 C6 1_555 1_555
C1 H1 1_555 1_555
H2 C1 1_555 1_555
H3 C1 1_555 1_555
C2 H4 1_555 1_555
H5 C2 1_555 1_555
C3 C2 1_555 1_555
H6 C3 1_555 1_555
H7 C3 1_555 1_555
C4 C1 1_555 1_555
C5 C4 1_555 1_555
H8 C5 1_555 1_555
H9 C5 1_555 1_555
C6 C5 1_555 1_555
C7 N1 1_555 1_555
C8 C7 1_555 1_555
H10 C8 1_555 1_555
C9 C8 1_555 1_555
H11 C9 1_555 1_555
C10 C9 1_555 1_555
C11 C6 1_555 1_555
C12 C11 1_555 1_555
H12 C12 1_555 1_555
C13 C12 1_555 1_555
C14 C13 1_555 1_555
H13 C14 1_555 1_555
C15 C14 1_555 1_555
H14 C15 1_555 1_555
C16 C11 1_555 1_555
N2 C4 1_555 1_555
C17 C2 1_555 1_555
H15 C17 1_555 1_555
H16 C17 1_555 1_555
C18 C6 1_555 1_555
H17 C18 1_555 1_555
H18 C18 1_555 1_555
C19 C18 1_555 1_555
H19 C19 1_555 1_555
H20 C19 1_555 1_555
C20 N1 1_555 1_555
H21 C20 1_555 1_555
H22 C20 1_555 1_555
C21 C7 1_555 1_555
H23 C21 1_555 1_555
C22 C10 1_555 1_555
H24 C22 1_555 1_555
C3 C4 1_555 1_555
C15 C16 1_555 1_555
C16 N2 1_555 1_555
N2 C17 1_555 1_555
C19 C20 1_555 1_555
C21 C22 1_555 1_555

#END
