
#######################################################################
#
#                 Cambridge Crystallographic Data Centre
#                                CCDC 
#
#######################################################################
#
# If this CIF has been generated from an entry in the Cambridge 
# Structural Database, then it will include bibliographic, chemical, 
# crystal, experimental, refinement or atomic coordinate data resulting 
# from the CCDC's data processing and validation procedures.
#
#######################################################################

data_FAJJUV
_chemical_formula_moiety         'C26 H20 B2 O4,C4 D8 O1'
_chemical_name_systematic        
'rac-1,2-bis((1,2-Pyrocatecholato)borane)-1,2-diphenylethane octadeuterofuran solvate'
_symmetry_cell_setting           monoclinic
_symmetry_space_group_name_H-M   'P 21/m'
_symmetry_Int_Tables_number      11
_space_group_name_Hall           '-P 2yb'
loop_
_symmetry_equiv_pos_site_id
_symmetry_equiv_pos_as_xyz
1 x,y,z
2 -x,1/2+y,-z
3 -x,-y,-z
4 x,1/2-y,z
_cell_length_a                   6.1548(5)
_cell_length_b                   19.853(2)
_cell_length_c                   10.4004(9)
_cell_angle_alpha                90
_cell_angle_beta                 95.933(3)
_cell_angle_gamma                90
_cell_volume                     1264.03
_exptl_crystal_colour            'light yellow'
_exptl_crystal_description       plate
_cell_formula_units_Z            2
_exptl_crystal_preparation       translucent
loop_
_atom_site_label
_atom_site_type_symbol
_atom_site_fract_x
_atom_site_fract_y
_atom_site_fract_z
O1 O 0.4165(4) 0.63891(10) 0.5680(2)
O2 O 0.7337(3) 0.63986(12) 0.4707(2)
B1 B 0.6185(8) 0.6682(2) 0.5647(3)
C1 C 0.6503(9) 0.7219(3) 0.6866(5)
C3 C 0.8161(9) 0.6763(2) 0.7854(3)
C4 C 1.0239(10) 0.6495(2) 0.7897(4)
C5 C 1.1052(8) 0.6094(2) 0.8948(5)
C6 C 0.9770(7) 0.5963(2) 0.9936(3)
C7 C 0.7728(8) 0.6228(2) 0.9881(4)
C8 C 0.6947(8) 0.6622(2) 0.8846(4)
C9 C 0.3998(4) 0.59369(13) 0.4665(3)
C10 C 0.5900(5) 0.5945(2) 0.4080(3)
C11 C 0.6195(8) 0.5543(2) 0.3036(3)
C12 C 0.4947(12) 0.5189(3) 0.2475(6)
C14 C 0.2917(11) 0.5114(3) 0.2987(5)
C16 C 0.2263(6) 0.5534(2) 0.4244(4)
H1 H 1.1078(88) 0.6563(28) 0.7151(56)
H2 H 1.2461(98) 0.5927(30) 0.8981(56)
H3 H 1.0282(67) 0.5652(22) 1.0657(41)
H4 H 0.6737(67) 0.6148(21) 1.0621(43)
H5 H 0.5552(58) 0.6772(18) 0.8901(33)
H6 H 0.7358(80) 0.5518(26) 0.2603(49)
H7 H 0.0902(73) 0.5510(23) 0.4594(41)
C1C C 0.6503(9) 0.7781(3) 0.6866(5)
B1C B 0.6185(8) 0.8318(2) 0.5647(3)
O1C O 0.4165(4) 0.86109(10) 0.5680(2)
C9C C 0.3998(4) 0.90631(13) 0.4665(3)
C10C C 0.5900(5) 0.9055(2) 0.4080(3)
O2C O 0.7337(3) 0.86014(12) 0.4707(2)
C11C C 0.6195(8) 0.9457(2) 0.3036(3)
C12C C 0.4947(12) 0.9811(3) 0.2475(6)
C14C C 0.2917(11) 0.9886(3) 0.2987(5)
C16C C 0.2263(6) 0.9466(2) 0.4244(4)
H7C H 0.0902(73) 0.9490(23) 0.4594(41)
H6C H 0.7358(80) 0.9482(26) 0.2603(49)
C3C C 0.8161(9) 0.8237(2) 0.7854(3)
C4C C 1.0239(10) 0.8505(2) 0.7897(4)
C5C C 1.1052(8) 0.8906(2) 0.8948(5)
C6C C 0.9770(7) 0.9037(2) 0.9936(3)
C7C C 0.7728(8) 0.8772(2) 0.9881(4)
C8C C 0.6947(8) 0.8378(2) 0.8846(4)
H5C H 0.5552(58) 0.8228(18) 0.8901(33)
H4C H 0.6737(67) 0.8852(21) 1.0621(43)
H3C H 1.0282(67) 0.9348(22) 1.0657(41)
H2C H 1.2461(98) 0.9073(30) 0.8981(56)
H1C H 1.1078(88) 0.8437(28) 0.7151(56)
C2? C 0.7832(9) 0.7144(3) 0.6556(5)
C13? C 0.3980(12) 0.5080(3) 0.2694(6)
C15? C 0.2126(10) 0.5129(3) 0.3401(6)
O3? O 0.4274(4) 0.7500 0.3840(2)
C17? C 0.5162(7) 0.7500 0.2603(4)
C18? C 0.3332(11) 0.7308(3) 0.1609(6)
C19? C 0.1327(11) 0.7312(3) 0.2202(6)
C20? C 0.1900(7) 0.7500 0.3612(4)
D1? D 0.6192(61) 0.7109(19) 0.2583(37)
D2? D 0.1289(57) 0.7100(18) 0.4013(36)
loop_
_geom_bond_atom_site_label_1
_geom_bond_atom_site_label_2
_geom_bond_site_symmetry_1
_geom_bond_site_symmetry_2
O1 B1 1_555 1_555
O2 B1 1_555 1_555
B1 C1 1_555 1_555
C1 C3 1_555 1_555
C3 C4 1_555 1_555
C4 C5 1_555 1_555
C5 C6 1_555 1_555
C6 C7 1_555 1_555
C7 C8 1_555 1_555
C8 C3 1_555 1_555
C9 O1 1_555 1_555
C10 O2 1_555 1_555
C11 C10 1_555 1_555
C12 C11 1_555 1_555
C14 C12 1_555 1_555
C16 C9 1_555 1_555
H1 C4 1_555 1_555
H2 C5 1_555 1_555
H3 C6 1_555 1_555
H4 C7 1_555 1_555
H5 C8 1_555 1_555
H6 C11 1_555 1_555
H7 C16 1_555 1_555
C1C C1 1_555 1_555
B1C C1C 1_555 1_555
O1C B1C 1_555 1_555
C9C O1C 1_555 1_555
C10C C9C 1_555 1_555
O2C B1C 1_555 1_555
C11C C10C 1_555 1_555
C12C C11C 1_555 1_555
C14C C12C 1_555 1_555
C16C C9C 1_555 1_555
H7C C16C 1_555 1_555
H6C C11C 1_555 1_555
C3C C1C 1_555 1_555
C4C C3C 1_555 1_555
C5C C4C 1_555 1_555
C6C C5C 1_555 1_555
C7C C6C 1_555 1_555
C8C C3C 1_555 1_555
H5C C8C 1_555 1_555
H4C C7C 1_555 1_555
H3C C6C 1_555 1_555
H2C C5C 1_555 1_555
H1C C4C 1_555 1_555
C9 C10 1_555 1_555
C14 C16 1_555 1_555
C10C O2C 1_555 1_555
C14C C16C 1_555 1_555
C7C C8C 1_555 1_555

#END
