
#######################################################################
#
#                 Cambridge Crystallographic Data Centre
#                                CCDC 
#
#######################################################################
#
# If this CIF has been generated from an entry in the Cambridge 
# Structural Database, then it will include bibliographic, chemical, 
# crystal, experimental, refinement or atomic coordinate data resulting 
# from the CCDC's data processing and validation procedures.
#
#######################################################################

data_FAJQIR
_chemical_formula_moiety         'C27 H25 N2 O2 1+,Cl1 1-,H2 O1'
_chemical_name_systematic        
'1,4-Dibenzyl-8,9-dimethoxy-4H-benzo(de)(1,6)naphthyrindin-4-ium chloride monohydrate'
_chemical_properties_biological  
'significant activity against human cancer cell lines'
_symmetry_cell_setting           triclinic
_symmetry_space_group_name_H-M   'P -1'
_symmetry_Int_Tables_number      2
_space_group_name_Hall           '-P 1'
loop_
_symmetry_equiv_pos_site_id
_symmetry_equiv_pos_as_xyz
1 x,y,z
2 -x,-y,-z
_cell_length_a                   9.35870(10)
_cell_length_b                   10.8354(2)
_cell_length_c                   11.7009(2)
_cell_angle_alpha                80.7380(10)
_cell_angle_beta                 81.5100(10)
_cell_angle_gamma                80.9910(10)
_cell_volume                     1147.46
_exptl_crystal_colour            'pale yellow'
_exptl_crystal_description       Plates
_chemical_melting_point          '175 deg.C(dec.)'
_cell_formula_units_Z            2
_exptl_crystal_recrystallization_method chloroform/methanol/water
loop_
_atom_site_label
_atom_site_type_symbol
_atom_site_fract_x
_atom_site_fract_y
_atom_site_fract_z
Cl1 Cl 0.38217(9) 0.70826(8) 0.59742(6)
N1 N 0.0434(3) 0.5087(3) 0.2417(2)
C1 C 0.1302(5) 0.4133(3) 0.2973(3)
H1 H 0.1017 0.3870 0.3759
C2 C 0.2552(5) 0.3534(4) 0.2467(3)
H2 H 0.3128 0.2907 0.2901
C3 C 0.2963(4) 0.3884(3) 0.1263(3)
N2 N 0.4158(3) 0.3255(3) 0.0683(3)
C4 C 0.4557(4) 0.3627(4) -0.0492(3)
H3 H 0.5361 0.3173 -0.0877
C5 C 0.3829(4) 0.4614(4) -0.1091(3)
H4 H 0.4141 0.4849 -0.1877
C6 C 0.2579(4) 0.5311(3) -0.0538(3)
C7 C 0.2134(4) 0.4911(3) 0.0664(3)
C8 C 0.1807(4) 0.6365(3) -0.1132(3)
H5 H 0.2091 0.6624 -0.1919
C9 C 0.0617(4) 0.7021(4) -0.0543(3)
O1 O -0.0197(3) 0.8056(3) -0.1056(2)
C10 C 0.0136(4) 0.6649(3) 0.0641(3)
C11 C 0.0866(4) 0.5569(3) 0.1259(3)
O2 O -0.1094(3) 0.7314(3) 0.1168(2)
C12 C 0.5069(4) 0.2202(4) 0.1307(4)
H6 H 0.5279 0.2461 0.2013
H7 H 0.5990 0.2027 0.0820
C13 C 0.4389(4) 0.1007(4) 0.1630(3)
C14 C 0.3548(5) 0.0639(4) 0.0895(4)
H8 H 0.3364 0.1153 0.0200
C15 C 0.2987(5) -0.0486(4) 0.1195(5)
H9 H 0.2413 -0.0726 0.0707
C16 C 0.3276(6) -0.1267(4) 0.2228(5)
H10 H 0.2912 -0.2035 0.2424
C17 C 0.4105(6) -0.0888(5) 0.2953(5)
H11 H 0.4295 -0.1398 0.3648
C18 C 0.4646(6) 0.0229(5) 0.2656(4)
H12 H 0.5201 0.0474 0.3155
C19 C -0.1000(4) 0.5493(4) 0.3084(3)
H13 H -0.1284 0.4783 0.3643
H14 H -0.1725 0.5718 0.2547
C20 C -0.1016(4) 0.6583(3) 0.3724(3)
C21 C 0.0247(4) 0.6950(4) 0.3986(3)
H15 H 0.1149 0.6496 0.3774
C22 C 0.0167(5) 0.7990(4) 0.4563(4)
H16 H 0.1015 0.8238 0.4724
C23 C -0.1172(5) 0.8655(4) 0.4895(4)
H17 H -0.1230 0.9348 0.5285
C24 C -0.2427(5) 0.8285(4) 0.4645(4)
H18 H -0.3330 0.8739 0.4857
C25 C -0.2347(4) 0.7248(4) 0.4084(3)
H19 H -0.3201 0.6991 0.3945
C26 C -0.0929(5) 0.8565(4) 0.1336(4)
H20 H -0.0140 0.8523 0.1786
H21 H -0.1814 0.8944 0.1742
H22 H -0.0721 0.9064 0.0591
C27 C 0.0261(5) 0.8513(4) -0.2237(4)
H23 H 0.1259 0.8658 -0.2319
H24 H -0.0340 0.9290 -0.2470
H25 H 0.0173 0.7901 -0.2723
O3 O 0.6089(5) 0.4359(4) 0.6275(4)
loop_
_geom_bond_atom_site_label_1
_geom_bond_atom_site_label_2
_geom_bond_site_symmetry_1
_geom_bond_site_symmetry_2
N1 C1 1_555 1_555
C1 H1 1_555 1_555
C2 C1 1_555 1_555
H2 C2 1_555 1_555
C3 C2 1_555 1_555
N2 C3 1_555 1_555
C4 N2 1_555 1_555
H3 C4 1_555 1_555
C5 C4 1_555 1_555
H4 C5 1_555 1_555
C6 C5 1_555 1_555
C7 C3 1_555 1_555
C8 C6 1_555 1_555
H5 C8 1_555 1_555
C9 C8 1_555 1_555
O1 C9 1_555 1_555
C10 C9 1_555 1_555
C11 N1 1_555 1_555
O2 C10 1_555 1_555
C12 N2 1_555 1_555
H6 C12 1_555 1_555
H7 C12 1_555 1_555
C13 C12 1_555 1_555
C14 C13 1_555 1_555
H8 C14 1_555 1_555
C15 C14 1_555 1_555
H9 C15 1_555 1_555
C16 C15 1_555 1_555
H10 C16 1_555 1_555
C17 C16 1_555 1_555
H11 C17 1_555 1_555
C18 C13 1_555 1_555
H12 C18 1_555 1_555
C19 N1 1_555 1_555
H13 C19 1_555 1_555
H14 C19 1_555 1_555
C20 C19 1_555 1_555
C21 C20 1_555 1_555
H15 C21 1_555 1_555
C22 C21 1_555 1_555
H16 C22 1_555 1_555
C23 C22 1_555 1_555
H17 C23 1_555 1_555
C24 C23 1_555 1_555
H18 C24 1_555 1_555
C25 C20 1_555 1_555
H19 C25 1_555 1_555
C26 O2 1_555 1_555
H20 C26 1_555 1_555
H21 C26 1_555 1_555
H22 C26 1_555 1_555
C27 O1 1_555 1_555
H23 C27 1_555 1_555
H24 C27 1_555 1_555
H25 C27 1_555 1_555
C6 C7 1_555 1_555
C7 C11 1_555 1_555
C10 C11 1_555 1_555
C17 C18 1_555 1_555
C24 C25 1_555 1_555

#END
