
#######################################################################
#
#                 Cambridge Crystallographic Data Centre
#                                CCDC 
#
#######################################################################
#
# If this CIF has been generated from an entry in the Cambridge 
# Structural Database, then it will include bibliographic, chemical, 
# crystal, experimental, refinement or atomic coordinate data resulting 
# from the CCDC's data processing and validation procedures.
#
#######################################################################

data_FAJQOX
_chemical_formula_moiety         'C29 H29 N2 O4 1+,Br1 1-,H2 O1'
_chemical_name_systematic        
'1,4-bis(4-Methoxybenzyl)-8,9-dimethoxy-4H-benzo(de)(1,6)naphthyridin-4-ium bromide monohydrate'
_chemical_properties_biological  
'significant activity against human cancer cell lines'
_symmetry_cell_setting           triclinic
_symmetry_space_group_name_H-M   'P -1'
_symmetry_Int_Tables_number      2
_space_group_name_Hall           '-P 1'
loop_
_symmetry_equiv_pos_site_id
_symmetry_equiv_pos_as_xyz
1 x,y,z
2 -x,-y,-z
_cell_length_a                   9.6217(2)
_cell_length_b                   10.9327(3)
_cell_length_c                   13.4568(3)
_cell_angle_alpha                87.6370(10)
_cell_angle_beta                 86.0040(10)
_cell_angle_gamma                69.7300(10)
_cell_volume                     1324.42
_exptl_crystal_colour            tan
_exptl_crystal_description       'Thick plate'
_cell_formula_units_Z            2
_exptl_crystal_recrystallization_method chloroform/methanol
loop_
_atom_site_label
_atom_site_type_symbol
_atom_site_fract_x
_atom_site_fract_y
_atom_site_fract_z
Br1 Br 0.86243(6) 0.55032(5) 0.18737(4)
N1 N 0.4048(4) 0.7235(3) 0.9056(3)
C1 C 0.4982(5) 0.6703(4) 0.9783(3)
H1 H 0.5589 0.5834 0.9722
C2 C 0.5099(5) 0.7347(4) 1.0600(3)
H2 H 0.5729 0.6913 1.1094
C3 C 0.4251(4) 0.8679(4) 1.0685(3)
N2 N 0.4392(4) 0.9404(3) 1.1441(3)
C4 C 0.3585(5) 1.0729(4) 1.1481(4)
H3 H 0.3719 1.1209 1.1998
C5 C 0.2623(5) 1.1335(4) 1.0799(3)
H4 H 0.2116 1.2227 1.0841
C6 C 0.2365(5) 1.0627(4) 1.0007(3)
C7 C 0.3248(4) 0.9280(4) 0.9934(3)
C8 C 0.1320(5) 1.1206(4) 0.9309(4)
H5 H 0.0742 1.2084 0.9356
C9 C 0.1145(5) 1.0476(4) 0.8548(4)
O1 O 0.0162(4) 1.0953(3) 0.7839(3)
C10 C 0.2015(5) 0.9156(4) 0.8435(3)
O2 O 0.1831(3) 0.8528(3) 0.7630(2)
C11 C 0.3096(4) 0.8541(4) 0.9119(3)
C12 C 0.5286(5) 0.8805(5) 1.2311(3)
H6 H 0.5604 0.9451 1.2607
H7 H 0.6165 0.8094 1.2086
C13 C 0.4405(5) 0.8301(4) 1.3080(3)
C14 C 0.3208(5) 0.9172(4) 1.3647(4)
H8 H 0.2966 1.0065 1.3540
C15 C 0.2397(5) 0.8719(5) 1.4352(4)
H9 H 0.1629 0.9308 1.4731
C16 C 0.2712(5) 0.7388(5) 1.4505(3)
O3 O 0.1825(4) 0.7060(3) 1.5219(3)
C17 C 0.3864(5) 0.6520(4) 1.3954(3)
H10 H 0.4080 0.5627 1.4051
C18 C 0.4702(5) 0.6979(4) 1.3254(3)
H11 H 0.5484 0.6383 1.2891
C19 C 0.2029(7) 0.5726(6) 1.5366(5)
H12 H 0.1335 0.5627 1.5884
H13 H 0.3023 0.5266 1.5556
H14 H 0.1870 0.5375 1.4759
C20 C -0.0923(6) 1.2240(5) 0.7971(5)
H15 H -0.1552 1.2460 0.7420
H16 H -0.0425 1.2860 0.8002
H17 H -0.1513 1.2256 0.8579
C21 C 0.0506(6) 0.8223(6) 0.7644(5)
H18 H 0.0496 0.7780 0.7044
H19 H -0.0340 0.9012 0.7687
H20 H 0.0468 0.7669 0.8210
C22 C 0.4288(5) 0.6417(4) 0.8149(4)
H21 H 0.4685 0.5502 0.8342
H22 H 0.3341 0.6572 0.7864
C23 C 0.5326(5) 0.6711(4) 0.7379(3)
C24 C 0.6863(5) 0.6240(4) 0.7498(4)
H23 H 0.7224 0.5729 0.8057
C25 C 0.7842(5) 0.6513(5) 0.6815(4)
H24 H 0.8851 0.6200 0.6922
C26 C 0.7341(5) 0.7250(5) 0.5969(4)
O4 O 0.8393(4) 0.7483(5) 0.5337(3)
C27 C 0.5825(5) 0.7706(5) 0.5825(4)
H25 H 0.5473 0.8185 0.5251
C28 C 0.4852(5) 0.7451(5) 0.6523(4)
H26 H 0.3842 0.7784 0.6422
C29 C 0.8016(8) 0.8022(8) 0.4391(5)
H27 H 0.8874 0.8117 0.4036
H28 H 0.7250 0.8862 0.4456
H29 H 0.7663 0.7458 0.4031
O5 O 0.1653(5) 0.5531(5) 0.0332(4)
loop_
_geom_bond_atom_site_label_1
_geom_bond_atom_site_label_2
_geom_bond_site_symmetry_1
_geom_bond_site_symmetry_2
N1 C1 1_555 1_555
C1 H1 1_555 1_555
C2 C1 1_555 1_555
H2 C2 1_555 1_555
C3 C2 1_555 1_555
N2 C3 1_555 1_555
C4 N2 1_555 1_555
H3 C4 1_555 1_555
C5 C4 1_555 1_555
H4 C5 1_555 1_555
C6 C5 1_555 1_555
C7 C3 1_555 1_555
C8 C6 1_555 1_555
H5 C8 1_555 1_555
C9 C8 1_555 1_555
O1 C9 1_555 1_555
C10 C9 1_555 1_555
O2 C10 1_555 1_555
C11 N1 1_555 1_555
C12 N2 1_555 1_555
H6 C12 1_555 1_555
H7 C12 1_555 1_555
C13 C12 1_555 1_555
C14 C13 1_555 1_555
H8 C14 1_555 1_555
C15 C14 1_555 1_555
H9 C15 1_555 1_555
C16 C15 1_555 1_555
O3 C16 1_555 1_555
C17 C16 1_555 1_555
H10 C17 1_555 1_555
C18 C13 1_555 1_555
H11 C18 1_555 1_555
C19 O3 1_555 1_555
H12 C19 1_555 1_555
H13 C19 1_555 1_555
H14 C19 1_555 1_555
C20 O1 1_555 1_555
H15 C20 1_555 1_555
H16 C20 1_555 1_555
H17 C20 1_555 1_555
C21 O2 1_555 1_555
H18 C21 1_555 1_555
H19 C21 1_555 1_555
H20 C21 1_555 1_555
C22 N1 1_555 1_555
H21 C22 1_555 1_555
H22 C22 1_555 1_555
C23 C22 1_555 1_555
C24 C23 1_555 1_555
H23 C24 1_555 1_555
C25 C24 1_555 1_555
H24 C25 1_555 1_555
C26 C25 1_555 1_555
O4 C26 1_555 1_555
C27 C26 1_555 1_555
H25 C27 1_555 1_555
C28 C23 1_555 1_555
H26 C28 1_555 1_555
C29 O4 1_555 1_555
H27 C29 1_555 1_555
H28 C29 1_555 1_555
H29 C29 1_555 1_555
C6 C7 1_555 1_555
C7 C11 1_555 1_555
C10 C11 1_555 1_555
C17 C18 1_555 1_555
C27 C28 1_555 1_555

#END
