
#######################################################################
#
#                 Cambridge Crystallographic Data Centre
#                                CCDC 
#
#######################################################################
#
# If this CIF has been generated from an entry in the Cambridge 
# Structural Database, then it will include bibliographic, chemical, 
# crystal, experimental, refinement or atomic coordinate data resulting 
# from the CCDC's data processing and validation procedures.
#
#######################################################################

data_FAJSEP
_chemical_formula_moiety         'C65 H48 N12'
_chemical_name_systematic        
tetrakis(4-(bis(2-Pyridyl)amino)phenyl)methane
_symmetry_cell_setting           tetragonal
_symmetry_space_group_name_H-M   'P 42/n'
_symmetry_Int_Tables_number      86
_space_group_name_Hall           '-P 4bc'
loop_
_symmetry_equiv_pos_site_id
_symmetry_equiv_pos_as_xyz
1 x,y,z
2 -y,1/2+x,1/2+z
3 1/2+y,-x,1/2+z
4 1/2-x,1/2-y,z
5 -x,-y,-z
6 y,1/2-x,1/2-z
7 1/2-y,x,1/2-z
8 1/2+x,1/2+y,-z
_cell_length_a                   14.558(3)
_cell_length_b                   14.558(3)
_cell_length_c                   11.723(4)
_cell_angle_alpha                90
_cell_angle_beta                 90
_cell_angle_gamma                90
_cell_volume                     2484.52
_exptl_crystal_colour            yellow
_exptl_crystal_description       block
_chemical_melting_point          'above 350 deg.C'
_cell_formula_units_Z            2
_exptl_crystal_recrystallization_method 'ethyl acetate'
_exptl_crystal_preparation       'violet-blue luminescent'
loop_
_atom_site_label
_atom_site_type_symbol
_atom_site_fract_x
_atom_site_fract_y
_atom_site_fract_z
C1 C 0.7500 0.7500 0.2500
C2 C 0.67289(13) 0.71876(13) 0.17020(14)
C3 C 0.58680(14) 0.75753(14) 0.16693(16)
H1 H 0.5717 0.8028 0.2197
N1 N 0.47577(13) 0.63388(12) -0.07304(13)
C4 C 0.62744(14) 0.62351(14) 0.01365(16)
H2 H 0.6419 0.5769 -0.0375
C5 C 0.52262(15) 0.73112(14) 0.08782(16)
H3 H 0.4655 0.7597 0.0866
C6 C 0.69109(14) 0.65177(14) 0.09052(15)
H4 H 0.7491 0.6249 0.0893
C7 C 0.54175(14) 0.66308(14) 0.01058(16)
C8 C 0.51078(16) 0.61029(17) -0.18067(18)
C9 C 0.38623(16) 0.62912(14) -0.04839(19)
N2 N 0.57154(16) 0.66800(18) -0.2269(2)
C10 C 0.48351(17) 0.53156(18) -0.2315(2)
H5 H 0.4409 0.4931 -0.1968
N3 N 0.32811(16) 0.63546(16) -0.1374(2)
C11 C 0.35309(18) 0.61570(16) 0.0586(2)
H6 H 0.3936 0.6091 0.1194
C12 C 0.2608(2) 0.6118(2) 0.0772(3)
H7 H 0.2381 0.6042 0.1508
C13 C 0.5817(3) 0.5649(4) -0.3819(3)
H8 H 0.6073 0.5491 -0.4519
C14 C 0.2025(2) 0.6192(3) -0.0119(4)
H9 H 0.1392 0.6178 -0.0009
C15 C 0.6069(2) 0.6424(3) -0.3292(3)
H10 H 0.6503 0.6801 -0.3639
C16 C 0.5195(2) 0.5106(3) -0.3329(3)
H11 H 0.5008 0.4573 -0.3700
C17 C 0.2382(2) 0.6285(3) -0.1172(4)
H12 H 0.1981 0.6302 -0.1790
C2E C 0.71876(13) 0.82711(13) 0.32980(14)
C2F C 0.78124(13) 0.67289(13) 0.32980(14)
C2C C 0.82711(13) 0.78124(13) 0.17020(14)
C3E C 0.75753(14) 0.91320(14) 0.33307(16)
C3F C 0.74247(14) 0.58680(14) 0.33307(16)
C3C C 0.91320(14) 0.74247(14) 0.16693(16)
H1E H 0.8028 0.9283 0.2803
H1F H 0.6972 0.5717 0.2803
H1C H 0.9283 0.6972 0.2197
N1E N 0.63388(12) 1.02423(13) 0.57304(13)
N1F N 0.86612(12) 0.47577(13) 0.57304(13)
N1C N 1.02423(13) 0.86612(12) -0.07304(13)
C4E C 0.62351(14) 0.87256(14) 0.48635(16)
C4F C 0.87649(14) 0.62744(14) 0.48635(16)
C4C C 0.87256(14) 0.87649(14) 0.01365(16)
H2E H 0.5769 0.8581 0.5375
H2F H 0.9231 0.6419 0.5375
H2C H 0.8581 0.9231 -0.0375
C5E C 0.73112(14) 0.97738(15) 0.41218(16)
C5F C 0.76888(14) 0.52262(15) 0.41218(16)
C5C C 0.97738(15) 0.76888(14) 0.08782(16)
H3E H 0.7597 1.0345 0.4134
H3F H 0.7403 0.4655 0.4134
H3C H 1.0345 0.7403 0.0866
C6E C 0.65177(14) 0.80891(14) 0.40948(15)
C6F C 0.84823(14) 0.69109(14) 0.40948(15)
C6C C 0.80891(14) 0.84823(14) 0.09052(15)
H4E H 0.6249 0.7509 0.4107
H4F H 0.8751 0.7491 0.4107
H4C H 0.7509 0.8751 0.0893
C7E C 0.66308(14) 0.95825(14) 0.48942(16)
C7F C 0.83692(14) 0.54175(14) 0.48942(16)
C7C C 0.95825(14) 0.83692(14) 0.01058(16)
C8E C 0.61029(17) 0.98922(16) 0.68067(18)
C8F C 0.88971(17) 0.51078(16) 0.68067(18)
C8C C 0.98922(16) 0.88971(17) -0.18067(18)
C9E C 0.62912(14) 1.11377(16) 0.54839(19)
C9F C 0.87088(14) 0.38623(16) 0.54839(19)
C9C C 1.11377(16) 0.87088(14) -0.04839(19)
N2E N 0.66800(18) 0.92846(16) 0.7269(2)
N2F N 0.83200(18) 0.57154(16) 0.7269(2)
N2C N 0.92846(16) 0.83200(18) -0.2269(2)
C10E C 0.53156(18) 1.01649(17) 0.7315(2)
C10F C 0.96844(18) 0.48351(17) 0.7315(2)
C10C C 1.01649(17) 0.96844(18) -0.2315(2)
H5E H 0.4931 1.0591 0.6968
H5F H 1.0069 0.4409 0.6968
H5C H 1.0591 1.0069 -0.1968
N3E N 0.63546(16) 1.17189(16) 0.6374(2)
N3F N 0.86454(16) 0.32811(16) 0.6374(2)
N3C N 1.17189(16) 0.86454(16) -0.1374(2)
C11E C 0.61570(16) 1.14691(18) 0.4414(2)
C11F C 0.88430(16) 0.35309(18) 0.4414(2)
C11C C 1.14691(18) 0.88430(16) 0.0586(2)
H6E H 0.6091 1.1064 0.3806
H6F H 0.8909 0.3936 0.3806
H6C H 1.1064 0.8909 0.1194
C12E C 0.6118(2) 1.2392(2) 0.4228(3)
C12F C 0.8882(2) 0.2608(2) 0.4228(3)
C12C C 1.2392(2) 0.8882(2) 0.0772(3)
H7E H 0.6042 1.2619 0.3492
H7F H 0.8958 0.2381 0.3492
H7C H 1.2619 0.8958 0.1508
C13E C 0.5649(4) 0.9183(3) 0.8819(3)
C13F C 0.9351(4) 0.5817(3) 0.8819(3)
C13C C 0.9183(3) 0.9351(4) -0.3819(3)
H8E H 0.5491 0.8927 0.9519
H8F H 0.9509 0.6073 0.9519
H8C H 0.8927 0.9509 -0.4519
C14E C 0.6192(3) 1.2975(2) 0.5119(4)
C14F C 0.8808(3) 0.2025(2) 0.5119(4)
C14C C 1.2975(2) 0.8808(3) -0.0119(4)
H9E H 0.6178 1.3608 0.5009
H9F H 0.8822 0.1392 0.5009
H9C H 1.3608 0.8822 -0.0009
C15E C 0.6424(3) 0.8931(2) 0.8292(3)
C15F C 0.8576(3) 0.6069(2) 0.8292(3)
C15C C 0.8931(2) 0.8576(3) -0.3292(3)
H10E H 0.6801 0.8497 0.8639
H10F H 0.8199 0.6503 0.8639
H10C H 0.8497 0.8199 -0.3639
C16E C 0.5106(3) 0.9805(2) 0.8329(3)
C16F C 0.9894(3) 0.5195(2) 0.8329(3)
C16C C 0.9805(2) 0.9894(3) -0.3329(3)
H11E H 0.4573 0.9992 0.8700
H11F H 1.0427 0.5008 0.8700
H11C H 0.9992 1.0427 -0.3700
C17E C 0.6285(3) 1.2618(2) 0.6172(4)
C17F C 0.8715(3) 0.2382(2) 0.6172(4)
C17C C 1.2618(2) 0.8715(3) -0.1172(4)
H12E H 0.6302 1.3019 0.6790
H12F H 0.8698 0.1981 0.6790
H12C H 1.3019 0.8698 -0.1790
loop_
_geom_bond_atom_site_label_1
_geom_bond_atom_site_label_2
_geom_bond_site_symmetry_1
_geom_bond_site_symmetry_2
C1 C2 1_555 1_555
C2 C3 1_555 1_555
C3 H1 1_555 1_555
N1 C7 1_555 1_555
C4 H2 1_555 1_555
C5 C3 1_555 1_555
H3 C5 1_555 1_555
C6 C2 1_555 1_555
H4 C6 1_555 1_555
C7 C4 1_555 1_555
C8 N1 1_555 1_555
C9 N1 1_555 1_555
N2 C8 1_555 1_555
C10 C8 1_555 1_555
H5 C10 1_555 1_555
N3 C9 1_555 1_555
C11 C9 1_555 1_555
H6 C11 1_555 1_555
C12 C11 1_555 1_555
H7 C12 1_555 1_555
C13 H8 1_555 1_555
C14 C12 1_555 1_555
H9 C14 1_555 1_555
C15 N2 1_555 1_555
H10 C15 1_555 1_555
C16 C10 1_555 1_555
H11 C16 1_555 1_555
C17 N3 1_555 1_555
H12 C17 1_555 1_555
C2E C1 1_555 1_555
C2F C1 1_555 1_555
C2C C1 1_555 1_555
C3E C2E 1_555 1_555
C3F C2F 1_555 1_555
C3C C2C 1_555 1_555
H1E C3E 1_555 1_555
H1F C3F 1_555 1_555
H1C C3C 1_555 1_555
N1E C7E 1_555 1_555
N1F C7F 1_555 1_555
N1C C7C 1_555 1_555
C4E H2E 1_555 1_555
C4F H2F 1_555 1_555
C4C H2C 1_555 1_555
C5E C3E 1_555 1_555
C5F C3F 1_555 1_555
C5C C3C 1_555 1_555
H3E C5E 1_555 1_555
H3F C5F 1_555 1_555
H3C C5C 1_555 1_555
C6E C2E 1_555 1_555
C6F C2F 1_555 1_555
C6C C2C 1_555 1_555
H4E C6E 1_555 1_555
H4F C6F 1_555 1_555
H4C C6C 1_555 1_555
C7E C4E 1_555 1_555
C7F C4F 1_555 1_555
C7C C4C 1_555 1_555
C8E N1E 1_555 1_555
C8F N1F 1_555 1_555
C8C N1C 1_555 1_555
C9E N1E 1_555 1_555
C9F N1F 1_555 1_555
C9C N1C 1_555 1_555
N2E C8E 1_555 1_555
N2F C8F 1_555 1_555
N2C C8C 1_555 1_555
C10E C8E 1_555 1_555
C10F C8F 1_555 1_555
C10C C8C 1_555 1_555
H5E C10E 1_555 1_555
H5F C10F 1_555 1_555
H5C C10C 1_555 1_555
N3E C9E 1_555 1_555
N3F C9F 1_555 1_555
N3C C9C 1_555 1_555
C11E C9E 1_555 1_555
C11F C9F 1_555 1_555
C11C C9C 1_555 1_555
H6E C11E 1_555 1_555
H6F C11F 1_555 1_555
H6C C11C 1_555 1_555
C12E C11E 1_555 1_555
C12F C11F 1_555 1_555
C12C C11C 1_555 1_555
H7E C12E 1_555 1_555
H7F C12F 1_555 1_555
H7C C12C 1_555 1_555
C13E H8E 1_555 1_555
C13F H8F 1_555 1_555
C13C H8C 1_555 1_555
C14E C12E 1_555 1_555
C14F C12F 1_555 1_555
C14C C12C 1_555 1_555
H9E C14E 1_555 1_555
H9F C14F 1_555 1_555
H9C C14C 1_555 1_555
C15E N2E 1_555 1_555
C15F N2F 1_555 1_555
C15C N2C 1_555 1_555
H10E C15E 1_555 1_555
H10F C15F 1_555 1_555
H10C C15C 1_555 1_555
C16E C10E 1_555 1_555
C16F C10F 1_555 1_555
C16C C10C 1_555 1_555
H11E C16E 1_555 1_555
H11F C16F 1_555 1_555
H11C C16C 1_555 1_555
C17E N3E 1_555 1_555
C17F N3F 1_555 1_555
C17C N3C 1_555 1_555
H12E C17E 1_555 1_555
H12F C17F 1_555 1_555
H12C C17C 1_555 1_555
C4 C6 1_555 1_555
C5 C7 1_555 1_555
C13 C15 1_555 1_555
C13 C16 1_555 1_555
C14 C17 1_555 1_555
C4E C6E 1_555 1_555
C4F C6F 1_555 1_555
C4C C6C 1_555 1_555
C5E C7E 1_555 1_555
C5F C7F 1_555 1_555
C5C C7C 1_555 1_555
C13E C15E 1_555 1_555
C13E C16E 1_555 1_555
C13F C15F 1_555 1_555
C13F C16F 1_555 1_555
C13C C15C 1_555 1_555
C13C C16C 1_555 1_555
C14E C17E 1_555 1_555
C14F C17F 1_555 1_555
C14C C17C 1_555 1_555

#END
