
#######################################################################
#
#                 Cambridge Crystallographic Data Centre
#                                CCDC 
#
#######################################################################
#
# If this CIF has been generated from an entry in the Cambridge 
# Structural Database, then it will include bibliographic, chemical, 
# crystal, experimental, refinement or atomic coordinate data resulting 
# from the CCDC's data processing and validation procedures.
#
#######################################################################

data_FAJSAL
_chemical_formula_moiety         'C64 H48 N12 Si1,8(C1 H1 Cl3)'
_chemical_name_systematic        
'tetrakis(4-(bis(2-Pyridyl)amino)phenyl)silane chloroform solvate'
_symmetry_cell_setting           tetragonal
_symmetry_space_group_name_H-M   'I 41/a'
_symmetry_Int_Tables_number      88
_space_group_name_Hall           '-I 4ad'
loop_
_symmetry_equiv_pos_site_id
_symmetry_equiv_pos_as_xyz
1 x,y,z
2 3/4-y,1/4+x,1/4+z
3 1/2+x,1/2+y,1/2+z
4 1/4-y,3/4+x,3/4+z
5 1/4+y,1/4-x,1/4+z
6 1/2-x,-y,1/2+z
7 3/4+y,3/4-x,3/4+z
8 -x,1/2-y,z
9 -x,-y,-z
10 1/4+y,3/4-x,3/4-z
11 1/2-x,1/2-y,1/2-z
12 3/4+y,1/4-x,1/4-z
13 3/4-y,3/4+x,3/4-z
14 1/2+x,y,1/2-z
15 1/4-y,1/4+x,1/4-z
16 x,1/2+y,-z
_cell_length_a                   25.5779(17)
_cell_length_b                   25.5779(17)
_cell_length_c                   13.7775(14)
_cell_angle_alpha                90
_cell_angle_beta                 90
_cell_angle_gamma                90
_cell_volume                     9013.64
_exptl_crystal_colour            white
_exptl_crystal_description       block
_chemical_melting_point          '292-294 deg.C'
_cell_formula_units_Z            4
_exptl_crystal_recrystallization_method dichloromethane/hexane
_exptl_crystal_preparation       'violet-blue luminescent'
loop_
_atom_site_label
_atom_site_type_symbol
_atom_site_fract_x
_atom_site_fract_y
_atom_site_fract_z
Si1 Si 0.0000 0.2500 0.1250
C1 C 0.05247(14) 0.27538(14) 0.2068(3)
C2 C 0.03924(15) 0.30580(15) 0.2877(3)
H1 H 0.0043 0.3147 0.2971
C3 C 0.07546(16) 0.32310(15) 0.3537(3)
H2 H 0.0648 0.3424 0.4074
C4 C 0.12811(16) 0.31177(15) 0.3402(3)
C5 C 0.14247(16) 0.28253(16) 0.2607(3)
H3 H 0.1776 0.2750 0.2502
C6 C 0.10529(16) 0.26437(15) 0.1965(3)
H4 H 0.1160 0.2440 0.1442
C7 C 0.16017(16) 0.38099(16) 0.4465(4)
C8 C 0.14994(19) 0.42232(19) 0.3856(4)
H5 H 0.1490 0.4178 0.3187
C9 C 0.1411(2) 0.4711(2) 0.4272(5)
H6 H 0.1324 0.4995 0.3885
C10 C 0.1452(2) 0.4766(2) 0.5241(5)
H7 H 0.1402 0.5090 0.5533
C11 C 0.1569(2) 0.4343(2) 0.5776(4)
H8 H 0.1608 0.4386 0.6442
C12 C 0.20452(17) 0.29605(16) 0.4433(3)
C13 C 0.1951(2) 0.24339(18) 0.4562(3)
H9 H 0.1622 0.2292 0.4445
C14 C 0.2364(3) 0.2121(2) 0.4872(4)
H10 H 0.2319 0.1763 0.4949
C15 C 0.2832(2) 0.2349(2) 0.5062(4)
H11 H 0.3113 0.2147 0.5269
C16 C 0.28866(18) 0.2869(2) 0.4948(4)
H12 H 0.3208 0.3018 0.5096
N1 N 0.16562(13) 0.33013(13) 0.4081(2)
N2 N 0.16320(15) 0.38627(14) 0.5409(3)
N3 N 0.25045(14) 0.31817(14) 0.4634(3)
C1N C -0.02538(14) 0.30247(14) 0.0432(3)
C1K C 0.02538(14) 0.19753(14) 0.0432(3)
C1G C -0.05247(14) 0.22462(14) 0.2068(3)
C2N C -0.05580(15) 0.28924(15) -0.0377(3)
C2K C 0.05580(15) 0.21076(15) -0.0377(3)
C2G C -0.03924(15) 0.19420(15) 0.2877(3)
H1N H -0.0647 0.2543 -0.0471
H1K H 0.0647 0.2457 -0.0471
H1G H -0.0043 0.1853 0.2971
C3N C -0.07310(15) 0.32546(16) -0.1037(3)
C3K C 0.07310(15) 0.17454(16) -0.1037(3)
C3G C -0.07546(16) 0.17690(15) 0.3537(3)
H2N H -0.0924 0.3148 -0.1574
H2K H 0.0924 0.1852 -0.1574
H2G H -0.0648 0.1576 0.4074
C4N C -0.06177(15) 0.37811(16) -0.0902(3)
C4K C 0.06177(15) 0.12189(16) -0.0902(3)
C4G C -0.12811(16) 0.18823(15) 0.3402(3)
C5N C -0.03253(16) 0.39247(16) -0.0107(3)
C5K C 0.03253(16) 0.10753(16) -0.0107(3)
C5G C -0.14247(16) 0.21747(16) 0.2607(3)
H3N H -0.0250 0.4276 -0.0002
H3K H 0.0250 0.0724 -0.0002
H3G H -0.1776 0.2250 0.2502
C6N C -0.01437(15) 0.35529(16) 0.0535(3)
C6K C 0.01437(15) 0.14471(16) 0.0535(3)
C6G C -0.10529(16) 0.23563(15) 0.1965(3)
H4N H 0.0060 0.3660 0.1058
H4K H -0.0060 0.1340 0.1058
H4G H -0.1160 0.2560 0.1442
C7N C -0.13099(16) 0.41017(16) -0.1965(4)
C7K C 0.13099(16) 0.08983(16) -0.1965(4)
C7G C -0.16017(16) 0.11901(16) 0.4465(4)
C8N C -0.17232(19) 0.39994(19) -0.1356(4)
C8K C 0.17232(19) 0.10006(19) -0.1356(4)
C8G C -0.14994(19) 0.07768(19) 0.3856(4)
H5N H -0.1678 0.3990 -0.0687
H5K H 0.1678 0.1010 -0.0687
H5G H -0.1490 0.0822 0.3187
C9N C -0.2211(2) 0.3911(2) -0.1772(5)
C9K C 0.2211(2) 0.1089(2) -0.1772(5)
C9G C -0.1411(2) 0.0289(2) 0.4272(5)
H6N H -0.2495 0.3824 -0.1385
H6K H 0.2495 0.1176 -0.1385
H6G H -0.1324 0.0005 0.3885
C10N C -0.2266(2) 0.3952(2) -0.2741(5)
C10K C 0.2266(2) 0.1048(2) -0.2741(5)
C10G C -0.1452(2) 0.0234(2) 0.5241(5)
H7N H -0.2590 0.3902 -0.3033
H7K H 0.2590 0.1098 -0.3033
H7G H -0.1402 -0.0090 0.5533
C11N C -0.1843(2) 0.4069(2) -0.3276(4)
C11K C 0.1843(2) 0.0931(2) -0.3276(4)
C11G C -0.1569(2) 0.0657(2) 0.5776(4)
H8N H -0.1886 0.4108 -0.3942
H8K H 0.1886 0.0892 -0.3942
H8G H -0.1608 0.0614 0.6442
C12N C -0.04605(16) 0.45452(17) -0.1933(3)
C12K C 0.04605(16) 0.04548(17) -0.1933(3)
C12G C -0.20452(17) 0.20395(16) 0.4433(3)
C13N C 0.00661(18) 0.4451(2) -0.2062(3)
C13K C -0.00661(18) 0.0549(2) -0.2062(3)
C13G C -0.1951(2) 0.25661(18) 0.4562(3)
H9N H 0.0208 0.4122 -0.1945
H9K H -0.0208 0.0878 -0.1945
H9G H -0.1622 0.2708 0.4445
C14N C 0.0379(2) 0.4864(3) -0.2372(4)
C14K C -0.0379(2) 0.0136(3) -0.2372(4)
C14G C -0.2364(3) 0.2879(2) 0.4872(4)
H10N H 0.0737 0.4819 -0.2449
H10K H -0.0737 0.0181 -0.2449
H10G H -0.2319 0.3237 0.4949
C15N C 0.0151(2) 0.5332(2) -0.2562(4)
C15K C -0.0151(2) -0.0332(2) -0.2562(4)
C15G C -0.2832(2) 0.2651(2) 0.5062(4)
H11N H 0.0353 0.5613 -0.2769
H11K H -0.0353 -0.0613 -0.2769
H11G H -0.3113 0.2853 0.5269
C16N C -0.0369(2) 0.53866(18) -0.2448(4)
C16K C 0.0369(2) -0.03866(18) -0.2448(4)
C16G C -0.28866(18) 0.2131(2) 0.4948(4)
H12N H -0.0518 0.5708 -0.2596
H12K H 0.0518 -0.0708 -0.2596
H12G H -0.3208 0.1982 0.5096
N1N N -0.08013(13) 0.41562(13) -0.1581(2)
N1K N 0.08013(13) 0.08438(13) -0.1581(2)
N1G N -0.16562(13) 0.16987(13) 0.4081(2)
N2N N -0.13627(14) 0.41320(15) -0.2909(3)
N2K N 0.13627(14) 0.08680(15) -0.2909(3)
N2G N -0.16320(15) 0.11373(14) 0.5409(3)
N3N N -0.06817(14) 0.50045(14) -0.2134(3)
N3K N 0.06817(14) -0.00045(14) -0.2134(3)
N3G N -0.25045(14) 0.18183(14) 0.4634(3)
Cl1 Cl 0.28281(8) 0.35624(8) 0.22030(14)
Cl2 Cl 0.36238(7) 0.39349(8) 0.34807(14)
Cl3 Cl 0.28537(11) 0.46407(8) 0.27135(18)
C17 C 0.2972(2) 0.4009(2) 0.3115(4)
Cl4 Cl 0.4175(4) 0.3716(5) 0.0471(9)
Cl5 Cl 0.4865(6) 0.4402(5) -0.0185(8)
Cl6 Cl 0.4942(2) 0.3410(2) -0.0931(4)
C18 C 0.4463(3) 0.3847(3) -0.0447(6)
Cl7? Cl 0.3977(4) 0.3781(2) 0.0613(8)
Cl8? Cl 0.4976(7) 0.4195(6) -0.0146(11)
Cl9? Cl 0.4581(3) 0.3155(2) -0.0511(7)
loop_
_geom_bond_atom_site_label_1
_geom_bond_atom_site_label_2
_geom_bond_site_symmetry_1
_geom_bond_site_symmetry_2
Si1 C1 1_555 1_555
C1 C2 1_555 1_555
C2 H1 1_555 1_555
C3 C2 1_555 1_555
H2 C3 1_555 1_555
C4 C3 1_555 1_555
C5 C4 1_555 1_555
H3 C5 1_555 1_555
C6 C1 1_555 1_555
H4 C6 1_555 1_555
C7 C8 1_555 1_555
C8 H5 1_555 1_555
C9 C8 1_555 1_555
H6 C9 1_555 1_555
C10 C9 1_555 1_555
H7 C10 1_555 1_555
C11 C10 1_555 1_555
H8 C11 1_555 1_555
C12 C13 1_555 1_555
C13 H9 1_555 1_555
C14 C13 1_555 1_555
H10 C14 1_555 1_555
C15 C14 1_555 1_555
H11 C15 1_555 1_555
C16 C15 1_555 1_555
H12 C16 1_555 1_555
N1 C4 1_555 1_555
N2 C7 1_555 1_555
N3 C12 1_555 1_555
Cl1 C17 1_555 1_555
Cl2 C17 1_555 1_555
Cl3 C17 1_555 1_555
Cl4 C18 1_555 1_555
Cl5 C18 1_555 1_555
Cl6 C18 1_555 1_555
C1N Si1 1_555 1_555
C1K Si1 1_555 1_555
C1G Si1 1_555 1_555
C2N C1N 1_555 1_555
C2K C1K 1_555 1_555
C2G C1G 1_555 1_555
H1N C2N 1_555 1_555
H1K C2K 1_555 1_555
H1G C2G 1_555 1_555
C3N C2N 1_555 1_555
C3K C2K 1_555 1_555
C3G C2G 1_555 1_555
H2N C3N 1_555 1_555
H2K C3K 1_555 1_555
H2G C3G 1_555 1_555
C4N C3N 1_555 1_555
C4K C3K 1_555 1_555
C4G C3G 1_555 1_555
C5N C4N 1_555 1_555
C5K C4K 1_555 1_555
C5G C4G 1_555 1_555
H3N C5N 1_555 1_555
H3K C5K 1_555 1_555
H3G C5G 1_555 1_555
C6N C1N 1_555 1_555
C6K C1K 1_555 1_555
C6G C1G 1_555 1_555
H4N C6N 1_555 1_555
H4K C6K 1_555 1_555
H4G C6G 1_555 1_555
C7N C8N 1_555 1_555
C7K C8K 1_555 1_555
C7G C8G 1_555 1_555
C8N H5N 1_555 1_555
C8K H5K 1_555 1_555
C8G H5G 1_555 1_555
C9N C8N 1_555 1_555
C9K C8K 1_555 1_555
C9G C8G 1_555 1_555
H6N C9N 1_555 1_555
H6K C9K 1_555 1_555
H6G C9G 1_555 1_555
C10N C9N 1_555 1_555
C10K C9K 1_555 1_555
C10G C9G 1_555 1_555
H7N C10N 1_555 1_555
H7K C10K 1_555 1_555
H7G C10G 1_555 1_555
C11N C10N 1_555 1_555
C11K C10K 1_555 1_555
C11G C10G 1_555 1_555
H8N C11N 1_555 1_555
H8K C11K 1_555 1_555
H8G C11G 1_555 1_555
C12N C13N 1_555 1_555
C12K C13K 1_555 1_555
C12G C13G 1_555 1_555
C13N H9N 1_555 1_555
C13K H9K 1_555 1_555
C13G H9G 1_555 1_555
C14N C13N 1_555 1_555
C14K C13K 1_555 1_555
C14G C13G 1_555 1_555
H10N C14N 1_555 1_555
H10K C14K 1_555 1_555
H10G C14G 1_555 1_555
C15N C14N 1_555 1_555
C15K C14K 1_555 1_555
C15G C14G 1_555 1_555
H11N C15N 1_555 1_555
H11K C15K 1_555 1_555
H11G C15G 1_555 1_555
C16N C15N 1_555 1_555
C16K C15K 1_555 1_555
C16G C15G 1_555 1_555
H12N C16N 1_555 1_555
H12K C16K 1_555 1_555
H12G C16G 1_555 1_555
N1N C4N 1_555 1_555
N1K C4K 1_555 1_555
N1G C4G 1_555 1_555
N2N C7N 1_555 1_555
N2K C7K 1_555 1_555
N2G C7G 1_555 1_555
N3N C12N 1_555 1_555
N3K C12K 1_555 1_555
N3G C12G 1_555 1_555
C5 C6 1_555 1_555
C7 N1 1_555 1_555
C11 N2 1_555 1_555
C12 N1 1_555 1_555
C16 N3 1_555 1_555
C5N C6N 1_555 1_555
C5K C6K 1_555 1_555
C5G C6G 1_555 1_555
C7N N1N 1_555 1_555
C7K N1K 1_555 1_555
C7G N1G 1_555 1_555
C11N N2N 1_555 1_555
C11K N2K 1_555 1_555
C11G N2G 1_555 1_555
C12N N1N 1_555 1_555
C12K N1K 1_555 1_555
C12G N1G 1_555 1_555
C16N N3N 1_555 1_555
C16K N3K 1_555 1_555
C16G N3G 1_555 1_555

#END
