
#######################################################################
#
#                 Cambridge Crystallographic Data Centre
#                                CCDC 
#
#######################################################################
#
# If this CIF has been generated from an entry in the Cambridge 
# Structural Database, then it will include bibliographic, chemical, 
# crystal, experimental, refinement or atomic coordinate data resulting 
# from the CCDC's data processing and validation procedures.
#
#######################################################################

data_FAKFAA
_chemical_formula_moiety         'C27 H36 N4 O1'
_chemical_name_systematic        
1,3-bis(2,6-diisopropylphenyl)-N-nitroso-1,3-dihydro-2H-imidazol-2-imine
_symmetry_cell_setting           monoclinic
_symmetry_space_group_name_H-M   'P 21/n'
_symmetry_Int_Tables_number      14
_space_group_name_Hall           '-P 2yn'
loop_
_symmetry_equiv_pos_site_id
_symmetry_equiv_pos_as_xyz
1 x,y,z
2 1/2-x,1/2+y,1/2-z
3 -x,-y,-z
4 1/2+x,1/2-y,1/2+z
_cell_length_a                   12.400(3)
_cell_length_b                   12.221(2)
_cell_length_c                   17.211(3)
_cell_angle_alpha                90
_cell_angle_beta                 93.38(3)
_cell_angle_gamma                90
_cell_volume                     2603.62
_exptl_crystal_colour            yellow
_exptl_crystal_description       prismatic
_cell_formula_units_Z            4
loop_
_atom_site_label
_atom_site_type_symbol
_atom_site_fract_x
_atom_site_fract_y
_atom_site_fract_z
O1 O 0.7266(2) 0.4180(2) 0.08196(16)
N1 N 0.8350(2) 0.7236(2) 0.13505(16)
N2 N 0.7526(2) 0.7060(2) 0.24304(16)
N3 N 0.7663(2) 0.5414(2) 0.16949(17)
N4 N 0.7411(2) 0.5179(2) 0.09385(19)
C1 C 0.7842(2) 0.6503(3) 0.17924(19)
C2 C 0.7823(3) 0.8152(3) 0.2380(2)
H1 H 0.7688 0.8713 0.2744
C3 C 0.8341(3) 0.8264(3) 0.1714(2)
H2 H 0.8644 0.8921 0.1527
C4 C 0.8982(3) 0.6960(3) 0.0684(2)
C5 C 1.0088(3) 0.6739(3) 0.0857(2)
C6 C 1.0685(3) 0.6442(3) 0.0215(2)
H3 H 1.1431 0.6271 0.0296
C7 C 1.0200(3) 0.6395(3) -0.0535(2)
H4 H 1.0617 0.6180 -0.0955
C8 C 0.9111(3) 0.6659(3) -0.0682(2)
H5 H 0.8801 0.6640 -0.1200
C9 C 0.8468(3) 0.6954(3) -0.0066(2)
C10 C 1.0638(3) 0.6834(3) 0.1670(2)
H6 H 1.0058 0.6950 0.2042
C11 C 1.1376(4) 0.7854(4) 0.1718(3)
H7 H 1.1958 0.7766 0.1361
H8 H 1.1688 0.7938 0.2251
H9 H 1.0951 0.8506 0.1571
C12 C 1.1256(4) 0.5803(4) 0.1929(3)
H10 H 1.0756 0.5182 0.1931
H11 H 1.1589 0.5912 0.2454
H12 H 1.1820 0.5654 0.1567
C13 C 0.7296(3) 0.7282(3) -0.0239(2)
H13 H 0.6945 0.7326 0.0268
C14 C 0.7235(3) 0.8423(4) -0.0612(3)
H14 H 0.7576 0.8958 -0.0251
H15 H 0.6477 0.8624 -0.0726
H16 H 0.7614 0.8417 -0.1096
C15 C 0.6651(3) 0.6457(4) -0.0757(3)
H17 H 0.6954 0.6425 -0.1270
H18 H 0.5894 0.6688 -0.0817
H19 H 0.6694 0.5731 -0.0515
C16 C 0.6823(2) 0.6617(3) 0.29995(19)
C17 C 0.5728(3) 0.6489(3) 0.2759(2)
C18 C 0.5053(3) 0.6077(3) 0.3315(2)
H20 H 0.4311 0.5951 0.3176
C19 C 0.5457(3) 0.5848(3) 0.4072(2)
H21 H 0.4979 0.5589 0.4443
C20 C 0.6548(3) 0.5991(3) 0.4295(2)
H22 H 0.6804 0.5836 0.4814
C21 C 0.7267(3) 0.6365(3) 0.3753(2)
C22 C 0.5241(3) 0.6831(3) 0.1952(2)
H23 H 0.5853 0.7054 0.1634
C23 C 0.4647(3) 0.5894(4) 0.1520(2)
H24 H 0.5145 0.5281 0.1463
H25 H 0.4377 0.6147 0.1005
H26 H 0.4038 0.5655 0.1817
C24 C 0.4520(3) 0.7835(4) 0.2030(2)
H27 H 0.4262 0.8086 0.1511
H28 H 0.4935 0.8420 0.2297
H29 H 0.3901 0.7642 0.2331
C25 C 0.8483(3) 0.6457(3) 0.3965(2)
H30 H 0.8772 0.7070 0.3654
C26 C 0.8763(3) 0.6703(4) 0.4830(2)
H31 H 0.8364 0.7351 0.4986
H32 H 0.9541 0.6838 0.4911
H33 H 0.8563 0.6075 0.5146
C27 C 0.9037(3) 0.5400(4) 0.3722(3)
H34 H 0.8796 0.4789 0.4038
H35 H 0.9822 0.5481 0.3802
H36 H 0.8848 0.5252 0.3171
loop_
_geom_bond_atom_site_label_1
_geom_bond_atom_site_label_2
_geom_bond_site_symmetry_1
_geom_bond_site_symmetry_2
O1 N4 1_555 1_555
N1 C1 1_555 1_555
N2 C1 1_555 1_555
N3 N4 1_555 1_555
C1 N3 1_555 1_555
C2 N2 1_555 1_555
H1 C2 1_555 1_555
C3 N1 1_555 1_555
H2 C3 1_555 1_555
C4 N1 1_555 1_555
C5 C4 1_555 1_555
C6 C5 1_555 1_555
H3 C6 1_555 1_555
C7 C6 1_555 1_555
H4 C7 1_555 1_555
C8 C7 1_555 1_555
H5 C8 1_555 1_555
C9 C4 1_555 1_555
C10 C5 1_555 1_555
H6 C10 1_555 1_555
C11 C10 1_555 1_555
H7 C11 1_555 1_555
H8 C11 1_555 1_555
H9 C11 1_555 1_555
C12 C10 1_555 1_555
H10 C12 1_555 1_555
H11 C12 1_555 1_555
H12 C12 1_555 1_555
C13 C9 1_555 1_555
H13 C13 1_555 1_555
C14 C13 1_555 1_555
H14 C14 1_555 1_555
H15 C14 1_555 1_555
H16 C14 1_555 1_555
C15 C13 1_555 1_555
H17 C15 1_555 1_555
H18 C15 1_555 1_555
H19 C15 1_555 1_555
C16 N2 1_555 1_555
C17 C16 1_555 1_555
C18 C17 1_555 1_555
H20 C18 1_555 1_555
C19 C18 1_555 1_555
H21 C19 1_555 1_555
C20 C19 1_555 1_555
H22 C20 1_555 1_555
C21 C16 1_555 1_555
C22 C17 1_555 1_555
H23 C22 1_555 1_555
C23 C22 1_555 1_555
H24 C23 1_555 1_555
H25 C23 1_555 1_555
H26 C23 1_555 1_555
C24 C22 1_555 1_555
H27 C24 1_555 1_555
H28 C24 1_555 1_555
H29 C24 1_555 1_555
C25 C21 1_555 1_555
H30 C25 1_555 1_555
C26 C25 1_555 1_555
H31 C26 1_555 1_555
H32 C26 1_555 1_555
H33 C26 1_555 1_555
C27 C25 1_555 1_555
H34 C27 1_555 1_555
H35 C27 1_555 1_555
H36 C27 1_555 1_555
C2 C3 1_555 1_555
C8 C9 1_555 1_555
C20 C21 1_555 1_555

#END
