
#######################################################################
#
#                 Cambridge Crystallographic Data Centre
#                                CCDC 
#
#######################################################################
#
# If this CIF has been generated from an entry in the Cambridge 
# Structural Database, then it will include bibliographic, chemical, 
# crystal, experimental, refinement or atomic coordinate data resulting 
# from the CCDC's data processing and validation procedures.
#
#######################################################################

data_FAKJEJ
_chemical_formula_moiety         'C34 H36 N10 S2,2(C1 H2 Cl2)'
_chemical_name_systematic        
'1-(10-(3,5-bis(pyridin-2-yl)-1\l^4^,2,4,6-thiatriazin-1-yl)decyl)-3,5-bis(pyridin-2-yl)-1\l^4^,2,4,6-thiatriazine dichloromethane solvate'
_symmetry_cell_setting           monoclinic
_symmetry_space_group_name_H-M   'C 2/c'
_symmetry_Int_Tables_number      15
_space_group_name_Hall           '-C 2yn'
loop_
_symmetry_equiv_pos_site_id
_symmetry_equiv_pos_as_xyz
1 x,y,z
2 -x,y,1/2-z
3 1/2+x,1/2+y,z
4 1/2-x,1/2+y,1/2-z
5 -x,-y,-z
6 x,-y,1/2+z
7 1/2-x,1/2-y,-z
8 1/2+x,1/2-y,1/2+z
_cell_length_a                   18.9919(12)
_cell_length_b                   14.2910(8)
_cell_length_c                   16.4594(16)
_cell_angle_alpha                90
_cell_angle_beta                 122.227(3)
_cell_angle_gamma                90
_cell_volume                     3779.08
_exptl_crystal_colour            yellow
_exptl_crystal_description       plate
_cell_formula_units_Z            4
loop_
_atom_site_label
_atom_site_type_symbol
_atom_site_fract_x
_atom_site_fract_y
_atom_site_fract_z
C1 C 0.7371(3) 0.4907(4) 0.8971(4)
H1 H 0.7779 0.4468 0.9392
C2 C 0.6742(4) 0.5129(4) 0.9116(4)
H2 H 0.6701 0.4830 0.9606
C3 C 0.6178(4) 0.5789(5) 0.8540(5)
H3 H 0.5740 0.5964 0.8625
C4 C 0.6250(4) 0.6200(4) 0.7832(4)
H4 H 0.5860 0.6659 0.7421
C5 C 0.6886(3) 0.5943(3) 0.7727(3)
C6 C 0.6998(3) 0.6392(3) 0.6974(3)
C7 C 0.6449(3) 0.7498(3) 0.5753(3)
C8 C 0.5727(3) 0.8133(3) 0.5168(3)
C9 C 0.5090(3) 0.8201(4) 0.5343(4)
H5 H 0.5120 0.7870 0.5861
C10 C 0.4413(3) 0.8757(4) 0.4751(4)
H6 H 0.3962 0.8806 0.4844
C11 C 0.4402(3) 0.9241(4) 0.4022(4)
H7 H 0.3945 0.9630 0.3600
C12 C 0.5066(3) 0.9146(4) 0.3923(4)
H8 H 0.5059 0.9492 0.3426
C13 C 0.8583(3) 0.7399(3) 0.6882(3)
H9 H 0.9098 0.7020 0.7234
H10 H 0.8659 0.7849 0.6478
C14 C 0.8504(3) 0.7953(3) 0.7615(3)
H11 H 0.8439 0.7519 0.8039
H12 H 0.8002 0.8355 0.7281
C15 C 0.9278(3) 0.8565(4) 0.8222(3)
H13 H 0.9780 0.8165 0.8508
H14 H 0.9316 0.9027 0.7799
C16 C 0.9264(3) 0.9084(3) 0.9024(3)
H15 H 0.9260 0.8620 0.9467
H16 H 0.8743 0.9451 0.8739
C17 C 1.0001(3) 0.9743(4) 0.9598(3)
H17 H 1.0522 0.9376 0.9876
H18 H 1.0002 1.0209 0.9154
N1 N 0.7440(3) 0.5272(3) 0.8275(3)
N2 N 0.6482(2) 0.7121(3) 0.6531(3)
N3 N 0.5724(3) 0.8605(3) 0.4469(3)
N4 N 0.7551(2) 0.6030(3) 0.6827(3)
N5 N 0.6938(2) 0.7341(3) 0.5433(3)
S1 S 0.77355(7) 0.66192(8) 0.60890(8)
C1D C 1.2629(3) 1.5093(4) 1.1029(4)
H1D H 1.2221 1.5532 1.0608
C2D C 1.3258(4) 1.4871(4) 1.0884(4)
H2D H 1.3299 1.5170 1.0394
C3D C 1.3822(4) 1.4211(5) 1.1460(5)
H3D H 1.4260 1.4036 1.1375
C4D C 1.3750(4) 1.3800(4) 1.2168(4)
H4D H 1.4140 1.3341 1.2579
C5D C 1.3114(3) 1.4057(3) 1.2273(3)
C6D C 1.3002(3) 1.3608(3) 1.3026(3)
C7D C 1.3551(3) 1.2502(3) 1.4247(3)
C8D C 1.4273(3) 1.1867(3) 1.4832(3)
C9D C 1.4910(3) 1.1799(4) 1.4657(4)
H5D H 1.4880 1.2130 1.4139
C10D C 1.5587(3) 1.1243(4) 1.5249(4)
H6D H 1.6038 1.1194 1.5156
C11D C 1.5598(3) 1.0759(4) 1.5978(4)
H7D H 1.6055 1.0370 1.6400
C12D C 1.4934(3) 1.0854(4) 1.6077(4)
H8D H 1.4941 1.0508 1.6574
C13D C 1.1417(3) 1.2601(3) 1.3118(3)
H9D H 1.0902 1.2980 1.2766
H10D H 1.1341 1.2151 1.3522
C14D C 1.1496(3) 1.2047(3) 1.2385(3)
H11D H 1.1561 1.2481 1.1961
H12D H 1.1998 1.1645 1.2719
C15D C 1.0722(3) 1.1435(4) 1.1778(3)
H13D H 1.0220 1.1835 1.1492
H14D H 1.0684 1.0973 1.2201
C16D C 1.0736(3) 1.0916(3) 1.0976(3)
H15D H 1.0740 1.1380 1.0533
H16D H 1.1257 1.0549 1.1261
C17D C 0.9999(3) 1.0257(4) 1.0402(3)
H17D H 0.9478 1.0624 1.0124
H18D H 0.9998 0.9791 1.0846
N1D N 1.2560(3) 1.4728(3) 1.1725(3)
N2D N 1.3518(2) 1.2879(3) 1.3469(3)
N3D N 1.4276(3) 1.1395(3) 1.5531(3)
N4D N 1.2449(2) 1.3970(3) 1.3173(3)
N5D N 1.3062(2) 1.2659(3) 1.4567(3)
S1D S 1.22645(7) 1.33808(8) 1.39110(8)
C18 C 0.6875(5) 0.8800(5) 0.8144(6)
H19 H 0.7123 0.9430 0.8240
H20 H 0.6809 0.8532 0.7553
Cl1 Cl 0.75570(17) 0.80850(18) 0.91315(19)
Cl2 Cl 0.5909(9) 0.8903(13) 0.7994(14)
Cl3? Cl 0.6138(9) 0.9287(16) 0.8307(12)
loop_
_geom_bond_atom_site_label_1
_geom_bond_atom_site_label_2
_geom_bond_site_symmetry_1
_geom_bond_site_symmetry_2
C1 H1 1_555 1_555
C2 C1 1_555 1_555
H2 C2 1_555 1_555
C3 C2 1_555 1_555
H3 C3 1_555 1_555
C4 C3 1_555 1_555
H4 C4 1_555 1_555
C5 C4 1_555 1_555
C6 C5 1_555 1_555
C7 C8 1_555 1_555
C8 C9 1_555 1_555
C9 H5 1_555 1_555
C10 C9 1_555 1_555
H6 C10 1_555 1_555
C11 C10 1_555 1_555
H7 C11 1_555 1_555
C12 C11 1_555 1_555
H8 C12 1_555 1_555
C13 H9 1_555 1_555
H10 C13 1_555 1_555
C14 C13 1_555 1_555
H11 C14 1_555 1_555
H12 C14 1_555 1_555
C15 C14 1_555 1_555
H13 C15 1_555 1_555
H14 C15 1_555 1_555
C16 C15 1_555 1_555
H15 C16 1_555 1_555
H16 C16 1_555 1_555
C17 C16 1_555 1_555
H17 C17 1_555 1_555
H18 C17 1_555 1_555
N1 C1 1_555 1_555
N2 C6 1_555 1_555
N3 C8 1_555 1_555
N4 C6 1_555 1_555
N5 C7 1_555 1_555
S1 C13 1_555 1_555
C18 H19 1_555 1_555
H20 C18 1_555 1_555
Cl1 C18 1_555 1_555
Cl2 C18 1_555 1_555
C1D H1D 1_555 1_555
C2D C1D 1_555 1_555
H2D C2D 1_555 1_555
C3D C2D 1_555 1_555
H3D C3D 1_555 1_555
C4D C3D 1_555 1_555
H4D C4D 1_555 1_555
C5D C4D 1_555 1_555
C6D C5D 1_555 1_555
C7D C8D 1_555 1_555
C8D C9D 1_555 1_555
C9D H5D 1_555 1_555
C10D C9D 1_555 1_555
H6D C10D 1_555 1_555
C11D C10D 1_555 1_555
H7D C11D 1_555 1_555
C12D C11D 1_555 1_555
H8D C12D 1_555 1_555
C13D H9D 1_555 1_555
H10D C13D 1_555 1_555
C14D C13D 1_555 1_555
H11D C14D 1_555 1_555
H12D C14D 1_555 1_555
C15D C14D 1_555 1_555
H13D C15D 1_555 1_555
H14D C15D 1_555 1_555
C16D C15D 1_555 1_555
H15D C16D 1_555 1_555
H16D C16D 1_555 1_555
C17D C17 1_555 1_555
H17D C17D 1_555 1_555
H18D C17D 1_555 1_555
N1D C1D 1_555 1_555
N2D C6D 1_555 1_555
N3D C8D 1_555 1_555
N4D C6D 1_555 1_555
N5D C7D 1_555 1_555
S1D C13D 1_555 1_555
C5 N1 1_555 1_555
C7 N2 1_555 1_555
C12 N3 1_555 1_555
N4 S1 1_555 1_555
N5 S1 1_555 1_555
C5D N1D 1_555 1_555
C7D N2D 1_555 1_555
C12D N3D 1_555 1_555
C16D C17D 1_555 1_555
N4D S1D 1_555 1_555
N5D S1D 1_555 1_555

#END
