
#######################################################################
#
#                 Cambridge Crystallographic Data Centre
#                                CCDC 
#
#######################################################################
#
# If this CIF has been generated from an entry in the Cambridge 
# Structural Database, then it will include bibliographic, chemical, 
# crystal, experimental, refinement or atomic coordinate data resulting 
# from the CCDC's data processing and validation procedures.
#
#######################################################################

data_FAKKOS
_chemical_formula_moiety         'C21 H23 Br1 N3 P3'
_chemical_name_systematic        
cis-1-(Bromomethyl)-3,5-dimethyl-1,3,5-triphenylcyclotriphosphazene
_symmetry_cell_setting           monoclinic
_symmetry_space_group_name_H-M   'P 21/c'
_symmetry_Int_Tables_number      14
_space_group_name_Hall           '-P 2ybc'
loop_
_symmetry_equiv_pos_site_id
_symmetry_equiv_pos_as_xyz
1 x,y,z
2 -x,1/2+y,1/2-z
3 -x,-y,-z
4 x,1/2-y,1/2+z
_cell_length_a                   8.867(1)
_cell_length_b                   12.671(1)
_cell_length_c                   20.352(2)
_cell_angle_alpha                90
_cell_angle_beta                 92.183(9)
_cell_angle_gamma                90
_cell_volume                     2284.96
_exptl_crystal_colour            colorless
_exptl_crystal_description       plates
_cell_formula_units_Z            4
_exptl_crystal_recrystallization_method dichloromethane
loop_
_atom_site_label
_atom_site_type_symbol
_atom_site_fract_x
_atom_site_fract_y
_atom_site_fract_z
Br1 Br 0.38243(13) 0.88894(9) 0.34381(5)
P1 P 0.3236(2) 1.10098(16) 0.41457(9)
P2 P 0.3435(2) 1.21864(17) 0.29980(9)
P3 P 0.5907(2) 1.20661(16) 0.38886(9)
N1 N 0.4989(6) 1.1233(5) 0.4308(3)
N2 N 0.2514(6) 1.1452(5) 0.3473(3)
N3 N 0.5153(7) 1.2444(6) 0.3208(3)
C1 C 0.2958(9) 0.9582(6) 0.4177(4)
H1 H 0.1886 0.9429 0.4179
H2 H 0.3420 0.9307 0.4582
C2 C 0.3432(10) 1.1567(8) 0.2201(4)
H3 H 0.2413 1.1508 0.2028
H4 H 0.3872 1.0877 0.2241
H5 H 0.4009 1.1987 0.1909
C3 C 0.7722(9) 1.1496(7) 0.3735(4)
H6 H 0.8353 1.2019 0.3543
H7 H 0.7594 1.0911 0.3439
H8 H 0.8185 1.1256 0.4142
C4 C 0.2135(8) 1.1448(6) 0.4824(3)
C5 C 0.2456(9) 1.1078(7) 0.5451(4)
H9 H 0.3228 1.0590 0.5525
C6 C 0.1629(10) 1.1434(8) 0.5970(4)
H10 H 0.1831 1.1174 0.6391
C7 C 0.0516(10) 1.2167(8) 0.5864(4)
H11 H -0.0042 1.2398 0.6214
C8 C 0.0213(9) 1.2565(7) 0.5245(5)
H12 H -0.0535 1.3071 0.5175
C9 C 0.1026(9) 1.2207(7) 0.4736(4)
H13 H 0.0830 1.2481 0.4318
C10 C 0.2408(9) 1.3388(7) 0.2904(3)
C11 C 0.3133(12) 1.4376(8) 0.2938(4)
H14 H 0.4173 1.4403 0.3017
C12 C 0.2342(16) 1.5297(9) 0.2858(5)
H15 H 0.2835 1.5945 0.2886
C13 C 0.0784(17) 1.5250(11) 0.2732(5)
H16 H 0.0230 1.5869 0.2674
C14 C 0.0071(12) 1.4291(12) 0.2695(5)
H17 H -0.0967 1.4261 0.2612
C15 C 0.0871(5) 1.3381(4) 0.2777(2)
H18 H 0.0367 1.2738 0.2747
C16 C 0.6362(5) 1.3198(4) 0.4400(2)
C17 C 0.7140(5) 1.4050(4) 0.4152(2)
H19 H 0.7375 1.4061 0.3711
C18 C 0.7571(12) 1.4888(8) 0.4560(7)
H20 H 0.8130 1.5443 0.4394
C19 C 0.7186(13) 1.4899(10) 0.5186(6)
H21 H 0.7467 1.5459 0.5460
C20 C 0.6385(13) 1.4087(10) 0.5415(6)
H22 H 0.6101 1.4112 0.5850
C21 C 0.5971(9) 1.3241(7) 0.5051(4)
H23 H 0.5430 1.2693 0.5235
loop_
_geom_bond_atom_site_label_1
_geom_bond_atom_site_label_2
_geom_bond_site_symmetry_1
_geom_bond_site_symmetry_2
Br1 C1 1_555 1_555
P1 N1 1_555 1_555
P2 N2 1_555 1_555
P3 N1 1_555 1_555
N2 P1 1_555 1_555
N3 P2 1_555 1_555
C1 P1 1_555 1_555
H1 C1 1_555 1_555
H2 C1 1_555 1_555
C2 P2 1_555 1_555
H3 C2 1_555 1_555
H4 C2 1_555 1_555
H5 C2 1_555 1_555
C3 P3 1_555 1_555
H6 C3 1_555 1_555
H7 C3 1_555 1_555
H8 C3 1_555 1_555
C4 P1 1_555 1_555
C5 C4 1_555 1_555
H9 C5 1_555 1_555
C6 C5 1_555 1_555
H10 C6 1_555 1_555
C7 C6 1_555 1_555
H11 C7 1_555 1_555
C8 C7 1_555 1_555
H12 C8 1_555 1_555
C9 C4 1_555 1_555
H13 C9 1_555 1_555
C10 P2 1_555 1_555
C11 C10 1_555 1_555
H14 C11 1_555 1_555
C12 C11 1_555 1_555
H15 C12 1_555 1_555
C13 C12 1_555 1_555
H16 C13 1_555 1_555
C14 C13 1_555 1_555
H17 C14 1_555 1_555
C15 C10 1_555 1_555
H18 C15 1_555 1_555
C16 P3 1_555 1_555
C17 C16 1_555 1_555
H19 C17 1_555 1_555
C18 C17 1_555 1_555
H20 C18 1_555 1_555
C19 C18 1_555 1_555
H21 C19 1_555 1_555
C20 C19 1_555 1_555
H22 C20 1_555 1_555
C21 C16 1_555 1_555
H23 C21 1_555 1_555
P3 N3 1_555 1_555
C8 C9 1_555 1_555
C14 C15 1_555 1_555
C20 C21 1_555 1_555

#END
