
#######################################################################
#
#                 Cambridge Crystallographic Data Centre
#                                CCDC 
#
#######################################################################
#
# If this CIF has been generated from an entry in the Cambridge 
# Structural Database, then it will include bibliographic, chemical, 
# crystal, experimental, refinement or atomic coordinate data resulting 
# from the CCDC's data processing and validation procedures.
#
#######################################################################

data_FAKKUY
_chemical_formula_moiety         'C21 H22 Br2 N3 P3'
_chemical_name_systematic        
cis-1,3-bis(Bromomethyl)-5-methyl-1,3,5-triphenylcyclotriphosphazene
_symmetry_cell_setting           monoclinic
_symmetry_space_group_name_H-M   'P 21/c'
_symmetry_Int_Tables_number      14
_space_group_name_Hall           '-P 2ybc'
loop_
_symmetry_equiv_pos_site_id
_symmetry_equiv_pos_as_xyz
1 x,y,z
2 -x,1/2+y,1/2-z
3 -x,-y,-z
4 x,1/2-y,1/2+z
_cell_length_a                   10.9206(6)
_cell_length_b                   12.6846(9)
_cell_length_c                   17.7519(16)
_cell_angle_alpha                90
_cell_angle_beta                 105.310(7)
_cell_angle_gamma                90
_cell_volume                     2371.79
_exptl_crystal_colour            colorless
_exptl_crystal_description       plates
_cell_formula_units_Z            4
_exptl_crystal_recrystallization_method dichloromethane
loop_
_atom_site_label
_atom_site_type_symbol
_atom_site_fract_x
_atom_site_fract_y
_atom_site_fract_z
P1 P 0.39311(14) 0.01692(11) 0.13180(8)
P2 P 0.36535(14) -0.08677(11) 0.26344(8)
P3 P 0.42538(13) -0.20093(11) 0.14425(8)
N1 N 0.4084(4) -0.0951(3) 0.0940(2)
N2 N 0.3949(4) 0.0188(3) 0.2221(3)
N3 N 0.4040(5) -0.1956(3) 0.2298(2)
Br1 Br 0.68276(6) 0.04872(6) 0.16063(4)
Br2 Br 0.63646(7) -0.28438(6) 0.06814(4)
C1 C 0.5151(5) 0.1057(5) 0.1184(3)
H1 H 0.5080 0.1723 0.1438
H2 H 0.5022 0.1193 0.0631
C2 C 0.4441(6) -0.0786(5) 0.3655(3)
H3 H 0.5340 -0.0853 0.3729
H4 H 0.4146 -0.1344 0.3928
H5 H 0.4258 -0.0118 0.3855
C3 C 0.5836(5) -0.2529(5) 0.1617(3)
H6 H 0.5891 -0.3169 0.1923
H7 H 0.6425 -0.2024 0.1927
C4 C 0.2531(5) 0.0806(4) 0.0739(3)
C5 C 0.2108(7) 0.1731(5) 0.0992(4)
H8 H 0.2542 0.2013 0.1472
C6 C 0.1049(7) 0.2243(6) 0.0544(5)
H9 H 0.0774 0.2863 0.0726
C7 C 0.0402(7) 0.1850(6) -0.0164(4)
H10 H -0.0312 0.2196 -0.0464
C8 C 0.0813(6) 0.0949(6) -0.0423(4)
H11 H 0.0379 0.0677 -0.0907
C9 C 0.1877(6) 0.0424(5) 0.0023(3)
H12 H 0.2147 -0.0194 -0.0166
C10 C 0.1981(5) -0.0923(4) 0.2601(3)
C11 C 0.1353(6) -0.0044(5) 0.2746(4)
H13 H 0.1771 0.0601 0.2827
C12 C 0.0093(6) -0.0110(6) 0.2772(4)
H14 H -0.0320 0.0490 0.2880
C13 C -0.0535(6) -0.1038(6) 0.2642(4)
H15 H -0.1379 -0.1076 0.2656
C14 C 0.0073(7) -0.1917(6) 0.2489(4)
H16 H -0.0355 -0.2558 0.2403
C15 C 0.1313(6) -0.1860(5) 0.2463(4)
H17 H 0.1714 -0.2464 0.2351
C16 C 0.3233(5) -0.3005(4) 0.0877(3)
C17 C 0.2729(5) -0.2883(5) 0.0078(3)
H18 H 0.2912 -0.2283 -0.0173
C18 C 0.1956(6) -0.3656(6) -0.0338(4)
H19 H 0.1605 -0.3571 -0.0872
C19 C 0.1693(6) -0.4559(6) 0.0027(4)
H20 H 0.1180 -0.5086 -0.0255
C20 C 0.2209(7) -0.4656(6) 0.0814(4)
H21 H 0.2034 -0.5257 0.1068
C21 C 0.2979(6) -0.3888(5) 0.1241(4)
H22 H 0.3324 -0.3973 0.1776
loop_
_geom_bond_atom_site_label_1
_geom_bond_atom_site_label_2
_geom_bond_site_symmetry_1
_geom_bond_site_symmetry_2
P1 N1 1_555 1_555
P2 N2 1_555 1_555
P3 N1 1_555 1_555
N2 P1 1_555 1_555
N3 P2 1_555 1_555
Br1 C1 1_555 1_555
Br2 C3 1_555 1_555
C1 P1 1_555 1_555
H1 C1 1_555 1_555
H2 C1 1_555 1_555
C2 P2 1_555 1_555
H3 C2 1_555 1_555
H4 C2 1_555 1_555
H5 C2 1_555 1_555
C3 P3 1_555 1_555
H6 C3 1_555 1_555
H7 C3 1_555 1_555
C4 P1 1_555 1_555
C5 C4 1_555 1_555
H8 C5 1_555 1_555
C6 C5 1_555 1_555
H9 C6 1_555 1_555
C7 C6 1_555 1_555
H10 C7 1_555 1_555
C8 C7 1_555 1_555
H11 C8 1_555 1_555
C9 C4 1_555 1_555
H12 C9 1_555 1_555
C10 P2 1_555 1_555
C11 C10 1_555 1_555
H13 C11 1_555 1_555
C12 C11 1_555 1_555
H14 C12 1_555 1_555
C13 C12 1_555 1_555
H15 C13 1_555 1_555
C14 C13 1_555 1_555
H16 C14 1_555 1_555
C15 C10 1_555 1_555
H17 C15 1_555 1_555
C16 P3 1_555 1_555
C17 C16 1_555 1_555
H18 C17 1_555 1_555
C18 C17 1_555 1_555
H19 C18 1_555 1_555
C19 C18 1_555 1_555
H20 C19 1_555 1_555
C20 C19 1_555 1_555
H21 C20 1_555 1_555
C21 C16 1_555 1_555
H22 C21 1_555 1_555
P3 N3 1_555 1_555
C8 C9 1_555 1_555
C14 C15 1_555 1_555
C20 C21 1_555 1_555

#END
