
#######################################################################
#
#                 Cambridge Crystallographic Data Centre
#                                CCDC 
#
#######################################################################
#
# If this CIF has been generated from an entry in the Cambridge 
# Structural Database, then it will include bibliographic, chemical, 
# crystal, experimental, refinement or atomic coordinate data resulting 
# from the CCDC's data processing and validation procedures.
#
#######################################################################

data_FAKKIM
_chemical_formula_moiety         'C21 H21 I3 N3 P3'
_chemical_name_systematic        
cis-1,3,5-tris(Iodomethyl)-1,3,5-triphenylcyclotriphosphazene
_symmetry_cell_setting           triclinic
_symmetry_space_group_name_H-M   'P -1'
_symmetry_Int_Tables_number      2
_space_group_name_Hall           '-P 1'
loop_
_symmetry_equiv_pos_site_id
_symmetry_equiv_pos_as_xyz
1 x,y,z
2 -x,-y,-z
_cell_length_a                   8.9013(5)
_cell_length_b                   11.3382(7)
_cell_length_c                   14.5494(10)
_cell_angle_alpha                74.881(5)
_cell_angle_beta                 73.207(5)
_cell_angle_gamma                71.698(4)
_cell_volume                     1311.08
_exptl_crystal_colour            'pale yellow'
_exptl_crystal_description       plates
_cell_formula_units_Z            2
_exptl_crystal_recrystallization_method dichloromethane
loop_
_atom_site_label
_atom_site_type_symbol
_atom_site_fract_x
_atom_site_fract_y
_atom_site_fract_z
P1 P 0.27237(14) 0.22103(10) 0.23512(8)
P2 P 0.17578(14) 0.31055(10) 0.40967(8)
P3 P 0.18482(14) 0.48007(10) 0.23119(8)
N1 N 0.2525(5) 0.3628(3) 0.1765(2)
N2 N 0.2362(5) 0.1973(3) 0.3509(3)
N3 N 0.1294(5) 0.4512(3) 0.3482(3)
I1 I -0.10498(5) 0.23465(4) 0.24541(3)
I2 I 0.03756(4) 0.10886(3) 0.59389(2)
I3 I 0.05488(4) 0.65274(3) 0.03709(2)
C1 C 0.1469(7) 0.1500(5) 0.1998(4)
H1 H 0.1693 0.0606 0.2281
H2 H 0.1752 0.1582 0.1292
C2 C -0.0044(6) 0.2918(4) 0.5027(3)
H3 H -0.0925 0.3031 0.4720
H4 H -0.0365 0.3561 0.5424
C3 C 0.0072(6) 0.5837(4) 0.1912(3)
H5 H -0.0339 0.6548 0.2248
H6 H -0.0764 0.5386 0.2088
C4 C 0.4718(6) 0.1258(4) 0.1912(3)
C5 C 0.5373(7) 0.0184(5) 0.2516(4)
H7 H 0.4793 -0.0043 0.3149
C6 C 0.6915(9) -0.0564(6) 0.2174(6)
H8 H 0.7374 -0.1284 0.2582
C7 C 0.7734(8) -0.0246(6) 0.1258(6)
H9 H 0.8753 -0.0759 0.1031
C8 C 0.7102(9) 0.0809(7) 0.0659(6)
H10 H 0.7699 0.1020 0.0029
C9 C 0.5583(8) 0.1580(5) 0.0968(4)
H11 H 0.5149 0.2301 0.0550
C10 C 0.3247(6) 0.2990(4) 0.4754(3)
C11 C 0.2900(7) 0.3803(5) 0.5405(4)
H12 H 0.1885 0.4372 0.5527
C12 C 0.4090(8) 0.3754(6) 0.5870(5)
H13 H 0.3883 0.4305 0.6292
C13 C 0.5552(7) 0.2900(7) 0.5704(5)
H14 H 0.6344 0.2878 0.6013
C14 C 0.5884(7) 0.2078(7) 0.5099(5)
H15 H 0.6883 0.1483 0.5012
C15 C 0.4736(6) 0.2125(6) 0.4612(4)
H16 H 0.4971 0.1571 0.4188
C16 C 0.3332(5) 0.5712(4) 0.1924(3)
C17 C 0.4879(7) 0.5241(5) 0.1414(4)
H17 H 0.5164 0.4449 0.1247
C18 C 0.6020(7) 0.5941(7) 0.1145(5)
H18 H 0.7068 0.5605 0.0809
C19 C 0.5636(8) 0.7096(6) 0.1362(4)
H19 H 0.6412 0.7555 0.1178
C20 C 0.4065(8) 0.7602(6) 0.1865(5)
H20 H 0.3785 0.8402 0.2017
C21 C 0.2943(7) 0.6917(5) 0.2131(4)
H21 H 0.1893 0.7263 0.2459
loop_
_geom_bond_atom_site_label_1
_geom_bond_atom_site_label_2
_geom_bond_site_symmetry_1
_geom_bond_site_symmetry_2
P1 N1 1_555 1_555
P2 N2 1_555 1_555
P3 N1 1_555 1_555
N2 P1 1_555 1_555
N3 P2 1_555 1_555
I1 C1 1_555 1_555
I2 C2 1_555 1_555
I3 C3 1_555 1_555
C1 P1 1_555 1_555
H1 C1 1_555 1_555
H2 C1 1_555 1_555
C2 P2 1_555 1_555
H3 C2 1_555 1_555
H4 C2 1_555 1_555
C3 P3 1_555 1_555
H5 C3 1_555 1_555
H6 C3 1_555 1_555
C4 P1 1_555 1_555
C5 C4 1_555 1_555
H7 C5 1_555 1_555
C6 C5 1_555 1_555
H8 C6 1_555 1_555
C7 C6 1_555 1_555
H9 C7 1_555 1_555
C8 C7 1_555 1_555
H10 C8 1_555 1_555
C9 C4 1_555 1_555
H11 C9 1_555 1_555
C10 P2 1_555 1_555
C11 C10 1_555 1_555
H12 C11 1_555 1_555
C12 C11 1_555 1_555
H13 C12 1_555 1_555
C13 C12 1_555 1_555
H14 C13 1_555 1_555
C14 C13 1_555 1_555
H15 C14 1_555 1_555
C15 C10 1_555 1_555
H16 C15 1_555 1_555
C16 P3 1_555 1_555
C17 C16 1_555 1_555
H17 C17 1_555 1_555
C18 C17 1_555 1_555
H18 C18 1_555 1_555
C19 C18 1_555 1_555
H19 C19 1_555 1_555
C20 C19 1_555 1_555
H20 C20 1_555 1_555
C21 C16 1_555 1_555
H21 C21 1_555 1_555
P3 N3 1_555 1_555
C8 C9 1_555 1_555
C14 C15 1_555 1_555
C20 C21 1_555 1_555

#END
