
#######################################################################
#
#                 Cambridge Crystallographic Data Centre
#                                CCDC 
#
#######################################################################
#
# If this CIF has been generated from an entry in the Cambridge 
# Structural Database, then it will include bibliographic, chemical, 
# crystal, experimental, refinement or atomic coordinate data resulting 
# from the CCDC's data processing and validation procedures.
#
#######################################################################

data_FAKLAF
_chemical_formula_moiety         'C27 H30 N3 O3 P3 S3'
_chemical_name_systematic        
cis-1,3,5-tris(Acetylthiomethyl)-1,3,5-triphenylcyclotriphosphazene
_symmetry_cell_setting           triclinic
_symmetry_space_group_name_H-M   'P -1'
_symmetry_Int_Tables_number      2
_space_group_name_Hall           '-P 1'
loop_
_symmetry_equiv_pos_site_id
_symmetry_equiv_pos_as_xyz
1 x,y,z
2 -x,-y,-z
_cell_length_a                   11.389(1)
_cell_length_b                   11.623(1)
_cell_length_c                   14.291(1)
_cell_angle_alpha                101.409(4)
_cell_angle_beta                 101.971(5)
_cell_angle_gamma                118.379(4)
_cell_volume                     1528.63
_exptl_crystal_colour            'pale yellow'
_exptl_crystal_description       plates
_cell_formula_units_Z            2
_exptl_crystal_recrystallization_method benzene/hexanes
loop_
_atom_site_label
_atom_site_type_symbol
_atom_site_fract_x
_atom_site_fract_y
_atom_site_fract_z
P1 P 0.07042(6) 0.03615(5) 0.24781(4)
P2 P 0.11570(6) 0.22135(5) 0.42910(4)
P3 P -0.00566(6) 0.23090(5) 0.24306(4)
N1 N 0.0060(2) 0.10575(19) 0.18609(13)
N2 N 0.1227(2) 0.09405(19) 0.36934(13)
N3 N 0.0679(2) 0.29808(18) 0.36419(13)
S1 S -0.21384(7) -0.18177(7) 0.23860(5)
S2 S -0.06991(7) 0.25360(7) 0.54730(5)
S3 S -0.22423(6) 0.30001(6) 0.26507(4)
O1 O -0.3265(3) -0.2971(3) 0.03963(17)
O2 O -0.3079(2) 0.0302(2) 0.41474(19)
O3 O -0.3026(3) 0.2671(2) 0.07067(15)
C1 C -0.0603(2) -0.1489(2) 0.20513(19)
H1 H -0.0890 -0.1882 0.1318
H2 H -0.0183 -0.1940 0.2360
C2 C -0.0070(3) 0.1492(2) 0.49549(18)
H3 H -0.0890 0.0601 0.4486
H4 H 0.0395 0.1316 0.5508
C3 C -0.1934(2) 0.1679(2) 0.21079(18)
H5 H -0.2379 0.1332 0.1372
H6 H -0.2383 0.0907 0.2347
C4 C 0.2090(2) 0.0354(2) 0.20652(16)
C5 C 0.2245(3) 0.0601(3) 0.1176(2)
H7 H 0.1674 0.0842 0.0812
C6 C 0.3247(3) 0.0489(3) 0.0828(2)
H8 H 0.3358 0.0670 0.0236
C7 C 0.4075(3) 0.0110(3) 0.1355(3)
H9 H 0.4732 0.0016 0.1110
C8 C 0.3943(3) -0.0130(3) 0.2240(3)
H10 H 0.4513 -0.0379 0.2597
C9 C 0.2954(3) 0.0000(3) 0.2602(2)
H11 H 0.2871 -0.0151 0.3206
C10 C -0.3489(3) -0.2702(3) 0.1169(2)
C11 C -0.4920(4) -0.3097(5) 0.1229(3)
H12 H -0.5434 -0.2966 0.0681
H13 H -0.4802 -0.2521 0.1868
H14 H -0.5442 -0.4056 0.1177
C12 C 0.2867(2) 0.3485(2) 0.52642(15)
C13 C 0.3336(3) 0.4879(3) 0.5572(2)
H15 H 0.2752 0.5164 0.5290
C14 C 0.4670(3) 0.5858(3) 0.6298(2)
H16 H 0.4977 0.6796 0.6500
C15 C 0.5533(3) 0.5457(3) 0.6716(2)
H17 H 0.6432 0.6122 0.7198
C16 C 0.5081(3) 0.4076(4) 0.6430(2)
H18 H 0.5673 0.3805 0.6722
C17 C 0.3749(3) 0.3083(3) 0.5708(2)
H19 H 0.3443 0.2146 0.5521
C18 C -0.2543(3) 0.1431(3) 0.4791(2)
C19 C -0.3392(3) 0.2017(4) 0.5068(3)
H20 H -0.4033 0.1918 0.4459
H21 H -0.2760 0.2986 0.5476
H22 H -0.3928 0.1524 0.5447
C20 C 0.0632(2) 0.3666(2) 0.18987(16)
C21 C 0.0991(3) 0.4992(2) 0.24082(19)
H23 H 0.0907 0.5192 0.3045
C22 C 0.1472(3) 0.6025(3) 0.1987(2)
H24 H 0.1700 0.6911 0.2336
C23 C 0.1615(3) 0.5745(3) 0.1051(2)
H25 H 0.1948 0.6441 0.0768
C24 C 0.1265(3) 0.4441(3) 0.0541(2)
H26 H 0.1359 0.4253 -0.0093
C25 C 0.0773(3) 0.3393(3) 0.09512(19)
H27 H 0.0537 0.2508 0.0594
C26 C -0.2840(3) 0.3321(3) 0.1547(2)
C27 C -0.3073(5) 0.4498(4) 0.1765(3)
H28 H -0.2563 0.5152 0.1460
H29 H -0.2733 0.4955 0.2488
H30 H -0.4071 0.4140 0.1485
loop_
_geom_bond_atom_site_label_1
_geom_bond_atom_site_label_2
_geom_bond_site_symmetry_1
_geom_bond_site_symmetry_2
P1 N1 1_555 1_555
P2 N2 1_555 1_555
P3 N1 1_555 1_555
N2 P1 1_555 1_555
N3 P2 1_555 1_555
S1 C1 1_555 1_555
S2 C2 1_555 1_555
S3 C3 1_555 1_555
O1 C10 1_555 1_555
O2 C18 1_555 1_555
O3 C26 1_555 1_555
C1 P1 1_555 1_555
H1 C1 1_555 1_555
H2 C1 1_555 1_555
C2 P2 1_555 1_555
H3 C2 1_555 1_555
H4 C2 1_555 1_555
C3 P3 1_555 1_555
H5 C3 1_555 1_555
H6 C3 1_555 1_555
C4 P1 1_555 1_555
C5 C4 1_555 1_555
H7 C5 1_555 1_555
C6 C5 1_555 1_555
H8 C6 1_555 1_555
C7 C6 1_555 1_555
H9 C7 1_555 1_555
C8 C7 1_555 1_555
H10 C8 1_555 1_555
C9 C4 1_555 1_555
H11 C9 1_555 1_555
C10 S1 1_555 1_555
C11 C10 1_555 1_555
H12 C11 1_555 1_555
H13 C11 1_555 1_555
H14 C11 1_555 1_555
C12 P2 1_555 1_555
C13 C12 1_555 1_555
H15 C13 1_555 1_555
C14 C13 1_555 1_555
H16 C14 1_555 1_555
C15 C14 1_555 1_555
H17 C15 1_555 1_555
C16 C15 1_555 1_555
H18 C16 1_555 1_555
C17 C12 1_555 1_555
H19 C17 1_555 1_555
C18 S2 1_555 1_555
C19 C18 1_555 1_555
H20 C19 1_555 1_555
H21 C19 1_555 1_555
H22 C19 1_555 1_555
C20 P3 1_555 1_555
C21 C20 1_555 1_555
H23 C21 1_555 1_555
C22 C21 1_555 1_555
H24 C22 1_555 1_555
C23 C22 1_555 1_555
H25 C23 1_555 1_555
C24 C23 1_555 1_555
H26 C24 1_555 1_555
C25 C20 1_555 1_555
H27 C25 1_555 1_555
C26 S3 1_555 1_555
C27 C26 1_555 1_555
H28 C27 1_555 1_555
H29 C27 1_555 1_555
H30 C27 1_555 1_555
P3 N3 1_555 1_555
C8 C9 1_555 1_555
C16 C17 1_555 1_555
C24 C25 1_555 1_555

#END
