
#######################################################################
#
#                 Cambridge Crystallographic Data Centre
#                                CCDC 
#
#######################################################################
#
# If this CIF has been generated from an entry in the Cambridge 
# Structural Database, then it will include bibliographic, chemical, 
# crystal, experimental, refinement or atomic coordinate data resulting 
# from the CCDC's data processing and validation procedures.
#
#######################################################################

data_FAKLOV
_chemical_formula_moiety         'C20 H14 F4 S2'
_chemical_name_systematic        
1,2,4,5-tetrafluoro-3,6-bis((phenylsulfanyl)methyl)benzene
_symmetry_cell_setting           monoclinic
_symmetry_space_group_name_H-M   'P 21/c'
_symmetry_Int_Tables_number      14
_space_group_name_Hall           '-P 2ybc'
loop_
_symmetry_equiv_pos_site_id
_symmetry_equiv_pos_as_xyz
1 x,y,z
2 -x,1/2+y,1/2-z
3 -x,-y,-z
4 x,1/2-y,1/2+z
_cell_length_a                   9.4250(11)
_cell_length_b                   5.0178(4)
_cell_length_c                   18.3077(17)
_cell_angle_alpha                90
_cell_angle_beta                 92.543(3)
_cell_angle_gamma                90
_cell_volume                     864.969
_exptl_crystal_colour            colorless
_exptl_crystal_description       BLOCK
_cell_formula_units_Z            2
loop_
_atom_site_label
_atom_site_type_symbol
_atom_site_fract_x
_atom_site_fract_y
_atom_site_fract_z
S1 S 0.10079(5) 0.48430(10) 0.41976(2)
F1 F 0.45571(11) 0.0835(2) 0.40707(5)
F2 F 0.28501(11) 0.7076(2) 0.57545(5)
C1 C 0.1251(2) 0.2077(3) 0.29071(9)
H1 H 0.0498 0.0997 0.3068
C2 C 0.1833(2) 0.1582(4) 0.22379(9)
H2 H 0.1481 0.0159 0.1939
C3 C 0.2926(2) 0.3163(4) 0.20060(9)
H3 H 0.3323 0.2822 0.1547
C4 C 0.3447(2) 0.5233(4) 0.24356(9)
H4 H 0.4202 0.6303 0.2273
C5 C 0.2866(2) 0.5752(4) 0.31044(9)
H5 H 0.3216 0.7191 0.3398
C6 C 0.1774(2) 0.4166(4) 0.33435(9)
C7 C 0.2134(2) 0.2772(4) 0.48074(9)
H6 H 0.1701 0.2647 0.5289
H7 H 0.2183 0.0950 0.4602
C8 C 0.3606(2) 0.3876(3) 0.49087(8)
C9 C 0.4748(2) 0.2928(3) 0.45344(8)
C10 C 0.3909(2) 0.6011(4) 0.53756(8)
S1B S 0.89921(5) 0.51570(10) 0.58024(2)
F1B F 0.54429(11) 0.9165(2) 0.59293(5)
F2B F 0.71499(11) 0.2924(2) 0.42455(5)
C1B C 0.8749(2) 0.7923(3) 0.70929(9)
H1B H 0.9502 0.9003 0.6932
C2B C 0.8167(2) 0.8418(4) 0.77621(9)
H2B H 0.8519 0.9841 0.8061
C3B C 0.7074(2) 0.6837(4) 0.79940(9)
H3B H 0.6677 0.7178 0.8453
C4B C 0.6553(2) 0.4767(4) 0.75644(9)
H4B H 0.5798 0.3697 0.7727
C5B C 0.7134(2) 0.4248(4) 0.68956(9)
H5B H 0.6784 0.2809 0.6602
C6B C 0.8226(2) 0.5834(4) 0.66565(9)
C7B C 0.7866(2) 0.7228(4) 0.51926(9)
H6B H 0.8299 0.7353 0.4711
H7B H 0.7817 0.9050 0.5398
C8B C 0.6394(2) 0.6124(3) 0.50913(8)
C9B C 0.5252(2) 0.7072(3) 0.54656(8)
C10B C 0.6091(2) 0.3989(4) 0.46244(8)
loop_
_geom_bond_atom_site_label_1
_geom_bond_atom_site_label_2
_geom_bond_site_symmetry_1
_geom_bond_site_symmetry_2
S1 C6 1_555 1_555
F1 C9 1_555 1_555
F2 C10 1_555 1_555
C1 H1 1_555 1_555
C2 C1 1_555 1_555
H2 C2 1_555 1_555
C3 C2 1_555 1_555
H3 C3 1_555 1_555
C4 C3 1_555 1_555
H4 C4 1_555 1_555
C5 C4 1_555 1_555
H5 C5 1_555 1_555
C6 C1 1_555 1_555
C7 S1 1_555 1_555
H6 C7 1_555 1_555
H7 C7 1_555 1_555
C8 C7 1_555 1_555
C9 C8 1_555 1_555
C10 C8 1_555 1_555
S1B C6B 1_555 1_555
F1B C9B 1_555 1_555
F2B C10B 1_555 1_555
C1B H1B 1_555 1_555
C2B C1B 1_555 1_555
H2B C2B 1_555 1_555
C3B C2B 1_555 1_555
H3B C3B 1_555 1_555
C4B C3B 1_555 1_555
H4B C4B 1_555 1_555
C5B C4B 1_555 1_555
H5B C5B 1_555 1_555
C6B C1B 1_555 1_555
C7B S1B 1_555 1_555
H6B C7B 1_555 1_555
H7B C7B 1_555 1_555
C8B C7B 1_555 1_555
C9B C10 1_555 1_555
C10B C9 1_555 1_555
C5 C6 1_555 1_555
C5B C6B 1_555 1_555
C8B C9B 1_555 1_555
C8B C10B 1_555 1_555

#END
