
#######################################################################
#
#                 Cambridge Crystallographic Data Centre
#                                CCDC 
#
#######################################################################
#
# If this CIF has been generated from an entry in the Cambridge 
# Structural Database, then it will include bibliographic, chemical, 
# crystal, experimental, refinement or atomic coordinate data resulting 
# from the CCDC's data processing and validation procedures.
#
#######################################################################

data_FAKSOC
_chemical_name_common            
2,12,12-trimethoxy-3,4,6,7-tetrahydro-1H-3,7-methanobenzo[c]azonine-1,5(2H)-dione
_chemical_formula_moiety         'C16 H19 N1 O5'
_chemical_name_systematic        
9,14,14-trimethoxy-9-azatricyclo[8.3.1.0^2,7^]tetradeca-2,4,6-triene-8,12-dione
_symmetry_cell_setting           monoclinic
_symmetry_space_group_name_H-M   'P 21'
_symmetry_Int_Tables_number      4
_space_group_name_Hall           'P 2yb'
loop_
_symmetry_equiv_pos_site_id
_symmetry_equiv_pos_as_xyz
1 x,y,z
2 -x,1/2+y,-z
_cell_length_a                   9.374(18)
_cell_length_b                   12.30(2)
_cell_length_c                   12.90(2)
_cell_angle_alpha                90
_cell_angle_beta                 90.35(4)
_cell_angle_gamma                90
_cell_volume                     1487.34
_exptl_crystal_colour            colorless
_exptl_crystal_description       block
_chemical_melting_point          '144-145 deg.C'
_cell_formula_units_Z            4
loop_
_atom_site_label
_atom_site_type_symbol
_atom_site_fract_x
_atom_site_fract_y
_atom_site_fract_z
O1 O -0.1535(6) -0.4068(4) 0.3446(4)
O2 O -0.4542(6) -0.4177(5) 0.1454(4)
O3 O -0.2900(6) -0.0697(5) 0.1224(4)
N1 N -0.3801(6) -0.3403(6) 0.2066(4)
O4 O 0.0109(5) -0.3603(4) 0.2149(4)
O5 O -0.5335(6) -0.3920(5) 0.3325(4)
C1 C -0.1217(8) -0.3337(7) 0.2628(5)
C2 C -0.2306(8) -0.3414(7) 0.1727(5)
H1 H -0.2145 -0.4112 0.1380
C3 C -0.2043(8) -0.2508(7) 0.0912(5)
H2 H -0.1131 -0.2623 0.0578
H3 H -0.2784 -0.2529 0.0384
C4 C -0.2051(8) -0.1413(7) 0.1453(5)
C5 C -0.0966(8) -0.1315(7) 0.2301(5)
H4 H -0.1035 -0.0601 0.2618
H5 H -0.0017 -0.1389 0.2014
C6 C -0.3813(8) -0.2449(7) 0.3800(5)
C7 C -0.1203(8) -0.2205(6) 0.3138(5)
H6 H -0.0374 -0.2184 0.3604
C8 C -0.2492(8) -0.1951(7) 0.3785(5)
C9 C -0.2283(9) -0.1081(7) 0.4505(6)
H7 H -0.1397 -0.0740 0.4530
C10 C -0.4649(9) -0.1267(7) 0.5182(6)
H8 H -0.5354 -0.1064 0.5649
C11 C -0.4308(8) -0.3367(8) 0.3090(5)
C12 C -0.3348(9) -0.0723(7) 0.5170(6)
H9 H -0.3192 -0.0127 0.5601
C13 C -0.1621(10) -0.5212(7) 0.3155(7)
H10 H -0.1846 -0.5640 0.3755
H11 H -0.0721 -0.5443 0.2880
H12 H -0.2352 -0.5306 0.2638
C14 C -0.4887(9) -0.2123(7) 0.4485(5)
H13 H -0.5763 -0.2477 0.4477
C15 C 0.1339(8) -0.3661(8) 0.2812(6)
H14 H 0.2162 -0.3842 0.2408
H15 H 0.1193 -0.4209 0.3331
H16 H 0.1485 -0.2970 0.3143
C16 C -0.5594(9) -0.3637(8) 0.0834(6)
H17 H -0.6097 -0.4162 0.0420
H18 H -0.5137 -0.3119 0.0389
H19 H -0.6255 -0.3267 0.1277
O6 O 0.3460(5) 0.2380(4) 0.1552(3)
O7 O 0.2093(6) -0.0976(5) 0.3775(4)
O8 O 0.0465(6) 0.2489(5) 0.3559(4)
O9 O 0.5110(5) 0.1904(5) 0.2859(4)
N2 N 0.1202(6) 0.1719(5) 0.2926(4)
O10 O -0.0343(6) 0.2227(5) 0.1670(4)
C17 C 0.2720(8) 0.1714(7) 0.3274(5)
H20 H 0.2891 0.2409 0.3626
C18 C 0.2534(8) 0.0253(7) 0.1191(5)
C19 C 0.3812(8) 0.0519(6) 0.1859(5)
H21 H 0.4645 0.0498 0.1404
C20 C 0.2945(8) -0.0282(7) 0.3552(5)
C21 C 0.2968(8) 0.0811(7) 0.4085(5)
H22 H 0.3882 0.0919 0.4427
H23 H 0.2228 0.0839 0.4607
C22 C 0.1194(8) 0.0766(7) 0.1211(5)
C23 C 0.3807(8) 0.1641(7) 0.2375(5)
C24 C 0.4052(9) -0.0374(7) 0.2702(6)
H24 H 0.3991 -0.1088 0.2384
H25 H 0.4998 -0.0295 0.3001
C25 C 0.0696(8) 0.1666(7) 0.1911(5)
C26 C 0.0126(8) 0.0437(7) 0.0505(6)
H26 H -0.0740 0.0806 0.0480
C27 C 0.0361(10) -0.0437(8) -0.0155(6)
H27 H -0.0370 -0.0673 -0.0591
C28 C 0.1660(10) -0.0959(8) -0.0172(6)
H28 H 0.1818 -0.1540 -0.0618
C29 C -0.0604(9) 0.1949(8) 0.4159(6)
H29 H -0.1097 0.2472 0.4578
H30 H -0.0160 0.1416 0.4599
H31 H -0.1271 0.1596 0.3703
C30 C 0.3396(10) 0.3511(7) 0.1846(7)
H32 H 0.3155 0.3944 0.1251
H33 H 0.4307 0.3735 0.2114
H34 H 0.2683 0.3607 0.2370
C31 C 0.2721(9) -0.0599(7) 0.0487(5)
H35 H 0.3606 -0.0941 0.0463
C32 C 0.6338(8) 0.1959(8) 0.2194(6)
H36 H 0.7165 0.2145 0.2599
H37 H 0.6184 0.2503 0.1671
H38 H 0.6482 0.1265 0.1870
loop_
_geom_bond_atom_site_label_1
_geom_bond_atom_site_label_2
_geom_bond_site_symmetry_1
_geom_bond_site_symmetry_2
O1 C1 1_555 1_555
O2 N1 1_555 1_555
O3 C4 1_555 1_555
N1 C2 1_555 1_555
O4 C1 1_555 1_555
O5 C11 1_555 1_555
C1 C2 1_555 1_555
C2 H1 1_555 1_555
C3 C2 1_555 1_555
H2 C3 1_555 1_555
H3 C3 1_555 1_555
C4 C3 1_555 1_555
C5 C4 1_555 1_555
H4 C5 1_555 1_555
H5 C5 1_555 1_555
C6 C8 1_555 1_555
C7 C1 1_555 1_555
H6 C7 1_555 1_555
C8 C7 1_555 1_555
C9 C8 1_555 1_555
H7 C9 1_555 1_555
C10 H8 1_555 1_555
C11 N1 1_555 1_555
C12 C9 1_555 1_555
H9 C12 1_555 1_555
C13 O1 1_555 1_555
H10 C13 1_555 1_555
H11 C13 1_555 1_555
H12 C13 1_555 1_555
C14 C6 1_555 1_555
H13 C14 1_555 1_555
C15 O4 1_555 1_555
H14 C15 1_555 1_555
H15 C15 1_555 1_555
H16 C15 1_555 1_555
C16 O2 1_555 1_555
H17 C16 1_555 1_555
H18 C16 1_555 1_555
H19 C16 1_555 1_555
O6 C23 1_555 1_555
O7 C20 1_555 1_555
O8 N2 1_555 1_555
O9 C23 1_555 1_555
N2 C17 1_555 1_555
O10 C25 1_555 1_555
C17 H20 1_555 1_555
C18 C19 1_555 1_555
C19 H21 1_555 1_555
C20 C21 1_555 1_555
C21 C17 1_555 1_555
H22 C21 1_555 1_555
H23 C21 1_555 1_555
C22 C18 1_555 1_555
C23 C17 1_555 1_555
C24 C19 1_555 1_555
H24 C24 1_555 1_555
H25 C24 1_555 1_555
C25 N2 1_555 1_555
C26 C22 1_555 1_555
H26 C26 1_555 1_555
C27 C26 1_555 1_555
H27 C27 1_555 1_555
C28 C27 1_555 1_555
H28 C28 1_555 1_555
C29 O8 1_555 1_555
H29 C29 1_555 1_555
H30 C29 1_555 1_555
H31 C29 1_555 1_555
C30 O6 1_555 1_555
H32 C30 1_555 1_555
H33 C30 1_555 1_555
H34 C30 1_555 1_555
C31 C18 1_555 1_555
H35 C31 1_555 1_555
C32 O9 1_555 1_555
H36 C32 1_555 1_555
H37 C32 1_555 1_555
H38 C32 1_555 1_555
C5 C7 1_555 1_555
C6 C11 1_555 1_555
C10 C12 1_555 1_555
C10 C14 1_555 1_555
C19 C23 1_555 1_555
C20 C24 1_555 1_555
C22 C25 1_555 1_555
C28 C31 1_555 1_555

#END
