
#######################################################################
#
#                 Cambridge Crystallographic Data Centre
#                                CCDC 
#
#######################################################################
#
# If this CIF has been generated from an entry in the Cambridge 
# Structural Database, then it will include bibliographic, chemical, 
# crystal, experimental, refinement or atomic coordinate data resulting 
# from the CCDC's data processing and validation procedures.
#
#######################################################################

data_FAKSAN
_chemical_formula_moiety         'C19 H19 N3'
_chemical_name_systematic        4'-tert-Butyl-4,2':6',4''-terpyridine
_symmetry_cell_setting           triclinic
_symmetry_space_group_name_H-M   'P -1'
_symmetry_Int_Tables_number      2
_space_group_name_Hall           '-P 1'
loop_
_symmetry_equiv_pos_site_id
_symmetry_equiv_pos_as_xyz
1 x,y,z
2 -x,-y,-z
_cell_length_a                   9.0269(9)
_cell_length_b                   10.1440(10)
_cell_length_c                   10.6092(11)
_cell_angle_alpha                62.324(6)
_cell_angle_beta                 65.248(6)
_cell_angle_gamma                70.093(6)
_cell_volume                     768.299
_exptl_crystal_colour            colorless
_exptl_crystal_description       plate
_cell_formula_units_Z            2
loop_
_atom_site_label
_atom_site_type_symbol
_atom_site_fract_x
_atom_site_fract_y
_atom_site_fract_z
N1 N 1.40678(18) -0.09900(16) 0.44499(17)
N2 N 0.99126(15) 0.38950(13) 0.36406(13)
N3 N 0.88783(16) 0.89515(14) -0.03795(14)
C1 C 1.3956(2) 0.0356(2) 0.3338(2)
C2 C 1.2652(2) 0.15581(18) 0.34256(19)
C3 C 1.13427(18) 0.13824(16) 0.47423(16)
C4 C 1.1431(2) -0.00205(17) 0.59063(18)
C5 C 1.2791(2) -0.11439(19) 0.57003(19)
C6 C 0.99260(17) 0.26509(16) 0.49012(16)
C7 C 0.87154(17) 0.25550(16) 0.62714(16)
C8 C 0.74125(17) 0.37708(15) 0.63877(15)
C9 C 0.74286(17) 0.50648(16) 0.50888(16)
C10 C 0.86904(18) 0.50807(15) 0.37557(16)
C11 C 0.82620(19) 0.91003(16) 0.09453(17)
C12 C 0.81373(18) 0.78960(16) 0.23198(16)
C13 C 0.87288(17) 0.64366(15) 0.23400(16)
C14 C 0.9395(2) 0.62644(17) 0.09734(16)
C15 C 0.9420(2) 0.75312(17) -0.03345(17)
C16 C 0.60722(18) 0.36399(16) 0.78964(16)
C17 C 0.53563(19) 0.22051(17) 0.85251(18)
C18 C 0.6856(2) 0.35487(18) 0.89744(17)
C19 C 0.46581(19) 0.50105(17) 0.77430(17)
H1 H 1.4883 0.0474 0.2404
H2 H 1.2655 0.2526 0.2569
H3 H 1.0557 -0.0216 0.6855
H4 H 1.2823 -0.2131 0.6528
H5 H 0.8771 0.1631 0.7145
H6 H 0.6563 0.5956 0.5105
H7 H 0.7871 1.0133 0.0927
H8 H 0.7640 0.8089 0.3240
H9 H 0.9847 0.5258 0.0942
H10 H 0.9864 0.7396 -0.1298
H11 H 0.4474 0.2161 0.9491
H12 H 0.6231 0.1301 0.8694
H13 H 0.4877 0.2247 0.7807
H14 H 0.5992 0.3465 0.9961
H15 H 0.7306 0.4495 0.8572
H16 H 0.7782 0.2669 0.9097
H17 H 0.3792 0.4864 0.8737
H18 H 0.5077 0.5948 0.7400
H19 H 0.4138 0.5119 0.7024
loop_
_geom_bond_atom_site_label_1
_geom_bond_atom_site_label_2
_geom_bond_site_symmetry_1
_geom_bond_site_symmetry_2
N1 C1 1_555 1_555
N2 C6 1_555 1_555
N3 C11 1_555 1_555
C1 C2 1_555 1_555
C2 C3 1_555 1_555
C3 C4 1_555 1_555
C4 C5 1_555 1_555
C5 N1 1_555 1_555
C6 C3 1_555 1_555
C7 C6 1_555 1_555
C8 C7 1_555 1_555
C9 C8 1_555 1_555
C10 N2 1_555 1_555
C11 C12 1_555 1_555
C12 C13 1_555 1_555
C13 C10 1_555 1_555
C14 C13 1_555 1_555
C15 N3 1_555 1_555
C16 C8 1_555 1_555
C17 C16 1_555 1_555
C18 C16 1_555 1_555
C19 C16 1_555 1_555
H1 C1 1_555 1_555
H2 C2 1_555 1_555
H3 C4 1_555 1_555
H4 C5 1_555 1_555
H5 C7 1_555 1_555
H6 C9 1_555 1_555
H7 C11 1_555 1_555
H8 C12 1_555 1_555
H9 C14 1_555 1_555
H10 C15 1_555 1_555
H11 C17 1_555 1_555
H12 C17 1_555 1_555
H13 C17 1_555 1_555
H14 C18 1_555 1_555
H15 C18 1_555 1_555
H16 C18 1_555 1_555
H17 C19 1_555 1_555
H18 C19 1_555 1_555
H19 C19 1_555 1_555
C9 C10 1_555 1_555
C14 C15 1_555 1_555

#END
