
#######################################################################
#
#                 Cambridge Crystallographic Data Centre
#                                CCDC 
#
#######################################################################
#
# If this CIF has been generated from an entry in the Cambridge 
# Structural Database, then it will include bibliographic, chemical, 
# crystal, experimental, refinement or atomic coordinate data resulting 
# from the CCDC's data processing and validation procedures.
#
#######################################################################

data_FAKTER
_chemical_formula_moiety         'C46 H46 B2 N2 O4,0.25(C1 H2 Cl2)'
_chemical_name_systematic        
'(R,R)-(-)-9,10-bis(N-((2-(Dihydroxyboryl)phenyl)methyl)-N-(1-phenylethyl)aminomethyl)anthracene dichloromethane solvate'
_chemical_properties_biological  
'highly sensitive, chemoselective and enantioselective fluorescent sensor for sugar acids'
_symmetry_cell_setting           monoclinic
_symmetry_space_group_name_H-M   'P 21'
_symmetry_Int_Tables_number      4
_space_group_name_Hall           'P 2yb'
loop_
_symmetry_equiv_pos_site_id
_symmetry_equiv_pos_as_xyz
1 x,y,z
2 -x,1/2+y,-z
_cell_length_a                   12.4250(3)
_cell_length_b                   25.9430(6)
_cell_length_c                   14.7080(5)
_cell_angle_alpha                90
_cell_angle_beta                 114.2590(10)
_cell_angle_gamma                90
_cell_volume                     4322.36
_exptl_crystal_colour            colorless
_exptl_crystal_description       parallelepiped
_cell_formula_units_Z            4
_exptl_crystal_recrystallization_method dichloromethane/methanol
loop_
_atom_site_label
_atom_site_type_symbol
_atom_site_fract_x
_atom_site_fract_y
_atom_site_fract_z
B1 B 0.6951(4) 0.28381(18) 0.5285(3)
B2 B 0.8897(4) 0.18778(17) 0.8953(4)
O1 O 0.6161(2) 0.24941(10) 0.5368(2)
H1 H 0.5494 0.2634 0.5175
O2 O 0.8093(2) 0.27035(12) 0.5576(3)
H2 H 0.8169 0.2386 0.5697
O3 O 0.7931(2) 0.21558(10) 0.8881(2)
H3 H 0.7547 0.1988 0.9136
O4 O 0.9698(2) 0.20933(11) 0.8659(2)
H4 H 0.9517 0.2403 0.8501
N1 N 0.4129(2) 0.30757(12) 0.4833(2)
N2 N 0.6593(2) 0.14528(12) 0.9375(2)
C1 C 0.6592(3) 0.33904(14) 0.4814(3)
C2 C 0.7215(3) 0.35909(16) 0.4282(3)
H9 H 0.7843 0.3395 0.4247
C3 C 0.6942(4) 0.40624(16) 0.3811(3)
H10 H 0.7355 0.4183 0.3434
C4 C 0.6065(4) 0.43581(16) 0.3893(3)
H11 H 0.5884 0.4688 0.3585
C5 C 0.5450(3) 0.41772(15) 0.4420(3)
H12 H 0.4858 0.4388 0.4481
C6 C 0.5672(3) 0.36935(15) 0.4864(3)
C7 C 0.4926(3) 0.35035(15) 0.5386(3)
H13 H 0.5449 0.3383 0.6063
H14 H 0.4446 0.3793 0.5457
C8 C 0.3382(3) 0.32222(16) 0.3767(3)
H15 H 0.3925 0.3396 0.3514
C9 C 0.2413(3) 0.36139(17) 0.3651(3)
H16 H 0.2764 0.3914 0.4073
H17 H 0.1830 0.3455 0.3854
H18 H 0.2026 0.3723 0.2953
C10 C 0.2959(4) 0.27365(17) 0.3157(3)
C11 C 0.3787(4) 0.24194(18) 0.3029(3)
H19 H 0.4591 0.2523 0.3294
C12 C 0.3469(5) 0.1957(2) 0.2524(4)
H20 H 0.4054 0.1747 0.2449
C13 C 0.2318(6) 0.1799(2) 0.2133(4)
H21 H 0.2102 0.1477 0.1797
C14 C 0.1477(5) 0.2110(3) 0.2230(4)
H22 H 0.0675 0.2004 0.1951
C15 C 0.1780(4) 0.2577(2) 0.2729(3)
H23 H 0.1184 0.2790 0.2780
C16 C 0.3377(3) 0.29073(15) 0.5353(3)
H24 H 0.2686 0.2719 0.4869
H25 H 0.3077 0.3218 0.5564
C17 C 0.3986(3) 0.25695(14) 0.6250(3)
C18 C 0.4393(3) 0.27683(14) 0.7223(3)
C19 C 0.4332(3) 0.33052(15) 0.7419(3)
H26 H 0.4000 0.3536 0.6873
C20 C 0.4737(3) 0.34961(17) 0.8367(3)
H27 H 0.4685 0.3855 0.8470
C21 C 0.5230(3) 0.31655(17) 0.9189(3)
H28 H 0.5511 0.3301 0.9845
C22 C 0.5308(3) 0.26542(16) 0.9051(3)
H29 H 0.5648 0.2437 0.9619
C23 C 0.4896(3) 0.24274(15) 0.8078(3)
C24 C 0.4917(3) 0.18888(15) 0.7940(3)
C25 C 0.4500(3) 0.16924(15) 0.6961(3)
C26 C 0.4481(3) 0.11448(15) 0.6762(3)
H30 H 0.4729 0.0911 0.7306
C27 C 0.4121(3) 0.09565(16) 0.5826(3)
H31 H 0.4131 0.0595 0.5724
C28 C 0.3728(3) 0.12956(16) 0.4994(3)
H32 H 0.3492 0.1162 0.4339
C29 C 0.3690(3) 0.18151(16) 0.5140(3)
H33 H 0.3413 0.2038 0.4578
C30 C 0.4059(3) 0.20327(15) 0.6123(3)
C31 C 0.6200(4) 0.08533(18) 1.0569(3)
H34 H 0.6256 0.0560 1.0172
H35 H 0.5371 0.0954 1.0350
H36 H 0.6521 0.0756 1.1275
C32 C 0.5296(3) 0.15395(16) 0.8843(3)
H37 H 0.5006 0.1689 0.9321
H38 H 0.4905 0.1201 0.8628
C33 C 0.6905(3) 0.13053(16) 1.0432(3)
H39 H 0.7744 0.1186 1.0699
C34 C 0.6907(3) 0.17862(17) 1.1018(3)
C35 C 0.6074(4) 0.1882(2) 1.1401(3)
H40 H 0.5484 0.1633 1.1324
C36 C 0.6099(5) 0.2337(3) 1.1892(4)
H41 H 0.5515 0.2402 1.2138
C37 C 0.6961(6) 0.2696(2) 1.2029(4)
H42 H 0.6968 0.3009 1.2367
C38 C 0.7814(5) 0.2607(2) 1.1681(4)
H43 H 0.8423 0.2851 1.1789
C39 C 0.7770(4) 0.21531(18) 1.1171(3)
H44 H 0.8351 0.2092 1.0919
C40 C 0.7006(3) 0.10648(15) 0.8840(3)
H45 H 0.6830 0.1193 0.8160
H46 H 0.6563 0.0740 0.8777
C41 C 0.8318(3) 0.09547(15) 0.9369(3)
C42 C 0.8675(3) 0.04688(15) 0.9795(3)
H47 H 0.8096 0.0221 0.9762
C43 C 0.9866(3) 0.03421(16) 1.0268(3)
H48 H 1.0098 0.0011 1.0557
C44 C 1.0701(3) 0.06962(16) 1.0315(3)
H49 H 1.1515 0.0614 1.0651
C45 C 1.0366(3) 0.11714(16) 0.9876(3)
H50 H 1.0961 0.1407 0.9894
C46 C 0.9173(3) 0.13229(14) 0.9400(3)
B3 B 0.8229(4) 0.33482(18) 0.7885(4)
B4 B 0.7851(4) 0.13856(18) 0.6418(4)
O5 O 0.9318(2) 0.31269(10) 0.8210(2)
H5 H 0.9806 0.3344 0.8184
O6 O 0.7319(2) 0.30835(13) 0.7952(3)
H6 H 0.7564 0.2798 0.8229
O7 O 0.8502(2) 0.16712(10) 0.6043(2)
H7 H 0.9143 0.1520 0.6159
O8 O 0.6815(2) 0.15708(12) 0.6385(2)
H8 H 0.6654 0.1851 0.6071
N3 N 1.0618(2) 0.38417(11) 0.7676(2)
N4 N 1.0508(2) 0.10907(11) 0.6505(2)
C47 C 0.7938(3) 0.39068(15) 0.7434(3)
C48 C 0.7011(3) 0.41662(16) 0.7533(3)
H51 H 0.6599 0.4002 0.7872
C49 C 0.6672(4) 0.46598(17) 0.7152(4)
H52 H 0.6048 0.4832 0.7243
C50 C 0.7239(4) 0.48928(17) 0.6649(4)
H53 H 0.7003 0.5228 0.6381
C51 C 0.8162(3) 0.46478(15) 0.6519(3)
H54 H 0.8546 0.4814 0.6159
C52 C 0.8524(3) 0.41555(14) 0.6922(3)
C53 C 0.9517(3) 0.39069(15) 0.6747(3)
H55 H 0.9253 0.3564 0.6439
H56 H 0.9697 0.4120 0.6269
C54 C 1.1005(3) 0.43417(14) 0.8239(3)
H57 H 1.0295 0.4487 0.8304
C55 C 1.1416(4) 0.47509(16) 0.7698(3)
H58 H 1.0799 0.4806 0.7027
H59 H 1.2140 0.4633 0.7648
H60 H 1.1573 0.5075 0.8073
C56 C 1.1899(4) 0.42269(16) 0.9287(3)
C57 C 1.3106(4) 0.43495(17) 0.9638(4)
H61 H 1.3398 0.4523 0.9216
C58 C 1.3866(4) 0.4216(2) 1.0599(4)
H62 H 1.4677 0.4306 1.0832
C59 C 1.3482(6) 0.3957(2) 1.1230(4)
H63 H 1.4025 0.3858 1.1880
C60 C 1.2308(5) 0.3843(2) 1.0909(4)
H64 H 1.2029 0.3673 1.1343
C61 C 1.1518(4) 0.39752(18) 0.9942(3)
H65 H 1.0705 0.3892 0.9726
C62 C 1.1583(3) 0.36147(14) 0.7447(3)
H66 H 1.2346 0.3679 0.8020
H67 H 1.1603 0.3796 0.6862
C63 C 1.1470(3) 0.30379(14) 0.7230(3)
C64 C 1.1027(3) 0.28486(14) 0.6250(3)
C65 C 1.0567(3) 0.31782(15) 0.5389(3)
H68 H 1.0595 0.3541 0.5483
C66 C 1.0097(3) 0.29897(15) 0.4452(3)
H69 H 0.9788 0.3219 0.3900
C67 C 1.0063(3) 0.24492(16) 0.4289(3)
H70 H 0.9718 0.2316 0.3630
C68 C 1.0523(3) 0.21244(15) 0.5074(3)
H71 H 1.0512 0.1765 0.4951
C69 C 1.1024(3) 0.23028(14) 0.6082(3)
C70 C 1.1517(3) 0.19583(14) 0.6895(3)
C71 C 1.1963(3) 0.21495(14) 0.7873(3)
C72 C 1.2488(3) 0.18262(15) 0.8736(3)
H72 H 1.2569 0.1468 0.8644
C73 C 1.2874(3) 0.20138(16) 0.9677(3)
H73 H 1.3207 0.1786 1.0229
C74 C 1.2784(3) 0.25449(17) 0.9844(3)
H74 H 1.3041 0.2673 1.0505
C75 C 1.2331(3) 0.28712(16) 0.9060(3)
H75 H 1.2285 0.3228 0.9184
C76 C 1.1918(3) 0.26968(14) 0.8048(3)
C77 C 1.1598(3) 0.13867(13) 0.6683(3)
H76 H 1.1779 0.1354 0.6090
H77 H 1.2262 0.1232 0.7256
C78 C 1.0419(3) 0.06101(14) 0.5906(3)
H78 H 0.9727 0.0413 0.5904
C79 C 1.1485(4) 0.02512(16) 0.6355(3)
H79 H 1.1624 0.0169 0.7044
H80 H 1.2184 0.0422 0.6345
H81 H 1.1330 -0.0067 0.5962
C80 C 1.0112(3) 0.07617(14) 0.4845(3)
C81 C 0.8979(3) 0.09408(16) 0.4253(3)
H82 H 0.8397 0.0938 0.4516
C82 C 0.8679(4) 0.11211(17) 0.3304(3)
H83 H 0.7904 0.1247 0.2926
C83 C 0.9504(4) 0.11208(17) 0.2894(3)
H84 H 0.9298 0.1244 0.2235
C84 C 1.0620(4) 0.09411(17) 0.3449(3)
H85 H 1.1193 0.0940 0.3177
C85 C 1.0913(3) 0.07603(14) 0.4413(3)
H86 H 1.1687 0.0632 0.4785
C86 C 1.0424(3) 0.09767(14) 0.7467(3)
H87 H 1.0377 0.1306 0.7788
H88 H 1.1155 0.0799 0.7915
C87 C 0.9371(3) 0.06456(14) 0.7357(3)
C88 C 0.8656(4) -0.01620(16) 0.7721(3)
H89 H 0.8818 -0.0493 0.8025
C89 C 0.9581(3) 0.01614(15) 0.7778(3)
H90 H 1.0372 0.0045 0.8113
C90 C 0.7509(4) 0.00025(16) 0.7221(3)
H91 H 0.6871 -0.0218 0.7156
C91 C 0.7294(3) 0.04908(15) 0.6816(3)
H92 H 0.6499 0.0603 0.6489
C92 C 0.8203(3) 0.08308(14) 0.6865(3)
Cl1 Cl 0.9534(4) 0.3458(4) 1.0930(5)
Cl2 Cl 0.7686(8) 0.4077(3) 1.1077(6)
C93 C 0.8161(13) 0.3740(8) 1.0306(11)
H93 H 0.8195 0.3976 0.9790
H94 H 0.7578 0.3467 0.9963
Cl3? Cl 0.915(2) 0.3807(8) 1.1272(16)
Cl4? Cl 0.7156(15) 0.4411(7) 1.0340(14)
C94? C 0.809(5) 0.399(3) 1.014(2)
H95? H 0.8455 0.4152 0.9728
H96? H 0.7640 0.3681 0.9773
loop_
_geom_bond_atom_site_label_1
_geom_bond_atom_site_label_2
_geom_bond_site_symmetry_1
_geom_bond_site_symmetry_2
B1 O1 1_555 1_555
B2 O3 1_555 1_555
B3 O5 1_555 1_555
B4 O7 1_555 1_555
O1 H1 1_555 1_555
O2 B1 1_555 1_555
H2 O2 1_555 1_555
O3 H3 1_555 1_555
O4 B2 1_555 1_555
H4 O4 1_555 1_555
O5 H5 1_555 1_555
O6 B3 1_555 1_555
H6 O6 1_555 1_555
O7 H7 1_555 1_555
O8 B4 1_555 1_555
H8 O8 1_555 1_555
N1 C7 1_555 1_555
N2 C32 1_555 1_555
N3 C53 1_555 1_555
N4 C77 1_555 1_555
C1 B1 1_555 1_555
C2 C1 1_555 1_555
H9 C2 1_555 1_555
C3 C2 1_555 1_555
H10 C3 1_555 1_555
C4 C3 1_555 1_555
H11 C4 1_555 1_555
C5 C4 1_555 1_555
H12 C5 1_555 1_555
C6 C1 1_555 1_555
C7 C6 1_555 1_555
H13 C7 1_555 1_555
H14 C7 1_555 1_555
C8 N1 1_555 1_555
H15 C8 1_555 1_555
C9 C8 1_555 1_555
H16 C9 1_555 1_555
H17 C9 1_555 1_555
H18 C9 1_555 1_555
C10 C8 1_555 1_555
C11 C10 1_555 1_555
H19 C11 1_555 1_555
C12 C11 1_555 1_555
H20 C12 1_555 1_555
C13 C12 1_555 1_555
H21 C13 1_555 1_555
C14 C13 1_555 1_555
H22 C14 1_555 1_555
C15 C10 1_555 1_555
H23 C15 1_555 1_555
C16 N1 1_555 1_555
H24 C16 1_555 1_555
H25 C16 1_555 1_555
C17 C16 1_555 1_555
C18 C17 1_555 1_555
C19 C18 1_555 1_555
H26 C19 1_555 1_555
C20 C19 1_555 1_555
H27 C20 1_555 1_555
C21 C20 1_555 1_555
H28 C21 1_555 1_555
C22 C21 1_555 1_555
H29 C22 1_555 1_555
C23 C18 1_555 1_555
C24 C23 1_555 1_555
C25 C24 1_555 1_555
C26 C25 1_555 1_555
H30 C26 1_555 1_555
C27 C26 1_555 1_555
H31 C27 1_555 1_555
C28 C27 1_555 1_555
H32 C28 1_555 1_555
C29 C28 1_555 1_555
H33 C29 1_555 1_555
C30 C17 1_555 1_555
C31 H34 1_555 1_555
H35 C31 1_555 1_555
H36 C31 1_555 1_555
C32 C24 1_555 1_555
H37 C32 1_555 1_555
H38 C32 1_555 1_555
C33 N2 1_555 1_555
H39 C33 1_555 1_555
C34 C33 1_555 1_555
C35 C34 1_555 1_555
H40 C35 1_555 1_555
C36 C35 1_555 1_555
H41 C36 1_555 1_555
C37 C36 1_555 1_555
H42 C37 1_555 1_555
C38 C37 1_555 1_555
H43 C38 1_555 1_555
C39 C34 1_555 1_555
H44 C39 1_555 1_555
C40 N2 1_555 1_555
H45 C40 1_555 1_555
H46 C40 1_555 1_555
C41 C40 1_555 1_555
C42 C41 1_555 1_555
H47 C42 1_555 1_555
C43 C42 1_555 1_555
H48 C43 1_555 1_555
C44 C43 1_555 1_555
H49 C44 1_555 1_555
C45 C44 1_555 1_555
H50 C45 1_555 1_555
C46 B2 1_555 1_555
C47 B3 1_555 1_555
C48 C47 1_555 1_555
H51 C48 1_555 1_555
C49 C48 1_555 1_555
H52 C49 1_555 1_555
C50 C49 1_555 1_555
H53 C50 1_555 1_555
C51 C50 1_555 1_555
H54 C51 1_555 1_555
C52 C47 1_555 1_555
C53 C52 1_555 1_555
H55 C53 1_555 1_555
H56 C53 1_555 1_555
C54 N3 1_555 1_555
H57 C54 1_555 1_555
C55 C54 1_555 1_555
H58 C55 1_555 1_555
H59 C55 1_555 1_555
H60 C55 1_555 1_555
C56 C54 1_555 1_555
C57 C56 1_555 1_555
H61 C57 1_555 1_555
C58 C57 1_555 1_555
H62 C58 1_555 1_555
C59 C58 1_555 1_555
H63 C59 1_555 1_555
C60 C59 1_555 1_555
H64 C60 1_555 1_555
C61 C56 1_555 1_555
H65 C61 1_555 1_555
C62 N3 1_555 1_555
H66 C62 1_555 1_555
H67 C62 1_555 1_555
C63 C62 1_555 1_555
C64 C63 1_555 1_555
C65 C64 1_555 1_555
H68 C65 1_555 1_555
C66 C65 1_555 1_555
H69 C66 1_555 1_555
C67 C66 1_555 1_555
H70 C67 1_555 1_555
C68 C67 1_555 1_555
H71 C68 1_555 1_555
C69 C64 1_555 1_555
C70 C69 1_555 1_555
C71 C70 1_555 1_555
C72 C71 1_555 1_555
H72 C72 1_555 1_555
C73 C72 1_555 1_555
H73 C73 1_555 1_555
C74 C73 1_555 1_555
H74 C74 1_555 1_555
C75 C74 1_555 1_555
H75 C75 1_555 1_555
C76 C63 1_555 1_555
C77 C70 1_555 1_555
H76 C77 1_555 1_555
H77 C77 1_555 1_555
C78 N4 1_555 1_555
H78 C78 1_555 1_555
C79 C78 1_555 1_555
H79 C79 1_555 1_555
H80 C79 1_555 1_555
H81 C79 1_555 1_555
C80 C78 1_555 1_555
C81 C80 1_555 1_555
H82 C81 1_555 1_555
C82 C81 1_555 1_555
H83 C82 1_555 1_555
C83 C82 1_555 1_555
H84 C83 1_555 1_555
C84 C83 1_555 1_555
H85 C84 1_555 1_555
C85 C80 1_555 1_555
H86 C85 1_555 1_555
C86 N4 1_555 1_555
H87 C86 1_555 1_555
H88 C86 1_555 1_555
C87 C86 1_555 1_555
C88 H89 1_555 1_555
C89 C87 1_555 1_555
H90 C89 1_555 1_555
C90 C88 1_555 1_555
H91 C90 1_555 1_555
C91 C90 1_555 1_555
H92 C91 1_555 1_555
C92 B4 1_555 1_555
Cl1 C93 1_555 1_555
Cl2 C93 1_555 1_555
C93 H93 1_555 1_555
H94 C93 1_555 1_555
C5 C6 1_555 1_555
C14 C15 1_555 1_555
C22 C23 1_555 1_555
C25 C30 1_555 1_555
C29 C30 1_555 1_555
C31 C33 1_555 1_555
C38 C39 1_555 1_555
C41 C46 1_555 1_555
C45 C46 1_555 1_555
C51 C52 1_555 1_555
C60 C61 1_555 1_555
C68 C69 1_555 1_555
C71 C76 1_555 1_555
C75 C76 1_555 1_555
C84 C85 1_555 1_555
C87 C92 1_555 1_555
C88 C89 1_555 1_555
C91 C92 1_555 1_555

#END
