
#######################################################################
#
#                 Cambridge Crystallographic Data Centre
#                                CCDC 
#
#######################################################################
#
# If this CIF has been generated from an entry in the Cambridge 
# Structural Database, then it will include bibliographic, chemical, 
# crystal, experimental, refinement or atomic coordinate data resulting 
# from the CCDC's data processing and validation procedures.
#
#######################################################################

data_FAKXUN
_chemical_formula_moiety         'C8 H20 N1 1+,C26 H48 B11 Br1 N1 O9 1-'
_chemical_name_systematic        
'tetraethylammonium  12-bromo-1-N-(pyrrolidine-1-carbonyl)-2,3,4-tris(3-ethoxy-3-oxopropyl)-5-(3-ethoxy-3-oxoprop-1-en-1-yl)-1-carba-closo-dodecaborate'
_symmetry_cell_setting           monoclinic
_symmetry_space_group_name_H-M   'P 21/c'
_symmetry_Int_Tables_number      14
_space_group_name_Hall           '-P 2ybc'
loop_
_symmetry_equiv_pos_site_id
_symmetry_equiv_pos_as_xyz
1 x,y,z
2 -x,1/2+y,1/2-z
3 -x,-y,-z
4 x,1/2-y,1/2+z
_cell_length_a                   15.7123(11)
_cell_length_b                   18.5073(11)
_cell_length_c                   21.4306(19)
_cell_angle_alpha                90
_cell_angle_beta                 129.407(5)
_cell_angle_gamma                90
_cell_volume                     4815.08
_exptl_crystal_colour            colorless
_exptl_crystal_description       block
_cell_formula_units_Z            4
loop_
_atom_site_label
_atom_site_type_symbol
_atom_site_fract_x
_atom_site_fract_y
_atom_site_fract_z
Br1 Br 0.29595(6) 0.44313(3) 0.35562(5)
O1 O 0.2976(3) 0.09773(19) 0.1889(3)
O2 O -0.0782(5) 0.0859(4) 0.0713(5)
O3 O -0.1667(3) 0.1558(2) 0.0919(3)
O4 O 0.3284(5) 0.0044(2) 0.4105(3)
O5 O 0.3943(4) 0.06374(19) 0.5221(3)
O6 O 0.8289(6) 0.2388(4) 0.4346(6)
O7 O 0.7633(4) 0.1444(4) 0.4451(5)
O8 O 0.0641(6) 0.2978(3) -0.1050(3)
O9 O 0.1017(7) 0.4090(4) -0.0918(3)
N1 N 0.3826(4) 0.1497(3) 0.1501(3)
C1 C 0.3288(3) 0.2221(2) 0.2203(3)
C2 C 0.3354(4) 0.1530(3) 0.1845(3)
C3 C 0.3872(6) 0.0787(4) 0.1212(5)
H1 H 0.3138 0.0612 0.0775
H2 H 0.4243 0.0435 0.1646
C4 C 0.4513(8) 0.0921(5) 0.0923(6)
H3 H 0.5299 0.0878 0.1362
H4 H 0.4300 0.0586 0.0497
C5 C 0.4212(10) 0.1666(6) 0.0617(7)
H5 H 0.3484 0.1686 0.0092
H6 H 0.4741 0.1873 0.0574
C6 C 0.4238(8) 0.2064(5) 0.1268(5)
H7 H 0.4979 0.2213 0.1723
H8 H 0.3758 0.2483 0.1044
C7 C 0.1058(4) 0.1775(3) 0.1514(3)
H9 H 0.0870 0.1736 0.0988
H10 H 0.1303 0.1303 0.1766
C8 C 0.0052(4) 0.1968(3) 0.1396(4)
H11 H -0.0236 0.2418 0.1097
H12 H 0.0251 0.2052 0.1921
C9 C -0.0838(5) 0.1416(4) 0.0963(5)
C10 C -0.2571(5) 0.1035(4) 0.0503(5)
H13 H -0.2296 0.0556 0.0728
H14 H -0.2929 0.1020 -0.0068
C11 C -0.3352(6) 0.1274(4) 0.0621(5)
H15 H -0.3987 0.0965 0.0323
H16 H -0.3576 0.1762 0.0432
H17 H -0.3004 0.1253 0.1185
C12 C 0.3432(4) 0.1288(3) 0.3394(3)
H18 H 0.2749 0.1024 0.3018
H19 H 0.4008 0.1024 0.3446
C13 C 0.3697(6) 0.1303(3) 0.4197(4)
H20 H 0.3206 0.1644 0.4171
H21 H 0.4442 0.1482 0.4595
C14 C 0.3605(5) 0.0593(3) 0.4479(4)
C15 C 0.3864(6) -0.0003(3) 0.5561(4)
H22 H 0.4215 -0.0404 0.5512
H23 H 0.3096 -0.0125 0.5270
C16 C 0.4406(7) 0.0122(4) 0.6418(5)
H24 H 0.4087 0.0539 0.6467
H25 H 0.5179 0.0202 0.6713
H26 H 0.4305 -0.0293 0.6634
C17 C 0.5561(4) 0.2077(3) 0.3574(4)
H27 H 0.5570 0.1576 0.3606
C18 C 0.6485(6) 0.2423(5) 0.3880(7)
H28 H 0.6475 0.2925 0.3884
C19 C 0.7552(7) 0.2053(6) 0.4223(8)
C20 C 0.8716(8) 0.1053(7) 0.4810(10)
H29 H 0.9330 0.1388 0.5089
H30 H 0.8863 0.0677 0.5183
C21 C 0.8523(13) 0.0742(9) 0.4098(12)
H31 H 0.7966 0.1017 0.3627
H32 H 0.8283 0.0251 0.4028
H33 H 0.9194 0.0757 0.4173
C22 C 0.1749(5) 0.2898(3) 0.0650(3)
H34 H 0.2057 0.2512 0.0543
H35 H 0.1002 0.2758 0.0408
C23 C 0.1683(6) 0.3501(4) 0.0247(4)
H36 H 0.2430 0.3642 0.0489
H37 H 0.1376 0.3888 0.0355
C24 C 0.1047(7) 0.3473(5) -0.0637(4)
C25 C 0.0574(12) 0.4142(8) -0.1808(6)
H38 H 0.1038 0.4439 -0.1856
H39 H 0.0469 0.3671 -0.2045
C26 C -0.0415(14) 0.4476(9) -0.2122(8)
H40 H -0.0694 0.4283 -0.1867
H41 H -0.0938 0.4390 -0.2693
H42 H -0.0298 0.4986 -0.2023
B1 B 0.4446(4) 0.2492(3) 0.3155(4)
B2 B 0.3312(4) 0.2056(3) 0.3031(3)
B3 B 0.2058(4) 0.2328(3) 0.2048(3)
B4 B 0.2426(5) 0.2931(3) 0.1592(4)
B5 B 0.3886(5) 0.3042(3) 0.2286(4)
H43 H 0.4353 0.3138 0.2071
B6 B 0.4269(5) 0.3449(3) 0.3163(4)
H44 H 0.4982 0.3814 0.3523
B7 B 0.3926(4) 0.2855(3) 0.3625(4)
H45 H 0.4414 0.2835 0.4284
B8 B 0.2469(5) 0.2754(3) 0.2951(4)
H46 H 0.2007 0.2672 0.3173
B9 B 0.1920(5) 0.3276(3) 0.2073(4)
H47 H 0.1101 0.3528 0.1725
B10 B 0.3041(5) 0.3704(3) 0.2214(4)
H48 H 0.2947 0.4238 0.1952
B11 B 0.3075(5) 0.3598(3) 0.3039(4)
N2 N 0.1351(5) -0.1183(3) 0.1918(4)
C27 C 0.2014(10) -0.1837(5) 0.2318(7)
H49 H 0.2263 -0.2014 0.2032
H50 H 0.1560 -0.2209 0.2295
C28 C 0.3041(13) -0.1692(9) 0.3224(9)
H51 H 0.3418 -0.1267 0.3257
H52 H 0.3531 -0.2099 0.3433
H53 H 0.2801 -0.1622 0.3535
C29 C 0.0864(9) -0.0900(6) 0.2295(7)
H54 H 0.0351 -0.0513 0.1961
H55 H 0.1450 -0.0698 0.2821
C30 C 0.0269(14) -0.1476(8) 0.2392(11)
H56 H -0.0464 -0.1536 0.1890
H57 H 0.0233 -0.1333 0.2805
H58 H 0.0661 -0.1925 0.2541
C31 C 0.0388(9) -0.1425(5) 0.1046(7)
H59 H 0.0689 -0.1609 0.0798
H60 H 0.0002 -0.1819 0.1069
C32 C -0.0408(13) -0.0853(8) 0.0530(8)
H61 H -0.0880 -0.1010 -0.0022
H62 H -0.0021 -0.0425 0.0585
H63 H -0.0843 -0.0751 0.0691
C33 C 0.1934(10) -0.0555(4) 0.1925(7)
H64 H 0.2481 -0.0386 0.2475
H65 H 0.1414 -0.0167 0.1611
C34 C 0.2528(13) -0.0762(7) 0.1555(9)
H66 H 0.1980 -0.0876 0.0993
H67 H 0.2997 -0.1173 0.1837
H68 H 0.2961 -0.0360 0.1615
loop_
_geom_bond_atom_site_label_1
_geom_bond_atom_site_label_2
_geom_bond_site_symmetry_1
_geom_bond_site_symmetry_2
Br1 B11 1_555 1_555
O1 C2 1_555 1_555
O2 C9 1_555 1_555
O3 C9 1_555 1_555
O4 C14 1_555 1_555
O5 C14 1_555 1_555
O6 C19 1_555 1_555
O7 C19 1_555 1_555
O8 C24 1_555 1_555
O9 C24 1_555 1_555
N1 C2 1_555 1_555
C1 C2 1_555 1_555
C3 N1 1_555 1_555
H1 C3 1_555 1_555
H2 C3 1_555 1_555
C4 C3 1_555 1_555
H3 C4 1_555 1_555
H4 C4 1_555 1_555
C5 C4 1_555 1_555
H5 C5 1_555 1_555
H6 C5 1_555 1_555
C6 N1 1_555 1_555
H7 C6 1_555 1_555
H8 C6 1_555 1_555
C7 H9 1_555 1_555
H10 C7 1_555 1_555
C8 C7 1_555 1_555
H11 C8 1_555 1_555
H12 C8 1_555 1_555
C9 C8 1_555 1_555
C10 O3 1_555 1_555
H13 C10 1_555 1_555
H14 C10 1_555 1_555
C11 C10 1_555 1_555
H15 C11 1_555 1_555
H16 C11 1_555 1_555
H17 C11 1_555 1_555
C12 H18 1_555 1_555
H19 C12 1_555 1_555
C13 C12 1_555 1_555
H20 C13 1_555 1_555
H21 C13 1_555 1_555
C14 C13 1_555 1_555
C15 O5 1_555 1_555
H22 C15 1_555 1_555
H23 C15 1_555 1_555
C16 C15 1_555 1_555
H24 C16 1_555 1_555
H25 C16 1_555 1_555
H26 C16 1_555 1_555
C17 H27 1_555 1_555
C18 C17 1_555 1_555
H28 C18 1_555 1_555
C19 C18 1_555 1_555
C20 O7 1_555 1_555
H29 C20 1_555 1_555
H30 C20 1_555 1_555
C21 C20 1_555 1_555
H31 C21 1_555 1_555
H32 C21 1_555 1_555
H33 C21 1_555 1_555
C22 H34 1_555 1_555
H35 C22 1_555 1_555
C23 C22 1_555 1_555
H36 C23 1_555 1_555
H37 C23 1_555 1_555
C24 C23 1_555 1_555
C25 O9 1_555 1_555
H38 C25 1_555 1_555
H39 C25 1_555 1_555
C26 C25 1_555 1_555
H40 C26 1_555 1_555
H41 C26 1_555 1_555
H42 C26 1_555 1_555
B1 C1 1_555 1_555
B2 C1 1_555 1_555
B3 C1 1_555 1_555
B4 C1 1_555 1_555
B5 C1 1_555 1_555
H43 B5 1_555 1_555
B6 B1 1_555 1_555
H44 B6 1_555 1_555
B7 B1 1_555 1_555
H45 B7 1_555 1_555
B8 B2 1_555 1_555
H46 B8 1_555 1_555
B9 B3 1_555 1_555
H47 B9 1_555 1_555
B10 B4 1_555 1_555
H48 B10 1_555 1_555
B11 B6 1_555 1_555
N2 C27 1_555 1_555
C27 H49 1_555 1_555
H50 C27 1_555 1_555
C28 C27 1_555 1_555
H51 C28 1_555 1_555
H52 C28 1_555 1_555
H53 C28 1_555 1_555
C29 N2 1_555 1_555
H54 C29 1_555 1_555
H55 C29 1_555 1_555
C30 C29 1_555 1_555
H56 C30 1_555 1_555
H57 C30 1_555 1_555
H58 C30 1_555 1_555
C31 N2 1_555 1_555
H59 C31 1_555 1_555
H60 C31 1_555 1_555
C32 C31 1_555 1_555
H61 C32 1_555 1_555
H62 C32 1_555 1_555
H63 C32 1_555 1_555
C33 N2 1_555 1_555
H64 C33 1_555 1_555
H65 C33 1_555 1_555
C34 C33 1_555 1_555
H66 C34 1_555 1_555
H67 C34 1_555 1_555
H68 C34 1_555 1_555
C5 C6 1_555 1_555
C7 B3 1_555 1_555
C12 B2 1_555 1_555
C17 B1 1_555 1_555
C22 B4 1_555 1_555
B1 B2 1_555 1_555
B1 B5 1_555 1_555
B2 B3 1_555 1_555
B2 B7 1_555 1_555
B3 B4 1_555 1_555
B3 B8 1_555 1_555
B4 B5 1_555 1_555
B4 B9 1_555 1_555
B5 B6 1_555 1_555
B5 B10 1_555 1_555
B6 B7 1_555 1_555
B6 B10 1_555 1_555
B7 B8 1_555 1_555
B7 B11 1_555 1_555
B8 B9 1_555 1_555
B8 B11 1_555 1_555
B9 B10 1_555 1_555
B9 B11 1_555 1_555
B10 B11 1_555 1_555

#END
