
#######################################################################
#
#                 Cambridge Crystallographic Data Centre
#                                CCDC 
#
#######################################################################
#
# If this CIF has been generated from an entry in the Cambridge 
# Structural Database, then it will include bibliographic, chemical, 
# crystal, experimental, refinement or atomic coordinate data resulting 
# from the CCDC's data processing and validation procedures.
#
#######################################################################

data_FAKZID
_chemical_name_common            
methyl-2-O-ethyloxycarbonyl-3-O-propargyloxycarbonyl-4,6-O-carbonyl-alpha-D-glucopyranoside
_chemical_formula_moiety         'C15 H18 O11'
_chemical_name_systematic        
'ethyl 6-methoxy-2-oxohexahydropyrano[3,2-d][1,3]dioxine-7,8-diyl prop-2-yn-1-yl biscarbonate'
_symmetry_cell_setting           monoclinic
_symmetry_space_group_name_H-M   'C 2'
_symmetry_Int_Tables_number      5
_space_group_name_Hall           'C 2y'
loop_
_symmetry_equiv_pos_site_id
_symmetry_equiv_pos_as_xyz
1 x,y,z
2 -x,y,-z
3 1/2+x,1/2+y,z
4 1/2-x,1/2+y,-z
_cell_length_a                   28.835(8)
_cell_length_b                   6.5931(18)
_cell_length_c                   9.909(3)
_cell_angle_alpha                90
_cell_angle_beta                 105.373(6)
_cell_angle_gamma                90
_cell_volume                     1816.42
_exptl_crystal_colour            colorless
_exptl_crystal_description       Needle
_cell_formula_units_Z            4
_exptl_crystal_recrystallization_method 'ethyl acetate/hexanes'
loop_
_atom_site_label
_atom_site_type_symbol
_atom_site_fract_x
_atom_site_fract_y
_atom_site_fract_z
O1 O 0.78179(9) 1.1893(4) 0.5079(3)
O2 O 0.71999(9) 1.1083(5) 0.3346(3)
O3 O 0.78636(7) 0.9382(3) 0.3497(2)
O4 O 0.89511(9) 0.5935(4) 0.6803(3)
O5 O 0.91895(9) 0.4796(4) 0.4451(3)
O6 O 0.96838(16) 0.5716(10) 0.3184(5)
O7 O 0.95499(13) 0.2492(7) 0.3600(5)
O8 O 0.84528(8) 0.6736(3) 0.2406(2)
O9 O 0.80658(12) 0.3781(5) 0.2457(3)
O10 O 0.81718(10) 0.5147(4) 0.0483(3)
C1 C 0.83157(14) 1.1671(6) 0.5875(4)
H1 H 0.8346 1.1918 0.6880
H2 H 0.8519 1.2670 0.5551
C2 C 0.76124(12) 1.0826(6) 0.3950(4)
C3 C 0.83698(10) 0.9173(5) 0.4127(3)
H3 H 0.8550 1.0169 0.3697
C4 C 0.84778(11) 0.9548(5) 0.5667(3)
H4 H 0.8303 0.8544 0.6108
O11 O 0.89854(8) 0.9393(4) 0.6283(3)
C5 C 0.91572(12) 0.7405(6) 0.6145(4)
H5 H 0.9514 0.7384 0.6557
C6 C 0.90505(12) 0.6859(5) 0.4599(4)
H6 H 0.9237 0.7779 0.4135
C7 C 0.85182(10) 0.7054(5) 0.3872(3)
H7 H 0.8328 0.6040 0.4254
C8 C 0.9100(2) 0.5998(10) 0.8272(5)
H8 H 0.8937 0.4923 0.8655
H9 H 0.9017 0.7320 0.8598
H10 H 0.9449 0.5796 0.8589
C9 C 0.94923(14) 0.4439(8) 0.3690(5)
C10 C 0.9889(2) 0.1759(14) 0.2900(8)
H11 H 1.0111 0.2876 0.2829
H12 H 1.0082 0.0670 0.3472
C11 C 0.9691(2) 0.1048(14) 0.1635(8)
H13 H 0.9944 0.0603 0.1208
H14 H 0.9499 0.2116 0.1059
H15 H 0.9483 -0.0105 0.1698
C12 C 0.82099(12) 0.5072(5) 0.1854(4)
C13 C 0.78814(18) 0.3573(8) -0.0342(5)
H16 H 0.7777 0.4021 -0.1330
H17 H 0.7590 0.3372 -0.0010
C14 C 0.8131(2) 0.1662(8) -0.0273(5)
C15 C 0.8299(3) 0.0111(11) -0.0270(8)
H18 H 0.8439 -0.1192 -0.0268
loop_
_geom_bond_atom_site_label_1
_geom_bond_atom_site_label_2
_geom_bond_site_symmetry_1
_geom_bond_site_symmetry_2
O1 C1 1_555 1_555
O2 C2 1_555 1_555
O3 C2 1_555 1_555
O4 C5 1_555 1_555
O5 C6 1_555 1_555
O6 C9 1_555 1_555
O7 C9 1_555 1_555
O8 C7 1_555 1_555
O9 C12 1_555 1_555
O10 C12 1_555 1_555
C1 H1 1_555 1_555
H2 C1 1_555 1_555
C2 O1 1_555 1_555
C3 O3 1_555 1_555
H3 C3 1_555 1_555
C4 C1 1_555 1_555
H4 C4 1_555 1_555
O11 C4 1_555 1_555
C5 O11 1_555 1_555
H5 C5 1_555 1_555
C6 C5 1_555 1_555
H6 C6 1_555 1_555
C7 C3 1_555 1_555
H7 C7 1_555 1_555
C8 O4 1_555 1_555
H8 C8 1_555 1_555
H9 C8 1_555 1_555
H10 C8 1_555 1_555
C9 O5 1_555 1_555
C10 O7 1_555 1_555
H11 C10 1_555 1_555
H12 C10 1_555 1_555
C11 C10 1_555 1_555
H13 C11 1_555 1_555
H14 C11 1_555 1_555
H15 C11 1_555 1_555
C12 O8 1_555 1_555
C13 O10 1_555 1_555
H16 C13 1_555 1_555
H17 C13 1_555 1_555
C14 C13 1_555 1_555
C15 C14 1_555 1_555
H18 C15 1_555 1_555
C3 C4 1_555 1_555
C6 C7 1_555 1_555

#END
