
#######################################################################
#
#                 Cambridge Crystallographic Data Centre
#                                CCDC 
#
#######################################################################
#
# If this CIF has been generated from an entry in the Cambridge 
# Structural Database, then it will include bibliographic, chemical, 
# crystal, experimental, refinement or atomic coordinate data resulting 
# from the CCDC's data processing and validation procedures.
#
#######################################################################

data_FALBEC
_chemical_formula_moiety         'C22 H24 S4 Si2'
_chemical_name_systematic        
tristhieno[3',4':3,4;3'',4'':5,6;3''',4''':7,8]cycloocta[1,2-c]thiene-1,7-diylbis(trimethylsilane)
_symmetry_cell_setting           monoclinic
_symmetry_space_group_name_H-M   'P 21/c'
_symmetry_Int_Tables_number      14
_space_group_name_Hall           '-P 2ybc'
loop_
_symmetry_equiv_pos_site_id
_symmetry_equiv_pos_as_xyz
1 x,y,z
2 -x,1/2+y,1/2-z
3 -x,-y,-z
4 x,1/2-y,1/2+z
_cell_length_a                   10.5479(13)
_cell_length_b                   16.600(2)
_cell_length_c                   13.9079(17)
_cell_angle_alpha                90
_cell_angle_beta                 92.242(2)
_cell_angle_gamma                90
_cell_volume                     2433.34
_exptl_crystal_colour            colorless
_exptl_crystal_description       block
_cell_formula_units_Z            4
loop_
_atom_site_label
_atom_site_type_symbol
_atom_site_fract_x
_atom_site_fract_y
_atom_site_fract_z
S1 S -0.06398(8) 0.19567(5) 0.80677(6)
S2 S 0.25077(9) -0.11045(5) 0.95537(6)
S3 S 0.56000(7) 0.19788(5) 0.82360(6)
S4 S 0.24965(10) 0.23231(6) 1.20219(6)
Si1 Si -0.00188(10) 0.34291(6) 0.93863(7)
Si2 Si 0.52820(10) 0.03369(6) 0.72648(7)
C1 C 0.3161(3) 0.03374(15) 0.91528(18)
C2 C 0.4799(3) 0.10722(17) 0.8206(2)
C3 C 0.0121(3) 0.10537(18) 0.8140(2)
H1 H -0.0039 0.0627 0.7720
C4 C 0.0998(2) 0.10318(16) 0.88922(18)
C5 C 0.3947(2) 0.10488(15) 0.89358(18)
C6 C 0.4826(3) 0.23185(18) 0.9193(2)
H2 H 0.4971 0.2819 0.9478
C7 C 0.1338(3) 0.21049(17) 1.1181(2)
H3 H 0.0476 0.2119 1.1298
C8 C 0.3171(3) 0.19175(15) 1.03384(19)
C9 C 0.1802(3) 0.03302(15) 0.91308(18)
C10 C 0.1815(3) 0.19058(15) 1.03059(19)
C11 C 0.3654(3) -0.04058(17) 0.9370(2)
H4 H 0.4518 -0.0517 0.9413
C12 C 0.0188(3) 0.23458(17) 0.9050(2)
C13 C 0.1013(2) 0.17709(16) 0.94215(18)
C14 C 0.3959(3) 0.17718(15) 0.95015(19)
C15 C 0.3653(3) 0.21399(18) 1.1227(2)
H5 H 0.4516 0.2186 1.1381
C16 C 0.1340(3) -0.04186(17) 0.9324(2)
H6 H 0.0480 -0.0540 0.9329
C17 C 0.4068(5) -0.0443(3) 0.6977(3)
H7 H 0.3290 -0.0187 0.6764
H8 H 0.3925 -0.0758 0.7541
H9 H 0.4360 -0.0787 0.6476
C18 C -0.1278(5) 0.3518(3) 1.0282(3)
H10 H -0.1329 0.4067 1.0497
H11 H -0.1075 0.3175 1.0822
H12 H -0.2078 0.3359 0.9990
C19 C 0.5508(5) 0.0906(3) 0.6129(3)
H13 H 0.6130 0.1321 0.6242
H14 H 0.4718 0.1145 0.5915
H15 H 0.5793 0.0544 0.5643
C20 C 0.1530(5) 0.3864(2) 0.9845(4)
H16 H 0.2205 0.3657 0.9473
H17 H 0.1674 0.3719 1.0508
H18 H 0.1503 0.4441 0.9788
C21 C 0.6827(4) -0.0110(3) 0.7708(4)
H19 H 0.7177 -0.0428 0.7206
H20 H 0.6688 -0.0445 0.8256
H21 H 0.7407 0.0315 0.7888
C22 C -0.0510(5) 0.3987(3) 0.8287(3)
H22 H 0.0136 0.3940 0.7823
H23 H -0.0630 0.4545 0.8442
H24 H -0.1290 0.3767 0.8024
loop_
_geom_bond_atom_site_label_1
_geom_bond_atom_site_label_2
_geom_bond_site_symmetry_1
_geom_bond_site_symmetry_2
S1 C3 1_555 1_555
S2 C11 1_555 1_555
S3 C2 1_555 1_555
S4 C7 1_555 1_555
Si1 C12 1_555 1_555
Si2 C2 1_555 1_555
C1 C5 1_555 1_555
C2 C5 1_555 1_555
C3 H1 1_555 1_555
C4 C3 1_555 1_555
C5 C14 1_555 1_555
C6 S3 1_555 1_555
H2 C6 1_555 1_555
C7 H3 1_555 1_555
C8 C10 1_555 1_555
C9 C1 1_555 1_555
C10 C7 1_555 1_555
C11 C1 1_555 1_555
H4 C11 1_555 1_555
C12 S1 1_555 1_555
C13 C4 1_555 1_555
C14 C6 1_555 1_555
C15 S4 1_555 1_555
H5 C15 1_555 1_555
C16 S2 1_555 1_555
H6 C16 1_555 1_555
C17 Si2 1_555 1_555
H7 C17 1_555 1_555
H8 C17 1_555 1_555
H9 C17 1_555 1_555
C18 Si1 1_555 1_555
H10 C18 1_555 1_555
H11 C18 1_555 1_555
H12 C18 1_555 1_555
C19 Si2 1_555 1_555
H13 C19 1_555 1_555
H14 C19 1_555 1_555
H15 C19 1_555 1_555
C20 Si1 1_555 1_555
H16 C20 1_555 1_555
H17 C20 1_555 1_555
H18 C20 1_555 1_555
C21 Si2 1_555 1_555
H19 C21 1_555 1_555
H20 C21 1_555 1_555
H21 C21 1_555 1_555
C22 Si1 1_555 1_555
H22 C22 1_555 1_555
H23 C22 1_555 1_555
H24 C22 1_555 1_555
C4 C9 1_555 1_555
C8 C14 1_555 1_555
C8 C15 1_555 1_555
C9 C16 1_555 1_555
C10 C13 1_555 1_555
C12 C13 1_555 1_555

#END
