
#######################################################################
#
#                 Cambridge Crystallographic Data Centre
#                                CCDC 
#
#######################################################################
#
# If this CIF has been generated from an entry in the Cambridge 
# Structural Database, then it will include bibliographic, chemical, 
# crystal, experimental, refinement or atomic coordinate data resulting 
# from the CCDC's data processing and validation procedures.
#
#######################################################################

data_FALCIG
_chemical_formula_moiety         'C27 H33 N1 O6,H2 O1'
_chemical_name_systematic        
'3-(3-Hydroxy-7-((4-methoxybenzyl)oxy)-2,4-dimethylhept-4-enoyl)-4-methyl-5-phenyl-1,3-oxazolidin-2-one monohydrate'
_symmetry_cell_setting           orthorhombic
_symmetry_space_group_name_H-M   'P 21 21 21'
_symmetry_Int_Tables_number      19
_space_group_name_Hall           'P 2ac 2ab'
loop_
_symmetry_equiv_pos_site_id
_symmetry_equiv_pos_as_xyz
1 x,y,z
2 1/2-x,-y,1/2+z
3 -x,1/2+y,1/2-z
4 1/2+x,1/2-y,-z
_cell_length_a                   6.790(2)
_cell_length_b                   14.525(5)
_cell_length_c                   26.401(10)
_cell_angle_alpha                90
_cell_angle_beta                 90
_cell_angle_gamma                90
_cell_volume                     2603.79
_exptl_crystal_colour            colorless
_exptl_crystal_description       block
_cell_formula_units_Z            4
loop_
_atom_site_label
_atom_site_type_symbol
_atom_site_fract_x
_atom_site_fract_y
_atom_site_fract_z
C1 C 0.3562(3) 1.10999(14) 0.90663(8)
C2 C 0.1995(3) 1.08009(17) 0.93654(9)
H1 H 0.1694 1.0177 0.9382
C3 C 0.0886(4) 1.14263(16) 0.96374(9)
H2 H -0.0151 1.1221 0.9838
C4 C 0.1313(4) 1.23544(16) 0.96126(9)
H3 H 0.0564 1.2775 0.9796
C5 C 0.2855(3) 1.26559(16) 0.93155(9)
H4 H 0.3139 1.3281 0.9298
C6 C 0.3991(3) 1.20318(15) 0.90406(8)
H5 H 0.5029 1.2239 0.8841
C7 C 0.4785(3) 1.04351(15) 0.87600(8)
H6 H 0.5402 1.0772 0.8480
C8 C 0.6393(3) 0.98816(14) 0.90407(8)
H7 H 0.7693 1.0131 0.8955
C9 C 0.6190(4) 0.98100(16) 0.96165(8)
H8 H 0.7246 0.9443 0.9749
H9 H 0.4953 0.9528 0.9699
H10 H 0.6244 1.0415 0.9763
C10 C 0.4346(3) 0.89093(15) 0.85426(8)
C11 C 0.7614(3) 0.83115(16) 0.88379(8)
C12 C 0.7242(4) 0.73288(14) 0.86807(8)
H11 H 0.5944 0.7285 0.8521
C13 C 0.8811(5) 0.70082(17) 0.83087(9)
H12 H 1.0087 0.7062 0.8463
H13 H 0.8763 0.7383 0.8010
H14 H 0.8574 0.6377 0.8219
C14 C 0.7245(3) 0.67618(15) 0.91785(7)
H15 H 0.8585 0.6753 0.9316
C15 C 0.6571(3) 0.57798(16) 0.90943(8)
C16 C 0.4386(4) 0.56641(18) 0.90207(9)
H16 H 0.4107 0.5039 0.8927
H17 H 0.3943 0.6070 0.8757
H18 H 0.3715 0.5810 0.9331
C17 C 0.7887(4) 0.51020(16) 0.90896(8)
H19 H 0.9176 0.5265 0.9168
C18 C 0.7533(4) 0.41037(15) 0.89730(8)
H20 H 0.6137 0.4002 0.8919
H21 H 0.7945 0.3731 0.9259
C19 C 0.8668(4) 0.38127(15) 0.85029(8)
H22 H 0.8383 0.4229 0.8225
H23 H 1.0073 0.3832 0.8570
C20 C 0.9128(4) 0.25879(16) 0.79290(9)
H24 H 1.0536 0.2632 0.7985
H25 H 0.8793 0.2974 0.7642
C21 C 0.8583(3) 0.16119(15) 0.78172(8)
C22 C 0.9675(4) 0.08947(17) 0.80274(8)
H26 H 1.0730 0.1031 0.8239
C23 C 0.9223(3) -0.00070(16) 0.79279(8)
H27 H 0.9978 -0.0477 0.8067
C24 C 0.7621(3) -0.02171(15) 0.76151(8)
C25 C 0.6514(4) 0.04819(16) 0.74019(8)
H28 H 0.5442 0.0346 0.7196
C26 C 0.7026(4) 0.13877(16) 0.74997(8)
H29 H 0.6306 0.1858 0.7349
C27 C 0.5736(4) -0.13820(17) 0.72070(9)
H30 H 0.5994 -0.1112 0.6882
H31 H 0.4500 -0.1158 0.7334
H32 H 0.5679 -0.2040 0.7174
N1 N 0.6143(3) 0.89716(12) 0.87986(6)
O1 O 0.3477(2) 0.97359(10) 0.85484(5)
O2 O 0.3603(2) 0.82535(11) 0.83392(6)
O3 O 0.9205(2) 0.85562(11) 0.90138(6)
O4 O 0.5985(2) 0.72314(11) 0.95264(5)
H33 H 0.6345 0.7125 0.9817
O5 O 0.8092(2) 0.29029(10) 0.83720(6)
O6 O 0.7263(2) -0.11392(11) 0.75485(6)
O7 O 0.2471(2) 0.81592(12) 0.95689(6)
H34 H 0.1714 0.8205 0.9293
H35 H 0.3352 0.7682 0.9477
loop_
_geom_bond_atom_site_label_1
_geom_bond_atom_site_label_2
_geom_bond_site_symmetry_1
_geom_bond_site_symmetry_2
C1 C2 1_555 1_555
C2 H1 1_555 1_555
C3 C2 1_555 1_555
H2 C3 1_555 1_555
C4 C3 1_555 1_555
H3 C4 1_555 1_555
C5 C4 1_555 1_555
H4 C5 1_555 1_555
C6 C1 1_555 1_555
H5 C6 1_555 1_555
C7 C1 1_555 1_555
H6 C7 1_555 1_555
C8 C7 1_555 1_555
H7 C8 1_555 1_555
C9 C8 1_555 1_555
H8 C9 1_555 1_555
H9 C9 1_555 1_555
H10 C9 1_555 1_555
C10 N1 1_555 1_555
C11 C12 1_555 1_555
C12 H11 1_555 1_555
C13 C12 1_555 1_555
H12 C13 1_555 1_555
H13 C13 1_555 1_555
H14 C13 1_555 1_555
C14 C12 1_555 1_555
H15 C14 1_555 1_555
C15 C14 1_555 1_555
C16 C15 1_555 1_555
H16 C16 1_555 1_555
H17 C16 1_555 1_555
H18 C16 1_555 1_555
C17 C15 1_555 1_555
H19 C17 1_555 1_555
C18 C17 1_555 1_555
H20 C18 1_555 1_555
H21 C18 1_555 1_555
C19 C18 1_555 1_555
H22 C19 1_555 1_555
H23 C19 1_555 1_555
C20 H24 1_555 1_555
H25 C20 1_555 1_555
C21 C20 1_555 1_555
C22 C21 1_555 1_555
H26 C22 1_555 1_555
C23 C22 1_555 1_555
H27 C23 1_555 1_555
C24 C23 1_555 1_555
C25 C24 1_555 1_555
H28 C25 1_555 1_555
C26 C21 1_555 1_555
H29 C26 1_555 1_555
C27 H30 1_555 1_555
H31 C27 1_555 1_555
H32 C27 1_555 1_555
N1 C8 1_555 1_555
O1 C7 1_555 1_555
O2 C10 1_555 1_555
O3 C11 1_555 1_555
O4 C14 1_555 1_555
H33 O4 1_555 1_555
O5 C19 1_555 1_555
O6 C24 1_555 1_555
O7 H34 1_555 1_555
H35 O7 1_555 1_555
C5 C6 1_555 1_555
C10 O1 1_555 1_555
C11 N1 1_555 1_555
C20 O5 1_555 1_555
C25 C26 1_555 1_555
C27 O6 1_555 1_555

#END
