
#######################################################################
#
#                 Cambridge Crystallographic Data Centre
#                                CCDC 
#
#######################################################################
#
# If this CIF has been generated from an entry in the Cambridge 
# Structural Database, then it will include bibliographic, chemical, 
# crystal, experimental, refinement or atomic coordinate data resulting 
# from the CCDC's data processing and validation procedures.
#
#######################################################################

data_FALFAC
_chemical_formula_moiety         'C21 H30 K1 N1 O7,C4 H8 O1'
_chemical_name_systematic        
'(18-crown-6)-(quinolin-8-olato)-potassium tetrahydrofuran solvate'
_symmetry_cell_setting           monoclinic
_symmetry_space_group_name_H-M   'P 21/n'
_symmetry_Int_Tables_number      14
_space_group_name_Hall           '-P 2yn'
loop_
_symmetry_equiv_pos_site_id
_symmetry_equiv_pos_as_xyz
1 x,y,z
2 1/2-x,1/2+y,1/2-z
3 -x,-y,-z
4 1/2+x,1/2-y,1/2+z
_cell_length_a                   15.4725(12)
_cell_length_b                   8.3765(7)
_cell_length_c                   22.2908(19)
_cell_angle_alpha                90
_cell_angle_beta                 106.388(2)
_cell_angle_gamma                90
_cell_volume                     2771.64
_exptl_crystal_colour            yellow
_exptl_crystal_description       prism
_cell_formula_units_Z            4
_chemical_properties_physical    Moisture-sensitive
_exptl_crystal_recrystallization_method tetrahydrofuran
loop_
_atom_site_label
_atom_site_type_symbol
_atom_site_fract_x
_atom_site_fract_y
_atom_site_fract_z
K1 K 0.54276(4) 0.49533(8) 0.68834(3)
N1 N 0.37262(15) 0.3989(3) 0.69943(13)
O1 O 0.44098(12) 0.2808(2) 0.60614(9)
O2 O 0.66269(11) 0.2506(2) 0.75119(9)
O3 O 0.67427(11) 0.3530(2) 0.62994(9)
O4 O 0.57019(13) 0.6255(3) 0.57729(9)
O5 O 0.53047(13) 0.8435(2) 0.65971(9)
O6 O 0.52751(12) 0.7507(2) 0.78210(9)
O7 O 0.63039(12) 0.4805(3) 0.83331(9)
C1 C 0.3380(2) 0.4546(4) 0.74340(16)
H1 H 0.3748 0.5162 0.7752
C2 C 0.2496(2) 0.4261(4) 0.74477(17)
H2 H 0.2287 0.4661 0.7770
C3 C 0.1949(2) 0.3384(4) 0.69779(17)
H3 H 0.1358 0.3183 0.6977
C4 C 0.22730(19) 0.2780(4) 0.64923(15)
C5 C 0.31881(18) 0.3105(3) 0.65218(14)
C6 C 0.35808(19) 0.2527(3) 0.60383(14)
C7 C 0.2998(2) 0.1634(4) 0.55570(14)
H4 H 0.3215 0.1230 0.5239
C8 C 0.2103(2) 0.1334(4) 0.55403(15)
H5 H 0.1746 0.0737 0.5211
C9 C 0.1736(2) 0.1884(4) 0.59886(17)
H6 H 0.1137 0.1670 0.5963
C10 C 0.71734(19) 0.1760(4) 0.71700(15)
H7 H 0.7259 0.0641 0.7284
H8 H 0.7760 0.2268 0.7271
C11 C 0.6720(2) 0.1912(4) 0.64883(14)
H9 H 0.7023 0.1242 0.6256
H10 H 0.6100 0.1557 0.6399
C12 C 0.6295(2) 0.3719(4) 0.56443(14)
H11 H 0.5686 0.3305 0.5552
H12 H 0.6613 0.3119 0.5401
C13 C 0.62693(19) 0.5442(4) 0.54709(14)
H13 H 0.6872 0.5889 0.5602
H14 H 0.6037 0.5561 0.5021
C14 C 0.5601(2) 0.7900(4) 0.56299(14)
H15 H 0.5387 0.8049 0.5181
H16 H 0.6176 0.8438 0.5783
C15 C 0.4939(2) 0.8585(4) 0.59341(14)
H17 H 0.4830 0.9700 0.5821
H18 H 0.4371 0.8016 0.5796
C16 C 0.4753(2) 0.9192(4) 0.69352(15)
H19 H 0.4178 0.8650 0.6851
H20 H 0.4643 1.0295 0.6803
C17 C 0.5225(2) 0.9123(4) 0.76093(15)
H21 H 0.5828 0.9556 0.7685
H22 H 0.4904 0.9763 0.7839
C18 C 0.5738(2) 0.7371(4) 0.84701(13)
H23 H 0.5424 0.7978 0.8714
H24 H 0.6343 0.7798 0.8550
C19 C 0.5780(2) 0.5654(4) 0.86543(14)
H25 H 0.6047 0.5555 0.9102
H26 H 0.5176 0.5212 0.8551
C20 C 0.6389(2) 0.3156(4) 0.84850(14)
H27 H 0.5804 0.2644 0.8349
H28 H 0.6621 0.3023 0.8934
C21 C 0.7017(2) 0.2407(4) 0.81670(14)
H29 H 0.7591 0.2959 0.8284
H30 H 0.7120 0.1299 0.8293
O8 O 0.0906(5) 0.6948(7) 0.4963(2)
C22 C 0.1783(6) 0.6516(9) 0.5212(4)
H31 H 0.2173 0.7089 0.5014
H32 H 0.1862 0.5378 0.5166
C23 C 0.1979(5) 0.6971(7) 0.5891(4)
H33 H 0.2365 0.6189 0.6159
H34 H 0.2262 0.8013 0.5969
C24 C 0.1075(6) 0.6991(8) 0.5990(3)
H35 H 0.0939 0.5970 0.6148
H36 H 0.1033 0.7821 0.6284
C25 C 0.0487(4) 0.7300(9) 0.5397(4)
H37 H -0.0053 0.6655 0.5331
H38 H 0.0312 0.8415 0.5364
loop_
_geom_bond_atom_site_label_1
_geom_bond_atom_site_label_2
_geom_bond_site_symmetry_1
_geom_bond_site_symmetry_2
K1 N1 1_555 1_555
N1 C1 1_555 1_555
O1 K1 1_555 1_555
O2 K1 1_555 1_555
O3 K1 1_555 1_555
O4 K1 1_555 1_555
O5 K1 1_555 1_555
O6 K1 1_555 1_555
O7 K1 1_555 1_555
C1 H1 1_555 1_555
C2 C1 1_555 1_555
H2 C2 1_555 1_555
C3 C2 1_555 1_555
H3 C3 1_555 1_555
C4 C3 1_555 1_555
C5 N1 1_555 1_555
C6 O1 1_555 1_555
C7 C6 1_555 1_555
H4 C7 1_555 1_555
C8 C7 1_555 1_555
H5 C8 1_555 1_555
C9 C4 1_555 1_555
H6 C9 1_555 1_555
C10 O2 1_555 1_555
H7 C10 1_555 1_555
H8 C10 1_555 1_555
C11 O3 1_555 1_555
H9 C11 1_555 1_555
H10 C11 1_555 1_555
C12 O3 1_555 1_555
H11 C12 1_555 1_555
H12 C12 1_555 1_555
C13 O4 1_555 1_555
H13 C13 1_555 1_555
H14 C13 1_555 1_555
C14 O4 1_555 1_555
H15 C14 1_555 1_555
H16 C14 1_555 1_555
C15 O5 1_555 1_555
H17 C15 1_555 1_555
H18 C15 1_555 1_555
C16 O5 1_555 1_555
H19 C16 1_555 1_555
H20 C16 1_555 1_555
C17 O6 1_555 1_555
H21 C17 1_555 1_555
H22 C17 1_555 1_555
C18 O6 1_555 1_555
H23 C18 1_555 1_555
H24 C18 1_555 1_555
C19 O7 1_555 1_555
H25 C19 1_555 1_555
H26 C19 1_555 1_555
C20 O7 1_555 1_555
H27 C20 1_555 1_555
H28 C20 1_555 1_555
C21 O2 1_555 1_555
H29 C21 1_555 1_555
H30 C21 1_555 1_555
O8 C22 1_555 1_555
C22 H31 1_555 1_555
H32 C22 1_555 1_555
C23 C22 1_555 1_555
H33 C23 1_555 1_555
H34 C23 1_555 1_555
C24 C23 1_555 1_555
H35 C24 1_555 1_555
H36 C24 1_555 1_555
C25 O8 1_555 1_555
H37 C25 1_555 1_555
H38 C25 1_555 1_555
C4 C5 1_555 1_555
C5 C6 1_555 1_555
C8 C9 1_555 1_555
C10 C11 1_555 1_555
C12 C13 1_555 1_555
C14 C15 1_555 1_555
C16 C17 1_555 1_555
C18 C19 1_555 1_555
C20 C21 1_555 1_555
C24 C25 1_555 1_555

#END
