
#######################################################################
#
#                 Cambridge Crystallographic Data Centre
#                                CCDC 
#
#######################################################################
#
# If this CIF has been generated from an entry in the Cambridge 
# Structural Database, then it will include bibliographic, chemical, 
# crystal, experimental, refinement or atomic coordinate data resulting 
# from the CCDC's data processing and validation procedures.
#
#######################################################################

data_FALMOV
_chemical_formula_moiety         'C18 H16'
_chemical_name_systematic        
trans-1,2-Diphenyltricyclo[3.1.0.0^2,4^]hexane
_symmetry_cell_setting           orthorhombic
_symmetry_space_group_name_H-M   'A b a 2'
_symmetry_Int_Tables_number      41
_space_group_name_Hall           'A 2 -2ab'
loop_
_symmetry_equiv_pos_site_id
_symmetry_equiv_pos_as_xyz
1 x,y,z
2 -x,-y,z
3 1/2+x,1/2-y,z
4 1/2-x,1/2+y,z
5 x,1/2+y,1/2+z
6 -x,1/2-y,1/2+z
7 1/2+x,-y,1/2+z
8 1/2-x,y,1/2+z
_cell_length_a                   10.625(2)
_cell_length_b                   17.084(6)
_cell_length_c                   7.5931(13)
_cell_angle_alpha                90
_cell_angle_beta                 90
_cell_angle_gamma                90
_cell_volume                     1378.28
_exptl_crystal_colour            colorless
_exptl_crystal_description       thin
_chemical_melting_point          43-43.5deg.C
_cell_formula_units_Z            4
loop_
_atom_site_label
_atom_site_type_symbol
_atom_site_fract_x
_atom_site_fract_y
_atom_site_fract_z
C1 C 0.0540(4) 0.0285(3) 0.6889(6)
C2 C 0.0635(4) 0.0963(3) 0.5693(7)
C3 C 0.0668(8) 0.2243(5) 0.3412(9)
C4 C -0.0271(5) 0.1073(4) 0.4392(9)
C5 C 0.1577(5) 0.1519(4) 0.5779(10)
C6 C -0.0241(7) 0.1699(4) 0.3260(10)
C7 C 0.1626(7) -0.0064(4) 0.7924(12)
C8 C 0.0558(7) 0.0268(5) 0.8922(8)
C9 C 0.1602(7) 0.2154(4) 0.4664(10)
H1 H 0.228(5) 0.260(2) 0.487(7)
H2 H 0.060(5) 0.077(3) 0.964(6)
H3 H -0.108(6) 0.179(3) 0.223(9)
H4 H 0.214(3) 0.142(2) 0.676(5)
H5 H -0.095(5) 0.071(3) 0.430(8)
H6 H 0.176(4) -0.071(3) 0.757(7)
H7 H 0.237(5) 0.033(2) 0.792(8)
H8 H 0.079(4) 0.270(3) 0.267(7)
C1A C -0.0540(4) -0.0285(3) 0.6889(6)
C2A C -0.0635(4) -0.0963(3) 0.5693(7)
C3A C -0.0668(8) -0.2243(5) 0.3412(9)
C4A C 0.0271(5) -0.1073(4) 0.4392(9)
C5A C -0.1577(5) -0.1519(4) 0.5779(10)
C6A C 0.0241(7) -0.1699(4) 0.3260(10)
C7A C -0.1626(7) 0.0064(4) 0.7924(12)
C8A C -0.0558(7) -0.0268(5) 0.8922(8)
C9A C -0.1602(7) -0.2154(4) 0.4664(10)
H1A H -0.228(5) -0.260(2) 0.487(7)
H2A H -0.060(5) -0.077(3) 0.964(6)
H3A H 0.108(6) -0.179(3) 0.223(9)
H4A H -0.214(3) -0.142(2) 0.676(5)
H5A H 0.095(5) -0.071(3) 0.430(8)
H6A H -0.176(4) 0.071(3) 0.757(7)
H7A H -0.237(5) -0.033(2) 0.792(8)
H8A H -0.079(4) -0.270(3) 0.267(7)
loop_
_geom_bond_atom_site_label_1
_geom_bond_atom_site_label_2
_geom_bond_site_symmetry_1
_geom_bond_site_symmetry_2
C1 C2 1_555 1_555
C2 C4 1_555 1_555
C3 C6 1_555 1_555
C4 C6 1_555 1_555
C5 C2 1_555 1_555
C6 H3 1_555 1_555
C7 C1 1_555 1_555
C8 C1 1_555 1_555
C9 C3 1_555 1_555
H1 C9 1_555 1_555
H2 C8 1_555 1_555
H4 C5 1_555 1_555
H5 C4 1_555 1_555
H6 C7 1_555 1_555
H7 C7 1_555 1_555
H8 C3 1_555 1_555
C1A C1 1_555 1_555
C2A C1A 1_555 1_555
C3A C6A 1_555 1_555
C4A C2A 1_555 1_555
C5A C2A 1_555 1_555
C6A C4A 1_555 1_555
C7A C1A 1_555 1_555
C8A C8 1_555 1_555
C9A C3A 1_555 1_555
H1A C9A 1_555 1_555
H2A C8A 1_555 1_555
H3A C6A 1_555 1_555
H4A C5A 1_555 1_555
H5A C4A 1_555 1_555
H6A C7A 1_555 1_555
H7A C7A 1_555 1_555
H8A C3A 1_555 1_555
C5 C9 1_555 1_555
C7 C8 1_555 1_555
C1A C8A 1_555 1_555
C5A C9A 1_555 1_555
C7A C8A 1_555 1_555

#END
