
#######################################################################
#
#                 Cambridge Crystallographic Data Centre
#                                CCDC 
#
#######################################################################
#
# If this CIF has been generated from an entry in the Cambridge 
# Structural Database, then it will include bibliographic, chemical, 
# crystal, experimental, refinement or atomic coordinate data resulting 
# from the CCDC's data processing and validation procedures.
#
#######################################################################

data_FALMUB
_chemical_formula_moiety         'C32 H30'
_chemical_name_systematic        
2-Phenyl-3,4-bis(2-phenylcyclopropyl)tricyclo[3.2.1.0^2,4^]oct-6-ene
_symmetry_cell_setting           orthorhombic
_symmetry_space_group_name_H-M   'P 21 21 21'
_symmetry_Int_Tables_number      19
_space_group_name_Hall           'P 2ac 2ab'
loop_
_symmetry_equiv_pos_site_id
_symmetry_equiv_pos_as_xyz
1 x,y,z
2 1/2-x,-y,1/2+z
3 -x,1/2+y,1/2-z
4 1/2+x,1/2-y,-z
_cell_length_a                   8.5785(8)
_cell_length_b                   14.193(3)
_cell_length_c                   19.420(3)
_cell_angle_alpha                90
_cell_angle_beta                 90
_cell_angle_gamma                90
_cell_volume                     2364.48
_exptl_crystal_colour            colorless
_exptl_crystal_description       cubic
_chemical_melting_point          107-108deg.C
_cell_formula_units_Z            4
loop_
_atom_site_label
_atom_site_type_symbol
_atom_site_fract_x
_atom_site_fract_y
_atom_site_fract_z
C1 C 0.2546(3) 0.22881(16) 0.24191(13)
C2 C 0.0825(3) 0.23298(16) 0.22368(12)
C3 C 0.1627(3) 0.13792(16) 0.23342(12)
C4 C 0.1963(3) 0.07312(16) 0.17467(13)
C5 C 0.2772(3) -0.02052(17) 0.18416(14)
C6 C 0.1082(3) -0.01743(18) 0.16421(17)
C7 C 0.3748(3) 0.25936(17) 0.19128(13)
C8 C 0.4576(3) 0.35135(18) 0.20515(13)
C9 C 0.5436(3) 0.2591(2) 0.21137(19)
C10 C 0.0314(3) 0.27092(17) 0.15549(12)
C11 C 0.0714(4) 0.36260(19) 0.13690(14)
C12 C 0.0249(5) 0.3994(3) 0.07405(19)
C13 C -0.0626(5) 0.3461(3) 0.02995(19)
C14 C -0.1065(5) 0.2562(3) 0.04735(16)
C15 C -0.0587(4) 0.2185(2) 0.10997(15)
C16 C 0.3986(3) -0.05208(17) 0.13454(13)
C17 C 0.3780(4) -0.1327(2) 0.09492(16)
C18 C 0.4920(6) -0.1620(3) 0.04928(18)
C19 C 0.6287(6) -0.1126(3) 0.04349(19)
C20 C 0.6520(4) -0.0327(3) 0.08270(19)
C21 C 0.5377(4) -0.0028(2) 0.12747(16)
C22 C 0.4893(3) 0.42039(17) 0.14967(12)
C23 C 0.5399(5) 0.3952(2) 0.08522(15)
C24 C 0.5629(5) 0.4614(2) 0.03390(16)
C25 C 0.5350(4) 0.5546(2) 0.04626(15)
C26 C 0.4853(4) 0.5819(2) 0.11030(15)
C27 C 0.4622(4) 0.51566(19) 0.16115(15)
C28 C -0.0895(3) 0.1294(2) 0.28249(18)
C29 C 0.1105(4) 0.1569(2) 0.36099(14)
C30 C 0.0385(4) 0.2385(2) 0.35211(13)
C31 C 0.0788(3) 0.0969(2) 0.29832(14)
C32 C -0.0419(3) 0.23467(19) 0.28341(14)
H1 H 0.288(3) 0.2472(14) 0.2889(12)
H2 H 0.221(3) 0.1033(15) 0.1326(13)
H3 H 0.298(3) -0.0386(14) 0.2321(12)
H4 H 0.078(3) -0.0334(19) 0.1148(14)
H5 H 0.037(3) -0.0388(17) 0.1991(14)
H6 H 0.355(3) 0.2464(15) 0.1415(12)
H7 H 0.422(3) 0.3797(15) 0.2492(12)
H8 H 0.570(4) 0.238(2) 0.2586(17)
H9 H 0.614(4) 0.243(2) 0.1717(16)
H10 H 0.135(3) 0.4023(18) 0.1674(13)
H11 H 0.058(5) 0.464(3) 0.0638(17)
H12 H -0.093(5) 0.372(3) -0.013(2)
H13 H -0.178(5) 0.211(3) 0.022(2)
H14 H -0.090(3) 0.155(2) 0.1217(13)
H15 H 0.284(4) -0.169(2) 0.1033(16)
H16 H 0.475(4) -0.218(2) 0.0207(15)
H17 H 0.702(4) -0.128(2) 0.0103(17)
H18 H 0.740(4) 0.006(2) 0.0732(18)
H19 H 0.550(4) 0.053(2) 0.1570(15)
H20 H 0.556(3) 0.3306(19) 0.0748(13)
H21 H 0.592(3) 0.4401(18) -0.0134(14)
H22 H 0.542(4) 0.602(2) 0.0093(15)
H23 H 0.457(4) 0.647(2) 0.1211(16)
H24 H 0.435(4) 0.5317(19) 0.2073(16)
H25 H -0.131(3) 0.1068(19) 0.2354(14)
H26 H -0.161(4) 0.114(2) 0.3150(16)
H27 H 0.182(3) 0.1416(18) 0.3959(14)
H28 H 0.052(4) 0.2969(19) 0.3798(14)
H29 H 0.104(3) 0.0314(18) 0.3046(13)
H30 H -0.126(3) 0.2784(15) 0.2734(13)
loop_
_geom_bond_atom_site_label_1
_geom_bond_atom_site_label_2
_geom_bond_site_symmetry_1
_geom_bond_site_symmetry_2
C1 C2 1_555 1_555
C2 C3 1_555 1_555
C3 C1 1_555 1_555
C4 C3 1_555 1_555
C5 C4 1_555 1_555
C6 C4 1_555 1_555
C7 C1 1_555 1_555
C8 C7 1_555 1_555
C9 C7 1_555 1_555
C10 C2 1_555 1_555
C11 C10 1_555 1_555
C12 C11 1_555 1_555
C13 C12 1_555 1_555
C14 C13 1_555 1_555
C15 C10 1_555 1_555
C16 C5 1_555 1_555
C17 C16 1_555 1_555
C18 C17 1_555 1_555
C19 C18 1_555 1_555
C20 C19 1_555 1_555
C21 C16 1_555 1_555
C22 C8 1_555 1_555
C23 C22 1_555 1_555
C24 C23 1_555 1_555
C25 C24 1_555 1_555
C26 C25 1_555 1_555
C27 C22 1_555 1_555
C28 C31 1_555 1_555
C29 C30 1_555 1_555
C30 C32 1_555 1_555
C31 C3 1_555 1_555
C32 C2 1_555 1_555
H1 C1 1_555 1_555
H2 C4 1_555 1_555
H3 C5 1_555 1_555
H4 C6 1_555 1_555
H5 C6 1_555 1_555
H6 C7 1_555 1_555
H7 C8 1_555 1_555
H8 C9 1_555 1_555
H9 C9 1_555 1_555
H10 C11 1_555 1_555
H11 C12 1_555 1_555
H12 C13 1_555 1_555
H13 C14 1_555 1_555
H14 C15 1_555 1_555
H15 C17 1_555 1_555
H16 C18 1_555 1_555
H17 C19 1_555 1_555
H18 C20 1_555 1_555
H19 C21 1_555 1_555
H20 C23 1_555 1_555
H21 C24 1_555 1_555
H22 C25 1_555 1_555
H23 C26 1_555 1_555
H24 C27 1_555 1_555
H25 C28 1_555 1_555
H26 C28 1_555 1_555
H27 C29 1_555 1_555
H28 C30 1_555 1_555
H29 C31 1_555 1_555
H30 C32 1_555 1_555
C5 C6 1_555 1_555
C8 C9 1_555 1_555
C14 C15 1_555 1_555
C20 C21 1_555 1_555
C26 C27 1_555 1_555
C28 C32 1_555 1_555
C29 C31 1_555 1_555

#END
