
#######################################################################
#
#                 Cambridge Crystallographic Data Centre
#                                CCDC 
#
#######################################################################
#
# If this CIF has been generated from an entry in the Cambridge 
# Structural Database, then it will include bibliographic, chemical, 
# crystal, experimental, refinement or atomic coordinate data resulting 
# from the CCDC's data processing and validation procedures.
#
#######################################################################

data_FALNAI
_chemical_formula_moiety         'C23 H19 F3 N2 O1'
_chemical_name_systematic        
3-[2-(1,3,3-Trimethyl-1,3-dihydro-2H-indol-2-ylidene)ethylidene]-7-(trifluoromethyl)quinolin-4-one
_symmetry_cell_setting           monoclinic
_symmetry_space_group_name_H-M   'P 21/m'
_symmetry_Int_Tables_number      11
_space_group_name_Hall           '-P 2yb'
loop_
_symmetry_equiv_pos_site_id
_symmetry_equiv_pos_as_xyz
1 x,y,z
2 -x,1/2+y,-z
3 -x,-y,-z
4 x,1/2-y,z
_cell_length_a                   11.307(2)
_cell_length_b                   6.9899(14)
_cell_length_c                   12.560(3)
_cell_angle_alpha                90
_cell_angle_beta                 104.97(3)
_cell_angle_gamma                90
_cell_volume                     958.987
_exptl_crystal_colour            purple
_exptl_crystal_description       block
_cell_formula_units_Z            2
_exptl_crystal_recrystallization_method ethanol
loop_
_atom_site_label
_atom_site_type_symbol
_atom_site_fract_x
_atom_site_fract_y
_atom_site_fract_z
C1 C 0.6327(8) 0.2500 -0.0581(8)
H1 H 0.6028 0.2500 -0.1344
C2 C 0.7573(8) 0.2500 -0.0167(6)
C3 C 0.8088(8) 0.2500 0.0938(6)
C4 C 0.7215(8) 0.2500 0.1647(7)
C5 C 0.7640(8) 0.2500 0.2769(8)
H2 H 0.8477 0.2500 0.3100
C6 C 0.6809(9) 0.2500 0.3404(8)
H3 H 0.7089 0.2500 0.4168
C7 C 0.5547(8) 0.2500 0.2905(6)
C8 C 0.5154(8) 0.2500 0.1799(8)
H4 H 0.4318 0.2500 0.1464
C9 C 0.6003(9) 0.2500 0.1137(8)
C10 C 0.4701(12) 0.2500 0.3622(13)
C11 C 0.8295(9) 0.2500 -0.0952(7)
H5 H 0.7862 0.2500 -0.1690
C12 C 0.9546(8) 0.2500 -0.0744(8)
H6 H 1.0012 0.2500 -0.0016
C13 C 1.1100(9) 0.2500 -0.4229(8)
H7 H 1.0457 0.2500 -0.4864
C14 C 1.2256(9) 0.2500 -0.4301(8)
H8 H 1.2408 0.2500 -0.4994
C15 C 1.3222(8) 0.2500 -0.3390(9)
H9 H 1.4016 0.2500 -0.3473
C16 C 1.3029(8) 0.2500 -0.2312(8)
H10 H 1.3668 0.2500 -0.1674
C17 C 1.1850(8) 0.2500 -0.2297(6)
C18 C 1.0171(7) 0.2500 -0.1618(5)
C19 C 0.9700(7) 0.2500 -0.2822(6)
C20 C 1.0868(7) 0.2500 -0.3206(6)
C21 C 0.8946(5) 0.0697(9) -0.3243(4)
H11 H 0.8674 0.0736 -0.4033
H12 H 0.8249 0.0646 -0.2941
H13 H 0.9444 -0.0418 -0.3019
C22 C 1.2190(7) 0.2500 -0.0191(6)
H14 H 1.1697 0.2500 0.0328
H15 H 1.2697 0.3621 -0.0082
H16 H 1.2697 0.1379 -0.0082
N1 N 0.5510(6) 0.2500 0.0008(7)
N2 N 1.1379(6) 0.2500 -0.1335(5)
O1 O 0.9208(5) 0.2500 0.1442(4)
F1 F 0.5095(7) 0.2500 0.4597(6)
F2 F 0.4175(12) 0.065(2) 0.3593(13)
C21C C 0.8946(5) 0.4303(9) -0.3243(4)
H11C H 0.8674 0.4264 -0.4033
H12C H 0.8249 0.4354 -0.2941
H13C H 0.9444 0.5418 -0.3019
F2C F 0.4175(12) 0.435(2) 0.3593(13)
F3? F 0.3635(13) 0.2500 0.3165(12)
loop_
_geom_bond_atom_site_label_1
_geom_bond_atom_site_label_2
_geom_bond_site_symmetry_1
_geom_bond_site_symmetry_2
C1 H1 1_555 1_555
C2 C1 1_555 1_555
C3 C2 1_555 1_555
C4 C3 1_555 1_555
C5 C4 1_555 1_555
H2 C5 1_555 1_555
C6 C5 1_555 1_555
H3 C6 1_555 1_555
C7 C6 1_555 1_555
C8 C7 1_555 1_555
H4 C8 1_555 1_555
C9 C4 1_555 1_555
C10 C7 1_555 1_555
C11 C2 1_555 1_555
H5 C11 1_555 1_555
C12 C11 1_555 1_555
H6 C12 1_555 1_555
C13 H7 1_555 1_555
C14 C13 1_555 1_555
H8 C14 1_555 1_555
C15 C14 1_555 1_555
H9 C15 1_555 1_555
C16 C15 1_555 1_555
H10 C16 1_555 1_555
C17 C16 1_555 1_555
C18 C12 1_555 1_555
C19 C18 1_555 1_555
C20 C13 1_555 1_555
C21 C19 1_555 1_555
H11 C21 1_555 1_555
H12 C21 1_555 1_555
H13 C21 1_555 1_555
C22 H14 1_555 1_555
H15 C22 1_555 1_555
H16 C22 1_555 1_555
N1 C1 1_555 1_555
N2 C17 1_555 1_555
O1 C3 1_555 1_555
F1 C10 1_555 1_555
F2 C10 1_555 1_555
C21C C19 1_555 1_555
H11C C21C 1_555 1_555
H12C C21C 1_555 1_555
H13C C21C 1_555 1_555
F2C C10 1_555 1_555
C8 C9 1_555 1_555
C9 N1 1_555 1_555
C17 C20 1_555 1_555
C18 N2 1_555 1_555
C19 C20 1_555 1_555
C22 N2 1_555 1_555

#END
