
#######################################################################
#
#                 Cambridge Crystallographic Data Centre
#                                CCDC 
#
#######################################################################
#
# If this CIF has been generated from an entry in the Cambridge 
# Structural Database, then it will include bibliographic, chemical, 
# crystal, experimental, refinement or atomic coordinate data resulting 
# from the CCDC's data processing and validation procedures.
#
#######################################################################

data_FALSOD
_chemical_formula_moiety         'C36 H36 O6 S1 Si2'
_chemical_name_systematic        
"14,15-bis(trimethylsilyl)-5,9-dihydrodifluoreno[2,3-b:3',2'-d]thiene-5,9-diyl dimethyl biscarbonate unknown solvate"
_symmetry_cell_setting           monoclinic
_symmetry_space_group_name_H-M   'C 2/c'
_symmetry_Int_Tables_number      15
_space_group_name_Hall           '-C 2yn'
loop_
_symmetry_equiv_pos_site_id
_symmetry_equiv_pos_as_xyz
1 x,y,z
2 -x,y,1/2-z
3 1/2+x,1/2+y,z
4 1/2-x,1/2+y,1/2-z
5 -x,-y,-z
6 x,-y,1/2+z
7 1/2-x,1/2-y,-z
8 1/2+x,1/2-y,1/2+z
_cell_length_a                   40.186(4)
_cell_length_b                   9.5906(11)
_cell_length_c                   22.156(3)
_cell_angle_alpha                90
_cell_angle_beta                 118.522(2)
_cell_angle_gamma                90
_cell_volume                     7502.74
_exptl_crystal_colour            yellow
_exptl_crystal_description       prismatic
_cell_formula_units_Z            8
loop_
_atom_site_label
_atom_site_type_symbol
_atom_site_fract_x
_atom_site_fract_y
_atom_site_fract_z
S1 S 0.63448(4) 0.51041(13) 0.89167(8)
Si1 Si 0.58457(4) 0.03372(13) 0.76485(7)
Si2 Si 0.70128(3) 0.02777(13) 0.91229(6)
O1 O 0.56360(11) 0.5222(5) 0.6042(3)
O2 O 0.57911(16) 0.6577(8) 0.5439(4)
O3 O 0.52405(13) 0.6744(5) 0.5422(3)
O4 O 0.69804(11) 0.2658(6) 1.1529(2)
O5 O 0.66863(15) 0.2827(5) 1.2132(3)
O6 O 0.71663(12) 0.4123(6) 1.2333(2)
C1 C 0.59399(15) 0.3104(7) 0.5941(3)
C2 C 0.5865(2) 0.2865(11) 0.5275(4)
H1 H 0.5835 0.3608 0.4984
C3 C 0.5836(2) 0.1542(12) 0.5050(4)
H2 H 0.5783 0.1381 0.4598
C4 C 0.58843(18) 0.0428(9) 0.5472(4)
H3 H 0.5864 -0.0473 0.5304
C5 C 0.59629(15) 0.0631(7) 0.6151(3)
H4 H 0.5999 -0.0120 0.6441
C6 C 0.59854(12) 0.1969(6) 0.6373(3)
C7 C 0.60855(12) 0.2534(5) 0.7067(2)
C8 C 0.61009(13) 0.3986(6) 0.7021(3)
C9 C 0.59924(16) 0.4469(7) 0.6305(3)
H5 H 0.6192 0.5035 0.6290
C10 C 0.61544(11) 0.1874(4) 0.7689(2)
C11 C 0.63061(11) 0.2765(4) 0.8270(2)
C12 C 0.62712(13) 0.4235(5) 0.8182(3)
C13 C 0.61667(14) 0.4832(5) 0.7554(3)
H6 H 0.6142 0.5794 0.7497
C14 C 0.64684(11) 0.2403(4) 0.8994(2)
C15 C 0.64496(12) 0.3554(5) 0.9366(3)
C16 C 0.65304(14) 0.3430(7) 1.0050(3)
H7 H 0.6518 0.4196 1.0297
C17 C 0.66262(14) 0.2158(7) 1.0337(3)
C18 C 0.67004(12) 0.1016(5) 1.0001(2)
C19 C 0.66564(10) 0.1146(4) 0.9336(2)
C20 C 0.68214(14) -0.0176(7) 1.0481(3)
C21 C 0.68852(15) -0.1563(7) 1.0391(3)
H8 H 0.6868 -0.1862 0.9978
C22 C 0.69751(17) -0.2497(8) 1.0922(4)
H9 H 0.7020 -0.3427 1.0865
C23 C 0.6999(2) -0.2073(12) 1.1525(5)
H10 H 0.7072 -0.2702 1.1886
C24 C 0.69159(19) -0.0699(12) 1.1607(4)
H11 H 0.6916 -0.0429 1.2011
C25 C 0.68333(15) 0.0252(8) 1.1095(3)
C26 C 0.66972(16) 0.1713(8) 1.1034(3)
H12 H 0.6463 0.1750 1.1067
C27 C 0.69209(16) 0.3162(7) 1.2005(3)
C28 C 0.71429(19) 0.4772(7) 1.2913(3)
H13 H 0.7167 0.5765 1.2894
H14 H 0.7344 0.4423 1.3337
H15 H 0.6903 0.4553 1.2886
C29 C 0.5572(2) 0.6256(8) 0.5632(4)
C30 C 0.5107(2) 0.7790(10) 0.4925(5)
H16 H 0.5254 0.8622 0.5111
H17 H 0.4846 0.7979 0.4789
H18 H 0.5130 0.7491 0.4533
C31 C 0.53758(13) 0.0689(7) 0.6906(3)
H19 H 0.5207 -0.0064 0.6854
H20 H 0.5400 0.0771 0.6497
H21 H 0.5276 0.1542 0.6982
C32 C 0.59873(17) -0.1444(6) 0.7549(4)
H22 H 0.6052 -0.1971 0.7959
H23 H 0.6203 -0.1397 0.7471
H24 H 0.5781 -0.1891 0.7165
C33 C 0.57640(19) 0.0327(8) 0.8392(3)
H25 H 0.5542 -0.0213 0.8288
H26 H 0.5729 0.1266 0.8501
H27 H 0.5979 -0.0077 0.8778
C34 C 0.70921(14) 0.1388(7) 0.8514(3)
H28 H 0.7132 0.2337 0.8672
H29 H 0.6875 0.1339 0.8067
H30 H 0.7311 0.1062 0.8489
C35 C 0.69300(18) -0.1546(6) 0.8799(3)
H31 H 0.7158 -0.2080 0.9049
H32 H 0.6860 -0.1549 0.8320
H33 H 0.6730 -0.1951 0.8861
C36 C 0.74684(13) 0.0295(6) 0.9930(2)
H34 H 0.7450 -0.0295 1.0263
H35 H 0.7526 0.1230 1.0104
H36 H 0.7666 -0.0042 0.9842
loop_
_geom_bond_atom_site_label_1
_geom_bond_atom_site_label_2
_geom_bond_site_symmetry_1
_geom_bond_site_symmetry_2
S1 C12 1_555 1_555
Si1 C10 1_555 1_555
Si2 C19 1_555 1_555
O1 C9 1_555 1_555
O2 C29 1_555 1_555
O3 C29 1_555 1_555
O4 C26 1_555 1_555
O5 C27 1_555 1_555
O6 C27 1_555 1_555
C1 C2 1_555 1_555
C2 H1 1_555 1_555
C3 C2 1_555 1_555
H2 C3 1_555 1_555
C4 C3 1_555 1_555
H3 C4 1_555 1_555
C5 C4 1_555 1_555
H4 C5 1_555 1_555
C6 C1 1_555 1_555
C7 C6 1_555 1_555
C8 C7 1_555 1_555
C9 C1 1_555 1_555
H5 C9 1_555 1_555
C10 C7 1_555 1_555
C11 C10 1_555 1_555
C12 C11 1_555 1_555
C13 C8 1_555 1_555
H6 C13 1_555 1_555
C14 C11 1_555 1_555
C15 S1 1_555 1_555
C16 C15 1_555 1_555
H7 C16 1_555 1_555
C17 C16 1_555 1_555
C18 C17 1_555 1_555
C19 C14 1_555 1_555
C20 C18 1_555 1_555
C21 C20 1_555 1_555
H8 C21 1_555 1_555
C22 C21 1_555 1_555
H9 C22 1_555 1_555
C23 C22 1_555 1_555
H10 C23 1_555 1_555
C24 C23 1_555 1_555
H11 C24 1_555 1_555
C25 C20 1_555 1_555
C26 C17 1_555 1_555
H12 C26 1_555 1_555
C27 O4 1_555 1_555
C28 O6 1_555 1_555
H13 C28 1_555 1_555
H14 C28 1_555 1_555
H15 C28 1_555 1_555
C29 O1 1_555 1_555
C30 O3 1_555 1_555
H16 C30 1_555 1_555
H17 C30 1_555 1_555
H18 C30 1_555 1_555
C31 Si1 1_555 1_555
H19 C31 1_555 1_555
H20 C31 1_555 1_555
H21 C31 1_555 1_555
C32 Si1 1_555 1_555
H22 C32 1_555 1_555
H23 C32 1_555 1_555
H24 C32 1_555 1_555
C33 Si1 1_555 1_555
H25 C33 1_555 1_555
H26 C33 1_555 1_555
H27 C33 1_555 1_555
C34 Si2 1_555 1_555
H28 C34 1_555 1_555
H29 C34 1_555 1_555
H30 C34 1_555 1_555
C35 Si2 1_555 1_555
H31 C35 1_555 1_555
H32 C35 1_555 1_555
H33 C35 1_555 1_555
C36 Si2 1_555 1_555
H34 C36 1_555 1_555
H35 C36 1_555 1_555
H36 C36 1_555 1_555
C5 C6 1_555 1_555
C8 C9 1_555 1_555
C12 C13 1_555 1_555
C14 C15 1_555 1_555
C18 C19 1_555 1_555
C24 C25 1_555 1_555
C25 C26 1_555 1_555

#END
