
#######################################################################
#
#                 Cambridge Crystallographic Data Centre
#                                CCDC 
#
#######################################################################
#
# If this CIF has been generated from an entry in the Cambridge 
# Structural Database, then it will include bibliographic, chemical, 
# crystal, experimental, refinement or atomic coordinate data resulting 
# from the CCDC's data processing and validation procedures.
#
#######################################################################

data_FAMFOR
_chemical_name_common            
'2-methyl-1H-imidazol-3-ium azilsartanate acetone solvate'
_chemical_formula_moiety         'C25 H19 N4 O5 1-,C4 H7 N2 1+,C3 H6 O1'
_chemical_name_systematic        
"2-methyl-1H-imidazol-3-ium 2-ethoxy-1-((2'-(5-oxo-4,5-dihydro-1,2,4-oxadiazol-3-yl)biphenyl-4-yl)methyl)-1H-benzimidazole-7-carboxylate acetone solvate"
_chemical_properties_biological  'Azilsartan is an antihypertensive drug.'
_symmetry_cell_setting           triclinic
_symmetry_space_group_name_H-M   'P -1'
_symmetry_Int_Tables_number      2
_space_group_name_Hall           '-P 1'
loop_
_symmetry_equiv_pos_site_id
_symmetry_equiv_pos_as_xyz
1 x,y,z
2 -x,-y,-z
_cell_length_a                   8.4545(14)
_cell_length_b                   9.0586(15)
_cell_length_c                   21.371(3)
_cell_angle_alpha                80.905(3)
_cell_angle_beta                 86.065(3)
_cell_angle_gamma                75.877(3)
_cell_volume                     1566.52
_exptl_crystal_colour            colorless
_exptl_crystal_description       plate
_cell_formula_units_Z            2
loop_
_atom_site_label
_atom_site_type_symbol
_atom_site_fract_x
_atom_site_fract_y
_atom_site_fract_z
C1 C 0.8973(3) -0.0874(2) 0.43892(11)
C2 C 0.7560(2) 0.1431(2) 0.45259(9)
C3 C 0.6850(2) 0.3106(2) 0.43890(9)
C4 C 0.7340(3) 0.4044(2) 0.47514(10)
H1 H 0.8028 0.3608 0.5087
C5 C 0.6813(3) 0.5623(3) 0.46167(13)
H2 H 0.7143 0.6252 0.4860
C6 C 0.5803(3) 0.6256(3) 0.41227(13)
H3 H 0.5461 0.7321 0.4027
C7 C 0.5284(3) 0.5329(3) 0.37634(11)
H4 H 0.4590 0.5783 0.3431
C8 C 0.5780(2) 0.3729(2) 0.38902(9)
C9 C 0.5190(2) 0.2751(2) 0.35037(9)
C10 C 0.5254(3) 0.3046(3) 0.28479(10)
H5 H 0.5623 0.3896 0.2649
C11 C 0.4786(3) 0.2114(3) 0.24838(10)
H6 H 0.4862 0.2333 0.2044
C12 C 0.4198(2) 0.0849(2) 0.27625(9)
C13 C 0.4046(3) 0.0593(2) 0.34195(9)
H7 H 0.3598 -0.0210 0.3617
C14 C 0.4550(2) 0.1516(2) 0.37848(9)
H8 H 0.4461 0.1308 0.4224
C15 C 0.3810(3) -0.0275(3) 0.23773(10)
H9 H 0.4778 -0.1095 0.2340
H10 H 0.2969 -0.0731 0.2601
C16 C 0.8507(4) -0.0806(5) 0.08396(18)
H11 H 0.8872 -0.0439 0.1188
H12 H 0.9197 -0.0643 0.0472
H13 H 0.8553 -0.1885 0.0948
C17 C 0.6865(4) 0.0011(6) 0.07063(15)
H14 H 0.6487 -0.0360 0.0356
H15 H 0.6816 0.1099 0.0586
C18 C 0.4267(3) 0.0567(3) 0.12215(11)
C19 C 0.1758(3) 0.1398(3) 0.15698(9)
C20 C 0.2000(3) 0.2023(3) 0.09368(10)
C21 C 0.0731(4) 0.3064(4) 0.06107(12)
H16 H 0.0873 0.3473 0.0189
C22 C -0.0742(4) 0.3472(4) 0.09292(13)
H17 H -0.1606 0.4172 0.0720
C23 C -0.0963(3) 0.2864(3) 0.15525(12)
H18 H -0.1973 0.3180 0.1753
C24 C 0.0267(3) 0.1795(2) 0.18943(10)
C25 C -0.0100(3) 0.1078(2) 0.25519(10)
H19 H 0.874(3) 0.096(3) 0.3660(12)
N1 N 0.8449(2) 0.05823(18) 0.40954(8)
N2 N 0.7461(3) 0.0640(2) 0.50763(8)
N3 N 0.3261(2) 0.0432(2) 0.17451(8)
N4 N 0.3603(3) 0.1470(3) 0.07268(9)
O1 O 0.9787(2) -0.20150(18) 0.41935(8)
O2 O 0.8387(2) -0.08863(17) 0.49971(7)
O3 O 0.5818(2) -0.0221(3) 0.12713(8)
O4 O 0.0315(2) -0.03295(18) 0.26904(9)
O5 O -0.0864(2) 0.19706(17) 0.29313(7)
C26 C 1.0764(3) 0.4555(3) 0.36763(13)
H20 H 1.0524 0.3562 0.3785
H21 H 1.0616 0.5060 0.4046
H22 H 1.1873 0.4436 0.3520
C27 C 0.9651(3) 0.5495(2) 0.31801(11)
C28 C 0.7969(3) 0.6172(3) 0.23921(12)
H23 H 0.7295 0.6113 0.2076
C29 C 0.8246(3) 0.7450(3) 0.25470(13)
H24 H 0.7815 0.8452 0.2356
H25 H 0.889(3) 0.390(3) 0.2814(12)
H26 H 0.973(4) 0.764(4) 0.3273(15)
N5 N 0.8861(2) 0.4962(2) 0.27852(9)
N6 N 0.9290(3) 0.7005(2) 0.30430(10)
C30 C 0.3523(10) 0.6620(12) 0.0634(3)
H27 H 0.4352 0.6001 0.0393
H28 H 0.3575 0.7678 0.0532
H29 H 0.2469 0.6518 0.0532
C31 C 0.3778(5) 0.6116(5) 0.12974(19)
C32 C 0.2316(7) 0.6162(7) 0.1720(3)
H30 H 0.2620 0.6064 0.2152
H31 H 0.1838 0.5330 0.1671
H32 H 0.1538 0.7123 0.1612
O6 O 0.5106(4) 0.5691(4) 0.14878(16)
loop_
_geom_bond_atom_site_label_1
_geom_bond_atom_site_label_2
_geom_bond_site_symmetry_1
_geom_bond_site_symmetry_2
C1 N1 1_555 1_555
C2 C3 1_555 1_555
C3 C4 1_555 1_555
C4 H1 1_555 1_555
C5 C4 1_555 1_555
H2 C5 1_555 1_555
C6 C5 1_555 1_555
H3 C6 1_555 1_555
C7 C6 1_555 1_555
H4 C7 1_555 1_555
C8 C3 1_555 1_555
C9 C8 1_555 1_555
C10 C9 1_555 1_555
H5 C10 1_555 1_555
C11 C10 1_555 1_555
H6 C11 1_555 1_555
C12 C11 1_555 1_555
C13 C12 1_555 1_555
H7 C13 1_555 1_555
C14 C9 1_555 1_555
H8 C14 1_555 1_555
C15 C12 1_555 1_555
H9 C15 1_555 1_555
H10 C15 1_555 1_555
C16 H11 1_555 1_555
H12 C16 1_555 1_555
H13 C16 1_555 1_555
C17 C16 1_555 1_555
H14 C17 1_555 1_555
H15 C17 1_555 1_555
C18 N3 1_555 1_555
C19 C20 1_555 1_555
C20 C21 1_555 1_555
C21 H16 1_555 1_555
C22 C21 1_555 1_555
H17 C22 1_555 1_555
C23 C22 1_555 1_555
H18 C23 1_555 1_555
C24 C19 1_555 1_555
C25 C24 1_555 1_555
H19 N1 1_555 1_555
N1 C2 1_555 1_555
N2 C2 1_555 1_555
N3 C15 1_555 1_555
N4 C18 1_555 1_555
O1 C1 1_555 1_555
O2 C1 1_555 1_555
O3 C17 1_555 1_555
O4 C25 1_555 1_555
O5 C25 1_555 1_555
C26 H20 1_555 1_555
H21 C26 1_555 1_555
H22 C26 1_555 1_555
C27 C26 1_555 1_555
C28 H23 1_555 1_555
C29 C28 1_555 1_555
H24 C29 1_555 1_555
H25 N5 1_555 1_555
H26 N6 1_555 1_555
N5 C27 1_555 1_555
N6 C27 1_555 1_555
C30 H27 1_555 1_555
H28 C30 1_555 1_555
H29 C30 1_555 1_555
C31 C30 1_555 1_555
C32 C31 1_555 1_555
H30 C32 1_555 1_555
H31 C32 1_555 1_555
H32 C32 1_555 1_555
O6 C31 1_555 1_555
C7 C8 1_555 1_555
C13 C14 1_555 1_555
C18 O3 1_555 1_555
C19 N3 1_555 1_555
C20 N4 1_555 1_555
C23 C24 1_555 1_555
N2 O2 1_555 1_555
C28 N5 1_555 1_555
C29 N6 1_555 1_555

#END
