
#######################################################################
#
#                 Cambridge Crystallographic Data Centre
#                                CCDC 
#
#######################################################################
#
# If this CIF has been generated from an entry in the Cambridge 
# Structural Database, then it will include bibliographic, chemical, 
# crystal, experimental, refinement or atomic coordinate data resulting 
# from the CCDC's data processing and validation procedures.
#
#######################################################################

data_FAMFUU
_chemical_formula_moiety         'C27 H23 N1 O3'
_chemical_name_systematic        '1-(4-Nitrophenyl)ethyl triphenylmethyl ether'
_symmetry_cell_setting           triclinic
_symmetry_space_group_name_H-M   'P -1'
_symmetry_Int_Tables_number      2
_space_group_name_Hall           '-P 1'
loop_
_symmetry_equiv_pos_site_id
_symmetry_equiv_pos_as_xyz
1 x,y,z
2 -x,-y,-z
_cell_length_a                   8.601(2)
_cell_length_b                   9.829(3)
_cell_length_c                   13.731(4)
_cell_angle_alpha                72.83(3)
_cell_angle_beta                 79.76(3)
_cell_angle_gamma                75.64(3)
_cell_volume                     1067.55
_exptl_crystal_colour            colorless
_chemical_melting_point          '446-447 K (dec.)'
_cell_formula_units_Z            2
loop_
_atom_site_label
_atom_site_type_symbol
_atom_site_fract_x
_atom_site_fract_y
_atom_site_fract_z
O1 O 0.2867(1) 0.1582(1) 0.6503(1)
C1 C 0.3719(2) 0.0734(1) 0.7384(1)
C2 C 0.2757(2) 0.3124(1) 0.6172(1)
C3 C 0.1156(2) 0.3949(2) 0.6592(1)
C4 C 0.5548(2) 0.0645(1) 0.7121(1)
C5 C 0.6236(2) 0.1097(2) 0.6118(1)
C6 C 0.7894(2) 0.0954(2) 0.5889(1)
C7 C 0.8898(2) 0.0348(2) 0.6654(1)
C8 C 0.8235(2) -0.0150(2) 0.7648(1)
C9 C 0.6582(2) -0.0006(2) 0.7883(1)
C10 C 0.3438(2) -0.0808(1) 0.7556(1)
C11 C 0.3269(2) -0.1283(2) 0.6736(1)
C12 C 0.3021(2) -0.2668(2) 0.6882(1)
C13 C 0.2953(2) -0.3609(2) 0.7847(1)
C14 C 0.3162(2) -0.3170(2) 0.8665(1)
C15 C 0.3408(2) -0.1780(2) 0.8523(1)
C16 C 0.2962(2) 0.1360(1) 0.8302(1)
C17 C 0.3724(2) 0.2134(2) 0.8699(1)
C18 C 0.2929(2) 0.2783(2) 0.9469(1)
C19 C 0.1351(2) 0.2687(2) 0.9845(1)
C20 C 0.0580(2) 0.1919(2) 0.9460(1)
C21 C 0.1386(2) 0.1252(2) 0.8702(1)
C22 C 0.2879(2) 0.3583(1) 0.5011(1)
C23 C 0.3205(2) 0.4939(2) 0.4481(1)
C24 C 0.3212(2) 0.5444(2) 0.3429(1)
C25 C 0.2880(2) 0.4562(2) 0.2910(1)
C26 C 0.2560(2) 0.3214(2) 0.3401(1)
C27 C 0.2558(2) 0.2726(2) 0.4456(1)
N1 N 0.2849(2) 0.5107(2) 0.1791(1)
O2 O 0.3248(2) 0.6261(2) 0.1355(1)
O3 O 0.2410(2) 0.4386(2) 0.1353(1)
H1 H 0.3612 0.3349 0.6421
H2 H 0.1023 0.4966 0.6244
H3 H 0.0332 0.3563 0.6440
H4 H 0.5554 0.1515 0.5576
H5 H 0.8349 0.1279 0.5191
H6 H 1.0044 0.0274 0.6495
H7 H 0.8927 -0.0600 0.8182
H8 H 0.6139 -0.0359 0.8580
H9 H 0.3326 -0.0642 0.6056
H10 H 0.2894 -0.2976 0.6304
H11 H 0.2763 -0.4565 0.7946
H12 H 0.3136 -0.3828 0.9339
H13 H 0.3560 -0.1486 0.9101
H14 H 0.4817 0.2221 0.8436
H15 H 0.3478 0.3303 0.9743
H16 H 0.0795 0.3150 1.0371
H17 H -0.0519 0.1847 0.9717
H18 H 0.0845 0.0703 0.8449
H19 H 0.3430 0.5541 0.4854
H20 H 0.3442 0.6383 0.3069
H21 H 0.2342 0.2617 0.3021
H22 H 0.2331 0.1784 0.4810
loop_
_geom_bond_atom_site_label_1
_geom_bond_atom_site_label_2
_geom_bond_site_symmetry_1
_geom_bond_site_symmetry_2
O1 C1 1_555 1_555
C1 C4 1_555 1_555
C2 O1 1_555 1_555
C3 C2 1_555 1_555
C4 C5 1_555 1_555
C5 C6 1_555 1_555
C6 C7 1_555 1_555
C7 C8 1_555 1_555
C8 C9 1_555 1_555
C9 C4 1_555 1_555
C10 C1 1_555 1_555
C11 C10 1_555 1_555
C12 C11 1_555 1_555
C13 C12 1_555 1_555
C14 C13 1_555 1_555
C15 C10 1_555 1_555
C16 C1 1_555 1_555
C17 C16 1_555 1_555
C18 C17 1_555 1_555
C19 C18 1_555 1_555
C20 C19 1_555 1_555
C21 C16 1_555 1_555
C22 C2 1_555 1_555
C23 C22 1_555 1_555
C24 C23 1_555 1_555
C25 C24 1_555 1_555
C26 C25 1_555 1_555
C27 C22 1_555 1_555
N1 C25 1_555 1_555
O2 N1 1_555 1_555
O3 N1 1_555 1_555
H1 C2 1_555 1_555
H2 C3 1_555 1_555
H3 C3 1_555 1_555
H4 C5 1_555 1_555
H5 C6 1_555 1_555
H6 C7 1_555 1_555
H7 C8 1_555 1_555
H8 C9 1_555 1_555
H9 C11 1_555 1_555
H10 C12 1_555 1_555
H11 C13 1_555 1_555
H12 C14 1_555 1_555
H13 C15 1_555 1_555
H14 C17 1_555 1_555
H15 C18 1_555 1_555
H16 C19 1_555 1_555
H17 C20 1_555 1_555
H18 C21 1_555 1_555
H19 C23 1_555 1_555
H20 C24 1_555 1_555
H21 C26 1_555 1_555
H22 C27 1_555 1_555
C14 C15 1_555 1_555
C20 C21 1_555 1_555
C26 C27 1_555 1_555

#END
