
#######################################################################
#
#                 Cambridge Crystallographic Data Centre
#                                CCDC 
#
#######################################################################
#
# If this CIF has been generated from an entry in the Cambridge 
# Structural Database, then it will include bibliographic, chemical, 
# crystal, experimental, refinement or atomic coordinate data resulting 
# from the CCDC's data processing and validation procedures.
#
#######################################################################

data_FAMFOO
_chemical_formula_moiety         'C27 H23 Cl1 O1'
_chemical_name_systematic        '1-(4-Chlorophenyl)ethyl triphenylmethyl ether'
_symmetry_cell_setting           monoclinic
_symmetry_space_group_name_H-M   'C 2'
_symmetry_Int_Tables_number      5
_space_group_name_Hall           'C 2y'
loop_
_symmetry_equiv_pos_site_id
_symmetry_equiv_pos_as_xyz
1 x,y,z
2 1/2+x,1/2+y,z
3 -x,y,-z
4 1/2-x,1/2+y,-z
_cell_length_a                   19.217(6)
_cell_length_b                   8.443(2)
_cell_length_c                   14.350(5)
_cell_angle_alpha                90
_cell_angle_beta                 115.09(3)
_cell_angle_gamma                90
_cell_volume                     2108.59
_exptl_crystal_colour            colorless
_chemical_melting_point          'decomposes above 428 K'
_cell_formula_units_Z            4
loop_
_atom_site_label
_atom_site_type_symbol
_atom_site_fract_x
_atom_site_fract_y
_atom_site_fract_z
O1 O 0.3319(1) 0.6000 0.2914(1)
C1 C 0.3094(1) 0.4592(2) 0.3304(1)
C2 C 0.3234(1) 0.5972(3) 0.1866(1)
C3 C 0.3876(1) 0.6990(3) 0.1841(2)
C4 C 0.3624(1) 0.3196(2) 0.3377(1)
C5 C 0.3410(1) 0.1648(2) 0.3429(1)
C6 C 0.3915(1) 0.0413(3) 0.3587(2)
C7 C 0.4652(1) 0.0700(3) 0.3707(2)
C8 C 0.4885(1) 0.2235(3) 0.3681(2)
C9 C 0.4380(1) 0.3469(3) 0.3523(1)
C10 C 0.3257(1) 0.5000(2) 0.4421(1)
C11 C 0.3747(1) 0.6215(2) 0.4940(1)
C12 C 0.3920(1) 0.6514(3) 0.5968(2)
C13 C 0.3611(1) 0.5592(3) 0.6482(2)
C14 C 0.3127(1) 0.4376(3) 0.5977(2)
C15 C 0.2953(1) 0.4079(3) 0.4957(1)
C16 C 0.2238(1) 0.4270(2) 0.2639(1)
C17 C 0.1984(1) 0.3277(2) 0.1788(1)
C18 C 0.1204(1) 0.3108(3) 0.1165(2)
C19 C 0.0670(1) 0.3912(3) 0.1373(2)
C20 C 0.0912(1) 0.4922(3) 0.2202(2)
C21 C 0.1682(1) 0.5098(2) 0.2832(1)
C22 C 0.2468(1) 0.6621(2) 0.1116(1)
C23 C 0.2121(1) 0.7848(2) 0.1386(1)
C24 C 0.1438(1) 0.8506(3) 0.0681(2)
C25 C 0.1110(1) 0.7921(3) -0.0303(2)
C26 C 0.1444(1) 0.6724(3) -0.0609(2)
C27 C 0.2125(1) 0.6072(3) 0.0111(1)
Cl1 Cl 0.0245(1) 0.8733(1) -0.1186(1)
H1 H 0.3257 0.4899 0.1659
H2 H 0.3857 0.6981 0.1161
H3 H 0.4352 0.6532 0.2316
H4 H 0.3842 0.8062 0.2040
H5 H 0.2899 0.1430 0.3356
H6 H 0.3751 -0.0653 0.3613
H7 H 0.5002 -0.0163 0.3807
H8 H 0.5401 0.2444 0.3775
H9 H 0.4550 0.4535 0.3512
H10 H 0.3972 0.6859 0.4589
H11 H 0.4257 0.7371 0.6319
H12 H 0.3732 0.5798 0.7192
H13 H 0.2909 0.3727 0.6335
H14 H 0.2614 0.3220 0.4611
H15 H 0.2351 0.2701 0.1628
H16 H 0.1037 0.2416 0.0579
H17 H 0.0132 0.3777 0.0945
H18 H 0.0541 0.5507 0.2346
H19 H 0.1840 0.5801 0.3412
H20 H 0.2355 0.8260 0.2074
H21 H 0.1199 0.9357 0.0881
H22 H 0.1214 0.6338 -0.1304
H23 H 0.2363 0.5225 -0.0093
loop_
_geom_bond_atom_site_label_1
_geom_bond_atom_site_label_2
_geom_bond_site_symmetry_1
_geom_bond_site_symmetry_2
O1 C1 1_555 1_555
C1 C4 1_555 1_555
C2 O1 1_555 1_555
C3 C2 1_555 1_555
C4 C5 1_555 1_555
C5 C6 1_555 1_555
C6 C7 1_555 1_555
C7 C8 1_555 1_555
C8 C9 1_555 1_555
C9 C4 1_555 1_555
C10 C1 1_555 1_555
C11 C10 1_555 1_555
C12 C11 1_555 1_555
C13 C12 1_555 1_555
C14 C13 1_555 1_555
C15 C10 1_555 1_555
C16 C1 1_555 1_555
C17 C16 1_555 1_555
C18 C17 1_555 1_555
C19 C18 1_555 1_555
C20 C19 1_555 1_555
C21 C16 1_555 1_555
C22 C2 1_555 1_555
C23 C22 1_555 1_555
C24 C23 1_555 1_555
C25 C24 1_555 1_555
C26 C25 1_555 1_555
C27 C22 1_555 1_555
Cl1 C25 1_555 1_555
H1 C2 1_555 1_555
H2 C3 1_555 1_555
H3 C3 1_555 1_555
H4 C3 1_555 1_555
H5 C5 1_555 1_555
H6 C6 1_555 1_555
H7 C7 1_555 1_555
H8 C8 1_555 1_555
H9 C9 1_555 1_555
H10 C11 1_555 1_555
H11 C12 1_555 1_555
H12 C13 1_555 1_555
H13 C14 1_555 1_555
H14 C15 1_555 1_555
H15 C17 1_555 1_555
H16 C18 1_555 1_555
H17 C19 1_555 1_555
H18 C20 1_555 1_555
H19 C21 1_555 1_555
H20 C23 1_555 1_555
H21 C24 1_555 1_555
H22 C26 1_555 1_555
H23 C27 1_555 1_555
C14 C15 1_555 1_555
C20 C21 1_555 1_555
C26 C27 1_555 1_555

#END
