
#######################################################################
#
#                 Cambridge Crystallographic Data Centre
#                                CCDC 
#
#######################################################################
#
# If this CIF has been generated from an entry in the Cambridge 
# Structural Database, then it will include bibliographic, chemical, 
# crystal, experimental, refinement or atomic coordinate data resulting 
# from the CCDC's data processing and validation procedures.
#
#######################################################################

data_FAMFUX
_chemical_name_common            
'2-methyl-1H-imidazol-3-ium  azilsartanate tetrahydrofuran solvate'
_chemical_formula_moiety         'C25 H19 N4 O5 1-,C4 H7 N2 1+,C4 H8 O1'
_chemical_name_systematic        
"2-methyl-1H-imidazol-3-ium 2-ethoxy-1-((2'-(5-oxo-4,5-dihydro-1,2,4-oxadiazol-3-yl)biphenyl-4-yl)methyl)-1H-benzimidazole-7-carboxylate tetrahydrofuran solvate"
_chemical_properties_biological  'Azilsartan is an antihypertensive drug.'
_symmetry_cell_setting           triclinic
_symmetry_space_group_name_H-M   'P -1'
_symmetry_Int_Tables_number      2
_space_group_name_Hall           '-P 1'
loop_
_symmetry_equiv_pos_site_id
_symmetry_equiv_pos_as_xyz
1 x,y,z
2 -x,-y,-z
_cell_length_a                   8.3994(7)
_cell_length_b                   9.0501(7)
_cell_length_c                   21.0766(18)
_cell_angle_alpha                79.773(3)
_cell_angle_beta                 85.575(3)
_cell_angle_gamma                75.618(2)
_cell_volume                     1526.36
_exptl_crystal_colour            colorless
_exptl_crystal_description       plate
_cell_formula_units_Z            2
loop_
_atom_site_label
_atom_site_type_symbol
_atom_site_fract_x
_atom_site_fract_y
_atom_site_fract_z
C1 C 0.8957(3) -0.0862(3) 0.43908(12)
C2 C 0.7565(3) 0.1462(3) 0.45401(11)
C3 C 0.6855(3) 0.3156(3) 0.44005(11)
C4 C 0.7362(3) 0.4074(3) 0.47737(12)
H1 H 0.8045 0.3613 0.5117
C5 C 0.6848(3) 0.5671(3) 0.46325(13)
H2 H 0.7190 0.6282 0.4880
C6 C 0.5826(3) 0.6355(3) 0.41233(13)
H3 H 0.5491 0.7426 0.4025
C7 C 0.5301(3) 0.5439(3) 0.37604(12)
H4 H 0.4608 0.5913 0.3421
C8 C 0.5786(3) 0.3825(3) 0.38897(11)
C9 C 0.5184(3) 0.2872(3) 0.34988(11)
C10 C 0.5221(3) 0.3218(3) 0.28287(12)
H5 H 0.5566 0.4090 0.2627
C11 C 0.4757(3) 0.2294(3) 0.24567(11)
H6 H 0.4821 0.2538 0.2009
C12 C 0.4194(3) 0.0998(3) 0.27452(11)
C13 C 0.4041(3) 0.0707(3) 0.34126(11)
H7 H 0.3592 -0.0107 0.3613
C14 C 0.4548(3) 0.1612(3) 0.37876(11)
H8 H 0.4465 0.1379 0.4235
C15 C 0.3815(3) -0.0118(3) 0.23544(11)
H9 H 0.4796 -0.0936 0.2316
H10 H 0.2973 -0.0589 0.2585
C16 C 0.8585(3) -0.0688(4) 0.08142(14)
H11 H 0.8974 -0.0295 0.1151
H12 H 0.9303 -0.0607 0.0439
H13 H 0.8571 -0.1753 0.0957
C17 C 0.6883(3) 0.0232(3) 0.06504(13)
H14 H 0.6874 0.1316 0.0516
H15 H 0.6484 -0.0136 0.0302
C18 C 0.4265(3) 0.0756(3) 0.11730(11)
C19 C 0.1710(3) 0.1508(3) 0.15224(11)
C20 C 0.1931(3) 0.2112(3) 0.08668(12)
C21 C 0.0624(3) 0.3094(3) 0.05215(12)
H16 H 0.0753 0.3474 0.0086
C22 C -0.0883(3) 0.3489(3) 0.08493(13)
H17 H -0.1774 0.4151 0.0630
C23 C -0.1077(3) 0.2910(3) 0.14994(12)
H18 H -0.2094 0.3216 0.1706
C24 C 0.0200(3) 0.1885(3) 0.18530(12)
C25 C -0.0147(3) 0.1171(3) 0.25353(12)
H19 H 0.864(3) 0.103(3) 0.3659(14)
N1 N 0.8423(2) 0.0622(2) 0.40927(10)
N2 N 0.7493(3) 0.0645(2) 0.51049(10)
N3 N 0.3256(2) 0.0606(2) 0.17095(9)
N4 N 0.3564(3) 0.1609(2) 0.06570(10)
O1 O 0.9746(2) -0.20046(19) 0.41871(9)
O2 O 0.8403(2) -0.08924(19) 0.50177(8)
O3 O 0.5853(2) 0.0025(2) 0.12337(8)
O4 O 0.0315(2) -0.0245(2) 0.26937(9)
O5 O -0.0959(2) 0.20768(19) 0.29081(8)
C26 C 1.0746(3) 0.4581(3) 0.36433(14)
H20 H 1.0485 0.3590 0.3757
H21 H 1.0629 0.5065 0.4020
H22 H 1.1858 0.4446 0.3475
C27 C 0.9610(3) 0.5569(3) 0.31474(12)
C28 C 0.7868(3) 0.6336(3) 0.23573(13)
H23 H 0.7168 0.6313 0.2040
C29 C 0.8186(3) 0.7603(3) 0.25180(13)
H24 H 0.7754 0.8624 0.2333
H25 H 0.884(4) 0.399(4) 0.2760(15)
H26 H 0.965(4) 0.772(4) 0.3192(15)
N5 N 0.8776(3) 0.5076(2) 0.27512(10)
N6 N 0.9271(3) 0.7098(2) 0.30084(11)
C30 C 0.2770(4) 0.6601(4) 0.18324(18)
H27 H 0.2110 0.7655 0.1801
H28 H 0.2733 0.6099 0.2278
C31 C 0.2123(4) 0.5752(4) 0.1410(2)
H29 H 0.0968 0.6206 0.1330
H30 H 0.2265 0.4670 0.1597
C32 C 0.3156(8) 0.5941(6) 0.0806(2)
H31 H 0.2492 0.6592 0.0458
H32 H 0.3643 0.4944 0.0678
C33 C 0.4489(6) 0.6689(6) 0.09514(19)
H33 H 0.5561 0.6137 0.0807
H34 H 0.4285 0.7757 0.0739
O6 O 0.4409(3) 0.6599(3) 0.16251(10)
loop_
_geom_bond_atom_site_label_1
_geom_bond_atom_site_label_2
_geom_bond_site_symmetry_1
_geom_bond_site_symmetry_2
C1 N1 1_555 1_555
C2 C3 1_555 1_555
C3 C4 1_555 1_555
C4 H1 1_555 1_555
C5 C4 1_555 1_555
H2 C5 1_555 1_555
C6 C5 1_555 1_555
H3 C6 1_555 1_555
C7 C6 1_555 1_555
H4 C7 1_555 1_555
C8 C3 1_555 1_555
C9 C8 1_555 1_555
C10 C9 1_555 1_555
H5 C10 1_555 1_555
C11 C10 1_555 1_555
H6 C11 1_555 1_555
C12 C11 1_555 1_555
C13 C12 1_555 1_555
H7 C13 1_555 1_555
C14 C9 1_555 1_555
H8 C14 1_555 1_555
C15 C12 1_555 1_555
H9 C15 1_555 1_555
H10 C15 1_555 1_555
C16 H11 1_555 1_555
H12 C16 1_555 1_555
H13 C16 1_555 1_555
C17 C16 1_555 1_555
H14 C17 1_555 1_555
H15 C17 1_555 1_555
C18 N3 1_555 1_555
C19 C20 1_555 1_555
C20 C21 1_555 1_555
C21 H16 1_555 1_555
C22 C21 1_555 1_555
H17 C22 1_555 1_555
C23 C22 1_555 1_555
H18 C23 1_555 1_555
C24 C19 1_555 1_555
C25 C24 1_555 1_555
H19 N1 1_555 1_555
N1 C2 1_555 1_555
N2 C2 1_555 1_555
N3 C15 1_555 1_555
N4 C18 1_555 1_555
O1 C1 1_555 1_555
O2 C1 1_555 1_555
O3 C17 1_555 1_555
O4 C25 1_555 1_555
O5 C25 1_555 1_555
C26 H20 1_555 1_555
H21 C26 1_555 1_555
H22 C26 1_555 1_555
C27 C26 1_555 1_555
C28 H23 1_555 1_555
C29 C28 1_555 1_555
H24 C29 1_555 1_555
H25 N5 1_555 1_555
H26 N6 1_555 1_555
N5 C27 1_555 1_555
N6 C27 1_555 1_555
C30 H27 1_555 1_555
H28 C30 1_555 1_555
C31 C30 1_555 1_555
H29 C31 1_555 1_555
H30 C31 1_555 1_555
C32 C31 1_555 1_555
H31 C32 1_555 1_555
H32 C32 1_555 1_555
C33 C32 1_555 1_555
H33 C33 1_555 1_555
H34 C33 1_555 1_555
O6 C30 1_555 1_555
C7 C8 1_555 1_555
C13 C14 1_555 1_555
C18 O3 1_555 1_555
C19 N3 1_555 1_555
C20 N4 1_555 1_555
C23 C24 1_555 1_555
N2 O2 1_555 1_555
C28 N5 1_555 1_555
C29 N6 1_555 1_555
C33 O6 1_555 1_555

#END
