
#######################################################################
#
#                 Cambridge Crystallographic Data Centre
#                                CCDC 
#
#######################################################################
#
# If this CIF has been generated from an entry in the Cambridge 
# Structural Database, then it will include bibliographic, chemical, 
# crystal, experimental, refinement or atomic coordinate data resulting 
# from the CCDC's data processing and validation procedures.
#
#######################################################################

data_FAMFII
_chemical_formula_moiety         'C27 H24 O1'
_chemical_name_systematic        '1-Phenylethyl triphenylmethyl ether'
_symmetry_cell_setting           monoclinic
_symmetry_space_group_name_H-M   'C 2'
_symmetry_Int_Tables_number      5
_space_group_name_Hall           'C 2y'
loop_
_symmetry_equiv_pos_site_id
_symmetry_equiv_pos_as_xyz
1 x,y,z
2 1/2+x,1/2+y,z
3 -x,y,-z
4 1/2-x,1/2+y,-z
_cell_length_a                   18.701(3)
_cell_length_b                   8.429(2)
_cell_length_c                   14.313(3)
_cell_angle_alpha                90
_cell_angle_beta                 114.56(2)
_cell_angle_gamma                90
_cell_volume                     2052.05
_exptl_crystal_colour            yellow
_chemical_melting_point          'decomposes above 393 K'
_cell_formula_units_Z            4
loop_
_atom_site_label
_atom_site_type_symbol
_atom_site_fract_x
_atom_site_fract_y
_atom_site_fract_z
O1 O 0.3291(1) 0.6000 0.2857(1)
C1 C 0.3066(1) 0.4605(2) 0.3264(1)
C2 C 0.3194(1) 0.5925(2) 0.1803(1)
C3 C 0.3866(1) 0.6866(3) 0.1748(2)
C4 C 0.3618(1) 0.3203(2) 0.3351(1)
C5 C 0.3392(1) 0.1651(2) 0.3403(2)
C6 C 0.3917(1) 0.0415(3) 0.3577(2)
C7 C 0.4675(1) 0.0719(3) 0.3702(2)
C8 C 0.4918(1) 0.2252(3) 0.3677(2)
C9 C 0.4387(1) 0.3492(3) 0.3501(2)
C10 C 0.3238(1) 0.5033(2) 0.4382(1)
C11 C 0.3760(1) 0.6233(2) 0.4903(1)
C12 C 0.3949(1) 0.6519(3) 0.5932(2)
C13 C 0.3626(1) 0.5619(3) 0.6456(2)
C14 C 0.3106(1) 0.4420(3) 0.5951(2)
C15 C 0.2917(1) 0.4122(2) 0.4925(2)
C16 C 0.2193(1) 0.4274(2) 0.2621(1)
C17 C 0.1931(1) 0.3252(2) 0.1783(1)
C18 C 0.1136(1) 0.3101(3) 0.1161(2)
C19 C 0.0590(1) 0.3964(3) 0.1359(2)
C20 C 0.0836(1) 0.4986(3) 0.2175(2)
C21 C 0.1629(1) 0.5141(3) 0.2803(2)
C22 C 0.2414(1) 0.6590(2) 0.1054(1)
C23 C 0.2028(1) 0.7786(3) 0.1322(2)
C24 C 0.1329(2) 0.8403(4) 0.0590(2)
C25 C 0.1018(2) 0.7850(4) -0.0405(2)
C26 C 0.1401(2) 0.6691(4) -0.0678(2)
C27 C 0.2092(1) 0.6061(3) 0.0047(2)
H1 H 0.3198 0.4836 0.1609
H2 H 0.3810 0.6863 0.1050
H3 H 0.4364 0.6410 0.2185
H4 H 0.3840 0.7937 0.1960
H5 H 0.2864 0.1432 0.3316
H6 H 0.3753 -0.0655 0.3610
H7 H 0.5036 -0.0143 0.3808
H8 H 0.5450 0.2465 0.3780
H9 H 0.4556 0.4562 0.3483
H10 H 0.3991 0.6872 0.4546
H11 H 0.4309 0.7355 0.6281
H12 H 0.3760 0.5822 0.7169
H13 H 0.2876 0.3791 0.6313
H14 H 0.2560 0.3278 0.4582
H15 H 0.2306 0.2645 0.1634
H16 H 0.0965 0.2388 0.0586
H17 H 0.0039 0.3849 0.0928
H18 H 0.0458 0.5598 0.2312
H19 H 0.1794 0.5860 0.3375
H20 H 0.2242 0.8189 0.2011
H21 H 0.1061 0.9225 0.0782
H22 H 0.0533 0.8279 -0.0902
H23 H 0.1192 0.6312 -0.1373
H24 H 0.2355 0.5237 -0.0153
loop_
_geom_bond_atom_site_label_1
_geom_bond_atom_site_label_2
_geom_bond_site_symmetry_1
_geom_bond_site_symmetry_2
O1 C1 1_555 1_555
C1 C4 1_555 1_555
C2 O1 1_555 1_555
C3 C2 1_555 1_555
C4 C5 1_555 1_555
C5 C6 1_555 1_555
C6 C7 1_555 1_555
C7 C8 1_555 1_555
C8 C9 1_555 1_555
C9 C4 1_555 1_555
C10 C1 1_555 1_555
C11 C10 1_555 1_555
C12 C11 1_555 1_555
C13 C12 1_555 1_555
C14 C13 1_555 1_555
C15 C10 1_555 1_555
C16 C1 1_555 1_555
C17 C16 1_555 1_555
C18 C17 1_555 1_555
C19 C18 1_555 1_555
C20 C19 1_555 1_555
C21 C16 1_555 1_555
C22 C2 1_555 1_555
C23 C22 1_555 1_555
C24 C23 1_555 1_555
C25 C24 1_555 1_555
C26 C25 1_555 1_555
C27 C22 1_555 1_555
H1 C2 1_555 1_555
H2 C3 1_555 1_555
H3 C3 1_555 1_555
H4 C3 1_555 1_555
H5 C5 1_555 1_555
H6 C6 1_555 1_555
H7 C7 1_555 1_555
H8 C8 1_555 1_555
H9 C9 1_555 1_555
H10 C11 1_555 1_555
H11 C12 1_555 1_555
H12 C13 1_555 1_555
H13 C14 1_555 1_555
H14 C15 1_555 1_555
H15 C17 1_555 1_555
H16 C18 1_555 1_555
H17 C19 1_555 1_555
H18 C20 1_555 1_555
H19 C21 1_555 1_555
H20 C23 1_555 1_555
H21 C24 1_555 1_555
H22 C25 1_555 1_555
H23 C26 1_555 1_555
H24 C27 1_555 1_555
C14 C15 1_555 1_555
C20 C21 1_555 1_555
C26 C27 1_555 1_555

#END
