
#######################################################################
#
#                 Cambridge Crystallographic Data Centre
#                                CCDC 
#
#######################################################################
#
# If this CIF has been generated from an entry in the Cambridge 
# Structural Database, then it will include bibliographic, chemical, 
# crystal, experimental, refinement or atomic coordinate data resulting 
# from the CCDC's data processing and validation procedures.
#
#######################################################################

data_FAMGUY
_chemical_formula_moiety         'C21 H20 N2 O4 S1'
_chemical_name_systematic        
"ethyl 1-benzyl-4'-methyl-2-oxo-2'-sulfanylidene-1,2-dihydrospiro[indole-3,5'-[1,3]oxazolidine]-4'-carboxylate"
_symmetry_cell_setting           orthorhombic
_symmetry_space_group_name_H-M   'P 21 21 21'
_symmetry_Int_Tables_number      19
_space_group_name_Hall           'P 2ac 2ab'
loop_
_symmetry_equiv_pos_site_id
_symmetry_equiv_pos_as_xyz
1 x,y,z
2 1/2-x,-y,1/2+z
3 -x,1/2+y,1/2-z
4 1/2+x,1/2-y,-z
_cell_length_a                   8.7225(7)
_cell_length_b                   10.1995(8)
_cell_length_c                   22.6633(18)
_cell_angle_alpha                90
_cell_angle_beta                 90
_cell_angle_gamma                90
_cell_volume                     2016.24
_exptl_crystal_colour            colorless
_exptl_crystal_description       block
_cell_formula_units_Z            4
loop_
_atom_site_label
_atom_site_type_symbol
_atom_site_fract_x
_atom_site_fract_y
_atom_site_fract_z
S1 S 0.30114(9) 0.89393(6) 0.13183(2)
O1 O 0.3539(3) 0.69972(17) -0.08438(10)
O2 O 0.3591(2) 0.88719(17) -0.13479(6)
O3 O 0.33707(16) 1.03563(11) 0.03689(5)
O4 O 0.60204(16) 0.90904(14) -0.02226(7)
N1 N 0.2681(2) 0.83431(15) 0.01682(7)
H1 H 0.2538 0.7517 0.0221
N2 N 0.58092(17) 1.11145(15) -0.06522(7)
C1 C 0.4615(2) 1.20081(18) -0.07717(8)
C2 C 0.4732(3) 1.3220(2) -0.10364(9)
H2 H 0.5666 1.3541 -0.1171
C3 C 0.3391(3) 1.3939(2) -0.10926(9)
H3 H 0.3431 1.4758 -0.1272
C4 C 0.2013(3) 1.3482(2) -0.08926(10)
H4 H 0.1135 1.3989 -0.0940
C5 C 0.1912(2) 1.22616(19) -0.06187(9)
H5 H 0.0979 1.1954 -0.0476
C6 C 0.3229(2) 1.15183(16) -0.05645(8)
C7 C 0.3530(2) 1.02258(16) -0.02688(8)
C8 C 0.5276(2) 1.00387(17) -0.03769(8)
C9 C 0.7436(2) 1.1358(2) -0.07687(9)
H6 H 0.8043 1.0843 -0.0495
H7 H 0.7654 1.2275 -0.0693
C10 C 0.7929(2) 1.1034(2) -0.13866(9)
C11 C 0.7804(3) 0.9776(2) -0.15956(11)
H8 H 0.7393 0.9127 -0.1355
C12 C 0.8277(4) 0.9463(3) -0.21548(13)
H9 H 0.8163 0.8609 -0.2291
C13 C 0.8906(4) 1.0375(4) -0.25104(14)
H10 H 0.9232 1.0151 -0.2888
C14 C 0.9059(4) 1.1637(4) -0.23100(14)
H11 H 0.9497 1.2271 -0.2552
C15 C 0.8563(3) 1.1976(3) -0.17460(12)
H12 H 0.8660 1.2835 -0.1613
C16 C 0.3010(2) 0.91633(17) 0.06012(8)
C17 C 0.2586(2) 0.89701(18) -0.04033(8)
C18 C 0.3312(3) 0.8135(2) -0.08820(10)
C19 C 0.4156(5) 0.8214(4) -0.18759(12)
H13 H 0.3498 0.7483 -0.1980
H14 H 0.5189 0.7889 -0.1814
C20 C 0.4133(5) 0.9240(5) -0.23502(14)
H15 H 0.4500 0.8868 -0.2713
H16 H 0.4782 0.9958 -0.2237
H17 H 0.3104 0.9550 -0.2404
C21 C 0.0906(3) 0.9211(2) -0.05601(12)
H18 H 0.0410 0.8388 -0.0637
H19 H 0.0847 0.9755 -0.0905
H20 H 0.0404 0.9642 -0.0237
loop_
_geom_bond_atom_site_label_1
_geom_bond_atom_site_label_2
_geom_bond_site_symmetry_1
_geom_bond_site_symmetry_2
S1 C16 1_555 1_555
O1 C18 1_555 1_555
O2 C18 1_555 1_555
O3 C7 1_555 1_555
O4 C8 1_555 1_555
N1 H1 1_555 1_555
N2 C1 1_555 1_555
C1 C2 1_555 1_555
C2 H2 1_555 1_555
C3 C2 1_555 1_555
H3 C3 1_555 1_555
C4 C3 1_555 1_555
H4 C4 1_555 1_555
C5 C4 1_555 1_555
H5 C5 1_555 1_555
C6 C1 1_555 1_555
C7 C6 1_555 1_555
C8 N2 1_555 1_555
C9 N2 1_555 1_555
H6 C9 1_555 1_555
H7 C9 1_555 1_555
C10 C9 1_555 1_555
C11 C10 1_555 1_555
H8 C11 1_555 1_555
C12 C11 1_555 1_555
H9 C12 1_555 1_555
C13 C12 1_555 1_555
H10 C13 1_555 1_555
C14 C13 1_555 1_555
H11 C14 1_555 1_555
C15 C10 1_555 1_555
H12 C15 1_555 1_555
C16 O3 1_555 1_555
C17 N1 1_555 1_555
C18 C17 1_555 1_555
C19 O2 1_555 1_555
H13 C19 1_555 1_555
H14 C19 1_555 1_555
C20 C19 1_555 1_555
H15 C20 1_555 1_555
H16 C20 1_555 1_555
H17 C20 1_555 1_555
C21 C17 1_555 1_555
H18 C21 1_555 1_555
H19 C21 1_555 1_555
H20 C21 1_555 1_555
N1 C16 1_555 1_555
C5 C6 1_555 1_555
C7 C8 1_555 1_555
C7 C17 1_555 1_555
C14 C15 1_555 1_555

#END
