
#######################################################################
#
#                 Cambridge Crystallographic Data Centre
#                                CCDC 
#
#######################################################################
#
# If this CIF has been generated from an entry in the Cambridge 
# Structural Database, then it will include bibliographic, chemical, 
# crystal, experimental, refinement or atomic coordinate data resulting 
# from the CCDC's data processing and validation procedures.
#
#######################################################################

data_FAMGUX
_chemical_formula_moiety         'C13 H15 N1 O2'
_chemical_name_systematic        
5-(2-Methoxyphenyl)-6-methyl-5-azaspiro[2.3]hexan-4-one
_symmetry_cell_setting           triclinic
_symmetry_space_group_name_H-M   'P -1'
_symmetry_Int_Tables_number      2
_space_group_name_Hall           '-P 1'
loop_
_symmetry_equiv_pos_site_id
_symmetry_equiv_pos_as_xyz
1 x,y,z
2 -x,-y,-z
_cell_length_a                   7.981(3)
_cell_length_b                   8.782(5)
_cell_length_c                   9.476(5)
_cell_angle_alpha                111.031(7)
_cell_angle_beta                 104.521(6)
_cell_angle_gamma                99.324(6)
_cell_volume                     576.308
_exptl_crystal_colour            colorless
_exptl_crystal_description       block
_cell_formula_units_Z            2
loop_
_atom_site_label
_atom_site_type_symbol
_atom_site_fract_x
_atom_site_fract_y
_atom_site_fract_z
C1 C 0.37827(19) 0.16702(19) 0.08291(17)
C2 C 0.26194(19) 0.0022(2) -0.00657(18)
C3 C 0.1577(2) -0.0448(2) -0.16424(18)
H1 H 0.0807 -0.1542 -0.2243
C4 C 0.1671(2) 0.0696(2) -0.2332(2)
H2 H 0.0963 0.0365 -0.3392
C5 C 0.2799(2) 0.2311(2) -0.1467(2)
H3 H 0.2862 0.3073 -0.1939
C6 C 0.3849(2) 0.2804(2) 0.01168(19)
H4 H 0.4605 0.3905 0.0708
C7 C 0.1291(3) -0.2635(2) -0.0078(2)
H5 H 0.1459 -0.3248 0.0581
H6 H 0.1393 -0.3281 -0.1097
H7 H 0.0117 -0.2451 -0.0240
C8 C 0.6384(2) 0.35515(19) 0.33955(18)
C9 C 0.6614(2) 0.30075(19) 0.47355(18)
C10 C 0.8359(2) 0.3141(2) 0.5896(2)
H8 H 0.8447 0.2179 0.6157
H9 H 0.9465 0.3755 0.5866
C11 C 0.7132(2) 0.4139(2) 0.6480(2)
H10 H 0.7497 0.5356 0.6804
H11 H 0.6479 0.3781 0.7095
C12 C 0.49558(19) 0.14904(19) 0.36583(17)
H12 H 0.5254 0.0404 0.3349
C13 C 0.3343(2) 0.1439(2) 0.4206(2)
H13 H 0.2388 0.0441 0.3451
H14 H 0.2948 0.2432 0.4275
H15 H 0.3664 0.1413 0.5242
N1 N 0.48935(16) 0.21994(15) 0.24291(14)
O1 O 0.26326(15) -0.10385(14) 0.06946(13)
O2 O 0.71731(16) 0.47113(15) 0.31886(14)
loop_
_geom_bond_atom_site_label_1
_geom_bond_atom_site_label_2
_geom_bond_site_symmetry_1
_geom_bond_site_symmetry_2
C1 C2 1_555 1_555
C2 C3 1_555 1_555
C3 H1 1_555 1_555
C4 C3 1_555 1_555
H2 C4 1_555 1_555
C5 C4 1_555 1_555
H3 C5 1_555 1_555
C6 C1 1_555 1_555
H4 C6 1_555 1_555
C7 H5 1_555 1_555
H6 C7 1_555 1_555
H7 C7 1_555 1_555
C8 C9 1_555 1_555
C9 C10 1_555 1_555
C10 H8 1_555 1_555
H9 C10 1_555 1_555
C11 C9 1_555 1_555
H10 C11 1_555 1_555
H11 C11 1_555 1_555
C12 C9 1_555 1_555
H12 C12 1_555 1_555
C13 C12 1_555 1_555
H13 C13 1_555 1_555
H14 C13 1_555 1_555
H15 C13 1_555 1_555
N1 C1 1_555 1_555
O1 C2 1_555 1_555
O2 C8 1_555 1_555
C5 C6 1_555 1_555
C7 O1 1_555 1_555
C8 N1 1_555 1_555
C10 C11 1_555 1_555
C12 N1 1_555 1_555

#END
