
#######################################################################
#
#                 Cambridge Crystallographic Data Centre
#                                CCDC 
#
#######################################################################
#
# If this CIF has been generated from an entry in the Cambridge 
# Structural Database, then it will include bibliographic, chemical, 
# crystal, experimental, refinement or atomic coordinate data resulting 
# from the CCDC's data processing and validation procedures.
#
#######################################################################

data_FAMHAF
_chemical_formula_moiety         'C25 H18 O3'
_chemical_name_systematic        
'methyl 5-phenyl-11H-benzo[b]fluoren-11-yl carbonate'
_symmetry_cell_setting           triclinic
_symmetry_space_group_name_H-M   'P -1'
_symmetry_Int_Tables_number      2
_space_group_name_Hall           '-P 1'
loop_
_symmetry_equiv_pos_site_id
_symmetry_equiv_pos_as_xyz
1 x,y,z
2 -x,-y,-z
_cell_length_a                   10.3805(16)
_cell_length_b                   10.8173(16)
_cell_length_c                   10.8404(17)
_cell_angle_alpha                61.595(3)
_cell_angle_beta                 63.481(3)
_cell_angle_gamma                83.838(3)
_cell_volume                     949.482
_exptl_crystal_colour            colorless
_exptl_crystal_description       prismatic
_cell_formula_units_Z            2
loop_
_atom_site_label
_atom_site_type_symbol
_atom_site_fract_x
_atom_site_fract_y
_atom_site_fract_z
O1 O 0.2672(2) 0.62925(17) 0.1429(2)
O2 O 0.2936(3) 0.7445(2) -0.1026(3)
O3 O 0.2583(3) 0.5078(2) 0.0393(3)
C1 C 0.3207(3) 0.7486(2) 0.3498(3)
C2 C 0.2763(3) 0.7277(3) 0.5002(3)
H1 H 0.3434 0.7392 0.5302
C3 C 0.1304(4) 0.6895(3) 0.6044(4)
H2 H 0.0995 0.6768 0.7049
C4 C 0.0295(4) 0.6697(3) 0.5635(4)
H3 H -0.0679 0.6412 0.6370
C5 C 0.0725(3) 0.6919(3) 0.4140(4)
H4 H 0.0048 0.6801 0.3849
C6 C 0.2175(3) 0.7319(3) 0.3080(3)
C7 C 0.2881(3) 0.7621(3) 0.1401(3)
H5 H 0.2474 0.8379 0.0779
C8 C 0.4451(3) 0.8044(2) 0.0849(3)
C9 C 0.4659(3) 0.7903(2) 0.2120(3)
C10 C 0.6022(3) 0.8130(2) 0.1938(3)
C11 C 0.7225(3) 0.8548(2) 0.0431(3)
C12 C 0.7000(3) 0.8746(3) -0.0851(3)
C13 C 0.5580(3) 0.8474(3) -0.0602(3)
H6 H 0.5420 0.8589 -0.1427
C14 C 0.8206(3) 0.9171(3) -0.2338(3)
H7 H 0.8063 0.9316 -0.3183
C15 C 0.9571(4) 0.9369(3) -0.2547(4)
H8 H 1.0355 0.9660 -0.3535
C16 C 0.9808(3) 0.9140(3) -0.1287(4)
H9 H 1.0752 0.9250 -0.1436
C17 C 0.8677(3) 0.8759(3) 0.0149(4)
H10 H 0.8855 0.8633 0.0967
C18 C 0.6253(3) 0.7901(2) 0.3290(3)
C19 C 0.6282(3) 0.9002(3) 0.3596(3)
H11 H 0.6187 0.9910 0.2930
C20 C 0.6449(3) 0.8759(3) 0.4878(4)
H12 H 0.6464 0.9505 0.5074
C21 C 0.6594(3) 0.7425(3) 0.5872(4)
H13 H 0.6695 0.7261 0.6746
C22 C 0.6588(4) 0.6346(3) 0.5561(4)
H14 H 0.6696 0.5442 0.6224
C23 C 0.6425(3) 0.6574(3) 0.4280(4)
H15 H 0.6431 0.5825 0.4082
C24 C 0.2752(3) 0.6388(3) 0.0136(3)
C25 C 0.2625(6) 0.4957(4) -0.0890(5)
H16 H 0.2063 0.5626 -0.1331
H17 H 0.2228 0.4014 -0.0512
H18 H 0.3613 0.5152 -0.1683
loop_
_geom_bond_atom_site_label_1
_geom_bond_atom_site_label_2
_geom_bond_site_symmetry_1
_geom_bond_site_symmetry_2
O1 C7 1_555 1_555
O2 C24 1_555 1_555
O3 C24 1_555 1_555
C1 C2 1_555 1_555
C2 H1 1_555 1_555
C3 C2 1_555 1_555
H2 C3 1_555 1_555
C4 C3 1_555 1_555
H3 C4 1_555 1_555
C5 C4 1_555 1_555
H4 C5 1_555 1_555
C6 C1 1_555 1_555
C7 C6 1_555 1_555
H5 C7 1_555 1_555
C8 C7 1_555 1_555
C9 C1 1_555 1_555
C10 C9 1_555 1_555
C11 C10 1_555 1_555
C12 C11 1_555 1_555
C13 C8 1_555 1_555
H6 C13 1_555 1_555
C14 C12 1_555 1_555
H7 C14 1_555 1_555
C15 C14 1_555 1_555
H8 C15 1_555 1_555
C16 C15 1_555 1_555
H9 C16 1_555 1_555
C17 C11 1_555 1_555
H10 C17 1_555 1_555
C18 C10 1_555 1_555
C19 C18 1_555 1_555
H11 C19 1_555 1_555
C20 C19 1_555 1_555
H12 C20 1_555 1_555
C21 C20 1_555 1_555
H13 C21 1_555 1_555
C22 C21 1_555 1_555
H14 C22 1_555 1_555
C23 C18 1_555 1_555
H15 C23 1_555 1_555
C24 O1 1_555 1_555
C25 O3 1_555 1_555
H16 C25 1_555 1_555
H17 C25 1_555 1_555
H18 C25 1_555 1_555
C5 C6 1_555 1_555
C8 C9 1_555 1_555
C12 C13 1_555 1_555
C16 C17 1_555 1_555
C22 C23 1_555 1_555

#END
