
#######################################################################
#
#                 Cambridge Crystallographic Data Centre
#                                CCDC 
#
#######################################################################
#
# If this CIF has been generated from an entry in the Cambridge 
# Structural Database, then it will include bibliographic, chemical, 
# crystal, experimental, refinement or atomic coordinate data resulting 
# from the CCDC's data processing and validation procedures.
#
#######################################################################

data_FAMHEJ
_chemical_formula_moiety         'C28 H22 O5'
_chemical_name_systematic        
'ethyl 11-((methoxycarbonyl)oxy)-5-phenyl-11H-benzo[b]fluorene-7-carboxylate'
_symmetry_cell_setting           triclinic
_symmetry_space_group_name_H-M   'P -1'
_symmetry_Int_Tables_number      2
_space_group_name_Hall           '-P 1'
loop_
_symmetry_equiv_pos_site_id
_symmetry_equiv_pos_as_xyz
1 x,y,z
2 -x,-y,-z
_cell_length_a                   7.2310(12)
_cell_length_b                   12.681(2)
_cell_length_c                   13.362(2)
_cell_angle_alpha                66.631(3)
_cell_angle_beta                 76.906(3)
_cell_angle_gamma                82.086(3)
_cell_volume                     1093.93
_exptl_crystal_colour            colorless
_exptl_crystal_description       block
_cell_formula_units_Z            2
loop_
_atom_site_label
_atom_site_type_symbol
_atom_site_fract_x
_atom_site_fract_y
_atom_site_fract_z
O1 O 1.42014(14) 0.22539(10) 0.12567(10)
O2 O 1.15971(14) 0.14991(9) 0.25033(10)
O3 O 0.57044(14) 0.85238(8) 0.17531(8)
O4 O 0.73202(14) 0.96783(9) 0.00963(9)
O5 O 0.71784(14) 0.98945(9) 0.17127(9)
C1 C 1.14610(19) 0.55588(13) 0.06025(13)
H1 H 1.2058 0.6232 0.0070
C2 C 1.24369(19) 0.45113(13) 0.08140(13)
H2 H 1.3693 0.4461 0.0418
C3 C 1.15817(19) 0.35093(13) 0.16171(12)
C4 C 0.97823(19) 0.35781(12) 0.22166(12)
H3 H 0.9248 0.2902 0.2785
C5 C 0.87185(18) 0.46415(12) 0.19982(11)
C6 C 0.67939(18) 0.47034(11) 0.25709(11)
C7 C 0.57693(18) 0.57410(12) 0.22496(11)
C8 C 0.66415(19) 0.67485(12) 0.14187(11)
C9 C 0.84857(19) 0.67154(12) 0.08988(12)
H4 H 0.9042 0.7400 0.0360
C10 C 0.95776(18) 0.56499(12) 0.11666(12)
C11 C 0.52227(19) 0.77740(12) 0.12591(12)
H5 H 0.5099 0.8197 0.0465
C12 C 0.34099(19) 0.72332(12) 0.19868(11)
C13 C 0.16211(19) 0.77710(12) 0.21107(12)
H6 H 0.1407 0.8564 0.1685
C14 C 0.0146(2) 0.71266(13) 0.28697(13)
H7 H -0.1085 0.7484 0.2979
C15 C 0.0462(2) 0.59582(13) 0.34721(13)
H8 H -0.0564 0.5528 0.3984
C16 C 0.22487(19) 0.54097(12) 0.33388(12)
H9 H 0.2447 0.4610 0.3748
C17 C 0.37444(18) 0.60568(12) 0.25924(11)
C18 C 0.59624(17) 0.36716(11) 0.35102(11)
C19 C 0.5356(2) 0.27767(13) 0.33392(13)
H10 H 0.5509 0.2798 0.2606
C20 C 0.4523(2) 0.18466(14) 0.42361(15)
H11 H 0.4104 0.1238 0.4113
C21 C 0.4305(2) 0.18054(15) 0.53022(14)
H12 H 0.3723 0.1174 0.5913
C22 C 0.4937(2) 0.26860(15) 0.54794(13)
H13 H 0.4800 0.2656 0.6214
C23 C 0.5768(2) 0.36098(13) 0.45914(12)
H14 H 0.6210 0.4208 0.4720
C24 C 1.26180(19) 0.23762(13) 0.17589(13)
C25 C 1.2452(2) 0.03474(13) 0.26835(14)
H15 H 1.3742 0.0284 0.2846
H16 H 1.2555 0.0170 0.2015
C26 C 1.1181(3) -0.04680(15) 0.36531(16)
H17 H 0.9892 -0.0364 0.3498
H18 H 1.1152 -0.0312 0.4319
H19 H 1.1669 -0.1261 0.3775
C27 C 0.67897(18) 0.93959(12) 0.10814(12)
C28 C 0.8267(2) 1.09122(13) 0.11208(15)
H20 H 0.7598 1.1477 0.0555
H21 H 0.9523 1.0703 0.0763
H22 H 0.8418 1.1245 0.1644
loop_
_geom_bond_atom_site_label_1
_geom_bond_atom_site_label_2
_geom_bond_site_symmetry_1
_geom_bond_site_symmetry_2
O1 C24 1_555 1_555
O2 C24 1_555 1_555
O3 C11 1_555 1_555
O4 C27 1_555 1_555
O5 C27 1_555 1_555
C1 H1 1_555 1_555
C2 C1 1_555 1_555
H2 C2 1_555 1_555
C3 C2 1_555 1_555
C4 C3 1_555 1_555
H3 C4 1_555 1_555
C5 C4 1_555 1_555
C6 C5 1_555 1_555
C7 C6 1_555 1_555
C8 C7 1_555 1_555
C9 C8 1_555 1_555
H4 C9 1_555 1_555
C10 C1 1_555 1_555
C11 C8 1_555 1_555
H5 C11 1_555 1_555
C12 C11 1_555 1_555
C13 C12 1_555 1_555
H6 C13 1_555 1_555
C14 C13 1_555 1_555
H7 C14 1_555 1_555
C15 C14 1_555 1_555
H8 C15 1_555 1_555
C16 C15 1_555 1_555
H9 C16 1_555 1_555
C17 C7 1_555 1_555
C18 C6 1_555 1_555
C19 C18 1_555 1_555
H10 C19 1_555 1_555
C20 C19 1_555 1_555
H11 C20 1_555 1_555
C21 C20 1_555 1_555
H12 C21 1_555 1_555
C22 C21 1_555 1_555
H13 C22 1_555 1_555
C23 C18 1_555 1_555
H14 C23 1_555 1_555
C24 C3 1_555 1_555
C25 O2 1_555 1_555
H15 C25 1_555 1_555
H16 C25 1_555 1_555
C26 C25 1_555 1_555
H17 C26 1_555 1_555
H18 C26 1_555 1_555
H19 C26 1_555 1_555
C27 O3 1_555 1_555
C28 O5 1_555 1_555
H20 C28 1_555 1_555
H21 C28 1_555 1_555
H22 C28 1_555 1_555
C5 C10 1_555 1_555
C9 C10 1_555 1_555
C12 C17 1_555 1_555
C16 C17 1_555 1_555
C22 C23 1_555 1_555

#END
