
#######################################################################
#
#                 Cambridge Crystallographic Data Centre
#                                CCDC 
#
#######################################################################
#
# If this CIF has been generated from an entry in the Cambridge 
# Structural Database, then it will include bibliographic, chemical, 
# crystal, experimental, refinement or atomic coordinate data resulting 
# from the CCDC's data processing and validation procedures.
#
#######################################################################

data_FAMLUA
_chemical_name_common            
9-Methoxy-4-phenyl-3,5,8-trioxatricyclo(8.3.0.0$2,7!)tridec-11-en-10-ol
_chemical_formula_moiety         'C17 H20 O5'
_chemical_name_systematic        
'Methyl (R)-4,6-O-benzylidene-2,3-C-(propen-1-ylidene-3-yl)-3-deoxy-\a-D-glucopyranoside'
_symmetry_cell_setting           orthorhombic
_symmetry_space_group_name_H-M   'P 21 21 21'
_symmetry_Int_Tables_number      19
_space_group_name_Hall           'P 2ac 2ab'
loop_
_symmetry_equiv_pos_site_id
_symmetry_equiv_pos_as_xyz
1 x,y,z
2 1/2-x,-y,1/2+z
3 -x,1/2+y,1/2-z
4 1/2+x,1/2-y,-z
_cell_length_a                   5.258(3)
_cell_length_b                   8.856(4)
_cell_length_c                   32.992(16)
_cell_angle_alpha                90
_cell_angle_beta                 90
_cell_angle_gamma                90
_cell_volume                     1536.27
_exptl_crystal_colour            colorless
_exptl_crystal_description       needle
_chemical_melting_point          148-150deg.C
_cell_formula_units_Z            4
loop_
_atom_site_label
_atom_site_type_symbol
_atom_site_fract_x
_atom_site_fract_y
_atom_site_fract_z
O1 O -0.1532(15) 0.9066(8) 0.8458(2)
O2 O 0.0985(15) 0.6897(7) 0.8523(2)
O3 O 0.2492(15) 0.9444(8) 0.9353(2)
O4 O -0.0529(17) 0.9682(8) 0.9861(2)
C1 C 0.0826(30) 0.8966(16) 1.0187(3)
H1 H -0.0352(30) 0.8427(16) 1.0356(3)
H2 H 0.1687(30) 0.9719(16) 1.0345(3)
H3 H 0.2049(30) 0.8273(16) 1.0077(3)
O5 O -0.2302(20) 1.2269(12) 0.9639(3)
C2 C 0.1124(23) 1.0488(12) 0.9605(3)
H4 H 0.2342(23) 1.1050(12) 0.9771(3)
C3 C -0.0480(24) 1.1609(13) 0.9362(3)
C4 C 0.1007(27) 1.2901(13) 0.9186(3)
H5 H 0.2443(27) 1.3326(13) 0.9305(3)
C5 C 0.0033(26) 1.3339(14) 0.8851(3)
H6 H 0.0618(26) 1.4181(14) 0.8710(3)
C6 C -0.2138(24) 1.2378(12) 0.8702(3)
H7 H -0.1959(24) 1.2126(12) 0.8417(3)
H8 H -0.3770(24) 1.2861(12) 0.8746(3)
C7 C -0.1781(26) 1.0997(12) 0.8974(3)
H9 H -0.3440(26) 1.0560(12) 0.9042(3)
C8 C -0.0151(25) 0.9834(12) 0.8768(3)
H10 H 0.1295(25) 1.0351(12) 0.8643(3)
C9 C 0.0051(22) 0.8027(12) 0.8251(3)
H11 H 0.1484(22) 0.8565(12) 0.8128(3)
C10 C 0.2470(24) 0.7532(12) 0.8840(3)
H12 H 0.3970(24) 0.8015(12) 0.8729(3)
H13 H 0.3020(24) 0.6742(12) 0.9025(3)
C11 C 0.0876(24) 0.8684(12) 0.9067(3)
H14 H -0.0528(24) 0.8182(12) 0.9209(3)
C12 C -0.1471(22) 0.7268(12) 0.7929(3)
C13 C -0.3422(24) 0.6304(12) 0.8038(3)
H15 H -0.3754(24) 0.6102(12) 0.8309(3)
C14 C -0.4873(27) 0.5646(14) 0.7737(3)
H16 H -0.6204(27) 0.5010(14) 0.7810(3)
C15 C -0.4398(26) 0.5908(14) 0.7331(3)
H17 H -0.5404(26) 0.5456(14) 0.7133(3)
C16 C -0.2385(27) 0.6861(14) 0.7219(4)
H18 H -0.2020(27) 0.7038(14) 0.6947(4)
C17 C -0.0948(24) 0.7535(12) 0.7522(3)
H19 H 0.0385(24) 0.8174(12) 0.7452(3)
H20 H -0.295(53) 1.165(30) 0.9742(68)
loop_
_geom_bond_atom_site_label_1
_geom_bond_atom_site_label_2
_geom_bond_site_symmetry_1
_geom_bond_site_symmetry_2
O1 C8 1_555 1_555
O2 C9 1_555 1_555
O3 C2 1_555 1_555
O4 C1 1_555 1_555
C1 H1 1_555 1_555
H2 C1 1_555 1_555
H3 C1 1_555 1_555
O5 C3 1_555 1_555
C2 O4 1_555 1_555
H4 C2 1_555 1_555
C3 C2 1_555 1_555
C4 C3 1_555 1_555
H5 C4 1_555 1_555
C5 C4 1_555 1_555
H6 C5 1_555 1_555
C6 C5 1_555 1_555
H7 C6 1_555 1_555
H8 C6 1_555 1_555
C7 C3 1_555 1_555
H9 C7 1_555 1_555
C8 C7 1_555 1_555
H10 C8 1_555 1_555
C9 O1 1_555 1_555
H11 C9 1_555 1_555
C10 O2 1_555 1_555
H12 C10 1_555 1_555
H13 C10 1_555 1_555
C11 O3 1_555 1_555
H14 C11 1_555 1_555
C12 C9 1_555 1_555
C13 C12 1_555 1_555
H15 C13 1_555 1_555
C14 C13 1_555 1_555
H16 C14 1_555 1_555
C15 C14 1_555 1_555
H17 C15 1_555 1_555
C16 C15 1_555 1_555
H18 C16 1_555 1_555
C17 C12 1_555 1_555
H19 C17 1_555 1_555
H20 O5 1_555 1_555
C6 C7 1_555 1_555
C8 C11 1_555 1_555
C10 C11 1_555 1_555
C16 C17 1_555 1_555

#END
