
#######################################################################
#
#                 Cambridge Crystallographic Data Centre
#                                CCDC 
#
#######################################################################
#
# If this CIF has been generated from an entry in the Cambridge 
# Structural Database, then it will include bibliographic, chemical, 
# crystal, experimental, refinement or atomic coordinate data resulting 
# from the CCDC's data processing and validation procedures.
#
#######################################################################

data_FAMMAH
_chemical_name_common            
9-Methoxy-4-phenyl-3,5,8-trioxatricyclo(8.4.0.0$2,7!)tetradec-12-en-10-ol
_chemical_formula_moiety         'C18 H22 O5'
_chemical_name_systematic        
'Methyl (R)-4,6-O-benzylidene-2,3-C-(but-2-ene-1,4-diyl)-3-deoxy-\a-D-glucopyranoside'
_symmetry_cell_setting           monoclinic
_symmetry_space_group_name_H-M   'P 21'
_symmetry_Int_Tables_number      4
_space_group_name_Hall           'P 2yb'
loop_
_symmetry_equiv_pos_site_id
_symmetry_equiv_pos_as_xyz
1 x,y,z
2 -x,1/2+y,-z
_cell_length_a                   8.547(1)
_cell_length_b                   6.403(1)
_cell_length_c                   15.206(2)
_cell_angle_alpha                90
_cell_angle_beta                 105.24(1)
_cell_angle_gamma                90
_cell_volume                     802.906
_exptl_crystal_colour            colorless
_exptl_crystal_description       plate
_chemical_melting_point          142-143deg.C
_cell_formula_units_Z            2
loop_
_atom_site_label
_atom_site_type_symbol
_atom_site_fract_x
_atom_site_fract_y
_atom_site_fract_z
O1 O 0.0882(3) 1.2451(5) 0.7347(2)
O2 O -0.1768(3) 1.1852(5) 0.7465(2)
O3 O 0.0990(3) 0.8332(4) 0.9022(2)
O4 O 0.2921(3) 1.0114(5) 1.0138(2)
O5 O 0.5391(3) 0.9052(5) 0.9390(2)
H1 H 0.5831(3) 0.8018(5) 0.9587(2)
C1 C 0.2651(5) 0.8429(8) 0.9512(3)
H2 H 0.2953(5) 0.7121(8) 0.9848(3)
C2 C 0.3746(5) 0.8749(8) 0.8865(3)
C3 C 0.3630(5) 0.6801(7) 0.8266(3)
H3 H 0.4244(5) 0.5680(7) 0.8628(3)
H4 H 0.2506(5) 0.6362(7) 0.8068(3)
C4 C 0.4251(5) 0.7149(9) 0.7450(3)
H5 H 0.4457(5) 0.5983(9) 0.7134(3)
C5 C 0.4528(5) 0.9025(8) 0.7146(3)
H6 H 0.4903(5) 0.9099(8) 0.6626(3)
C6 C 0.4270(5) 1.1008(8) 0.7597(3)
H7 H 0.3725(5) 1.1999(8) 0.7135(3)
H8 H 0.5316(5) 1.1595(8) 0.7908(3)
C7 C 0.3257(5) 1.0713(7) 0.8289(3)
H9 H 0.3436(5) 1.1924(7) 0.8697(3)
C8 C 0.1452(5) 1.0564(7) 0.7825(3)
H10 H 0.1266(5) 0.9404(7) 0.7390(3)
C9 C -0.0782(4) 1.2219(8) 0.6867(3)
H11 H -0.0889(4) 1.1039(8) 0.6445(3)
C10 C -0.1300(4) 0.9987(8) 0.7988(3)
H12 H -0.1448(4) 0.8782(8) 0.7588(3)
H13 H -0.1964(4) 0.9802(8) 0.8411(3)
C11 C 0.0475(5) 1.0195(7) 0.8507(3)
H14 H 0.0604(5) 1.1390(7) 0.8923(3)
C12 C 0.2076(5) 0.9863(9) 1.0829(3)
H15 H 0.2295(5) 1.1037(9) 1.1235(3)
H16 H 0.2434(5) 0.8605(9) 1.1165(3)
H17 H 0.0932(5) 0.9779(9) 1.0549(3)
C13 C -0.1342(5) 1.4180(8) 0.6328(3)
C14 C -0.0249(6) 1.5505(7) 0.6098(3)
H18 H 0.0858(6) 1.5268(7) 0.6319(3)
C15 C -0.0812(6) 1.7213(9) 0.5529(3)
H19 H -0.0074(6) 1.8110(9) 0.5371(3)
C16 C -0.2449(6) 1.7577(9) 0.5202(3)
H20 H -0.2820(6) 1.8694(9) 0.4811(3)
C17 C -0.3526(6) 1.6281(9) 0.5456(3)
H21 H -0.4632(6) 1.6553(9) 0.5252(3)
C18 C -0.2996(6) 1.4566(8) 0.6015(3)
H22 H -0.3740(6) 1.3685(8) 0.6177(3)
loop_
_geom_bond_atom_site_label_1
_geom_bond_atom_site_label_2
_geom_bond_site_symmetry_1
_geom_bond_site_symmetry_2
O1 C8 1_555 1_555
O2 C9 1_555 1_555
O3 C1 1_555 1_555
O4 C1 1_555 1_555
O5 H1 1_555 1_555
C1 H2 1_555 1_555
C2 O5 1_555 1_555
C3 C2 1_555 1_555
H3 C3 1_555 1_555
H4 C3 1_555 1_555
C4 C3 1_555 1_555
H5 C4 1_555 1_555
C5 C4 1_555 1_555
H6 C5 1_555 1_555
C6 C5 1_555 1_555
H7 C6 1_555 1_555
H8 C6 1_555 1_555
C7 C2 1_555 1_555
H9 C7 1_555 1_555
C8 C7 1_555 1_555
H10 C8 1_555 1_555
C9 O1 1_555 1_555
H11 C9 1_555 1_555
C10 O2 1_555 1_555
H12 C10 1_555 1_555
H13 C10 1_555 1_555
C11 O3 1_555 1_555
H14 C11 1_555 1_555
C12 O4 1_555 1_555
H15 C12 1_555 1_555
H16 C12 1_555 1_555
H17 C12 1_555 1_555
C13 C9 1_555 1_555
C14 C13 1_555 1_555
H18 C14 1_555 1_555
C15 C14 1_555 1_555
H19 C15 1_555 1_555
C16 C15 1_555 1_555
H20 C16 1_555 1_555
C17 C16 1_555 1_555
H21 C17 1_555 1_555
C18 C13 1_555 1_555
H22 C18 1_555 1_555
C1 C2 1_555 1_555
C6 C7 1_555 1_555
C8 C11 1_555 1_555
C10 C11 1_555 1_555
C17 C18 1_555 1_555

#END
