
#######################################################################
#
#                 Cambridge Crystallographic Data Centre
#                                CCDC 
#
#######################################################################
#
# If this CIF has been generated from an entry in the Cambridge 
# Structural Database, then it will include bibliographic, chemical, 
# crystal, experimental, refinement or atomic coordinate data resulting 
# from the CCDC's data processing and validation procedures.
#
#######################################################################

data_FAMPOB
_chemical_formula_moiety         'C20 H22 O6 S1'
_chemical_name_systematic        
'(3,4,5-trihydroxy-6-((4-methylphenyl)sulfanyl)tetrahydro-2H-pyran-2-yl)methyl benzoate'
_symmetry_cell_setting           monoclinic
_symmetry_space_group_name_H-M   'P 21'
_symmetry_Int_Tables_number      4
_space_group_name_Hall           'P 2yb'
loop_
_symmetry_equiv_pos_site_id
_symmetry_equiv_pos_as_xyz
1 x,y,z
2 -x,1/2+y,-z
_cell_length_a                   12.9466(2)
_cell_length_b                   4.97250(10)
_cell_length_c                   14.6816(2)
_cell_angle_alpha                90
_cell_angle_beta                 97.4950(10)
_cell_angle_gamma                90
_cell_volume                     937.082
_exptl_crystal_colour            colorless
_exptl_crystal_description       needle
_cell_formula_units_Z            2
loop_
_atom_site_label
_atom_site_type_symbol
_atom_site_fract_x
_atom_site_fract_y
_atom_site_fract_z
S1 S 0.71234(5) 0.96694(11) 0.10984(4)
O1 O 0.84996(12) 0.7974(3) 0.24259(10)
O2 O 1.05444(13) 1.0222(3) 0.25291(10)
H1 H 1.0716 1.0495 0.3079
O3 O 1.10047(13) 0.7582(3) 0.08929(11)
H2 H 1.0930 0.9085 0.0665
O4 O 0.89010(15) 0.7693(4) -0.00009(10)
H3 H 0.8807 0.9057 -0.0315
O5 O 0.86091(13) 0.5063(4) 0.40570(10)
O6 O 0.89276(15) 0.6445(4) 0.55160(11)
C1 C 0.91363(17) 0.8420(4) 0.09426(14)
H4 H 0.9245 1.0367 0.0994
C2 C 1.03498(17) 0.7445(4) 0.23803(14)
H5 H 1.0963 0.6409 0.2637
C3 C 0.93916(17) 0.6428(4) 0.27857(14)
H6 H 0.9271 0.4541 0.2611
C4 C 0.84278(17) 0.5102(4) 0.49264(13)
C5 C 1.01303(17) 0.6952(4) 0.13466(14)
H7 H 0.9997 0.5023 0.1260
C6 C 0.82333(17) 0.7596(4) 0.14650(14)
H8 H 0.8056 0.5705 0.1338
C7 C 0.75582(18) 0.3292(5) 0.50761(16)
C8 C 0.94658(18) 0.6664(5) 0.38163(15)
H9 H 1.0127 0.5970 0.4110
H10 H 0.9397 0.8523 0.3999
C9 C 0.7134(2) 0.3540(6) 0.58917(18)
H11 H 0.7398 0.4805 0.6327
C10 C 0.61444(19) 0.5732(6) 0.20526(18)
H12 H 0.6788 0.5344 0.2387
C11 C 0.7161(2) 0.1399(5) 0.44253(19)
H13 H 0.7436 0.1247 0.3873
C12 C 0.42843(18) 0.4872(6) 0.17476(18)
C13 C 0.60602(18) 0.7746(5) 0.14017(16)
C14 C 0.5076(2) 0.8397(6) 0.0946(2)
H14 H 0.5005 0.9788 0.0519
C15 C 0.4209(2) 0.6985(7) 0.1127(2)
H15 H 0.3559 0.7462 0.0825
C16 C 0.5263(2) 0.4280(6) 0.22088(19)
H16 H 0.5333 0.2880 0.2632
C17 C 0.6354(2) -0.0252(6) 0.4607(2)
H17 H 0.6091 -0.1539 0.4178
C18 C 0.6314(2) 0.1897(7) 0.6055(2)
H18 H 0.6019 0.2084 0.6596
C19 C 0.5936(2) 0.0000(7) 0.5423(3)
H19 H 0.5396 -0.1124 0.5543
C20 C 0.3333(3) 0.3273(8) 0.1891(3)
H20 H 0.2773 0.4478 0.1972
H21 H 0.3486 0.2169 0.2428
H22 H 0.3134 0.2152 0.1365
loop_
_geom_bond_atom_site_label_1
_geom_bond_atom_site_label_2
_geom_bond_site_symmetry_1
_geom_bond_site_symmetry_2
S1 C6 1_555 1_555
O1 C3 1_555 1_555
O2 H1 1_555 1_555
O3 H2 1_555 1_555
O4 H3 1_555 1_555
O5 C4 1_555 1_555
O6 C4 1_555 1_555
C1 O4 1_555 1_555
H4 C1 1_555 1_555
C2 O2 1_555 1_555
H5 C2 1_555 1_555
C3 C2 1_555 1_555
H6 C3 1_555 1_555
C4 C7 1_555 1_555
C5 O3 1_555 1_555
H7 C5 1_555 1_555
C6 O1 1_555 1_555
H8 C6 1_555 1_555
C7 C9 1_555 1_555
C8 O5 1_555 1_555
H9 C8 1_555 1_555
H10 C8 1_555 1_555
C9 H11 1_555 1_555
C10 H12 1_555 1_555
C11 C7 1_555 1_555
H13 C11 1_555 1_555
C12 C15 1_555 1_555
C13 S1 1_555 1_555
C14 C13 1_555 1_555
H14 C14 1_555 1_555
C15 C14 1_555 1_555
H15 C15 1_555 1_555
C16 C10 1_555 1_555
H16 C16 1_555 1_555
C17 C11 1_555 1_555
H17 C17 1_555 1_555
C18 C9 1_555 1_555
H18 C18 1_555 1_555
C19 C17 1_555 1_555
H19 C19 1_555 1_555
C20 C12 1_555 1_555
H20 C20 1_555 1_555
H21 C20 1_555 1_555
H22 C20 1_555 1_555
C1 C5 1_555 1_555
C1 C6 1_555 1_555
C2 C5 1_555 1_555
C3 C8 1_555 1_555
C10 C13 1_555 1_555
C12 C16 1_555 1_555
C18 C19 1_555 1_555

#END
