
#######################################################################
#
#                 Cambridge Crystallographic Data Centre
#                                CCDC 
#
#######################################################################
#
# If this CIF has been generated from an entry in the Cambridge 
# Structural Database, then it will include bibliographic, chemical, 
# crystal, experimental, refinement or atomic coordinate data resulting 
# from the CCDC's data processing and validation procedures.
#
#######################################################################

data_FAMQOC
_chemical_formula_moiety         'C16 H15 N2 O3 S1 1-,C10 H10 N3 1+'
_chemical_name_systematic        
'2-(pyridin-2-ylamino)pyridinium 2-[3-cyano-4-(2-methylpropoxy)phenyl]-4-methyl-1,3-thiazole-5-carboxylate'
_symmetry_cell_setting           triclinic
_symmetry_space_group_name_H-M   'P -1'
_symmetry_Int_Tables_number      2
_space_group_name_Hall           '-P 1'
loop_
_symmetry_equiv_pos_site_id
_symmetry_equiv_pos_as_xyz
1 x,y,z
2 -x,-y,-z
_cell_length_a                   8.1566(7)
_cell_length_b                   10.7944(9)
_cell_length_c                   15.0785(11)
_cell_angle_alpha                95.472(7)
_cell_angle_beta                 93.227(7)
_cell_angle_gamma                111.630(8)
_cell_volume                     1222.47
_exptl_crystal_colour            colorless
_exptl_crystal_description       needle
_cell_formula_units_Z            2
loop_
_atom_site_label
_atom_site_type_symbol
_atom_site_fract_x
_atom_site_fract_y
_atom_site_fract_z
C1 C 0.6752(3) 0.6880(2) 1.10562(15)
C2 C 0.7363(3) 0.63405(19) 1.02524(14)
C3 C 0.8319(4) 0.8348(2) 0.93520(19)
H1 H 0.8004 0.8809 0.9850
H2 H 0.7593 0.8318 0.8820
H3 H 0.9543 0.8816 0.9270
C4 C 0.8030(3) 0.6943(2) 0.95329(15)
C5 C 0.8161(2) 0.4961(2) 0.91360(13)
C6 C 0.8555(2) 0.3929(2) 0.85835(13)
C7 C 0.9395(2) 0.4250(2) 0.78201(14)
H4 H 0.9672 0.5109 0.7657
C8 C 0.8156(3) 0.2642(2) 0.88088(14)
H5 H 0.7589 0.2410 0.9321
C9 C 0.9832(2) 0.3314(2) 0.72912(13)
C10 C 1.0740(3) 0.3692(2) 0.65181(16)
C11 C 0.9404(3) 0.2012(2) 0.75215(14)
C12 C 0.8577(3) 0.1692(2) 0.82928(14)
H6 H 0.8306 0.0838 0.8463
C13 C 0.9391(3) -0.0197(2) 0.71438(14)
H7 H 0.8178 -0.0560 0.7294
H8 H 1.0163 -0.0219 0.7650
C14 C 0.9605(3) -0.1031(2) 0.63291(15)
H9 H 1.0813 -0.0610 0.6162
C15 C 0.8305(3) -0.1103(2) 0.55426(16)
H10 H 0.8459 -0.0210 0.5426
H11 H 0.7115 -0.1561 0.5684
H12 H 0.8522 -0.1583 0.5022
C16 C 0.9353(4) -0.2422(2) 0.65786(19)
H13 H 0.8181 -0.2840 0.6755
H14 H 1.0211 -0.2339 0.7066
H15 H 0.9508 -0.2962 0.6071
N1 N 0.8494(2) 0.61632(18) 0.89021(12)
N2 N 1.1497(3) 0.4058(2) 0.59158(15)
O1 O 0.6776(2) 0.80346(16) 1.10981(11)
O2 O 0.62494(19) 0.61093(14) 1.16566(10)
O3 O 0.98398(19) 0.11655(14) 0.69526(9)
S1 S 0.72925(7) 0.47251(5) 1.01402(4)
C17 C 0.4389(3) 0.6115(2) 0.36003(16)
H16 H 0.4423 0.5265 0.3474
C18 C 0.3629(3) 0.6385(2) 0.43300(16)
H17 H 0.3128 0.5732 0.4700
C19 C 0.3622(3) 0.7664(2) 0.45087(15)
H18 H 0.3115 0.7874 0.5010
C20 C 0.4346(3) 0.8623(2) 0.39633(14)
H19 H 0.4344 0.9482 0.4091
C21 C 0.5089(3) 0.8290(2) 0.32110(14)
C22 C 0.5911(3) 1.0394(2) 0.24856(15)
C23 C 0.6316(4) 1.0830(3) 0.16681(17)
H20 H 0.6483 1.0267 0.1206
C24 C 0.5832(3) 1.2403(2) 0.30178(17)
H21 H 0.5668 1.2952 0.3490
C25 C 0.6211(4) 1.2921(3) 0.2237(2)
H22 H 0.6293 1.3789 0.2170
C26 C 0.6469(5) 1.2104(3) 0.1549(2)
H23 H 0.6748 1.2419 0.1002
H24 H 0.614(3) 0.874(2) 0.2105(14)
N3 N 0.5098(2) 0.70488(18) 0.30499(12)
N4 N 0.5799(2) 0.91010(18) 0.25794(13)
N5 N 0.5675(2) 1.11626(18) 0.31630(12)
H25 H 0.558(3) 0.679(2) 0.2552(13)
loop_
_geom_bond_atom_site_label_1
_geom_bond_atom_site_label_2
_geom_bond_site_symmetry_1
_geom_bond_site_symmetry_2
C1 C2 1_555 1_555
C2 C4 1_555 1_555
C3 H1 1_555 1_555
H2 C3 1_555 1_555
H3 C3 1_555 1_555
C4 C3 1_555 1_555
C5 C6 1_555 1_555
C6 C7 1_555 1_555
C7 H4 1_555 1_555
C8 C6 1_555 1_555
H5 C8 1_555 1_555
C9 C7 1_555 1_555
C10 C9 1_555 1_555
C11 C9 1_555 1_555
C12 C8 1_555 1_555
H6 C12 1_555 1_555
C13 H7 1_555 1_555
H8 C13 1_555 1_555
C14 C13 1_555 1_555
H9 C14 1_555 1_555
C15 C14 1_555 1_555
H10 C15 1_555 1_555
H11 C15 1_555 1_555
H12 C15 1_555 1_555
C16 C14 1_555 1_555
H13 C16 1_555 1_555
H14 C16 1_555 1_555
H15 C16 1_555 1_555
N1 C4 1_555 1_555
N2 C10 1_555 1_555
O1 C1 1_555 1_555
O2 C1 1_555 1_555
O3 C11 1_555 1_555
S1 C2 1_555 1_555
C17 H16 1_555 1_555
C18 C17 1_555 1_555
H17 C18 1_555 1_555
C19 C18 1_555 1_555
H18 C19 1_555 1_555
C20 C19 1_555 1_555
H19 C20 1_555 1_555
C21 C20 1_555 1_555
C22 C23 1_555 1_555
C23 H20 1_555 1_555
C24 H21 1_555 1_555
C25 C24 1_555 1_555
H22 C25 1_555 1_555
C26 C23 1_555 1_555
H23 C26 1_555 1_555
H24 N4 1_555 1_555
N3 C17 1_555 1_555
N4 C21 1_555 1_555
N5 C22 1_555 1_555
H25 N3 1_555 1_555
C5 N1 1_555 1_555
C5 S1 1_555 1_555
C11 C12 1_555 1_555
C13 O3 1_555 1_555
C21 N3 1_555 1_555
C22 N4 1_555 1_555
C24 N5 1_555 1_555
C25 C26 1_555 1_555

#END
