
#######################################################################
#
#                 Cambridge Crystallographic Data Centre
#                                CCDC 
#
#######################################################################
#
# If this CIF has been generated from an entry in the Cambridge 
# Structural Database, then it will include bibliographic, chemical, 
# crystal, experimental, refinement or atomic coordinate data resulting 
# from the CCDC's data processing and validation procedures.
#
#######################################################################

data_FAMRIX
_chemical_formula_moiety         'C16 H14 O7'
_chemical_name_systematic        
7,10-dihydroxy-1,2,3-trimethoxy-6H-benzo[c]chromen-6-one
_symmetry_cell_setting           monoclinic
_symmetry_space_group_name_H-M   'P 21/n'
_symmetry_Int_Tables_number      14
_space_group_name_Hall           '-P 2yn'
loop_
_symmetry_equiv_pos_site_id
_symmetry_equiv_pos_as_xyz
1 x,y,z
2 1/2-x,1/2+y,1/2-z
3 -x,-y,-z
4 1/2+x,1/2-y,1/2+z
_cell_length_a                   9.42076(16)
_cell_length_b                   11.5015(2)
_cell_length_c                   13.4546(3)
_cell_angle_alpha                90
_cell_angle_beta                 104.0042(18)
_cell_angle_gamma                90
_cell_volume                     1414.51
_cell_formula_units_Z            4
loop_
_atom_site_label
_atom_site_type_symbol
_atom_site_fract_x
_atom_site_fract_y
_atom_site_fract_z
O1 O -0.00582(10) 0.18969(8) 0.18911(7)
C1 C -0.16797(12) 0.05963(12) 0.02091(10)
O2 O -0.23451(12) -0.11945(10) -0.07962(8)
H1 H -0.2465 -0.1462 -0.0257
O3 O -0.28049(10) -0.16450(9) 0.09420(8)
C2 C -0.04303(13) 0.07587(11) 0.20329(10)
O4 O 0.03855(13) -0.12546(10) 0.42007(8)
C3 C -0.13247(13) 0.01086(11) 0.12519(10)
C4 C -0.13647(14) 0.18008(13) 0.01200(10)
O5 O -0.17263(12) -0.24316(9) 0.28499(9)
C5 C -0.17722(13) -0.09609(12) 0.15945(10)
C6 C -0.01864(15) -0.07445(13) 0.32787(10)
C7 C -0.21970(13) -0.00178(14) -0.07135(10)
O6 O -0.03239(15) 0.34985(10) 0.10052(10)
O7 O -0.13655(15) 0.35026(11) -0.09376(10)
H2 H -0.0974 0.3773 -0.0374
C8 C -0.05980(15) 0.24597(13) 0.10019(11)
C9 C 0.01635(14) 0.03547(12) 0.30111(10)
H3 H 0.0795 0.0821 0.3485
C10 C -0.12229(15) -0.13890(12) 0.25737(11)
C11 C -0.25070(14) 0.05749(17) -0.16454(11)
H4 H -0.2901 0.0162 -0.2243
C12 C -0.16611(15) 0.23628(15) -0.08375(11)
C13 C -0.42783(16) -0.14737(15) 0.10315(14)
H5 H -0.4920 -0.1995 0.0576
H6 H -0.4570 -0.0686 0.0855
H7 H -0.4330 -0.1625 0.1723
C14 C -0.22559(16) 0.17371(17) -0.17159(11)
H8 H -0.2483 0.2105 -0.2350
C15 C 0.1697(2) -0.07476(17) 0.48112(13)
H9 H 0.2440 -0.0750 0.4433
H10 H 0.2026 -0.1191 0.5429
H11 H 0.1504 0.0038 0.4981
C16 C -0.09155(19) -0.34103(14) 0.26603(16)
H12 H -0.0816 -0.3384 0.1967
H13 H -0.1418 -0.4110 0.2763
H14 H 0.0037 -0.3400 0.3123
loop_
_geom_bond_atom_site_label_1
_geom_bond_atom_site_label_2
_geom_bond_site_symmetry_1
_geom_bond_site_symmetry_2
O1 C2 1_555 1_555
C1 C3 1_555 1_555
O2 H1 1_555 1_555
O3 C5 1_555 1_555
C2 C3 1_555 1_555
O4 C6 1_555 1_555
C3 C5 1_555 1_555
C4 C1 1_555 1_555
O5 C10 1_555 1_555
C5 C10 1_555 1_555
C6 C9 1_555 1_555
C7 C1 1_555 1_555
O6 C8 1_555 1_555
O7 H2 1_555 1_555
C8 O1 1_555 1_555
C9 C2 1_555 1_555
H3 C9 1_555 1_555
C10 C6 1_555 1_555
C11 C7 1_555 1_555
H4 C11 1_555 1_555
C12 C4 1_555 1_555
C13 O3 1_555 1_555
H5 C13 1_555 1_555
H6 C13 1_555 1_555
H7 C13 1_555 1_555
C14 C11 1_555 1_555
H8 C14 1_555 1_555
C15 O4 1_555 1_555
H9 C15 1_555 1_555
H10 C15 1_555 1_555
H11 C15 1_555 1_555
C16 O5 1_555 1_555
H12 C16 1_555 1_555
H13 C16 1_555 1_555
H14 C16 1_555 1_555
O2 C7 1_555 1_555
C4 C8 1_555 1_555
O7 C12 1_555 1_555
C12 C14 1_555 1_555

#END
