
#######################################################################
#
#                 Cambridge Crystallographic Data Centre
#                                CCDC 
#
#######################################################################
#
# If this CIF has been generated from an entry in the Cambridge 
# Structural Database, then it will include bibliographic, chemical, 
# crystal, experimental, refinement or atomic coordinate data resulting 
# from the CCDC's data processing and validation procedures.
#
#######################################################################

data_FAMWAS
_chemical_formula_moiety         'C26 H17 N3'
_chemical_name_systematic        (1-Pyrenyl)bis(2-pyridyl)amine
_symmetry_cell_setting           monoclinic
_symmetry_space_group_name_H-M   'P 21'
_symmetry_Int_Tables_number      4
_space_group_name_Hall           'P 2yb'
loop_
_symmetry_equiv_pos_site_id
_symmetry_equiv_pos_as_xyz
1 x,y,z
2 -x,1/2+y,-z
_cell_length_a                   8.697(2)
_cell_length_b                   7.5019(16)
_cell_length_c                   15.027(3)
_cell_angle_alpha                90
_cell_angle_beta                 106.327(3)
_cell_angle_gamma                90
_cell_volume                     940.884
_exptl_crystal_colour            colorless
_exptl_crystal_description       prism
_cell_formula_units_Z            2
_exptl_crystal_preparation       luminescent
loop_
_atom_site_label
_atom_site_type_symbol
_atom_site_fract_x
_atom_site_fract_y
_atom_site_fract_z
C1 C 0.1114(3) 0.2474(4) 0.28762(18)
C2 C 0.1639(3) 0.0774(4) 0.3152(2)
H1 H 0.1509 0.0316 0.3702
C3 C 0.2356(3) -0.0253(4) 0.2618(2)
H2 H 0.2712 -0.1393 0.2818
C4 C 0.2556(3) 0.0380(4) 0.1789(2)
C5 C 0.3295(3) -0.0644(4) 0.1210(2)
H3 H 0.3701 -0.1769 0.1407
C6 C 0.3414(4) -0.0025(4) 0.0400(2)
H4 H 0.3861 -0.0747 0.0035
C7 C 0.2869(3) 0.1723(4) 0.0076(2)
C8 C 0.2948(4) 0.2403(5) -0.0778(2)
H5 H 0.3379 0.1704 -0.1159
C9 C 0.2401(4) 0.4076(6) -0.1060(2)
H6 H 0.2447 0.4490 -0.1636
C10 C 0.1783(4) 0.5156(5) -0.0503(2)
H7 H 0.1450 0.6305 -0.0698
C11 C 0.1650(3) 0.4547(4) 0.0349(2)
C12 C 0.0986(3) 0.5596(4) 0.0938(2)
H8 H 0.0660 0.6754 0.0759
C13 C 0.0813(3) 0.4979(4) 0.1740(2)
H9 H 0.0369 0.5712 0.2102
C14 C 0.1302(3) 0.3209(3) 0.20489(18)
C15 C 0.2020(3) 0.2122(3) 0.14961(18)
C16 C 0.2196(3) 0.2804(4) 0.06439(19)
C17 C 0.1506(3) 0.4228(4) 0.42898(19)
C18 C 0.3059(3) 0.4627(5) 0.4296(2)
H10 H 0.3402 0.4471 0.3769
C19 C 0.4083(4) 0.5260(6) 0.5105(3)
H11 H 0.5142 0.5520 0.5135
C20 C 0.3539(4) 0.5504(5) 0.5864(2)
H12 H 0.4209 0.5955 0.6414
C21 C 0.2000(4) 0.5074(5) 0.5797(2)
H13 H 0.1634 0.5251 0.6316
C22 C -0.1203(3) 0.3969(4) 0.31699(19)
C23 C -0.2091(2) 0.2958(3) 0.24955(15)
H14 H -0.1635 0.2017 0.2256
C24 C -0.3634(3) 0.3313(4) 0.2171(2)
H15 H -0.4242 0.2607 0.1692
C25 C -0.4402(3) 0.4662(4) 0.2498(2)
H16 H -0.5500 0.4843 0.2262
C26 C -0.3491(4) 0.5722(5) 0.3181(2)
H17 H -0.3969 0.6657 0.3411
N1 N 0.0967(3) 0.4408(4) 0.50310(16)
N2 N -0.1845(4) 0.5421(4) 0.3541(2)
N3 N 0.0430(3) 0.3554(3) 0.34657(15)
loop_
_geom_bond_atom_site_label_1
_geom_bond_atom_site_label_2
_geom_bond_site_symmetry_1
_geom_bond_site_symmetry_2
C1 C2 1_555 1_555
C2 H1 1_555 1_555
C3 C2 1_555 1_555
H2 C3 1_555 1_555
C4 C3 1_555 1_555
C5 C4 1_555 1_555
H3 C5 1_555 1_555
C6 C5 1_555 1_555
H4 C6 1_555 1_555
C7 C6 1_555 1_555
C8 C7 1_555 1_555
H5 C8 1_555 1_555
C9 C8 1_555 1_555
H6 C9 1_555 1_555
C10 C9 1_555 1_555
H7 C10 1_555 1_555
C11 C10 1_555 1_555
C12 C11 1_555 1_555
H8 C12 1_555 1_555
C13 C12 1_555 1_555
H9 C13 1_555 1_555
C14 C1 1_555 1_555
C15 C4 1_555 1_555
C16 C7 1_555 1_555
C17 C18 1_555 1_555
C18 H10 1_555 1_555
C19 C18 1_555 1_555
H11 C19 1_555 1_555
C20 C19 1_555 1_555
H12 C20 1_555 1_555
C21 C20 1_555 1_555
H13 C21 1_555 1_555
C22 C23 1_555 1_555
C23 H14 1_555 1_555
C24 C23 1_555 1_555
H15 C24 1_555 1_555
C25 C24 1_555 1_555
H16 C25 1_555 1_555
C26 C25 1_555 1_555
H17 C26 1_555 1_555
N1 C17 1_555 1_555
N2 C22 1_555 1_555
N3 C1 1_555 1_555
C11 C16 1_555 1_555
C13 C14 1_555 1_555
C14 C15 1_555 1_555
C15 C16 1_555 1_555
C17 N3 1_555 1_555
C21 N1 1_555 1_555
C22 N3 1_555 1_555
C26 N2 1_555 1_555

#END
