
#######################################################################
#
#                 Cambridge Crystallographic Data Centre
#                                CCDC 
#
#######################################################################
#
# If this CIF has been generated from an entry in the Cambridge 
# Structural Database, then it will include bibliographic, chemical, 
# crystal, experimental, refinement or atomic coordinate data resulting 
# from the CCDC's data processing and validation procedures.
#
#######################################################################

data_FAMXEY
_chemical_formula_moiety         'C30 H28 P2 S6'
_chemical_name_systematic        
5,5'-(1,1',3,3',4,4'-Hexamethyl-1,1'-disulfido-1H,1'H-2,2'-biphosphole-5,5'-diyl)bis(2,2'-bithiophene)
_symmetry_cell_setting           monoclinic
_symmetry_space_group_name_H-M   'P 21/c'
_symmetry_Int_Tables_number      14
_space_group_name_Hall           '-P 2ybc'
loop_
_symmetry_equiv_pos_site_id
_symmetry_equiv_pos_as_xyz
1 x,y,z
2 -x,1/2+y,1/2-z
3 -x,-y,-z
4 x,1/2-y,1/2+z
_cell_length_a                   15.6922(10)
_cell_length_b                   12.3669(7)
_cell_length_c                   32.1244(16)
_cell_angle_alpha                90
_cell_angle_beta                 103.339(2)
_cell_angle_gamma                90
_cell_volume                     6066
_exptl_crystal_colour            red
_exptl_crystal_description       block
_cell_formula_units_Z            8
loop_
_atom_site_label
_atom_site_type_symbol
_atom_site_fract_x
_atom_site_fract_y
_atom_site_fract_z
P1 P 0.67788(6) -0.43710(7) 0.43039(3)
P2 P 0.43346(6) -0.49106(7) 0.39524(3)
S1 S 0.92138(5) -0.45394(6) 0.53465(3)
S2 S 1.09981(7) -0.18507(8) 0.56633(4)
S3 S 0.20679(6) -0.48925(7) 0.36657(3)
S4 S -0.05204(7) -0.45856(9) 0.28094(4)
S8 S 0.39884(7) -0.46004(9) 0.44844(3)
S10 S 0.69458(6) -0.38848(8) 0.37482(3)
C1 C 0.7697(2) -0.4918(3) 0.47022(10)
C2 C 0.7461(2) -0.5909(3) 0.48219(10)
C3 C 0.6586(2) -0.6275(3) 0.45885(11)
C4 C 0.6133(2) -0.5577(3) 0.42915(11)
C5 C 0.5294(2) -0.5761(3) 0.39916(11)
C6 C 0.5060(2) -0.6613(3) 0.37188(11)
C7 C 0.4130(2) -0.6636(3) 0.34832(10)
C8 C 0.3646(2) -0.5800(3) 0.35727(10)
C9 C 0.2740(2) -0.5540(3) 0.33785(11)
C10 C 0.2295(2) -0.5694(3) 0.29651(11)
H1 H 0.2541 -0.6028 0.2761
C11 C 0.1430(2) -0.5303(3) 0.28745(11)
H2 H 0.1054 -0.5343 0.2605
C12 C 0.1198(2) -0.4858(3) 0.32220(11)
C13 C 0.0340(2) -0.4467(3) 0.32518(12)
C14 C 0.0077(2) -0.4040(3) 0.36126(12)
H3 H 0.0442 -0.3912 0.3880
C15 C -0.0856(3) -0.3840(3) 0.34929(14)
H4 H -0.1165 -0.3555 0.3682
C16 C -0.1242(3) -0.4099(3) 0.30864(15)
H5 H -0.1838 -0.4021 0.2969
C17 C 0.8470(2) -0.4270(3) 0.48638(10)
C18 C 0.8724(2) -0.3352(3) 0.46838(11)
H6 H 0.8412 -0.3069 0.4425
C19 C 0.9496(2) -0.2879(3) 0.49234(11)
H7 H 0.9744 -0.2258 0.4838
C20 C 0.9847(2) -0.3421(3) 0.52935(11)
C21 C 1.0619(2) -0.3157(3) 0.56205(11)
C22 C 1.1154(2) -0.3853(3) 0.59347(11)
H8 H 1.1049 -0.4581 0.5977
C23 C 1.1875(3) -0.3234(3) 0.61717(13)
H9 H 1.2312 -0.3538 0.6385
C24 C 1.1875(3) -0.2184(3) 0.60650(13)
H10 H 1.2305 -0.1695 0.6195
C25 C 0.6352(2) -0.3346(3) 0.45992(12)
H11 H 0.6691 -0.2697 0.4608
H12 H 0.6385 -0.3596 0.4885
H13 H 0.5753 -0.3199 0.4461
C26 C 0.4425(3) -0.3727(3) 0.36313(13)
H14 H 0.4786 -0.3195 0.3806
H15 H 0.3853 -0.3431 0.3518
H16 H 0.4685 -0.3929 0.3400
C27 C 0.8008(2) -0.6620(3) 0.51601(11)
H17 H 0.7881 -0.7365 0.5087
H18 H 0.7874 -0.6468 0.5431
H19 H 0.8617 -0.6482 0.5178
C28 C 0.6235(2) -0.7341(3) 0.46899(12)
H20 H 0.6324 -0.7416 0.4994
H21 H 0.6536 -0.7913 0.4581
H22 H 0.5621 -0.7380 0.4560
C29 C 0.5677(2) -0.7483(3) 0.36472(11)
H23 H 0.5625 -0.7576 0.3346
H24 H 0.5533 -0.8150 0.3768
H25 H 0.6267 -0.7281 0.3782
C30 C 0.3794(2) -0.7549(3) 0.31793(11)
H26 H 0.4068 -0.8213 0.3294
H27 H 0.3928 -0.7406 0.2908
H28 H 0.3171 -0.7610 0.3142
P3 P 0.23626(6) -0.03581(7) 0.35878(3)
P4 P -0.01029(6) -0.05200(7) 0.35089(3)
S5 S 0.49655(6) 0.02707(7) 0.44265(3)
S6 S 0.75224(7) -0.06905(9) 0.42529(4)
S7 S -0.29007(6) 0.04200(7) 0.29165(3)
S9 S 0.23270(7) -0.06314(10) 0.29870(3)
S11 S -0.00648(6) -0.11386(8) 0.40716(3)
C31 C 0.3277(2) 0.0389(3) 0.39040(11)
C32 C 0.2962(2) 0.1255(3) 0.40841(11)
C33 C 0.1990(2) 0.1358(3) 0.39689(11)
C34 C 0.1564(2) 0.0594(3) 0.36976(11)
C35 C 0.0633(2) 0.0592(3) 0.34943(11)
C36 C 0.0163(2) 0.1408(3) 0.32694(11)
C37 C -0.0789(2) 0.1220(3) 0.31249(11)
C38 C -0.1065(2) 0.0250(3) 0.32398(11)
C39 C -0.1921(2) -0.0248(3) 0.31492(11)
C40 C -0.2105(2) -0.1315(3) 0.32163(11)
H29 H -0.1678 -0.1809 0.3345
C41 C -0.2993(2) -0.1593(3) 0.30745(12)
H30 H -0.3205 -0.2288 0.3097
C42 C -0.3517(2) -0.0751(3) 0.29001(11)
C43 C -0.4446(3) -0.0783(4) 0.27111(12)
C44 C 0.4169(2) 0.0011(3) 0.39590(11)
C45 C 0.4532(3) -0.0572(3) 0.36825(12)
H31 H 0.4214 -0.0804 0.3416
C46 C 0.5428(3) -0.0791(3) 0.38360(12)
H32 H 0.5756 -0.1182 0.3681
C47 C 0.5776(2) -0.0379(3) 0.42334(11)
C48 C 0.6675(2) -0.0367(3) 0.44828(12)
C49 C 0.69891(17) -0.0069(2) 0.49408(9)
H33 H 0.6648 0.0116 0.5131
C50 C 0.7933(3) -0.0127(3) 0.50289(13)
H34 H 0.8282 0.0054 0.5295
C51 C 0.8281(3) -0.0456(3) 0.47046(14)
H35 H 0.8879 -0.0545 0.4729
C52 C 0.2336(3) -0.1580(3) 0.38982(13)
H36 H 0.1863 -0.2033 0.3754
H37 H 0.2251 -0.1391 0.4176
H38 H 0.2880 -0.1961 0.3929
C53 C 0.0079(2) -0.1498(3) 0.31167(11)
H39 H -0.0300 -0.2109 0.3114
H40 H 0.0678 -0.1733 0.3190
H41 H -0.0045 -0.1169 0.2839
C54 C 0.3500(2) 0.2089(3) 0.43655(12)
H42 H 0.3193 0.2767 0.4330
H43 H 0.4052 0.2173 0.4288
H44 H 0.3600 0.1863 0.4659
C55 C 0.1556(2) 0.2251(3) 0.41566(12)
H45 H 0.1771 0.2259 0.4462
H46 H 0.0934 0.2138 0.4089
H47 H 0.1685 0.2930 0.4040
C56 C 0.0554(3) 0.2451(3) 0.31602(13)
H48 H 0.0369 0.2579 0.2858
H49 H 0.1181 0.2404 0.3240
H50 H 0.0360 0.3035 0.3312
C57 C -0.1370(3) 0.2074(3) 0.28619(13)
H51 H -0.1105 0.2773 0.2925
H52 H -0.1933 0.2069 0.2931
H53 H -0.1439 0.1920 0.2563
S12 S -0.49974(15) 0.0136(2) 0.23842(10)
C58 C -0.5000(19) -0.177(2) 0.2741(11)
H54 H -0.4816 -0.2405 0.2888
C59 C -0.5853(8) -0.1523(10) 0.2504(4)
H55 H -0.6316 -0.2000 0.2491
C60 C -0.5968(8) -0.0565(10) 0.2295(6)
H56 H -0.6497 -0.0320 0.2128
C61? C -0.4996(10) 0.0395(13) 0.2568(4)
C62? C -0.5837(17) -0.006(2) 0.2372(11)
C63? C -0.5989(17) -0.113(2) 0.2424(8)
H57? H -0.4810 0.1110 0.2606
H58? H -0.6274 0.0380 0.2210
H59? H -0.6525 -0.1475 0.2330
S13? S -0.5093(13) -0.1698(14) 0.2676(7)
loop_
_geom_bond_atom_site_label_1
_geom_bond_atom_site_label_2
_geom_bond_site_symmetry_1
_geom_bond_site_symmetry_2
P1 S10 1_555 1_555
P2 S8 1_555 1_555
P3 S9 1_555 1_555
P4 S11 1_555 1_555
S1 C17 1_555 1_555
S2 C21 1_555 1_555
S3 C9 1_555 1_555
S4 C13 1_555 1_555
S5 C44 1_555 1_555
S6 C48 1_555 1_555
S7 C39 1_555 1_555
C1 P1 1_555 1_555
C2 C1 1_555 1_555
C3 C2 1_555 1_555
C4 P1 1_555 1_555
C5 P2 1_555 1_555
C6 C5 1_555 1_555
C7 C6 1_555 1_555
C8 P2 1_555 1_555
C9 C8 1_555 1_555
C10 C9 1_555 1_555
H1 C10 1_555 1_555
C11 C10 1_555 1_555
H2 C11 1_555 1_555
C12 S3 1_555 1_555
C13 C12 1_555 1_555
C14 C13 1_555 1_555
H3 C14 1_555 1_555
C15 C14 1_555 1_555
H4 C15 1_555 1_555
C16 S4 1_555 1_555
H5 C16 1_555 1_555
C17 C1 1_555 1_555
C18 C17 1_555 1_555
H6 C18 1_555 1_555
C19 C18 1_555 1_555
H7 C19 1_555 1_555
C20 S1 1_555 1_555
C21 C20 1_555 1_555
C22 C21 1_555 1_555
H8 C22 1_555 1_555
C23 C22 1_555 1_555
H9 C23 1_555 1_555
C24 S2 1_555 1_555
H10 C24 1_555 1_555
C25 P1 1_555 1_555
H11 C25 1_555 1_555
H12 C25 1_555 1_555
H13 C25 1_555 1_555
C26 P2 1_555 1_555
H14 C26 1_555 1_555
H15 C26 1_555 1_555
H16 C26 1_555 1_555
C27 C2 1_555 1_555
H17 C27 1_555 1_555
H18 C27 1_555 1_555
H19 C27 1_555 1_555
C28 C3 1_555 1_555
H20 C28 1_555 1_555
H21 C28 1_555 1_555
H22 C28 1_555 1_555
C29 C6 1_555 1_555
H23 C29 1_555 1_555
H24 C29 1_555 1_555
H25 C29 1_555 1_555
C30 C7 1_555 1_555
H26 C30 1_555 1_555
H27 C30 1_555 1_555
H28 C30 1_555 1_555
C31 P3 1_555 1_555
C32 C31 1_555 1_555
C33 C32 1_555 1_555
C34 P3 1_555 1_555
C35 P4 1_555 1_555
C36 C35 1_555 1_555
C37 C36 1_555 1_555
C38 P4 1_555 1_555
C39 C38 1_555 1_555
C40 C39 1_555 1_555
H29 C40 1_555 1_555
C41 C40 1_555 1_555
H30 C41 1_555 1_555
C42 S7 1_555 1_555
C43 C42 1_555 1_555
C44 C31 1_555 1_555
C45 C44 1_555 1_555
H31 C45 1_555 1_555
C46 C45 1_555 1_555
H32 C46 1_555 1_555
C47 S5 1_555 1_555
C48 C47 1_555 1_555
C49 C48 1_555 1_555
H33 C49 1_555 1_555
C50 C49 1_555 1_555
H34 C50 1_555 1_555
C51 S6 1_555 1_555
H35 C51 1_555 1_555
C52 P3 1_555 1_555
H36 C52 1_555 1_555
H37 C52 1_555 1_555
H38 C52 1_555 1_555
C53 P4 1_555 1_555
H39 C53 1_555 1_555
H40 C53 1_555 1_555
H41 C53 1_555 1_555
C54 C32 1_555 1_555
H42 C54 1_555 1_555
H43 C54 1_555 1_555
H44 C54 1_555 1_555
C55 C33 1_555 1_555
H45 C55 1_555 1_555
H46 C55 1_555 1_555
H47 C55 1_555 1_555
C56 C36 1_555 1_555
H48 C56 1_555 1_555
H49 C56 1_555 1_555
H50 C56 1_555 1_555
C57 C37 1_555 1_555
H51 C57 1_555 1_555
H52 C57 1_555 1_555
H53 C57 1_555 1_555
S12 C43 1_555 1_555
C58 C43 1_555 1_555
H54 C58 1_555 1_555
C59 C58 1_555 1_555
H55 C59 1_555 1_555
C60 S12 1_555 1_555
H56 C60 1_555 1_555
C3 C4 1_555 1_555
C4 C5 1_555 1_555
C7 C8 1_555 1_555
C11 C12 1_555 1_555
C15 C16 1_555 1_555
C19 C20 1_555 1_555
C23 C24 1_555 1_555
C33 C34 1_555 1_555
C34 C35 1_555 1_555
C37 C38 1_555 1_555
C41 C42 1_555 1_555
C46 C47 1_555 1_555
C50 C51 1_555 1_555
C59 C60 1_555 1_555

#END
