
#######################################################################
#
#                 Cambridge Crystallographic Data Centre
#                                CCDC 
#
#######################################################################
#
# If this CIF has been generated from an entry in the Cambridge 
# Structural Database, then it will include bibliographic, chemical, 
# crystal, experimental, refinement or atomic coordinate data resulting 
# from the CCDC's data processing and validation procedures.
#
#######################################################################

data_FAMXIC
_chemical_formula_moiety         'C31 H28 P2 S6'
_chemical_name_systematic        
5,5'-(1,2,10,11-Tetramethyl-4,8-disulfido-6,7-dihydro-5H-bisphospholo[1,2-a:2',1'-c][1,4]diphosphepine-3,9-diyl)bis(2,2'-bithiophene)
_symmetry_cell_setting           orthorhombic
_symmetry_space_group_name_H-M   'P 21 21 21'
_symmetry_Int_Tables_number      19
_space_group_name_Hall           'P 2ac 2ab'
loop_
_symmetry_equiv_pos_site_id
_symmetry_equiv_pos_as_xyz
1 x,y,z
2 1/2-x,-y,1/2+z
3 1/2+x,1/2-y,-z
4 -x,1/2+y,1/2-z
_cell_length_a                   9.675(2)
_cell_length_b                   13.307(3)
_cell_length_c                   23.946(6)
_cell_angle_alpha                90
_cell_angle_beta                 90
_cell_angle_gamma                90
_cell_volume                     3082.93
_exptl_crystal_colour            red
_exptl_crystal_description       prism
_cell_formula_units_Z            4
loop_
_atom_site_label
_atom_site_type_symbol
_atom_site_fract_x
_atom_site_fract_y
_atom_site_fract_z
P1 P 0.55256(10) 0.20383(7) 0.62844(4)
P2 P 0.31013(10) -0.00409(7) 0.64790(4)
S1 S 0.73724(9) 0.14373(7) 0.62673(4)
S2 S 0.13436(11) 0.05141(7) 0.67331(5)
S3 S 0.26922(10) -0.33884(7) 0.62748(4)
S4 S 0.59624(10) 0.53458(7) 0.59295(4)
S5 S 0.64405(14) 0.77517(10) 0.61703(8)
C1 C 0.5331(4) 0.3296(3) 0.59915(15)
C2 C 0.4380(4) 0.3259(3) 0.55748(16)
C3 C 0.3733(4) 0.2262(3) 0.54903(16)
C4 C 0.4246(4) 0.1524(3) 0.58181(14)
C5 C 0.3828(4) 0.0471(3) 0.58467(14)
C6 C 0.3951(4) -0.0251(3) 0.54611(15)
C7 C 0.3439(4) -0.1252(3) 0.56406(15)
C8 C 0.3032(4) -0.1301(3) 0.61829(15)
C9 C 0.2580(4) -0.2149(3) 0.65109(16)
C10 C 0.2037(4) -0.2150(3) 0.70456(15)
H1 H 0.1908 -0.1566 0.7252
C11 C 0.1697(4) -0.3106(3) 0.72488(16)
H2 H 0.1316 -0.3216 0.7600
C12 C 0.1984(4) -0.3867(3) 0.68779(16)
C13 C 0.6179(4) 0.4137(3) 0.61823(14)
C14 C 0.7247(4) 0.4116(3) 0.65593(15)
H3 H 0.7532 0.3532 0.6740
C15 C 0.7874(4) 0.5061(3) 0.66483(16)
H4 H 0.8606 0.5164 0.6893
C16 C 0.7289(4) 0.5808(3) 0.63362(16)
C17 C 0.7649(4) 0.6868(3) 0.62894(16)
C18 C 0.9088(3) 0.7302(2) 0.62827(13)
H5 H 0.9918 0.6964 0.6339
C19 C 0.8889(5) 0.8367(3) 0.61685(19)
H6 H 0.9629 0.8812 0.6148
C20 C 0.7593(6) 0.8669(3) 0.6095(2)
H7 H 0.7354 0.9328 0.6010
C21 C 0.4672(4) 0.2029(3) 0.69624(15)
H8 H 0.5094 0.2545 0.7192
H9 H 0.3713 0.2217 0.6907
C22 C 0.4706(4) 0.1033(3) 0.72905(15)
H10 H 0.3997 0.1074 0.7576
H11 H 0.5588 0.1002 0.7482
C23 C 0.4508(4) 0.0016(3) 0.69817(15)
H12 H 0.4359 -0.0503 0.7259
H13 H 0.5362 -0.0143 0.6789
C24 C 0.3985(5) 0.4124(3) 0.52062(17)
H14 H 0.3383 0.3890 0.4915
H15 H 0.4802 0.4410 0.5043
H16 H 0.3518 0.4625 0.5424
C25 C 0.2583(5) 0.2111(3) 0.50861(19)
H17 H 0.1871 0.2598 0.5155
H18 H 0.2211 0.1447 0.5130
H19 H 0.2925 0.2191 0.4712
C26 C 0.4577(5) -0.0095(3) 0.48947(16)
H20 H 0.5302 -0.0577 0.4837
H21 H 0.4950 0.0572 0.4871
H22 H 0.3879 -0.0181 0.4614
C27 C 0.3434(6) -0.2120(3) 0.52337(17)
H23 H 0.3487 -0.1866 0.4859
H24 H 0.2597 -0.2499 0.5278
H25 H 0.4214 -0.2546 0.5306
S6 S 0.14772(14) -0.56827(9) 0.63755(5)
C28 C 0.1668(3) -0.5511(2) 0.74733(13)
H26 H 0.1818 -0.5268 0.7832
C29 C 0.1739(4) -0.4936(3) 0.69350(16)
C30 C 0.1312(5) -0.6535(3) 0.7310(2)
H27 H 0.1169 -0.7040 0.7572
C31 C 0.1202(5) -0.6709(3) 0.6758(2)
H28 H 0.0995 -0.7335 0.6607
C32? C 0.1739(4) -0.4936(3) 0.69350(16)
C33? C 0.1312(5) -0.6535(3) 0.7310(2)
C34? C 0.1202(5) -0.6709(3) 0.6758(2)
C35? C 0.14772(14) -0.56827(9) 0.63755(5)
H29? H 0.1169 -0.7040 0.7572
H30? H 0.0995 -0.7335 0.6607
H31? H 0.1484 -0.5565 0.5993
S7? S 0.1668(3) -0.5511(2) 0.74733(13)
loop_
_geom_bond_atom_site_label_1
_geom_bond_atom_site_label_2
_geom_bond_site_symmetry_1
_geom_bond_site_symmetry_2
P1 S1 1_555 1_555
P2 S2 1_555 1_555
S3 C9 1_555 1_555
S4 C13 1_555 1_555
S5 C17 1_555 1_555
C1 P1 1_555 1_555
C2 C1 1_555 1_555
C3 C2 1_555 1_555
C4 P1 1_555 1_555
C5 P2 1_555 1_555
C6 C5 1_555 1_555
C7 C6 1_555 1_555
C8 P2 1_555 1_555
C9 C8 1_555 1_555
C10 C9 1_555 1_555
H1 C10 1_555 1_555
C11 C10 1_555 1_555
H2 C11 1_555 1_555
C12 S3 1_555 1_555
C13 C1 1_555 1_555
C14 C13 1_555 1_555
H3 C14 1_555 1_555
C15 C14 1_555 1_555
H4 C15 1_555 1_555
C16 S4 1_555 1_555
C17 C16 1_555 1_555
C18 C17 1_555 1_555
H5 C18 1_555 1_555
C19 C18 1_555 1_555
H6 C19 1_555 1_555
C20 S5 1_555 1_555
H7 C20 1_555 1_555
C21 P1 1_555 1_555
H8 C21 1_555 1_555
H9 C21 1_555 1_555
C22 C21 1_555 1_555
H10 C22 1_555 1_555
H11 C22 1_555 1_555
C23 P2 1_555 1_555
H12 C23 1_555 1_555
H13 C23 1_555 1_555
C24 C2 1_555 1_555
H14 C24 1_555 1_555
H15 C24 1_555 1_555
H16 C24 1_555 1_555
C25 C3 1_555 1_555
H17 C25 1_555 1_555
H18 C25 1_555 1_555
H19 C25 1_555 1_555
C26 C6 1_555 1_555
H20 C26 1_555 1_555
H21 C26 1_555 1_555
H22 C26 1_555 1_555
C27 C7 1_555 1_555
H23 C27 1_555 1_555
H24 C27 1_555 1_555
H25 C27 1_555 1_555
S6 C29 1_555 1_555
C28 H26 1_555 1_555
C29 C12 1_555 1_555
C30 C28 1_555 1_555
H27 C30 1_555 1_555
C31 S6 1_555 1_555
H28 C31 1_555 1_555
C3 C4 1_555 1_555
C4 C5 1_555 1_555
C7 C8 1_555 1_555
C11 C12 1_555 1_555
C15 C16 1_555 1_555
C19 C20 1_555 1_555
C22 C23 1_555 1_555
C28 C29 1_555 1_555
C30 C31 1_555 1_555

#END
