
#######################################################################
#
#                 Cambridge Crystallographic Data Centre
#                                CCDC 
#
#######################################################################
#
# If this CIF has been generated from an entry in the Cambridge 
# Structural Database, then it will include bibliographic, chemical, 
# crystal, experimental, refinement or atomic coordinate data resulting 
# from the CCDC's data processing and validation procedures.
#
#######################################################################

data_FANNIS
_chemical_formula_moiety         'C22 H42 F12 O8 Si8'
_chemical_name_systematic        
meso-1,1,1,3,4,6,66-Octamethyl-2,3,4,5-tetrakis(trifluoracetoxy)-2,5-bis(trimethylsilyl)hexasilane
_symmetry_cell_setting           orthorhombic
_symmetry_space_group_name_H-M   'P b c a'
_symmetry_Int_Tables_number      61
_space_group_name_Hall           '-P 2ac 2ab'
loop_
_symmetry_equiv_pos_site_id
_symmetry_equiv_pos_as_xyz
1 x,y,z
2 1/2-x,-y,1/2+z
3 -x,1/2+y,1/2-z
4 1/2+x,1/2-y,-z
5 -x,-y,-z
6 1/2+x,y,1/2-z
7 x,1/2-y,1/2+z
8 1/2-x,1/2+y,z
_cell_length_a                   13.731(3)
_cell_length_b                   12.942(3)
_cell_length_c                   24.045(5)
_cell_angle_alpha                90
_cell_angle_beta                 90
_cell_angle_gamma                90
_cell_volume                     4272.96
_exptl_crystal_colour            colorless
_exptl_crystal_description       prism
_cell_formula_units_Z            4
_exptl_crystal_recrystallization_method heptane
loop_
_atom_site_label
_atom_site_type_symbol
_atom_site_fract_x
_atom_site_fract_y
_atom_site_fract_z
F1 F -0.0038(5) 0.0623(6) 0.4180(4)
F2 F 0.1372(7) 0.0857(8) 0.3942(3)
F3 F 0.1030(8) 0.0710(8) 0.4838(3)
C1 C 0.0761(4) 0.1136(6) 0.4352(2)
C2 C 0.0459(4) 0.2244(4) 0.4411(3)
C3 C 0.1771(4) 0.4422(4) 0.4817(2)
H1 H 0.1731(4) 0.3717(4) 0.4965(2)
H2 H 0.2039(4) 0.4882(4) 0.5103(2)
H3 H 0.2196(4) 0.4429(4) 0.4490(2)
C4 C -0.2500(5) 0.4728(5) 0.3627(3)
H4 H -0.2258(5) 0.5076(5) 0.3292(3)
H5 H -0.2456(5) 0.5199(5) 0.3945(3)
H6 H -0.3181(5) 0.4525(5) 0.3571(3)
C5 C -0.1815(5) 0.2634(5) 0.3170(3)
H7 H -0.1592(5) 0.2977(5) 0.2830(3)
H8 H -0.2489(5) 0.2402(5) 0.3121(3)
H9 H -0.1397(5) 0.2036(5) 0.3247(3)
C6 C -0.2180(4) 0.2868(5) 0.4396(3)
H10 H -0.1774(4) 0.2257(5) 0.4459(3)
H11 H -0.2859(4) 0.2654(5) 0.4344(3)
H12 H -0.2135(4) 0.3329(5) 0.4718(3)
C7 C 0.0846(6) 0.3131(5) 0.2634(3)
H13 H 0.0212(6) 0.2803(5) 0.2574(3)
H14 H 0.1255(6) 0.2679(5) 0.2863(3)
H15 H 0.1163(6) 0.3251(5) 0.2275(3)
C8 C -0.0143(6) 0.5233(6) 0.2585(3)
H16 H -0.0772(6) 0.4890(6) 0.2532(3)
H17 H 0.0155(6) 0.5372(6) 0.2223(3)
H18 H -0.0242(6) 0.5886(6) 0.2784(3)
C9 C 0.1870(5) 0.5004(7) 0.3110(3)
H19 H 0.2286(5) 0.4542(7) 0.3328(3)
H20 H 0.1782(5) 0.5656(7) 0.3311(3)
H21 H 0.2178(5) 0.5142(7) 0.2750(3)
C10 C 0.0579(5) 0.7699(5) 0.3925(3)
C11 C 0.0182(5) 0.6638(4) 0.4075(2)
O1 O 0.0806(3) 0.6102(3) 0.43770(14)
O2 O 0.0407(3) 0.2704(3) 0.39316(15)
O3 O -0.0583(3) 0.6343(3) 0.3913(2)
O4 O 0.0284(3) 0.2610(3) 0.4856(2)
F7 F -0.0149(4) 0.8358(3) 0.3850(2)
F8 F 0.1042(4) 0.7643(3) 0.3439(2)
F9 F 0.1164(3) 0.8100(3) 0.4289(2)
Si1 Si -0.00837(11) 0.39538(12) 0.38491(6)
Si2 Si 0.05323(10) 0.48712(11) 0.46177(6)
Si3 Si -0.17509(11) 0.35583(12) 0.37648(7)
Si4 Si 0.06705(12) 0.43869(13) 0.29973(6)
F1D F 0.0038(5) 0.9377(6) 0.5820(4)
F2D F -0.1372(7) 0.9143(8) 0.6058(3)
F3D F -0.1030(8) 0.9290(8) 0.5162(3)
C1D C -0.0761(4) 0.8864(6) 0.5648(2)
C2D C -0.0459(4) 0.7756(4) 0.5589(3)
C3D C -0.1771(4) 0.5578(4) 0.5183(2)
H1D H -0.1731(4) 0.6283(4) 0.5035(2)
H2D H -0.2039(4) 0.5118(4) 0.4897(2)
H3D H -0.2196(4) 0.5571(4) 0.5510(2)
C4D C 0.2500(5) 0.5272(5) 0.6373(3)
H4D H 0.2258(5) 0.4924(5) 0.6708(3)
H5D H 0.2456(5) 0.4801(5) 0.6055(3)
H6D H 0.3181(5) 0.5475(5) 0.6429(3)
C5D C 0.1815(5) 0.7366(5) 0.6830(3)
H7D H 0.1592(5) 0.7023(5) 0.7170(3)
H8D H 0.2489(5) 0.7598(5) 0.6879(3)
H9D H 0.1397(5) 0.7964(5) 0.6753(3)
C6D C 0.2180(4) 0.7132(5) 0.5604(3)
H10D H 0.1774(4) 0.7743(5) 0.5541(3)
H11D H 0.2859(4) 0.7346(5) 0.5656(3)
H12D H 0.2135(4) 0.6671(5) 0.5282(3)
C7D C -0.0846(6) 0.6869(5) 0.7366(3)
H13D H -0.0212(6) 0.7197(5) 0.7426(3)
H14D H -0.1255(6) 0.7321(5) 0.7137(3)
H15D H -0.1163(6) 0.6749(5) 0.7725(3)
C8D C 0.0143(6) 0.4767(6) 0.7415(3)
H16D H 0.0772(6) 0.5110(6) 0.7468(3)
H17D H -0.0155(6) 0.4628(6) 0.7777(3)
H18D H 0.0242(6) 0.4114(6) 0.7216(3)
C9D C -0.1870(5) 0.4996(7) 0.6890(3)
H19D H -0.2286(5) 0.5458(7) 0.6672(3)
H20D H -0.1782(5) 0.4344(7) 0.6689(3)
H21D H -0.2178(5) 0.4858(7) 0.7250(3)
C10D C -0.0579(5) 0.2301(5) 0.6075(3)
C11D C -0.0182(5) 0.3362(4) 0.5925(2)
O1D O -0.0806(3) 0.3898(3) 0.56230(14)
O2D O -0.0407(3) 0.7296(3) 0.60684(15)
O3D O 0.0583(3) 0.3657(3) 0.6087(2)
O4D O -0.0284(3) 0.7390(3) 0.5144(2)
F7D F 0.0149(4) 0.1642(3) 0.6150(2)
F8D F -0.1042(4) 0.2357(3) 0.6561(2)
F9D F -0.1164(3) 0.1900(3) 0.5711(2)
Si1D Si 0.00837(11) 0.60462(12) 0.61509(6)
Si2D Si -0.05323(10) 0.51288(11) 0.53823(6)
Si3D Si 0.17509(11) 0.64417(12) 0.62352(7)
Si4D Si -0.06705(12) 0.56131(13) 0.70027(6)
F4? F 0.0395(8) 0.0592(7) 0.3923(4)
F5? F 0.1693(4) 0.1165(7) 0.4181(4)
F6? F 0.0752(9) 0.0610(8) 0.4834(3)
loop_
_geom_bond_atom_site_label_1
_geom_bond_atom_site_label_2
_geom_bond_site_symmetry_1
_geom_bond_site_symmetry_2
F1 C1 1_555 1_555
F2 C1 1_555 1_555
F3 C1 1_555 1_555
C1 C2 1_555 1_555
C2 O2 1_555 1_555
C3 H1 1_555 1_555
H2 C3 1_555 1_555
H3 C3 1_555 1_555
C4 H4 1_555 1_555
H5 C4 1_555 1_555
H6 C4 1_555 1_555
C5 H7 1_555 1_555
H8 C5 1_555 1_555
H9 C5 1_555 1_555
C6 H10 1_555 1_555
H11 C6 1_555 1_555
H12 C6 1_555 1_555
C7 H13 1_555 1_555
H14 C7 1_555 1_555
H15 C7 1_555 1_555
C8 H16 1_555 1_555
H17 C8 1_555 1_555
H18 C8 1_555 1_555
C9 H19 1_555 1_555
H20 C9 1_555 1_555
H21 C9 1_555 1_555
C10 C11 1_555 1_555
C11 O1 1_555 1_555
O1 Si2 1_555 1_555
O2 Si1 1_555 1_555
O3 C11 1_555 1_555
O4 C2 1_555 1_555
F7 C10 1_555 1_555
F8 C10 1_555 1_555
F9 C10 1_555 1_555
Si1 Si2 1_555 1_555
Si2 C3 1_555 1_555
Si3 C4 1_555 1_555
Si4 C7 1_555 1_555
F1D C1D 1_555 1_555
F2D C1D 1_555 1_555
F3D C1D 1_555 1_555
C1D C2D 1_555 1_555
C2D O2D 1_555 1_555
C3D H1D 1_555 1_555
H2D C3D 1_555 1_555
H3D C3D 1_555 1_555
C4D H4D 1_555 1_555
H5D C4D 1_555 1_555
H6D C4D 1_555 1_555
C5D H7D 1_555 1_555
H8D C5D 1_555 1_555
H9D C5D 1_555 1_555
C6D H10D 1_555 1_555
H11D C6D 1_555 1_555
H12D C6D 1_555 1_555
C7D H13D 1_555 1_555
H14D C7D 1_555 1_555
H15D C7D 1_555 1_555
C8D H16D 1_555 1_555
H17D C8D 1_555 1_555
H18D C8D 1_555 1_555
C9D H19D 1_555 1_555
H20D C9D 1_555 1_555
H21D C9D 1_555 1_555
C10D C11D 1_555 1_555
C11D O1D 1_555 1_555
O1D Si2D 1_555 1_555
O2D Si1D 1_555 1_555
O3D C11D 1_555 1_555
O4D C2D 1_555 1_555
F7D C10D 1_555 1_555
F8D C10D 1_555 1_555
F9D C10D 1_555 1_555
Si1D Si2D 1_555 1_555
Si2D Si2 1_555 1_555
Si3D C4D 1_555 1_555
Si4D C7D 1_555 1_555
C5 Si3 1_555 1_555
C6 Si3 1_555 1_555
C8 Si4 1_555 1_555
C9 Si4 1_555 1_555
Si1 Si3 1_555 1_555
Si1 Si4 1_555 1_555
C3D Si2D 1_555 1_555
C5D Si3D 1_555 1_555
C6D Si3D 1_555 1_555
C8D Si4D 1_555 1_555
C9D Si4D 1_555 1_555
Si1D Si3D 1_555 1_555
Si1D Si4D 1_555 1_555

#END
