
#######################################################################
#
#                 Cambridge Crystallographic Data Centre
#                                CCDC 
#
#######################################################################
#
# If this CIF has been generated from an entry in the Cambridge 
# Structural Database, then it will include bibliographic, chemical, 
# crystal, experimental, refinement or atomic coordinate data resulting 
# from the CCDC's data processing and validation procedures.
#
#######################################################################

data_FANPAL
_chemical_formula_moiety         'C6 H8 Br1 N1 O2'
_chemical_name_systematic        4-Bromo-8-oxa-6-azabicyclo(3.2.1)octan-7-one
_symmetry_cell_setting           orthorhombic
_symmetry_space_group_name_H-M   'P 21 21 21'
_symmetry_Int_Tables_number      19
_space_group_name_Hall           'P 2ac 2ab'
loop_
_symmetry_equiv_pos_site_id
_symmetry_equiv_pos_as_xyz
1 x,y,z
2 1/2+x,1/2-y,-z
3 -x,1/2+y,1/2-z
4 1/2-x,-y,1/2+z
_cell_length_a                   10.708(3)
_cell_length_b                   11.053(3)
_cell_length_c                   6.208(2)
_cell_angle_alpha                90
_cell_angle_beta                 90
_cell_angle_gamma                90
_cell_volume                     734.751
_exptl_crystal_colour            colorless
_cell_formula_units_Z            4
loop_
_atom_site_label
_atom_site_type_symbol
_atom_site_fract_x
_atom_site_fract_y
_atom_site_fract_z
Br1 Br 0.4295(1) 0.0207(1) 0.2202(1)
C1 C 0.6165(4) 0.2804(3) -0.2550(7)
C2 C 0.4776(4) 0.2625(4) -0.3068(8)
C3 C 0.4251(4) 0.1582(4) -0.1750(7)
C4 C 0.4685(4) 0.1671(4) 0.0564(7)
C5 C 0.6086(4) 0.1913(3) 0.0676(7)
N1 N 0.6797(3) 0.1125(3) -0.0718(6)
C6 C 0.6843(3) 0.1591(3) -0.2712(7)
O1 O 0.6263(3) 0.3069(2) -0.0272(5)
O2 O 0.7288(3) 0.1158(2) -0.4351(5)
H1 H 0.661(4) 0.345(4) -0.320(8)
H2 H 0.460(5) 0.256(4) -0.456(10)
H3 H 0.428(4) 0.344(4) -0.272(8)
H4 H 0.453(4) 0.086(4) -0.248(8)
H5 H 0.333(5) 0.158(5) -0.174(10)
H6 H 0.428(5) 0.224(5) 0.133(10)
H7 H 0.639(5) 0.189(5) 0.216(10)
H8 H 0.707(5) 0.028(5) -0.034(9)
loop_
_geom_bond_atom_site_label_1
_geom_bond_atom_site_label_2
_geom_bond_site_symmetry_1
_geom_bond_site_symmetry_2
Br1 C4 1_555 1_555
C1 C2 1_555 1_555
C2 C3 1_555 1_555
C3 C4 1_555 1_555
C4 C5 1_555 1_555
C5 N1 1_555 1_555
N1 C6 1_555 1_555
C6 C1 1_555 1_555
O1 C1 1_555 1_555
O2 C6 1_555 1_555
H1 C1 1_555 1_555
H2 C2 1_555 1_555
H3 C2 1_555 1_555
H4 C3 1_555 1_555
H5 C3 1_555 1_555
H6 C4 1_555 1_555
H7 C5 1_555 1_555
H8 N1 1_555 1_555
C5 O1 1_555 1_555

#END
