
#######################################################################
#
#                 Cambridge Crystallographic Data Centre
#                                CCDC 
#
#######################################################################
#
# If this CIF has been generated from an entry in the Cambridge 
# Structural Database, then it will include bibliographic, chemical, 
# crystal, experimental, refinement or atomic coordinate data resulting 
# from the CCDC's data processing and validation procedures.
#
#######################################################################

data_FANQAP
_chemical_formula_moiety         'C27 H19 B1 N7 O1 1+,3(C6 H6),C1 F3 O3 S1 1-'
_chemical_name_systematic        
'(2,11,20,28,29,30-hexaazaheptacyclo[19.6.1.1^3,10^.1^12,19^.0^4,9^.0^13,18^.0^22,27^]triaconta-1(28),2,4,6,8,10(30),11,13,15,17,19(29),20,22,24,26-pentadecaene)-(N,N-dimethylformamide)-boron trifluoromethanesulfonate benzene solvate'
_symmetry_cell_setting           monoclinic
_symmetry_space_group_name_H-M   'P 21'
_symmetry_Int_Tables_number      4
_space_group_name_Hall           'P 2yb'
loop_
_symmetry_equiv_pos_site_id
_symmetry_equiv_pos_as_xyz
1 x,y,z
2 -x,1/2+y,-z
_cell_length_a                   14.656(3)
_cell_length_b                   9.9791(15)
_cell_length_c                   15.223(3)
_cell_angle_alpha                90
_cell_angle_beta                 109.024(2)
_cell_angle_gamma                90
_cell_volume                     2104.82
_exptl_crystal_colour            red
_exptl_crystal_description       plate
_cell_formula_units_Z            2
loop_
_atom_site_label
_atom_site_type_symbol
_atom_site_fract_x
_atom_site_fract_y
_atom_site_fract_z
S1 S 0.87150(4) 0.58399(5) 0.01825(4)
F1 F 0.83709(18) 0.6812(2) 0.16436(13)
F2 F 0.75628(17) 0.5054(2) 0.10803(15)
F3 F 0.71886(16) 0.6945(3) 0.04042(17)
O1 O 0.94823(14) 0.50793(18) 0.08035(14)
O2 O 0.81272(15) 0.5116(2) -0.06021(13)
O3 O 0.89672(15) 0.71496(18) -0.00431(15)
C1 C 0.7927(2) 0.6185(3) 0.0862(2)
O4 O 0.05342(9) 0.15370(13) 0.20728(9)
N1 N 0.09913(12) 0.31195(17) 0.43915(11)
N2 N 0.17254(12) 0.16248(16) 0.36008(11)
N3 N 0.30638(12) 0.06508(18) 0.32744(12)
N4 N 0.21856(12) 0.24513(16) 0.23583(11)
N5 N 0.19228(12) 0.47581(18) 0.19749(11)
N6 N 0.11179(11) 0.37041(16) 0.29161(10)
N7 N -0.06695(12) 0.12997(16) 0.07279(11)
C2 C 0.14648(14) 0.1966(2) 0.43602(13)
C3 C 0.19854(15) 0.1050(2) 0.50882(14)
C4 C 0.20016(16) 0.0876(2) 0.60030(14)
H1 H 0.1603 0.1401 0.6252
C5 C 0.26192(19) -0.0088(3) 0.65376(15)
H2 H 0.2628 -0.0240 0.7156
C6 C 0.3227(2) -0.0840(3) 0.61891(17)
H3 H 0.3635 -0.1497 0.6573
C7 C 0.32458(19) -0.0649(2) 0.52942(17)
H4 H 0.3676 -0.1144 0.5068
C8 C 0.26149(16) 0.0291(2) 0.47354(14)
C9 C 0.24843(14) 0.0754(2) 0.38015(13)
C10 C 0.29393(14) 0.1565(2) 0.25988(13)
C11 C 0.36191(15) 0.2067(2) 0.21577(14)
C12 C 0.45070(17) 0.1596(3) 0.21546(17)
H5 H 0.4754 0.0761 0.2431
C13 C 0.50247(19) 0.2391(3) 0.17329(19)
H6 H 0.5627 0.2078 0.1707
C14 C 0.46826(19) 0.3632(3) 0.13486(19)
H7 H 0.5058 0.4148 0.1068
C15 C 0.38073(18) 0.4130(3) 0.13662(16)
H8 H 0.3584 0.4987 0.1116
C16 C 0.32655(15) 0.3334(2) 0.17619(14)
C17 C 0.23781(15) 0.3597(2) 0.19608(13)
C18 C 0.13472(14) 0.4812(2) 0.25047(12)
C19 C 0.10347(14) 0.5951(2) 0.29289(13)
C20 C 0.10376(16) 0.7325(2) 0.27692(15)
H9 H 0.1240 0.7672 0.2281
C21 C 0.07384(18) 0.8166(2) 0.33403(17)
H10 H 0.0718 0.9104 0.3230
C22 C 0.04655(18) 0.7674(2) 0.40749(17)
H11 H 0.0271 0.8284 0.4459
C23 C 0.04722(16) 0.6310(2) 0.42562(15)
H12 H 0.0295 0.5978 0.4763
C24 C 0.07456(14) 0.5448(2) 0.36726(14)
C25 C 0.08817(14) 0.3999(2) 0.36970(13)
C26 C -0.00422(13) 0.20369(19) 0.13109(12)
H13 H -0.0001 0.2962 0.1181
C27 C -0.07297(18) -0.0140(2) 0.08787(18)
H14 H -0.0596 -0.0314 0.1542
H15 H -0.0254 -0.0611 0.0665
H16 H -0.1379 -0.0461 0.0530
C28 C -0.13030(18) 0.1861(3) -0.01427(15)
H17 H -0.1180 0.2824 -0.0161
H18 H -0.1978 0.1716 -0.0185
H19 H -0.1177 0.1419 -0.0666
B1 B 0.13544(16) 0.2322(2) 0.27025(14)
C29 C 0.3999(2) 0.3291(3) 0.5077(2)
H20 H 0.4182 0.2427 0.5337
C30 C 0.3513(3) 0.4149(4) 0.5470(2)
H21 H 0.3356 0.3882 0.6002
C31 C 0.3252(2) 0.5401(4) 0.5088(3)
H22 H 0.2915 0.5998 0.5360
C32 C 0.3475(2) 0.5788(4) 0.4322(2)
H23 H 0.3292 0.6650 0.4058
C33 C 0.3971(3) 0.4911(4) 0.3933(2)
H24 H 0.4135 0.5174 0.3404
C34 C 0.4223(2) 0.3679(3) 0.43096(19)
H25 H 0.4558 0.3080 0.4038
C35 C 0.1748(2) 0.5149(3) 0.6790(2)
H26 H 0.1477 0.4679 0.6221
C36 C 0.1421(3) 0.6407(4) 0.6879(2)
H27 H 0.0922 0.6797 0.6379
C37 C 0.1804(3) 0.7095(4) 0.7674(3)
H28 H 0.1578 0.7971 0.7736
C38 C 0.2528(3) 0.6523(5) 0.8404(3)
H29 H 0.2802 0.7002 0.8968
C39 C 0.2849(3) 0.5237(5) 0.8304(3)
H30 H 0.3346 0.4838 0.8801
C40 C 0.2456(2) 0.4550(4) 0.7499(2)
H31 H 0.2669 0.3669 0.7431
C41 C 0.4491(2) 0.1968(3) 0.8302(2)
H32 H 0.3907 0.1511 0.8250
C42 C 0.5028(3) 0.2504(4) 0.9121(2)
H33 H 0.4822 0.2419 0.9649
C43 C 0.5869(3) 0.3171(4) 0.9200(3)
H34 H 0.6239 0.3551 0.9779
C44 C 0.6177(2) 0.3290(3) 0.8437(3)
H35 H 0.6762 0.3743 0.8485
C45 C 0.5623(3) 0.2742(3) 0.7610(2)
H36 H 0.5821 0.2822 0.7077
C46 C 0.4797(2) 0.2089(3) 0.7547(2)
H37 H 0.4422 0.1708 0.6970
loop_
_geom_bond_atom_site_label_1
_geom_bond_atom_site_label_2
_geom_bond_site_symmetry_1
_geom_bond_site_symmetry_2
S1 O1 1_555 1_555
F1 C1 1_555 1_555
F2 C1 1_555 1_555
F3 C1 1_555 1_555
O2 S1 1_555 1_555
O3 S1 1_555 1_555
C1 S1 1_555 1_555
O4 C26 1_555 1_555
N1 C2 1_555 1_555
N2 C2 1_555 1_555
N3 C9 1_555 1_555
N4 C10 1_555 1_555
N5 C17 1_555 1_555
N6 C18 1_555 1_555
N7 C26 1_555 1_555
C2 C3 1_555 1_555
C3 C4 1_555 1_555
C4 H1 1_555 1_555
C5 C4 1_555 1_555
H2 C5 1_555 1_555
C6 C5 1_555 1_555
H3 C6 1_555 1_555
C7 C6 1_555 1_555
H4 C7 1_555 1_555
C8 C3 1_555 1_555
C9 N2 1_555 1_555
C10 N3 1_555 1_555
C11 C10 1_555 1_555
C12 C11 1_555 1_555
H5 C12 1_555 1_555
C13 C12 1_555 1_555
H6 C13 1_555 1_555
C14 C13 1_555 1_555
H7 C14 1_555 1_555
C15 C14 1_555 1_555
H8 C15 1_555 1_555
C16 C11 1_555 1_555
C17 N4 1_555 1_555
C18 N5 1_555 1_555
C19 C18 1_555 1_555
C20 C19 1_555 1_555
H9 C20 1_555 1_555
C21 C20 1_555 1_555
H10 C21 1_555 1_555
C22 C21 1_555 1_555
H11 C22 1_555 1_555
C23 C22 1_555 1_555
H12 C23 1_555 1_555
C24 C19 1_555 1_555
C25 N1 1_555 1_555
C26 H13 1_555 1_555
C27 N7 1_555 1_555
H14 C27 1_555 1_555
H15 C27 1_555 1_555
H16 C27 1_555 1_555
C28 N7 1_555 1_555
H17 C28 1_555 1_555
H18 C28 1_555 1_555
H19 C28 1_555 1_555
B1 O4 1_555 1_555
C29 H20 1_555 1_555
C30 C29 1_555 1_555
H21 C30 1_555 1_555
C31 C30 1_555 1_555
H22 C31 1_555 1_555
C32 C31 1_555 1_555
H23 C32 1_555 1_555
C33 C32 1_555 1_555
H24 C33 1_555 1_555
C34 C29 1_555 1_555
H25 C34 1_555 1_555
C35 H26 1_555 1_555
C36 C35 1_555 1_555
H27 C36 1_555 1_555
C37 C36 1_555 1_555
H28 C37 1_555 1_555
C38 C37 1_555 1_555
H29 C38 1_555 1_555
C39 C38 1_555 1_555
H30 C39 1_555 1_555
C40 C35 1_555 1_555
H31 C40 1_555 1_555
C41 H32 1_555 1_555
C42 C41 1_555 1_555
H33 C42 1_555 1_555
C43 C42 1_555 1_555
H34 C43 1_555 1_555
C44 C43 1_555 1_555
H35 C44 1_555 1_555
C45 C44 1_555 1_555
H36 C45 1_555 1_555
C46 C41 1_555 1_555
H37 C46 1_555 1_555
N2 B1 1_555 1_555
N4 B1 1_555 1_555
N6 C25 1_555 1_555
N6 B1 1_555 1_555
C7 C8 1_555 1_555
C8 C9 1_555 1_555
C15 C16 1_555 1_555
C16 C17 1_555 1_555
C23 C24 1_555 1_555
C24 C25 1_555 1_555
C33 C34 1_555 1_555
C39 C40 1_555 1_555
C45 C46 1_555 1_555

#END
