
#######################################################################
#
#                 Cambridge Crystallographic Data Centre
#                                CCDC 
#
#######################################################################
#
# If this CIF has been generated from an entry in the Cambridge 
# Structural Database, then it will include bibliographic, chemical, 
# crystal, experimental, refinement or atomic coordinate data resulting 
# from the CCDC's data processing and validation procedures.
#
#######################################################################

data_FANZUS
_chemical_name_common            
'tetraethylammonium 5,17-dimethoxy-11-sulfonato-2,8,14,20-tetraoxacalix[2]arene[2]triazine'
_chemical_formula_moiety         'C8 H20 N1 1+,C20 H13 N6 O9 S1 1-'
_chemical_name_systematic        
'tetraethylammonium 5,17-dimethoxy-2,8,14,20-tetraoxa-4,6,16,18,26,28-hexaazapentacyclo[19.3.1.1^3,7^.1^9,13^.1^15,19^]octacosa-1(25),3(28),4,6,9(27),10,12,15(26),16,18,21,23-dodecaene-11-sulfonate'
_symmetry_cell_setting           orthorhombic
_symmetry_space_group_name_H-M   'P b c a'
_symmetry_Int_Tables_number      61
_space_group_name_Hall           '-P 2ac 2ab'
loop_
_symmetry_equiv_pos_site_id
_symmetry_equiv_pos_as_xyz
1 x,y,z
2 1/2-x,-y,1/2+z
3 -x,1/2+y,1/2-z
4 1/2+x,1/2-y,-z
5 -x,-y,-z
6 1/2+x,y,1/2-z
7 x,1/2-y,1/2+z
8 1/2-x,1/2+y,z
_cell_length_a                   16.9672(19)
_cell_length_b                   16.6921(19)
_cell_length_c                   21.140(3)
_cell_angle_alpha                90
_cell_angle_beta                 90
_cell_angle_gamma                90
_cell_volume                     5987.23
_exptl_crystal_colour            colorless
_exptl_crystal_description       block
_cell_formula_units_Z            8
loop_
_atom_site_label
_atom_site_type_symbol
_atom_site_fract_x
_atom_site_fract_y
_atom_site_fract_z
S1 S 0.71220(4) 0.48127(3) 0.40856(3)
O1 O 0.86812(9) 0.73728(9) 0.36369(7)
O2 O 0.59003(9) 0.76426(9) 0.40226(7)
O3 O 0.64251(10) 0.84576(11) 0.60627(8)
O4 O 0.92062(10) 0.83337(10) 0.56328(8)
O5 O 0.74773(14) 0.46407(11) 0.46864(10)
O6 O 0.75648(14) 0.45034(11) 0.35538(10)
O7 O 0.62965(11) 0.46209(11) 0.40586(10)
O8 O 0.42923(10) 0.93463(10) 0.50754(8)
O9 O 1.08269(10) 0.88426(12) 0.39847(8)
N1 N 0.51007(11) 0.85062(11) 0.45044(9)
N2 N 0.53686(12) 0.89132(12) 0.55625(9)
N3 N 0.62345(11) 0.80032(11) 0.50422(9)
N4 N 1.00220(11) 0.86107(12) 0.48384(9)
N5 N 0.97572(11) 0.81018(11) 0.38061(9)
N6 N 0.88762(11) 0.78162(11) 0.46570(9)
C1 C 0.57521(13) 0.80683(12) 0.45488(10)
C2 C 0.49374(13) 0.89061(13) 0.50368(11)
C3 C 0.60015(13) 0.84553(13) 0.55224(10)
C4 C 0.37430(15) 0.93153(17) 0.45530(13)
H1 H 0.4004 0.9480 0.4172
H2 H 0.3308 0.9668 0.4636
H3 H 0.3552 0.8778 0.4504
C5 C 0.71572(13) 0.80732(14) 0.61063(11)
C6 C 0.72281(15) 0.75018(15) 0.65776(12)
H4 H 0.6788 0.7331 0.6803
C7 C 0.79637(17) 0.71903(16) 0.67073(13)
H5 H 0.8021 0.6807 0.7024
C8 C 0.86198(15) 0.74436(15) 0.63693(12)
H6 H 0.9116 0.7235 0.6456
C9 C 0.85183(14) 0.80128(14) 0.59017(11)
C10 C 0.77911(14) 0.83392(14) 0.57560(10)
H7 H 0.7733 0.8719 0.5438
C11 C 0.93586(13) 0.82457(13) 0.50126(10)
C12 C 1.01782(13) 0.85130(14) 0.42299(11)
C13 C 0.91156(13) 0.77862(12) 0.40577(10)
C14 C 1.13397(18) 0.9275(2) 0.44127(14)
H8 H 1.1746 0.9540 0.4175
H9 H 1.1575 0.8907 0.4705
H10 H 1.1038 0.9667 0.4641
C15 C 0.79518(13) 0.70473(13) 0.38276(10)
C16 C 0.79085(13) 0.62264(12) 0.39023(10)
H11 H 0.8361 0.5912 0.3884
C17 C 0.71757(13) 0.58792(12) 0.40058(10)
C18 C 0.65064(13) 0.63506(13) 0.40552(10)
H12 H 0.6014 0.6121 0.4123
C19 C 0.65901(13) 0.71715(13) 0.40012(10)
C20 C 0.73022(13) 0.75397(13) 0.38740(10)
H13 H 0.7341 0.8092 0.3822
N7 N 0.47182(12) 0.52464(11) 0.24649(9)
C21 C 0.54544(17) 0.49533(17) 0.27990(12)
H14 H 0.5619 0.5357 0.3102
H15 H 0.5325 0.4472 0.3034
C22 C 0.6140(2) 0.4772(3) 0.23622(18)
H16 H 0.5998 0.4344 0.2081
H17 H 0.6589 0.4617 0.2609
H18 H 0.6265 0.5242 0.2120
C23 C 0.44220(17) 0.46285(15) 0.19934(11)
H19 H 0.3967 0.4846 0.1775
H20 H 0.4829 0.4536 0.1680
C24 C 0.4197(3) 0.38384(17) 0.22855(16)
H21 H 0.4042 0.3471 0.1959
H22 H 0.3765 0.3917 0.2573
H23 H 0.4640 0.3623 0.2511
C25 C 0.41076(16) 0.53958(16) 0.29745(11)
H24 H 0.4310 0.5799 0.3262
H25 H 0.4036 0.4906 0.3214
C26 C 0.33103(18) 0.5670(2) 0.27323(15)
H26 H 0.3114 0.5288 0.2431
H27 H 0.3364 0.6183 0.2532
H28 H 0.2949 0.5711 0.3080
C27 C 0.48798(16) 0.60038(16) 0.20935(12)
H29 H 0.5224 0.5872 0.1742
H30 H 0.4386 0.6194 0.1917
C28 C 0.5251(2) 0.66759(18) 0.24649(16)
H31 H 0.5276 0.7148 0.2206
H32 H 0.5773 0.6524 0.2591
H33 H 0.4939 0.6784 0.2834
loop_
_geom_bond_atom_site_label_1
_geom_bond_atom_site_label_2
_geom_bond_site_symmetry_1
_geom_bond_site_symmetry_2
S1 O5 1_555 1_555
O1 C13 1_555 1_555
O2 C1 1_555 1_555
O3 C3 1_555 1_555
O4 C9 1_555 1_555
O6 S1 1_555 1_555
O7 S1 1_555 1_555
O8 C2 1_555 1_555
O9 C12 1_555 1_555
N1 C1 1_555 1_555
N2 C2 1_555 1_555
N3 C1 1_555 1_555
N4 C11 1_555 1_555
N5 C12 1_555 1_555
N6 C11 1_555 1_555
C2 N1 1_555 1_555
C3 N2 1_555 1_555
C4 O8 1_555 1_555
H1 C4 1_555 1_555
H2 C4 1_555 1_555
H3 C4 1_555 1_555
C5 O3 1_555 1_555
C6 C5 1_555 1_555
H4 C6 1_555 1_555
C7 C6 1_555 1_555
H5 C7 1_555 1_555
C8 C7 1_555 1_555
H6 C8 1_555 1_555
C9 C8 1_555 1_555
C10 C5 1_555 1_555
H7 C10 1_555 1_555
C11 O4 1_555 1_555
C12 N4 1_555 1_555
C13 N5 1_555 1_555
C14 O9 1_555 1_555
H8 C14 1_555 1_555
H9 C14 1_555 1_555
H10 C14 1_555 1_555
C15 O1 1_555 1_555
C16 C15 1_555 1_555
H11 C16 1_555 1_555
C17 S1 1_555 1_555
C18 C17 1_555 1_555
H12 C18 1_555 1_555
C19 O2 1_555 1_555
C20 C15 1_555 1_555
H13 C20 1_555 1_555
N7 C21 1_555 1_555
C21 H14 1_555 1_555
H15 C21 1_555 1_555
C22 C21 1_555 1_555
H16 C22 1_555 1_555
H17 C22 1_555 1_555
H18 C22 1_555 1_555
C23 N7 1_555 1_555
H19 C23 1_555 1_555
H20 C23 1_555 1_555
C24 C23 1_555 1_555
H21 C24 1_555 1_555
H22 C24 1_555 1_555
H23 C24 1_555 1_555
C25 N7 1_555 1_555
H24 C25 1_555 1_555
H25 C25 1_555 1_555
C26 C25 1_555 1_555
H26 C26 1_555 1_555
H27 C26 1_555 1_555
H28 C26 1_555 1_555
C27 N7 1_555 1_555
H29 C27 1_555 1_555
H30 C27 1_555 1_555
C28 C27 1_555 1_555
H31 C28 1_555 1_555
H32 C28 1_555 1_555
H33 C28 1_555 1_555
N3 C3 1_555 1_555
N6 C13 1_555 1_555
C9 C10 1_555 1_555
C16 C17 1_555 1_555
C18 C19 1_555 1_555
C19 C20 1_555 1_555

#END
