
#######################################################################
#
#                 Cambridge Crystallographic Data Centre
#                                CCDC 
#
#######################################################################
#
# If this CIF has been generated from an entry in the Cambridge 
# Structural Database, then it will include bibliographic, chemical, 
# crystal, experimental, refinement or atomic coordinate data resulting 
# from the CCDC's data processing and validation procedures.
#
#######################################################################

data_FAPDUV
_chemical_formula_moiety         'C14 H10 N2 O5 S1'
_chemical_name_systematic        
'Dimethyl 5-oxo-5H-thiazolo(2,3-b)quinazoline-2,3-dicarboxylate'
_symmetry_cell_setting           triclinic
_symmetry_space_group_name_H-M   'P -1'
_symmetry_Int_Tables_number      2
_space_group_name_Hall           '-P 1'
loop_
_symmetry_equiv_pos_site_id
_symmetry_equiv_pos_as_xyz
1 x,y,z
2 -x,-y,-z
_cell_length_a                   10.700(9)
_cell_length_b                   8.483(7)
_cell_length_c                   8.810(6)
_cell_angle_alpha                107.57(8)
_cell_angle_beta                 114.12(9)
_cell_angle_gamma                75.58(8)
_cell_volume                     688.506
_chemical_melting_point          '199-200 deg.C'
_cell_formula_units_Z            2
loop_
_atom_site_label
_atom_site_type_symbol
_atom_site_fract_x
_atom_site_fract_y
_atom_site_fract_z
S1 S 0.4974(2) 0.3718(2) 0.2915(2)
N1 N 0.6523(6) 0.3794(7) 0.1228(7)
C1 C 0.7969(7) 0.3751(9) -0.0278(9)
C2 C 0.8282(8) 0.3190(10) -0.1760(10)
C3 C 0.7530(7) 0.2170(10) -0.3185(10)
C4 C 0.6379(7) 0.1641(8) -0.3247(9)
C5 C 0.4853(6) 0.1652(8) -0.1788(9)
C6 C 0.3450(6) 0.2072(8) 0.0022(8)
C7 C 0.3569(7) 0.2686(6) 0.1683(9)
C8 C 0.5466(6) 0.3289(8) 0.1142(9)
N2 N 0.4549(5) 0.2340(6) -0.0239(6)
C9 C 0.6795(6) 0.3249(7) -0.0276(9)
C10 C 0.6005(6) 0.2201(8) -0.1751(9)
C11 C 0.2435(8) 0.2732(9) 0.2294(10)
O1 O 0.1375(6) 0.2222(7) 0.1417(6)
O2 O 0.2855(5) 0.3390(7) 0.3930(8)
C12 C 0.1883(8) 0.3549(12) 0.4766(10)
C13 C 0.2206(7) 0.1391(9) -0.1456(9)
O3 O 0.1377(5) 0.2227(6) -0.2371(5)
O4 O 0.2197(4) -0.0159(5) -0.1456(5)
C14 C 0.0923(7) -0.0855(10) -0.2678(10)
O5 O 0.4098(5) 0.0718(6) -0.2945(7)
loop_
_geom_bond_atom_site_label_1
_geom_bond_atom_site_label_2
_geom_bond_site_symmetry_1
_geom_bond_site_symmetry_2
S1 C7 1_555 1_555
N1 C8 1_555 1_555
C1 C2 1_555 1_555
C2 C3 1_555 1_555
C3 C4 1_555 1_555
C4 C10 1_555 1_555
C5 N2 1_555 1_555
C6 C7 1_555 1_555
C7 C11 1_555 1_555
C8 S1 1_555 1_555
N2 C6 1_555 1_555
C9 N1 1_555 1_555
C10 C5 1_555 1_555
C11 O1 1_555 1_555
O2 C11 1_555 1_555
C12 O2 1_555 1_555
C13 C6 1_555 1_555
O3 C13 1_555 1_555
O4 C13 1_555 1_555
C14 O4 1_555 1_555
O5 C5 1_555 1_555
C1 C9 1_555 1_555
C8 N2 1_555 1_555
C9 C10 1_555 1_555

#END
