
#######################################################################
#
#                 Cambridge Crystallographic Data Centre
#                                CCDC 
#
#######################################################################
#
# If this CIF has been generated from an entry in the Cambridge 
# Structural Database, then it will include bibliographic, chemical, 
# crystal, experimental, refinement or atomic coordinate data resulting 
# from the CCDC's data processing and validation procedures.
#
#######################################################################

data_FAPDAD
_chemical_formula_moiety         'C26 H39 N5 O1'
_chemical_name_systematic        
2-(2H-Benzotriazol-2-yl)-6-(((2-(dimethylamino)ethyl)(methyl)amino)methyl)-4-(2,4,4-trimethylpentan-2-yl)phenol
_symmetry_cell_setting           triclinic
_symmetry_space_group_name_H-M   'P -1'
_symmetry_Int_Tables_number      2
_space_group_name_Hall           '-P 1'
loop_
_symmetry_equiv_pos_site_id
_symmetry_equiv_pos_as_xyz
1 x,y,z
2 -x,-y,-z
_cell_length_a                   7.7158(2)
_cell_length_b                   13.8315(3)
_cell_length_c                   13.9203(3)
_cell_angle_alpha                60.8960(10)
_cell_angle_beta                 75.1230(10)
_cell_angle_gamma                82.3810(10)
_cell_volume                     1254.45
_exptl_crystal_colour            yellow
_exptl_crystal_description       block
_cell_formula_units_Z            2
loop_
_atom_site_label
_atom_site_type_symbol
_atom_site_fract_x
_atom_site_fract_y
_atom_site_fract_z
O1 O 0.75109(16) 0.93352(10) 0.12692(10)
H1 H 0.706(4) 1.003(2) 0.111(2)
N1 N 0.91597(18) 0.71515(11) 0.10904(11)
N2 N 0.84110(17) 0.71323(10) 0.20740(11)
N3 N 0.70931(17) 0.64181(10) 0.27588(11)
N4 N 0.69469(19) 1.08976(11) 0.23468(12)
N5 N 0.57281(19) 1.13375(12) 0.04446(12)
C1 C 0.8597(2) 0.89189(12) 0.20007(13)
C2 C 0.9081(2) 0.78033(12) 0.24252(13)
C3 C 1.0214(2) 0.72990(12) 0.31730(12)
H2 H 1.0502 0.6535 0.3437
C4 C 1.0930(2) 0.78986(12) 0.35393(12)
C5 C 1.0445(2) 0.90194(12) 0.31127(13)
H3 H 1.0910 0.9450 0.3350
C6 C 0.9323(2) 0.95353(12) 0.23625(13)
C7 C 0.8225(2) 0.63680(12) 0.11262(13)
C8 C 0.8379(2) 0.59972(14) 0.03242(14)
H4 H 0.9250 0.6292 -0.0367
C9 C 0.7216(2) 0.51940(14) 0.05886(15)
H5 H 0.7284 0.4926 0.0068
C10 C 0.5910(2) 0.47505(14) 0.16192(15)
H6 H 0.5118 0.4202 0.1761
C11 C 0.5753(2) 0.50862(13) 0.24161(15)
H7 H 0.4888 0.4776 0.3109
C12 C 0.6943(2) 0.59171(12) 0.21554(13)
C13 C 1.2175(2) 0.73794(13) 0.43676(13)
C14 C 1.3873(2) 0.80957(15) 0.38691(15)
H8 H 1.4455 0.8153 0.3130
H9 H 1.4705 0.7752 0.4376
H10 H 1.3537 0.8837 0.3786
C15 C 1.2839(2) 0.62257(14) 0.45249(15)
H11 H 1.3472 0.6280 0.3794
H12 H 1.1812 0.5732 0.4840
H13 H 1.3656 0.5929 0.5042
C16 C 1.1295(2) 0.73637(13) 0.55133(13)
H14 H 1.2162 0.6987 0.6003
H15 H 1.1227 0.8144 0.5361
C17 C 0.9442(2) 0.68554(13) 0.62407(13)
C18 C 0.9232(2) 0.56736(14) 0.64570(16)
H16 H 0.8160 0.5340 0.7052
H17 H 1.0291 0.5231 0.6694
H18 H 0.9110 0.5695 0.5763
C19 C 0.7887(2) 0.75690(15) 0.57379(15)
H19 H 0.6747 0.7257 0.6265
H20 H 0.7922 0.7582 0.5023
H21 H 0.7998 0.8324 0.5604
C20 C 0.9297(3) 0.68077(17) 0.73815(15)
H22 H 0.8126 0.6511 0.7873
H23 H 0.9422 0.7554 0.7268
H24 H 1.0249 0.6328 0.7734
C21 C 0.8854(2) 1.07444(12) 0.19322(14)
H25 H 0.9582 1.1080 0.2184
H26 H 0.9143 1.1126 0.1097
C22 C 0.6540(3) 1.05910(16) 0.35389(16)
H27 H 0.5247 1.0663 0.3799
H28 H 0.7182 1.1080 0.3652
H29 H 0.6918 0.9823 0.3969
C23 C 0.6328(2) 1.20205(14) 0.16790(16)
H30 H 0.7099 1.2556 0.1651
H31 H 0.5088 1.2118 0.2049
C24 C 0.6370(2) 1.22645(13) 0.04841(16)
H32 H 0.5615 1.2925 0.0140
H33 H 0.7614 1.2438 0.0031
C25 C 0.5953(3) 1.15972(18) -0.07356(16)
H34 H 0.7233 1.1656 -0.1095
H35 H 0.5349 1.2301 -0.1135
H36 H 0.5425 1.1008 -0.0765
C26 C 0.3840(2) 1.11035(16) 0.10396(16)
H37 H 0.3737 1.0824 0.1848
H38 H 0.3397 1.0546 0.0922
H39 H 0.3127 1.1784 0.0746
loop_
_geom_bond_atom_site_label_1
_geom_bond_atom_site_label_2
_geom_bond_site_symmetry_1
_geom_bond_site_symmetry_2
O1 H1 1_555 1_555
N1 N2 1_555 1_555
N2 N3 1_555 1_555
N3 C12 1_555 1_555
N4 C21 1_555 1_555
N5 C24 1_555 1_555
C1 O1 1_555 1_555
C2 N2 1_555 1_555
C3 C2 1_555 1_555
H2 C3 1_555 1_555
C4 C3 1_555 1_555
C5 C4 1_555 1_555
H3 C5 1_555 1_555
C6 C1 1_555 1_555
C7 N1 1_555 1_555
C8 C7 1_555 1_555
H4 C8 1_555 1_555
C9 C8 1_555 1_555
H5 C9 1_555 1_555
C10 C9 1_555 1_555
H6 C10 1_555 1_555
C11 C10 1_555 1_555
H7 C11 1_555 1_555
C12 C7 1_555 1_555
C13 C4 1_555 1_555
C14 C13 1_555 1_555
H8 C14 1_555 1_555
H9 C14 1_555 1_555
H10 C14 1_555 1_555
C15 C13 1_555 1_555
H11 C15 1_555 1_555
H12 C15 1_555 1_555
H13 C15 1_555 1_555
C16 C13 1_555 1_555
H14 C16 1_555 1_555
H15 C16 1_555 1_555
C17 C16 1_555 1_555
C18 C17 1_555 1_555
H16 C18 1_555 1_555
H17 C18 1_555 1_555
H18 C18 1_555 1_555
C19 C17 1_555 1_555
H19 C19 1_555 1_555
H20 C19 1_555 1_555
H21 C19 1_555 1_555
C20 C17 1_555 1_555
H22 C20 1_555 1_555
H23 C20 1_555 1_555
H24 C20 1_555 1_555
C21 C6 1_555 1_555
H25 C21 1_555 1_555
H26 C21 1_555 1_555
C22 N4 1_555 1_555
H27 C22 1_555 1_555
H28 C22 1_555 1_555
H29 C22 1_555 1_555
C23 N4 1_555 1_555
H30 C23 1_555 1_555
H31 C23 1_555 1_555
C24 C23 1_555 1_555
H32 C24 1_555 1_555
H33 C24 1_555 1_555
C25 N5 1_555 1_555
H34 C25 1_555 1_555
H35 C25 1_555 1_555
H36 C25 1_555 1_555
C26 N5 1_555 1_555
H37 C26 1_555 1_555
H38 C26 1_555 1_555
H39 C26 1_555 1_555
C1 C2 1_555 1_555
C5 C6 1_555 1_555
C11 C12 1_555 1_555

#END
