
#######################################################################
#
#                 Cambridge Crystallographic Data Centre
#                                CCDC 
#
#######################################################################
#
# If this CIF has been generated from an entry in the Cambridge 
# Structural Database, then it will include bibliographic, chemical, 
# crystal, experimental, refinement or atomic coordinate data resulting 
# from the CCDC's data processing and validation procedures.
#
#######################################################################

data_FAPDUW
_chemical_formula_moiety         'C32 H24 N4 Si1'
_chemical_name_systematic        
bis(4-(N-7-Azaindolyl)phenylethynyl)dimethylsilane
_symmetry_cell_setting           monoclinic
_symmetry_space_group_name_H-M   'C c'
_symmetry_Int_Tables_number      9
_space_group_name_Hall           'C -2yc'
loop_
_symmetry_equiv_pos_site_id
_symmetry_equiv_pos_as_xyz
1 x,y,z
2 x,-y,1/2+z
3 1/2+x,1/2+y,z
4 1/2+x,1/2-y,1/2+z
_cell_length_a                   5.428(2)
_cell_length_b                   22.986(10)
_cell_length_c                   21.607(9)
_cell_angle_alpha                90
_cell_angle_beta                 95.415(7)
_cell_angle_gamma                90
_cell_volume                     2683.83
_exptl_crystal_colour            colorless
_chemical_melting_point          '87-89 deg.C'
_cell_formula_units_Z            4
_exptl_crystal_recrystallization_method dichloromethane/hexane
_exptl_crystal_preparation       luminescent
loop_
_atom_site_label
_atom_site_type_symbol
_atom_site_fract_x
_atom_site_fract_y
_atom_site_fract_z
Si1 Si 0.11742(18) 0.38665(5) 0.09156(6)
N1 N -0.6205(8) 0.32922(16) 0.42711(18)
N2 N -0.8573(9) 0.41698(19) 0.4401(2)
N3 N -0.9692(8) 0.41303(18) -0.2300(2)
N4 N -1.1161(9) 0.3142(2) -0.2439(2)
C1 C -0.0475(8) 0.3783(2) 0.1612(2)
C2 C -0.1484(9) 0.3719(2) 0.2084(2)
C3 C -0.2668(8) 0.3623(2) 0.2644(2)
C4 C -0.340(3) 0.4101(5) 0.2988(6)
C5 C -0.460(3) 0.3991(5) 0.3535(6)
C6 C -0.4989(8) 0.34121(19) 0.3729(2)
C7 C -0.2818(18) 0.3112(5) 0.3657(5)
C8 C -0.1606(16) 0.3203(5) 0.3124(5)
C13 C -0.6014(11) 0.2759(2) 0.4594(2)
H1 H -0.5012 0.2450 0.4498
C14 C -0.7485(12) 0.2760(2) 0.5061(3)
H2 H -0.7657 0.2456 0.5337
C15 C -0.8734(9) 0.3304(2) 0.5062(2)
C16 C -1.0458(11) 0.3570(3) 0.5397(3)
H3 H -1.1087 0.3379 0.5727
C17 C -1.1195(13) 0.4102(3) 0.5240(3)
H4 H -1.2350 0.4285 0.5465
C18 C -1.0268(13) 0.4401(3) 0.4737(3)
H5 H -1.0864 0.4772 0.4637
C19 C -0.7876(8) 0.3635(2) 0.4560(2)
C20 C -0.1100(8) 0.3911(2) 0.0238(2)
C21 C -0.2560(9) 0.3941(2) -0.0223(2)
C22 C -0.4366(9) 0.3986(2) -0.0757(2)
C23 C -0.5815(10) 0.4480(2) -0.0855(2)
H6 H -0.5603 0.4786 -0.0573
C24 C -0.7569(11) 0.4530(2) -0.1360(3)
H7 H -0.8506 0.4867 -0.1419
C25 C -0.7923(8) 0.40701(19) -0.1781(2)
C26 C -0.6508(11) 0.3574(2) -0.1685(3)
H8 H -0.6728 0.3266 -0.1964
C27 C -0.4761(12) 0.3531(2) -0.1176(3)
H9 H -0.3839 0.3192 -0.1114
C28 C -1.0303(15) 0.4648(3) -0.2594(3)
H10 H -0.9522 0.5002 -0.2501
C29 C -1.2196(16) 0.4569(4) -0.3035(4)
H11 H -1.2938 0.4857 -0.3291
C30 C -1.2863(11) 0.3979(3) -0.3043(3)
C31 C -1.4647(13) 0.3604(5) -0.3359(3)
H12 H -1.5839 0.3753 -0.3654
C32 C -1.4600(13) 0.3031(5) -0.3229(3)
H13 H -1.5748 0.2783 -0.3438
C33 C -1.2831(14) 0.2811(3) -0.2782(3)
H14 H -1.2797 0.2411 -0.2716
C34 C -1.1240(9) 0.3693(3) -0.2587(2)
C35 C 0.3133(9) 0.3214(2) 0.0825(3)
H15 H 0.2106 0.2873 0.0790
H16 H 0.4322 0.3177 0.1181
H17 H 0.3980 0.3254 0.0457
C36 C 0.3000(11) 0.4546(2) 0.0990(3)
H18 H 0.1913 0.4869 0.1036
H19 H 0.3852 0.4600 0.0624
H20 H 0.4184 0.4521 0.1348
C9? C -0.425(2) 0.2984(4) 0.3367(7)
C10? C -0.482(2) 0.3880(6) 0.2756(5)
C11? C -0.313(3) 0.3080(5) 0.2823(6)
C12? C -0.602(2) 0.3794(6) 0.3278(6)
loop_
_geom_bond_atom_site_label_1
_geom_bond_atom_site_label_2
_geom_bond_site_symmetry_1
_geom_bond_site_symmetry_2
Si1 C1 1_555 1_555
N1 C6 1_555 1_555
N2 C18 1_555 1_555
N3 C25 1_555 1_555
N4 C33 1_555 1_555
C1 C2 1_555 1_555
C2 C3 1_555 1_555
C3 C4 1_555 1_555
C4 C5 1_555 1_555
C5 C6 1_555 1_555
C6 C7 1_555 1_555
C7 C8 1_555 1_555
C8 C3 1_555 1_555
C13 N1 1_555 1_555
H1 C13 1_555 1_555
C14 C13 1_555 1_555
H2 C14 1_555 1_555
C15 C14 1_555 1_555
C16 C15 1_555 1_555
H3 C16 1_555 1_555
C17 C16 1_555 1_555
H4 C17 1_555 1_555
C18 C17 1_555 1_555
H5 C18 1_555 1_555
C19 N1 1_555 1_555
C20 Si1 1_555 1_555
C21 C20 1_555 1_555
C22 C21 1_555 1_555
C23 C22 1_555 1_555
H6 C23 1_555 1_555
C24 C23 1_555 1_555
H7 C24 1_555 1_555
C25 C24 1_555 1_555
C26 C25 1_555 1_555
H8 C26 1_555 1_555
C27 C22 1_555 1_555
H9 C27 1_555 1_555
C28 N3 1_555 1_555
H10 C28 1_555 1_555
C29 C28 1_555 1_555
H11 C29 1_555 1_555
C30 C29 1_555 1_555
C31 C30 1_555 1_555
H12 C31 1_555 1_555
C32 C31 1_555 1_555
H13 C32 1_555 1_555
C33 C32 1_555 1_555
H14 C33 1_555 1_555
C34 N3 1_555 1_555
C35 Si1 1_555 1_555
H15 C35 1_555 1_555
H16 C35 1_555 1_555
H17 C35 1_555 1_555
C36 Si1 1_555 1_555
H18 C36 1_555 1_555
H19 C36 1_555 1_555
H20 C36 1_555 1_555
N2 C19 1_555 1_555
N4 C34 1_555 1_555
C15 C19 1_555 1_555
C26 C27 1_555 1_555
C30 C34 1_555 1_555

#END
