
#######################################################################
#
#                 Cambridge Crystallographic Data Centre
#                                CCDC 
#
#######################################################################
#
# If this CIF has been generated from an entry in the Cambridge 
# Structural Database, then it will include bibliographic, chemical, 
# crystal, experimental, refinement or atomic coordinate data resulting 
# from the CCDC's data processing and validation procedures.
#
#######################################################################

data_FAPDIJ
_chemical_formula_moiety         'C14 H12 N2 O5 S1'
_chemical_name_systematic        
'Dimethyl 1,2-dihydro-5-oxo-5H-thiazolo(3,2-a)quinazoline-1,2-dicarboxylate'
_symmetry_cell_setting           monoclinic
_symmetry_space_group_name_H-M   'P 21/n'
_symmetry_Int_Tables_number      14
_space_group_name_Hall           '-P 2yn'
loop_
_symmetry_equiv_pos_site_id
_symmetry_equiv_pos_as_xyz
1 x,y,z
2 1/2-x,1/2+y,1/2-z
3 -x,-y,-z
4 1/2+x,1/2-y,1/2+z
_cell_length_a                   11.578(1)
_cell_length_b                   8.834(2)
_cell_length_c                   13.660(2)
_cell_angle_alpha                90
_cell_angle_beta                 99.06(1)
_cell_angle_gamma                90
_cell_volume                     1379.71
_chemical_melting_point          '182-183 deg.C'
_cell_formula_units_Z            4
loop_
_atom_site_label
_atom_site_type_symbol
_atom_site_fract_x
_atom_site_fract_y
_atom_site_fract_z
S1 S 0.69500(3) 0.29440(4) 0.14660(3)
N1 N 0.9042(1) 0.2079(1) 0.1293(1)
C1 C 1.1121(1) 0.1547(2) 0.1367(1)
C2 C 1.1995(2) 0.0482(2) 0.1382(1)
C3 C 1.1729(2) -0.1059(2) 0.1324(1)
C4 C 1.0594(2) -0.1528(2) 0.1247(1)
C5 C 0.8468(2) -0.0972(2) 0.1142(1)
C6 C 0.9187(1) 0.3703(2) 0.1476(1)
C7 C 0.7968(1) 0.4394(2) 0.1189(1)
C8 C 0.7955(1) 0.1518(2) 0.1320(1)
N2 N 0.7624(1) 0.0118(2) 0.1253(1)
C9 C 0.9968(1) 0.1062(2) 0.1300(1)
C10 C 0.9687(1) -0.0479(2) 0.1234(1)
C11 C 0.7713(1) 0.4837(2) 0.0103(1)
O1 O 0.8422(1) 0.4831(2) -0.0453(1)
O2 O 0.6597(1) 0.5218(1) -0.0145(1)
C12 C 0.6224(2) 0.5704(3) -0.1154(1)
C13 C 0.9668(1) 0.4082(2) 0.2554(1)
O3 O 1.0019(1) 0.5321(1) 0.2803(1)
O4 O 0.9617(1) 0.2917(1) 0.3151(1)
C14 C 0.9949(2) 0.3205(2) 0.4205(1)
O5 O 0.8167(1) -0.2285(1) 0.0969(1)
loop_
_geom_bond_atom_site_label_1
_geom_bond_atom_site_label_2
_geom_bond_site_symmetry_1
_geom_bond_site_symmetry_2
S1 C7 1_555 1_555
N1 C6 1_555 1_555
C1 C2 1_555 1_555
C2 C3 1_555 1_555
C3 C4 1_555 1_555
C4 C10 1_555 1_555
C5 N2 1_555 1_555
C6 C7 1_555 1_555
C7 C11 1_555 1_555
C8 S1 1_555 1_555
N2 C8 1_555 1_555
C9 N1 1_555 1_555
C10 C5 1_555 1_555
C11 O1 1_555 1_555
O2 C11 1_555 1_555
C12 O2 1_555 1_555
C13 C6 1_555 1_555
O3 C13 1_555 1_555
O4 C13 1_555 1_555
C14 O4 1_555 1_555
O5 C5 1_555 1_555
N1 C8 1_555 1_555
C1 C9 1_555 1_555
C9 C10 1_555 1_555

#END
