
#######################################################################
#
#                 Cambridge Crystallographic Data Centre
#                                CCDC 
#
#######################################################################
#
# If this CIF has been generated from an entry in the Cambridge 
# Structural Database, then it will include bibliographic, chemical, 
# crystal, experimental, refinement or atomic coordinate data resulting 
# from the CCDC's data processing and validation procedures.
#
#######################################################################

data_FAPGAH
_chemical_name_common            
'6,6-dimethoxy-10,10-dimethyl-4-((trifluoromethyl)sulfanyl)-3-thia-4-azatricyclo[5.2.1.0$1,5!]decane 3,3-dioxide'
_chemical_formula_moiety         'C13 H20 F3 N1 O4 S2'
_chemical_name_systematic        
'(3aS,6S,7aS)-7,7-Dimethoxy-8,8-dimethyl-1-((trifluoromethyl)thio)-hexahydro-1H-3a,6-methanobenzo[c]isothiazole 2,2-dioxide'
_symmetry_cell_setting           monoclinic
_symmetry_space_group_name_H-M   'P 21'
_symmetry_Int_Tables_number      4
_space_group_name_Hall           'P 2yb'
loop_
_symmetry_equiv_pos_site_id
_symmetry_equiv_pos_as_xyz
1 x,y,z
2 -x,1/2+y,-z
_cell_length_a                   12.4266(17)
_cell_length_b                   8.8229(12)
_cell_length_c                   15.107(2)
_cell_angle_alpha                90
_cell_angle_beta                 105.700(3)
_cell_angle_gamma                90
_cell_volume                     1594.52
_exptl_crystal_colour            colorless
_exptl_crystal_description       block
_cell_formula_units_Z            4
loop_
_atom_site_label
_atom_site_type_symbol
_atom_site_fract_x
_atom_site_fract_y
_atom_site_fract_z
S1 S 0.68624(6) 0.23618(8) 0.25730(5)
S2 S 0.57604(5) 0.27393(8) 0.39630(5)
F1 F 0.84809(19) 0.0995(3) 0.38195(15)
F2 F 0.90154(18) 0.1970(2) 0.27069(17)
F3 F 0.79877(19) -0.0004(2) 0.24655(16)
O1 O 0.59170(18) 0.1195(2) 0.42695(15)
O2 O 0.47254(17) 0.3120(3) 0.32961(14)
O3 O 0.88137(16) 0.4619(2) 0.36156(14)
O4 O 0.79317(19) 0.6795(2) 0.29249(14)
N1 N 0.68571(19) 0.3276(3) 0.35680(16)
C1 C 0.6904(2) 0.4953(3) 0.36296(18)
H1 H 0.6283 0.5403 0.3134
C2 C 0.8035(2) 0.5758(3) 0.36493(19)
C3 C 0.8266(2) 0.6670(3) 0.45565(19)
H2 H 0.9042 0.7083 0.4774
C4 C 0.7332(3) 0.7883(3) 0.4429(2)
H3 H 0.7186 0.8371 0.3818
H4 H 0.7539 0.8672 0.4911
C5 C 0.6295(3) 0.6974(3) 0.4517(2)
H5 H 0.6068 0.7278 0.5071
H6 H 0.5654 0.7109 0.3967
C6 C 0.6731(2) 0.5332(3) 0.45953(19)
C7 C 0.7950(2) 0.5529(3) 0.52314(19)
C8 C 0.8632(2) 0.4063(3) 0.5440(2)
H7 H 0.8549 0.3491 0.4870
H8 H 0.8361 0.3449 0.5876
H9 H 0.9422 0.4310 0.5708
C9 C 0.7976(3) 0.6226(4) 0.6170(2)
H10 H 0.8752 0.6313 0.6544
H11 H 0.7559 0.5575 0.6487
H12 H 0.7633 0.7235 0.6079
C10 C 0.6013(2) 0.4109(3) 0.48672(19)
H13 H 0.5301 0.4543 0.4925
H14 H 0.6412 0.3642 0.5461
C11 C 0.9933(3) 0.5125(4) 0.3733(2)
H15 H 1.0339 0.4383 0.3464
H16 H 1.0304 0.5236 0.4391
H17 H 0.9925 0.6105 0.3426
C12 C 0.7696(3) 0.6157(4) 0.2019(2)
H18 H 0.7630 0.6972 0.1567
H19 H 0.6993 0.5588 0.1888
H20 H 0.8305 0.5474 0.1983
C13 C 0.8163(3) 0.1292(4) 0.2929(2)
S3 S 0.26242(6) 0.34256(8) 0.16022(5)
S4 S 0.39940(6) 0.46355(8) 0.05680(5)
F4 F 0.0958(2) 0.4090(4) 0.01675(18)
F5 F 0.04778(19) 0.3941(3) 0.1405(2)
F6 F 0.0874(2) 0.1929(3) 0.0803(2)
O5 O 0.49364(19) 0.3842(3) 0.11440(17)
O6 O 0.3420(2) 0.3953(3) -0.02858(15)
O7 O 0.28982(17) 0.7302(2) 0.31089(13)
O8 O 0.15830(16) 0.6758(2) 0.17390(14)
N2 N 0.30594(19) 0.5030(3) 0.11738(15)
C14 C 0.3513(2) 0.6312(3) 0.17900(18)
H21 H 0.4124 0.5949 0.2326
C15 C 0.3999(2) 0.7442(3) 0.11977(18)
C16 C 0.4870(2) 0.8385(3) 0.18966(19)
H22 H 0.5309 0.9034 0.1588
H23 H 0.5386 0.7731 0.2353
C17 C 0.4115(2) 0.9356(3) 0.23547(19)
H24 H 0.4260 0.9108 0.3016
H25 H 0.4245 1.0452 0.2290
C18 C 0.2913(2) 0.8910(3) 0.18191(18)
H26 H 0.2335 0.9687 0.1842
C19 C 0.2664(2) 0.7310(3) 0.21361(17)
C20 C 0.3034(2) 0.8599(3) 0.08331(18)
C21 C 0.2004(2) 0.7993(3) 0.01103(19)
H27 H 0.1788 0.7009 0.0311
H28 H 0.2182 0.7873 -0.0479
H29 H 0.1383 0.8709 0.0038
C22 C 0.3408(3) 1.0007(3) 0.0394(2)
H30 H 0.2780 1.0715 0.0203
H31 H 0.3654 0.9701 -0.0143
H32 H 0.4027 1.0501 0.0843
C23 C 0.4379(3) 0.6560(3) 0.0468(2)
H33 H 0.5198 0.6648 0.0574
H34 H 0.4009 0.6955 -0.0153
C24 C 0.2727(3) 0.5865(3) 0.3495(2)
H35 H 0.1977 0.5487 0.3187
H36 H 0.2798 0.5987 0.4154
H37 H 0.3287 0.5140 0.3410
C25 C 0.0688(2) 0.7688(4) 0.1858(2)
H38 H 0.0624 0.8594 0.1472
H39 H 0.0840 0.7989 0.2504
H40 H -0.0014 0.7116 0.1678
C26 C 0.1163(3) 0.3368(4) 0.0945(2)
loop_
_geom_bond_atom_site_label_1
_geom_bond_atom_site_label_2
_geom_bond_site_symmetry_1
_geom_bond_site_symmetry_2
S1 N1 1_555 1_555
S2 O1 1_555 1_555
F1 C13 1_555 1_555
F2 C13 1_555 1_555
F3 C13 1_555 1_555
O2 S2 1_555 1_555
O3 C2 1_555 1_555
O4 C2 1_555 1_555
N1 S2 1_555 1_555
C1 N1 1_555 1_555
H1 C1 1_555 1_555
C2 C1 1_555 1_555
C3 C2 1_555 1_555
H2 C3 1_555 1_555
C4 C3 1_555 1_555
H3 C4 1_555 1_555
H4 C4 1_555 1_555
C5 C4 1_555 1_555
H5 C5 1_555 1_555
H6 C5 1_555 1_555
C6 C1 1_555 1_555
C7 C3 1_555 1_555
C8 C7 1_555 1_555
H7 C8 1_555 1_555
H8 C8 1_555 1_555
H9 C8 1_555 1_555
C9 C7 1_555 1_555
H10 C9 1_555 1_555
H11 C9 1_555 1_555
H12 C9 1_555 1_555
C10 S2 1_555 1_555
H13 C10 1_555 1_555
H14 C10 1_555 1_555
C11 O3 1_555 1_555
H15 C11 1_555 1_555
H16 C11 1_555 1_555
H17 C11 1_555 1_555
C12 O4 1_555 1_555
H18 C12 1_555 1_555
H19 C12 1_555 1_555
H20 C12 1_555 1_555
C13 S1 1_555 1_555
S3 N2 1_555 1_555
S4 O5 1_555 1_555
F4 C26 1_555 1_555
F5 C26 1_555 1_555
F6 C26 1_555 1_555
O6 S4 1_555 1_555
O7 C19 1_555 1_555
O8 C19 1_555 1_555
N2 S4 1_555 1_555
C14 N2 1_555 1_555
H21 C14 1_555 1_555
C15 C14 1_555 1_555
C16 C15 1_555 1_555
H22 C16 1_555 1_555
H23 C16 1_555 1_555
C17 C16 1_555 1_555
H24 C17 1_555 1_555
H25 C17 1_555 1_555
C18 C17 1_555 1_555
H26 C18 1_555 1_555
C19 C14 1_555 1_555
C20 C15 1_555 1_555
C21 C20 1_555 1_555
H27 C21 1_555 1_555
H28 C21 1_555 1_555
H29 C21 1_555 1_555
C22 C20 1_555 1_555
H30 C22 1_555 1_555
H31 C22 1_555 1_555
H32 C22 1_555 1_555
C23 S4 1_555 1_555
H33 C23 1_555 1_555
H34 C23 1_555 1_555
C24 O7 1_555 1_555
H35 C24 1_555 1_555
H36 C24 1_555 1_555
H37 C24 1_555 1_555
C25 O8 1_555 1_555
H38 C25 1_555 1_555
H39 C25 1_555 1_555
H40 C25 1_555 1_555
C26 S3 1_555 1_555
C5 C6 1_555 1_555
C6 C7 1_555 1_555
C6 C10 1_555 1_555
C15 C23 1_555 1_555
C18 C19 1_555 1_555
C18 C20 1_555 1_555

#END
