
#######################################################################
#
#                 Cambridge Crystallographic Data Centre
#                                CCDC 
#
#######################################################################
#
# If this CIF has been generated from an entry in the Cambridge 
# Structural Database, then it will include bibliographic, chemical, 
# crystal, experimental, refinement or atomic coordinate data resulting 
# from the CCDC's data processing and validation procedures.
#
#######################################################################

data_FAPHAI
_chemical_formula_moiety         'C17 H11 F3 N2 O1 S1'
_chemical_name_systematic        
(S)-3-(1-methyl-2-oxo-3-((trifluoromethyl)sulfanyl)-2,3-dihydro-1H-indol-3-yl)benzonitrile
_symmetry_cell_setting           orthorhombic
_symmetry_space_group_name_H-M   'P 21 21 21'
_symmetry_Int_Tables_number      19
_space_group_name_Hall           'P 2ac 2ab'
loop_
_symmetry_equiv_pos_site_id
_symmetry_equiv_pos_as_xyz
1 x,y,z
2 1/2-x,-y,1/2+z
3 -x,1/2+y,1/2-z
4 1/2+x,1/2-y,-z
_cell_length_a                   8.5502(8)
_cell_length_b                   11.0835(11)
_cell_length_c                   16.8212(16)
_cell_angle_alpha                90
_cell_angle_beta                 90
_cell_angle_gamma                90
_cell_volume                     1594.08
_exptl_crystal_colour            colorless
_exptl_crystal_description       block
_cell_formula_units_Z            4
loop_
_atom_site_label
_atom_site_type_symbol
_atom_site_fract_x
_atom_site_fract_y
_atom_site_fract_z
S1 S 0.33849(7) 0.33882(5) 0.55027(3)
F1 F 0.3443(5) 0.28827(19) 0.70208(11)
F2 F 0.1451(3) 0.2208(2) 0.6437(2)
F3 F 0.3681(2) 0.13914(14) 0.62364(10)
O1 O 0.47669(19) 0.56136(17) 0.66027(10)
N1 N 0.2276(2) 0.55224(17) 0.71190(10)
N2 N 0.7676(3) 0.6778(2) 0.37664(14)
C1 C 0.2538(3) 0.48559(19) 0.57955(12)
C2 C 0.3388(3) 0.53771(18) 0.65456(11)
C3 C 0.0796(3) 0.51369(19) 0.68631(12)
C4 C -0.0574(3) 0.5071(2) 0.73001(14)
H1 H -0.060445 0.531736 0.784077
C5 C -0.1904(3) 0.4631(2) 0.69210(16)
H2 H -0.285964 0.457989 0.720706
C6 C -0.1857(3) 0.4265(3) 0.61310(16)
H3 H -0.278239 0.398028 0.588099
C7 C -0.0460(3) 0.4314(2) 0.57023(14)
H4 H -0.042167 0.404688 0.516591
C8 C 0.0867(3) 0.4757(2) 0.60721(12)
C9 C 0.2606(3) 0.6052(2) 0.78953(14)
H5 H 0.201526 0.680399 0.795462
H6 H 0.372793 0.622209 0.793868
H7 H 0.229790 0.548502 0.831405
C10 C 0.2866(3) 0.56537(19) 0.50716(12)
C11 C 0.1683(3) 0.62261(19) 0.46503(12)
H8 H 0.062450 0.611270 0.480420
C12 C 0.2034(3) 0.6969(2) 0.40012(14)
H9 H 0.121614 0.736594 0.372280
C13 C 0.3565(3) 0.7125(2) 0.37651(13)
H10 H 0.380265 0.762310 0.332176
C14 C 0.4767(3) 0.6546(2) 0.41813(13)
C15 C 0.4427(3) 0.5812(2) 0.48334(13)
H11 H 0.524735 0.542198 0.511451
C16 C 0.6386(3) 0.6682(2) 0.39462(14)
C17 C 0.2962(4) 0.2445(2) 0.63409(18)
loop_
_geom_bond_atom_site_label_1
_geom_bond_atom_site_label_2
_geom_bond_site_symmetry_1
_geom_bond_site_symmetry_2
S1 C1 1_555 1_555
F1 C17 1_555 1_555
F2 C17 1_555 1_555
F3 C17 1_555 1_555
O1 C2 1_555 1_555
N1 C2 1_555 1_555
N2 C16 1_555 1_555
C1 C2 1_555 1_555
C3 N1 1_555 1_555
C4 C3 1_555 1_555
H1 C4 1_555 1_555
C5 C4 1_555 1_555
H2 C5 1_555 1_555
C6 C5 1_555 1_555
H3 C6 1_555 1_555
C7 C6 1_555 1_555
H4 C7 1_555 1_555
C8 C1 1_555 1_555
C9 N1 1_555 1_555
H5 C9 1_555 1_555
H6 C9 1_555 1_555
H7 C9 1_555 1_555
C10 C1 1_555 1_555
C11 C10 1_555 1_555
H8 C11 1_555 1_555
C12 C11 1_555 1_555
H9 C12 1_555 1_555
C13 C12 1_555 1_555
H10 C13 1_555 1_555
C14 C13 1_555 1_555
C15 C10 1_555 1_555
H11 C15 1_555 1_555
C16 C14 1_555 1_555
C17 S1 1_555 1_555
C3 C8 1_555 1_555
C7 C8 1_555 1_555
C14 C15 1_555 1_555

#END
