
#######################################################################
#
#                 Cambridge Crystallographic Data Centre
#                                CCDC 
#
#######################################################################
#
# If this CIF has been generated from an entry in the Cambridge 
# Structural Database, then it will include bibliographic, chemical, 
# crystal, experimental, refinement or atomic coordinate data resulting 
# from the CCDC's data processing and validation procedures.
#
#######################################################################

data_FAPHOU02
_chemical_name_common            1-O-Acetylbritannilactone
_chemical_formula_moiety         'C17 H24 O5'
_chemical_name_systematic        
'4-(4-Hydroxy-6-methyl-3-methylene-2-oxo-2,3,3a,4,7,7a-hexahydro-1-benzofuran-5-yl)pentyl acetate'
_symmetry_cell_setting           orthorhombic
_symmetry_space_group_name_H-M   'P 21 21 21'
_symmetry_Int_Tables_number      19
_space_group_name_Hall           'P 2ac 2ab'
loop_
_symmetry_equiv_pos_site_id
_symmetry_equiv_pos_as_xyz
1 x,y,z
2 1/2-x,-y,1/2+z
3 -x,1/2+y,1/2-z
4 1/2+x,1/2-y,-z
_cell_length_a                   7.9947(8)
_cell_length_b                   12.3402(12)
_cell_length_c                   16.8306(17)
_cell_angle_alpha                90
_cell_angle_beta                 90
_cell_angle_gamma                90
_cell_volume                     1660.44
_exptl_crystal_colour            colorless
_exptl_crystal_description       prismatic
_cell_formula_units_Z            4
loop_
_atom_site_label
_atom_site_type_symbol
_atom_site_fract_x
_atom_site_fract_y
_atom_site_fract_z
O1 O 1.0888(2) 0.37223(19) 0.11962(11)
O2 O 0.8494(2) 0.28935(13) 0.14611(9)
O3 O 0.3846(2) 0.37894(14) 0.01600(10)
O4 O 0.8840(2) 0.83491(11) 0.16568(10)
O5 O 1.1391(3) 0.88764(15) 0.13220(13)
C1 C 0.9325(3) 0.72395(16) 0.14962(16)
H1 H 1.0236 0.7026 0.1843
H2 H 0.9695 0.7167 0.0950
C2 C 0.7828(3) 0.65405(17) 0.16413(14)
H3 H 0.7398 0.6694 0.2168
H4 H 0.8176 0.5788 0.1633
C3 C 0.6419(3) 0.66935(15) 0.10408(14)
H5 H 0.6117 0.7454 0.1023
H6 H 0.6822 0.6491 0.0518
C4 C 0.4864(3) 0.60297(15) 0.12321(12)
H7 H 0.4529 0.6215 0.1775
C5 C 0.5203(2) 0.48173(14) 0.12166(10)
C6 C 0.5374(3) 0.43003(15) 0.04048(11)
H8 H 0.5635 0.4874 0.0021
C7 C 0.6778(3) 0.34539(15) 0.03682(11)
H9 H 0.6614 0.2999 -0.0103
C8 C 0.6841(3) 0.27272(16) 0.11050(14)
H10 H 0.6730 0.1968 0.0942
C9 C 0.5548(3) 0.29795(17) 0.17289(14)
H11 H 0.4497 0.2646 0.1578
H12 H 0.5897 0.2661 0.2229
C10 C 0.5273(3) 0.41742(16) 0.18472(11)
C11 C 0.9458(3) 0.35368(19) 0.10192(13)
C12 C 0.8493(3) 0.39421(16) 0.03370(11)
C13 C 0.9133(3) 0.4632(2) -0.01770(15)
H13 H 1.0226 0.4877 -0.0114
H14 H 0.8494 0.4875 -0.0603
C14 C 0.5049(3) 0.4517(2) 0.26963(12)
H15 H 0.4878 0.5286 0.2719
H16 H 0.6031 0.4330 0.2995
H17 H 0.4096 0.4153 0.2918
C15 C 0.3412(3) 0.63346(18) 0.06869(17)
H18 H 0.3702 0.6168 0.0147
H19 H 0.3188 0.7096 0.0735
H20 H 0.2435 0.5931 0.0836
C16 C 1.0040(3) 0.90885(18) 0.15668(14)
C17 C 0.9446(4) 1.0188(2) 0.17939(18)
H21 H 1.0391 1.0648 0.1893
H22 H 0.8775 1.0138 0.2266
H23 H 0.8789 1.0486 0.1370
H24 H 0.305(4) 0.387(2) 0.0490(17)
loop_
_geom_bond_atom_site_label_1
_geom_bond_atom_site_label_2
_geom_bond_site_symmetry_1
_geom_bond_site_symmetry_2
O1 C11 1_555 1_555
O2 C8 1_555 1_555
O3 C6 1_555 1_555
O4 C1 1_555 1_555
O5 C16 1_555 1_555
C1 H1 1_555 1_555
H2 C1 1_555 1_555
C2 C1 1_555 1_555
H3 C2 1_555 1_555
H4 C2 1_555 1_555
C3 C2 1_555 1_555
H5 C3 1_555 1_555
H6 C3 1_555 1_555
C4 C3 1_555 1_555
H7 C4 1_555 1_555
C5 C4 1_555 1_555
C6 C5 1_555 1_555
H8 C6 1_555 1_555
C7 C6 1_555 1_555
H9 C7 1_555 1_555
C8 C7 1_555 1_555
H10 C8 1_555 1_555
C9 C8 1_555 1_555
H11 C9 1_555 1_555
H12 C9 1_555 1_555
C10 C5 1_555 1_555
C11 O2 1_555 1_555
C12 C7 1_555 1_555
C13 C12 1_555 1_555
H13 C13 1_555 1_555
H14 C13 1_555 1_555
C14 C10 1_555 1_555
H15 C14 1_555 1_555
H16 C14 1_555 1_555
H17 C14 1_555 1_555
C15 C4 1_555 1_555
H18 C15 1_555 1_555
H19 C15 1_555 1_555
H20 C15 1_555 1_555
C16 O4 1_555 1_555
C17 C16 1_555 1_555
H21 C17 1_555 1_555
H22 C17 1_555 1_555
H23 C17 1_555 1_555
H24 O3 1_555 1_555
C9 C10 1_555 1_555
C11 C12 1_555 1_555

#END
