
#######################################################################
#
#                 Cambridge Crystallographic Data Centre
#                                CCDC 
#
#######################################################################
#
# If this CIF has been generated from an entry in the Cambridge 
# Structural Database, then it will include bibliographic, chemical, 
# crystal, experimental, refinement or atomic coordinate data resulting 
# from the CCDC's data processing and validation procedures.
#
#######################################################################

data_FAPLEN
_chemical_name_common            
1,7-bis(3,4-Dimethoxyphenyl)-4-benzyl-5-hydroxyhepta-1,4,6-trien-3-one
_chemical_formula_moiety         'C30 H30 O6'
_chemical_name_systematic        
1,7-bis(3,4-Dimethoxyphenyl)-4-benzylhepta-1,6-diene-3,5-dione
_symmetry_cell_setting           monoclinic
_symmetry_space_group_name_H-M   'P 21/n'
_symmetry_Int_Tables_number      14
_space_group_name_Hall           '-P 2yn'
loop_
_symmetry_equiv_pos_site_id
_symmetry_equiv_pos_as_xyz
1 x,y,z
2 1/2-x,1/2+y,1/2-z
3 -x,-y,-z
4 1/2+x,1/2-y,1/2+z
_cell_length_a                   9.139(2)
_cell_length_b                   9.221(2)
_cell_length_c                   29.681(5)
_cell_angle_alpha                90
_cell_angle_beta                 96.80(2)
_cell_angle_gamma                90
_cell_volume                     2483.64
_exptl_crystal_colour            'dark orange'
_chemical_melting_point          '136 deg.C'
_cell_formula_units_Z            4
loop_
_atom_site_label
_atom_site_type_symbol
_atom_site_fract_x
_atom_site_fract_y
_atom_site_fract_z
O1 O 0.3744(1) -0.6447(1) 0.6842(1)
O2 O 0.1935(1) -0.5299(1) 0.7338(1)
O3 O 0.7257(1) -0.0516(1) 0.8828(1)
O4 O 0.7205(1) 0.1148(1) 0.9467(1)
O5 O 0.2713(1) 0.5715(1) 1.1347(1)
O6 O 0.1193(1) 0.4038(1) 1.0771(1)
C1 C 0.4356(2) -0.5463(2) 0.7155(1)
C2 C 0.3367(2) -0.4843(2) 0.7432(1)
C3 C 0.3860(2) -0.3847(2) 0.7761(1)
C4 C 0.5355(2) -0.3444(2) 0.7832(1)
C5 C 0.6312(2) -0.4047(2) 0.7551(1)
C6 C 0.5818(2) -0.5044(2) 0.7212(1)
C7 C 0.5923(2) -0.2444(2) 0.8192(1)
C8 C 0.5147(2) -0.1691(2) 0.8466(1)
C9 C 0.5819(2) -0.0724(2) 0.8822(1)
C10 C 0.5033(2) -0.0034(2) 0.9134(1)
C11 C 0.5806(2) 0.0944(2) 0.9455(1)
C12 C 0.5015(2) 0.1742(2) 0.9775(1)
C13 C 0.5620(2) 0.2785(2) 1.0049(1)
C14 C 0.4879(2) 0.3579(2) 1.0382(1)
C15 C 0.5665(2) 0.4518(2) 1.0687(1)
C16 C 0.4977(2) 0.5254(2) 1.1013(1)
C17 C 0.3491(2) 0.5073(2) 1.1039(1)
C18 C 0.2666(2) 0.4138(2) 1.0726(1)
C19 C 0.3355(2) 0.3419(2) 1.0404(1)
C20 C 0.3391(2) -0.0283(2) 0.9146(1)
C21 C 0.2408(2) 0.0972(2) 0.8971(1)
C22 C 0.1226(2) 0.1402(2) 0.9195(1)
C23 C 0.0328(2) 0.2548(2) 0.9033(1)
C24 C 0.0587(2) 0.3270(2) 0.8641(1)
C25 C 0.1743(2) 0.2831(2) 0.8411(1)
C26 C 0.2643(2) 0.1696(2) 0.8575(1)
C27 C 0.4702(2) -0.7082(2) 0.6548(1)
C28 C 0.0836(2) -0.4452(2) 0.7521(1)
C29 C 0.3452(2) 0.6827(2) 1.1626(1)
C30 C 0.0321(2) 0.3170(3) 1.0442(1)
H1 H 0.749(3) 0.029(3) 0.911(1)
H2 H 0.315(2) -0.344(2) 0.794(1)
H3 H 0.734(2) -0.375(2) 0.759(1)
H4 H 0.649(2) -0.542(2) 0.702(1)
H5 H 0.696(2) -0.235(2) 0.824(1)
H6 H 0.412(2) -0.176(2) 0.843(1)
H7 H 0.402(2) 0.149(2) 0.978(1)
H8 H 0.666(2) 0.303(2) 1.004(1)
H9 H 0.673(2) 0.469(2) 1.067(1)
H10 H 0.553(2) 0.589(2) 1.122(1)
H11 H 0.274(2) 0.279(2) 1.020(1)
H12 H 0.322(2) -0.052(2) 0.946(1)
H13 H 0.310(2) -0.118(2) 0.897(1)
H14 H 0.104(2) 0.092(2) 0.948(1)
H15 H -0.052(2) 0.284(2) 0.920(1)
H16 H -0.005(2) 0.412(2) 0.853(1)
H17 H 0.196(2) 0.332(2) 0.814(1)
H18 H 0.347(2) 0.140(2) 0.842(1)
H19 H 0.408(2) -0.775(2) 0.635(1)
H20 H 0.548(2) -0.764(2) 0.673(1)
H21 H 0.514(2) -0.634(2) 0.636(1)
H22 H -0.012(2) -0.488(2) 0.739(1)
H23 H 0.087(2) -0.337(2) 0.743(1)
H24 H 0.091(2) -0.451(2) 0.787(1)
H25 H 0.269(2) 0.721(2) 1.179(1)
H26 H 0.381(2) 0.762(2) 1.144(1)
H27 H 0.431(2) 0.640(2) 1.183(1)
H28 H -0.069(2) 0.329(2) 1.051(1)
H29 H 0.066(2) 0.208(2) 1.045(1)
H30 H 0.040(2) 0.353(2) 1.012(1)
loop_
_geom_bond_atom_site_label_1
_geom_bond_atom_site_label_2
_geom_bond_site_symmetry_1
_geom_bond_site_symmetry_2
O1 C1 1_555 1_555
O2 C2 1_555 1_555
O3 C9 1_555 1_555
O4 C11 1_555 1_555
O5 C17 1_555 1_555
O6 C18 1_555 1_555
C1 C2 1_555 1_555
C2 C3 1_555 1_555
C3 C4 1_555 1_555
C4 C5 1_555 1_555
C5 C6 1_555 1_555
C6 C1 1_555 1_555
C7 C4 1_555 1_555
C8 C7 1_555 1_555
C9 C8 1_555 1_555
C10 C9 1_555 1_555
C11 C10 1_555 1_555
C12 C11 1_555 1_555
C13 C12 1_555 1_555
C14 C13 1_555 1_555
C15 C14 1_555 1_555
C16 C15 1_555 1_555
C17 C16 1_555 1_555
C18 C17 1_555 1_555
C19 C14 1_555 1_555
C20 C10 1_555 1_555
C21 C20 1_555 1_555
C22 C21 1_555 1_555
C23 C22 1_555 1_555
C24 C23 1_555 1_555
C25 C24 1_555 1_555
C26 C21 1_555 1_555
C27 O1 1_555 1_555
C28 O2 1_555 1_555
C29 O5 1_555 1_555
C30 O6 1_555 1_555
H1 O3 1_555 1_555
H2 C3 1_555 1_555
H3 C5 1_555 1_555
H4 C6 1_555 1_555
H5 C7 1_555 1_555
H6 C8 1_555 1_555
H7 C12 1_555 1_555
H8 C13 1_555 1_555
H9 C15 1_555 1_555
H10 C16 1_555 1_555
H11 C19 1_555 1_555
H12 C20 1_555 1_555
H13 C20 1_555 1_555
H14 C22 1_555 1_555
H15 C23 1_555 1_555
H16 C24 1_555 1_555
H17 C25 1_555 1_555
H18 C26 1_555 1_555
H19 C27 1_555 1_555
H20 C27 1_555 1_555
H21 C27 1_555 1_555
H22 C28 1_555 1_555
H23 C28 1_555 1_555
H24 C28 1_555 1_555
H25 C29 1_555 1_555
H26 C29 1_555 1_555
H27 C29 1_555 1_555
H28 C30 1_555 1_555
H29 C30 1_555 1_555
H30 C30 1_555 1_555
C18 C19 1_555 1_555
C25 C26 1_555 1_555

#END
