
#######################################################################
#
#                 Cambridge Crystallographic Data Centre
#                                CCDC 
#
#######################################################################
#
# If this CIF has been generated from an entry in the Cambridge 
# Structural Database, then it will include bibliographic, chemical, 
# crystal, experimental, refinement or atomic coordinate data resulting 
# from the CCDC's data processing and validation procedures.
#
#######################################################################

data_FAPLIR
_chemical_name_common            
1,7-bis(4-Hydroxy-3-methoxyphenyl)-4-ethoxycarbonylmethyl-3-hydroxy-hepta-1,3,6-trien-5-one
_chemical_formula_moiety         'C25 H26 O8'
_chemical_name_systematic        
1,7-bis(4-Hydroxy-3-methoxyphenyl)-4-(2-oxo-2-ethoxyethyl)-hepta-1,6-diene-3,5-dione
_symmetry_cell_setting           monoclinic
_symmetry_space_group_name_H-M   'P 21/c'
_symmetry_Int_Tables_number      14
_space_group_name_Hall           '-P 2ybc'
loop_
_symmetry_equiv_pos_site_id
_symmetry_equiv_pos_as_xyz
1 x,y,z
2 -x,1/2+y,1/2-z
3 -x,-y,-z
4 x,1/2-y,1/2+z
_cell_length_a                   16.359(3)
_cell_length_b                   6.221(1)
_cell_length_c                   23.141(3)
_cell_angle_alpha                90
_cell_angle_beta                 104.55(1)
_cell_angle_gamma                90
_cell_volume                     2279.52
_exptl_crystal_colour            orange
_chemical_melting_point          '146 deg.C'
_cell_formula_units_Z            4
loop_
_atom_site_label
_atom_site_type_symbol
_atom_site_fract_x
_atom_site_fract_y
_atom_site_fract_z
O1 O 0.2297(1) -0.9633(4) 0.2905(1)
O2 O 0.1466(1) -0.5929(3) 0.2878(1)
O3 O -0.1236(1) -0.6752(3) -0.0312(1)
O4 O -0.2313(1) -0.4649(4) -0.0994(1)
O5 O -0.5963(1) 0.5191(4) -0.1666(1)
O6 O -0.6219(1) 0.1618(3) -0.2318(1)
O7 O -0.2423(1) -0.2967(4) 0.0969(1)
O8 O -0.2503(1) 0.0559(4) 0.0734(1)
C1 C 0.1749(2) -0.9000(5) 0.2384(1)
C2 C 0.1294(2) -0.7062(5) 0.2354(1)
C3 C 0.0738(2) -0.6472(6) 0.1825(1)
C4 C 0.0607(2) -0.7782(5) 0.1320(1)
C5 C 0.1068(2) -0.9687(5) 0.1353(1)
C6 C 0.1637(2) -1.0278(6) 0.1886(1)
C7 C -0.0004(2) -0.7265(5) 0.0761(1)
C8 C -0.0553(2) -0.5631(5) 0.0664(1)
C9 C -0.1149(2) -0.5238(5) 0.0085(1)
C10 C -0.1619(2) -0.3326(5) -0.0041(1)
C11 C -0.2225(2) -0.3125(5) -0.0593(1)
C12 C -0.2798(2) -0.1310(6) -0.0728(1)
C13 C -0.3455(2) -0.1197(6) -0.1201(1)
C14 C -0.4090(2) 0.0503(5) -0.1330(1)
C15 C -0.3994(2) 0.2421(5) -0.1005(1)
C16 C -0.4620(2) 0.3979(5) -0.1120(1)
C17 C -0.5350(2) 0.3646(5) -0.1564(1)
C18 C -0.5458(2) 0.1739(5) -0.1894(1)
C19 C -0.4833(2) 0.0200(5) -0.1784(1)
C20 C -0.1506(2) -0.1491(6) 0.0401(1)
C21 C -0.2190(2) -0.1427(6) 0.0737(1)
C22 C -0.3199(3) 0.0873(8) 0.1020(2)
C23 C -0.4012(3) 0.0464(11) 0.0577(2)
C24 C 0.0916(2) -0.4161(6) 0.2912(2)
C25 C -0.6454(2) -0.0421(6) -0.2600(2)
H1 H 0.225(2) -0.886(6) 0.320(2)
H2 H -0.181(3) -0.587(7) -0.078(2)
H3 H -0.640(2) 0.477(7) -0.194(2)
H4 H 0.043(2) -0.514(5) 0.181(1)
H5 H 0.096(2) -1.063(5) 0.097(1)
H6 H 0.197(2) -1.156(5) 0.191(1)
H7 H 0.000(2) -0.812(5) 0.043(1)
H8 H -0.059(2) -0.481(5) 0.097(1)
H9 H -0.268(2) -0.031(5) -0.046(1)
H10 H -0.355(2) -0.232(5) -0.145(1)
H11 H -0.351(2) 0.269(5) -0.069(1)
H12 H -0.456(2) 0.527(5) -0.089(1)
H13 H -0.492(2) -0.108(5) -0.198(1)
H14 H -0.097(2) -0.168(5) 0.069(1)
H15 H -0.149(2) -0.017(5) 0.020(1)
H16 H -0.311(2) -0.012(5) 0.137(1)
H17 H -0.319(3) 0.247(8) 0.105(2)
H18 H -0.448(2) 0.078(6) 0.075(1)
H19 H -0.406(3) -0.108(8) 0.043(2)
H20 H -0.408(2) 0.159(7) 0.019(2)
H21 H 0.112(2) -0.372(5) 0.334(1)
H22 H 0.095(2) -0.293(6) 0.260(2)
H23 H 0.033(2) -0.475(6) 0.286(1)
H24 H -0.704(2) -0.019(6) -0.288(1)
H25 H -0.646(2) -0.153(6) -0.229(2)
H26 H -0.604(2) -0.076(5) -0.288(1)
loop_
_geom_bond_atom_site_label_1
_geom_bond_atom_site_label_2
_geom_bond_site_symmetry_1
_geom_bond_site_symmetry_2
O1 C1 1_555 1_555
O2 C2 1_555 1_555
O3 C9 1_555 1_555
O4 C11 1_555 1_555
O5 C17 1_555 1_555
O6 C18 1_555 1_555
O7 C21 1_555 1_555
O8 C21 1_555 1_555
C1 C2 1_555 1_555
C2 C3 1_555 1_555
C3 C4 1_555 1_555
C4 C5 1_555 1_555
C5 C6 1_555 1_555
C6 C1 1_555 1_555
C7 C4 1_555 1_555
C8 C7 1_555 1_555
C9 C8 1_555 1_555
C10 C9 1_555 1_555
C11 C10 1_555 1_555
C12 C11 1_555 1_555
C13 C12 1_555 1_555
C14 C13 1_555 1_555
C15 C14 1_555 1_555
C16 C15 1_555 1_555
C17 C16 1_555 1_555
C18 C17 1_555 1_555
C19 C14 1_555 1_555
C20 C10 1_555 1_555
C21 C20 1_555 1_555
C22 O8 1_555 1_555
C23 C22 1_555 1_555
C24 O2 1_555 1_555
C25 O6 1_555 1_555
H1 O1 1_555 1_555
H2 O4 1_555 1_555
H3 O5 1_555 1_555
H4 C3 1_555 1_555
H5 C5 1_555 1_555
H6 C6 1_555 1_555
H7 C7 1_555 1_555
H8 C8 1_555 1_555
H9 C12 1_555 1_555
H10 C13 1_555 1_555
H11 C15 1_555 1_555
H12 C16 1_555 1_555
H13 C19 1_555 1_555
H14 C20 1_555 1_555
H15 C20 1_555 1_555
H16 C22 1_555 1_555
H17 C22 1_555 1_555
H18 C23 1_555 1_555
H19 C23 1_555 1_555
H20 C23 1_555 1_555
H21 C24 1_555 1_555
H22 C24 1_555 1_555
H23 C24 1_555 1_555
H24 C25 1_555 1_555
H25 C25 1_555 1_555
H26 C25 1_555 1_555
C18 C19 1_555 1_555

#END
