
#######################################################################
#
#                 Cambridge Crystallographic Data Centre
#                                CCDC 
#
#######################################################################
#
# If this CIF has been generated from an entry in the Cambridge 
# Structural Database, then it will include bibliographic, chemical, 
# crystal, experimental, refinement or atomic coordinate data resulting 
# from the CCDC's data processing and validation procedures.
#
#######################################################################

data_FAPNIT
_chemical_formula_moiety         'C5 H22 B8 Si1'
_chemical_name_systematic        
arachno-6-Trimethylsilyl-6,9-dicarbadecaborane
_symmetry_cell_setting           orthorhombic
_symmetry_space_group_name_H-M   'P b c a'
_symmetry_Int_Tables_number      61
_space_group_name_Hall           '-P 2ac 2ab'
loop_
_symmetry_equiv_pos_site_id
_symmetry_equiv_pos_as_xyz
1 x,y,z
2 1/2-x,1/2+y,z
3 x,1/2-y,1/2+z
4 1/2-x,-y,1/2+z
5 -x,-y,-z
6 1/2+x,1/2-y,-z
7 -x,1/2+y,1/2-z
8 1/2+x,y,1/2-z
_cell_length_a                   12.825(4)
_cell_length_b                   17.999(3)
_cell_length_c                   11.335(1)
_cell_angle_alpha                90
_cell_angle_beta                 90
_cell_angle_gamma                90
_cell_volume                     2616.54
_exptl_crystal_colour            colorless
_cell_formula_units_Z            8
loop_
_atom_site_label
_atom_site_type_symbol
_atom_site_fract_x
_atom_site_fract_y
_atom_site_fract_z
B1 B 0.3216(2) 0.3204(1) 0.5300(2)
B2 B 0.3492(2) 0.2262(1) 0.5178(2)
B3 B 0.4500(2) 0.2889(1) 0.4914(2)
B4 B 0.4322(2) 0.3640(1) 0.5841(2)
B5 B 0.2709(2) 0.2562(1) 0.6356(2)
C1 C 0.3601(1) 0.18215(9) 0.6440(2)
B6 B 0.4751(2) 0.2057(1) 0.5726(2)
B7 B 0.5311(2) 0.2987(1) 0.6185(2)
C2 C 0.4549(2) 0.3420(1) 0.7231(2)
B8 B 0.3269(2) 0.3480(1) 0.6814(2)
Si1 Si 0.31519(4) 0.08211(3) 0.64795(5)
C3 C 0.1757(2) 0.0802(1) 0.6926(3)
C4 C 0.3935(2) 0.0337(1) 0.7608(2)
C5 C 0.3331(3) 0.0371(1) 0.5028(3)
H1 H 0.274(1) 0.347(1) 0.466(2)
H2 H 0.315(1) 0.1899(9) 0.452(2)
H3 H 0.481(1) 0.2964(9) 0.409(2)
H4 H 0.456(2) 0.423(1) 0.565(2)
H5 H 0.189(1) 0.245(1) 0.638(2)
H6 H 0.383(1) 0.195(1) 0.713(2)
H7 H 0.522(1) 0.1631(9) 0.535(2)
H8 H 0.611(1) 0.3124(9) 0.607(2)
H9 H 0.446(2) 0.299(1) 0.777(2)
H10 H 0.483(1) 0.384(1) 0.765(2)
H11 H 0.277(2) 0.391(1) 0.708(2)
H12 H 0.293(1) 0.2898(9) 0.725(2)
H13 H 0.528(2) 0.233(1) 0.653(2)
H14 H 0.149(2) 0.028(1) 0.701(2)
H15 H 0.165(3) 0.104(2) 0.753(4)
H16 H 0.145(3) 0.095(2) 0.618(3)
H17 H 0.372(2) -0.016(1) 0.764(2)
H18 H 0.459(2) 0.032(1) 0.737(2)
H19 H 0.396(2) 0.054(2) 0.834(2)
H20 H 0.325(2) -0.013(1) 0.510(3)
H21 H 0.277(2) 0.051(2) 0.456(3)
H22 H 0.411(2) 0.040(1) 0.489(2)
loop_
_geom_bond_atom_site_label_1
_geom_bond_atom_site_label_2
_geom_bond_site_symmetry_1
_geom_bond_site_symmetry_2
B1 B2 1_555 1_555
B2 B3 1_555 1_555
B3 B1 1_555 1_555
B4 B1 1_555 1_555
B5 B1 1_555 1_555
C1 B2 1_555 1_555
B6 B2 1_555 1_555
B7 B3 1_555 1_555
C2 B4 1_555 1_555
B8 B1 1_555 1_555
Si1 C1 1_555 1_555
C3 Si1 1_555 1_555
C4 Si1 1_555 1_555
C5 Si1 1_555 1_555
H1 B1 1_555 1_555
H2 B2 1_555 1_555
H3 B3 1_555 1_555
H4 B4 1_555 1_555
H5 B5 1_555 1_555
H6 C1 1_555 1_555
H7 B6 1_555 1_555
H8 B7 1_555 1_555
H9 C2 1_555 1_555
H10 C2 1_555 1_555
H11 B8 1_555 1_555
H12 B5 1_555 1_555
H13 B6 1_555 1_555
H14 C3 1_555 1_555
H15 C3 1_555 1_555
H16 C3 1_555 1_555
H17 C4 1_555 1_555
H18 C4 1_555 1_555
H19 C4 1_555 1_555
H20 C5 1_555 1_555
H21 C5 1_555 1_555
H22 C5 1_555 1_555
B2 B5 1_555 1_555
B3 B4 1_555 1_555
B3 B6 1_555 1_555
B4 B7 1_555 1_555
B4 B8 1_555 1_555
B5 C1 1_555 1_555
B5 B8 1_555 1_555
C1 B6 1_555 1_555
B6 B7 1_555 1_555
B7 C2 1_555 1_555
B7 H13 1_555 1_555
C2 B8 1_555 1_555
B8 H12 1_555 1_555

#END
