
#######################################################################
#
#                 Cambridge Crystallographic Data Centre
#                                CCDC 
#
#######################################################################
#
# If this CIF has been generated from an entry in the Cambridge 
# Structural Database, then it will include bibliographic, chemical, 
# crystal, experimental, refinement or atomic coordinate data resulting 
# from the CCDC's data processing and validation procedures.
#
#######################################################################

data_FAPZEE
_chemical_formula_moiety         'C21 H17 Br1 N2 O3'
_chemical_name_systematic        
1-(4-bromophenyl)-5-(3-furyl)-4a,8-dimethyl-1,4,4a,5-tetrahydro-7H-furo[3,4-f]indazol-7-one
_symmetry_cell_setting           monoclinic
_symmetry_space_group_name_H-M   'P 21'
_symmetry_Int_Tables_number      4
_space_group_name_Hall           'P 2yb'
loop_
_symmetry_equiv_pos_site_id
_symmetry_equiv_pos_as_xyz
1 x,y,z
2 -x,1/2+y,-z
_cell_length_a                   8.5895(10)
_cell_length_b                   12.3063(10)
_cell_length_c                   9.7721(9)
_cell_angle_alpha                90
_cell_angle_beta                 111.940(13)
_cell_angle_gamma                90
_cell_volume                     958.148
_exptl_crystal_colour            'light yellow'
_exptl_crystal_description       block
_cell_formula_units_Z            2
loop_
_atom_site_label
_atom_site_type_symbol
_atom_site_fract_x
_atom_site_fract_y
_atom_site_fract_z
Br1 Br 0.26371(17) -0.39834(18) -1.00134(15)
O1 O -0.6858(10) -0.0943(8) -1.6420(8)
O2 O -0.8846(10) -0.0093(7) -1.5896(7)
O3 O -1.3675(11) 0.0681(10) -1.6061(10)
N1 N -0.3814(10) -0.1778(8) -1.0323(8)
N2 N -0.4014(12) -0.1607(8) -0.8997(8)
C1 C -0.2337(15) -0.3280(9) -1.1034(10)
H1 H -0.3368 -0.3583 -1.1606
C2 C -0.0918(13) -0.3772(10) -1.0990(10)
H2 H -0.0970 -0.4407 -1.1521
C3 C 0.0601(14) -0.3327(9) -1.0154(11)
C4 C 0.0686(13) -0.2391(9) -0.9356(12)
H3 H 0.1717 -0.2087 -0.8787
C5 C -0.0774(13) -0.1920(9) -0.9418(10)
H4 H -0.0722 -0.1293 -0.8872
C6 C -0.2305(13) -0.2333(9) -1.0251(10)
C7 C -0.5387(15) -0.1035(10) -0.9360(12)
H5 H -0.5829 -0.0779 -0.8685
C8 C -0.6131(14) -0.0848(10) -1.0908(10)
C9 C -0.5069(11) -0.1313(8) -1.1470(9)
C10 C -0.5275(12) -0.1243(8) -1.3014(9)
C11 C -0.6801(12) -0.0886(9) -1.3901(10)
C12 C -0.8220(13) -0.0599(10) -1.3403(10)
C13 C -0.7602(13) -0.0175(10) -1.1818(9)
H6 H -0.7275 0.0581 -1.1790
H7 H -0.8489 -0.0229 -1.1433
C14 C -0.3843(13) -0.1422(11) -1.3505(11)
H8 H -0.2825 -0.1160 -1.2762
H9 H -0.4049 -0.1037 -1.4410
H10 H -0.3736 -0.2184 -1.3659
C15 C -0.7419(15) -0.0656(11) -1.5496(11)
C16 C -0.9094(13) 0.0298(9) -1.4552(10)
H11 H -0.8471 0.0978 -1.4231
C17 C -1.0902(14) 0.0521(9) -1.4924(11)
C18 C -1.2261(16) 0.0274(12) -1.6102(12)
H12 H -1.2223 -0.0144 -1.6882
C19 C -1.3175(17) 0.1227(15) -1.4770(17)
H13 H -1.3909 0.1590 -1.4428
C20 C -1.1537(16) 0.1192(13) -1.4044(12)
H14 H -1.0923 0.1529 -1.3153
C21 C -0.9362(14) -0.1588(10) -1.3596(12)
H15 H -1.0250 -0.1413 -1.3262
H16 H -0.8719 -0.2184 -1.3029
H17 H -0.9832 -0.1788 -1.4620
loop_
_geom_bond_atom_site_label_1
_geom_bond_atom_site_label_2
_geom_bond_site_symmetry_1
_geom_bond_site_symmetry_2
Br1 C3 1_555 1_555
O1 C15 1_555 1_555
O2 C15 1_555 1_555
O3 C18 1_555 1_555
N1 N2 1_555 1_555
N2 C7 1_555 1_555
C1 H1 1_555 1_555
C2 C1 1_555 1_555
H2 C2 1_555 1_555
C3 C2 1_555 1_555
C4 C3 1_555 1_555
H3 C4 1_555 1_555
C5 C4 1_555 1_555
H4 C5 1_555 1_555
C6 N1 1_555 1_555
C7 H5 1_555 1_555
C8 C7 1_555 1_555
C9 N1 1_555 1_555
C10 C9 1_555 1_555
C11 C10 1_555 1_555
C12 C11 1_555 1_555
C13 C8 1_555 1_555
H6 C13 1_555 1_555
H7 C13 1_555 1_555
C14 C10 1_555 1_555
H8 C14 1_555 1_555
H9 C14 1_555 1_555
H10 C14 1_555 1_555
C15 C11 1_555 1_555
C16 O2 1_555 1_555
H11 C16 1_555 1_555
C17 C16 1_555 1_555
C18 C17 1_555 1_555
H12 C18 1_555 1_555
C19 O3 1_555 1_555
H13 C19 1_555 1_555
C20 C17 1_555 1_555
H14 C20 1_555 1_555
C21 C12 1_555 1_555
H15 C21 1_555 1_555
H16 C21 1_555 1_555
H17 C21 1_555 1_555
C1 C6 1_555 1_555
C5 C6 1_555 1_555
C8 C9 1_555 1_555
C12 C13 1_555 1_555
C12 C16 1_555 1_555
C19 C20 1_555 1_555

#END
