
#######################################################################
#
#                 Cambridge Crystallographic Data Centre
#                                CCDC 
#
#######################################################################
#
# If this CIF has been generated from an entry in the Cambridge 
# Structural Database, then it will include bibliographic, chemical, 
# crystal, experimental, refinement or atomic coordinate data resulting 
# from the CCDC's data processing and validation procedures.
#
#######################################################################

data_FAQHOW
_chemical_name_common            
'Methyl 3-(3,3-bis(methoxycarbonyl)-1-phenylpropyl)-1-((methoxycarbonyl)methyl)-2,5-diphenylimidazolidine-4-carboxylate'
_chemical_formula_moiety         'C33 H36 N2 O8'
_chemical_name_systematic        
'Dimethyl (2-(5-(methoxycarbonyl)-3-(2-methoxy-2-oxoethyl)-2,4-diphenylimidazolidin-1-yl)-2-phenylethyl)malonate'
_symmetry_cell_setting           triclinic
_symmetry_space_group_name_H-M   'P -1'
_symmetry_Int_Tables_number      2
_space_group_name_Hall           '-P 1'
loop_
_symmetry_equiv_pos_site_id
_symmetry_equiv_pos_as_xyz
1 x,y,z
2 -x,-y,-z
_cell_length_a                   9.4106(19)
_cell_length_b                   10.584(2)
_cell_length_c                   18.397(4)
_cell_angle_alpha                97.97(3)
_cell_angle_beta                 94.69(3)
_cell_angle_gamma                113.02(3)
_cell_volume                     1651.48
_cell_formula_units_Z            2
loop_
_atom_site_label
_atom_site_type_symbol
_atom_site_fract_x
_atom_site_fract_y
_atom_site_fract_z
O1 O 0.3147(9) 0.6848(9) 0.1455(5)
O2 O 0.7801(13) 1.2240(10) 0.5262(5)
N1 N 0.5840(10) 1.0293(9) 0.3426(5)
O3 O 0.1616(11) 0.7163(9) 0.2296(5)
C1 C 0.4880(12) 0.8796(11) 0.3142(5)
H1 H 0.3998 0.8454 0.3417
O4 O -0.0086(10) 1.0929(9) 0.2334(5)
O5 O 0.8212(12) 1.2935(10) 0.4174(5)
N2 N 0.3921(10) 1.0104(10) 0.2481(5)
C2 C 0.5235(13) 1.1510(13) 0.1515(6)
O6 O 0.0732(12) 1.1628(12) 0.1303(5)
C3 C 0.3912(15) 1.1370(12) 0.3699(6)
O7 O -0.0246(12) 0.7426(13) 0.0635(7)
C4 C 0.3824(12) 1.0853(12) 0.1886(6)
H2 H 0.3559 1.1618 0.2102
C5 C 0.4302(14) 0.8894(12) 0.2345(6)
H3 H 0.5114 0.9033 0.2025
C6 C 0.7600(16) 1.2062(15) 0.4529(8)
C7 C 0.2370(14) 1.0376(14) 0.3760(7)
H4 H 0.1935 0.9510 0.3444
C8 C 0.4922(12) 1.1056(11) 0.3185(6)
H5 H 0.5634 1.1932 0.3061
C9 C 0.4993(15) 0.6539(13) 0.3267(7)
H6 H 0.4037 0.6084 0.2914
C10 C 0.2394(14) 0.9859(12) 0.1286(6)
H8 H 0.2392 1.0296 0.0857
H9 H 0.2508 0.8994 0.1128
C11 C 0.6380(15) 1.0594(13) 0.4219(6)
H10 H 0.6811 0.9933 0.4329
H11 H 0.5485 1.0434 0.4477
C12 C 0.5720(14) 1.0688(13) 0.1007(6)
H12 H 0.5146 0.9727 0.0877
C13 C 0.0891(13) 0.9536(13) 0.1566(7)
H13 H 0.0986 0.9233 0.2040
C14 C 0.6089(14) 1.2964(12) 0.1650(7)
H14 H 0.5796 1.3527 0.1984
C15 C 0.5767(14) 0.7884(13) 0.3136(6)
C16 C 0.7998(19) 0.7365(19) 0.2986(7)
H15 H 0.9026 0.7664 0.2895
C17 C 0.0464(14) 1.0755(15) 0.1709(8)
C18 C 0.1880(16) 0.5504(13) 0.1115(8)
H16 H 0.2196 0.5082 0.0698
H17 H 0.0970 0.5649 0.0950
H18 H 0.1642 0.4900 0.1473
C19 C 0.7075(15) 1.1341(16) 0.0702(7)
H19 H 0.7488 1.0805 0.0420
C20 C 0.733(2) 1.3561(14) 0.1302(9)
H20 H 0.7870 1.4527 0.1400
C21 C 0.284(2) 0.7526(13) 0.2040(7)
C22 C 0.002(4) 1.259(3) 0.2668(12)
H21 H -0.0416 1.2581 0.3122
H22 H -0.0558 1.2848 0.2308
H23 H 0.1091 1.3246 0.2759
C23 C 0.4438(17) 1.2584(15) 0.4213(7)
H24 H 0.5451 1.3240 0.4226
C24 C -0.046(2) 0.8318(17) 0.1039(8)
C25 C 0.7278(17) 0.8312(15) 0.3002(7)
H25 H 0.7824 0.9215 0.2924
C26 C 0.579(2) 0.5665(17) 0.3224(8)
H26 H 0.5263 0.4750 0.3290
C27 C 0.354(2) 1.2890(17) 0.4719(7)
H27 H 0.3919 1.3760 0.5029
O8 O -0.1816(14) 0.8281(14) 0.1148(8)
C28 C 0.7806(15) 1.2787(18) 0.0819(7)
H28 H 0.8622 1.3221 0.0563
C29 C 0.1576(18) 1.0692(18) 0.4262(7)
H29 H 0.0583 1.0024 0.4276
C30 C -0.339(2) 0.706(2) 0.051(2)
H30 H -0.4342 0.7104 0.0628
H31 H -0.3442 0.6135 0.0521
H32 H -0.3248 0.7253 0.0017
C31 C 0.8955(19) 1.3539(15) 0.5642(8)
H33 H 0.8991 1.3573 0.6167
H34 H 0.8704 1.4282 0.5510
H35 H 0.9954 1.3645 0.5506
C32 C 0.727(2) 0.6070(17) 0.3094(8)
H36 H 0.7773 0.5464 0.3080
C33 C 0.208(2) 1.1902(18) 0.4755(8)
H37 H 0.1481 1.2059 0.5103
H7? H 0.4696 0.6612 0.3758
loop_
_geom_bond_atom_site_label_1
_geom_bond_atom_site_label_2
_geom_bond_site_symmetry_1
_geom_bond_site_symmetry_2
O1 C18 1_555 1_555
O2 C6 1_555 1_555
N1 C1 1_555 1_555
O3 C21 1_555 1_555
C1 H1 1_555 1_555
O4 C17 1_555 1_555
O5 C6 1_555 1_555
N2 C4 1_555 1_555
C2 C4 1_555 1_555
O6 C17 1_555 1_555
C3 C7 1_555 1_555
O7 C24 1_555 1_555
C4 H2 1_555 1_555
C5 C1 1_555 1_555
H3 C5 1_555 1_555
C6 C11 1_555 1_555
C7 H4 1_555 1_555
C8 N1 1_555 1_555
H5 C8 1_555 1_555
C9 H6 1_555 1_555
C10 C4 1_555 1_555
H8 C10 1_555 1_555
H9 C10 1_555 1_555
C11 N1 1_555 1_555
H10 C11 1_555 1_555
H11 C11 1_555 1_555
C12 C2 1_555 1_555
H12 C12 1_555 1_555
C13 C10 1_555 1_555
H13 C13 1_555 1_555
C14 C2 1_555 1_555
H14 C14 1_555 1_555
C15 C1 1_555 1_555
C16 H15 1_555 1_555
C17 C13 1_555 1_555
C18 H16 1_555 1_555
H17 C18 1_555 1_555
H18 C18 1_555 1_555
C19 C12 1_555 1_555
H19 C19 1_555 1_555
C20 C14 1_555 1_555
H20 C20 1_555 1_555
C21 O1 1_555 1_555
C22 O4 1_555 1_555
H21 C22 1_555 1_555
H22 C22 1_555 1_555
H23 C22 1_555 1_555
C23 C3 1_555 1_555
H24 C23 1_555 1_555
C24 C13 1_555 1_555
C25 C15 1_555 1_555
H25 C25 1_555 1_555
C26 C9 1_555 1_555
H26 C26 1_555 1_555
C27 C23 1_555 1_555
H27 C27 1_555 1_555
O8 C24 1_555 1_555
C28 C19 1_555 1_555
H28 C28 1_555 1_555
C29 C7 1_555 1_555
H29 C29 1_555 1_555
C30 O8 1_555 1_555
H30 C30 1_555 1_555
H31 C30 1_555 1_555
H32 C30 1_555 1_555
C31 O2 1_555 1_555
H33 C31 1_555 1_555
H34 C31 1_555 1_555
H35 C31 1_555 1_555
C32 C16 1_555 1_555
H36 C32 1_555 1_555
C33 C27 1_555 1_555
H37 C33 1_555 1_555
N2 C5 1_555 1_555
N2 C8 1_555 1_555
C3 C8 1_555 1_555
C5 C21 1_555 1_555
C9 C15 1_555 1_555
C16 C25 1_555 1_555
C20 C28 1_555 1_555
C26 C32 1_555 1_555
C29 C33 1_555 1_555

#END
