
#######################################################################
#
#                 Cambridge Crystallographic Data Centre
#                                CCDC 
#
#######################################################################
#
# If this CIF has been generated from an entry in the Cambridge 
# Structural Database, then it will include bibliographic, chemical, 
# crystal, experimental, refinement or atomic coordinate data resulting 
# from the CCDC's data processing and validation procedures.
#
#######################################################################

data_FAQJEO01
_chemical_formula_moiety         'C28 H20 N2 S2'
_chemical_name_systematic        
3,3'-diphenyl-2H,2'H-2,2'-bi-1,4-benzothiazine
_symmetry_cell_setting           monoclinic
_symmetry_space_group_name_H-M   'P 21/c'
_symmetry_Int_Tables_number      14
_space_group_name_Hall           '-P 2ybc'
loop_
_symmetry_equiv_pos_site_id
_symmetry_equiv_pos_as_xyz
1 x,y,z
2 -x,1/2+y,1/2-z
3 -x,-y,-z
4 x,1/2-y,1/2+z
_cell_length_a                   5.6611(4)
_cell_length_b                   11.2960(9)
_cell_length_c                   17.3651(15)
_cell_angle_alpha                90
_cell_angle_beta                 95.3000(10)
_cell_angle_gamma                90
_cell_volume                     1105.71
_exptl_crystal_colour            yellow
_exptl_crystal_description       block
_cell_formula_units_Z            2
loop_
_atom_site_label
_atom_site_type_symbol
_atom_site_fract_x
_atom_site_fract_y
_atom_site_fract_z
N1 N 0.6601(4) 0.6775(2) 0.59661(12)
S1 S 0.19310(14) 0.62256(7) 0.50034(4)
C1 C 0.4224(5) 0.5180(2) 0.53255(13)
H1 H 0.3469 0.4466 0.5510
C2 C 0.5738(5) 0.5733(3) 0.60014(14)
C3 C 0.6333(5) 0.4995(2) 0.67034(15)
C4 C 0.4847(6) 0.4112(3) 0.69221(16)
H2 H 0.3385 0.3997 0.6641
C5 C 0.5495(7) 0.3394(3) 0.75520(17)
H3 H 0.4465 0.2810 0.7696
C6 C 0.7635(8) 0.3545(3) 0.79584(18)
H4 H 0.8088 0.3048 0.8373
C7 C 0.9134(7) 0.4423(4) 0.77632(18)
H5 H 1.0593 0.4524 0.8048
C8 C 0.8486(6) 0.5167(3) 0.71400(16)
H6 H 0.9490 0.5776 0.7017
C9 C 0.6005(5) 0.7486(2) 0.53081(15)
C10 C 0.7591(5) 0.8383(2) 0.51468(16)
H7 H 0.8998 0.8475 0.5463
C11 C 0.7103(6) 0.9125(3) 0.45324(19)
H8 H 0.8197 0.9703 0.4425
C12 C 0.4982(7) 0.9024(3) 0.40668(18)
H9 H 0.4645 0.9536 0.3652
C13 C 0.3379(6) 0.8158(3) 0.42241(17)
H10 H 0.1950 0.8092 0.3917
C14 C 0.3882(5) 0.7387(2) 0.48353(16)
N1B N 0.3399(4) 0.3225(2) 0.40339(12)
S1B S 0.80690(14) 0.37744(7) 0.49966(4)
C1B C 0.5776(5) 0.4820(2) 0.46745(13)
H1B H 0.6531 0.5534 0.4490
C2B C 0.4262(5) 0.4267(3) 0.39986(14)
C3B C 0.3667(5) 0.5005(2) 0.32966(15)
C4B C 0.5153(6) 0.5888(3) 0.30779(16)
H2B H 0.6615 0.6003 0.3359
C5B C 0.4505(7) 0.6606(3) 0.24480(17)
H3B H 0.5535 0.7190 0.2304
C6B C 0.2365(8) 0.6455(3) 0.20416(18)
H4B H 0.1912 0.6952 0.1627
C7B C 0.0866(7) 0.5577(4) 0.22368(18)
H5B H -0.0593 0.5476 0.1952
C8B C 0.1514(6) 0.4833(3) 0.28600(16)
H6B H 0.0510 0.4224 0.2983
C9B C 0.3995(5) 0.2514(2) 0.46919(15)
C10B C 0.2409(5) 0.1617(2) 0.48532(16)
H7B H 0.1002 0.1525 0.4537
C11B C 0.2897(6) 0.0875(3) 0.54676(19)
H8B H 0.1803 0.0297 0.5575
C12B C 0.5018(7) 0.0976(3) 0.59332(18)
H9B H 0.5355 0.0464 0.6348
C13B C 0.6621(6) 0.1842(3) 0.57759(17)
H10B H 0.8050 0.1908 0.6083
C14B C 0.6118(5) 0.2613(2) 0.51647(16)
loop_
_geom_bond_atom_site_label_1
_geom_bond_atom_site_label_2
_geom_bond_site_symmetry_1
_geom_bond_site_symmetry_2
N1 C2 1_555 1_555
S1 C1 1_555 1_555
C1 H1 1_555 1_555
C2 C1 1_555 1_555
C3 C2 1_555 1_555
C4 C3 1_555 1_555
H2 C4 1_555 1_555
C5 C4 1_555 1_555
H3 C5 1_555 1_555
C6 C5 1_555 1_555
H4 C6 1_555 1_555
C7 C6 1_555 1_555
H5 C7 1_555 1_555
C8 C3 1_555 1_555
H6 C8 1_555 1_555
C9 N1 1_555 1_555
C10 C9 1_555 1_555
H7 C10 1_555 1_555
C11 C10 1_555 1_555
H8 C11 1_555 1_555
C12 C11 1_555 1_555
H9 C12 1_555 1_555
C13 C12 1_555 1_555
H10 C13 1_555 1_555
C14 S1 1_555 1_555
N1B C2B 1_555 1_555
S1B C1B 1_555 1_555
C1B C1 1_555 1_555
H1B C1B 1_555 1_555
C2B C1B 1_555 1_555
C3B C2B 1_555 1_555
C4B C3B 1_555 1_555
H2B C4B 1_555 1_555
C5B C4B 1_555 1_555
H3B C5B 1_555 1_555
C6B C5B 1_555 1_555
H4B C6B 1_555 1_555
C7B C6B 1_555 1_555
H5B C7B 1_555 1_555
C8B C3B 1_555 1_555
H6B C8B 1_555 1_555
C9B N1B 1_555 1_555
C10B C9B 1_555 1_555
H7B C10B 1_555 1_555
C11B C10B 1_555 1_555
H8B C11B 1_555 1_555
C12B C11B 1_555 1_555
H9B C12B 1_555 1_555
C13B C12B 1_555 1_555
H10B C13B 1_555 1_555
C14B S1B 1_555 1_555
C7 C8 1_555 1_555
C9 C14 1_555 1_555
C13 C14 1_555 1_555
C7B C8B 1_555 1_555
C9B C14B 1_555 1_555
C13B C14B 1_555 1_555

#END
