
#######################################################################
#
#                 Cambridge Crystallographic Data Centre
#                                CCDC 
#
#######################################################################
#
# If this CIF has been generated from an entry in the Cambridge 
# Structural Database, then it will include bibliographic, chemical, 
# crystal, experimental, refinement or atomic coordinate data resulting 
# from the CCDC's data processing and validation procedures.
#
#######################################################################

data_FAQMUH
_chemical_name_common            (E)-4'-Amino-3,4,5-trimethoxystilbene
_chemical_formula_moiety         'C17 H19 N1 O3'
_chemical_name_systematic        
(E)-4-(2-(3,4,5-Trimethoxyphenyl)vinyl)aniline
_symmetry_cell_setting           orthorhombic
_symmetry_space_group_name_H-M   'P n a 21'
_symmetry_Int_Tables_number      33
_space_group_name_Hall           'P 2c -2n'
loop_
_symmetry_equiv_pos_site_id
_symmetry_equiv_pos_as_xyz
1 x,y,z
2 -x,-y,1/2+z
3 1/2+x,1/2-y,z
4 1/2-x,1/2+y,1/2+z
_cell_length_a                   7.5400(9)
_cell_length_b                   15.9876(19)
_cell_length_c                   12.6546(15)
_cell_angle_alpha                90
_cell_angle_beta                 90
_cell_angle_gamma                90
_cell_volume                     1525.47
_chemical_melting_point          '140-142 deg.C'
_cell_formula_units_Z            4
_exptl_crystal_recrystallization_method acetone
loop_
_atom_site_label
_atom_site_type_symbol
_atom_site_fract_x
_atom_site_fract_y
_atom_site_fract_z
N1 N 0.4782(5) 0.3794(2) 0.9686(3)
H1 H 0.5555 0.3475 0.9981
H2 H 0.4292 0.4189 1.0043
O1 O 0.1433(4) 0.48525(16) 0.1071(3)
O2 O 0.0894(4) 0.32783(18) 0.0412(2)
O3 O 0.0874(4) 0.20097(17) 0.1756(2)
C1 C 0.1111(5) 0.3450(3) 0.1475(3)
C2 C 0.1171(5) 0.2789(2) 0.2184(3)
C3 C 0.1485(6) 0.2924(3) 0.3239(3)
H3 H 0.1510 0.2474 0.3704
C4 C 0.1770(6) 0.3737(3) 0.3619(3)
C5 C 0.1719(6) 0.4393(3) 0.2905(3)
H4 H 0.1886 0.4938 0.3142
C6 C 0.1423(6) 0.4246(3) 0.1844(3)
C7 C 0.2218(6) 0.3887(2) 0.4728(4)
H5 H 0.1946 0.4412 0.4998
C8 C 0.2968(6) 0.3353(3) 0.5382(3)
H6 H 0.3263 0.2836 0.5095
C9 C 0.3396(5) 0.3466(3) 0.6496(3)
C10 C 0.4610(6) 0.2940(3) 0.6992(4)
H7 H 0.5120 0.2506 0.6609
C11 C 0.5074(6) 0.3048(3) 0.8034(4)
H8 H 0.5907 0.2693 0.8338
C12 C 0.4325(6) 0.3671(3) 0.8634(3)
C13 C 0.3102(6) 0.4197(3) 0.8148(4)
H9 H 0.2572 0.4622 0.8536
C14 C 0.2671(6) 0.4096(2) 0.7108(3)
H10 H 0.1864 0.4463 0.6802
C15 C 0.2175(7) 0.5649(3) 0.1335(4)
H11 H 0.1456 0.5912 0.1866
H12 H 0.2211 0.5995 0.0716
H13 H 0.3356 0.5573 0.1602
C16 C -0.0809(6) 0.3524(3) 0.0007(4)
H14 H -0.1688 0.3126 0.0226
H15 H -0.0764 0.3542 -0.0751
H16 H -0.1111 0.4067 0.0275
C17 C 0.1214(6) 0.1293(2) 0.2413(4)
H17 H 0.2430 0.1299 0.2639
H18 H 0.0988 0.0791 0.2019
H19 H 0.0452 0.1310 0.3021
loop_
_geom_bond_atom_site_label_1
_geom_bond_atom_site_label_2
_geom_bond_site_symmetry_1
_geom_bond_site_symmetry_2
N1 H1 1_555 1_555
H2 N1 1_555 1_555
O1 C6 1_555 1_555
O2 C1 1_555 1_555
O3 C2 1_555 1_555
C1 C2 1_555 1_555
C2 C3 1_555 1_555
C3 H3 1_555 1_555
C4 C3 1_555 1_555
C5 C4 1_555 1_555
H4 C5 1_555 1_555
C6 C1 1_555 1_555
C7 C4 1_555 1_555
H5 C7 1_555 1_555
C8 C7 1_555 1_555
H6 C8 1_555 1_555
C9 C8 1_555 1_555
C10 C9 1_555 1_555
H7 C10 1_555 1_555
C11 C10 1_555 1_555
H8 C11 1_555 1_555
C12 N1 1_555 1_555
C13 C12 1_555 1_555
H9 C13 1_555 1_555
C14 C9 1_555 1_555
H10 C14 1_555 1_555
C15 O1 1_555 1_555
H11 C15 1_555 1_555
H12 C15 1_555 1_555
H13 C15 1_555 1_555
C16 O2 1_555 1_555
H14 C16 1_555 1_555
H15 C16 1_555 1_555
H16 C16 1_555 1_555
C17 O3 1_555 1_555
H17 C17 1_555 1_555
H18 C17 1_555 1_555
H19 C17 1_555 1_555
C5 C6 1_555 1_555
C11 C12 1_555 1_555
C13 C14 1_555 1_555

#END
