
#######################################################################
#
#                 Cambridge Crystallographic Data Centre
#                                CCDC 
#
#######################################################################
#
# If this CIF has been generated from an entry in the Cambridge 
# Structural Database, then it will include bibliographic, chemical, 
# crystal, experimental, refinement or atomic coordinate data resulting 
# from the CCDC's data processing and validation procedures.
#
#######################################################################

data_FAQQEV
_chemical_formula_moiety         'C14 H13 N3 O2,0.5(C4 H8 O2)'
_chemical_name_systematic        
'3-(Dimethylamino)-4-(1H-indol-3-yl)-1H-pyrrole-2,5-dione ethyl acetate solvate'
_chemical_properties_biological  'Cytotoxic activity'
_symmetry_cell_setting           monoclinic
_symmetry_space_group_name_H-M   'P 21/n'
_symmetry_Int_Tables_number      14
_space_group_name_Hall           '-P 2yn'
loop_
_symmetry_equiv_pos_site_id
_symmetry_equiv_pos_as_xyz
1 x,y,z
2 1/2-x,1/2+y,1/2-z
3 -x,-y,-z
4 1/2+x,1/2-y,1/2+z
_cell_length_a                   13.5807(13)
_cell_length_b                   8.5960(8)
_cell_length_c                   26.395(3)
_cell_angle_alpha                90
_cell_angle_beta                 102.339(2)
_cell_angle_gamma                90
_cell_volume                     3010.17
_exptl_crystal_colour            red
_exptl_crystal_description       prismatic
_chemical_melting_point          '161-163 deg.C'
_cell_formula_units_Z            8
_exptl_crystal_recrystallization_method 'ethyl acetate'
loop_
_atom_site_label
_atom_site_type_symbol
_atom_site_fract_x
_atom_site_fract_y
_atom_site_fract_z
O1 O 0.90456(16) 0.2101(2) 0.49801(7)
O2 O 0.86465(19) -0.1405(2) 0.36776(7)
N1 N 0.8920(2) 0.0062(3) 0.44183(8)
N2 N 0.89780(18) 0.4008(2) 0.40255(7)
N3 N 0.74734(18) 0.2431(3) 0.23238(8)
C1 C 0.8947(2) 0.1591(3) 0.45443(9)
C2 C 0.88491(19) 0.2470(3) 0.40388(9)
C3 C 0.8688(2) 0.1397(3) 0.36469(9)
C4 C 0.8745(2) -0.0135(3) 0.38823(10)
C5 C 0.8367(2) 0.1615(3) 0.30848(9)
C6 C 0.7549(2) 0.2464(3) 0.28448(10)
H1 H 0.7111 0.2986 0.3013
C7 C 0.8236(2) 0.1567(3) 0.22125(9)
C8 C 0.8814(2) 0.1015(3) 0.26817(9)
C9 C 0.9663(2) 0.0112(3) 0.26696(12)
H2 H 1.0067 -0.0262 0.2975
C10 C 0.9890(3) -0.0214(4) 0.21990(14)
H3 H 1.0454 -0.0816 0.2188
C11 C 0.9301(3) 0.0331(4) 0.17414(13)
H4 H 0.9476 0.0088 0.1429
C12 C 0.8464(2) 0.1222(3) 0.17381(10)
H5 H 0.8065 0.1582 0.1429
C13 C 0.8820(3) 0.5059(3) 0.44269(11)
H6 H 0.8578 0.4486 0.4688
H7 H 0.8331 0.5831 0.4279
H8 H 0.9444 0.5559 0.4580
C14 C 0.9189(2) 0.4733(3) 0.35636(10)
H9 H 0.9633 0.4079 0.3420
H10 H 0.9502 0.5726 0.3652
H11 H 0.8570 0.4874 0.3313
H31 H 0.896(2) -0.069(3) 0.4652(11)
H32 H 0.707(2) 0.286(4) 0.2065(10)
O3 O 0.37287(17) 0.7082(2) 0.02634(7)
O4 O 0.31103(17) 0.3476(2) 0.13963(7)
N4 N 0.3562(2) 0.5020(2) 0.07773(9)
N5 N 0.28034(19) 0.8867(2) 0.10106(8)
N6 N 0.2257(2) 0.7183(3) 0.26350(9)
C15 C 0.3492(2) 0.6533(3) 0.06425(9)
C16 C 0.3042(2) 0.7355(3) 0.10473(9)
C17 C 0.28674(19) 0.6246(3) 0.13888(9)
C18 C 0.3163(2) 0.4757(3) 0.12166(9)
C19 C 0.2472(2) 0.6406(3) 0.18609(9)
C20 C 0.2875(2) 0.7239(3) 0.22893(10)
H12 H 0.3484 0.7772 0.2341
C21 C 0.1426(2) 0.6307(3) 0.24305(10)
C22 C 0.1540(2) 0.5794(3) 0.19415(9)
C23 C 0.0781(3) 0.4896(4) 0.16463(12)
H13 H 0.0840 0.4528 0.1323
C24 C -0.0049(3) 0.4560(5) 0.18352(15)
H14 H -0.0564 0.3969 0.1637
C25 C -0.0141(3) 0.5095(4) 0.23278(15)
H15 H -0.0713 0.4841 0.2451
C26 C 0.0584(3) 0.5967(4) 0.26223(12)
H16 H 0.0519 0.6329 0.2946
C27 C 0.3233(3) 0.9966(3) 0.06972(13)
H17 H 0.3807 0.9503 0.0598
H18 H 0.3440 1.0891 0.0895
H19 H 0.2737 1.0228 0.0392
C28 C 0.2079(3) 0.9514(4) 0.12825(13)
H20 H 0.1590 0.8736 0.1315
H21 H 0.1746 1.0385 0.1092
H22 H 0.2421 0.9852 0.1621
H33 H 0.367(2) 0.429(3) 0.0568(11)
H34 H 0.228(3) 0.773(4) 0.2923(10)
O5 O 0.9792(14) 0.741(2) 0.0107(6)
O6 O 0.885(4) 0.516(2) 0.0028(12)
C29 C 0.8775(11) 0.7163(18) 0.0622(6)
H23 H 0.9407 0.7433 0.0845
H24 H 0.8486 0.6292 0.0766
H25 H 0.8324 0.8034 0.0592
C30 C 0.893(2) 0.677(2) 0.0139(10)
C31 C 0.892(5) 0.414(3) 0.0405(15)
H26 H 0.8293 0.4184 0.0527
H27 H 0.9453 0.4469 0.0690
C32 C 0.9104(11) 0.2487(18) 0.0290(6)
H28 H 0.8491 0.1904 0.0259
H29 H 0.9609 0.2063 0.0566
H30 H 0.9331 0.2425 -0.0029
loop_
_geom_bond_atom_site_label_1
_geom_bond_atom_site_label_2
_geom_bond_site_symmetry_1
_geom_bond_site_symmetry_2
O1 C1 1_555 1_555
O2 C4 1_555 1_555
O3 C15 1_555 1_555
O4 C18 1_555 1_555
O5 C30 1_555 1_555
O6 C30 1_555 1_555
N1 C1 1_555 1_555
N2 C2 1_555 1_555
N3 C6 1_555 1_555
N4 C15 1_555 1_555
N5 C16 1_555 1_555
N6 C20 1_555 1_555
C1 C2 1_555 1_555
C2 C3 1_555 1_555
C3 C4 1_555 1_555
C4 N1 1_555 1_555
C5 C3 1_555 1_555
C6 C5 1_555 1_555
H1 C6 1_555 1_555
C7 N3 1_555 1_555
C8 C5 1_555 1_555
C9 C8 1_555 1_555
H2 C9 1_555 1_555
C10 C9 1_555 1_555
H3 C10 1_555 1_555
C11 C10 1_555 1_555
H4 C11 1_555 1_555
C12 C7 1_555 1_555
H5 C12 1_555 1_555
C13 N2 1_555 1_555
H6 C13 1_555 1_555
H7 C13 1_555 1_555
H8 C13 1_555 1_555
C14 N2 1_555 1_555
H9 C14 1_555 1_555
H10 C14 1_555 1_555
H11 C14 1_555 1_555
C15 C16 1_555 1_555
C16 C17 1_555 1_555
C17 C18 1_555 1_555
C18 N4 1_555 1_555
C19 C17 1_555 1_555
C20 C19 1_555 1_555
H12 C20 1_555 1_555
C21 N6 1_555 1_555
C22 C19 1_555 1_555
C23 C22 1_555 1_555
H13 C23 1_555 1_555
C24 C23 1_555 1_555
H14 C24 1_555 1_555
C25 C24 1_555 1_555
H15 C25 1_555 1_555
C26 C21 1_555 1_555
H16 C26 1_555 1_555
C27 N5 1_555 1_555
H17 C27 1_555 1_555
H18 C27 1_555 1_555
H19 C27 1_555 1_555
C28 N5 1_555 1_555
H20 C28 1_555 1_555
H21 C28 1_555 1_555
H22 C28 1_555 1_555
C29 H23 1_555 1_555
H24 C29 1_555 1_555
H25 C29 1_555 1_555
C30 C29 1_555 1_555
C31 O6 1_555 1_555
H26 C31 1_555 1_555
H27 C31 1_555 1_555
C32 C31 1_555 1_555
H28 C32 1_555 1_555
H29 C32 1_555 1_555
H30 C32 1_555 1_555
H31 N1 1_555 1_555
H32 N3 1_555 1_555
H33 N4 1_555 1_555
H34 N6 1_555 1_555
C7 C8 1_555 1_555
C11 C12 1_555 1_555
C21 C22 1_555 1_555
C25 C26 1_555 1_555

#END
