
#######################################################################
#
#                 Cambridge Crystallographic Data Centre
#                                CCDC 
#
#######################################################################
#
# If this CIF has been generated from an entry in the Cambridge 
# Structural Database, then it will include bibliographic, chemical, 
# crystal, experimental, refinement or atomic coordinate data resulting 
# from the CCDC's data processing and validation procedures.
#
#######################################################################

data_FAQTUP
_chemical_formula_moiety         'C13 H19 B10 N1'
_chemical_name_systematic        
1-(6-phenylpyridin-3-yl)-1,2-dicarba-closo-dodecaborane(11)
_symmetry_cell_setting           monoclinic
_symmetry_space_group_name_H-M   'P 21/c'
_symmetry_Int_Tables_number      14
_space_group_name_Hall           '-P 2ybc'
loop_
_symmetry_equiv_pos_site_id
_symmetry_equiv_pos_as_xyz
1 x,y,z
2 -x,1/2+y,1/2-z
3 -x,-y,-z
4 x,1/2-y,1/2+z
_cell_length_a                   14.539(8)
_cell_length_b                   9.429(6)
_cell_length_c                   13.873(8)
_cell_angle_alpha                90
_cell_angle_beta                 117.692(10)
_cell_angle_gamma                90
_cell_volume                     1683.99
_cell_formula_units_Z            4
loop_
_atom_site_label
_atom_site_type_symbol
_atom_site_fract_x
_atom_site_fract_y
_atom_site_fract_z
C1 C 0.12983(12) 0.70010(15) 0.11439(12)
C2 C 0.21833(12) 0.69684(15) 0.08679(12)
N1 N -0.01664(11) 0.82656(14) 0.10804(12)
C3 C -0.21090(13) 0.80430(17) 0.11607(15)
H1 H -0.2156 0.8439 0.0525
C4 C -0.03254(12) 0.71984(16) 0.16232(12)
C5 C 0.02915(12) 0.60028(17) 0.19271(14)
H2 H 0.0161 0.5272 0.2297
C6 C 0.06324(14) 0.81496(17) 0.08598(15)
H3 H 0.0749 0.8893 0.0489
C7 C -0.11527(14) 0.67798(19) 0.28282(15)
H4 H -0.0555 0.6308 0.3316
C8 C -0.12060(12) 0.73490(16) 0.18784(13)
C9 C 0.32191(12) 0.60544(18) 0.16638(13)
H5 H 0.3252 0.5494 0.2375
C10 C -0.29407(15) 0.81485(19) 0.13864(19)
H6 H -0.3547 0.8604 0.0898
C11 C 0.11051(13) 0.58977(17) 0.16776(14)
H7 H 0.1519 0.5090 0.1868
B1 B 0.25312(16) 0.8403(2) 0.03679(17)
H8 H 0.2114 0.9421 0.0177
C12 C -0.19793(16) 0.6909(2) 0.30521(18)
H9 H -0.1931 0.6540 0.3696
B2 B 0.30089(16) 0.5828(2) -0.04038(16)
H10 H 0.2918 0.5168 -0.1096
B3 B 0.30792(17) 0.7712(2) -0.04310(17)
H11 H 0.3030 0.8282 -0.1145
B4 B 0.24124(15) 0.53861(19) 0.04025(15)
H12 H 0.1925 0.4436 0.0248
B5 B 0.19809(15) 0.6886(2) -0.04492(15)
H13 H 0.1211 0.6917 -0.1168
B6 B 0.33092(17) 0.7860(2) 0.17307(17)
H14 H 0.3401 0.8508 0.2430
B7 B 0.38999(18) 0.8302(2) 0.09194(19)
H15 H 0.4388 0.9254 0.1084
C13 C -0.28710(15) 0.7580(2) 0.23304(19)
H16 H -0.3430 0.7651 0.2480
B8 B 0.41958(17) 0.6714(2) 0.04420(18)
H17 H 0.4876 0.6630 0.0297
B9 B 0.37735(16) 0.5275(2) 0.09624(19)
H18 H 0.4178 0.4248 0.1171
B10 B 0.43174(17) 0.6802(3) 0.17736(18)
H19 H 0.5075 0.6760 0.2508
loop_
_geom_bond_atom_site_label_1
_geom_bond_atom_site_label_2
_geom_bond_site_symmetry_1
_geom_bond_site_symmetry_2
C1 C2 1_555 1_555
C2 C9 1_555 1_555
N1 C4 1_555 1_555
C3 H1 1_555 1_555
C4 C5 1_555 1_555
C5 H2 1_555 1_555
C6 C1 1_555 1_555
H3 C6 1_555 1_555
C7 H4 1_555 1_555
C8 C3 1_555 1_555
C9 H5 1_555 1_555
C10 C3 1_555 1_555
H6 C10 1_555 1_555
C11 C1 1_555 1_555
H7 C11 1_555 1_555
B1 C2 1_555 1_555
H8 B1 1_555 1_555
C12 C7 1_555 1_555
H9 C12 1_555 1_555
B2 H10 1_555 1_555
B3 B1 1_555 1_555
H11 B3 1_555 1_555
B4 C2 1_555 1_555
H12 B4 1_555 1_555
B5 C2 1_555 1_555
H13 B5 1_555 1_555
B6 C2 1_555 1_555
H14 B6 1_555 1_555
B7 B1 1_555 1_555
H15 B7 1_555 1_555
C13 C10 1_555 1_555
H16 C13 1_555 1_555
B8 B2 1_555 1_555
H17 B8 1_555 1_555
B9 C9 1_555 1_555
H18 B9 1_555 1_555
B10 C9 1_555 1_555
H19 B10 1_555 1_555
N1 C6 1_555 1_555
C4 C8 1_555 1_555
C5 C11 1_555 1_555
C7 C8 1_555 1_555
C9 B4 1_555 1_555
C9 B6 1_555 1_555
B1 B5 1_555 1_555
B1 B6 1_555 1_555
C12 C13 1_555 1_555
B2 B3 1_555 1_555
B2 B4 1_555 1_555
B2 B5 1_555 1_555
B2 B9 1_555 1_555
B3 B5 1_555 1_555
B3 B7 1_555 1_555
B3 B8 1_555 1_555
B4 B5 1_555 1_555
B4 B9 1_555 1_555
B6 B7 1_555 1_555
B6 B10 1_555 1_555
B7 B8 1_555 1_555
B7 B10 1_555 1_555
B8 B9 1_555 1_555
B8 B10 1_555 1_555
B9 B10 1_555 1_555

#END
