
#######################################################################
#
#                 Cambridge Crystallographic Data Centre
#                                CCDC 
#
#######################################################################
#
# If this CIF has been generated from an entry in the Cambridge 
# Structural Database, then it will include bibliographic, chemical, 
# crystal, experimental, refinement or atomic coordinate data resulting 
# from the CCDC's data processing and validation procedures.
#
#######################################################################

data_FAQVAX
_chemical_formula_moiety         'C14 H21 B10 N1'
_chemical_name_systematic        
1-(6-phenylpyridin-3-yl)-2-methyl-1,2-dicarba-closo-dodecaborane(10)
_symmetry_cell_setting           monoclinic
_symmetry_space_group_name_H-M   'P 21/c'
_symmetry_Int_Tables_number      14
_space_group_name_Hall           '-P 2ybc'
loop_
_symmetry_equiv_pos_site_id
_symmetry_equiv_pos_as_xyz
1 x,y,z
2 -x,1/2+y,1/2-z
3 -x,-y,-z
4 x,1/2-y,1/2+z
_cell_length_a                   14.353(5)
_cell_length_b                   9.372(3)
_cell_length_c                   14.690(5)
_cell_angle_alpha                90
_cell_angle_beta                 118.501(5)
_cell_angle_gamma                90
_cell_volume                     1736.57
_exptl_crystal_colour            white
_exptl_crystal_description       powder
_cell_formula_units_Z            4
loop_
_atom_site_label
_atom_site_type_symbol
_atom_site_fract_x
_atom_site_fract_y
_atom_site_fract_z
C1 C 0.53372(19) 0.3915(2) 0.33431(17)
B1 B 0.9327(2) 0.3239(3) 0.74706(19)
N1 N 0.47762(17) 0.1709(2) 0.37445(14)
C2 C 0.62810(19) 0.2975(2) 0.50578(16)
C3 C 0.5567(2) 0.1838(2) 0.47164(17)
C4 C 0.3029(2) 0.3004(3) 0.01517(19)
C5 C 0.71374(19) 0.3093(2) 0.61712(16)
C6 C 0.3785(2) 0.2572(2) 0.19915(17)
B2 B 0.6839(2) 0.3189(3) 0.71607(19)
C7 C 0.8311(2) 0.2233(2) 0.65725(16)
C8 C 0.2840(2) 0.1906(2) 0.18068(18)
C9 C 0.3864(2) 0.3126(2) 0.11471(17)
C10 C 0.46660(19) 0.2729(2) 0.30639(17)
C11 C 0.1999(2) 0.1821(3) 0.0810(2)
B3 B 0.8822(2) 0.1737(3) 0.78327(19)
C12 C 0.6142(2) 0.4032(2) 0.43462(17)
B4 B 0.7911(2) 0.2356(3) 0.8233(2)
B5 B 0.7443(2) 0.1640(3) 0.69762(19)
B6 B 0.8255(2) 0.4042(3) 0.63949(19)
B7 B 0.7341(2) 0.4693(3) 0.67924(19)
B8 B 0.8722(2) 0.4790(3) 0.76398(19)
C13 C 0.8446(2) 0.1320(3) 0.57975(19)
B9 B 0.7855(2) 0.4250(3) 0.8125(2)
C14 C 0.2092(2) 0.2368(3) -0.00144(19)
B10 B 0.9079(2) 0.3353(3) 0.85389(19)
H1 H 0.974(2) 0.347(3) 0.9384(17)
H2 H 0.602(2) 0.313(2) 0.6943(17)
H3 H 0.928(2) 0.073(3) 0.8086(17)
H4 H 0.706(2) 0.062(3) 0.6651(19)
H5 H 1.013(2) 0.316(2) 0.7476(17)
H6 H 0.7681(19) 0.491(3) 0.8629(17)
H7 H 0.780(2) 0.174(3) 0.8782(19)
H8 H 0.6808(19) 0.559(3) 0.6356(17)
H9 H 0.913(2) 0.584(3) 0.7831(19)
H10 H 0.8340(17) 0.446(2) 0.5757(16)
H11 H 0.278(2) 0.152(3) 0.2417(18)
H12 H 0.452(2) 0.361(3) 0.1255(19)
H13 H 0.148(2) 0.227(3) -0.074(2)
H14 H 0.309(2) 0.338(3) -0.0407(19)
H15 H 0.564(2) 0.110(3) 0.5188(18)
H16 H 0.660(2) 0.486(3) 0.4534(19)
H17 H 0.777(2) 0.119(3) 0.5161(19)
H18 H 0.872(2) 0.040(3) 0.607(2)
H19 H 0.897(3) 0.176(3) 0.562(2)
H20 H 0.522(2) 0.463(3) 0.2781(19)
H21 H 0.132(2) 0.143(3) 0.0713(19)
loop_
_geom_bond_atom_site_label_1
_geom_bond_atom_site_label_2
_geom_bond_site_symmetry_1
_geom_bond_site_symmetry_2
C1 C10 1_555 1_555
B1 C7 1_555 1_555
N1 C3 1_555 1_555
C2 C3 1_555 1_555
C3 H15 1_555 1_555
C4 C9 1_555 1_555
C5 C2 1_555 1_555
C6 C8 1_555 1_555
B2 C5 1_555 1_555
C7 C5 1_555 1_555
C8 C11 1_555 1_555
C9 C6 1_555 1_555
C10 N1 1_555 1_555
C11 C14 1_555 1_555
B3 B1 1_555 1_555
C12 C1 1_555 1_555
B4 B2 1_555 1_555
B5 C5 1_555 1_555
B6 B1 1_555 1_555
B7 C5 1_555 1_555
B8 B1 1_555 1_555
C13 C7 1_555 1_555
B9 B2 1_555 1_555
C14 C4 1_555 1_555
B10 B1 1_555 1_555
H1 B10 1_555 1_555
H2 B2 1_555 1_555
H3 B3 1_555 1_555
H4 B5 1_555 1_555
H5 B1 1_555 1_555
H6 B9 1_555 1_555
H7 B4 1_555 1_555
H8 B7 1_555 1_555
H9 B8 1_555 1_555
H10 B6 1_555 1_555
H11 C8 1_555 1_555
H12 C9 1_555 1_555
H13 C14 1_555 1_555
H14 C4 1_555 1_555
H16 C12 1_555 1_555
H17 C13 1_555 1_555
H18 C13 1_555 1_555
H19 C13 1_555 1_555
H20 C1 1_555 1_555
H21 C11 1_555 1_555
C2 C12 1_555 1_555
C5 B6 1_555 1_555
C6 C10 1_555 1_555
B2 B5 1_555 1_555
B2 B7 1_555 1_555
C7 B3 1_555 1_555
C7 B5 1_555 1_555
C7 B6 1_555 1_555
B3 B4 1_555 1_555
B3 B5 1_555 1_555
B3 B10 1_555 1_555
B4 B5 1_555 1_555
B4 B9 1_555 1_555
B4 B10 1_555 1_555
B6 B7 1_555 1_555
B6 B8 1_555 1_555
B7 B8 1_555 1_555
B7 B9 1_555 1_555
B8 B9 1_555 1_555
B8 B10 1_555 1_555
B9 B10 1_555 1_555

#END
