
#######################################################################
#
#                 Cambridge Crystallographic Data Centre
#                                CCDC 
#
#######################################################################
#
# If this CIF has been generated from an entry in the Cambridge 
# Structural Database, then it will include bibliographic, chemical, 
# crystal, experimental, refinement or atomic coordinate data resulting 
# from the CCDC's data processing and validation procedures.
#
#######################################################################

data_FAQVEB
_chemical_formula_moiety         'C26 H30 B10 N2'
_chemical_name_systematic        
1-(6-[4-(diphenylamino)phenyl]pyridin-3-yl)-2-methyl-1,2-dicarba-closo-dodecaborane(10)
_symmetry_cell_setting           orthorhombic
_symmetry_space_group_name_H-M   'P b c n'
_symmetry_Int_Tables_number      60
_space_group_name_Hall           '-P 2n 2ab'
loop_
_symmetry_equiv_pos_site_id
_symmetry_equiv_pos_as_xyz
1 x,y,z
2 1/2-x,1/2-y,1/2+z
3 -x,y,1/2-z
4 1/2+x,1/2-y,-z
5 -x,-y,-z
6 1/2+x,1/2+y,1/2-z
7 x,-y,1/2+z
8 1/2-x,1/2+y,z
_cell_length_a                   17.088(2)
_cell_length_b                   14.6490(17)
_cell_length_c                   21.164(3)
_cell_angle_alpha                90
_cell_angle_beta                 90
_cell_angle_gamma                90
_cell_volume                     5297.82
_exptl_crystal_colour            yellow
_exptl_crystal_description       powder
_cell_formula_units_Z            8
loop_
_atom_site_label
_atom_site_type_symbol
_atom_site_fract_x
_atom_site_fract_y
_atom_site_fract_z
H1 H 1.4789(19) 0.212(2) 0.1727(14)
H2 H 1.4248(18) 0.385(2) 0.2402(16)
H3 H 1.4519(19) 0.392(2) 0.1062(15)
H4 H 0.7962(19) 0.420(2) 0.0149(16)
H5 H 1.1704(19) 0.382(2) 0.0461(17)
H6 H 1.402(2) 0.215(3) 0.0542(19)
H7 H 1.347(2) 0.113(3) 0.163(2)
H8 H 1.363(2) 0.206(3) 0.275(2)
H9 H 0.784(2) 0.560(2) 0.1824(17)
H10 H 0.5989(15) 0.506(2) 0.0010(15)
H11 H 0.725(2) 0.666(3) 0.089(2)
H12 H 0.926(2) 0.414(3) 0.020(2)
H13 H 0.532(2) 0.238(3) -0.0157(18)
H14 H 0.615(2) 0.212(3) 0.0788(19)
H15 H 1.2337(19) 0.206(2) 0.0731(16)
H16 H 0.6923(16) 0.323(2) 0.1260(14)
H17 H 1.1963(17) 0.206(2) 0.2089(15)
H18 H 1.2614(16) 0.381(2) 0.2560(14)
H19 H 1.1407(19) 0.393(2) 0.2363(18)
H20 H 1.3055(17) 0.386(2) 0.0468(16)
C1 C 1.32000(19) 0.4987(2) 0.1617(2)
H21 H 1.3429 0.5251 0.1245
H22 H 1.3451 0.5232 0.1985
H23 H 1.2652 0.5129 0.1629
C2 C 0.5660(2) 0.2882(4) 0.0078(2)
C3 C 0.5596(2) 0.3757(4) -0.01371(19)
B1 B 1.3762(2) 0.2443(3) 0.0953(2)
B2 B 1.2575(2) 0.2343(3) 0.1902(3)
B3 B 1.3500(2) 0.2388(3) 0.2275(3)
C4 C 0.6145(2) 0.2684(3) 0.0566(2)
B4 B 1.2737(2) 0.2374(3) 0.1081(3)
B5 B 1.3398(2) 0.1778(3) 0.1570(3)
B6 B 1.4234(2) 0.2447(3) 0.1685(2)
C5 C 1.1420(2) 0.3959(3) 0.0798(2)
B7 B 1.39423(19) 0.3437(3) 0.2088(2)
B8 B 1.31839(18) 0.3434(3) 0.08938(19)
C6 C 0.6797(2) 0.6591(2) 0.1161(2)
B9 B 1.41008(18) 0.3473(3) 0.1273(2)
B10 B 1.2919(2) 0.3369(3) 0.22144(18)
C7 C 0.81912(17) 0.4479(3) 0.05202(17)
C8 C 1.06823(16) 0.4266(2) 0.07200(16)
H24 H 1.0495 0.4368 0.0314
C9 C 1.12286(15) 0.3976(2) 0.18949(19)
C10 C 0.89839(17) 0.4350(3) 0.05903(19)
C11 C 0.65720(19) 0.3372(2) 0.08595(19)
C12 C 0.93819(15) 0.4662(2) 0.11191(14)
C13 C 1.17146(14) 0.3778(2) 0.13897(15)
N1 N 1.04875(14) 0.4299(2) 0.17950(16)
C14 C 1.02179(15) 0.4424(2) 0.12106(17)
C15 C 0.65094(15) 0.4257(2) 0.06360(15)
C16 C 1.33059(14) 0.3973(2) 0.16020(15)
C17 C 0.77612(15) 0.4907(2) 0.09899(15)
C18 C 0.65175(15) 0.5710(2) 0.12025(15)
C19 C 0.89566(16) 0.5119(2) 0.15694(15)
H25 H 0.9212 0.5348 0.1923
C20 C 0.81577(16) 0.5249(2) 0.15109(16)
N2 N 0.69404(13) 0.49802(17) 0.09345(14)
C21 C 1.24953(13) 0.33336(19) 0.14836(14)
C22 C 0.60209(17) 0.4445(3) 0.01420(17)
C23 C 0.58132(19) 0.5549(3) 0.15018(16)
C24 C 0.5666(2) 0.7143(4) 0.1699(2)
C25 C 0.5390(2) 0.6284(4) 0.17309(19)
C26 C 0.6375(3) 0.7303(3) 0.1419(2)
H26 H 0.558(2) 0.499(3) 0.1507(16)
H27 H 0.538(2) 0.767(3) 0.187(2)
H28 H 0.527(2) 0.393(3) -0.056(2)
H29 H 0.660(3) 0.783(4) 0.138(2)
H30 H 0.485(3) 0.615(3) 0.191(2)
loop_
_geom_bond_atom_site_label_1
_geom_bond_atom_site_label_2
_geom_bond_site_symmetry_1
_geom_bond_site_symmetry_2
H1 B6 1_555 1_555
H2 B7 1_555 1_555
H3 B9 1_555 1_555
H4 C7 1_555 1_555
H5 C5 1_555 1_555
H6 B1 1_555 1_555
H7 B5 1_555 1_555
H8 B3 1_555 1_555
H9 C20 1_555 1_555
H10 C22 1_555 1_555
H11 C6 1_555 1_555
H12 C10 1_555 1_555
H13 C2 1_555 1_555
H14 C4 1_555 1_555
H15 B4 1_555 1_555
H16 C11 1_555 1_555
H17 B2 1_555 1_555
H18 B10 1_555 1_555
H19 C9 1_555 1_555
H20 B8 1_555 1_555
C1 H21 1_555 1_555
H22 C1 1_555 1_555
H23 C1 1_555 1_555
C2 C3 1_555 1_555
C3 C22 1_555 1_555
B1 B4 1_555 1_555
B2 B3 1_555 1_555
B3 B5 1_555 1_555
C4 C2 1_555 1_555
B4 B2 1_555 1_555
B5 B1 1_555 1_555
B6 B1 1_555 1_555
C5 C8 1_555 1_555
B7 B3 1_555 1_555
B8 B1 1_555 1_555
C6 C18 1_555 1_555
B9 B1 1_555 1_555
B10 B2 1_555 1_555
C7 C10 1_555 1_555
C8 H24 1_555 1_555
C9 C13 1_555 1_555
C10 C12 1_555 1_555
C11 C4 1_555 1_555
C12 C14 1_555 1_555
C13 C5 1_555 1_555
N1 C9 1_555 1_555
C14 C8 1_555 1_555
C15 C11 1_555 1_555
C16 C1 1_555 1_555
C17 C7 1_555 1_555
C18 N2 1_555 1_555
C19 C12 1_555 1_555
H25 C19 1_555 1_555
C20 C17 1_555 1_555
N2 C15 1_555 1_555
C21 B2 1_555 1_555
C22 C15 1_555 1_555
C23 C18 1_555 1_555
C24 C25 1_555 1_555
C25 C23 1_555 1_555
C26 C6 1_555 1_555
H26 C23 1_555 1_555
H27 C24 1_555 1_555
H28 C3 1_555 1_555
H29 C26 1_555 1_555
H30 C25 1_555 1_555
B2 B5 1_555 1_555
B3 B6 1_555 1_555
B3 B10 1_555 1_555
B4 B5 1_555 1_555
B4 B8 1_555 1_555
B4 C21 1_555 1_555
B5 B6 1_555 1_555
B6 B7 1_555 1_555
B6 B9 1_555 1_555
B7 B9 1_555 1_555
B7 B10 1_555 1_555
B7 C16 1_555 1_555
B8 B9 1_555 1_555
B8 C16 1_555 1_555
B8 C21 1_555 1_555
B9 C16 1_555 1_555
B10 C16 1_555 1_555
B10 C21 1_555 1_555
C13 C21 1_555 1_555
N1 C14 1_555 1_555
C16 C21 1_555 1_555
C17 N2 1_555 1_555
C19 C20 1_555 1_555
C24 C26 1_555 1_555

#END
