
#######################################################################
#
#                 Cambridge Crystallographic Data Centre
#                                CCDC 
#
#######################################################################
#
# If this CIF has been generated from an entry in the Cambridge 
# Structural Database, then it will include bibliographic, chemical, 
# crystal, experimental, refinement or atomic coordinate data resulting 
# from the CCDC's data processing and validation procedures.
#
#######################################################################

data_FAQXIH
_chemical_formula_moiety         'C4 H3 N9 O4,H2 O1'
_chemical_name_systematic        
'3,4-dinitro-1-(2H-tetrazol-5-yl)-1H-pyrazol-5-amine monohydrate'
_symmetry_cell_setting           monoclinic
_symmetry_space_group_name_H-M   'P 21/c'
_symmetry_Int_Tables_number      14
_space_group_name_Hall           '-P 2ybc'
loop_
_symmetry_equiv_pos_site_id
_symmetry_equiv_pos_as_xyz
1 x,y,z
2 -x,1/2+y,1/2-z
3 -x,-y,-z
4 x,1/2-y,1/2+z
_cell_length_a                   4.7451(9)
_cell_length_b                   7.1473(14)
_cell_length_c                   27.902(6)
_cell_angle_alpha                90
_cell_angle_beta                 90.22(3)
_cell_angle_gamma                90
_cell_volume                     946.28
_exptl_crystal_colour            colorless
_exptl_crystal_description       block
_cell_formula_units_Z            4
loop_
_atom_site_label
_atom_site_type_symbol
_atom_site_fract_x
_atom_site_fract_y
_atom_site_fract_z
O1 O 0.4110(6) 0.3181(4) 0.32335(10)
O2 O 0.6162(6) 0.5299(4) 0.25078(9)
N1 N 0.8624(6) 1.0104(4) 0.33264(10)
H1 H 0.9316 0.9994 0.3032
H2 H 0.8024 1.1203 0.3436
N2 N 0.4890(6) 0.8824(4) 0.38038(10)
O3 O 0.0329(6) 0.4198(4) 0.35921(10)
C1 C 0.6720(7) 0.8772(5) 0.34206(11)
O4 O 0.9550(6) 0.7299(4) 0.26297(10)
N3 N 0.3212(6) 0.7256(4) 0.38326(10)
N4 N 0.2674(7) 1.0212(4) 0.44882(11)
N5 N 0.3265(7) 1.1840(4) 0.47058(11)
H3 H 0.2481 1.2310 0.4969
N6 N 0.2692(6) 0.4406(4) 0.34187(10)
N7 N 0.7320(6) 0.6514(4) 0.27471(10)
C2 C 0.4615(7) 1.0233(5) 0.41480(11)
N8 N 0.6289(7) 1.1746(5) 0.41525(11)
N9 N 0.5345(7) 1.2767(5) 0.45164(11)
C3 C 0.6109(7) 0.7091(5) 0.31872(12)
C4 C 0.3951(7) 0.6254(5) 0.34608(12)
O5 O -0.1273(7) 0.6449(5) 0.45367(11)
H4 H -0.0155 0.6645 0.4310
H5 H -0.1820 0.5342 0.4496
loop_
_geom_bond_atom_site_label_1
_geom_bond_atom_site_label_2
_geom_bond_site_symmetry_1
_geom_bond_site_symmetry_2
O1 N6 1_555 1_555
O2 N7 1_555 1_555
N1 H1 1_555 1_555
H2 N1 1_555 1_555
N2 C1 1_555 1_555
O3 N6 1_555 1_555
C1 N1 1_555 1_555
O4 N7 1_555 1_555
N3 N2 1_555 1_555
N4 N5 1_555 1_555
N5 H3 1_555 1_555
N6 C4 1_555 1_555
N7 C3 1_555 1_555
C2 N2 1_555 1_555
N8 C2 1_555 1_555
N9 N5 1_555 1_555
C3 C1 1_555 1_555
C4 N3 1_555 1_555
O5 H4 1_555 1_555
H5 O5 1_555 1_555
N4 C2 1_555 1_555
N8 N9 1_555 1_555
C3 C4 1_555 1_555

#END
