
#######################################################################
#
#                 Cambridge Crystallographic Data Centre
#                                CCDC 
#
#######################################################################
#
# If this CIF has been generated from an entry in the Cambridge 
# Structural Database, then it will include bibliographic, chemical, 
# crystal, experimental, refinement or atomic coordinate data resulting 
# from the CCDC's data processing and validation procedures.
#
#######################################################################

data_FAQXON
_chemical_formula_moiety         'C4 H2 N9 O4 1-,C1 H6 N3 1+'
_chemical_name_systematic        
'guanidinium 5-(5-amino-3,4-dinitro-1H-pyrazol-1-yl)tetrazol-1-ide'
_symmetry_cell_setting           orthorhombic
_symmetry_space_group_name_H-M   'P n a 21'
_symmetry_Int_Tables_number      33
_space_group_name_Hall           'P 2c -2n'
loop_
_symmetry_equiv_pos_site_id
_symmetry_equiv_pos_as_xyz
1 x,y,z
2 -x,-y,1/2+z
3 1/2-x,1/2+y,1/2+z
4 1/2+x,1/2-y,z
_cell_length_a                   8.2623(7)
_cell_length_b                   24.641(2)
_cell_length_c                   5.6882(4)
_cell_angle_alpha                90
_cell_angle_beta                 90
_cell_angle_gamma                90
_cell_volume                     1158.07
_exptl_crystal_colour            yellow
_exptl_crystal_description       block
_cell_formula_units_Z            4
loop_
_atom_site_label
_atom_site_type_symbol
_atom_site_fract_x
_atom_site_fract_y
_atom_site_fract_z
N1 N -0.5281(2) -0.37019(7) -0.1805(3)
O1 O -0.40622(15) -0.47668(6) -0.4081(2)
N2 N -0.3536(2) -0.36556(6) 0.1456(3)
O2 O -0.62316(18) -0.39978(6) -0.2820(3)
O3 O -0.26496(17) -0.52959(6) -0.1803(3)
N3 N -0.24355(18) -0.39901(6) 0.2555(3)
N4 N -0.1766(2) -0.33067(7) 0.5393(3)
N5 N -0.33777(19) -0.48632(7) -0.2220(3)
O4 O -0.53061(18) -0.32016(6) -0.1898(3)
N6 N -0.0793(2) -0.33097(7) 0.7310(3)
N7 N -0.0126(2) -0.37887(6) 0.7557(3)
N8 N -0.06399(19) -0.41217(7) 0.5813(3)
N9 N -0.1251(2) -0.48623(7) 0.2194(3)
H1 H -0.0638 -0.4804 0.3389
H2 H -0.1197 -0.5167 0.1459
C1 C -0.1629(2) -0.38053(8) 0.4575(3)
C2 C -0.2275(2) -0.44841(8) 0.1486(3)
C3 C -0.3319(2) -0.44641(8) -0.0444(3)
C4 C -0.4041(2) -0.39468(8) -0.0320(3)
C5 C 0.1856(2) -0.30099(8) 0.2286(3)
N10 N 0.1156(2) -0.26709(7) 0.0785(3)
H3 H 0.1192 -0.2327 0.1033
H4 H 0.0666 -0.2795 -0.0435
N11 N 0.2609(2) -0.28162(7) 0.4161(3)
H5 H 0.2643 -0.2472 0.4403
H6 H 0.3064 -0.3035 0.5137
N12 N 0.1814(2) -0.35413(7) 0.1897(3)
H7 H 0.2276 -0.3760 0.2864
H8 H 0.1324 -0.3666 0.0677
loop_
_geom_bond_atom_site_label_1
_geom_bond_atom_site_label_2
_geom_bond_site_symmetry_1
_geom_bond_site_symmetry_2
N1 O2 1_555 1_555
O1 N5 1_555 1_555
N2 N3 1_555 1_555
O3 N5 1_555 1_555
N3 C1 1_555 1_555
N4 N6 1_555 1_555
N5 C3 1_555 1_555
O4 N1 1_555 1_555
N6 N7 1_555 1_555
N7 N8 1_555 1_555
N8 C1 1_555 1_555
N9 H1 1_555 1_555
H2 N9 1_555 1_555
C1 N4 1_555 1_555
C2 N3 1_555 1_555
C3 C2 1_555 1_555
C4 N1 1_555 1_555
C5 N10 1_555 1_555
N10 H3 1_555 1_555
H4 N10 1_555 1_555
N11 C5 1_555 1_555
H5 N11 1_555 1_555
H6 N11 1_555 1_555
N12 C5 1_555 1_555
H7 N12 1_555 1_555
H8 N12 1_555 1_555
N2 C4 1_555 1_555
N9 C2 1_555 1_555
C3 C4 1_555 1_555

#END
