
#######################################################################
#
#                 Cambridge Crystallographic Data Centre
#                                CCDC 
#
#######################################################################
#
# If this CIF has been generated from an entry in the Cambridge 
# Structural Database, then it will include bibliographic, chemical, 
# crystal, experimental, refinement or atomic coordinate data resulting 
# from the CCDC's data processing and validation procedures.
#
#######################################################################

data_FAQYIF
_chemical_formula_moiety         'C51 H56'
_chemical_name_systematic        
7-t-Butyl-5,10,11-tris(4-t-butylphenyl)-11H-benzo(b)fluorene
_symmetry_cell_setting           triclinic
_symmetry_space_group_name_H-M   'P -1'
_symmetry_Int_Tables_number      2
_space_group_name_Hall           '-P 1'
loop_
_symmetry_equiv_pos_site_id
_symmetry_equiv_pos_as_xyz
1 x,y,z
2 -x,-y,-z
_cell_length_a                   6.172(1)
_cell_length_b                   18.118(4)
_cell_length_c                   20.470(2)
_cell_angle_alpha                65.77(1)
_cell_angle_beta                 84.18(1)
_cell_angle_gamma                85.78(1)
_cell_volume                     2075.34
_exptl_crystal_colour            white
_chemical_melting_point          288-290deg.C
_cell_formula_units_Z            2
_exptl_crystal_recrystallization_method methanol/dichloromethane
loop_
_atom_site_label
_atom_site_type_symbol
_atom_site_fract_x
_atom_site_fract_y
_atom_site_fract_z
C1 C 0.0769(12) -0.3493(4) 0.2003(4)
C2 C 0.2060(12) -0.3591(4) 0.2549(4)
C3 C 0.3059(13) -0.4315(4) 0.3084(4)
C4 C 0.2935(12) -0.5131(5) 0.3254(4)
H1 H 0.2066(12) -0.5307(5) 0.3005(4)
C5 C 0.4101(14) -0.5684(5) 0.3795(4)
H2 H 0.4009(14) -0.6234(5) 0.3909(4)
C6 C 0.5401(15) -0.5437(5) 0.4171(4)
H3 H 0.6197(15) -0.5820(5) 0.4529(4)
C7 C 0.5531(13) -0.4621(5) 0.4018(4)
H4 H 0.6403(13) -0.4452(5) 0.4272(4)
C8 C 0.4343(13) -0.4065(4) 0.3483(4)
C9 C 0.4217(12) -0.3150(4) 0.3228(4)
H5 H 0.5659(12) -0.2935(4) 0.3021(4)
C10 C 0.2685(12) -0.2888(4) 0.2634(4)
C11 C 0.2054(12) -0.2121(4) 0.2211(4)
C12 C 0.0717(12) -0.2020(4) 0.1653(3)
C13 C 0.0039(11) -0.1235(4) 0.1164(4)
H6 H 0.0454(11) -0.0783(4) 0.1222(4)
C14 C -0.1206(12) -0.1126(4) 0.0613(4)
H7 H -0.1599(12) -0.0602(4) 0.0304(4)
C15 C -0.1916(13) -0.1790(5) 0.0497(4)
C16 C -0.1289(12) -0.2539(5) 0.0958(4)
H8 H -0.1755(12) -0.2981(5) 0.0896(4)
C17 C 0.0047(12) -0.2692(4) 0.1534(4)
C18 C 0.0139(13) -0.4187(4) 0.1865(4)
C19 C 0.1399(14) -0.4481(4) 0.1433(4)
H9 H 0.2725(14) -0.4249(4) 0.1220(4)
C20 C 0.0726(15) -0.5127(5) 0.1308(4)
H10 H 0.1621(15) -0.5303(5) 0.1002(4)
C21 C -0.1156(16) -0.5513(4) 0.1605(5)
C22 C -0.2440(15) -0.5210(5) 0.2037(5)
H11 H -0.3772(15) -0.5440(5) 0.2244(5)
C23 C -0.1805(14) -0.4574(5) 0.2170(4)
H12 H -0.2707(14) -0.4398(5) 0.2475(4)
C24 C -0.1871(17) -0.6205(5) 0.1437(5)
C25 C -0.3813(17) -0.6642(5) 0.1923(5)
H13 H -0.5069(28) -0.6279(12) 0.1833(23)
H14 H -0.3502(40) -0.6821(32) 0.2416(5)
H15 H -0.4096(62) -0.7101(21) 0.1828(23)
C26 C -0.0100(17) -0.6839(6) 0.1577(7)
H16 H 0.1090(52) -0.6641(17) 0.1218(22)
H17 H -0.0640(37) -0.7314(17) 0.1562(40)
H18 H 0.0395(82) -0.6971(31) 0.2043(16)
C27 C -0.2533(25) -0.5878(6) 0.0689(5)
H19 H -0.350(12) -0.5413(37) 0.0607(17)
H20 H -0.327(15) -0.6286(22) 0.0618(17)
H21 H -0.1263(25) -0.5723(54) 0.0357(5)
C28 C 0.3472(13) -0.2891(4) 0.3831(4)
C29 C 0.1378(13) -0.3056(4) 0.4173(4)
H22 H 0.0449(13) -0.3341(4) 0.4037(4)
C30 C 0.0675(13) -0.2799(4) 0.4714(4)
H23 H -0.0737(13) -0.2908(4) 0.4926(4)
C31 C 0.2000(14) -0.2382(4) 0.4953(4)
C32 C 0.4058(14) -0.2227(4) 0.4613(4)
H24 H 0.4996(14) -0.1949(4) 0.4753(4)
C33 C 0.4780(12) -0.2476(4) 0.4063(4)
H25 H 0.6185(12) -0.2358(4) 0.3847(4)
C34 C 0.1126(15) -0.2076(5) 0.5532(4)
C35 C -0.0208(19) -0.2703(6) 0.6130(5)
H26 H -0.1466(61) -0.2807(32) 0.5944(10)
H27 H -0.067(10) -0.2509(19) 0.6495(19)
H28 H 0.0656(39) -0.3195(15) 0.6332(25)
C36 C 0.2927(15) -0.1867(6) 0.5863(4)
H29 H 0.4035(47) -0.2292(17) 0.5979(28)
H30 H 0.2349(24) -0.1809(35) 0.6294(17)
H31 H 0.3545(63) -0.1368(18) 0.5529(13)
C37 C -0.0270(18) -0.1322(6) 0.5183(5)
H32 H -0.1340(72) -0.1429(13) 0.4926(32)
H33 H 0.0630(22) -0.0894(13) 0.4854(28)
H34 H -0.0989(92) -0.1163(26) 0.5546(6)
C38 C 0.2774(13) -0.1408(4) 0.2330(4)
C39 C 0.1424(13) -0.1090(4) 0.2740(4)
H35 H 0.0026(13) -0.1278(4) 0.2907(4)
C40 C 0.2183(14) -0.0488(4) 0.2898(4)
H36 H 0.1277(14) -0.0287(4) 0.3183(4)
C41 C 0.4210(14) -0.0170(4) 0.2654(4)
C42 C 0.5506(13) -0.0489(4) 0.2238(4)
H37 H 0.6881(13) -0.0286(4) 0.2055(4)
C43 C 0.4800(14) -0.1115(4) 0.2083(4)
H38 H 0.5721(14) -0.1329(4) 0.1811(4)
C44 C 0.5045(15) 0.0457(5) 0.2875(4)
C45 C 0.5888(16) 0.0014(5) 0.3621(4)
H39 H 0.4697(20) -0.0235(27) 0.3965(6)
H40 H 0.6536(82) 0.0393(8) 0.3753(13)
H41 H 0.6958(64) -0.0396(23) 0.3613(8)
C46 C 0.6894(14) 0.0938(4) 0.2365(4)
H42 H 0.6375(22) 0.1247(21) 0.1899(7)
H43 H 0.8060(32) 0.0573(5) 0.2327(19)
H44 H 0.7416(50) 0.1299(20) 0.2546(13)
C47 C 0.3260(15) 0.1072(5) 0.2904(5)
H45 H 0.2653(59) 0.1325(23) 0.2446(9)
H46 H 0.3865(23) 0.1476(18) 0.3015(28)
H47 H 0.2137(43) 0.0802(7) 0.3268(19)
C48 C -0.3230(15) -0.1651(5) -0.0139(4)
C49 C -0.5080(15) -0.1034(6) -0.0184(5)
H48 H -0.5926(57) -0.1204(18) 0.0270(11)
H49 H -0.5993(57) -0.0993(27) -0.0551(22)
H50 H -0.4489(15) -0.0516(9) -0.0298(30)
C50 C -0.1744(15) -0.1293(5) -0.0823(4)
H51 H -0.0601(50) -0.1682(12) -0.0826(13)
H52 H -0.1120(67) -0.0813(18) -0.0845(14)
H53 H -0.2572(23) -0.1159(30) -0.1232(4)
C51 C -0.4197(17) -0.2420(5) -0.0086(5)
H54 H -0.5092(86) -0.2650(22) 0.0356(18)
H55 H -0.3044(17) -0.2802(16) -0.0098(36)
H56 H -0.5068(93) -0.2297(8) -0.0484(21)
loop_
_geom_bond_atom_site_label_1
_geom_bond_atom_site_label_2
_geom_bond_site_symmetry_1
_geom_bond_site_symmetry_2
C1 C2 1_555 1_555
C2 C3 1_555 1_555
C3 C4 1_555 1_555
C4 H1 1_555 1_555
C5 C4 1_555 1_555
H2 C5 1_555 1_555
C6 C5 1_555 1_555
H3 C6 1_555 1_555
C7 C6 1_555 1_555
H4 C7 1_555 1_555
C8 C3 1_555 1_555
C9 C8 1_555 1_555
H5 C9 1_555 1_555
C10 C2 1_555 1_555
C11 C10 1_555 1_555
C12 C11 1_555 1_555
C13 C12 1_555 1_555
H6 C13 1_555 1_555
C14 C13 1_555 1_555
H7 C14 1_555 1_555
C15 C14 1_555 1_555
C16 C15 1_555 1_555
H8 C16 1_555 1_555
C17 C1 1_555 1_555
C18 C1 1_555 1_555
C19 C18 1_555 1_555
H9 C19 1_555 1_555
C20 C19 1_555 1_555
H10 C20 1_555 1_555
C21 C20 1_555 1_555
C22 C21 1_555 1_555
H11 C22 1_555 1_555
C23 C18 1_555 1_555
H12 C23 1_555 1_555
C24 C21 1_555 1_555
C25 C24 1_555 1_555
H13 C25 1_555 1_555
H14 C25 1_555 1_555
H15 C25 1_555 1_555
C26 C24 1_555 1_555
H16 C26 1_555 1_555
H17 C26 1_555 1_555
H18 C26 1_555 1_555
C27 C24 1_555 1_555
H19 C27 1_555 1_555
H20 C27 1_555 1_555
H21 C27 1_555 1_555
C28 C9 1_555 1_555
C29 C28 1_555 1_555
H22 C29 1_555 1_555
C30 C29 1_555 1_555
H23 C30 1_555 1_555
C31 C30 1_555 1_555
C32 C31 1_555 1_555
H24 C32 1_555 1_555
C33 C28 1_555 1_555
H25 C33 1_555 1_555
C34 C31 1_555 1_555
C35 C34 1_555 1_555
H26 C35 1_555 1_555
H27 C35 1_555 1_555
H28 C35 1_555 1_555
C36 C34 1_555 1_555
H29 C36 1_555 1_555
H30 C36 1_555 1_555
H31 C36 1_555 1_555
C37 C34 1_555 1_555
H32 C37 1_555 1_555
H33 C37 1_555 1_555
H34 C37 1_555 1_555
C38 C11 1_555 1_555
C39 C38 1_555 1_555
H35 C39 1_555 1_555
C40 C39 1_555 1_555
H36 C40 1_555 1_555
C41 C40 1_555 1_555
C42 C41 1_555 1_555
H37 C42 1_555 1_555
C43 C38 1_555 1_555
H38 C43 1_555 1_555
C44 C41 1_555 1_555
C45 C44 1_555 1_555
H39 C45 1_555 1_555
H40 C45 1_555 1_555
H41 C45 1_555 1_555
C46 C44 1_555 1_555
H42 C46 1_555 1_555
H43 C46 1_555 1_555
H44 C46 1_555 1_555
C47 C44 1_555 1_555
H45 C47 1_555 1_555
H46 C47 1_555 1_555
H47 C47 1_555 1_555
C48 C15 1_555 1_555
C49 C48 1_555 1_555
H48 C49 1_555 1_555
H49 C49 1_555 1_555
H50 C49 1_555 1_555
C50 C48 1_555 1_555
H51 C50 1_555 1_555
H52 C50 1_555 1_555
H53 C50 1_555 1_555
C51 C48 1_555 1_555
H54 C51 1_555 1_555
H55 C51 1_555 1_555
H56 C51 1_555 1_555
C7 C8 1_555 1_555
C9 C10 1_555 1_555
C12 C17 1_555 1_555
C16 C17 1_555 1_555
C22 C23 1_555 1_555
C32 C33 1_555 1_555
C42 C43 1_555 1_555

#END
