
#######################################################################
#
#                 Cambridge Crystallographic Data Centre
#                                CCDC 
#
#######################################################################
#
# If this CIF has been generated from an entry in the Cambridge 
# Structural Database, then it will include bibliographic, chemical, 
# crystal, experimental, refinement or atomic coordinate data resulting 
# from the CCDC's data processing and validation procedures.
#
#######################################################################

data_FARBIM
_chemical_formula_moiety         'C30 H50 O2,C3 H8 O1'
_chemical_name_systematic        'betulin propan-1-ol solvate'
_chemical_properties_biological  
'Betulin has been shown to possess anti-HIV and anticancer activities'
_symmetry_cell_setting           orthorhombic
_symmetry_space_group_name_H-M   'P 21 21 21'
_symmetry_Int_Tables_number      19
_space_group_name_Hall           'P 2ac 2ab'
loop_
_symmetry_equiv_pos_site_id
_symmetry_equiv_pos_as_xyz
1 x,y,z
2 1/2-x,-y,1/2+z
3 1/2+x,1/2-y,-z
4 -x,1/2+y,1/2-z
_cell_length_a                   6.996(3)
_cell_length_b                   12.412(3)
_cell_length_c                   33.434(7)
_cell_angle_alpha                90
_cell_angle_beta                 90
_cell_angle_gamma                90
_cell_volume                     2903.22
_exptl_crystal_colour            colorless
_exptl_crystal_description       Prism
_cell_formula_units_Z            4
loop_
_atom_site_label
_atom_site_type_symbol
_atom_site_fract_x
_atom_site_fract_y
_atom_site_fract_z
O1 O 0.2049(2) 0.18619(13) 0.58716(4)
H1 H 0.1065 0.1571 0.5793
O2 O 0.1366(2) 0.57424(12) 0.92979(4)
H2 H 0.2191 0.6126 0.9398
C1 C 0.1080(3) 0.31882(17) 0.68758(6)
H3 H 0.0307 0.2582 0.6972
C2 C 0.0809(3) 0.33679(16) 0.81771(6)
C3 C 0.2683(3) 0.31743(17) 0.84253(6)
H4 H 0.3403 0.3851 0.8421
C4 C 0.3068(3) 0.30322(17) 0.70808(6)
C5 C 0.1101(3) 0.38894(17) 0.90589(6)
C6 C 0.2636(3) 0.28864(17) 0.75404(6)
H5 H 0.1834 0.2241 0.7557
C7 C 0.1945(3) 0.20161(18) 0.62984(6)
H6 H 0.1145 0.1439 0.6408
C8 C 0.2186(3) 0.29410(17) 0.88632(6)
H7 H 0.1309 0.2325 0.8863
C9 C 0.1436(3) 0.37941(17) 0.77445(6)
C10 C 0.0089(3) 0.41885(17) 0.70440(6)
H8 H -0.1092 0.4315 0.6899
H9 H 0.0906 0.4812 0.7008
C11 C -0.0803(4) 0.40236(18) 0.88413(6)
H10 H -0.1483 0.4636 0.8952
H11 H -0.1581 0.3386 0.8883
C12 C 0.1011(3) 0.30964(17) 0.64102(6)
C13 C 0.3804(4) 0.26648(17) 0.91595(6)
H12 H 0.4912 0.3120 0.9099
C14 C 0.3941(3) 0.23229(19) 0.82267(6)
H13 H 0.3283 0.1635 0.8231
H14 H 0.5116 0.2246 0.8378
C15 C -0.0347(3) 0.40416(18) 0.74895(6)
H15 H -0.1257 0.3457 0.7520
H16 H -0.0944 0.4693 0.7590
C16 C 0.4428(4) 0.2618(2) 0.77919(6)
H17 H 0.5099 0.2019 0.7669
H18 H 0.5280 0.3234 0.7791
C17 C -0.1086(3) 0.30378(19) 0.62787(6)
H19 H -0.1725 0.2479 0.6426
H20 H -0.1148 0.2881 0.5998
H21 H -0.1697 0.3716 0.6330
C18 C 0.0985(4) 0.34880(18) 0.94947(6)
H22 H 0.0718 0.4079 0.9676
H23 H -0.0003 0.2945 0.9524
C19 C 0.2256(4) 0.49402(17) 0.90519(6)
H24 H 0.3541 0.4803 0.9148
H25 H 0.2346 0.5203 0.8779
C20 C 0.3933(4) 0.19691(19) 0.69247(6)
H26 H 0.5240 0.1911 0.7019
H27 H 0.3217 0.1370 0.7036
C21 C 0.1956(4) 0.40396(18) 0.61895(6)
H28 H 0.1363 0.4703 0.6270
H29 H 0.1803 0.3945 0.5906
H30 H 0.3292 0.4061 0.6254
C22 C -0.0351(4) 0.23107(18) 0.81501(6)
H31 H 0.0470 0.1737 0.8063
H32 H -0.1375 0.2399 0.7962
H33 H -0.0868 0.2140 0.8408
C23 C -0.0506(4) 0.41974(18) 0.83881(6)
H34 H 0.0028 0.4911 0.8348
H35 H -0.1746 0.4183 0.8258
C24 C 0.3926(4) 0.1879(2) 0.64666(6)
H36 H 0.4760 0.2426 0.6355
H37 H 0.4422 0.1180 0.6389
C25 C 0.4455(4) 0.15022(18) 0.91788(6)
C26 C 0.2575(4) 0.48565(17) 0.77812(6)
H38 H 0.1964 0.5319 0.7973
H39 H 0.2614 0.5209 0.7526
H40 H 0.3854 0.4701 0.7868
C27 C 0.2968(4) 0.30090(19) 0.95751(6)
H41 H 0.2868 0.2390 0.9751
H42 H 0.3789 0.3540 0.9701
C28 C 0.4518(4) 0.3938(2) 0.69962(6)
H43 H 0.5170 0.3793 0.6749
H44 H 0.5430 0.3973 0.7210
H45 H 0.3857 0.4614 0.6976
C29 C 0.3336(4) 0.06493(19) 0.90773(7)
H46 H 0.3781 -0.0050 0.9114
H47 H 0.2125 0.0765 0.8971
C30 C 0.6363(4) 0.1336(2) 0.93468(8)
H48 H 0.7307 0.1588 0.9161
H49 H 0.6557 0.0583 0.9397
H50 H 0.6477 0.1729 0.9593
O3 O 0.4497(3) 0.69045(15) 0.95743(5)
H51 H 0.5468 0.6880 0.9437
C31 C 0.4995(4) 0.6775(2) 0.99887(6)
H52 H 0.3981 0.7072 1.0153
H53 H 0.6152 0.7180 1.0044
C32 C 0.5307(5) 0.5619(2) 1.01019(7)
H54 H 0.4159 0.5214 1.0041
H55 H 0.5515 0.5577 1.0388
C33 C 0.6983(5) 0.5102(2) 0.98900(8)
H56 H 0.6765 0.5113 0.9607
H57 H 0.7117 0.4370 0.9978
H58 H 0.8129 0.5494 0.9951
loop_
_geom_bond_atom_site_label_1
_geom_bond_atom_site_label_2
_geom_bond_site_symmetry_1
_geom_bond_site_symmetry_2
O1 H1 1_555 1_555
O2 H2 1_555 1_555
C1 H3 1_555 1_555
C2 C3 1_555 1_555
C3 H4 1_555 1_555
C4 C1 1_555 1_555
C5 C8 1_555 1_555
C6 C4 1_555 1_555
H5 C6 1_555 1_555
C7 O1 1_555 1_555
H6 C7 1_555 1_555
C8 C3 1_555 1_555
H7 C8 1_555 1_555
C9 C2 1_555 1_555
C10 C1 1_555 1_555
H8 C10 1_555 1_555
H9 C10 1_555 1_555
C11 C5 1_555 1_555
H10 C11 1_555 1_555
H11 C11 1_555 1_555
C12 C1 1_555 1_555
C13 C8 1_555 1_555
H12 C13 1_555 1_555
C14 C3 1_555 1_555
H13 C14 1_555 1_555
H14 C14 1_555 1_555
C15 C9 1_555 1_555
H15 C15 1_555 1_555
H16 C15 1_555 1_555
C16 C6 1_555 1_555
H17 C16 1_555 1_555
H18 C16 1_555 1_555
C17 C12 1_555 1_555
H19 C17 1_555 1_555
H20 C17 1_555 1_555
H21 C17 1_555 1_555
C18 C5 1_555 1_555
H22 C18 1_555 1_555
H23 C18 1_555 1_555
C19 O2 1_555 1_555
H24 C19 1_555 1_555
H25 C19 1_555 1_555
C20 C4 1_555 1_555
H26 C20 1_555 1_555
H27 C20 1_555 1_555
C21 C12 1_555 1_555
H28 C21 1_555 1_555
H29 C21 1_555 1_555
H30 C21 1_555 1_555
C22 C2 1_555 1_555
H31 C22 1_555 1_555
H32 C22 1_555 1_555
H33 C22 1_555 1_555
C23 C2 1_555 1_555
H34 C23 1_555 1_555
H35 C23 1_555 1_555
C24 C7 1_555 1_555
H36 C24 1_555 1_555
H37 C24 1_555 1_555
C25 C13 1_555 1_555
C26 C9 1_555 1_555
H38 C26 1_555 1_555
H39 C26 1_555 1_555
H40 C26 1_555 1_555
C27 C13 1_555 1_555
H41 C27 1_555 1_555
H42 C27 1_555 1_555
C28 C4 1_555 1_555
H43 C28 1_555 1_555
H44 C28 1_555 1_555
H45 C28 1_555 1_555
C29 C25 1_555 1_555
H46 C29 1_555 1_555
H47 C29 1_555 1_555
C30 C25 1_555 1_555
H48 C30 1_555 1_555
H49 C30 1_555 1_555
H50 C30 1_555 1_555
O3 H51 1_555 1_555
C31 O3 1_555 1_555
H52 C31 1_555 1_555
H53 C31 1_555 1_555
C32 C31 1_555 1_555
H54 C32 1_555 1_555
H55 C32 1_555 1_555
C33 C32 1_555 1_555
H56 C33 1_555 1_555
H57 C33 1_555 1_555
H58 C33 1_555 1_555
C5 C19 1_555 1_555
C6 C9 1_555 1_555
C7 C12 1_555 1_555
C10 C15 1_555 1_555
C11 C23 1_555 1_555
C14 C16 1_555 1_555
C18 C27 1_555 1_555
C20 C24 1_555 1_555

#END
