
#######################################################################
#
#                 Cambridge Crystallographic Data Centre
#                                CCDC 
#
#######################################################################
#
# If this CIF has been generated from an entry in the Cambridge 
# Structural Database, then it will include bibliographic, chemical, 
# crystal, experimental, refinement or atomic coordinate data resulting 
# from the CCDC's data processing and validation procedures.
#
#######################################################################

data_FARCOT
_chemical_formula_moiety         'C6 H19 B11 N1 O1 1-,C8 H20 N1 1+'
_chemical_name_systematic        
'tetraethylammonium 1-(pyrrolidin-1-carbonyl)-1-carba-closo-dodecaborate'
_symmetry_cell_setting           orthorhombic
_symmetry_space_group_name_H-M   'P b c a'
_symmetry_Int_Tables_number      61
_space_group_name_Hall           '-P 2ac 2ab'
loop_
_symmetry_equiv_pos_site_id
_symmetry_equiv_pos_as_xyz
1 x,y,z
2 1/2-x,-y,1/2+z
3 1/2+x,1/2-y,-z
4 -x,1/2+y,1/2-z
5 -x,-y,-z
6 1/2+x,y,1/2-z
7 1/2-x,1/2+y,z
8 x,1/2-y,1/2+z
_cell_length_a                   12.6563(8)
_cell_length_b                   17.5897(10)
_cell_length_c                   20.3134(12)
_cell_angle_alpha                90
_cell_angle_beta                 90
_cell_angle_gamma                90
_cell_volume                     4522.18
_exptl_crystal_colour            colorless
_exptl_crystal_description       needle
_cell_formula_units_Z            8
loop_
_atom_site_label
_atom_site_type_symbol
_atom_site_fract_x
_atom_site_fract_y
_atom_site_fract_z
O1 O 0.66141(12) 0.10437(8) 0.44129(7)
N1 N 0.80511(14) 0.14585(10) 0.39011(10)
C1 C 0.85928(17) 0.07524(12) 0.41041(12)
H1 H 0.8215 0.0300 0.3935
H2 H 0.8638 0.0718 0.4590
C2 C 0.9680(2) 0.08132(15) 0.38024(16)
H3 H 1.0227 0.0651 0.4121
H4 H 0.9733 0.0489 0.3405
C3 C 0.9816(2) 0.16092(15) 0.36310(16)
H5 H 1.0226 0.1869 0.3979
H6 H 1.0214 0.1650 0.3213
C4 C 0.8801(2) 0.19697(15) 0.35600(17)
H7 H 0.8611 0.2023 0.3089
H8 H 0.8803 0.2480 0.3766
C5 C 0.70421(17) 0.15415(11) 0.40864(10)
C6 C 0.63807(16) 0.22304(11) 0.38810(9)
B1 B 0.68084(19) 0.31543(13) 0.39288(11)
H9 H 0.7625 0.3326 0.4081
B2 B 0.65584(19) 0.27132(13) 0.31524(11)
H10 H 0.7207 0.2596 0.2792
B3 B 0.54812(19) 0.20752(14) 0.32637(12)
H11 H 0.5427 0.1532 0.2978
B4 B 0.50546(19) 0.21315(14) 0.40938(12)
H12 H 0.4717 0.1627 0.4356
B5 B 0.58821(19) 0.27868(13) 0.45050(12)
H13 H 0.6093 0.2713 0.5037
B6 B 0.5673(2) 0.36930(14) 0.41476(12)
H14 H 0.5735 0.4228 0.4444
B7 B 0.6093(2) 0.36457(13) 0.33125(12)
H15 H 0.6434 0.4152 0.3055
B8 B 0.5269(2) 0.29758(14) 0.28968(12)
H16 H 0.5063 0.3036 0.2363
B9 B 0.4344(2) 0.26144(14) 0.34768(13)
H17 H 0.3530 0.2435 0.3326
B10 B 0.4587(2) 0.30573(14) 0.42474(13)
H18 H 0.3935 0.3172 0.4606
B11 B 0.4729(2) 0.35878(14) 0.35062(12)
H19 H 0.4170 0.4057 0.3374
N2 N 0.64396(13) 0.02074(9) 0.62656(8)
C7 C 0.72672(17) 0.00422(12) 0.57442(11)
H20 H 0.7171 0.0407 0.5378
H21 H 0.7974 0.0136 0.5937
C8 C 0.7251(2) -0.07516(15) 0.54648(14)
H22 H 0.7828 -0.0809 0.5147
H23 H 0.6574 -0.0841 0.5244
H24 H 0.7341 -0.1121 0.5822
C9 C 0.64808(18) -0.03696(13) 0.68154(11)
H25 H 0.6257 -0.0868 0.6638
H26 H 0.5962 -0.0220 0.7156
C10 C 0.7548(2) -0.04662(15) 0.71412(13)
H27 H 0.8064 -0.0638 0.6814
H28 H 0.7493 -0.0844 0.7494
H29 H 0.7776 0.0021 0.7327
C11 C 0.53488(17) 0.01774(13) 0.59493(11)
H30 H 0.5352 0.0510 0.5556
H31 H 0.5217 -0.0349 0.5797
C12 C 0.44412(18) 0.04161(15) 0.63905(13)
H32 H 0.3773 0.0358 0.6152
H33 H 0.4533 0.0949 0.6519
H34 H 0.4432 0.0096 0.6785
C13 C 0.66521(17) 0.09912(12) 0.65492(10)
H35 H 0.6173 0.1072 0.6928
H36 H 0.7385 0.1003 0.6719
C14 C 0.6513(2) 0.16393(13) 0.60765(12)
H37 H 0.6982 0.1567 0.5698
H38 H 0.6689 0.2118 0.6298
H39 H 0.5778 0.1655 0.5926
loop_
_geom_bond_atom_site_label_1
_geom_bond_atom_site_label_2
_geom_bond_site_symmetry_1
_geom_bond_site_symmetry_2
O1 C5 1_555 1_555
N1 C1 1_555 1_555
C1 H1 1_555 1_555
H2 C1 1_555 1_555
C2 C1 1_555 1_555
H3 C2 1_555 1_555
H4 C2 1_555 1_555
C3 C2 1_555 1_555
H5 C3 1_555 1_555
H6 C3 1_555 1_555
C4 N1 1_555 1_555
H7 C4 1_555 1_555
H8 C4 1_555 1_555
C5 N1 1_555 1_555
C6 C5 1_555 1_555
B1 C6 1_555 1_555
H9 B1 1_555 1_555
B2 C6 1_555 1_555
H10 B2 1_555 1_555
B3 C6 1_555 1_555
H11 B3 1_555 1_555
B4 C6 1_555 1_555
H12 B4 1_555 1_555
B5 C6 1_555 1_555
H13 B5 1_555 1_555
B6 B1 1_555 1_555
H14 B6 1_555 1_555
B7 B1 1_555 1_555
H15 B7 1_555 1_555
B8 B2 1_555 1_555
H16 B8 1_555 1_555
B9 B3 1_555 1_555
H17 B9 1_555 1_555
B10 B4 1_555 1_555
H18 B10 1_555 1_555
B11 B6 1_555 1_555
H19 B11 1_555 1_555
N2 C7 1_555 1_555
C7 H20 1_555 1_555
H21 C7 1_555 1_555
C8 C7 1_555 1_555
H22 C8 1_555 1_555
H23 C8 1_555 1_555
H24 C8 1_555 1_555
C9 N2 1_555 1_555
H25 C9 1_555 1_555
H26 C9 1_555 1_555
C10 C9 1_555 1_555
H27 C10 1_555 1_555
H28 C10 1_555 1_555
H29 C10 1_555 1_555
C11 N2 1_555 1_555
H30 C11 1_555 1_555
H31 C11 1_555 1_555
C12 C11 1_555 1_555
H32 C12 1_555 1_555
H33 C12 1_555 1_555
H34 C12 1_555 1_555
C13 N2 1_555 1_555
H35 C13 1_555 1_555
H36 C13 1_555 1_555
C14 C13 1_555 1_555
H37 C14 1_555 1_555
H38 C14 1_555 1_555
H39 C14 1_555 1_555
C3 C4 1_555 1_555
B1 B2 1_555 1_555
B1 B5 1_555 1_555
B2 B3 1_555 1_555
B2 B7 1_555 1_555
B3 B4 1_555 1_555
B3 B8 1_555 1_555
B4 B5 1_555 1_555
B4 B9 1_555 1_555
B5 B6 1_555 1_555
B5 B10 1_555 1_555
B6 B7 1_555 1_555
B6 B10 1_555 1_555
B7 B8 1_555 1_555
B7 B11 1_555 1_555
B8 B9 1_555 1_555
B8 B11 1_555 1_555
B9 B10 1_555 1_555
B9 B11 1_555 1_555
B10 B11 1_555 1_555

#END
