
#######################################################################
#
#                 Cambridge Crystallographic Data Centre
#                                CCDC 
#
#######################################################################
#
# If this CIF has been generated from an entry in the Cambridge 
# Structural Database, then it will include bibliographic, chemical, 
# crystal, experimental, refinement or atomic coordinate data resulting 
# from the CCDC's data processing and validation procedures.
#
#######################################################################

data_FARHEO
_chemical_formula_moiety         'C36 H22 N4 O2'
_chemical_name_systematic        
10-(7-(10H-phenoxazin-10-yl)-1,10-phenanthrolin-4-yl)-10H-phenoxazine
_symmetry_cell_setting           monoclinic
_symmetry_space_group_name_H-M   'P 21/c'
_symmetry_Int_Tables_number      14
_space_group_name_Hall           '-P 2ybc'
loop_
_symmetry_equiv_pos_site_id
_symmetry_equiv_pos_as_xyz
1 x,y,z
2 -x,1/2+y,1/2-z
3 -x,-y,-z
4 x,1/2-y,1/2+z
_cell_length_a                   9.7085(2)
_cell_length_b                   12.8764(3)
_cell_length_c                   21.7144(5)
_cell_angle_alpha                90
_cell_angle_beta                 101.3770(10)
_cell_angle_gamma                90
_cell_volume                     2661.19
_exptl_crystal_description       block
_cell_formula_units_Z            4
loop_
_atom_site_label
_atom_site_type_symbol
_atom_site_fract_x
_atom_site_fract_y
_atom_site_fract_z
C1 C 0.66071(12) 0.19618(9) 0.07925(5)
C2 C 0.68892(11) 0.19933(9) 0.14746(5)
C3 C 0.73421(12) 0.26509(9) 0.04655(5)
N1 N 0.91604(11) 0.34184(9) 0.27867(5)
N2 N 0.61736(11) 0.13348(8) 0.17815(5)
C4 C 0.85896(13) 0.34016(9) 0.14351(6)
H1 H 0.9235 0.3878 0.1645
C5 C 0.78878(12) 0.27134(9) 0.17883(5)
N3 N 0.77630(12) 0.32711(9) -0.05551(5)
C6 C 0.83301(13) 0.33695(9) 0.08033(6)
H2 H 0.8802 0.3823 0.0583
C7 C 0.70397(13) 0.26001(10) -0.01988(6)
C8 C 0.81475(12) 0.27137(10) 0.24512(6)
N4 N 0.56418(12) 0.12725(8) 0.04972(5)
C9 C 0.87494(13) 0.42328(9) 0.31411(5)
C10 C 0.74284(15) 0.20409(11) 0.27569(6)
H3 H 0.7586 0.2028 0.3193
C11 C 1.05993(13) 0.32085(10) 0.28396(6)
C12 C 0.97795(14) 0.49190(10) 0.34413(6)
C13 C 0.64487(15) 0.13709(11) 0.24006(6)
H4 H 0.5959 0.0921 0.2615
C14 C 1.15773(14) 0.39375(10) 0.31294(6)
O1 O 1.11603(10) 0.48481(8) 0.33728(6)
C15 C 0.73744(14) 0.44129(11) 0.31991(7)
H5 H 0.6664 0.3980 0.2992
C16 C 0.91857(14) 0.30799(10) -0.05629(6)
C17 C 0.71875(14) 0.42423(10) -0.07587(6)
C18 C 0.60661(17) 0.19072(11) -0.04888(6)
H6 H 0.5851 0.1863 -0.0925
C19 C 0.53943(18) 0.12640(12) -0.01220(7)
H7 H 0.4728 0.0798 -0.0328
C20 C 0.80157(16) 0.49736(11) -0.09824(7)
C21 C 1.29967(15) 0.37817(13) 0.31820(7)
H8 H 1.3633 0.4278 0.3376
C22 C 0.94496(17) 0.57234(11) 0.38022(7)
H9 H 1.0153 0.6164 0.4005
C23 C 1.10985(15) 0.23051(13) 0.26170(7)
H10 H 1.0468 0.1799 0.2431
C24 C 0.70383(17) 0.52280(12) 0.35606(8)
H11 H 0.6111 0.5334 0.3598
C25 C 0.99810(16) 0.38510(12) -0.07748(8)
C26 C 0.80780(18) 0.58786(12) 0.38639(8)
H12 H 0.7857 0.6421 0.4110
C27 C 0.98225(18) 0.21323(13) -0.03920(7)
H13 H 0.9303 0.1594 -0.0266
C28 C 1.34717(16) 0.28879(15) 0.29461(8)
H14 H 1.4430 0.2785 0.2974
C29 C 1.1225(2) 0.19817(15) -0.04077(8)
H15 H 1.1642 0.1343 -0.0290
C30 C 1.25275(18) 0.21460(15) 0.26688(9)
H16 H 1.2851 0.1537 0.2516
C31 C 1.13763(18) 0.36986(15) -0.07876(10)
H17 H 1.1896 0.4225 -0.0926
C32 C 1.20020(19) 0.27614(16) -0.05940(9)
H18 H 1.2952 0.2661 -0.0590
O2 O 0.9386(14) 0.4759(10) -0.1061(5)
C33 C 0.7600(14) 0.5926(11) -0.1148(4)
H19 H 0.8199 0.6388 -0.1294
C34 C 0.6226(8) 0.6231(6) -0.1100(6)
H20 H 0.5906 0.6897 -0.1216
C35 C 0.5366(9) 0.5531(6) -0.0879(6)
H21 H 0.4460 0.5719 -0.0844
C36 C 0.5887(15) 0.4508(9) -0.0704(4)
H22 H 0.5319 0.4029 -0.0553
O3? O 0.9425(18) 0.4831(14) -0.0864(10)
C37? C 0.732(2) 0.5894(13) -0.1292(5)
H23? H 0.7869 0.6389 -0.1445
C38? C 0.5984(12) 0.6052(8) -0.1364(7)
H24? H 0.5583 0.6650 -0.1563
C39? C 0.5172(12) 0.5339(9) -0.1146(7)
H25? H 0.4210 0.5455 -0.1200
C40? C 0.571(2) 0.4489(13) -0.0862(6)
H26? H 0.5106 0.4023 -0.0720
loop_
_geom_bond_atom_site_label_1
_geom_bond_atom_site_label_2
_geom_bond_site_symmetry_1
_geom_bond_site_symmetry_2
C1 C2 1_555 1_555
C2 N2 1_555 1_555
C3 C1 1_555 1_555
N1 C8 1_555 1_555
N2 C13 1_555 1_555
C4 H1 1_555 1_555
C5 C2 1_555 1_555
N3 C7 1_555 1_555
C6 C3 1_555 1_555
H2 C6 1_555 1_555
C7 C3 1_555 1_555
C8 C5 1_555 1_555
N4 C1 1_555 1_555
C9 N1 1_555 1_555
C10 C8 1_555 1_555
H3 C10 1_555 1_555
C11 N1 1_555 1_555
C12 C9 1_555 1_555
C13 C10 1_555 1_555
H4 C13 1_555 1_555
C14 C11 1_555 1_555
O1 C12 1_555 1_555
C15 C9 1_555 1_555
H5 C15 1_555 1_555
C16 N3 1_555 1_555
C17 N3 1_555 1_555
C18 C7 1_555 1_555
H6 C18 1_555 1_555
C19 N4 1_555 1_555
H7 C19 1_555 1_555
C20 C17 1_555 1_555
C21 C14 1_555 1_555
H8 C21 1_555 1_555
C22 C12 1_555 1_555
H9 C22 1_555 1_555
C23 C11 1_555 1_555
H10 C23 1_555 1_555
C24 C15 1_555 1_555
H11 C24 1_555 1_555
C25 C16 1_555 1_555
C26 C22 1_555 1_555
H12 C26 1_555 1_555
C27 C16 1_555 1_555
H13 C27 1_555 1_555
C28 C21 1_555 1_555
H14 C28 1_555 1_555
C29 C27 1_555 1_555
H15 C29 1_555 1_555
C30 C23 1_555 1_555
H16 C30 1_555 1_555
C31 C25 1_555 1_555
H17 C31 1_555 1_555
C32 C29 1_555 1_555
H18 C32 1_555 1_555
O2 C20 1_555 1_555
C33 C20 1_555 1_555
H19 C33 1_555 1_555
C34 C33 1_555 1_555
H20 C34 1_555 1_555
C35 C34 1_555 1_555
H21 C35 1_555 1_555
C36 C17 1_555 1_555
H22 C36 1_555 1_555
C4 C5 1_555 1_555
C4 C6 1_555 1_555
C14 O1 1_555 1_555
C18 C19 1_555 1_555
C24 C26 1_555 1_555
C25 O2 1_555 1_555
C28 C30 1_555 1_555
C31 C32 1_555 1_555
C35 C36 1_555 1_555

#END
