
#######################################################################
#
#                 Cambridge Crystallographic Data Centre
#                                CCDC 
#
#######################################################################
#
# If this CIF has been generated from an entry in the Cambridge 
# Structural Database, then it will include bibliographic, chemical, 
# crystal, experimental, refinement or atomic coordinate data resulting 
# from the CCDC's data processing and validation procedures.
#
#######################################################################

data_FARLUI
_chemical_formula_moiety         'C20 H22 O6 S1,2(H2 O1)'
_chemical_name_systematic        
'p-tolyl-1-thio-6-O-benzoyl-\a-D-mannopyranoside dihydrate'
_symmetry_cell_setting           orthorhombic
_symmetry_space_group_name_H-M   'P 21 21 21'
_symmetry_Int_Tables_number      19
_space_group_name_Hall           'P 2ac 2ab'
loop_
_symmetry_equiv_pos_site_id
_symmetry_equiv_pos_as_xyz
1 x,y,z
2 1/2-x,-y,1/2+z
3 1/2+x,1/2-y,-z
4 -x,1/2+y,1/2-z
_cell_length_a                   6.1851(5)
_cell_length_b                   6.9048(3)
_cell_length_c                   46.906(2)
_cell_angle_alpha                90
_cell_angle_beta                 90
_cell_angle_gamma                90
_cell_volume                     2003.21
_cell_formula_units_Z            4
loop_
_atom_site_label
_atom_site_type_symbol
_atom_site_fract_x
_atom_site_fract_y
_atom_site_fract_z
S1 S 0.91024(13) 0.84025(12) 0.374841(15)
O1 O 0.8073(4) 0.4389(3) 0.45881(4)
H1 H 0.8222 0.4446 0.4762
O2 O 1.0406(4) 0.7924(3) 0.47062(4)
H2 H 1.1040 0.6940 0.4757
O3 O 0.5605(3) 0.7844(3) 0.40930(4)
O4 O 0.3883(3) 0.4392(3) 0.38819(4)
O5 O 0.0570(4) 0.3285(3) 0.40007(4)
O6 O 0.7428(4) 1.0556(3) 0.45139(4)
H3 H 0.7696 1.1715 0.4500
C1 C 0.1870(5) 0.3762(4) 0.38210(6)
C2 C 0.7307(5) 0.8471(5) 0.34526(6)
C3 C 0.5202(5) 0.9210(5) 0.34611(7)
H4 H 0.4624 0.9643 0.3633
C4 C 0.7380(5) 0.6230(4) 0.44829(6)
H5 H 0.6346 0.6816 0.4616
C5 C 0.3030(5) 0.4219(5) 0.33083(6)
H6 H 0.4368 0.4675 0.3369
C6 C 0.7333(5) 0.9160(5) 0.40415(6)
H7 H 0.6692 1.0406 0.3988
C7 C 0.1464(5) 0.3689(5) 0.35064(6)
C8 C 0.6332(5) 0.5967(4) 0.41894(6)
H8 H 0.7423 0.5479 0.4056
C9 C 0.4788(5) 0.8655(5) 0.29516(6)
C10 C 0.8701(5) 0.9495(4) 0.43108(6)
H9 H 1.0006 1.0230 0.4262
C11 C -0.0560(5) 0.3034(5) 0.34140(6)
H10 H -0.1612 0.2708 0.3547
C12 C 0.3970(5) 0.9297(5) 0.32122(6)
H11 H 0.2574 0.9793 0.3220
C13 C 0.8131(5) 0.7813(5) 0.31936(6)
H12 H 0.9524 0.7310 0.3185
C14 C 0.9318(5) 0.7563(4) 0.44424(6)
H13 H 1.0338 0.6919 0.4314
C15 C 0.2573(6) 0.4060(5) 0.30168(6)
H14 H 0.3613 0.4410 0.2883
C16 C 0.3406(6) 0.8750(5) 0.26837(6)
H15 H 0.1905 0.8699 0.2735
H16 H 0.3746 0.7674 0.2562
H17 H 0.3693 0.9938 0.2584
C17 C 0.4398(5) 0.4644(4) 0.41817(6)
H18 H 0.4737 0.3408 0.4269
H19 H 0.3189 0.5221 0.4282
C18 C 0.6878(5) 0.7906(5) 0.29472(6)
H20 H 0.7449 0.7458 0.2776
C19 C -0.1009(5) 0.2868(5) 0.31258(6)
H21 H -0.2349 0.2419 0.3065
C20 C 0.0578(5) 0.3385(5) 0.29267(6)
H22 H 0.0290 0.3273 0.2733
O7 O 0.8341(4) 0.4149(3) 0.51837(5)
H23 H 0.9548 0.4338 0.5266
H24 H 0.7426 0.4973 0.5243
O8 O 0.3009(4) 0.4992(3) 0.48510(5)
H25 H 0.2911 0.3764 0.4848
H26 H 0.3448 0.5362 0.5014
loop_
_geom_bond_atom_site_label_1
_geom_bond_atom_site_label_2
_geom_bond_site_symmetry_1
_geom_bond_site_symmetry_2
S1 C2 1_555 1_555
O1 H1 1_555 1_555
O2 H2 1_555 1_555
O3 C6 1_555 1_555
O4 C1 1_555 1_555
O5 C1 1_555 1_555
O6 H3 1_555 1_555
C1 C7 1_555 1_555
C2 C3 1_555 1_555
C3 H4 1_555 1_555
C4 O1 1_555 1_555
H5 C4 1_555 1_555
C5 H6 1_555 1_555
C6 S1 1_555 1_555
H7 C6 1_555 1_555
C7 C5 1_555 1_555
C8 O3 1_555 1_555
H8 C8 1_555 1_555
C9 C12 1_555 1_555
C10 O6 1_555 1_555
H9 C10 1_555 1_555
C11 C7 1_555 1_555
H10 C11 1_555 1_555
C12 C3 1_555 1_555
H11 C12 1_555 1_555
C13 C2 1_555 1_555
H12 C13 1_555 1_555
C14 O2 1_555 1_555
H13 C14 1_555 1_555
C15 C5 1_555 1_555
H14 C15 1_555 1_555
C16 C9 1_555 1_555
H15 C16 1_555 1_555
H16 C16 1_555 1_555
H17 C16 1_555 1_555
C17 O4 1_555 1_555
H18 C17 1_555 1_555
H19 C17 1_555 1_555
C18 C9 1_555 1_555
H20 C18 1_555 1_555
C19 C11 1_555 1_555
H21 C19 1_555 1_555
C20 C15 1_555 1_555
H22 C20 1_555 1_555
O7 H23 1_555 1_555
H24 O7 1_555 1_555
O8 H25 1_555 1_555
H26 O8 1_555 1_555
C4 C8 1_555 1_555
C4 C14 1_555 1_555
C6 C10 1_555 1_555
C8 C17 1_555 1_555
C10 C14 1_555 1_555
C13 C18 1_555 1_555
C19 C20 1_555 1_555

#END
