
#######################################################################
#
#                 Cambridge Crystallographic Data Centre
#                                CCDC 
#
#######################################################################
#
# If this CIF has been generated from an entry in the Cambridge 
# Structural Database, then it will include bibliographic, chemical, 
# crystal, experimental, refinement or atomic coordinate data resulting 
# from the CCDC's data processing and validation procedures.
#
#######################################################################

data_FARNIW
_chemical_formula_moiety         'C27 H29 Cl1 N2 O3'
_chemical_name_systematic        
(S)-1-(4-(4-Chlorophenyl)-2-hydroxypent-4-enoyl)-8,8-dimethylhexahydro-3a,6-methanoindazol-3(2H)-one
_symmetry_cell_setting           orthorhombic
_symmetry_space_group_name_H-M   'P 21 21 21'
_symmetry_Int_Tables_number      19
_space_group_name_Hall           'P 2ac 2ab'
loop_
_symmetry_equiv_pos_site_id
_symmetry_equiv_pos_as_xyz
1 x,y,z
2 1/2-x,-y,1/2+z
3 1/2+x,1/2-y,-z
4 -x,1/2+y,1/2-z
_cell_length_a                   10.9440(3)
_cell_length_b                   12.0800(4)
_cell_length_c                   17.8570(7)
_cell_angle_alpha                90
_cell_angle_beta                 90
_cell_angle_gamma                90
_cell_volume                     2360.76
_exptl_crystal_colour            colorless
_exptl_crystal_description       prism
_cell_formula_units_Z            4
loop_
_atom_site_label
_atom_site_type_symbol
_atom_site_fract_x
_atom_site_fract_y
_atom_site_fract_z
Cl1 Cl -0.31200(10) -0.25061(11) 0.59408(9)
O1 O 0.0459(2) 0.4225(2) 0.38801(17)
O2 O 0.3240(2) 0.1995(2) 0.52466(17)
O3 O 0.3576(3) -0.0254(3) 0.48283(18)
H1 H 0.3498 -0.0114 0.4301
N1 N 0.1261(3) 0.2956(3) 0.46903(19)
N2 N 0.1331(3) 0.1778(3) 0.47693(19)
C1 C 0.0686(3) 0.3263(3) 0.4040(2)
C2 C 0.0439(3) 0.2239(3) 0.3604(2)
C3 C -0.0767(3) 0.2071(4) 0.3180(2)
H2 H -0.1406 0.1986 0.3543
H3 H -0.0927 0.2713 0.2878
C4 C -0.0497(4) 0.1000(4) 0.2735(3)
H4 H -0.0587 0.1106 0.2205
H5 H -0.0978 0.0376 0.2891
C5 C 0.0860(3) 0.0765(4) 0.2897(2)
H6 H 0.1322 0.0377 0.2524
C6 C 0.0962(4) 0.0303(4) 0.3698(2)
H7 H 0.1772 0.0096 0.3849
H8 H 0.0415 -0.0307 0.3781
C7 C 0.0535(3) 0.1299(3) 0.4176(2)
H9 H -0.0232 0.1132 0.4411
C8 C 0.1404(3) 0.1938(3) 0.2986(2)
C9 C 0.2738(4) 0.1972(4) 0.3235(3)
H10 H 0.3001 0.2727 0.3281
H11 H 0.3229 0.1602 0.2866
H12 H 0.2826 0.1604 0.3708
C10 C 0.1307(4) 0.2681(4) 0.2298(3)
H13 H 0.1649 0.3390 0.2420
H14 H 0.0471 0.2772 0.2147
H15 H 0.1763 0.2355 0.1895
C11 C 0.1332(3) 0.3631(3) 0.5348(2)
C12 C 0.1909(4) 0.4641(4) 0.5301(3)
H16 H 0.2301 0.4858 0.4843
C13 C 0.1945(4) 0.5322(4) 0.5916(3)
H17 H 0.2290 0.6050 0.5872
C14 C 0.1441(4) 0.4998(4) 0.6581(3)
H18 H 0.1471 0.5461 0.7017
C15 C 0.0882(4) 0.3969(4) 0.6631(3)
H19 H 0.0541 0.3762 0.7106
C16 C 0.0816(4) 0.3289(4) 0.6018(2)
H20 H 0.0458 0.2566 0.6058
C17 C 0.2414(3) 0.1381(3) 0.5060(2)
C18 C 0.2503(3) 0.0142(3) 0.5203(3)
H21 H 0.1788 -0.0219 0.5010
C19 C 0.2600(3) -0.0094(4) 0.6038(2)
H22 H 0.2809 -0.0858 0.6111
H23 H 0.3221 0.0367 0.6254
C20 C 0.1460(3) 0.0126(4) 0.6489(2)
C21 C 0.1466(4) 0.0872(4) 0.7040(3)
H24 H 0.2203 0.1279 0.7134
H25 H 0.0756 0.0998 0.7344
C22 C 0.0337(4) -0.0531(4) 0.6328(2)
C23 C 0.0394(4) -0.1620(4) 0.6059(3)
H26 H 0.1166 -0.1963 0.5952
C24 C -0.0658(4) -0.2239(4) 0.5941(3)
H27 H -0.0630 -0.2984 0.5754
C25 C -0.1778(4) -0.1761(4) 0.6101(3)
C26 C -0.1868(4) -0.0679(4) 0.6352(2)
H28 H -0.2642 -0.0341 0.6462
C27 C -0.0814(3) -0.0074(4) 0.6457(2)
H29 H -0.0889 0.0683 0.6615
loop_
_geom_bond_atom_site_label_1
_geom_bond_atom_site_label_2
_geom_bond_site_symmetry_1
_geom_bond_site_symmetry_2
Cl1 C25 1_555 1_555
O1 C1 1_555 1_555
O2 C17 1_555 1_555
O3 H1 1_555 1_555
N1 N2 1_555 1_555
N2 C7 1_555 1_555
C1 N1 1_555 1_555
C2 C1 1_555 1_555
C3 C2 1_555 1_555
H2 C3 1_555 1_555
H3 C3 1_555 1_555
C4 C3 1_555 1_555
H4 C4 1_555 1_555
H5 C4 1_555 1_555
C5 C4 1_555 1_555
H6 C5 1_555 1_555
C6 C5 1_555 1_555
H7 C6 1_555 1_555
H8 C6 1_555 1_555
C7 C2 1_555 1_555
H9 C7 1_555 1_555
C8 C2 1_555 1_555
C9 C8 1_555 1_555
H10 C9 1_555 1_555
H11 C9 1_555 1_555
H12 C9 1_555 1_555
C10 C8 1_555 1_555
H13 C10 1_555 1_555
H14 C10 1_555 1_555
H15 C10 1_555 1_555
C11 N1 1_555 1_555
C12 C11 1_555 1_555
H16 C12 1_555 1_555
C13 C12 1_555 1_555
H17 C13 1_555 1_555
C14 C13 1_555 1_555
H18 C14 1_555 1_555
C15 C14 1_555 1_555
H19 C15 1_555 1_555
C16 C11 1_555 1_555
H20 C16 1_555 1_555
C17 N2 1_555 1_555
C18 O3 1_555 1_555
H21 C18 1_555 1_555
C19 C18 1_555 1_555
H22 C19 1_555 1_555
H23 C19 1_555 1_555
C20 C19 1_555 1_555
C21 C20 1_555 1_555
H24 C21 1_555 1_555
H25 C21 1_555 1_555
C22 C20 1_555 1_555
C23 C22 1_555 1_555
H26 C23 1_555 1_555
C24 C23 1_555 1_555
H27 C24 1_555 1_555
C25 C24 1_555 1_555
C26 C25 1_555 1_555
H28 C26 1_555 1_555
C27 C22 1_555 1_555
H29 C27 1_555 1_555
C5 C8 1_555 1_555
C6 C7 1_555 1_555
C15 C16 1_555 1_555
C17 C18 1_555 1_555
C26 C27 1_555 1_555

#END
