
#######################################################################
#
#                 Cambridge Crystallographic Data Centre
#                                CCDC 
#
#######################################################################
#
# If this CIF has been generated from an entry in the Cambridge 
# Structural Database, then it will include bibliographic, chemical, 
# crystal, experimental, refinement or atomic coordinate data resulting 
# from the CCDC's data processing and validation procedures.
#
#######################################################################

data_FARNOC
_chemical_formula_moiety         'C26 H36 N2 O3'
_chemical_name_systematic        
(S)-1-(2-Hydroxy-6,6-dimethyl-4-methyleneheptanoyl)-8,8-dimethylhexahydro-3a,6-methanoindazol-3(2H)-one
_symmetry_cell_setting           monoclinic
_symmetry_space_group_name_H-M   'P 21'
_symmetry_Int_Tables_number      4
_space_group_name_Hall           'P 2yb'
loop_
_symmetry_equiv_pos_site_id
_symmetry_equiv_pos_as_xyz
1 x,y,z
2 -x,1/2+y,-z
_cell_length_a                   10.2530(4)
_cell_length_b                   10.5680(4)
_cell_length_c                   11.6520(5)
_cell_angle_alpha                90
_cell_angle_beta                 107.831(2)
_cell_angle_gamma                90
_cell_volume                     1201.89
_exptl_crystal_colour            colorless
_exptl_crystal_description       prism
_cell_formula_units_Z            2
loop_
_atom_site_label
_atom_site_type_symbol
_atom_site_fract_x
_atom_site_fract_y
_atom_site_fract_z
O1 O -0.2237(4) 0.1807(3) 0.2419(3)
O2 O 0.0655(3) 0.4562(3) 0.5535(3)
O3 O 0.3456(4) 0.4741(3) 0.5553(4)
H1 H 0.4427 0.4759 0.5857
N1 N -0.0667(4) 0.2673(3) 0.4096(3)
N2 N 0.0790(4) 0.2688(3) 0.4630(3)
C1 C -0.1055(6) 0.2045(4) 0.2996(4)
C2 C 0.0211(5) 0.1780(4) 0.2676(4)
C3 C 0.0415(6) 0.0535(5) 0.2093(5)
H2 H 0.0505 -0.0149 0.2654
H3 H -0.0370 0.0393 0.1403
C4 C 0.1743(7) 0.0789(5) 0.1754(6)
H4 H 0.1611 0.0700 0.0906
H5 H 0.2493 0.0264 0.2196
C5 C 0.2050(6) 0.2198(5) 0.2108(5)
H6 H 0.2677 0.2601 0.1759
C6 C 0.2638(5) 0.2288(5) 0.3488(5)
H7 H 0.2897 0.3129 0.3780
H8 H 0.3392 0.1722 0.3816
C7 C 0.1377(5) 0.1852(4) 0.3885(4)
H9 H 0.1550 0.1022 0.4234
C8 C 0.0611(6) 0.2779(5) 0.1836(4)
C9 C -0.0285(7) 0.2712(7) 0.0524(5)
H10 H -0.0297 0.1857 0.0242
H11 H 0.0068 0.3262 0.0034
H12 H -0.1199 0.2967 0.0475
C10 C 0.0617(7) 0.4160(5) 0.2245(5)
H13 H -0.0316 0.4444 0.2046
H14 H 0.1102 0.4676 0.1833
H15 H 0.1045 0.4228 0.3099
C11 C -0.1546(5) 0.2787(4) 0.4827(4)
C12 C -0.2749(5) 0.3430(5) 0.4398(5)
H16 H -0.3017 0.3784 0.3601
C13 C -0.3630(6) 0.3530(6) 0.5070(7)
H17 H -0.4446 0.4027 0.4755
C14 C -0.3295(6) 0.3012(6) 0.6195(6)
H18 H -0.3920 0.3066 0.6660
C15 C -0.2106(6) 0.2348(5) 0.6625(5)
H19 H -0.1893 0.1986 0.7417
C16 C -0.1213(5) 0.2234(4) 0.5949(4)
H20 H -0.0373 0.1765 0.6229
C17 C 0.1352(5) 0.3690(4) 0.5338(4)
C18 C 0.2885(4) 0.3666(4) 0.5958(4)
H21 H 0.3263 0.2917 0.5718
C19 C 0.3233(5) 0.3659(4) 0.7305(4)
H22 H 0.2750 0.4357 0.7512
H23 H 0.4202 0.3795 0.7639
C20 C 0.2828(5) 0.2456(4) 0.7835(4)
C21 C 0.1811(6) 0.2457(6) 0.8291(5)
H24 H 0.1558 0.1693 0.8613
H25 H 0.1308 0.3223 0.8292
C22 C 0.3622(6) 0.1258(4) 0.7798(5)
H26 H 0.3020 0.0540 0.7654
H27 H 0.4043 0.1318 0.7170
C23 C 0.4803(6) 0.0925(5) 0.8926(5)
C24 C 0.5474(9) -0.0282(7) 0.8644(7)
H28 H 0.6215 -0.0527 0.9337
H29 H 0.5812 -0.0166 0.7968
H30 H 0.4786 -0.0931 0.8459
C25 C 0.5870(7) 0.1972(7) 0.9258(6)
H31 H 0.6591 0.1726 0.9966
H32 H 0.5449 0.2735 0.9420
H33 H 0.6243 0.2116 0.8607
C26 C 0.4291(8) 0.0719(7) 1.0006(6)
H34 H 0.5045 0.0500 1.0699
H35 H 0.3629 0.0047 0.9833
H36 H 0.3871 0.1484 1.0166
loop_
_geom_bond_atom_site_label_1
_geom_bond_atom_site_label_2
_geom_bond_site_symmetry_1
_geom_bond_site_symmetry_2
O1 C1 1_555 1_555
O2 C17 1_555 1_555
O3 H1 1_555 1_555
N1 N2 1_555 1_555
N2 C7 1_555 1_555
C1 N1 1_555 1_555
C2 C1 1_555 1_555
C3 C2 1_555 1_555
H2 C3 1_555 1_555
H3 C3 1_555 1_555
C4 C3 1_555 1_555
H4 C4 1_555 1_555
H5 C4 1_555 1_555
C5 C4 1_555 1_555
H6 C5 1_555 1_555
C6 C5 1_555 1_555
H7 C6 1_555 1_555
H8 C6 1_555 1_555
C7 C2 1_555 1_555
H9 C7 1_555 1_555
C8 C2 1_555 1_555
C9 C8 1_555 1_555
H10 C9 1_555 1_555
H11 C9 1_555 1_555
H12 C9 1_555 1_555
C10 C8 1_555 1_555
H13 C10 1_555 1_555
H14 C10 1_555 1_555
H15 C10 1_555 1_555
C11 N1 1_555 1_555
C12 C11 1_555 1_555
H16 C12 1_555 1_555
C13 C12 1_555 1_555
H17 C13 1_555 1_555
C14 C13 1_555 1_555
H18 C14 1_555 1_555
C15 C14 1_555 1_555
H19 C15 1_555 1_555
C16 C11 1_555 1_555
H20 C16 1_555 1_555
C17 N2 1_555 1_555
C18 O3 1_555 1_555
H21 C18 1_555 1_555
C19 C18 1_555 1_555
H22 C19 1_555 1_555
H23 C19 1_555 1_555
C20 C19 1_555 1_555
C21 C20 1_555 1_555
H24 C21 1_555 1_555
H25 C21 1_555 1_555
C22 C20 1_555 1_555
H26 C22 1_555 1_555
H27 C22 1_555 1_555
C23 C22 1_555 1_555
C24 C23 1_555 1_555
H28 C24 1_555 1_555
H29 C24 1_555 1_555
H30 C24 1_555 1_555
C25 C23 1_555 1_555
H31 C25 1_555 1_555
H32 C25 1_555 1_555
H33 C25 1_555 1_555
C26 C23 1_555 1_555
H34 C26 1_555 1_555
H35 C26 1_555 1_555
H36 C26 1_555 1_555
C5 C8 1_555 1_555
C6 C7 1_555 1_555
C15 C16 1_555 1_555
C17 C18 1_555 1_555

#END
