
#######################################################################
#
#                 Cambridge Crystallographic Data Centre
#                                CCDC 
#
#######################################################################
#
# If this CIF has been generated from an entry in the Cambridge 
# Structural Database, then it will include bibliographic, chemical, 
# crystal, experimental, refinement or atomic coordinate data resulting 
# from the CCDC's data processing and validation procedures.
#
#######################################################################

data_FARPIA
_chemical_formula_moiety         'C13 H14 F3 N3 O1 S1'
_chemical_name_systematic        
3-methyl-2-(((1-methyl-1H-imidazol-2-yl)sulfanyl)methyl)-4-(2,2,2-trifluoroethoxy)pyridine
_symmetry_cell_setting           monoclinic
_symmetry_space_group_name_H-M   'P 21/c'
_symmetry_Int_Tables_number      14
_space_group_name_Hall           '-P 2ybc'
loop_
_symmetry_equiv_pos_site_id
_symmetry_equiv_pos_as_xyz
1 x,y,z
2 -x,1/2+y,1/2-z
3 -x,-y,-z
4 x,1/2-y,1/2+z
_cell_length_a                   7.786(7)
_cell_length_b                   21.910(19)
_cell_length_c                   8.675(8)
_cell_angle_alpha                90
_cell_angle_beta                 91.113(13)
_cell_angle_gamma                90
_cell_volume                     1479.6
_exptl_crystal_colour            white
_exptl_crystal_description       block
_cell_formula_units_Z            4
loop_
_atom_site_label
_atom_site_type_symbol
_atom_site_fract_x
_atom_site_fract_y
_atom_site_fract_z
S1 S 0.38080(10) 0.57566(3) 0.00929(10)
O1 O -0.1040(2) 0.62386(9) 0.5119(2)
N1 N 0.3086(3) 0.52259(10) 0.3648(3)
N2 N 0.1693(3) 0.66975(11) -0.0743(3)
N3 N 0.3273(3) 0.68828(10) 0.1350(3)
F1 F -0.3252(3) 0.67673(10) 0.8334(3)
F2 F -0.4247(3) 0.64994(16) 0.6187(3)
F3 F -0.2592(4) 0.72372(10) 0.6308(4)
C1 C 0.2189(4) 0.52885(12) 0.1006(4)
H1 H 0.1117 0.5330 0.0427
H2 H 0.2540 0.4864 0.0947
C2 C 0.1877(3) 0.54445(11) 0.2658(3)
C3 C 0.0473(3) 0.57843(11) 0.3130(3)
C4 C 0.0349(3) 0.59040(11) 0.4689(3)
C5 C 0.1586(4) 0.56911(12) 0.5728(4)
H3 H 0.1524 0.5770 0.6779
C6 C 0.2915(4) 0.53552(14) 0.5121(4)
H4 H 0.3753 0.5209 0.5804
C7 C -0.0917(4) 0.60205(16) 0.2056(4)
H5 H -0.1975 0.5813 0.2258
H6 H -0.0598 0.5948 0.1008
H7 H -0.1064 0.6451 0.2217
C8 C -0.1378(4) 0.62884(13) 0.6691(4)
H8 H -0.0384 0.6454 0.7240
H9 H -0.1632 0.5890 0.7116
C9 C -0.2862(4) 0.66979(15) 0.6859(4)
C10 C 0.2869(4) 0.64757(12) 0.0219(3)
C11 C 0.1347(4) 0.72661(14) -0.0185(4)
H10 H 0.0551 0.7534 -0.0624
C12 C 0.2300(4) 0.73867(13) 0.1074(4)
H11 H 0.2298 0.7745 0.1648
C13 C 0.4452(4) 0.67957(14) 0.2666(4)
H12 H 0.4039 0.6471 0.3303
H13 H 0.4519 0.7166 0.3257
H14 H 0.5572 0.6693 0.2301
loop_
_geom_bond_atom_site_label_1
_geom_bond_atom_site_label_2
_geom_bond_site_symmetry_1
_geom_bond_site_symmetry_2
S1 C1 1_555 1_555
O1 C4 1_555 1_555
N1 C2 1_555 1_555
N2 C10 1_555 1_555
N3 C10 1_555 1_555
F1 C9 1_555 1_555
F2 C9 1_555 1_555
F3 C9 1_555 1_555
C1 H1 1_555 1_555
H2 C1 1_555 1_555
C2 C1 1_555 1_555
C3 C2 1_555 1_555
C4 C3 1_555 1_555
C5 C4 1_555 1_555
H3 C5 1_555 1_555
C6 N1 1_555 1_555
H4 C6 1_555 1_555
C7 C3 1_555 1_555
H5 C7 1_555 1_555
H6 C7 1_555 1_555
H7 C7 1_555 1_555
C8 O1 1_555 1_555
H8 C8 1_555 1_555
H9 C8 1_555 1_555
C9 C8 1_555 1_555
C10 S1 1_555 1_555
C11 N2 1_555 1_555
H10 C11 1_555 1_555
C12 N3 1_555 1_555
H11 C12 1_555 1_555
C13 N3 1_555 1_555
H12 C13 1_555 1_555
H13 C13 1_555 1_555
H14 C13 1_555 1_555
C5 C6 1_555 1_555
C11 C12 1_555 1_555

#END
