
#######################################################################
#
#                 Cambridge Crystallographic Data Centre
#                                CCDC 
#
#######################################################################
#
# If this CIF has been generated from an entry in the Cambridge 
# Structural Database, then it will include bibliographic, chemical, 
# crystal, experimental, refinement or atomic coordinate data resulting 
# from the CCDC's data processing and validation procedures.
#
#######################################################################

data_FARQEV
_chemical_compound_source        'Taxus mairei'
_chemical_formula_moiety         'C24 H36 O7'
_chemical_name_systematic        
9\a,10\b-Diacetoxy-5\a,13\a-dihydroxy-4,20-epoxy-11(12)-taxene
_symmetry_cell_setting           orthorhombic
_symmetry_space_group_name_H-M   'P 21 21 21'
_symmetry_Int_Tables_number      19
_space_group_name_Hall           'P 2ac 2ab'
loop_
_symmetry_equiv_pos_site_id
_symmetry_equiv_pos_as_xyz
1 x,y,z
2 1/2-x,-y,1/2+z
3 1/2+x,1/2-y,-z
4 -x,1/2+y,1/2-z
_cell_length_a                   17.368(3)
_cell_length_b                   17.554(3)
_cell_length_c                   7.6390(18)
_cell_angle_alpha                90
_cell_angle_beta                 90
_cell_angle_gamma                90
_cell_volume                     2328.96
_exptl_crystal_colour            colorless
_exptl_crystal_description       plate
_cell_formula_units_Z            4
_exptl_crystal_recrystallization_method n-hexane/dichloromethane
loop_
_atom_site_label
_atom_site_type_symbol
_atom_site_fract_x
_atom_site_fract_y
_atom_site_fract_z
O1 O 0.4495(2) 0.07064(17) 0.7032(5)
O2 O 0.37818(14) 0.38165(14) 0.4131(4)
O3 O 0.48365(16) 0.34541(18) 0.2684(4)
O4 O 0.23667(14) 0.33323(12) 0.3410(3)
O5 O 0.2020(2) 0.44530(16) 0.4574(5)
O6 O 0.28516(16) 0.04140(14) 0.6049(4)
O7 O 0.23227(15) 0.09676(14) 0.9514(4)
C1 C 0.4614(2) 0.1511(2) 0.7325(6)
H1 H 0.5169 0.1590 0.7472
C2 C 0.43616(18) 0.1977(2) 0.5740(5)
C3 C 0.40915(17) 0.26877(18) 0.5935(4)
C4 C 0.35883(19) 0.30243(18) 0.4541(5)
H2 H 0.3640 0.2718 0.3475
C5 C 0.27283(18) 0.30830(17) 0.5018(4)
H3 H 0.2670 0.3490 0.5887
C6 C 0.22699(17) 0.23713(17) 0.5683(4)
C7 C 0.2182(2) 0.17855(19) 0.4195(5)
H4 H 0.1911 0.2022 0.3228
H5 H 0.2690 0.1642 0.3781
C8 C 0.1747(2) 0.1066(2) 0.4748(6)
H6 H 0.1214 0.1196 0.4982
H7 H 0.1755 0.0703 0.3791
C9 C 0.2092(2) 0.06970(19) 0.6367(6)
H8 H 0.1759 0.0280 0.6763
C10 C 0.21663(19) 0.12822(18) 0.7793(5)
C11 C 0.26666(17) 0.19598(16) 0.7259(4)
H9 H 0.3139 0.1737 0.6779
C12 C 0.29298(18) 0.24490(19) 0.8822(4)
H10 H 0.2717 0.2231 0.9883
H11 H 0.2712 0.2955 0.8690
C13 C 0.38109(19) 0.2529(2) 0.9062(4)
H12 H 0.3894 0.2751 1.0223
C14 C 0.4222(2) 0.1758(3) 0.9048(5)
H13 H 0.3849 0.1370 0.9362
H14 H 0.4611 0.1765 0.9959
C15 C 0.4185(2) 0.3072(2) 0.7732(5)
C16 C 0.4414(2) 0.1562(2) 0.4003(5)
H15 H 0.4625 0.1063 0.4187
H16 H 0.4742 0.1842 0.3222
H17 H 0.3910 0.1518 0.3501
C17 C 0.4426(2) 0.3944(2) 0.3203(5)
C18 C 0.4539(3) 0.4779(2) 0.2903(8)
H18 H 0.4125 0.5057 0.3437
H19 H 0.4546 0.4880 0.1668
H20 H 0.5019 0.4936 0.3411
C19 C 0.2061(2) 0.4037(2) 0.3341(6)
C20 C 0.1771(3) 0.4203(3) 0.1535(7)
H21 H 0.1878 0.3777 0.0785
H22 H 0.2024 0.4648 0.1087
H23 H 0.1226 0.4291 0.1575
C21 C 0.14723(19) 0.2683(2) 0.6215(5)
H24 H 0.1532 0.3044 0.7149
H25 H 0.1152 0.2270 0.6600
H26 H 0.1237 0.2928 0.5227
C22 C 0.1582(2) 0.1327(2) 0.9174(5)
H27 H 0.1485 0.1821 0.9701
H28 H 0.1134 0.1001 0.9074
C23 C 0.3861(3) 0.3876(2) 0.7963(6)
H29 H 0.3316 0.3871 0.7747
H30 H 0.4107 0.4215 0.7150
H31 H 0.3956 0.4047 0.9137
C24 C 0.5055(2) 0.3155(3) 0.8151(6)
H32 H 0.5289 0.3492 0.7317
H33 H 0.5298 0.2664 0.8088
H34 H 0.5116 0.3360 0.9308
H35 H 0.395(3) 0.074(3) 0.682(8)
H36 H 0.281(2) -0.001(2) 0.522(5)
loop_
_geom_bond_atom_site_label_1
_geom_bond_atom_site_label_2
_geom_bond_site_symmetry_1
_geom_bond_site_symmetry_2
O1 C1 1_555 1_555
O2 C4 1_555 1_555
O3 C17 1_555 1_555
O4 C5 1_555 1_555
O5 C19 1_555 1_555
O6 C9 1_555 1_555
O7 C10 1_555 1_555
C1 H1 1_555 1_555
C2 C1 1_555 1_555
C3 C2 1_555 1_555
C4 C3 1_555 1_555
H2 C4 1_555 1_555
C5 C4 1_555 1_555
H3 C5 1_555 1_555
C6 C5 1_555 1_555
C7 C6 1_555 1_555
H4 C7 1_555 1_555
H5 C7 1_555 1_555
C8 C7 1_555 1_555
H6 C8 1_555 1_555
H7 C8 1_555 1_555
C9 C8 1_555 1_555
H8 C9 1_555 1_555
C10 C9 1_555 1_555
C11 C6 1_555 1_555
H9 C11 1_555 1_555
C12 C11 1_555 1_555
H10 C12 1_555 1_555
H11 C12 1_555 1_555
C13 C12 1_555 1_555
H12 C13 1_555 1_555
C14 C1 1_555 1_555
H13 C14 1_555 1_555
H14 C14 1_555 1_555
C15 C3 1_555 1_555
C16 C2 1_555 1_555
H15 C16 1_555 1_555
H16 C16 1_555 1_555
H17 C16 1_555 1_555
C17 O2 1_555 1_555
C18 C17 1_555 1_555
H18 C18 1_555 1_555
H19 C18 1_555 1_555
H20 C18 1_555 1_555
C19 O4 1_555 1_555
C20 C19 1_555 1_555
H21 C20 1_555 1_555
H22 C20 1_555 1_555
H23 C20 1_555 1_555
C21 C6 1_555 1_555
H24 C21 1_555 1_555
H25 C21 1_555 1_555
H26 C21 1_555 1_555
C22 O7 1_555 1_555
H27 C22 1_555 1_555
H28 C22 1_555 1_555
C23 C15 1_555 1_555
H29 C23 1_555 1_555
H30 C23 1_555 1_555
H31 C23 1_555 1_555
C24 C15 1_555 1_555
H32 C24 1_555 1_555
H33 C24 1_555 1_555
H34 C24 1_555 1_555
H35 O1 1_555 1_555
H36 O6 1_555 1_555
C10 C11 1_555 1_555
C10 C22 1_555 1_555
C13 C14 1_555 1_555
C13 C15 1_555 1_555

#END
