
#######################################################################
#
#                 Cambridge Crystallographic Data Centre
#                                CCDC 
#
#######################################################################
#
# If this CIF has been generated from an entry in the Cambridge 
# Structural Database, then it will include bibliographic, chemical, 
# crystal, experimental, refinement or atomic coordinate data resulting 
# from the CCDC's data processing and validation procedures.
#
#######################################################################

data_FARQIZ
_chemical_compound_source        'bark of Maesposis eminii'
_chemical_formula_moiety         'C30 H48 O4'
_chemical_name_systematic        '1\a,3\b-Dihydroxybauer-7-en-28-oic acid'
_chemical_properties_biological  
'moderate activity against Bacillus subtilis (ATCC 6633)'
_symmetry_cell_setting           orthorhombic
_symmetry_space_group_name_H-M   'P 21 21 21'
_symmetry_Int_Tables_number      19
_space_group_name_Hall           'P 2ac 2ab'
loop_
_symmetry_equiv_pos_site_id
_symmetry_equiv_pos_as_xyz
1 x,y,z
2 1/2-x,-y,1/2+z
3 1/2+x,1/2-y,-z
4 -x,1/2+y,1/2-z
_cell_length_a                   7.36000(10)
_cell_length_b                   12.31600(10)
_cell_length_c                   29.2710(4)
_cell_angle_alpha                90
_cell_angle_beta                 90
_cell_angle_gamma                90
_cell_volume                     2653.29
_exptl_crystal_colour            colorless
_exptl_crystal_description       plate
_chemical_melting_point          302-304deg.C
_cell_formula_units_Z            4
loop_
_atom_site_label
_atom_site_type_symbol
_atom_site_fract_x
_atom_site_fract_y
_atom_site_fract_z
O1 O 0.04607(12) 1.07919(7) 0.58457(3)
O2 O 0.30863(13) 1.08035(7) 0.54684(3)
H1 H 0.248(3) 1.1158(15) 0.5300(6)
O3 O 0.36648(13) 0.79527(7) 0.98717(3)
H2 H 0.464(3) 0.7720(18) 0.9939(7)
O4 O 0.18664(12) 0.71008(6) 0.85688(3)
H3 H 0.125(2) 0.6634(13) 0.8713(6)
C1 C 0.30798(15) 0.99400(9) 0.62063(3)
C2 C 0.38333(17) 1.08970(9) 0.64974(4)
H4 H 0.487(2) 1.1179(12) 0.6333(5)
H5 H 0.288(2) 1.1480(13) 0.6532(5)
C3 C 0.44666(17) 1.05532(9) 0.69740(4)
H6 H 0.488(2) 1.1205(14) 0.7141(6)
H7 H 0.548(2) 1.0116(11) 0.6962(4)
C4 C 0.29478(14) 0.99893(8) 0.72452(3)
C5 C 0.35703(15) 0.96588(8) 0.77252(3)
C6 C 0.49897(15) 1.01135(9) 0.79342(3)
H8 H 0.572(2) 1.0686(12) 0.7775(5)
C7 C 0.55183(16) 0.99070(9) 0.84250(3)
H9 H 0.540(2) 1.0607(13) 0.8589(5)
H10 H 0.681(2) 0.9679(12) 0.8436(5)
C8 C 0.43768(14) 0.90345(8) 0.86672(3)
H11 H 0.4856(19) 0.8322(11) 0.8567(4)
C9 C 0.46913(14) 0.90189(8) 0.91982(3)
C10 C 0.35581(15) 0.80625(8) 0.93790(3)
H12 H 0.4002(18) 0.7361(11) 0.9240(4)
C11 C 0.15627(15) 0.81553(9) 0.92610(3)
H13 H 0.107(2) 0.8826(11) 0.9390(5)
H14 H 0.087(2) 0.7537(12) 0.9394(5)
C12 C 0.12914(15) 0.81353(8) 0.87423(3)
H15 H 0.000(2) 0.8266(11) 0.8675(4)
C13 C 0.23756(14) 0.90415(8) 0.84987(3)
C14 C 0.24568(15) 0.87963(8) 0.79757(3)
H16 H 0.3170(19) 0.8133(11) 0.7967(4)
C15 C 0.05939(16) 0.85753(9) 0.77580(3)
H17 H -0.025(2) 0.9175(13) 0.7845(5)
H18 H 0.009(2) 0.7901(12) 0.7899(5)
C16 C 0.06099(16) 0.84757(9) 0.72304(4)
H19 H -0.049(2) 0.8811(13) 0.7102(5)
H20 H 0.053(2) 0.7716(13) 0.7132(5)
C17 C 0.23026(15) 0.89505(8) 0.69808(3)
C18 C 0.17045(14) 0.92403(8) 0.64798(3)
H21 H 0.062(2) 0.9714(11) 0.6515(4)
C19 C 0.10373(15) 0.82312(9) 0.61952(3)
H22 H 0.131(2) 0.7543(12) 0.6373(5)
C20 C 0.20367(17) 0.80931(9) 0.57348(4)
H23 H 0.158(2) 0.8701(12) 0.5524(5)
C21 C 0.40921(17) 0.81880(10) 0.58035(4)
H24 H 0.472(2) 0.8108(12) 0.5514(5)
H25 H 0.448(2) 0.7574(14) 0.5995(6)
C22 C 0.46780(16) 0.92763(10) 0.60126(4)
H26 H 0.533(2) 0.9697(12) 0.5790(5)
H27 H 0.560(2) 0.9143(12) 0.6264(5)
C23 C 0.20498(16) 1.05278(8) 0.58235(3)
C24 C 0.13904(17) 1.08248(9) 0.73101(4)
H28 H 0.078(2) 1.1011(13) 0.7022(6)
H29 H 0.188(2) 1.1515(14) 0.7434(5)
H30 H 0.050(2) 1.0569(13) 0.7533(5)
C25 C 0.42140(17) 1.00777(9) 0.94543(4)
H31 H 0.470(2) 1.0021(12) 0.9768(5)
H32 H 0.298(2) 1.0191(13) 0.9490(5)
H33 H 0.474(2) 1.0716(14) 0.9294(5)
C26 C 0.67144(16) 0.87773(10) 0.92869(4)
H34 H 0.709(2) 0.8079(12) 0.9126(5)
H35 H 0.693(2) 0.8689(11) 0.9622(5)
H36 H 0.749(2) 0.9383(11) 0.9177(5)
C27 C 0.14101(16) 1.01349(9) 0.85845(4)
H37 H 0.112(2) 1.0252(12) 0.8898(5)
H38 H 0.022(2) 1.0157(14) 0.8421(5)
H39 H 0.210(2) 1.0724(12) 0.8472(5)
C28 C 0.38237(16) 0.80859(9) 0.69921(4)
H40 H 0.350(3) 0.7485(15) 0.6802(6)
H41 H 0.402(2) 0.7846(14) 0.7301(6)
H42 H 0.500(3) 0.8377(15) 0.6898(6)
C29 C -0.10210(17) 0.82666(11) 0.61229(4)
H43 H -0.150(2) 0.7651(13) 0.5971(5)
H44 H -0.132(2) 0.8880(13) 0.5928(6)
H45 H -0.168(2) 0.8333(13) 0.6433(6)
C30 C 0.1566(2) 0.70082(11) 0.55050(4)
H46 H 0.177(3) 0.6405(14) 0.5713(6)
H47 H 0.229(2) 0.6910(12) 0.5223(6)
H48 H 0.020(2) 0.6972(13) 0.5426(5)
loop_
_geom_bond_atom_site_label_1
_geom_bond_atom_site_label_2
_geom_bond_site_symmetry_1
_geom_bond_site_symmetry_2
O1 C23 1_555 1_555
O2 H1 1_555 1_555
O3 H2 1_555 1_555
O4 H3 1_555 1_555
C1 C2 1_555 1_555
C2 H4 1_555 1_555
H5 C2 1_555 1_555
C3 C2 1_555 1_555
H6 C3 1_555 1_555
H7 C3 1_555 1_555
C4 C3 1_555 1_555
C5 C4 1_555 1_555
C6 C5 1_555 1_555
H8 C6 1_555 1_555
C7 C6 1_555 1_555
H9 C7 1_555 1_555
H10 C7 1_555 1_555
C8 C7 1_555 1_555
H11 C8 1_555 1_555
C9 C8 1_555 1_555
C10 O3 1_555 1_555
H12 C10 1_555 1_555
C11 C10 1_555 1_555
H13 C11 1_555 1_555
H14 C11 1_555 1_555
C12 O4 1_555 1_555
H15 C12 1_555 1_555
C13 C8 1_555 1_555
C14 C5 1_555 1_555
H16 C14 1_555 1_555
C15 C14 1_555 1_555
H17 C15 1_555 1_555
H18 C15 1_555 1_555
C16 C15 1_555 1_555
H19 C16 1_555 1_555
H20 C16 1_555 1_555
C17 C4 1_555 1_555
C18 C1 1_555 1_555
H21 C18 1_555 1_555
C19 C18 1_555 1_555
H22 C19 1_555 1_555
C20 C19 1_555 1_555
H23 C20 1_555 1_555
C21 C20 1_555 1_555
H24 C21 1_555 1_555
H25 C21 1_555 1_555
C22 C1 1_555 1_555
H26 C22 1_555 1_555
H27 C22 1_555 1_555
C23 O2 1_555 1_555
C24 C4 1_555 1_555
H28 C24 1_555 1_555
H29 C24 1_555 1_555
H30 C24 1_555 1_555
C25 C9 1_555 1_555
H31 C25 1_555 1_555
H32 C25 1_555 1_555
H33 C25 1_555 1_555
C26 C9 1_555 1_555
H34 C26 1_555 1_555
H35 C26 1_555 1_555
H36 C26 1_555 1_555
C27 C13 1_555 1_555
H37 C27 1_555 1_555
H38 C27 1_555 1_555
H39 C27 1_555 1_555
C28 C17 1_555 1_555
H40 C28 1_555 1_555
H41 C28 1_555 1_555
H42 C28 1_555 1_555
C29 C19 1_555 1_555
H43 C29 1_555 1_555
H44 C29 1_555 1_555
H45 C29 1_555 1_555
C30 C20 1_555 1_555
H46 C30 1_555 1_555
H47 C30 1_555 1_555
H48 C30 1_555 1_555
C1 C23 1_555 1_555
C9 C10 1_555 1_555
C11 C12 1_555 1_555
C12 C13 1_555 1_555
C13 C14 1_555 1_555
C16 C17 1_555 1_555
C17 C18 1_555 1_555
C21 C22 1_555 1_555

#END
