
#######################################################################
#
#                 Cambridge Crystallographic Data Centre
#                                CCDC 
#
#######################################################################
#
# If this CIF has been generated from an entry in the Cambridge 
# Structural Database, then it will include bibliographic, chemical, 
# crystal, experimental, refinement or atomic coordinate data resulting 
# from the CCDC's data processing and validation procedures.
#
#######################################################################

data_FARRUO
_chemical_name_common            
'5,10,15,20-tetrakis(2,6-difluorophenyl)sapphyrin dichloromethane solvate'
_chemical_formula_moiety         'C48 H25 F8 N5,C1 H2 Cl2'
_chemical_name_systematic        
'6,11,16,21-tetrakis(2,6-difluorophenyl)-25,26,27,28,29-pentaazahexacyclo[20.2.1.1^2,5^.1^7,10^.1^12,15^.1^17,20^]nonacosa-1(24),2,4,6,8,10(28),11,13,15,17(26),18,20,22-tridecaene dichloromethane dichloromethane solvate'
_symmetry_cell_setting           orthorhombic
_symmetry_space_group_name_H-M   'P n m a'
_symmetry_Int_Tables_number      62
_space_group_name_Hall           '-P 2ac 2n'
loop_
_symmetry_equiv_pos_site_id
_symmetry_equiv_pos_as_xyz
1 x,y,z
2 1/2-x,-y,1/2+z
3 -x,1/2+y,-z
4 1/2+x,1/2-y,1/2-z
5 -x,-y,-z
6 1/2+x,y,1/2-z
7 x,1/2-y,z
8 1/2-x,1/2+y,1/2+z
_cell_length_a                   11.907(2)
_cell_length_b                   28.045(6)
_cell_length_c                   12.012(2)
_cell_angle_alpha                90
_cell_angle_beta                 90
_cell_angle_gamma                90
_cell_volume                     4011.19
_exptl_crystal_description       block
_cell_formula_units_Z            4
_chemical_properties_physical    Heat-sensitive
loop_
_atom_site_label
_atom_site_type_symbol
_atom_site_fract_x
_atom_site_fract_y
_atom_site_fract_z
C1 C 0.1401(4) 0.70973(18) 1.0927(5)
C2 C 0.0272(5) 0.72596(18) 1.0899(5)
H1 H -0.0377 0.7062 1.0883
C3 C 0.1814(5) 0.66320(18) 1.0747(5)
C4 C 0.1138(4) 0.63076(18) 1.0159(5)
C5 C 0.1262(5) 0.58037(18) 1.0047(5)
H2 H 0.1845 0.5615 1.0359
C6 C 0.0398(4) 0.56432(18) 0.9413(6)
H3 H 0.0261 0.5321 0.9206
C7 C -0.0272(4) 0.60492(17) 0.9111(5)
C8 C -0.1256(4) 0.60673(17) 0.8499(5)
C9 C -0.1868(4) 0.64824(17) 0.8257(5)
C10 C -0.2914(5) 0.65082(18) 0.7671(6)
H4 H -0.3334 0.6245 0.7399
C11 C -0.3201(5) 0.69769(18) 0.7571(6)
H5 H -0.3849 0.7100 0.7212
C12 C -0.2335(5) 0.72481(18) 0.8112(6)
C13 C 0.2931(5) 0.64803(17) 1.1129(5)
C14 C 0.3224(5) 0.64587(19) 1.2247(6)
C15 C 0.4234(5) 0.6277(2) 1.2618(7)
H6 H 0.4383 0.6253 1.3393
C16 C 0.5007(6) 0.6133(2) 1.1873(7)
H7 H 0.5706 0.6013 1.2132
C17 C 0.4810(5) 0.6153(2) 1.0750(8)
H8 H 0.5361 0.6057 1.0225
C18 C 0.3759(5) 0.6324(2) 1.0413(6)
C19 C -0.1681(4) 0.56139(16) 0.7999(5)
C20 C -0.2605(5) 0.53722(18) 0.8392(5)
C21 C -0.3038(5) 0.49604(19) 0.7921(6)
H9 H -0.3683 0.4808 0.8221
C22 C -0.2498(6) 0.4782(2) 0.7006(7)
H10 H -0.2780 0.4502 0.6658
C23 C -0.1554(6) 0.4999(2) 0.6577(6)
H11 H -0.1180 0.4874 0.5943
C24 C -0.1172(5) 0.54055(19) 0.7100(6)
F1 F 0.2468(3) 0.66100(14) 1.2998(3)
F2 F 0.3535(3) 0.63455(16) 0.9326(4)
F3 F -0.3123(3) 0.55524(11) 0.9315(3)
F4 F -0.0235(3) 0.56146(12) 0.6690(3)
N1 N 0.2060(5) 0.7500 1.1036(7)
H12 H 0.2774(19) 0.7500 1.098(8)
N2 N 0.0199(4) 0.64447(16) 0.9578(4)
N3 N -0.1545(4) 0.69430(16) 0.8533(4)
H13 H -0.107(7) 0.702(3) 0.881(8)
C1F C 0.1401(4) 0.79027(18) 1.0927(5)
C2F C 0.0272(5) 0.77404(18) 1.0899(5)
H1F H -0.0377 0.7938 1.0883
C3F C 0.1814(5) 0.83680(18) 1.0747(5)
C4F C 0.1138(4) 0.86924(18) 1.0159(5)
C5F C 0.1262(5) 0.91963(18) 1.0047(5)
H2F H 0.1845 0.9385 1.0359
C6F C 0.0398(4) 0.93568(18) 0.9413(6)
H3F H 0.0261 0.9679 0.9206
C7F C -0.0272(4) 0.89508(17) 0.9111(5)
C8F C -0.1256(4) 0.89327(17) 0.8499(5)
C9F C -0.1868(4) 0.85176(17) 0.8257(5)
C10F C -0.2914(5) 0.84918(18) 0.7671(6)
H4F H -0.3334 0.8755 0.7399
C11F C -0.3201(5) 0.80231(18) 0.7571(6)
H5F H -0.3849 0.7900 0.7212
C12F C -0.2335(5) 0.77519(18) 0.8112(6)
C13F C 0.2931(5) 0.85197(17) 1.1129(5)
C14F C 0.3224(5) 0.85413(19) 1.2247(6)
C15F C 0.4234(5) 0.8723(2) 1.2618(7)
H6F H 0.4383 0.8747 1.3393
C16F C 0.5007(6) 0.8867(2) 1.1873(7)
H7F H 0.5706 0.8987 1.2132
C17F C 0.4810(5) 0.8847(2) 1.0750(8)
H8F H 0.5361 0.8943 1.0225
C18F C 0.3759(5) 0.8676(2) 1.0413(6)
C19F C -0.1681(4) 0.93861(16) 0.7999(5)
C20F C -0.2605(5) 0.96278(18) 0.8392(5)
C21F C -0.3038(5) 1.00396(19) 0.7921(6)
H9F H -0.3683 1.0192 0.8221
C22F C -0.2498(6) 1.0218(2) 0.7006(7)
H10F H -0.2780 1.0498 0.6658
C23F C -0.1554(6) 1.0001(2) 0.6577(6)
H11F H -0.1180 1.0126 0.5943
C24F C -0.1172(5) 0.95945(19) 0.7100(6)
F1F F 0.2468(3) 0.83900(14) 1.2998(3)
F2F F 0.3535(3) 0.86545(16) 0.9326(4)
F3F F -0.3123(3) 0.94476(11) 0.9315(3)
F4F F -0.0235(3) 0.93854(12) 0.6690(3)
N2F N 0.0199(4) 0.85553(16) 0.9578(4)
N3F N -0.1545(4) 0.80570(16) 0.8533(4)
H13F H -0.107(7) 0.798(3) 0.881(8)
H14? H 0.002(18) 0.666(8) 0.93(2)
C25? C 0.5539(11) 0.7586(7) 0.0004(12)
H15? H 0.5731 0.7914 -0.0122
H16? H 0.6182 0.7392 -0.0169
Cl1? Cl 0.5142(2) 0.7500 0.1420(3)
Cl2? Cl 0.4386(3) 0.74200(17) -0.0853(3)
loop_
_geom_bond_atom_site_label_1
_geom_bond_atom_site_label_2
_geom_bond_site_symmetry_1
_geom_bond_site_symmetry_2
C1 C2 1_555 1_555
C2 H1 1_555 1_555
C3 C1 1_555 1_555
C4 C3 1_555 1_555
C5 C4 1_555 1_555
H2 C5 1_555 1_555
C6 C5 1_555 1_555
H3 C6 1_555 1_555
C7 C6 1_555 1_555
C8 C7 1_555 1_555
C9 C8 1_555 1_555
C10 C9 1_555 1_555
H4 C10 1_555 1_555
C11 C10 1_555 1_555
H5 C11 1_555 1_555
C12 C11 1_555 1_555
C13 C3 1_555 1_555
C14 C13 1_555 1_555
C15 C14 1_555 1_555
H6 C15 1_555 1_555
C16 C15 1_555 1_555
H7 C16 1_555 1_555
C17 C16 1_555 1_555
H8 C17 1_555 1_555
C18 C13 1_555 1_555
C19 C8 1_555 1_555
C20 C19 1_555 1_555
C21 C20 1_555 1_555
H9 C21 1_555 1_555
C22 C21 1_555 1_555
H10 C22 1_555 1_555
C23 C22 1_555 1_555
H11 C23 1_555 1_555
C24 C19 1_555 1_555
F1 C14 1_555 1_555
F2 C18 1_555 1_555
F3 C20 1_555 1_555
F4 C24 1_555 1_555
N1 C1 1_555 1_555
H12 N1 1_555 1_555
N2 C4 1_555 1_555
N3 C9 1_555 1_555
H13 N3 1_555 1_555
C1F N1 1_555 1_555
C2F C2 1_555 1_555
H1F C2F 1_555 1_555
C3F C1F 1_555 1_555
C4F C3F 1_555 1_555
C5F C4F 1_555 1_555
H2F C5F 1_555 1_555
C6F C5F 1_555 1_555
H3F C6F 1_555 1_555
C7F C6F 1_555 1_555
C8F C7F 1_555 1_555
C9F C8F 1_555 1_555
C10F C9F 1_555 1_555
H4F C10F 1_555 1_555
C11F C10F 1_555 1_555
H5F C11F 1_555 1_555
C12F C12 1_555 1_555
C13F C3F 1_555 1_555
C14F C13F 1_555 1_555
C15F C14F 1_555 1_555
H6F C15F 1_555 1_555
C16F C15F 1_555 1_555
H7F C16F 1_555 1_555
C17F C16F 1_555 1_555
H8F C17F 1_555 1_555
C18F C13F 1_555 1_555
C19F C8F 1_555 1_555
C20F C19F 1_555 1_555
C21F C20F 1_555 1_555
H9F C21F 1_555 1_555
C22F C21F 1_555 1_555
H10F C22F 1_555 1_555
C23F C22F 1_555 1_555
H11F C23F 1_555 1_555
C24F C19F 1_555 1_555
F1F C14F 1_555 1_555
F2F C18F 1_555 1_555
F3F C20F 1_555 1_555
F4F C24F 1_555 1_555
N2F C4F 1_555 1_555
N3F C9F 1_555 1_555
H13F N3F 1_555 1_555
C7 N2 1_555 1_555
C12 N3 1_555 1_555
C17 C18 1_555 1_555
C23 C24 1_555 1_555
C1F C2F 1_555 1_555
C7F N2F 1_555 1_555
C11F C12F 1_555 1_555
C12F N3F 1_555 1_555
C17F C18F 1_555 1_555
C23F C24F 1_555 1_555

#END
