
#######################################################################
#
#                 Cambridge Crystallographic Data Centre
#                                CCDC 
#
#######################################################################
#
# If this CIF has been generated from an entry in the Cambridge 
# Structural Database, then it will include bibliographic, chemical, 
# crystal, experimental, refinement or atomic coordinate data resulting 
# from the CCDC's data processing and validation procedures.
#
#######################################################################

data_FARTEY
_chemical_compound_source        'aerial part of Caragana intermedia'
_chemical_formula_moiety         'C15 H26 O2'
_chemical_name_systematic        4(15)-Eudesmene-1\b,5\a-diol
_chemical_properties_biological  'antiPyricularia oryzae P-2b activity'
_symmetry_cell_setting           monoclinic
_symmetry_space_group_name_H-M   'P 21'
_symmetry_Int_Tables_number      4
_space_group_name_Hall           'P 2yb'
loop_
_symmetry_equiv_pos_site_id
_symmetry_equiv_pos_as_xyz
1 x,y,z
2 -x,1/2+y,-z
_cell_length_a                   6.051(5)
_cell_length_b                   12.894(4)
_cell_length_c                   8.967(3)
_cell_angle_alpha                90
_cell_angle_beta                 91.01(3)
_cell_angle_gamma                90
_cell_volume                     699.511
_exptl_crystal_colour            colorless
_exptl_crystal_description       plate
_cell_formula_units_Z            2
_exptl_crystal_recrystallization_method 'ethyl acetate/petroleum ether'
loop_
_atom_site_label
_atom_site_type_symbol
_atom_site_fract_x
_atom_site_fract_y
_atom_site_fract_z
O1 O 0.4583(5) 0.60682(19) 0.3821(3)
H1 H 0.3799 0.5980 0.3076
O2 O 0.5163(3) 0.29620(19) 0.4591(3)
H2 H 0.5284 0.2424 0.5073
C1 C 0.5068(6) 0.5076(3) 0.4506(4)
H3 H 0.3715 0.4658 0.4502
C2 C 0.5742(7) 0.5305(3) 0.6104(4)
H4 H 0.4510 0.5620 0.6611
H5 H 0.6955 0.5797 0.6116
C3 C 0.6449(7) 0.4329(3) 0.6935(4)
H6 H 0.7100 0.4521 0.7892
H7 H 0.5157 0.3907 0.7121
C4 C 0.8090(6) 0.3704(3) 0.6077(4)
C5 C 0.7292(5) 0.3457(2) 0.4499(4)
C6 C 0.8822(5) 0.2747(2) 0.3629(4)
H8 H 1.0250 0.3080 0.3531
H9 H 0.9040 0.2106 0.4177
C7 C 0.7877(6) 0.2504(3) 0.2088(4)
H10 H 0.6419 0.2196 0.2245
C8 C 0.7471(7) 0.3500(3) 0.1225(4)
H11 H 0.8875 0.3835 0.1040
H12 H 0.6788 0.3336 0.0267
C9 C 0.5995(6) 0.4241(3) 0.2059(4)
H13 H 0.4530 0.3940 0.2120
H14 H 0.5864 0.4881 0.1497
C10 C 0.6845(5) 0.4494(2) 0.3646(4)
C11 C 0.9253(6) 0.1669(4) 0.1285(5)
H15 H 0.9501 0.1109 0.2007
C12 C 1.1540(7) 0.2051(4) 0.0834(5)
H16 H 1.2287 0.1511 0.0305
H17 H 1.2386 0.2233 0.1712
H18 H 1.1382 0.2649 0.0203
C13 C 0.8014(9) 0.1206(5) 0.0002(6)
H19 H 0.7850 0.1713 -0.0776
H20 H 0.6581 0.0988 0.0321
H21 H 0.8811 0.0619 -0.0366
C14 C 1.0023(7) 0.3422(3) 0.6631(4)
H22 H 1.0430 0.3610 0.7598
H23 H 1.0984 0.3035 0.6055
C15 C 0.8966(6) 0.5147(3) 0.3566(4)
H24 H 1.0018 0.4800 0.2952
H25 H 0.9583 0.5236 0.4552
H26 H 0.8622 0.5814 0.3145
loop_
_geom_bond_atom_site_label_1
_geom_bond_atom_site_label_2
_geom_bond_site_symmetry_1
_geom_bond_site_symmetry_2
O1 H1 1_555 1_555
O2 H2 1_555 1_555
C1 O1 1_555 1_555
H3 C1 1_555 1_555
C2 C1 1_555 1_555
H4 C2 1_555 1_555
H5 C2 1_555 1_555
C3 C2 1_555 1_555
H6 C3 1_555 1_555
H7 C3 1_555 1_555
C4 C3 1_555 1_555
C5 O2 1_555 1_555
C6 C5 1_555 1_555
H8 C6 1_555 1_555
H9 C6 1_555 1_555
C7 C6 1_555 1_555
H10 C7 1_555 1_555
C8 C7 1_555 1_555
H11 C8 1_555 1_555
H12 C8 1_555 1_555
C9 C8 1_555 1_555
H13 C9 1_555 1_555
H14 C9 1_555 1_555
C10 C1 1_555 1_555
C11 C7 1_555 1_555
H15 C11 1_555 1_555
C12 C11 1_555 1_555
H16 C12 1_555 1_555
H17 C12 1_555 1_555
H18 C12 1_555 1_555
C13 C11 1_555 1_555
H19 C13 1_555 1_555
H20 C13 1_555 1_555
H21 C13 1_555 1_555
C14 C4 1_555 1_555
H22 C14 1_555 1_555
H23 C14 1_555 1_555
C15 C10 1_555 1_555
H24 C15 1_555 1_555
H25 C15 1_555 1_555
H26 C15 1_555 1_555
C4 C5 1_555 1_555
C5 C10 1_555 1_555
C9 C10 1_555 1_555

#END
