
#######################################################################
#
#                 Cambridge Crystallographic Data Centre
#                                CCDC 
#
#######################################################################
#
# If this CIF has been generated from an entry in the Cambridge 
# Structural Database, then it will include bibliographic, chemical, 
# crystal, experimental, refinement or atomic coordinate data resulting 
# from the CCDC's data processing and validation procedures.
#
#######################################################################

data_FARTIC
_chemical_compound_source        'aerial part of Caragana intermedia'
_chemical_formula_moiety         'C15 H26 O2'
_chemical_name_systematic        5-epi-Eudesmene-4(15)-ene-1\b,6\b-diol
_chemical_properties_biological  'weak antiHIV activity'
_symmetry_cell_setting           trigonal
_symmetry_space_group_name_H-M   'P 32 2 1'
_symmetry_Int_Tables_number      154
_space_group_name_Hall           'P 32 2"'
loop_
_symmetry_equiv_pos_site_id
_symmetry_equiv_pos_as_xyz
1 x,y,z
2 -y,x-y,2/3+z
3 -x+y,-x,1/3+z
4 y,x,-z
5 x-y,-y,1/3-z
6 -x,-x+y,2/3-z
_cell_length_a                   12.156(2)
_cell_length_b                   12.156(2)
_cell_length_c                   35.931(10)
_cell_angle_alpha                90
_cell_angle_beta                 90
_cell_angle_gamma                120
_cell_volume                     4598.13
_exptl_crystal_colour            colorless
_exptl_crystal_description       prismatic
_cell_formula_units_Z            12
_exptl_crystal_recrystallization_method 'ethyl acetate/petroleum ether'
loop_
_atom_site_label
_atom_site_type_symbol
_atom_site_fract_x
_atom_site_fract_y
_atom_site_fract_z
O1 O 0.32646(2) 1.02610(2) -0.040039(7)
H1 H 0.3943 1.0483 -0.0296
O2 O 0.048430(19) 0.56480(2) 0.046035(7)
H2 H 0.0743 0.5406 0.0635
C1 C 0.23059(3) 0.90581(3) -0.025142(10)
H5 H 0.2550 0.8420 -0.0308
C2 C 0.10762(3) 0.86901(3) -0.044985(11)
H6 H 0.1183 0.8627 -0.0715
H7 H 0.0846 0.9339 -0.0411
C3 C 0.00196(3) 0.74165(3) -0.030370(10)
H8 H -0.0783 0.7232 -0.0414
H9 H 0.0191 0.6748 -0.0376
C4 C -0.00751(3) 0.74379(3) 0.011266(11)
C5 C 0.11480(3) 0.78229(3) 0.031485(10)
H10 H 0.1002 0.7935 0.0577
C6 C 0.15266(3) 0.67876(3) 0.030355(10)
H11 H 0.1633 0.6621 0.0043
C7 C 0.27628(3) 0.71828(3) 0.050878(11)
H12 H 0.2640 0.7374 0.0765
C8 C 0.38072(3) 0.84190(3) 0.034158(12)
H13 H 0.4596 0.8686 0.0474
H14 H 0.3935 0.8281 0.0083
C9 C 0.34611(3) 0.94553(3) 0.036560(11)
H15 H 0.4142 1.0224 0.0255
H16 H 0.3403 0.9632 0.0626
C10 C 0.22123(3) 0.91358(3) 0.017281(10)
C11 C 0.31152(3) 0.61358(3) 0.053111(11)
H17 H 0.2386 0.5390 0.0641
C12 C 0.33663(3) 0.57199(3) 0.015327(11)
H18 H 0.2636 0.5445 -0.0004
H19 H 0.3530 0.5032 0.0188
H20 H 0.4090 0.6421 0.0038
C13 C 0.42502(3) 0.65084(4) 0.079294(12)
H21 H 0.4988 0.7239 0.0695
H22 H 0.4411 0.5814 0.0813
H23 H 0.4059 0.6705 0.1035
C14 C -0.11390(3) 0.71705(3) 0.028285(13)
H24 H -0.1865 0.6959 0.0145
H25 H -0.1165 0.7193 0.0541
C15 C 0.18716(3) 1.01626(3) 0.028007(12)
H26 H 0.1815 1.0194 0.0546
H27 H 0.1070 0.9956 0.0171
H28 H 0.2518 1.0975 0.0190
O3 O -0.279881(18) 0.674950(19) 0.216512(7)
H3 H -0.2900 0.6558 0.2386
O4 O 0.018896(18) 0.53289(2) 0.122892(7)
H4 H -0.0057 0.4892 0.1040
C16 C -0.17936(3) 0.65781(3) 0.201764(10)
H29 H -0.2048 0.5679 0.2041
C17 C -0.05988(3) 0.73518(3) 0.224949(11)
H30 H -0.0765 0.7074 0.2507
H31 H -0.0354 0.8243 0.2241
C18 C 0.04789(3) 0.71773(3) 0.209597(10)
H32 H 0.1260 0.7739 0.2227
H33 H 0.0284 0.6310 0.2139
C19 C 0.06653(3) 0.74596(3) 0.168800(11)
C20 C -0.05096(3) 0.67459(3) 0.145057(10)
H34 H -0.0300 0.7131 0.1202
C21 C -0.08680(3) 0.53454(3) 0.140514(10)
H35 H -0.0982 0.4971 0.1654
C22 C -0.20939(3) 0.45590(3) 0.118510(10)
H36 H -0.1947 0.4954 0.0939
C23 C -0.31559(3) 0.46996(3) 0.136178(11)
H37 H -0.3923 0.4234 0.1215
H38 H -0.3327 0.4333 0.1609
C24 C -0.28167(3) 0.60735(3) 0.138751(11)
H39 H -0.3518 0.6111 0.1503
H40 H -0.2721 0.6410 0.1137
C25 C -0.16059(3) 0.69268(3) 0.160594(10)
C26 C -0.24306(3) 0.31820(3) 0.111866(10)
H41 H -0.1691 0.3204 0.1002
C27 C -0.27164(3) 0.24039(3) 0.147456(12)
H42 H -0.1996 0.2801 0.1638
H43 H -0.2891 0.1562 0.1414
H44 H -0.3442 0.2359 0.1596
C28 C -0.35445(3) 0.25139(4) 0.084630(12)
H45 H -0.3650 0.1702 0.0779
H46 H -0.3373 0.3025 0.0627
H47 H -0.4307 0.2397 0.0962
C29 C 0.17628(4) 0.82996(3) 0.154660(13)
H48 H 0.2462 0.8746 0.1701
H49 H 0.1842 0.8449 0.1292
C30 C -0.12579(3) 0.83149(3) 0.155232(12)
H50 H -0.1261 0.8487 0.1292
H51 H -0.0427 0.8864 0.1653
H52 H -0.1867 0.8463 0.1679
loop_
_geom_bond_atom_site_label_1
_geom_bond_atom_site_label_2
_geom_bond_site_symmetry_1
_geom_bond_site_symmetry_2
O1 H1 1_555 1_555
O2 H2 1_555 1_555
O3 H3 1_555 1_555
O4 H4 1_555 1_555
C1 O1 1_555 1_555
H5 C1 1_555 1_555
C2 C1 1_555 1_555
H6 C2 1_555 1_555
H7 C2 1_555 1_555
C3 C2 1_555 1_555
H8 C3 1_555 1_555
H9 C3 1_555 1_555
C4 C3 1_555 1_555
C5 C4 1_555 1_555
H10 C5 1_555 1_555
C6 O2 1_555 1_555
H11 C6 1_555 1_555
C7 C6 1_555 1_555
H12 C7 1_555 1_555
C8 C7 1_555 1_555
H13 C8 1_555 1_555
H14 C8 1_555 1_555
C9 C8 1_555 1_555
H15 C9 1_555 1_555
H16 C9 1_555 1_555
C10 C1 1_555 1_555
C11 C7 1_555 1_555
H17 C11 1_555 1_555
C12 C11 1_555 1_555
H18 C12 1_555 1_555
H19 C12 1_555 1_555
H20 C12 1_555 1_555
C13 C11 1_555 1_555
H21 C13 1_555 1_555
H22 C13 1_555 1_555
H23 C13 1_555 1_555
C14 C4 1_555 1_555
H24 C14 1_555 1_555
H25 C14 1_555 1_555
C15 C10 1_555 1_555
H26 C15 1_555 1_555
H27 C15 1_555 1_555
H28 C15 1_555 1_555
C16 O3 1_555 1_555
H29 C16 1_555 1_555
C17 C16 1_555 1_555
H30 C17 1_555 1_555
H31 C17 1_555 1_555
C18 C17 1_555 1_555
H32 C18 1_555 1_555
H33 C18 1_555 1_555
C19 C18 1_555 1_555
C20 C19 1_555 1_555
H34 C20 1_555 1_555
C21 O4 1_555 1_555
H35 C21 1_555 1_555
C22 C21 1_555 1_555
H36 C22 1_555 1_555
C23 C22 1_555 1_555
H37 C23 1_555 1_555
H38 C23 1_555 1_555
C24 C23 1_555 1_555
H39 C24 1_555 1_555
H40 C24 1_555 1_555
C25 C16 1_555 1_555
C26 C22 1_555 1_555
H41 C26 1_555 1_555
C27 C26 1_555 1_555
H42 C27 1_555 1_555
H43 C27 1_555 1_555
H44 C27 1_555 1_555
C28 C26 1_555 1_555
H45 C28 1_555 1_555
H46 C28 1_555 1_555
H47 C28 1_555 1_555
C29 C19 1_555 1_555
H48 C29 1_555 1_555
H49 C29 1_555 1_555
C30 C25 1_555 1_555
H50 C30 1_555 1_555
H51 C30 1_555 1_555
H52 C30 1_555 1_555
C5 C6 1_555 1_555
C5 C10 1_555 1_555
C9 C10 1_555 1_555
C20 C21 1_555 1_555
C20 C25 1_555 1_555
C24 C25 1_555 1_555

#END
