
#######################################################################
#
#                 Cambridge Crystallographic Data Centre
#                                CCDC 
#
#######################################################################
#
# If this CIF has been generated from an entry in the Cambridge 
# Structural Database, then it will include bibliographic, chemical, 
# crystal, experimental, refinement or atomic coordinate data resulting 
# from the CCDC's data processing and validation procedures.
#
#######################################################################

data_FARTOI
_chemical_compound_source        'aerial part of Caragana intermedia'
_chemical_formula_moiety         'C15 H26 O2'
_chemical_name_systematic        4(15)-Eudesmene-1\b,7\a-diol
_chemical_properties_biological  'antiPyricularia oryzae P-2b activity'
_symmetry_cell_setting           orthorhombic
_symmetry_space_group_name_H-M   'P 21 21 2'
_symmetry_Int_Tables_number      18
_space_group_name_Hall           'P 2 2ab'
loop_
_symmetry_equiv_pos_site_id
_symmetry_equiv_pos_as_xyz
1 x,y,z
2 -x,-y,z
3 1/2-x,1/2+y,-z
4 1/2+x,1/2-y,-z
_cell_length_a                   11.151(15)
_cell_length_b                   22.945(14)
_cell_length_c                   11.441(8)
_cell_angle_alpha                90
_cell_angle_beta                 90
_cell_angle_gamma                90
_cell_volume                     2927.29
_exptl_crystal_colour            colorless
_exptl_crystal_description       plate
_cell_formula_units_Z            8
_exptl_crystal_recrystallization_method 'ethyl acetate/petroleum ether'
loop_
_atom_site_label
_atom_site_type_symbol
_atom_site_fract_x
_atom_site_fract_y
_atom_site_fract_z
O1 O 0.4614(8) 0.9417(4) 0.2356(9)
H1 H 0.4739 0.9745 0.2100
O2 O 0.1369(8) 0.9405(3) -0.1310(7)
H2 H 0.1234 0.9487 -0.0625
C1 C 0.3375(11) 0.9260(5) 0.2153(11)
H5 H 0.2929 0.9624 0.2045
C2 C 0.2864(13) 0.8965(6) 0.3212(14)
H6 H 0.2917 0.9226 0.3877
H7 H 0.3332 0.8620 0.3388
C3 C 0.1561(15) 0.8792(6) 0.3025(14)
H8 H 0.1306 0.8547 0.3669
H9 H 0.1068 0.9140 0.3033
C4 C 0.1354(13) 0.8476(6) 0.1912(13)
C5 C 0.1883(10) 0.8772(5) 0.0847(11)
H10 H 0.1488 0.9153 0.0804
C6 C 0.1654(12) 0.8489(5) -0.0307(11)
H11 H 0.0805 0.8402 -0.0372
H12 H 0.2085 0.8122 -0.0337
C7 C 0.2037(11) 0.8869(5) -0.1364(11)
C8 C 0.3358(12) 0.9032(5) -0.1226(11)
H13 H 0.3845 0.8688 -0.1365
H14 H 0.3565 0.9319 -0.1815
C9 C 0.3663(11) 0.9278(5) -0.0022(10)
H15 H 0.4525 0.9328 0.0028
H16 H 0.3300 0.9660 0.0050
C10 C 0.3256(11) 0.8907(5) 0.0999(11)
C11 C 0.1761(12) 0.8585(5) -0.2527(11)
H17 H 0.0889 0.8530 -0.2532
C12 C 0.2281(15) 0.7984(7) -0.2707(15)
H18 H 0.1782 0.7709 -0.2363
H19 H 0.3037 0.7966 -0.2365
H20 H 0.2345 0.7909 -0.3503
C13 C 0.2020(14) 0.8965(6) -0.3562(14)
H21 H 0.2846 0.8997 -0.3660
H22 H 0.1694 0.9332 -0.3439
H23 H 0.1683 0.8800 -0.4228
C14 C 0.0786(12) 0.7975(6) 0.1854(14)
H24 H 0.0491 0.7803 0.2532
H25 H 0.0677 0.7793 0.1136
C15 C 0.3976(12) 0.8351(5) 0.1102(12)
H26 H 0.4746 0.8439 0.1362
H27 H 0.4019 0.8171 0.0376
H28 H 0.3606 0.8103 0.1633
O3 O 0.5426(8) 0.9410(4) 0.4640(9)
H3 H 0.5361 0.9755 0.4811
O4 O 0.8856(7) 0.9416(3) 0.8192(8)
H4 H 0.8587 0.9736 0.8374
C16 C 0.6645(14) 0.9216(6) 0.4874(13)
H29 H 0.7176 0.9557 0.4855
C17 C 0.7010(13) 0.8804(6) 0.3893(14)
H30 H 0.6421 0.8494 0.3823
H31 H 0.7032 0.9015 0.3159
C18 C 0.8236(16) 0.8542(7) 0.4139(15)
H32 H 0.8393 0.8235 0.3575
H33 H 0.8843 0.8840 0.4037
C19 C 0.8335(12) 0.8298(6) 0.5329(12)
C20 C 0.8008(11) 0.8716(5) 0.6287(11)
H34 H 0.8543 0.9052 0.6203
C21 C 0.8163(12) 0.8496(5) 0.7526(11)
H35 H 0.8964 0.8336 0.7610
H36 H 0.7596 0.8183 0.7664
C22 C 0.7977(11) 0.8970(5) 0.8454(11)
C23 C 0.6680(10) 0.9226(5) 0.8282(10)
H37 H 0.6094 0.8935 0.8513
H38 H 0.6579 0.9562 0.8787
C24 C 0.6448(11) 0.9405(5) 0.7023(10)
H39 H 0.5616 0.9523 0.6958
H40 H 0.6936 0.9745 0.6854
C25 C 0.6695(10) 0.8950(4) 0.6091(10)
C26 C 0.8167(12) 0.8751(5) 0.9655(12)
H41 H 0.8990 0.8601 0.9664
C27 C 0.7381(14) 0.8242(6) 1.0056(15)
H42 H 0.7485 0.7929 0.9551
H43 H 0.6581 0.8356 1.0052
H44 H 0.7601 0.8133 1.0808
C28 C 0.8129(14) 0.9224(6) 1.0627(13)
H45 H 0.7335 0.9305 1.0818
H46 H 0.8499 0.9562 1.0359
H47 H 0.8529 0.9089 1.1286
C29 C 0.8700(15) 0.7756(7) 0.5530(15)
H48 H 0.8905 0.7515 0.4909
H49 H 0.8751 0.7618 0.6293
C30 C 0.5762(11) 0.8453(5) 0.6206(12)
H50 H 0.5007 0.8592 0.6004
H51 H 0.5749 0.8319 0.6973
H52 H 0.5971 0.8148 0.5709
loop_
_geom_bond_atom_site_label_1
_geom_bond_atom_site_label_2
_geom_bond_site_symmetry_1
_geom_bond_site_symmetry_2
O1 H1 1_555 1_555
O2 H2 1_555 1_555
O3 H3 1_555 1_555
O4 H4 1_555 1_555
C1 O1 1_555 1_555
H5 C1 1_555 1_555
C2 C1 1_555 1_555
H6 C2 1_555 1_555
H7 C2 1_555 1_555
C3 C2 1_555 1_555
H8 C3 1_555 1_555
H9 C3 1_555 1_555
C4 C3 1_555 1_555
C5 C4 1_555 1_555
H10 C5 1_555 1_555
C6 C5 1_555 1_555
H11 C6 1_555 1_555
H12 C6 1_555 1_555
C7 O2 1_555 1_555
C8 C7 1_555 1_555
H13 C8 1_555 1_555
H14 C8 1_555 1_555
C9 C8 1_555 1_555
H15 C9 1_555 1_555
H16 C9 1_555 1_555
C10 C1 1_555 1_555
C11 C7 1_555 1_555
H17 C11 1_555 1_555
C12 C11 1_555 1_555
H18 C12 1_555 1_555
H19 C12 1_555 1_555
H20 C12 1_555 1_555
C13 C11 1_555 1_555
H21 C13 1_555 1_555
H22 C13 1_555 1_555
H23 C13 1_555 1_555
C14 C4 1_555 1_555
H24 C14 1_555 1_555
H25 C14 1_555 1_555
C15 C10 1_555 1_555
H26 C15 1_555 1_555
H27 C15 1_555 1_555
H28 C15 1_555 1_555
C16 O3 1_555 1_555
H29 C16 1_555 1_555
C17 C16 1_555 1_555
H30 C17 1_555 1_555
H31 C17 1_555 1_555
C18 C17 1_555 1_555
H32 C18 1_555 1_555
H33 C18 1_555 1_555
C19 C18 1_555 1_555
C20 C19 1_555 1_555
H34 C20 1_555 1_555
C21 C20 1_555 1_555
H35 C21 1_555 1_555
H36 C21 1_555 1_555
C22 O4 1_555 1_555
C23 C22 1_555 1_555
H37 C23 1_555 1_555
H38 C23 1_555 1_555
C24 C23 1_555 1_555
H39 C24 1_555 1_555
H40 C24 1_555 1_555
C25 C16 1_555 1_555
C26 C22 1_555 1_555
H41 C26 1_555 1_555
C27 C26 1_555 1_555
H42 C27 1_555 1_555
H43 C27 1_555 1_555
H44 C27 1_555 1_555
C28 C26 1_555 1_555
H45 C28 1_555 1_555
H46 C28 1_555 1_555
H47 C28 1_555 1_555
C29 C19 1_555 1_555
H48 C29 1_555 1_555
H49 C29 1_555 1_555
C30 C25 1_555 1_555
H50 C30 1_555 1_555
H51 C30 1_555 1_555
H52 C30 1_555 1_555
C5 C10 1_555 1_555
C6 C7 1_555 1_555
C9 C10 1_555 1_555
C20 C25 1_555 1_555
C21 C22 1_555 1_555
C24 C25 1_555 1_555

#END
