
#######################################################################
#
#                 Cambridge Crystallographic Data Centre
#                                CCDC 
#
#######################################################################
#
# If this CIF has been generated from an entry in the Cambridge 
# Structural Database, then it will include bibliographic, chemical, 
# crystal, experimental, refinement or atomic coordinate data resulting 
# from the CCDC's data processing and validation procedures.
#
#######################################################################

data_FARYEF
_chemical_formula_moiety         'C14 H10 Cl1 F1 N2'
_chemical_name_systematic        
(4-chlorophenyl)((4-fluorophenyl)amino)acetonitrile
_symmetry_cell_setting           orthorhombic
_symmetry_space_group_name_H-M   'P b c n'
_symmetry_Int_Tables_number      60
_space_group_name_Hall           '-P 2n 2ab'
loop_
_symmetry_equiv_pos_site_id
_symmetry_equiv_pos_as_xyz
1 x,y,z
2 1/2-x,1/2-y,1/2+z
3 1/2+x,1/2-y,-z
4 -x,y,1/2-z
5 -x,-y,-z
6 1/2+x,1/2+y,1/2-z
7 1/2-x,1/2+y,z
8 x,-y,1/2+z
_cell_length_a                   13.9791(4)
_cell_length_b                   6.9972(2)
_cell_length_c                   25.0724(6)
_cell_angle_alpha                90
_cell_angle_beta                 90
_cell_angle_gamma                90
_cell_volume                     2452.45
_exptl_crystal_colour            white
_exptl_crystal_description       Block
_cell_formula_units_Z            8
loop_
_atom_site_label
_atom_site_type_symbol
_atom_site_fract_x
_atom_site_fract_y
_atom_site_fract_z
N1 N 0.35838(13) 0.2537(3) 0.51341(7)
H1 H 0.3734 0.1465 0.4989
C1 C 0.36724(15) 0.2790(3) 0.56929(8)
C2 C 0.32344(15) 0.4118(3) 0.48092(8)
H2 H 0.2558 0.4319 0.4895
F1 F 0.39724(13) 0.3377(3) 0.73178(6)
C3 C 0.33039(15) 0.3625(3) 0.42194(8)
C4 C 0.24864(17) 0.3225(3) 0.39297(8)
H3 H 0.1890 0.3331 0.4091
C5 C 0.25510(18) 0.2665(3) 0.33995(8)
H4 H 0.2001 0.2389 0.3205
C6 C 0.37595(15) 0.5932(3) 0.49254(8)
N2 N 0.41512(14) 0.7316(3) 0.50198(8)
C7 C 0.43168(17) 0.1648(3) 0.59755(9)
H5 H 0.4684 0.0747 0.5795
C8 C 0.34364(18) 0.2525(3) 0.31658(8)
C9 C 0.41865(17) 0.3530(4) 0.39688(10)
H6 H 0.4737 0.3840 0.4158
C10 C 0.44118(19) 0.1849(4) 0.65213(10)
H7 H 0.4842 0.1091 0.6709
C11 C 0.38691(19) 0.3170(4) 0.67811(9)
C12 C 0.32227(18) 0.4298(4) 0.65202(10)
H8 H 0.2855 0.5181 0.6707
C13 C 0.31243(16) 0.4102(3) 0.59711(9)
H9 H 0.2686 0.4860 0.5789
C14 C 0.42574(18) 0.2980(4) 0.34406(10)
H10 H 0.4851 0.2918 0.3274
Cl1 Cl 0.35303(6) 0.16996(12) 0.25146(3)
loop_
_geom_bond_atom_site_label_1
_geom_bond_atom_site_label_2
_geom_bond_site_symmetry_1
_geom_bond_site_symmetry_2
N1 H1 1_555 1_555
C1 N1 1_555 1_555
C2 N1 1_555 1_555
H2 C2 1_555 1_555
F1 C11 1_555 1_555
C3 C2 1_555 1_555
C4 C3 1_555 1_555
H3 C4 1_555 1_555
C5 C4 1_555 1_555
H4 C5 1_555 1_555
C6 C2 1_555 1_555
N2 C6 1_555 1_555
C7 C1 1_555 1_555
H5 C7 1_555 1_555
C8 C5 1_555 1_555
C9 C3 1_555 1_555
H6 C9 1_555 1_555
C10 C7 1_555 1_555
H7 C10 1_555 1_555
C11 C10 1_555 1_555
C12 C11 1_555 1_555
H8 C12 1_555 1_555
C13 C1 1_555 1_555
H9 C13 1_555 1_555
C14 C8 1_555 1_555
H10 C14 1_555 1_555
Cl1 C8 1_555 1_555
C9 C14 1_555 1_555
C12 C13 1_555 1_555

#END
