
#######################################################################
#
#                 Cambridge Crystallographic Data Centre
#                                CCDC 
#
#######################################################################
#
# If this CIF has been generated from an entry in the Cambridge 
# Structural Database, then it will include bibliographic, chemical, 
# crystal, experimental, refinement or atomic coordinate data resulting 
# from the CCDC's data processing and validation procedures.
#
#######################################################################

data_FARYAY
_chemical_name_common            
"(R)-(+)-bis-beta-Naphthol N,N,N',N'-tetra(sec-butyl)-terephthalamide methanol clathrate"
_chemical_formula_moiety         'C20 H14 O2,C24 H40 N2 O2,C1 H4 O1'
_chemical_name_systematic        
"(R)-(+)-2,2'-Dihydroxy-1,1'-binaphthyl N,N,N',N'-tetrakis(sec-butyl)-tetraphthalamide methanol clathrate"
_symmetry_cell_setting           orthorhombic
_symmetry_space_group_name_H-M   'P 21 21 21'
_symmetry_Int_Tables_number      19
_space_group_name_Hall           'P 2ac 2ab'
loop_
_symmetry_equiv_pos_site_id
_symmetry_equiv_pos_as_xyz
1 x,y,z
2 1/2+x,1/2-y,-z
3 -x,1/2+y,1/2-z
4 1/2-x,-y,1/2+z
_cell_length_a                   11.546(5)
_cell_length_b                   14.696(4)
_cell_length_c                   24.508(9)
_cell_angle_alpha                90
_cell_angle_beta                 90
_cell_angle_gamma                90
_cell_volume                     4158.52
_cell_formula_units_Z            4
loop_
_atom_site_label
_atom_site_type_symbol
_atom_site_fract_x
_atom_site_fract_y
_atom_site_fract_z
O1 O 0.6945(6) 0.1332(5) 0.1208(3)
O2 O 0.7909(7) -0.1164(5) 0.1368(3)
C1 C 0.6423(9) 0.0866(7) 0.1620(4)
C2 C 0.5267(10) 0.0967(7) 0.1737(4)
C3 C 0.4692(9) 0.0516(7) 0.2150(4)
C4 C 0.5357(8) -0.0046(7) 0.2501(4)
C5 C 0.4792(10) -0.0542(7) 0.2944(4)
C6 C 0.5478(10) -0.1115(8) 0.3241(5)
C7 C 0.6590(12) -0.1251(9) 0.3160(5)
C8 C 0.7148(9) -0.0772(7) 0.2737(4)
C9 C 0.6527(9) -0.0187(7) 0.2398(3)
C10 C 0.7098(9) 0.0303(7) 0.1961(4)
C11 C 0.8355(8) 0.0196(7) 0.1838(4)
C12 C 0.8716(9) -0.0523(8) 0.1530(5)
C13 C 0.9920(15) -0.0618(10) 0.1428(5)
C14 C 1.0684(9) 0.0032(10) 0.1626(5)
C15 C 1.0371(11) 0.0737(8) 0.1937(4)
C16 C 1.1193(8) 0.1357(8) 0.2148(6)
C17 C 1.0858(10) 0.2068(10) 0.2444(6)
C18 C 0.9648(11) 0.2188(8) 0.2554(5)
C19 C 0.8879(9) 0.1602(7) 0.2357(4)
C20 C 0.9182(8) 0.0838(7) 0.2042(4)
H1 H 0.4826 0.1381 0.1516
H2 H 0.3871 0.0583 0.2199
H3 H 0.3982 -0.0467 0.3021
H4 H 0.5116 -0.1456 0.3529
H5 H 0.7014 -0.1663 0.3389
H6 H 0.7963 -0.0857 0.2679
H7 H 1.0191 -0.1132 0.1223
H8 H 1.1489 -0.0038 0.1538
H9 H 1.2001 0.1263 0.2076
H10 H 1.1412 0.2498 0.2581
H11 H 0.9388 0.2688 0.2774
H12 H 0.8074 0.1706 0.2432
O3 O 0.3403(11) -0.2638(7) 0.0228(4)
O4 O 0.5567(7) 0.1926(5) 0.0405(3)
N1 N 0.4404(8) -0.2774(5) 0.1037(3)
N2 N 0.4719(8) 0.1778(5) -0.0412(3)
C21 C 0.4377(10) -0.1308(7) 0.0507(4)
C22 C 0.5483(10) -0.1047(7) 0.0418(4)
C23 C 0.5723(9) -0.0127(7) 0.0275(4)
C24 C 0.4820(9) 0.0500(7) 0.0202(4)
C25 C 0.3719(9) 0.0203(8) 0.0306(4)
C26 C 0.3492(11) -0.0713(8) 0.0452(4)
C27 C 0.4030(10) -0.2307(8) 0.0614(4)
C28 C 0.4042(11) -0.3742(9) 0.1077(5)
C29 C 0.2626(11) -0.3877(9) 0.1120(5)
C30 C 0.4325(13) -0.4306(11) 0.0604(7)
C31 C 0.5691(13) -0.4192(11) 0.0553(7)
C32 C 0.4900(8) -0.2346(8) 0.1513(4)
C33 C 0.6028(10) -0.2763(9) 0.1670(5)
C34 C 0.4122(9) -0.2338(8) 0.1994(4)
C35 C 0.3066(11) -0.1721(10) 0.1930(5)
C36 C 0.5065(9) 0.1457(7) 0.0061(4)
C37 C 0.4204(9) 0.1224(7) -0.0849(4)
C38 C 0.2930(11) 0.1521(9) -0.0984(5)
C39 C 0.4977(11) 0.1150(8) -0.1334(5)
C40 C 0.4419(14) 0.0520(11) -0.1777(6)
C41 C 0.4893(10) 0.2757(7) -0.0549(4)
C42 C 0.6024(14) 0.3086(11) -0.0525(6)
C43 C 0.4084(12) 0.3354(10) -0.0150(5)
C44 C 0.6798(17) 0.2716(14) -0.0777(9)
H13 H 0.6097 -0.1481 0.0459
H14 H 0.6214 0.0056 0.0222
H15 H 0.3089 0.0627 0.0278
H16 H 0.2706 -0.0901 0.0515
H17 H 0.4469 -0.3915 0.1396
H18 H 0.2188 -0.3694 0.1434
H19 H 0.2550 -0.4522 0.1069
H20 H 0.2338 -0.3566 0.0803
H21 H 0.4128 -0.4930 0.0673
H22 H 0.3931 -0.4099 0.0282
H23 H 0.5712 -0.4532 0.0219
H24 H 0.6056 -0.4537 0.0838
H25 H 0.6096 -0.3627 0.0505
H26 H 0.5021 -0.1728 0.1399
H27 H 0.6578 -0.2919 0.1391
H28 H 0.5707 -0.3309 0.1823
H29 H 0.6409 -0.2422 0.1952
H30 H 0.3858 -0.2949 0.2056
H31 H 0.4557 -0.2134 0.2305
H32 H 0.2691 -0.1647 0.2277
H33 H 0.2613 -0.2119 0.1704
H34 H 0.3140 -0.1140 0.1755
H35 H 0.4144 0.0614 -0.0712
H36 H 0.2524 0.1164 -0.1250
H37 H 0.2979 0.2140 -0.1107
H38 H 0.2520 0.1500 -0.0643
H39 H 0.5109 0.1744 -0.1485
H40 H 0.5704 0.0888 -0.1226
H41 H 0.5171 0.0476 -0.1942
H42 H 0.3966 0.0966 -0.1968
H43 H 0.4038 -0.0060 -0.1796
H44 H 0.4710 0.2838 -0.0928
O5 O 0.8743(10) -0.2579(7) 0.0807(4)
C45 C 0.9186(18) -0.3402(11) 0.0994(6)
loop_
_geom_bond_atom_site_label_1
_geom_bond_atom_site_label_2
_geom_bond_site_symmetry_1
_geom_bond_site_symmetry_2
O1 C1 1_555 1_555
O2 C12 1_555 1_555
C1 C2 1_555 1_555
C2 C3 1_555 1_555
C3 C4 1_555 1_555
C4 C5 1_555 1_555
C5 C6 1_555 1_555
C6 C7 1_555 1_555
C7 C8 1_555 1_555
C8 C9 1_555 1_555
C9 C4 1_555 1_555
C10 C1 1_555 1_555
C11 C10 1_555 1_555
C12 C11 1_555 1_555
C13 C12 1_555 1_555
C14 C13 1_555 1_555
C15 C14 1_555 1_555
C16 C15 1_555 1_555
C17 C16 1_555 1_555
C18 C17 1_555 1_555
C19 C18 1_555 1_555
C20 C11 1_555 1_555
H1 C2 1_555 1_555
H2 C3 1_555 1_555
H3 C5 1_555 1_555
H4 C6 1_555 1_555
H5 C7 1_555 1_555
H6 C8 1_555 1_555
H7 C13 1_555 1_555
H8 C14 1_555 1_555
H9 C16 1_555 1_555
H10 C17 1_555 1_555
H11 C18 1_555 1_555
H12 C19 1_555 1_555
O3 C27 1_555 1_555
O4 C36 1_555 1_555
N1 C27 1_555 1_555
N2 C36 1_555 1_555
C21 C22 1_555 1_555
C22 C23 1_555 1_555
C23 C24 1_555 1_555
C24 C25 1_555 1_555
C25 C26 1_555 1_555
C26 C21 1_555 1_555
C27 C21 1_555 1_555
C28 N1 1_555 1_555
C29 C28 1_555 1_555
C30 C28 1_555 1_555
C31 C30 1_555 1_555
C32 N1 1_555 1_555
C33 C32 1_555 1_555
C34 C32 1_555 1_555
C35 C34 1_555 1_555
C36 C24 1_555 1_555
C37 N2 1_555 1_555
C38 C37 1_555 1_555
C39 C37 1_555 1_555
C40 C39 1_555 1_555
C41 N2 1_555 1_555
C42 C41 1_555 1_555
C43 C41 1_555 1_555
C44 C42 1_555 1_555
H13 C22 1_555 1_555
H14 C23 1_555 1_555
H15 C25 1_555 1_555
H16 C26 1_555 1_555
H17 C28 1_555 1_555
H18 C29 1_555 1_555
H19 C29 1_555 1_555
H20 C29 1_555 1_555
H21 C30 1_555 1_555
H22 C30 1_555 1_555
H23 C31 1_555 1_555
H24 C31 1_555 1_555
H25 C31 1_555 1_555
H26 C32 1_555 1_555
H27 C33 1_555 1_555
H28 C33 1_555 1_555
H29 C33 1_555 1_555
H30 C34 1_555 1_555
H31 C34 1_555 1_555
H32 C35 1_555 1_555
H33 C35 1_555 1_555
H34 C35 1_555 1_555
H35 C37 1_555 1_555
H36 C38 1_555 1_555
H37 C38 1_555 1_555
H38 C38 1_555 1_555
H39 C39 1_555 1_555
H40 C39 1_555 1_555
H41 C40 1_555 1_555
H42 C40 1_555 1_555
H43 C40 1_555 1_555
H44 C41 1_555 1_555
O5 C45 1_555 1_555
C9 C10 1_555 1_555
C15 C20 1_555 1_555
C19 C20 1_555 1_555

#END
