
#######################################################################
#
#                 Cambridge Crystallographic Data Centre
#                                CCDC 
#
#######################################################################
#
# If this CIF has been generated from an entry in the Cambridge 
# Structural Database, then it will include bibliographic, chemical, 
# crystal, experimental, refinement or atomic coordinate data resulting 
# from the CCDC's data processing and validation procedures.
#
#######################################################################

data_FASFAH
_chemical_formula_moiety         'C21 H16 N2 O1'
_chemical_name_systematic        2-(2-Hydroxyphenyl)-4,5-diphenylimidazole
_symmetry_cell_setting           triclinic
_symmetry_space_group_name_H-M   'P -1'
_symmetry_Int_Tables_number      2
_space_group_name_Hall           '-P 1'
loop_
_symmetry_equiv_pos_site_id
_symmetry_equiv_pos_as_xyz
1 x,y,z
2 -x,-y,-z
_cell_length_a                   12.444(4)
_cell_length_b                   13.834(3)
_cell_length_c                   10.548(4)
_cell_angle_alpha                93.37(3)
_cell_angle_beta                 93.83(3)
_cell_angle_gamma                68.53(2)
_cell_volume                     1684.91
_exptl_crystal_colour            colorless
_exptl_crystal_description       plates
_chemical_melting_point          215.5-217deg.C
_cell_formula_units_Z            4
_exptl_crystal_recrystallization_method ethanol
loop_
_atom_site_label
_atom_site_type_symbol
_atom_site_fract_x
_atom_site_fract_y
_atom_site_fract_z
O1 O 0.8142(1) 0.0500(1) 0.6907(2)
N1 N 1.0456(1) 0.2022(1) 0.6842(2)
N2 N 0.8673(1) 0.2100(1) 0.6974(2)
C1 C 0.9756(2) 0.1471(1) 0.6821(2)
C2 C 0.8677(2) 0.3099(1) 0.7085(2)
C3 C 0.9781(2) 0.3061(2) 0.7003(2)
C4 C 1.0103(2) 0.0342(1) 0.6662(2)
C5 C 0.9258(2) -0.0098(2) 0.6708(2)
C6 C 0.9561(2) -0.1107(2) 0.6539(2)
C7 C 1.0670(2) -0.1789(2) 0.6306(2)
C8 C 1.1510(2) -0.1374(2) 0.6250(2)
C9 C 1.1225(2) -0.0316(2) 0.6428(2)
C10 C 0.7566(2) 0.3963(2) 0.7301(2)
C11 C 0.6574(2) 0.3969(2) 0.6621(3)
C12 C 0.5519(3) 0.4722(3) 0.6858(4)
C13 C 0.5419(4) 0.5467(3) 0.7776(5)
C14 C 0.6369(4) 0.5483(2) 0.8443(4)
C15 C 0.7458(3) 0.4733(2) 0.8230(3)
C16 C 1.0310(2) 0.3859(2) 0.7094(2)
C17 C 0.9722(2) 0.4837(2) 0.6602(3)
C18 C 1.0234(3) 0.5576(2) 0.6677(3)
C19 C 1.1311(3) 0.5354(2) 0.7230(3)
C20 C 1.1901(3) 0.4403(2) 0.7729(3)
C21 C 1.1394(2) 0.3657(2) 0.7647(3)
O2 O 0.2841(1) 0.1141(1) 0.6419(2)
N3 N 0.6300(1) -0.0078(1) 0.7487(2)
N4 N 0.4571(1) -0.0123(1) 0.7572(2)
C22 C 0.5204(2) 0.0310(1) 0.7027(3)
C23 C 0.5306(2) -0.0832(1) 0.8422(2)
C24 C 0.6391(2) -0.0807(2) 0.8370(2)
C25 C 0.4724(2) 0.1121(1) 0.6096(2)
C26 C 0.3545(2) 0.1517(2) 0.5845(2)
C27 C 0.3056(2) 0.2310(2) 0.4992(3)
C28 C 0.3741(2) 0.2705(2) 0.4405(3)
C29 C 0.4912(2) 0.2321(2) 0.4636(2)
C30 C 0.5405(2) 0.1530(2) 0.5479(2)
C31 C 0.4840(2) -0.1432(1) 0.9183(2)
C32 C 0.3822(2) -0.1559(2) 0.8771(3)
C33 C 0.3339(3) -0.2107(2) 0.9458(3)
C34 C 0.3885(3) -0.2540(2) 1.0574(3)
C35 C 0.4892(3) -0.2425(2) 1.0998(3)
C36 C 0.5380(2) -0.1871(2) 1.0316(2)
C37 C 0.7536(2) -0.1373(2) 0.8970(2)
C38 C 0.8207(3) -0.0834(2) 0.9512(2)
C39 C 0.9328(3) -0.1357(3) 0.9957(3)
C40 C 0.9790(3) -0.2410(4) 0.9892(3)
C41 C 0.9133(3) -0.2956(3) 0.9389(3)
C42 C 0.8013(2) -0.2451(2) 0.8920(3)
loop_
_geom_bond_atom_site_label_1
_geom_bond_atom_site_label_2
_geom_bond_site_symmetry_1
_geom_bond_site_symmetry_2
O1 C5 1_555 1_555
N1 C1 1_555 1_555
N2 C1 1_555 1_555
C1 C4 1_555 1_555
C2 N2 1_555 1_555
C3 N1 1_555 1_555
C4 C5 1_555 1_555
C5 C6 1_555 1_555
C6 C7 1_555 1_555
C7 C8 1_555 1_555
C8 C9 1_555 1_555
C9 C4 1_555 1_555
C10 C2 1_555 1_555
C11 C10 1_555 1_555
C12 C11 1_555 1_555
C13 C12 1_555 1_555
C14 C13 1_555 1_555
C15 C10 1_555 1_555
C16 C3 1_555 1_555
C17 C16 1_555 1_555
C18 C17 1_555 1_555
C19 C18 1_555 1_555
C20 C19 1_555 1_555
C21 C16 1_555 1_555
O2 C26 1_555 1_555
N3 C22 1_555 1_555
N4 C22 1_555 1_555
C22 C25 1_555 1_555
C23 N4 1_555 1_555
C24 N3 1_555 1_555
C25 C26 1_555 1_555
C26 C27 1_555 1_555
C27 C28 1_555 1_555
C28 C29 1_555 1_555
C29 C30 1_555 1_555
C30 C25 1_555 1_555
C31 C23 1_555 1_555
C32 C31 1_555 1_555
C33 C32 1_555 1_555
C34 C33 1_555 1_555
C35 C34 1_555 1_555
C36 C31 1_555 1_555
C37 C24 1_555 1_555
C38 C37 1_555 1_555
C39 C38 1_555 1_555
C40 C39 1_555 1_555
C41 C40 1_555 1_555
C42 C37 1_555 1_555
C2 C3 1_555 1_555
C14 C15 1_555 1_555
C20 C21 1_555 1_555
C23 C24 1_555 1_555
C35 C36 1_555 1_555
C41 C42 1_555 1_555

#END
