
#######################################################################
#
#                 Cambridge Crystallographic Data Centre
#                                CCDC 
#
#######################################################################
#
# If this CIF has been generated from an entry in the Cambridge 
# Structural Database, then it will include bibliographic, chemical, 
# crystal, experimental, refinement or atomic coordinate data resulting 
# from the CCDC's data processing and validation procedures.
#
#######################################################################

data_FASFEN
_chemical_formula_moiety         'C19 H26 O3'
_chemical_name_systematic        
13-ethyl-1-hydroxy-7,8,9,10,11,12,13,14,15,16-decahydro-1H-cyclopenta[a]phenanthrene-3,17(2H,6H)-dione
_symmetry_cell_setting           orthorhombic
_symmetry_space_group_name_H-M   'P 21 21 21'
_symmetry_Int_Tables_number      19
_space_group_name_Hall           'P 2ac 2ab'
loop_
_symmetry_equiv_pos_site_id
_symmetry_equiv_pos_as_xyz
1 x,y,z
2 1/2-x,-y,1/2+z
3 -x,1/2+y,1/2-z
4 1/2+x,1/2-y,-z
_cell_length_a                   9.9569(7)
_cell_length_b                   10.5690(7)
_cell_length_c                   14.7619(10)
_cell_angle_alpha                90
_cell_angle_beta                 90
_cell_angle_gamma                90
_cell_volume                     1553.46
_exptl_crystal_colour            colorless
_exptl_crystal_description       BLOCK
_cell_formula_units_Z            4
loop_
_atom_site_label
_atom_site_type_symbol
_atom_site_fract_x
_atom_site_fract_y
_atom_site_fract_z
O1 O 0.55373(14) 0.71756(13) 0.37630(9)
O2 O 0.48442(13) 0.17379(12) 0.73322(8)
H1 H 0.4379 0.2395 0.7269
O3 O 0.66425(13) -0.11387(12) 0.79543(8)
C1 C 0.63590(17) 0.52051(17) 0.44290(11)
C2 C 0.57943(18) 0.6061(2) 0.36968(11)
C3 C 0.5619(2) 0.52745(19) 0.28389(11)
H2 H 0.6181 0.5617 0.2343
H3 H 0.4668 0.5282 0.2642
C4 C 0.6062(2) 0.39216(19) 0.30809(11)
H4 H 0.5492 0.3282 0.2776
H5 H 0.7013 0.3774 0.2918
C5 C 0.58588(17) 0.38993(18) 0.41134(11)
H6 H 0.4866 0.3892 0.4216
C6 C 0.64278(17) 0.28216(16) 0.46746(10)
H7 H 0.7428 0.2834 0.4616
C7 C 0.59281(19) 0.15305(17) 0.43827(11)
H8 H 0.6085 0.1417 0.3725
H9 H 0.4950 0.1466 0.4496
C8 C 0.6661(2) 0.05020(17) 0.49073(11)
H10 H 0.6245 -0.0325 0.4763
H11 H 0.7606 0.0472 0.4700
C9 C 0.66442(17) 0.06829(16) 0.59178(11)
C10 C 0.66306(19) -0.03205(17) 0.64716(12)
H12 H 0.6557 -0.1140 0.6212
C11 C 0.67233(18) -0.02132(16) 0.74506(12)
C12 C 0.69657(19) 0.10811(17) 0.78293(11)
H13 H 0.7940 0.1268 0.7823
H14 H 0.6650 0.1116 0.8465
C13 C 0.62273(18) 0.20537(17) 0.72717(11)
H15 H 0.6378 0.2914 0.7534
C14 C 0.67345(18) 0.20236(16) 0.62867(11)
H16 H 0.7712 0.2239 0.6310
C15 C 0.60640(17) 0.30368(16) 0.56810(10)
H17 H 0.5069 0.2936 0.5741
C16 C 0.64245(19) 0.43743(17) 0.60082(10)
H18 H 0.6064 0.4495 0.6627
H19 H 0.7414 0.4451 0.6041
C17 C 0.58767(19) 0.54258(17) 0.53937(11)
H20 H 0.4883 0.5424 0.5411
H21 H 0.6195 0.6260 0.5611
C18 C 0.79075(18) 0.53693(18) 0.43295(12)
H22 H 0.8360 0.4639 0.4618
H23 H 0.8141 0.5361 0.3678
C19 C 0.8441(2) 0.65854(18) 0.47513(13)
H24 H 0.8443 0.6504 0.5413
H25 H 0.7864 0.7296 0.4575
H26 H 0.9358 0.6739 0.4538
loop_
_geom_bond_atom_site_label_1
_geom_bond_atom_site_label_2
_geom_bond_site_symmetry_1
_geom_bond_site_symmetry_2
O1 C2 1_555 1_555
O2 H1 1_555 1_555
O3 C11 1_555 1_555
C1 C2 1_555 1_555
C2 C3 1_555 1_555
C3 H2 1_555 1_555
H3 C3 1_555 1_555
C4 C3 1_555 1_555
H4 C4 1_555 1_555
H5 C4 1_555 1_555
C5 C1 1_555 1_555
H6 C5 1_555 1_555
C6 C5 1_555 1_555
H7 C6 1_555 1_555
C7 C6 1_555 1_555
H8 C7 1_555 1_555
H9 C7 1_555 1_555
C8 C7 1_555 1_555
H10 C8 1_555 1_555
H11 C8 1_555 1_555
C9 C8 1_555 1_555
C10 C9 1_555 1_555
H12 C10 1_555 1_555
C11 C10 1_555 1_555
C12 C11 1_555 1_555
H13 C12 1_555 1_555
H14 C12 1_555 1_555
C13 O2 1_555 1_555
H15 C13 1_555 1_555
C14 C9 1_555 1_555
H16 C14 1_555 1_555
C15 C6 1_555 1_555
H17 C15 1_555 1_555
C16 C15 1_555 1_555
H18 C16 1_555 1_555
H19 C16 1_555 1_555
C17 C1 1_555 1_555
H20 C17 1_555 1_555
H21 C17 1_555 1_555
C18 C1 1_555 1_555
H22 C18 1_555 1_555
H23 C18 1_555 1_555
C19 C18 1_555 1_555
H24 C19 1_555 1_555
H25 C19 1_555 1_555
H26 C19 1_555 1_555
C4 C5 1_555 1_555
C12 C13 1_555 1_555
C13 C14 1_555 1_555
C14 C15 1_555 1_555
C16 C17 1_555 1_555

#END
