
#######################################################################
#
#                 Cambridge Crystallographic Data Centre
#                                CCDC 
#
#######################################################################
#
# If this CIF has been generated from an entry in the Cambridge 
# Structural Database, then it will include bibliographic, chemical, 
# crystal, experimental, refinement or atomic coordinate data resulting 
# from the CCDC's data processing and validation procedures.
#
#######################################################################

data_FASJOA
_chemical_name_common            
'2-(1H-Imidazol-3-ium-1-yl)-1-phenylethanone 2-(1H-imidazol-1-yl)-1-phenylethanone p-nitrobenzoic acid p-nitrobenzoate'
_chemical_formula_moiety         
'C11 H10 N2 O1,C11 H11 N2 O1 1+,C7 H4 N1 O4 1-,C7 H5 N1 O4'
_chemical_name_systematic        
'1-(2-Oxo-2-phenylethyl)-1H-imidazol-3-ium 1-(2-oxo-2-phenylethyl)-1H-imidazole 4-nitrobenzoic acid 4-nitrobenzoate'
_symmetry_cell_setting           triclinic
_symmetry_space_group_name_H-M   'P -1'
_symmetry_Int_Tables_number      2
_space_group_name_Hall           '-P 1'
loop_
_symmetry_equiv_pos_site_id
_symmetry_equiv_pos_as_xyz
1 x,y,z
2 -x,-y,-z
_cell_length_a                   7.5314(6)
_cell_length_b                   13.1318(12)
_cell_length_c                   17.5069(16)
_cell_angle_alpha                93.115(1)
_cell_angle_beta                 102.197(2)
_cell_angle_gamma                100.696(2)
_cell_volume                     1655.05
_exptl_crystal_colour            colorless
_exptl_crystal_description       block
_chemical_melting_point          '198-199 deg.C'
_cell_formula_units_Z            2
loop_
_atom_site_label
_atom_site_type_symbol
_atom_site_fract_x
_atom_site_fract_y
_atom_site_fract_z
N1 N 0.6569(3) 0.34553(18) 0.24369(14)
N2 N 0.6918(4) 0.25158(19) 0.14151(15)
O1 O 0.8990(3) 0.52809(17) 0.29642(12)
C1 C 0.7361(4) 0.2703(2) 0.21849(19)
H3 H 0.8131 0.2356 0.2516
C2 C 0.5771(5) 0.3190(2) 0.11603(18)
H4 H 0.5225 0.3235 0.0638
C3 C 0.5552(5) 0.3775(2) 0.17766(19)
H5 H 0.4854 0.4291 0.1760
C4 C 0.6786(4) 0.3889(2) 0.32361(16)
H6 H 0.7228 0.3403 0.3592
H7 H 0.5585 0.3974 0.3317
C5 C 0.8128(4) 0.4932(2) 0.34320(18)
C6 C 0.8294(4) 0.5500(2) 0.42118(16)
C7 C 0.7494(4) 0.5069(2) 0.47892(17)
H8 H 0.6814 0.4389 0.4698
C8 C 0.7690(4) 0.5636(3) 0.55069(18)
H9 H 0.7154 0.5334 0.5894
C9 C 0.8673(5) 0.6639(3) 0.56407(19)
H10 H 0.8789 0.7022 0.6118
C10 C 0.9490(5) 0.7086(2) 0.5074(2)
H11 H 1.0157 0.7768 0.5169
C11 C 0.9322(4) 0.6521(2) 0.43642(18)
H12 H 0.9895 0.6821 0.3986
N3 N 0.1714(4) 0.55655(18) 0.13446(13)
N4 N 0.2021(4) 0.45109(19) 0.04127(14)
H1 H 0.2401 0.4262 0.0026
O2 O 0.3989(3) 0.56403(17) 0.27755(12)
C12 C 0.2632(4) 0.5448(2) 0.07788(17)
H13 H 0.3557 0.5952 0.0664
C13 C 0.0678(5) 0.3997(2) 0.07480(18)
H14 H 0.0020 0.3317 0.0601
C14 C 0.0481(5) 0.4649(2) 0.13277(18)
H15 H -0.0339 0.4506 0.1656
C15 C 0.1985(5) 0.6474(2) 0.18977(17)
H16 H 0.0787 0.6582 0.1967
H17 H 0.2564 0.7082 0.1683
C16 C 0.3185(4) 0.6366(2) 0.26909(17)
C17 C 0.3353(4) 0.7170(2) 0.33481(17)
C18 C 0.2532(4) 0.8029(2) 0.32605(18)
H18 H 0.1841 0.8123 0.2772
C19 C 0.2736(5) 0.8752(2) 0.3898(2)
H19 H 0.2192 0.9331 0.3834
C20 C 0.3742(5) 0.8611(3) 0.4624(2)
H20 H 0.3855 0.9089 0.5052
C21 C 0.4584(5) 0.7767(3) 0.47196(19)
H21 H 0.5276 0.7679 0.5209
C22 C 0.4395(4) 0.7054(2) 0.40884(17)
H22 H 0.4968 0.6486 0.4155
N5 N 0.7132(4) 0.8176(2) 0.73386(18)
O3 O 0.7368(3) 1.10639(16) 1.04297(12)
H2 H 0.7314 1.1550 1.0733
O4 O 0.6328(3) 1.20741(17) 0.95134(13)
O5 O 0.6293(4) 0.8221(2) 0.66732(16)
O6 O 0.8080(4) 0.7531(2) 0.75183(15)
C23 C 0.6822(4) 1.1276(3) 0.97035(19)
C24 C 0.6873(4) 1.0421(2) 0.91014(17)
C25 C 0.6134(4) 1.0511(2) 0.83197(18)
H23 H 0.5604 1.1080 0.8184
C26 C 0.6174(4) 0.9769(2) 0.77412(18)
H24 H 0.5652 0.9819 0.7217
C27 C 0.7014(4) 0.8947(2) 0.79622(18)
C28 C 0.7737(4) 0.8828(2) 0.87341(18)
H25 H 0.8274 0.8260 0.8868
C29 C 0.7647(4) 0.9571(2) 0.93035(17)
H26 H 0.8112 0.9499 0.9830
N6 N 0.8244(4) 0.9965(3) 0.36307(19)
O7 O 0.8830(4) 0.77570(17) 0.03846(13)
O8 O 0.7201(3) 0.63965(16) 0.08067(12)
O9 O 0.8577(5) 1.0899(2) 0.36065(17)
O10 O 0.7977(5) 0.9570(3) 0.42126(18)
C30 C 0.8016(5) 0.7348(2) 0.08631(18)
C31 C 0.8016(4) 0.8017(2) 0.15947(17)
C32 C 0.8581(4) 0.9088(2) 0.16266(18)
H27 H 0.8926 0.9381 0.1194
C33 C 0.8642(5) 0.9728(2) 0.22868(19)
H28 H 0.9001 1.0447 0.2300
C34 C 0.8165(4) 0.9284(2) 0.29215(18)
C35 C 0.7619(4) 0.8229(3) 0.29221(18)
H29 H 0.7323 0.7943 0.3365
C36 C 0.7519(4) 0.7596(2) 0.22422(18)
H30 H 0.7112 0.6880 0.2225
loop_
_geom_bond_atom_site_label_1
_geom_bond_atom_site_label_2
_geom_bond_site_symmetry_1
_geom_bond_site_symmetry_2
N1 C1 1_555 1_555
N2 C1 1_555 1_555
N3 C12 1_555 1_555
N4 H1 1_555 1_555
N5 O5 1_555 1_555
N6 O9 1_555 1_555
O1 C5 1_555 1_555
O2 C16 1_555 1_555
O3 H2 1_555 1_555
O4 C23 1_555 1_555
O6 N5 1_555 1_555
O7 C30 1_555 1_555
O8 C30 1_555 1_555
O10 N6 1_555 1_555
C1 H3 1_555 1_555
C2 N2 1_555 1_555
H4 C2 1_555 1_555
C3 N1 1_555 1_555
H5 C3 1_555 1_555
C4 N1 1_555 1_555
H6 C4 1_555 1_555
H7 C4 1_555 1_555
C5 C4 1_555 1_555
C6 C5 1_555 1_555
C7 C6 1_555 1_555
H8 C7 1_555 1_555
C8 C7 1_555 1_555
H9 C8 1_555 1_555
C9 C8 1_555 1_555
H10 C9 1_555 1_555
C10 C9 1_555 1_555
H11 C10 1_555 1_555
C11 C6 1_555 1_555
H12 C11 1_555 1_555
C12 N4 1_555 1_555
H13 C12 1_555 1_555
C13 N4 1_555 1_555
H14 C13 1_555 1_555
C14 N3 1_555 1_555
H15 C14 1_555 1_555
C15 N3 1_555 1_555
H16 C15 1_555 1_555
H17 C15 1_555 1_555
C16 C15 1_555 1_555
C17 C16 1_555 1_555
C18 C17 1_555 1_555
H18 C18 1_555 1_555
C19 C18 1_555 1_555
H19 C19 1_555 1_555
C20 C19 1_555 1_555
H20 C20 1_555 1_555
C21 C20 1_555 1_555
H21 C21 1_555 1_555
C22 C17 1_555 1_555
H22 C22 1_555 1_555
C23 O3 1_555 1_555
C24 C23 1_555 1_555
C25 C24 1_555 1_555
H23 C25 1_555 1_555
C26 C25 1_555 1_555
H24 C26 1_555 1_555
C27 N5 1_555 1_555
C28 C27 1_555 1_555
H25 C28 1_555 1_555
C29 C24 1_555 1_555
H26 C29 1_555 1_555
C30 C31 1_555 1_555
C31 C32 1_555 1_555
C32 H27 1_555 1_555
C33 C32 1_555 1_555
H28 C33 1_555 1_555
C34 N6 1_555 1_555
C35 C34 1_555 1_555
H29 C35 1_555 1_555
C36 C31 1_555 1_555
H30 C36 1_555 1_555
C2 C3 1_555 1_555
C10 C11 1_555 1_555
C13 C14 1_555 1_555
C21 C22 1_555 1_555
C26 C27 1_555 1_555
C28 C29 1_555 1_555
C33 C34 1_555 1_555
C35 C36 1_555 1_555

#END
