
#######################################################################
#
#                 Cambridge Crystallographic Data Centre
#                                CCDC 
#
#######################################################################
#
# If this CIF has been generated from an entry in the Cambridge 
# Structural Database, then it will include bibliographic, chemical, 
# crystal, experimental, refinement or atomic coordinate data resulting 
# from the CCDC's data processing and validation procedures.
#
#######################################################################

data_FASJIU
_chemical_name_common            
'2-(1H-Imidazol-3-ium-1-yl)-1-phenylethanone picrate'
_chemical_formula_moiety         'C11 H11 N2 O1 1+,C6 H2 N3 O7 1-'
_chemical_name_systematic        
'1-(2-Oxo-2-phenylethyl)-1H-imidazol-3-ium 2,4,6-trinitrophenolate'
_symmetry_cell_setting           monoclinic
_symmetry_space_group_name_H-M   'C 2/c'
_symmetry_Int_Tables_number      15
_space_group_name_Hall           '-C 2yn'
loop_
_symmetry_equiv_pos_site_id
_symmetry_equiv_pos_as_xyz
1 x,y,z
2 -x,y,1/2-z
3 1/2+x,1/2+y,z
4 1/2-x,1/2+y,1/2-z
5 -x,-y,-z
6 x,-y,1/2+z
7 1/2-x,1/2-y,-z
8 1/2+x,1/2-y,1/2+z
_cell_length_a                   28.095(3)
_cell_length_b                   5.1869(4)
_cell_length_c                   25.903(2)
_cell_angle_alpha                90
_cell_angle_beta                 109.710(1)
_cell_angle_gamma                90
_cell_volume                     3553.58
_exptl_crystal_colour            colorless
_exptl_crystal_description       block
_chemical_melting_point          '222-224 deg.C'
_cell_formula_units_Z            8
loop_
_atom_site_label
_atom_site_type_symbol
_atom_site_fract_x
_atom_site_fract_y
_atom_site_fract_z
N1 N 0.60959(9) 0.1776(5) 0.64855(8)
O1 O 0.67470(8) 0.5500(4) 0.69845(8)
N2 N 0.58190(11) 0.1055(6) 0.56238(10)
H2 H 0.5775 0.0352 0.5310
C3 C 0.69834(11) 0.3893(6) 0.78868(11)
C4 C 0.67077(11) 0.3815(6) 0.72926(12)
C7 C 0.57452(11) 0.3642(6) 0.62505(12)
H4 H 0.5644 0.4973 0.6431
C9 C 0.55773(13) 0.3177(7) 0.57115(12)
H5 H 0.5338 0.4139 0.5445
C11 C 0.61297(12) 0.0249(6) 0.60941(13)
H6 H 0.6341 -0.1176 0.6144
C12 C 0.63764(11) 0.1508(6) 0.70649(10)
H7 H 0.6586 -0.0026 0.7123
H8 H 0.6141 0.1286 0.7262
C13 C 0.73204(11) 0.5913(6) 0.80957(13)
H9 H 0.7369 0.7146 0.7858
C14 C 0.75110(14) 0.4312(8) 0.89960(14)
H10 H 0.7688 0.4453 0.9370
C15 C 0.69170(12) 0.2096(7) 0.82474(11)
H11 H 0.6692 0.0739 0.8116
C16 C 0.71791(14) 0.2280(7) 0.88006(13)
H12 H 0.7134 0.1052 0.9041
C17 C 0.75783(12) 0.6107(8) 0.86416(15)
H13 H 0.7802 0.7468 0.8775
C1 C 0.58076(11) 0.5434(6) 0.33900(10)
C2 C 0.55200(10) 0.7492(6) 0.34426(10)
H1 H 0.5308 0.8323 0.3132
N3 N 0.52274(10) 1.0482(5) 0.39768(12)
N4 N 0.57662(10) 0.4525(6) 0.28516(10)
O2 O 0.52799(9) 1.1510(5) 0.44181(10)
C5 C 0.55460(11) 0.8313(6) 0.39504(11)
O3 O 0.59753(10) 0.2485(6) 0.28180(9)
O4 O 0.49118(10) 1.1212(4) 0.35487(10)
C6 C 0.61354(10) 0.4237(6) 0.38449(11)
H3 H 0.6332 0.2857 0.3807
O5 O 0.55320(9) 0.5803(5) 0.24525(9)
O6 O 0.58354(11) 0.7500(5) 0.49140(8)
C8 C 0.61677(11) 0.5090(6) 0.43481(11)
N5 N 0.65425(13) 0.3805(7) 0.48133(13)
C10 C 0.58522(13) 0.7078(6) 0.44509(12)
O7 O 0.66745(14) 0.1666(7) 0.47433(11)
O8 O 0.66843(14) 0.4826(7) 0.52398(12)
loop_
_geom_bond_atom_site_label_1
_geom_bond_atom_site_label_2
_geom_bond_site_symmetry_1
_geom_bond_site_symmetry_2
N1 C7 1_555 1_555
O1 C4 1_555 1_555
C1 C2 1_555 1_555
C2 H1 1_555 1_555
N2 H2 1_555 1_555
N3 O2 1_555 1_555
N4 C1 1_555 1_555
C3 C4 1_555 1_555
C4 C12 1_555 1_555
C5 C2 1_555 1_555
O3 N4 1_555 1_555
O4 N3 1_555 1_555
C6 C1 1_555 1_555
H3 C6 1_555 1_555
O5 N4 1_555 1_555
O6 C10 1_555 1_555
C7 H4 1_555 1_555
C8 C6 1_555 1_555
C9 N2 1_555 1_555
H5 C9 1_555 1_555
N5 C8 1_555 1_555
C10 C5 1_555 1_555
C11 N1 1_555 1_555
H6 C11 1_555 1_555
C12 N1 1_555 1_555
H7 C12 1_555 1_555
H8 C12 1_555 1_555
C13 C3 1_555 1_555
H9 C13 1_555 1_555
C14 H10 1_555 1_555
C15 C3 1_555 1_555
H11 C15 1_555 1_555
C16 C14 1_555 1_555
H12 C16 1_555 1_555
C17 C13 1_555 1_555
H13 C17 1_555 1_555
O7 N5 1_555 1_555
O8 N5 1_555 1_555
N2 C11 1_555 1_555
N3 C5 1_555 1_555
C7 C9 1_555 1_555
C8 C10 1_555 1_555
C14 C17 1_555 1_555
C15 C16 1_555 1_555

#END
