
#######################################################################
#
#                 Cambridge Crystallographic Data Centre
#                                CCDC 
#
#######################################################################
#
# If this CIF has been generated from an entry in the Cambridge 
# Structural Database, then it will include bibliographic, chemical, 
# crystal, experimental, refinement or atomic coordinate data resulting 
# from the CCDC's data processing and validation procedures.
#
#######################################################################

data_FASJUG
_chemical_name_common            
'2-(1H-Imidazol-1-yl)-1-phenylethanone m-nitrobenzoic acid'
_chemical_formula_moiety         'C11 H10 N2 O1,C7 H5 N1 O4'
_chemical_name_systematic        
'1-(2-Oxo-2-phenylethyl)-1H-imidazole 3-nitrobenzoic acid'
_symmetry_cell_setting           monoclinic
_symmetry_space_group_name_H-M   'P 21/c'
_symmetry_Int_Tables_number      14
_space_group_name_Hall           '-P 2ybc'
loop_
_symmetry_equiv_pos_site_id
_symmetry_equiv_pos_as_xyz
1 x,y,z
2 -x,1/2+y,1/2-z
3 -x,-y,-z
4 x,1/2-y,1/2+z
_cell_length_a                   19.3774(17)
_cell_length_b                   12.0973(11)
_cell_length_c                   7.1882(6)
_cell_angle_alpha                90
_cell_angle_beta                 92.062(1)
_cell_angle_gamma                90
_cell_volume                     1683.93
_exptl_crystal_colour            colorless
_exptl_crystal_description       block
_chemical_melting_point          '154-156 deg.C'
_cell_formula_units_Z            4
loop_
_atom_site_label
_atom_site_type_symbol
_atom_site_fract_x
_atom_site_fract_y
_atom_site_fract_z
N1 N 0.41514(11) 0.89934(19) 0.4020(3)
N2 N 0.51454(11) 0.8144(2) 0.3920(3)
O1 O 0.31352(9) 0.7848(2) 0.2266(3)
C1 C 0.45308(14) 0.8141(2) 0.4635(4)
H2 H 0.4380 0.7611 0.5465
C2 C 0.51535(14) 0.9046(3) 0.2781(4)
H3 H 0.5525 0.9263 0.2083
C3 C 0.45423(14) 0.9576(3) 0.2818(4)
H4 H 0.4413 1.0210 0.2160
C4 C 0.34403(12) 0.9222(2) 0.4467(4)
H5 H 0.3344 0.9999 0.4248
H6 H 0.3381 0.9075 0.5777
C5 C 0.29329(13) 0.8539(2) 0.3333(4)
C6 C 0.21894(13) 0.8726(2) 0.3621(3)
C7 C 0.17163(14) 0.8001(2) 0.2801(4)
H7 H 0.1869 0.7415 0.2085
C8 C 0.10186(14) 0.8148(3) 0.3044(4)
H8 H 0.0700 0.7658 0.2506
C9 C 0.07973(15) 0.9024(3) 0.4090(4)
H9 H 0.0328 0.9122 0.4259
C10 C 0.12584(14) 0.9748(3) 0.4877(4)
H10 H 0.1102 1.0340 0.5572
C11 C 0.19582(13) 0.9610(2) 0.4650(4)
H11 H 0.2272 1.0108 0.5185
N3 N 0.92521(13) 0.6735(3) 0.3804(4)
O2 O 0.61676(9) 0.68257(16) 0.4332(3)
H1 H 0.5851 0.7271 0.4195
O3 O 0.68182(10) 0.83280(18) 0.4073(3)
O4 O 0.92809(11) 0.7660(3) 0.3143(4)
O5 O 0.97460(11) 0.6136(2) 0.4055(4)
C12 C 0.67552(14) 0.7343(3) 0.4289(4)
C13 C 0.73650(13) 0.6606(2) 0.4537(3)
C14 C 0.80051(13) 0.6994(2) 0.4087(4)
H12 H 0.8053 0.7701 0.3600
C15 C 0.85736(14) 0.6326(3) 0.4364(4)
C16 C 0.85312(15) 0.5288(3) 0.5088(4)
H13 H 0.8925 0.4857 0.5280
C17 C 0.78884(16) 0.4892(3) 0.5529(4)
H14 H 0.7845 0.4185 0.6018
C18 C 0.73112(14) 0.5548(2) 0.5243(3)
H15 H 0.6879 0.5273 0.5529
loop_
_geom_bond_atom_site_label_1
_geom_bond_atom_site_label_2
_geom_bond_site_symmetry_1
_geom_bond_site_symmetry_2
N1 C1 1_555 1_555
N2 C1 1_555 1_555
N3 O4 1_555 1_555
O1 C5 1_555 1_555
O2 H1 1_555 1_555
O3 C12 1_555 1_555
O5 N3 1_555 1_555
C1 H2 1_555 1_555
C2 N2 1_555 1_555
H3 C2 1_555 1_555
C3 N1 1_555 1_555
H4 C3 1_555 1_555
C4 N1 1_555 1_555
H5 C4 1_555 1_555
H6 C4 1_555 1_555
C5 C4 1_555 1_555
C6 C5 1_555 1_555
C7 C6 1_555 1_555
H7 C7 1_555 1_555
C8 C7 1_555 1_555
H8 C8 1_555 1_555
C9 C8 1_555 1_555
H9 C9 1_555 1_555
C10 C9 1_555 1_555
H10 C10 1_555 1_555
C11 C6 1_555 1_555
H11 C11 1_555 1_555
C12 O2 1_555 1_555
C13 C12 1_555 1_555
C14 C13 1_555 1_555
H12 C14 1_555 1_555
C15 N3 1_555 1_555
C16 C15 1_555 1_555
H13 C16 1_555 1_555
C17 C16 1_555 1_555
H14 C17 1_555 1_555
C18 C13 1_555 1_555
H15 C18 1_555 1_555
C2 C3 1_555 1_555
C10 C11 1_555 1_555
C14 C15 1_555 1_555
C17 C18 1_555 1_555

#END
