
#######################################################################
#
#                 Cambridge Crystallographic Data Centre
#                                CCDC 
#
#######################################################################
#
# If this CIF has been generated from an entry in the Cambridge 
# Structural Database, then it will include bibliographic, chemical, 
# crystal, experimental, refinement or atomic coordinate data resulting 
# from the CCDC's data processing and validation procedures.
#
#######################################################################

data_FASKES
_chemical_formula_moiety         'C16 H10 Br1 F3 O2'
_chemical_name_systematic        
(E)-1-(4-bromophenyl)-3-(4-(trifluoromethoxy)phenyl)prop-2-en-1-one
_symmetry_cell_setting           orthorhombic
_symmetry_space_group_name_H-M   'P b c a'
_symmetry_Int_Tables_number      61
_space_group_name_Hall           '-P 2ac 2ab'
loop_
_symmetry_equiv_pos_site_id
_symmetry_equiv_pos_as_xyz
1 x,y,z
2 1/2-x,-y,1/2+z
3 -x,1/2+y,1/2-z
4 1/2+x,1/2-y,-z
5 -x,-y,-z
6 1/2+x,y,1/2-z
7 x,1/2-y,1/2+z
8 1/2-x,1/2+y,z
_cell_length_a                   14.1194(9)
_cell_length_b                   5.7630(3)
_cell_length_c                   34.848(2)
_cell_angle_alpha                90
_cell_angle_beta                 90
_cell_angle_gamma                90
_cell_volume                     2835.59
_exptl_crystal_colour            colorless
_exptl_crystal_description       needle
_cell_formula_units_Z            8
loop_
_atom_site_label
_atom_site_type_symbol
_atom_site_fract_x
_atom_site_fract_y
_atom_site_fract_z
Br1 Br 0.125323(14) 0.72349(4) 0.334014(5)
F1 F 0.02899(8) 0.4344(2) 0.74390(3)
F2 F 0.14333(9) 0.2154(3) 0.76171(4)
F3 F 0.16856(10) 0.5750(3) 0.74753(4)
O1 O 0.12572(10) 1.2085(2) 0.51224(4)
O2 O 0.13793(10) 0.3132(2) 0.70231(4)
C1 C 0.15770(12) 1.0828(3) 0.43567(5)
H1 H 0.1796 1.2281 0.4432
C2 C 0.15737(12) 1.0236(3) 0.39708(5)
H2 H 0.1795 1.1271 0.3787
C3 C 0.12353(12) 0.8075(3) 0.38646(5)
C4 C 0.08991(12) 0.6498(3) 0.41332(5)
H3 H 0.0663 0.5066 0.4056
C5 C 0.09202(12) 0.7089(3) 0.45187(5)
H4 H 0.0711 0.6034 0.4702
C6 C 0.12552(11) 0.9263(3) 0.46331(5)
C7 C 0.12568(12) 1.0017(3) 0.50447(5)
C8 C 0.12737(12) 0.8210(3) 0.53447(5)
H5 H 0.1434 0.6691 0.5282
C9 C 0.10568(11) 0.8769(3) 0.57085(5)
H6 H 0.0850 1.0280 0.5751
C10 C 0.11097(11) 0.7270(3) 0.60441(5)
C11 C 0.15312(12) 0.5065(3) 0.60365(5)
H7 H 0.1756 0.4469 0.5806
C12 C 0.16156(12) 0.3770(3) 0.63690(5)
H8 H 0.1904 0.2320 0.6363
C13 C 0.12661(12) 0.4648(3) 0.67127(5)
C14 C 0.08419(13) 0.6805(3) 0.67311(5)
H9 H 0.0610 0.7379 0.6962
C15 C 0.07709(12) 0.8093(3) 0.63959(5)
H10 H 0.0489 0.9551 0.6405
C16 C 0.12013(14) 0.3856(4) 0.73818(5)
loop_
_geom_bond_atom_site_label_1
_geom_bond_atom_site_label_2
_geom_bond_site_symmetry_1
_geom_bond_site_symmetry_2
Br1 C3 1_555 1_555
F1 C16 1_555 1_555
F2 C16 1_555 1_555
F3 C16 1_555 1_555
O1 C7 1_555 1_555
O2 C13 1_555 1_555
C1 H1 1_555 1_555
C2 C1 1_555 1_555
H2 C2 1_555 1_555
C3 C2 1_555 1_555
C4 C3 1_555 1_555
H3 C4 1_555 1_555
C5 C4 1_555 1_555
H4 C5 1_555 1_555
C6 C1 1_555 1_555
C7 C6 1_555 1_555
C8 C7 1_555 1_555
H5 C8 1_555 1_555
C9 C8 1_555 1_555
H6 C9 1_555 1_555
C10 C9 1_555 1_555
C11 C10 1_555 1_555
H7 C11 1_555 1_555
C12 C11 1_555 1_555
H8 C12 1_555 1_555
C13 C12 1_555 1_555
C14 C13 1_555 1_555
H9 C14 1_555 1_555
C15 C10 1_555 1_555
H10 C15 1_555 1_555
C16 O2 1_555 1_555
C5 C6 1_555 1_555
C14 C15 1_555 1_555

#END
