
#######################################################################
#
#                 Cambridge Crystallographic Data Centre
#                                CCDC 
#
#######################################################################
#
# If this CIF has been generated from an entry in the Cambridge 
# Structural Database, then it will include bibliographic, chemical, 
# crystal, experimental, refinement or atomic coordinate data resulting 
# from the CCDC's data processing and validation procedures.
#
#######################################################################

data_FASMOE
_chemical_formula_moiety         'C18 H15 N1 O1'
_chemical_name_systematic        
2-methyl-4-(4-(pyridin-3-ylethynyl)phenyl)but-3-yn-2-ol
_symmetry_cell_setting           monoclinic
_symmetry_space_group_name_H-M   'P 21/c'
_symmetry_Int_Tables_number      14
_space_group_name_Hall           '-P 2ybc'
loop_
_symmetry_equiv_pos_site_id
_symmetry_equiv_pos_as_xyz
1 x,y,z
2 -x,1/2+y,1/2-z
3 -x,-y,-z
4 x,1/2-y,1/2+z
_cell_length_a                   33.321(4)
_cell_length_b                   10.0539(11)
_cell_length_c                   8.9158(10)
_cell_angle_alpha                90
_cell_angle_beta                 92.442(2)
_cell_angle_gamma                90
_cell_volume                     2984.13
_exptl_crystal_colour            colorless
_exptl_crystal_description       plate
_cell_formula_units_Z            8
loop_
_atom_site_label
_atom_site_type_symbol
_atom_site_fract_x
_atom_site_fract_y
_atom_site_fract_z
C1 C 0.42102(6) 0.1698(2) 1.3935(2)
H1 H 0.4454 0.1747 1.4482
C2 C 0.41237(6) 0.0557(2) 1.3158(3)
H2 H 0.4304 -0.0149 1.3181
C3 C 0.37668(6) 0.0469(2) 1.2346(2)
H3 H 0.3703 -0.0293 1.1795
C4 C 0.35037(5) 0.15302(18) 1.23571(19)
C5 C 0.36215(5) 0.26395(18) 1.3180(2)
H4 H 0.3447 0.3360 1.3189
C6 C 0.31242(5) 0.14964(19) 1.1532(2)
C7 C 0.28080(5) 0.14468(19) 1.0855(2)
C8 C 0.24244(5) 0.14025(18) 1.00716(19)
C9 C 0.23262(5) 0.03757(17) 0.9071(2)
H5 H 0.2515 -0.0280 0.8885
C10 C 0.19522(5) 0.03275(17) 0.8358(2)
H6 H 0.1890 -0.0365 0.7697
C11 C 0.16661(4) 0.13027(17) 0.86137(18)
C12 C 0.17666(5) 0.23356(18) 0.9592(2)
H7 H 0.1580 0.3001 0.9765
C13 C 0.21403(5) 0.23812(18) 1.0309(2)
H8 H 0.2204 0.3079 1.0962
C14 C 0.12728(5) 0.12250(17) 0.78913(19)
C15 C 0.09449(5) 0.11107(18) 0.73223(19)
C16 C 0.05443(4) 0.08730(17) 0.65817(19)
C17 C 0.02806(5) 0.21017(19) 0.6659(3)
H9 H 0.0024 0.1922 0.6172
H10 H 0.0406 0.2828 0.6162
H11 H 0.0245 0.2331 0.7690
C18 C 0.06049(6) 0.0475(2) 0.4963(2)
H12 H 0.0755 -0.0340 0.4942
H13 H 0.0750 0.1163 0.4472
H14 H 0.0348 0.0351 0.4451
N1 N 0.39676(5) 0.27382(17) 1.39557(18)
O1 O 0.03426(3) -0.01397(13) 0.73619(16)
H15 H 0.0480 -0.0817 0.7385
C19 C 0.07352(6) 0.6430(2) -0.3567(2)
H16 H 0.0488 0.6440 -0.4091
C20 C 0.09779(6) 0.5348(2) -0.3731(2)
H17 H 0.0897 0.4645 -0.4350
C21 C 0.13434(6) 0.53177(19) -0.2965(2)
H18 H 0.1515 0.4595 -0.3063
C22 C 0.14544(5) 0.63753(17) -0.20448(19)
C23 C 0.11865(5) 0.74243(17) -0.1965(2)
H19 H 0.1260 0.8143 -0.1356
C24 C 0.18301(5) 0.63856(18) -0.1196(2)
C25 C 0.21471(5) 0.63793(18) -0.0520(2)
C26 C 0.25360(5) 0.63366(17) 0.02268(19)
C27 C 0.27993(5) 0.53029(18) -0.0075(2)
H20 H 0.2718 0.4633 -0.0741
C28 C 0.31769(5) 0.52636(18) 0.0599(2)
H21 H 0.3349 0.4566 0.0386
C29 C 0.33065(5) 0.62546(17) 0.1598(2)
C30 C 0.30415(5) 0.72741(18) 0.1910(2)
H22 H 0.3122 0.7938 0.2585
C31 C 0.26638(5) 0.73169(18) 0.1239(2)
H23 H 0.2491 0.8009 0.1463
C32 C 0.37043(5) 0.61874(18) 0.2289(2)
C33 C 0.40346(5) 0.60693(19) 0.2838(2)
C34 C 0.44363(5) 0.58405(19) 0.3553(2)
C35 C 0.46970(6) 0.5086(2) 0.2494(3)
H24 H 0.4957 0.4936 0.2971
H25 H 0.4726 0.5597 0.1595
H26 H 0.4574 0.4248 0.2244
C36 C 0.46306(7) 0.7137(2) 0.4034(3)
H27 H 0.4461 0.7592 0.4711
H28 H 0.4668 0.7683 0.3168
H29 H 0.4886 0.6961 0.4530
N2 N 0.08321(4) 0.74678(16) -0.2703(2)
O2 O 0.43965(4) 0.50963(15) 0.48920(15)
H30 H 0.4263 0.4427 0.4708
loop_
_geom_bond_atom_site_label_1
_geom_bond_atom_site_label_2
_geom_bond_site_symmetry_1
_geom_bond_site_symmetry_2
C1 H1 1_555 1_555
C2 C1 1_555 1_555
H2 C2 1_555 1_555
C3 C2 1_555 1_555
H3 C3 1_555 1_555
C4 C3 1_555 1_555
C5 C4 1_555 1_555
H4 C5 1_555 1_555
C6 C4 1_555 1_555
C7 C6 1_555 1_555
C8 C7 1_555 1_555
C9 C8 1_555 1_555
H5 C9 1_555 1_555
C10 C9 1_555 1_555
H6 C10 1_555 1_555
C11 C10 1_555 1_555
C12 C11 1_555 1_555
H7 C12 1_555 1_555
C13 C8 1_555 1_555
H8 C13 1_555 1_555
C14 C11 1_555 1_555
C15 C14 1_555 1_555
C16 C15 1_555 1_555
C17 C16 1_555 1_555
H9 C17 1_555 1_555
H10 C17 1_555 1_555
H11 C17 1_555 1_555
C18 C16 1_555 1_555
H12 C18 1_555 1_555
H13 C18 1_555 1_555
H14 C18 1_555 1_555
N1 C1 1_555 1_555
O1 C16 1_555 1_555
H15 O1 1_555 1_555
C19 H16 1_555 1_555
C20 C19 1_555 1_555
H17 C20 1_555 1_555
C21 C20 1_555 1_555
H18 C21 1_555 1_555
C22 C21 1_555 1_555
C23 C22 1_555 1_555
H19 C23 1_555 1_555
C24 C22 1_555 1_555
C25 C24 1_555 1_555
C26 C25 1_555 1_555
C27 C26 1_555 1_555
H20 C27 1_555 1_555
C28 C27 1_555 1_555
H21 C28 1_555 1_555
C29 C28 1_555 1_555
C30 C29 1_555 1_555
H22 C30 1_555 1_555
C31 C26 1_555 1_555
H23 C31 1_555 1_555
C32 C29 1_555 1_555
C33 C32 1_555 1_555
C34 C33 1_555 1_555
C35 C34 1_555 1_555
H24 C35 1_555 1_555
H25 C35 1_555 1_555
H26 C35 1_555 1_555
C36 C34 1_555 1_555
H27 C36 1_555 1_555
H28 C36 1_555 1_555
H29 C36 1_555 1_555
N2 C19 1_555 1_555
O2 C34 1_555 1_555
H30 O2 1_555 1_555
C5 N1 1_555 1_555
C12 C13 1_555 1_555
C23 N2 1_555 1_555
C30 C31 1_555 1_555

#END
