
#######################################################################
#
#                 Cambridge Crystallographic Data Centre
#                                CCDC 
#
#######################################################################
#
# If this CIF has been generated from an entry in the Cambridge 
# Structural Database, then it will include bibliographic, chemical, 
# crystal, experimental, refinement or atomic coordinate data resulting 
# from the CCDC's data processing and validation procedures.
#
#######################################################################

data_FASMEU
_chemical_formula_moiety         'C16 H21 Br1 N2 O4'
_chemical_name_systematic        
't-butyl (6-bromo-3-ethoxy-1-methyl-2-oxo-2,3-dihydro-1H-indol-3-yl)carbamate'
_symmetry_cell_setting           tetragonal
_symmetry_space_group_name_H-M   'P 41 21 2'
_symmetry_Int_Tables_number      92
_space_group_name_Hall           'P 4abw 2nw'
loop_
_symmetry_equiv_pos_site_id
_symmetry_equiv_pos_as_xyz
1 x,y,z
2 -x,-y,1/2+z
3 1/2-y,1/2+x,1/4+z
4 1/2+y,1/2-x,3/4+z
5 1/2-x,1/2+y,1/4-z
6 1/2+x,1/2-y,3/4-z
7 y,x,-z
8 -y,-x,1/2-z
_cell_length_a                   13.9090(7)
_cell_length_b                   13.9090(7)
_cell_length_c                   18.4206(12)
_cell_angle_alpha                90
_cell_angle_beta                 90
_cell_angle_gamma                90
_cell_volume                     3563.65
_exptl_crystal_colour            colorless
_exptl_crystal_description       prismatic
_cell_formula_units_Z            8
loop_
_atom_site_label
_atom_site_type_symbol
_atom_site_fract_x
_atom_site_fract_y
_atom_site_fract_z
Br1 Br 0.91535(6) 1.00106(6) 0.10283(4)
N1 N 0.8356(3) 0.6337(4) 0.15166(18)
N2 N 0.9395(3) 0.5954(4) 0.3205(2)
O1 O 0.8271(3) 0.4853(3) 0.20688(19)
O2 O 1.0414(2) 0.5887(3) 0.22599(14)
O3 O 1.0842(2) 0.5372(3) 0.33818(13)
C1 C 0.8603(3) 0.7273(5) 0.1719(2)
C2 C 0.8692(4) 0.8049(5) 0.1281(3)
H1 H 0.8586 0.8006 0.0784
C3 C 0.8945(4) 0.8906(5) 0.1604(3)
C4 C 0.9086(4) 0.8975(5) 0.2363(4)
H2 H 0.9235 0.9562 0.2577
C5 C 0.9000(4) 0.8169(5) 0.2776(3)
H3 H 0.9107 0.8203 0.3274
C6 C 0.8755(3) 0.7301(4) 0.2464(2)
C7 C 0.8605(4) 0.6341(5) 0.2777(2)
C8 C 0.8408(4) 0.5713(5) 0.2085(3)
C9 C 0.8181(4) 0.6034(5) 0.0771(2)
H4 H 0.8109 0.5348 0.0754
H5 H 0.8715 0.6222 0.0472
H6 H 0.7605 0.6334 0.0594
C10 C 1.0239(4) 0.5742(4) 0.2895(2)
C11 C 1.1767(4) 0.4955(4) 0.3177(2)
C12 C 1.2413(4) 0.5713(5) 0.2844(3)
H7 H 1.2162 0.5898 0.2379
H8 H 1.3049 0.5456 0.2785
H9 H 1.2437 0.6264 0.3157
C13 C 1.1612(5) 0.4114(5) 0.2680(3)
H10 H 1.1185 0.3663 0.2906
H11 H 1.2217 0.3807 0.2583
H12 H 1.1335 0.4334 0.2232
C14 C 1.2165(4) 0.4605(6) 0.3904(3)
H13 H 1.2246 0.5142 0.4225
H14 H 1.2774 0.4297 0.3828
H15 H 1.1724 0.4154 0.4116
O4 O 0.7757(7) 0.6076(5) 0.3180(5)
C15 C 0.7492(8) 0.6851(8) 0.3667(5)
H16 H 0.7473 0.7455 0.3403
H17 H 0.7964 0.6907 0.4052
C16 C 0.6487(17) 0.6628(13) 0.3993(10)
H18 H 0.6052 0.6451 0.3610
H19 H 0.6246 0.7187 0.4238
H20 H 0.6540 0.6106 0.4332
H21 H 0.925(3) 0.571(2) 0.3586(13)
O5? O 0.7827(10) 0.6624(9) 0.3233(8)
C17? C 0.7132(14) 0.6159(12) 0.3322(8)
H22? H 0.7339 0.5502 0.3405
H23? H 0.6776 0.6162 0.2870
C18? C 0.650(3) 0.639(2) 0.3860(16)
H24? H 0.6820 0.6786 0.4212
H25? H 0.6280 0.5810 0.4090
H26? H 0.5967 0.6729 0.3658
loop_
_geom_bond_atom_site_label_1
_geom_bond_atom_site_label_2
_geom_bond_site_symmetry_1
_geom_bond_site_symmetry_2
Br1 C3 1_555 1_555
N1 C1 1_555 1_555
N2 C7 1_555 1_555
O1 C8 1_555 1_555
O2 C10 1_555 1_555
O3 C10 1_555 1_555
C1 C2 1_555 1_555
C2 H1 1_555 1_555
C3 C2 1_555 1_555
C4 C3 1_555 1_555
H2 C4 1_555 1_555
C5 C4 1_555 1_555
H3 C5 1_555 1_555
C6 C1 1_555 1_555
C7 C6 1_555 1_555
C8 N1 1_555 1_555
C9 N1 1_555 1_555
H4 C9 1_555 1_555
H5 C9 1_555 1_555
H6 C9 1_555 1_555
C10 N2 1_555 1_555
C11 O3 1_555 1_555
C12 C11 1_555 1_555
H7 C12 1_555 1_555
H8 C12 1_555 1_555
H9 C12 1_555 1_555
C13 C11 1_555 1_555
H10 C13 1_555 1_555
H11 C13 1_555 1_555
H12 C13 1_555 1_555
C14 C11 1_555 1_555
H13 C14 1_555 1_555
H14 C14 1_555 1_555
H15 C14 1_555 1_555
O4 C7 1_555 1_555
C15 O4 1_555 1_555
H16 C15 1_555 1_555
H17 C15 1_555 1_555
C16 C15 1_555 1_555
H18 C16 1_555 1_555
H19 C16 1_555 1_555
H20 C16 1_555 1_555
H21 N2 1_555 1_555
C5 C6 1_555 1_555
C7 C8 1_555 1_555

#END
