
#######################################################################
#
#                 Cambridge Crystallographic Data Centre
#                                CCDC 
#
#######################################################################
#
# If this CIF has been generated from an entry in the Cambridge 
# Structural Database, then it will include bibliographic, chemical, 
# crystal, experimental, refinement or atomic coordinate data resulting 
# from the CCDC's data processing and validation procedures.
#
#######################################################################

data_FASSIE
_chemical_formula_moiety         'C33 H34 B1 F2 N3'
_chemical_name_systematic        
5,5-difluoro-1,3,9-trimethyl-10-(4-methylphenyl)-7-(3-(1,3,3-trimethyl-1,3-dihydro-2H-indol-2-ylidene)prop-1-en-1-yl)-5H-6,5-dipyrrolo[1,2-c:2',1'-f][1,3,2]diazaborinine
_symmetry_cell_setting           monoclinic
_symmetry_space_group_name_H-M   'P 21/c'
_symmetry_Int_Tables_number      14
_space_group_name_Hall           '-P 2ybc'
loop_
_symmetry_equiv_pos_site_id
_symmetry_equiv_pos_as_xyz
1 x,y,z
2 -x,1/2+y,1/2-z
3 -x,-y,-z
4 x,1/2-y,1/2+z
_cell_length_a                   9.6819(17)
_cell_length_b                   17.874(3)
_cell_length_c                   33.495(6)
_cell_angle_alpha                90
_cell_angle_beta                 90.00
_cell_angle_gamma                90
_cell_volume                     5796.45
_cell_formula_units_Z            8
loop_
_atom_site_label
_atom_site_type_symbol
_atom_site_fract_x
_atom_site_fract_y
_atom_site_fract_z
N1 N 0.91273(19) 0.26016(10) 0.06833(6)
N2 N 0.8585(2) 0.12464(10) 0.06567(7)
F1 F 0.7887(2) 0.19934(9) 0.12186(5)
C1 C 0.9198(2) 0.26054(13) 0.02681(8)
C2 C 0.8976(2) 0.19551(13) 0.00503(8)
F2 F 1.01486(19) 0.17427(9) 0.11457(6)
C3 C 0.9640(2) 0.37668(14) 0.04831(8)
H1 H 0.9841 0.4275 0.0493
C4 C 0.9121(3) 0.19575(13) -0.03900(8)
C5 C 0.9520(2) 0.33542(13) 0.01438(8)
C6 C 0.8643(2) 0.12767(13) 0.02402(8)
C7 C 0.9411(2) 0.33010(13) 0.08199(8)
C8 C 0.8321(2) 0.05542(14) 0.00884(9)
N3 N 1.0740(3) 0.52130(15) 0.22994(7)
C9 C 0.9472(3) 0.34946(15) 0.12315(9)
H2 H 0.9127 0.3157 0.1418
C10 C 1.0007(3) 0.41464(14) 0.13643(8)
H3 H 1.0350 0.4473 0.1173
C11 C 0.8260(3) 0.05335(14) 0.07636(9)
C12 C 0.9702(3) 0.36513(15) -0.02701(8)
H4 H 0.9927 0.4174 -0.0258
H5 H 0.8861 0.3585 -0.0417
H6 H 1.0436 0.3385 -0.0401
C13 C 0.8002(3) 0.20737(15) -0.06390(8)
H7 H 0.7142 0.2184 -0.0530
C14 C 1.0728(3) 0.50016(15) 0.19038(8)
C15 C 1.1568(3) 0.55818(14) 0.16720(7)
C16 C 0.8088(3) 0.01185(15) 0.04186(10)
H8 H 0.7849 -0.0385 0.0412
C17 C 1.0095(3) 0.43803(16) 0.17680(8)
H9 H 0.9676 0.4075 0.1957
C18 C 1.0396(3) 0.18192(15) -0.05642(10)
H10 H 1.1172 0.1756 -0.0404
C19 C 0.9414(4) 0.18742(15) -0.12251(10)
C20 C 0.8234(3) 0.02872(15) -0.03308(9)
H11 H 0.7994 -0.0234 -0.0333
H12 H 0.9111 0.0355 -0.0459
H13 H 0.7540 0.0568 -0.0471
C21 C 0.8192(3) 0.02856(16) 0.11855(10)
H14 H 0.8358 0.0705 0.1358
H15 H 0.8880 -0.0091 0.1232
H16 H 0.7293 0.0083 0.1240
C22 C 1.2086(3) 0.60842(16) 0.20042(8)
C23 C 0.8156(3) 0.20270(15) -0.10475(9)
H17 H 0.7387 0.2101 -0.1209
C24 C 1.0621(4) 0.60401(16) 0.13898(9)
H18 H 0.9877 0.6254 0.1541
H19 H 1.0252 0.5717 0.1187
H20 H 1.1148 0.6433 0.1267
C25 C 1.0520(3) 0.17754(16) -0.09700(11)
H21 H 1.1384 0.1675 -0.1079
B1 B 0.8937(3) 0.18918(17) 0.09416(11)
C26 C 1.2752(3) 0.52392(18) 0.14369(9)
H22 H 1.3332 0.4956 0.1614
H23 H 1.3285 0.5630 0.1314
H24 H 1.2389 0.4915 0.1234
C27 C 1.1546(4) 0.58516(18) 0.23631(9)
C28 C 1.2946(4) 0.66919(19) 0.19920(10)
H25 H 1.3320 0.6853 0.1751
C29 C 0.9568(4) 0.1818(2) -0.16703(10)
H26 H 1.0512 0.1710 -0.1735
H27 H 0.9303 0.2284 -0.1791
H28 H 0.8986 0.1425 -0.1769
C30 C 1.1816(5) 0.6228(3) 0.27155(10)
H29 H 1.1419 0.6077 0.2955
C31 C 1.3253(4) 0.7067(2) 0.23482(13)
H30 H 1.3844 0.7477 0.2345
C32 C 1.0048(5) 0.4815(3) 0.26138(10)
H31 H 0.9545 0.4402 0.2503
H32 H 0.9418 0.5146 0.2748
H33 H 1.0717 0.4632 0.2801
C33 C 1.2689(5) 0.6833(3) 0.27005(13)
H34 H 1.2901 0.7089 0.2935
N4 N 0.58723(19) 0.76009(10) 0.06851(6)
F3 F 0.71147(19) 0.69924(9) 0.12174(5)
N5 N 0.6412(2) 0.62454(10) 0.06567(7)
C34 C 0.5804(2) 0.76060(13) 0.02691(8)
F4 F 0.4848(2) 0.67430(9) 0.11451(6)
C35 C 0.6021(2) 0.69540(13) 0.00493(8)
C36 C 0.6358(2) 0.62794(13) 0.02398(8)
C37 C 0.5361(2) 0.87669(14) 0.04842(8)
H35 H 0.5159 0.9275 0.0494
C38 C 0.5480(2) 0.83513(13) 0.01433(8)
C39 C 0.5881(3) 0.69572(13) -0.03896(8)
C40 C 0.5594(2) 0.83006(13) 0.08191(8)
C41 C 0.4271(3) 1.00009(15) 0.19043(8)
C42 C 0.6677(2) 0.55548(14) 0.00881(9)
C43 C 0.6740(3) 0.55352(14) 0.07631(9)
C44 C 0.4997(3) 0.91445(14) 0.13651(9)
H36 H 0.4653 0.9472 0.1174
C45 C 0.5296(3) 0.86547(15) -0.02708(8)
H37 H 0.5076 0.9178 -0.0257
H38 H 0.4559 0.8392 -0.0402
H39 H 0.6136 0.8588 -0.0419
N6 N 0.4255(3) 1.02136(15) 0.23002(7)
C46 C 0.4604(3) 0.68203(15) -0.05632(10)
H40 H 0.3829 0.6759 -0.0402
C47 C 0.6997(3) 0.70741(15) -0.06408(9)
H41 H 0.7857 0.7185 -0.0533
C48 C 0.6921(3) 0.51181(15) 0.04199(10)
H42 H 0.7171 0.4616 0.0414
C49 C 0.5528(3) 0.84963(15) 0.12318(9)
H43 H 0.5869 0.8158 0.1418
C50 C 0.3436(3) 1.05819(15) 0.16721(7)
C51 C 0.6810(3) 0.52841(16) 0.11862(9)
H44 H 0.6645 0.5702 0.1359
H45 H 0.7708 0.5080 0.1240
H46 H 0.6121 0.4907 0.1232
C52 C 0.4908(3) 0.93786(16) 0.17679(8)
H47 H 0.5329 0.9074 0.1957
C53 C 0.5594(4) 0.68751(15) -0.12239(10)
C54 C 0.6767(3) 0.52873(15) -0.03323(9)
H48 H 0.7003 0.4766 -0.0335
H49 H 0.7464 0.5566 -0.0472
H50 H 0.5891 0.5357 -0.0462
C55 C 0.2914(3) 1.10802(16) 0.20043(8)
C56 C 0.4476(3) 0.67749(16) -0.09716(11)
H51 H 0.3614 0.6674 -0.1081
C57 C 0.4378(4) 1.10398(16) 0.13903(9)
H52 H 0.5129 1.1249 0.1540
H53 H 0.3852 1.1436 0.1271
H54 H 0.4736 1.0719 0.1185
C58 C 0.6846(3) 0.70286(15) -0.10494(9)
H55 H 0.7614 0.7104 -0.1211
B2 B 0.6062(3) 0.68923(16) 0.09434(10)
C59 C 0.2238(3) 1.02387(18) 0.14391(9)
H56 H 0.1663 0.9957 0.1618
H57 H 0.2595 0.9914 0.1235
H58 H 0.1704 1.0630 0.1318
C60 C 0.3453(4) 1.08526(18) 0.23624(9)
C61 C 0.2057(4) 1.16943(19) 0.19927(10)
H59 H 0.1688 1.1858 0.1752
C62 C 0.3177(5) 1.1225(3) 0.27147(10)
H60 H 0.3565 1.1069 0.2955
C63 C 0.5427(4) 0.6819(2) -0.16705(10)
H61 H 0.4481 0.6710 -0.1733
H62 H 0.6008 0.6427 -0.1771
H63 H 0.5686 0.7285 -0.1791
C64 C 0.1749(4) 1.2067(2) 0.23469(13)
H64 H 0.1158 1.2478 0.2343
C65 C 0.4949(5) 0.9806(3) 0.26145(10)
H65 H 0.5453 0.9395 0.2501
H66 H 0.4278 0.9619 0.2800
H67 H 0.5577 1.0134 0.2751
C66 C 0.2310(5) 1.1833(3) 0.26984(13)
H68 H 0.2103 1.2090 0.2932
loop_
_geom_bond_atom_site_label_1
_geom_bond_atom_site_label_2
_geom_bond_site_symmetry_1
_geom_bond_site_symmetry_2
N1 C1 1_555 1_555
N2 C6 1_555 1_555
F1 B1 1_555 1_555
C1 C2 1_555 1_555
C2 C4 1_555 1_555
F2 B1 1_555 1_555
C3 H1 1_555 1_555
C4 C13 1_555 1_555
C5 C1 1_555 1_555
C6 C2 1_555 1_555
C7 N1 1_555 1_555
C8 C6 1_555 1_555
N3 C14 1_555 1_555
C9 C7 1_555 1_555
H2 C9 1_555 1_555
C10 C9 1_555 1_555
H3 C10 1_555 1_555
C11 N2 1_555 1_555
C12 C5 1_555 1_555
H4 C12 1_555 1_555
H5 C12 1_555 1_555
H6 C12 1_555 1_555
C13 H7 1_555 1_555
C14 C15 1_555 1_555
C15 C22 1_555 1_555
C16 C8 1_555 1_555
H8 C16 1_555 1_555
C17 C10 1_555 1_555
H9 C17 1_555 1_555
C18 C4 1_555 1_555
H10 C18 1_555 1_555
C19 C23 1_555 1_555
C20 C8 1_555 1_555
H11 C20 1_555 1_555
H12 C20 1_555 1_555
H13 C20 1_555 1_555
C21 C11 1_555 1_555
H14 C21 1_555 1_555
H15 C21 1_555 1_555
H16 C21 1_555 1_555
C22 C27 1_555 1_555
C23 C13 1_555 1_555
H17 C23 1_555 1_555
C24 C15 1_555 1_555
H18 C24 1_555 1_555
H19 C24 1_555 1_555
H20 C24 1_555 1_555
C25 C18 1_555 1_555
H21 C25 1_555 1_555
B1 N1 1_555 1_555
C26 C15 1_555 1_555
H22 C26 1_555 1_555
H23 C26 1_555 1_555
H24 C26 1_555 1_555
C27 N3 1_555 1_555
C28 C22 1_555 1_555
H25 C28 1_555 1_555
C29 C19 1_555 1_555
H26 C29 1_555 1_555
H27 C29 1_555 1_555
H28 C29 1_555 1_555
C30 C27 1_555 1_555
H29 C30 1_555 1_555
C31 C28 1_555 1_555
H30 C31 1_555 1_555
C32 N3 1_555 1_555
H31 C32 1_555 1_555
H32 C32 1_555 1_555
H33 C32 1_555 1_555
C33 C30 1_555 1_555
H34 C33 1_555 1_555
N4 C34 1_555 1_555
F3 B2 1_555 1_555
N5 C36 1_555 1_555
C34 C35 1_555 1_555
F4 B2 1_555 1_555
C35 C36 1_555 1_555
C36 C42 1_555 1_555
C37 H35 1_555 1_555
C38 C34 1_555 1_555
C39 C35 1_555 1_555
C40 N4 1_555 1_555
C41 N6 1_555 1_555
C42 C48 1_555 1_555
C43 N5 1_555 1_555
C44 H36 1_555 1_555
C45 C38 1_555 1_555
H37 C45 1_555 1_555
H38 C45 1_555 1_555
H39 C45 1_555 1_555
N6 C60 1_555 1_555
C46 C39 1_555 1_555
H40 C46 1_555 1_555
C47 C39 1_555 1_555
H41 C47 1_555 1_555
C48 C43 1_555 1_555
H42 C48 1_555 1_555
C49 C40 1_555 1_555
H43 C49 1_555 1_555
C50 C41 1_555 1_555
C51 C43 1_555 1_555
H44 C51 1_555 1_555
H45 C51 1_555 1_555
H46 C51 1_555 1_555
C52 C41 1_555 1_555
H47 C52 1_555 1_555
C53 C56 1_555 1_555
C54 C42 1_555 1_555
H48 C54 1_555 1_555
H49 C54 1_555 1_555
H50 C54 1_555 1_555
C55 C50 1_555 1_555
C56 C46 1_555 1_555
H51 C56 1_555 1_555
C57 C50 1_555 1_555
H52 C57 1_555 1_555
H53 C57 1_555 1_555
H54 C57 1_555 1_555
C58 C47 1_555 1_555
H55 C58 1_555 1_555
B2 N4 1_555 1_555
C59 C50 1_555 1_555
H56 C59 1_555 1_555
H57 C59 1_555 1_555
H58 C59 1_555 1_555
C60 C55 1_555 1_555
C61 C55 1_555 1_555
H59 C61 1_555 1_555
C62 C60 1_555 1_555
H60 C62 1_555 1_555
C63 C53 1_555 1_555
H61 C63 1_555 1_555
H62 C63 1_555 1_555
H63 C63 1_555 1_555
C64 C61 1_555 1_555
H64 C64 1_555 1_555
C65 N6 1_555 1_555
H65 C65 1_555 1_555
H66 C65 1_555 1_555
H67 C65 1_555 1_555
C66 C62 1_555 1_555
H68 C66 1_555 1_555
N2 B1 1_555 1_555
C3 C5 1_555 1_555
C3 C7 1_555 1_555
C11 C16 1_555 1_555
C14 C17 1_555 1_555
C19 C25 1_555 1_555
C31 C33 1_555 1_555
N5 B2 1_555 1_555
C37 C38 1_555 1_555
C37 C40 1_555 1_555
C44 C49 1_555 1_555
C44 C52 1_555 1_555
C53 C58 1_555 1_555
C64 C66 1_555 1_555

#END
