
#######################################################################
#
#                 Cambridge Crystallographic Data Centre
#                                CCDC 
#
#######################################################################
#
# If this CIF has been generated from an entry in the Cambridge 
# Structural Database, then it will include bibliographic, chemical, 
# crystal, experimental, refinement or atomic coordinate data resulting 
# from the CCDC's data processing and validation procedures.
#
#######################################################################

data_FASTUQ
_chemical_formula_moiety         'C18 H26 N8 O2'
_chemical_name_systematic        
N,N,N',N'-Tetraethyl-6-(2-(4-nitrobenzylidene)hydrazino)-1,3,5-triazine-2,4-diamine
_symmetry_cell_setting           monoclinic
_symmetry_space_group_name_H-M   'P 21/c'
_symmetry_Int_Tables_number      14
_space_group_name_Hall           '-P 2ybc'
loop_
_symmetry_equiv_pos_site_id
_symmetry_equiv_pos_as_xyz
1 x,y,z
2 -x,1/2+y,1/2-z
3 -x,-y,-z
4 x,1/2-y,1/2+z
_cell_length_a                   14.549(3)
_cell_length_b                   8.5731(17)
_cell_length_c                   17.698(4)
_cell_angle_alpha                90
_cell_angle_beta                 106.80(3)
_cell_angle_gamma                90
_cell_volume                     2113.26
_exptl_crystal_colour            yellow
_exptl_crystal_description       block
_cell_formula_units_Z            4
_exptl_crystal_recrystallization_method ethanol/acetone
loop_
_atom_site_label
_atom_site_type_symbol
_atom_site_fract_x
_atom_site_fract_y
_atom_site_fract_z
N1 N 0.24205(10) 0.83890(18) 0.27527(8)
N2 N 0.26185(11) 0.65424(19) 0.38028(9)
N3 N 0.15899(11) 0.87495(19) 0.37274(9)
N4 N 0.37764(11) 0.6731(2) 0.23038(9)
N5 N 0.34508(12) 0.6272(2) 0.29140(10)
H1 H 0.3663 0.5416 0.3155
C1 C 0.20005(13) 0.7418(2) 0.40610(10)
C2 C 0.48261(12) 0.6313(2) 0.15191(11)
C3 C 0.27926(12) 0.7130(2) 0.31592(10)
N6 N 0.17684(13) 0.6928(2) 0.47074(10)
C4 C 0.18218(13) 0.9164(2) 0.30748(10)
C5 C 0.55594(13) 0.7014(2) 0.02859(11)
N7 N 0.14210(14) 1.0497(2) 0.27196(10)
C6 C 0.44420(14) 0.5914(3) 0.21671(11)
H2 H 0.4684 0.5055 0.2484
C7 C 0.59721(14) 0.5838(3) 0.07978(13)
H3 H 0.6493 0.5284 0.0732
N8 N 0.59319(13) 0.7366(2) -0.03817(12)
O1 O 0.65957(15) 0.6598(3) -0.04622(13)
C8 C 0.10887(17) 0.7815(3) 0.50151(14)
H4 H 0.0766 0.7105 0.5281
H5 H 0.0605 0.8281 0.4577
C9 C 0.55997(14) 0.5495(3) 0.14094(12)
H6 H 0.5873 0.4695 0.1757
C10 C 0.47887(15) 0.7851(3) 0.03748(13)
H7 H 0.4514 0.8639 0.0020
C11 C 0.44309(15) 0.7505(3) 0.09942(13)
H8 H 0.3918 0.8077 0.1063
C12 C 0.21276(16) 0.5439(3) 0.50866(13)
H9 H 0.2253 0.5543 0.5653
H10 H 0.2729 0.5187 0.4982
O2 O 0.55554(14) 0.8413(3) -0.08322(11)
C13 C 0.0775(2) 1.1407(3) 0.30415(14)
H11 H 0.0810 1.2494 0.2901
H12 H 0.0987 1.1333 0.3613
C14 C 0.1586(2) 1.1060(3) 0.19901(14)
H13 H 0.0981 1.1416 0.1637
H14 H 0.1810 1.0199 0.1735
C15 C 0.1433(2) 0.4141(3) 0.4799(2)
H15 H 0.1693 0.3193 0.5064
H16 H 0.1321 0.4014 0.4240
H17 H 0.0839 0.4380 0.4906
C16 C 0.2293(3) 1.2347(5) 0.2114(2)
H18 H 0.2370 1.2660 0.1615
H19 H 0.2898 1.1999 0.2454
H20 H 0.2068 1.3217 0.2353
C17 C -0.0246(2) 1.0871(5) 0.2748(2)
H21 H -0.0641 1.1508 0.2975
H22 H -0.0289 0.9803 0.2897
H23 H -0.0464 1.0959 0.2183
C18 C 0.1564(2) 0.9065(4) 0.55750(18)
H24 H 0.1092 0.9609 0.5757
H25 H 0.1874 0.9785 0.5312
H26 H 0.2033 0.8609 0.6017
loop_
_geom_bond_atom_site_label_1
_geom_bond_atom_site_label_2
_geom_bond_site_symmetry_1
_geom_bond_site_symmetry_2
N1 C3 1_555 1_555
N2 C1 1_555 1_555
N3 C1 1_555 1_555
N4 N5 1_555 1_555
N5 H1 1_555 1_555
C1 N6 1_555 1_555
C2 C6 1_555 1_555
C3 N2 1_555 1_555
N6 C8 1_555 1_555
C4 N1 1_555 1_555
C5 C7 1_555 1_555
N7 C4 1_555 1_555
C6 N4 1_555 1_555
H2 C6 1_555 1_555
C7 H3 1_555 1_555
N8 C5 1_555 1_555
O1 N8 1_555 1_555
C8 H4 1_555 1_555
H5 C8 1_555 1_555
C9 C2 1_555 1_555
H6 C9 1_555 1_555
C10 C5 1_555 1_555
H7 C10 1_555 1_555
C11 C2 1_555 1_555
H8 C11 1_555 1_555
C12 N6 1_555 1_555
H9 C12 1_555 1_555
H10 C12 1_555 1_555
O2 N8 1_555 1_555
C13 N7 1_555 1_555
H11 C13 1_555 1_555
H12 C13 1_555 1_555
C14 N7 1_555 1_555
H13 C14 1_555 1_555
H14 C14 1_555 1_555
C15 C12 1_555 1_555
H15 C15 1_555 1_555
H16 C15 1_555 1_555
H17 C15 1_555 1_555
C16 C14 1_555 1_555
H18 C16 1_555 1_555
H19 C16 1_555 1_555
H20 C16 1_555 1_555
C17 C13 1_555 1_555
H21 C17 1_555 1_555
H22 C17 1_555 1_555
H23 C17 1_555 1_555
C18 C8 1_555 1_555
H24 C18 1_555 1_555
H25 C18 1_555 1_555
H26 C18 1_555 1_555
N3 C4 1_555 1_555
N5 C3 1_555 1_555
C7 C9 1_555 1_555
C10 C11 1_555 1_555

#END
