
#######################################################################
#
#                 Cambridge Crystallographic Data Centre
#                                CCDC 
#
#######################################################################
#
# If this CIF has been generated from an entry in the Cambridge 
# Structural Database, then it will include bibliographic, chemical, 
# crystal, experimental, refinement or atomic coordinate data resulting 
# from the CCDC's data processing and validation procedures.
#
#######################################################################

data_FASWIH
_chemical_formula_moiety         'C15 H13 Br1 N2 O2'
_chemical_name_systematic        
4-Bromo-2-(((4-(N-hydroxyethanimidoyl)phenyl)imino)methyl)phenol
_symmetry_cell_setting           monoclinic
_symmetry_space_group_name_H-M   'P 21/c'
_symmetry_Int_Tables_number      14
_space_group_name_Hall           '-P 2ybc'
loop_
_symmetry_equiv_pos_site_id
_symmetry_equiv_pos_as_xyz
1 x,y,z
2 -x,1/2+y,1/2-z
3 -x,-y,-z
4 x,1/2-y,1/2+z
_cell_length_a                   15.7226(16)
_cell_length_b                   13.9648(14)
_cell_length_c                   6.1959(4)
_cell_angle_alpha                90
_cell_angle_beta                 96.0960(10)
_cell_angle_gamma                90
_cell_volume                     1352.7
_exptl_crystal_colour            'pale yellow'
_exptl_crystal_description       prismatic
_chemical_melting_point          '493-494 K'
_cell_formula_units_Z            4
loop_
_atom_site_label
_atom_site_type_symbol
_atom_site_fract_x
_atom_site_fract_y
_atom_site_fract_z
Br1 Br 0.26889(2) 0.34615(3) 0.18552(8)
N1 N 0.99578(18) 0.4340(2) 0.8006(5)
N2 N 0.67539(17) 0.36429(19) 0.0913(5)
O1 O 1.07630(15) 0.43292(18) 0.9251(4)
H1 H 1.0734 0.4627 1.0381
O2 O 0.58408(16) 0.40767(19) -0.2732(4)
H2 H 0.6275 0.3938 -0.1941
C1 C 1.0741(2) 0.3412(3) 0.5477(7)
H3 H 1.0891 0.3731 0.4199
H4 H 1.0621 0.2751 0.5151
H5 H 1.1207 0.3457 0.6604
C2 C 0.9965(2) 0.3877(2) 0.6219(6)
C3 C 0.9124(2) 0.3820(2) 0.4834(6)
C4 C 0.8374(2) 0.4140(2) 0.5615(6)
H6 H 0.8400 0.4403 0.7000
C5 C 0.7593(2) 0.4076(3) 0.4370(6)
H7 H 0.7101 0.4294 0.4924
C6 C 0.7540(2) 0.3687(2) 0.2290(6)
C7 C 0.8282(2) 0.3380(2) 0.1481(6)
H8 H 0.8257 0.3133 0.0081
C8 C 0.9060(2) 0.3438(2) 0.2753(6)
H9 H 0.9552 0.3218 0.2201
C9 C 0.6057(2) 0.3475(2) 0.1749(6)
H10 H 0.6082 0.3281 0.3190
C10 C 0.5224(2) 0.3583(2) 0.0486(6)
C11 C 0.5146(2) 0.3916(2) -0.1669(6)
C12 C 0.4339(2) 0.4100(3) -0.2730(6)
H11 H 0.4288 0.4331 -0.4146
C13 C 0.3611(2) 0.3945(3) -0.1703(7)
H12 H 0.3074 0.4064 -0.2434
C14 C 0.3685(2) 0.3613(3) 0.0414(6)
C15 C 0.4480(2) 0.3429(2) 0.1501(6)
H13 H 0.4522 0.3200 0.2918
loop_
_geom_bond_atom_site_label_1
_geom_bond_atom_site_label_2
_geom_bond_site_symmetry_1
_geom_bond_site_symmetry_2
Br1 C14 1_555 1_555
N1 O1 1_555 1_555
N2 C6 1_555 1_555
O1 H1 1_555 1_555
O2 H2 1_555 1_555
C1 H3 1_555 1_555
H4 C1 1_555 1_555
H5 C1 1_555 1_555
C2 N1 1_555 1_555
C3 C2 1_555 1_555
C4 C3 1_555 1_555
H6 C4 1_555 1_555
C5 C4 1_555 1_555
H7 C5 1_555 1_555
C6 C5 1_555 1_555
C7 C6 1_555 1_555
H8 C7 1_555 1_555
C8 C3 1_555 1_555
H9 C8 1_555 1_555
C9 N2 1_555 1_555
H10 C9 1_555 1_555
C10 C9 1_555 1_555
C11 O2 1_555 1_555
C12 C11 1_555 1_555
H11 C12 1_555 1_555
C13 C12 1_555 1_555
H12 C13 1_555 1_555
C14 C13 1_555 1_555
C15 C10 1_555 1_555
H13 C15 1_555 1_555
C1 C2 1_555 1_555
C7 C8 1_555 1_555
C10 C11 1_555 1_555
C14 C15 1_555 1_555

#END
