
#######################################################################
#
#                 Cambridge Crystallographic Data Centre
#                                CCDC 
#
#######################################################################
#
# If this CIF has been generated from an entry in the Cambridge 
# Structural Database, then it will include bibliographic, chemical, 
# crystal, experimental, refinement or atomic coordinate data resulting 
# from the CCDC's data processing and validation procedures.
#
#######################################################################

data_FASZOQ
_chemical_formula_moiety         'C15 H12 Cl2 N2 O2'
_chemical_name_systematic        
2-(3,5-Dichloro-2-hydroxyphenyl)-4-methyl-1,2-dihydro-3\l^5^-quinazolin-3-ol
_symmetry_cell_setting           monoclinic
_symmetry_space_group_name_H-M   'P 21/c'
_symmetry_Int_Tables_number      14
_space_group_name_Hall           '-P 2ybc'
loop_
_symmetry_equiv_pos_site_id
_symmetry_equiv_pos_as_xyz
1 x,y,z
2 -x,1/2+y,1/2-z
3 -x,-y,-z
4 x,1/2-y,1/2+z
_cell_length_a                   10.7831(11)
_cell_length_b                   14.6259(13)
_cell_length_c                   9.7936(7)
_cell_angle_alpha                90
_cell_angle_beta                 116.8770(10)
_cell_angle_gamma                90
_cell_volume                     1377.73
_exptl_crystal_colour            'pale yellow'
_chemical_melting_point          '469-470 K'
_cell_formula_units_Z            4
loop_
_atom_site_label
_atom_site_type_symbol
_atom_site_fract_x
_atom_site_fract_y
_atom_site_fract_z
Cl1 Cl -0.11378(7) 0.62166(4) 0.29764(8)
Cl2 Cl 0.20063(7) 0.70120(4) 0.01584(8)
N1 N 0.27295(19) 0.34853(11) 0.3841(2)
N2 N 0.2762(2) 0.34999(12) 0.1414(2)
H1 H 0.2416 0.3220 0.0548
O1 O 0.19550(16) 0.31942(11) 0.44914(18)
O2 O -0.00159(17) 0.44001(11) 0.32426(19)
H2 H 0.0524 0.3973 0.3626
C1 C 0.4776(3) 0.35131(17) 0.6276(3)
H3 H 0.4098 0.3382 0.6631
H4 H 0.5263 0.4065 0.6748
H5 H 0.5426 0.3016 0.6541
C2 C 0.4066(2) 0.36305(14) 0.4582(3)
C3 C 0.4810(2) 0.38842(14) 0.3715(3)
C4 C 0.4151(2) 0.37678(14) 0.2119(3)
C5 C 0.4898(3) 0.39063(17) 0.1294(3)
H6 H 0.4470 0.3821 0.0239
C6 C 0.6278(3) 0.41710(19) 0.2043(3)
H7 H 0.6774 0.4258 0.1485
C7 C 0.6932(3) 0.43085(17) 0.3612(3)
H8 H 0.7853 0.4501 0.4101
C8 C 0.6207(3) 0.41577(15) 0.4438(3)
H9 H 0.6650 0.4238 0.5494
C9 C 0.1930(2) 0.37005(14) 0.2160(2)
H10 H 0.1108 0.3305 0.1724
C10 C 0.1434(2) 0.46974(14) 0.1985(2)
C11 C 0.0497(2) 0.49677(15) 0.2538(2)
C12 C 0.0043(2) 0.58784(16) 0.2325(3)
C13 C 0.0511(2) 0.65117(15) 0.1620(2)
H11 H 0.0219 0.7117 0.1514
C14 C 0.1425(2) 0.62214(15) 0.1075(2)
C15 C 0.1873(2) 0.53279(14) 0.1237(2)
H12 H 0.2473 0.5146 0.0843
loop_
_geom_bond_atom_site_label_1
_geom_bond_atom_site_label_2
_geom_bond_site_symmetry_1
_geom_bond_site_symmetry_2
Cl1 C12 1_555 1_555
Cl2 C14 1_555 1_555
N1 O1 1_555 1_555
N2 H1 1_555 1_555
O2 H2 1_555 1_555
C1 H3 1_555 1_555
H4 C1 1_555 1_555
H5 C1 1_555 1_555
C2 N1 1_555 1_555
C3 C2 1_555 1_555
C4 N2 1_555 1_555
C5 C4 1_555 1_555
H6 C5 1_555 1_555
C6 C5 1_555 1_555
H7 C6 1_555 1_555
C7 C6 1_555 1_555
H8 C7 1_555 1_555
C8 C3 1_555 1_555
H9 C8 1_555 1_555
C9 N1 1_555 1_555
H10 C9 1_555 1_555
C10 C9 1_555 1_555
C11 O2 1_555 1_555
C12 C11 1_555 1_555
C13 C12 1_555 1_555
H11 C13 1_555 1_555
C14 C13 1_555 1_555
C15 C10 1_555 1_555
H12 C15 1_555 1_555
N2 C9 1_555 1_555
C1 C2 1_555 1_555
C3 C4 1_555 1_555
C7 C8 1_555 1_555
C10 C11 1_555 1_555
C14 C15 1_555 1_555

#END
