
#######################################################################
#
#                 Cambridge Crystallographic Data Centre
#                                CCDC 
#
#######################################################################
#
# If this CIF has been generated from an entry in the Cambridge 
# Structural Database, then it will include bibliographic, chemical, 
# crystal, experimental, refinement or atomic coordinate data resulting 
# from the CCDC's data processing and validation procedures.
#
#######################################################################

data_FASZOP
_chemical_compound_source        'aerial part of Caragana intermedia'
_chemical_formula_moiety         'C15 H26 O2'
_chemical_name_systematic        4(15)-Eudesmene-1\b,6\a-diol
_chemical_properties_biological  'antiPyricularia oryzae P-2b activity'
_symmetry_cell_setting           rhombohedral
_symmetry_space_group_name_H-M   'R 3'
_symmetry_Int_Tables_number      146
_space_group_name_Hall           'R 3'
loop_
_symmetry_equiv_pos_site_id
_symmetry_equiv_pos_as_xyz
1 x,y,z
2 -y,x-y,z
3 -x+y,-x,z
4 2/3+x,1/3+y,1/3+z
5 2/3-y,1/3+x-y,1/3+z
6 2/3-x+y,1/3-x,1/3+z
7 1/3+x,2/3+y,2/3+z
8 1/3-y,2/3+x-y,2/3+z
9 1/3-x+y,2/3-x,2/3+z
_cell_length_a                   23.742(4)
_cell_length_b                   23.742(4)
_cell_length_c                   6.598(2)
_cell_angle_alpha                90
_cell_angle_beta                 90
_cell_angle_gamma                120.000(10)
_cell_volume                     3220.9
_exptl_crystal_colour            colorless
_exptl_crystal_description       parallelepiped
_cell_formula_units_Z            9
_exptl_crystal_recrystallization_method 'ethyl acetate/petroleum ether'
loop_
_atom_site_label
_atom_site_type_symbol
_atom_site_fract_x
_atom_site_fract_y
_atom_site_fract_z
O1 O 0.62706(18) 0.6625(2) 0.8496(5)
H1 H 0.6195 0.6353 0.7612
O2 O 0.3418(2) 0.5835(3) 1.0191(7)
H2 H 0.3394 0.6047 0.9247
C1 C 0.5734(3) 0.6722(3) 0.8691(7)
H3 H 0.5794 0.6964 0.9951
C2 C 0.5727(3) 0.7144(3) 0.6962(9)
H4 H 0.6116 0.7569 0.7037
H5 H 0.5735 0.6948 0.5680
C3 C 0.5137(4) 0.7226(3) 0.7022(11)
H6 H 0.5183 0.7515 0.8131
H7 H 0.5114 0.7429 0.5772
C4 C 0.4519(3) 0.6594(3) 0.7289(9)
C5 C 0.4531(3) 0.6219(3) 0.9122(7)
H8 H 0.4655 0.6522 1.0262
C6 C 0.3880(3) 0.5637(3) 0.9707(7)
H9 H 0.3715 0.5338 0.8551
C7 C 0.3929(3) 0.5269(3) 1.1537(7)
H10 H 0.4046 0.5567 1.2690
C8 C 0.4474(3) 0.5126(3) 1.1308(8)
H11 H 0.4364 0.4806 1.0241
H12 H 0.4519 0.4937 1.2559
C9 C 0.5118(3) 0.5724(3) 1.0809(8)
H13 H 0.5445 0.5597 1.0632
H14 H 0.5250 0.6024 1.1939
C10 C 0.5088(3) 0.6068(3) 0.8897(7)
C11 C 0.3269(3) 0.4683(3) 1.2061(8)
H15 H 0.2948 0.4828 1.2124
C12 C 0.3031(4) 0.4123(3) 1.0454(11)
H16 H 0.3332 0.3964 1.0404
H17 H 0.3008 0.4287 0.9145
H18 H 0.2609 0.3775 1.0828
C13 C 0.3282(4) 0.4392(4) 1.4128(9)
H19 H 0.3427 0.4724 1.5148
H20 H 0.3573 0.4222 1.4069
H21 H 0.2852 0.4047 1.4459
C14 C 0.4038(3) 0.6377(3) 0.5942(9)
H22 H 0.4080 0.6621 0.4791
H23 H 0.3659 0.5982 0.6152
C15 C 0.4985(3) 0.5638(3) 0.7017(7)
H24 H 0.4560 0.5258 0.7076
H25 H 0.5309 0.5509 0.6999
H26 H 0.5021 0.5879 0.5810
loop_
_geom_bond_atom_site_label_1
_geom_bond_atom_site_label_2
_geom_bond_site_symmetry_1
_geom_bond_site_symmetry_2
O1 H1 1_555 1_555
O2 H2 1_555 1_555
C1 O1 1_555 1_555
H3 C1 1_555 1_555
C2 C1 1_555 1_555
H4 C2 1_555 1_555
H5 C2 1_555 1_555
C3 C2 1_555 1_555
H6 C3 1_555 1_555
H7 C3 1_555 1_555
C4 C3 1_555 1_555
C5 C4 1_555 1_555
H8 C5 1_555 1_555
C6 O2 1_555 1_555
H9 C6 1_555 1_555
C7 C6 1_555 1_555
H10 C7 1_555 1_555
C8 C7 1_555 1_555
H11 C8 1_555 1_555
H12 C8 1_555 1_555
C9 C8 1_555 1_555
H13 C9 1_555 1_555
H14 C9 1_555 1_555
C10 C1 1_555 1_555
C11 C7 1_555 1_555
H15 C11 1_555 1_555
C12 C11 1_555 1_555
H16 C12 1_555 1_555
H17 C12 1_555 1_555
H18 C12 1_555 1_555
C13 C11 1_555 1_555
H19 C13 1_555 1_555
H20 C13 1_555 1_555
H21 C13 1_555 1_555
C14 C4 1_555 1_555
H22 C14 1_555 1_555
H23 C14 1_555 1_555
C15 C10 1_555 1_555
H24 C15 1_555 1_555
H25 C15 1_555 1_555
H26 C15 1_555 1_555
C5 C6 1_555 1_555
C5 C10 1_555 1_555
C9 C10 1_555 1_555

#END
