
#######################################################################
#
#                 Cambridge Crystallographic Data Centre
#                                CCDC 
#
#######################################################################
#
# If this CIF has been generated from an entry in the Cambridge 
# Structural Database, then it will include bibliographic, chemical, 
# crystal, experimental, refinement or atomic coordinate data resulting 
# from the CCDC's data processing and validation procedures.
#
#######################################################################

data_FATBEJ
_chemical_name_common            
spiro[(indane-1,3-dione)-2,3'-(2'-methyl-2'-methyloxycarbonyl-hexahydro-1'H-pyrrolizine)]
_chemical_formula_moiety         'C18 H19 N1 O4'
_chemical_name_systematic        
"Methyl 2'-methyl-1,3-dioxo-1,1',2',3,5',6',7',7a'-octahydrospiro[indene-2,3'-pyrrolizine]-2'-carboxylate"
_symmetry_cell_setting           monoclinic
_symmetry_space_group_name_H-M   'P 21/n'
_symmetry_Int_Tables_number      14
_space_group_name_Hall           '-P 2yn'
loop_
_symmetry_equiv_pos_site_id
_symmetry_equiv_pos_as_xyz
1 x,y,z
2 1/2-x,1/2+y,1/2-z
3 -x,-y,-z
4 1/2+x,1/2-y,1/2+z
_cell_length_a                   10.204(6)
_cell_length_b                   14.888(9)
_cell_length_c                   10.750(6)
_cell_angle_alpha                90
_cell_angle_beta                 95.081(6)
_cell_angle_gamma                90
_cell_volume                     1626.69
_exptl_crystal_colour            yellow
_exptl_crystal_description       block
_cell_formula_units_Z            4
loop_
_atom_site_label
_atom_site_type_symbol
_atom_site_fract_x
_atom_site_fract_y
_atom_site_fract_z
C1 C 0.7925(3) 0.0916(2) 0.2605(3)
C2 C 0.7945(4) -0.0138(2) 0.2765(3)
C3 C 0.7264(4) -0.0432(3) 0.1508(4)
H1 H 0.7491 -0.1047 0.1320
H2 H 0.6316 -0.0386 0.1507
C4 C 0.7775(5) 0.0211(3) 0.0573(4)
H3 H 0.8541 -0.0052 0.0221
C5 C 0.6812(6) 0.0578(4) -0.0485(5)
H4 H 0.6834 0.0219 -0.1235
H5 H 0.5920 0.0588 -0.0240
C6 C 0.7300(6) 0.1510(4) -0.0687(5)
H6 H 0.6616 0.1883 -0.1104
H7 H 0.8056 0.1506 -0.1174
C7 C 0.7672(4) 0.1832(3) 0.0631(4)
H8 H 0.8339 0.2296 0.0642
H9 H 0.6910 0.2069 0.1000
C8 C 0.6596(3) 0.1296(2) 0.2973(3)
C9 C 0.6848(3) 0.1885(2) 0.4068(3)
C10 C 0.5955(4) 0.2312(3) 0.4758(4)
H10 H 0.5055 0.2264 0.4538
C11 C 0.6429(5) 0.2816(3) 0.5789(4)
H11 H 0.5843 0.3104 0.6270
C12 C 0.7776(5) 0.2890(3) 0.6105(4)
H12 H 0.8079 0.3228 0.6799
C13 C 0.8670(4) 0.2471(3) 0.5412(4)
H13 H 0.9569 0.2527 0.5628
C14 C 0.8200(3) 0.1964(2) 0.4383(3)
C15 C 0.8926(3) 0.1438(2) 0.3505(3)
C16 C 0.7228(4) -0.0451(3) 0.3845(4)
C17 C 0.9377(4) -0.0513(3) 0.2948(4)
H14 H 0.9350 -0.1154 0.3042
H15 H 0.9827 -0.0251 0.3682
H16 H 0.9835 -0.0364 0.2233
C18 C 0.7022(5) -0.0262(4) 0.6020(4)
H17 H 0.7417 0.0080 0.6711
H18 H 0.7132 -0.0891 0.6195
H19 H 0.6101 -0.0124 0.5894
N1 N 0.8183(3) 0.1029(2) 0.1306(3)
O1 O 0.5522(2) 0.11267(19) 0.2436(2)
O2 O 1.0118(2) 0.14374(19) 0.3460(3)
O3 O 0.6351(4) -0.1006(3) 0.3786(3)
O4 O 0.7647(3) -0.0040(2) 0.4907(3)
loop_
_geom_bond_atom_site_label_1
_geom_bond_atom_site_label_2
_geom_bond_site_symmetry_1
_geom_bond_site_symmetry_2
C1 C2 1_555 1_555
C2 C3 1_555 1_555
C3 H1 1_555 1_555
H2 C3 1_555 1_555
C4 C3 1_555 1_555
H3 C4 1_555 1_555
C5 C4 1_555 1_555
H4 C5 1_555 1_555
H5 C5 1_555 1_555
C6 C5 1_555 1_555
H6 C6 1_555 1_555
H7 C6 1_555 1_555
C7 C6 1_555 1_555
H8 C7 1_555 1_555
H9 C7 1_555 1_555
C8 C1 1_555 1_555
C9 C8 1_555 1_555
C10 C9 1_555 1_555
H10 C10 1_555 1_555
C11 C10 1_555 1_555
H11 C11 1_555 1_555
C12 C11 1_555 1_555
H12 C12 1_555 1_555
C13 C12 1_555 1_555
H13 C13 1_555 1_555
C14 C9 1_555 1_555
C15 C1 1_555 1_555
C16 C2 1_555 1_555
C17 C2 1_555 1_555
H14 C17 1_555 1_555
H15 C17 1_555 1_555
H16 C17 1_555 1_555
C18 H17 1_555 1_555
H18 C18 1_555 1_555
H19 C18 1_555 1_555
N1 C1 1_555 1_555
O1 C8 1_555 1_555
O2 C15 1_555 1_555
O3 C16 1_555 1_555
O4 C16 1_555 1_555
C4 N1 1_555 1_555
C7 N1 1_555 1_555
C13 C14 1_555 1_555
C14 C15 1_555 1_555
C18 O4 1_555 1_555

#END
