
#######################################################################
#
#                 Cambridge Crystallographic Data Centre
#                                CCDC 
#
#######################################################################
#
# If this CIF has been generated from an entry in the Cambridge 
# Structural Database, then it will include bibliographic, chemical, 
# crystal, experimental, refinement or atomic coordinate data resulting 
# from the CCDC's data processing and validation procedures.
#
#######################################################################

data_FATFEN
_chemical_formula_moiety         'C18 H14 N2 O3,H2 O1'
_chemical_name_systematic        
"3,5-Dihydroxy-N'-(1-naphthylmethylene)benzohydrazide monohydrate"
_symmetry_cell_setting           monoclinic
_symmetry_space_group_name_H-M   'P 21/c'
_symmetry_Int_Tables_number      14
_space_group_name_Hall           '-P 2ybc'
loop_
_symmetry_equiv_pos_site_id
_symmetry_equiv_pos_as_xyz
1 x,y,z
2 -x,1/2+y,1/2-z
3 -x,-y,-z
4 x,1/2-y,1/2+z
_cell_length_a                   15.358(2)
_cell_length_b                   13.1056(17)
_cell_length_c                   7.9322(11)
_cell_angle_alpha                90
_cell_angle_beta                 98.144(2)
_cell_angle_gamma                90
_cell_volume                     1580.46
_exptl_crystal_colour            yellow
_exptl_crystal_description       block
_cell_formula_units_Z            4
loop_
_atom_site_label
_atom_site_type_symbol
_atom_site_fract_x
_atom_site_fract_y
_atom_site_fract_z
C1 C 0.94196(18) 0.8715(2) 0.3670(3)
C2 C 0.9070(2) 0.9466(2) 0.2577(3)
H1 H 0.8465 0.9508 0.2260
C3 C 0.9632(3) 1.0179(2) 0.1932(4)
H2 H 0.9394 1.0684 0.1179
C4 C 1.0501(3) 1.0130(3) 0.2399(4)
H3 H 1.0859 1.0610 0.1972
C5 C 1.0885(2) 0.9378(3) 0.3512(4)
C6 C 1.0351(2) 0.8640(2) 0.4155(3)
C7 C 1.0754(2) 0.7876(3) 0.5237(4)
H4 H 1.0405 0.7377 0.5638
C8 C 1.1640(3) 0.7846(4) 0.5717(5)
H5 H 1.1890 0.7336 0.6445
C9 C 1.2173(3) 0.8588(5) 0.5106(7)
H6 H 1.2779 0.8572 0.5439
C10 C 1.1815(3) 0.9326(4) 0.4038(6)
H7 H 1.2179 0.9809 0.3638
C11 C 0.88306(16) 0.79998(19) 0.4378(3)
H8 H 0.8977 0.7768 0.5490
C12 C 0.69728(14) 0.64961(15) 0.3392(2)
C13 C 0.65512(14) 0.56855(15) 0.4309(2)
C14 C 0.64618(15) 0.57374(16) 0.6029(2)
H9 H 0.6663 0.6305 0.6673
C15 C 0.60676(14) 0.49310(16) 0.6770(2)
C16 C 0.57937(14) 0.40713(16) 0.5831(2)
H10 H 0.5550 0.3523 0.6344
C17 C 0.58854(15) 0.40343(15) 0.4116(2)
C18 C 0.62509(15) 0.48358(15) 0.3347(2)
H11 H 0.6297 0.4810 0.2191
H12 H 0.7731(17) 0.6994(19) 0.547(3)
N1 N 0.81269(13) 0.76947(14) 0.3497(2)
N2 N 0.76316(13) 0.70253(14) 0.4321(2)
O1 O 0.67879(12) 0.66327(13) 0.18527(18)
O2 O 0.59608(11) 0.50257(12) 0.84357(17)
H13 H 0.5718 0.4514 0.8739
O3 O 0.56025(12) 0.32135(11) 0.31221(17)
H14 H 0.5396 0.2784 0.3703
O4 O 0.50373(10) 0.65762(11) 0.04112(17)
H15 H 0.5578 0.6415 0.0509
H16 H 0.4840 0.6594 -0.0645
loop_
_geom_bond_atom_site_label_1
_geom_bond_atom_site_label_2
_geom_bond_site_symmetry_1
_geom_bond_site_symmetry_2
C1 C2 1_555 1_555
C2 H1 1_555 1_555
C3 C2 1_555 1_555
H2 C3 1_555 1_555
C4 C3 1_555 1_555
H3 C4 1_555 1_555
C5 C4 1_555 1_555
C6 C1 1_555 1_555
C7 C6 1_555 1_555
H4 C7 1_555 1_555
C8 C7 1_555 1_555
H5 C8 1_555 1_555
C9 C8 1_555 1_555
H6 C9 1_555 1_555
C10 C5 1_555 1_555
H7 C10 1_555 1_555
C11 C1 1_555 1_555
H8 C11 1_555 1_555
C12 C13 1_555 1_555
C13 C14 1_555 1_555
C14 H9 1_555 1_555
C15 C14 1_555 1_555
C16 C15 1_555 1_555
H10 C16 1_555 1_555
C17 C16 1_555 1_555
C18 C13 1_555 1_555
H11 C18 1_555 1_555
H12 N2 1_555 1_555
N1 C11 1_555 1_555
N2 C12 1_555 1_555
O1 C12 1_555 1_555
O2 C15 1_555 1_555
H13 O2 1_555 1_555
O3 C17 1_555 1_555
H14 O3 1_555 1_555
O4 H15 1_555 1_555
H16 O4 1_555 1_555
C5 C6 1_555 1_555
C9 C10 1_555 1_555
C17 C18 1_555 1_555
N1 N2 1_555 1_555

#END
