
#######################################################################
#
#                 Cambridge Crystallographic Data Centre
#                                CCDC 
#
#######################################################################
#
# If this CIF has been generated from an entry in the Cambridge 
# Structural Database, then it will include bibliographic, chemical, 
# crystal, experimental, refinement or atomic coordinate data resulting 
# from the CCDC's data processing and validation procedures.
#
#######################################################################

data_FATKEQ
_chemical_formula_moiety         'C6 H13 N4 1+,H4 B5 O10 1-,0.5(H2 O1)'
_chemical_name_systematic        
'Urotropinium tetrahydroxo-pentaborate hemihydrate'
_symmetry_cell_setting           monoclinic
_symmetry_space_group_name_H-M   'P 21/c'
_symmetry_Int_Tables_number      14
_space_group_name_Hall           '-P 2ybc'
loop_
_symmetry_equiv_pos_site_id
_symmetry_equiv_pos_as_xyz
1 x,y,z
2 -x,1/2+y,1/2-z
3 -x,-y,-z
4 x,1/2-y,1/2+z
_cell_length_a                   9.5715(2)
_cell_length_b                   14.372(1)
_cell_length_c                   11.5562(6)
_cell_angle_alpha                90
_cell_angle_beta                 109.934(4)
_cell_angle_gamma                90
_cell_volume                     1494.44
_exptl_crystal_colour            colorless
_cell_formula_units_Z            4
loop_
_atom_site_label
_atom_site_type_symbol
_atom_site_fract_x
_atom_site_fract_y
_atom_site_fract_z
O1 O 0.2471(2) 0.7310(1) 0.0875(2)
O2 O 0.2488(2) 0.7293(1) 0.2968(2)
O3 O 0.3161(2) 0.5935(1) 0.2094(2)
O4 O 0.0625(2) 0.6461(1) 0.1403(2)
O5 O 0.2725(2) 0.8768(1) -0.0010(2)
O6 O 0.2605(3) 0.8728(1) 0.4000(2)
O7 O 0.2581(2) 0.8731(1) 0.1969(2)
O8 O 0.3713(2) 0.4379(1) 0.2533(2)
O9 O -0.1315(2) 0.5425(2) 0.1079(2)
O10 O 0.1173(2) 0.4852(1) 0.1792(2)
B1 B 0.2176(14) 0.6736(2) 0.1827(3)
B2 B 0.2568(4) 0.8251(4) 0.0918(3)
B3 B 0.2544(3) 0.8227(2) 0.2982(3)
B4 B 0.2678(4) 0.5062(2) 0.2124(3)
B5 B 0.0175(4) 0.5579(2) 0.1417(3)
H1 H 0.275(5) 0.837(4) -0.062(5)
H2 H 0.261(5) 0.835(3) 0.469(4)
H3 H 0.339(4) 0.378(3) 0.246(4)
H4 H -0.156(4) 0.480(3) 0.112(4)
O11 O 0.5339(13) 0.5229(9) 0.0768(11)
N1 N 0.3199(3) 0.0822(2) 0.1519(3)
N2 N 0.0847(3) 0.1485(2) 0.0299(2)
N3 N 0.2752(3) 0.2461(2) 0.1693(2)
N4 N 0.3085(3) 0.1843(2) -0.0159(2)
C1 C 0.1523(4) 0.0664(2) 0.0946(4)
C2 C 0.3464(4) 0.1650(2) 0.2388(3)
C3 C 0.3817(4) 0.1032(2) 0.0501(3)
C4 C 0.1146(3) 0.2280(2) 0.1144(3)
C5 C 0.1473(4) 0.1681(3) -0.0672(3)
C6 C 0.3342(4) 0.2628(2) 0.0691(3)
H5 H 0.359(5) 0.026(3) 0.185(4)
H6 H 0.107(4) 0.048(3) 0.158(4)
H7 H 0.138(4) 0.014(3) 0.038(4)
H8 H 0.455(4) 0.177(2) 0.269(3)
H9 H 0.291(4) 0.147(3) 0.302(4)
H10 H 0.364(4) 0.050(3) -0.006(3)
H11 H 0.495(4) 0.117(3) 0.094(4)
H12 H 0.076(4) 0.211(2) 0.190(3)
H13 H 0.072(41) 0.283(3) 0.068(3)
H14 H 0.105(4) 0.226(3) -0.110(3)
H15 H 0.128(4) 0.110(3) -0.124(3)
H16 H 0.440(4) 0.278(3) 0.100(4)
H17 H 0.287(4) 0.317(3) 0.025(3)
loop_
_geom_bond_atom_site_label_1
_geom_bond_atom_site_label_2
_geom_bond_site_symmetry_1
_geom_bond_site_symmetry_2
O1 B1 1_555 1_555
O2 B1 1_555 1_555
O3 B1 1_555 1_555
O4 B1 1_555 1_555
O5 B2 1_555 1_555
O6 B3 1_555 1_555
O7 B2 1_555 1_555
O8 B4 1_555 1_555
O9 B5 1_555 1_555
O10 B4 1_555 1_555
B2 O1 1_555 1_555
B3 O2 1_555 1_555
B4 O3 1_555 1_555
B5 O4 1_555 1_555
N1 C1 1_555 1_555
N2 C1 1_555 1_555
N3 C2 1_555 1_555
N4 C3 1_555 1_555
C1 H6 1_555 1_555
C2 N1 1_555 1_555
C3 N1 1_555 1_555
C4 N2 1_555 1_555
C5 N2 1_555 1_555
C6 N3 1_555 1_555
H1 O5 1_555 1_555
H2 O6 1_555 1_555
H3 O8 1_555 1_555
H4 O9 1_555 1_555
H5 N1 1_555 1_555
H7 C1 1_555 1_555
H8 C2 1_555 1_555
H9 C2 1_555 1_555
H10 C3 1_555 1_555
H11 C3 1_555 1_555
H12 C4 1_555 1_555
H13 C4 1_555 1_555
H14 C5 1_555 1_555
H15 C5 1_555 1_555
H16 C6 1_555 1_555
H17 C6 1_555 1_555
O7 B3 1_555 1_555
O10 B5 1_555 1_555
N3 C4 1_555 1_555
N4 C5 1_555 1_555
N4 C6 1_555 1_555

#END
