
#######################################################################
#
#                 Cambridge Crystallographic Data Centre
#                                CCDC 
#
#######################################################################
#
# If this CIF has been generated from an entry in the Cambridge 
# Structural Database, then it will include bibliographic, chemical, 
# crystal, experimental, refinement or atomic coordinate data resulting 
# from the CCDC's data processing and validation procedures.
#
#######################################################################

data_FATQOH
_chemical_formula_moiety         'C15 H10 Cl1 N1 O4'
_chemical_name_systematic        
trans-2,3-Epoxy-1-phenyl-3-(2'-nitro-5'-chlorophenyl)-1-propanone
_symmetry_cell_setting           monoclinic
_symmetry_space_group_name_H-M   'P 21/c'
_symmetry_Int_Tables_number      14
_space_group_name_Hall           '-P 2ybc'
loop_
_symmetry_equiv_pos_site_id
_symmetry_equiv_pos_as_xyz
1 x,y,z
2 -x,1/2+y,1/2-z
3 -x,-y,-z
4 x,1/2-y,1/2+z
_cell_length_a                   9.942(1)
_cell_length_b                   15.774(3)
_cell_length_c                   8.756(1)
_cell_angle_alpha                90
_cell_angle_beta                 96.39(1)
_cell_angle_gamma                90
_cell_volume                     1364.63
_chemical_melting_point          155-156deg.C
_cell_formula_units_Z            4
loop_
_atom_site_label
_atom_site_type_symbol
_atom_site_fract_x
_atom_site_fract_y
_atom_site_fract_z
Cl1 Cl 0.44919(6) 0.56332(4) 0.15761(7)
O1 O 0.90757(10) 0.42921(7) 0.36681(13)
O2 O 1.13310(11) 0.36455(8) 0.53242(14)
O3 O 0.5225(16) 0.2148(8) 0.5712(16)
O4 O 0.7173(11) 0.2682(8) 0.6355(15)
N1 N 0.60642(17) 0.27236(10) 0.5654(2)
C1 C 0.63194(16) 0.45618(11) 0.30309(19)
H1 H 0.6961 0.4878 0.2583
C2 C 0.49596(18) 0.47698(11) 0.2746(2)
C3 C 0.39842(17) 0.43092(12) 0.3376(2)
H2 H 0.3076 0.4455 0.3170
C4 C 0.43633(17) 0.36367(12) 0.4307(2)
H3 H 0.3714 0.3319 0.4737
C5 C 0.57156(15) 0.34316(11) 0.46062(19)
C6 C 0.67278(15) 0.38854(10) 0.39781(19)
C7 C 0.82023(15) 0.36798(10) 0.42367(19)
H4 H 0.8450 0.3083 0.4125
C8 C 0.91240(15) 0.41934(10) 0.52916(19)
H5 H 0.8706 0.4646 0.5842
C9 C 1.04177(16) 0.38267(10) 0.6080(2)
C10 C 1.05267(15) 0.37200(10) 0.77707(19)
C11 C 0.94347(17) 0.38605(12) 0.8594(2)
H6 H 0.8602 0.4013 0.8078
C12 C 0.95705(19) 0.37767(13) 1.0164(2)
H7 H 0.8830 0.3872 1.0703
C13 C 1.0788(2) 0.35545(13) 1.0939(2)
H8 H 1.0880 0.3504 1.2004
C14 C 1.1881(2) 0.34046(13) 1.0136(2)
H9 H 1.2709 0.3250 1.0660
C15 C 1.17506(17) 0.34834(12) 0.8568(2)
H10 H 1.2491 0.3377 0.8034
O5? O 0.5145(14) 0.2356(7) 0.6159(15)
O6? O 0.7259(14) 0.2594(9) 0.6076(17)
loop_
_geom_bond_atom_site_label_1
_geom_bond_atom_site_label_2
_geom_bond_site_symmetry_1
_geom_bond_site_symmetry_2
Cl1 C2 1_555 1_555
O1 C7 1_555 1_555
O2 C9 1_555 1_555
O3 N1 1_555 1_555
O4 N1 1_555 1_555
N1 C5 1_555 1_555
C1 H1 1_555 1_555
C2 C1 1_555 1_555
C3 C2 1_555 1_555
H2 C3 1_555 1_555
C4 C3 1_555 1_555
H3 C4 1_555 1_555
C5 C4 1_555 1_555
C6 C1 1_555 1_555
C7 C6 1_555 1_555
H4 C7 1_555 1_555
C8 O1 1_555 1_555
H5 C8 1_555 1_555
C9 C8 1_555 1_555
C10 C9 1_555 1_555
C11 C10 1_555 1_555
H6 C11 1_555 1_555
C12 C11 1_555 1_555
H7 C12 1_555 1_555
C13 C12 1_555 1_555
H8 C13 1_555 1_555
C14 C13 1_555 1_555
H9 C14 1_555 1_555
C15 C10 1_555 1_555
H10 C15 1_555 1_555
C5 C6 1_555 1_555
C7 C8 1_555 1_555
C14 C15 1_555 1_555

#END
