
#######################################################################
#
#                 Cambridge Crystallographic Data Centre
#                                CCDC 
#
#######################################################################
#
# If this CIF has been generated from an entry in the Cambridge 
# Structural Database, then it will include bibliographic, chemical, 
# crystal, experimental, refinement or atomic coordinate data resulting 
# from the CCDC's data processing and validation procedures.
#
#######################################################################

data_FATXEF
_chemical_formula_moiety         'C106 F54,0.82(C6 H4 Cl2)'
_chemical_name_systematic        
'octadecakis(Trifluoromethyl)-C88fullerene 1,2-dichlorobenzene solvate'
_symmetry_cell_setting           triclinic
_symmetry_space_group_name_H-M   'P -1'
_symmetry_Int_Tables_number      2
_space_group_name_Hall           '-P 1'
loop_
_symmetry_equiv_pos_site_id
_symmetry_equiv_pos_as_xyz
1 x,y,z
2 -x,-y,-z
_cell_length_a                   13.3880(10)
_cell_length_b                   14.6860(10)
_cell_length_c                   21.351(2)
_cell_angle_alpha                85.919(3)
_cell_angle_beta                 82.763(3)
_cell_angle_gamma                70.874(3)
_cell_volume                     3932.63
_exptl_crystal_colour            yellow
_exptl_crystal_description       plate
_cell_formula_units_Z            2
loop_
_atom_site_label
_atom_site_type_symbol
_atom_site_fract_x
_atom_site_fract_y
_atom_site_fract_z
F1 F 0.8428(4) 0.3797(4) -0.05978(18)
F2 F 0.7186(4) 0.5147(4) -0.04356(18)
F3 F 0.6793(4) 0.3881(4) -0.05224(19)
F4 F 0.8003(4) 0.2026(4) -0.04822(18)
F5 F 0.7586(4) 0.0884(4) -0.00199(19)
F6 F 0.6354(3) 0.2205(4) -0.02094(19)
F7 F 0.7568(3) -0.0420(3) 0.09834(19)
F8 F 0.6076(3) 0.0611(3) 0.07702(19)
F9 F 0.6194(3) -0.0116(3) 0.1668(2)
F10 F 0.4735(3) 0.1054(3) 0.46443(17)
F11 F 0.4339(3) 0.0661(3) 0.37688(19)
F12 F 0.5842(3) -0.0084(3) 0.41037(18)
F13 F 0.2212(3) 0.3812(3) 0.3991(2)
F14 F 0.3145(3) 0.2380(3) 0.42579(18)
F15 F 0.2979(3) 0.3556(3) 0.48364(18)
F16 F 0.2853(3) 0.7265(3) 0.17743(18)
F17 F 0.1979(3) 0.6904(4) 0.2625(2)
F18 F 0.2749(4) 0.7977(3) 0.2636(2)
F19 F 0.7526(4) 0.6586(3) -0.00240(18)
F20 F 0.5869(4) 0.6693(4) 0.00188(19)
F21 F 0.6332(5) 0.7617(4) 0.0561(2)
F22 F 1.1035(3) 0.2026(3) 0.03729(18)
F23 F 1.1255(3) 0.0618(3) 0.07931(19)
F24 F 1.0244(3) 0.1121(3) 0.00440(18)
F25 F 1.1000(3) -0.0604(3) 0.1793(2)
F26 F 1.0013(4) -0.0654(4) 0.1115(2)
F27 F 0.9700(4) -0.1101(3) 0.2046(2)
F28 F 0.8584(3) 0.0331(3) 0.49821(18)
F29 F 0.8232(3) -0.0570(3) 0.43687(17)
F30 F 0.6977(3) 0.0422(3) 0.49368(18)
F31 F 0.4547(3) 0.7783(3) 0.44076(17)
F32 F 0.5171(3) 0.8467(3) 0.3602(2)
F33 F 0.3650(3) 0.8280(3) 0.36152(19)
F34 F 0.8122(4) 0.8004(3) 0.1761(2)
F35 F 0.9550(4) 0.6937(4) 0.1461(3)
F36 F 0.8261(5) 0.7307(4) 0.0900(2)
F37 F 1.0458(3) -0.0370(3) 0.39808(18)
F38 F 1.1206(3) -0.0387(3) 0.3044(2)
F39 F 0.9996(4) -0.1034(3) 0.3288(2)
F40 F 0.8069(3) 0.2038(3) 0.54762(16)
F41 F 0.8014(3) 0.3501(3) 0.54284(15)
F42 F 0.9506(3) 0.2382(3) 0.52615(17)
F43 F 0.6874(4) 0.8525(3) 0.2859(2)
F44 F 0.7214(3) 0.7916(3) 0.37871(18)
F45 F 0.8485(3) 0.7788(3) 0.3039(2)
F46 F 1.1655(3) 0.4431(4) 0.2477(3)
F47 F 1.0981(4) 0.5720(4) 0.1982(3)
F48 F 1.1403(4) 0.4402(5) 0.1543(3)
F49 F 1.1749(3) 0.2305(3) 0.34723(17)
F50 F 1.1141(3) 0.2135(3) 0.44371(17)
F51 F 1.1498(3) 0.0984(3) 0.3801(2)
F52 F 0.9967(3) 0.5062(3) 0.43423(18)
F53 F 0.9223(3) 0.6483(3) 0.3964(2)
F54 F 1.0711(3) 0.5576(3) 0.3500(2)
C1 C 0.4743(4) 0.3385(5) 0.2051(3)
C2 C 0.4993(5) 0.4054(5) 0.1575(3)
C3 C 0.5859(5) 0.3709(5) 0.1072(3)
C4 C 0.6357(5) 0.2691(5) 0.1024(3)
C5 C 0.6137(5) 0.2068(5) 0.1480(3)
C6 C 0.5354(5) 0.2384(5) 0.2001(3)
C7 C 0.5448(5) 0.1785(5) 0.2548(3)
C8 C 0.4951(5) 0.2131(5) 0.3145(3)
C9 C 0.4302(4) 0.3091(5) 0.3204(3)
C10 C 0.4175(5) 0.3704(5) 0.2651(3)
C11 C 0.3740(5) 0.4738(5) 0.2735(3)
C12 C 0.3968(5) 0.5384(5) 0.2270(3)
C13 C 0.4614(5) 0.5067(5) 0.1698(3)
C14 C 0.5152(5) 0.5665(5) 0.1400(3)
C15 C 0.6035(5) 0.5329(5) 0.0953(3)
C16 C 0.6378(5) 0.4364(5) 0.0773(3)
C17 C 0.7499(5) 0.3988(5) 0.0427(3)
C18 C 0.8007(5) 0.2918(5) 0.0555(3)
C19 C 0.7422(5) 0.2216(5) 0.0615(3)
C20 C 0.7910(5) 0.1373(5) 0.1074(3)
C21 C 0.7039(5) 0.1089(5) 0.1477(3)
C22 C 0.7315(5) 0.0820(4) 0.2160(3)
C23 C 0.6462(5) 0.1029(5) 0.2623(3)
C24 C 0.6602(5) 0.0957(4) 0.3263(3)
C25 C 0.5611(5) 0.1502(4) 0.3665(3)
C26 C 0.5878(5) 0.2194(4) 0.4079(2)
C27 C 0.5108(4) 0.3062(4) 0.4192(2)
C28 C 0.4074(5) 0.3477(5) 0.3865(3)
C29 C 0.3899(4) 0.4545(4) 0.3868(3)
C30 C 0.3613(5) 0.5139(5) 0.3357(3)
C31 C 0.3823(5) 0.6045(5) 0.3271(3)
C32 C 0.3868(5) 0.6344(5) 0.2570(3)
C33 C 0.4848(5) 0.6634(4) 0.2366(3)
C34 C 0.5306(5) 0.6421(5) 0.1754(3)
C35 C 0.6296(5) 0.6499(5) 0.1529(3)
C36 C 0.6758(6) 0.5965(5) 0.0931(3)
C37 C 0.7893(5) 0.5306(5) 0.1014(3)
C38 C 0.8195(5) 0.4419(5) 0.0745(3)
C39 C 0.9038(5) 0.3657(5) 0.0957(3)
C40 C 0.8919(5) 0.2760(5) 0.0792(3)
C41 C 0.9578(5) 0.1823(5) 0.1044(3)
C42 C 0.8885(5) 0.1186(5) 0.1247(2)
C43 C 0.9275(5) 0.0591(4) 0.1849(3)
C44 C 0.8340(5) 0.0585(4) 0.2332(3)
C45 C 0.8464(5) 0.0573(4) 0.2976(3)
C46 C 0.7598(5) 0.0748(4) 0.3438(3)
C47 C 0.7815(5) 0.1087(4) 0.4050(2)
C48 C 0.6934(5) 0.2041(4) 0.4217(2)
C49 C 0.7196(4) 0.2832(4) 0.4389(2)
C50 C 0.6440(5) 0.3761(4) 0.4443(2)
C51 C 0.5380(4) 0.3836(4) 0.4391(2)
C52 C 0.4599(5) 0.4733(4) 0.4237(3)
C53 C 0.4867(5) 0.5553(4) 0.4142(2)
C54 C 0.4429(5) 0.6260(4) 0.3672(3)
C55 C 0.5153(5) 0.6871(4) 0.3496(3)
C56 C 0.5446(5) 0.6900(4) 0.2784(3)
C57 C 0.6473(5) 0.6926(4) 0.2566(3)
C58 C 0.6891(5) 0.6734(5) 0.1934(3)
C59 C 0.8095(5) 0.6394(5) 0.1838(3)
C60 C 0.8483(5) 0.5451(5) 0.1481(3)
C61 C 0.9322(5) 0.4671(5) 0.1703(3)
C62 C 0.9563(5) 0.3731(5) 0.1459(3)
C63 C 0.9991(5) 0.2833(5) 0.1851(3)
C64 C 0.9909(5) 0.1975(5) 0.1670(3)
C65 C 0.9806(4) 0.1250(4) 0.2114(3)
C66 C 0.9845(4) 0.1341(4) 0.2758(3)
C67 C 0.9429(5) 0.0693(4) 0.3231(3)
C68 C 0.8881(4) 0.1242(4) 0.3838(2)
C69 C 0.9132(5) 0.1965(4) 0.4026(3)
C70 C 0.8357(5) 0.2741(4) 0.4449(2)
C71 C 0.8591(5) 0.3637(4) 0.4155(3)
C72 C 0.7796(5) 0.4590(4) 0.4121(3)
C73 C 0.6732(5) 0.4652(4) 0.4329(2)
C74 C 0.5933(5) 0.5509(5) 0.4179(3)
C75 C 0.6176(5) 0.6254(4) 0.3789(3)
C76 C 0.7210(5) 0.6156(4) 0.3543(3)
C77 C 0.7368(5) 0.6801(4) 0.2974(3)
C78 C 0.8339(5) 0.6247(5) 0.2526(3)
C79 C 0.9148(5) 0.5531(5) 0.2715(3)
C80 C 0.9851(5) 0.4751(5) 0.2267(3)
C81 C 0.9989(5) 0.3851(4) 0.2705(3)
C82 C 1.0099(4) 0.2909(5) 0.2490(3)
C83 C 1.0027(4) 0.2155(4) 0.2939(3)
C84 C 0.9967(5) 0.2341(4) 0.3643(3)
C85 C 0.9489(5) 0.3397(4) 0.3764(3)
C86 C 0.9695(5) 0.4090(5) 0.3310(3)
C87 C 0.9166(5) 0.5157(5) 0.3405(3)
C88 C 0.8022(5) 0.5340(5) 0.3734(3)
C89 C 0.7482(6) 0.4207(6) -0.0292(3)
C90 C 0.7313(6) 0.1854(6) -0.0024(3)
C91 C 0.6712(5) 0.0285(5) 0.1223(3)
C92 C 0.5113(5) 0.0774(5) 0.4060(3)
C93 C 0.3085(5) 0.3312(5) 0.4238(3)
C94 C 0.2841(6) 0.7140(6) 0.2401(3)
C95 C 0.6633(7) 0.6714(6) 0.0353(3)
C96 C 1.0540(5) 0.1383(6) 0.0553(3)
C97 C 1.0014(5) -0.0456(5) 0.1691(3)
C98 C 0.7898(5) 0.0318(5) 0.4596(3)
C99 C 0.4633(5) 0.7868(5) 0.3782(3)
C100 C 0.8521(7) 0.7174(6) 0.1490(4)
C101 C 1.0297(5) -0.0296(5) 0.3391(3)
C102 C 0.8500(5) 0.2662(5) 0.5169(3)
C103 C 0.7501(6) 0.7769(5) 0.3180(3)
C104 C 1.0988(6) 0.4827(6) 0.2068(3)
C105 C 1.1102(5) 0.1929(5) 0.3851(3)
C106 C 0.9780(6) 0.5577(6) 0.3809(3)
Cl1 Cl 1.3703(4) 0.0768(5) 0.0416(3)
Cl2 Cl 1.2951(6) 0.2326(6) 0.1401(4)
C107 C 1.3297(12) 0.1200(12) 0.1583(7)
C108 C 1.3602(12) 0.0597(13) 0.1195(7)
C109 C 1.3912(16) -0.0432(17) 0.1426(10)
C110 C 1.4059(15) -0.0740(14) 0.2187(9)
C111 C 1.3715(9) -0.0013(8) 0.2579(5)
C112 C 1.3116(14) 0.1011(13) 0.2424(8)
Cl3? Cl 1.2859(5) 0.2047(7) 0.2088(4)
Cl4? Cl 1.4207(8) -0.0449(8) 0.0768(5)
C113? C 1.3623(15) 0.0303(14) 0.1871(9)
C114? C 1.4333(11) -0.1111(11) 0.1316(6)
C115? C 1.3368(15) 0.1346(16) 0.1000(10)
loop_
_geom_bond_atom_site_label_1
_geom_bond_atom_site_label_2
_geom_bond_site_symmetry_1
_geom_bond_site_symmetry_2
F1 C89 1_555 1_555
F2 C89 1_555 1_555
F3 C89 1_555 1_555
F4 C90 1_555 1_555
F5 C90 1_555 1_555
F6 C90 1_555 1_555
F7 C91 1_555 1_555
F8 C91 1_555 1_555
F9 C91 1_555 1_555
F10 C92 1_555 1_555
F11 C92 1_555 1_555
F12 C92 1_555 1_555
F13 C93 1_555 1_555
F14 C93 1_555 1_555
F15 C93 1_555 1_555
F16 C94 1_555 1_555
F17 C94 1_555 1_555
F18 C94 1_555 1_555
F19 C95 1_555 1_555
F20 C95 1_555 1_555
F21 C95 1_555 1_555
F22 C96 1_555 1_555
F23 C96 1_555 1_555
F24 C96 1_555 1_555
F25 C97 1_555 1_555
F26 C97 1_555 1_555
F27 C97 1_555 1_555
F28 C98 1_555 1_555
F29 C98 1_555 1_555
F30 C98 1_555 1_555
F31 C99 1_555 1_555
F32 C99 1_555 1_555
F33 C99 1_555 1_555
F34 C100 1_555 1_555
F35 C100 1_555 1_555
F36 C100 1_555 1_555
F37 C101 1_555 1_555
F38 C101 1_555 1_555
F39 C101 1_555 1_555
F40 C102 1_555 1_555
F41 C102 1_555 1_555
F42 C102 1_555 1_555
F43 C103 1_555 1_555
F44 C103 1_555 1_555
F45 C103 1_555 1_555
F46 C104 1_555 1_555
F47 C104 1_555 1_555
F48 C104 1_555 1_555
F49 C105 1_555 1_555
F50 C105 1_555 1_555
F51 C105 1_555 1_555
F52 C106 1_555 1_555
F53 C106 1_555 1_555
F54 C106 1_555 1_555
C1 C2 1_555 1_555
C2 C3 1_555 1_555
C3 C4 1_555 1_555
C4 C5 1_555 1_555
C5 C6 1_555 1_555
C6 C1 1_555 1_555
C7 C6 1_555 1_555
C8 C7 1_555 1_555
C9 C8 1_555 1_555
C10 C1 1_555 1_555
C11 C10 1_555 1_555
C12 C11 1_555 1_555
C13 C2 1_555 1_555
C14 C13 1_555 1_555
C15 C14 1_555 1_555
C16 C3 1_555 1_555
C17 C16 1_555 1_555
C18 C17 1_555 1_555
C19 C4 1_555 1_555
C20 C19 1_555 1_555
C21 C5 1_555 1_555
C22 C21 1_555 1_555
C23 C7 1_555 1_555
C24 C23 1_555 1_555
C25 C8 1_555 1_555
C26 C25 1_555 1_555
C27 C26 1_555 1_555
C28 C9 1_555 1_555
C29 C28 1_555 1_555
C30 C11 1_555 1_555
C31 C30 1_555 1_555
C32 C12 1_555 1_555
C33 C32 1_555 1_555
C34 C14 1_555 1_555
C35 C34 1_555 1_555
C36 C15 1_555 1_555
C37 C36 1_555 1_555
C38 C17 1_555 1_555
C39 C38 1_555 1_555
C40 C18 1_555 1_555
C41 C40 1_555 1_555
C42 C20 1_555 1_555
C43 C42 1_555 1_555
C44 C22 1_555 1_555
C45 C44 1_555 1_555
C46 C24 1_555 1_555
C47 C46 1_555 1_555
C48 C26 1_555 1_555
C49 C48 1_555 1_555
C50 C49 1_555 1_555
C51 C27 1_555 1_555
C52 C29 1_555 1_555
C53 C52 1_555 1_555
C54 C31 1_555 1_555
C55 C54 1_555 1_555
C56 C33 1_555 1_555
C57 C56 1_555 1_555
C58 C35 1_555 1_555
C59 C58 1_555 1_555
C60 C37 1_555 1_555
C61 C60 1_555 1_555
C62 C39 1_555 1_555
C63 C62 1_555 1_555
C64 C41 1_555 1_555
C65 C43 1_555 1_555
C66 C65 1_555 1_555
C67 C45 1_555 1_555
C68 C47 1_555 1_555
C69 C68 1_555 1_555
C70 C49 1_555 1_555
C71 C70 1_555 1_555
C72 C71 1_555 1_555
C73 C50 1_555 1_555
C74 C53 1_555 1_555
C75 C55 1_555 1_555
C76 C75 1_555 1_555
C77 C57 1_555 1_555
C78 C59 1_555 1_555
C79 C78 1_555 1_555
C80 C61 1_555 1_555
C81 C80 1_555 1_555
C82 C63 1_555 1_555
C83 C66 1_555 1_555
C84 C69 1_555 1_555
C85 C71 1_555 1_555
C86 C81 1_555 1_555
C87 C79 1_555 1_555
C88 C72 1_555 1_555
C89 C17 1_555 1_555
C90 C19 1_555 1_555
C91 C21 1_555 1_555
C92 C25 1_555 1_555
C93 C28 1_555 1_555
C94 C32 1_555 1_555
C95 C36 1_555 1_555
C96 C41 1_555 1_555
C97 C43 1_555 1_555
C98 C47 1_555 1_555
C99 C55 1_555 1_555
C100 C59 1_555 1_555
C101 C67 1_555 1_555
C102 C70 1_555 1_555
C103 C77 1_555 1_555
C104 C80 1_555 1_555
C105 C84 1_555 1_555
C106 C87 1_555 1_555
Cl1 C108 1_555 1_555
Cl2 C107 1_555 1_555
C107 C108 1_555 1_555
C108 C109 1_555 1_555
C109 C110 1_555 1_555
C110 C111 1_555 1_555
C111 C112 1_555 1_555
C112 C107 1_555 1_555
C9 C10 1_555 1_555
C12 C13 1_555 1_555
C15 C16 1_555 1_555
C18 C19 1_555 1_555
C20 C21 1_555 1_555
C22 C23 1_555 1_555
C24 C25 1_555 1_555
C27 C28 1_555 1_555
C29 C30 1_555 1_555
C31 C32 1_555 1_555
C33 C34 1_555 1_555
C35 C36 1_555 1_555
C37 C38 1_555 1_555
C39 C40 1_555 1_555
C41 C42 1_555 1_555
C43 C44 1_555 1_555
C45 C46 1_555 1_555
C47 C48 1_555 1_555
C50 C51 1_555 1_555
C51 C52 1_555 1_555
C53 C54 1_555 1_555
C55 C56 1_555 1_555
C57 C58 1_555 1_555
C59 C60 1_555 1_555
C61 C62 1_555 1_555
C63 C64 1_555 1_555
C64 C65 1_555 1_555
C66 C67 1_555 1_555
C67 C68 1_555 1_555
C69 C70 1_555 1_555
C72 C73 1_555 1_555
C73 C74 1_555 1_555
C74 C75 1_555 1_555
C76 C77 1_555 1_555
C76 C88 1_555 1_555
C77 C78 1_555 1_555
C79 C80 1_555 1_555
C81 C82 1_555 1_555
C82 C83 1_555 1_555
C83 C84 1_555 1_555
C84 C85 1_555 1_555
C85 C86 1_555 1_555
C86 C87 1_555 1_555
C87 C88 1_555 1_555

#END
