
#######################################################################
#
#                 Cambridge Crystallographic Data Centre
#                                CCDC 
#
#######################################################################
#
# If this CIF has been generated from an entry in the Cambridge 
# Structural Database, then it will include bibliographic, chemical, 
# crystal, experimental, refinement or atomic coordinate data resulting 
# from the CCDC's data processing and validation procedures.
#
#######################################################################

data_FATXAB
_chemical_formula_moiety         'C104 F48'
_chemical_name_systematic        hexadecakis(Trifluoromethyl)-C88fullerene
_symmetry_cell_setting           monoclinic
_symmetry_space_group_name_H-M   'C 2/c'
_symmetry_Int_Tables_number      15
_space_group_name_Hall           '-C 2yn'
loop_
_symmetry_equiv_pos_site_id
_symmetry_equiv_pos_as_xyz
1 x,y,z
2 -x,y,1/2-z
3 1/2+x,1/2+y,z
4 1/2-x,1/2+y,1/2-z
5 -x,-y,-z
6 x,-y,1/2+z
7 1/2-x,1/2-y,-z
8 1/2+x,1/2-y,1/2+z
_cell_length_a                   30.849(2)
_cell_length_b                   12.5551(5)
_cell_length_c                   21.6230(10)
_cell_angle_alpha                90
_cell_angle_beta                 123.465(9)
_cell_angle_gamma                90
_cell_volume                     6986.49
_exptl_crystal_colour            orange
_exptl_crystal_description       plate
_cell_formula_units_Z            4
loop_
_atom_site_label
_atom_site_type_symbol
_atom_site_fract_x
_atom_site_fract_y
_atom_site_fract_z
F1 F 0.70157(10) 0.6589(2) 0.6901(2)
F2 F 0.66786(11) 0.5098(2) 0.6367(2)
F3 F 0.72440(10) 0.5160(3) 0.7535(2)
F4 F 0.75168(9) 0.4251(2) 0.8817(2)
F5 F 0.70506(12) 0.3257(3) 0.7857(3)
F6 F 0.71789(14) 0.2829(3) 0.8894(3)
F7 F 0.67794(8) 0.95125(16) 0.80375(13)
F8 F 0.63684(9) 0.96499(17) 0.68509(13)
F9 F 0.69908(8) 0.85194(18) 0.74311(15)
F10 F 0.55767(15) 0.1165(2) 0.7258(3)
F11 F 0.63650(17) 0.1697(2) 0.7857(4)
F12 F 0.60482(15) 0.1009(2) 0.8430(3)
F13 F 0.72142(12) 0.4992(5) 1.0744(3)
F14 F 0.75657(10) 0.4745(3) 1.0144(2)
F15 F 0.71616(15) 0.3480(3) 1.0270(3)
F16 F 0.37377(8) 0.8775(2) 0.43165(14)
F17 F 0.45111(9) 0.9178(2) 0.46594(15)
F18 F 0.41471(12) 0.7769(3) 0.39987(16)
F19 F 0.69344(9) 0.7298(2) 1.10014(16)
F20 F 0.70560(10) 0.8550(2) 1.04321(15)
F21 F 0.73947(8) 0.7012(3) 1.05537(16)
F22 F 0.39451(19) 0.1575(3) 0.5466(4)
F23 F 0.43992(14) 0.2414(3) 0.5162(3)
F24 F 0.36086(16) 0.2825(3) 0.4658(3)
C1 C 0.63933(14) 0.5816(3) 0.7081(3)
C2 C 0.59835(13) 0.6544(3) 0.6475(3)
C3 C 0.55479(15) 0.5918(3) 0.5958(3)
C4 C 0.55868(15) 0.4887(3) 0.6266(3)
C5 C 0.60679(15) 0.4796(3) 0.6938(3)
C6 C 0.61327(16) 0.4100(3) 0.7481(4)
C7 C 0.65933(16) 0.4275(3) 0.8269(4)
C8 C 0.66784(13) 0.5482(3) 0.8389(3)
C9 C 0.65602(12) 0.6237(3) 0.7840(3)
C10 C 0.64615(12) 0.7297(3) 0.7946(2)
C11 C 0.61992(12) 0.8121(2) 0.7324(2)
C12 C 0.59059(13) 0.7583(3) 0.6576(2)
C13 C 0.53919(13) 0.8027(3) 0.6130(2)
C14 C 0.49911(14) 0.7468(3) 0.5559(2)
C15 C 0.50650(15) 0.6376(3) 0.5502(3)
C16 C 0.46055(14) 0.5806(3) 0.5340(3)
C17 C 0.46254(15) 0.4795(3) 0.5620(3)
C18 C 0.51446(16) 0.4310(3) 0.6117(3)
C19 C 0.52189(16) 0.3545(3) 0.6636(4)
C20 C 0.57099(17) 0.3445(3) 0.7319(4)
C21 C 0.57544(18) 0.2757(3) 0.7935(4)
C22 C 0.60816(17) 0.3312(3) 0.8683(4)
C23 C 0.64507(16) 0.4018(3) 0.8821(4)
C24 C 0.66403(15) 0.4854(3) 0.9427(3)
C25 C 0.67205(13) 0.5772(3) 0.9040(3)
C26 C 0.66398(12) 0.6818(3) 0.9153(3)
C27 C 0.64875(11) 0.7554(2) 0.8589(2)
C28 C 0.61396(12) 0.8315(2) 0.8619(2)
C29 C 0.57240(11) 0.8753(2) 0.7952(2)
C30 C 0.57481(12) 0.8657(2) 0.7320(2)
C31 C 0.53017(12) 0.8653(2) 0.6619(2)
C32 C 0.47956(12) 0.8717(2) 0.6498(2)
C33 C 0.43620(13) 0.8267(3) 0.5831(2)
C34 C 0.44267(13) 0.7699(3) 0.5260(2)
C35 C 0.42134(14) 0.6545(3) 0.5180(3)
C36 C 0.38156(13) 0.6258(3) 0.5248(3)
C37 C 0.37821(14) 0.5171(3) 0.5436(3)
C38 C 0.41865(15) 0.4466(3) 0.5614(3)
C39 C 0.42045(17) 0.3357(3) 0.5918(4)
C40 C 0.47555(18) 0.3097(3) 0.6572(5)
C41 C 0.47604(19) 0.2712(3) 0.7147(5)
C42 C 0.52351(12) 0.8901(2) 0.7872(2)
C43 C 0.60925(12) 0.8059(3) 0.9206(2)
C44 C 0.64848(13) 0.7153(3) 0.9671(3)
C45 C 0.68411(16) 0.5660(3) 0.6977(3)
C46 C 0.7097(2) 0.3644(4) 0.8463(5)
C47 C 0.65901(13) 0.8960(3) 0.7412(2)
C48 C 0.5944(2) 0.1637(4) 0.7872(5)
C49 C 0.7155(2) 0.4521(5) 1.0171(5)
C50 C 0.41973(16) 0.8366(4) 0.4544(3)
C51 C 0.4034(2) 0.2535(4) 0.5282(5)
C52 C 0.69710(14) 0.7516(4) 1.0431(3)
F1A F 0.29843(10) 0.6589(2) 0.8099(2)
F2A F 0.33214(11) 0.5098(2) 0.8633(2)
F3A F 0.27560(10) 0.5160(3) 0.7465(2)
F4A F 0.24832(9) 0.4251(2) 0.6183(2)
F5A F 0.29494(12) 0.3257(3) 0.7143(3)
F6A F 0.28211(14) 0.2829(3) 0.6106(3)
F7A F 0.32206(8) 0.95125(16) 0.69625(13)
F8A F 0.36316(9) 0.96499(17) 0.81491(13)
F9A F 0.30092(8) 0.85194(18) 0.75689(15)
F10A F 0.44233(15) 0.1165(2) 0.7742(3)
F11A F 0.36350(17) 0.1697(2) 0.7143(4)
F12A F 0.39518(15) 0.1009(2) 0.6570(3)
F13A F 0.27858(12) 0.4992(5) 0.4256(3)
F14A F 0.24343(10) 0.4745(3) 0.4856(2)
F15A F 0.28384(15) 0.3480(3) 0.4730(3)
F16A F 0.62623(8) 0.8775(2) 1.06835(14)
F17A F 0.54889(9) 0.9178(2) 1.03406(15)
F18A F 0.58529(12) 0.7769(3) 1.10013(16)
F19A F 0.30656(9) 0.7298(2) 0.39986(16)
F20A F 0.29440(10) 0.8550(2) 0.45679(15)
F21A F 0.26053(8) 0.7012(3) 0.44463(16)
F22A F 0.60549(19) 0.1575(3) 0.9534(4)
F23A F 0.56008(14) 0.2414(3) 0.9838(3)
F24A F 0.63914(16) 0.2825(3) 1.0342(3)
C1A C 0.36067(14) 0.5816(3) 0.7919(3)
C2A C 0.40165(13) 0.6544(3) 0.8525(3)
C3A C 0.44521(15) 0.5918(3) 0.9042(3)
C4A C 0.44132(15) 0.4887(3) 0.8734(3)
C5A C 0.39321(15) 0.4796(3) 0.8062(3)
C6A C 0.38673(16) 0.4100(3) 0.7519(4)
C7A C 0.34067(16) 0.4275(3) 0.6731(4)
C8A C 0.33216(13) 0.5482(3) 0.6611(3)
C9A C 0.34398(12) 0.6237(3) 0.7160(3)
C10A C 0.35385(12) 0.7297(3) 0.7054(2)
C11A C 0.38008(12) 0.8121(2) 0.7676(2)
C12A C 0.40941(13) 0.7583(3) 0.8424(2)
C13A C 0.46081(13) 0.8027(3) 0.8870(2)
C14A C 0.50089(14) 0.7468(3) 0.9441(2)
C15A C 0.49350(15) 0.6376(3) 0.9498(3)
C16A C 0.53945(14) 0.5806(3) 0.9660(3)
C17A C 0.53746(15) 0.4795(3) 0.9380(3)
C18A C 0.48554(16) 0.4310(3) 0.8883(3)
C19A C 0.47811(16) 0.3545(3) 0.8364(4)
C20A C 0.42901(17) 0.3445(3) 0.7681(4)
C21A C 0.42456(18) 0.2757(3) 0.7065(4)
C22A C 0.39184(17) 0.3312(3) 0.6317(4)
C23A C 0.35493(16) 0.4018(3) 0.6179(4)
C24A C 0.33597(15) 0.4854(3) 0.5573(3)
C25A C 0.32795(13) 0.5772(3) 0.5960(3)
C26A C 0.33602(12) 0.6818(3) 0.5847(3)
C27A C 0.35125(11) 0.7554(2) 0.6411(2)
C28A C 0.38604(12) 0.8315(2) 0.6381(2)
C29A C 0.42760(11) 0.8753(2) 0.7048(2)
C30A C 0.42519(12) 0.8657(2) 0.7680(2)
C31A C 0.46983(12) 0.8653(2) 0.8381(2)
C32A C 0.52044(12) 0.8717(2) 0.8502(2)
C33A C 0.56380(13) 0.8267(3) 0.9169(2)
C34A C 0.55733(13) 0.7699(3) 0.9740(2)
C35A C 0.57866(14) 0.6545(3) 0.9820(3)
C36A C 0.61844(13) 0.6258(3) 0.9752(3)
C37A C 0.62179(14) 0.5171(3) 0.9564(3)
C38A C 0.58135(15) 0.4466(3) 0.9386(3)
C39A C 0.57955(17) 0.3357(3) 0.9082(4)
C40A C 0.52445(18) 0.3097(3) 0.8428(5)
C41A C 0.52396(19) 0.2712(3) 0.7853(5)
C42A C 0.47649(12) 0.8901(2) 0.7128(2)
C43A C 0.39075(12) 0.8059(3) 0.5794(2)
C44A C 0.35152(13) 0.7153(3) 0.5329(3)
C45A C 0.31589(16) 0.5660(3) 0.8023(3)
C46A C 0.2903(2) 0.3644(4) 0.6537(5)
C47A C 0.34099(13) 0.8960(3) 0.7588(2)
C48A C 0.4056(2) 0.1637(4) 0.7128(5)
C49A C 0.2845(2) 0.4521(5) 0.4829(5)
C50A C 0.58027(16) 0.8366(4) 1.0456(3)
C51A C 0.5966(2) 0.2535(4) 0.9718(5)
C52A C 0.30290(14) 0.7516(4) 0.4569(3)
loop_
_geom_bond_atom_site_label_1
_geom_bond_atom_site_label_2
_geom_bond_site_symmetry_1
_geom_bond_site_symmetry_2
F1 C45 1_555 1_555
F2 C45 1_555 1_555
F3 C45 1_555 1_555
F4 C46 1_555 1_555
F5 C46 1_555 1_555
F6 C46 1_555 1_555
F7 C47 1_555 1_555
F8 C47 1_555 1_555
F9 C47 1_555 1_555
F10 C48 1_555 1_555
F11 C48 1_555 1_555
F12 C48 1_555 1_555
F13 C49 1_555 1_555
F14 C49 1_555 1_555
F15 C49 1_555 1_555
F16 C50 1_555 1_555
F17 C50 1_555 1_555
F18 C50 1_555 1_555
F19 C52 1_555 1_555
F20 C52 1_555 1_555
F21 C52 1_555 1_555
F22 C51 1_555 1_555
F23 C51 1_555 1_555
F24 C51 1_555 1_555
C1 C2 1_555 1_555
C2 C3 1_555 1_555
C3 C4 1_555 1_555
C4 C5 1_555 1_555
C5 C1 1_555 1_555
C6 C5 1_555 1_555
C7 C6 1_555 1_555
C8 C7 1_555 1_555
C9 C1 1_555 1_555
C10 C9 1_555 1_555
C11 C10 1_555 1_555
C12 C2 1_555 1_555
C13 C12 1_555 1_555
C14 C13 1_555 1_555
C15 C3 1_555 1_555
C16 C15 1_555 1_555
C17 C16 1_555 1_555
C18 C4 1_555 1_555
C19 C18 1_555 1_555
C20 C6 1_555 1_555
C21 C20 1_555 1_555
C22 C21 1_555 1_555
C23 C7 1_555 1_555
C24 C23 1_555 1_555
C25 C8 1_555 1_555
C26 C25 1_555 1_555
C27 C10 1_555 1_555
C28 C27 1_555 1_555
C29 C28 1_555 1_555
C30 C11 1_555 1_555
C31 C13 1_555 1_555
C32 C31 1_555 1_555
C33 C32 1_555 1_555
C34 C14 1_555 1_555
C35 C16 1_555 1_555
C36 C35 1_555 1_555
C37 C36 1_555 1_555
C38 C17 1_555 1_555
C39 C38 1_555 1_555
C40 C19 1_555 1_555
C41 C40 1_555 1_555
C42 C29 1_555 1_555
C43 C28 1_555 1_555
C44 C26 1_555 1_555
C45 C1 1_555 1_555
C46 C7 1_555 1_555
C47 C11 1_555 1_555
C48 C21 1_555 1_555
C49 C24 1_555 1_555
C50 C34 1_555 1_555
C51 C39 1_555 1_555
C52 C44 1_555 1_555
F1A C45A 1_555 1_555
F2A C45A 1_555 1_555
F3A C45A 1_555 1_555
F4A C46A 1_555 1_555
F5A C46A 1_555 1_555
F6A C46A 1_555 1_555
F7A C47A 1_555 1_555
F8A C47A 1_555 1_555
F9A C47A 1_555 1_555
F10A C48A 1_555 1_555
F11A C48A 1_555 1_555
F12A C48A 1_555 1_555
F13A C49A 1_555 1_555
F14A C49A 1_555 1_555
F15A C49A 1_555 1_555
F16A C50A 1_555 1_555
F17A C50A 1_555 1_555
F18A C50A 1_555 1_555
F19A C52A 1_555 1_555
F20A C52A 1_555 1_555
F21A C52A 1_555 1_555
F22A C51A 1_555 1_555
F23A C51A 1_555 1_555
F24A C51A 1_555 1_555
C1A C2A 1_555 1_555
C2A C3A 1_555 1_555
C3A C4A 1_555 1_555
C4A C5A 1_555 1_555
C5A C1A 1_555 1_555
C6A C5A 1_555 1_555
C7A C6A 1_555 1_555
C8A C7A 1_555 1_555
C9A C1A 1_555 1_555
C10A C9A 1_555 1_555
C11A C10A 1_555 1_555
C12A C2A 1_555 1_555
C13A C12A 1_555 1_555
C14A C13A 1_555 1_555
C15A C3A 1_555 1_555
C16A C15A 1_555 1_555
C17A C16A 1_555 1_555
C18A C4A 1_555 1_555
C19A C18A 1_555 1_555
C20A C6A 1_555 1_555
C21A C41 1_555 1_555
C22A C39 1_555 1_555
C23A C7A 1_555 1_555
C24A C37 1_555 1_555
C25A C8A 1_555 1_555
C26A C25A 1_555 1_555
C27A C10A 1_555 1_555
C28A C27A 1_555 1_555
C29A C28A 1_555 1_555
C30A C11A 1_555 1_555
C31A C13A 1_555 1_555
C32A C42 1_555 1_555
C33A C43 1_555 1_555
C34A C14A 1_555 1_555
C35A C16A 1_555 1_555
C36A C44 1_555 1_555
C37A C24 1_555 1_555
C38A C17A 1_555 1_555
C39A C22 1_555 1_555
C40A C19A 1_555 1_555
C41A C21 1_555 1_555
C42A C32 1_555 1_555
C43A C33 1_555 1_555
C44A C36 1_555 1_555
C45A C1A 1_555 1_555
C46A C7A 1_555 1_555
C47A C11A 1_555 1_555
C48A C21A 1_555 1_555
C49A C24A 1_555 1_555
C50A C34A 1_555 1_555
C51A C39A 1_555 1_555
C52A C44A 1_555 1_555
C8 C9 1_555 1_555
C11 C12 1_555 1_555
C14 C15 1_555 1_555
C17 C18 1_555 1_555
C19 C20 1_555 1_555
C22 C23 1_555 1_555
C24 C25 1_555 1_555
C26 C27 1_555 1_555
C29 C30 1_555 1_555
C30 C31 1_555 1_555
C33 C34 1_555 1_555
C34 C35 1_555 1_555
C37 C38 1_555 1_555
C39 C40 1_555 1_555
C41 C41A 1_555 1_555
C42 C42A 1_555 1_555
C43 C44 1_555 1_555
C8A C9A 1_555 1_555
C11A C12A 1_555 1_555
C14A C15A 1_555 1_555
C17A C18A 1_555 1_555
C19A C20A 1_555 1_555
C20A C21A 1_555 1_555
C21A C22A 1_555 1_555
C22A C23A 1_555 1_555
C23A C24A 1_555 1_555
C24A C25A 1_555 1_555
C26A C27A 1_555 1_555
C26A C44A 1_555 1_555
C28A C43A 1_555 1_555
C29A C30A 1_555 1_555
C29A C42A 1_555 1_555
C30A C31A 1_555 1_555
C31A C32A 1_555 1_555
C32A C33A 1_555 1_555
C33A C34A 1_555 1_555
C34A C35A 1_555 1_555
C35A C36A 1_555 1_555
C36A C37A 1_555 1_555
C37A C38A 1_555 1_555
C38A C39A 1_555 1_555
C39A C40A 1_555 1_555
C40A C41A 1_555 1_555
C43A C44A 1_555 1_555

#END
