
#######################################################################
#
#                 Cambridge Crystallographic Data Centre
#                                CCDC 
#
#######################################################################
#
# If this CIF has been generated from an entry in the Cambridge 
# Structural Database, then it will include bibliographic, chemical, 
# crystal, experimental, refinement or atomic coordinate data resulting 
# from the CCDC's data processing and validation procedures.
#
#######################################################################

data_FATYUX
_chemical_formula_moiety         'C28 H19 Cl2 N3'
_chemical_name_systematic        
5-(2,4-dichlorophenyl)-2,3-diphenyl-5,6-dihydroimidazo[1,2-c]quinazoline
_symmetry_cell_setting           monoclinic
_symmetry_space_group_name_H-M   'P 21/c'
_symmetry_Int_Tables_number      14
_space_group_name_Hall           '-P 2ybc'
loop_
_symmetry_equiv_pos_site_id
_symmetry_equiv_pos_as_xyz
1 x,y,z
2 -x,1/2+y,1/2-z
3 -x,-y,-z
4 x,1/2-y,1/2+z
_cell_length_a                   10.4456(3)
_cell_length_b                   17.7891(5)
_cell_length_c                   12.1983(3)
_cell_angle_alpha                90
_cell_angle_beta                 93.138(2)
_cell_angle_gamma                90
_cell_volume                     2263.26
_exptl_crystal_colour            colorless
_exptl_crystal_description       block
_cell_formula_units_Z            4
loop_
_atom_site_label
_atom_site_type_symbol
_atom_site_fract_x
_atom_site_fract_y
_atom_site_fract_z
Cl1 Cl 0.67323(6) 0.18522(4) 0.41472(4)
Cl2 Cl 1.03040(7) 0.00243(4) 0.26861(5)
N1 N 0.95990(19) 0.28853(9) 0.61737(13)
H1 H 0.970(2) 0.3109(12) 0.5565(12)
N2 N 0.86520(14) 0.19427(9) 0.72030(11)
N3 N 0.93851(14) 0.15755(8) 0.88579(11)
C1 C 0.87100(19) 0.22613(10) 0.60932(13)
H2 H 0.7860 0.2460 0.5871
C2 C 1.0708(2) 0.28664(11) 0.68431(14)
C3 C 1.1743(2) 0.33425(12) 0.66632(18)
H3 H 1.1716 0.3656 0.6052
C4 C 1.2800(3) 0.33481(15) 0.7387(2)
H4 H 1.3476 0.3673 0.7265
C5 C 1.2876(2) 0.28798(15) 0.8293(2)
H5 H 1.3604 0.2882 0.8768
C6 C 1.18644(19) 0.24108(13) 0.84860(16)
H6 H 1.1907 0.2098 0.9098
C7 C 1.07792(18) 0.24007(10) 0.77733(14)
C8 C 0.96521(17) 0.19600(10) 0.79696(13)
C9 C 0.76875(17) 0.15151(11) 0.76260(14)
C10 C 0.81598(17) 0.13015(11) 0.86520(14)
C11 C 0.64531(19) 0.13347(14) 0.70439(15)
C12 C 0.5552(2) 0.1882(2) 0.6782(2)
H7 H 0.5730 0.2384 0.6942
C13 C 0.4370(3) 0.1679(3) 0.6276(3)
H8 H 0.3754 0.2044 0.6104
C14 C 0.4124(3) 0.0944(4) 0.6035(3)
H9 H 0.3339 0.0814 0.5690
C15 C 0.5002(3) 0.0394(3) 0.6286(2)
H10 H 0.4815 -0.0105 0.6118
C16 C 0.6171(2) 0.05867(17) 0.67918(19)
H11 H 0.6774 0.0215 0.6966
C17 C 0.7519(2) 0.08750(13) 0.95050(16)
C18 C 0.6320(3) 0.10863(18) 0.9820(2)
H12 H 0.5886 0.1485 0.9474
C19 C 0.5768(4) 0.0691(3) 1.0669(4)
H13 H 0.4970 0.0833 1.0901
C20 C 0.6410(6) 0.0089(3) 1.1161(3)
H14 H 0.6035 -0.0176 1.1717
C21 C 0.7565(5) -0.0114(2) 1.0847(3)
H15 H 0.7985 -0.0522 1.1182
C22 C 0.8136(3) 0.02759(16) 1.0031(2)
H16 H 0.8948 0.0135 0.9830
C23 C 0.90636(18) 0.16671(10) 0.52513(13)
C24 C 1.0260(2) 0.13280(12) 0.53307(16)
H17 H 1.0821 0.1444 0.5925
C25 C 1.0642(2) 0.08224(13) 0.45519(17)
H18 H 1.1444 0.0595 0.4630
C26 C 0.9829(2) 0.06603(11) 0.36651(16)
C27 C 0.8640(2) 0.09809(11) 0.35438(15)
H19 H 0.8093 0.0867 0.2939
C28 C 0.82638(19) 0.14792(11) 0.43405(14)
loop_
_geom_bond_atom_site_label_1
_geom_bond_atom_site_label_2
_geom_bond_site_symmetry_1
_geom_bond_site_symmetry_2
Cl1 C28 1_555 1_555
Cl2 C26 1_555 1_555
N1 H1 1_555 1_555
N2 C1 1_555 1_555
N3 C8 1_555 1_555
C1 N1 1_555 1_555
H2 C1 1_555 1_555
C2 N1 1_555 1_555
C3 C2 1_555 1_555
H3 C3 1_555 1_555
C4 C3 1_555 1_555
H4 C4 1_555 1_555
C5 C4 1_555 1_555
H5 C5 1_555 1_555
C6 C5 1_555 1_555
H6 C6 1_555 1_555
C7 C2 1_555 1_555
C8 N2 1_555 1_555
C9 N2 1_555 1_555
C10 N3 1_555 1_555
C11 C9 1_555 1_555
C12 C11 1_555 1_555
H7 C12 1_555 1_555
C13 C12 1_555 1_555
H8 C13 1_555 1_555
C14 C13 1_555 1_555
H9 C14 1_555 1_555
C15 C14 1_555 1_555
H10 C15 1_555 1_555
C16 C11 1_555 1_555
H11 C16 1_555 1_555
C17 C10 1_555 1_555
C18 C17 1_555 1_555
H12 C18 1_555 1_555
C19 C18 1_555 1_555
H13 C19 1_555 1_555
C20 C19 1_555 1_555
H14 C20 1_555 1_555
C21 C20 1_555 1_555
H15 C21 1_555 1_555
C22 C17 1_555 1_555
H16 C22 1_555 1_555
C23 C1 1_555 1_555
C24 C23 1_555 1_555
H17 C24 1_555 1_555
C25 C24 1_555 1_555
H18 C25 1_555 1_555
C26 C25 1_555 1_555
C27 C26 1_555 1_555
H19 C27 1_555 1_555
C28 C23 1_555 1_555
C6 C7 1_555 1_555
C7 C8 1_555 1_555
C9 C10 1_555 1_555
C15 C16 1_555 1_555
C21 C22 1_555 1_555
C27 C28 1_555 1_555

#END
