
#######################################################################
#
#                 Cambridge Crystallographic Data Centre
#                                CCDC 
#
#######################################################################
#
# If this CIF has been generated from an entry in the Cambridge 
# Structural Database, then it will include bibliographic, chemical, 
# crystal, experimental, refinement or atomic coordinate data resulting 
# from the CCDC's data processing and validation procedures.
#
#######################################################################

data_FATZIK
_chemical_formula_moiety         'C52 H24 F24 O2 P2,C4 H10 O1'
_chemical_name_systematic        
"2,2'-bis(bis(3,5-bis(trifluoromethyl)phenyl)phosphinyl)-1,1'-binaphthyl diethyl ether solvate"
_symmetry_cell_setting           triclinic
_symmetry_space_group_name_H-M   'P -1'
_symmetry_Int_Tables_number      2
_space_group_name_Hall           '-P 1'
loop_
_symmetry_equiv_pos_site_id
_symmetry_equiv_pos_as_xyz
1 x,y,z
2 -x,-y,-z
_cell_length_a                   12.7183(5)
_cell_length_b                   15.7674(7)
_cell_length_c                   16.5468(7)
_cell_angle_alpha                67.448(2)
_cell_angle_beta                 67.650(2)
_cell_angle_gamma                71.824(2)
_cell_volume                     2780.16
_exptl_crystal_colour            colorless
_exptl_crystal_description       needle
_cell_formula_units_Z            2
loop_
_atom_site_label
_atom_site_type_symbol
_atom_site_fract_x
_atom_site_fract_y
_atom_site_fract_z
P1 P 0.40427(13) 0.89823(10) 0.33135(10)
O1 O 0.3381(3) 0.9748(3) 0.3722(3)
C1 C 0.2822(5) 0.9516(4) 0.2057(4)
C2 C 0.3885(5) 0.9093(4) 0.2236(4)
C3 C 0.4849(5) 0.8794(5) 0.1549(4)
H1 H 0.5577 0.8517 0.1665
C4 C 0.4741(6) 0.8902(5) 0.0719(5)
H2 H 0.5402 0.8709 0.0264
C5 C 0.3551(7) 0.9394(6) -0.0316(5)
H3 H 0.4200 0.9192 -0.0774
C6 C 0.2504(8) 0.9780(7) -0.0482(5)
H4 H 0.2434 0.9854 -0.1057
C7 C 0.1533(7) 1.0067(7) 0.0191(5)
H5 H 0.0803 1.0317 0.0077
C8 C 0.1632(6) 0.9991(5) 0.1011(5)
H6 H 0.0970 1.0199 0.1457
C9 C 0.2703(5) 0.9608(4) 0.1205(4)
C10 C 0.3676(5) 0.9293(5) 0.0528(4)
C11 C 0.3688(5) 0.7865(4) 0.4094(4)
C12 C 0.3849(6) 0.7077(5) 0.3821(5)
H7 H 0.4166 0.7110 0.3192
C13 C 0.3546(6) 0.6259(5) 0.4470(6)
C14 C 0.3077(6) 0.6203(5) 0.5375(5)
H8 H 0.2861 0.5637 0.5812
C15 C 0.2913(6) 0.6971(4) 0.5663(5)
C16 C 0.3218(5) 0.7802(4) 0.5019(4)
H9 H 0.3105 0.8328 0.5211
C17 C 0.3735(9) 0.5417(6) 0.4177(7)
F1 F 0.3912(9) 0.4617(4) 0.4819(6)
F2 F 0.4613(9) 0.5348(5) 0.3492(6)
F3 F 0.2866(8) 0.5394(6) 0.4003(8)
C18 C 0.2428(6) 0.6887(5) 0.6656(5)
F4 F 0.2168(5) 0.7689(3) 0.6828(3)
F5 F 0.1460(4) 0.6546(4) 0.7045(4)
F6 F 0.3145(5) 0.6316(4) 0.7125(3)
C19 C 0.5580(5) 0.8846(4) 0.3143(4)
C20 C 0.5948(5) 0.9625(4) 0.3042(4)
H10 H 0.5410 1.0200 0.3038
C21 C 0.7100(5) 0.9581(4) 0.2945(4)
C22 C 0.7889(5) 0.8755(5) 0.2930(5)
H11 H 0.8678 0.8720 0.2856
C23 C 0.7518(6) 0.7975(5) 0.3024(5)
C24 C 0.6375(5) 0.8007(5) 0.3127(5)
H12 H 0.6136 0.7467 0.3185
C25 C 0.7456(6) 1.0424(5) 0.2885(5)
F7 F 0.6901(4) 1.1214(3) 0.2421(3)
F8 F 0.7245(4) 1.0501(3) 0.3698(3)
F9 F 0.8575(4) 1.0416(4) 0.2472(4)
C26 C 0.8357(7) 0.7050(7) 0.3040(7)
F10 F 0.8659(7) 0.6680(5) 0.3791(7)
F11 F 0.8013(7) 0.6438(5) 0.2969(9)
F12 F 0.9333(7) 0.7154(6) 0.2447(8)
O2 O 0.3685(3) 1.1192(3) 0.1613(3)
P2 P 0.24626(13) 1.15928(11) 0.19911(10)
C27 C 0.1521(5) 1.0770(4) 0.2754(4)
C28 C 0.1783(5) 0.9859(4) 0.2739(4)
C29 C 0.0473(5) 1.1083(4) 0.3397(4)
H13 H 0.0284 1.1711 0.3409
C30 C -0.0247(5) 1.0483(5) 0.3984(4)
H14 H -0.0938 1.0704 0.4401
C31 C -0.0756(6) 0.8926(5) 0.4624(5)
H15 H -0.1449 0.9136 0.5047
C32 C -0.0480(6) 0.8018(6) 0.4620(5)
H16 H -0.0973 0.7598 0.5056
C33 C 0.0512(6) 0.7696(5) 0.3990(5)
H17 H 0.0683 0.7065 0.3988
C34 C 0.1233(6) 0.8292(5) 0.3377(4)
H18 H 0.1904 0.8071 0.2945
C35 C 0.1010(5) 0.9228(4) 0.3368(4)
C36 C -0.0012(5) 0.9556(5) 0.3999(4)
C37 C 0.1822(6) 1.2343(4) 0.1080(4)
C38 C 0.0692(6) 1.2388(6) 0.1111(5)
H19 H 0.0197 1.2035 0.1644
C39 C 0.0297(7) 1.2947(7) 0.0367(5)
C40 C 0.0996(8) 1.3460(6) -0.0391(6)
H20 H 0.0711 1.3851 -0.0895
C41 C 0.2119(7) 1.3421(5) -0.0438(5)
C42 C 0.2532(6) 1.2869(5) 0.0293(5)
H21 H 0.3301 1.2847 0.0263
C43 C -0.0897(10) 1.2944(11) 0.0410(7)
F13 F -0.1617(6) 1.2856(10) 0.1149(6)
F14 F -0.1280(8) 1.3629(11) -0.0167(8)
F15 F -0.0907(9) 1.2245(13) 0.0181(15)
C44 C 0.2950(9) 1.3966(6) -0.1336(7)
F16 F 0.2402(7) 1.4509(5) -0.1911(4)
F17 F 0.3387(7) 1.4471(5) -0.1144(5)
F18 F 0.3778(8) 1.3400(5) -0.1710(5)
C45 C 0.2340(5) 1.2355(4) 0.2628(4)
C46 C 0.3100(5) 1.2059(4) 0.3148(4)
H22 H 0.3587 1.1457 0.3207
C47 C 0.3149(5) 1.2639(4) 0.3584(4)
C48 C 0.2412(6) 1.3501(5) 0.3521(5)
H23 H 0.2435 1.3896 0.3824
C49 C 0.1647(6) 1.3786(4) 0.3022(5)
C50 C 0.1613(5) 1.3226(4) 0.2578(5)
H24 H 0.1083 1.3435 0.2231
C51 C 0.3950(7) 1.2324(6) 0.4130(5)
F19 F 0.3824(9) 1.2780(6) 0.4629(7)
F20 F 0.4984(6) 1.2239(11) 0.3679(6)
F21 F 0.3949(12) 1.1499(6) 0.4672(9)
C52 C 0.0802(9) 1.4704(6) 0.2994(8)
F22 F 0.1101(7) 1.5290(4) 0.3162(8)
F23 F 0.0525(11) 1.5091(6) 0.2266(7)
F24 F -0.0192(7) 1.4601(5) 0.3589(9)
O3 O 0.4562(11) 0.6774(10) 0.0116(9)
C53 C 0.315(2) 0.6890(18) 0.1502(19)
H25 H 0.2742 0.6438 0.2040
H26 H 0.2587 0.7461 0.1324
H27 H 0.3730 0.7042 0.1649
C54 C 0.365(2) 0.653(2) 0.083(2)
H28 H 0.3036 0.6606 0.0563
H29 H 0.3876 0.5849 0.1113
C55 C 0.447(3) 0.693(3) -0.073(2)
H30 H 0.3627 0.7087 -0.0665
H31 H 0.4774 0.7505 -0.1138
C56 C 0.490(2) 0.6354(19) -0.1169(14)
H32 H 0.5097 0.6686 -0.1827
H33 H 0.4346 0.5961 -0.1010
H34 H 0.5607 0.5960 -0.1014
loop_
_geom_bond_atom_site_label_1
_geom_bond_atom_site_label_2
_geom_bond_site_symmetry_1
_geom_bond_site_symmetry_2
P1 O1 1_555 1_555
C1 C2 1_555 1_555
C2 P1 1_555 1_555
C3 C2 1_555 1_555
H1 C3 1_555 1_555
C4 C3 1_555 1_555
H2 C4 1_555 1_555
C5 H3 1_555 1_555
C6 C5 1_555 1_555
H4 C6 1_555 1_555
C7 C6 1_555 1_555
H5 C7 1_555 1_555
C8 C7 1_555 1_555
H6 C8 1_555 1_555
C9 C1 1_555 1_555
C10 C4 1_555 1_555
C11 P1 1_555 1_555
C12 C11 1_555 1_555
H7 C12 1_555 1_555
C13 C12 1_555 1_555
C14 C13 1_555 1_555
H8 C14 1_555 1_555
C15 C14 1_555 1_555
C16 C11 1_555 1_555
H9 C16 1_555 1_555
C17 C13 1_555 1_555
F1 C17 1_555 1_555
F2 C17 1_555 1_555
F3 C17 1_555 1_555
C18 C15 1_555 1_555
F4 C18 1_555 1_555
F5 C18 1_555 1_555
F6 C18 1_555 1_555
C19 P1 1_555 1_555
C20 C19 1_555 1_555
H10 C20 1_555 1_555
C21 C20 1_555 1_555
C22 C21 1_555 1_555
H11 C22 1_555 1_555
C23 C22 1_555 1_555
C24 C19 1_555 1_555
H12 C24 1_555 1_555
C25 C21 1_555 1_555
F7 C25 1_555 1_555
F8 C25 1_555 1_555
F9 C25 1_555 1_555
C26 C23 1_555 1_555
F10 C26 1_555 1_555
F11 C26 1_555 1_555
F12 C26 1_555 1_555
O2 P2 1_555 1_555
P2 C27 1_555 1_555
C27 C28 1_555 1_555
C28 C1 1_555 1_555
C29 C27 1_555 1_555
H13 C29 1_555 1_555
C30 C29 1_555 1_555
H14 C30 1_555 1_555
C31 H15 1_555 1_555
C32 C31 1_555 1_555
H16 C32 1_555 1_555
C33 C32 1_555 1_555
H17 C33 1_555 1_555
C34 C33 1_555 1_555
H18 C34 1_555 1_555
C35 C28 1_555 1_555
C36 C30 1_555 1_555
C37 P2 1_555 1_555
C38 C37 1_555 1_555
H19 C38 1_555 1_555
C39 C38 1_555 1_555
C40 C39 1_555 1_555
H20 C40 1_555 1_555
C41 C40 1_555 1_555
C42 C37 1_555 1_555
H21 C42 1_555 1_555
C43 C39 1_555 1_555
F13 C43 1_555 1_555
F14 C43 1_555 1_555
F15 C43 1_555 1_555
C44 C41 1_555 1_555
F16 C44 1_555 1_555
F17 C44 1_555 1_555
F18 C44 1_555 1_555
C45 P2 1_555 1_555
C46 C45 1_555 1_555
H22 C46 1_555 1_555
C47 C46 1_555 1_555
C48 C47 1_555 1_555
H23 C48 1_555 1_555
C49 C48 1_555 1_555
C50 C45 1_555 1_555
H24 C50 1_555 1_555
C51 C47 1_555 1_555
F19 C51 1_555 1_555
F20 C51 1_555 1_555
F21 C51 1_555 1_555
C52 C49 1_555 1_555
F22 C52 1_555 1_555
F23 C52 1_555 1_555
F24 C52 1_555 1_555
O3 C54 1_555 1_555
C53 H25 1_555 1_555
H26 C53 1_555 1_555
H27 C53 1_555 1_555
C54 C53 1_555 1_555
H28 C54 1_555 1_555
H29 C54 1_555 1_555
C55 O3 1_555 1_555
H30 C55 1_555 1_555
H31 C55 1_555 1_555
C56 C55 1_555 1_555
H32 C56 1_555 1_555
H33 C56 1_555 1_555
H34 C56 1_555 1_555
C5 C10 1_555 1_555
C8 C9 1_555 1_555
C9 C10 1_555 1_555
C15 C16 1_555 1_555
C23 C24 1_555 1_555
C31 C36 1_555 1_555
C34 C35 1_555 1_555
C35 C36 1_555 1_555
C41 C42 1_555 1_555
C49 C50 1_555 1_555

#END
