
#######################################################################
#
#                 Cambridge Crystallographic Data Centre
#                                CCDC 
#
#######################################################################
#
# If this CIF has been generated from an entry in the Cambridge 
# Structural Database, then it will include bibliographic, chemical, 
# crystal, experimental, refinement or atomic coordinate data resulting 
# from the CCDC's data processing and validation procedures.
#
#######################################################################

data_FAVBAG
_chemical_formula_moiety         'C48 H28 F12 P2'
_chemical_name_systematic        
2,2'-bis(bis(4-trifluoromethylphenyl)phosphino)-1,1'-binaphthyl
_symmetry_cell_setting           monoclinic
_symmetry_space_group_name_H-M   'C 2/c'
_symmetry_Int_Tables_number      15
_space_group_name_Hall           '-C 2yn'
loop_
_symmetry_equiv_pos_site_id
_symmetry_equiv_pos_as_xyz
1 x,y,z
2 1/2+x,1/2+y,z
3 -x,y,1/2-z
4 1/2-x,1/2+y,1/2-z
5 -x,-y,-z
6 1/2-x,1/2-y,-z
7 x,-y,1/2+z
8 1/2+x,1/2-y,1/2+z
_cell_length_a                   28.4224(6)
_cell_length_b                   8.0575(2)
_cell_length_c                   18.7865(6)
_cell_angle_alpha                90
_cell_angle_beta                 110.0500(10)
_cell_angle_gamma                90
_cell_volume                     4041.61
_exptl_crystal_colour            colorless
_cell_formula_units_Z            4
loop_
_atom_site_label
_atom_site_type_symbol
_atom_site_fract_x
_atom_site_fract_y
_atom_site_fract_z
P1 P 0.43134(3) 0.17936(9) 0.22173(4)
C1 C 0.49120(10) -0.0806(3) 0.20735(14)
C2 C 0.45455(10) 0.0314(3) 0.16683(15)
C3 C 0.43976(11) 0.0335(4) 0.08670(15)
H1 H 0.4144 0.1086 0.0587
C4 C 0.46113(11) -0.0702(4) 0.04889(16)
H2 H 0.4508 -0.0645 -0.0048
C5 C 0.52147(12) -0.2942(4) 0.05112(17)
H3 H 0.5119 -0.2903 -0.0025
C6 C 0.55724(12) -0.4043(4) 0.09114(18)
H4 H 0.5725 -0.4756 0.0651
C7 C 0.57170(12) -0.4131(4) 0.17049(18)
H5 H 0.5967 -0.4902 0.1978
C8 C 0.54995(11) -0.3109(3) 0.20858(16)
H6 H 0.5597 -0.3190 0.2621
C9 C 0.51318(10) -0.1935(3) 0.16934(15)
C10 C 0.49846(11) -0.1860(3) 0.08845(16)
C11 C 0.39349(11) 0.3201(3) 0.14718(16)
C12 C 0.34157(12) 0.3254(4) 0.11926(19)
H7 H 0.3229 0.2501 0.1381
C13 C 0.31661(12) 0.4403(4) 0.0639(2)
H8 H 0.2810 0.4423 0.0448
C14 C 0.34326(11) 0.5508(4) 0.03677(16)
C15 C 0.39517(12) 0.5489(4) 0.06557(17)
H9 H 0.4137 0.6261 0.0474
C16 C 0.41999(11) 0.4352(4) 0.12050(17)
H10 H 0.4556 0.4355 0.1404
C17 C 0.31798(14) 0.6741(4) -0.02321(19)
F1 F 0.26987(9) 0.6402(3) -0.05943(13)
F2 F 0.33898(10) 0.6841(3) -0.07650(12)
F3 F 0.31980(10) 0.8289(3) 0.00382(13)
C18 C 0.38466(10) 0.0527(3) 0.24406(16)
C19 C 0.38224(12) 0.0688(4) 0.31634(17)
H11 H 0.4029 0.1481 0.3502
C20 C 0.35029(14) -0.0286(4) 0.3398(2)
H12 H 0.3492 -0.0169 0.3896
C21 C 0.31987(12) -0.1435(4) 0.2904(2)
C22 C 0.32131(12) -0.1607(4) 0.2183(2)
H13 H 0.3002 -0.2390 0.1844
C23 C 0.35369(11) -0.0635(4) 0.19511(17)
H14 H 0.3548 -0.0763 0.1454
C24 C 0.28568(18) -0.2521(6) 0.3148(3)
F4 F 0.2955(2) -0.4081(5) 0.3130(4)
F5 F 0.2853(2) -0.2265(8) 0.3801(2)
F6 F 0.24008(14) -0.2503(7) 0.2713(3)
P1B P 0.56866(3) 0.17936(9) 0.27827(4)
C1B C 0.50880(10) -0.0806(3) 0.29265(14)
C2B C 0.54545(10) 0.0314(3) 0.33317(15)
C3B C 0.56024(11) 0.0335(4) 0.41330(15)
H1B H 0.5856 0.1086 0.4413
C4B C 0.53887(11) -0.0702(4) 0.45111(16)
H2B H 0.5492 -0.0645 0.5048
C5B C 0.47853(12) -0.2942(4) 0.44888(17)
H3B H 0.4881 -0.2903 0.5025
C6B C 0.44276(12) -0.4043(4) 0.40886(18)
H4B H 0.4275 -0.4756 0.4349
C7B C 0.42830(12) -0.4131(4) 0.32951(18)
H5B H 0.4033 -0.4902 0.3022
C8B C 0.45005(11) -0.3109(3) 0.29142(16)
H6B H 0.4403 -0.3190 0.2379
C9B C 0.48682(10) -0.1935(3) 0.33066(15)
C10B C 0.50154(11) -0.1860(3) 0.41155(16)
C11B C 0.60651(11) 0.3201(3) 0.35282(16)
C12B C 0.65843(12) 0.3254(4) 0.38074(19)
H7B H 0.6771 0.2501 0.3619
C13B C 0.68339(12) 0.4403(4) 0.4361(2)
H8B H 0.7190 0.4423 0.4552
C14B C 0.65674(11) 0.5508(4) 0.46323(16)
C15B C 0.60483(12) 0.5489(4) 0.43443(17)
H9B H 0.5863 0.6261 0.4526
C16B C 0.58001(11) 0.4352(4) 0.37950(17)
H10B H 0.5444 0.4355 0.3596
C17B C 0.68202(14) 0.6741(4) 0.52321(19)
F1B F 0.73013(9) 0.6402(3) 0.55943(13)
F2B F 0.66102(10) 0.6841(3) 0.57650(12)
F3B F 0.68020(10) 0.8289(3) 0.49618(13)
C18B C 0.61534(10) 0.0527(3) 0.25594(16)
C19B C 0.61776(12) 0.0688(4) 0.18366(17)
H11B H 0.5971 0.1481 0.1498
C20B C 0.64971(14) -0.0286(4) 0.1602(2)
H12B H 0.6508 -0.0169 0.1104
C21B C 0.68013(12) -0.1435(4) 0.2096(2)
C22B C 0.67869(12) -0.1607(4) 0.2817(2)
H13B H 0.6998 -0.2390 0.3156
C23B C 0.64631(11) -0.0635(4) 0.30489(17)
H14B H 0.6452 -0.0763 0.3546
C24B C 0.71432(18) -0.2521(6) 0.1852(3)
F4B F 0.7045(2) -0.4081(5) 0.1870(4)
F5B F 0.7147(2) -0.2265(8) 0.1199(2)
F6B F 0.75992(14) -0.2503(7) 0.2287(3)
loop_
_geom_bond_atom_site_label_1
_geom_bond_atom_site_label_2
_geom_bond_site_symmetry_1
_geom_bond_site_symmetry_2
P1 C2 1_555 1_555
C1 C2 1_555 1_555
C2 C3 1_555 1_555
C3 H1 1_555 1_555
C4 C3 1_555 1_555
H2 C4 1_555 1_555
C5 H3 1_555 1_555
C6 C5 1_555 1_555
H4 C6 1_555 1_555
C7 C6 1_555 1_555
H5 C7 1_555 1_555
C8 C7 1_555 1_555
H6 C8 1_555 1_555
C9 C1 1_555 1_555
C10 C4 1_555 1_555
C11 P1 1_555 1_555
C12 C11 1_555 1_555
H7 C12 1_555 1_555
C13 C12 1_555 1_555
H8 C13 1_555 1_555
C14 C13 1_555 1_555
C15 C14 1_555 1_555
H9 C15 1_555 1_555
C16 C11 1_555 1_555
H10 C16 1_555 1_555
C17 C14 1_555 1_555
F1 C17 1_555 1_555
F2 C17 1_555 1_555
F3 C17 1_555 1_555
C18 P1 1_555 1_555
C19 C18 1_555 1_555
H11 C19 1_555 1_555
C20 C19 1_555 1_555
H12 C20 1_555 1_555
C21 C20 1_555 1_555
C22 C21 1_555 1_555
H13 C22 1_555 1_555
C23 C18 1_555 1_555
H14 C23 1_555 1_555
C24 C21 1_555 1_555
F4 C24 1_555 1_555
F5 C24 1_555 1_555
F6 C24 1_555 1_555
P1B C2B 1_555 1_555
C1B C1 1_555 1_555
C2B C1B 1_555 1_555
C3B C2B 1_555 1_555
H1B C3B 1_555 1_555
C4B C3B 1_555 1_555
H2B C4B 1_555 1_555
C5B H3B 1_555 1_555
C6B C5B 1_555 1_555
H4B C6B 1_555 1_555
C7B C6B 1_555 1_555
H5B C7B 1_555 1_555
C8B C7B 1_555 1_555
H6B C8B 1_555 1_555
C9B C1B 1_555 1_555
C10B C4B 1_555 1_555
C11B P1B 1_555 1_555
C12B C11B 1_555 1_555
H7B C12B 1_555 1_555
C13B C12B 1_555 1_555
H8B C13B 1_555 1_555
C14B C13B 1_555 1_555
C15B C14B 1_555 1_555
H9B C15B 1_555 1_555
C16B C11B 1_555 1_555
H10B C16B 1_555 1_555
C17B C14B 1_555 1_555
F1B C17B 1_555 1_555
F2B C17B 1_555 1_555
F3B C17B 1_555 1_555
C18B P1B 1_555 1_555
C19B C18B 1_555 1_555
H11B C19B 1_555 1_555
C20B C19B 1_555 1_555
H12B C20B 1_555 1_555
C21B C20B 1_555 1_555
C22B C21B 1_555 1_555
H13B C22B 1_555 1_555
C23B C18B 1_555 1_555
H14B C23B 1_555 1_555
C24B C21B 1_555 1_555
F4B C24B 1_555 1_555
F5B C24B 1_555 1_555
F6B C24B 1_555 1_555
C5 C10 1_555 1_555
C8 C9 1_555 1_555
C9 C10 1_555 1_555
C15 C16 1_555 1_555
C22 C23 1_555 1_555
C5B C10B 1_555 1_555
C8B C9B 1_555 1_555
C9B C10B 1_555 1_555
C15B C16B 1_555 1_555
C22B C23B 1_555 1_555

#END
