
#######################################################################
#
#                 Cambridge Crystallographic Data Centre
#                                CCDC 
#
#######################################################################
#
# If this CIF has been generated from an entry in the Cambridge 
# Structural Database, then it will include bibliographic, chemical, 
# crystal, experimental, refinement or atomic coordinate data resulting 
# from the CCDC's data processing and validation procedures.
#
#######################################################################

data_FAVCUC
_chemical_formula_moiety         'C14 H14 N4 O2'
_chemical_name_systematic        
'(E)-2-Aminoacetophenone 3-nitrophenylhydrazone'
_symmetry_cell_setting           monoclinic
_symmetry_space_group_name_H-M   'P 21/n'
_symmetry_Int_Tables_number      14
_space_group_name_Hall           '-P 2yn'
loop_
_symmetry_equiv_pos_site_id
_symmetry_equiv_pos_as_xyz
1 x,y,z
2 1/2-x,1/2+y,1/2-z
3 -x,-y,-z
4 1/2+x,1/2-y,1/2+z
_cell_length_a                   14.91(2)
_cell_length_b                   3.898(6)
_cell_length_c                   22.89(4)
_cell_angle_alpha                90
_cell_angle_beta                 105.906(15)
_cell_angle_gamma                90
_cell_volume                     1279.41
_exptl_crystal_colour            orange
_exptl_crystal_description       lath
_cell_formula_units_Z            4
loop_
_atom_site_label
_atom_site_type_symbol
_atom_site_fract_x
_atom_site_fract_y
_atom_site_fract_z
O1 O 0.2866(2) 0.6470(9) 0.36498(12)
O2 O 0.4121(2) 0.9088(9) 0.41508(11)
N1 N 0.4369(3) 0.5428(9) 0.68588(13)
N2 N 0.4534(3) 0.6296(9) 0.63145(12)
H1 H 0.5064 0.7245 0.6303
N3 N 0.3303(3) 0.2434(10) 0.74806(15)
H2 H 0.346(3) 0.254(11) 0.715(2)
H3 H 0.294(3) 0.048(11) 0.7553(18)
N4 N 0.3437(3) 0.7272(11) 0.41285(14)
C1 C 0.4819(3) 0.5249(11) 0.79389(15)
C2 C 0.4006(3) 0.3499(11) 0.79819(16)
C3 C 0.3884(3) 0.2868(12) 0.85590(16)
H4 H 0.3336 0.1713 0.8588
C4 C 0.4525(3) 0.3860(12) 0.90806(17)
H5 H 0.4422 0.3390 0.9464
C5 C 0.5322(3) 0.5541(12) 0.90495(16)
H6 H 0.5769 0.6246 0.9411
C6 C 0.5469(3) 0.6202(11) 0.84886(16)
H7 H 0.6026 0.7335 0.8473
C7 C 0.5024(3) 0.6081(11) 0.73541(16)
C8 C 0.5938(3) 0.7582(13) 0.73465(17)
H8 H 0.6160 0.6478 0.7027
H9 H 0.6392 0.7205 0.7741
H10 H 0.5866 1.0050 0.7266
C9 C 0.3837(3) 0.5627(11) 0.57831(16)
C10 C 0.3979(3) 0.6686(11) 0.52310(16)
H11 H 0.4537 0.7824 0.5221
C11 C 0.3292(3) 0.6043(11) 0.47046(15)
C12 C 0.2466(3) 0.4373(12) 0.46822(17)
H12 H 0.2009 0.3952 0.4309
C13 C 0.2339(3) 0.3341(12) 0.52373(17)
H13 H 0.1778 0.2209 0.5245
C14 C 0.3016(3) 0.3931(11) 0.57786(16)
H14 H 0.2918 0.3168 0.6150
loop_
_geom_bond_atom_site_label_1
_geom_bond_atom_site_label_2
_geom_bond_site_symmetry_1
_geom_bond_site_symmetry_2
O1 N4 1_555 1_555
O2 N4 1_555 1_555
N1 N2 1_555 1_555
N2 H1 1_555 1_555
N3 H2 1_555 1_555
H3 N3 1_555 1_555
N4 C11 1_555 1_555
C1 C2 1_555 1_555
C2 N3 1_555 1_555
C3 C2 1_555 1_555
H4 C3 1_555 1_555
C4 C3 1_555 1_555
H5 C4 1_555 1_555
C5 C4 1_555 1_555
H6 C5 1_555 1_555
C6 C1 1_555 1_555
H7 C6 1_555 1_555
C7 N1 1_555 1_555
C8 C7 1_555 1_555
H8 C8 1_555 1_555
H9 C8 1_555 1_555
H10 C8 1_555 1_555
C9 N2 1_555 1_555
C10 C9 1_555 1_555
H11 C10 1_555 1_555
C11 C10 1_555 1_555
C12 C11 1_555 1_555
H12 C12 1_555 1_555
C13 C12 1_555 1_555
H13 C13 1_555 1_555
C14 C9 1_555 1_555
H14 C14 1_555 1_555
C1 C7 1_555 1_555
C5 C6 1_555 1_555
C13 C14 1_555 1_555

#END
