
#######################################################################
#
#                 Cambridge Crystallographic Data Centre
#                                CCDC 
#
#######################################################################
#
# If this CIF has been generated from an entry in the Cambridge 
# Structural Database, then it will include bibliographic, chemical, 
# crystal, experimental, refinement or atomic coordinate data resulting 
# from the CCDC's data processing and validation procedures.
#
#######################################################################

data_FAVDEN
_chemical_formula_moiety         'C14 H15 N4 O2 1+,Cl1 1-'
_chemical_name_systematic        
'(E)-2-Aminoacetophenone 3-nitrophenylhydrazone hydrochloride'
_symmetry_cell_setting           monoclinic
_symmetry_space_group_name_H-M   'C 2/c'
_symmetry_Int_Tables_number      15
_space_group_name_Hall           '-C 2yn'
loop_
_symmetry_equiv_pos_site_id
_symmetry_equiv_pos_as_xyz
1 x,y,z
2 -x,y,1/2-z
3 1/2+x,1/2+y,z
4 1/2-x,1/2+y,1/2-z
5 -x,-y,-z
6 x,-y,1/2+z
7 1/2-x,1/2-y,-z
8 1/2+x,1/2-y,1/2+z
_cell_length_a                   18.3030(4)
_cell_length_b                   10.4042(3)
_cell_length_c                   16.4597(3)
_cell_angle_alpha                90
_cell_angle_beta                 114.9980(10)
_cell_angle_gamma                90
_cell_volume                     2840.77
_exptl_crystal_colour            orange
_exptl_crystal_description       rhomb
_cell_formula_units_Z            8
loop_
_atom_site_label
_atom_site_type_symbol
_atom_site_fract_x
_atom_site_fract_y
_atom_site_fract_z
Cl1 Cl 0.59901(2) 0.76416(4) 0.69742(2)
O1 O 0.38495(7) 0.56233(11) 0.19230(7)
O2 O 0.33165(9) 0.74965(13) 0.14793(9)
N1 N 0.59586(7) 0.49483(12) 0.49404(8)
N2 N 0.58529(8) 0.62010(12) 0.51030(9)
H1 H 0.6128 0.6530 0.5639
N3 N 0.58248(8) 0.31423(12) 0.37296(8)
H2 H 0.5976 0.2964 0.3281
H3 H 0.5902 0.3993 0.3868
H4 H 0.5294 0.2944 0.3547
N4 N 0.37867(8) 0.67776(13) 0.20502(9)
C1 C 0.66133(9) 0.29237(15) 0.53849(10)
C2 C 0.63114(9) 0.23770(14) 0.45232(10)
C3 C 0.64483(10) 0.11104(15) 0.43741(11)
H5 H 0.6240 0.0784 0.3780
C4 C 0.68903(10) 0.03160(15) 0.50923(11)
H6 H 0.6994 -0.0552 0.4995
C5 C 0.71765(9) 0.08087(16) 0.59514(11)
H7 H 0.7465 0.0267 0.6449
C6 C 0.70472(9) 0.20837(16) 0.60950(10)
H8 H 0.7258 0.2400 0.6692
C7 C 0.65125(9) 0.42908(14) 0.55748(9)
C8 C 0.70472(9) 0.48853(16) 0.64648(10)
H9 H 0.7275 0.5690 0.6364
H10 H 0.7485 0.4290 0.6804
H11 H 0.6729 0.5062 0.6805
C9 C 0.53110(9) 0.69565(15) 0.44209(10)
C10 C 0.47960(9) 0.64581(14) 0.35881(10)
H12 H 0.4779 0.5562 0.3471
C11 C 0.43095(9) 0.73095(15) 0.29353(10)
C12 C 0.42932(10) 0.86234(15) 0.30671(11)
H13 H 0.3952 0.9177 0.2603
C13 C 0.47967(10) 0.90948(15) 0.39063(11)
H14 H 0.4797 0.9989 0.4024
C14 C 0.52995(10) 0.82830(15) 0.45759(10)
H15 H 0.5640 0.8626 0.5146
loop_
_geom_bond_atom_site_label_1
_geom_bond_atom_site_label_2
_geom_bond_site_symmetry_1
_geom_bond_site_symmetry_2
O1 N4 1_555 1_555
O2 N4 1_555 1_555
N1 N2 1_555 1_555
N2 H1 1_555 1_555
N3 H2 1_555 1_555
H3 N3 1_555 1_555
H4 N3 1_555 1_555
N4 C11 1_555 1_555
C1 C2 1_555 1_555
C2 N3 1_555 1_555
C3 C2 1_555 1_555
H5 C3 1_555 1_555
C4 C3 1_555 1_555
H6 C4 1_555 1_555
C5 C4 1_555 1_555
H7 C5 1_555 1_555
C6 C1 1_555 1_555
H8 C6 1_555 1_555
C7 N1 1_555 1_555
C8 C7 1_555 1_555
H9 C8 1_555 1_555
H10 C8 1_555 1_555
H11 C8 1_555 1_555
C9 N2 1_555 1_555
C10 C9 1_555 1_555
H12 C10 1_555 1_555
C11 C10 1_555 1_555
C12 C11 1_555 1_555
H13 C12 1_555 1_555
C13 C12 1_555 1_555
H14 C13 1_555 1_555
C14 C9 1_555 1_555
H15 C14 1_555 1_555
C1 C7 1_555 1_555
C5 C6 1_555 1_555
C13 C14 1_555 1_555

#END
