
#######################################################################
#
#                 Cambridge Crystallographic Data Centre
#                                CCDC 
#
#######################################################################
#
# If this CIF has been generated from an entry in the Cambridge 
# Structural Database, then it will include bibliographic, chemical, 
# crystal, experimental, refinement or atomic coordinate data resulting 
# from the CCDC's data processing and validation procedures.
#
#######################################################################

data_FAVFAL
_chemical_formula_moiety         'C10 H18 O4,C7 H8 N4'
_chemical_name_systematic        
"Decane-1,10-dioic acid 1,1'-methylenebis(1H-imidazole)"
_symmetry_cell_setting           monoclinic
_symmetry_space_group_name_H-M   'P 21/c'
_symmetry_Int_Tables_number      14
_space_group_name_Hall           '-P 2ybc'
loop_
_symmetry_equiv_pos_site_id
_symmetry_equiv_pos_as_xyz
1 x,y,z
2 -x,1/2+y,1/2-z
3 -x,-y,-z
4 x,1/2-y,1/2+z
_cell_length_a                   16.9630(16)
_cell_length_b                   9.7600(9)
_cell_length_c                   12.5234(11)
_cell_angle_alpha                90
_cell_angle_beta                 111.2700(10)
_cell_angle_gamma                90
_cell_volume                     1932.13
_exptl_crystal_colour            colorless
_exptl_crystal_description       block
_cell_formula_units_Z            4
loop_
_atom_site_label
_atom_site_type_symbol
_atom_site_fract_x
_atom_site_fract_y
_atom_site_fract_z
N1 N 0.9006(2) 0.2861(3) 0.5895(3)
N2 N 1.0011(2) 0.3223(4) 0.7556(3)
N3 N 0.8333(2) 0.3210(3) 0.3876(3)
N4 N 0.7547(2) 0.4239(4) 0.2296(3)
C1 C 0.8562(3) 0.2224(4) 0.4805(3)
H3 H 0.8054 0.1786 0.4824
H4 H 0.8918 0.1521 0.4667
C2 C 0.9798(3) 0.2558(4) 0.6594(4)
H5 H 1.0151 0.1947 0.6411
C3 C 0.9321(4) 0.3980(4) 0.7474(4)
H6 H 0.9288 0.4568 0.8041
C4 C 0.8697(3) 0.3766(5) 0.6472(4)
H7 H 0.8160 0.4156 0.6218
C5 C 0.7552(3) 0.3375(5) 0.3092(4)
H8 H 0.7074 0.2928 0.3114
C6 C 0.8363(3) 0.4637(5) 0.2586(4)
H9 H 0.8553 0.5261 0.2171
C7 C 0.8860(3) 0.4018(5) 0.3545(4)
H10 H 0.9442 0.4117 0.3910
O1 O 0.14159(19) 0.2635(3) -0.0716(3)
H1 H 0.0959 0.2845 -0.1204
O2 O 0.09660(19) 0.3989(3) 0.0343(2)
O3 O 0.6266(5) 0.4916(8) 1.0410(7)
H2 H 0.6705 0.4676 1.0921
O4 O 0.6553(4) 0.3084(11) 0.9505(5)
C8 C 0.1505(3) 0.3252(4) 0.0243(3)
C9 C 0.2321(3) 0.2939(4) 0.1180(3)
H11 H 0.2776 0.3137 0.0908
H12 H 0.2338 0.1965 0.1339
C10 C 0.2489(2) 0.3699(4) 0.2282(3)
H13 H 0.2022 0.3541 0.2540
H14 H 0.2508 0.4673 0.2139
C11 C 0.3302(3) 0.3289(4) 0.3223(3)
H15 H 0.3766 0.3445 0.2960
H16 H 0.3281 0.2314 0.3362
C12 C 0.3486(2) 0.4040(4) 0.4340(3)
H17 H 0.3005 0.3933 0.4579
H18 H 0.3543 0.5009 0.4212
C13 C 0.4272(2) 0.3564(4) 0.5302(3)
H19 H 0.4224 0.2587 0.5408
H20 H 0.4755 0.3705 0.5074
C14 C 0.4442(2) 0.4268(4) 0.6429(3)
H21 H 0.3954 0.4139 0.6650
H22 H 0.4498 0.5243 0.6325
C15 C 0.5218(2) 0.3783(4) 0.7398(3)
H23 H 0.5174 0.2803 0.7492
H24 H 0.5711 0.3945 0.7196
C16 C 0.5345(3) 0.4479(4) 0.8516(3)
H25 H 0.5350 0.5461 0.8398
H26 H 0.4860 0.4276 0.8725
C17 C 0.6121(3) 0.4112(4) 0.9500(3)
H27? H 0.6575 0.4122 1.0925
O5? O 0.6121(16) 0.4357(19) 1.044(2)
O6? O 0.6727(14) 0.391(2) 0.9334(15)
loop_
_geom_bond_atom_site_label_1
_geom_bond_atom_site_label_2
_geom_bond_site_symmetry_1
_geom_bond_site_symmetry_2
N1 C1 1_555 1_555
N2 C2 1_555 1_555
N3 C1 1_555 1_555
N4 C5 1_555 1_555
O1 H1 1_555 1_555
O2 C8 1_555 1_555
O3 H2 1_555 1_555
O4 C17 1_555 1_555
C1 H3 1_555 1_555
H4 C1 1_555 1_555
C2 N1 1_555 1_555
H5 C2 1_555 1_555
C3 N2 1_555 1_555
H6 C3 1_555 1_555
C4 N1 1_555 1_555
H7 C4 1_555 1_555
C5 N3 1_555 1_555
H8 C5 1_555 1_555
C6 N4 1_555 1_555
H9 C6 1_555 1_555
C7 N3 1_555 1_555
H10 C7 1_555 1_555
C8 O1 1_555 1_555
C9 C8 1_555 1_555
H11 C9 1_555 1_555
H12 C9 1_555 1_555
C10 C9 1_555 1_555
H13 C10 1_555 1_555
H14 C10 1_555 1_555
C11 C10 1_555 1_555
H15 C11 1_555 1_555
H16 C11 1_555 1_555
C12 C11 1_555 1_555
H17 C12 1_555 1_555
H18 C12 1_555 1_555
C13 C12 1_555 1_555
H19 C13 1_555 1_555
H20 C13 1_555 1_555
C14 C13 1_555 1_555
H21 C14 1_555 1_555
H22 C14 1_555 1_555
C15 C14 1_555 1_555
H23 C15 1_555 1_555
H24 C15 1_555 1_555
C16 C15 1_555 1_555
H25 C16 1_555 1_555
H26 C16 1_555 1_555
C17 O3 1_555 1_555
C3 C4 1_555 1_555
C6 C7 1_555 1_555
C16 C17 1_555 1_555

#END
