
#######################################################################
#
#                 Cambridge Crystallographic Data Centre
#                                CCDC 
#
#######################################################################
#
# If this CIF has been generated from an entry in the Cambridge 
# Structural Database, then it will include bibliographic, chemical, 
# crystal, experimental, refinement or atomic coordinate data resulting 
# from the CCDC's data processing and validation procedures.
#
#######################################################################

data_FAVFIT
_chemical_formula_moiety         'C7 H8 N4,2(C7 H5 N1 O4)'
_chemical_name_systematic        
"1,1'-Methylenebis(1H-imidazole) bis(3-nitrobenzoic acid)"
_symmetry_cell_setting           orthorhombic
_symmetry_space_group_name_H-M   'P b a 2'
_symmetry_Int_Tables_number      32
_space_group_name_Hall           'P 2 -2ab'
loop_
_symmetry_equiv_pos_site_id
_symmetry_equiv_pos_as_xyz
1 x,y,z
2 -x,-y,z
3 1/2+x,1/2-y,z
4 1/2-x,1/2+y,z
_cell_length_a                   10.4322(8)
_cell_length_b                   25.612(2)
_cell_length_c                   4.1977(4)
_cell_angle_alpha                90
_cell_angle_beta                 90
_cell_angle_gamma                90
_cell_volume                     1121.58
_exptl_crystal_colour            colorless
_exptl_crystal_description       block
_cell_formula_units_Z            2
loop_
_atom_site_label
_atom_site_type_symbol
_atom_site_fract_x
_atom_site_fract_y
_atom_site_fract_z
N1 N -0.1160(2) 0.50160(8) -0.0070(7)
N2 N -0.2859(2) 0.47531(9) 0.2644(9)
C1 C -0.1867(3) 0.46047(12) 0.0905(9)
H2 H -0.1679 0.4259 0.0414
C2 C -0.2779(3) 0.52885(11) 0.2826(11)
H3 H -0.3349 0.5503 0.3921
C3 C -0.1738(3) 0.54561(12) 0.1156(10)
H4 H -0.1470 0.5800 0.0895
C4 C 0.0000 0.5000 -0.1948(13)
H5 H -0.0025 0.4694 -0.3312
N1A N 0.1160(2) 0.49840(8) -0.0070(7)
N2A N 0.2859(2) 0.52469(9) 0.2644(9)
C1A C 0.1867(3) 0.53953(12) 0.0905(9)
H2A H 0.1679 0.5741 0.0414
C2A C 0.2779(3) 0.47115(11) 0.2826(11)
H3A H 0.3349 0.4497 0.3921
C3A C 0.1738(3) 0.45439(12) 0.1156(10)
H4A H 0.1470 0.4200 0.0895
H5A H 0.0025 0.5306 -0.3312
N3 N 0.4878(3) 0.82909(11) 0.5874(10)
O1 O 0.44087(19) 0.59359(7) 0.5126(7)
H1 H 0.3925 0.5720 0.4323
O2 O 0.3003(2) 0.65089(8) 0.3066(9)
O3 O 0.4034(3) 0.83704(10) 0.3930(11)
O4 O 0.5414(3) 0.86440(10) 0.7251(11)
C5 C 0.3977(3) 0.64094(12) 0.4544(11)
C6 C 0.4812(3) 0.68357(11) 0.5970(9)
C7 C 0.4482(3) 0.73488(11) 0.5331(9)
H6 H 0.3766 0.7427 0.4099
C8 C 0.5238(3) 0.77422(12) 0.6563(10)
C9 C 0.6306(3) 0.76480(13) 0.8387(10)
H7 H 0.6797 0.7921 0.9191
C10 C 0.6628(3) 0.71320(14) 0.8988(11)
H8 H 0.7348 0.7058 1.0211
C11 C 0.5894(3) 0.67241(13) 0.7798(11)
H9 H 0.6122 0.6380 0.8216
loop_
_geom_bond_atom_site_label_1
_geom_bond_atom_site_label_2
_geom_bond_site_symmetry_1
_geom_bond_site_symmetry_2
N1 C1 1_555 1_555
N2 C1 1_555 1_555
N3 O3 1_555 1_555
O1 H1 1_555 1_555
O2 C5 1_555 1_555
O4 N3 1_555 1_555
C1 H2 1_555 1_555
C2 N2 1_555 1_555
H3 C2 1_555 1_555
C3 N1 1_555 1_555
H4 C3 1_555 1_555
C4 N1 1_555 1_555
H5 C4 1_555 1_555
C5 O1 1_555 1_555
C6 C5 1_555 1_555
C7 C6 1_555 1_555
H6 C7 1_555 1_555
C8 N3 1_555 1_555
C9 C8 1_555 1_555
H7 C9 1_555 1_555
C10 C9 1_555 1_555
H8 C10 1_555 1_555
C11 C6 1_555 1_555
H9 C11 1_555 1_555
N1A C4 1_555 1_555
N2A C1A 1_555 1_555
C1A N1A 1_555 1_555
H2A C1A 1_555 1_555
C2A N2A 1_555 1_555
H3A C2A 1_555 1_555
C3A N1A 1_555 1_555
H4A C3A 1_555 1_555
H5A C4 1_555 1_555
C2 C3 1_555 1_555
C7 C8 1_555 1_555
C10 C11 1_555 1_555
C2A C3A 1_555 1_555

#END
