
#######################################################################
#
#                 Cambridge Crystallographic Data Centre
#                                CCDC 
#
#######################################################################
#
# If this CIF has been generated from an entry in the Cambridge 
# Structural Database, then it will include bibliographic, chemical, 
# crystal, experimental, refinement or atomic coordinate data resulting 
# from the CCDC's data processing and validation procedures.
#
#######################################################################

data_FAVKOD
_chemical_formula_moiety         'C19 H20 N2 O5'
_chemical_name_systematic        
"4-(Diethyl isophthalate-5'-diazo)benzyl alcohol"
_symmetry_cell_setting           triclinic
_symmetry_space_group_name_H-M   'P -1'
_symmetry_Int_Tables_number      2
_space_group_name_Hall           '-P 1'
loop_
_symmetry_equiv_pos_site_id
_symmetry_equiv_pos_as_xyz
1 x,y,z
2 -x,-y,-z
_cell_length_a                   8.5874(17)
_cell_length_b                   10.003(2)
_cell_length_c                   11.353(2)
_cell_angle_alpha                71.29(3)
_cell_angle_beta                 77.39(3)
_cell_angle_gamma                79.50(3)
_cell_volume                     894.737
_exptl_crystal_colour            orange
_cell_formula_units_Z            2
_exptl_crystal_recrystallization_method dichloromethane/hexane
loop_
_atom_site_label
_atom_site_type_symbol
_atom_site_fract_x
_atom_site_fract_y
_atom_site_fract_z
N1 N 0.2989(4) 0.1868(3) 0.1024(3)
N2 N 0.2372(4) 0.1893(3) 0.2107(3)
C1 C 0.2579(4) 0.0716(4) 0.0685(3)
C2 C 0.2766(5) 0.3036(4) 0.2458(3)
C3 C 0.3206(4) 0.0662(4) -0.0521(3)
C4 C 0.2129(5) 0.3064(4) 0.3671(4)
C5 C 0.3692(5) 0.4080(4) 0.1669(4)
C6 C 0.1596(5) -0.0278(4) 0.1495(3)
C7 C 0.2867(4) -0.0385(4) -0.0940(3)
C8 C 0.3579(5) 0.6322(4) 0.3824(4)
C9 C 0.1258(4) -0.1346(4) 0.1089(3)
C10 C 0.3334(4) 0.5161(4) 0.3334(3)
C11 C 0.3959(5) 0.5133(4) 0.2111(4)
O1 O -0.0101(3) -0.3312(3) 0.1463(2)
O2 O -0.0370(4) -0.2366(3) 0.3042(3)
O3 O 0.3050(4) -0.1403(3) -0.2556(2)
C12 C 0.0180(5) -0.2385(4) 0.1974(4)
C13 C 0.3502(5) -0.0367(4) -0.2272(4)
O4 O 0.4351(4) 0.0476(3) -0.3014(3)
O5 O 0.4992(6) 0.6799(5) 0.3287(5)
C14 C 0.1895(4) -0.1395(4) -0.0134(3)
C15 C 0.2419(5) 0.4110(4) 0.4102(4)
C16 C -0.1417(6) -0.5230(5) 0.1499(4)
C17 C -0.1187(6) -0.4340(4) 0.2270(4)
C18 C 0.3461(6) -0.1433(6) -0.3868(4)
C19 C 0.2032(8) -0.0936(6) -0.4450(5)
H1 H 0.3861 0.1334 -0.1057
H2 H 0.1498 0.2370 0.4201
H3 H 0.4131 0.4069 0.0847
H4 H 0.1166 -0.0228 0.2307
H5 H 0.2723 0.7100 0.3652
H6 H 0.3529 0.5961 0.4731
H7 H 0.4570 0.5840 0.1577
H8 H 0.4947 0.7618 0.3305
H9 H 0.1670 -0.2106 -0.0414
H10 H 0.1991 0.4111 0.4928
H11 H -0.1843 -0.4629 0.0765
H12 H -0.2154 -0.5899 0.1995
H13 H -0.0403 -0.5735 0.1244
H14 H -0.2211 -0.3850 0.2558
H15 H -0.0727 -0.4933 0.3002
H16 H 0.4293 -0.0826 -0.4324
H17 H 0.3867 -0.2394 -0.3898
H18 H 0.1222 -0.1551 -0.4005
H19 H 0.2295 -0.0943 -0.5315
H20 H 0.1635 0.0014 -0.4415
loop_
_geom_bond_atom_site_label_1
_geom_bond_atom_site_label_2
_geom_bond_site_symmetry_1
_geom_bond_site_symmetry_2
N1 N2 1_555 1_555
N2 C2 1_555 1_555
C1 N1 1_555 1_555
C2 C4 1_555 1_555
C3 C1 1_555 1_555
C4 C15 1_555 1_555
C5 C2 1_555 1_555
C6 C1 1_555 1_555
C7 C3 1_555 1_555
C8 C10 1_555 1_555
C9 C6 1_555 1_555
C10 C11 1_555 1_555
C11 C5 1_555 1_555
O1 C12 1_555 1_555
O2 C12 1_555 1_555
O3 C13 1_555 1_555
C12 C9 1_555 1_555
C13 C7 1_555 1_555
O4 C13 1_555 1_555
O5 C8 1_555 1_555
C14 C7 1_555 1_555
C15 C10 1_555 1_555
C16 C17 1_555 1_555
C17 O1 1_555 1_555
C18 O3 1_555 1_555
C19 C18 1_555 1_555
H1 C3 1_555 1_555
H2 C4 1_555 1_555
H3 C5 1_555 1_555
H4 C6 1_555 1_555
H5 C8 1_555 1_555
H6 C8 1_555 1_555
H7 C11 1_555 1_555
H8 O5 1_555 1_555
H9 C14 1_555 1_555
H10 C15 1_555 1_555
H11 C16 1_555 1_555
H12 C16 1_555 1_555
H13 C16 1_555 1_555
H14 C17 1_555 1_555
H15 C17 1_555 1_555
H16 C18 1_555 1_555
H17 C18 1_555 1_555
H18 C19 1_555 1_555
H19 C19 1_555 1_555
H20 C19 1_555 1_555
C9 C14 1_555 1_555

#END
