
#######################################################################
#
#                 Cambridge Crystallographic Data Centre
#                                CCDC 
#
#######################################################################
#
# If this CIF has been generated from an entry in the Cambridge 
# Structural Database, then it will include bibliographic, chemical, 
# crystal, experimental, refinement or atomic coordinate data resulting 
# from the CCDC's data processing and validation procedures.
#
#######################################################################

data_FAVLOE
_chemical_compound_source        'the soft coral Sarcophyton tortuosum'
_chemical_formula_moiety         'C41 H62 O8,C2 H6 O1'
_chemical_name_systematic        
'(1R*,2R*,5R*,9S*,12R*,21R*,27R*,30S*,31R*,33S*)-Methyl tortuoate B ethanol solvate'
_chemical_properties_biological  
'in vitro cytotoxicity against the human nasopharyngeal carcinoma CNE-2 and the murine P-388 tumour cell lines'
_symmetry_cell_setting           orthorhombic
_symmetry_space_group_name_H-M   'P 21 21 21'
_symmetry_Int_Tables_number      19
_space_group_name_Hall           'P 2ac 2ab'
loop_
_symmetry_equiv_pos_site_id
_symmetry_equiv_pos_as_xyz
1 x,y,z
2 1/2-x,-y,1/2+z
3 1/2+x,1/2-y,-z
4 -x,1/2+y,1/2-z
_cell_length_a                   9.4139(15)
_cell_length_b                   9.7850(16)
_cell_length_c                   45.436(7)
_cell_angle_alpha                90
_cell_angle_beta                 90
_cell_angle_gamma                90
_cell_volume                     4185.34
_exptl_crystal_colour            colorless
_exptl_crystal_description       prism
_chemical_melting_point          229-231deg.C
_cell_formula_units_Z            4
loop_
_atom_site_label
_atom_site_type_symbol
_atom_site_fract_x
_atom_site_fract_y
_atom_site_fract_z
C1 C 0.0841(2) -0.0297(2) 0.1320(1)
C2 C 0.2096(2) -0.1037(2) 0.1472(1)
C3 C 0.3032(2) -0.1950(2) 0.1274(1)
C4 C 0.2585(2) -0.3414(2) 0.1232(1)
C5 C 0.3585(3) -0.4381(2) 0.1067(1)
C6 C 0.3472(3) -0.4279(3) 0.0733(1)
C7 C 0.4264(3) -0.3125(3) 0.0591(1)
C8 C 0.3953(3) -0.2991(3) 0.0264(1)
C9 C 0.4612(3) -0.1737(3) 0.0119(1)
C10 C 0.4188(3) -0.0460(3) 0.0286(1)
C11 C 0.2663(3) 0.0021(3) 0.0264(1)
C12 C 0.2137(2) 0.0878(2) 0.0525(1)
C13 C 0.1610(2) -0.0032(2) 0.0773(1)
C14 C 0.1323(2) 0.0646(2) 0.1067(1)
C15 C 0.0983(4) 0.1904(3) 0.0436(1)
C16 C 0.1611(7) 0.2996(3) 0.0222(1)
C17 C -0.0318(4) 0.1213(5) 0.0306(1)
C18 C 0.4241(4) -0.1635(4) -0.0209(1)
C19 C 0.3198(5) -0.5853(3) 0.1159(1)
C20 C -0.0316(2) -0.1280(2) 0.1217(1)
C21 C 0.0081(2) 0.0599(2) 0.1565(1)
C22 C -0.0483(2) -0.0252(2) 0.1817(1)
C23 C -0.1814(2) -0.0589(2) 0.1879(1)
C24 C -0.2124(2) -0.1344(2) 0.2162(1)
C25 C -0.2219(2) -0.0377(2) 0.2426(1)
C26 C -0.3583(2) 0.0434(2) 0.2447(1)
C27 C -0.3573(2) 0.1754(2) 0.2623(1)
C28 C -0.2410(2) 0.2758(2) 0.2528(1)
C29 C -0.2565(2) 0.3284(2) 0.2214(1)
C30 C -0.1225(2) 0.3973(2) 0.2104(1)
C31 C -0.1296(2) 0.4736(2) 0.1808(1)
C32 C -0.0664(2) 0.3692(2) 0.1596(1)
C33 C 0.0490(2) 0.3040(2) 0.1782(1)
C34 C 0.1085(2) 0.1669(2) 0.1689(1)
C35 C 0.2450(2) 0.1342(2) 0.1730(1)
C36 C 0.3070(2) 0.0007(2) 0.1627(1)
C37 C 0.3538(2) 0.2220(2) 0.1881(1)
C38 C -0.3068(2) -0.0220(3) 0.1691(1)
C39 C -0.3438(3) 0.1405(3) 0.2950(1)
C40 C -0.2754(2) 0.5249(2) 0.1716(1)
C41 C -0.2395(3) -0.1469(3) 0.0927(1)
O1 O 0.1409(2) -0.1247(1) 0.0738(1)
O2 O 0.5044(2) 0.0162(2) 0.0428(1)
O3 O 0.4136(2) -0.1517(2) 0.1177(1)
O4 O -0.0479(2) -0.2435(1) 0.1299(1)
O5 O -0.1234(1) -0.0653(1) 0.1037(1)
O6 O -0.4678(2) 0.0005(2) 0.2343(1)
O7 O -0.0339(2) 0.5870(1) 0.1839(1)
O8 O -0.0149(2) 0.2935(1) 0.2070(1)
H1 H 0.1692 -0.1624 0.1625
H2 H 0.1684 -0.3410 0.1126
H3 H 0.2412 -0.3802 0.1425
H4 H 0.4566 -0.4189 0.1126
H5 H 0.3813 -0.5130 0.0649
H6 H 0.2476 -0.4195 0.0682
H7 H 0.5275 -0.3267 0.0618
H8 H 0.4011 -0.2278 0.0688
H9 H 0.2932 -0.2957 0.0236
H10 H 0.4302 -0.3801 0.0164
H11 H 0.5647 -0.1828 0.0134
H12 H 0.2053 -0.0774 0.0244
H13 H 0.2562 0.0558 0.0086
H14 H 0.2948 0.1400 0.0600
H15 H 0.0597 0.1337 0.1038
H16 H 0.2182 0.1113 0.1128
H17 H 0.0680 0.2381 0.0615
H18 H 0.0881 0.3631 0.0167
H19 H 0.1972 0.2552 0.0049
H20 H 0.2368 0.3476 0.0319
H21 H -0.0677 0.0550 0.0443
H22 H -0.0064 0.0765 0.0125
H23 H -0.1036 0.1886 0.0267
H24 H 0.4675 -0.0834 -0.0291
H25 H 0.3228 -0.1577 -0.0231
H26 H 0.4585 -0.2432 -0.0309
H27 H 0.3810 -0.6487 0.1059
H28 H 0.2228 -0.6038 0.1107
H29 H 0.3314 -0.5951 0.1368
H30 H -0.0722 0.1074 0.1473
H31 H 0.0199 -0.0584 0.1947
H32 H -0.1379 -0.2010 0.2197
H33 H -0.3014 -0.1835 0.2142
H34 H -0.2111 -0.0910 0.2604
H35 H -0.1429 0.0258 0.2416
H36 H -0.4493 0.2204 0.2594
H37 H -0.2414 0.3532 0.2661
H38 H -0.1495 0.2310 0.2546
H39 H -0.2797 0.2526 0.2085
H40 H -0.3345 0.3930 0.2206
H41 H -0.0904 0.4618 0.2255
H42 H -0.1368 0.3024 0.1536
H43 H -0.0270 0.4130 0.1423
H44 H 0.1282 0.3687 0.1796
H45 H 0.3485 -0.0443 0.1796
H46 H 0.3843 0.0217 0.1493
H47 H 0.3105 0.3061 0.1942
H48 H 0.4301 0.2413 0.1747
H49 H 0.3904 0.1747 0.2050
H50 H -0.2747 0.0258 0.1519
H51 H -0.3701 0.0355 0.1801
H52 H -0.3557 -0.1038 0.1633
H53 H -0.4183 0.0787 0.3006
H54 H -0.3511 0.2227 0.3065
H55 H -0.2533 0.0983 0.2986
H56 H -0.2686 0.5703 0.1530
H57 H -0.3103 0.5879 0.1861
H58 H -0.3396 0.4490 0.1701
H59 H -0.2982 -0.0921 0.0801
H60 H -0.2950 -0.1801 0.1089
H61 H -0.2025 -0.2229 0.0817
H62 H -0.0372 0.6345 0.1690
C42 C 0.6064(8) 0.2834(6) 0.0576(2)
C43 C 0.6915(9) 0.2740(10) 0.0844(2)
O9 O 0.7598(10) 0.4124(10) 0.0806(2)
H63 H 0.5541 0.2001 0.0549
H64 H 0.6678 0.2978 0.0410
H65 H 0.5413 0.3586 0.0593
H66 H 0.7597 0.1997 0.0838
H67 H 0.6340 0.2680 0.1021
H68 H 0.8154 0.4263 0.0941
loop_
_geom_bond_atom_site_label_1
_geom_bond_atom_site_label_2
_geom_bond_site_symmetry_1
_geom_bond_site_symmetry_2
C1 C2 1_555 1_555
C2 C3 1_555 1_555
C3 C4 1_555 1_555
C4 C5 1_555 1_555
C5 C6 1_555 1_555
C6 C7 1_555 1_555
C7 C8 1_555 1_555
C8 C9 1_555 1_555
C9 C10 1_555 1_555
C10 C11 1_555 1_555
C11 C12 1_555 1_555
C12 C13 1_555 1_555
C13 C14 1_555 1_555
C14 C1 1_555 1_555
C15 C12 1_555 1_555
C16 C15 1_555 1_555
C17 C15 1_555 1_555
C18 C9 1_555 1_555
C19 C5 1_555 1_555
C20 C1 1_555 1_555
C21 C1 1_555 1_555
C22 C21 1_555 1_555
C23 C22 1_555 1_555
C24 C23 1_555 1_555
C25 C24 1_555 1_555
C26 C25 1_555 1_555
C27 C26 1_555 1_555
C28 C27 1_555 1_555
C29 C28 1_555 1_555
C30 C29 1_555 1_555
C31 C30 1_555 1_555
C32 C31 1_555 1_555
C33 C32 1_555 1_555
C34 C21 1_555 1_555
C35 C34 1_555 1_555
C36 C2 1_555 1_555
C37 C35 1_555 1_555
C38 C23 1_555 1_555
C39 C27 1_555 1_555
C40 C31 1_555 1_555
C41 O5 1_555 1_555
O1 C13 1_555 1_555
O2 C10 1_555 1_555
O3 C3 1_555 1_555
O4 C20 1_555 1_555
O5 C20 1_555 1_555
O6 C26 1_555 1_555
O7 C31 1_555 1_555
O8 C30 1_555 1_555
C42 C43 1_555 1_555
C43 O9 1_555 1_555
O9 H68 1_555 1_555
H1 C2 1_555 1_555
H2 C4 1_555 1_555
H3 C4 1_555 1_555
H4 C5 1_555 1_555
H5 C6 1_555 1_555
H6 C6 1_555 1_555
H7 C7 1_555 1_555
H8 C7 1_555 1_555
H9 C8 1_555 1_555
H10 C8 1_555 1_555
H11 C9 1_555 1_555
H12 C11 1_555 1_555
H13 C11 1_555 1_555
H14 C12 1_555 1_555
H15 C14 1_555 1_555
H16 C14 1_555 1_555
H17 C15 1_555 1_555
H18 C16 1_555 1_555
H19 C16 1_555 1_555
H20 C16 1_555 1_555
H21 C17 1_555 1_555
H22 C17 1_555 1_555
H23 C17 1_555 1_555
H24 C18 1_555 1_555
H25 C18 1_555 1_555
H26 C18 1_555 1_555
H27 C19 1_555 1_555
H28 C19 1_555 1_555
H29 C19 1_555 1_555
H30 C21 1_555 1_555
H31 C22 1_555 1_555
H32 C24 1_555 1_555
H33 C24 1_555 1_555
H34 C25 1_555 1_555
H35 C25 1_555 1_555
H36 C27 1_555 1_555
H37 C28 1_555 1_555
H38 C28 1_555 1_555
H39 C29 1_555 1_555
H40 C29 1_555 1_555
H41 C30 1_555 1_555
H42 C32 1_555 1_555
H43 C32 1_555 1_555
H44 C33 1_555 1_555
H45 C36 1_555 1_555
H46 C36 1_555 1_555
H47 C37 1_555 1_555
H48 C37 1_555 1_555
H49 C37 1_555 1_555
H50 C38 1_555 1_555
H51 C38 1_555 1_555
H52 C38 1_555 1_555
H53 C39 1_555 1_555
H54 C39 1_555 1_555
H55 C39 1_555 1_555
H56 C40 1_555 1_555
H57 C40 1_555 1_555
H58 C40 1_555 1_555
H59 C41 1_555 1_555
H60 C41 1_555 1_555
H61 C41 1_555 1_555
H62 O7 1_555 1_555
H63 C42 1_555 1_555
H64 C42 1_555 1_555
H65 C42 1_555 1_555
H66 C43 1_555 1_555
H67 C43 1_555 1_555
C33 C34 1_555 1_555
C33 O8 1_555 1_555
C35 C36 1_555 1_555

#END
