
#######################################################################
#
#                 Cambridge Crystallographic Data Centre
#                                CCDC 
#
#######################################################################
#
# If this CIF has been generated from an entry in the Cambridge 
# Structural Database, then it will include bibliographic, chemical, 
# crystal, experimental, refinement or atomic coordinate data resulting 
# from the CCDC's data processing and validation procedures.
#
#######################################################################

data_FAVPAT
_chemical_formula_moiety         'C18 H16 O2'
_chemical_name_systematic        2,4,5,7-Tetramethyl-9,10-phenanthroquinone
_symmetry_cell_setting           monoclinic
_symmetry_space_group_name_H-M   'I 2/a'
_symmetry_Int_Tables_number      15
_space_group_name_Hall           '-I 2ya'
loop_
_symmetry_equiv_pos_site_id
_symmetry_equiv_pos_as_xyz
1 x,y,z
2 1/2+x,1/2+y,1/2+z
3 1/2-x,y,-z
4 -x,1/2+y,1/2-z
5 -x,-y,-z
6 1/2-x,1/2-y,1/2-z
7 1/2+x,-y,z
8 x,1/2-y,1/2+z
_cell_length_a                   19.389(3)
_cell_length_b                   8.708(1)
_cell_length_c                   17.554(3)
_cell_angle_alpha                90
_cell_angle_beta                 112.11(1)
_cell_angle_gamma                90
_cell_volume                     2745.86
_exptl_crystal_colour            orange
_chemical_melting_point          468-469K(dec.)
_cell_formula_units_Z            8
loop_
_atom_site_label
_atom_site_type_symbol
_atom_site_fract_x
_atom_site_fract_y
_atom_site_fract_z
O1 O 0.1667(1) -0.1236(2) 0.1297(1)
O2 O 0.0742(1) 0.1000(2) 0.0311(1)
C1 C -0.0341(2) 0.2002(3) 0.0957(2)
C2 C -0.0825(1) 0.2458(3) 0.1325(2)
C3 C -0.0560(2) 0.2432(3) 0.2171(2)
C4 C 0.0171(1) 0.2078(3) 0.2671(2)
C5 C 0.1930(1) 0.2302(3) 0.3452(2)
C6 C 0.2657(2) 0.1793(3) 0.3883(2)
C7 C 0.2973(1) 0.0581(3) 0.3627(2)
C8 C 0.2564(2) -0.0095(3) 0.2885(2)
C9 C 0.1474(2) -0.0138(3) 0.1589(2)
C10 C 0.0848(1) 0.0900(3) 0.1033(2)
C11 C 0.0394(1) 0.1638(3) 0.1435(1)
C12 C 0.0680(1) 0.1770(3) 0.2295(1)
C13 C 0.1489(1) 0.1497(3) 0.2754(1)
C14 C 0.1840(1) 0.0378(3) 0.2446(2)
C15 C -0.1624(2) 0.2863(5) 0.0817(3)
C16 C 0.0346(2) 0.1877(6) 0.3577(2)
C17 C 0.1704(2) 0.3792(4) 0.3724(2)
C18 C 0.3761(2) 0.0059(5) 0.4130(3)
H1 H -0.050(1) 0.184(3) 0.035(1)
H2 H -0.092(1) 0.263(3) 0.245(1)
H3 H 0.295(1) 0.236(2) 0.438(1)
H4 H 0.284(1) -0.096(3) 0.263(1)
H5 H -0.168(2) 0.399(4) 0.072(2)
H6 H -0.178(2) 0.239(4) 0.031(2)
H7 H -0.194(2) 0.251(4) 0.106(2)
H8 H 0.034(2) 0.291(4) 0.385(2)
H9 H -0.004(2) 0.124(4) 0.365(2)
H10 H 0.084(1) 0.143(3) 0.390(2)
H11 H 0.163(1) 0.370(3) 0.423(2)
H12 H 0.126(1) 0.427(3) 0.329(2)
H13 H 0.210(2) 0.460(3) 0.381(2)
H14 H 0.408(2) 0.033(5) 0.386(2)
H15 H 0.378(2) -0.101(4) 0.420(2)
H16 H 0.399(2) 0.068(4) 0.457(2)
loop_
_geom_bond_atom_site_label_1
_geom_bond_atom_site_label_2
_geom_bond_site_symmetry_1
_geom_bond_site_symmetry_2
O1 C9 1_555 1_555
O2 C10 1_555 1_555
C1 C2 1_555 1_555
C2 C3 1_555 1_555
C3 C4 1_555 1_555
C4 C12 1_555 1_555
C5 C6 1_555 1_555
C6 C7 1_555 1_555
C7 C8 1_555 1_555
C8 C14 1_555 1_555
C9 C10 1_555 1_555
C10 C11 1_555 1_555
C11 C1 1_555 1_555
C12 C11 1_555 1_555
C13 C5 1_555 1_555
C14 C9 1_555 1_555
C15 C2 1_555 1_555
C16 C4 1_555 1_555
C17 C5 1_555 1_555
C18 C7 1_555 1_555
H1 C1 1_555 1_555
H2 C3 1_555 1_555
H3 C6 1_555 1_555
H4 C8 1_555 1_555
H5 C15 1_555 1_555
H6 C15 1_555 1_555
H7 C15 1_555 1_555
H8 C16 1_555 1_555
H9 C16 1_555 1_555
H10 C16 1_555 1_555
H11 C17 1_555 1_555
H12 C17 1_555 1_555
H13 C17 1_555 1_555
H14 C18 1_555 1_555
H15 C18 1_555 1_555
H16 C18 1_555 1_555
C12 C13 1_555 1_555
C13 C14 1_555 1_555

#END
