
#######################################################################
#
#                 Cambridge Crystallographic Data Centre
#                                CCDC 
#
#######################################################################
#
# If this CIF has been generated from an entry in the Cambridge 
# Structural Database, then it will include bibliographic, chemical, 
# crystal, experimental, refinement or atomic coordinate data resulting 
# from the CCDC's data processing and validation procedures.
#
#######################################################################

data_FAVQUO
_chemical_formula_moiety         'C9 H11 N1 O2'
_chemical_name_systematic        6-Formyl-1-propylpyridinium-3-olate
_symmetry_cell_setting           monoclinic
_symmetry_space_group_name_H-M   'P 21/c'
_symmetry_Int_Tables_number      14
_space_group_name_Hall           '-P 2ybc'
loop_
_symmetry_equiv_pos_site_id
_symmetry_equiv_pos_as_xyz
1 x,y,z
2 -x,1/2+y,1/2-z
3 -x,-y,-z
4 x,1/2-y,1/2+z
_cell_length_a                   9.468(2)
_cell_length_b                   7.801(2)
_cell_length_c                   12.384(3)
_cell_angle_alpha                90
_cell_angle_beta                 106.56(2)
_cell_angle_gamma                90
_cell_volume                     876.741
_exptl_crystal_colour            'pale yellow'
_exptl_crystal_description       plate
_chemical_melting_point          '121 deg.C'
_cell_formula_units_Z            4
_chemical_properties_physical    labile
_exptl_crystal_recrystallization_method 'diethyl ether/THF'
loop_
_atom_site_label
_atom_site_type_symbol
_atom_site_fract_x
_atom_site_fract_y
_atom_site_fract_z
O1 O 0.2128(3) 0.1114(4) 0.6051(2)
O2 O 0.4222(3) -0.0911(3) 0.1747(2)
N1 N 0.3041(2) 0.1074(3) 0.3923(2)
C1 C 0.3028(3) -0.0264(4) 0.4641(2)
C2 C 0.3482(3) -0.1860(4) 0.4357(2)
H1 H 0.3502(3) -0.2776(4) 0.4842(2)
C3 C 0.3895(4) -0.2144(4) 0.3412(2)
H2 H 0.4191(4) -0.3234(4) 0.3263(2)
C4 C 0.3878(3) -0.0795(4) 0.2654(2)
C5 C 0.3436(3) 0.0829(4) 0.2985(2)
H3 H 0.3424(3) 0.1767(4) 0.2519(2)
C6 C 0.2613(4) 0.2848(4) 0.4144(3)
H4 H 0.3089(4) 0.3662(4) 0.3769(3)
H5 H 0.2946(4) 0.3077(4) 0.4947(3)
C7 C 0.0930(7) 0.3084(15) 0.3715(7)
H6 H 0.0600(7) 0.2821(15) 0.2917(7)
H7 H 0.0461(7) 0.2280(15) 0.4102(7)
C8 C 0.0471(8) 0.4805(12) 0.3892(9)
H8 H 0.0940(57) 0.5149(33) 0.4654(17)
H9 H -0.0579(12) 0.4831(22) 0.3754(56)
H10 H 0.0748(65) 0.5577(18) 0.3383(38)
C9 C 0.2602(4) -0.0118(5) 0.5671(3)
H11 H 0.2708(4) -0.1111(5) 0.6102(3)
C10? C 0.1109(15) 0.3353(48) 0.3397(19)
H12? H 0.0933(15) 0.4546(48) 0.3536(19)
H13? H 0.1110(15) 0.3253(48) 0.2616(19)
C11? C -0.0061(15) 0.2356(25) 0.3559(24)
H14? H 0.0111(86) 0.1168(34) 0.344(13)
H15? H -0.0971(28) 0.271(14) 0.3035(91)
H16? H -0.012(11) 0.251(15) 0.4315(47)
loop_
_geom_bond_atom_site_label_1
_geom_bond_atom_site_label_2
_geom_bond_site_symmetry_1
_geom_bond_site_symmetry_2
O1 C9 1_555 1_555
O2 C4 1_555 1_555
N1 C1 1_555 1_555
C1 C2 1_555 1_555
C2 H1 1_555 1_555
C3 C2 1_555 1_555
H2 C3 1_555 1_555
C4 C3 1_555 1_555
C5 N1 1_555 1_555
H3 C5 1_555 1_555
C6 N1 1_555 1_555
H4 C6 1_555 1_555
H5 C6 1_555 1_555
C7 C6 1_555 1_555
H6 C7 1_555 1_555
H7 C7 1_555 1_555
C8 C7 1_555 1_555
H8 C8 1_555 1_555
H9 C8 1_555 1_555
H10 C8 1_555 1_555
C9 C1 1_555 1_555
H11 C9 1_555 1_555
C4 C5 1_555 1_555

#END
