
#######################################################################
#
#                 Cambridge Crystallographic Data Centre
#                                CCDC 
#
#######################################################################
#
# If this CIF has been generated from an entry in the Cambridge 
# Structural Database, then it will include bibliographic, chemical, 
# crystal, experimental, refinement or atomic coordinate data resulting 
# from the CCDC's data processing and validation procedures.
#
#######################################################################

data_FAVWEH
_chemical_formula_moiety         'C12 H22 O4'
_chemical_name_systematic        
7-ethoxy-1,3-dimethylbicyclo[2.2.2]octane-2,3,5-triol
_symmetry_cell_setting           orthorhombic
_symmetry_space_group_name_H-M   'P 21 21 21'
_symmetry_Int_Tables_number      19
_space_group_name_Hall           'P 2ac 2ab'
loop_
_symmetry_equiv_pos_site_id
_symmetry_equiv_pos_as_xyz
1 x,y,z
2 1/2+x,1/2-y,-z
3 -x,1/2+y,1/2-z
4 1/2-x,-y,1/2+z
_cell_length_a                   12.6340(1)
_cell_length_b                   13.4519(1)
_cell_length_c                   21.7470(1)
_cell_angle_alpha                90
_cell_angle_beta                 90
_cell_angle_gamma                90
_cell_volume                     3695.93
_exptl_crystal_colour            colorless
_exptl_crystal_description       plate
_cell_formula_units_Z            12
_exptl_crystal_recrystallization_method 
'petroleum spirits (40-60C)/ ethyl acetate / acetone'
loop_
_atom_site_label
_atom_site_type_symbol
_atom_site_fract_x
_atom_site_fract_y
_atom_site_fract_z
O1 O 0.25791(7) 0.19744(7) 0.61201(4)
O2 O -0.01453(6) 0.15321(7) 0.50949(4)
O3 O 0.40508(6) 0.17550(7) 0.43147(4)
O4 O 0.27428(6) 0.33135(6) 0.42159(4)
C1 C 0.08204(9) 0.13991(9) 0.47580(6)
C2 C 0.16285(9) 0.07615(9) 0.51129(6)
C3 C 0.27275(9) 0.12581(8) 0.51100(5)
C4 C 0.29670(8) 0.15215(8) 0.44320(5)
C5 C 0.22131(8) 0.23658(8) 0.41944(5)
C6 C 0.12842(8) 0.24355(8) 0.46493(5)
C7 C 0.26590(9) 0.22298(9) 0.54807(5)
C8 C 0.16831(9) 0.28308(9) 0.52693(5)
C9 C 0.35655(10) 0.05562(9) 0.53692(6)
C10 C 0.18583(10) 0.21866(10) 0.35342(6)
C11 C 0.27093(11) 0.28088(11) 0.65153(6)
C12 C 0.38561(13) 0.30576(13) 0.66319(7)
H1 H -0.0486(14) 0.0994(14) 0.5105(8)
H2 H 0.4252(13) 0.2275(13) 0.4503(8)
H3 H 0.3168(13) 0.3339(12) 0.3924(8)
H4 H 0.0667 0.1068 0.4347
H5 H 0.1389 0.0676 0.5536
H6 H 0.1660 0.0104 0.4934
H7 H 0.2818 0.0915 0.4189
H8 H 0.0718 0.2886 0.4476
H9 H 0.3310 0.2609 0.5406
H10 H 0.1127 0.2753 0.5578
H11 H 0.1845 0.3546 0.5238
H12 H 0.4246 0.0893 0.5421
H13 H 0.3345 0.0322 0.5775
H14 H 0.3662 -0.0014 0.5100
H15 H 0.1488 0.1547 0.3496
H16 H 0.1376 0.2723 0.3408
H17 H 0.2482 0.2186 0.3250
H18 H 0.2367 0.2640 0.6919
H19 H 0.2339 0.3414 0.6337
H20 H 0.3911 0.3630 0.6907
H21 H 0.4207 0.2485 0.6830
H22 H 0.4237 0.3213 0.6241
O5 O 0.74313(7) 0.50699(7) 0.24181(4)
O6 O 0.49671(8) 0.51391(7) 0.12472(4)
O7 O 0.51050(7) 0.52164(7) 0.37886(4)
O8 O 0.43201(8) 0.37117(7) 0.32522(4)
C13 C 0.46628(9) 0.53592(9) 0.18685(5)
C14 C 0.54145(10) 0.61151(8) 0.21677(5)
C15 C 0.57925(9) 0.57477(9) 0.27999(5)
C16 C 0.48042(9) 0.54740(9) 0.31783(5)
C17 C 0.41852(9) 0.45863(9) 0.28781(5)
C18 C 0.46727(9) 0.43903(9) 0.22405(5)
C19 C 0.64527(9) 0.47989(9) 0.27107(5)
C20 C 0.58231(9) 0.40465(9) 0.23151(6)
C21 C 0.64165(11) 0.65618(10) 0.31291(6)
C22 C 0.29980(10) 0.47926(11) 0.28491(7)
C23 C 0.82078(10) 0.43100(11) 0.24713(7)
C24 C 0.91822(11) 0.46168(12) 0.21164(8)
H23 H 0.5189(15) 0.5644(14) 0.1070(8)
H24 H 0.4684(14) 0.5540(13) 0.4023(8)
H25 H 0.4683(15) 0.3891(14) 0.3586(9)
H26 H 0.3938 0.5651 0.1862
H27 H 0.5067 0.6754 0.2204
H28 H 0.6021 0.6203 0.1904
H29 H 0.4339 0.6059 0.3177
H30 H 0.4257 0.3898 0.2029
H31 H 0.6597 0.4503 0.3113
H32 H 0.6156 0.3975 0.1909
H33 H 0.5848 0.3381 0.2506
H34 H 0.6724 0.6317 0.3518
H35 H 0.6983 0.6825 0.2879
H36 H 0.5927 0.7119 0.3222
H37 H 0.2844 0.5402 0.2625
H38 H 0.2718 0.4854 0.3262
H39 H 0.2638 0.4268 0.2648
H40 H 0.8392 0.4203 0.2914
H41 H 0.7934 0.3661 0.2322
H42 H 0.9705 0.4105 0.2152
H43 H 0.9494 0.5235 0.2261
H44 H 0.8996 0.4690 0.1677
O9 O 0.08069(7) 0.70037(7) 0.38946(4)
O10 O 0.03527(7) 0.66330(7) 0.56930(4)
O11 O 0.40954(6) 0.67300(6) 0.43625(4)
O12 O 0.34541(7) 0.50638(6) 0.47578(4)
C25 C 0.14588(9) 0.67236(8) 0.55554(5)
C26 C 0.16021(9) 0.76195(8) 0.51214(5)
C27 C 0.22802(8) 0.73302(8) 0.45627(5)
C28 C 0.33100(8) 0.68714(8) 0.48198(5)
C29 C 0.30856(8) 0.58600(8) 0.51468(5)
C30 C 0.18768(9) 0.57791(8) 0.52400(5)
C31 C 0.16920(9) 0.65358(9) 0.41878(5)
C32 C 0.13277(9) 0.56888(9) 0.46145(5)
C33 C 0.25283(10) 0.82403(9) 0.41706(6)
C34 C 0.37114(10) 0.57700(10) 0.57413(6)
C35 C 0.03189(12) 0.63825(12) 0.34469(7)
C36 C -0.06980(13) 0.68633(14) 0.32484(9)
H45 H 0.0244(14) 0.6102(13) 0.5874(8)
H46 H 0.4425(14) 0.7266(14) 0.4331(8)
H47 H 0.2975(14) 0.4677(13) 0.4665(8)
H48 H 0.1838 0.6857 0.5942
H49 H 0.1936 0.8176 0.5344
H50 H 0.0910 0.7835 0.4980
H51 H 0.3588 0.7370 0.5139
H52 H 0.1736 0.5190 0.5498
H53 H 0.2183 0.6278 0.3881
H54 H 0.0573 0.5728 0.4674
H55 H 0.1452 0.5035 0.4423
H56 H 0.2888 0.8035 0.3794
H57 H 0.2985 0.8716 0.4389
H58 H 0.1882 0.8571 0.4045
H59 H 0.3504 0.6295 0.6035
H60 H 0.4464 0.5828 0.5657
H61 H 0.3588 0.5113 0.5935
H62 H 0.0184 0.5698 0.3612
H63 H 0.0797 0.6289 0.3103
H64 H -0.1039 0.6473 0.2935
H65 H -0.1177 0.6939 0.3603
H66 H -0.0572 0.7519 0.3083
loop_
_geom_bond_atom_site_label_1
_geom_bond_atom_site_label_2
_geom_bond_site_symmetry_1
_geom_bond_site_symmetry_2
O1 C7 1_555 1_555
O2 C1 1_555 1_555
O3 C4 1_555 1_555
O4 C5 1_555 1_555
C1 C2 1_555 1_555
C2 C3 1_555 1_555
C3 C4 1_555 1_555
C4 C5 1_555 1_555
C5 C6 1_555 1_555
C6 C1 1_555 1_555
C7 C3 1_555 1_555
C8 C6 1_555 1_555
C9 C3 1_555 1_555
C10 C5 1_555 1_555
C11 O1 1_555 1_555
C12 C11 1_555 1_555
H1 O2 1_555 1_555
H2 O3 1_555 1_555
H3 O4 1_555 1_555
H4 C1 1_555 1_555
H5 C2 1_555 1_555
H6 C2 1_555 1_555
H7 C4 1_555 1_555
H8 C6 1_555 1_555
H9 C7 1_555 1_555
H10 C8 1_555 1_555
H11 C8 1_555 1_555
H12 C9 1_555 1_555
H13 C9 1_555 1_555
H14 C9 1_555 1_555
H15 C10 1_555 1_555
H16 C10 1_555 1_555
H17 C10 1_555 1_555
H18 C11 1_555 1_555
H19 C11 1_555 1_555
H20 C12 1_555 1_555
H21 C12 1_555 1_555
H22 C12 1_555 1_555
O5 C19 1_555 1_555
O6 C13 1_555 1_555
O7 C16 1_555 1_555
O8 C17 1_555 1_555
C13 C14 1_555 1_555
C14 C15 1_555 1_555
C15 C16 1_555 1_555
C16 C17 1_555 1_555
C17 C18 1_555 1_555
C18 C13 1_555 1_555
C19 C15 1_555 1_555
C20 C18 1_555 1_555
C21 C15 1_555 1_555
C22 C17 1_555 1_555
C23 O5 1_555 1_555
C24 C23 1_555 1_555
H23 O6 1_555 1_555
H24 O7 1_555 1_555
H25 O8 1_555 1_555
H26 C13 1_555 1_555
H27 C14 1_555 1_555
H28 C14 1_555 1_555
H29 C16 1_555 1_555
H30 C18 1_555 1_555
H31 C19 1_555 1_555
H32 C20 1_555 1_555
H33 C20 1_555 1_555
H34 C21 1_555 1_555
H35 C21 1_555 1_555
H36 C21 1_555 1_555
H37 C22 1_555 1_555
H38 C22 1_555 1_555
H39 C22 1_555 1_555
H40 C23 1_555 1_555
H41 C23 1_555 1_555
H42 C24 1_555 1_555
H43 C24 1_555 1_555
H44 C24 1_555 1_555
O9 C31 1_555 1_555
O10 C25 1_555 1_555
O11 C28 1_555 1_555
O12 C29 1_555 1_555
C25 C26 1_555 1_555
C26 C27 1_555 1_555
C27 C28 1_555 1_555
C28 C29 1_555 1_555
C29 C30 1_555 1_555
C30 C25 1_555 1_555
C31 C27 1_555 1_555
C32 C30 1_555 1_555
C33 C27 1_555 1_555
C34 C29 1_555 1_555
C35 O9 1_555 1_555
C36 C35 1_555 1_555
H45 O10 1_555 1_555
H46 O11 1_555 1_555
H47 O12 1_555 1_555
H48 C25 1_555 1_555
H49 C26 1_555 1_555
H50 C26 1_555 1_555
H51 C28 1_555 1_555
H52 C30 1_555 1_555
H53 C31 1_555 1_555
H54 C32 1_555 1_555
H55 C32 1_555 1_555
H56 C33 1_555 1_555
H57 C33 1_555 1_555
H58 C33 1_555 1_555
H59 C34 1_555 1_555
H60 C34 1_555 1_555
H61 C34 1_555 1_555
H62 C35 1_555 1_555
H63 C35 1_555 1_555
H64 C36 1_555 1_555
H65 C36 1_555 1_555
H66 C36 1_555 1_555
C7 C8 1_555 1_555
C19 C20 1_555 1_555
C31 C32 1_555 1_555

#END
