
#######################################################################
#
#                 Cambridge Crystallographic Data Centre
#                                CCDC 
#
#######################################################################
#
# If this CIF has been generated from an entry in the Cambridge 
# Structural Database, then it will include bibliographic, chemical, 
# crystal, experimental, refinement or atomic coordinate data resulting 
# from the CCDC's data processing and validation procedures.
#
#######################################################################

data_FAVWUX
_chemical_formula_moiety         'C21 H30 O5'
_chemical_name_systematic        
11-ethoxy-9-(1-hydroxyhexa-2,4-dien-1-ylidene)-2,4,4,7-tetramethyl-3,5-dioxatricyclo[5.2.2.0^2,6^]undecan-8-one
_symmetry_cell_setting           orthorhombic
_symmetry_space_group_name_H-M   'P 21 21 21'
_symmetry_Int_Tables_number      19
_space_group_name_Hall           'P 2ac 2ab'
loop_
_symmetry_equiv_pos_site_id
_symmetry_equiv_pos_as_xyz
1 x,y,z
2 1/2+x,1/2-y,-z
3 -x,1/2+y,1/2-z
4 1/2-x,-y,1/2+z
_cell_length_a                   7.3104(2)
_cell_length_b                   8.4083(2)
_cell_length_c                   33.0483(10)
_cell_angle_alpha                90
_cell_angle_beta                 90
_cell_angle_gamma                90
_cell_volume                     2031.41
_exptl_crystal_colour            colorless
_exptl_crystal_description       plate
_cell_formula_units_Z            4
_exptl_crystal_recrystallization_method 'chloroform / methanol'
loop_
_atom_site_label
_atom_site_type_symbol
_atom_site_fract_x
_atom_site_fract_y
_atom_site_fract_z
O1 O 0.17901(17) 0.03342(19) 0.59250(4)
O2 O 0.61326(17) 0.11986(17) 0.61351(5)
O3 O 0.15716(17) 0.14508(13) 0.71370(4)
O4 O 0.12219(16) 0.41191(13) 0.70697(4)
O5 O 0.66335(17) 0.37103(18) 0.57121(4)
C1 C 0.4169(2) 0.3452(2) 0.61650(5)
C2 C 0.4713(2) 0.1845(2) 0.62631(5)
C3 C 0.3359(2) 0.0994(2) 0.65341(5)
C4 C 0.3167(2) 0.19646(19) 0.69262(5)
C5 C 0.2846(2) 0.3761(2) 0.68424(5)
C6 C 0.2447(2) 0.3950(2) 0.63868(5)
C7 C 0.1502(2) 0.1081(2) 0.63084(5)
C8 C 0.0894(2) 0.2829(2) 0.62624(5)
C9 C 0.3923(3) -0.0718(2) 0.66203(6)
C10 C 0.4401(2) 0.4818(2) 0.69850(6)
C11 C 0.0769(2) 0.2803(2) 0.73267(5)
C12 C -0.1282(3) 0.2613(2) 0.73308(6)
C13 C 0.1544(3) 0.3008(2) 0.77499(5)
C14 C 0.0150(3) -0.0323(3) 0.57544(7)
C15 C -0.0396(4) -0.1862(4) 0.59495(10)
C16 C 0.5134(2) 0.4328(2) 0.58881(5)
C17 C 0.4665(2) 0.5913(2) 0.57634(5)
C18 C 0.5515(2) 0.6729(2) 0.54676(5)
C19 C 0.5063(2) 0.8335(2) 0.53582(5)
C20 C 0.5891(3) 0.9136(3) 0.50622(6)
C21 C 0.5466(4) 1.0807(3) 0.49478(7)
H1 H 0.673(4) 0.251(3) 0.5845(9)
H2 H 0.4271 0.1837 0.7091
H3 H 0.2134 0.5039 0.6331
H4 H 0.0594 0.0486 0.6464
H5 H -0.0180 0.3071 0.6420
H6 H 0.0596 0.3016 0.5987
H7 H 0.3038 -0.1154 0.6805
H8 H 0.5106 -0.0694 0.6746
H9 H 0.4026 -0.1281 0.6361
H10 H 0.5508 0.4534 0.6854
H11 H 0.4595 0.4713 0.7273
H12 H 0.4134 0.5894 0.6931
H13 H -0.1821 0.3616 0.7439
H14 H -0.1581 0.1723 0.7507
H15 H -0.1723 0.2438 0.7053
H16 H 0.1033 0.3974 0.7872
H17 H 0.1239 0.2078 0.7910
H18 H 0.2852 0.3115 0.7728
H19 H -0.0806 0.0479 0.5779
H20 H 0.0397 -0.0476 0.5460
H21 H -0.1492 -0.2329 0.5830
H22 H -0.0669 -0.1693 0.6234
H23 H 0.0544 -0.2691 0.5915
H24 H 0.3678 0.6425 0.5894
H25 H 0.6473 0.6196 0.5322
H26 H 0.4121 0.8869 0.5495
H27 H 0.6839 0.8634 0.4907
H28 H 0.4536 1.1236 0.5135
H29 H 0.6569 1.1441 0.4959
H30 H 0.4999 1.0841 0.4673
loop_
_geom_bond_atom_site_label_1
_geom_bond_atom_site_label_2
_geom_bond_site_symmetry_1
_geom_bond_site_symmetry_2
O1 C7 1_555 1_555
O2 C2 1_555 1_555
O3 C4 1_555 1_555
O4 C5 1_555 1_555
O5 C16 1_555 1_555
C1 C2 1_555 1_555
C2 C3 1_555 1_555
C3 C4 1_555 1_555
C4 C5 1_555 1_555
C5 C6 1_555 1_555
C6 C1 1_555 1_555
C7 C3 1_555 1_555
C8 C6 1_555 1_555
C9 C3 1_555 1_555
C10 C5 1_555 1_555
C11 O3 1_555 1_555
C12 C11 1_555 1_555
C13 C11 1_555 1_555
C14 O1 1_555 1_555
C15 C14 1_555 1_555
C16 C1 1_555 1_555
C17 C16 1_555 1_555
C18 C17 1_555 1_555
C19 C18 1_555 1_555
C20 C19 1_555 1_555
C21 C20 1_555 1_555
H1 O5 1_555 1_555
H2 C4 1_555 1_555
H3 C6 1_555 1_555
H4 C7 1_555 1_555
H5 C8 1_555 1_555
H6 C8 1_555 1_555
H7 C9 1_555 1_555
H8 C9 1_555 1_555
H9 C9 1_555 1_555
H10 C10 1_555 1_555
H11 C10 1_555 1_555
H12 C10 1_555 1_555
H13 C12 1_555 1_555
H14 C12 1_555 1_555
H15 C12 1_555 1_555
H16 C13 1_555 1_555
H17 C13 1_555 1_555
H18 C13 1_555 1_555
H19 C14 1_555 1_555
H20 C14 1_555 1_555
H21 C15 1_555 1_555
H22 C15 1_555 1_555
H23 C15 1_555 1_555
H24 C17 1_555 1_555
H25 C18 1_555 1_555
H26 C19 1_555 1_555
H27 C20 1_555 1_555
H28 C21 1_555 1_555
H29 C21 1_555 1_555
H30 C21 1_555 1_555
O4 C11 1_555 1_555
C7 C8 1_555 1_555

#END
