
#######################################################################
#
#                 Cambridge Crystallographic Data Centre
#                                CCDC 
#
#######################################################################
#
# If this CIF has been generated from an entry in the Cambridge 
# Structural Database, then it will include bibliographic, chemical, 
# crystal, experimental, refinement or atomic coordinate data resulting 
# from the CCDC's data processing and validation procedures.
#
#######################################################################

data_FAVYOS
_chemical_formula_moiety         'C18 H23 N1 O2'
_chemical_name_systematic        
1-Cyclohexyl-3-(3-methoxybenzylidene)pyrrolidin-2-one
_chemical_properties_biological  'Tested for cytotoxic activity.'
_symmetry_cell_setting           monoclinic
_symmetry_space_group_name_H-M   'P 21/c'
_symmetry_Int_Tables_number      14
_space_group_name_Hall           '-P 2ybc'
loop_
_symmetry_equiv_pos_site_id
_symmetry_equiv_pos_as_xyz
1 x,y,z
2 -x,1/2+y,1/2-z
3 -x,-y,-z
4 x,1/2-y,1/2+z
_cell_length_a                   12.478(2)
_cell_length_b                   5.8434(11)
_cell_length_c                   20.845(4)
_cell_angle_alpha                90
_cell_angle_beta                 98.042(3)
_cell_angle_gamma                90
_cell_volume                     1504.94
_exptl_crystal_colour            colorless
_exptl_crystal_description       plate
_chemical_melting_point          '147 deg.C'
_cell_formula_units_Z            4
_exptl_crystal_recrystallization_method methanol
loop_
_atom_site_label
_atom_site_type_symbol
_atom_site_fract_x
_atom_site_fract_y
_atom_site_fract_z
C1 C 0.79678(11) 0.5113(2) 0.78762(6)
C2 C 0.90441(11) 0.5657(2) 0.82516(6)
C3 C 0.94254(11) 0.7892(2) 0.80046(7)
H1 H 1.0129 0.7698 0.7842
H2 H 0.9507 0.9063 0.8351
C4 C 0.85326(11) 0.8587(3) 0.74495(7)
H3 H 0.8239 1.0118 0.7530
H4 H 0.8818 0.8611 0.7030
C5 C 0.94609(11) 0.4254(2) 0.87312(6)
H5 H 0.9040 0.2929 0.8782
C6 C 1.04615(10) 0.4434(2) 0.91893(6)
C7 C 1.11839(11) 0.6287(2) 0.92121(7)
H6 H 1.1054 0.7501 0.8908
C8 C 1.20868(12) 0.6331(3) 0.96814(7)
H7 H 1.2570 0.7592 0.9696
C9 C 1.23041(11) 0.4576(2) 1.01321(7)
H8 H 1.2928 0.4635 1.0450
C10 C 1.15928(11) 0.2732(2) 1.01091(7)
C11 C 1.06840(11) 0.2664(2) 0.96391(7)
H9 H 1.0207 0.1392 0.9624
C12 C 1.27152(11) 0.0763(3) 1.09543(7)
H10 H 1.3312 0.0693 1.0695
H11 H 1.2716 -0.0625 1.1218
H12 H 1.2806 0.2107 1.1238
C13 C 0.66946(11) 0.6815(2) 0.69984(6)
H13 H 0.6193 0.5698 0.7165
C14 C 0.61387(13) 0.9143(3) 0.69559(9)
H14 H 0.6620 1.0298 0.6798
H15 H 0.5995 0.9615 0.7392
C15 C 0.50680(13) 0.9030(3) 0.64925(9)
H16 H 0.4563 0.7980 0.6672
H17 H 0.4733 1.0568 0.6454
C16 C 0.52500(13) 0.8197(3) 0.58266(8)
H18 H 0.5689 0.9336 0.5627
H19 H 0.4544 0.8053 0.5547
C17 C 0.58250(13) 0.5900(3) 0.58664(8)
H20 H 0.5975 0.5453 0.5429
H21 H 0.5348 0.4722 0.6018
C18 C 0.68909(12) 0.5994(3) 0.63301(7)
H22 H 0.7224 0.4453 0.6367
H23 H 0.7400 0.7047 0.6155
N1 N 0.76996(9) 0.6827(2) 0.74512(6)
O1 O 0.74054(8) 0.34239(18) 0.79445(5)
O2 O 1.17098(8) 0.09296(17) 1.05325(5)
loop_
_geom_bond_atom_site_label_1
_geom_bond_atom_site_label_2
_geom_bond_site_symmetry_1
_geom_bond_site_symmetry_2
C1 C2 1_555 1_555
C2 C3 1_555 1_555
C3 H1 1_555 1_555
H2 C3 1_555 1_555
C4 C3 1_555 1_555
H3 C4 1_555 1_555
H4 C4 1_555 1_555
C5 C2 1_555 1_555
H5 C5 1_555 1_555
C6 C5 1_555 1_555
C7 C6 1_555 1_555
H6 C7 1_555 1_555
C8 C7 1_555 1_555
H7 C8 1_555 1_555
C9 C8 1_555 1_555
H8 C9 1_555 1_555
C10 C9 1_555 1_555
C11 C6 1_555 1_555
H9 C11 1_555 1_555
C12 H10 1_555 1_555
H11 C12 1_555 1_555
H12 C12 1_555 1_555
C13 H13 1_555 1_555
C14 C13 1_555 1_555
H14 C14 1_555 1_555
H15 C14 1_555 1_555
C15 C14 1_555 1_555
H16 C15 1_555 1_555
H17 C15 1_555 1_555
C16 C15 1_555 1_555
H18 C16 1_555 1_555
H19 C16 1_555 1_555
C17 C16 1_555 1_555
H20 C17 1_555 1_555
H21 C17 1_555 1_555
C18 C13 1_555 1_555
H22 C18 1_555 1_555
H23 C18 1_555 1_555
N1 C1 1_555 1_555
O1 C1 1_555 1_555
O2 C10 1_555 1_555
C4 N1 1_555 1_555
C10 C11 1_555 1_555
C12 O2 1_555 1_555
C13 N1 1_555 1_555
C17 C18 1_555 1_555

#END
