
#######################################################################
#
#                 Cambridge Crystallographic Data Centre
#                                CCDC 
#
#######################################################################
#
# If this CIF has been generated from an entry in the Cambridge 
# Structural Database, then it will include bibliographic, chemical, 
# crystal, experimental, refinement or atomic coordinate data resulting 
# from the CCDC's data processing and validation procedures.
#
#######################################################################

data_FAWCUE
_chemical_formula_moiety         'C19 H22 Cl1 N1 O3 S2'
_chemical_name_systematic        
N-(4-chloro-3-(3-thienylacetyl)cyclohexyl)-4-methylbenzenesulfonamide
_symmetry_cell_setting           orthorhombic
_symmetry_space_group_name_H-M   'P b c a'
_symmetry_Int_Tables_number      61
_space_group_name_Hall           '-P 2ac 2ab'
loop_
_symmetry_equiv_pos_site_id
_symmetry_equiv_pos_as_xyz
1 x,y,z
2 1/2-x,-y,1/2+z
3 -x,1/2+y,1/2-z
4 1/2+x,1/2-y,-z
5 -x,-y,-z
6 1/2+x,y,1/2-z
7 x,1/2-y,1/2+z
8 1/2-x,1/2+y,z
_cell_length_a                   18.229(4)
_cell_length_b                   9.4562(18)
_cell_length_c                   23.413(5)
_cell_angle_alpha                90
_cell_angle_beta                 90
_cell_angle_gamma                90
_cell_volume                     4035.86
_exptl_crystal_colour            colorless
_exptl_crystal_description       prism
_cell_formula_units_Z            8
loop_
_atom_site_label
_atom_site_type_symbol
_atom_site_fract_x
_atom_site_fract_y
_atom_site_fract_z
C1 C 0.99504(18) 0.0850(3) 0.34060(14)
C2 C 0.9689(2) -0.0431(4) 0.35929(17)
H1 H 0.9749 -0.1254 0.3365
C3 C 0.9339(3) -0.0515(4) 0.41172(18)
H2 H 0.9155 -0.1404 0.4241
C4 C 0.9247(2) 0.0646(4) 0.44636(16)
C5 C 0.8866(3) 0.0529(4) 0.50352(18)
H3 H 0.8720 -0.0455 0.5101
H4 H 0.8430 0.1134 0.5037
H5 H 0.9202 0.0831 0.5338
C6 C 0.9507(3) 0.1914(4) 0.42667(18)
H6 H 0.9448 0.2734 0.4497
C7 C 0.9855(3) 0.2038(4) 0.37407(17)
H7 H 1.0025 0.2933 0.3613
C8 C 0.90816(19) 0.0730(3) 0.21517(14)
H8 H 0.9180 -0.0255 0.2287
C9 C 0.83895(18) 0.1263(4) 0.24377(16)
H9 H 0.8317 0.2273 0.2341
H10 H 0.8443 0.1188 0.2857
C10 C 0.7716(2) 0.0410(4) 0.22456(14)
H11 H 0.7763 -0.0580 0.2378
H12 H 0.7268 0.0818 0.2418
C11 C 0.76538(18) 0.0441(4) 0.16035(15)
H13 H 0.7598 0.1448 0.1479
C12 C 0.83340(19) -0.0173(4) 0.13152(14)
H14 H 0.8402 -0.1173 0.1444
C13 C 0.90050(19) 0.0706(3) 0.15001(14)
H15 H 0.9454 0.0298 0.1329
H16 H 0.8952 0.1686 0.1357
C14 C 0.82593(19) -0.0146(4) 0.06648(15)
C15 C 0.8317(2) -0.1551(4) 0.03575(15)
H17 H 0.8791 -0.1993 0.0461
H18 H 0.7922 -0.2178 0.0500
C16 C 0.8266(2) -0.1492(4) -0.02811(15)
C17 C 0.7755(2) -0.2193(5) -0.05887(17)
H19 H 0.7383 -0.2767 -0.0424
C18 C 0.8609(3) -0.0870(5) -0.12095(18)
H20 H 0.8885 -0.0445 -0.1508
C19 C 0.8754(3) -0.0727(4) -0.06389(19)
H21 H 0.9146 -0.0167 -0.0495
N1 N 0.97255(14) 0.1629(3) 0.22968(11)
H22 H 0.9614 0.2607 0.2329
O1 O 1.08992(12) 0.2119(2) 0.27524(10)
O2 O 1.05512(12) -0.0347(2) 0.25203(10)
O3 O 0.81639(17) 0.0958(3) 0.04153(11)
S1 S 1.03511(4) 0.10384(8) 0.27231(4)
S2 S 0.78544(9) -0.19304(19) -0.13081(5)
Cl1 Cl 0.68531(5) -0.05306(11) 0.13739(4)
loop_
_geom_bond_atom_site_label_1
_geom_bond_atom_site_label_2
_geom_bond_site_symmetry_1
_geom_bond_site_symmetry_2
C1 C2 1_555 1_555
C2 H1 1_555 1_555
C3 C2 1_555 1_555
H2 C3 1_555 1_555
C4 C3 1_555 1_555
C5 C4 1_555 1_555
H3 C5 1_555 1_555
H4 C5 1_555 1_555
H5 C5 1_555 1_555
C6 C4 1_555 1_555
H6 C6 1_555 1_555
C7 C1 1_555 1_555
H7 C7 1_555 1_555
C8 H8 1_555 1_555
C9 C8 1_555 1_555
H9 C9 1_555 1_555
H10 C9 1_555 1_555
C10 C9 1_555 1_555
H11 C10 1_555 1_555
H12 C10 1_555 1_555
C11 C10 1_555 1_555
H13 C11 1_555 1_555
C12 C11 1_555 1_555
H14 C12 1_555 1_555
C13 C8 1_555 1_555
H15 C13 1_555 1_555
H16 C13 1_555 1_555
C14 C12 1_555 1_555
C15 C14 1_555 1_555
H17 C15 1_555 1_555
H18 C15 1_555 1_555
C16 C15 1_555 1_555
C17 C16 1_555 1_555
H19 C17 1_555 1_555
C18 H20 1_555 1_555
C19 C16 1_555 1_555
H21 C19 1_555 1_555
N1 C8 1_555 1_555
H22 N1 1_555 1_555
O1 S1 1_555 1_555
O2 S1 1_555 1_555
O3 C14 1_555 1_555
S1 C1 1_555 1_555
S2 C17 1_555 1_555
Cl1 C11 1_555 1_555
C6 C7 1_555 1_555
C12 C13 1_555 1_555
C18 C19 1_555 1_555
C18 S2 1_555 1_555
N1 S1 1_555 1_555

#END
