
#######################################################################
#
#                 Cambridge Crystallographic Data Centre
#                                CCDC 
#
#######################################################################
#
# If this CIF has been generated from an entry in the Cambridge 
# Structural Database, then it will include bibliographic, chemical, 
# crystal, experimental, refinement or atomic coordinate data resulting 
# from the CCDC's data processing and validation procedures.
#
#######################################################################

data_FAWDUF
_chemical_name_common            
(3aR,8aS)-4,7-dichloro-2,3,3a,8a-tetrahydrofuro[2,3-b]benzofuran-5-ol
_chemical_formula_moiety         'C10 H8 Cl2 O3'
_chemical_name_systematic        
4,7-dichloro-2,3,3a,8a-tetrahydrofuro[2,3-b][1]benzofuran-5-ol
_symmetry_cell_setting           orthorhombic
_symmetry_space_group_name_H-M   'P 21 21 21'
_symmetry_Int_Tables_number      19
_space_group_name_Hall           'P 2ac 2ab'
loop_
_symmetry_equiv_pos_site_id
_symmetry_equiv_pos_as_xyz
1 x,y,z
2 1/2-x,-y,1/2+z
3 -x,1/2+y,1/2-z
4 1/2+x,1/2-y,-z
_cell_length_a                   5.2310(7)
_cell_length_b                   12.3258(16)
_cell_length_c                   15.554(2)
_cell_angle_alpha                90
_cell_angle_beta                 90
_cell_angle_gamma                90
_cell_volume                     1002.86
_exptl_crystal_colour            colorless
_exptl_crystal_description       prismatic
_cell_formula_units_Z            4
loop_
_atom_site_label
_atom_site_type_symbol
_atom_site_fract_x
_atom_site_fract_y
_atom_site_fract_z
Cl1 Cl 0.23490(14) 0.66097(7) -0.05709(5)
Cl2 Cl -0.41867(16) 0.28530(6) 0.09524(5)
O1 O -0.1777(4) 0.55022(19) -0.14479(11)
H1 H -0.2974 0.5184 -0.1676
O2 O 0.0101(4) 0.41132(13) 0.18404(11)
O3 O 0.0800(4) 0.55634(15) 0.27583(11)
C1 C 0.0902(5) 0.5237(2) 0.06921(15)
C2 C 0.0486(5) 0.5590(2) -0.01401(16)
C3 C -0.1435(5) 0.5113(2) -0.06357(16)
C4 C -0.2884(5) 0.4287(2) -0.02914(16)
H2 H -0.4187 0.3978 -0.0617
C5 C -0.2422(5) 0.3910(2) 0.05356(17)
C6 C -0.0542(5) 0.43947(19) 0.10145(15)
C7 C 0.1951(5) 0.4888(2) 0.21429(16)
H3 H 0.3452 0.4521 0.2383
C8 C 0.2712(5) 0.5625(2) 0.13747(16)
H4 H 0.4506 0.5532 0.1208
C9 C 0.2148(6) 0.6769(2) 0.17078(18)
H5 H 0.3640 0.7085 0.1981
H6 H 0.1577 0.7242 0.1248
C10 C 0.0052(6) 0.6567(2) 0.23482(19)
H7 H -0.0052 0.7153 0.2763
H8 H -0.1588 0.6492 0.2063
loop_
_geom_bond_atom_site_label_1
_geom_bond_atom_site_label_2
_geom_bond_site_symmetry_1
_geom_bond_site_symmetry_2
Cl1 C2 1_555 1_555
Cl2 C5 1_555 1_555
O1 H1 1_555 1_555
O2 C6 1_555 1_555
O3 C7 1_555 1_555
C1 C2 1_555 1_555
C2 C3 1_555 1_555
C3 O1 1_555 1_555
C4 C3 1_555 1_555
H2 C4 1_555 1_555
C5 C4 1_555 1_555
C6 C1 1_555 1_555
C7 O2 1_555 1_555
H3 C7 1_555 1_555
C8 C1 1_555 1_555
H4 C8 1_555 1_555
C9 C8 1_555 1_555
H5 C9 1_555 1_555
H6 C9 1_555 1_555
C10 O3 1_555 1_555
H7 C10 1_555 1_555
H8 C10 1_555 1_555
C5 C6 1_555 1_555
C7 C8 1_555 1_555
C9 C10 1_555 1_555

#END
