
#######################################################################
#
#                 Cambridge Crystallographic Data Centre
#                                CCDC 
#
#######################################################################
#
# If this CIF has been generated from an entry in the Cambridge 
# Structural Database, then it will include bibliographic, chemical, 
# crystal, experimental, refinement or atomic coordinate data resulting 
# from the CCDC's data processing and validation procedures.
#
#######################################################################

data_FAWDAL
_chemical_formula_moiety         'C22 H26 Cl1 N1 O3 S1'
_chemical_name_systematic        
N-(4-chloro-3-((4-methylphenyl)acetyl)cyclohexyl)-4-methylbenzenesulfonamide
_symmetry_cell_setting           orthorhombic
_symmetry_space_group_name_H-M   'P b c a'
_symmetry_Int_Tables_number      61
_space_group_name_Hall           '-P 2ac 2ab'
loop_
_symmetry_equiv_pos_site_id
_symmetry_equiv_pos_as_xyz
1 x,y,z
2 1/2-x,-y,1/2+z
3 -x,1/2+y,1/2-z
4 1/2+x,1/2-y,-z
5 -x,-y,-z
6 1/2+x,y,1/2-z
7 x,1/2-y,1/2+z
8 1/2-x,1/2+y,z
_cell_length_a                   17.9467(8)
_cell_length_b                   9.5190(4)
_cell_length_c                   24.9261(11)
_cell_angle_alpha                90
_cell_angle_beta                 90
_cell_angle_gamma                90
_cell_volume                     4258.24
_exptl_crystal_colour            colorless
_exptl_crystal_description       prism
_cell_formula_units_Z            8
loop_
_atom_site_label
_atom_site_type_symbol
_atom_site_fract_x
_atom_site_fract_y
_atom_site_fract_z
C1 C 0.9851(2) 0.6280(4) 0.33729(14)
C2 C 0.9915(2) 0.5171(4) 0.37288(16)
H1 H 1.0182 0.4348 0.3631
C3 C 0.9588(2) 0.5275(4) 0.42264(16)
H2 H 0.9632 0.4511 0.4469
C4 C 0.9196(2) 0.6460(4) 0.43838(16)
C5 C 0.8853(3) 0.6562(5) 0.49348(17)
H3 H 0.8956 0.5698 0.5135
H4 H 0.8313 0.6688 0.4901
H5 H 0.9067 0.7366 0.5126
C6 C 0.9130(2) 0.7553(4) 0.40174(17)
H6 H 0.8859 0.8370 0.4116
C7 C 0.9449(2) 0.7481(4) 0.35155(16)
H7 H 0.9396 0.8237 0.3270
C8 C 0.9105(2) 0.5854(4) 0.21294(14)
H8 H 0.9145 0.4929 0.2317
C9 C 0.8372(2) 0.6539(4) 0.22917(15)
H9 H 0.8351 0.7505 0.2145
H10 H 0.8345 0.6602 0.2688
C10 C 0.7705(2) 0.5696(5) 0.20830(15)
H11 H 0.7692 0.4767 0.2261
H12 H 0.7238 0.6197 0.2171
C11 C 0.7760(2) 0.5497(4) 0.14825(15)
H13 H 0.7760 0.6442 0.1307
C12 C 0.8470(2) 0.4730(4) 0.13248(15)
H14 H 0.8476 0.3787 0.1501
C13 C 0.9140(2) 0.5594(4) 0.15246(14)
H15 H 0.9606 0.5086 0.1438
H16 H 0.9151 0.6507 0.1335
C14 C 0.8538(2) 0.4541(4) 0.07216(15)
C15 C 0.8902(3) 0.3226(5) 0.05199(16)
H17 H 0.8762 0.2436 0.0758
H18 H 0.9449 0.3342 0.0541
C16 C 0.8693(2) 0.2856(5) -0.00479(16)
C17 C 0.8128(2) 0.1912(5) -0.01396(17)
H19 H 0.7882 0.1493 0.0157
C18 C 0.7911(2) 0.1561(5) -0.06516(18)
H20 H 0.7523 0.0894 -0.0700
C19 C 0.8242(3) 0.2154(5) -0.10945(18)
C20 C 0.8018(3) 0.1730(7) -0.16537(19)
H21 H 0.8308 0.2271 -0.1915
H22 H 0.7486 0.1916 -0.1705
H23 H 0.8116 0.0725 -0.1704
C21 C 0.8812(3) 0.3108(5) -0.10025(17)
H24 H 0.9054 0.3532 -0.1300
C22 C 0.9037(3) 0.3459(5) -0.04890(18)
H25 H 0.9429 0.4116 -0.0439
N1 N 0.97499(16) 0.6729(3) 0.22855(11)
H26 H 0.9650 0.7767 0.2264
O1 O 1.05245(14) 0.4794(2) 0.26438(10)
O2 O 1.08948(14) 0.7285(3) 0.27675(10)
O3 O 0.8325(2) 0.5445(3) 0.04189(11)
S1 S 1.03208(5) 0.62362(9) 0.27488(4)
Cl1 Cl 0.69612(6) 0.45182(12) 0.12442(4)
loop_
_geom_bond_atom_site_label_1
_geom_bond_atom_site_label_2
_geom_bond_site_symmetry_1
_geom_bond_site_symmetry_2
C1 C2 1_555 1_555
C2 H1 1_555 1_555
C3 C2 1_555 1_555
H2 C3 1_555 1_555
C4 C3 1_555 1_555
C5 C4 1_555 1_555
H3 C5 1_555 1_555
H4 C5 1_555 1_555
H5 C5 1_555 1_555
C6 C4 1_555 1_555
H6 C6 1_555 1_555
C7 C1 1_555 1_555
H7 C7 1_555 1_555
C8 H8 1_555 1_555
C9 C8 1_555 1_555
H9 C9 1_555 1_555
H10 C9 1_555 1_555
C10 C9 1_555 1_555
H11 C10 1_555 1_555
H12 C10 1_555 1_555
C11 C10 1_555 1_555
H13 C11 1_555 1_555
C12 C11 1_555 1_555
H14 C12 1_555 1_555
C13 C8 1_555 1_555
H15 C13 1_555 1_555
H16 C13 1_555 1_555
C14 C12 1_555 1_555
C15 C14 1_555 1_555
H17 C15 1_555 1_555
H18 C15 1_555 1_555
C16 C15 1_555 1_555
C17 C16 1_555 1_555
H19 C17 1_555 1_555
C18 C17 1_555 1_555
H20 C18 1_555 1_555
C19 C18 1_555 1_555
C20 C19 1_555 1_555
H21 C20 1_555 1_555
H22 C20 1_555 1_555
H23 C20 1_555 1_555
C21 C19 1_555 1_555
H24 C21 1_555 1_555
C22 C16 1_555 1_555
H25 C22 1_555 1_555
N1 C8 1_555 1_555
H26 N1 1_555 1_555
O1 S1 1_555 1_555
O2 S1 1_555 1_555
O3 C14 1_555 1_555
S1 C1 1_555 1_555
Cl1 C11 1_555 1_555
C6 C7 1_555 1_555
C12 C13 1_555 1_555
C21 C22 1_555 1_555
N1 S1 1_555 1_555

#END
