
#######################################################################
#
#                 Cambridge Crystallographic Data Centre
#                                CCDC 
#
#######################################################################
#
# If this CIF has been generated from an entry in the Cambridge 
# Structural Database, then it will include bibliographic, chemical, 
# crystal, experimental, refinement or atomic coordinate data resulting 
# from the CCDC's data processing and validation procedures.
#
#######################################################################

data_FAWFOA
_chemical_formula_moiety         'C31 H36 N2 O4 S1'
_chemical_name_systematic        
N-(1-(4-Isobutyl-2-(2-naphthyl)-5-oxo-4,5-dihydro-1,3-oxazol-4-yl)pent-4-en-1-yl)-4-isopropylbenzenesulfonamide
_symmetry_cell_setting           orthorhombic
_symmetry_space_group_name_H-M   'P 21 21 21'
_symmetry_Int_Tables_number      19
_space_group_name_Hall           'P 2ac 2ab'
loop_
_symmetry_equiv_pos_site_id
_symmetry_equiv_pos_as_xyz
1 x,y,z
2 1/2-x,-y,1/2+z
3 1/2+x,1/2-y,-z
4 -x,1/2+y,1/2-z
_cell_length_a                   6.1988(2)
_cell_length_b                   20.0620(10)
_cell_length_c                   23.6860(10)
_cell_angle_alpha                90
_cell_angle_beta                 90
_cell_angle_gamma                90
_cell_volume                     2945.6
_exptl_crystal_colour            colorless
_exptl_crystal_description       block
_cell_formula_units_Z            4
loop_
_atom_site_label
_atom_site_type_symbol
_atom_site_fract_x
_atom_site_fract_y
_atom_site_fract_z
S1 S 1.1554(3) 1.11101(8) 0.76696(7)
O1 O 0.5977(7) 0.9311(2) 0.62326(17)
O2 O 1.0162(9) 1.1658(2) 0.7750(2)
O3 O 1.3834(8) 1.1202(3) 0.7599(2)
O4 O 0.4307(7) 0.9711(3) 0.7007(2)
N1 N 1.0764(8) 1.0714(3) 0.7109(2)
C1 C 0.8600(9) 0.8999(3) 0.5523(2)
N2 N 0.9460(8) 0.9582(3) 0.6396(2)
C2 C 0.7596(10) 0.8282(3) 0.4742(2)
C3 C 1.0624(10) 0.9109(3) 0.5268(3)
H1 H 1.1624 0.9383 0.5447
C4 C 0.9665(10) 0.8399(3) 0.4483(3)
C5 C 0.7101(10) 0.8592(3) 0.5257(2)
H2 H 0.5757 0.8524 0.5422
C6 C 0.6148(12) 0.7852(3) 0.4467(3)
H3 H 0.4800 0.7771 0.4625
C7 C 0.8233(9) 0.9793(3) 0.6896(3)
C8 C 0.5932(11) 0.9628(3) 0.6750(3)
C9 C 0.8501(10) 1.0557(3) 0.6988(3)
H4 H 0.7636 1.0686 0.7317
C10 C 1.1169(10) 1.0585(3) 0.8258(3)
C11 C 0.8941(12) 0.9405(3) 0.7425(3)
H5 H 0.7968 0.9516 0.7732
H6 H 1.0370 0.9556 0.7532
C12 C 0.9001(14) 0.8633(3) 0.7362(3)
H7 H 0.9314 0.8530 0.6966
C13 C 1.1137(11) 0.8823(3) 0.4768(3)
H8 H 1.2480 0.8906 0.4608
C14 C 0.8135(9) 0.9317(3) 0.6067(3)
C15 C 1.0444(19) 0.9723(5) 0.9138(5)
C16 C 0.9289(11) 1.0638(3) 0.8570(3)
H9 H 0.8275 1.0965 0.8486
C17 C 1.0140(12) 0.8086(4) 0.3969(3)
H10 H 1.1476 0.8153 0.3800
C18 C 0.8946(13) 1.0196(4) 0.9007(3)
H11 H 0.7677 1.0222 0.9216
C19 C 0.8673(15) 0.7686(4) 0.3717(3)
H12 H 0.8987 0.7498 0.3368
C20 C 0.7712(14) 1.0953(3) 0.6484(3)
H13 H 0.6274 1.0800 0.6387
H14 H 0.8645 1.0858 0.6165
C21 C 0.6702(14) 0.7554(3) 0.3973(3)
H15 H 0.5749 0.7257 0.3803
C22 C 1.2705(12) 1.0117(4) 0.8401(3)
H16 H 1.3987 1.0095 0.8197
C23 C 1.2358(15) 0.9679(4) 0.8843(3)
H17 H 1.3390 0.9362 0.8938
C24 C 0.764(2) 1.1712(4) 0.6572(4)
H18 H 0.6547 1.1815 0.6852
H19 H 0.9019 1.1859 0.6719
C25 C 0.9962(19) 0.9265(7) 0.9599(6)
H20 H 1.0824 0.8916 0.9418
C26 C 1.0776(18) 0.8353(5) 0.7712(5)
H21 H 1.0244 0.8257 0.8084
H22 H 1.1929 0.8671 0.7737
H23 H 1.1300 0.7950 0.7542
C27 C 0.6931(17) 0.8315(6) 0.7509(6)
H24 H 0.6947 0.7859 0.7388
H25 H 0.5774 0.8547 0.7324
H26 H 0.6724 0.8334 0.7910
C28 C 1.1355(19) 0.9246(7) 1.0092(5)
H27 H 1.0959 0.9598 1.0347
H28 H 1.2828 0.9304 0.9977
H29 H 1.1198 0.8824 1.0279
C29 C 0.8090(19) 0.8821(7) 0.9618(5)
H30 H 0.6792 0.9081 0.9635
H31 H 0.8180 0.8542 0.9947
H32 H 0.8069 0.8548 0.9285
C30 C 0.716(2) 1.2087(6) 0.6046(5)
H33 H 0.8170 1.2095 0.5756
C31 C 0.532(2) 1.2407(8) 0.5982(8)
H34 H 0.4302 1.2402 0.6270
H35 H 0.5049 1.2639 0.5650
H36 H 1.196(14) 1.049(6) 0.702(6)
loop_
_geom_bond_atom_site_label_1
_geom_bond_atom_site_label_2
_geom_bond_site_symmetry_1
_geom_bond_site_symmetry_2
S1 O2 1_555 1_555
O1 C8 1_555 1_555
O3 S1 1_555 1_555
O4 C8 1_555 1_555
N1 S1 1_555 1_555
C1 C3 1_555 1_555
N2 C7 1_555 1_555
C2 C4 1_555 1_555
C3 H1 1_555 1_555
C4 C13 1_555 1_555
C5 C1 1_555 1_555
H2 C5 1_555 1_555
C6 C2 1_555 1_555
H3 C6 1_555 1_555
C7 C8 1_555 1_555
C9 N1 1_555 1_555
H4 C9 1_555 1_555
C10 S1 1_555 1_555
C11 C7 1_555 1_555
H5 C11 1_555 1_555
H6 C11 1_555 1_555
C12 C11 1_555 1_555
H7 C12 1_555 1_555
C13 C3 1_555 1_555
H8 C13 1_555 1_555
C14 O1 1_555 1_555
C15 C18 1_555 1_555
C16 C10 1_555 1_555
H9 C16 1_555 1_555
C17 C4 1_555 1_555
H10 C17 1_555 1_555
C18 C16 1_555 1_555
H11 C18 1_555 1_555
C19 C17 1_555 1_555
H12 C19 1_555 1_555
C20 C9 1_555 1_555
H13 C20 1_555 1_555
H14 C20 1_555 1_555
C21 C6 1_555 1_555
H15 C21 1_555 1_555
C22 C10 1_555 1_555
H16 C22 1_555 1_555
C23 C15 1_555 1_555
H17 C23 1_555 1_555
C24 C20 1_555 1_555
H18 C24 1_555 1_555
H19 C24 1_555 1_555
C25 C15 1_555 1_555
H20 C25 1_555 1_555
C26 C12 1_555 1_555
H21 C26 1_555 1_555
H22 C26 1_555 1_555
H23 C26 1_555 1_555
C27 C12 1_555 1_555
H24 C27 1_555 1_555
H25 C27 1_555 1_555
H26 C27 1_555 1_555
C28 C25 1_555 1_555
H27 C28 1_555 1_555
H28 C28 1_555 1_555
H29 C28 1_555 1_555
C29 C25 1_555 1_555
H30 C29 1_555 1_555
H31 C29 1_555 1_555
H32 C29 1_555 1_555
C30 C24 1_555 1_555
H33 C30 1_555 1_555
C31 C30 1_555 1_555
H34 C31 1_555 1_555
H35 C31 1_555 1_555
H36 N1 1_555 1_555
C1 C14 1_555 1_555
N2 C14 1_555 1_555
C2 C5 1_555 1_555
C7 C9 1_555 1_555
C19 C21 1_555 1_555
C22 C23 1_555 1_555

#END
