
#######################################################################
#
#                 Cambridge Crystallographic Data Centre
#                                CCDC 
#
#######################################################################
#
# If this CIF has been generated from an entry in the Cambridge 
# Structural Database, then it will include bibliographic, chemical, 
# crystal, experimental, refinement or atomic coordinate data resulting 
# from the CCDC's data processing and validation procedures.
#
#######################################################################

data_FAWGIW
_chemical_formula_moiety         'C19 H28 O2'
_chemical_name_systematic        3-hydroxyandrost-14-en-17-one
_symmetry_cell_setting           monoclinic
_symmetry_space_group_name_H-M   'P 21'
_symmetry_Int_Tables_number      4
_space_group_name_Hall           'P 2yb'
loop_
_symmetry_equiv_pos_site_id
_symmetry_equiv_pos_as_xyz
1 x,y,z
2 -x,1/2+y,-z
_cell_length_a                   11.0794(8)
_cell_length_b                   7.1324(5)
_cell_length_c                   31.919(2)
_cell_angle_alpha                90
_cell_angle_beta                 95.746(2)
_cell_angle_gamma                90
_cell_volume                     2509.65
_exptl_crystal_colour            white
_exptl_crystal_description       block
_cell_formula_units_Z            6
loop_
_atom_site_label
_atom_site_type_symbol
_atom_site_fract_x
_atom_site_fract_y
_atom_site_fract_z
C1 C 0.2850(3) 1.2305(4) 0.98820(8)
H1 H 0.2193 1.3006 1.0002
H2 H 0.3582 1.3109 0.9906
C2 C 0.2471(3) 1.1908(5) 0.94191(9)
H3 H 0.2222 1.3094 0.9274
H4 H 0.3172 1.1397 0.9287
C3 C 0.0933(3) 1.0268(5) 0.89012(9)
H5 H 0.0719 1.1508 0.8776
H6 H 0.1568 0.9707 0.8743
O1 O 0.3396(3) 0.9528(4) 1.16601(6)
C4 C 0.4736(3) 0.8257(6) 1.09040(11)
H7 H 0.4795 0.7698 1.0626
H8 H 0.4790 0.7267 1.1118
H9 H 0.5401 0.9151 1.0967
O2 O -0.0578(3) 0.8711(5) 0.84283(8)
H10 H -0.1027 0.9601 0.8338
C5 C 0.0101(3) 0.7194(5) 0.90708(10)
H11 H 0.0697 0.6500 0.8919
H12 H -0.0653 0.6443 0.9056
C6 C 0.0604(3) 0.7431(5) 0.95299(9)
H13 H 0.0797 0.6177 0.9652
H14 H -0.0032 0.7994 0.9687
C7 C 0.3796(4) 1.2308(5) 1.12682(9)
H15 H 0.3240 1.3102 1.1416
H16 H 0.4645 1.2630 1.1369
C8 C 0.3563(3) 1.2515(5) 1.07996(9)
H17 H 0.3526 1.3691 1.0659
C9 C 0.3414(2) 1.0894(4) 1.06033(8)
C10 C 0.3119(2) 1.0517(4) 1.01379(8)
H18 H 0.3848 0.9917 1.0034
C11 C 0.1437(3) 1.0529(4) 0.93656(8)
H19 H 0.0765 1.1096 0.9510
C12 C -0.0162(3) 0.9035(6) 0.88608(10)
H20 H -0.0822 0.9670 0.8999
C13 C 0.3548(3) 1.0268(5) 1.13280(9)
C14 C 0.3527(3) 0.9273(4) 1.09048(8)
C15 C 0.1748(2) 0.8662(4) 0.95917(8)
C16 C 0.2790(3) 0.7640(5) 0.94142(8)
H21 H 0.2886 0.6394 0.9543
H22 H 0.3540 0.8358 0.9477
H23 H 0.2614 0.7510 0.9108
C17 C 0.2061(2) 0.9114(4) 1.00674(8)
H24 H 0.1334 0.9761 1.0161
C18 C 0.2280(3) 0.7390(4) 1.03496(8)
H25 H 0.3005 0.6714 1.0272
H26 H 0.1576 0.6535 1.0302
C19 C 0.2468(3) 0.7910(4) 1.08166(8)
H27 H 0.1718 0.8492 1.0902
H28 H 0.2630 0.6759 1.0986
C20 C 0.3460(3) 0.1489(4) 0.35166(7)
H29 H 0.3398 0.0170 0.3609
H30 H 0.4319 0.1877 0.3570
C21 C 0.3063(3) 0.1621(4) 0.30449(8)
H31 H 0.3623 0.0880 0.2887
H32 H 0.2239 0.1086 0.2985
C22 C 0.2820(3) 0.3804(4) 0.24177(8)
H33 H 0.3413 0.3022 0.2284
H34 H 0.1997 0.3327 0.2326
O3 O 0.2628(2) 0.5885(3) 0.18295(5)
H35 H 0.2632 0.7006 0.1749
C23 C 0.1910(3) 0.5985(4) 0.38864(8)
H36 H 0.1060 0.5540 0.3865
H37 H 0.1906 0.7289 0.3780
C24 C 0.2425(3) 0.5972(4) 0.43496(8)
H38 H 0.1908 0.6753 0.4516
H39 H 0.3251 0.6520 0.4377
C25 C 0.1226(3) 0.3232(6) 0.46068(9)
H40 H 0.0688 0.3245 0.4344
H41 H 0.0888 0.4036 0.4815
H42 H 0.1301 0.1947 0.4715
O4 O 0.32746(19) 0.4818(3) 0.52381(6)
C26 C 0.2337(3) 0.6901(4) 0.29749(8)
H43 H 0.1758 0.7714 0.3107
H44 H 0.3167 0.7354 0.3066
C27 C 0.2105(3) 0.7081(4) 0.24977(7)
H45 H 0.1248 0.6764 0.2408
H46 H 0.2243 0.8396 0.2415
C28 C 0.4186(3) 0.2235(5) 0.48998(8)
H47 H 0.3989 0.1151 0.5074
H48 H 0.5029 0.2641 0.4985
C29 C 0.4009(2) 0.1761(4) 0.44379(8)
H49 H 0.4497 0.0887 0.4306
C30 C 0.3097(2) 0.2701(4) 0.42359(7)
C31 C 0.2687(2) 0.2719(4) 0.37723(7)
H50 H 0.1843 0.2207 0.3736
C32 C 0.3060(2) 0.3645(4) 0.28985(7)
H51 H 0.3899 0.4133 0.2975
C33 C 0.2922(3) 0.5808(4) 0.22770(7)
H52 H 0.3780 0.6230 0.2345
C34 C 0.2626(2) 0.4766(3) 0.36112(7)
H53 H 0.3477 0.5249 0.3647
C35 C 0.2478(2) 0.3961(4) 0.45238(7)
C36 C 0.3308(2) 0.3810(4) 0.49351(8)
C37 C 0.2207(2) 0.4890(3) 0.31295(7)
C38 C 0.0874(2) 0.4276(4) 0.30411(8)
H54 H 0.0344 0.5260 0.3134
H55 H 0.0746 0.3114 0.3194
H56 H 0.0683 0.4064 0.2738
O5 O 0.7251(3) 1.0081(6) 0.15600(8)
O6 O 0.7723(3) 0.3539(4) 0.46765(6)
H57 H 0.7523 0.2404 0.4681
C39 C 0.9107(4) 1.0184(8) 0.20245(11)
H58 H 0.9551 0.9161 0.1897
H59 H 0.9413 1.1405 0.1932
C40 C 0.9231(3) 1.0036(5) 0.24915(10)
H60 H 0.9989 1.0086 0.2659
C41 C 0.6580(3) 0.7774(6) 0.23161(9)
H61 H 0.5832 0.7721 0.2119
H62 H 0.7162 0.6851 0.2222
C42 C 0.6276(3) 0.7262(5) 0.27590(9)
H63 H 0.5947 0.5970 0.2756
H64 H 0.5639 0.8119 0.2842
C43 C 0.6106(2) 0.7864(5) 0.36980(9)
H65 H 0.5327 0.7458 0.3554
H66 H 0.6228 0.9199 0.3643
H67 H 0.6105 0.7666 0.4002
C44 C 0.6201(4) 1.1285(7) 0.23393(13)
H68 H 0.5800 1.1112 0.2597
H69 H 0.5595 1.1229 0.2094
H70 H 0.6605 1.2509 0.2348
C45 C 0.7769(4) 1.0011(7) 0.19108(11)
C46 C 0.7131(3) 0.9751(6) 0.23076(10)
C47 C 0.8196(3) 0.9830(5) 0.26485(9)
C48 C 0.7942(2) 0.9370(4) 0.30904(8)
H71 H 0.7318 1.0274 0.3174
C49 C 0.9065(2) 0.9548(4) 0.34071(8)
H72 H 0.9732 0.8800 0.3308
H73 H 0.9327 1.0875 0.3423
C50 C 0.8831(3) 0.8886(4) 0.38423(8)
H74 H 0.9597 0.8927 0.4031
H75 H 0.8243 0.9738 0.3959
C51 C 0.8335(2) 0.6910(4) 0.38273(7)
H76 H 0.8944 0.6126 0.3696
C52 C 0.8251(2) 0.6096(4) 0.42650(8)
H77 H 0.9053 0.6197 0.4430
H78 H 0.7667 0.6846 0.4410
C53 C 0.7858(3) 0.4088(4) 0.42545(9)
H79 H 0.8509 0.3307 0.4146
C54 C 0.7390(2) 0.7381(4) 0.30899(8)
H80 H 0.8013 0.6506 0.2995
C55 C 0.7131(2) 0.6728(4) 0.35358(8)
C56 C 0.6795(3) 0.4632(4) 0.35284(8)
H81 H 0.6011 0.4460 0.3355
H82 H 0.7420 0.3921 0.3394
C57 C 0.6692(3) 0.3831(4) 0.39671(9)
H83 H 0.6019 0.4463 0.4093
H84 H 0.6497 0.2478 0.3943
loop_
_geom_bond_atom_site_label_1
_geom_bond_atom_site_label_2
_geom_bond_site_symmetry_1
_geom_bond_site_symmetry_2
C1 H1 1_555 1_555
H2 C1 1_555 1_555
C2 C1 1_555 1_555
H3 C2 1_555 1_555
H4 C2 1_555 1_555
C3 H5 1_555 1_555
H6 C3 1_555 1_555
O1 C13 1_555 1_555
C4 H7 1_555 1_555
H8 C4 1_555 1_555
H9 C4 1_555 1_555
O2 H10 1_555 1_555
C5 H11 1_555 1_555
H12 C5 1_555 1_555
C6 C5 1_555 1_555
H13 C6 1_555 1_555
H14 C6 1_555 1_555
C7 H15 1_555 1_555
H16 C7 1_555 1_555
C8 C7 1_555 1_555
H17 C8 1_555 1_555
C9 C8 1_555 1_555
C10 C1 1_555 1_555
H18 C10 1_555 1_555
C11 C2 1_555 1_555
H19 C11 1_555 1_555
C12 C3 1_555 1_555
H20 C12 1_555 1_555
C13 C7 1_555 1_555
C14 C4 1_555 1_555
C15 C6 1_555 1_555
C16 C15 1_555 1_555
H21 C16 1_555 1_555
H22 C16 1_555 1_555
H23 C16 1_555 1_555
C17 C10 1_555 1_555
H24 C17 1_555 1_555
C18 C17 1_555 1_555
H25 C18 1_555 1_555
H26 C18 1_555 1_555
C19 C14 1_555 1_555
H27 C19 1_555 1_555
H28 C19 1_555 1_555
C20 H29 1_555 1_555
H30 C20 1_555 1_555
C21 C20 1_555 1_555
H31 C21 1_555 1_555
H32 C21 1_555 1_555
C22 H33 1_555 1_555
H34 C22 1_555 1_555
O3 H35 1_555 1_555
C23 H36 1_555 1_555
H37 C23 1_555 1_555
C24 C23 1_555 1_555
H38 C24 1_555 1_555
H39 C24 1_555 1_555
C25 H40 1_555 1_555
H41 C25 1_555 1_555
H42 C25 1_555 1_555
O4 C36 1_555 1_555
C26 H43 1_555 1_555
H44 C26 1_555 1_555
C27 C26 1_555 1_555
H45 C27 1_555 1_555
H46 C27 1_555 1_555
C28 H47 1_555 1_555
H48 C28 1_555 1_555
C29 C28 1_555 1_555
H49 C29 1_555 1_555
C30 C29 1_555 1_555
C31 C20 1_555 1_555
H50 C31 1_555 1_555
C32 C21 1_555 1_555
H51 C32 1_555 1_555
C33 C22 1_555 1_555
H52 C33 1_555 1_555
C34 C23 1_555 1_555
H53 C34 1_555 1_555
C35 C24 1_555 1_555
C36 C28 1_555 1_555
C37 C26 1_555 1_555
C38 C37 1_555 1_555
H54 C38 1_555 1_555
H55 C38 1_555 1_555
H56 C38 1_555 1_555
O5 C45 1_555 1_555
O6 H57 1_555 1_555
C39 H58 1_555 1_555
H59 C39 1_555 1_555
C40 C39 1_555 1_555
H60 C40 1_555 1_555
C41 H61 1_555 1_555
H62 C41 1_555 1_555
C42 C41 1_555 1_555
H63 C42 1_555 1_555
H64 C42 1_555 1_555
C43 H65 1_555 1_555
H66 C43 1_555 1_555
H67 C43 1_555 1_555
C44 H68 1_555 1_555
H69 C44 1_555 1_555
H70 C44 1_555 1_555
C45 C39 1_555 1_555
C46 C41 1_555 1_555
C47 C40 1_555 1_555
C48 C47 1_555 1_555
H71 C48 1_555 1_555
C49 C48 1_555 1_555
H72 C49 1_555 1_555
H73 C49 1_555 1_555
C50 C49 1_555 1_555
H74 C50 1_555 1_555
H75 C50 1_555 1_555
C51 C50 1_555 1_555
H76 C51 1_555 1_555
C52 C51 1_555 1_555
H77 C52 1_555 1_555
H78 C52 1_555 1_555
C53 O6 1_555 1_555
H79 C53 1_555 1_555
C54 C42 1_555 1_555
H80 C54 1_555 1_555
C55 C43 1_555 1_555
C56 C55 1_555 1_555
H81 C56 1_555 1_555
H82 C56 1_555 1_555
C57 C53 1_555 1_555
H83 C57 1_555 1_555
H84 C57 1_555 1_555
C3 C11 1_555 1_555
O2 C12 1_555 1_555
C5 C12 1_555 1_555
C9 C10 1_555 1_555
C9 C14 1_555 1_555
C11 C15 1_555 1_555
C13 C14 1_555 1_555
C15 C17 1_555 1_555
C18 C19 1_555 1_555
C22 C32 1_555 1_555
O3 C33 1_555 1_555
C25 C35 1_555 1_555
C27 C33 1_555 1_555
C30 C31 1_555 1_555
C30 C35 1_555 1_555
C31 C34 1_555 1_555
C32 C37 1_555 1_555
C34 C37 1_555 1_555
C35 C36 1_555 1_555
C44 C46 1_555 1_555
C45 C46 1_555 1_555
C46 C47 1_555 1_555
C48 C54 1_555 1_555
C51 C55 1_555 1_555
C52 C53 1_555 1_555
C54 C55 1_555 1_555
C56 C57 1_555 1_555

#END
