
#######################################################################
#
#                 Cambridge Crystallographic Data Centre
#                                CCDC 
#
#######################################################################
#
# If this CIF has been generated from an entry in the Cambridge 
# Structural Database, then it will include bibliographic, chemical, 
# crystal, experimental, refinement or atomic coordinate data resulting 
# from the CCDC's data processing and validation procedures.
#
#######################################################################

data_FAWGOC
_chemical_formula_moiety         'C19 H28 O3'
_chemical_name_systematic        3-hydroxy-14,15-epoxyandrostan-17-one
_symmetry_cell_setting           monoclinic
_symmetry_space_group_name_H-M   'P 21'
_symmetry_Int_Tables_number      4
_space_group_name_Hall           'P 2yb'
loop_
_symmetry_equiv_pos_site_id
_symmetry_equiv_pos_as_xyz
1 x,y,z
2 -x,1/2+y,-z
_cell_length_a                   5.9381(4)
_cell_length_b                   22.0582(15)
_cell_length_c                   7.0190(5)
_cell_angle_alpha                90
_cell_angle_beta                 112.939(2)
_cell_angle_gamma                90
_cell_volume                     846.671
_exptl_crystal_colour            white
_exptl_crystal_description       block
_cell_formula_units_Z            2
loop_
_atom_site_label
_atom_site_type_symbol
_atom_site_fract_x
_atom_site_fract_y
_atom_site_fract_z
C1 C 1.0408(3) 0.42218(8) 0.2601(2)
C2 C 0.9000(3) 0.48236(7) 0.2441(2)
H1 H 0.7376 0.4711 0.2456
C3 C 0.8463(3) 0.51478(8) 0.0345(2)
H2 H 1.0055 0.5266 0.0274
C4 C 0.8826(3) 0.38158(8) 0.0763(3)
H3 H 0.7197 0.3775 0.0861
C5 C 0.7062(3) 0.57133(8) 0.0335(2)
C6 C 0.9844(4) 0.31747(9) 0.0887(3)
H4 H 0.8721 0.2932 -0.0283
H5 H 1.1446 0.3193 0.0760
O1 O 0.4494(2) 0.56241(6) -0.0034(2)
C7 C 1.0670(4) 0.38903(8) 0.4600(3)
H6 H 1.1763 0.4128 0.5800
H7 H 0.9047 0.3868 0.4686
O2 O 1.1181(3) 0.22815(7) 0.2927(2)
H8 H 1.1938 0.2171 0.4158
C8 C 1.0207(3) 0.52555(8) 0.4279(3)
H9 H 1.0434 0.5040 0.5578
H10 H 1.1843 0.5373 0.4340
C9 C 0.8221(3) 0.61551(8) 0.2100(3)
C10 C 1.1699(4) 0.32468(9) 0.4739(3)
H11 H 1.3394 0.3268 0.4806
H12 H 1.1748 0.3051 0.6023
C11 C 0.8691(4) 0.58300(8) 0.4126(3)
H13 H 0.7114 0.5720 0.4205
H14 H 0.9580 0.6103 0.5299
O3 O 0.6020(3) 0.70112(7) 0.2748(2)
C12 C 0.7101(4) 0.47296(9) -0.1477(3)
H15 H 0.5420 0.4663 -0.1550
H16 H 0.6975 0.4930 -0.2777
C13 C 1.0155(4) 0.28691(8) 0.2893(3)
H17 H 0.8500 0.2817 0.2932
C14 C 0.8358(4) 0.41193(9) -0.1305(3)
H18 H 0.9933 0.4178 -0.1456
H19 H 0.7321 0.3852 -0.2441
C15 C 0.6335(3) 0.66636(8) 0.1545(3)
C16 C 1.2958(3) 0.43398(9) 0.2597(3)
H20 H 1.2803 0.4592 0.1404
H21 H 1.3723 0.3953 0.2510
H22 H 1.3974 0.4550 0.3875
C17 C 1.0544(4) 0.64452(10) 0.2033(4)
H23 H 1.0154 0.6639 0.0684
H24 H 1.1787 0.6131 0.2242
H25 H 1.1172 0.6750 0.3129
C18 C 0.4916(4) 0.66743(9) -0.0781(3)
H26 H 0.3187 0.6789 -0.1141
H27 H 0.5660 0.6958 -0.1462
C19 C 0.5138(3) 0.60270(9) -0.1368(3)
H28 H 0.4774 0.5915 -0.2839
loop_
_geom_bond_atom_site_label_1
_geom_bond_atom_site_label_2
_geom_bond_site_symmetry_1
_geom_bond_site_symmetry_2
C1 C2 1_555 1_555
C2 H1 1_555 1_555
C3 C2 1_555 1_555
H2 C3 1_555 1_555
C4 C1 1_555 1_555
H3 C4 1_555 1_555
C5 C3 1_555 1_555
C6 C4 1_555 1_555
H4 C6 1_555 1_555
H5 C6 1_555 1_555
O1 C5 1_555 1_555
C7 C1 1_555 1_555
H6 C7 1_555 1_555
H7 C7 1_555 1_555
O2 H8 1_555 1_555
C8 C2 1_555 1_555
H9 C8 1_555 1_555
H10 C8 1_555 1_555
C9 C5 1_555 1_555
C10 C7 1_555 1_555
H11 C10 1_555 1_555
H12 C10 1_555 1_555
C11 C8 1_555 1_555
H13 C11 1_555 1_555
H14 C11 1_555 1_555
O3 C15 1_555 1_555
C12 C3 1_555 1_555
H15 C12 1_555 1_555
H16 C12 1_555 1_555
C13 C6 1_555 1_555
H17 C13 1_555 1_555
C14 C4 1_555 1_555
H18 C14 1_555 1_555
H19 C14 1_555 1_555
C15 C9 1_555 1_555
C16 C1 1_555 1_555
H20 C16 1_555 1_555
H21 C16 1_555 1_555
H22 C16 1_555 1_555
C17 C9 1_555 1_555
H23 C17 1_555 1_555
H24 C17 1_555 1_555
H25 C17 1_555 1_555
C18 C15 1_555 1_555
H26 C18 1_555 1_555
H27 C18 1_555 1_555
C19 C5 1_555 1_555
H28 C19 1_555 1_555
O1 C19 1_555 1_555
O2 C13 1_555 1_555
C9 C11 1_555 1_555
C10 C13 1_555 1_555
C12 C14 1_555 1_555
C18 C19 1_555 1_555

#END
