
#######################################################################
#
#                 Cambridge Crystallographic Data Centre
#                                CCDC 
#
#######################################################################
#
# If this CIF has been generated from an entry in the Cambridge 
# Structural Database, then it will include bibliographic, chemical, 
# crystal, experimental, refinement or atomic coordinate data resulting 
# from the CCDC's data processing and validation procedures.
#
#######################################################################

data_FAWLOH
_chemical_formula_moiety         'C24 H32 N2 O4'
_chemical_name_systematic        
2,2'-{1,2-bis[(1-hydroxy-3-methylbutan-2-yl)imino]ethane-1,2-diyl}diphenol
_symmetry_cell_setting           orthorhombic
_symmetry_space_group_name_H-M   'P 21 21 21'
_symmetry_Int_Tables_number      19
_space_group_name_Hall           'P 2ac 2ab'
loop_
_symmetry_equiv_pos_site_id
_symmetry_equiv_pos_as_xyz
1 x,y,z
2 1/2+x,1/2-y,-z
3 -x,1/2+y,1/2-z
4 1/2-x,-y,1/2+z
_cell_length_a                   10.3646(6)
_cell_length_b                   18.3605(10)
_cell_length_c                   25.0181(15)
_cell_angle_alpha                90
_cell_angle_beta                 90
_cell_angle_gamma                90
_cell_volume                     4760.93
_exptl_crystal_colour            yellow
_exptl_crystal_description       Block
_cell_formula_units_Z            8
loop_
_atom_site_label
_atom_site_type_symbol
_atom_site_fract_x
_atom_site_fract_y
_atom_site_fract_z
O1 O 1.22915(14) 0.48789(9) 0.50649(6)
O2 O 0.69188(12) 0.35990(7) 0.34858(5)
O3 O 0.90746(15) 0.59672(8) 0.50894(7)
O4 O 0.75639(15) 0.58614(8) 0.41749(6)
N1 N 0.99034(14) 0.44970(8) 0.49932(6)
N2 N 0.86722(14) 0.44876(7) 0.37857(6)
C1 C 1.01381(16) 0.42105(9) 0.45355(7)
C2 C 0.90801(16) 0.40285(9) 0.41357(7)
C3 C 1.14827(17) 0.40743(10) 0.43808(7)
C4 C 1.24963(18) 0.44324(11) 0.46432(7)
C5 C 1.37613(19) 0.43303(13) 0.44684(9)
H1 H 1.4443 0.4602 0.4626
C6 C 1.4024(2) 0.38379(14) 0.40690(9)
H2 H 1.4892 0.3762 0.3960
C7 C 1.3045(2) 0.34520(14) 0.38236(9)
H3 H 1.3238 0.3099 0.3558
C8 C 1.1781(2) 0.35861(11) 0.39690(8)
H4 H 1.1103 0.3343 0.3786
C9 C 0.84914(17) 0.33023(9) 0.41617(7)
C10 C 0.74222(17) 0.31222(9) 0.38400(7)
C11 C 0.6864(2) 0.24335(10) 0.38801(9)
H5 H 0.6128 0.2317 0.3670
C12 C 0.7372(2) 0.19225(11) 0.42205(9)
H6 H 0.6986 0.1454 0.4243
C13 C 0.8436(2) 0.20820(11) 0.45296(10)
H7 H 0.8788 0.1722 0.4760
C14 C 0.8989(2) 0.27644(10) 0.45037(8)
H8 H 0.9717 0.2872 0.4720
C15 C 0.85920(18) 0.46660(10) 0.51673(7)
H9 H 0.8024 0.4708 0.4846
C16 C 0.86593(19) 0.54034(11) 0.54427(8)
H10 H 0.7796 0.5528 0.5586
H11 H 0.9264 0.5373 0.5748
C17 C 0.80722(19) 0.40496(12) 0.55309(8)
H12 H 0.8228 0.3581 0.5338
C18 C 0.8759(2) 0.39912(16) 0.60632(9)
H13 H 0.8508 0.3536 0.6240
H14 H 0.8518 0.4406 0.6289
H15 H 0.9693 0.3994 0.6005
C19 C 0.6618(2) 0.41144(19) 0.56086(12)
H16 H 0.6296 0.3681 0.5795
H17 H 0.6196 0.4155 0.5259
H18 H 0.6426 0.4549 0.5822
C20 C 0.92422(18) 0.52122(9) 0.37179(8)
H19 H 0.9767 0.5333 0.4041
C21 C 0.81534(19) 0.57621(10) 0.36649(8)
H20 H 0.8498 0.6232 0.3533
H21 H 0.7507 0.5584 0.3405
C22 C 1.0133(2) 0.51920(11) 0.32242(10)
H22 H 1.0715 0.4762 0.3268
C23 C 0.9402(3) 0.50852(12) 0.26994(9)
H23 H 1.0019 0.5053 0.2403
H24 H 0.8823 0.5499 0.2641
H25 H 0.8896 0.4635 0.2718
C24 C 1.0992(3) 0.58632(15) 0.31967(13)
H26 H 1.1588 0.5817 0.2895
H27 H 1.1484 0.5907 0.3529
H28 H 1.0455 0.6298 0.3148
H29 H 1.146(3) 0.4852(16) 0.5140(11)
H30 H 0.742(3) 0.4009(15) 0.3518(10)
H31 H 0.859(3) 0.5978(19) 0.4789(13)
H32 H 0.691(3) 0.6149(15) 0.4134(10)
O5 O 0.29993(12) 0.16050(7) 0.25562(5)
O6 O 0.3124(2) 0.51698(8) 0.13063(6)
O7 O 0.44656(14) 0.18623(8) 0.08914(6)
O8 O 0.39670(15) 0.31536(9) 0.04223(6)
N3 N 0.39831(13) 0.25227(7) 0.19127(6)
N4 N 0.24861(14) 0.38196(7) 0.12491(6)
C25 C 0.30241(16) 0.29557(8) 0.19763(6)
C26 C 0.29475(16) 0.37073(9) 0.17169(7)
C27 C 0.19669(16) 0.27405(8) 0.23343(6)
C28 C 0.20104(16) 0.20729(8) 0.26154(6)
C29 C 0.10168(17) 0.18850(9) 0.29639(7)
H33 H 0.1050 0.1435 0.3151
C30 C -0.00098(18) 0.23460(10) 0.30393(7)
H34 H -0.0686 0.2211 0.3275
C31 C -0.00667(17) 0.30102(10) 0.27727(7)
H35 H -0.0774 0.3330 0.2829
C32 C 0.09097(17) 0.32016(9) 0.24260(7)
H36 H 0.0866 0.3656 0.2245
C33 C 0.34610(17) 0.43221(9) 0.20274(7)
C34 C 0.3543(2) 0.50214(10) 0.18029(8)
C35 C 0.4096(3) 0.55843(11) 0.20969(8)
H37 H 0.4158 0.6057 0.1945
C36 C 0.4550(2) 0.54649(11) 0.26019(9)
H38 H 0.4931 0.5855 0.2795
C37 C 0.4464(2) 0.47859(11) 0.28366(9)
H39 H 0.4772 0.4707 0.3190
C38 C 0.3921(2) 0.42252(10) 0.25481(8)
H40 H 0.3857 0.3757 0.2708
C39 C 0.51130(16) 0.27169(9) 0.15922(7)
H41 H 0.4876 0.3130 0.1351
C40 C 0.54639(17) 0.20615(10) 0.12507(8)
H42 H 0.6254 0.2174 0.1044
H43 H 0.5657 0.1643 0.1487
C41 C 0.62067(18) 0.29718(10) 0.19709(8)
H44 H 0.5851 0.3386 0.2184
C42 C 0.6620(2) 0.23982(12) 0.23654(9)
H45 H 0.7253 0.2606 0.2613
H46 H 0.7008 0.1988 0.2173
H47 H 0.5866 0.2228 0.2566
C43 C 0.7340(3) 0.3268(2) 0.16620(12)
H48 H 0.7935 0.3511 0.1908
H49 H 0.7034 0.3617 0.1395
H50 H 0.7788 0.2866 0.1482
C44 C 0.19868(18) 0.32301(9) 0.09150(7)
H51 H 0.2243 0.2753 0.1076
C45 C 0.2627(2) 0.33053(11) 0.03657(8)
H52 H 0.2231 0.2959 0.0110
H53 H 0.2503 0.3805 0.0227
C46 C 0.0515(2) 0.32743(12) 0.08957(10)
H54 H 0.0200 0.3337 0.1271
C47 C 0.0032(3) 0.39213(18) 0.05714(16)
H55 H -0.0913 0.3936 0.0583
H56 H 0.0318 0.3872 0.0200
H57 H 0.0380 0.4373 0.0723
C48 C -0.0044(3) 0.25682(17) 0.06838(13)
H58 H -0.0987 0.2602 0.0676
H59 H 0.0215 0.2165 0.0917
H60 H 0.0280 0.2481 0.0321
H61 H 0.361(3) 0.1819(14) 0.2316(10)
H62 H 0.280(4) 0.477(2) 0.1178(13)
H63 H 0.427(3) 0.2229(17) 0.0703(11)
H64 H 0.451(3) 0.3438(16) 0.0258(11)
loop_
_geom_bond_atom_site_label_1
_geom_bond_atom_site_label_2
_geom_bond_site_symmetry_1
_geom_bond_site_symmetry_2
O1 C4 1_555 1_555
O2 C10 1_555 1_555
O3 C16 1_555 1_555
O4 C21 1_555 1_555
N1 C1 1_555 1_555
N2 C2 1_555 1_555
C1 C2 1_555 1_555
C2 C9 1_555 1_555
C3 C1 1_555 1_555
C4 C3 1_555 1_555
C5 C4 1_555 1_555
H1 C5 1_555 1_555
C6 C5 1_555 1_555
H2 C6 1_555 1_555
C7 C6 1_555 1_555
H3 C7 1_555 1_555
C8 C3 1_555 1_555
H4 C8 1_555 1_555
C9 C10 1_555 1_555
C10 C11 1_555 1_555
C11 H5 1_555 1_555
C12 C11 1_555 1_555
H6 C12 1_555 1_555
C13 C12 1_555 1_555
H7 C13 1_555 1_555
C14 C9 1_555 1_555
H8 C14 1_555 1_555
C15 N1 1_555 1_555
H9 C15 1_555 1_555
C16 C15 1_555 1_555
H10 C16 1_555 1_555
H11 C16 1_555 1_555
C17 C15 1_555 1_555
H12 C17 1_555 1_555
C18 C17 1_555 1_555
H13 C18 1_555 1_555
H14 C18 1_555 1_555
H15 C18 1_555 1_555
C19 C17 1_555 1_555
H16 C19 1_555 1_555
H17 C19 1_555 1_555
H18 C19 1_555 1_555
C20 N2 1_555 1_555
H19 C20 1_555 1_555
C21 C20 1_555 1_555
H20 C21 1_555 1_555
H21 C21 1_555 1_555
C22 C20 1_555 1_555
H22 C22 1_555 1_555
C23 C22 1_555 1_555
H23 C23 1_555 1_555
H24 C23 1_555 1_555
H25 C23 1_555 1_555
C24 C22 1_555 1_555
H26 C24 1_555 1_555
H27 C24 1_555 1_555
H28 C24 1_555 1_555
H29 O1 1_555 1_555
H30 O2 1_555 1_555
H31 O3 1_555 1_555
H32 O4 1_555 1_555
O5 C28 1_555 1_555
O6 C34 1_555 1_555
O7 C40 1_555 1_555
O8 C45 1_555 1_555
N3 C25 1_555 1_555
N4 C26 1_555 1_555
C25 C26 1_555 1_555
C26 C33 1_555 1_555
C27 C25 1_555 1_555
C28 C27 1_555 1_555
C29 C28 1_555 1_555
H33 C29 1_555 1_555
C30 C29 1_555 1_555
H34 C30 1_555 1_555
C31 C30 1_555 1_555
H35 C31 1_555 1_555
C32 C27 1_555 1_555
H36 C32 1_555 1_555
C33 C34 1_555 1_555
C34 C35 1_555 1_555
C35 H37 1_555 1_555
C36 C35 1_555 1_555
H38 C36 1_555 1_555
C37 C36 1_555 1_555
H39 C37 1_555 1_555
C38 C33 1_555 1_555
H40 C38 1_555 1_555
C39 N3 1_555 1_555
H41 C39 1_555 1_555
C40 C39 1_555 1_555
H42 C40 1_555 1_555
H43 C40 1_555 1_555
C41 C39 1_555 1_555
H44 C41 1_555 1_555
C42 C41 1_555 1_555
H45 C42 1_555 1_555
H46 C42 1_555 1_555
H47 C42 1_555 1_555
C43 C41 1_555 1_555
H48 C43 1_555 1_555
H49 C43 1_555 1_555
H50 C43 1_555 1_555
C44 N4 1_555 1_555
H51 C44 1_555 1_555
C45 C44 1_555 1_555
H52 C45 1_555 1_555
H53 C45 1_555 1_555
C46 C44 1_555 1_555
H54 C46 1_555 1_555
C47 C46 1_555 1_555
H55 C47 1_555 1_555
H56 C47 1_555 1_555
H57 C47 1_555 1_555
C48 C46 1_555 1_555
H58 C48 1_555 1_555
H59 C48 1_555 1_555
H60 C48 1_555 1_555
H61 O5 1_555 1_555
H62 O6 1_555 1_555
H63 O7 1_555 1_555
H64 O8 1_555 1_555
C7 C8 1_555 1_555
C13 C14 1_555 1_555
C31 C32 1_555 1_555
C37 C38 1_555 1_555

#END
