
#######################################################################
#
#                 Cambridge Crystallographic Data Centre
#                                CCDC 
#
#######################################################################
#
# If this CIF has been generated from an entry in the Cambridge 
# Structural Database, then it will include bibliographic, chemical, 
# crystal, experimental, refinement or atomic coordinate data resulting 
# from the CCDC's data processing and validation procedures.
#
#######################################################################

data_FAWNEZ
_chemical_formula_moiety         'C21 H24 O3'
_chemical_name_systematic        
5-methoxy-1-(4-methoxyphenyl)-2-methyl-4-[(propan-2-yl)oxy]-1H-indene
_symmetry_cell_setting           monoclinic
_symmetry_space_group_name_H-M   'P 21'
_symmetry_Int_Tables_number      4
_space_group_name_Hall           'P 2yb'
loop_
_symmetry_equiv_pos_site_id
_symmetry_equiv_pos_as_xyz
1 x,y,z
2 -x,1/2+y,-z
_cell_length_a                   5.4384(9)
_cell_length_b                   7.1721(12)
_cell_length_c                   22.371(3)
_cell_angle_alpha                90
_cell_angle_beta                 94.674(9)
_cell_angle_gamma                90
_cell_volume                     869.673
_exptl_crystal_colour            colorless
_exptl_crystal_description       Tabullar
_cell_formula_units_Z            2
loop_
_atom_site_label
_atom_site_type_symbol
_atom_site_fract_x
_atom_site_fract_y
_atom_site_fract_z
O1 O 1.2487(5) 0.5994(3) 1.05263(9)
O2 O 0.4425(5) 0.6808(4) 0.62875(10)
O3 O 0.6743(5) 0.3460(4) 0.63700(9)
C1 C 1.0535(7) 0.5185(5) 1.08318(13)
H1 H 0.8967 0.5774 1.0692
H2 H 1.0857 0.5384 1.1264
H3 H 1.0446 0.3845 1.0748
C2 C 1.2333(6) 0.5844(4) 0.99098(12)
C3 C 1.4210(7) 0.6658(5) 0.96222(13)
H4 H 1.5497 0.7304 0.9848
C4 C 1.4223(7) 0.6536(5) 0.90044(13)
H5 H 1.5534 0.7088 0.8811
C5 C 1.2340(7) 0.5612(4) 0.86626(13)
C6 C 1.2431(7) 0.5360(5) 0.79899(13)
H6 H 1.3914 0.6038 0.7866
C7 C 1.0203(7) 0.6039(5) 0.75964(13)
C8 C 0.9427(7) 0.4597(5) 0.72011(13)
C9 C 0.7496(7) 0.4889(5) 0.67594(13)
C10 C 0.6330(7) 0.6617(5) 0.67311(13)
C11 C 0.2928(8) 0.8418(7) 0.63030(17)
H7 H 0.2157 0.8459 0.6684
H8 H 0.1643 0.8378 0.5970
H9 H 0.3947 0.9533 0.6266
C12 C 1.0374(7) 0.4942(5) 0.95803(13)
H10 H 0.9051 0.4413 0.9775
C13 C 1.0426(6) 0.4845(5) 0.89582(13)
H11 H 0.9113 0.4236 0.8730
C14 C 1.2630(7) 0.3317(5) 0.77932(13)
C15 C 1.0921(7) 0.2945(5) 0.73433(13)
H12 H 1.0715 0.1776 0.7146
C16 C 1.4569(7) 0.2051(5) 0.80765(14)
H13 H 1.4206 0.0763 0.7952
H14 H 1.4590 0.2142 0.8514
H15 H 1.6184 0.2415 0.7950
C17 C 0.9041(8) 0.7736(5) 0.75662(13)
H16 H 0.9570 0.8703 0.7837
C18 C 0.7064(8) 0.8038(5) 0.71325(14)
H17 H 0.6231 0.9204 0.7113
C19 C 0.7434(17) 0.3686(11) 0.5757(3)
H18 H 0.7126 0.5003 0.5625
C20 C 1.0160(17) 0.3234(13) 0.5740(3)
H19 H 1.1130 0.4022 0.6029
H20 H 1.0663 0.3468 0.5336
H21 H 1.0442 0.1919 0.5844
C21 C 0.5772(18) 0.2409(14) 0.5383(3)
H22 H 0.6077 0.1119 0.5513
H23 H 0.6101 0.2536 0.4961
H24 H 0.4049 0.2736 0.5431
C22? C 0.853(3) 0.3189(15) 0.5907(4)
H25? H 1.0233 0.3074 0.6108
C23? C 0.845(2) 0.4792(15) 0.5471(4)
H26? H 0.6788 0.4903 0.5271
H27? H 0.9634 0.4567 0.5171
H28? H 0.8887 0.5949 0.5687
C24? C 0.778(2) 0.1351(14) 0.5607(4)
H29? H 0.7625 0.0395 0.5914
H30? H 0.9048 0.0970 0.5343
H31? H 0.6201 0.1503 0.5370
loop_
_geom_bond_atom_site_label_1
_geom_bond_atom_site_label_2
_geom_bond_site_symmetry_1
_geom_bond_site_symmetry_2
O1 C1 1_555 1_555
O2 C10 1_555 1_555
O3 C9 1_555 1_555
C1 H1 1_555 1_555
H2 C1 1_555 1_555
H3 C1 1_555 1_555
C2 O1 1_555 1_555
C3 C2 1_555 1_555
H4 C3 1_555 1_555
C4 C3 1_555 1_555
H5 C4 1_555 1_555
C5 C4 1_555 1_555
C6 C5 1_555 1_555
H6 C6 1_555 1_555
C7 C6 1_555 1_555
C8 C7 1_555 1_555
C9 C8 1_555 1_555
C10 C9 1_555 1_555
C11 O2 1_555 1_555
H7 C11 1_555 1_555
H8 C11 1_555 1_555
H9 C11 1_555 1_555
C12 C2 1_555 1_555
H10 C12 1_555 1_555
C13 C5 1_555 1_555
H11 C13 1_555 1_555
C14 C6 1_555 1_555
C15 C8 1_555 1_555
H12 C15 1_555 1_555
C16 C14 1_555 1_555
H13 C16 1_555 1_555
H14 C16 1_555 1_555
H15 C16 1_555 1_555
C17 C7 1_555 1_555
H16 C17 1_555 1_555
C18 C10 1_555 1_555
H17 C18 1_555 1_555
C19 O3 1_555 1_555
H18 C19 1_555 1_555
C20 C19 1_555 1_555
H19 C20 1_555 1_555
H20 C20 1_555 1_555
H21 C20 1_555 1_555
C21 C19 1_555 1_555
H22 C21 1_555 1_555
H23 C21 1_555 1_555
H24 C21 1_555 1_555
C12 C13 1_555 1_555
C14 C15 1_555 1_555
C17 C18 1_555 1_555

#END
