
#######################################################################
#
#                 Cambridge Crystallographic Data Centre
#                                CCDC 
#
#######################################################################
#
# If this CIF has been generated from an entry in the Cambridge 
# Structural Database, then it will include bibliographic, chemical, 
# crystal, experimental, refinement or atomic coordinate data resulting 
# from the CCDC's data processing and validation procedures.
#
#######################################################################

data_FAWNID
_chemical_formula_moiety         'C27 H29 N5 O5'
_chemical_name_systematic        
"4'-[(t-butoxycarbonyl)amino]-3,3'-dimethyl-5'-oxo-1,1'-diphenyl[4',5'-dihydro-1H,1'H-[4,4'-bipyrazole]]-5-yl acetate"
_symmetry_cell_setting           triclinic
_symmetry_space_group_name_H-M   'P 1'
_symmetry_Int_Tables_number      1
_space_group_name_Hall           'P 1'
loop_
_symmetry_equiv_pos_site_id
_symmetry_equiv_pos_as_xyz
1 x,y,z
_cell_length_a                   6.5282(4)
_cell_length_b                   14.5999(11)
_cell_length_c                   14.9551(10)
_cell_angle_alpha                111.076(7)
_cell_angle_beta                 99.361(5)
_cell_angle_gamma                92.468(5)
_cell_volume                     1304.31
_exptl_crystal_colour            colorless
_exptl_crystal_description       block
_cell_formula_units_Z            2
loop_
_atom_site_label
_atom_site_type_symbol
_atom_site_fract_x
_atom_site_fract_y
_atom_site_fract_z
O1 O 1.1617(3) 0.82074(18) 0.41146(16)
O2 O 1.0619(3) 0.65954(18) 0.31387(16)
O3 O 0.5936(3) 0.64809(19) 0.23735(16)
O4 O 0.7805(3) 0.64164(18) -0.06407(16)
O5 O 0.4847(5) 0.5442(2) -0.0889(2)
N1 N 0.7592(4) 0.5358(2) 0.12646(19)
N2 N 0.9401(4) 0.5392(2) 0.0854(2)
N3 N 0.5136(4) 0.8426(2) 0.05615(19)
N4 N 0.5683(4) 0.7738(2) -0.02400(19)
N5 N 0.9852(4) 0.7763(2) 0.2557(2)
H1 H 1.008(6) 0.834(2) 0.257(3)
C1 C 0.8714(5) 0.7010(2) 0.1658(2)
C2 C 0.7208(5) 0.6277(2) 0.1851(2)
C3 C 1.0052(5) 0.6293(3) 0.1076(2)
C4 C 0.7425(5) 0.7478(2) 0.1036(2)
C5 C 0.6160(5) 0.8259(3) 0.1326(2)
C6 C 0.7039(5) 0.7166(2) 0.0029(2)
C7 C 1.0771(5) 0.7570(3) 0.3338(2)
C8 C 1.1016(5) 0.6218(3) 0.3939(3)
C9 C 1.3347(6) 0.6414(3) 0.4378(3)
H2 H 1.375119 0.712803 0.469229
H3 H 1.414327 0.613302 0.385968
H4 H 1.364169 0.610766 0.486349
C10 C 0.9650(6) 0.6668(3) 0.4671(3)
H5 H 0.819129 0.656227 0.433290
H6 H 1.008692 0.737787 0.499938
H7 H 0.978350 0.635535 0.515483
C11 C 1.0360(7) 0.5121(3) 0.3408(3)
H8 H 1.113550 0.485986 0.287804
H9 H 0.885894 0.501020 0.313697
H10 H 1.065987 0.478197 0.386636
C12 C 0.6704(5) 0.4419(3) 0.1167(2)
C13 C 0.4845(6) 0.4320(3) 0.1492(3)
H11 H 0.414297 0.487895 0.177689
C14 C 0.4055(8) 0.3375(4) 0.1385(3)
H12 H 0.280605 0.329392 0.161106
C15 C 0.5043(8) 0.2555(3) 0.0960(3)
H13 H 0.446758 0.191913 0.089053
C16 C 0.6872(8) 0.2662(3) 0.0635(3)
H14 H 0.755973 0.209946 0.034516
C17 C 0.7700(6) 0.3591(3) 0.0732(3)
H15 H 0.894768 0.366371 0.050200
C18 C 1.1962(5) 0.6610(3) 0.0796(3)
H16 H 1.245208 0.603461 0.033597
H17 H 1.305415 0.691681 0.137979
H18 H 1.164084 0.708904 0.048616
C19 C 0.5837(5) 0.8867(3) 0.2330(2)
H19 H 0.457738 0.920072 0.228019
H20 H 0.704815 0.936044 0.267173
H21 H 0.567499 0.843663 0.269365
C20 C 0.4870(5) 0.7725(3) -0.1189(2)
C21 C 0.2862(5) 0.7975(3) -0.1369(3)
H22 H 0.201131 0.808606 -0.088932
C22 C 0.2105(6) 0.8061(3) -0.2254(3)
H23 H 0.073630 0.823946 -0.238053
C23 C 0.3352(6) 0.7886(3) -0.2957(3)
H24 H 0.284488 0.795565 -0.355927
C24 C 0.5317(6) 0.7612(3) -0.2780(3)
H25 H 0.614774 0.747516 -0.326866
C25 C 0.6104(6) 0.7532(3) -0.1893(2)
H26 H 0.746892 0.734735 -0.177149
C26 C 0.6550(6) 0.5507(3) -0.1036(3)
C27 C 0.7709(8) 0.4718(3) -0.1593(3)
H27 H 0.840092 0.440442 -0.116385
H28 H 0.876103 0.500353 -0.184548
H29 H 0.673490 0.422353 -0.213882
O6 O 0.1206(4) -0.01474(19) 0.30306(17)
O7 O 0.1780(3) 0.14468(18) 0.41098(16)
O8 O -0.2328(3) 0.16168(19) 0.49240(17)
O9 O 0.1811(3) 0.15143(18) 0.78509(16)
O10 O -0.0746(5) 0.2505(2) 0.8131(3)
N6 N 0.0483(4) 0.2665(2) 0.60218(19)
N7 N 0.2582(4) 0.2579(2) 0.6408(2)
N8 N -0.2174(4) -0.0471(2) 0.66229(19)
N9 N -0.0862(4) 0.0192(2) 0.74254(19)
N10 N 0.1005(4) 0.0255(2) 0.4624(2)
H30 H 0.110(6) -0.033(2) 0.457(3)
C28 C 0.0818(5) 0.0996(2) 0.5560(2)
C29 C -0.0602(5) 0.1768(3) 0.5428(2)
C30 C 0.2815(5) 0.1657(3) 0.6138(2)
C31 C -0.0086(5) 0.0501(2) 0.6168(2)
C32 C -0.1729(5) -0.0279(2) 0.5869(2)
C33 C 0.0371(5) 0.0782(3) 0.7167(2)
C34 C 0.1318(5) 0.0475(3) 0.3850(2)
C35 C 0.1975(5) 0.1897(3) 0.3384(2)
C36 C 0.3691(7) 0.1469(4) 0.2836(3)
H31 H 0.320878 0.078975 0.238440
H32 H 0.493539 0.147059 0.330203
H33 H 0.403686 0.187012 0.246646
C37 C -0.0114(7) 0.1763(4) 0.2726(3)
H34 H -0.113475 0.208002 0.311828
H35 H -0.057994 0.105670 0.238626
H36 H 0.001409 0.206546 0.224678
C38 C 0.2617(7) 0.2975(3) 0.4018(3)
H37 H 0.391746 0.303739 0.447819
H38 H 0.151518 0.323690 0.438192
H39 H 0.283265 0.334756 0.360571
C39 C -0.0056(5) 0.3634(3) 0.6170(2)
C40 C -0.2086(7) 0.3777(3) 0.5859(3)
H40 H -0.313471 0.323110 0.554894
C41 C -0.2568(8) 0.4734(4) 0.6009(3)
H41 H -0.395321 0.483894 0.578682
C42 C -0.1071(8) 0.5528(3) 0.6473(3)
H42 H -0.141971 0.617780 0.657148
C43 C 0.0931(8) 0.5379(3) 0.6793(4)
H43 H 0.196725 0.592780 0.711792
C44 C 0.1454(7) 0.4431(3) 0.6645(3)
H44 H 0.284166 0.433001 0.686867
C45 C 0.4810(5) 0.1288(3) 0.6383(3)
H45 H 0.575806 0.182622 0.689739
H46 H 0.544080 0.104026 0.580183
H47 H 0.455824 0.075211 0.661458
C46 C -0.2972(5) -0.0857(3) 0.4868(2)
H48 H -0.423059 -0.120869 0.492172
H49 H -0.212452 -0.133385 0.449211
H50 H -0.337481 -0.040443 0.453541
C47 C -0.0984(5) 0.0209(3) 0.8378(2)
C48 C -0.2937(6) 0.0064(3) 0.8585(3)
H51 H -0.416500 0.001536 0.812442
C49 C -0.3078(6) -0.0010(3) 0.9474(3)
H52 H -0.440997 -0.010770 0.962349
C50 C -0.1290(7) 0.0060(3) 1.0140(3)
H53 H -0.139257 -0.000921 1.074014
C51 C 0.0655(7) 0.0230(3) 0.9935(3)
H54 H 0.188271 0.029451 1.040174
C52 C 0.0814(6) 0.0305(3) 0.9050(3)
H55 H 0.214475 0.042142 0.890791
C53 C 0.1053(6) 0.2420(3) 0.8272(3)
C54 C 0.2802(7) 0.3196(3) 0.8866(3)
H56 H 0.334757 0.349351 0.844748
H57 H 0.391625 0.290037 0.915368
H58 H 0.229441 0.370682 0.938681
loop_
_geom_bond_atom_site_label_1
_geom_bond_atom_site_label_2
_geom_bond_site_symmetry_1
_geom_bond_site_symmetry_2
O1 C7 1_555 1_555
O2 C7 1_555 1_555
O3 C2 1_555 1_555
O4 C6 1_555 1_555
O5 C26 1_555 1_555
N1 N2 1_555 1_555
N2 C3 1_555 1_555
N3 N4 1_555 1_555
N4 C6 1_555 1_555
N5 H1 1_555 1_555
C1 N5 1_555 1_555
C2 N1 1_555 1_555
C3 C1 1_555 1_555
C4 C1 1_555 1_555
C5 N3 1_555 1_555
C6 C4 1_555 1_555
C7 N5 1_555 1_555
C8 O2 1_555 1_555
C9 C8 1_555 1_555
H2 C9 1_555 1_555
H3 C9 1_555 1_555
H4 C9 1_555 1_555
C10 C8 1_555 1_555
H5 C10 1_555 1_555
H6 C10 1_555 1_555
H7 C10 1_555 1_555
C11 C8 1_555 1_555
H8 C11 1_555 1_555
H9 C11 1_555 1_555
H10 C11 1_555 1_555
C12 N1 1_555 1_555
C13 C12 1_555 1_555
H11 C13 1_555 1_555
C14 C13 1_555 1_555
H12 C14 1_555 1_555
C15 C14 1_555 1_555
H13 C15 1_555 1_555
C16 C15 1_555 1_555
H14 C16 1_555 1_555
C17 C12 1_555 1_555
H15 C17 1_555 1_555
C18 C3 1_555 1_555
H16 C18 1_555 1_555
H17 C18 1_555 1_555
H18 C18 1_555 1_555
C19 C5 1_555 1_555
H19 C19 1_555 1_555
H20 C19 1_555 1_555
H21 C19 1_555 1_555
C20 N4 1_555 1_555
C21 C20 1_555 1_555
H22 C21 1_555 1_555
C22 C21 1_555 1_555
H23 C22 1_555 1_555
C23 C22 1_555 1_555
H24 C23 1_555 1_555
C24 C23 1_555 1_555
H25 C24 1_555 1_555
C25 C20 1_555 1_555
H26 C25 1_555 1_555
C26 O4 1_555 1_555
C27 C26 1_555 1_555
H27 C27 1_555 1_555
H28 C27 1_555 1_555
H29 C27 1_555 1_555
O6 C34 1_555 1_555
O7 C34 1_555 1_555
O8 C29 1_555 1_555
O9 C33 1_555 1_555
O10 C53 1_555 1_555
N6 N7 1_555 1_555
N7 C30 1_555 1_555
N8 N9 1_555 1_555
N9 C33 1_555 1_555
N10 H30 1_555 1_555
C28 N10 1_555 1_555
C29 N6 1_555 1_555
C30 C28 1_555 1_555
C31 C28 1_555 1_555
C32 N8 1_555 1_555
C33 C31 1_555 1_555
C34 N10 1_555 1_555
C35 O7 1_555 1_555
C36 C35 1_555 1_555
H31 C36 1_555 1_555
H32 C36 1_555 1_555
H33 C36 1_555 1_555
C37 C35 1_555 1_555
H34 C37 1_555 1_555
H35 C37 1_555 1_555
H36 C37 1_555 1_555
C38 C35 1_555 1_555
H37 C38 1_555 1_555
H38 C38 1_555 1_555
H39 C38 1_555 1_555
C39 N6 1_555 1_555
C40 C39 1_555 1_555
H40 C40 1_555 1_555
C41 C40 1_555 1_555
H41 C41 1_555 1_555
C42 C41 1_555 1_555
H42 C42 1_555 1_555
C43 C42 1_555 1_555
H43 C43 1_555 1_555
C44 C39 1_555 1_555
H44 C44 1_555 1_555
C45 C30 1_555 1_555
H45 C45 1_555 1_555
H46 C45 1_555 1_555
H47 C45 1_555 1_555
C46 C32 1_555 1_555
H48 C46 1_555 1_555
H49 C46 1_555 1_555
H50 C46 1_555 1_555
C47 N9 1_555 1_555
C48 C47 1_555 1_555
H51 C48 1_555 1_555
C49 C48 1_555 1_555
H52 C49 1_555 1_555
C50 C49 1_555 1_555
H53 C50 1_555 1_555
C51 C50 1_555 1_555
H54 C51 1_555 1_555
C52 C47 1_555 1_555
H55 C52 1_555 1_555
C53 O9 1_555 1_555
C54 C53 1_555 1_555
H56 C54 1_555 1_555
H57 C54 1_555 1_555
H58 C54 1_555 1_555
C1 C2 1_555 1_555
C4 C5 1_555 1_555
C16 C17 1_555 1_555
C24 C25 1_555 1_555
C28 C29 1_555 1_555
C31 C32 1_555 1_555
C43 C44 1_555 1_555
C51 C52 1_555 1_555

#END
