
#######################################################################
#
#                 Cambridge Crystallographic Data Centre
#                                CCDC 
#
#######################################################################
#
# If this CIF has been generated from an entry in the Cambridge 
# Structural Database, then it will include bibliographic, chemical, 
# crystal, experimental, refinement or atomic coordinate data resulting 
# from the CCDC's data processing and validation procedures.
#
#######################################################################

data_FAWNUP
_chemical_formula_moiety         'C27 H27 O3 P1 S1'
_chemical_name_systematic        
'[3-cyclohexylidene-3-(phenylsulfonyl)prop-1-en-2-yl](oxo)diphenyl-\l^5^-phosphane'
_symmetry_cell_setting           triclinic
_symmetry_space_group_name_H-M   'P -1'
_symmetry_Int_Tables_number      2
_space_group_name_Hall           '-P 1'
loop_
_symmetry_equiv_pos_site_id
_symmetry_equiv_pos_as_xyz
1 x,y,z
2 -x,-y,-z
_cell_length_a                   9.2638(8)
_cell_length_b                   10.2009(9)
_cell_length_c                   14.8127(12)
_cell_angle_alpha                72.639(2)
_cell_angle_beta                 83.770(2)
_cell_angle_gamma                65.418(2)
_cell_volume                     1214.73
_exptl_crystal_colour            colorless
_exptl_crystal_description       block
_cell_formula_units_Z            2
loop_
_atom_site_label
_atom_site_type_symbol
_atom_site_fract_x
_atom_site_fract_y
_atom_site_fract_z
C1 C 0.3757(3) 0.7050(3) 0.31161(17)
C2 C 0.2868(3) 0.8295(3) 0.35612(17)
C3 C 0.2715(4) 0.7971(3) 0.44938(19)
H1 H 0.3158 0.6979 0.4863
H2 H 0.2165 0.8736 0.4778
C4 C 0.3134(3) 0.6235(3) 0.2867(2)
C5 C 0.1389(4) 0.6601(4) 0.2917(3)
H3 H 0.0853 0.7458 0.3167
H4 H 0.1212 0.5755 0.3344
C6 C 0.0696(5) 0.6955(5) 0.1944(4)
H5 H -0.0415 0.7120 0.2001
H6 H 0.0764 0.7868 0.1537
C7 C 0.1583(5) 0.5679(6) 0.1506(4)
H7 H 0.1178 0.5960 0.0868
H8 H 0.1401 0.4800 0.1871
C8 C 0.3373(5) 0.5291(5) 0.1475(3)
H9 H 0.3917 0.4433 0.1227
H10 H 0.3566 0.6133 0.1056
C9 C 0.4024(4) 0.4932(4) 0.2458(3)
H11 H 0.3914 0.4038 0.2864
H12 H 0.5144 0.4737 0.2424
C10 C 0.6472(3) 0.6657(3) 0.19020(18)
C11 C 0.7528(4) 0.5378(4) 0.1682(2)
H13 H 0.7891 0.4462 0.2146
C12 C 0.8043(4) 0.5466(4) 0.0766(2)
H14 H 0.8752 0.4602 0.0613
C13 C 0.7526(4) 0.6799(4) 0.0085(2)
H15 H 0.7858 0.6846 -0.0535
C14 C 0.6516(5) 0.8068(4) 0.0318(2)
H16 H 0.6185 0.8987 -0.0145
C15 C 0.5975(4) 0.8013(4) 0.1231(2)
H17 H 0.5287 0.8884 0.1385
C16 C 0.1860(3) 1.1342(3) 0.35925(18)
C17 C 0.0435(3) 1.2342(3) 0.3840(2)
H18 H -0.0515 1.2481 0.3593
C18 C 0.0421(4) 1.3135(4) 0.4457(2)
H19 H -0.0540 1.3808 0.4619
C19 C 0.1805(4) 1.2937(4) 0.4828(2)
H20 H 0.1783 1.3455 0.5254
C20 C 0.3231(4) 1.1974(4) 0.4573(3)
H21 H 0.4177 1.1860 0.4813
C21 C 0.3259(4) 1.1179(3) 0.3964(2)
H22 H 0.4228 1.0522 0.3798
C22 C 0.0052(3) 1.0580(3) 0.2498(2)
C23 C -0.1014(4) 1.0254(4) 0.3164(3)
H23 H -0.0719 0.9865 0.3802
C24 C -0.2493(5) 1.0497(5) 0.2897(4)
H24 H -0.3190 1.0266 0.3353
C25 C -0.2951(6) 1.1074(5) 0.1971(5)
H25 H -0.3964 1.1251 0.1795
C26 C -0.1922(7) 1.1395(5) 0.1296(4)
H26 H -0.2240 1.1781 0.0663
C27 C -0.0393(5) 1.1148(4) 0.1548(3)
H27 H 0.0307 1.1360 0.1088
O1 O 0.6658(3) 0.5073(3) 0.36460(14)
O2 O 0.6058(2) 0.7762(3) 0.33234(15)
O3 O 0.3008(3) 1.0490(2) 0.19693(13)
P1 P 0.20387(8) 1.02223(8) 0.28107(5)
S1 S 0.58437(8) 0.65895(8) 0.30808(4)
loop_
_geom_bond_atom_site_label_1
_geom_bond_atom_site_label_2
_geom_bond_site_symmetry_1
_geom_bond_site_symmetry_2
C1 C2 1_555 1_555
C2 C3 1_555 1_555
C3 H1 1_555 1_555
H2 C3 1_555 1_555
C4 C1 1_555 1_555
C5 C4 1_555 1_555
H3 C5 1_555 1_555
H4 C5 1_555 1_555
C6 C5 1_555 1_555
H5 C6 1_555 1_555
H6 C6 1_555 1_555
C7 C6 1_555 1_555
H7 C7 1_555 1_555
H8 C7 1_555 1_555
C8 C7 1_555 1_555
H9 C8 1_555 1_555
H10 C8 1_555 1_555
C9 C4 1_555 1_555
H11 C9 1_555 1_555
H12 C9 1_555 1_555
C10 C11 1_555 1_555
C11 H13 1_555 1_555
C12 C11 1_555 1_555
H14 C12 1_555 1_555
C13 C12 1_555 1_555
H15 C13 1_555 1_555
C14 C13 1_555 1_555
H16 C14 1_555 1_555
C15 C10 1_555 1_555
H17 C15 1_555 1_555
C16 C17 1_555 1_555
C17 H18 1_555 1_555
C18 C17 1_555 1_555
H19 C18 1_555 1_555
C19 C18 1_555 1_555
H20 C19 1_555 1_555
C20 C19 1_555 1_555
H21 C20 1_555 1_555
C21 C16 1_555 1_555
H22 C21 1_555 1_555
C22 C23 1_555 1_555
C23 H23 1_555 1_555
C24 C23 1_555 1_555
H24 C24 1_555 1_555
C25 C24 1_555 1_555
H25 C25 1_555 1_555
C26 C25 1_555 1_555
H26 C26 1_555 1_555
C27 C22 1_555 1_555
H27 C27 1_555 1_555
O1 S1 1_555 1_555
O2 S1 1_555 1_555
O3 P1 1_555 1_555
P1 C2 1_555 1_555
S1 C1 1_555 1_555
C8 C9 1_555 1_555
C10 S1 1_555 1_555
C14 C15 1_555 1_555
C16 P1 1_555 1_555
C20 C21 1_555 1_555
C22 P1 1_555 1_555
C26 C27 1_555 1_555

#END
