
#######################################################################
#
#                 Cambridge Crystallographic Data Centre
#                                CCDC 
#
#######################################################################
#
# If this CIF has been generated from an entry in the Cambridge 
# Structural Database, then it will include bibliographic, chemical, 
# crystal, experimental, refinement or atomic coordinate data resulting 
# from the CCDC's data processing and validation procedures.
#
#######################################################################

data_FAWNAV
_chemical_formula_moiety         'C20 H21 F1 O2'
_chemical_name_systematic        
1-(4-fluorophenyl)-5-methoxy-2-methyl-4-[(propan-2-yl)oxy]-1H-indene
_symmetry_cell_setting           orthorhombic
_symmetry_space_group_name_H-M   'P 21 21 21'
_symmetry_Int_Tables_number      19
_space_group_name_Hall           'P 2ac 2ab'
loop_
_symmetry_equiv_pos_site_id
_symmetry_equiv_pos_as_xyz
1 x,y,z
2 1/2+x,1/2-y,-z
3 -x,1/2+y,1/2-z
4 1/2-x,-y,1/2+z
_cell_length_a                   8.1071(6)
_cell_length_b                   9.3064(7)
_cell_length_c                   22.2481(17)
_cell_angle_alpha                90
_cell_angle_beta                 90
_cell_angle_gamma                90
_cell_volume                     1678.57
_exptl_crystal_colour            colorless
_cell_formula_units_Z            4
loop_
_atom_site_label
_atom_site_type_symbol
_atom_site_fract_x
_atom_site_fract_y
_atom_site_fract_z
F1 F 0.0821(2) -0.2473(2) 0.13922(8)
O1 O 0.9085(2) 0.4330(2) 0.02613(8)
O2 O 0.6354(2) 0.5892(2) 0.04659(8)
C1 C 1.0505(3) 0.3482(4) 0.01235(13)
H1 H 1.1268 0.3499 0.0465
H2 H 1.1056 0.3877 -0.0232
H3 H 1.0166 0.2490 0.0043
C2 C 0.8067(3) 0.3829(3) 0.07037(11)
C3 C 0.6632(3) 0.4669(3) 0.08023(11)
C4 C 0.5482(3) 0.4192(3) 0.12144(11)
C5 C 0.5733(3) 0.2909(3) 0.15350(11)
C6 C 0.4264(3) 0.2622(3) 0.19398(12)
H4 H 0.4622 0.2628 0.2370
C7 C 0.3378(3) 0.1230(3) 0.18002(12)
C8 C 0.3075(3) 0.0192(4) 0.22363(12)
H5 H 0.3466 0.0340 0.2634
C9 C 0.2215(3) -0.1049(4) 0.21019(13)
H6 H 0.2006 -0.1749 0.2403
C10 C 0.1669(3) -0.1252(4) 0.15227(13)
C11 C 0.7395(3) 0.7109(3) 0.06298(12)
H7 H 0.8521 0.6752 0.0737
C12 C 0.6662(4) 0.7877(4) 0.11638(14)
H8 H 0.5566 0.8242 0.1058
H9 H 0.7376 0.8682 0.1278
H10 H 0.6567 0.7207 0.1502
C13 C 0.7511(4) 0.8055(4) 0.00790(13)
H11 H 0.8003 0.7509 -0.0252
H12 H 0.8201 0.8893 0.0169
H13 H 0.6404 0.8376 -0.0037
C14 C 0.8326(3) 0.2581(3) 0.10327(11)
H14 H 0.9306 0.2040 0.0973
C15 C 0.7153(3) 0.2116(3) 0.14514(11)
H15 H 0.7333 0.1262 0.1676
C16 C 0.3886(3) 0.4804(3) 0.13939(12)
H16 H 0.3424 0.5666 0.1239
C17 C 0.3182(3) 0.3961(4) 0.18086(12)
C18 C 0.1560(4) 0.4142(4) 0.21145(13)
H17 H 0.1037 0.5031 0.1976
H18 H 0.1730 0.4191 0.2550
H19 H 0.0848 0.3323 0.2019
C19 C 0.2825(3) 0.0965(4) 0.12155(11)
H20 H 0.3054 0.1648 0.0909
C20 C 0.1953(3) -0.0265(3) 0.10714(12)
H21 H 0.1563 -0.0426 0.0674
loop_
_geom_bond_atom_site_label_1
_geom_bond_atom_site_label_2
_geom_bond_site_symmetry_1
_geom_bond_site_symmetry_2
F1 C10 1_555 1_555
O1 C1 1_555 1_555
O2 C3 1_555 1_555
C1 H1 1_555 1_555
H2 C1 1_555 1_555
H3 C1 1_555 1_555
C2 O1 1_555 1_555
C3 C2 1_555 1_555
C4 C3 1_555 1_555
C5 C4 1_555 1_555
C6 C5 1_555 1_555
H4 C6 1_555 1_555
C7 C6 1_555 1_555
C8 C7 1_555 1_555
H5 C8 1_555 1_555
C9 C8 1_555 1_555
H6 C9 1_555 1_555
C10 C9 1_555 1_555
C11 O2 1_555 1_555
H7 C11 1_555 1_555
C12 C11 1_555 1_555
H8 C12 1_555 1_555
H9 C12 1_555 1_555
H10 C12 1_555 1_555
C13 C11 1_555 1_555
H11 C13 1_555 1_555
H12 C13 1_555 1_555
H13 C13 1_555 1_555
C14 C2 1_555 1_555
H14 C14 1_555 1_555
C15 C5 1_555 1_555
H15 C15 1_555 1_555
C16 C4 1_555 1_555
H16 C16 1_555 1_555
C17 C6 1_555 1_555
C18 C17 1_555 1_555
H17 C18 1_555 1_555
H18 C18 1_555 1_555
H19 C18 1_555 1_555
C19 C7 1_555 1_555
H20 C19 1_555 1_555
C20 C10 1_555 1_555
H21 C20 1_555 1_555
C14 C15 1_555 1_555
C16 C17 1_555 1_555
C19 C20 1_555 1_555

#END
