
#######################################################################
#
#                 Cambridge Crystallographic Data Centre
#                                CCDC 
#
#######################################################################
#
# If this CIF has been generated from an entry in the Cambridge 
# Structural Database, then it will include bibliographic, chemical, 
# crystal, experimental, refinement or atomic coordinate data resulting 
# from the CCDC's data processing and validation procedures.
#
#######################################################################

data_FAWNUM
_chemical_compound_source        'Radosia serra(Maxim) Hara'
_chemical_name_common            Rabdoserrin-A
_chemical_formula_moiety         'C20 H26 O5'
_chemical_name_systematic        
ent-1,14-Dihydroxy-7,20;19,20-diepoxy-(1\a,4\a,7\a,14R,20R)-kaur-16-en-15-one
_chemical_properties_biological  
'inhibitory activity against HeLa cells in vitro'
_symmetry_cell_setting           orthorhombic
_symmetry_space_group_name_H-M   'P 21 21 21'
_symmetry_Int_Tables_number      19
_space_group_name_Hall           'P 2ac 2ab'
loop_
_symmetry_equiv_pos_site_id
_symmetry_equiv_pos_as_xyz
1 x,y,z
2 1/2+x,1/2-y,-z
3 -x,1/2+y,1/2-z
4 1/2-x,-y,1/2+z
_cell_length_a                   6.726(5)
_cell_length_b                   11.809(3)
_cell_length_c                   20.868(3)
_cell_angle_alpha                90
_cell_angle_beta                 90
_cell_angle_gamma                90
_cell_volume                     1657.49
_cell_formula_units_Z            4
loop_
_atom_site_label
_atom_site_type_symbol
_atom_site_fract_x
_atom_site_fract_y
_atom_site_fract_z
C1 C 0.6595(9) 0.2643(4) 0.3318(2)
C2 C 0.6398(10) 0.2631(5) 0.4042(2)
C3 C 0.8099(11) 0.2055(5) 0.4385(2)
C4 C 0.8624(9) 0.0912(5) 0.4096(2)
C5 C 0.9227(8) 0.1104(4) 0.3396(2)
C6 C 0.9984(8) 0.0002(4) 0.3071(2)
C7 C 0.8643(8) -0.0297(4) 0.2508(2)
C8 C 0.8656(8) 0.0588(4) 0.1993(2)
C9 C 0.8068(8) 0.1745(4) 0.2307(2)
C10 C 0.7417(8) 0.1541(4) 0.3013(2)
C11 C 0.6584(9) 0.2389(4) 0.1882(2)
C12 C 0.7136(10) 0.2380(5) 0.1170(2)
C13 C 0.7956(9) 0.1235(4) 0.0937(2)
C14 C 0.7329(8) 0.0322(4) 0.1409(2)
C15 C 1.0666(9) 0.0737(4) 0.1643(2)
C16 C 1.0189(10) 0.1182(5) 0.0993(2)
C17 C 1.1562(12) 0.1430(8) 0.0567(3)
C18 C 1.0325(11) 0.0413(6) 0.4497(2)
C19 C 0.6881(10) 0.0093(5) 0.4117(2)
C20 C 0.5878(8) 0.0597(4) 0.3048(2)
O1 O 0.4612(6) 0.2901(3) 0.3090(2)
O2 O 0.5290(6) 0.0350(3) 0.3679(2)
O3 O 0.6621(6) -0.0411(3) 0.2746(2)
O4 O 0.7835(6) -0.0755(3) 0.1141(2)
O5 O 1.2313(6) 0.0532(4) 0.1849(2)
loop_
_geom_bond_atom_site_label_1
_geom_bond_atom_site_label_2
_geom_bond_site_symmetry_1
_geom_bond_site_symmetry_2
C1 C2 1_555 1_555
C2 C3 1_555 1_555
C3 C4 1_555 1_555
C4 C5 1_555 1_555
C5 C6 1_555 1_555
C6 C7 1_555 1_555
C7 C8 1_555 1_555
C8 C9 1_555 1_555
C9 C10 1_555 1_555
C10 C1 1_555 1_555
C11 C9 1_555 1_555
C12 C11 1_555 1_555
C13 C12 1_555 1_555
C14 C8 1_555 1_555
C15 C8 1_555 1_555
C16 C13 1_555 1_555
C17 C16 1_555 1_555
C18 C4 1_555 1_555
C19 C4 1_555 1_555
C20 C10 1_555 1_555
O1 C1 1_555 1_555
O2 C19 1_555 1_555
O3 C7 1_555 1_555
O4 C14 1_555 1_555
O5 C15 1_555 1_555
C5 C10 1_555 1_555
C13 C14 1_555 1_555
C15 C16 1_555 1_555
C20 O2 1_555 1_555
C20 O3 1_555 1_555

#END
