
#######################################################################
#
#                 Cambridge Crystallographic Data Centre
#                                CCDC 
#
#######################################################################
#
# If this CIF has been generated from an entry in the Cambridge 
# Structural Database, then it will include bibliographic, chemical, 
# crystal, experimental, refinement or atomic coordinate data resulting 
# from the CCDC's data processing and validation procedures.
#
#######################################################################

data_FAWPEB
_chemical_formula_moiety         'C16 H13 F1 N2 O3 S1'
_chemical_name_systematic        
4-(6-fluoro-1-methyl-1H-indol-3-yl)-3,4-dihydro-2H-1,2\l^6^,3-benzoxathiazine-2,2-dione
_symmetry_cell_setting           orthorhombic
_symmetry_space_group_name_H-M   'P 21 21 21'
_symmetry_Int_Tables_number      19
_space_group_name_Hall           'P 2ac 2ab'
loop_
_symmetry_equiv_pos_site_id
_symmetry_equiv_pos_as_xyz
1 x,y,z
2 1/2-x,-y,1/2+z
3 -x,1/2+y,1/2-z
4 1/2+x,1/2-y,-z
_cell_length_a                   8.6807(3)
_cell_length_b                   10.7996(3)
_cell_length_c                   15.8435(6)
_cell_angle_alpha                90
_cell_angle_beta                 90
_cell_angle_gamma                90
_cell_volume                     1485.3
_exptl_crystal_colour            yellow
_exptl_crystal_description       Block
_cell_formula_units_Z            4
loop_
_atom_site_label
_atom_site_type_symbol
_atom_site_fract_x
_atom_site_fract_y
_atom_site_fract_z
N1 N 0.7718(3) 0.47592(17) -0.02516(14)
C1 C 0.7861(3) 0.3877(2) 0.03657(16)
H1 H 0.7617 0.3997 0.0938
C2 C 0.8410(3) 0.2796(2) 0.00286(16)
C3 C 0.8638(3) 0.3018(2) -0.08560(16)
C4 C 0.9179(3) 0.2305(2) -0.15282(16)
H2 H 0.9468 0.1476 -0.1443
C5 C 0.9283(4) 0.2828(3) -0.23159(18)
H3 H 0.9651 0.2364 -0.2776
C6 C 0.8835(4) 0.4055(3) -0.24241(18)
C7 C 0.8277(3) 0.4801(2) -0.18007(18)
H4 H 0.7973 0.5623 -0.1902
C8 C 0.8189(3) 0.4260(2) -0.10032(16)
C9 C 0.7312(3) 0.6056(2) -0.0118(2)
H5 H 0.8237 0.6558 -0.0131
H6 H 0.6812 0.6146 0.0426
H7 H 0.6615 0.6325 -0.0560
F1 F 0.8984(3) 0.45404(18) -0.32137(11)
C10 C 0.8613(3) 0.1566(2) 0.04509(14)
H8 H 0.9555 0.1185 0.0213
C11 C 0.8806(3) 0.1597(2) 0.14012(16)
C12 C 0.9791(3) 0.2452(2) 0.17815(18)
H9 H 1.0308 0.3032 0.1442
C13 C 1.0023(4) 0.2468(3) 0.26392(19)
H10 H 1.0690 0.3057 0.2879
C14 C 0.9274(4) 0.1617(3) 0.31535(19)
H11 H 0.9422 0.1635 0.3741
C15 C 0.8319(4) 0.0752(3) 0.27985(17)
H12 H 0.7810 0.0169 0.3140
C16 C 0.8111(3) 0.0745(2) 0.19326(16)
O1 O 0.7107(2) -0.01874(15) 0.16340(11)
S1 S 0.72484(7) -0.05532(5) 0.06639(4)
O2 O 0.8699(2) -0.11190(16) 0.05406(13)
O3 O 0.5875(2) -0.11936(17) 0.04792(13)
N2 N 0.7273(3) 0.07722(16) 0.01872(13)
H13 H 0.6392 0.1177 0.0304
loop_
_geom_bond_atom_site_label_1
_geom_bond_atom_site_label_2
_geom_bond_site_symmetry_1
_geom_bond_site_symmetry_2
N1 C1 1_555 1_555
C1 H1 1_555 1_555
C2 C1 1_555 1_555
C3 C2 1_555 1_555
C4 C3 1_555 1_555
H2 C4 1_555 1_555
C5 C4 1_555 1_555
H3 C5 1_555 1_555
C6 C5 1_555 1_555
C7 C6 1_555 1_555
H4 C7 1_555 1_555
C8 N1 1_555 1_555
C9 N1 1_555 1_555
H5 C9 1_555 1_555
H6 C9 1_555 1_555
H7 C9 1_555 1_555
F1 C6 1_555 1_555
C10 C2 1_555 1_555
H8 C10 1_555 1_555
C11 C10 1_555 1_555
C12 C11 1_555 1_555
H9 C12 1_555 1_555
C13 C12 1_555 1_555
H10 C13 1_555 1_555
C14 C13 1_555 1_555
H11 C14 1_555 1_555
C15 C14 1_555 1_555
H12 C15 1_555 1_555
C16 C11 1_555 1_555
O1 C16 1_555 1_555
S1 O1 1_555 1_555
O2 S1 1_555 1_555
O3 S1 1_555 1_555
N2 C10 1_555 1_555
H13 N2 1_555 1_555
C3 C8 1_555 1_555
C7 C8 1_555 1_555
C15 C16 1_555 1_555
S1 N2 1_555 1_555

#END
