
#######################################################################
#
#                 Cambridge Crystallographic Data Centre
#                                CCDC 
#
#######################################################################
#
# If this CIF has been generated from an entry in the Cambridge 
# Structural Database, then it will include bibliographic, chemical, 
# crystal, experimental, refinement or atomic coordinate data resulting 
# from the CCDC's data processing and validation procedures.
#
#######################################################################

data_FAWTEF
_chemical_formula_moiety         'C18 H18 O2'
_chemical_name_systematic        5,6-dimethoxy-1-phenyl-1,2-dihydronaphthalene
_symmetry_cell_setting           orthorhombic
_symmetry_space_group_name_H-M   'P b c n'
_symmetry_Int_Tables_number      60
_space_group_name_Hall           '-P 2n 2ab'
loop_
_symmetry_equiv_pos_site_id
_symmetry_equiv_pos_as_xyz
1 x,y,z
2 1/2+x,1/2-y,-z
3 -x,y,1/2-z
4 1/2-x,1/2-y,1/2+z
5 -x,-y,-z
6 1/2-x,1/2+y,z
7 x,-y,1/2+z
8 1/2+x,1/2+y,1/2-z
_cell_length_a                   20.772(2)
_cell_length_b                   7.4286(8)
_cell_length_c                   18.5851(17)
_cell_angle_alpha                90
_cell_angle_beta                 90
_cell_angle_gamma                90
_cell_volume                     2867.81
_exptl_crystal_colour            colorless
_cell_formula_units_Z            8
loop_
_atom_site_label
_atom_site_type_symbol
_atom_site_fract_x
_atom_site_fract_y
_atom_site_fract_z
O1 O 0.33004(13) 0.1806(4) 0.03469(16)
O2 O 0.35603(14) -0.1567(4) 0.07698(16)
C1 C 0.3174(2) 0.3569(7) 0.0078(3)
H1 H 0.3244 0.4435 0.0453
H2 H 0.2736 0.3638 -0.0083
H3 H 0.3458 0.3819 -0.0318
C2 C 0.39137(17) 0.1467(5) 0.05788(19)
C3 C 0.44055(18) 0.2725(5) 0.0594(2)
H4 H 0.4333 0.3890 0.0430
C4 C 0.50048(18) 0.2238(5) 0.0854(2)
H5 H 0.5330 0.3098 0.0867
C5 C 0.51363(16) 0.0516(4) 0.10950(18)
C6 C 0.58065(18) -0.0069(5) 0.1319(2)
H6 H 0.6023 -0.0481 0.0880
C7 C 0.62115(17) 0.1472(5) 0.16158(19)
C8 C 0.6123(2) 0.2196(6) 0.2292(2)
H7 H 0.5793 0.1770 0.2584
C9 C 0.6526(3) 0.3566(6) 0.2541(3)
H8 H 0.6463 0.4036 0.2999
C10 C 0.7008(2) 0.4223(6) 0.2124(3)
H9 H 0.7277 0.5132 0.2292
C11 C 0.46459(17) -0.0770(4) 0.10675(17)
C12 C 0.4775(2) -0.2640(5) 0.1288(2)
H10 H 0.4464 -0.3524 0.1217
C13 C 0.5347(2) -0.3069(5) 0.1594(2)
H11 H 0.5457 -0.4270 0.1662
C14 C 0.5792(2) -0.1638(5) 0.1817(3)
H12 H 0.6222 -0.2138 0.1852
H13 H 0.5669 -0.1222 0.2293
C15 C 0.7090(2) 0.3515(6) 0.1451(3)
H14 H 0.7416 0.3958 0.1157
C16 C 0.66995(19) 0.2167(6) 0.1203(2)
H15 H 0.6767 0.1710 0.0743
C17 C 0.40363(17) -0.0277(5) 0.08161(18)
C18 C 0.3124(2) -0.1540(8) 0.1368(3)
H16 H 0.3353 -0.1840 0.1801
H17 H 0.2787 -0.2402 0.1289
H18 H 0.2941 -0.0359 0.1415
loop_
_geom_bond_atom_site_label_1
_geom_bond_atom_site_label_2
_geom_bond_site_symmetry_1
_geom_bond_site_symmetry_2
O1 C1 1_555 1_555
O2 C17 1_555 1_555
C1 H1 1_555 1_555
H2 C1 1_555 1_555
H3 C1 1_555 1_555
C2 O1 1_555 1_555
C3 C2 1_555 1_555
H4 C3 1_555 1_555
C4 C3 1_555 1_555
H5 C4 1_555 1_555
C5 C4 1_555 1_555
C6 C5 1_555 1_555
H6 C6 1_555 1_555
C7 C6 1_555 1_555
C8 C7 1_555 1_555
H7 C8 1_555 1_555
C9 C8 1_555 1_555
H8 C9 1_555 1_555
C10 C9 1_555 1_555
H9 C10 1_555 1_555
C11 C5 1_555 1_555
C12 C11 1_555 1_555
H10 C12 1_555 1_555
C13 C12 1_555 1_555
H11 C13 1_555 1_555
C14 C6 1_555 1_555
H12 C14 1_555 1_555
H13 C14 1_555 1_555
C15 C10 1_555 1_555
H14 C15 1_555 1_555
C16 C7 1_555 1_555
H15 C16 1_555 1_555
C17 C2 1_555 1_555
C18 O2 1_555 1_555
H16 C18 1_555 1_555
H17 C18 1_555 1_555
H18 C18 1_555 1_555
C11 C17 1_555 1_555
C13 C14 1_555 1_555
C15 C16 1_555 1_555

#END
