
#######################################################################
#
#                 Cambridge Crystallographic Data Centre
#                                CCDC 
#
#######################################################################
#
# If this CIF has been generated from an entry in the Cambridge 
# Structural Database, then it will include bibliographic, chemical, 
# crystal, experimental, refinement or atomic coordinate data resulting 
# from the CCDC's data processing and validation procedures.
#
#######################################################################

data_FAWWOS
_chemical_formula_moiety         'C26 H25 N3 O3'
_chemical_name_systematic        
'benzyl [4-benzyl-5-(4-methoxyphenyl)-1-methyl-1H-imidazol-2-yl]carbamate'
_symmetry_cell_setting           triclinic
_symmetry_space_group_name_H-M   'P -1'
_symmetry_Int_Tables_number      2
_space_group_name_Hall           '-P 1'
loop_
_symmetry_equiv_pos_site_id
_symmetry_equiv_pos_as_xyz
1 x,y,z
2 -x,-y,-z
_cell_length_a                   10.7534(5)
_cell_length_b                   10.9377(5)
_cell_length_c                   10.9416(5)
_cell_angle_alpha                89.154(3)
_cell_angle_beta                 62.158(2)
_cell_angle_gamma                85.360(2)
_cell_volume                     1133.83
_exptl_crystal_colour            colorless
_exptl_crystal_description       prism
_cell_formula_units_Z            2
loop_
_atom_site_label
_atom_site_type_symbol
_atom_site_fract_x
_atom_site_fract_y
_atom_site_fract_z
O1 O 0.47989(10) -0.30673(8) 0.84603(10)
O2 O 0.21302(8) 0.46930(7) 0.88731(8)
O3 O 0.17897(8) 0.62422(7) 0.76372(8)
N1 N 0.37646(9) 0.25230(8) 0.68969(9)
N2 N 0.32492(9) 0.46389(8) 0.64959(9)
N3 N 0.55734(9) 0.36335(8) 0.57069(9)
C1 C 0.41901(11) 0.36285(9) 0.63666(10)
C2 C 0.60836(11) 0.24590(9) 0.58289(10)
C3 C 0.49867(11) 0.17598(9) 0.65667(10)
C4 C 0.49464(11) 0.04894(9) 0.70308(11)
C5 C 0.57075(11) -0.04743(10) 0.61006(11)
H1 H 0.6252 -0.0307 0.5149
C6 C 0.56896(12) -0.16796(10) 0.65309(12)
H2 H 0.6223 -0.2326 0.5881
C7 C 0.48883(12) -0.19282(10) 0.79129(12)
C8 C 0.41124(14) -0.09780(11) 0.88584(13)
H3 H 0.3557 -0.115 0.9807
C9 C 0.41469(13) 0.02144(10) 0.84236(12)
H4 H 0.362 0.0858 0.9079
C10 C 0.56247(17) -0.40639(11) 0.75624(17)
H5 H 0.5392 -0.4118 0.68
H6 H 0.5427 -0.4827 0.8075
H7 H 0.6628 -0.3937 0.719
C11 C 0.23244(11) 0.21675(10) 0.75478(13)
H8 H 0.1913 0.2273 0.8553
H9 H 0.2327 0.1306 0.7313
H10 H 0.1763 0.2684 0.7215
C12 C 0.76250(11) 0.21511(10) 0.53438(11)
H11 H 0.8155 0.2361 0.4358
H12 H 0.7799 0.1256 0.5413
C13 C 0.81731(11) 0.28263(9) 0.61727(11)
C14 C 0.73867(12) 0.29877(10) 0.75995(11)
H13 H 0.6488 0.2672 0.8066
C15 C 0.78957(13) 0.36034(11) 0.83528(12)
H14 H 0.7346 0.3703 0.9327
C16 C 0.91991(14) 0.40703(11) 0.76872(14)
H15 H 0.9547 0.4496 0.82
C17 C 0.99921(14) 0.39150(14) 0.62741(15)
H16 H 1.089 0.4233 0.5812
C18 C 0.94851(13) 0.32953(13) 0.55206(13)
H17 H 1.0043 0.3191 0.4547
C19 C 0.23720(10) 0.51526(9) 0.77832(11)
C20 C 0.08630(13) 0.69199(11) 0.89214(11)
H18 H 0.1424 0.729 0.9302
H19 H 0.0224 0.6368 0.9616
C21 C 0.00310(11) 0.79005(10) 0.85736(10)
C22 C -0.11336(14) 0.76128(12) 0.84503(14)
H20 H -0.1434 0.6807 0.8636
C23 C -0.18629(15) 0.84954(14) 0.80567(16)
H21 H -0.2655 0.8288 0.7961
C24 C -0.14516(16) 0.96669(14) 0.78037(14)
H22 H -0.195 1.0266 0.7523
C25 C -0.03253(16) 0.99686(13) 0.79565(17)
H23 H -0.0052 1.0784 0.7801
C26 C 0.04230(14) 0.90889(12) 0.83385(15)
H24 H 0.1209 0.9304 0.8439
H25 H 0.3538(15) 0.5140(14) 0.5794(15)
loop_
_geom_bond_atom_site_label_1
_geom_bond_atom_site_label_2
_geom_bond_site_symmetry_1
_geom_bond_site_symmetry_2
O1 C7 1_555 1_555
O2 C19 1_555 1_555
O3 C19 1_555 1_555
N1 C1 1_555 1_555
N2 C1 1_555 1_555
N3 C1 1_555 1_555
C2 N3 1_555 1_555
C3 N1 1_555 1_555
C4 C3 1_555 1_555
C5 C4 1_555 1_555
H1 C5 1_555 1_555
C6 C5 1_555 1_555
H2 C6 1_555 1_555
C7 C6 1_555 1_555
C8 C7 1_555 1_555
H3 C8 1_555 1_555
C9 C4 1_555 1_555
H4 C9 1_555 1_555
C10 O1 1_555 1_555
H5 C10 1_555 1_555
H6 C10 1_555 1_555
H7 C10 1_555 1_555
C11 N1 1_555 1_555
H8 C11 1_555 1_555
H9 C11 1_555 1_555
H10 C11 1_555 1_555
C12 C2 1_555 1_555
H11 C12 1_555 1_555
H12 C12 1_555 1_555
C13 C12 1_555 1_555
C14 C13 1_555 1_555
H13 C14 1_555 1_555
C15 C14 1_555 1_555
H14 C15 1_555 1_555
C16 C15 1_555 1_555
H15 C16 1_555 1_555
C17 C16 1_555 1_555
H16 C17 1_555 1_555
C18 C13 1_555 1_555
H17 C18 1_555 1_555
C19 N2 1_555 1_555
C20 O3 1_555 1_555
H18 C20 1_555 1_555
H19 C20 1_555 1_555
C21 C20 1_555 1_555
C22 C21 1_555 1_555
H20 C22 1_555 1_555
C23 C22 1_555 1_555
H21 C23 1_555 1_555
C24 C23 1_555 1_555
H22 C24 1_555 1_555
C25 C24 1_555 1_555
H23 C25 1_555 1_555
C26 C21 1_555 1_555
H24 C26 1_555 1_555
H25 N2 1_555 1_555
C2 C3 1_555 1_555
C8 C9 1_555 1_555
C17 C18 1_555 1_555
C25 C26 1_555 1_555

#END
