
#######################################################################
#
#                 Cambridge Crystallographic Data Centre
#                                CCDC 
#
#######################################################################
#
# If this CIF has been generated from an entry in the Cambridge 
# Structural Database, then it will include bibliographic, chemical, 
# crystal, experimental, refinement or atomic coordinate data resulting 
# from the CCDC's data processing and validation procedures.
#
#######################################################################

data_FAWXAC
_chemical_formula_moiety         'C33 H39 N7'
_chemical_name_systematic        tris(N-n-Propylbenzimidazol-2-ylmethyl)amine
_symmetry_cell_setting           monoclinic
_symmetry_space_group_name_H-M   'P 21/c'
_symmetry_Int_Tables_number      14
_space_group_name_Hall           '-P 2ybc'
loop_
_symmetry_equiv_pos_site_id
_symmetry_equiv_pos_as_xyz
1 x,y,z
2 x,1/2-y,1/2+z
3 -x,-y,-z
4 -x,1/2+y,1/2-z
_cell_length_a                   16.627(3)
_cell_length_b                   13.161(2)
_cell_length_c                   14.045(2)
_cell_angle_alpha                90
_cell_angle_beta                 95.820(10)
_cell_angle_gamma                90
_cell_volume                     3057.6
_exptl_crystal_colour            yellow
_exptl_crystal_description       block
_cell_formula_units_Z            4
loop_
_atom_site_label
_atom_site_type_symbol
_atom_site_fract_x
_atom_site_fract_y
_atom_site_fract_z
N1 N 0.32077(14) -0.0010(2) 0.4508(2)
N2 N 0.2578(2) 0.2355(2) 0.4494(2)
N3 N 0.2897(2) 0.1928(2) 0.3037(2)
N4 N 0.4912(2) -0.0661(2) 0.3609(2)
N5 N 0.38646(15) -0.1658(2) 0.3103(2)
N6 N 0.2174(2) -0.1664(2) 0.5803(2)
N7 N 0.1489(2) -0.0969(2) 0.4501(2)
C1 C 0.3594(2) 0.0996(2) 0.4456(3)
C2 C 0.3022(2) 0.1764(2) 0.4005(2)
C3 C 0.2134(2) 0.2940(2) 0.3800(2)
C4 C 0.1564(3) 0.3689(4) 0.3901(4)
C5 C 0.1217(3) 0.4151(4) 0.3083(4)
C6 C 0.1432(3) 0.3915(4) 0.2188(4)
C7 C 0.1990(2) 0.3169(3) 0.2062(3)
C8 C 0.2332(2) 0.2689(2) 0.2899(2)
C9 C 0.3307(3) 0.1461(4) 0.2290(3)
C10 C 0.2878(3) 0.0604(5) 0.1814(4)
C11 C 0.3240(5) 0.0207(6) 0.0945(6)
C14 C 0.3827(2) -0.0802(2) 0.4687(2)
C15 C 0.4215(2) -0.1041(2) 0.3808(2)
C16 C 0.5030(2) -0.1059(2) 0.2714(2)
C17 C 0.5662(2) -0.0914(3) 0.2156(3)
C18 C 0.5612(3) -0.1396(3) 0.1282(3)
C19 C 0.4962(3) -0.2019(4) 0.0971(3)
C20 C 0.4334(3) -0.2190(3) 0.1513(3)
C21 C 0.4383(2) -0.1691(2) 0.2392(2)
C22 C 0.2678(2) -0.0008(3) 0.5282(2)
C23 C 0.2118(2) -0.0889(2) 0.5212(2)
C24 C 0.1532(2) -0.2296(3) 0.5468(2)
C25 C 0.1301(3) -0.3227(3) 0.5828(4)
C26 C 0.0633(3) -0.3684(4) 0.5337(5)
C27 C 0.0211(3) -0.3261(4) 0.4545(4)
C28 C 0.0432(2) -0.2347(3) 0.4179(3)
C29 C 0.1104(2) -0.1878(3) 0.4663(2)
C30 C 0.1248(2) -0.0236(3) 0.3741(2)
C31 C 0.0634(3) 0.0522(4) 0.3988(3)
C32 C 0.0367(3) 0.1213(4) 0.3172(4)
C33 C 0.3123(2) -0.2226(3) 0.3086(3)
C34 C 0.3253(4) -0.3298(4) 0.3518(5)
H1 H 0.3662(4) -0.3638(4) 0.3189(5)
H2 H 0.3464(4) -0.3229(4) 0.4184(5)
C35 C 0.2577(4) -0.3915(5) 0.3466(5)
H3 H 0.2721(4) -0.4570(5) 0.3732(5)
H4 H 0.2361(4) -0.3992(5) 0.2810(5)
H5 H 0.2178(4) -0.3608(5) 0.3822(5)
H6 H 0.0055(22) 0.1638(29) 0.3206(27)
H7 H 0.0781(20) 0.1700(27) 0.2904(24)
H8 H 0.0075(21) 0.0706(26) 0.2520(24)
H9 H 0.3987(21) 0.0938(27) 0.4073(24)
H10 H 0.3759(19) 0.1209(24) 0.5130(26)
H11 H 0.1497(21) 0.3815(26) 0.4533(26)
H12 H 0.0708(19) 0.4658(26) 0.3187(22)
H13 H 0.1106(20) 0.4257(26) 0.1603(23)
H14 H 0.2159(20) 0.3036(26) 0.1429(26)
H15 H 0.3575(20) -0.1438(26) 0.4867(23)
H16 H 0.4211(20) -0.0618(26) 0.5217(24)
H17 H 0.6118(20) -0.0518(27) 0.2380(23)
H18 H 0.6080(20) -0.1312(24) 0.0833(24)
H19 H 0.4973(20) -0.2372(27) 0.0422(24)
H20 H 0.3878(21) -0.2580(26) 0.1280(24)
H21 H 0.2926(19) -0.2171(25) 0.2380(25)
H22 H 0.2832(20) -0.1882(27) 0.3469(26)
H23 H 0.2381(20) 0.0684(28) 0.5203(23)
H24 H 0.3010(19) -0.0049(24) 0.5926(25)
H25 H 0.1613(20) -0.3449(26) 0.6383(26)
H26 H 0.0487(22) -0.4181(31) 0.5468(26)
H27 H -0.0222(22) -0.3576(27) 0.4230(25)
H28 H 0.0163(20) -0.2052(26) 0.3567(25)
H29 H 0.1037(20) -0.0586(26) 0.3191(25)
H30 H 0.1696(21) 0.0080(25) 0.3574(23)
H31 H 0.0812(21) 0.0879(28) 0.4495(26)
H32 H 0.0232(19) 0.0135(26) 0.4314(24)
C12? C 0.3735(16) 0.1556(19) 0.1927(18)
C13? C 0.3810(12) 0.0601(15) 0.1020(14)
loop_
_geom_bond_atom_site_label_1
_geom_bond_atom_site_label_2
_geom_bond_site_symmetry_1
_geom_bond_site_symmetry_2
N1 C1 1_555 1_555
N2 C2 1_555 1_555
N3 C2 1_555 1_555
N4 C15 1_555 1_555
N5 C15 1_555 1_555
N6 C23 1_555 1_555
N7 C23 1_555 1_555
C1 C2 1_555 1_555
C3 N2 1_555 1_555
C4 C3 1_555 1_555
C5 C4 1_555 1_555
C6 C5 1_555 1_555
C7 C6 1_555 1_555
C8 N3 1_555 1_555
C9 N3 1_555 1_555
C10 C9 1_555 1_555
C11 C10 1_555 1_555
C14 N1 1_555 1_555
C15 C14 1_555 1_555
C16 N4 1_555 1_555
C17 C16 1_555 1_555
C18 C17 1_555 1_555
C19 C18 1_555 1_555
C20 C19 1_555 1_555
C21 N5 1_555 1_555
C22 N1 1_555 1_555
C23 C22 1_555 1_555
C24 N6 1_555 1_555
C25 C24 1_555 1_555
C26 C25 1_555 1_555
C27 C26 1_555 1_555
C28 C27 1_555 1_555
C29 N7 1_555 1_555
C30 N7 1_555 1_555
C31 C30 1_555 1_555
C32 C31 1_555 1_555
C33 N5 1_555 1_555
C34 C33 1_555 1_555
H1 C34 1_555 1_555
H2 C34 1_555 1_555
C35 C34 1_555 1_555
H3 C35 1_555 1_555
H4 C35 1_555 1_555
H5 C35 1_555 1_555
H6 C32 1_555 1_555
H7 C32 1_555 1_555
H8 C32 1_555 1_555
H9 C1 1_555 1_555
H10 C1 1_555 1_555
H11 C4 1_555 1_555
H12 C5 1_555 1_555
H13 C6 1_555 1_555
H14 C7 1_555 1_555
H15 C14 1_555 1_555
H16 C14 1_555 1_555
H17 C17 1_555 1_555
H18 C18 1_555 1_555
H19 C19 1_555 1_555
H20 C20 1_555 1_555
H21 C33 1_555 1_555
H22 C33 1_555 1_555
H23 C22 1_555 1_555
H24 C22 1_555 1_555
H25 C25 1_555 1_555
H26 C26 1_555 1_555
H27 C27 1_555 1_555
H28 C28 1_555 1_555
H29 C30 1_555 1_555
H30 C30 1_555 1_555
H31 C31 1_555 1_555
H32 C31 1_555 1_555
C3 C8 1_555 1_555
C7 C8 1_555 1_555
C16 C21 1_555 1_555
C20 C21 1_555 1_555
C24 C29 1_555 1_555
C28 C29 1_555 1_555

#END
