
#######################################################################
#
#                 Cambridge Crystallographic Data Centre
#                                CCDC 
#
#######################################################################
#
# If this CIF has been generated from an entry in the Cambridge 
# Structural Database, then it will include bibliographic, chemical, 
# crystal, experimental, refinement or atomic coordinate data resulting 
# from the CCDC's data processing and validation procedures.
#
#######################################################################

data_FAWZEL
_chemical_formula_moiety         'C34 H29 N1 O5 S1,C1 H4 O1,0.68(H2 O1)'
_chemical_name_systematic        
'4-{4-[2,2-bis(4-methoxyphenyl)-1-phenylethenyl]phenyl}-1-methylpyridin-1-ium-2-sulfonate methanol solvate hydrate'
_symmetry_cell_setting           monoclinic
_symmetry_space_group_name_H-M   'P 21/c'
_symmetry_Int_Tables_number      14
_space_group_name_Hall           '-P 2ybc'
loop_
_symmetry_equiv_pos_site_id
_symmetry_equiv_pos_as_xyz
1 x,y,z
2 -x,1/2+y,1/2-z
3 -x,-y,-z
4 x,1/2-y,1/2+z
_cell_length_a                   10.795(2)
_cell_length_b                   9.810(2)
_cell_length_c                   58.340(13)
_cell_angle_alpha                90
_cell_angle_beta                 90.622(3)
_cell_angle_gamma                90
_cell_volume                     6177.78
_exptl_crystal_colour            yellow
_exptl_crystal_description       block
_cell_formula_units_Z            8
loop_
_atom_site_label
_atom_site_type_symbol
_atom_site_fract_x
_atom_site_fract_y
_atom_site_fract_z
S1 S 1.48155(6) 0.47247(7) 0.27897(2)
O1 O 0.70404(17) 0.80126(18) 0.50068(3)
O2 O 0.84952(18) 1.2405(2) 0.36481(4)
O3 O 1.51420(19) 0.4042(2) 0.30012(3)
O4 O 1.57985(16) 0.5516(2) 0.26920(3)
O5 O 1.41657(17) 0.3864(2) 0.26269(3)
N1 N 1.30902(17) 0.6766(2) 0.27227(3)
C1 C 1.0352(2) 0.6637(2) 0.40941(4)
C2 C 0.9644(2) 0.7691(2) 0.41686(4)
C3 C 1.0840(2) 0.6622(2) 0.38549(4)
C4 C 1.2117(2) 0.6541(3) 0.38201(4)
H1 H 1.2649 0.6447 0.3946
C5 C 1.2601(2) 0.6598(3) 0.36010(4)
H2 H 1.3453 0.6548 0.3581
C6 C 1.1817(2) 0.6731(2) 0.34104(4)
C7 C 1.0530(2) 0.6776(3) 0.34452(4)
H3 H 0.9994 0.6848 0.3320
C8 C 1.0055(2) 0.6713(3) 0.36638(4)
H4 H 0.9202 0.6731 0.3684
C9 C 1.2303(2) 0.6791(2) 0.31749(4)
C10 C 1.3284(2) 0.5958(2) 0.31048(4)
H5 H 1.3691 0.5413 0.3212
C11 C 1.3655(2) 0.5933(2) 0.28797(4)
C12 C 1.2179(2) 0.7608(3) 0.27884(4)
H6 H 1.1813 0.8183 0.2681
C13 C 1.1772(2) 0.7641(2) 0.30106(4)
H7 H 1.1139 0.8234 0.3051
C14 C 1.3408(2) 0.6735(3) 0.24753(4)
H8 H 1.4283 0.6869 0.2459
H9 H 1.2968 0.7446 0.2396
H10 H 1.3178 0.5868 0.2411
C15 C 1.0722(2) 0.5429(2) 0.42356(4)
C16 C 1.0450(2) 0.4120(3) 0.41567(4)
H11 H 1.0021 0.4009 0.4019
C17 C 1.0813(3) 0.2978(3) 0.42820(5)
H12 H 1.0616 0.2111 0.4228
C18 C 1.1467(3) 0.3129(3) 0.44864(5)
H13 H 1.1714 0.2365 0.4569
C19 C 1.1750(3) 0.4418(3) 0.45659(5)
H14 H 1.2191 0.4520 0.4703
C20 C 1.1381(2) 0.5566(3) 0.44426(4)
H15 H 1.1572 0.6430 0.4498
C21 C 0.9037(2) 0.7740(2) 0.43977(4)
C22 C 0.8422(2) 0.6622(2) 0.44933(4)
H16 H 0.8437 0.5787 0.4418
C23 C 0.7790(2) 0.6736(3) 0.46981(4)
H17 H 0.7397 0.5978 0.4759
C24 C 0.7741(2) 0.7976(3) 0.48119(4)
C25 C 0.8354(2) 0.9100(3) 0.47229(4)
H18 H 0.8340 0.9931 0.4800
C26 C 0.8990(2) 0.8970(3) 0.45181(4)
H19 H 0.9397 0.9727 0.4459
C27 C 0.6814(3) 0.9321(3) 0.51032(5)
H20 H 0.6450 0.9904 0.4989
H21 H 0.7582 0.9709 0.5156
H22 H 0.6258 0.9232 0.5230
C28 C 0.9393(2) 0.8913(2) 0.40224(4)
C29 C 0.8177(2) 0.9390(3) 0.39979(4)
H23 H 0.7538 0.8925 0.4070
C30 C 0.7907(2) 1.0532(3) 0.38699(5)
H24 H 0.7091 1.0824 0.3854
C31 C 0.8853(2) 1.1252(3) 0.37633(4)
C32 C 1.0065(2) 1.0790(3) 0.37812(4)
H25 H 1.0700 1.1248 0.3707
C33 C 1.0319(2) 0.9635(2) 0.39111(4)
H26 H 1.1134 0.9333 0.3924
C34 C 0.9386(3) 1.3072(3) 0.35103(5)
H27 H 0.9708 1.2440 0.3400
H28 H 1.0050 1.3403 0.3606
H29 H 0.9002 1.3823 0.3432
S2 S 0.97611(5) 0.57482(6) 0.72366(2)
O6 O 0.21353(17) 0.7087(2) 0.49941(3)
O7 O 0.3984(3) 0.2262(3) 0.63874(5)
O8 O 1.00389(17) 0.5052(2) 0.70253(3)
O9 O 0.91118(17) 0.49132(19) 0.74023(3)
O10 O 1.07788(15) 0.65146(19) 0.73344(3)
N2 N 0.81056(18) 0.7864(2) 0.73056(3)
C35 C 0.5412(2) 0.8058(2) 0.59164(4)
C36 C 0.4693(2) 0.6998(2) 0.58498(4)
C37 C 0.6048(2) 0.8097(2) 0.61464(4)
C38 C 0.6729(2) 0.6991(3) 0.62320(4)
H30 H 0.6863 0.6238 0.6139
C39 C 0.7204(2) 0.7001(2) 0.64525(4)
H31 H 0.7646 0.6249 0.6506
C40 C 0.7034(2) 0.8120(2) 0.65980(4)
C41 C 0.6420(2) 0.9258(3) 0.65073(4)
H32 H 0.6328 1.0034 0.6597
C42 C 0.5945(2) 0.9248(3) 0.62854(4)
H33 H 0.5550 1.0021 0.6228
C43 C 0.7442(2) 0.8075(2) 0.68420(4)
C44 C 0.8298(2) 0.7106(2) 0.69217(4)
H34 H 0.8651 0.6508 0.6817
C45 C 0.8632(2) 0.7015(2) 0.71490(4)
C46 C 0.7290(2) 0.8811(2) 0.72339(4)
H35 H 0.6936 0.9389 0.7341
C47 C 0.6961(2) 0.8954(3) 0.70062(4)
H36 H 0.6415 0.9641 0.6962
C48 C 0.8371(2) 0.7761(3) 0.75550(4)
H37 H 0.8051 0.6916 0.7612
H38 H 0.7985 0.8508 0.7633
H39 H 0.9250 0.7794 0.7581
C49 C 0.5614(2) 0.9307(2) 0.57733(4)
C50 C 0.4662(2) 1.0015(3) 0.56608(4)
H40 H 0.3853 0.9693 0.5669
C51 C 0.4909(2) 1.1191(3) 0.55373(4)
H41 H 0.4264 1.1647 0.5463
C52 C 0.6105(3) 1.1694(3) 0.55226(4)
H42 H 0.6266 1.2481 0.5439
C53 C 0.7058(2) 1.1008(3) 0.56341(4)
H43 H 0.7865 1.1335 0.5625
C54 C 0.6813(2) 0.9834(3) 0.57584(4)
H44 H 0.7461 0.9389 0.5833
C55 C 0.4040(2) 0.6971(2) 0.56208(4)
C56 C 0.2751(2) 0.6939(3) 0.56153(4)
H45 H 0.2325 0.6882 0.5753
C57 C 0.2084(2) 0.6989(3) 0.54111(4)
H46 H 0.1222 0.6994 0.5412
C58 C 0.2715(2) 0.7032(3) 0.52053(4)
C59 C 0.4002(2) 0.7026(3) 0.52054(4)
H47 H 0.4426 0.7043 0.5067
C60 C 0.4656(2) 0.6994(3) 0.54123(4)
H48 H 0.5518 0.6987 0.5411
C61 C 0.0808(3) 0.7067(4) 0.49923(5)
H49 H 0.0508 0.7102 0.4837
H50 H 0.0504 0.7842 0.5075
H51 H 0.0523 0.6245 0.5064
C62 C 0.4435(2) 0.5784(3) 0.59956(4)
C63 C 0.3989(2) 0.5890(3) 0.62170(5)
H52 H 0.3811 0.6747 0.6276
C64 C 0.3801(3) 0.4734(4) 0.63534(5)
H53 H 0.3500 0.4825 0.6501
C65 C 0.4068(3) 0.3461(3) 0.62663(6)
C66 C 0.4481(3) 0.3335(3) 0.60443(6)
H54 H 0.4647 0.2475 0.5985
C67 C 0.4648(3) 0.4476(3) 0.59097(5)
H55 H 0.4908 0.4373 0.5759
C68 C 0.3543(5) 0.2360(5) 0.66180(8)
H56 H 0.2747 0.2795 0.6618
H57 H 0.4116 0.2887 0.6708
H58 H 0.3473 0.1463 0.6682
O11 O 0.4051(2) 0.8618(3) 0.69353(4)
H59 H 0.4456 0.7961 0.6980
C69 C 0.3434(4) 0.8285(4) 0.67311(6)
H60 H 0.4025 0.7992 0.6620
H61 H 0.2999 0.9071 0.6674
H62 H 0.2854 0.7564 0.6759
O12 O 0.00208(19) 1.0025(2) 0.71428(4)
H63 H 0.0274 1.0029 0.7276
C70 C 0.0982(4) 0.9721(4) 0.69986(6)
H64 H 0.0708 0.9812 0.6842
H65 H 0.1253 0.8803 0.7026
H66 H 0.1657 1.0338 0.7027
O13 O 0.5217(3) 0.8840(3) 0.28664(4)
H67 H 0.5535 0.8697 0.2736
H68 H 0.5545 0.9545 0.2927
O14 O 0.2337(6) 0.4628(10) 0.68539(11)
H69 H 0.2836 0.4903 0.6958
H70 H 0.1686 0.4883 0.6923
loop_
_geom_bond_atom_site_label_1
_geom_bond_atom_site_label_2
_geom_bond_site_symmetry_1
_geom_bond_site_symmetry_2
S1 O3 1_555 1_555
O1 C24 1_555 1_555
O2 C31 1_555 1_555
O4 S1 1_555 1_555
O5 S1 1_555 1_555
N1 C11 1_555 1_555
C1 C2 1_555 1_555
C2 C21 1_555 1_555
C3 C1 1_555 1_555
C4 C3 1_555 1_555
H1 C4 1_555 1_555
C5 C4 1_555 1_555
H2 C5 1_555 1_555
C6 C5 1_555 1_555
C7 C6 1_555 1_555
H3 C7 1_555 1_555
C8 C3 1_555 1_555
H4 C8 1_555 1_555
C9 C6 1_555 1_555
C10 C9 1_555 1_555
H5 C10 1_555 1_555
C11 S1 1_555 1_555
C12 N1 1_555 1_555
H6 C12 1_555 1_555
C13 C9 1_555 1_555
H7 C13 1_555 1_555
C14 N1 1_555 1_555
H8 C14 1_555 1_555
H9 C14 1_555 1_555
H10 C14 1_555 1_555
C15 C1 1_555 1_555
C16 C15 1_555 1_555
H11 C16 1_555 1_555
C17 C16 1_555 1_555
H12 C17 1_555 1_555
C18 C17 1_555 1_555
H13 C18 1_555 1_555
C19 C18 1_555 1_555
H14 C19 1_555 1_555
C20 C15 1_555 1_555
H15 C20 1_555 1_555
C21 C22 1_555 1_555
C22 H16 1_555 1_555
C23 C22 1_555 1_555
H17 C23 1_555 1_555
C24 C23 1_555 1_555
C25 C24 1_555 1_555
H18 C25 1_555 1_555
C26 C21 1_555 1_555
H19 C26 1_555 1_555
C27 O1 1_555 1_555
H20 C27 1_555 1_555
H21 C27 1_555 1_555
H22 C27 1_555 1_555
C28 C2 1_555 1_555
C29 C28 1_555 1_555
H23 C29 1_555 1_555
C30 C29 1_555 1_555
H24 C30 1_555 1_555
C31 C30 1_555 1_555
C32 C31 1_555 1_555
H25 C32 1_555 1_555
C33 C28 1_555 1_555
H26 C33 1_555 1_555
C34 O2 1_555 1_555
H27 C34 1_555 1_555
H28 C34 1_555 1_555
H29 C34 1_555 1_555
S2 O8 1_555 1_555
O6 C58 1_555 1_555
O7 C65 1_555 1_555
O9 S2 1_555 1_555
O10 S2 1_555 1_555
N2 C45 1_555 1_555
C35 C36 1_555 1_555
C36 C55 1_555 1_555
C37 C35 1_555 1_555
C38 C37 1_555 1_555
H30 C38 1_555 1_555
C39 C38 1_555 1_555
H31 C39 1_555 1_555
C40 C39 1_555 1_555
C41 C40 1_555 1_555
H32 C41 1_555 1_555
C42 C37 1_555 1_555
H33 C42 1_555 1_555
C43 C40 1_555 1_555
C44 C43 1_555 1_555
H34 C44 1_555 1_555
C45 S2 1_555 1_555
C46 N2 1_555 1_555
H35 C46 1_555 1_555
C47 C43 1_555 1_555
H36 C47 1_555 1_555
C48 N2 1_555 1_555
H37 C48 1_555 1_555
H38 C48 1_555 1_555
H39 C48 1_555 1_555
C49 C35 1_555 1_555
C50 C49 1_555 1_555
H40 C50 1_555 1_555
C51 C50 1_555 1_555
H41 C51 1_555 1_555
C52 C51 1_555 1_555
H42 C52 1_555 1_555
C53 C52 1_555 1_555
H43 C53 1_555 1_555
C54 C49 1_555 1_555
H44 C54 1_555 1_555
C55 C56 1_555 1_555
C56 H45 1_555 1_555
C57 C56 1_555 1_555
H46 C57 1_555 1_555
C58 C57 1_555 1_555
C59 C58 1_555 1_555
H47 C59 1_555 1_555
C60 C55 1_555 1_555
H48 C60 1_555 1_555
C61 O6 1_555 1_555
H49 C61 1_555 1_555
H50 C61 1_555 1_555
H51 C61 1_555 1_555
C62 C36 1_555 1_555
C63 C62 1_555 1_555
H52 C63 1_555 1_555
C64 C63 1_555 1_555
H53 C64 1_555 1_555
C65 C64 1_555 1_555
C66 C65 1_555 1_555
H54 C66 1_555 1_555
C67 C62 1_555 1_555
H55 C67 1_555 1_555
C68 O7 1_555 1_555
H56 C68 1_555 1_555
H57 C68 1_555 1_555
H58 C68 1_555 1_555
O11 H59 1_555 1_555
C69 O11 1_555 1_555
H60 C69 1_555 1_555
H61 C69 1_555 1_555
H62 C69 1_555 1_555
O12 H63 1_555 1_555
C70 O12 1_555 1_555
H64 C70 1_555 1_555
H65 C70 1_555 1_555
H66 C70 1_555 1_555
O13 H67 1_555 1_555
H68 O13 1_555 1_555
O14 H69 1_555 1_555
H70 O14 1_555 1_555
C7 C8 1_555 1_555
C10 C11 1_555 1_555
C12 C13 1_555 1_555
C19 C20 1_555 1_555
C25 C26 1_555 1_555
C32 C33 1_555 1_555
C41 C42 1_555 1_555
C44 C45 1_555 1_555
C46 C47 1_555 1_555
C53 C54 1_555 1_555
C59 C60 1_555 1_555
C66 C67 1_555 1_555

#END
