
#######################################################################
#
#                 Cambridge Crystallographic Data Centre
#                                CCDC 
#
#######################################################################
#
# If this CIF has been generated from an entry in the Cambridge 
# Structural Database, then it will include bibliographic, chemical, 
# crystal, experimental, refinement or atomic coordinate data resulting 
# from the CCDC's data processing and validation procedures.
#
#######################################################################

data_FAXCOY
_chemical_formula_moiety         
'C33 H77 Ca3 N12 1+,C21 H24 N1 Si2 1-,4(C4 H8 O1)'
_chemical_name_systematic        
'bis(\m~2~-Hydrido)-tris(\m~2~-4,7,10-trimethyl-1,4,7,10-tetraazacyclododecanyl)-tri-calcium (trimethylsilyl)(triphenylsilyl)imide tetrahydrofuran solvate'
_symmetry_cell_setting           trigonal
_symmetry_space_group_name_H-M   'P 3 1 c'
_symmetry_Int_Tables_number      159
_space_group_name_Hall           "P 3 -2'c"
loop_
_symmetry_equiv_pos_site_id
_symmetry_equiv_pos_as_xyz
1 x,y,z
2 -y,x-y,z
3 -x+y,-x,z
4 y,x,1/2+z
5 -x,-x+y,1/2+z
6 x-y,-y,1/2+z
_cell_length_a                   15.630(2)
_cell_length_b                   15.630(2)
_cell_length_c                   18.787(2)
_cell_angle_alpha                90
_cell_angle_beta                 90
_cell_angle_gamma                120
_cell_volume                     3974.72
_exptl_crystal_colour            colorless
_exptl_crystal_description       block
_cell_formula_units_Z            2
loop_
_atom_site_label
_atom_site_type_symbol
_atom_site_fract_x
_atom_site_fract_y
_atom_site_fract_z
O1 O 0.2366(13) 0.0491(12) 0.9995(9)
C8 C 0.247(2) 0.0393(18) 0.9259(12)
H9 H 0.2035 -0.0300 0.9107
H10 H 0.3163 0.0582 0.9146
C9 C 0.220(2) 0.1057(19) 0.8887(9)
H11 H 0.1471 0.0775 0.8861
H12 H 0.2486 0.1239 0.8404
C10 C 0.2687(19) 0.1924(14) 0.9414(11)
H13 H 0.3413 0.2297 0.9351
H14 H 0.2424 0.2380 0.9359
C11 C 0.240(3) 0.1397(17) 1.0137(9)
H15 H 0.2902 0.1781 1.0504
H16 H 0.1750 0.1287 1.0297
Ca1 Ca 0.44142(6) 0.63948(4) 0.16457(4)
H17 H 0.3333 0.6667 0.093(4)
H18 H 0.3333 0.6667 0.237(3)
N2 N 0.29292(25) 0.47352(19) 0.15962(18)
N3 N 0.4578(4) 0.5508(3) 0.05090(16)
N4 N 0.6021(3) 0.6282(2) 0.17126(18)
N5 N 0.4411(3) 0.5499(2) 0.27991(16)
C12 C 0.2853(4) 0.4322(3) 0.0885(2)
H19 H 0.2595 0.4633 0.0554
H20 H 0.2366 0.3606 0.0900
C13 C 0.3827(4) 0.4463(3) 0.0587(2)
H21 H 0.4081 0.4140 0.0910
H22 H 0.3702 0.4135 0.0118
C14 C 0.5580(4) 0.5636(3) 0.0479(2)
H23 H 0.6040 0.6297 0.0281
H24 H 0.5573 0.5137 0.0151
C15 C 0.5962(4) 0.5536(3) 0.1201(2)
H25 H 0.5516 0.4867 0.1394
H26 H 0.6625 0.5611 0.1143
C16 C 0.6100(4) 0.5990(3) 0.2451(2)
H27 H 0.6341 0.6576 0.2764
H28 H 0.6598 0.5775 0.2461
C17 C 0.5135(4) 0.5167(3) 0.27485(18)
H29 H 0.4878 0.4582 0.2434
H30 H 0.5249 0.4975 0.3226
C18 C 0.3377(4) 0.4619(3) 0.2830(2)
H31 H 0.3360 0.4140 0.3182
H32 H 0.2918 0.4841 0.2996
C19 C 0.3021(4) 0.4108(3) 0.2128(2)
H33 H 0.3489 0.3903 0.1953
H34 H 0.2371 0.3505 0.2194
C20 C 0.4407(4) 0.5907(3) -0.01569(18)
H35 H 0.4379 0.5495 -0.0559
H36 H 0.4950 0.6585 -0.0230
H37 H 0.3781 0.5906 -0.0122
C21 C 0.6885(4) 0.7260(3) 0.1568(3)
H38 H 0.7491 0.7231 0.1636
H39 H 0.6883 0.7747 0.1896
H40 H 0.6855 0.7454 0.1077
C22 C 0.4570(4) 0.6072(3) 0.34507(18)
H41 H 0.4466 0.5651 0.3865
H42 H 0.4104 0.6319 0.3466
H43 H 0.5248 0.6632 0.3457
Ca1B Ca 0.19806(7) 0.55858(6) 0.16457(4)
Ca1A Ca 0.36052(4) 0.80194(7) 0.16457(4)
N2B N 0.18060(31) 0.70708(25) 0.15962(18)
N2A N 0.52648(19) 0.81940(31) 0.15962(18)
N3A N 0.4492(3) 0.9070(5) 0.05090(16)
N3B N 0.0930(5) 0.5422(4) 0.05090(16)
N4A N 0.3718(2) 0.9739(4) 0.17126(18)
N4B N 0.0261(4) 0.3979(3) 0.17126(18)
N5A N 0.4501(2) 0.8912(4) 0.27991(16)
N5B N 0.1088(4) 0.5589(3) 0.27991(16)
C12A C 0.5678(3) 0.8531(5) 0.0885(2)
C12B C 0.1469(5) 0.7147(4) 0.0885(2)
H19A H 0.5367 0.7962 0.0554
H19B H 0.2038 0.7405 0.0554
H20A H 0.6394 0.8760 0.0900
H20B H 0.1240 0.7634 0.0900
C13A C 0.5537(3) 0.9364(5) 0.0587(2)
C13B C 0.0636(5) 0.6173(4) 0.0587(2)
H21A H 0.5860 0.9941 0.0910
H21B H 0.0059 0.5919 0.0910
H22A H 0.5865 0.9567 0.0118
H22B H 0.0433 0.6298 0.0118
C14A C 0.4364(3) 0.9944(5) 0.0479(2)
C14B C 0.0056(5) 0.4420(4) 0.0479(2)
H23A H 0.3703 0.9743 0.0281
H23B H 0.0257 0.3960 0.0281
H24A H 0.4863 1.0436 0.0151
H24B H -0.0436 0.4427 0.0151
C15A C 0.4464(3) 1.0426(5) 0.1201(2)
C15B C -0.0426(5) 0.4038(4) 0.1201(2)
H25A H 0.5133 1.0649 0.1394
H25B H -0.0649 0.4484 0.1394
H26A H 0.4389 1.1014 0.1143
H26B H -0.1014 0.3375 0.1143
C16A C 0.4010(3) 1.0110(5) 0.2451(2)
C16B C -0.0110(5) 0.3900(4) 0.2451(2)
H27A H 0.3424 0.9765 0.2764
H27B H 0.0235 0.3659 0.2764
H28A H 0.4225 1.0823 0.2461
H28B H -0.0823 0.3402 0.2461
C17A C 0.4833(3) 0.9968(5) 0.27485(18)
C17B C 0.0032(5) 0.4865(4) 0.27485(18)
H29A H 0.5418 1.0296 0.2434
H29B H -0.0296 0.5122 0.2434
H30A H 0.5025 1.0274 0.3226
H30B H -0.0274 0.4751 0.3226
C18A C 0.5381(3) 0.8758(5) 0.2830(2)
C18B C 0.1242(5) 0.6623(4) 0.2830(2)
H31A H 0.5860 0.9220 0.3182
H31B H 0.0780 0.6640 0.3182
H32A H 0.5159 0.8077 0.2996
H32B H 0.1923 0.7082 0.2996
C19A C 0.5892(3) 0.8913(5) 0.2128(2)
C19B C 0.1087(5) 0.6979(4) 0.2128(2)
H33A H 0.6097 0.9586 0.1953
H33B H 0.0414 0.6511 0.1953
H34A H 0.6495 0.8866 0.2194
H34B H 0.1134 0.7629 0.2194
C20A C 0.4093(3) 0.8500(5) -0.01569(18)
C20B C 0.1500(5) 0.5593(4) -0.01569(18)
H35A H 0.4505 0.8884 -0.0559
H35B H 0.1116 0.5621 -0.0559
H36A H 0.3415 0.8365 -0.0230
H36B H 0.1635 0.5050 -0.0230
H37A H 0.4094 0.7875 -0.0122
H37B H 0.2125 0.6219 -0.0122
C21A C 0.2740(3) 0.9625(5) 0.1568(3)
C21B C 0.0375(5) 0.3115(4) 0.1568(3)
H38A H 0.2769 1.0260 0.1636
H38B H -0.0260 0.2509 0.1636
H39A H 0.2253 0.9136 0.1896
H39B H 0.0864 0.3117 0.1896
H40A H 0.2546 0.9401 0.1077
H40B H 0.0599 0.3145 0.1077
C22A C 0.3928(3) 0.8498(5) 0.34507(18)
C22B C 0.1502(5) 0.5430(4) 0.34507(18)
H41A H 0.4349 0.8815 0.3865
H41B H 0.1185 0.5534 0.3865
H42A H 0.3681 0.7785 0.3466
H42B H 0.2215 0.5896 0.3466
H43A H 0.3368 0.8616 0.3457
H43B H 0.1384 0.4752 0.3457
N1 N 0.669(3) 0.323(2) 0.1318(4)
Si1 Si 0.6667 0.3333 0.04355(8)
Si2 Si 0.6667 0.3333 0.21665(8)
C1 C 0.7479(4) 0.4610(3) 0.00377(19)
H1 H 0.7188 0.5026 0.0138
H2 H 0.7526 0.4552 -0.0478
H3 H 0.8140 0.4909 0.0248
C2 C 0.7486(4) 0.4613(3) 0.25496(18)
C3 C 0.7545(4) 0.4868(3) 0.32715(19)
H4 H 0.7166 0.4368 0.3609
C4 C 0.8150(4) 0.5842(3) 0.3509(2)
H5 H 0.8180 0.5994 0.4001
C5 C 0.8710(4) 0.6591(3) 0.3016(2)
H6 H 0.9123 0.7251 0.3173
C6 C 0.8656(4) 0.6362(3) 0.2310(2)
H7 H 0.9024 0.6870 0.1974
C7 C 0.8063(4) 0.5386(3) 0.20772(19)
H8 H 0.8052 0.5244 0.1585
N1A N 0.677(2) 0.346(4) 0.1318(4)
N1B N 0.654(4) 0.331(3) 0.1318(4)
C1A C 0.5390(3) 0.2869(5) 0.00377(19)
C1B C 0.7131(5) 0.2521(4) 0.00377(19)
H1A H 0.4974 0.2162 0.0138
H1B H 0.7838 0.2812 0.0138
H2A H 0.5448 0.2974 -0.0478
H2B H 0.7026 0.2474 -0.0478
H3A H 0.5091 0.3231 0.0248
H3B H 0.6769 0.1860 0.0248
C2A C 0.5387(3) 0.2873(5) 0.25496(18)
C2B C 0.7127(5) 0.2514(4) 0.25496(18)
C3A C 0.5132(3) 0.2677(5) 0.32715(19)
C3B C 0.7323(5) 0.2455(4) 0.32715(19)
H4A H 0.5632 0.2798 0.3609
H4B H 0.7202 0.2834 0.3609
C4A C 0.4158(3) 0.2308(5) 0.3509(2)
C4B C 0.7692(5) 0.1850(4) 0.3509(2)
H5A H 0.4006 0.2186 0.4001
H5B H 0.7814 0.1820 0.4001
C5A C 0.3409(3) 0.2119(5) 0.3016(2)
C5B C 0.7881(5) 0.1290(4) 0.3016(2)
H6A H 0.2749 0.1872 0.3173
H6B H 0.8128 0.0877 0.3173
C6A C 0.3638(3) 0.2294(5) 0.2310(2)
C6B C 0.7706(5) 0.1344(4) 0.2310(2)
H7A H 0.3130 0.2154 0.1974
H7B H 0.7846 0.0976 0.1974
C7A C 0.4614(3) 0.2677(5) 0.20772(19)
C7B C 0.7323(5) 0.1937(4) 0.20772(19)
H8A H 0.4756 0.2808 0.1585
H8B H 0.7192 0.1948 0.1585
O2? O 0.0652(12) 1.0905(12) 0.2018(11)
C23? C 0.0500(16) 1.0055(16) 0.2432(11)
H44? H 0.0543 1.0201 0.2948
H45? H 0.1000 0.9868 0.2310
C24? C -0.0541(17) 0.9225(15) 0.2234(13)
H46? H -0.0546 0.8596 0.2154
H47? H -0.1019 0.9124 0.2616
C25? C -0.0787(16) 0.9570(17) 0.1567(14)
H48? H -0.0641 0.9283 0.1146
H49? H -0.1496 0.9368 0.1559
C26? C -0.0176(18) 1.0648(16) 0.1560(13)
H50? H 0.0053 1.0886 0.1070
H51? H -0.0560 1.0952 0.1734
C27? C 0.197(2) 0.0868(17) 1.0136(10)
C28? C 0.1529(17) 0.0188(13) 0.9114(10)
C29? C 0.231(2) 0.1666(14) 0.9557(13)
C30? C 0.1459(18) 0.0198(15) 0.9978(10)
C31? C 0.2577(19) 0.1262(17) 0.8942(10)
C32? C 0.239(2) 0.1260(18) 1.0038(12)
C33? C 0.266(2) 0.0452(18) 0.9233(13)
C34? C 0.1896(19) 0.1719(14) 0.9575(11)
H52? H 0.2432 0.1105 1.0545
H53? H 0.1301 0.0680 1.0306
H54? H 0.2144 0.0214 0.8951
H55? H 0.0950 -0.0392 0.8902
H56? H 0.1774 0.1798 0.9431
H57? H 0.2890 0.2289 0.9721
H58? H 0.0845 0.0166 1.0150
H59? H 0.1553 -0.0318 1.0210
H60? H 0.2058 0.1027 0.8571
H61? H 0.3212 0.1766 0.8731
H62? H 0.2529 0.1517 1.0532
H63? H 0.2990 0.1312 0.9818
H64? H 0.2527 -0.0043 0.8857
H65? H 0.3335 0.0696 0.9417
H66? H 0.1349 0.1723 0.9839
H67? H 0.2384 0.2407 0.9441
O3? O 0.1975(13) 0.0019(11) 0.9782(9)
O4? O 0.1532(13) 0.1119(12) 0.8962(8)
loop_
_geom_bond_atom_site_label_1
_geom_bond_atom_site_label_2
_geom_bond_site_symmetry_1
_geom_bond_site_symmetry_2
N1 Si1 1_555 1_555
Si1 C1 1_555 1_555
Si2 N1 1_555 1_555
C1 H1 1_555 1_555
H2 C1 1_555 1_555
H3 C1 1_555 1_555
C2 Si2 1_555 1_555
C3 C2 1_555 1_555
H4 C3 1_555 1_555
C4 C3 1_555 1_555
H5 C4 1_555 1_555
C5 C4 1_555 1_555
H6 C5 1_555 1_555
C6 C5 1_555 1_555
H7 C6 1_555 1_555
C7 C2 1_555 1_555
H8 C7 1_555 1_555
O1 C8 1_555 1_555
C8 H9 1_555 1_555
H10 C8 1_555 1_555
C9 C8 1_555 1_555
H11 C9 1_555 1_555
H12 C9 1_555 1_555
C10 C9 1_555 1_555
H13 C10 1_555 1_555
H14 C10 1_555 1_555
C11 O1 1_555 1_555
H15 C11 1_555 1_555
H16 C11 1_555 1_555
Ca1 H17 1_555 1_555
H17 Ca1B 1_555 1_555
H18 Ca1 1_555 1_555
N2 Ca1 1_555 1_555
N3 Ca1 1_555 1_555
N4 Ca1 1_555 1_555
N5 Ca1 1_555 1_555
C12 N2 1_555 1_555
H19 C12 1_555 1_555
H20 C12 1_555 1_555
C13 N3 1_555 1_555
H21 C13 1_555 1_555
H22 C13 1_555 1_555
C14 N3 1_555 1_555
H23 C14 1_555 1_555
H24 C14 1_555 1_555
C15 N4 1_555 1_555
H25 C15 1_555 1_555
H26 C15 1_555 1_555
C16 N4 1_555 1_555
H27 C16 1_555 1_555
H28 C16 1_555 1_555
C17 N5 1_555 1_555
H29 C17 1_555 1_555
H30 C17 1_555 1_555
C18 N5 1_555 1_555
H31 C18 1_555 1_555
H32 C18 1_555 1_555
C19 N2 1_555 1_555
H33 C19 1_555 1_555
H34 C19 1_555 1_555
C20 N3 1_555 1_555
H35 C20 1_555 1_555
H36 C20 1_555 1_555
H37 C20 1_555 1_555
C21 N4 1_555 1_555
H38 C21 1_555 1_555
H39 C21 1_555 1_555
H40 C21 1_555 1_555
C22 N5 1_555 1_555
H41 C22 1_555 1_555
H42 C22 1_555 1_555
H43 C22 1_555 1_555
N1A N1 1_555 1_555
N1B N1 1_555 1_555
C1A Si1 1_555 1_555
C1B Si1 1_555 1_555
H1A C1A 1_555 1_555
H1B C1B 1_555 1_555
H2A C1A 1_555 1_555
H2B C1B 1_555 1_555
H3A C1A 1_555 1_555
H3B C1B 1_555 1_555
C2A Si2 1_555 1_555
C2B Si2 1_555 1_555
C3A C2A 1_555 1_555
C3B C2B 1_555 1_555
H4A C3A 1_555 1_555
H4B C3B 1_555 1_555
C4A C3A 1_555 1_555
C4B C3B 1_555 1_555
H5A C4A 1_555 1_555
H5B C4B 1_555 1_555
C5A C4A 1_555 1_555
C5B C4B 1_555 1_555
H6A C5A 1_555 1_555
H6B C5B 1_555 1_555
C6A C5A 1_555 1_555
C6B C5B 1_555 1_555
H7A C6A 1_555 1_555
H7B C6B 1_555 1_555
C7A C2A 1_555 1_555
C7B C2B 1_555 1_555
H8A C7A 1_555 1_555
H8B C7B 1_555 1_555
Ca1B H18 1_555 1_555
Ca1A H17 1_555 1_555
N2B Ca1B 1_555 1_555
N2A Ca1 1_555 1_555
N3A Ca1A 1_555 1_555
N3B Ca1B 1_555 1_555
N4A Ca1A 1_555 1_555
N4B Ca1B 1_555 1_555
N5A Ca1A 1_555 1_555
N5B Ca1B 1_555 1_555
C12A N2A 1_555 1_555
C12B N2B 1_555 1_555
H19A C12A 1_555 1_555
H19B C12B 1_555 1_555
H20A C12A 1_555 1_555
H20B C12B 1_555 1_555
C13A N3A 1_555 1_555
C13B N3B 1_555 1_555
H21A C13A 1_555 1_555
H21B C13B 1_555 1_555
H22A C13A 1_555 1_555
H22B C13B 1_555 1_555
C14A N3A 1_555 1_555
C14B N3B 1_555 1_555
H23A C14A 1_555 1_555
H23B C14B 1_555 1_555
H24A C14A 1_555 1_555
H24B C14B 1_555 1_555
C15A N4A 1_555 1_555
C15B N4B 1_555 1_555
H25A C15A 1_555 1_555
H25B C15B 1_555 1_555
H26A C15A 1_555 1_555
H26B C15B 1_555 1_555
C16A N4A 1_555 1_555
C16B N4B 1_555 1_555
H27A C16A 1_555 1_555
H27B C16B 1_555 1_555
H28A C16A 1_555 1_555
H28B C16B 1_555 1_555
C17A N5A 1_555 1_555
C17B N5B 1_555 1_555
H29A C17A 1_555 1_555
H29B C17B 1_555 1_555
H30A C17A 1_555 1_555
H30B C17B 1_555 1_555
C18A N5A 1_555 1_555
C18B N5B 1_555 1_555
H31A C18A 1_555 1_555
H31B C18B 1_555 1_555
H32A C18A 1_555 1_555
H32B C18B 1_555 1_555
C19A N2A 1_555 1_555
C19B N2B 1_555 1_555
H33A C19A 1_555 1_555
H33B C19B 1_555 1_555
H34A C19A 1_555 1_555
H34B C19B 1_555 1_555
C20A N3A 1_555 1_555
C20B N3B 1_555 1_555
H35A C20A 1_555 1_555
H35B C20B 1_555 1_555
H36A C20A 1_555 1_555
H36B C20B 1_555 1_555
H37A C20A 1_555 1_555
H37B C20B 1_555 1_555
C21A N4A 1_555 1_555
C21B N4B 1_555 1_555
H38A C21A 1_555 1_555
H38B C21B 1_555 1_555
H39A C21A 1_555 1_555
H39B C21B 1_555 1_555
H40A C21A 1_555 1_555
H40B C21B 1_555 1_555
C22A N5A 1_555 1_555
C22B N5B 1_555 1_555
H41A C22A 1_555 1_555
H41B C22B 1_555 1_555
H42A C22A 1_555 1_555
H42B C22B 1_555 1_555
H43A C22A 1_555 1_555
H43B C22B 1_555 1_555
Si1 N1A 1_555 1_555
Si1 N1B 1_555 1_555
Si2 N1A 1_555 1_555
Si2 N1B 1_555 1_555
C6 C7 1_555 1_555
C10 C11 1_555 1_555
H18 Ca1A 1_555 1_555
N2 Ca1B 1_555 1_555
C12 C13 1_555 1_555
C14 C15 1_555 1_555
C16 C17 1_555 1_555
C18 C19 1_555 1_555
N1A N1B 1_555 1_555
C6A C7A 1_555 1_555
C6B C7B 1_555 1_555
Ca1A N2B 1_555 1_555
Ca1A N2A 1_555 1_555
C12A C13A 1_555 1_555
C12B C13B 1_555 1_555
C14A C15A 1_555 1_555
C14B C15B 1_555 1_555
C16A C17A 1_555 1_555
C16B C17B 1_555 1_555
C18A C19A 1_555 1_555
C18B C19B 1_555 1_555

#END
