
#######################################################################
#
#                 Cambridge Crystallographic Data Centre
#                                CCDC 
#
#######################################################################
#
# If this CIF has been generated from an entry in the Cambridge 
# Structural Database, then it will include bibliographic, chemical, 
# crystal, experimental, refinement or atomic coordinate data resulting 
# from the CCDC's data processing and validation procedures.
#
#######################################################################

data_FAXNEX
_chemical_formula_moiety         'C36 H52 O12'
_chemical_name_systematic        4,7,13,16-bis(22-Crown-6)(2.2)paracyclophane
_symmetry_cell_setting           monoclinic
_symmetry_space_group_name_H-M   'P 21/c'
_symmetry_Int_Tables_number      14
_space_group_name_Hall           '-P 2ybc'
loop_
_symmetry_equiv_pos_site_id
_symmetry_equiv_pos_as_xyz
1 x,y,z
2 -x,1/2+y,1/2-z
3 -x,-y,-z
4 x,1/2-y,1/2+z
_cell_length_a                   9.049(3)
_cell_length_b                   24.760(11)
_cell_length_c                   15.617(4)
_cell_angle_alpha                90
_cell_angle_beta                 104.14(2)
_cell_angle_gamma                90
_cell_volume                     3393.02
_exptl_crystal_colour            colorless
_cell_formula_units_Z            4
loop_
_atom_site_label
_atom_site_type_symbol
_atom_site_fract_x
_atom_site_fract_y
_atom_site_fract_z
C1 C 0.0792(4) 0.3734(1) 0.0652(2)
C2 C 0.1638(4) 0.3301(1) 0.0459(2)
C3 C 0.3210(4) 0.3357(2) 0.0566(2)
C4 C 0.3934(4) 0.3848(1) 0.0826(2)
C5 C 0.3019(4) 0.4302(1) 0.0799(2)
C6 C 0.1467(4) 0.4243(2) 0.0734(2)
C7 C 0.5600(4) 0.3875(2) 0.1311(2)
C8 C 0.5834(4) 0.3951(2) 0.2349(2)
C9 C 0.4375(4) 0.3867(1) 0.2645(2)
C10 C 0.3686(4) 0.3364(2) 0.2554(2)
C11 C 0.2138(4) 0.3303(1) 0.2489(2)
C12 C 0.1226(4) 0.3757(1) 0.2472(2)
C13 C 0.1957(4) 0.4247(2) 0.2729(2)
C14 C 0.3538(4) 0.4303(1) 0.2845(2)
C15 C -0.0432(4) 0.3736(1) 0.1984(2)
C16 C -0.0669(4) 0.3647(2) 0.0956(2)
O1 O 0.0889(3) 0.2813(1) 0.0246(2)
C17 C 0.1693(4) 0.2421(1) -0.0148(2)
C18 C 0.0627(4) 0.1975(2) -0.0538(2)
O2 O 0.0405(3) 0.1621(1) 0.0141(2)
C19 C -0.0377(5) 0.1147(1) -0.0223(3)
C20 C -0.0330(4) 0.0744(2) 0.0504(3)
O3 O 0.1186(3) 0.0528(1) 0.0758(2)
C21 C 0.1355(5) 0.0107(2) 0.1401(3)
C22 C 0.1764(4) 0.0315(2) 0.2332(3)
O4 O 0.0505(3) 0.0609(1) 0.2483(2)
C23 C 0.0761(5) 0.0846(2) 0.3346(2)
C24 C -0.0017(4) 0.1383(1) 0.3279(3)
O5 O 0.0924(3) 0.1824(1) 0.3153(2)
C25 C 0.1285(4) 0.1851(1) 0.2311(2)
C26 C 0.2271(4) 0.2342(1) 0.2328(2)
O6 O 0.1380(3) 0.2815(1) 0.2336(2)
O7 O 0.3786(3) 0.4784(1) 0.0945(2)
C27 C 0.2922(4) 0.5261(1) 0.0967(3)
C28 C 0.4041(4) 0.5720(1) 0.1059(3)
O8 O 0.3233(3) 0.6198(1) 0.1133(2)
C29 C 0.4137(4) 0.6676(2) 0.1176(3)
C30 C 0.3403(4) 0.7117(2) 0.1591(2)
O9 O 0.3598(3) 0.6997(1) 0.2494(2)
C31 C 0.2768(4) 0.7353(2) 0.2930(3)
C32 C 0.2818(4) 0.7133(2) 0.3830(3)
O10 O 0.4329(3) 0.7211(1) 0.4383(2)
C33 C 0.4732(5) 0.6837(1) 0.5092(3)
C34 C 0.5417(5) 0.6322(2) 0.4843(3)
O11 O 0.4246(3) 0.5974(1) 0.4358(2)
C35 C 0.4864(4) 0.5563(2) 0.3923(3)
C36 C 0.3601(4) 0.5180(2) 0.3510(3)
O12 O 0.4280(3) 0.4792(1) 0.3047(2)
H1 H 0.392(3) 0.301(1) 0.056(2)
H2 H 0.079(2) 0.458(1) 0.084(2)
H3 H 0.433(2) 0.302(1) 0.245(2)
H4 H 0.132(3) 0.461(1) 0.276(2)
H5 H 0.6147 0.3504 0.1193
H6 H 0.6122 0.4211 0.1056
H7 H 0.6243 0.4355 0.2525
H8 H 0.6671 0.3662 0.2687
H9 H -0.0968 0.3407 0.2248
H10 H -0.0966 0.4112 0.2090
H11 H -0.1522 0.3928 0.0610
H12 H -0.1060 0.3239 0.0796
H13 H 0.2134 0.2610 -0.0657
H14 H 0.2624 0.2256 0.0353
H15 H 0.1099 0.1750 -0.1001
H16 H -0.0455 0.2147 -0.0877
H17 H -0.1546 0.1245 -0.0539
H18 H 0.0170 0.0977 -0.0703
H19 H -0.1142 0.0424 0.0273
H20 H -0.0601 0.0943 0.1062
H21 H 0.0285 -0.0106 0.1298
H22 H 0.2231 -0.0168 0.1310
H23 H 0.2744 0.0578 0.2421
H24 H 0.2028 -0.0019 0.2788
H25 H 0.0308 0.0584 0.3772
H26 H 0.1969 0.0901 0.3617
H27 H -0.0384 0.1451 0.3879
H28 H -0.0999 0.1370 0.2724
H29 H 0.1892 0.1492 0.2203
H30 H 0.0254 0.1889 0.1791
H31 H 0.2732 0.2344 0.1752
H32 H 0.3193 0.2333 0.2916
H33 H 0.2034 0.5301 0.0366
H34 H 0.2419 0.5253 0.1526
H35 H 0.4497 0.5739 0.0482
H36 H 0.4962 0.5666 0.1640
H37 H 0.5268 0.6598 0.1580
H38 H 0.4211 0.6794 0.0522
H39 H 0.2203 0.7135 0.1269
H40 H 0.3928 0.7500 0.1519
H41 H 0.3291 0.7748 0.2993
H42 H 0.1600 0.7384 0.2552
H43 H 0.2553 0.6707 0.3779
H44 H 0.1998 0.7341 0.4110
H45 H 0.5545 0.7026 0.5630
H46 H 0.3717 0.6734 0.5303
H47 H 0.6035 0.6118 0.5434
H48 H 0.6189 0.6421 0.4438
H49 H 0.5337 0.5739 0.3416
H50 H 0.5746 0.5350 0.4391
H51 H 0.2691 0.5392 0.3059
H52 H 0.3158 0.4985 0.4014
loop_
_geom_bond_atom_site_label_1
_geom_bond_atom_site_label_2
_geom_bond_site_symmetry_1
_geom_bond_site_symmetry_2
C1 C2 1_555 1_555
C2 C3 1_555 1_555
C3 C4 1_555 1_555
C4 C5 1_555 1_555
C5 C6 1_555 1_555
C6 C1 1_555 1_555
C7 C4 1_555 1_555
C8 C7 1_555 1_555
C9 C8 1_555 1_555
C10 C9 1_555 1_555
C11 C10 1_555 1_555
C12 C11 1_555 1_555
C13 C12 1_555 1_555
C14 C9 1_555 1_555
C15 C12 1_555 1_555
C16 C1 1_555 1_555
O1 C2 1_555 1_555
C17 O1 1_555 1_555
C18 C17 1_555 1_555
O2 C18 1_555 1_555
C19 O2 1_555 1_555
C20 C19 1_555 1_555
O3 C20 1_555 1_555
C21 O3 1_555 1_555
C22 C21 1_555 1_555
O4 C22 1_555 1_555
C23 O4 1_555 1_555
C24 C23 1_555 1_555
O5 C24 1_555 1_555
C25 O5 1_555 1_555
C26 C25 1_555 1_555
O6 C11 1_555 1_555
O7 C5 1_555 1_555
C27 O7 1_555 1_555
C28 C27 1_555 1_555
O8 C28 1_555 1_555
C29 O8 1_555 1_555
C30 C29 1_555 1_555
O9 C30 1_555 1_555
C31 O9 1_555 1_555
C32 C31 1_555 1_555
O10 C32 1_555 1_555
C33 O10 1_555 1_555
C34 C33 1_555 1_555
O11 C34 1_555 1_555
C35 O11 1_555 1_555
C36 C35 1_555 1_555
O12 C14 1_555 1_555
H1 C3 1_555 1_555
H2 C6 1_555 1_555
H3 C10 1_555 1_555
H4 C13 1_555 1_555
H5 C7 1_555 1_555
H6 C7 1_555 1_555
H7 C8 1_555 1_555
H8 C8 1_555 1_555
H9 C15 1_555 1_555
H10 C15 1_555 1_555
H11 C16 1_555 1_555
H12 C16 1_555 1_555
H13 C17 1_555 1_555
H14 C17 1_555 1_555
H15 C18 1_555 1_555
H16 C18 1_555 1_555
H17 C19 1_555 1_555
H18 C19 1_555 1_555
H19 C20 1_555 1_555
H20 C20 1_555 1_555
H21 C21 1_555 1_555
H22 C21 1_555 1_555
H23 C22 1_555 1_555
H24 C22 1_555 1_555
H25 C23 1_555 1_555
H26 C23 1_555 1_555
H27 C24 1_555 1_555
H28 C24 1_555 1_555
H29 C25 1_555 1_555
H30 C25 1_555 1_555
H31 C26 1_555 1_555
H32 C26 1_555 1_555
H33 C27 1_555 1_555
H34 C27 1_555 1_555
H35 C28 1_555 1_555
H36 C28 1_555 1_555
H37 C29 1_555 1_555
H38 C29 1_555 1_555
H39 C30 1_555 1_555
H40 C30 1_555 1_555
H41 C31 1_555 1_555
H42 C31 1_555 1_555
H43 C32 1_555 1_555
H44 C32 1_555 1_555
H45 C33 1_555 1_555
H46 C33 1_555 1_555
H47 C34 1_555 1_555
H48 C34 1_555 1_555
H49 C35 1_555 1_555
H50 C35 1_555 1_555
H51 C36 1_555 1_555
H52 C36 1_555 1_555
C13 C14 1_555 1_555
C15 C16 1_555 1_555
C26 O6 1_555 1_555
C36 O12 1_555 1_555

#END
