
#######################################################################
#
#                 Cambridge Crystallographic Data Centre
#                                CCDC 
#
#######################################################################
#
# If this CIF has been generated from an entry in the Cambridge 
# Structural Database, then it will include bibliographic, chemical, 
# crystal, experimental, refinement or atomic coordinate data resulting 
# from the CCDC's data processing and validation procedures.
#
#######################################################################

data_FAXREC
_chemical_formula_moiety         'C18 H23 N1 O3'
_chemical_name_systematic        
"t-Butyl 3-oxospiro(indan-1,4'-piperidine)-1'-carboxylate"
_symmetry_cell_setting           monoclinic
_symmetry_space_group_name_H-M   'P 21/c'
_symmetry_Int_Tables_number      14
_space_group_name_Hall           '-P 2ybc'
loop_
_symmetry_equiv_pos_site_id
_symmetry_equiv_pos_as_xyz
1 x,y,z
2 -x,1/2+y,1/2-z
3 -x,-y,-z
4 x,1/2-y,1/2+z
_cell_length_a                   12.998(6)
_cell_length_b                   15.198(6)
_cell_length_c                   8.543(4)
_cell_angle_alpha                90
_cell_angle_beta                 102.850(8)
_cell_angle_gamma                90
_cell_volume                     1645.35
_exptl_crystal_colour            colorless
_exptl_crystal_description       prism
_chemical_melting_point          '393-395 K'
_cell_formula_units_Z            4
_exptl_crystal_recrystallization_method 'ethyl acetate/petroleum ether'
loop_
_atom_site_label
_atom_site_type_symbol
_atom_site_fract_x
_atom_site_fract_y
_atom_site_fract_z
O1 O 0.08477(17) -0.11411(14) 1.0860(2)
O2 O 0.36138(16) 0.35659(13) 0.9884(3)
O3 O 0.50136(15) 0.26314(11) 1.0421(2)
N1 N 0.33851(17) 0.20864(13) 0.9817(3)
C1 C 0.1157(2) -0.06545(18) 0.9928(3)
C2 C 0.1061(2) -0.07890(16) 0.8212(3)
C3 C 0.0579(2) -0.14749(19) 0.7260(4)
H1 H 0.0261 -0.1933 0.7699
C4 C 0.0579(3) -0.1464(2) 0.5669(4)
H2 H 0.0259 -0.1920 0.5012
C5 C 0.1049(2) -0.0783(2) 0.5018(4)
H3 H 0.1035 -0.0784 0.3924
C6 C 0.1544(2) -0.00972(18) 0.5969(3)
H4 H 0.1866 0.0357 0.5527
C7 C 0.15467(18) -0.01039(15) 0.7590(3)
C8 C 0.20528(19) 0.05521(15) 0.8861(3)
C9 C 0.1696(2) 0.02124(16) 1.0366(3)
H5 H 0.2302 0.0139 1.1254
H6 H 0.1214 0.0628 1.0684
C10 C 0.16783(19) 0.14918(15) 0.8412(3)
H7 H 0.1797 0.1630 0.7358
H8 H 0.0926 0.1528 0.8353
C11 C 0.2243(2) 0.21647(17) 0.9611(4)
H9 H 0.2021 0.2752 0.9237
H10 H 0.2054 0.2075 1.0636
C12 C 0.3809(2) 0.12116(16) 1.0273(3)
H11 H 0.3713 0.1068 1.1338
H12 H 0.4560 0.1204 1.0304
C13 C 0.32569(19) 0.05336(16) 0.9086(3)
H13 H 0.3514 -0.0047 0.9452
H14 H 0.3434 0.0637 0.8057
C14 C 0.3975(2) 0.28281(19) 1.0038(3)
C15 C 0.5828(2) 0.33222(18) 1.0782(3)
C16 C 0.6850(2) 0.27924(19) 1.1159(4)
H15 H 0.6818 0.2367 1.1978
H16 H 0.7435 0.3182 1.1530
H17 H 0.6939 0.2495 1.0207
C17 C 0.5687(3) 0.38405(19) 1.2226(4)
H18 H 0.5031 0.4155 1.1965
H19 H 0.6258 0.4251 1.2530
H20 H 0.5683 0.3446 1.3101
C18 C 0.5776(3) 0.3904(2) 0.9335(4)
H21 H 0.5826 0.3548 0.8427
H22 H 0.6350 0.4316 0.9551
H23 H 0.5119 0.4218 0.9107
loop_
_geom_bond_atom_site_label_1
_geom_bond_atom_site_label_2
_geom_bond_site_symmetry_1
_geom_bond_site_symmetry_2
O1 C1 1_555 1_555
O2 C14 1_555 1_555
O3 C14 1_555 1_555
N1 C11 1_555 1_555
C1 C2 1_555 1_555
C2 C3 1_555 1_555
C3 H1 1_555 1_555
C4 C3 1_555 1_555
H2 C4 1_555 1_555
C5 C4 1_555 1_555
H3 C5 1_555 1_555
C6 C5 1_555 1_555
H4 C6 1_555 1_555
C7 C2 1_555 1_555
C8 C7 1_555 1_555
C9 C1 1_555 1_555
H5 C9 1_555 1_555
H6 C9 1_555 1_555
C10 C8 1_555 1_555
H7 C10 1_555 1_555
H8 C10 1_555 1_555
C11 C10 1_555 1_555
H9 C11 1_555 1_555
H10 C11 1_555 1_555
C12 N1 1_555 1_555
H11 C12 1_555 1_555
H12 C12 1_555 1_555
C13 C8 1_555 1_555
H13 C13 1_555 1_555
H14 C13 1_555 1_555
C14 N1 1_555 1_555
C15 O3 1_555 1_555
C16 C15 1_555 1_555
H15 C16 1_555 1_555
H16 C16 1_555 1_555
H17 C16 1_555 1_555
C17 C15 1_555 1_555
H18 C17 1_555 1_555
H19 C17 1_555 1_555
H20 C17 1_555 1_555
C18 C15 1_555 1_555
H21 C18 1_555 1_555
H22 C18 1_555 1_555
H23 C18 1_555 1_555
C6 C7 1_555 1_555
C8 C9 1_555 1_555
C12 C13 1_555 1_555

#END
