
#######################################################################
#
#                 Cambridge Crystallographic Data Centre
#                                CCDC 
#
#######################################################################
#
# If this CIF has been generated from an entry in the Cambridge 
# Structural Database, then it will include bibliographic, chemical, 
# crystal, experimental, refinement or atomic coordinate data resulting 
# from the CCDC's data processing and validation procedures.
#
#######################################################################

data_FAXRAY
_chemical_formula_moiety         'C21 H19 N5'
_chemical_name_systematic        
4-(4-Isopropylphenyl)-3,5-di-2-pyridyl-4H-1,2,4-triazole
_symmetry_cell_setting           monoclinic
_symmetry_space_group_name_H-M   'P 21/c'
_symmetry_Int_Tables_number      14
_space_group_name_Hall           '-P 2ybc'
loop_
_symmetry_equiv_pos_site_id
_symmetry_equiv_pos_as_xyz
1 x,y,z
2 -x,1/2+y,1/2-z
3 -x,-y,-z
4 x,1/2-y,1/2+z
_cell_length_a                   11.7040(10)
_cell_length_b                   19.935(2)
_cell_length_c                   8.1810(10)
_cell_angle_alpha                90
_cell_angle_beta                 107.580(2)
_cell_angle_gamma                90
_cell_volume                     1819.64
_exptl_crystal_colour            colorless
_exptl_crystal_description       block
_cell_formula_units_Z            4
_exptl_crystal_recrystallization_method acetone
loop_
_atom_site_label
_atom_site_type_symbol
_atom_site_fract_x
_atom_site_fract_y
_atom_site_fract_z
N1 N 0.33639(14) 0.48210(8) 0.3351(2)
N2 N 0.06223(13) 0.39609(8) 0.1856(2)
N3 N 0.04281(13) 0.32777(8) 0.1859(2)
N4 N 0.24100(14) 0.19918(8) 0.1363(2)
N5 N 0.23361(12) 0.34461(7) 0.21519(19)
C1 C 0.23198(15) 0.47184(9) 0.2130(2)
C2 C 0.17375(17) 0.52152(10) 0.1013(3)
H1 H 0.1014 0.5125 0.0182
C3 C 0.22357(19) 0.58447(10) 0.1139(3)
H2 H 0.1848 0.6188 0.0413
C4 C 0.33144(19) 0.59550(11) 0.2355(3)
H3 H 0.3685 0.6372 0.2455
C5 C 0.38387(19) 0.54358(11) 0.3425(3)
H4 H 0.4569 0.5516 0.4253
C6 C 0.17627(15) 0.40498(9) 0.2038(2)
C7 C 0.14581(15) 0.29796(9) 0.2035(2)
C8 C 0.15823(15) 0.22444(10) 0.2014(2)
C9 C 0.08093(17) 0.18484(10) 0.2573(3)
H5 H 0.0257 0.2042 0.3043
C10 C 0.0865(2) 0.11667(12) 0.2428(3)
H6 H 0.0343 0.0890 0.2779
C11 C 0.1704(2) 0.08980(11) 0.1755(3)
H7 H 0.1760 0.0437 0.1630
C12 C 0.2458(2) 0.13272(11) 0.1271(3)
H8 H 0.3042 0.1141 0.0850
C13 C 0.35922(15) 0.33573(9) 0.2325(2)
C14 C 0.43403(15) 0.30263(9) 0.3705(2)
H9 H 0.4039 0.2829 0.4520
C15 C 0.55490(15) 0.29904(9) 0.3867(3)
H10 H 0.6055 0.2761 0.4796
C16 C 0.60298(16) 0.32859(9) 0.2686(3)
C17 C 0.52392(17) 0.36000(10) 0.1301(3)
H11 H 0.5534 0.3797 0.0479
C18 C 0.40303(17) 0.36325(10) 0.1091(3)
H12 H 0.3515 0.3838 0.0128
C19 C 0.73650(17) 0.33113(10) 0.2898(3)
H13 H 0.7454 0.3231 0.1761
C20 C 0.81032(18) 0.27857(12) 0.4070(4)
H14 H 0.8060 0.2853 0.5211
H15 H 0.8922 0.2820 0.4073
H16 H 0.7799 0.2349 0.3673
C21 C 0.78588(19) 0.40087(11) 0.3439(4)
H17 H 0.7388 0.4334 0.2658
H18 H 0.8675 0.4032 0.3426
H19 H 0.7826 0.4100 0.4576
loop_
_geom_bond_atom_site_label_1
_geom_bond_atom_site_label_2
_geom_bond_site_symmetry_1
_geom_bond_site_symmetry_2
N1 C1 1_555 1_555
N2 N3 1_555 1_555
N3 C7 1_555 1_555
N4 C8 1_555 1_555
N5 C6 1_555 1_555
C1 C2 1_555 1_555
C2 H1 1_555 1_555
C3 C2 1_555 1_555
H2 C3 1_555 1_555
C4 C3 1_555 1_555
H3 C4 1_555 1_555
C5 N1 1_555 1_555
H4 C5 1_555 1_555
C6 N2 1_555 1_555
C7 N5 1_555 1_555
C8 C7 1_555 1_555
C9 C8 1_555 1_555
H5 C9 1_555 1_555
C10 C9 1_555 1_555
H6 C10 1_555 1_555
C11 C10 1_555 1_555
H7 C11 1_555 1_555
C12 N4 1_555 1_555
H8 C12 1_555 1_555
C13 N5 1_555 1_555
C14 C13 1_555 1_555
H9 C14 1_555 1_555
C15 C14 1_555 1_555
H10 C15 1_555 1_555
C16 C15 1_555 1_555
C17 C16 1_555 1_555
H11 C17 1_555 1_555
C18 C13 1_555 1_555
H12 C18 1_555 1_555
C19 C16 1_555 1_555
H13 C19 1_555 1_555
C20 C19 1_555 1_555
H14 C20 1_555 1_555
H15 C20 1_555 1_555
H16 C20 1_555 1_555
C21 C19 1_555 1_555
H17 C21 1_555 1_555
H18 C21 1_555 1_555
H19 C21 1_555 1_555
C1 C6 1_555 1_555
C4 C5 1_555 1_555
C11 C12 1_555 1_555
C17 C18 1_555 1_555

#END
