
#######################################################################
#
#                 Cambridge Crystallographic Data Centre
#                                CCDC 
#
#######################################################################
#
# If this CIF has been generated from an entry in the Cambridge 
# Structural Database, then it will include bibliographic, chemical, 
# crystal, experimental, refinement or atomic coordinate data resulting 
# from the CCDC's data processing and validation procedures.
#
#######################################################################

data_FAXRUU
_chemical_formula_moiety         'C18 H17 N1 O3'
_chemical_name_systematic        
2-(((2-hydroxyethyl)iminio)(phenyl)methyl)-5-(prop-2-yn-1-yloxy)phenolate
_symmetry_cell_setting           monoclinic
_symmetry_space_group_name_H-M   'P 21/c'
_symmetry_Int_Tables_number      14
_space_group_name_Hall           '-P 2ybc'
loop_
_symmetry_equiv_pos_site_id
_symmetry_equiv_pos_as_xyz
1 x,y,z
2 -x,1/2+y,1/2-z
3 -x,-y,-z
4 x,1/2-y,1/2+z
_cell_length_a                   12.0597(12)
_cell_length_b                   8.0248(7)
_cell_length_c                   16.411(2)
_cell_angle_alpha                90
_cell_angle_beta                 100.266(4)
_cell_angle_gamma                90
_cell_volume                     1562.78
_exptl_crystal_colour            yellow
_exptl_crystal_description       block
_cell_formula_units_Z            4
loop_
_atom_site_label
_atom_site_type_symbol
_atom_site_fract_x
_atom_site_fract_y
_atom_site_fract_z
O1 O 0.20945(13) 1.26066(19) -0.02517(10)
O2 O 0.08448(14) 0.51132(19) 0.30669(13)
H1 H 0.0262 0.4683 0.3158
O3 O 0.09802(12) 0.8522(2) 0.15595(11)
C1 C 0.1179(2) 1.6429(4) -0.0963(2)
H2 H 0.1192 1.7466 -0.1214
C2 C 0.1164(2) 1.5131(3) -0.06486(17)
C3 C 0.10951(19) 1.3549(3) -0.02251(17)
H3 H 0.1021 1.3749 0.0346
H4 H 0.0439 1.2932 -0.0493
C4 C 0.22268(17) 1.1168(3) 0.01996(14)
C5 C 0.32447(18) 1.0318(3) 0.01725(15)
H5 H 0.3747 1.0725 -0.0148
C6 C 0.34795(16) 0.8905(3) 0.06183(14)
H6 H 0.4156 0.8360 0.0603
C7 C 0.27368(15) 0.8222(2) 0.11064(12)
C8 C 0.30264(15) 0.6762(2) 0.15872(12)
C9 C 0.41310(15) 0.5916(2) 0.15906(13)
C10 C 0.5048(2) 0.6339(3) 0.2185(2)
H7 H 0.4968 0.7106 0.2596
C11 C 0.6088(2) 0.5617(4) 0.2168(3)
H8 H 0.6709 0.5914 0.2563
C12 C 0.6203(3) 0.4481(5) 0.1578(3)
H9 H 0.6900 0.3989 0.1571
C13 C 0.1466(2) 0.3939(3) 0.27080(19)
H10 H 0.1047 0.3590 0.2175
H11 H 0.1609 0.2966 0.3062
C14 C 0.2549(2) 0.4717(3) 0.2601(2)
H12 H 0.2960 0.5071 0.3135
H13 H 0.3006 0.3906 0.2373
N1 N 0.23408(15) 0.6155(2) 0.20457(13)
C15 C 0.14716(15) 1.0562(3) 0.06551(14)
H14 H 0.0802 1.1135 0.0658
C16 C 0.16905(15) 0.9074(2) 0.11251(13)
C17 C 0.4251(3) 0.4761(4) 0.10024(17)
H15 H 0.3638 0.4441 0.0606
C18 C 0.5313(4) 0.4070(5) 0.1008(2)
H16 H 0.5403 0.3299 0.0602
H17 H 0.169(3) 0.679(4) 0.1955(19)
loop_
_geom_bond_atom_site_label_1
_geom_bond_atom_site_label_2
_geom_bond_site_symmetry_1
_geom_bond_site_symmetry_2
O1 C3 1_555 1_555
O2 H1 1_555 1_555
O3 C16 1_555 1_555
C1 H2 1_555 1_555
C2 C1 1_555 1_555
C3 C2 1_555 1_555
H3 C3 1_555 1_555
H4 C3 1_555 1_555
C4 O1 1_555 1_555
C5 C4 1_555 1_555
H5 C5 1_555 1_555
C6 C5 1_555 1_555
H6 C6 1_555 1_555
C7 C6 1_555 1_555
C8 C7 1_555 1_555
C9 C8 1_555 1_555
C10 C9 1_555 1_555
H7 C10 1_555 1_555
C11 C10 1_555 1_555
H8 C11 1_555 1_555
C12 C11 1_555 1_555
H9 C12 1_555 1_555
C13 O2 1_555 1_555
H10 C13 1_555 1_555
H11 C13 1_555 1_555
C14 C13 1_555 1_555
H12 C14 1_555 1_555
H13 C14 1_555 1_555
N1 C8 1_555 1_555
C15 C4 1_555 1_555
H14 C15 1_555 1_555
C16 C7 1_555 1_555
C17 C9 1_555 1_555
H15 C17 1_555 1_555
C18 C12 1_555 1_555
H16 C18 1_555 1_555
H17 N1 1_555 1_555
C14 N1 1_555 1_555
C15 C16 1_555 1_555
C17 C18 1_555 1_555

#END
