
#######################################################################
#
#                 Cambridge Crystallographic Data Centre
#                                CCDC 
#
#######################################################################
#
# If this CIF has been generated from an entry in the Cambridge 
# Structural Database, then it will include bibliographic, chemical, 
# crystal, experimental, refinement or atomic coordinate data resulting 
# from the CCDC's data processing and validation procedures.
#
#######################################################################

data_FAXSON
_chemical_formula_moiety         'C19 H15 N5'
_chemical_name_systematic        
4-(3-Methylphenyl)-3,5-di-2-pyridyl-4H-1,2,4-triazole
_symmetry_cell_setting           monoclinic
_symmetry_space_group_name_H-M   'P 21/c'
_symmetry_Int_Tables_number      14
_space_group_name_Hall           '-P 2ybc'
loop_
_symmetry_equiv_pos_site_id
_symmetry_equiv_pos_as_xyz
1 x,y,z
2 -x,1/2+y,1/2-z
3 -x,-y,-z
4 x,1/2-y,1/2+z
_cell_length_a                   11.2290(10)
_cell_length_b                   9.2070(10)
_cell_length_c                   19.0860(10)
_cell_angle_alpha                90
_cell_angle_beta                 125.400(10)
_cell_angle_gamma                90
_cell_volume                     1608.42
_exptl_crystal_colour            colorless
_exptl_crystal_description       block
_cell_formula_units_Z            4
_exptl_crystal_recrystallization_method acetone
loop_
_atom_site_label
_atom_site_type_symbol
_atom_site_fract_x
_atom_site_fract_y
_atom_site_fract_z
N1 N 0.5730(3) 0.3450(3) 0.97975(19)
C1 C 0.6646(3) 0.1021(3) 1.01007(17)
H1 H 0.657(6) 0.0035(14) 0.999(3)
N3 N 0.2896(3) 0.2008(3) 0.86381(15)
N4 N 0.1815(3) 0.1216(3) 0.79317(16)
N5 N 0.2357(3) -0.1012(3) 0.66329(16)
N6 N 0.3959(2) 0.0341(3) 0.83495(14)
C3 C 0.5580(3) 0.1986(3) 0.96183(18)
C4 C 0.7919(4) 0.1527(5) 1.0796(2)
H3 H 0.865(2) 0.084(2) 1.1108(16)
C5 C 0.8151(4) 0.2971(4) 1.1025(2)
H4 H 0.9036 0.3288 1.1511
C6 C 0.7040(4) 0.3920(5) 1.0517(2)
H5 H 0.711(4) 0.4907(16) 1.066(2)
C7 C 0.4156(3) 0.1476(3) 0.88767(18)
C8 C 0.2477(3) 0.0232(3) 0.77676(18)
C9 C 0.1697(3) -0.0762(3) 0.70232(18)
C10 C 0.0355(3) -0.1326(3) 0.6741(2)
H6 H -0.0054 -0.1142 0.7039
C11 C -0.0371(3) -0.2166(4) 0.6012(2)
H7 H -0.1285 -0.2551 0.5803
C12 C 0.0275(3) -0.2426(4) 0.5598(2)
H8 H -0.0193 -0.2987 0.5101
C13 C 0.1633(3) -0.1839(4) 0.5931(2)
H9 H 0.2070 -0.2033 0.5650
C14 C 0.5062(3) -0.0530(3) 0.83847(17)
C15 C 0.5840(3) 0.0047(3) 0.81034(17)
H10 H 0.5666 0.1001 0.7907
C16 C 0.6874(3) -0.0760(4) 0.8105(2)
C17 C 0.7130(3) -0.2154(4) 0.8422(2)
H11 H 0.7832 -0.2716 0.8436
C18 C 0.6366(4) -0.2735(4) 0.8719(2)
H12 H 0.6562 -0.3677 0.8933
C19 C 0.5314(3) -0.1924(3) 0.86989(18)
H13 H 0.4789 -0.2310 0.8893
C20 C 0.7672(4) -0.0144(4) 0.7749(2)
H14 H 0.8656 -0.0505 0.8078
H15 H 0.7686 0.0896 0.7783
H16 H 0.7180 -0.0435 0.7160
N2? N 0.6646(3) 0.1021(3) 1.01007(17)
C2? C 0.5730(3) 0.3450(3) 0.97975(19)
H2? H 0.495(3) 0.408(4) 0.9443(17)
loop_
_geom_bond_atom_site_label_1
_geom_bond_atom_site_label_2
_geom_bond_site_symmetry_1
_geom_bond_site_symmetry_2
N1 C3 1_555 1_555
C1 H1 1_555 1_555
N3 N4 1_555 1_555
N4 C8 1_555 1_555
N5 C9 1_555 1_555
N6 C7 1_555 1_555
C3 C1 1_555 1_555
C4 C1 1_555 1_555
H3 C4 1_555 1_555
C5 C4 1_555 1_555
H4 C5 1_555 1_555
C6 N1 1_555 1_555
H5 C6 1_555 1_555
C7 N3 1_555 1_555
C8 N6 1_555 1_555
C9 C8 1_555 1_555
C10 C9 1_555 1_555
H6 C10 1_555 1_555
C11 C10 1_555 1_555
H7 C11 1_555 1_555
C12 C11 1_555 1_555
H8 C12 1_555 1_555
C13 N5 1_555 1_555
H9 C13 1_555 1_555
C14 N6 1_555 1_555
C15 C14 1_555 1_555
H10 C15 1_555 1_555
C16 C15 1_555 1_555
C17 C16 1_555 1_555
H11 C17 1_555 1_555
C18 C17 1_555 1_555
H12 C18 1_555 1_555
C19 C14 1_555 1_555
H13 C19 1_555 1_555
C20 C16 1_555 1_555
H14 C20 1_555 1_555
H15 C20 1_555 1_555
H16 C20 1_555 1_555
C3 C7 1_555 1_555
C5 C6 1_555 1_555
C12 C13 1_555 1_555
C18 C19 1_555 1_555

#END
