
#######################################################################
#
#                 Cambridge Crystallographic Data Centre
#                                CCDC 
#
#######################################################################
#
# If this CIF has been generated from an entry in the Cambridge 
# Structural Database, then it will include bibliographic, chemical, 
# crystal, experimental, refinement or atomic coordinate data resulting 
# from the CCDC's data processing and validation procedures.
#
#######################################################################

data_FAXTUW
_chemical_formula_moiety         'C32 H23 N3'
_chemical_name_systematic        
2-(4'-(diphenylamino)biphenyl-4-yl)-3-(pyridin-2-yl)prop-2-enenitrile
_symmetry_cell_setting           monoclinic
_symmetry_space_group_name_H-M   'P 21/c'
_symmetry_Int_Tables_number      14
_space_group_name_Hall           '-P 2ybc'
loop_
_symmetry_equiv_pos_site_id
_symmetry_equiv_pos_as_xyz
1 x,y,z
2 -x,1/2+y,1/2-z
3 -x,-y,-z
4 x,1/2-y,1/2+z
_cell_length_a                   18.643(4)
_cell_length_b                   5.8380(14)
_cell_length_c                   23.587(5)
_cell_angle_alpha                90
_cell_angle_beta                 110.412(3)
_cell_angle_gamma                90
_cell_volume                     2405.96
_exptl_crystal_colour            yellow
_exptl_crystal_description       block
_cell_formula_units_Z            4
loop_
_atom_site_label
_atom_site_type_symbol
_atom_site_fract_x
_atom_site_fract_y
_atom_site_fract_z
N1 N 0.39266(8) 0.3794(3) 0.10570(7)
C1 C 0.24338(9) 0.5000(3) 0.20332(8)
C2 C 0.10356(10) 0.6040(3) 0.31370(8)
C3 C 0.24020(10) 0.2988(3) 0.17079(8)
H1 H 0.2046 0.1869 0.1707
C4 C 0.28854(10) 0.2611(3) 0.13869(8)
H2 H 0.2852 0.1241 0.1178
C5 C 0.19442(9) 0.5368(3) 0.24034(8)
C6 C 0.34194(10) 0.4242(3) 0.13703(8)
C7 C 0.34309(12) 0.6313(3) 0.16682(10)
H3 H 0.3763 0.7472 0.1647
C8 C 0.29513(12) 0.6657(3) 0.19960(10)
H4 H 0.2976 0.8040 0.2198
C9 C 0.46812(10) 0.4666(3) 0.12558(8)
C10 C 0.36560(10) 0.2444(3) 0.05202(8)
C11 C 0.50498(11) 0.5039(4) 0.08478(9)
H5 H 0.4804 0.4662 0.0443
C12 C 0.29861(11) 0.3027(4) 0.00566(9)
H6 H 0.2717 0.4327 0.0092
C13 C 0.20279(16) 0.7250(4) 0.27706(13)
H7 H 0.2398 0.8336 0.2782
C14 C 0.09408(17) 0.4174(5) 0.27613(15)
H8 H 0.0569 0.3091 0.2747
C15 C 0.50725(11) 0.5175(4) 0.18617(9)
H9 H 0.4849 0.4863 0.2150
C16 C 0.15817(16) 0.7578(4) 0.31223(13)
H10 H 0.1655 0.8893 0.3358
C17 C 0.57949(12) 0.6146(5) 0.20354(11)
H11 H 0.6044 0.6528 0.2439
C18 C 0.13826(18) 0.3868(5) 0.24052(15)
H12 H 0.1295 0.2588 0.2156
C19 C 0.61459(13) 0.6550(5) 0.16302(12)
H13 H 0.6630 0.7215 0.1753
C20 C 0.57757(13) 0.5963(5) 0.10306(12)
H14 H 0.6017 0.6190 0.0750
C21 C 0.27147(14) 0.1694(5) -0.04582(10)
H15 H 0.2258 0.2074 -0.0763
C22 C 0.40558(15) 0.0521(4) 0.04587(11)
H16 H 0.4504 0.0094 0.0767
C23 C 0.31201(19) -0.0185(6) -0.05180(13)
H17 H 0.2943 -0.1071 -0.0867
C24 C 0.3784(2) -0.0762(5) -0.00656(15)
H18 H 0.4057 -0.2039 -0.0111
C25 C 0.05812(10) 0.6352(3) 0.35399(8)
C26 C 0.07782(13) 0.8384(4) 0.39061(10)
C27 C 0.00476(10) 0.4880(4) 0.35766(8)
H19 H -0.0040 0.3609 0.3324
C28 C -0.07828(13) 0.7075(4) 0.46398(9)
H20 H -0.0757 0.8410 0.4861
C29 C -0.04152(10) 0.5023(4) 0.39653(8)
C30 C -0.08543(11) 0.3171(4) 0.40080(9)
H21 H -0.0867 0.1846 0.3786
C31 C -0.12319(12) 0.5308(5) 0.47140(10)
H22 H -0.1500 0.5452 0.4979
C32 C -0.12755(12) 0.3324(5) 0.43878(11)
H23 H -0.1581 0.2111 0.4422
N2 N 0.10123(16) 1.0031(4) 0.41662(12)
N3 N -0.03842(10) 0.6988(3) 0.42709(7)
loop_
_geom_bond_atom_site_label_1
_geom_bond_atom_site_label_2
_geom_bond_site_symmetry_1
_geom_bond_site_symmetry_2
N1 C6 1_555 1_555
C1 C3 1_555 1_555
C2 C14 1_555 1_555
C3 H1 1_555 1_555
C4 C3 1_555 1_555
H2 C4 1_555 1_555
C5 C1 1_555 1_555
C6 C4 1_555 1_555
C7 C6 1_555 1_555
H3 C7 1_555 1_555
C8 C1 1_555 1_555
H4 C8 1_555 1_555
C9 N1 1_555 1_555
C10 N1 1_555 1_555
C11 C9 1_555 1_555
H5 C11 1_555 1_555
C12 C10 1_555 1_555
H6 C12 1_555 1_555
C13 C5 1_555 1_555
H7 C13 1_555 1_555
C14 H8 1_555 1_555
C15 C9 1_555 1_555
H9 C15 1_555 1_555
C16 C2 1_555 1_555
H10 C16 1_555 1_555
C17 C15 1_555 1_555
H11 C17 1_555 1_555
C18 C5 1_555 1_555
H12 C18 1_555 1_555
C19 C17 1_555 1_555
H13 C19 1_555 1_555
C20 C11 1_555 1_555
H14 C20 1_555 1_555
C21 C12 1_555 1_555
H15 C21 1_555 1_555
C22 C10 1_555 1_555
H16 C22 1_555 1_555
C23 C21 1_555 1_555
H17 C23 1_555 1_555
C24 C22 1_555 1_555
H18 C24 1_555 1_555
C25 C2 1_555 1_555
C26 C25 1_555 1_555
C27 C25 1_555 1_555
H19 C27 1_555 1_555
C28 H20 1_555 1_555
C29 C27 1_555 1_555
C30 C29 1_555 1_555
H21 C30 1_555 1_555
C31 C28 1_555 1_555
H22 C31 1_555 1_555
C32 C30 1_555 1_555
H23 C32 1_555 1_555
N2 C26 1_555 1_555
N3 C28 1_555 1_555
C7 C8 1_555 1_555
C13 C16 1_555 1_555
C14 C18 1_555 1_555
C19 C20 1_555 1_555
C23 C24 1_555 1_555
C29 N3 1_555 1_555
C31 C32 1_555 1_555

#END
