
#######################################################################
#
#                 Cambridge Crystallographic Data Centre
#                                CCDC 
#
#######################################################################
#
# If this CIF has been generated from an entry in the Cambridge 
# Structural Database, then it will include bibliographic, chemical, 
# crystal, experimental, refinement or atomic coordinate data resulting 
# from the CCDC's data processing and validation procedures.
#
#######################################################################

data_FAXVEF
_chemical_formula_moiety         'C9 H14 N1 1+,Cl1 1-'
_chemical_name_systematic        'N-n-Butylpyridinium chloride'
_symmetry_cell_setting           orthorhombic
_symmetry_space_group_name_H-M   'P 21 21 21'
_symmetry_Int_Tables_number      19
_space_group_name_Hall           'P 2ac 2ab'
loop_
_symmetry_equiv_pos_site_id
_symmetry_equiv_pos_as_xyz
1 x,y,z
2 1/2+x,1/2-y,-z
3 -x,1/2+y,1/2-z
4 1/2-x,-y,1/2+z
_cell_length_a                   8.095(3)
_cell_length_b                   10.621(4)
_cell_length_c                   11.419(5)
_cell_angle_alpha                90
_cell_angle_beta                 90
_cell_angle_gamma                90
_cell_volume                     981.771
_exptl_crystal_colour            colorless
_cell_formula_units_Z            4
loop_
_atom_site_label
_atom_site_type_symbol
_atom_site_fract_x
_atom_site_fract_y
_atom_site_fract_z
Cl1 Cl 0.4606(1) 0.21108(9) 0.10652(8)
N1 N 0.5985(4) 0.4998(3) 0.7124(3)
C1 C 0.5739(5) 0.4242(4) 0.8060(3)
C2 C 0.4216(6) 0.4147(4) 0.8551(3)
C3 C 0.2925(6) 0.4827(4) 0.8101(4)
C4 C 0.3194(6) 0.5600(4) 0.7155(4)
C5 C 0.4725(6) 0.5670(3) 0.6671(3)
C6 C 0.7661(6) 0.5055(6) 0.6573(5)
C7 C 0.7948(6) 0.3980(6) 0.5757(4)
C8 C 0.6848(8) 0.3552(6) 0.4952(5)
C9 C 0.7315(7) 0.2536(5) 0.4122(5)
H1 H 0.673(5) 0.382(4) 0.836(3)
H2 H 0.412(5) 0.350(4) 0.919(4)
H3 H 0.183(5) 0.472(4) 0.842(3)
H4 H 0.232(5) 0.599(4) 0.686(4)
H5 H 0.495(5) 0.622(3) 0.599(3)
H6 H 0.843(6) 0.497(4) 0.716(4)
H7 H 0.761(5) 0.584(4) 0.616(4)
H8 H 0.820 0.328 0.624
H9 H 0.890 0.421 0.532
H10 H 0.652 0.425 0.449
H11 H 0.592 0.325 0.538
H12 H 0.640 0.235 0.363
H13 H 0.822 0.281 0.366
H14 H 0.762 0.180 0.455
loop_
_geom_bond_atom_site_label_1
_geom_bond_atom_site_label_2
_geom_bond_site_symmetry_1
_geom_bond_site_symmetry_2
N1 C1 1_555 1_555
C1 C2 1_555 1_555
C2 C3 1_555 1_555
C3 C4 1_555 1_555
C4 C5 1_555 1_555
C5 N1 1_555 1_555
C6 N1 1_555 1_555
C7 C6 1_555 1_555
C8 C7 1_555 1_555
C9 C8 1_555 1_555
H1 C1 1_555 1_555
H2 C2 1_555 1_555
H3 C3 1_555 1_555
H4 C4 1_555 1_555
H5 C5 1_555 1_555
H6 C6 1_555 1_555
H7 C6 1_555 1_555
H8 C7 1_555 1_555
H9 C7 1_555 1_555
H10 C8 1_555 1_555
H11 C8 1_555 1_555
H12 C9 1_555 1_555
H13 C9 1_555 1_555
H14 C9 1_555 1_555

#END
