
#######################################################################
#
#                 Cambridge Crystallographic Data Centre
#                                CCDC 
#
#######################################################################
#
# If this CIF has been generated from an entry in the Cambridge 
# Structural Database, then it will include bibliographic, chemical, 
# crystal, experimental, refinement or atomic coordinate data resulting 
# from the CCDC's data processing and validation procedures.
#
#######################################################################

data_FAXXOS
_chemical_formula_moiety         'C22 H18 N2 O4'
_chemical_name_systematic        
3-Amino-1-(3,4-methylenedioxyphenyl)-9-methoxy-5,6-dihydro-1H-benzo(f)chromene-2-carbonitrile
_symmetry_cell_setting           monoclinic
_symmetry_space_group_name_H-M   'P 21/c'
_symmetry_Int_Tables_number      14
_space_group_name_Hall           '-P 2ybc'
loop_
_symmetry_equiv_pos_site_id
_symmetry_equiv_pos_as_xyz
1 x,y,z
2 -x,1/2+y,1/2-z
3 -x,-y,-z
4 x,1/2-y,1/2+z
_cell_length_a                   10.2770(10)
_cell_length_b                   6.9852(5)
_cell_length_c                   25.695(3)
_cell_angle_alpha                90
_cell_angle_beta                 92.512(9)
_cell_angle_gamma                90
_cell_volume                     1842.79
_exptl_crystal_colour            colorless
_exptl_crystal_description       block
_chemical_melting_point          '502-504 K'
_cell_formula_units_Z            4
_exptl_crystal_recrystallization_method ethanol
loop_
_atom_site_label
_atom_site_type_symbol
_atom_site_fract_x
_atom_site_fract_y
_atom_site_fract_z
O1 O 0.56034(10) 0.41831(15) 0.41235(4)
O2 O -0.14994(10) 0.37739(18) 0.45876(5)
O3 O 0.01292(11) 0.15261(17) 0.45358(5)
O4 O 0.11119(14) 0.5291(2) 0.18618(5)
N1 N 0.37050(14) 1.0042(2) 0.46110(6)
N2 N 0.61707(13) 0.6404(2) 0.47042(5)
H1 H 0.6085 0.7463 0.4870
H2 H 0.6830 0.5676 0.4775
C1 C 0.49146(15) 0.3574(2) 0.36761(6)
C2 C 0.55403(16) 0.1867(2) 0.34515(7)
H3 H 0.5898 0.1061 0.3730
H4 H 0.6250 0.2267 0.3240
C3 C 0.45527(18) 0.0747(2) 0.31212(7)
H5 H 0.5008 -0.0146 0.2905
H6 H 0.4012 0.0010 0.3348
C4 C 0.36961(17) 0.2008(2) 0.27789(6)
C5 C 0.3239(2) 0.1447(3) 0.22867(7)
H7 H 0.3512 0.0282 0.2154
C6 C 0.2395(2) 0.2559(3) 0.19897(8)
H8 H 0.2114 0.2153 0.1659
C7 C 0.19654(18) 0.4272(3) 0.21809(7)
C8 C 0.24169(15) 0.4893(3) 0.26707(6)
H9 H 0.2131 0.6055 0.2801
C9 C 0.32992(15) 0.3777(2) 0.29684(6)
C10 C 0.38564(15) 0.4454(2) 0.34771(6)
C11 C 0.32353(14) 0.6093(2) 0.37555(5)
H10 H 0.3077 0.7122 0.3501
C12 C 0.41888(14) 0.6846(2) 0.41745(6)
C13 C 0.52743(15) 0.5888(2) 0.43344(6)
C14 C 0.19213(14) 0.5536(2) 0.39694(5)
C15 C 0.09305(16) 0.6861(2) 0.39950(6)
H11 H 0.1064 0.8093 0.3871
C16 C -0.02645(16) 0.6412(3) 0.42019(6)
H12 H -0.0919 0.7323 0.4226
C17 C -0.04278(15) 0.4586(2) 0.43662(6)
C18 C -0.12318(17) 0.1774(3) 0.46057(8)
H13 H -0.1735 0.1116 0.4332
H14 H -0.1464 0.1249 0.4939
C19 C 0.05449(15) 0.3242(2) 0.43385(6)
C20 C 0.17263(14) 0.3668(2) 0.41509(6)
H15 H 0.2383 0.2753 0.4143
C21 C 0.0506(2) 0.6920(4) 0.20610(8)
H16 H 0.0093 0.6590 0.2377
H17 H -0.0137 0.7386 0.1810
H18 H 0.1146 0.7896 0.2132
C22 C 0.39242(15) 0.8605(2) 0.44185(6)
loop_
_geom_bond_atom_site_label_1
_geom_bond_atom_site_label_2
_geom_bond_site_symmetry_1
_geom_bond_site_symmetry_2
O1 C1 1_555 1_555
O2 C17 1_555 1_555
O3 C18 1_555 1_555
O4 C7 1_555 1_555
N1 C22 1_555 1_555
N2 H1 1_555 1_555
H2 N2 1_555 1_555
C1 C2 1_555 1_555
C2 H3 1_555 1_555
H4 C2 1_555 1_555
C3 C2 1_555 1_555
H5 C3 1_555 1_555
H6 C3 1_555 1_555
C4 C3 1_555 1_555
C5 C4 1_555 1_555
H7 C5 1_555 1_555
C6 C5 1_555 1_555
H8 C6 1_555 1_555
C7 C6 1_555 1_555
C8 C7 1_555 1_555
H9 C8 1_555 1_555
C9 C4 1_555 1_555
C10 C1 1_555 1_555
C11 C10 1_555 1_555
H10 C11 1_555 1_555
C12 C11 1_555 1_555
C13 O1 1_555 1_555
C14 C11 1_555 1_555
C15 C14 1_555 1_555
H11 C15 1_555 1_555
C16 C15 1_555 1_555
H12 C16 1_555 1_555
C17 C16 1_555 1_555
C18 O2 1_555 1_555
H13 C18 1_555 1_555
H14 C18 1_555 1_555
C19 O3 1_555 1_555
C20 C14 1_555 1_555
H15 C20 1_555 1_555
C21 O4 1_555 1_555
H16 C21 1_555 1_555
H17 C21 1_555 1_555
H18 C21 1_555 1_555
C22 C12 1_555 1_555
N2 C13 1_555 1_555
C8 C9 1_555 1_555
C9 C10 1_555 1_555
C12 C13 1_555 1_555
C17 C19 1_555 1_555
C19 C20 1_555 1_555

#END
