
#######################################################################
#
#                 Cambridge Crystallographic Data Centre
#                                CCDC 
#
#######################################################################
#
# If this CIF has been generated from an entry in the Cambridge 
# Structural Database, then it will include bibliographic, chemical, 
# crystal, experimental, refinement or atomic coordinate data resulting 
# from the CCDC's data processing and validation procedures.
#
#######################################################################

data_FAXZUA
_chemical_formula_moiety         'C13 H9 Cl2 F3 N4 O4 S2'
_chemical_name_systematic        
1-(2,6-Dichloro-4-(trifluoromethyl)phenyl)-5-(bis(methylsulfonyl)amino)-1H-pyrazole-3-carbonitrile
_symmetry_cell_setting           triclinic
_symmetry_space_group_name_H-M   'P -1'
_symmetry_Int_Tables_number      2
_space_group_name_Hall           '-P 1'
loop_
_symmetry_equiv_pos_site_id
_symmetry_equiv_pos_as_xyz
1 x,y,z
2 -x,-y,-z
_cell_length_a                   8.4681(7)
_cell_length_b                   8.9652(8)
_cell_length_c                   14.3497(12)
_cell_angle_alpha                75.198(2)
_cell_angle_beta                 87.9180(10)
_cell_angle_gamma                65.3950(10)
_cell_volume                     954.571
_exptl_crystal_colour            colorless
_exptl_crystal_description       block
_chemical_melting_point          '505-507 K'
_cell_formula_units_Z            2
_exptl_crystal_recrystallization_method acetone
loop_
_atom_site_label
_atom_site_type_symbol
_atom_site_fract_x
_atom_site_fract_y
_atom_site_fract_z
Cl1 Cl 0.63806(13) -0.07675(11) 0.35855(7)
Cl2 Cl 0.54128(11) 0.57366(11) 0.20484(6)
S1 S 0.09064(9) 0.62016(9) 0.11416(5)
S2 S 0.11411(9) 0.32356(10) 0.26949(6)
F1 F 0.9338(4) 0.1418(7) 0.5862(3)
F2 F 0.6873(5) 0.2252(5) 0.63245(19)
F3 F 0.7714(6) 0.4027(5) 0.5639(2)
O1 O 0.1988(3) 0.6478(3) 0.04046(16)
O2 O -0.0700(3) 0.6183(3) 0.09034(18)
O3 O 0.2501(3) 0.1886(4) 0.33577(18)
O4 O -0.0190(3) 0.4541(3) 0.30256(18)
N1 N 0.5313(3) 0.2477(3) 0.20099(16)
N2 N 0.6538(3) 0.1553(3) 0.15152(18)
N3 N 0.7268(4) 0.0237(4) -0.0576(2)
C1 C 0.7825(5) 0.2554(6) 0.5602(3)
C2 C 0.7101(4) 0.2577(5) 0.4660(2)
C3 C 0.7006(4) 0.1116(5) 0.4575(2)
H1 H 0.7345 0.0161 0.5100
C4 C 0.6403(4) 0.1090(4) 0.3704(2)
C5 C 0.5851(3) 0.2531(4) 0.2927(2)
C6 C 0.5963(4) 0.3982(4) 0.3027(2)
C7 C 0.6592(4) 0.4017(4) 0.3894(2)
H2 H 0.6671 0.4990 0.3959
C8 C 0.3681(3) 0.3180(3) 0.15375(19)
C9 C 0.3875(4) 0.2699(4) 0.0699(2)
H3 H 0.3014 0.2971 0.0221
C10 C 0.5663(4) 0.1705(4) 0.0719(2)
C11 C 0.6577(4) 0.0882(4) 0.0002(2)
N4 N 0.2174(3) 0.4232(3) 0.19054(16)
C12 C 0.0549(5) 0.7585(4) 0.1880(3)
H4 H 0.1647 0.7495 0.2104
H5 H -0.0054 0.7284 0.2424
H6 H -0.0142 0.8733 0.1514
C13 C 0.0234(5) 0.2389(5) 0.2005(3)
H7 H -0.0312 0.1750 0.2419
H8 H 0.1136 0.1655 0.1695
H9 H -0.0619 0.3298 0.1524
loop_
_geom_bond_atom_site_label_1
_geom_bond_atom_site_label_2
_geom_bond_site_symmetry_1
_geom_bond_site_symmetry_2
Cl1 C4 1_555 1_555
Cl2 C6 1_555 1_555
S1 O1 1_555 1_555
S2 O3 1_555 1_555
F1 C1 1_555 1_555
F2 C1 1_555 1_555
F3 C1 1_555 1_555
O2 S1 1_555 1_555
O4 S2 1_555 1_555
N1 N2 1_555 1_555
N2 C10 1_555 1_555
N3 C11 1_555 1_555
C1 C2 1_555 1_555
C2 C3 1_555 1_555
C3 H1 1_555 1_555
C4 C3 1_555 1_555
C5 N1 1_555 1_555
C6 C5 1_555 1_555
C7 C2 1_555 1_555
H2 C7 1_555 1_555
C8 N1 1_555 1_555
C9 C8 1_555 1_555
H3 C9 1_555 1_555
C10 C9 1_555 1_555
C11 C10 1_555 1_555
N4 S1 1_555 1_555
C12 S1 1_555 1_555
H4 C12 1_555 1_555
H5 C12 1_555 1_555
H6 C12 1_555 1_555
C13 S2 1_555 1_555
H7 C13 1_555 1_555
H8 C13 1_555 1_555
H9 C13 1_555 1_555
S2 N4 1_555 1_555
C4 C5 1_555 1_555
C6 C7 1_555 1_555
C8 N4 1_555 1_555

#END
