
#######################################################################
#
#                 Cambridge Crystallographic Data Centre
#                                CCDC 
#
#######################################################################
#
# If this CIF has been generated from an entry in the Cambridge 
# Structural Database, then it will include bibliographic, chemical, 
# crystal, experimental, refinement or atomic coordinate data resulting 
# from the CCDC's data processing and validation procedures.
#
#######################################################################

data_FAYCUG
_chemical_formula_moiety         'C30 H34 B2 N2 O3'
_chemical_name_systematic        
3,3,11,11,14-pentamethyl-1,7,14-triphenyl-5,9,13-trioxa-2,12-diaza-1,7-diboratetracyclo[5.5.2.0^2,6^.0^8,12^]tetradeca-2(6),8(12)-diene
_symmetry_cell_setting           monoclinic
_symmetry_space_group_name_H-M   'P 2/n'
_symmetry_Int_Tables_number      13
_space_group_name_Hall           '-P 2yac'
loop_
_symmetry_equiv_pos_site_id
_symmetry_equiv_pos_as_xyz
1 x,y,z
2 1/2-x,y,1/2-z
3 -x,-y,-z
4 1/2+x,-y,1/2+z
_cell_length_a                   16.4107(13)
_cell_length_b                   8.5374(7)
_cell_length_c                   19.6484(15)
_cell_angle_alpha                90
_cell_angle_beta                 111.541(2)
_cell_angle_gamma                90
_cell_volume                     2560.56
_exptl_crystal_colour            colorless
_exptl_crystal_description       block
_cell_formula_units_Z            4
loop_
_atom_site_label
_atom_site_type_symbol
_atom_site_fract_x
_atom_site_fract_y
_atom_site_fract_z
B1 B 0.21197(12) 0.2959(2) 0.50293(10)
B2 B 0.37440(12) 0.2952(2) 0.61093(10)
C1 C 0.11669(11) 0.2923(2) 0.44016(9)
C2 C 0.05497(11) 0.4075(2) 0.43798(9)
H1 H 0.0715 0.49 0.4729
C3 C -0.03001(11) 0.4043(2) 0.38597(10)
H2 H -0.0709 0.4829 0.3861
C4 C -0.05459(11) 0.2860(2) 0.33396(10)
H3 H -0.1126 0.2831 0.2986
C5 C 0.00544(11) 0.1717(2) 0.33347(10)
H4 H -0.0109 0.0918 0.2973
C6 C 0.08946(11) 0.1751(2) 0.38622(9)
H5 H 0.1299 0.0957 0.3859
C7 C 0.30844(10) 0.4552(2) 0.60741(9)
C8 C 0.28907(11) 0.4743(2) 0.67750(9)
H6 H 0.2467 0.5592 0.671
H7 H 0.3434 0.4995 0.7184
H8 H 0.2647 0.3765 0.688
C9 C 0.35024(10) 0.6043(2) 0.59235(9)
C10 C 0.31567(12) 0.6797(2) 0.52489(10)
H9 H 0.2656 0.637 0.4877
C11 C 0.35311(12) 0.8164(2) 0.51102(11)
H10 H 0.3292 0.8644 0.4642
C12 C 0.42517(12) 0.8829(2) 0.56506(11)
H11 H 0.4504 0.9769 0.5558
C13 C 0.45979(11) 0.8101(2) 0.63271(10)
H12 H 0.5085 0.8555 0.6704
C14 C 0.42382(11) 0.6714(2) 0.64595(10)
H13 H 0.4496 0.6213 0.6921
C15 C 0.30318(11) 0.3198(2) 0.40243(9)
C16 C 0.23404(12) 0.4272(2) 0.35072(10)
H14 H 0.1792 0.3691 0.3282
H15 H 0.2541 0.4653 0.3125
H16 H 0.2243 0.5164 0.3782
C17 C 0.30666(12) 0.1618(2) 0.36673(10)
H17 H 0.3554 0.0996 0.3997
H18 H 0.3152 0.1791 0.3205
H19 H 0.2515 0.1054 0.3572
C18 C 0.39347(11) 0.3984(2) 0.43034(9)
H20 H 0.4284 0.3649 0.4012
H21 H 0.3877 0.5139 0.4279
C19 C 0.36876(10) 0.30375(19) 0.52754(9)
C20 C 0.30772(10) 0.15731(19) 0.61053(9)
C21 C 0.24188(10) -0.0430(2) 0.64361(9)
H22 H 0.22 -0.0595 0.6838
H23 H 0.257 -0.146 0.6282
C22 C 0.17298(10) 0.0411(2) 0.57895(9)
C23 C 0.11172(11) 0.1417(2) 0.60362(10)
H24 H 0.1465 0.2103 0.6438
H25 H 0.0748 0.0737 0.6204
H26 H 0.0746 0.2057 0.5625
C24 C 0.12214(11) -0.0754(2) 0.52007(10)
H27 H 0.0761 -0.0202 0.4808
H28 H 0.0954 -0.1548 0.5414
H29 H 0.1621 -0.1264 0.5001
C25 C 0.46904(10) 0.27704(19) 0.67517(9)
C26 C 0.54545(11) 0.2479(2) 0.66111(10)
H30 H 0.5427 0.2501 0.612
C27 C 0.62507(11) 0.2158(2) 0.71675(11)
H31 H 0.6753 0.1955 0.7051
C28 C 0.63185(11) 0.2132(2) 0.78889(11)
H32 H 0.6864 0.1918 0.8269
C29 C 0.55789(12) 0.2422(2) 0.80503(10)
H33 H 0.5617 0.2416 0.8544
C30 C 0.47831(11) 0.2721(2) 0.74912(10)
H34 H 0.4282 0.29 0.7613
N1 N 0.29282(9) 0.29286(16) 0.47469(7)
N2 N 0.23229(8) 0.14702(16) 0.55699(7)
O1 O 0.22470(7) 0.43340(13) 0.54899(6)
O2 O 0.43429(7) 0.34568(14) 0.50624(6)
O3 O 0.31802(7) 0.06102(13) 0.66700(6)
loop_
_geom_bond_atom_site_label_1
_geom_bond_atom_site_label_2
_geom_bond_site_symmetry_1
_geom_bond_site_symmetry_2
B1 C1 1_555 1_555
B2 C7 1_555 1_555
C1 C2 1_555 1_555
C2 H1 1_555 1_555
C3 C2 1_555 1_555
H2 C3 1_555 1_555
C4 C3 1_555 1_555
H3 C4 1_555 1_555
C5 C4 1_555 1_555
H4 C5 1_555 1_555
C6 C1 1_555 1_555
H5 C6 1_555 1_555
C7 C8 1_555 1_555
C8 H6 1_555 1_555
H7 C8 1_555 1_555
H8 C8 1_555 1_555
C9 C7 1_555 1_555
C10 C9 1_555 1_555
H9 C10 1_555 1_555
C11 C10 1_555 1_555
H10 C11 1_555 1_555
C12 C11 1_555 1_555
H11 C12 1_555 1_555
C13 C12 1_555 1_555
H12 C13 1_555 1_555
C14 C9 1_555 1_555
H13 C14 1_555 1_555
C15 C16 1_555 1_555
C16 H14 1_555 1_555
H15 C16 1_555 1_555
H16 C16 1_555 1_555
C17 C15 1_555 1_555
H17 C17 1_555 1_555
H18 C17 1_555 1_555
H19 C17 1_555 1_555
C18 C15 1_555 1_555
H20 C18 1_555 1_555
H21 C18 1_555 1_555
C19 B2 1_555 1_555
C20 B2 1_555 1_555
C21 H22 1_555 1_555
H23 C21 1_555 1_555
C22 C21 1_555 1_555
C23 C22 1_555 1_555
H24 C23 1_555 1_555
H25 C23 1_555 1_555
H26 C23 1_555 1_555
C24 C22 1_555 1_555
H27 C24 1_555 1_555
H28 C24 1_555 1_555
H29 C24 1_555 1_555
C25 B2 1_555 1_555
C26 C25 1_555 1_555
H30 C26 1_555 1_555
C27 C26 1_555 1_555
H31 C27 1_555 1_555
C28 C27 1_555 1_555
H32 C28 1_555 1_555
C29 C28 1_555 1_555
H33 C29 1_555 1_555
C30 C25 1_555 1_555
H34 C30 1_555 1_555
N1 B1 1_555 1_555
N2 B1 1_555 1_555
O1 B1 1_555 1_555
O2 C18 1_555 1_555
O3 C20 1_555 1_555
C5 C6 1_555 1_555
C7 O1 1_555 1_555
C13 C14 1_555 1_555
C15 N1 1_555 1_555
C19 N1 1_555 1_555
C19 O2 1_555 1_555
C20 N2 1_555 1_555
C21 O3 1_555 1_555
C22 N2 1_555 1_555
C29 C30 1_555 1_555

#END
