
#######################################################################
#
#                 Cambridge Crystallographic Data Centre
#                                CCDC 
#
#######################################################################
#
# If this CIF has been generated from an entry in the Cambridge 
# Structural Database, then it will include bibliographic, chemical, 
# crystal, experimental, refinement or atomic coordinate data resulting 
# from the CCDC's data processing and validation procedures.
#
#######################################################################

data_FAYGUH
_chemical_formula_moiety         'C13 H14 N2'
_chemical_name_systematic        N(2-(2-Pyridyl)-ethyl)aniline
_symmetry_cell_setting           orthorhombic
_symmetry_space_group_name_H-M   'P b c a'
_symmetry_Int_Tables_number      61
_space_group_name_Hall           '-P 2ac 2ab'
loop_
_symmetry_equiv_pos_site_id
_symmetry_equiv_pos_as_xyz
1 x,y,z
2 1/2-x,1/2+y,z
3 x,1/2-y,1/2+z
4 1/2-x,-y,1/2+z
5 -x,-y,-z
6 1/2+x,1/2-y,-z
7 -x,1/2+y,1/2-z
8 1/2+x,y,1/2-z
_cell_length_a                   7.178(4)
_cell_length_b                   14.602(6)
_cell_length_c                   21.674(8)
_cell_angle_alpha                90
_cell_angle_beta                 90
_cell_angle_gamma                90
_cell_volume                     2271.72
_cell_formula_units_Z            8
loop_
_atom_site_label
_atom_site_type_symbol
_atom_site_fract_x
_atom_site_fract_y
_atom_site_fract_z
C1 C 0.2847(10) 0.1601(5) 0.1606(3)
C2 C 0.4078(10) 0.1119(5) 0.1970(3)
C3 C 0.5265(12) 0.0483(5) 0.1729(4)
C4 C 0.5212(10) 0.0310(5) 0.1110(3)
C5 C 0.3994(8) 0.0790(4) 0.0736(3)
C6 C 0.2793(9) 0.1454(4) 0.0974(2)
N7 N 0.1688(7) 0.1947(4) 0.0581(2)
C8 C 0.0323(8) 0.2627(4) 0.0781(3)
C9 C -0.1488(9) 0.2209(4) 0.0991(3)
C10 C -0.2826(8) 0.2913(4) 0.1215(3)
C11 C -0.3016(11) 0.3116(5) 0.1835(3)
C12 C -0.4301(12) 0.3780(6) 0.2001(3)
C13 C -0.5277(11) 0.4231(5) 0.1572(4)
C14 C -0.4992(11) 0.4004(5) 0.0958(3)
N15 N -0.3771(7) 0.3361(3) 0.0779(2)
loop_
_geom_bond_atom_site_label_1
_geom_bond_atom_site_label_2
_geom_bond_site_symmetry_1
_geom_bond_site_symmetry_2
C1 C2 1_555 1_555
C2 C3 1_555 1_555
C3 C4 1_555 1_555
C4 C5 1_555 1_555
C5 C6 1_555 1_555
C6 C1 1_555 1_555
N7 C6 1_555 1_555
C8 N7 1_555 1_555
C9 C8 1_555 1_555
C10 C9 1_555 1_555
C11 C10 1_555 1_555
C12 C11 1_555 1_555
C13 C12 1_555 1_555
C14 C13 1_555 1_555
N15 C10 1_555 1_555
C14 N15 1_555 1_555

#END
