
#######################################################################
#
#                 Cambridge Crystallographic Data Centre
#                                CCDC 
#
#######################################################################
#
# If this CIF has been generated from an entry in the Cambridge 
# Structural Database, then it will include bibliographic, chemical, 
# crystal, experimental, refinement or atomic coordinate data resulting 
# from the CCDC's data processing and validation procedures.
#
#######################################################################

data_FAYGIV
_chemical_formula_moiety         'C11 H14 O3'
_chemical_name_systematic        4a\b,5\b-Epoxy-8a\b-methyldecalin-1,6-dione
_symmetry_cell_setting           monoclinic
_symmetry_space_group_name_H-M   'P 21/c'
_symmetry_Int_Tables_number      14
_space_group_name_Hall           '-P 2ybc'
loop_
_symmetry_equiv_pos_site_id
_symmetry_equiv_pos_as_xyz
1 x,y,z
2 -x,1/2+y,1/2-z
3 -x,-y,-z
4 x,1/2-y,1/2+z
_cell_length_a                   8.355(2)
_cell_length_b                   9.221(2)
_cell_length_c                   25.801(4)
_cell_angle_alpha                90
_cell_angle_beta                 94.19(1)
_cell_angle_gamma                90
_cell_volume                     1982.43
_cell_formula_units_Z            8
loop_
_atom_site_label
_atom_site_type_symbol
_atom_site_fract_x
_atom_site_fract_y
_atom_site_fract_z
C1 C 0.8194(6) 0.3927(6) 0.0387(2)
C2 C 0.9855(6) 0.3855(7) 0.0665(2)
C3 C 1.0145(6) 0.2461(7) 0.0982(2)
C4 C 0.9667(6) 0.1119(6) 0.0667(2)
C5 C 0.7930(6) 0.1268(6) 0.0463(2)
C6 C 0.6702(7) 0.0646(6) 0.0778(2)
C7 C 0.5050(6) 0.1270(7) 0.0756(2)
C8 C 0.4676(6) 0.2541(7) 0.0422(2)
C9 C 0.5712(6) 0.2677(6) -0.0039(2)
C10 C 0.7524(6) 0.2565(6) 0.0110(2)
C11 C 0.8385(7) 0.2415(7) -0.0400(2)
O1 O 0.7473(5) 0.5054(4) 0.0359(2)
O2 O 0.4114(5) 0.0751(6) 0.1041(2)
O3 O 0.7121(5) -0.0030(4) 0.0291(2)
C12 C 0.7184(6) 0.4361(6) 0.1844(2)
C13 C 0.8485(6) 0.3951(6) 0.2250(2)
C14 C 0.8178(6) 0.4508(7) 0.2796(2)
C15 C 0.7711(6) 0.6104(7) 0.2801(2)
C16 C 0.6273(6) 0.6275(6) 0.2416(2)
C17 C 0.4682(6) 0.6101(6) 0.2611(2)
C18 C 0.3314(6) 0.5561(6) 0.2251(3)
C19 C 0.3575(7) 0.5306(7) 0.1694(2)
C20 C 0.4989(7) 0.6113(7) 0.1504(2)
C21 C 0.6551(6) 0.5925(6) 0.1853(2)
C22 C 0.7851(8) 0.6948(7) 0.1652(2)
O4 O 0.6711(5) 0.3527(4) 0.1510(1)
O5 O 0.2067(5) 0.5278(6) 0.2452(2)
O6 O 0.5280(4) 0.7524(4) 0.2476(2)
loop_
_geom_bond_atom_site_label_1
_geom_bond_atom_site_label_2
_geom_bond_site_symmetry_1
_geom_bond_site_symmetry_2
C1 C2 1_555 1_555
C2 C3 1_555 1_555
C3 C4 1_555 1_555
C4 C5 1_555 1_555
C5 C6 1_555 1_555
C6 C7 1_555 1_555
C7 C8 1_555 1_555
C8 C9 1_555 1_555
C9 C10 1_555 1_555
C10 C1 1_555 1_555
C11 C10 1_555 1_555
O1 C1 1_555 1_555
O2 C7 1_555 1_555
O3 C5 1_555 1_555
C12 C13 1_555 1_555
C13 C14 1_555 1_555
C14 C15 1_555 1_555
C15 C16 1_555 1_555
C16 C17 1_555 1_555
C17 C18 1_555 1_555
C18 C19 1_555 1_555
C19 C20 1_555 1_555
C20 C21 1_555 1_555
C21 C12 1_555 1_555
C22 C21 1_555 1_555
O4 C12 1_555 1_555
O5 C18 1_555 1_555
O6 C16 1_555 1_555
C5 C10 1_555 1_555
C6 O3 1_555 1_555
C16 C21 1_555 1_555
C17 O6 1_555 1_555

#END
