
#######################################################################
#
#                 Cambridge Crystallographic Data Centre
#                                CCDC 
#
#######################################################################
#
# If this CIF has been generated from an entry in the Cambridge 
# Structural Database, then it will include bibliographic, chemical, 
# crystal, experimental, refinement or atomic coordinate data resulting 
# from the CCDC's data processing and validation procedures.
#
#######################################################################

data_FAYGUI
_chemical_formula_moiety         'C28 H32 N6 O6,2(C2 H6 O1 S1)'
_chemical_name_systematic        
"N,N'-bis(6-t-Butoxycarbonylamino-2-pyridyl)terephthalamide dimethyl sulfoxide clathrate"
_symmetry_cell_setting           orthorhombic
_symmetry_space_group_name_H-M   'P n a 21'
_symmetry_Int_Tables_number      33
_space_group_name_Hall           'P 2c -2n'
loop_
_symmetry_equiv_pos_site_id
_symmetry_equiv_pos_as_xyz
1 x,y,z
2 -x,-y,1/2+z
3 1/2-x,1/2+y,1/2+z
4 1/2+x,1/2-y,z
_cell_length_a                   16.597(3)
_cell_length_b                   22.522(3)
_cell_length_c                   9.871(2)
_cell_angle_alpha                90
_cell_angle_beta                 90
_cell_angle_gamma                90
_cell_volume                     3689.76
_exptl_crystal_colour            colorless
_exptl_crystal_description       prismatic
_cell_formula_units_Z            4
loop_
_atom_site_label
_atom_site_type_symbol
_atom_site_fract_x
_atom_site_fract_y
_atom_site_fract_z
S1 S 0.7854(3) 0.2086(2) 1.0807(6)
O1 O 0.7128(6) 0.1759(4) 1.0427(10)
C29 C 0.8326(13) 0.2189(9) 0.930(2)
C30 C 0.8531(11) 0.1593(9) 1.152(2)
H33 H 0.8445 0.1815 0.8903
H34 H 0.7985 0.2408 0.8707
H35 H 0.8813 0.2403 0.9438
H36 H 0.8301 0.1423 1.2314
H37 H 0.8650 0.1287 1.0890
H38 H 0.9012 0.1797 1.1754
S2 S 0.6556(4) -0.2043(2) 1.0888(6)
O2 O 0.7274(7) -0.1835(4) 1.1584(12)
C31 C 0.5931(12) -0.1423(10) 1.083(2)
C32 C 0.6808(13) -0.2065(9) 0.9209(18)
H39 H 0.5815 -0.1295 1.1728
H40 H 0.6195 -0.1112 1.0354
H41 H 0.5444 -0.1522 1.0382
H42 H 0.7238 -0.2336 0.9078
H43 H 0.6355 -0.2189 0.8693
H44 H 0.6970 -0.1680 0.8921
O3 O 0.5162(4) 0.3635(3) 0.6478(8)
O4 O 0.4998(5) 0.3061(3) 0.4631(7)
O5 O 0.7059(5) 0.0118(3) 0.6999(8)
O6 O 0.7988(5) -0.0093(3) 1.4124(7)
O7 O 0.9912(4) -0.3622(3) 1.4904(8)
O8 O 1.0180(5) -0.2984(3) 1.6617(9)
N1 N 0.5745(5) 0.2765(3) 0.6450(8)
N2 N 0.6254(4) 0.1869(3) 0.7059(7)
N3 N 0.6794(4) 0.1002(3) 0.7921(8)
N4 N 0.8118(4) -0.1049(3) 1.3371(8)
N5 N 0.8777(4) -0.1860(3) 1.4218(8)
N6 N 0.9419(5) -0.2713(3) 1.4809(8)
C1 C 0.4566(7) 0.4096(5) 0.6059(12)
C2 C 0.4621(9) 0.4535(5) 0.7194(17)
C3 C 0.4831(7) 0.4381(5) 0.4763(17)
C4 C 0.3748(7) 0.3849(5) 0.5979(14)
C5 C 0.5264(6) 0.3135(5) 0.5687(11)
C6 C 0.6016(5) 0.2204(4) 0.6051(10)
C7 C 0.6075(7) 0.2033(4) 0.4714(10)
C8 C 0.6367(6) 0.1485(5) 0.4423(10)
C9 C 0.6619(6) 0.1105(5) 0.5461(11)
C10 C 0.6554(5) 0.1316(4) 0.6753(11)
C11 C 0.7012(6) 0.0439(5) 0.8019(11)
C12 C 0.7229(6) 0.0203(4) 0.9367(10)
C13 C 0.6925(6) 0.0429(5) 1.0551(12)
C14 C 0.7152(7) 0.0204(5) 1.1785(12)
C15 C 0.7665(6) -0.0273(4) 1.1870(11)
C16 C 0.7922(6) -0.0521(4) 1.0698(11)
C17 C 0.7691(7) -0.0298(5) 0.9440(11)
C18 C 0.7930(6) -0.0448(4) 1.3288(11)
C19 C 0.8487(5) -0.1332(4) 1.4497(10)
C20 C 0.8519(6) -0.1071(4) 1.5777(11)
C21 C 0.8917(6) -0.1383(5) 1.6737(11)
C22 C 0.9252(6) -0.1944(4) 1.6521(10)
C23 C 0.9128(5) -0.2159(4) 1.5248(10)
C24 C 0.9843(6) -0.3092(5) 1.5509(13)
C25 C 1.0458(6) -0.4098(5) 1.5385(14)
C26 C 1.1323(7) -0.3867(5) 1.5446(14)
C27 C 1.0246(7) -0.4309(5) 1.6746(14)
C28 C 1.0340(8) -0.4579(5) 1.4328(19)
H1 H 0.5906 0.2903 0.7318
H2 H 0.6799 0.1222 0.8741
H3 H 0.7988 -0.1290 1.2611
H4 H 0.9294 -0.2822 1.3904
H5 H 0.5166 0.4654 0.7310
H6 H 0.4300 0.4873 0.6988
H7 H 0.4431 0.4357 0.8007
H8 H 0.5360 0.4536 0.4870
H9 H 0.4830 0.4094 0.4058
H10 H 0.4472 0.4694 0.4538
H11 H 0.3384 0.4150 0.5698
H12 H 0.3740 0.3532 0.5345
H13 H 0.3592 0.3705 0.6845
H14 H 0.5914 0.2294 0.4009
H15 H 0.6400 0.1358 0.3506
H16 H 0.6826 0.0720 0.5276
H17 H 0.6551 0.0747 1.0517
H18 H 0.6950 0.0380 1.2592
H19 H 0.8268 -0.0857 1.0734
H20 H 0.7854 -0.0494 0.8634
H21 H 0.8277 -0.0697 1.5962
H22 H 0.8973 -0.1211 1.7610
H23 H 0.9538 -0.2157 1.7199
H24 H 1.1672 -0.4178 1.5724
H25 H 1.1480 -0.3730 1.4576
H26 H 1.1354 -0.3549 1.6078
H27 H 1.0283 -0.3989 1.7371
H28 H 0.9711 -0.4458 1.6740
H29 H 1.0606 -0.4615 1.7007
H30 H 0.9798 -0.4714 1.4354
H31 H 1.0454 -0.4422 1.3456
H32 H 1.0693 -0.4900 1.4513
loop_
_geom_bond_atom_site_label_1
_geom_bond_atom_site_label_2
_geom_bond_site_symmetry_1
_geom_bond_site_symmetry_2
S1 O1 1_555 1_555
S2 O2 1_555 1_555
O3 C1 1_555 1_555
O4 C5 1_555 1_555
O5 C11 1_555 1_555
O6 C18 1_555 1_555
O7 C24 1_555 1_555
O8 C24 1_555 1_555
N1 C5 1_555 1_555
N2 C6 1_555 1_555
N3 C10 1_555 1_555
N4 C18 1_555 1_555
N5 C19 1_555 1_555
N6 C23 1_555 1_555
C1 C2 1_555 1_555
C2 H5 1_555 1_555
C3 C1 1_555 1_555
C4 C1 1_555 1_555
C5 O3 1_555 1_555
C6 N1 1_555 1_555
C7 C6 1_555 1_555
C8 C7 1_555 1_555
C9 C8 1_555 1_555
C10 N2 1_555 1_555
C11 N3 1_555 1_555
C12 C11 1_555 1_555
C13 C12 1_555 1_555
C14 C13 1_555 1_555
C15 C14 1_555 1_555
C16 C15 1_555 1_555
C17 C12 1_555 1_555
C18 C15 1_555 1_555
C19 N4 1_555 1_555
C20 C19 1_555 1_555
C21 C20 1_555 1_555
C22 C21 1_555 1_555
C23 N5 1_555 1_555
C24 N6 1_555 1_555
C25 O7 1_555 1_555
C26 C25 1_555 1_555
C27 C25 1_555 1_555
C28 C25 1_555 1_555
C29 S1 1_555 1_555
C30 S1 1_555 1_555
C31 S2 1_555 1_555
C32 S2 1_555 1_555
H1 N1 1_555 1_555
H2 N3 1_555 1_555
H3 N4 1_555 1_555
H4 N6 1_555 1_555
H6 C2 1_555 1_555
H7 C2 1_555 1_555
H8 C3 1_555 1_555
H9 C3 1_555 1_555
H10 C3 1_555 1_555
H11 C4 1_555 1_555
H12 C4 1_555 1_555
H13 C4 1_555 1_555
H14 C7 1_555 1_555
H15 C8 1_555 1_555
H16 C9 1_555 1_555
H17 C13 1_555 1_555
H18 C14 1_555 1_555
H19 C16 1_555 1_555
H20 C17 1_555 1_555
H21 C20 1_555 1_555
H22 C21 1_555 1_555
H23 C22 1_555 1_555
H24 C26 1_555 1_555
H25 C26 1_555 1_555
H26 C26 1_555 1_555
H27 C27 1_555 1_555
H28 C27 1_555 1_555
H29 C27 1_555 1_555
H30 C28 1_555 1_555
H31 C28 1_555 1_555
H32 C28 1_555 1_555
H33 C29 1_555 1_555
H34 C29 1_555 1_555
H35 C29 1_555 1_555
H36 C30 1_555 1_555
H37 C30 1_555 1_555
H38 C30 1_555 1_555
H39 C31 1_555 1_555
H40 C31 1_555 1_555
H41 C31 1_555 1_555
H42 C32 1_555 1_555
H43 C32 1_555 1_555
H44 C32 1_555 1_555
C9 C10 1_555 1_555
C16 C17 1_555 1_555
C22 C23 1_555 1_555

#END
