
#######################################################################
#
#                 Cambridge Crystallographic Data Centre
#                                CCDC 
#
#######################################################################
#
# If this CIF has been generated from an entry in the Cambridge 
# Structural Database, then it will include bibliographic, chemical, 
# crystal, experimental, refinement or atomic coordinate data resulting 
# from the CCDC's data processing and validation procedures.
#
#######################################################################

data_FAYHUK
_chemical_name_common            
'1,3,9(1,3),7(3,1)-Tetraimidazola-2,8(2,6)-dipyridina-5,11(1,4)-dibenzenacyclododecaphane-1$3!,3$3!,7$3!,9$3!-tetra-ium 6-aminonaphthalene-2-sulfonate naphthalene-2,6-dicarboxylate hydroxide pentacosahydrate'
_chemical_formula_moiety         
'C38 H34 N10 4+,C10 H8 N1 O3 S1 1-,C12 H6 O4 2-,H1 O1 1-,25(H2 O1)'
_chemical_name_systematic        
'6,12,25,31,42,47-Hexaaza-3,15,22,34-tetraazonianonacyclo[34.2.2.2^17,20^.1^3,6^.1^7,11^.1^12,15^.1^22,25^.1^26,30^.1^31,34^]octatetraconta-1(38),3(48),4,7(47),8,10,13,15(46),17,19,22(43),23,26(42),27,29,32,34(41),36,39,44-icosaene 6-aminonaphthalene-2-sulfonate naphthalene-2,6-dicarboxylate hydroxide pentacosahydrate'
_symmetry_cell_setting           triclinic
_symmetry_space_group_name_H-M   'P -1'
_symmetry_Int_Tables_number      2
_space_group_name_Hall           '-P 1'
loop_
_symmetry_equiv_pos_site_id
_symmetry_equiv_pos_as_xyz
1 x,y,z
2 -x,-y,-z
_cell_length_a                   14.246(10)
_cell_length_b                   15.511(11)
_cell_length_c                   18.315(12)
_cell_angle_alpha                95.747(10)
_cell_angle_beta                 104.016(4)
_cell_angle_gamma                112.043(5)
_cell_volume                     3556.49
_exptl_crystal_colour            'light yellow'
_exptl_crystal_description       block
_cell_formula_units_Z            2
_exptl_crystal_recrystallization_method acetonitrile/water
loop_
_atom_site_label
_atom_site_type_symbol
_atom_site_fract_x
_atom_site_fract_y
_atom_site_fract_z
N1 N 1.0617(3) 0.6934(3) 0.2301(2)
N2 N 1.0784(3) 0.5685(2) 0.2631(2)
N3 N 1.0614(2) 0.4139(2) 0.2678(2)
N4 N 1.0347(3) 0.2559(2) 0.2623(2)
N5 N 0.9936(3) 0.1052(2) 0.2309(2)
N6 N 0.5262(3) -0.0131(2) 0.2739(2)
N7 N 0.5336(3) 0.1291(2) 0.3001(2)
N8 N 0.5498(2) 0.2840(2) 0.2979(2)
N9 N 0.5621(3) 0.4344(2) 0.2818(2)
N10 N 0.5741(3) 0.5643(2) 0.2439(2)
C1 C 1.0864(3) 0.6563(3) 0.2899(3)
H3 H 1.1058 0.6854 0.3414
C2 C 1.0315(4) 0.6273(4) 0.1627(3)
H4 H 1.0075 0.6351 0.1130
C3 C 1.0430(4) 0.5496(3) 0.1823(3)
H5 H 1.0302 0.4944 0.1489
C4 C 1.0944(3) 0.5031(3) 0.3088(2)
C5 C 1.1363(3) 0.5291(3) 0.3872(3)
H6 H 1.1595 0.5917 0.4128
C6 C 1.1433(4) 0.4598(3) 0.4275(3)
H7 H 1.1701 0.4753 0.4809
C7 C 1.1103(3) 0.3677(3) 0.3884(3)
H8 H 1.1145 0.3201 0.4144
C8 C 1.0706(3) 0.3490(3) 0.3087(2)
C9 C 1.0326(3) 0.1774(3) 0.2887(3)
H9 H 1.0555 0.1752 0.3402
C10 C 0.9946(3) 0.2299(3) 0.1851(3)
H10 H 0.9873 0.2701 0.1517
C11 C 0.9665(4) 0.1348(3) 0.1641(3)
H11 H 0.9353 0.0975 0.1145
C12 C 0.9632(4) 0.0034(3) 0.2371(3)
H12 H 1.0150 -0.0010 0.2802
H13 H 0.9619 -0.0334 0.1905
C13 C 0.8538(4) -0.0358(3) 0.2486(3)
C14 C 0.8442(4) -0.0338(3) 0.3249(3)
H14 H 0.9039 -0.0164 0.3673
C15 C 0.7430(4) -0.0585(3) 0.3345(3)
H15 H 0.7359 -0.0575 0.3837
C16 C 0.6541(4) -0.0843(3) 0.2718(3)
C17 C 0.6648(4) -0.0893(3) 0.1972(3)
H16 H 0.6050 -0.1091 0.1544
C18 C 0.7639(4) -0.0648(3) 0.1877(3)
H17 H 0.7698 -0.0682 0.1381
C19 C 0.5469(4) -0.0996(3) 0.2837(3)
H18 H 0.4909 -0.1548 0.2465
H19 H 0.5476 -0.1109 0.3350
C20 C 0.5545(3) 0.0600(3) 0.3309(2)
H20 H 0.5836 0.0633 0.3829
C21 C 0.4873(4) 0.0110(3) 0.2059(3)
H21 H 0.4623 -0.0278 0.1571
C22 C 0.4911(4) 0.0975(3) 0.2208(3)
H22 H 0.4697 0.1305 0.1853
C23 C 0.5570(3) 0.2222(3) 0.3426(2)
C24 C 0.5856(3) 0.2451(3) 0.4228(2)
H23 H 0.5906 0.2001 0.4517
C25 C 0.6058(4) 0.3338(3) 0.4576(3)
H24 H 0.6235 0.3503 0.5109
C26 C 0.6000(3) 0.4001(3) 0.4132(3)
H25 H 0.6146 0.4619 0.4360
C27 C 0.5719(3) 0.3715(3) 0.3342(2)
C28 C 0.5926(3) 0.5291(3) 0.3062(3)
H26 H 0.6210 0.5629 0.3570
C29 C 0.5247(3) 0.4112(3) 0.2045(2)
H27 H 0.4989 0.3507 0.1738
C30 C 0.5314(3) 0.4919(3) 0.1794(3)
H28 H 0.5110 0.4975 0.1285
C31 C 0.6099(4) 0.6679(3) 0.2444(3)
H29 H 0.6047 0.7005 0.2903
H30 H 0.5649 0.6773 0.1998
C32 C 0.7246(3) 0.7083(3) 0.2431(2)
C33 C 0.7466(4) 0.7095(3) 0.1736(3)
H31 H 0.6913 0.6924 0.1281
C34 C 0.8516(4) 0.7363(3) 0.1706(3)
H32 H 0.8651 0.7355 0.1234
C35 C 0.9339(3) 0.7636(3) 0.2380(3)
C36 C 0.9111(4) 0.7649(3) 0.3084(3)
H33 H 0.9662 0.7850 0.3543
C37 C 0.8076(4) 0.7365(3) 0.3101(3)
H34 H 0.7938 0.7364 0.3572
C38 C 1.0480(4) 0.7854(3) 0.2367(3)
H35 H 1.0606 0.8139 0.1933
H36 H 1.0985 0.8299 0.2836
C49 C 1.2874(4) 0.1349(4) 0.3133(3)
C50 C 1.3145(4) 0.2232(4) 0.3476(3)
H43 H 1.3408 0.2396 0.4011
C51 C 1.3058(3) 0.2935(4) 0.3081(3)
C52 C 1.3387(4) 0.3899(4) 0.3457(3)
H44 H 1.3665 0.4070 0.3991
C53 C 1.3303(4) 0.4583(4) 0.3052(3)
H45 H 1.3531 0.5209 0.3307
C54 C 1.2864(4) 0.4315(4) 0.2247(3)
C55 C 1.2528(4) 0.3411(3) 0.1855(3)
H46 H 1.2224 0.3252 0.1323
C56 C 1.2645(4) 0.2708(4) 0.2267(3)
C57 C 1.2332(4) 0.1739(4) 0.1865(4)
H47 H 1.2066 0.1574 0.1331
C58 C 1.2430(4) 0.1071(5) 0.2276(4)
H48 H 1.2221 0.0448 0.2023
C59 C 1.2817(5) 0.5086(5) 0.1792(3)
C60 C 1.3042(12) 0.0541(7) 0.3429(7)
O7 O 1.3230(4) 0.5959(3) 0.2159(2)
O9 O 1.2197(3) 0.4806(3) 0.1075(2)
O10 O 1.2971(9) -0.0214(6) 0.3050(5)
O11 O 1.3108(16) 0.0636(12) 0.4120(8)
O2 O 1.1186(3) 0.1777(3) 0.4684(2)
H49 H 1.050(2) 0.166(4) 0.474(4)
H50 H 1.141(4) 0.131(3) 0.487(4)
O4 O 0.6842(4) 0.6584(3) 0.4665(2)
H51 H 0.7551(17) 0.706(3) 0.492(4)
H52 H 0.636(3) 0.688(4) 0.471(4)
O6 O 1.1182(4) -0.0024(3) 0.4487(3)
H53 H 1.184(2) 0.031(5) 0.490(2)
H54 H 1.062(3) -0.012(5) 0.472(3)
O8 O 0.6396(4) 0.3018(3) 0.6414(2)
H55 H 0.649(6) 0.243(3) 0.642(3)
H56 H 0.640(6) 0.325(4) 0.6923(17)
S1 S 0.89130(17) 0.24196(15) 0.49190(10)
N11 N 0.7376(4) 0.4436(4) 0.1037(3)
H1 H 0.7130 0.3993 0.0631
H2 H 0.7440 0.5002 0.0996
C39 C 0.7674(4) 0.4236(4) 0.1772(3)
C40 C 0.8089(4) 0.4939(4) 0.2441(3)
H37 H 0.8161 0.5552 0.2404
C41 C 0.8399(4) 0.4746(3) 0.3161(3)
H38 H 0.8685 0.5231 0.3598
C42 C 0.8283(3) 0.3815(3) 0.3234(3)
C43 C 0.8619(4) 0.3581(3) 0.3965(3)
H39 H 0.8921 0.4055 0.4410
C44 C 0.8504(4) 0.2676(4) 0.4018(3)
C45 C 0.8086(4) 0.1962(4) 0.3348(3)
H40 H 0.8019 0.1350 0.3387
C46 C 0.7773(4) 0.2155(4) 0.2631(3)
H41 H 0.7501 0.1675 0.2191
C47 C 0.7866(3) 0.3080(3) 0.2566(3)
C48 C 0.7568(4) 0.3331(4) 0.1832(3)
H42 H 0.7296 0.2863 0.1384
O1 O 0.9988(7) 0.3373(6) 0.5384(5)
O3 O 0.8228(7) 0.2391(6) 0.5358(5)
O5 O 0.932(4) 0.169(5) 0.486(3)
C61? C 1.291(2) 0.0632(9) 0.3613(9)
O12? O 0.919(2) 0.3048(17) 0.5440(8)
O13? O 0.7614(13) 0.1665(15) 0.4892(10)
O14? O 0.913(7) 0.161(8) 0.473(6)
O15? O 1.2204(11) -0.0196(9) 0.3426(8)
O16? O 1.3513(16) 0.0891(12) 0.4297(9)
loop_
_geom_bond_atom_site_label_1
_geom_bond_atom_site_label_2
_geom_bond_site_symmetry_1
_geom_bond_site_symmetry_2
S1 C44 1_555 1_555
N1 C1 1_555 1_555
N2 C1 1_555 1_555
N3 C4 1_555 1_555
N4 C8 1_555 1_555
N5 C9 1_555 1_555
N6 C19 1_555 1_555
N7 C20 1_555 1_555
N8 C23 1_555 1_555
N9 C27 1_555 1_555
N10 C28 1_555 1_555
N11 H1 1_555 1_555
H2 N11 1_555 1_555
C1 H3 1_555 1_555
C2 N1 1_555 1_555
H4 C2 1_555 1_555
C3 N2 1_555 1_555
H5 C3 1_555 1_555
C4 N2 1_555 1_555
C5 C4 1_555 1_555
H6 C5 1_555 1_555
C6 C5 1_555 1_555
H7 C6 1_555 1_555
C7 C6 1_555 1_555
H8 C7 1_555 1_555
C8 N3 1_555 1_555
C9 N4 1_555 1_555
H9 C9 1_555 1_555
C10 N4 1_555 1_555
H10 C10 1_555 1_555
C11 N5 1_555 1_555
H11 C11 1_555 1_555
C12 N5 1_555 1_555
H12 C12 1_555 1_555
H13 C12 1_555 1_555
C13 C12 1_555 1_555
C14 C13 1_555 1_555
H14 C14 1_555 1_555
C15 C14 1_555 1_555
H15 C15 1_555 1_555
C16 C15 1_555 1_555
C17 C16 1_555 1_555
H16 C17 1_555 1_555
C18 C13 1_555 1_555
H17 C18 1_555 1_555
C19 C16 1_555 1_555
H18 C19 1_555 1_555
H19 C19 1_555 1_555
C20 N6 1_555 1_555
H20 C20 1_555 1_555
C21 N6 1_555 1_555
H21 C21 1_555 1_555
C22 N7 1_555 1_555
H22 C22 1_555 1_555
C23 N7 1_555 1_555
C24 C23 1_555 1_555
H23 C24 1_555 1_555
C25 C24 1_555 1_555
H24 C25 1_555 1_555
C26 C25 1_555 1_555
H25 C26 1_555 1_555
C27 N8 1_555 1_555
C28 N9 1_555 1_555
H26 C28 1_555 1_555
C29 N9 1_555 1_555
H27 C29 1_555 1_555
C30 N10 1_555 1_555
H28 C30 1_555 1_555
C31 N10 1_555 1_555
H29 C31 1_555 1_555
H30 C31 1_555 1_555
C32 C31 1_555 1_555
C33 C32 1_555 1_555
H31 C33 1_555 1_555
C34 C33 1_555 1_555
H32 C34 1_555 1_555
C35 C34 1_555 1_555
C36 C35 1_555 1_555
H33 C36 1_555 1_555
C37 C32 1_555 1_555
H34 C37 1_555 1_555
C38 N1 1_555 1_555
H35 C38 1_555 1_555
H36 C38 1_555 1_555
C39 N11 1_555 1_555
C40 C39 1_555 1_555
H37 C40 1_555 1_555
C41 C40 1_555 1_555
H38 C41 1_555 1_555
C42 C41 1_555 1_555
C43 C42 1_555 1_555
H39 C43 1_555 1_555
C44 C43 1_555 1_555
C45 C44 1_555 1_555
H40 C45 1_555 1_555
C46 C45 1_555 1_555
H41 C46 1_555 1_555
C47 C42 1_555 1_555
C48 C39 1_555 1_555
H42 C48 1_555 1_555
C49 C50 1_555 1_555
C50 H43 1_555 1_555
C51 C50 1_555 1_555
C52 C51 1_555 1_555
H44 C52 1_555 1_555
C53 C52 1_555 1_555
H45 C53 1_555 1_555
C54 C53 1_555 1_555
C55 C54 1_555 1_555
H46 C55 1_555 1_555
C56 C51 1_555 1_555
C57 C56 1_555 1_555
H47 C57 1_555 1_555
C58 C49 1_555 1_555
H48 C58 1_555 1_555
C59 C54 1_555 1_555
C60 C49 1_555 1_555
O1 S1 1_555 1_555
O2 H49 1_555 1_555
H50 O2 1_555 1_555
O3 S1 1_555 1_555
O4 H51 1_555 1_555
H52 O4 1_555 1_555
O5 S1 1_555 1_555
O6 H53 1_555 1_555
H54 O6 1_555 1_555
O7 C59 1_555 1_555
O8 H55 1_555 1_555
H56 O8 1_555 1_555
O9 C59 1_555 1_555
O10 C60 1_555 1_555
O11 C60 1_555 1_555
C2 C3 1_555 1_555
C7 C8 1_555 1_555
C10 C11 1_555 1_555
C17 C18 1_555 1_555
C21 C22 1_555 1_555
C26 C27 1_555 1_555
C29 C30 1_555 1_555
C35 C38 1_555 1_555
C36 C37 1_555 1_555
C46 C47 1_555 1_555
C47 C48 1_555 1_555
C55 C56 1_555 1_555
C57 C58 1_555 1_555

#END
