
#######################################################################
#
#                 Cambridge Crystallographic Data Centre
#                                CCDC 
#
#######################################################################
#
# If this CIF has been generated from an entry in the Cambridge 
# Structural Database, then it will include bibliographic, chemical, 
# crystal, experimental, refinement or atomic coordinate data resulting 
# from the CCDC's data processing and validation procedures.
#
#######################################################################

data_FAYJOG
_chemical_name_common            
'1,3,9(1,3),7(3,1)-Tetraimidazola-2,8(2,6)-dipyridina-5,11(1,4)-dibenzenacyclododecaphane-1$3!,3$3!,7$3!,9$3!-tetra-ium tetranitrate N,N-dimethylformamide solvate dihydrate'
_chemical_formula_moiety         
'C38 H34 N10 4+,4(N1 O3 1-),2(C3 H7 N1 O1),2(H2 O1)'
_chemical_name_systematic        
'6,12,25,31,42,47-Hexaaza-3,15,22,34-tetraazonianonacyclo[34.2.2.2^17,20^.1^3,6^.1^7,11^.1^12,15^.1^22,25^.1^26,30^.1^31,34^]octatetraconta-1(38),3(48),4,7(47),8,10,13,15(46),17,19,22(43),23,26(42),27,29,32,34(41),36,39,44-icosaene tetranitrate N,N-dimethylformamide solvate dihydrate'
_symmetry_cell_setting           triclinic
_symmetry_space_group_name_H-M   'P -1'
_symmetry_Int_Tables_number      2
_space_group_name_Hall           '-P 1'
loop_
_symmetry_equiv_pos_site_id
_symmetry_equiv_pos_as_xyz
1 x,y,z
2 -x,-y,-z
_cell_length_a                   12.570(3)
_cell_length_b                   12.994(3)
_cell_length_c                   16.020(3)
_cell_angle_alpha                101.99(3)
_cell_angle_beta                 104.13(3)
_cell_angle_gamma                98.71(3)
_cell_volume                     2425.08
_exptl_crystal_colour            colorless
_exptl_crystal_description       block
_cell_formula_units_Z            2
_exptl_crystal_recrystallization_method 
acetonitrile/N,N-dimethylformamide/water
loop_
_atom_site_label
_atom_site_type_symbol
_atom_site_fract_x
_atom_site_fract_y
_atom_site_fract_z
N1 N 0.4873(2) 0.75418(18) 0.38296(16)
N2 N 0.50388(17) 0.83471(17) 0.27932(15)
N3 N 0.64814(18) 0.85770(18) 0.21551(16)
N4 N 0.8018(2) 0.87326(19) 0.15841(17)
N5 N 0.95223(19) 0.81318(18) 0.19601(16)
N6 N 1.01206(19) 0.24635(19) 0.11827(18)
N7 N 0.9977(2) 0.1643(2) 0.21934(18)
N8 N 0.8514(2) 0.14355(18) 0.28566(18)
N9 N 0.69769(18) 0.12676(19) 0.34023(16)
N10 N 0.54753(19) 0.18886(19) 0.30487(18)
C1 C 0.5530(2) 0.7807(2) 0.3346(2)
H1 H 0.6232 0.7642 0.3385
C2 C 0.3913(2) 0.7951(2) 0.3582(2)
H2 H 0.3309 0.7881 0.3819
C3 C 0.4001(2) 0.8457(3) 0.2952(2)
H3 H 0.3485 0.8810 0.2674
C4 C 0.5497(2) 0.8792(2) 0.21775(19)
C5 C 0.4939(2) 0.9404(2) 0.1686(2)
H4 H 0.4242 0.9526 0.1731
C6 C 0.5451(3) 0.9830(2) 0.1126(2)
H5 H 0.5108 1.0262 0.0796
C7 C 0.6470(2) 0.9614(2) 0.1058(2)
H6 H 0.6826 0.9875 0.0675
C8 C 0.6938(2) 0.8985(2) 0.1590(2)
C9 C 0.8536(2) 0.8147(2) 0.21033(19)
H7 H 0.8249 0.7817 0.2488
C10 C 0.8714(2) 0.9085(2) 0.1099(2)
H8 H 0.8564 0.9505 0.0697
C11 C 0.9650(2) 0.8696(2) 0.1328(2)
H9 H 1.0266 0.8788 0.1106
C12 C 1.0339(2) 0.7543(2) 0.2383(2)
H10 H 1.0237 0.7499 0.2957
H11 H 1.1096 0.7941 0.2485
C13 C 1.0199(2) 0.6423(2) 0.1817(2)
C14 C 0.9152(2) 0.5781(2) 0.1285(2)
H12 H 0.8518 0.6078 0.1221
C15 C 0.9047(2) 0.4699(2) 0.0848(2)
H13 H 0.8348 0.4280 0.0504
C16 C 1.0000(2) 0.4261(2) 0.09364(19)
C17 C 1.1051(2) 0.4893(2) 0.1441(2)
H14 H 1.1686 0.4597 0.1496
C18 C 1.1146(3) 0.5966(2) 0.1861(2)
H15 H 1.1853 0.6390 0.2177
C19 C 0.9864(3) 0.3083(2) 0.0502(2)
H16 H 0.9100 0.2797 0.0126
H17 H 1.0364 0.3003 0.0129
C20 C 0.9435(3) 0.2210(2) 0.16636(19)
H18 H 0.8740 0.2384 0.1641
C21 C 1.1081(3) 0.2063(3) 0.1388(2)
H19 H 1.1672 0.2125 0.1135
C22 C 1.0985(2) 0.1564(2) 0.2032(2)
H20 H 1.1511 0.1225 0.2317
C23 C 0.9505(2) 0.1213(2) 0.2815(2)
C24 C 1.0080(3) 0.0597(2) 0.3308(2)
H21 H 1.0772 0.0465 0.3262
C25 C 0.9549(2) 0.0197(2) 0.3870(2)
H22 H 0.9890 -0.0221 0.4216
C26 C 0.8510(2) 0.0408(2) 0.3927(2)
H23 H 0.8149 0.0134 0.4301
C27 C 0.8042(2) 0.1035(2) 0.3411(2)
C28 C 0.6466(2) 0.1842(2) 0.2894(2)
H24 H 0.6749 0.2156 0.2500
C29 C 0.6289(3) 0.0958(3) 0.3903(2)
H25 H 0.6449 0.0564 0.4324
C30 C 0.5350(3) 0.1329(2) 0.3671(2)
H26 H 0.4731 0.1227 0.3888
C31 C 0.4665(2) 0.2458(2) 0.2636(2)
H27 H 0.3912 0.2052 0.2538
H28 H 0.4761 0.2499 0.2060
C32 C 0.4789(2) 0.3596(2) 0.31997(19)
C33 C 0.3847(2) 0.4053(2) 0.3127(2)
H29 H 0.3146 0.3647 0.2776
C34 C 0.3957(2) 0.5112(2) 0.3579(2)
H30 H 0.3321 0.5401 0.3554
C35 C 0.5008(3) 0.5750(2) 0.4070(2)
C36 C 0.5925(3) 0.5267(2) 0.4140(2)
H31 H 0.6629 0.5670 0.4487
C37 C 0.5822(2) 0.4203(2) 0.3707(2)
H32 H 0.6452 0.3901 0.3761
C38 C 0.5121(3) 0.6919(2) 0.4506(2)
H33 H 0.4608 0.6985 0.4868
H34 H 0.5879 0.7212 0.4893
N11 N 0.8480(2) 0.7469(2) 0.4231(2)
O1 O 0.8207(2) 0.7481(2) 0.49256(19)
O3 O 0.95167(18) 0.77739(17) 0.42948(15)
O5 O 0.77916(18) 0.7128(2) 0.34749(16)
N12 N 0.6470(2) 0.25224(19) 0.07531(18)
O6 O 0.6810(2) 0.2529(2) 0.00842(18)
O7 O 0.54670(19) 0.2224(2) 0.07082(19)
O8 O 0.72060(19) 0.28499(19) 0.15136(16)
N13 N 0.72338(18) 0.9729(2) 0.58690(18)
O9 O 0.64010(18) 0.93887(17) 0.51802(15)
O10 O 0.79878(18) 1.04967(18) 0.59115(17)
O11 O 0.72512(16) 0.9282(2) 0.64840(16)
N14 N 0.2186(2) 0.9707(2) 0.08395(18)
O12 O 0.2265(2) 0.9288(2) 0.14816(18)
O13 O 0.29741(18) 1.04812(17) 0.09009(17)
O14 O 0.13824(19) 0.93894(18) 0.01594(16)
N15 N 0.5152(2) 0.5740(2) 0.12096(18)
C39 C 0.5607(3) 0.6298(3) 0.0727(2)
H35 H 0.5163 0.6694 0.0426
C40 C 0.5782(3) 0.5049(3) 0.1658(3)
H36 H 0.6512 0.5123 0.1562
H37 H 0.5385 0.4312 0.1419
H38 H 0.5861 0.5259 0.2284
C41 C 0.4015(3) 0.5737(3) 0.1271(2)
H39 H 0.3694 0.6206 0.0939
H40 H 0.4034 0.5983 0.1883
H41 H 0.3567 0.5019 0.1030
O16 O 0.65514(17) 0.63416(18) 0.06412(15)
N16 N 0.9827(2) 0.4264(2) 0.37779(19)
C42 C 0.9399(2) 0.3694(2) 0.4264(2)
H42 H 0.9839 0.3284 0.4548
C43 C 1.0973(3) 0.4273(3) 0.3715(3)
H43 H 1.1292 0.3794 0.4037
H44 H 1.1421 0.4989 0.3967
H45 H 1.0954 0.4041 0.3102
C44 C 0.9198(3) 0.4933(3) 0.3324(3)
H46 H 0.8467 0.4855 0.3417
H47 H 0.9123 0.4714 0.2698
H48 H 0.9588 0.5672 0.3557
O15 O 0.84446(19) 0.36760(18) 0.43620(17)
O2 O 0.8068(2) 0.27474(19) 0.56771(17)
H49 H 0.816(3) 0.304(2) 0.5194(15)
H50 H 0.828(9) 0.206(4) 0.560(5)
O4 O 0.69333(19) 0.72348(19) -0.06802(17)
H51 H 0.683(5) 0.691(4) -0.021(3)
H52 H 0.663(2) 0.7862(16) -0.064(2)
loop_
_geom_bond_atom_site_label_1
_geom_bond_atom_site_label_2
_geom_bond_site_symmetry_1
_geom_bond_site_symmetry_2
N1 C1 1_555 1_555
N2 C1 1_555 1_555
N3 C4 1_555 1_555
N4 C8 1_555 1_555
N5 C9 1_555 1_555
N6 C19 1_555 1_555
N7 C20 1_555 1_555
N8 C23 1_555 1_555
N9 C27 1_555 1_555
N10 C28 1_555 1_555
N11 O1 1_555 1_555
N12 O6 1_555 1_555
N13 O9 1_555 1_555
N14 O12 1_555 1_555
N15 C39 1_555 1_555
N16 C42 1_555 1_555
C1 H1 1_555 1_555
C2 N1 1_555 1_555
H2 C2 1_555 1_555
C3 N2 1_555 1_555
H3 C3 1_555 1_555
C4 N2 1_555 1_555
C5 C4 1_555 1_555
H4 C5 1_555 1_555
C6 C5 1_555 1_555
H5 C6 1_555 1_555
C7 C6 1_555 1_555
H6 C7 1_555 1_555
C8 N3 1_555 1_555
C9 N4 1_555 1_555
H7 C9 1_555 1_555
C10 N4 1_555 1_555
H8 C10 1_555 1_555
C11 N5 1_555 1_555
H9 C11 1_555 1_555
C12 N5 1_555 1_555
H10 C12 1_555 1_555
H11 C12 1_555 1_555
C13 C12 1_555 1_555
C14 C13 1_555 1_555
H12 C14 1_555 1_555
C15 C14 1_555 1_555
H13 C15 1_555 1_555
C16 C15 1_555 1_555
C17 C16 1_555 1_555
H14 C17 1_555 1_555
C18 C13 1_555 1_555
H15 C18 1_555 1_555
C19 C16 1_555 1_555
H16 C19 1_555 1_555
H17 C19 1_555 1_555
C20 N6 1_555 1_555
H18 C20 1_555 1_555
C21 N6 1_555 1_555
H19 C21 1_555 1_555
C22 N7 1_555 1_555
H20 C22 1_555 1_555
C23 N7 1_555 1_555
C24 C23 1_555 1_555
H21 C24 1_555 1_555
C25 C24 1_555 1_555
H22 C25 1_555 1_555
C26 C25 1_555 1_555
H23 C26 1_555 1_555
C27 N8 1_555 1_555
C28 N9 1_555 1_555
H24 C28 1_555 1_555
C29 N9 1_555 1_555
H25 C29 1_555 1_555
C30 N10 1_555 1_555
H26 C30 1_555 1_555
C31 N10 1_555 1_555
H27 C31 1_555 1_555
H28 C31 1_555 1_555
C32 C31 1_555 1_555
C33 C32 1_555 1_555
H29 C33 1_555 1_555
C34 C33 1_555 1_555
H30 C34 1_555 1_555
C35 C34 1_555 1_555
C36 C35 1_555 1_555
H31 C36 1_555 1_555
C37 C32 1_555 1_555
H32 C37 1_555 1_555
C38 N1 1_555 1_555
H33 C38 1_555 1_555
H34 C38 1_555 1_555
C39 H35 1_555 1_555
C40 N15 1_555 1_555
H36 C40 1_555 1_555
H37 C40 1_555 1_555
H38 C40 1_555 1_555
C41 N15 1_555 1_555
H39 C41 1_555 1_555
H40 C41 1_555 1_555
H41 C41 1_555 1_555
C42 H42 1_555 1_555
C43 N16 1_555 1_555
H43 C43 1_555 1_555
H44 C43 1_555 1_555
H45 C43 1_555 1_555
C44 N16 1_555 1_555
H46 C44 1_555 1_555
H47 C44 1_555 1_555
H48 C44 1_555 1_555
O2 H49 1_555 1_555
H50 O2 1_555 1_555
O3 N11 1_555 1_555
O4 H51 1_555 1_555
H52 O4 1_555 1_555
O5 N11 1_555 1_555
O7 N12 1_555 1_555
O8 N12 1_555 1_555
O10 N13 1_555 1_555
O11 N13 1_555 1_555
O13 N14 1_555 1_555
O14 N14 1_555 1_555
O15 C42 1_555 1_555
O16 C39 1_555 1_555
C2 C3 1_555 1_555
C7 C8 1_555 1_555
C10 C11 1_555 1_555
C17 C18 1_555 1_555
C21 C22 1_555 1_555
C26 C27 1_555 1_555
C29 C30 1_555 1_555
C35 C38 1_555 1_555
C36 C37 1_555 1_555

#END
