
#######################################################################
#
#                 Cambridge Crystallographic Data Centre
#                                CCDC 
#
#######################################################################
#
# If this CIF has been generated from an entry in the Cambridge 
# Structural Database, then it will include bibliographic, chemical, 
# crystal, experimental, refinement or atomic coordinate data resulting 
# from the CCDC's data processing and validation procedures.
#
#######################################################################

data_FAYJAT
_chemical_name_common            
'(+)-(S)-6-amino-3-(4-[(4-fluorobenzyl)oxy]phenyl)-4-(3,4-dichlorophenyl)-2,4-dihydropyrano[2,3-c]pyrazole-5-carbonitrile 1-butoxybutane solvate'
_chemical_formula_moiety         'C26 H17 Cl2 F1 N4 O2,0.13(C8 H18 O1)'
_chemical_name_systematic        
'6-amino-4-(3,4-dichlorophenyl)-3-(4-((4-fluorobenzyl)oxy)phenyl)-2,4-dihydropyrano[2,3-c]pyrazole-5-carbonitrile 1-butoxybutane solvate'
_chemical_properties_biological  
'assessed in melanoma cell motility and its inhibition, found to be effective.'
_symmetry_cell_setting           orthorhombic
_symmetry_space_group_name_H-M   'P 21 21 2'
_symmetry_Int_Tables_number      18
_space_group_name_Hall           'P 2 2ab'
loop_
_symmetry_equiv_pos_site_id
_symmetry_equiv_pos_as_xyz
1 x,y,z
2 1/2+x,1/2-y,-z
3 1/2-x,1/2+y,-z
4 -x,-y,z
_cell_length_a                   15.7963(4)
_cell_length_b                   32.2184(7)
_cell_length_c                   9.8791(3)
_cell_angle_alpha                90
_cell_angle_beta                 90
_cell_angle_gamma                90
_cell_volume                     5027.79
_exptl_crystal_colour            colorless
_exptl_crystal_description       block
_cell_formula_units_Z            8
loop_
_atom_site_label
_atom_site_type_symbol
_atom_site_fract_x
_atom_site_fract_y
_atom_site_fract_z
C1 C 0.4138(3) 0.58433(12) 0.7060(4)
C2 C 0.4142(2) 0.62456(11) 0.7498(4)
C3 C 0.4045(2) 0.66300(11) 0.6600(4)
H1 H 0.4541 0.6817 0.6747
C4 C 0.4052(2) 0.64798(11) 0.5157(4)
C5 C 0.4095(2) 0.60622(11) 0.4826(4)
C6 C 0.4011(2) 0.66753(11) 0.3893(4)
C7 C 0.4202(3) 0.63068(11) 0.8904(4)
C8 C 0.3236(2) 0.68615(11) 0.6978(4)
C9 C 0.2457(2) 0.67037(12) 0.6583(4)
H2 H 0.2433 0.6458 0.6052
C10 C 0.1716(3) 0.68995(14) 0.6954(4)
C11 C 0.1741(3) 0.72624(14) 0.7697(5)
C12 C 0.2517(3) 0.74188(14) 0.8102(5)
H3 H 0.2538 0.7665 0.8631
C13 C 0.3261(3) 0.72221(13) 0.7747(4)
H4 H 0.3790 0.7333 0.8029
C14 C 0.3887(2) 0.71053(11) 0.3445(4)
C15 C 0.3946(2) 0.74437(12) 0.4320(4)
H5 H 0.4086 0.7397 0.5242
C16 C 0.3804(3) 0.78507(12) 0.3874(4)
H6 H 0.3833 0.8077 0.4489
C17 C 0.3622(3) 0.79170(12) 0.2526(4)
C18 C 0.3560(3) 0.75853(13) 0.1652(5)
H7 H 0.3431 0.7633 0.0726
C19 C 0.3681(3) 0.71859(12) 0.2100(4)
H8 H 0.3624 0.6961 0.1483
C20 C 0.3651(3) 0.86714(11) 0.2686(4)
H9 H 0.4169 0.8645 0.3243
H10 H 0.3166 0.8730 0.3293
C21 C 0.3751(3) 0.90149(12) 0.1652(5)
C22 C 0.3069(3) 0.92534(14) 0.1248(6)
H11 H 0.2537 0.9215 0.1679
C23 C 0.3143(4) 0.95463(16) 0.0229(6)
H12 H 0.2668 0.9703 -0.0064
C24 C 0.3914(4) 0.96017(15) -0.0332(6)
C25 C 0.4602(4) 0.93704(18) 0.0013(6)
H13 H 0.5130 0.9411 -0.0429
C26 C 0.4515(3) 0.90776(16) 0.1015(6)
H14 H 0.4991 0.8916 0.1272
N1 N 0.4059(2) 0.63649(9) 0.2967(3)
H15 H 0.4068 0.6389 0.2065
N2 N 0.4114(2) 0.59785(9) 0.3522(3)
N3 N 0.4149(3) 0.55008(10) 0.7828(3)
H16 H 0.4257 0.5487 0.8816
H17 H 0.4203 0.5228 0.7383
N4 N 0.4264(3) 0.63548(11) 1.0059(4)
O1 O 0.41189(19) 0.57369(8) 0.5723(3)
O2 O 0.3504(2) 0.82979(9) 0.1927(3)
Cl1 Cl 0.08201(8) 0.75204(5) 0.81466(15)
Cl2 Cl 0.07621(7) 0.66858(4) 0.64644(14)
F1 F 0.3994(2) 0.98934(10) -0.1331(4)
C27 C 0.1096(3) 0.98496(12) 0.7179(4)
C28 C 0.1105(2) 0.94485(11) 0.7630(4)
C29 C 0.1270(2) 0.90642(11) 0.6756(4)
H18 H 0.0804 0.8860 0.6924
C30 C 0.1215(2) 0.92024(11) 0.5313(4)
C31 C 0.1138(3) 0.96190(12) 0.4962(4)
C32 C 0.1186(2) 0.90012(12) 0.4053(4)
C33 C 0.0980(2) 0.93994(12) 0.9045(4)
C34 C 0.2102(2) 0.88631(12) 0.7170(4)
C35 C 0.2856(3) 0.89405(12) 0.6492(4)
H19 H 0.2859 0.9115 0.5718
C36 C 0.3613(3) 0.87619(13) 0.6946(4)
C37 C 0.3622(3) 0.85127(13) 0.8082(5)
C38 C 0.2885(3) 0.84544(12) 0.8802(5)
H20 H 0.2894 0.8299 0.9619
C39 C 0.2130(3) 0.86203(12) 0.8341(4)
H21 H 0.1623 0.8568 0.8829
C40 C 0.1233(2) 0.85650(11) 0.3627(4)
C41 C 0.1262(3) 0.82386(12) 0.4565(4)
H22 H 0.1255 0.8299 0.5506
C42 C 0.1301(3) 0.78239(12) 0.4136(4)
H23 H 0.1324 0.7606 0.4783
C43 C 0.1307(3) 0.77332(12) 0.2763(4)
C44 C 0.1262(3) 0.80544(12) 0.1823(4)
H24 H 0.1253 0.7992 0.0883
C45 C 0.1230(3) 0.84631(12) 0.2246(4)
H25 H 0.1207 0.8679 0.1590
C46 C 0.1498(3) 0.70021(12) 0.3102(4)
H26 H 0.0986 0.6948 0.3654
H27 H 0.1972 0.7067 0.3722
C47 C 0.1710(2) 0.66238(12) 0.2262(4)
C48 C 0.1802(3) 0.62471(13) 0.2909(5)
H28 H 0.1704 0.6230 0.3856
C49 C 0.2036(3) 0.58917(14) 0.2200(5)
H29 H 0.2104 0.5633 0.2648
C50 C 0.2165(3) 0.59273(13) 0.0838(5)
C51 C 0.2064(3) 0.62930(14) 0.0157(5)
H30 H 0.2147 0.6307 -0.0794
C52 C 0.1835(3) 0.66442(14) 0.0893(5)
H31 H 0.1764 0.6902 0.0439
N5 N 0.1095(2) 0.93088(9) 0.3117(3)
H32 H 0.1002 0.9282 0.2226
N6 N 0.1058(2) 0.96957(10) 0.3661(3)
N7 N 0.1047(2) 1.01939(10) 0.7924(3)
H33 H 0.0943 1.0469 0.7485
H34 H 0.1000 1.0183 0.8934
N8 N 0.0873(2) 0.93716(11) 1.0192(4)
O3 O 0.1137(2) 0.99501(8) 0.5839(3)
O4 O 0.1350(2) 0.73441(8) 0.2218(3)
Cl3 Cl 0.45382(7) 0.88581(4) 0.60570(12)
Cl4 Cl 0.45369(8) 0.82664(4) 0.86097(14)
F2 F 0.2418(2) 0.55849(8) 0.0136(3)
C53 C 0.4252(8) 0.9995(3) 0.5314(10)
H35 H 0.4184 1.0265 0.5781
H36 H 0.4286 0.9776 0.6016
C54 C 0.3487(9) 0.9918(4) 0.4442(12)
H37 H 0.2976 0.9946 0.5015
H38 H 0.3509 0.9626 0.4124
C55 C 0.3378(8) 1.0201(4) 0.3195(13)
H39 H 0.3907 1.0198 0.2656
H40 H 0.2917 1.0091 0.2618
C56 C 0.3199(8) 1.0585(4) 0.3539(14)
H41 H 0.3135 1.0755 0.2722
H42 H 0.2670 1.0590 0.4058
H43 H 0.3659 1.0697 0.4096
O5 O 0.5000 1.0000 0.4588(9)
C53C C 0.5748(8) 1.0005(3) 0.5314(10)
H35C H 0.5816 0.9735 0.5781
H36C H 0.5714 1.0224 0.6016
C54C C 0.6513(9) 1.0082(4) 0.4442(12)
H37C H 0.7024 1.0054 0.5015
H38C H 0.6491 1.0374 0.4124
C55C C 0.6622(8) 0.9799(4) 0.3195(13)
H39C H 0.6093 0.9802 0.2656
H40C H 0.7083 0.9909 0.2618
C56C C 0.6801(8) 0.9415(4) 0.3539(14)
H41C H 0.6865 0.9245 0.2722
H42C H 0.7330 0.9410 0.4058
H43C H 0.6341 0.9303 0.4096
loop_
_geom_bond_atom_site_label_1
_geom_bond_atom_site_label_2
_geom_bond_site_symmetry_1
_geom_bond_site_symmetry_2
C1 C2 1_555 1_555
C2 C3 1_555 1_555
C3 H1 1_555 1_555
C4 C3 1_555 1_555
C5 C4 1_555 1_555
C6 C4 1_555 1_555
C7 C2 1_555 1_555
C8 C3 1_555 1_555
C9 C8 1_555 1_555
H2 C9 1_555 1_555
C10 C9 1_555 1_555
C11 C10 1_555 1_555
C12 C11 1_555 1_555
H3 C12 1_555 1_555
C13 C8 1_555 1_555
H4 C13 1_555 1_555
C14 C6 1_555 1_555
C15 C14 1_555 1_555
H5 C15 1_555 1_555
C16 C15 1_555 1_555
H6 C16 1_555 1_555
C17 C16 1_555 1_555
C18 C17 1_555 1_555
H7 C18 1_555 1_555
C19 C14 1_555 1_555
H8 C19 1_555 1_555
C20 H9 1_555 1_555
H10 C20 1_555 1_555
C21 C20 1_555 1_555
C22 C21 1_555 1_555
H11 C22 1_555 1_555
C23 C22 1_555 1_555
H12 C23 1_555 1_555
C24 C23 1_555 1_555
C25 C24 1_555 1_555
H13 C25 1_555 1_555
C26 C21 1_555 1_555
H14 C26 1_555 1_555
N1 C6 1_555 1_555
H15 N1 1_555 1_555
N2 C5 1_555 1_555
N3 C1 1_555 1_555
H16 N3 1_555 1_555
H17 N3 1_555 1_555
N4 C7 1_555 1_555
O1 C1 1_555 1_555
O2 C17 1_555 1_555
Cl1 C11 1_555 1_555
Cl2 C10 1_555 1_555
F1 C24 1_555 1_555
C27 C28 1_555 1_555
C28 C29 1_555 1_555
C29 H18 1_555 1_555
C30 C29 1_555 1_555
C31 C30 1_555 1_555
C32 C30 1_555 1_555
C33 C28 1_555 1_555
C34 C29 1_555 1_555
C35 C34 1_555 1_555
H19 C35 1_555 1_555
C36 C35 1_555 1_555
C37 C36 1_555 1_555
C38 C37 1_555 1_555
H20 C38 1_555 1_555
C39 C34 1_555 1_555
H21 C39 1_555 1_555
C40 C32 1_555 1_555
C41 C40 1_555 1_555
H22 C41 1_555 1_555
C42 C41 1_555 1_555
H23 C42 1_555 1_555
C43 C42 1_555 1_555
C44 C43 1_555 1_555
H24 C44 1_555 1_555
C45 C40 1_555 1_555
H25 C45 1_555 1_555
C46 H26 1_555 1_555
H27 C46 1_555 1_555
C47 C46 1_555 1_555
C48 C47 1_555 1_555
H28 C48 1_555 1_555
C49 C48 1_555 1_555
H29 C49 1_555 1_555
C50 C49 1_555 1_555
C51 C50 1_555 1_555
H30 C51 1_555 1_555
C52 C47 1_555 1_555
H31 C52 1_555 1_555
N5 C32 1_555 1_555
H32 N5 1_555 1_555
N6 C31 1_555 1_555
N7 C27 1_555 1_555
H33 N7 1_555 1_555
H34 N7 1_555 1_555
N8 C33 1_555 1_555
O3 C27 1_555 1_555
O4 C43 1_555 1_555
Cl3 C36 1_555 1_555
Cl4 C37 1_555 1_555
F2 C50 1_555 1_555
C53 H35 1_555 1_555
H36 C53 1_555 1_555
C54 C53 1_555 1_555
H37 C54 1_555 1_555
H38 C54 1_555 1_555
C55 C54 1_555 1_555
H39 C55 1_555 1_555
H40 C55 1_555 1_555
C56 C55 1_555 1_555
H41 C56 1_555 1_555
H42 C56 1_555 1_555
H43 C56 1_555 1_555
O5 C53 1_555 1_555
C53C O5 1_555 1_555
H35C C53C 1_555 1_555
H36C C53C 1_555 1_555
C54C C53C 1_555 1_555
H37C C54C 1_555 1_555
H38C C54C 1_555 1_555
C55C C54C 1_555 1_555
H39C C55C 1_555 1_555
H40C C55C 1_555 1_555
C56C C55C 1_555 1_555
H41C C56C 1_555 1_555
H42C C56C 1_555 1_555
H43C C56C 1_555 1_555
C5 O1 1_555 1_555
C12 C13 1_555 1_555
C18 C19 1_555 1_555
C20 O2 1_555 1_555
C25 C26 1_555 1_555
N1 N2 1_555 1_555
C31 O3 1_555 1_555
C38 C39 1_555 1_555
C44 C45 1_555 1_555
C46 O4 1_555 1_555
C51 C52 1_555 1_555
N5 N6 1_555 1_555

#END
