
#######################################################################
#
#                 Cambridge Crystallographic Data Centre
#                                CCDC 
#
#######################################################################
#
# If this CIF has been generated from an entry in the Cambridge 
# Structural Database, then it will include bibliographic, chemical, 
# crystal, experimental, refinement or atomic coordinate data resulting 
# from the CCDC's data processing and validation procedures.
#
#######################################################################

data_FAYJIA
_chemical_name_common            
'1,3,9(1,3),7(3,1)-Tetraimidazola-2,8(2,6)-dipyridina-5,11(1,4)-dibenzenacyclododecaphane-1$3!,3$3!,7$3!,9$3!-tetra-ium tetrachloride hexahydrate'
_chemical_formula_moiety         'C38 H34 N10 4+,4(Cl1 1-),6(H2 O1)'
_chemical_name_systematic        
'6,12,25,31,42,47-Hexaaza-3,15,22,34-tetraazonianonacyclo[34.2.2.2^17,20^.1^3,6^.1^7,11^.1^12,15^.1^22,25^.1^26,30^.1^31,34^]octatetraconta-1(38),3(48),4,7(47),8,10,13,15(46),17,19,22(43),23,26(42),27,29,32,34(41),36,39,44-icosaene tetrachloride hexahydrate'
_symmetry_cell_setting           triclinic
_symmetry_space_group_name_H-M   'P -1'
_symmetry_Int_Tables_number      2
_space_group_name_Hall           '-P 1'
loop_
_symmetry_equiv_pos_site_id
_symmetry_equiv_pos_as_xyz
1 x,y,z
2 -x,-y,-z
_cell_length_a                   9.2009(18)
_cell_length_b                   10.658(2)
_cell_length_c                   11.824(2)
_cell_angle_alpha                77.78(3)
_cell_angle_beta                 76.20(3)
_cell_angle_gamma                67.68(3)
_cell_volume                     1032.16
_exptl_crystal_colour            colorless
_exptl_crystal_description       block
_cell_formula_units_Z            1
_exptl_crystal_recrystallization_method 
acetonitrile/N,N-dimethylformamide/water
loop_
_atom_site_label
_atom_site_type_symbol
_atom_site_fract_x
_atom_site_fract_y
_atom_site_fract_z
Cl1 Cl 0.57393(18) 0.53781(14) 0.22275(12)
Cl2 Cl 0.98978(18) 0.11110(15) 0.27993(12)
N1 N 0.5824(5) -0.1788(4) 0.7424(3)
N2 N 0.6416(4) -0.1659(4) 0.9034(3)
N3 N 0.7188(5) 0.0012(4) 0.9409(3)
N4 N 0.8079(4) 0.1725(4) 0.9538(3)
N5 N 0.8532(5) 0.3272(4) 0.8145(3)
C1 C 0.5536(6) -0.1448(5) 0.6191(4)
H1 H 0.5196 -0.0464 0.5970
H2 H 0.4684 -0.1747 0.6139
C2 C 0.6308(5) -0.1062(5) 0.7933(4)
H3 H 0.6533 -0.0273 0.7583
C3 C 0.5648(6) -0.2912(5) 0.8209(4)
H4 H 0.5346 -0.3593 0.8062
C4 C 0.6002(6) -0.2826(5) 0.9229(4)
H5 H 0.5974 -0.3427 0.9924
C5 C 0.6886(5) -0.1131(4) 0.9860(4)
C6 C 0.6985(6) -0.1760(5) 1.0997(4)
H6 H 0.6744 -0.2554 1.1279
C7 C 0.7465(6) -0.1151(5) 1.1700(4)
H7 H 0.7514 -0.1524 1.2482
C8 C 0.7864(5) -0.0012(5) 1.1255(4)
H8 H 0.8231 0.0383 1.1706
C9 C 0.7697(5) 0.0529(4) 1.0104(4)
C10 C 0.8077(6) 0.2188(5) 0.8393(4)
H9 H 0.7804 0.1815 0.7865
C11 C 0.8545(6) 0.2548(5) 1.0032(4)
H10 H 0.8649 0.2445 1.0812
C12 C 0.8818(6) 0.3523(5) 0.9170(4)
H11 H 0.9137 0.4228 0.9243
C13 C 0.8687(6) 0.4084(5) 0.6966(4)
H12 H 0.8663 0.4977 0.7052
H13 H 0.7783 0.4220 0.6609
C14 C 1.0208(6) 0.3395(5) 0.6170(4)
C15 C 1.0362(7) 0.2239(5) 0.5702(4)
H14 H 0.9531 0.1895 0.5887
C16 C 1.1746(6) 0.1614(5) 0.4968(4)
H15 H 1.1853 0.0834 0.4674
C17 C 1.2978(6) 0.2125(5) 0.4660(4)
C18 C 1.2830(6) 0.3273(5) 0.5125(4)
H16 H 1.3657 0.3622 0.4931
C19 C 1.1452(6) 0.3891(5) 0.5874(4)
H17 H 1.1361 0.4654 0.6186
N1A N 1.4176(5) 0.1788(4) 0.2576(3)
N2A N 1.3584(4) 0.1659(4) 0.0966(3)
N3A N 1.2812(5) -0.0012(4) 0.0591(3)
N4A N 1.1921(4) -0.1725(4) 0.0462(3)
N5A N 1.1468(5) -0.3272(4) 0.1855(3)
C1A C 1.4464(6) 0.1448(5) 0.3809(4)
H1A H 1.4804 0.0464 0.4030
H2A H 1.5316 0.1747 0.3861
C2A C 1.3692(5) 0.1062(5) 0.2067(4)
H3A H 1.3467 0.0273 0.2417
C3A C 1.4352(6) 0.2912(5) 0.1791(4)
H4A H 1.4654 0.3593 0.1938
C4A C 1.3998(6) 0.2826(5) 0.0771(4)
H5A H 1.4026 0.3427 0.0076
C5A C 1.3114(5) 0.1131(4) 0.0140(4)
C6A C 1.3015(6) 0.1760(5) -0.0997(4)
H6A H 1.3256 0.2554 -0.1279
C7A C 1.2535(6) 0.1151(5) -0.1700(4)
H7A H 1.2486 0.1524 -0.2482
C8A C 1.2136(5) 0.0012(5) -0.1255(4)
H8A H 1.1769 -0.0383 -0.1706
C9A C 1.2303(5) -0.0529(4) -0.0104(4)
C10A C 1.1923(6) -0.2188(5) 0.1607(4)
H9A H 1.2196 -0.1815 0.2135
C11A C 1.1455(6) -0.2548(5) -0.0032(4)
H10A H 1.1351 -0.2445 -0.0812
C12A C 1.1182(6) -0.3523(5) 0.0830(4)
H11A H 1.0863 -0.4228 0.0757
C13A C 1.1313(6) -0.4084(5) 0.3034(4)
H12A H 1.1337 -0.4977 0.2948
H13A H 1.2217 -0.4220 0.3391
C14A C 0.9792(6) -0.3395(5) 0.3830(4)
C15A C 0.9638(7) -0.2239(5) 0.4298(4)
H14A H 1.0469 -0.1895 0.4113
C16A C 0.8254(6) -0.1614(5) 0.5032(4)
H15A H 0.8147 -0.0834 0.5326
C17A C 0.7022(6) -0.2125(5) 0.5340(4)
C18A C 0.7170(6) -0.3273(5) 0.4875(4)
H16A H 0.6343 -0.3622 0.5069
C19A C 0.8548(6) -0.3891(5) 0.4126(4)
H17A H 0.8639 -0.4654 0.3814
O1 O 0.7029(5) 0.3005(5) 0.4302(4)
O2 O 0.9686(5) 0.4115(4) 0.1708(4)
O3 O 0.6105(5) 0.1892(4) 0.6562(3)
loop_
_geom_bond_atom_site_label_1
_geom_bond_atom_site_label_2
_geom_bond_site_symmetry_1
_geom_bond_site_symmetry_2
N1 C1 1_555 1_555
N2 C2 1_555 1_555
N3 C5 1_555 1_555
N4 C9 1_555 1_555
N5 C10 1_555 1_555
C1 H1 1_555 1_555
H2 C1 1_555 1_555
C2 N1 1_555 1_555
H3 C2 1_555 1_555
C3 N1 1_555 1_555
H4 C3 1_555 1_555
C4 N2 1_555 1_555
H5 C4 1_555 1_555
C5 N2 1_555 1_555
C6 C5 1_555 1_555
H6 C6 1_555 1_555
C7 C6 1_555 1_555
H7 C7 1_555 1_555
C8 C7 1_555 1_555
H8 C8 1_555 1_555
C9 N3 1_555 1_555
C10 N4 1_555 1_555
H9 C10 1_555 1_555
C11 N4 1_555 1_555
H10 C11 1_555 1_555
C12 N5 1_555 1_555
H11 C12 1_555 1_555
C13 N5 1_555 1_555
H12 C13 1_555 1_555
H13 C13 1_555 1_555
C14 C13 1_555 1_555
C15 C14 1_555 1_555
H14 C15 1_555 1_555
C16 C15 1_555 1_555
H15 C16 1_555 1_555
C17 C16 1_555 1_555
C18 C17 1_555 1_555
H16 C18 1_555 1_555
C19 C14 1_555 1_555
H17 C19 1_555 1_555
N1A C1A 1_555 1_555
N2A C2A 1_555 1_555
N3A C5A 1_555 1_555
N4A C9A 1_555 1_555
N5A C10A 1_555 1_555
C1A C17 1_555 1_555
H1A C1A 1_555 1_555
H2A C1A 1_555 1_555
C2A N1A 1_555 1_555
H3A C2A 1_555 1_555
C3A N1A 1_555 1_555
H4A C3A 1_555 1_555
C4A N2A 1_555 1_555
H5A C4A 1_555 1_555
C5A N2A 1_555 1_555
C6A C5A 1_555 1_555
H6A C6A 1_555 1_555
C7A C6A 1_555 1_555
H7A C7A 1_555 1_555
C8A C7A 1_555 1_555
H8A C8A 1_555 1_555
C9A N3A 1_555 1_555
C10A N4A 1_555 1_555
H9A C10A 1_555 1_555
C11A N4A 1_555 1_555
H10A C11A 1_555 1_555
C12A N5A 1_555 1_555
H11A C12A 1_555 1_555
C13A N5A 1_555 1_555
H12A C13A 1_555 1_555
H13A C13A 1_555 1_555
C14A C13A 1_555 1_555
C15A C14A 1_555 1_555
H14A C15A 1_555 1_555
C16A C15A 1_555 1_555
H15A C16A 1_555 1_555
C17A C1 1_555 1_555
C18A C17A 1_555 1_555
H16A C18A 1_555 1_555
C19A C14A 1_555 1_555
H17A C19A 1_555 1_555
C3 C4 1_555 1_555
C8 C9 1_555 1_555
C11 C12 1_555 1_555
C18 C19 1_555 1_555
C3A C4A 1_555 1_555
C8A C9A 1_555 1_555
C11A C12A 1_555 1_555
C16A C17A 1_555 1_555
C18A C19A 1_555 1_555

#END
