
#######################################################################
#
#                 Cambridge Crystallographic Data Centre
#                                CCDC 
#
#######################################################################
#
# If this CIF has been generated from an entry in the Cambridge 
# Structural Database, then it will include bibliographic, chemical, 
# crystal, experimental, refinement or atomic coordinate data resulting 
# from the CCDC's data processing and validation procedures.
#
#######################################################################

data_FAYJEW
_chemical_name_common            
'1,3,9(1,3),7(3,1)-Tetraimidazola-2,8(2,6)-dipyridina-5,11(1,4)-dibenzenacyclododecaphane-1$3!,3$3!,7$3!,9$3!-tetra-ium naphthalene-2,6-dicarboxylate dinitrate N,N-dimethylformamide solvate trihydrate'
_chemical_formula_moiety         
'C38 H34 N10 4+,C12 H6 O4 2-,2(N1 O3 1-),2(C3 H7 N1 O1),3(H2 O1)'
_chemical_name_systematic        
'6,12,25,31,42,47-Hexaaza-3,15,22,34-tetraazonianonacyclo[34.2.2.2^17,20^.1^3,6^.1^7,11^.1^12,15^.1^22,25^.1^26,30^.1^31,34^]octatetraconta-1(38),3(48),4,7(47),8,10,13,15(46),17,19,22(43),23,26(42),27,29,32,34(41),36,39,44-icosaene naphthalene-2,6-dicarboxylate dinitrate N,N-dimethylformamide solvate trihydrate'
_symmetry_cell_setting           monoclinic
_symmetry_space_group_name_H-M   'P 2/c'
_symmetry_Int_Tables_number      13
_space_group_name_Hall           '-P 2yc'
loop_
_symmetry_equiv_pos_site_id
_symmetry_equiv_pos_as_xyz
1 x,y,z
2 -x,y,1/2-z
3 -x,-y,-z
4 x,-y,1/2+z
_cell_length_a                   15.311(3)
_cell_length_b                   9.3941(19)
_cell_length_c                   19.045(4)
_cell_angle_alpha                90
_cell_angle_beta                 90.11(3)
_cell_angle_gamma                90
_cell_volume                     2739.3
_exptl_crystal_colour            colorless
_exptl_crystal_description       plate
_cell_formula_units_Z            2
_exptl_crystal_recrystallization_method acetonitrile/water
loop_
_atom_site_label
_atom_site_type_symbol
_atom_site_fract_x
_atom_site_fract_y
_atom_site_fract_z
N1 N -0.2713(3) 0.7983(5) 0.4483(3)
N2 N -0.3259(3) 0.7327(5) 0.5480(2)
N3 N -0.3146(3) 0.5118(5) 0.5999(3)
N4 N -0.2914(3) 0.2838(5) 0.6450(3)
N5 N -0.2065(3) 0.1190(5) 0.6055(2)
C1 C -0.2781(4) 0.6903(6) 0.4927(3)
H1 H -0.2538 0.6004 0.4867
C2 C -0.3170(4) 0.9131(7) 0.4747(3)
H2 H -0.3232 1.0018 0.4536
C3 C -0.3510(4) 0.8730(6) 0.5368(3)
H3 H -0.3849 0.9287 0.5666
C4 C -0.3431(4) 0.6436(7) 0.6072(3)
C5 C -0.3842(4) 0.6964(7) 0.6666(3)
H4 H -0.4031 0.7904 0.6693
C6 C -0.3957(4) 0.6029(7) 0.7211(3)
H5 H -0.4220 0.6346 0.7622
C7 C -0.3686(4) 0.4617(7) 0.7163(3)
H6 H -0.3777 0.3969 0.7525
C8 C -0.3275(4) 0.4235(7) 0.6546(3)
C9 C -0.2351(4) 0.2513(6) 0.5937(3)
H7 H -0.2189 0.3101 0.5567
C10 C -0.2984(4) 0.1688(7) 0.6906(3)
H8 H -0.3331 0.1636 0.7305
C11 C -0.2456(4) 0.0669(7) 0.6660(3)
H9 H -0.2368 -0.0225 0.6858
C12 C -0.1399(4) 0.0442(7) 0.5615(3)
H10 H -0.1459 -0.0577 0.5682
H11 H -0.1513 0.0647 0.5124
C13 C -0.0482(4) 0.0872(6) 0.5788(3)
C14 C 0.0010(5) 0.0164(7) 0.6275(4)
H12 H -0.0237 -0.0587 0.6523
C15 C 0.0867(5) 0.0542(7) 0.6406(4)
H13 H 0.1186 0.0045 0.6742
C16 C 0.1257(4) 0.1655(6) 0.6043(3)
C17 C 0.0753(4) 0.2383(7) 0.5559(4)
H14 H 0.0994 0.3154 0.5322
C18 C -0.0105(4) 0.1991(7) 0.5417(3)
H15 H -0.0425 0.2473 0.5077
C19 C -0.2199(4) 0.7945(6) 0.3823(3)
H16 H -0.2224 0.6996 0.3623
H17 H -0.2451 0.8602 0.3486
N1B N 0.2713(3) 0.2017(5) 0.5517(3)
N2B N 0.3259(3) 0.2673(5) 0.4520(2)
N3B N 0.3146(3) 0.4882(5) 0.4001(3)
N4B N 0.2914(3) 0.7162(5) 0.3550(3)
N5B N 0.2065(3) 0.8810(5) 0.3945(2)
C1B C 0.2781(4) 0.3097(6) 0.5073(3)
H1B H 0.2538 0.3996 0.5133
C2B C 0.3170(4) 0.0869(7) 0.5253(3)
H2B H 0.3232 -0.0018 0.5464
C3B C 0.3510(4) 0.1270(6) 0.4632(3)
H3B H 0.3849 0.0713 0.4334
C4B C 0.3431(4) 0.3564(7) 0.3928(3)
C5B C 0.3842(4) 0.3036(7) 0.3334(3)
H4B H 0.4031 0.2096 0.3307
C6B C 0.3957(4) 0.3971(7) 0.2789(3)
H5B H 0.4220 0.3654 0.2378
C7B C 0.3686(4) 0.5383(7) 0.2837(3)
H6B H 0.3777 0.6031 0.2475
C8B C 0.3275(4) 0.5765(7) 0.3454(3)
C9B C 0.2351(4) 0.7487(6) 0.4063(3)
H7B H 0.2189 0.6899 0.4433
C10B C 0.2984(4) 0.8312(7) 0.3094(3)
H8B H 0.3331 0.8364 0.2695
C11B C 0.2456(4) 0.9331(7) 0.3340(3)
H9B H 0.2368 1.0225 0.3142
C12B C 0.1399(4) 0.9558(7) 0.4385(3)
H10B H 0.1459 1.0577 0.4318
H11B H 0.1513 0.9353 0.4876
C13B C 0.0482(4) 0.9128(6) 0.4212(3)
C14B C -0.0010(5) 0.9836(7) 0.3725(4)
H12B H 0.0237 1.0587 0.3477
C15B C -0.0867(5) 0.9458(7) 0.3594(4)
H13B H -0.1186 0.9955 0.3258
C16B C -0.1257(4) 0.8345(6) 0.3957(3)
C17B C -0.0753(4) 0.7617(7) 0.4441(4)
H14B H -0.0994 0.6846 0.4678
C18B C 0.0105(4) 0.8009(7) 0.4583(3)
H15B H 0.0425 0.7527 0.4923
C19B C 0.2199(4) 0.2055(6) 0.6177(3)
H16B H 0.2224 0.3004 0.6377
H17B H 0.2451 0.1398 0.6514
N6 N 0.2144(4) 0.6439(6) 0.5838(3)
O1 O 0.1676(3) 0.5804(4) 0.5385(2)
O3 O 0.2507(3) 0.5766(5) 0.6324(2)
O5 O 0.2273(3) 0.7773(4) 0.5777(2)
N7 N 0.1146(4) 0.4555(6) 0.3084(3)
C26 C 0.1569(5) 0.3360(9) 0.3008(4)
H21 H 0.1910 0.3251 0.2608
C27 C 0.0609(6) 0.4734(10) 0.3709(4)
H22 H 0.0627 0.3879 0.3985
H23 H 0.0017 0.4927 0.3572
H24 H 0.0829 0.5515 0.3983
C28 C 0.1217(5) 0.5732(7) 0.2583(4)
H25 H 0.1593 0.5457 0.2203
H26 H 0.1458 0.6550 0.2816
H27 H 0.0649 0.5960 0.2402
O8 O 0.1548(4) 0.2357(5) 0.3434(3)
C20 C 0.4719(5) 0.1663(10) 0.6315(4)
C21 C 0.4572(4) 0.4109(9) 0.5806(4)
H18 H 0.4213 0.4334 0.6184
C22 C 0.4922(4) 0.2770(9) 0.5768(4)
C23 C 0.5442(4) 0.2438(9) 0.5172(4)
H19 H 0.5675 0.1528 0.5129
C24 C 0.5609(4) 0.3427(8) 0.4661(4)
H20 H 0.5952 0.3178 0.4277
C25 C 0.4736(4) 0.5167(9) 0.5290(4)
O6 O 0.5152(3) 0.0494(6) 0.6282(2)
O7 O 0.4139(3) 0.1950(6) 0.6760(2)
C20B C 0.5281(5) 0.8337(10) 0.3685(4)
C21B C 0.5428(4) 0.5891(9) 0.4194(4)
H18B H 0.5787 0.5666 0.3816
C22B C 0.5078(4) 0.7230(9) 0.4232(4)
C23B C 0.4558(4) 0.7562(9) 0.4828(4)
H19B H 0.4325 0.8472 0.4871
C24B C 0.4391(4) 0.6573(8) 0.5339(4)
H20B H 0.4048 0.6822 0.5723
C25B C 0.5264(4) 0.4833(9) 0.4710(4)
O6B O 0.4848(3) 0.9506(6) 0.3718(2)
O7B O 0.5861(3) 0.8050(6) 0.3240(2)
O4 O 0.2984(3) 0.9076(4) 0.7009(2)
O2? O 0.4720(5) 0.0909(8) 0.2336(4)
loop_
_geom_bond_atom_site_label_1
_geom_bond_atom_site_label_2
_geom_bond_site_symmetry_1
_geom_bond_site_symmetry_2
N1 C1 1_555 1_555
N2 C1 1_555 1_555
N3 C4 1_555 1_555
N4 C8 1_555 1_555
N5 C9 1_555 1_555
N6 O1 1_555 1_555
N7 C26 1_555 1_555
C1 H1 1_555 1_555
C2 N1 1_555 1_555
H2 C2 1_555 1_555
C3 N2 1_555 1_555
H3 C3 1_555 1_555
C4 N2 1_555 1_555
C5 C4 1_555 1_555
H4 C5 1_555 1_555
C6 C5 1_555 1_555
H5 C6 1_555 1_555
C7 C6 1_555 1_555
H6 C7 1_555 1_555
C8 N3 1_555 1_555
C9 N4 1_555 1_555
H7 C9 1_555 1_555
C10 N4 1_555 1_555
H8 C10 1_555 1_555
C11 N5 1_555 1_555
H9 C11 1_555 1_555
C12 N5 1_555 1_555
H10 C12 1_555 1_555
H11 C12 1_555 1_555
C13 C12 1_555 1_555
C14 C13 1_555 1_555
H12 C14 1_555 1_555
C15 C14 1_555 1_555
H13 C15 1_555 1_555
C16 C15 1_555 1_555
C17 C16 1_555 1_555
H14 C17 1_555 1_555
C18 C13 1_555 1_555
H15 C18 1_555 1_555
C19 N1 1_555 1_555
H16 C19 1_555 1_555
H17 C19 1_555 1_555
C20 C22 1_555 1_555
C21 H18 1_555 1_555
C22 C21 1_555 1_555
C23 C22 1_555 1_555
H19 C23 1_555 1_555
C24 C23 1_555 1_555
H20 C24 1_555 1_555
C25 C21 1_555 1_555
C26 H21 1_555 1_555
C27 N7 1_555 1_555
H22 C27 1_555 1_555
H23 C27 1_555 1_555
H24 C27 1_555 1_555
C28 N7 1_555 1_555
H25 C28 1_555 1_555
H26 C28 1_555 1_555
H27 C28 1_555 1_555
O3 N6 1_555 1_555
O5 N6 1_555 1_555
O6 C20 1_555 1_555
O7 C20 1_555 1_555
O8 C26 1_555 1_555
N1B C1B 1_555 1_555
N2B C1B 1_555 1_555
N3B C4B 1_555 1_555
N4B C8B 1_555 1_555
N5B C9B 1_555 1_555
C1B H1B 1_555 1_555
C2B N1B 1_555 1_555
H2B C2B 1_555 1_555
C3B N2B 1_555 1_555
H3B C3B 1_555 1_555
C4B N2B 1_555 1_555
C5B C4B 1_555 1_555
H4B C5B 1_555 1_555
C6B C5B 1_555 1_555
H5B C6B 1_555 1_555
C7B C6B 1_555 1_555
H6B C7B 1_555 1_555
C8B N3B 1_555 1_555
C9B N4B 1_555 1_555
H7B C9B 1_555 1_555
C10B N4B 1_555 1_555
H8B C10B 1_555 1_555
C11B N5B 1_555 1_555
H9B C11B 1_555 1_555
C12B N5B 1_555 1_555
H10B C12B 1_555 1_555
H11B C12B 1_555 1_555
C13B C12B 1_555 1_555
C14B C13B 1_555 1_555
H12B C14B 1_555 1_555
C15B C14B 1_555 1_555
H13B C15B 1_555 1_555
C16B C19 1_555 1_555
C17B C16B 1_555 1_555
H14B C17B 1_555 1_555
C18B C13B 1_555 1_555
H15B C18B 1_555 1_555
C19B C16 1_555 1_555
H16B C19B 1_555 1_555
H17B C19B 1_555 1_555
C20B C22B 1_555 1_555
C21B H18B 1_555 1_555
C22B C21B 1_555 1_555
C23B C22B 1_555 1_555
H19B C23B 1_555 1_555
C24B C25 1_555 1_555
H20B C24B 1_555 1_555
C25B C24 1_555 1_555
O6B C20B 1_555 1_555
O7B C20B 1_555 1_555
C2 C3 1_555 1_555
C7 C8 1_555 1_555
C10 C11 1_555 1_555
C17 C18 1_555 1_555
C25 C25B 1_555 1_555
N1B C19B 1_555 1_555
C2B C3B 1_555 1_555
C7B C8B 1_555 1_555
C10B C11B 1_555 1_555
C15B C16B 1_555 1_555
C17B C18B 1_555 1_555
C21B C25B 1_555 1_555
C23B C24B 1_555 1_555

#END
