
#######################################################################
#
#                 Cambridge Crystallographic Data Centre
#                                CCDC 
#
#######################################################################
#
# If this CIF has been generated from an entry in the Cambridge 
# Structural Database, then it will include bibliographic, chemical, 
# crystal, experimental, refinement or atomic coordinate data resulting 
# from the CCDC's data processing and validation procedures.
#
#######################################################################

data_FAYWEJ
_chemical_formula_moiety         'C17 H16 O2'
_chemical_name_systematic        
5a-Methyl-11a,12-dihydro-5aH,11H-chromeno[2,3-b]chromene
_symmetry_cell_setting           monoclinic
_symmetry_space_group_name_H-M   'P 21/c'
_symmetry_Int_Tables_number      14
_space_group_name_Hall           '-P 2ybc'
loop_
_symmetry_equiv_pos_site_id
_symmetry_equiv_pos_as_xyz
1 x,y,z
2 -x,1/2+y,1/2-z
3 -x,-y,-z
4 x,1/2-y,1/2+z
_cell_length_a                   8.5424(11)
_cell_length_b                   14.963(2)
_cell_length_c                   10.6477(14)
_cell_angle_alpha                90
_cell_angle_beta                 109.882(2)
_cell_angle_gamma                90
_cell_volume                     1279.87
_exptl_crystal_colour            colorless
_exptl_crystal_description       block
_cell_formula_units_Z            4
loop_
_atom_site_label
_atom_site_type_symbol
_atom_site_fract_x
_atom_site_fract_y
_atom_site_fract_z
O1 O 0.83265(9) 0.04029(5) 0.34675(8)
O2 O 0.67005(9) 0.16213(5) 0.28606(7)
C1 C 0.96359(13) 0.06056(8) 0.30299(11)
C2 C 0.99614(14) -0.00210(8) 0.21875(12)
H1 H 0.9277 -0.0535 0.1917
C3 C 1.12973(15) 0.01115(9) 0.17437(12)
H2 H 1.1531 -0.0314 0.1169
C4 C 1.22891(15) 0.08649(10) 0.21395(13)
H3 H 1.3209 0.0954 0.1844
C5 C 1.19346(14) 0.14878(9) 0.29676(12)
H4 H 1.2618 0.2003 0.3232
C6 C 1.05939(13) 0.13748(8) 0.34230(11)
C7 C 1.01306(14) 0.20701(8) 0.42533(12)
H5 H 0.9560 0.2572 0.3671
H6 H 1.1156 0.2308 0.4926
C8 C 0.89941(13) 0.16950(7) 0.49646(11)
H7 H 0.9677 0.1325 0.5739
C9 C 0.81457(14) 0.24407(8) 0.54837(11)
H8 H 0.7725 0.2195 0.6172
H9 H 0.8970 0.2912 0.5906
C10 C 0.67163(13) 0.28452(7) 0.43669(11)
C11 C 0.59779(15) 0.36503(8) 0.45335(12)
H10 H 0.6373 0.3946 0.5372
C12 C 0.46824(15) 0.40249(8) 0.35019(13)
H11 H 0.4187 0.4568 0.3639
C13 C 0.41082(14) 0.36038(8) 0.22643(12)
H12 H 0.3231 0.3864 0.1551
C14 C 0.48148(14) 0.28066(8) 0.20725(11)
H13 H 0.4432 0.2520 0.1226
C15 C 0.60899(13) 0.24256(7) 0.31265(11)
C16 C 0.76555(13) 0.11049(7) 0.40165(11)
C17 C 0.64990(14) 0.06654(8) 0.46378(12)
H14 H 0.5704 0.0284 0.3974
H15 H 0.5894 0.1127 0.4940
H16 H 0.7151 0.0301 0.5402
loop_
_geom_bond_atom_site_label_1
_geom_bond_atom_site_label_2
_geom_bond_site_symmetry_1
_geom_bond_site_symmetry_2
O1 C1 1_555 1_555
O2 C15 1_555 1_555
C1 C2 1_555 1_555
C2 H1 1_555 1_555
C3 C2 1_555 1_555
H2 C3 1_555 1_555
C4 C3 1_555 1_555
H3 C4 1_555 1_555
C5 C4 1_555 1_555
H4 C5 1_555 1_555
C6 C1 1_555 1_555
C7 C6 1_555 1_555
H5 C7 1_555 1_555
H6 C7 1_555 1_555
C8 C7 1_555 1_555
H7 C8 1_555 1_555
C9 C8 1_555 1_555
H8 C9 1_555 1_555
H9 C9 1_555 1_555
C10 C9 1_555 1_555
C11 C10 1_555 1_555
H10 C11 1_555 1_555
C12 C11 1_555 1_555
H11 C12 1_555 1_555
C13 C12 1_555 1_555
H12 C13 1_555 1_555
C14 C13 1_555 1_555
H13 C14 1_555 1_555
C15 C10 1_555 1_555
C16 O1 1_555 1_555
C17 C16 1_555 1_555
H14 C17 1_555 1_555
H15 C17 1_555 1_555
H16 C17 1_555 1_555
O2 C16 1_555 1_555
C5 C6 1_555 1_555
C8 C16 1_555 1_555
C14 C15 1_555 1_555

#END
