
#######################################################################
#
#                 Cambridge Crystallographic Data Centre
#                                CCDC 
#
#######################################################################
#
# If this CIF has been generated from an entry in the Cambridge 
# Structural Database, then it will include bibliographic, chemical, 
# crystal, experimental, refinement or atomic coordinate data resulting 
# from the CCDC's data processing and validation procedures.
#
#######################################################################

data_FAYWIN
_chemical_formula_moiety         'C19 H20 O2'
_chemical_name_systematic        
3,3'-Dimethyl-3,3',4,4'-tetrahydro-2,2'-spirobi[chromene]
_symmetry_cell_setting           rhombohedral
_symmetry_space_group_name_H-M   'R -3'
_symmetry_Int_Tables_number      148
_space_group_name_Hall           '-R 3'
loop_
_symmetry_equiv_pos_site_id
_symmetry_equiv_pos_as_xyz
1 x,y,z
2 -y,x-y,z
3 -x+y,-x,z
4 2/3+x,1/3+y,1/3+z
5 2/3-y,1/3+x-y,1/3+z
6 2/3-x+y,1/3-x,1/3+z
7 1/3+x,2/3+y,2/3+z
8 1/3-y,2/3+x-y,2/3+z
9 1/3-x+y,2/3-x,2/3+z
10 -x,-y,-z
11 y,-x+y,-z
12 x-y,x,-z
13 1/3-x,2/3-y,2/3-z
14 1/3+y,2/3-x+y,2/3-z
15 1/3+x-y,2/3+x,2/3-z
16 2/3-x,1/3-y,1/3-z
17 2/3+y,1/3-x+y,1/3-z
18 2/3+x-y,1/3+x,1/3-z
_cell_length_a                   31.4581(18)
_cell_length_b                   31.4581(18)
_cell_length_c                   8.0818(6)
_cell_angle_alpha                90
_cell_angle_beta                 90
_cell_angle_gamma                120
_cell_volume                     6926.34
_exptl_crystal_colour            colorless
_exptl_crystal_description       prismatic
_cell_formula_units_Z            18
loop_
_atom_site_label
_atom_site_type_symbol
_atom_site_fract_x
_atom_site_fract_y
_atom_site_fract_z
O1 O 0.50934(4) 0.09677(3) 0.41908(12)
O2 O 0.54082(3) 0.10805(3) 0.15206(12)
C1 C 0.53580(5) 0.14297(5) 0.48784(19)
C2 C 0.55320(5) 0.14454(6) 0.64628(19)
H1 H 0.5470 0.1157 0.6990
C3 C 0.57974(6) 0.18889(8) 0.7252(2)
H2 H 0.5915 0.1901 0.8318
C4 C 0.58899(6) 0.23145(7) 0.6467(3)
H3 H 0.6074 0.2615 0.6995
C5 C 0.57096(6) 0.22947(6) 0.4896(2)
H4 H 0.5772 0.2584 0.4377
C6 C 0.54368(5) 0.18500(6) 0.4071(2)
C7 C 0.52198(6) 0.18140(6) 0.2385(2)
H5 H 0.5474 0.1910 0.1555
H6 H 0.5095 0.2040 0.2318
C8 C 0.48061(6) 0.12960(5) 0.20210(19)
H7 H 0.4530 0.1231 0.2745
C9 C 0.49718(5) 0.09323(5) 0.24688(17)
C10 C 0.46095(5) 0.03919(5) 0.21648(19)
H8 H 0.4559 0.0348 0.0966
C11 C 0.48339(6) 0.00867(6) 0.2719(2)
H9 H 0.4827 0.0069 0.3918
H10 H 0.4638 -0.0244 0.2293
C12 C 0.53535(6) 0.02989(6) 0.21286(19)
C13 C 0.55963(7) 0.00343(6) 0.2130(2)
H11 H 0.5442 -0.0280 0.2578
C14 C 0.60606(8) 0.02254(8) 0.1484(2)
H12 H 0.6219 0.0043 0.1512
C15 C 0.62916(6) 0.06884(8) 0.0795(2)
H13 H 0.6601 0.0813 0.0323
C16 C 0.60636(6) 0.09665(6) 0.0805(2)
H14 H 0.6218 0.1279 0.0346
C17 C 0.56030(6) 0.07732(6) 0.15090(18)
C18 C 0.46285(6) 0.12461(7) 0.0234(2)
H15 H 0.4533 0.1487 0.0018
H16 H 0.4352 0.0924 0.0067
H17 H 0.4889 0.1296 -0.0505
C19 C 0.41074(6) 0.02099(6) 0.2951(2)
H18 H 0.3898 -0.0132 0.2700
H19 H 0.3964 0.0394 0.2520
H20 H 0.4143 0.0253 0.4129
loop_
_geom_bond_atom_site_label_1
_geom_bond_atom_site_label_2
_geom_bond_site_symmetry_1
_geom_bond_site_symmetry_2
O1 C1 1_555 1_555
O2 C9 1_555 1_555
C1 C2 1_555 1_555
C2 H1 1_555 1_555
C3 C2 1_555 1_555
H2 C3 1_555 1_555
C4 C3 1_555 1_555
H3 C4 1_555 1_555
C5 C4 1_555 1_555
H4 C5 1_555 1_555
C6 C1 1_555 1_555
C7 C6 1_555 1_555
H5 C7 1_555 1_555
H6 C7 1_555 1_555
C8 C7 1_555 1_555
H7 C8 1_555 1_555
C9 O1 1_555 1_555
C10 C9 1_555 1_555
H8 C10 1_555 1_555
C11 C10 1_555 1_555
H9 C11 1_555 1_555
H10 C11 1_555 1_555
C12 C11 1_555 1_555
C13 C12 1_555 1_555
H11 C13 1_555 1_555
C14 C13 1_555 1_555
H12 C14 1_555 1_555
C15 C14 1_555 1_555
H13 C15 1_555 1_555
C16 C15 1_555 1_555
H14 C16 1_555 1_555
C17 O2 1_555 1_555
C18 C8 1_555 1_555
H15 C18 1_555 1_555
H16 C18 1_555 1_555
H17 C18 1_555 1_555
C19 C10 1_555 1_555
H18 C19 1_555 1_555
H19 C19 1_555 1_555
H20 C19 1_555 1_555
C5 C6 1_555 1_555
C8 C9 1_555 1_555
C12 C17 1_555 1_555
C16 C17 1_555 1_555

#END
