
#######################################################################
#
#                 Cambridge Crystallographic Data Centre
#                                CCDC 
#
#######################################################################
#
# If this CIF has been generated from an entry in the Cambridge 
# Structural Database, then it will include bibliographic, chemical, 
# crystal, experimental, refinement or atomic coordinate data resulting 
# from the CCDC's data processing and validation procedures.
#
#######################################################################

data_FAYZEL
_chemical_name_common            
'5,17-Dichloro-8-aza-2,14,20-trioxacalix(2)arene(2)triazine hemihydrate'
_chemical_formula_moiety         'C18 H9 Cl2 N7 O3,0.5(H2 O1)'
_chemical_name_systematic        
'5,17-Dichloro-2,8,14-trioxa-4,6,16,18,20,26,28-hepta-azapentacyclo(19.3.1.1^3,7^.1^9,13^.1^15,19^)octacosa-1(25),3(28),4,6,9(27),10,12,15(26),16,18,21,23-dodecaene hemihydrate'
_symmetry_cell_setting           monoclinic
_symmetry_space_group_name_H-M   'P 21/n'
_symmetry_Int_Tables_number      14
_space_group_name_Hall           '-P 2yn'
loop_
_symmetry_equiv_pos_site_id
_symmetry_equiv_pos_as_xyz
1 x,y,z
2 1/2-x,1/2+y,1/2-z
3 -x,-y,-z
4 1/2+x,1/2-y,1/2+z
_cell_length_a                   12.508(3)
_cell_length_b                   24.589(5)
_cell_length_c                   13.770(3)
_cell_angle_alpha                90
_cell_angle_beta                 99.06(3)
_cell_angle_gamma                90
_cell_volume                     4182.25
_exptl_crystal_colour            colorless
_exptl_crystal_description       block
_chemical_melting_point          'above 300deg.C'
_cell_formula_units_Z            8
_exptl_crystal_recrystallization_method 'n-hexane/ethyl acetate'
loop_
_atom_site_label
_atom_site_type_symbol
_atom_site_fract_x
_atom_site_fract_y
_atom_site_fract_z
Cl1 Cl -1.1894(3) 0.28086(15) 0.2043(4)
Cl2 Cl -0.3557(2) 0.02837(17) 0.1578(2)
O1 O -0.9694(7) 0.2214(3) -0.0348(7)
O2 O -0.6479(7) 0.1133(4) -0.0653(6)
O3 O -0.7300(5) -0.0019(3) 0.1808(5)
N1 N -1.0666(9) 0.2457(4) 0.0772(9)
N2 N -1.0140(8) 0.1546(4) 0.0691(7)
N3 N -1.1211(7) 0.1805(4) 0.1930(8)
N4 N -0.7014(7) 0.0559(4) 0.0600(6)
N5 N -0.5143(7) 0.0714(4) 0.0409(7)
N6 N -0.5594(7) 0.0139(4) 0.1690(6)
N7 N -1.0629(6) 0.0979(3) 0.1887(6)
H1 H -1.0980 0.0936 0.2371
C1 C -1.1182(10) 0.2295(6) 0.1567(10)
C2 C -1.0167(9) 0.2043(6) 0.0410(10)
C3 C -1.0632(9) 0.1459(5) 0.1500(9)
C4 C -0.9141(10) 0.1839(5) -0.0859(11)
C5 C -0.8126(10) 0.1648(5) -0.0430(10)
H2 H -0.7817 0.1737 0.0209
C6 C -0.7600(9) 0.1308(5) -0.1041(10)
C7 C -0.8014(10) 0.1195(5) -0.2004(10)
H3 H -0.7622 0.0986 -0.2388
C8 C -0.9030(11) 0.1397(6) -0.2397(9)
H4 H -0.9343 0.1304 -0.3033
C9 C -0.9579(9) 0.1740(5) -0.1834(12)
H5 H -1.0230 0.1900 -0.2109
C10 C -0.6252(11) 0.0785(5) 0.0123(8)
C11 C -0.4942(9) 0.0387(6) 0.1157(9)
C12 C -0.6630(9) 0.0250(5) 0.1303(9)
C13 C -0.8483(9) 0.0023(5) 0.1512(8)
C14 C -0.8945(10) 0.0501(5) 0.1765(7)
H6 H -0.8530 0.0792 0.2042
C15 C -1.0093(10) 0.0522(5) 0.1576(8)
C16 C -1.0635(9) 0.0059(6) 0.1185(9)
H7 H -1.1387 0.0069 0.1073
C17 C -1.0154(9) -0.0402(5) 0.0957(8)
H8 H -1.0551 -0.0700 0.0682
C18 C -0.9050(9) -0.0410(4) 0.1154(7)
H9 H -0.8684 -0.0726 0.1034
Cl3 Cl -0.3372(3) 0.17159(17) -0.0082(2)
Cl4 Cl -0.5655(3) 0.24091(15) -0.9153(2)
O4 O -0.5611(6) 0.1006(3) -0.3003(6)
O5 O -0.6478(6) 0.1216(4) -0.6575(6)
O6 O -0.2837(7) 0.1559(4) -0.6706(7)
N8 N -0.2670(7) 0.1538(4) -0.1781(7)
N9 N -0.3806(7) 0.1153(4) -0.3177(6)
N10 N -0.4553(7) 0.1358(4) -0.1712(7)
N11 N -0.4649(8) 0.1374(4) -0.6560(7)
N12 N -0.6051(8) 0.1759(4) -0.7751(8)
N13 N -0.4171(8) 0.1939(4) -0.7872(7)
N14 N -0.1993(7) 0.1366(4) -0.3143(6)
H10 H -0.1411 0.1509 -0.2831
C19 C -0.3554(12) 0.1518(5) -0.1325(9)
C20 C -0.2855(10) 0.1349(5) -0.2695(9)
C21 C -0.4614(11) 0.1171(4) -0.2638(9)
C22 C -0.5816(8) 0.0769(6) -0.3952(9)
C23 C -0.5916(9) 0.1118(5) -0.4768(9)
H11 H -0.5773 0.1488 -0.4692
C24 C -0.6244(8) 0.0886(6) -0.5717(9)
C25 C -0.6416(11) 0.0333(7) -0.5814(10)
H12 H -0.6622 0.0174 -0.6427
C26 C -0.6272(10) 0.0033(6) -0.4984(11)
H13 H -0.6373 -0.0341 -0.5058
C27 C -0.5977(10) 0.0234(6) -0.3994(10)
H14 H -0.5906 0.0012 -0.3441
C28 C -0.5693(10) 0.1448(5) -0.6979(9)
C29 C -0.5250(13) 0.2005(5) -0.8168(9)
C30 C -0.3916(9) 0.1626(5) -0.7041(8)
C31 C -0.2371(9) 0.1265(5) -0.5837(8)
C32 C -0.2538(8) 0.1442(5) -0.4888(9)
H15 H -0.3009 0.1726 -0.4816
C33 C -0.1970(10) 0.1173(5) -0.4063(10)
C34 C -0.1358(10) 0.0754(6) -0.4164(11)
H16 H -0.1031 0.0565 -0.3611
C35 C -0.1188(11) 0.0583(7) -0.5120(13)
H17 H -0.0731 0.0294 -0.5197
C36 C -0.1724(11) 0.0862(6) -0.5933(10)
H18 H -0.1617 0.0757 -0.6559
O7 O -0.8519(10) 0.2060(7) -0.7183(19)
loop_
_geom_bond_atom_site_label_1
_geom_bond_atom_site_label_2
_geom_bond_site_symmetry_1
_geom_bond_site_symmetry_2
Cl1 C1 1_555 1_555
Cl2 C11 1_555 1_555
O1 C2 1_555 1_555
O2 C6 1_555 1_555
O3 C12 1_555 1_555
N1 C1 1_555 1_555
N2 C2 1_555 1_555
N3 C1 1_555 1_555
N4 C10 1_555 1_555
N5 C10 1_555 1_555
N6 C11 1_555 1_555
N7 H1 1_555 1_555
C2 N1 1_555 1_555
C3 N2 1_555 1_555
C4 O1 1_555 1_555
C5 C4 1_555 1_555
H2 C5 1_555 1_555
C6 C5 1_555 1_555
C7 C6 1_555 1_555
H3 C7 1_555 1_555
C8 C7 1_555 1_555
H4 C8 1_555 1_555
C9 C4 1_555 1_555
H5 C9 1_555 1_555
C10 O2 1_555 1_555
C11 N5 1_555 1_555
C12 N4 1_555 1_555
C13 O3 1_555 1_555
C14 C13 1_555 1_555
H6 C14 1_555 1_555
C15 N7 1_555 1_555
C16 C15 1_555 1_555
H7 C16 1_555 1_555
C17 C16 1_555 1_555
H8 C17 1_555 1_555
C18 C13 1_555 1_555
H9 C18 1_555 1_555
Cl3 C19 1_555 1_555
Cl4 C29 1_555 1_555
O4 C21 1_555 1_555
O5 C24 1_555 1_555
O6 C30 1_555 1_555
N8 C19 1_555 1_555
N9 C20 1_555 1_555
N10 C19 1_555 1_555
N11 C28 1_555 1_555
N12 C28 1_555 1_555
N13 C29 1_555 1_555
N14 H10 1_555 1_555
C20 N8 1_555 1_555
C21 N9 1_555 1_555
C22 O4 1_555 1_555
C23 C22 1_555 1_555
H11 C23 1_555 1_555
C24 C23 1_555 1_555
C25 C24 1_555 1_555
H12 C25 1_555 1_555
C26 C25 1_555 1_555
H13 C26 1_555 1_555
C27 C22 1_555 1_555
H14 C27 1_555 1_555
C28 O5 1_555 1_555
C29 N12 1_555 1_555
C30 N11 1_555 1_555
C31 O6 1_555 1_555
C32 C31 1_555 1_555
H15 C32 1_555 1_555
C33 N14 1_555 1_555
C34 C33 1_555 1_555
H16 C34 1_555 1_555
C35 C34 1_555 1_555
H17 C35 1_555 1_555
C36 C31 1_555 1_555
H18 C36 1_555 1_555
N3 C3 1_555 1_555
N6 C12 1_555 1_555
N7 C3 1_555 1_555
C8 C9 1_555 1_555
C14 C15 1_555 1_555
C17 C18 1_555 1_555
N10 C21 1_555 1_555
N13 C30 1_555 1_555
N14 C20 1_555 1_555
C26 C27 1_555 1_555
C32 C33 1_555 1_555
C35 C36 1_555 1_555

#END
