
#######################################################################
#
#                 Cambridge Crystallographic Data Centre
#                                CCDC 
#
#######################################################################
#
# If this CIF has been generated from an entry in the Cambridge 
# Structural Database, then it will include bibliographic, chemical, 
# crystal, experimental, refinement or atomic coordinate data resulting 
# from the CCDC's data processing and validation procedures.
#
#######################################################################

data_FAYZAH
_chemical_name_common            
5,17-Dichloro-2,8,14,20-tetraoxacalix(2)arene(2)triazine
_chemical_formula_moiety         'C18 H8 Cl2 N6 O4'
_chemical_name_systematic        
5,17-Dichloro-2,8,14,20-tetraoxa-4,6,16,18,26,28-hexa-azapentacyclo(19.3.1.1^3,7^.1^9,13^.1^15,19^)octacosa-1(25),3(28),4,6,9(27),10,12,15(26),16,18,21,23-dodecaene
_symmetry_cell_setting           orthorhombic
_symmetry_space_group_name_H-M   'P 21 21 21'
_symmetry_Int_Tables_number      19
_space_group_name_Hall           'P 2ac 2ab'
loop_
_symmetry_equiv_pos_site_id
_symmetry_equiv_pos_as_xyz
1 x,y,z
2 1/2-x,-y,1/2+z
3 -x,1/2+y,1/2-z
4 1/2+x,1/2-y,-z
_cell_length_a                   8.8228(7)
_cell_length_b                   12.0316(12)
_cell_length_c                   18.1669(16)
_cell_angle_alpha                90
_cell_angle_beta                 90
_cell_angle_gamma                90
_cell_volume                     1928.46
_exptl_crystal_colour            colorless
_exptl_crystal_description       plate
_chemical_melting_point          'above 300deg.C'
_cell_formula_units_Z            4
_exptl_crystal_recrystallization_method 'n-hexane/ethyl acetate'
loop_
_atom_site_label
_atom_site_type_symbol
_atom_site_fract_x
_atom_site_fract_y
_atom_site_fract_z
C1 C 0.6664(3) 1.25140(19) -0.00406(13)
H1 H 0.7197 1.3159 0.0071
C2 C 0.5845(3) 1.24560(17) -0.06908(11)
H2 H 0.5828 1.3050 -0.1018
C3 C 0.5074(2) 1.15105(17) -0.08346(9)
C4 C 0.5060(2) 1.06046(16) -0.03719(9)
H3 H 0.4516 0.9965 -0.0485
C5 C 0.5890(2) 1.06953(16) 0.02646(9)
C6 C 0.6702(3) 1.16300(17) 0.04445(10)
H4 H 0.7259 1.1667 0.0878
C7 C 0.9461(3) 0.87165(18) -0.10060(11)
C8 C 1.0454(2) 0.9597(2) -0.09711(12)
H5 H 1.1120 0.9669 -0.0577
C9 C 1.0442(3) 1.0374(2) -0.15351(11)
H6 H 1.1103 1.0975 -0.1520
C10 C 0.9455(2) 1.02592(17) -0.21166(11)
H7 H 0.9449 1.0772 -0.2500
C11 C 0.8480(2) 0.93694(18) -0.21175(10)
C12 C 0.8464(2) 0.85802(17) -0.15736(10)
H8 H 0.7803 0.7978 -0.1591
C13 C 0.8653(3) 0.80945(17) 0.01594(11)
C14 C 0.6879(2) 0.90248(15) 0.07459(10)
C15 C 0.7997(3) 0.75952(15) 0.12719(10)
C16 C 0.6179(3) 0.98762(16) -0.26676(11)
C17 C 0.4090(3) 1.04592(18) -0.32095(10)
C18 C 0.4593(2) 1.09660(15) -0.20662(10)
N1 N 0.8866(2) 0.73627(14) 0.07046(9)
N2 N 0.6959(2) 0.83787(13) 0.13434(7)
N3 N 0.76933(19) 0.89374(12) 0.01388(7)
N4 N 0.5323(2) 0.98410(14) -0.32765(8)
N5 N 0.36258(19) 1.10462(13) -0.26356(8)
N6 N 0.58817(18) 1.04215(13) -0.20484(8)
O1 O 0.58465(16) 0.98330(10) 0.07973(6)
O2 O 0.41194(16) 1.15150(11) -0.14690(7)
O3 O 0.74426(16) 0.92678(11) -0.27133(6)
O4 O 0.95306(18) 0.79062(12) -0.04328(7)
Cl1 Cl 0.82474(8) 0.67759(5) 0.20494(3)
Cl2 Cl 0.29000(7) 1.04853(5) -0.39601(3)
loop_
_geom_bond_atom_site_label_1
_geom_bond_atom_site_label_2
_geom_bond_site_symmetry_1
_geom_bond_site_symmetry_2
C1 H1 1_555 1_555
C2 C1 1_555 1_555
H2 C2 1_555 1_555
C3 C2 1_555 1_555
C4 C3 1_555 1_555
H3 C4 1_555 1_555
C5 C4 1_555 1_555
C6 C1 1_555 1_555
H4 C6 1_555 1_555
C7 C8 1_555 1_555
C8 H5 1_555 1_555
C9 C8 1_555 1_555
H6 C9 1_555 1_555
C10 C9 1_555 1_555
H7 C10 1_555 1_555
C11 C10 1_555 1_555
C12 C7 1_555 1_555
H8 C12 1_555 1_555
C13 N1 1_555 1_555
C14 N2 1_555 1_555
C15 N1 1_555 1_555
C16 N4 1_555 1_555
C17 N4 1_555 1_555
C18 N5 1_555 1_555
N2 C15 1_555 1_555
N3 C13 1_555 1_555
N5 C17 1_555 1_555
N6 C16 1_555 1_555
O1 C5 1_555 1_555
O2 C3 1_555 1_555
O3 C11 1_555 1_555
O4 C7 1_555 1_555
Cl1 C15 1_555 1_555
Cl2 C17 1_555 1_555
C5 C6 1_555 1_555
C11 C12 1_555 1_555
C13 O4 1_555 1_555
C14 N3 1_555 1_555
C14 O1 1_555 1_555
C16 O3 1_555 1_555
C18 N6 1_555 1_555
C18 O2 1_555 1_555

#END
