
#######################################################################
#
#                 Cambridge Crystallographic Data Centre
#                                CCDC 
#
#######################################################################
#
# If this CIF has been generated from an entry in the Cambridge 
# Structural Database, then it will include bibliographic, chemical, 
# crystal, experimental, refinement or atomic coordinate data resulting 
# from the CCDC's data processing and validation procedures.
#
#######################################################################

data_FAZBIS
_chemical_name_common            
5,17-Dichloro-2,8,14,20-tetramethyl-2,8,14,20-tetra-azacalix(2)arene(2)triazine
_chemical_formula_moiety         'C22 H20 Cl2 N10'
_chemical_name_systematic        
5,17-Dichloro-2,8,14,20-tetramethyl-2,4,6,8,14,16,18,20,26,28-deca-azapentacyclo(19.3.1.1^3,7^.1^9,13^.1^15,19^)octacosa-1(25),3(28),4,6,9(27),10,12,15(26),16,18,21,23-dodecaene
_symmetry_cell_setting           monoclinic
_symmetry_space_group_name_H-M   'C 2/c'
_symmetry_Int_Tables_number      15
_space_group_name_Hall           '-C 2yn'
loop_
_symmetry_equiv_pos_site_id
_symmetry_equiv_pos_as_xyz
1 x,y,z
2 1/2+x,1/2+y,z
3 -x,y,1/2-z
4 1/2-x,1/2+y,1/2-z
5 -x,-y,-z
6 1/2-x,1/2-y,-z
7 x,-y,1/2+z
8 1/2+x,1/2-y,1/2+z
_cell_length_a                   20.305(7)
_cell_length_b                   9.995(4)
_cell_length_c                   12.001(4)
_cell_angle_alpha                90
_cell_angle_beta                 107.289(5)
_cell_angle_gamma                90
_cell_volume                     2325.54
_exptl_crystal_colour            colorless
_exptl_crystal_description       prisms
_chemical_melting_point          '300 deg.C'
_cell_formula_units_Z            4
_exptl_crystal_recrystallization_method n-hexane/dichloromethane
loop_
_atom_site_label
_atom_site_type_symbol
_atom_site_fract_x
_atom_site_fract_y
_atom_site_fract_z
Cl1 Cl 0.190667(15) 0.05548(4) -0.08436(3)
N1 N -0.02658(5) 0.21143(11) -0.03196(8)
N2 N 0.07581(4) 0.13086(10) -0.05178(8)
N3 N 0.17846(4) 0.15700(10) 0.10636(7)
N4 N 0.07064(4) 0.23599(10) 0.12534(7)
N5 N 0.17211(4) 0.25936(11) 0.27487(7)
C1 C 0.04161(5) 0.19168(12) 0.01655(9)
C2 C 0.14224(5) 0.12168(12) 0.00105(9)
C3 C 0.13876(5) 0.21545(11) 0.16612(9)
C4 C 0.13610(5) 0.31786(12) 0.34918(9)
C5 C 0.15023(6) 0.44834(13) 0.38535(11)
H1 H 0.1784 0.5007 0.3544
C6 C 0.12238(7) 0.50115(16) 0.46763(13)
H2 H 0.1320 0.5891 0.4922
C7 C 0.08030(6) 0.42422(14) 0.51365(11)
H3 H 0.0618 0.4600 0.5694
C8 C -0.06580(5) 0.29386(13) 0.02359(9)
C9 C 0.09296(5) 0.23998(12) 0.39362(9)
H4 H 0.0825 0.1526 0.3679
C10 C -0.06240(7) 0.16371(19) -0.14996(11)
H5 H -0.0688 0.2368 -0.2040
H6 H -0.1065 0.1278 -0.1516
H7 H -0.0354 0.0952 -0.1716
C11 C 0.24769(6) 0.25446(16) 0.32015(11)
H8 H 0.2635 0.1674 0.3061
H9 H 0.2617 0.2719 0.4025
H10 H 0.2672 0.3209 0.2815
Cl1B Cl -0.190667(15) 0.05548(4) 0.58436(3)
N1B N 0.02658(5) 0.21143(11) 0.53196(8)
N2B N -0.07581(4) 0.13086(10) 0.55178(8)
N3B N -0.17846(4) 0.15700(10) 0.39364(7)
N4B N -0.07064(4) 0.23599(10) 0.37466(7)
N5B N -0.17211(4) 0.25936(11) 0.22513(7)
C1B C -0.04161(5) 0.19168(12) 0.48345(9)
C2B C -0.14224(5) 0.12168(12) 0.49895(9)
C3B C -0.13876(5) 0.21545(11) 0.33388(9)
C4B C -0.13610(5) 0.31786(12) 0.15082(9)
C5B C -0.15023(6) 0.44834(13) 0.11465(11)
H1B H -0.1784 0.5007 0.1456
C6B C -0.12238(7) 0.50115(16) 0.03237(13)
H2B H -0.1320 0.5891 0.0078
C7B C -0.08030(6) 0.42422(14) -0.01365(11)
H3B H -0.0618 0.4600 -0.0694
C8B C 0.06580(5) 0.29386(13) 0.47641(9)
C9B C -0.09296(5) 0.23998(12) 0.10638(9)
H4B H -0.0825 0.1526 0.1321
C10B C 0.06240(7) 0.16371(19) 0.64996(11)
H5B H 0.0688 0.2368 0.7040
H6B H 0.1065 0.1278 0.6516
H7B H 0.0354 0.0952 0.6716
C11B C -0.24769(6) 0.25446(16) 0.17985(11)
H8B H -0.2635 0.1674 0.1939
H9B H -0.2617 0.2719 0.0975
H10B H -0.2672 0.3209 0.2185
loop_
_geom_bond_atom_site_label_1
_geom_bond_atom_site_label_2
_geom_bond_site_symmetry_1
_geom_bond_site_symmetry_2
Cl1 C2 1_555 1_555
N1 C1 1_555 1_555
N2 C1 1_555 1_555
N3 C2 1_555 1_555
N4 C1 1_555 1_555
N5 C3 1_555 1_555
C2 N2 1_555 1_555
C3 N3 1_555 1_555
C4 N5 1_555 1_555
C5 C4 1_555 1_555
H1 C5 1_555 1_555
C6 C5 1_555 1_555
H2 C6 1_555 1_555
C7 C6 1_555 1_555
H3 C7 1_555 1_555
C8 N1 1_555 1_555
C9 C4 1_555 1_555
H4 C9 1_555 1_555
C10 N1 1_555 1_555
H5 C10 1_555 1_555
H6 C10 1_555 1_555
H7 C10 1_555 1_555
C11 N5 1_555 1_555
H8 C11 1_555 1_555
H9 C11 1_555 1_555
H10 C11 1_555 1_555
Cl1B C2B 1_555 1_555
N1B C1B 1_555 1_555
N2B C1B 1_555 1_555
N3B C2B 1_555 1_555
N4B C1B 1_555 1_555
N5B C3B 1_555 1_555
C2B N2B 1_555 1_555
C3B N3B 1_555 1_555
C4B N5B 1_555 1_555
C5B C4B 1_555 1_555
H1B C5B 1_555 1_555
C6B C5B 1_555 1_555
H2B C6B 1_555 1_555
C7B C8 1_555 1_555
H3B C7B 1_555 1_555
C8B C7 1_555 1_555
C9B C8 1_555 1_555
H4B C9B 1_555 1_555
C10B N1B 1_555 1_555
H5B C10B 1_555 1_555
H6B C10B 1_555 1_555
H7B C10B 1_555 1_555
C11B N5B 1_555 1_555
H8B C11B 1_555 1_555
H9B C11B 1_555 1_555
H10B C11B 1_555 1_555
N4 C3 1_555 1_555
C9 C8B 1_555 1_555
N1B C8B 1_555 1_555
N4B C3B 1_555 1_555
C4B C9B 1_555 1_555
C6B C7B 1_555 1_555

#END
