
#######################################################################
#
#                 Cambridge Crystallographic Data Centre
#                                CCDC 
#
#######################################################################
#
# If this CIF has been generated from an entry in the Cambridge 
# Structural Database, then it will include bibliographic, chemical, 
# crystal, experimental, refinement or atomic coordinate data resulting 
# from the CCDC's data processing and validation procedures.
#
#######################################################################

data_FAZBAK
_chemical_name_common            
'5,17-Dichloro-8,14-dimethyl-2,8,14,20-tetra-azacalix(2)arene(2)triazine tetrahydrofuran solvate'
_chemical_formula_moiety         'C20 H16 Cl2 N10,0.25(C4 H8 O1)'
_chemical_name_systematic        
'5,17-Dichloro-2,20-dimethyl-2,4,6,8,14,16,18,20,26,28-deca-azapentacyclo(19.3.1.1^3,7^.1^9,13^.1^15,19^)octacosa-1(25),3(28),4,6,9(27),10,12,15(26),16,18,21,23-dodecaene tetrahydrofuran solvate'
_symmetry_cell_setting           orthorhombic
_symmetry_space_group_name_H-M   'P 21 21 21'
_symmetry_Int_Tables_number      19
_space_group_name_Hall           'P 2ac 2ab'
loop_
_symmetry_equiv_pos_site_id
_symmetry_equiv_pos_as_xyz
1 x,y,z
2 1/2-x,-y,1/2+z
3 1/2+x,1/2-y,-z
4 -x,1/2+y,1/2-z
_cell_length_a                   15.95(2)
_cell_length_b                   9.169(13)
_cell_length_c                   20.89(3)
_cell_angle_alpha                90
_cell_angle_beta                 90
_cell_angle_gamma                90
_cell_volume                     3055.07
_exptl_crystal_colour            colorless
_exptl_crystal_description       prisms
_chemical_melting_point          'above 300deg.C'
_cell_formula_units_Z            4
_exptl_crystal_recrystallization_method n-hexane/tetrahydrofuran
loop_
_atom_site_label
_atom_site_type_symbol
_atom_site_fract_x
_atom_site_fract_y
_atom_site_fract_z
Cl1 Cl 0.16413(9) 0.4006(2) 0.83349(9)
Cl2 Cl 0.85839(11) 0.76503(18) 1.07232(8)
N1 N 0.4393(2) 0.3983(5) 0.85263(18)
N2 N 0.3129(2) 0.4893(5) 0.8021(2)
N3 N 0.3031(3) 0.3130(5) 0.8851(2)
N4 N 0.4213(3) 0.2104(5) 0.9273(2)
H1 H 0.3841 0.1583 0.9464
N5 N 0.7040(3) 0.3305(5) 1.0090(2)
H2 H 0.7317 0.2961 1.0409
N6 N 0.7811(3) 0.5310(5) 1.0338(2)
N7 N 0.7764(3) 0.7401(5) 0.9648(2)
N8 N 0.6964(3) 0.5264(5) 0.93707(19)
N9 N 0.7117(3) 0.7213(5) 0.8674(2)
N10 N 0.4441(3) 0.5731(5) 0.7713(2)
C1 C 0.3975(3) 0.4841(5) 0.8101(2)
C2 C 0.2733(3) 0.4021(6) 0.8407(2)
C3 C 0.3891(3) 0.3127(6) 0.8868(2)
C4 C 0.5044(3) 0.1748(6) 0.9436(2)
C5 C 0.5230(3) 0.0285(6) 0.9505(3)
H3 H 0.4824 -0.0407 0.9407
C6 C 0.5999(4) -0.0165(6) 0.9715(3)
H4 H 0.6117 -0.1155 0.9749
C7 C 0.6604(3) 0.0858(6) 0.9877(3)
H5 H 0.7130 0.0560 1.0020
C8 C 0.6415(3) 0.2332(6) 0.9824(2)
C9 C 0.5645(3) 0.2801(6) 0.9593(2)
H6 H 0.5531 0.3789 0.9544
C10 C 0.7250(3) 0.4646(6) 0.9915(2)
C11 C 0.7983(3) 0.6664(6) 1.0173(3)
C12 C 0.7283(3) 0.6592(5) 0.9244(2)
C13 C 0.6650(3) 0.6432(5) 0.8177(2)
C14 C 0.7066(3) 0.5931(7) 0.7646(3)
H7 H 0.7646 0.6030 0.7618
C15 C 0.6628(4) 0.5279(7) 0.7149(3)
H8 H 0.6913 0.4910 0.6796
C16 C 0.5744(4) 0.5181(7) 0.7185(3)
H9 H 0.5443 0.4748 0.6855
C17 C 0.5330(3) 0.5732(5) 0.7713(2)
C18 C 0.5773(3) 0.6365(6) 0.8218(2)
H10 H 0.5493 0.6733 0.8573
C19 C 0.7520(4) 0.8585(8) 0.8489(3)
H11 H 0.8100 0.8408 0.8392
H12 H 0.7480 0.9270 0.8835
H13 H 0.7245 0.8976 0.8118
C20 C 0.4019(4) 0.6590(7) 0.7203(3)
H14 H 0.3527 0.7046 0.7375
H15 H 0.3863 0.5953 0.6858
H16 H 0.4396 0.7325 0.7047
O1 O 0.3747(17) 0.159(3) 0.0822(13)
C21 C 0.332(2) 0.256(4) 0.1225(13)
H17 H 0.2735 0.2264 0.1233
H18 H 0.3337 0.3516 0.1025
C22 C 0.444(2) 0.194(5) 0.182(2)
H19 H 0.4898 0.2640 0.1793
H20 H 0.4551 0.1309 0.2188
C23 C 0.360(2) 0.275(5) 0.1917(13)
H21 H 0.3233 0.2264 0.2220
H22 H 0.3674 0.3764 0.2037
C24 C 0.439(2) 0.103(5) 0.1205(18)
H23 H 0.4917 0.1077 0.0976
H24 H 0.4273 0.0020 0.1308
loop_
_geom_bond_atom_site_label_1
_geom_bond_atom_site_label_2
_geom_bond_site_symmetry_1
_geom_bond_site_symmetry_2
Cl1 C2 1_555 1_555
Cl2 C11 1_555 1_555
N1 C1 1_555 1_555
N2 C1 1_555 1_555
N3 C2 1_555 1_555
N4 H1 1_555 1_555
N5 H2 1_555 1_555
N6 C10 1_555 1_555
N7 C11 1_555 1_555
N8 C10 1_555 1_555
N9 C12 1_555 1_555
N10 C1 1_555 1_555
C2 N2 1_555 1_555
C3 N1 1_555 1_555
C4 N4 1_555 1_555
C5 C4 1_555 1_555
H3 C5 1_555 1_555
C6 C5 1_555 1_555
H4 C6 1_555 1_555
C7 C6 1_555 1_555
H5 C7 1_555 1_555
C8 N5 1_555 1_555
C9 C4 1_555 1_555
H6 C9 1_555 1_555
C10 N5 1_555 1_555
C11 N6 1_555 1_555
C12 N7 1_555 1_555
C13 N9 1_555 1_555
C14 C13 1_555 1_555
H7 C14 1_555 1_555
C15 C14 1_555 1_555
H8 C15 1_555 1_555
C16 C15 1_555 1_555
H9 C16 1_555 1_555
C17 N10 1_555 1_555
C18 C13 1_555 1_555
H10 C18 1_555 1_555
C19 N9 1_555 1_555
H11 C19 1_555 1_555
H12 C19 1_555 1_555
H13 C19 1_555 1_555
C20 N10 1_555 1_555
H14 C20 1_555 1_555
H15 C20 1_555 1_555
H16 C20 1_555 1_555
O1 C21 1_555 1_555
C21 H17 1_555 1_555
H18 C21 1_555 1_555
C22 H19 1_555 1_555
H20 C22 1_555 1_555
C23 C21 1_555 1_555
H21 C23 1_555 1_555
H22 C23 1_555 1_555
C24 O1 1_555 1_555
H23 C24 1_555 1_555
H24 C24 1_555 1_555
N3 C3 1_555 1_555
N4 C3 1_555 1_555
N8 C12 1_555 1_555
C7 C8 1_555 1_555
C8 C9 1_555 1_555
C16 C17 1_555 1_555
C17 C18 1_555 1_555
C22 C23 1_555 1_555
C22 C24 1_555 1_555

#END
