
#######################################################################
#
#                 Cambridge Crystallographic Data Centre
#                                CCDC 
#
#######################################################################
#
# If this CIF has been generated from an entry in the Cambridge 
# Structural Database, then it will include bibliographic, chemical, 
# crystal, experimental, refinement or atomic coordinate data resulting 
# from the CCDC's data processing and validation procedures.
#
#######################################################################

data_FAZCIT
_chemical_formula_moiety         'C12 H36 N6 6+,3(O4 S1 2-)'
_chemical_name_systematic        
'1,4,7,10,13,16-Hexa-azoniacyclo-octadecane tris(sulfate)'
_symmetry_cell_setting           monoclinic
_symmetry_space_group_name_H-M   'P 21/c'
_symmetry_Int_Tables_number      14
_space_group_name_Hall           '-P 2ybc'
loop_
_symmetry_equiv_pos_site_id
_symmetry_equiv_pos_as_xyz
1 x,y,z
2 -x,1/2+y,1/2-z
3 -x,-y,-z
4 x,1/2-y,1/2+z
_cell_length_a                   7.9597(2)
_cell_length_b                   11.2322(3)
_cell_length_c                   12.5897(4)
_cell_angle_alpha                90
_cell_angle_beta                 100.6730(10)
_cell_angle_gamma                90
_cell_volume                     1106.11
_exptl_crystal_colour            colorless
_cell_formula_units_Z            2
loop_
_atom_site_label
_atom_site_type_symbol
_atom_site_fract_x
_atom_site_fract_y
_atom_site_fract_z
N1 N 0.1900(2) 0.50126(14) -0.12875(16)
C1 C 0.2297(3) 0.39430(18) -0.19024(18)
H1 H 0.252(3) 0.4971(18) -0.058(2)
N2 N 0.2571(2) 0.24695(17) -0.03551(15)
C2 C 0.1692(3) 0.27986(18) -0.14741(18)
H2 H 0.076(3) 0.5041(18) -0.126(2)
N3 N 0.6999(2) 0.17342(16) 0.11716(17)
C3 C 0.4450(3) 0.22976(19) -0.02198(18)
H3 H 0.240(3) 0.302(2) 0.009(2)
C4 C 0.5098(2) 0.1835(2) 0.09140(18)
H4 H 0.206(3) 0.177(3) -0.019(2)
C5 C 0.7989(3) 0.28373(18) 0.10315(19)
H5 H 0.732(3) 0.149(2) 0.189(2)
C6 C 0.2369(3) 0.61566(18) -0.17653(17)
H6 H 0.741(3) 0.118(2) 0.076(2)
H7 H 0.170(3) 0.4079(19) -0.261(2)
H8 H 0.344(3) 0.3957(18) -0.1927(18)
H9 H 0.188(2) 0.2141(19) -0.1967(18)
H10 H 0.049(3) 0.2855(18) -0.1433(18)
H11 H 0.469(2) 0.1693(18) -0.0763(18)
H12 H 0.495(2) 0.3048(19) -0.0328(17)
H13 H 0.468(3) 0.106(2) 0.0979(19)
H14 H 0.475(2) 0.2338(18) 0.1454(18)
H15 H 0.918(3) 0.2577(18) 0.1197(18)
H16 H 0.764(2) 0.3084(18) 0.0276(18)
H17 H 0.170(2) 0.6218(18) -0.2457(19)
H18 H 0.355(3) 0.6119(19) -0.1806(18)
N1B N 0.8100(2) 0.49874(14) 0.12875(16)
C1B C 0.7703(3) 0.60570(18) 0.19024(18)
H1B H 0.748(3) 0.5029(18) 0.058(2)
N2B N 0.7429(2) 0.75305(17) 0.03551(15)
C2B C 0.8308(3) 0.72014(18) 0.14741(18)
H2B H 0.924(3) 0.4959(18) 0.126(2)
N3B N 0.3001(2) 0.82658(16) -0.11716(17)
C3B C 0.5550(3) 0.77024(19) 0.02198(18)
H3B H 0.760(3) 0.698(2) -0.009(2)
C4B C 0.4902(2) 0.8165(2) -0.09140(18)
H4B H 0.794(3) 0.823(3) 0.019(2)
C5B C 0.2011(3) 0.71627(18) -0.10315(19)
H5B H 0.268(3) 0.851(2) -0.189(2)
C6B C 0.7631(3) 0.38434(18) 0.17653(17)
H6B H 0.259(3) 0.882(2) -0.076(2)
H7B H 0.830(3) 0.5921(19) 0.261(2)
H8B H 0.656(3) 0.6043(18) 0.1927(18)
H9B H 0.812(2) 0.7859(19) 0.1967(18)
H10B H 0.951(3) 0.7145(18) 0.1433(18)
H11B H 0.531(2) 0.8307(18) 0.0763(18)
H12B H 0.505(2) 0.6952(19) 0.0328(17)
H13B H 0.532(3) 0.894(2) -0.0979(19)
H14B H 0.525(2) 0.7662(18) -0.1454(18)
H15B H 0.082(3) 0.7423(18) -0.1197(18)
H16B H 0.236(2) 0.6916(18) -0.0276(18)
H17B H 0.830(2) 0.3782(18) 0.2457(19)
H18B H 0.645(3) 0.3881(19) 0.1806(18)
S1 S 0.28275(6) 0.48664(4) 0.15963(4)
O1 O 0.14348(19) 0.40171(15) 0.11931(13)
O2 O 0.2058(2) 0.60290(15) 0.17581(14)
O3 O 0.38704(18) 0.49755(12) 0.07445(12)
O4 O 0.38791(17) 0.44576(12) 0.26016(11)
S2? S 0.00000 0.00000 0.00000
O5? O 0.1775(3) 0.0097(2) 0.0127(2)
O6? O -0.0616(4) -0.0061(2) 0.1078(3)
O7? O -0.0860(4) 0.1132(2) -0.0519(3)
O8? O -0.0742(3) -0.1022(2) -0.0634(2)
loop_
_geom_bond_atom_site_label_1
_geom_bond_atom_site_label_2
_geom_bond_site_symmetry_1
_geom_bond_site_symmetry_2
N1 C1 1_555 1_555
C1 C2 1_555 1_555
H1 N1 1_555 1_555
N2 C2 1_555 1_555
C2 H9 1_555 1_555
H2 N1 1_555 1_555
N3 C4 1_555 1_555
C3 N2 1_555 1_555
H3 N2 1_555 1_555
C4 C3 1_555 1_555
H4 N2 1_555 1_555
C5 N3 1_555 1_555
H5 N3 1_555 1_555
C6 N1 1_555 1_555
H6 N3 1_555 1_555
H7 C1 1_555 1_555
H8 C1 1_555 1_555
H10 C2 1_555 1_555
H11 C3 1_555 1_555
H12 C3 1_555 1_555
H13 C4 1_555 1_555
H14 C4 1_555 1_555
H15 C5 1_555 1_555
H16 C5 1_555 1_555
H17 C6 1_555 1_555
H18 C6 1_555 1_555
S1 O1 1_555 1_555
O2 S1 1_555 1_555
O3 S1 1_555 1_555
O4 S1 1_555 1_555
N1B C1B 1_555 1_555
C1B C2B 1_555 1_555
H1B N1B 1_555 1_555
N2B C2B 1_555 1_555
C2B H9B 1_555 1_555
H2B N1B 1_555 1_555
N3B C4B 1_555 1_555
C3B N2B 1_555 1_555
H3B N2B 1_555 1_555
C4B C3B 1_555 1_555
H4B N2B 1_555 1_555
C5B C6 1_555 1_555
H5B N3B 1_555 1_555
C6B C5 1_555 1_555
H6B N3B 1_555 1_555
H7B C1B 1_555 1_555
H8B C1B 1_555 1_555
H10B C2B 1_555 1_555
H11B C3B 1_555 1_555
H12B C3B 1_555 1_555
H13B C4B 1_555 1_555
H14B C4B 1_555 1_555
H15B C5B 1_555 1_555
H16B C5B 1_555 1_555
H17B C6B 1_555 1_555
H18B C6B 1_555 1_555
N1B C6B 1_555 1_555
N3B C5B 1_555 1_555

#END
