
#######################################################################
#
#                 Cambridge Crystallographic Data Centre
#                                CCDC 
#
#######################################################################
#
# If this CIF has been generated from an entry in the Cambridge 
# Structural Database, then it will include bibliographic, chemical, 
# crystal, experimental, refinement or atomic coordinate data resulting 
# from the CCDC's data processing and validation procedures.
#
#######################################################################

data_FAZCOZ
_chemical_formula_moiety         
'C12 H36 N6 6+,4(Cl1 1-),2(H1 O4 S1 1-),2(H2 O1)'
_chemical_name_systematic        
'1,4,7,10,13,16-Hexa-azoniacyclo-octadecane tetrachloride bis(hydrogen sulfate) dihydrate'
_symmetry_cell_setting           monoclinic
_symmetry_space_group_name_H-M   'P 21/n'
_symmetry_Int_Tables_number      14
_space_group_name_Hall           '-P 2yn'
loop_
_symmetry_equiv_pos_site_id
_symmetry_equiv_pos_as_xyz
1 x,y,z
2 1/2-x,1/2+y,1/2-z
3 -x,-y,-z
4 1/2+x,1/2-y,1/2+z
_cell_length_a                   6.4044(2)
_cell_length_b                   20.6316(5)
_cell_length_c                   10.1970(4)
_cell_angle_alpha                90
_cell_angle_beta                 94.4550(10)
_cell_angle_gamma                90
_cell_volume                     1343.29
_exptl_crystal_colour            colorless
_cell_formula_units_Z            2
loop_
_atom_site_label
_atom_site_type_symbol
_atom_site_fract_x
_atom_site_fract_y
_atom_site_fract_z
Cl1 Cl 0.15299(8) 0.10239(3) 0.43119(5)
S1 S 0.68743(8) 0.21240(2) 0.60567(5)
O1 O 0.7435(2) 0.23311(7) 0.47666(15)
O2 O 0.6211(2) 0.14519(7) 0.60489(15)
O3 O 0.8466(2) 0.22814(7) 0.71010(15)
O5 O 0.4965(3) 0.25499(8) 0.64022(16)
H21 H 0.374(4) 0.250(2) 0.574(3)
N1 N 0.4055(3) 0.13675(8) 1.00826(17)
H1 H 0.5118 0.1164 0.9685
H2 H 0.4213 0.1808 0.9983
C1 C 0.1989(3) 0.11604(10) 0.9431(2)
H3 H 0.0861 0.1415 0.9799
H4 H 0.1754 0.0698 0.9633
N2 N 0.3061(3) 0.07568(8) 0.72387(17)
H5 H 0.2961 0.0862 0.6359
H6 H 0.4451 0.0786 0.7537
C2 C 0.1860(3) 0.12501(10) 0.7953(2)
H7 H 0.0371 0.1232 0.7613
H8 H 0.2394 0.1687 0.7756
N3 N 0.3203(3) -0.10395(8) 0.65567(17)
H9 H 0.4022 -0.1249 0.5987
H10 H 0.1829 -0.1117 0.6269
C3 C 0.2377(3) 0.00718(10) 0.7375(2)
H11 H 0.0853 0.0032 0.714
H12 H 0.2679 -0.0078 0.8292
C4 C 0.3593(3) -0.03289(10) 0.6444(2)
H13 H 0.3199 -0.019 0.5529
H14 H 0.5108 -0.0244 0.6632
C5 C 0.3601(3) -0.13467(10) 0.7884(2)
H15 H 0.3414 -0.1822 0.7801
H16 H 0.2565 -0.1183 0.8475
C6 C 0.4202(3) 0.12022(10) 1.1514(2)
H17 H 0.3169 0.146 1.1965
H18 H 0.3879 0.0737 1.1628
N1B N 0.5945(3) -0.13675(8) 0.99174(17)
H1B H 0.4882 -0.1164 1.0315
H2B H 0.5787 -0.1808 1.0017
C1B C 0.8011(3) -0.11604(10) 1.0569(2)
H3B H 0.9139 -0.1415 1.0201
H4B H 0.8246 -0.0698 1.0367
N2B N 0.6939(3) -0.07568(8) 1.27613(17)
H5B H 0.7039 -0.0862 1.3641
H6B H 0.5549 -0.0786 1.2463
C2B C 0.8140(3) -0.12501(10) 1.2047(2)
H7B H 0.9629 -0.1232 1.2387
H8B H 0.7606 -0.1687 1.2244
N3B N 0.6797(3) 0.10395(8) 1.34433(17)
H9B H 0.5978 0.1249 1.4013
H10B H 0.8171 0.1117 1.3731
C3B C 0.7623(3) -0.00718(10) 1.2625(2)
H11B H 0.9147 -0.0032 1.286
H12B H 0.7321 0.0078 1.1708
C4B C 0.6407(3) 0.03289(10) 1.3556(2)
H13B H 0.6801 0.019 1.4471
H14B H 0.4892 0.0244 1.3368
C5B C 0.6399(3) 0.13467(10) 1.2116(2)
H15B H 0.6586 0.1822 1.2199
H16B H 0.7435 0.1183 1.1525
C6B C 0.5798(3) -0.12022(10) 0.8486(2)
H17B H 0.6831 -0.146 0.8035
H18B H 0.6121 -0.0737 0.8372
Cl2 Cl 0.72823(8) 0.04714(2) 0.89677(5)
O4 O 0.2053(2) 0.25773(7) 0.45436(15)
H19 H 0.254(5) 0.2680(13) 0.3666(16)
H20 H 0.141(6) 0.2141(10) 0.451(3)
loop_
_geom_bond_atom_site_label_1
_geom_bond_atom_site_label_2
_geom_bond_site_symmetry_1
_geom_bond_site_symmetry_2
S1 O1 1_555 1_555
N1 H1 1_555 1_555
H2 N1 1_555 1_555
C1 N1 1_555 1_555
H3 C1 1_555 1_555
H4 C1 1_555 1_555
N2 H5 1_555 1_555
H6 N2 1_555 1_555
C2 C1 1_555 1_555
H7 C2 1_555 1_555
H8 C2 1_555 1_555
O2 S1 1_555 1_555
N3 H9 1_555 1_555
H10 N3 1_555 1_555
C3 N2 1_555 1_555
H11 C3 1_555 1_555
H12 C3 1_555 1_555
O3 S1 1_555 1_555
C4 N3 1_555 1_555
H13 C4 1_555 1_555
H14 C4 1_555 1_555
C5 N3 1_555 1_555
H15 C5 1_555 1_555
H16 C5 1_555 1_555
C6 N1 1_555 1_555
H17 C6 1_555 1_555
H18 C6 1_555 1_555
O4 H19 1_555 1_555
H20 O4 1_555 1_555
O5 S1 1_555 1_555
H21 O5 1_555 1_555
N1B H1B 1_555 1_555
H2B N1B 1_555 1_555
C1B N1B 1_555 1_555
H3B C1B 1_555 1_555
H4B C1B 1_555 1_555
N2B H5B 1_555 1_555
H6B N2B 1_555 1_555
C2B C1B 1_555 1_555
H7B C2B 1_555 1_555
H8B C2B 1_555 1_555
N3B H9B 1_555 1_555
H10B N3B 1_555 1_555
C3B N2B 1_555 1_555
H11B C3B 1_555 1_555
H12B C3B 1_555 1_555
C4B N3B 1_555 1_555
H13B C4B 1_555 1_555
H14B C4B 1_555 1_555
C5B C6 1_555 1_555
H15B C5B 1_555 1_555
H16B C5B 1_555 1_555
C6B C5 1_555 1_555
H17B C6B 1_555 1_555
H18B C6B 1_555 1_555
N2 C2 1_555 1_555
C3 C4 1_555 1_555
N1B C6B 1_555 1_555
N2B C2B 1_555 1_555
N3B C5B 1_555 1_555
C3B C4B 1_555 1_555

#END
