
#######################################################################
#
#                 Cambridge Crystallographic Data Centre
#                                CCDC 
#
#######################################################################
#
# If this CIF has been generated from an entry in the Cambridge 
# Structural Database, then it will include bibliographic, chemical, 
# crystal, experimental, refinement or atomic coordinate data resulting 
# from the CCDC's data processing and validation procedures.
#
#######################################################################

data_FAZCUF
_chemical_formula_moiety         'C12 H34 N6 4+,2(O6 S2 2-),2(H2 O1)'
_chemical_name_systematic        
'1,10-Diaza-4,7,13,16-tetra-azoniacyclo-octadecane bis(dithionate) dihydrate'
_symmetry_cell_setting           monoclinic
_symmetry_space_group_name_H-M   'C 2/m'
_symmetry_Int_Tables_number      12
_space_group_name_Hall           '-C 2y'
loop_
_symmetry_equiv_pos_site_id
_symmetry_equiv_pos_as_xyz
1 x,y,z
2 1/2+x,1/2+y,z
3 -x,y,-z
4 1/2-x,1/2+y,-z
5 -x,-y,-z
6 1/2-x,1/2-y,-z
7 x,-y,z
8 1/2+x,1/2-y,z
_cell_length_a                   13.1554(3)
_cell_length_b                   11.4761(4)
_cell_length_c                   8.7203(3)
_cell_angle_alpha                90
_cell_angle_beta                 97.56(3)
_cell_angle_gamma                90
_cell_volume                     1305.08
_exptl_crystal_colour            colorless
_cell_formula_units_Z            2
loop_
_atom_site_label
_atom_site_type_symbol
_atom_site_fract_x
_atom_site_fract_y
_atom_site_fract_z
S1 S 0.38192(7) 0.00000 1.24391(10)
O1 O 0.16241(19) 0.00000 1.2282(3)
S2 S 0.23348(6) 0.00000 1.11402(10)
O2 O 0.23057(14) 0.10647(18) 1.0230(2)
O3 O 0.44714(18) 0.00000 1.1194(3)
O4 O 0.38857(16) -0.10679(18) 1.3329(2)
O2F O 0.23057(14) -0.10647(18) 1.0230(2)
O4F O 0.38857(16) 0.10679(18) 1.3329(2)
N1 N 0.40289(18) 0.1877(2) 0.8626(3)
N2 N 0.3398(3) 0.00000 0.6633(4)
C1 C 0.3518(3) 0.2070(3) 0.6998(3)
C2 C 0.2809(2) 0.1076(3) 0.6518(3)
C3 C 0.4830(2) 0.2757(3) 0.9136(3)
H1 H 0.233(3) 0.107(3) 0.722(4)
H2 H 0.535(2) 0.259(3) 0.854(4)
H3 H 0.414(3) 0.207(3) 0.636(4)
H4 H 0.352(3) 0.189(3) 0.929(4)
H5 H 0.251(3) 0.128(3) 0.541(4)
H6 H 0.312(2) 0.279(3) 0.700(4)
H7 H 0.455(2) 0.346(3) 0.888(3)
H8 H 0.430(2) 0.119(3) 0.865(3)
H9 H 0.375(4) 0.00000 0.601(5)
N1F N 0.40289(18) -0.1877(2) 0.8626(3)
N1D N 0.59711(18) -0.1877(2) 1.1374(3)
N1B N 0.59711(18) 0.1877(2) 1.1374(3)
N2D N 0.6602(3) 0.00000 1.3367(4)
C1F C 0.3518(3) -0.2070(3) 0.6998(3)
C1D C 0.6482(3) -0.2070(3) 1.3002(3)
C1B C 0.6482(3) 0.2070(3) 1.3002(3)
C2F C 0.2809(2) -0.1076(3) 0.6518(3)
C2D C 0.7191(2) -0.1076(3) 1.3482(3)
C2B C 0.7191(2) 0.1076(3) 1.3482(3)
C3F C 0.4830(2) -0.2757(3) 0.9136(3)
C3D C 0.5170(2) -0.2757(3) 1.0864(3)
C3B C 0.5170(2) 0.2757(3) 1.0864(3)
H1B H 0.767(3) 0.107(3) 1.278(4)
H1D H 0.767(3) -0.107(3) 1.278(4)
H1F H 0.233(3) -0.107(3) 0.722(4)
H2B H 0.465(2) 0.259(3) 1.146(4)
H2D H 0.465(2) -0.259(3) 1.146(4)
H2F H 0.535(2) -0.259(3) 0.854(4)
H3B H 0.586(3) 0.207(3) 1.364(4)
H3D H 0.586(3) -0.207(3) 1.364(4)
H3F H 0.414(3) -0.207(3) 0.636(4)
H4B H 0.648(3) 0.189(3) 1.071(4)
H4D H 0.648(3) -0.189(3) 1.071(4)
H4F H 0.352(3) -0.189(3) 0.929(4)
H5B H 0.749(3) 0.128(3) 1.459(4)
H5D H 0.749(3) -0.128(3) 1.459(4)
H5F H 0.251(3) -0.128(3) 0.541(4)
H6B H 0.688(2) 0.279(3) 1.300(4)
H6D H 0.688(2) -0.279(3) 1.300(4)
H6F H 0.312(2) -0.279(3) 0.700(4)
H7B H 0.545(2) 0.346(3) 1.112(3)
H7D H 0.545(2) -0.346(3) 1.112(3)
H7F H 0.455(2) -0.346(3) 0.888(3)
H8B H 0.570(2) 0.119(3) 1.135(3)
H8D H 0.570(2) -0.119(3) 1.135(3)
H8F H 0.430(2) -0.119(3) 0.865(3)
H9D H 0.625(4) 0.00000 1.399(5)
O6 O -0.0223(15) 0.00000 0.356(2)
O5? O 0.00000 0.0395(12) 0.50000
loop_
_geom_bond_atom_site_label_1
_geom_bond_atom_site_label_2
_geom_bond_site_symmetry_1
_geom_bond_site_symmetry_2
S1 S2 1_555 1_555
O1 S2 1_555 1_555
S2 O2 1_555 1_555
O3 S1 1_555 1_555
O4 S1 1_555 1_555
N1 C1 1_555 1_555
N2 C2 1_555 1_555
C1 C2 1_555 1_555
C2 H1 1_555 1_555
C3 N1 1_555 1_555
H2 C3 1_555 1_555
H3 C1 1_555 1_555
H4 N1 1_555 1_555
H5 C2 1_555 1_555
H6 C1 1_555 1_555
H7 C3 1_555 1_555
H8 N1 1_555 1_555
H9 N2 1_555 1_555
O2F S2 1_555 1_555
O4F S1 1_555 1_555
N1F C1F 1_555 1_555
N1D C1D 1_555 1_555
N1B C1B 1_555 1_555
N2D C2D 1_555 1_555
C1F C2F 1_555 1_555
C1D C2D 1_555 1_555
C1B C2B 1_555 1_555
C2F N2 1_555 1_555
C2D H1D 1_555 1_555
C2B N2D 1_555 1_555
C3F N1F 1_555 1_555
C3D N1D 1_555 1_555
C3B C3 1_555 1_555
H1B C2B 1_555 1_555
H1F C2F 1_555 1_555
H2B C3B 1_555 1_555
H2D C3D 1_555 1_555
H2F C3F 1_555 1_555
H3B C1B 1_555 1_555
H3D C1D 1_555 1_555
H3F C1F 1_555 1_555
H4B N1B 1_555 1_555
H4D N1D 1_555 1_555
H4F N1F 1_555 1_555
H5B C2B 1_555 1_555
H5D C2D 1_555 1_555
H5F C2F 1_555 1_555
H6B C1B 1_555 1_555
H6D C1D 1_555 1_555
H6F C1F 1_555 1_555
H7B C3B 1_555 1_555
H7D C3D 1_555 1_555
H7F C3F 1_555 1_555
H8B N1B 1_555 1_555
H8D N1D 1_555 1_555
H8F N1F 1_555 1_555
H9D N2D 1_555 1_555
N1B C3B 1_555 1_555
C3F C3D 1_555 1_555

#END
