
#######################################################################
#
#                 Cambridge Crystallographic Data Centre
#                                CCDC 
#
#######################################################################
#
# If this CIF has been generated from an entry in the Cambridge 
# Structural Database, then it will include bibliographic, chemical, 
# crystal, experimental, refinement or atomic coordinate data resulting 
# from the CCDC's data processing and validation procedures.
#
#######################################################################

data_FAZCEP
_chemical_formula_moiety         'C12 H36 N6 6+,4(H1 O4 S1 1-),O4 S1 2-,H2 O1'
_chemical_name_systematic        
'1,4,7,10,13,16-Hexa-azoniacyclo-octadecane tetrakis(hydrogen sulfate) sulfate monohydrate'
_symmetry_cell_setting           orthorhombic
_symmetry_space_group_name_H-M   'P c a 21'
_symmetry_Int_Tables_number      29
_space_group_name_Hall           'P 2c -2ac'
loop_
_symmetry_equiv_pos_site_id
_symmetry_equiv_pos_as_xyz
1 x,y,z
2 -x,-y,1/2+z
3 1/2-x,y,1/2+z
4 1/2+x,-y,z
_cell_length_a                   20.5271(4)
_cell_length_b                   8.39090(10)
_cell_length_c                   16.6116(2)
_cell_angle_alpha                90
_cell_angle_beta                 90
_cell_angle_gamma                90
_cell_volume                     2861.2
_exptl_crystal_colour            colorless
_cell_formula_units_Z            4
loop_
_atom_site_label
_atom_site_type_symbol
_atom_site_fract_x
_atom_site_fract_y
_atom_site_fract_z
N1 N 0.96508(17) 0.6080(4) 0.74180(18)
C1 C 1.01705(19) 0.6259(4) 0.6787(2)
H1 H 0.9832(18) 0.581(4) 0.791(2)
N2 N 1.09616(18) 0.4197(4) 0.73104(18)
C2 C 1.0562(2) 0.4772(4) 0.6609(2)
H3 H 0.9464(19) 0.691(5) 0.754(2)
N3 N 1.14030(17) 0.1003(4) 0.80940(19)
C3 C 1.14868(19) 0.3053(4) 0.7032(2)
H4 H 1.071(2) 0.367(5) 0.765(3)
N4 N 1.06109(15) 0.0147(4) 0.95692(19)
C4 C 1.1830(2) 0.2260(5) 0.7724(2)
H5 H 1.118(2) 0.507(5) 0.750(2)
N5 N 0.91787(15) 0.0918(4) 0.95143(18)
C5 C 1.16691(19) 0.0256(5) 0.8845(2)
H6 H 1.102(2) 0.145(4) 0.818(2)
N6 N 0.88711(16) 0.3927(4) 0.85909(18)
C6 C 1.1169(2) -0.0813(4) 0.9236(2)
H7 H 1.136(2) 0.027(5) 0.772(3)
C7 C 1.00817(19) -0.0851(4) 0.9933(2)
H8 H 1.040(2) 0.082(5) 0.914(3)
C8 C 0.9525(2) 0.0201(5) 1.0216(2)
H9 H 1.078(2) 0.085(5) 0.992(3)
C9 C 0.86457(19) 0.2069(4) 0.9731(2)
H10 H 0.950(2) 0.152(5) 0.915(3)
C10 C 0.83736(19) 0.2854(5) 0.8982(2)
H11 H 0.898(2) 0.016(5) 0.927(2)
C11 C 0.8607(2) 0.4740(5) 0.7843(2)
H12 H 0.932(3) 0.333(6) 0.843(3)
C12 C 0.91205(19) 0.4936(4) 0.7190(2)
H13 H 0.898(2) 0.459(6) 0.898(3)
H15 H 0.993(2) 0.656(5) 0.624(2)
H16 H 1.0487(16) 0.712(4) 0.698(2)
H17 H 1.027(2) 0.401(4) 0.644(2)
H18 H 1.089(2) 0.504(5) 0.615(2)
H19 H 1.1263(19) 0.234(4) 0.668(2)
H20 H 1.1803(17) 0.368(4) 0.674(2)
H21 H 1.2200(19) 0.181(4) 0.758(2)
H22 H 1.198(2) 0.292(5) 0.816(3)
H23 H 1.1820(18) 0.121(5) 0.916(2)
H24 H 1.2064(19) -0.039(4) 0.870(2)
H25 H 1.138(2) -0.144(4) 0.969(2)
H26 H 1.0979(18) -0.160(4) 0.892(2)
H27 H 1.0259(17) -0.143(4) 1.041(2)
H28 H 0.9959(18) -0.154(5) 0.955(2)
H29 H 0.923(2) -0.046(6) 1.046(3)
H30 H 0.9664(18) 0.101(4) 1.051(2)
H31 H 0.8286(18) 0.149(4) 0.998(2)
H32 H 0.8825(18) 0.289(5) 1.013(2)
H33 H 0.8288(18) 0.203(4) 0.859(2)
H34 H 0.8009(18) 0.348(4) 0.912(2)
H35 H 0.8300(19) 0.410(5) 0.767(2)
H36 H 0.843(2) 0.576(6) 0.799(3)
H37 H 0.892(2) 0.529(5) 0.671(3)
H38 H 0.933(2) 0.387(5) 0.710(3)
H2 H 1.215(3) 0.501(4) 0.988(3)
O21 O 1.20010(14) 0.5921(3) 1.00974(16)
H42 H 1.226(3) 0.602(8) 1.053(2)
S2 S 0.82576(5) 0.73069(11) 0.95318(5)
O5 O 0.80851(14) 0.8438(3) 1.02517(15)
O6 O 0.76653(12) 0.6500(3) 0.92878(15)
O7 O 0.85064(17) 0.8376(4) 0.89204(16)
O8 O 0.87490(15) 0.6216(4) 0.98267(19)
H39 H 0.768(3) 0.796(6) 1.060(3)
S3 S 1.05080(4) 0.45277(10) 0.94468(5)
O9 O 1.07709(13) 0.5554(3) 1.01576(14)
O10 O 1.10438(13) 0.3569(3) 0.91469(14)
O11 O 1.02739(14) 0.5659(3) 0.88370(15)
O12 O 0.99746(12) 0.3602(3) 0.97822(15)
H40 H 1.1257(6) 0.567(7) 1.015(4)
S4 S 0.83760(4) 0.85600(10) 0.62575(5)
O13 O 0.84602(14) 0.8526(3) 0.71855(14)
H14 H 0.8701 0.9284 0.7329
O14 O 0.78739(14) 0.7370(3) 0.61091(15)
O15 O 0.81709(13) 1.0168(3) 0.60218(15)
O16 O 0.89978(13) 0.8136(3) 0.59036(15)
S5 S 1.19567(4) 0.75630(10) 0.69855(6)
O17 O 1.26357(15) 0.8270(4) 0.72124(18)
O18 O 1.17648(14) 0.6745(3) 0.77219(15)
O19 O 1.20453(13) 0.6499(3) 0.63093(16)
O20 O 1.15293(14) 0.8903(3) 0.67947(16)
H41 H 1.275(3) 0.872(6) 0.686(4)
S1 S 0.97935(4) 0.07872(10) 0.75950(5)
O1 O 1.00361(13) 0.2027(3) 0.81909(13)
O2 O 0.99687(14) -0.0790(3) 0.79029(15)
O3 O 1.00706(14) 0.1129(3) 0.68153(15)
O4 O 0.90745(12) 0.0973(3) 0.75922(16)
loop_
_geom_bond_atom_site_label_1
_geom_bond_atom_site_label_2
_geom_bond_site_symmetry_1
_geom_bond_site_symmetry_2
S1 O1 1_555 1_555
N1 C1 1_555 1_555
C1 C2 1_555 1_555
H1 N1 1_555 1_555
H2 O21 1_555 1_555
S2 O5 1_555 1_555
O2 S1 1_555 1_555
N2 C2 1_555 1_555
C2 H17 1_555 1_555
H3 N1 1_555 1_555
S3 O9 1_555 1_555
O3 S1 1_555 1_555
N3 C4 1_555 1_555
C3 N2 1_555 1_555
H4 N2 1_555 1_555
S4 O13 1_555 1_555
O4 S1 1_555 1_555
N4 C6 1_555 1_555
C4 C3 1_555 1_555
H5 N2 1_555 1_555
S5 O17 1_555 1_555
O5 H39 1_555 1_555
N5 C8 1_555 1_555
C5 N3 1_555 1_555
H6 N3 1_555 1_555
O6 S2 1_555 1_555
N6 C10 1_555 1_555
C6 C5 1_555 1_555
H7 N3 1_555 1_555
O7 S2 1_555 1_555
C7 N4 1_555 1_555
H8 N4 1_555 1_555
O8 S2 1_555 1_555
C8 C7 1_555 1_555
H9 N4 1_555 1_555
O9 H40 1_555 1_555
C9 N5 1_555 1_555
H10 N5 1_555 1_555
O10 S3 1_555 1_555
C10 C9 1_555 1_555
H11 N5 1_555 1_555
O11 S3 1_555 1_555
C11 N6 1_555 1_555
H12 N6 1_555 1_555
O12 S3 1_555 1_555
C12 N1 1_555 1_555
H13 N6 1_555 1_555
O13 H14 1_555 1_555
H15 C1 1_555 1_555
O14 S4 1_555 1_555
H16 C1 1_555 1_555
O15 S4 1_555 1_555
O16 S4 1_555 1_555
H18 C2 1_555 1_555
O17 H41 1_555 1_555
H19 C3 1_555 1_555
O18 S5 1_555 1_555
H20 C3 1_555 1_555
O19 S5 1_555 1_555
H21 C4 1_555 1_555
O20 S5 1_555 1_555
H22 C4 1_555 1_555
H23 C5 1_555 1_555
H24 C5 1_555 1_555
H25 C6 1_555 1_555
H26 C6 1_555 1_555
H27 C7 1_555 1_555
H28 C7 1_555 1_555
H29 C8 1_555 1_555
H30 C8 1_555 1_555
H31 C9 1_555 1_555
H32 C9 1_555 1_555
H33 C10 1_555 1_555
H34 C10 1_555 1_555
H35 C11 1_555 1_555
H36 C11 1_555 1_555
H37 C12 1_555 1_555
H38 C12 1_555 1_555
O21 H42 1_555 1_555
C11 C12 1_555 1_555

#END
