
#######################################################################
#
#                 Cambridge Crystallographic Data Centre
#                                CCDC 
#
#######################################################################
#
# If this CIF has been generated from an entry in the Cambridge 
# Structural Database, then it will include bibliographic, chemical, 
# crystal, experimental, refinement or atomic coordinate data resulting 
# from the CCDC's data processing and validation procedures.
#
#######################################################################

data_FAZCOB
_chemical_formula_moiety         'C29 H23 N2 O3 P1'
_chemical_name_systematic        
N-(5-(diphenylphosphoryl)-2-methoxyquinolin-8-yl)benzamide
_symmetry_cell_setting           triclinic
_symmetry_space_group_name_H-M   'P -1'
_symmetry_Int_Tables_number      2
_space_group_name_Hall           '-P 1'
loop_
_symmetry_equiv_pos_site_id
_symmetry_equiv_pos_as_xyz
1 x,y,z
2 -x,-y,-z
_cell_length_a                   9.5853(9)
_cell_length_b                   9.8739(8)
_cell_length_c                   14.7007(14)
_cell_angle_alpha                103.110(8)
_cell_angle_beta                 94.035(8)
_cell_angle_gamma                114.371(8)
_cell_volume                     1213.06
_exptl_crystal_colour            colorless
_exptl_crystal_description       prism
_cell_formula_units_Z            2
loop_
_atom_site_label
_atom_site_type_symbol
_atom_site_fract_x
_atom_site_fract_y
_atom_site_fract_z
C1 C 0.2116(2) 0.6984(3) 0.89656(15)
C2 C 0.1021(3) 0.7084(3) 0.95211(17)
H1 H 0.0313 0.6201 0.9652
C3 C 0.0981(3) 0.8476(4) 0.98756(19)
H2 H 0.0249 0.8532 1.0247
C4 C 0.2019(3) 0.9788(4) 0.9683(2)
H3 H 0.1988 1.0729 0.9923
C5 C 0.3102(4) 0.9707(3) 0.9138(3)
H4 H 0.3803 1.0595 0.9007
C6 C 0.3155(3) 0.8309(3) 0.8781(2)
H5 H 0.3895 0.8263 0.8414
C7 C 0.4035(2) 0.5531(2) 0.82471(15)
C8 C 0.4285(3) 0.5516(3) 0.73333(17)
H6 H 0.3462 0.5285 0.6858
C9 C 0.5749(3) 0.5843(3) 0.7120(2)
H7 H 0.5906 0.5818 0.6500
C10 C 0.6978(3) 0.6206(3) 0.7825(3)
H8 H 0.7967 0.6442 0.7683
C11 C 0.6746(3) 0.6219(3) 0.8730(2)
H9 H 0.7574 0.6449 0.9202
C12 C 0.5286(3) 0.5892(3) 0.89468(17)
H10 H 0.5137 0.5914 0.9567
C13 C 0.0740(2) 0.4038(2) 0.75003(15)
C14 C 0.0082(3) 0.4730(3) 0.70187(17)
H11 H 0.0380 0.5785 0.7263
C15 C -0.1021(3) 0.3919(3) 0.61746(18)
H12 H -0.1440 0.4431 0.5868
C16 C -0.1479(2) 0.2361(2) 0.58038(16)
C17 C -0.0811(2) 0.1590(2) 0.62626(15)
C18 C 0.0295(2) 0.2418(2) 0.71136(15)
C19 C 0.0886(3) 0.1548(3) 0.75280(18)
H13 H 0.1624 0.2035 0.8087
C20 C 0.0380(3) 0.0009(3) 0.71129(19)
H14 H 0.0760 -0.0566 0.7382
C21 C -0.0735(3) -0.0696(3) 0.62632(17)
C22 C -0.2362(3) -0.2993(3) 0.50413(18)
H15 H -0.1956 -0.2552 0.4544
H16 H -0.3276 -0.2854 0.5151
H17 H -0.2628 -0.4080 0.4857
C23 C -0.3509(3) 0.1722(3) 0.44111(17)
C24 C -0.4538(2) 0.0400(3) 0.35647(16)
C25 C -0.4418(3) -0.0980(3) 0.3282(2)
H18 H -0.3677 -0.1133 0.3633
C26 C -0.5393(4) -0.2129(3) 0.2483(2)
H19 H -0.5299 -0.3048 0.2296
C27 C -0.6496(3) -0.1925(4) 0.1967(2)
H20 H -0.7159 -0.2707 0.1433
C28 C -0.6619(3) -0.0567(4) 0.2237(2)
H21 H -0.7363 -0.0422 0.1882
C29 C -0.5648(3) 0.0593(3) 0.30323(18)
H22 H -0.5743 0.1513 0.3210
N1 N -0.1309(2) 0.0035(2) 0.58461(13)
N2 N -0.2569(2) 0.1410(2) 0.49735(14)
O1 O 0.1900(2) 0.4326(2) 0.93411(12)
O2 O -0.1205(2) -0.22363(18) 0.58969(13)
O3 O -0.3527(3) 0.2979(2) 0.45708(15)
P1 P 0.21614(6) 0.51343(7) 0.85862(4)
H23 H -0.262(3) 0.051(3) 0.4865(17)
loop_
_geom_bond_atom_site_label_1
_geom_bond_atom_site_label_2
_geom_bond_site_symmetry_1
_geom_bond_site_symmetry_2
C1 C2 1_555 1_555
C2 H1 1_555 1_555
C3 C2 1_555 1_555
H2 C3 1_555 1_555
C4 C3 1_555 1_555
H3 C4 1_555 1_555
C5 C4 1_555 1_555
H4 C5 1_555 1_555
C6 C1 1_555 1_555
H5 C6 1_555 1_555
C7 C8 1_555 1_555
C8 H6 1_555 1_555
C9 C8 1_555 1_555
H7 C9 1_555 1_555
C10 C9 1_555 1_555
H8 C10 1_555 1_555
C11 C10 1_555 1_555
H9 C11 1_555 1_555
C12 C7 1_555 1_555
H10 C12 1_555 1_555
C13 C14 1_555 1_555
C14 H11 1_555 1_555
C15 C14 1_555 1_555
H12 C15 1_555 1_555
C16 C15 1_555 1_555
C17 C16 1_555 1_555
C18 C13 1_555 1_555
C19 C18 1_555 1_555
H13 C19 1_555 1_555
C20 C19 1_555 1_555
H14 C20 1_555 1_555
C21 C20 1_555 1_555
C22 H15 1_555 1_555
H16 C22 1_555 1_555
H17 C22 1_555 1_555
C23 C24 1_555 1_555
C24 C25 1_555 1_555
C25 H18 1_555 1_555
C26 C25 1_555 1_555
H19 C26 1_555 1_555
C27 C26 1_555 1_555
H20 C27 1_555 1_555
C28 C27 1_555 1_555
H21 C28 1_555 1_555
C29 C24 1_555 1_555
H22 C29 1_555 1_555
N1 C17 1_555 1_555
N2 C16 1_555 1_555
O1 P1 1_555 1_555
O2 C21 1_555 1_555
O3 C23 1_555 1_555
P1 C1 1_555 1_555
H23 N2 1_555 1_555
C5 C6 1_555 1_555
C7 P1 1_555 1_555
C11 C12 1_555 1_555
C13 P1 1_555 1_555
C17 C18 1_555 1_555
C21 N1 1_555 1_555
C22 O2 1_555 1_555
C23 N2 1_555 1_555
C28 C29 1_555 1_555

#END
