
#######################################################################
#
#                 Cambridge Crystallographic Data Centre
#                                CCDC 
#
#######################################################################
#
# If this CIF has been generated from an entry in the Cambridge 
# Structural Database, then it will include bibliographic, chemical, 
# crystal, experimental, refinement or atomic coordinate data resulting 
# from the CCDC's data processing and validation procedures.
#
#######################################################################

data_FAZJAU
_chemical_formula_moiety         'C34 H27 N1 O2'
_chemical_name_systematic        
2-methoxy-6-({[4-(triphenylethenyl)phenyl]imino}methyl)phenol
_symmetry_cell_setting           monoclinic
_symmetry_space_group_name_H-M   'P 21/c'
_symmetry_Int_Tables_number      14
_space_group_name_Hall           '-P 2ybc'
loop_
_symmetry_equiv_pos_site_id
_symmetry_equiv_pos_as_xyz
1 x,y,z
2 -x,1/2+y,1/2-z
3 -x,-y,-z
4 x,1/2-y,1/2+z
_cell_length_a                   16.0429(8)
_cell_length_b                   15.4802(8)
_cell_length_c                   10.7330(5)
_cell_angle_alpha                90
_cell_angle_beta                 103.056(2)
_cell_angle_gamma                90
_cell_volume                     2596.61
_exptl_crystal_colour            orange
_exptl_crystal_description       block
_cell_formula_units_Z            4
loop_
_atom_site_label
_atom_site_type_symbol
_atom_site_fract_x
_atom_site_fract_y
_atom_site_fract_z
O1 O 0.13639(11) 0.81840(10) 0.73749(15)
H1 H 0.1590 0.7704 0.7292
O2 O 0.07985(11) 0.97780(11) 0.74033(17)
N1 N 0.21629(12) 0.70103(12) 0.62990(18)
C1 C 0.14374(14) 0.87114(15) 0.6394(2)
C2 C 0.11411(15) 0.95624(15) 0.6391(2)
C3 C 0.12103(16) 1.01086(16) 0.5402(3)
H2 H 0.1009 1.0686 0.5393
C4 C 0.15715(18) 0.98190(18) 0.4426(3)
H3 H 0.1626 1.0203 0.3759
C5 C 0.18516(16) 0.89843(17) 0.4409(3)
H4 H 0.2087 0.8790 0.3722
C6 C 0.17926(14) 0.84190(15) 0.5395(2)
C7 C 0.0546(2) 1.06697(18) 0.7488(3)
H5 H 0.0091 1.0814 0.6742
H6 H 0.1040 1.1047 0.7512
H7 H 0.0336 1.0752 0.8269
C8 C 0.21225(14) 0.75444(15) 0.5379(2)
H8 H 0.2318 0.7361 0.4650
C9 C 0.25042(13) 0.61647(14) 0.6188(2)
C10 C 0.21564(14) 0.56187(14) 0.5178(2)
H9 H 0.1707 0.5817 0.4503
C11 C 0.24661(13) 0.47811(14) 0.5154(2)
H10 H 0.2215 0.4407 0.4470
C12 C 0.31403(13) 0.44823(13) 0.6118(2)
C13 C 0.35057(14) 0.50584(14) 0.7082(2)
H11 H 0.3989 0.4881 0.7717
C14 C 0.31850(14) 0.58811(14) 0.7141(2)
H12 H 0.3430 0.6252 0.7831
C15 C 0.34585(13) 0.35736(14) 0.61716(19)
C16 C 0.29344(13) 0.28812(14) 0.60956(19)
C17 C 0.44111(13) 0.34813(13) 0.6391(2)
C18 C 0.48478(14) 0.38592(14) 0.5545(2)
H13 H 0.4540 0.4181 0.4835
C19 C 0.57269(15) 0.37696(15) 0.5730(2)
H14 H 0.6016 0.4018 0.5136
C20 C 0.61836(14) 0.33212(15) 0.6774(2)
H15 H 0.6786 0.3263 0.6902
C21 C 0.57615(14) 0.29570(14) 0.7634(2)
H16 H 0.6075 0.2655 0.8361
C22 C 0.48790(14) 0.30327(14) 0.7437(2)
H17 H 0.4592 0.2774 0.8025
C23 C 0.32647(13) 0.19778(14) 0.6135(2)
C24 C 0.37791(16) 0.16970(15) 0.5331(2)
H18 H 0.3908 0.2080 0.4709
C25 C 0.41062(17) 0.08653(16) 0.5427(2)
H19 H 0.4464 0.0685 0.4881
C26 C 0.39128(16) 0.02971(16) 0.6315(3)
H20 H 0.4140 -0.0272 0.6383
C27 C 0.33902(15) 0.05578(15) 0.7100(2)
H21 H 0.3253 0.0167 0.7706
C28 C 0.30651(14) 0.13902(15) 0.7006(2)
H22 H 0.2700 0.1563 0.7545
C29 C 0.19937(14) 0.29562(13) 0.6007(2)
C30 C 0.14173(15) 0.25367(15) 0.5026(2)
H23 H 0.1626 0.2207 0.4414
C31 C 0.05427(15) 0.25973(17) 0.4934(3)
H24 H 0.0156 0.2318 0.4252
C32 C 0.02328(16) 0.30575(17) 0.5821(3)
H25 H -0.0366 0.3092 0.5760
C33 C 0.07935(16) 0.34711(17) 0.6803(3)
H26 H 0.0579 0.3792 0.7418
C34 C 0.16722(15) 0.34211(15) 0.6899(2)
H27 H 0.2054 0.3707 0.7580
loop_
_geom_bond_atom_site_label_1
_geom_bond_atom_site_label_2
_geom_bond_site_symmetry_1
_geom_bond_site_symmetry_2
O1 H1 1_555 1_555
O2 C2 1_555 1_555
N1 C8 1_555 1_555
C1 O1 1_555 1_555
C2 C1 1_555 1_555
C3 C2 1_555 1_555
H2 C3 1_555 1_555
C4 C3 1_555 1_555
H3 C4 1_555 1_555
C5 C4 1_555 1_555
H4 C5 1_555 1_555
C6 C1 1_555 1_555
C7 O2 1_555 1_555
H5 C7 1_555 1_555
H6 C7 1_555 1_555
H7 C7 1_555 1_555
C8 C6 1_555 1_555
H8 C8 1_555 1_555
C9 N1 1_555 1_555
C10 C9 1_555 1_555
H9 C10 1_555 1_555
C11 C10 1_555 1_555
H10 C11 1_555 1_555
C12 C11 1_555 1_555
C13 C12 1_555 1_555
H11 C13 1_555 1_555
C14 C9 1_555 1_555
H12 C14 1_555 1_555
C15 C12 1_555 1_555
C16 C15 1_555 1_555
C17 C15 1_555 1_555
C18 C17 1_555 1_555
H13 C18 1_555 1_555
C19 C18 1_555 1_555
H14 C19 1_555 1_555
C20 C19 1_555 1_555
H15 C20 1_555 1_555
C21 C20 1_555 1_555
H16 C21 1_555 1_555
C22 C17 1_555 1_555
H17 C22 1_555 1_555
C23 C16 1_555 1_555
C24 C23 1_555 1_555
H18 C24 1_555 1_555
C25 C24 1_555 1_555
H19 C25 1_555 1_555
C26 C25 1_555 1_555
H20 C26 1_555 1_555
C27 C26 1_555 1_555
H21 C27 1_555 1_555
C28 C23 1_555 1_555
H22 C28 1_555 1_555
C29 C16 1_555 1_555
C30 C29 1_555 1_555
H23 C30 1_555 1_555
C31 C30 1_555 1_555
H24 C31 1_555 1_555
C32 C31 1_555 1_555
H25 C32 1_555 1_555
C33 C32 1_555 1_555
H26 C33 1_555 1_555
C34 C29 1_555 1_555
H27 C34 1_555 1_555
C5 C6 1_555 1_555
C13 C14 1_555 1_555
C21 C22 1_555 1_555
C27 C28 1_555 1_555
C33 C34 1_555 1_555

#END
