
#######################################################################
#
#                 Cambridge Crystallographic Data Centre
#                                CCDC 
#
#######################################################################
#
# If this CIF has been generated from an entry in the Cambridge 
# Structural Database, then it will include bibliographic, chemical, 
# crystal, experimental, refinement or atomic coordinate data resulting 
# from the CCDC's data processing and validation procedures.
#
#######################################################################

data_FAZLUN
_chemical_formula_moiety         'C19 H26 O7'
_chemical_name_systematic        
'cis-Ethyl 4-(2-(ethoxycarbonyl)-ethyl)-2-oxo-bicyclo(4.4.0)decane-5-carboxylate-4,1-carbolactone'
_symmetry_cell_setting           monoclinic
_symmetry_space_group_name_H-M   'P 21/n'
_symmetry_Int_Tables_number      14
_space_group_name_Hall           '-P 2yn'
loop_
_symmetry_equiv_pos_site_id
_symmetry_equiv_pos_as_xyz
1 x,y,z
2 1/2-x,1/2+y,1/2-z
3 -x,-y,-z
4 1/2+x,1/2-y,1/2+z
_cell_length_a                   13.698(5)
_cell_length_b                   6.561(3)
_cell_length_c                   21.496(8)
_cell_angle_alpha                90
_cell_angle_beta                 94.51(3)
_cell_angle_gamma                90
_cell_volume                     1925.92
_chemical_melting_point          118deg.C
_cell_formula_units_Z            4
loop_
_atom_site_label
_atom_site_type_symbol
_atom_site_fract_x
_atom_site_fract_y
_atom_site_fract_z
C1 C 0.4349(4) 0.3215(8) 0.8756(3)
C2 C 0.3658(4) 0.4993(8) 0.8866(3)
C3 C 0.3159(4) 0.4745(7) 0.9456(3)
C4 C 0.3363(4) 0.2593(7) 0.9736(2)
C5 C 0.3122(3) 0.0934(7) 0.9231(2)
C6 C 0.3739(4) 0.1288(7) 0.8651(2)
C7 C 0.3188(4) 0.1297(8) 0.8005(3)
C8 C 0.3918(5) 0.1493(11) 0.7504(3)
C9 C 0.4553(5) 0.3402(11) 0.7598(3)
C10 C 0.5040(4) 0.3561(9) 0.8258(3)
C11 C 0.4471(4) 0.2529(7) 0.9864(3)
C12 C 0.2850(4) 0.2320(8) 1.0327(3)
C13 C 0.2952(5) 0.0214(9) 1.0638(3)
C14 C 0.2349(7) -0.0107(14) 1.1150(4)
C15 C 0.2020(4) 0.0864(8) 0.9074(3)
C16 C 0.1764(14) -0.2352(24) 1.1911(9)
C17 C 0.1370(19) -0.3687(34) 1.1940(13)
C18 C 0.0590(4) -0.1100(10) 0.9195(3)
C19 C 0.0358(5) -0.3063(12) 0.9482(4)
O1 O 0.4958(3) 0.2957(5) 0.9350(2)
O2 O 0.4935(3) 0.2216(5) 1.0350(2)
O3 O 0.3512(3) 0.6400(6) 0.8507(2)
O4 O 0.1812(7) 0.1136(13) 1.1346(4)
O5 O 0.1523(3) 0.2201(6) 0.8830(2)
O6 O 0.2331(5) -0.1919(11) 1.1359(3)
O7 O 0.1647(3) -0.0889(5) 0.9266(2)
H1 H 0.3385 0.5765 0.9763
H2 H 0.2463 0.4927 0.9382
H3 H 0.3298 -0.0403 0.9376
H4 H 0.4124 0.0077 0.8625
H5 H 0.2735 0.2440 0.7977
H6 H 0.2795 0.0081 0.7944
H7 H 0.3564 0.1429 0.7110
H8 H 0.4343 0.0343 0.7557
H9 H 0.4995 0.3473 0.7270
H10 H 0.4098 0.4618 0.7498
H11 H 0.5572 0.2594 0.8319
H12 H 0.5350 0.4910 0.8343
H13 H 0.2184 0.258 1.0250
H14 H 0.3130 0.3280 1.0637
H15 H 0.3643 0.0003 1.0758
H16 H 0.2782 -0.0765 1.0306
H17 H 0.2298 -0.2751 1.2278
H18 H 0.1457 -0.1251 1.2075
H19 H 0.0698 -0.3399 1.2127
H20 H 0.1553 -0.4933 1.2088
H21 H 0.1233 -0.3929 1.1454
H22 H 0.0270 0.0051 0.9372
H23 H 0.0366 -0.1079 0.8745
H24 H -0.0238 -0.3302 0.9697
H25 H 0.0862 -0.3880 0.9718
H26 H 0.0231 -0.3522 0.9035
loop_
_geom_bond_atom_site_label_1
_geom_bond_atom_site_label_2
_geom_bond_site_symmetry_1
_geom_bond_site_symmetry_2
C1 C2 1_555 1_555
C2 C3 1_555 1_555
C3 C4 1_555 1_555
C4 C5 1_555 1_555
C5 C6 1_555 1_555
C6 C1 1_555 1_555
C7 C6 1_555 1_555
C8 C7 1_555 1_555
C9 C8 1_555 1_555
C10 C1 1_555 1_555
C11 C4 1_555 1_555
C12 C4 1_555 1_555
C13 C12 1_555 1_555
C14 C13 1_555 1_555
C15 C5 1_555 1_555
C16 C17 1_555 1_555
C17 H19 1_555 1_555
C18 C19 1_555 1_555
C19 H24 1_555 1_555
O1 C1 1_555 1_555
O2 C11 1_555 1_555
O3 C2 1_555 1_555
O4 C14 1_555 1_555
O5 C15 1_555 1_555
O6 C14 1_555 1_555
O7 C15 1_555 1_555
H1 C3 1_555 1_555
H2 C3 1_555 1_555
H3 C5 1_555 1_555
H4 C6 1_555 1_555
H5 C7 1_555 1_555
H6 C7 1_555 1_555
H7 C8 1_555 1_555
H8 C8 1_555 1_555
H9 C9 1_555 1_555
H10 C9 1_555 1_555
H11 C10 1_555 1_555
H12 C10 1_555 1_555
H13 C12 1_555 1_555
H14 C12 1_555 1_555
H15 C13 1_555 1_555
H16 C13 1_555 1_555
H17 C16 1_555 1_555
H18 C16 1_555 1_555
H20 C17 1_555 1_555
H21 C17 1_555 1_555
H22 C18 1_555 1_555
H23 C18 1_555 1_555
H25 C19 1_555 1_555
H26 C19 1_555 1_555
C9 C10 1_555 1_555
C11 O1 1_555 1_555
C16 O6 1_555 1_555
C18 O7 1_555 1_555

#END
