
#######################################################################
#
#                 Cambridge Crystallographic Data Centre
#                                CCDC 
#
#######################################################################
#
# If this CIF has been generated from an entry in the Cambridge 
# Structural Database, then it will include bibliographic, chemical, 
# crystal, experimental, refinement or atomic coordinate data resulting 
# from the CCDC's data processing and validation procedures.
#
#######################################################################

data_FAZSIL
_chemical_formula_moiety         'C32 H25 F3 N2 O2'
_chemical_name_systematic        
'[4-hydroxy-3,4,6-triphenyl-2-(trifluoromethyl)-3a,4,5,6-tetrahydro-3H-pyrrolo[1,2-b]pyrazol-5-yl](phenyl)methanone'
_symmetry_cell_setting           monoclinic
_symmetry_space_group_name_H-M   'C 2/c'
_symmetry_Int_Tables_number      15
_space_group_name_Hall           '-C 2yn'
loop_
_symmetry_equiv_pos_site_id
_symmetry_equiv_pos_as_xyz
1 x,y,z
2 -x,y,1/2-z
3 1/2+x,1/2+y,z
4 1/2-x,1/2+y,1/2-z
5 -x,-y,-z
6 x,-y,1/2+z
7 1/2-x,1/2-y,-z
8 1/2+x,1/2-y,1/2+z
_cell_length_a                   27.948(3)
_cell_length_b                   10.7810(12)
_cell_length_c                   21.830(2)
_cell_angle_alpha                90
_cell_angle_beta                 124.0250(10)
_cell_angle_gamma                90
_cell_volume                     5451.42
_exptl_crystal_colour            colorless
_exptl_crystal_description       block
_cell_formula_units_Z            8
loop_
_atom_site_label
_atom_site_type_symbol
_atom_site_fract_x
_atom_site_fract_y
_atom_site_fract_z
F1 F 0.08401(12) 0.5524(3) -0.08177(15)
F2 F 0.02879(12) 0.4111(3) -0.12620(12)
F3 F 0.02139(18) 0.5295(4) -0.05954(18)
O1 O 0.25335(9) 0.53896(15) 0.27278(10)
O2 O 0.13686(7) 0.47462(16) 0.15503(9)
H1 H 0.1573 0.5216 0.1898
N1 N 0.17940(7) 0.31866(18) 0.08988(9)
N2 N 0.15257(9) 0.4038(2) 0.03150(11)
C1 C 0.28532(13) 0.2615(3) 0.38016(14)
H2 H 0.2825 0.2030 0.3470
C2 C 0.30308(18) 0.2253(3) 0.45053(17)
H3 H 0.3124 0.1427 0.4645
C3 C 0.3071(3) 0.3090(4) 0.4992(2)
H4 H 0.3186 0.2840 0.5463
C4 C 0.2942(3) 0.4304(5) 0.4790(2)
H5 H 0.2973 0.4879 0.5128
C5 C 0.27657(19) 0.4688(3) 0.40913(18)
H6 H 0.2680 0.5519 0.3961
C6 C 0.27166(11) 0.3840(2) 0.35864(13)
C7 C 0.25105(10) 0.4285(2) 0.28377(12)
C8 C 0.22221(9) 0.3406(2) 0.21896(11)
H7 H 0.2345 0.2556 0.2369
C9 C 0.15516(9) 0.3499(2) 0.17757(12)
C10 C 0.23229(9) 0.3675(2) 0.15770(12)
H8 H 0.2335 0.4576 0.1527
C11 C 0.28667(9) 0.3121(2) 0.16987(13)
C12 C 0.28927(12) 0.2851(3) 0.11032(15)
H9 H 0.2570 0.2983 0.0627
C13 C 0.33935(15) 0.2386(4) 0.12030(19)
H10 H 0.3404 0.2211 0.0794
C14 C 0.38722(14) 0.2181(4) 0.1898(2)
H11 H 0.4207 0.1864 0.1962
C15 C 0.38552(12) 0.2446(3) 0.24964(18)
H12 H 0.4180 0.2314 0.2971
C16 C 0.33558(11) 0.2909(3) 0.23973(15)
H13 H 0.3348 0.3083 0.2809
C17 C 0.13140(9) 0.2960(2) 0.21943(12)
C18 C 0.14294(11) 0.1748(3) 0.24497(14)
H14 H 0.1662 0.1255 0.2369
C19 C 0.12042(13) 0.1261(3) 0.28226(15)
H15 H 0.1282 0.0443 0.2984
C20 C 0.08691(15) 0.1974(5) 0.29548(17)
H16 H 0.0721 0.1648 0.3210
C21 C 0.07536(15) 0.3165(5) 0.2711(2)
H17 H 0.0523 0.3649 0.2800
C22 C 0.09717(12) 0.3677(3) 0.23308(15)
H18 H 0.0888 0.4495 0.2169
C23 C 0.07817(10) 0.3111(3) 0.03613(13)
H19 H 0.0540 0.3550 0.0487
C24 C 0.09825(11) 0.3990(3) 0.00126(13)
C25 C 0.13713(9) 0.2789(2) 0.10682(11)
H20 H 0.1401 0.1893 0.1158
C26 C 0.04597(14) 0.2012(4) -0.01302(15)
C27 C -0.01073(15) 0.1792(5) -0.0386(2)
H21 H -0.0301 0.2326 -0.0261
C28 C -0.0398(3) 0.0744(8) -0.0844(4)
H22 H -0.0780 0.0579 -0.1019
C29 C -0.0109(5) 0.0012(10) -0.1015(4)
H23 H -0.0299 -0.0669 -0.1318
C30 C 0.0436(4) 0.0197(7) -0.0778(3)
H24 H 0.0621 -0.0346 -0.0913
C31 C 0.0731(2) 0.1208(5) -0.0327(3)
H25 H 0.1115 0.1340 -0.0157
C32 C 0.05884(14) 0.4770(4) -0.06407(18)
loop_
_geom_bond_atom_site_label_1
_geom_bond_atom_site_label_2
_geom_bond_site_symmetry_1
_geom_bond_site_symmetry_2
F1 C32 1_555 1_555
F2 C32 1_555 1_555
F3 C32 1_555 1_555
O1 C7 1_555 1_555
O2 H1 1_555 1_555
N1 N2 1_555 1_555
N2 C24 1_555 1_555
C1 H2 1_555 1_555
C2 C1 1_555 1_555
H3 C2 1_555 1_555
C3 C2 1_555 1_555
H4 C3 1_555 1_555
C4 C3 1_555 1_555
H5 C4 1_555 1_555
C5 C4 1_555 1_555
H6 C5 1_555 1_555
C6 C1 1_555 1_555
C7 C6 1_555 1_555
C8 C7 1_555 1_555
H7 C8 1_555 1_555
C9 O2 1_555 1_555
C10 N1 1_555 1_555
H8 C10 1_555 1_555
C11 C10 1_555 1_555
C12 C11 1_555 1_555
H9 C12 1_555 1_555
C13 C12 1_555 1_555
H10 C13 1_555 1_555
C14 C13 1_555 1_555
H11 C14 1_555 1_555
C15 C14 1_555 1_555
H12 C15 1_555 1_555
C16 C11 1_555 1_555
H13 C16 1_555 1_555
C17 C9 1_555 1_555
C18 C17 1_555 1_555
H14 C18 1_555 1_555
C19 C18 1_555 1_555
H15 C19 1_555 1_555
C20 C19 1_555 1_555
H16 C20 1_555 1_555
C21 C20 1_555 1_555
H17 C21 1_555 1_555
C22 C17 1_555 1_555
H18 C22 1_555 1_555
C23 H19 1_555 1_555
C24 C23 1_555 1_555
C25 N1 1_555 1_555
H20 C25 1_555 1_555
C26 C23 1_555 1_555
C27 C26 1_555 1_555
H21 C27 1_555 1_555
C28 C27 1_555 1_555
H22 C28 1_555 1_555
C29 C28 1_555 1_555
H23 C29 1_555 1_555
C30 C29 1_555 1_555
H24 C30 1_555 1_555
C31 C26 1_555 1_555
H25 C31 1_555 1_555
C32 C24 1_555 1_555
C5 C6 1_555 1_555
C8 C9 1_555 1_555
C8 C10 1_555 1_555
C9 C25 1_555 1_555
C15 C16 1_555 1_555
C21 C22 1_555 1_555
C23 C25 1_555 1_555
C30 C31 1_555 1_555

#END
