
#######################################################################
#
#                 Cambridge Crystallographic Data Centre
#                                CCDC 
#
#######################################################################
#
# If this CIF has been generated from an entry in the Cambridge 
# Structural Database, then it will include bibliographic, chemical, 
# crystal, experimental, refinement or atomic coordinate data resulting 
# from the CCDC's data processing and validation procedures.
#
#######################################################################

data_FAZSIK
_chemical_formula_moiety         'C10 H9 Cl4 N2 O1 1+,I1 1-'
_chemical_name_systematic        
'4,5,6,7-Tetrachloro-1-(2-hydroxyethyl)-3-methyl-1H-benzimidazol-3-ium iodide'
_symmetry_cell_setting           monoclinic
_symmetry_space_group_name_H-M   'P 21/c'
_symmetry_Int_Tables_number      14
_space_group_name_Hall           '-P 2ybc'
loop_
_symmetry_equiv_pos_site_id
_symmetry_equiv_pos_as_xyz
1 x,y,z
2 -x,1/2+y,1/2-z
3 -x,-y,-z
4 x,1/2-y,1/2+z
_cell_length_a                   9.2405(9)
_cell_length_b                   6.9153(7)
_cell_length_c                   22.244(2)
_cell_angle_alpha                90
_cell_angle_beta                 99.331(2)
_cell_angle_gamma                90
_cell_volume                     1402.6
_exptl_crystal_colour            colorless
_exptl_crystal_description       plate
_cell_formula_units_Z            4
loop_
_atom_site_label
_atom_site_type_symbol
_atom_site_fract_x
_atom_site_fract_y
_atom_site_fract_z
I1 I 0.118777(18) 0.17983(2) 0.319777(7)
Cl1 Cl 0.60582(6) 0.72308(9) 0.43637(3)
Cl2 Cl 0.56815(7) 0.77947(9) 0.57113(3)
Cl3 Cl 0.25871(8) 0.78399(10) 0.60804(3)
Cl4 Cl -0.02111(7) 0.75189(9) 0.51070(3)
O1 O 0.3440(2) 0.9084(3) 0.24149(9)
H1 H 0.2917 0.9791 0.2599
N1 N 0.2865(2) 0.6728(3) 0.34993(10)
N2 N 0.0682(2) 0.6946(3) 0.37535(10)
C1 C 0.1425(3) 0.6679(3) 0.32988(12)
H2 H 0.0991 0.6480 0.2886
C2 C 0.1676(3) 0.7192(3) 0.42853(11)
C3 C 0.3077(3) 0.7064(3) 0.41216(11)
C4 C 0.4329(3) 0.7277(3) 0.45579(11)
C5 C 0.4155(3) 0.7551(3) 0.51584(11)
C6 C 0.2748(3) 0.7625(4) 0.53238(11)
C7 C 0.1496(3) 0.7453(3) 0.48919(11)
C8 C -0.0928(3) 0.7041(4) 0.36562(13)
H3 H -0.1306 0.6954 0.3219
H4 H -0.1237 0.8269 0.3815
H5 H -0.1313 0.5965 0.3869
C9 C 0.3951(3) 0.6328(4) 0.30945(12)
H6 H 0.3491 0.5508 0.2751
H7 H 0.4784 0.5599 0.3324
C10 C 0.4523(3) 0.8160(4) 0.28442(13)
H8 H 0.4855 0.9061 0.3185
H9 H 0.5379 0.7842 0.2647
loop_
_geom_bond_atom_site_label_1
_geom_bond_atom_site_label_2
_geom_bond_site_symmetry_1
_geom_bond_site_symmetry_2
Cl1 C4 1_555 1_555
Cl2 C5 1_555 1_555
Cl3 C6 1_555 1_555
Cl4 C7 1_555 1_555
O1 H1 1_555 1_555
N1 C1 1_555 1_555
N2 C1 1_555 1_555
C1 H2 1_555 1_555
C2 N2 1_555 1_555
C3 N1 1_555 1_555
C4 C3 1_555 1_555
C5 C4 1_555 1_555
C6 C5 1_555 1_555
C7 C2 1_555 1_555
C8 N2 1_555 1_555
H3 C8 1_555 1_555
H4 C8 1_555 1_555
H5 C8 1_555 1_555
C9 N1 1_555 1_555
H6 C9 1_555 1_555
H7 C9 1_555 1_555
C10 O1 1_555 1_555
H8 C10 1_555 1_555
H9 C10 1_555 1_555
C2 C3 1_555 1_555
C6 C7 1_555 1_555
C9 C10 1_555 1_555

#END
