
#######################################################################
#
#                 Cambridge Crystallographic Data Centre
#                                CCDC 
#
#######################################################################
#
# If this CIF has been generated from an entry in the Cambridge 
# Structural Database, then it will include bibliographic, chemical, 
# crystal, experimental, refinement or atomic coordinate data resulting 
# from the CCDC's data processing and validation procedures.
#
#######################################################################

data_FAZSUW
_chemical_formula_moiety         'C19 H13 Cl4 N2 1+,I1 1-'
_chemical_name_systematic        
'4,5,6,7-Tetrachloro-3-methyl-1-(2-naphthylmethyl)-1H-3,1-benzimidazol-3-ium iodide'
_symmetry_cell_setting           monoclinic
_symmetry_space_group_name_H-M   'C 2/c'
_symmetry_Int_Tables_number      15
_space_group_name_Hall           '-C 2yn'
loop_
_symmetry_equiv_pos_site_id
_symmetry_equiv_pos_as_xyz
1 x,y,z
2 -x,y,1/2-z
3 1/2+x,1/2+y,z
4 1/2-x,1/2+y,1/2-z
5 -x,-y,-z
6 x,-y,1/2+z
7 1/2-x,1/2-y,-z
8 1/2+x,1/2-y,1/2+z
_cell_length_a                   24.500(3)
_cell_length_b                   12.9443(12)
_cell_length_c                   14.1288(13)
_cell_angle_alpha                90
_cell_angle_beta                 117.003(2)
_cell_angle_gamma                90
_cell_volume                     3992.26
_exptl_crystal_colour            colorless
_exptl_crystal_description       block
_cell_formula_units_Z            8
loop_
_atom_site_label
_atom_site_type_symbol
_atom_site_fract_x
_atom_site_fract_y
_atom_site_fract_z
I1 I 0.129848(9) 0.066152(15) 0.999118(15)
Cl1 Cl 0.29555(4) 0.70008(6) 0.21179(6)
Cl2 Cl 0.22190(5) 0.59993(6) -0.00836(7)
Cl3 Cl 0.01370(4) 0.78486(8) -0.04996(8)
Cl4 Cl 0.08198(6) 0.63824(8) -0.13781(7)
N1 N 0.20807(10) 0.84849(17) 0.27101(18)
N2 N 0.10973(11) 0.8789(2) 0.1790(2)
C1 C 0.31353(13) 0.9171(2) 0.3404(2)
C2 C 0.33648(13) 1.0492(2) 0.2431(2)
C3 C 0.39958(13) 1.0376(2) 0.3102(2)
C4 C 0.44186(14) 1.1006(2) 0.2936(2)
H1 H 0.4837 1.0942 0.3377
C5 C 0.21910(14) 0.7262(2) 0.1394(2)
C6 C 0.31650(13) 1.1216(2) 0.1586(2)
H2 H 0.2749 1.1284 0.1131
C7 C 0.18509(16) 0.6803(2) 0.0416(2)
C8 C 0.41897(14) 0.9608(2) 0.3913(2)
H3 H 0.4606 0.9503 0.4346
C9 C 0.09104(15) 0.7641(3) 0.0203(2)
C10 C 0.18802(13) 0.7915(2) 0.1769(2)
C11 C 0.37701(14) 0.9025(2) 0.4059(2)
H4 H 0.3902 0.8529 0.4593
C12 C 0.12189(16) 0.6986(3) -0.0173(2)
C13 C 0.35778(13) 1.1813(2) 0.1435(2)
H5 H 0.3442 1.2286 0.0880
C14 C 0.29376(13) 0.9880(2) 0.2603(2)
H6 H 0.2520 0.9962 0.2167
C15 C 0.16006(14) 0.8991(2) 0.2678(2)
H7 H 0.1616 0.9431 0.3210
C16 C 0.42073(14) 1.1713(2) 0.2118(2)
H8 H 0.4485 1.2131 0.2017
C17 C 0.12563(13) 0.8109(2) 0.1188(2)
C18 C 0.26907(13) 0.8526(2) 0.3625(2)
H9 H 0.2850 0.7829 0.3809
H10 H 0.2656 0.8814 0.4229
C19 C 0.05022(16) 0.9275(3) 0.1540(3)
H11 H 0.0536 0.9664 0.2143
H12 H 0.0196 0.8749 0.1373
H13 H 0.0388 0.9728 0.0942
loop_
_geom_bond_atom_site_label_1
_geom_bond_atom_site_label_2
_geom_bond_site_symmetry_1
_geom_bond_site_symmetry_2
Cl1 C5 1_555 1_555
Cl2 C7 1_555 1_555
Cl3 C9 1_555 1_555
Cl4 C12 1_555 1_555
N1 C10 1_555 1_555
N2 C15 1_555 1_555
C1 C11 1_555 1_555
C2 C3 1_555 1_555
C3 C4 1_555 1_555
C4 H1 1_555 1_555
C5 C7 1_555 1_555
C6 C2 1_555 1_555
H2 C6 1_555 1_555
C7 C12 1_555 1_555
C8 C3 1_555 1_555
H3 C8 1_555 1_555
C9 C12 1_555 1_555
C10 C5 1_555 1_555
C11 C8 1_555 1_555
H4 C11 1_555 1_555
C13 C6 1_555 1_555
H5 C13 1_555 1_555
C14 C1 1_555 1_555
H6 C14 1_555 1_555
C15 N1 1_555 1_555
H7 C15 1_555 1_555
C16 C4 1_555 1_555
H8 C16 1_555 1_555
C17 N2 1_555 1_555
C18 N1 1_555 1_555
H9 C18 1_555 1_555
H10 C18 1_555 1_555
C19 N2 1_555 1_555
H11 C19 1_555 1_555
H12 C19 1_555 1_555
H13 C19 1_555 1_555
C1 C18 1_555 1_555
C2 C14 1_555 1_555
C9 C17 1_555 1_555
C10 C17 1_555 1_555
C13 C16 1_555 1_555

#END
