
#######################################################################
#
#                 Cambridge Crystallographic Data Centre
#                                CCDC 
#
#######################################################################
#
# If this CIF has been generated from an entry in the Cambridge 
# Structural Database, then it will include bibliographic, chemical, 
# crystal, experimental, refinement or atomic coordinate data resulting 
# from the CCDC's data processing and validation procedures.
#
#######################################################################

data_FAZSUV
_chemical_formula_moiety         'C21 H18 N6 2+,2(F6 P1 1-),4(C2 H6 O1 S1)'
_chemical_name_systematic        
'3,6,8,11,22,25-Hexaaza-hexacyclo(11.8.4.1^3,6^.1^8,11^.0^16,24^.0^19,23^)heptacosa-1(22),4,9,13(25),14,16,18,20,23-nonaene-26,27-bis(ylium) bis(hexafluorophosphate) dimethylsulfoxide solvate'
_symmetry_cell_setting           monoclinic
_symmetry_space_group_name_H-M   'P 21/n'
_symmetry_Int_Tables_number      14
_space_group_name_Hall           '-P 2yn'
loop_
_symmetry_equiv_pos_site_id
_symmetry_equiv_pos_as_xyz
1 x,y,z
2 1/2-x,1/2+y,1/2-z
3 -x,-y,-z
4 1/2+x,1/2-y,1/2+z
_cell_length_a                   14.956(3)
_cell_length_b                   15.366(4)
_cell_length_c                   18.869(4)
_cell_angle_alpha                90
_cell_angle_beta                 112.274(4)
_cell_angle_gamma                90
_cell_volume                     4012.79
_exptl_crystal_colour            colorless
_exptl_crystal_description       plate
_cell_formula_units_Z            4
_exptl_crystal_recrystallization_method acetonitrile/dimethylsulfoxide
loop_
_atom_site_label
_atom_site_type_symbol
_atom_site_fract_x
_atom_site_fract_y
_atom_site_fract_z
S1 S 0.43040(4) 0.37610(4) 0.57087(3)
O1 O 0.50346(12) 0.33259(12) 0.54577(11)
C1 C 0.4449(2) 0.32882(19) 0.66067(16)
C2 C 0.31641(19) 0.32780(19) 0.51561(17)
H1 H 0.4437(19) 0.2687(19) 0.6557(15)
H2 H 0.507(2) 0.3474(18) 0.6973(16)
H3 H 0.398(2) 0.3505(17) 0.6752(15)
H4 H 0.321(2) 0.266(2) 0.5203(17)
H5 H 0.298(2) 0.3487(19) 0.4627(18)
H6 H 0.270(2) 0.349(2) 0.5337(18)
S2 S 0.07523(4) 0.96397(4) 0.20858(3)
O2 O 0.13611(11) 0.92642(10) 0.28550(9)
C3 C -0.00632(19) 0.87982(18) 0.15817(16)
C4 C 0.14875(19) 0.96282(18) 0.15287(15)
H7 H 0.0278(19) 0.8289(18) 0.1594(14)
H8 H -0.047(2) 0.8669(19) 0.1859(17)
H9 H -0.042(2) 0.9016(18) 0.1107(17)
H10 H 0.1730(19) 0.9048(19) 0.1549(15)
H11 H 0.196(2) 1.0025(19) 0.1744(16)
H12 H 0.110(2) 0.9815(18) 0.1022(16)
S3 S 0.42531(4) 0.93002(4) 0.24129(3)
O3 O 0.46646(13) 0.89654(12) 0.32191(9)
C5 C 0.4777(3) 0.8655(2) 0.18841(19)
C6 C 0.4880(2) 1.02858(18) 0.24058(18)
H13 H 0.546(3) 0.867(2) 0.2150(19)
H14 H 0.453(2) 0.807(2) 0.1884(17)
H15 H 0.455(2) 0.887(2) 0.1364(19)
H16 H 0.554(2) 1.0195(19) 0.2639(17)
H17 H 0.466(2) 1.070(2) 0.2654(17)
H18 H 0.471(2) 1.0448(19) 0.1887(18)
S4 S 0.82965(4) 0.69470(4) 0.20895(3)
O4 O 0.90082(12) 0.75807(12) 0.26091(9)
C7 C 0.80871(18) 0.72925(18) 0.11344(14)
C8 C 0.71502(18) 0.72526(19) 0.21015(15)
H19 H 0.7859(19) 0.7901(18) 0.1088(15)
H20 H 0.865(2) 0.7234(17) 0.1048(14)
H21 H 0.7613(19) 0.6922(17) 0.0804(15)
H22 H 0.700(2) 0.788(2) 0.1962(17)
H23 H 0.7194(18) 0.7129(16) 0.2599(16)
H24 H 0.667(2) 0.6881(18) 0.1745(16)
P1 P 0.82328(4) 0.50301(4) 0.38695(3)
F1 F 0.93193(11) 0.51560(11) 0.39516(10)
F2 F 0.79393(14) 0.47825(12) 0.29961(9)
F3 F 0.80279(13) 0.60409(10) 0.36586(9)
F4 F 0.85387(12) 0.52798(10) 0.47580(8)
F5 F 0.84532(12) 0.40278(9) 0.41032(9)
F6 F 0.71536(12) 0.49033(12) 0.38129(12)
P2 P 0.21986(4) 0.67108(4) 0.18271(3)
F7 F 0.28488(10) 0.63321(10) 0.13903(8)
F8 F 0.26621(11) 0.76510(9) 0.18497(9)
F9 F 0.13657(10) 0.69384(10) 0.10181(8)
F10 F 0.17354(10) 0.57669(9) 0.17983(8)
F11 F 0.30352(10) 0.64827(9) 0.26323(8)
F12 F 0.15446(11) 0.70838(10) 0.22564(8)
N1 N 0.91569(12) 0.16722(12) 0.50307(10)
N2 N 0.79312(13) 0.02323(12) 0.45885(10)
N3 N 0.63282(13) 0.02021(12) 0.49849(10)
N4 N 0.64507(13) 0.13005(12) 0.57185(10)
N5 N 0.74818(13) 0.25240(12) 0.60957(10)
N6 N 0.86713(13) 0.29926(12) 0.58275(10)
C9 C 0.97245(15) 0.23587(14) 0.52092(12)
C10 C 1.04821(16) 0.24969(16) 0.49505(13)
C11 C 1.06422(16) 0.18858(16) 0.44920(13)
C12 C 1.00497(15) 0.11420(15) 0.42767(12)
C13 C 1.01766(16) 0.04924(15) 0.37792(13)
C14 C 0.95805(17) -0.01918(16) 0.35594(13)
C15 C 0.88075(16) -0.02966(15) 0.38219(12)
C16 C 0.81704(17) -0.10107(15) 0.35866(13)
C17 C 0.74412(17) -0.10816(15) 0.38475(13)
C18 C 0.73534(15) -0.04476(14) 0.43527(12)
C19 C 0.86582(15) 0.03154(14) 0.43252(12)
C20 C 0.93010(15) 0.10603(14) 0.45616(11)
C21 C 0.65731(17) -0.05863(15) 0.46667(14)
C22 C 0.55210(16) 0.07190(15) 0.46314(13)
C23 C 0.55988(16) 0.14095(16) 0.50901(13)
C24 C 0.68787(16) 0.05703(14) 0.56363(12)
C25 C 0.68797(16) 0.19336(15) 0.63300(13)
C26 C 0.71837(18) 0.32970(15) 0.57002(13)
C27 C 0.79278(17) 0.35887(15) 0.55329(13)
C28 C 0.83866(16) 0.23583(15) 0.61673(12)
C29 C 0.96043(16) 0.30365(16) 0.57507(14)
H25 H 1.0839(18) 0.3029(17) 0.5097(14)
H26 H 1.1129(19) 0.1936(17) 0.4319(15)
H27 H 1.0647(18) 0.0579(15) 0.3574(14)
H28 H 0.9674(17) -0.0634(16) 0.3233(14)
H29 H 0.8270(16) -0.1414(15) 0.3251(13)
H30 H 0.7009(19) -0.1538(18) 0.3700(15)
H31 H 0.6764(19) -0.1002(17) 0.5053(15)
H32 H 0.6015(19) -0.0785(17) 0.4286(15)
H33 H 0.5058(18) 0.0557(16) 0.4177(15)
H34 H 0.5225(17) 0.1896(16) 0.5048(13)
H35 H 0.7427(16) 0.0356(14) 0.5985(13)
H36 H 0.7278(18) 0.1614(16) 0.6786(15)
H37 H 0.6407(16) 0.2262(14) 0.6396(12)
H38 H 0.658(2) 0.3498(17) 0.5608(15)
H39 H 0.7987(18) 0.4079(17) 0.5266(14)
H40 H 0.873(2) 0.1873(18) 0.6405(16)
H41 H 1.0082(19) 0.2970(17) 0.6242(16)
H42 H 0.9656(17) 0.3600(17) 0.5572(14)
loop_
_geom_bond_atom_site_label_1
_geom_bond_atom_site_label_2
_geom_bond_site_symmetry_1
_geom_bond_site_symmetry_2
S1 O1 1_555 1_555
C1 S1 1_555 1_555
C2 S1 1_555 1_555
H1 C1 1_555 1_555
H2 C1 1_555 1_555
H3 C1 1_555 1_555
H4 C2 1_555 1_555
H5 C2 1_555 1_555
H6 C2 1_555 1_555
S2 O2 1_555 1_555
C3 S2 1_555 1_555
C4 S2 1_555 1_555
H7 C3 1_555 1_555
H8 C3 1_555 1_555
H9 C3 1_555 1_555
H10 C4 1_555 1_555
H11 C4 1_555 1_555
H12 C4 1_555 1_555
S3 O3 1_555 1_555
C5 S3 1_555 1_555
C6 S3 1_555 1_555
H13 C5 1_555 1_555
H14 C5 1_555 1_555
H15 C5 1_555 1_555
H16 C6 1_555 1_555
H17 C6 1_555 1_555
H18 C6 1_555 1_555
S4 O4 1_555 1_555
C7 S4 1_555 1_555
C8 S4 1_555 1_555
H19 C7 1_555 1_555
H20 C7 1_555 1_555
H21 C7 1_555 1_555
H22 C8 1_555 1_555
H23 C8 1_555 1_555
H24 C8 1_555 1_555
P1 F1 1_555 1_555
F2 P1 1_555 1_555
F3 P1 1_555 1_555
F4 P1 1_555 1_555
F5 P1 1_555 1_555
F6 P1 1_555 1_555
P2 F7 1_555 1_555
F8 P2 1_555 1_555
F9 P2 1_555 1_555
F10 P2 1_555 1_555
F11 P2 1_555 1_555
F12 P2 1_555 1_555
N1 C9 1_555 1_555
N2 C18 1_555 1_555
N3 C21 1_555 1_555
N4 C23 1_555 1_555
N5 C25 1_555 1_555
N6 C27 1_555 1_555
C9 C10 1_555 1_555
C10 C11 1_555 1_555
C11 C12 1_555 1_555
C12 C13 1_555 1_555
C13 C14 1_555 1_555
C14 C15 1_555 1_555
C15 C16 1_555 1_555
C16 C17 1_555 1_555
C17 C18 1_555 1_555
C18 C21 1_555 1_555
C19 N2 1_555 1_555
C20 N1 1_555 1_555
C21 H31 1_555 1_555
C22 N3 1_555 1_555
C23 C22 1_555 1_555
C24 N3 1_555 1_555
C25 N4 1_555 1_555
C26 N5 1_555 1_555
C27 C26 1_555 1_555
C28 N5 1_555 1_555
C29 N6 1_555 1_555
H25 C10 1_555 1_555
H26 C11 1_555 1_555
H27 C13 1_555 1_555
H28 C14 1_555 1_555
H29 C16 1_555 1_555
H30 C17 1_555 1_555
H32 C21 1_555 1_555
H33 C22 1_555 1_555
H34 C23 1_555 1_555
H35 C24 1_555 1_555
H36 C25 1_555 1_555
H37 C25 1_555 1_555
H38 C26 1_555 1_555
H39 C27 1_555 1_555
H40 C28 1_555 1_555
H41 C29 1_555 1_555
H42 C29 1_555 1_555
N4 C24 1_555 1_555
N6 C28 1_555 1_555
C9 C29 1_555 1_555
C12 C20 1_555 1_555
C15 C19 1_555 1_555
C19 C20 1_555 1_555

#END
