
#######################################################################
#
#                 Cambridge Crystallographic Data Centre
#                                CCDC 
#
#######################################################################
#
# If this CIF has been generated from an entry in the Cambridge 
# Structural Database, then it will include bibliographic, chemical, 
# crystal, experimental, refinement or atomic coordinate data resulting 
# from the CCDC's data processing and validation procedures.
#
#######################################################################

data_FAZSUX
_chemical_formula_moiety         'C17 H13 F3 N2 O1'
_chemical_name_systematic        
phenyl[4-phenyl-3-(trifluoromethyl)-4,5-dihydro-1H-pyrazol-5-yl]methanone
_symmetry_cell_setting           orthorhombic
_symmetry_space_group_name_H-M   'P b c a'
_symmetry_Int_Tables_number      61
_space_group_name_Hall           '-P 2ac 2ab'
loop_
_symmetry_equiv_pos_site_id
_symmetry_equiv_pos_as_xyz
1 x,y,z
2 1/2-x,-y,1/2+z
3 -x,1/2+y,1/2-z
4 1/2+x,1/2-y,-z
5 -x,-y,-z
6 1/2+x,y,1/2-z
7 x,1/2-y,1/2+z
8 1/2-x,1/2+y,z
_cell_length_a                   7.367(5)
_cell_length_b                   19.893(15)
_cell_length_c                   20.426(15)
_cell_angle_alpha                90
_cell_angle_beta                 90
_cell_angle_gamma                90
_cell_volume                     2993.47
_exptl_crystal_colour            colorless
_exptl_crystal_description       block
_cell_formula_units_Z            8
loop_
_atom_site_label
_atom_site_type_symbol
_atom_site_fract_x
_atom_site_fract_y
_atom_site_fract_z
F1 F 0.1529(4) 0.14376(19) 0.5906(2)
F2 F 0.2843(4) 0.06385(18) 0.55240(13)
F3 F 0.1691(5) 0.0576(2) 0.64439(15)
O1 O 0.5733(4) 0.22440(11) 0.76943(10)
N1 N 0.5065(4) 0.08966(12) 0.68318(11)
N2 N 0.6715(4) 0.11899(11) 0.69607(12)
H1 H 0.7575 0.1008 0.7183
C1 C 0.5822(4) 0.20865(15) 0.49077(12)
H2 H 0.5076 0.2459 0.4968
C2 C 0.6546(4) 0.19531(19) 0.42911(14)
H3 H 0.6272 0.2234 0.3941
C3 C 0.7661(4) 0.14095(19) 0.41975(15)
H4 H 0.8122 0.1316 0.3784
C4 C 0.8090(5) 0.10061(17) 0.47180(17)
H5 H 0.8880 0.0646 0.4660
C5 C 0.7359(5) 0.11305(14) 0.53258(15)
H6 H 0.7643 0.0848 0.5674
C6 C 0.6202(3) 0.16721(12) 0.54271(11)
C7 C 0.5390(3) 0.17992(12) 0.61003(11)
H7 H 0.4614 0.2199 0.6090
C8 C 0.4337(4) 0.12035(13) 0.63553(12)
C9 C 0.6793(4) 0.18567(12) 0.66638(12)
H8 H 0.8007 0.1942 0.6487
C10 C 0.2625(5) 0.09523(19) 0.60673(17)
C11 C 0.6278(4) 0.24015(13) 0.71584(12)
C12 C 0.6475(3) 0.31153(12) 0.69593(12)
C13 C 0.5913(4) 0.36108(14) 0.73949(13)
H9 H 0.5402 0.3489 0.7794
C14 C 0.6106(4) 0.42790(16) 0.72397(17)
H10 H 0.5715 0.4609 0.7530
C15 C 0.6885(4) 0.44574(15) 0.66508(17)
H11 H 0.7033 0.4909 0.6547
C16 C 0.7448(4) 0.39685(16) 0.62113(15)
H12 H 0.7973 0.4092 0.5815
C17 C 0.7225(4) 0.33021(14) 0.63644(13)
H13 H 0.7580 0.2974 0.6067
loop_
_geom_bond_atom_site_label_1
_geom_bond_atom_site_label_2
_geom_bond_site_symmetry_1
_geom_bond_site_symmetry_2
F1 C10 1_555 1_555
F2 C10 1_555 1_555
F3 C10 1_555 1_555
O1 C11 1_555 1_555
N1 N2 1_555 1_555
N2 H1 1_555 1_555
C1 H2 1_555 1_555
C2 C1 1_555 1_555
H3 C2 1_555 1_555
C3 C2 1_555 1_555
H4 C3 1_555 1_555
C4 C3 1_555 1_555
H5 C4 1_555 1_555
C5 C4 1_555 1_555
H6 C5 1_555 1_555
C6 C1 1_555 1_555
C7 C6 1_555 1_555
H7 C7 1_555 1_555
C8 N1 1_555 1_555
C9 N2 1_555 1_555
H8 C9 1_555 1_555
C10 C8 1_555 1_555
C11 C9 1_555 1_555
C12 C11 1_555 1_555
C13 C12 1_555 1_555
H9 C13 1_555 1_555
C14 C13 1_555 1_555
H10 C14 1_555 1_555
C15 C14 1_555 1_555
H11 C15 1_555 1_555
C16 C15 1_555 1_555
H12 C16 1_555 1_555
C17 C12 1_555 1_555
H13 C17 1_555 1_555
C5 C6 1_555 1_555
C7 C8 1_555 1_555
C7 C9 1_555 1_555
C16 C17 1_555 1_555

#END
