
#######################################################################
#
#                 Cambridge Crystallographic Data Centre
#                                CCDC 
#
#######################################################################
#
# If this CIF has been generated from an entry in the Cambridge 
# Structural Database, then it will include bibliographic, chemical, 
# crystal, experimental, refinement or atomic coordinate data resulting 
# from the CCDC's data processing and validation procedures.
#
#######################################################################

data_FAZSOQ
_chemical_formula_moiety         'C18 H10 Cl4 N2'
_chemical_name_systematic        
4,5,6,7-Tetrachloro-1-(2-naphthylmethyl)-1H-benzimidazole
_symmetry_cell_setting           triclinic
_symmetry_space_group_name_H-M   'P -1'
_symmetry_Int_Tables_number      2
_space_group_name_Hall           '-P 1'
loop_
_symmetry_equiv_pos_site_id
_symmetry_equiv_pos_as_xyz
1 x,y,z
2 -x,-y,-z
_cell_length_a                   4.979(5)
_cell_length_b                   12.523(13)
_cell_length_c                   13.184(13)
_cell_angle_alpha                84.139(16)
_cell_angle_beta                 87.926(16)
_cell_angle_gamma                83.410(16)
_cell_volume                     812.1
_exptl_crystal_colour            colorless
_exptl_crystal_description       plate
_cell_formula_units_Z            2
loop_
_atom_site_label
_atom_site_type_symbol
_atom_site_fract_x
_atom_site_fract_y
_atom_site_fract_z
Cl1 Cl 0.17638(18) 0.17961(8) 0.90724(7)
Cl2 Cl 0.21324(18) 0.01819(8) 1.10198(7)
Cl3 Cl 0.59118(19) 0.04523(8) 1.27840(7)
Cl4 Cl 0.91900(18) 0.24842(9) 1.26794(6)
N1 N 0.5764(6) 0.3697(3) 0.9268(2)
N2 N 0.8411(6) 0.3891(3) 1.0587(2)
C1 C 0.5370(6) 0.2850(3) 0.9997(3)
C2 C 0.3821(7) 0.1988(3) 1.0057(3)
C3 C 0.3998(7) 0.1268(3) 1.0929(3)
C4 C 0.5666(7) 0.1409(3) 1.1743(3)
C5 C 0.7160(7) 0.2274(3) 1.1693(3)
C6 C 0.7033(7) 0.2999(3) 1.0817(3)
C7 C 0.7590(7) 0.4275(3) 0.9667(3)
H1 H 0.8210 0.4901 0.9309
C8 C 0.4660(7) 0.3974(3) 0.8239(3)
H2 H 0.3961 0.4750 0.8155
H3 H 0.3133 0.3550 0.8162
C9 C 0.6796(7) 0.3743(3) 0.7421(3)
C10 C 0.7317(7) 0.2749(4) 0.7086(3)
H4 H 0.6305 0.2185 0.7363
C11 C 0.9386(8) 0.2537(4) 0.6315(3)
C12 C 0.9914(8) 0.1526(4) 0.5944(3)
H5 H 0.8919 0.0951 0.6204
C13 C 1.1883(8) 0.1370(4) 0.5199(3)
H6 H 1.2230 0.0680 0.4951
C14 C 1.3398(8) 0.2199(4) 0.4795(3)
H7 H 1.4751 0.2069 0.4281
C15 C 1.2917(8) 0.3190(4) 0.5142(3)
H8 H 1.3956 0.3749 0.4874
C16 C 1.0837(8) 0.3404(4) 0.5917(3)
C17 C 1.0263(8) 0.4420(4) 0.6272(3)
H9 H 1.1261 0.4994 0.6007
C18 C 0.8272(8) 0.4596(4) 0.6998(3)
H10 H 0.7872 0.5295 0.7223
loop_
_geom_bond_atom_site_label_1
_geom_bond_atom_site_label_2
_geom_bond_site_symmetry_1
_geom_bond_site_symmetry_2
Cl1 C2 1_555 1_555
Cl2 C3 1_555 1_555
Cl3 C4 1_555 1_555
Cl4 C5 1_555 1_555
N1 C1 1_555 1_555
N2 C6 1_555 1_555
C1 C2 1_555 1_555
C2 C3 1_555 1_555
C3 C4 1_555 1_555
C4 C5 1_555 1_555
C5 C6 1_555 1_555
C6 C1 1_555 1_555
C7 N1 1_555 1_555
H1 C7 1_555 1_555
C8 N1 1_555 1_555
H2 C8 1_555 1_555
H3 C8 1_555 1_555
C9 C8 1_555 1_555
C10 C9 1_555 1_555
H4 C10 1_555 1_555
C11 C10 1_555 1_555
C12 C11 1_555 1_555
H5 C12 1_555 1_555
C13 C12 1_555 1_555
H6 C13 1_555 1_555
C14 C13 1_555 1_555
H7 C14 1_555 1_555
C15 C14 1_555 1_555
H8 C15 1_555 1_555
C16 C11 1_555 1_555
C17 C16 1_555 1_555
H9 C17 1_555 1_555
C18 C9 1_555 1_555
H10 C18 1_555 1_555
N2 C7 1_555 1_555
C15 C16 1_555 1_555
C17 C18 1_555 1_555

#END
