
#######################################################################
#
#                 Cambridge Crystallographic Data Centre
#                                CCDC 
#
#######################################################################
#
# If this CIF has been generated from an entry in the Cambridge 
# Structural Database, then it will include bibliographic, chemical, 
# crystal, experimental, refinement or atomic coordinate data resulting 
# from the CCDC's data processing and validation procedures.
#
#######################################################################

data_FAZTAE
_chemical_formula_moiety         'C17 H13 F3 N2 O1'
_chemical_name_systematic        
phenyl[4-phenyl-5-(trifluoromethyl)-4,5-dihydro-1H-pyrazol-3-yl]methanone
_symmetry_cell_setting           orthorhombic
_symmetry_space_group_name_H-M   'P b c a'
_symmetry_Int_Tables_number      61
_space_group_name_Hall           '-P 2ac 2ab'
loop_
_symmetry_equiv_pos_site_id
_symmetry_equiv_pos_as_xyz
1 x,y,z
2 1/2-x,-y,1/2+z
3 -x,1/2+y,1/2-z
4 1/2+x,1/2-y,-z
5 -x,-y,-z
6 1/2+x,y,1/2-z
7 x,1/2-y,1/2+z
8 1/2-x,1/2+y,z
_cell_length_a                   15.766(2)
_cell_length_b                   11.5833(16)
_cell_length_c                   17.044(2)
_cell_angle_alpha                90
_cell_angle_beta                 90
_cell_angle_gamma                90
_cell_volume                     3112.61
_exptl_crystal_colour            colorless
_exptl_crystal_description       block
_cell_formula_units_Z            8
loop_
_atom_site_label
_atom_site_type_symbol
_atom_site_fract_x
_atom_site_fract_y
_atom_site_fract_z
F1 F 0.45404(9) 0.42422(14) 0.21971(10)
F2 F 0.46840(8) 0.25036(14) 0.17873(9)
F3 F 0.38138(11) 0.36454(17) 0.12237(8)
O1 O 0.12169(9) 0.48276(12) 0.17716(10)
N1 N 0.30086(11) 0.19461(15) 0.22010(13)
H1 H 0.3218 0.1263 0.2241
N2 N 0.22493(10) 0.21700(15) 0.18804(11)
C1 C 0.18633(18) 0.3378(2) 0.37394(15)
H2 H 0.1591 0.2793 0.3464
C2 C 0.1689(2) 0.3540(3) 0.4528(2)
H3 H 0.1300 0.3060 0.4778
C3 C 0.2078(2) 0.4389(3) 0.49410(18)
H4 H 0.1967 0.4480 0.5473
C4 C 0.2632(2) 0.5109(3) 0.45713(18)
H5 H 0.2891 0.5704 0.4848
C5 C 0.28077(15) 0.4954(2) 0.37786(15)
H6 H 0.3183 0.5452 0.3528
C6 C 0.24361(12) 0.40775(17) 0.33626(11)
C7 C 0.27003(11) 0.38523(16) 0.25219(11)
H7 H 0.2863 0.4577 0.2267
C8 C 0.34355(11) 0.29718(16) 0.24713(12)
H8 H 0.3676 0.2840 0.2994
C9 C 0.41166(14) 0.3336(2) 0.19155(13)
C10 C 0.20435(11) 0.32288(16) 0.20319(11)
C11 C 0.12847(12) 0.37766(17) 0.17148(12)
C12 C 0.06122(11) 0.31076(16) 0.13005(11)
C13 C 0.04286(12) 0.19621(18) 0.14588(13)
H9 H 0.0749 0.1558 0.1826
C14 C -0.02291(14) 0.1419(2) 0.10723(14)
H10 H -0.0355 0.0652 0.1184
C15 C -0.06962(15) 0.2003(2) 0.05272(14)
H11 H -0.1135 0.1630 0.0265
C16 C -0.05229(15) 0.3131(2) 0.03650(14)
H12 H -0.0839 0.3524 -0.0010
C17 C 0.01221(14) 0.3687(2) 0.07576(13)
H13 H 0.0228 0.4462 0.0656
loop_
_geom_bond_atom_site_label_1
_geom_bond_atom_site_label_2
_geom_bond_site_symmetry_1
_geom_bond_site_symmetry_2
F1 C9 1_555 1_555
F2 C9 1_555 1_555
F3 C9 1_555 1_555
O1 C11 1_555 1_555
N1 H1 1_555 1_555
N2 N1 1_555 1_555
C1 H2 1_555 1_555
C2 C1 1_555 1_555
H3 C2 1_555 1_555
C3 C2 1_555 1_555
H4 C3 1_555 1_555
C4 C3 1_555 1_555
H5 C4 1_555 1_555
C5 C4 1_555 1_555
H6 C5 1_555 1_555
C6 C1 1_555 1_555
C7 C6 1_555 1_555
H7 C7 1_555 1_555
C8 N1 1_555 1_555
H8 C8 1_555 1_555
C9 C8 1_555 1_555
C10 N2 1_555 1_555
C11 C10 1_555 1_555
C12 C11 1_555 1_555
C13 C12 1_555 1_555
H9 C13 1_555 1_555
C14 C13 1_555 1_555
H10 C14 1_555 1_555
C15 C14 1_555 1_555
H11 C15 1_555 1_555
C16 C15 1_555 1_555
H12 C16 1_555 1_555
C17 C12 1_555 1_555
H13 C17 1_555 1_555
C5 C6 1_555 1_555
C7 C8 1_555 1_555
C7 C10 1_555 1_555
C16 C17 1_555 1_555

#END
