
#######################################################################
#
#                 Cambridge Crystallographic Data Centre
#                                CCDC 
#
#######################################################################
#
# If this CIF has been generated from an entry in the Cambridge 
# Structural Database, then it will include bibliographic, chemical, 
# crystal, experimental, refinement or atomic coordinate data resulting 
# from the CCDC's data processing and validation procedures.
#
#######################################################################

data_FAZTIJ
_chemical_formula_moiety         'C29 H36 O6 S2'
_chemical_name_systematic        
1,4-Epoxy-6,6-bis(methoxycarbonyl)-10-methyl-13,13-propylenedithio-14-benzyloxytricyclo(8.4.0.0^4,9^)tetradec-2-ene
_symmetry_cell_setting           monoclinic
_symmetry_space_group_name_H-M   'P 21/c'
_symmetry_Int_Tables_number      14
_space_group_name_Hall           '-P 2ybc'
loop_
_symmetry_equiv_pos_site_id
_symmetry_equiv_pos_as_xyz
1 x,y,z
2 -x,1/2+y,1/2-z
3 -x,-y,-z
4 x,1/2-y,1/2+z
_cell_length_a                   13.0094(7)
_cell_length_b                   8.5446(3)
_cell_length_c                   25.2747(8)
_cell_angle_alpha                90
_cell_angle_beta                 103.25671
_cell_angle_gamma                90
_cell_volume                     2734.67
_cell_formula_units_Z            4
loop_
_atom_site_label
_atom_site_type_symbol
_atom_site_fract_x
_atom_site_fract_y
_atom_site_fract_z
S1 S 0.11127(7) 0.49537(13) 0.04973(3)
S2 S 0.28069(7) 0.59661(12) 0.14655(3)
O1 O 0.22315(17) 0.2755(3) -0.01602(8)
O2 O 0.41743(17) 0.4029(3) 0.10535(9)
O3 O 0.01023(22) -0.0534(4) -0.16869(12)
O4 O 0.10444(22) -0.2649(3) -0.17616(11)
O5 O 0.35722(21) -0.1830(4) -0.10834(12)
O6 O 0.27490(21) -0.0178(4) -0.17346(10)
C1 C 0.2316(3) 0.4367(4) 0.09909(12)
C2 C 0.2183(3) 0.2859(5) 0.12951(13)
C3 C 0.1890(3) 0.1473(5) 0.09089(14)
C4 C 0.2740(3) 0.1067(4) 0.05993(13)
C5 C 0.2237(3) 0.0153(4) 0.00681(12)
C6 C 0.2540(3) -0.1518(4) -0.00432(14)
C7 C 0.1833(3) -0.2028(5) -0.05944(15)
C8 C 0.1822(3) -0.0867(4) -0.10738(13)
C9 C 0.1690(3) 0.0862(4) -0.09145(13)
C10 C 0.2424(3) 0.1248(4) -0.03812(12)
C11 C 0.3612(3) 0.1364(4) -0.03451(13)
C12 C 0.3997(3) 0.2201(4) 0.00956(13)
C13 C 0.3063(3) 0.2627(4) 0.03326(12)
C14 C 0.3181(3) 0.4127(4) 0.06647(12)
C15 C 0.3664(3) 0.0253(5) 0.09716(14)
C16 C 0.0260(3) 0.5550(5) 0.09335(15)
C17 C 0.0694(3) 0.6857(5) 0.13208(16)
C18 C 0.1673(3) 0.6404(5) 0.17407(15)
C19 C 0.4936(3) 0.5165(5) 0.09921(15)
C20 C 0.5794(3) 0.5241(5) 0.15049(15)
C21 C 0.5623(4) 0.4834(8) 0.20032(17)
C22 C 0.6429(4) 0.4945(8) 0.24674(18)
C23 C 0.7405(4) 0.5495(6) 0.24336(20)
C24 C 0.7576(4) 0.5895(7) 0.19393(24)
C25 C 0.6787(3) 0.5766(6) 0.14689(19)
C26 C 0.0890(3) -0.1285(5) -0.15401(14)
C27 C 0.0251(3) -0.3123(6) -0.22307(16)
C28 C 0.2825(3) -0.1049(5) -0.12862(14)
C29 C 0.3660(4) -0.0182(8) -0.19747(19)
H1 H 0.165(3) 0.302(5) 0.1503(15)
H2 H 0.286(3) 0.266(4) 0.1570(12)
H3 H 0.179(3) 0.046(4) 0.1142(14)
H4 H 0.1239(24) 0.172(4) 0.0649(12)
H5 H 0.143(3) 0.013(4) 0.0014(14)
H6 H 0.329(3) -0.156(4) -0.0057(14)
H7 H 0.241(3) -0.225(4) 0.0271(14)
H8 H 0.203(3) -0.320(5) -0.0686(14)
H9 H 0.111(3) -0.209(4) -0.0537(14)
H10 H 0.095(3) 0.100(4) -0.0881(13)
H11 H 0.1784(24) 0.154(4) -0.1218(12)
H12 H 0.3976(23) 0.075(4) -0.0569(12)
H13 H 0.474(3) 0.240(5) 0.0299(14)
H14 H 0.3179(21) 0.503(3) 0.0431(10)
H15 H 0.341(3) -0.073(5) 0.1140(15)
H16 H 0.418(3) -0.010(5) 0.0811(16)
H17 H 0.399(3) 0.093(5) 0.1287(14)
H18 H 0.007(3) 0.459(4) 0.1142(14)
H19 H -0.032(3) 0.582(5) 0.0656(15)
H20 H 0.085(3) 0.774(5) 0.1074(17)
H21 H 0.019(3) 0.712(5) 0.1520(16)
H22 H 0.196(3) 0.727(5) 0.2020(17)
H23 H 0.155(3) 0.546(4) 0.1977(14)
H24 H 0.524(3) 0.489(5) 0.0676(17)
H25 H 0.457(3) 0.625(5) 0.0922(16)
H26 H 0.501(4) 0.431(6) 0.2005(20)
H27 H 0.627(4) 0.442(6) 0.2808(20)
H28 H 0.793(4) 0.560(6) 0.2775(18)
H29 H 0.823(4) 0.634(7) 0.1882(21)
H30 H 0.689(4) 0.595(7) 0.1075(21)
H31 H 0.049(4) -0.404(7) -0.2379(22)
H32 H -0.036(4) -0.338(6) -0.2144(19)
H33 H 0.017(4) -0.234(6) -0.2465(20)
H34 H 0.344(5) 0.042(7) -0.2328(23)
H35 H 0.422(4) 0.028(6) -0.1759(18)
H36 H 0.378(6) -0.121(9) -0.205(3)
loop_
_geom_bond_atom_site_label_1
_geom_bond_atom_site_label_2
_geom_bond_site_symmetry_1
_geom_bond_site_symmetry_2
S1 C1 1_555 1_555
S2 C1 1_555 1_555
O1 C10 1_555 1_555
O2 C14 1_555 1_555
O3 C26 1_555 1_555
O4 C26 1_555 1_555
O5 C28 1_555 1_555
O6 C28 1_555 1_555
C1 C2 1_555 1_555
C2 C3 1_555 1_555
C3 C4 1_555 1_555
C4 C5 1_555 1_555
C5 C6 1_555 1_555
C6 C7 1_555 1_555
C7 C8 1_555 1_555
C8 C9 1_555 1_555
C9 C10 1_555 1_555
C10 C5 1_555 1_555
C11 C10 1_555 1_555
C12 C11 1_555 1_555
C13 O1 1_555 1_555
C14 C1 1_555 1_555
C15 C4 1_555 1_555
C16 S1 1_555 1_555
C17 C16 1_555 1_555
C18 S2 1_555 1_555
C19 O2 1_555 1_555
C20 C19 1_555 1_555
C21 C20 1_555 1_555
C22 C21 1_555 1_555
C23 C22 1_555 1_555
C24 C23 1_555 1_555
C25 C20 1_555 1_555
C26 C8 1_555 1_555
C27 O4 1_555 1_555
C28 C8 1_555 1_555
C29 O6 1_555 1_555
H1 C2 1_555 1_555
H2 C2 1_555 1_555
H3 C3 1_555 1_555
H4 C3 1_555 1_555
H5 C5 1_555 1_555
H6 C6 1_555 1_555
H7 C6 1_555 1_555
H8 C7 1_555 1_555
H9 C7 1_555 1_555
H10 C9 1_555 1_555
H11 C9 1_555 1_555
H12 C11 1_555 1_555
H13 C12 1_555 1_555
H14 C14 1_555 1_555
H15 C15 1_555 1_555
H16 C15 1_555 1_555
H17 C15 1_555 1_555
H18 C16 1_555 1_555
H19 C16 1_555 1_555
H20 C17 1_555 1_555
H21 C17 1_555 1_555
H22 C18 1_555 1_555
H23 C18 1_555 1_555
H24 C19 1_555 1_555
H25 C19 1_555 1_555
H26 C21 1_555 1_555
H27 C22 1_555 1_555
H28 C23 1_555 1_555
H29 C24 1_555 1_555
H30 C25 1_555 1_555
H31 C27 1_555 1_555
H32 C27 1_555 1_555
H33 C27 1_555 1_555
H34 C29 1_555 1_555
H35 C29 1_555 1_555
H36 C29 1_555 1_555
C4 C13 1_555 1_555
C12 C13 1_555 1_555
C13 C14 1_555 1_555
C17 C18 1_555 1_555
C24 C25 1_555 1_555

#END
