
#######################################################################
#
#                 Cambridge Crystallographic Data Centre
#                                CCDC 
#
#######################################################################
#
# If this CIF has been generated from an entry in the Cambridge 
# Structural Database, then it will include bibliographic, chemical, 
# crystal, experimental, refinement or atomic coordinate data resulting 
# from the CCDC's data processing and validation procedures.
#
#######################################################################

data_FAZTAD
_chemical_formula_moiety         'C7 H2 Cl4 N2'
_chemical_name_systematic        4,5,6,7-Tetrachloro-1H-benzimidazole
_symmetry_cell_setting           triclinic
_symmetry_space_group_name_H-M   'P -1'
_symmetry_Int_Tables_number      2
_space_group_name_Hall           '-P 1'
loop_
_symmetry_equiv_pos_site_id
_symmetry_equiv_pos_as_xyz
1 x,y,z
2 -x,-y,-z
_cell_length_a                   7.4984(19)
_cell_length_b                   15.060(4)
_cell_length_c                   16.612(4)
_cell_angle_alpha                108.611(4)
_cell_angle_beta                 94.721(4)
_cell_angle_gamma                90.265(4)
_cell_volume                     1770.85
_exptl_crystal_colour            colorless
_exptl_crystal_description       plate
_cell_formula_units_Z            8
loop_
_atom_site_label
_atom_site_type_symbol
_atom_site_fract_x
_atom_site_fract_y
_atom_site_fract_z
Cl1 Cl 0.89122(10) 0.19123(5) 1.12392(5)
Cl2 Cl 0.71774(10) 0.00140(5) 1.11889(5)
Cl3 Cl 0.62000(10) -0.15499(5) 0.94540(5)
Cl4 Cl 0.69109(11) -0.12008(5) 0.77377(5)
N1 N 0.8857(3) 0.08002(17) 0.81162(17)
N2 N 0.9651(3) 0.19259(17) 0.93585(15)
C1 C 0.9646(4) 0.1655(2) 0.85190(19)
H1 H 1.0151 0.2028 0.8224
C2 C 0.8810(4) 0.1180(2) 0.95171(19)
C3 C 0.8421(4) 0.1046(2) 1.02804(19)
C4 C 0.7618(4) 0.0197(2) 1.02516(19)
C5 C 0.7170(4) -0.0509(2) 0.9468(2)
C6 C 0.7495(4) -0.0367(2) 0.87083(19)
C7 C 0.8324(4) 0.0478(2) 0.87434(18)
H2 H 0.887(4) 0.057(2) 0.766(2)
Cl5 Cl 0.18320(10) 0.23196(5) 0.66908(5)
Cl6 Cl 0.36692(11) 0.06703(6) 0.71596(5)
Cl7 Cl 0.41592(10) -0.12335(5) 0.57517(5)
Cl8 Cl 0.28250(10) -0.14922(5) 0.38341(5)
N3 N 0.0995(3) 0.03215(17) 0.36470(15)
N4 N 0.0576(3) 0.16861(18) 0.46609(16)
C8 C 0.0338(4) 0.1168(2) 0.38283(19)
H3 H -0.0253 0.1393 0.3408
C9 C 0.1459(4) 0.1127(2) 0.50691(19)
C10 C 0.2076(4) 0.1267(2) 0.59172(18)
C11 C 0.2913(4) 0.0528(2) 0.61149(19)
C12 C 0.3147(4) -0.0330(2) 0.5480(2)
C13 C 0.2558(4) -0.04550(19) 0.46370(18)
C14 C 0.1712(4) 0.0272(2) 0.44275(18)
H4 H 0.010(6) 0.223(3) 0.485(3)
Cl9 Cl 0.84584(10) 0.59989(5) 1.13311(5)
Cl10 Cl 0.67542(11) 0.39960(6) 1.10700(5)
Cl11 Cl 0.53971(10) 0.27012(5) 0.92525(5)
Cl12 Cl 0.59285(10) 0.33458(5) 0.76572(5)
N5 N 0.7627(3) 0.53855(17) 0.82020(16)
N6 N 0.8541(3) 0.63475(18) 0.95131(16)
C15 C 0.8334(4) 0.6215(2) 0.86645(19)
H5 H 0.8668 0.6677 0.8423
C16 C 0.7893(4) 0.5535(2) 0.96166(19)
C17 C 0.7739(4) 0.5254(2) 1.03300(18)
C18 C 0.6976(4) 0.4363(2) 1.02024(18)
C19 C 0.6391(4) 0.3773(2) 0.93806(19)
C20 C 0.6580(4) 0.40552(19) 0.86756(19)
C21 C 0.7328(4) 0.4946(2) 0.87920(18)
H6 H 0.902(5) 0.685(3) 0.991(2)
Cl13 Cl 0.87215(10) 0.33156(5) 0.33977(5)
Cl14 Cl 0.70372(11) 0.51188(5) 0.31122(5)
Cl15 Cl 0.58408(10) 0.67366(5) 0.46481(5)
Cl16 Cl 0.63317(10) 0.65777(5) 0.65090(5)
N7 N 0.8943(3) 0.34616(17) 0.53617(16)
N8 N 0.8011(3) 0.46210(17) 0.64520(16)
C22 C 0.8736(4) 0.3767(2) 0.61812(19)
H7 H 0.9067 0.3418 0.6553
C23 C 0.8277(4) 0.41689(19) 0.50638(18)
C24 C 0.8077(4) 0.42281(19) 0.42393(18)
C25 C 0.7337(4) 0.5030(2) 0.41206(18)
C26 C 0.6790(4) 0.5770(2) 0.48222(19)
C27 C 0.6974(4) 0.5707(2) 0.56383(18)
C28 C 0.7701(4) 0.48941(19) 0.57424(18)
H8 H 0.786(5) 0.489(3) 0.699(3)
loop_
_geom_bond_atom_site_label_1
_geom_bond_atom_site_label_2
_geom_bond_site_symmetry_1
_geom_bond_site_symmetry_2
Cl1 C3 1_555 1_555
Cl2 C4 1_555 1_555
Cl3 C5 1_555 1_555
Cl4 C6 1_555 1_555
N1 C1 1_555 1_555
N2 C1 1_555 1_555
C1 H1 1_555 1_555
C2 N2 1_555 1_555
C3 C2 1_555 1_555
C4 C3 1_555 1_555
C5 C4 1_555 1_555
C6 C5 1_555 1_555
C7 N1 1_555 1_555
H2 N1 1_555 1_555
Cl5 C10 1_555 1_555
Cl6 C11 1_555 1_555
Cl7 C12 1_555 1_555
Cl8 C13 1_555 1_555
N3 C8 1_555 1_555
N4 C8 1_555 1_555
C8 H3 1_555 1_555
C9 N4 1_555 1_555
C10 C9 1_555 1_555
C11 C10 1_555 1_555
C12 C11 1_555 1_555
C13 C12 1_555 1_555
C14 N3 1_555 1_555
H4 N4 1_555 1_555
Cl9 C17 1_555 1_555
Cl10 C18 1_555 1_555
Cl11 C19 1_555 1_555
Cl12 C20 1_555 1_555
N5 C15 1_555 1_555
N6 C15 1_555 1_555
C15 H5 1_555 1_555
C16 N6 1_555 1_555
C17 C16 1_555 1_555
C18 C17 1_555 1_555
C19 C18 1_555 1_555
C20 C19 1_555 1_555
C21 N5 1_555 1_555
H6 N6 1_555 1_555
Cl13 C24 1_555 1_555
Cl14 C25 1_555 1_555
Cl15 C26 1_555 1_555
Cl16 C27 1_555 1_555
N7 C22 1_555 1_555
N8 C22 1_555 1_555
C22 H7 1_555 1_555
C23 N7 1_555 1_555
C24 C23 1_555 1_555
C25 C24 1_555 1_555
C26 C25 1_555 1_555
C27 C26 1_555 1_555
C28 N8 1_555 1_555
H8 N8 1_555 1_555
C2 C7 1_555 1_555
C6 C7 1_555 1_555
C9 C14 1_555 1_555
C13 C14 1_555 1_555
C16 C21 1_555 1_555
C20 C21 1_555 1_555
C23 C28 1_555 1_555
C27 C28 1_555 1_555

#END
