
#######################################################################
#
#                 Cambridge Crystallographic Data Centre
#                                CCDC 
#
#######################################################################
#
# If this CIF has been generated from an entry in the Cambridge 
# Structural Database, then it will include bibliographic, chemical, 
# crystal, experimental, refinement or atomic coordinate data resulting 
# from the CCDC's data processing and validation procedures.
#
#######################################################################

data_FAZWAH
_chemical_formula_moiety         'C19 H18 N2 O2 S1'
_chemical_name_systematic        
5-[(4-methylphenyl)sulfonyl]-2,3-dihydro-1H-pyrimido[1,2-a]quinoline
_symmetry_cell_setting           monoclinic
_symmetry_space_group_name_H-M   'P 21/n'
_symmetry_Int_Tables_number      14
_space_group_name_Hall           '-P 2yn'
loop_
_symmetry_equiv_pos_site_id
_symmetry_equiv_pos_as_xyz
1 x,y,z
2 1/2-x,1/2+y,1/2-z
3 -x,-y,-z
4 1/2+x,1/2-y,1/2+z
_cell_length_a                   7.8427(8)
_cell_length_b                   22.614(2)
_cell_length_c                   18.528(2)
_cell_angle_alpha                90
_cell_angle_beta                 93.229(2)
_cell_angle_gamma                90
_cell_volume                     3280.81
_exptl_crystal_colour            yellow
_exptl_crystal_description       prismatic
_cell_formula_units_Z            8
loop_
_atom_site_label
_atom_site_type_symbol
_atom_site_fract_x
_atom_site_fract_y
_atom_site_fract_z
S1 S -0.06178(8) 0.18120(3) 0.74249(3)
N1 N 0.0994(2) 0.19528(9) 0.95394(9)
N2 N 0.0251(3) 0.11344(10) 0.87784(11)
O1 O -0.2128(2) 0.14638(9) 0.74896(10)
O2 O -0.0711(3) 0.23146(8) 0.69436(9)
C1 C 0.0988(3) 0.29348(10) 0.90187(12)
C2 C 0.1297(3) 0.35391(11) 0.90879(14)
H1 H 0.1138 0.3784 0.8687
C3 C 0.1837(3) 0.37766(13) 0.97473(16)
H2 H 0.2042 0.4180 0.9793
C4 C 0.2069(4) 0.34082(13) 1.03384(15)
H3 H 0.2429 0.3569 1.0783
C5 C 0.1784(3) 0.28131(12) 1.02858(13)
H4 H 0.1944 0.2575 1.0693
C6 C 0.1250(3) 0.25609(11) 0.96204(12)
C7 C 0.0421(3) 0.26736(11) 0.83395(12)
H5 H 0.0257 0.2913 0.7934
C8 C 0.0127(3) 0.20949(10) 0.82805(11)
C9 C 0.0448(3) 0.16848(11) 0.88851(11)
C10 C 0.0444(6) 0.0731(3) 0.9384(3)
H6 H -0.0627 0.0702 0.9619
H7 H 0.0735 0.0341 0.9212
C11 C 0.1758(7) 0.09352(19) 0.9894(3)
H8 H 0.2843 0.0938 0.9667
H9 H 0.1854 0.0665 1.0301
C12 C 0.1365(5) 0.15689(14) 1.01701(15)
C13 C 0.1038(3) 0.13549(9) 0.71533(11)
C14 C 0.2600(3) 0.16092(10) 0.70190(12)
H10 H 0.2752 0.2016 0.7062
C15 C 0.3915(3) 0.12559(12) 0.68227(12)
H11 H 0.4967 0.1426 0.6742
C16 C 0.3710(3) 0.06504(11) 0.67423(12)
C17 C 0.2129(3) 0.04082(10) 0.68624(13)
H12 H 0.1962 0.0004 0.6801
C18 C 0.0802(3) 0.07544(10) 0.70708(12)
H13 H -0.0248 0.0584 0.7155
C19 C 0.5164(4) 0.02740(14) 0.65256(16)
H14 H 0.5217 0.0282 0.6009
H15 H 0.4994 -0.0125 0.6682
H16 H 0.6213 0.0424 0.6746
H17 H 0.244(3) 0.1666(13) 1.0404(14)
H18 H 0.048(3) 0.1641(15) 1.0479(16)
S2 S -0.04314(8) 0.15191(3) 0.23301(3)
N3 N 0.1266(2) 0.16452(9) 0.44292(9)
N4 N 0.0470(3) 0.08283(9) 0.36635(10)
O3 O -0.1947(2) 0.11697(9) 0.23829(10)
O4 O -0.0520(3) 0.20210(8) 0.18510(8)
C22 C 0.0786(3) 0.26388(11) 0.39748(12)
C23 C 0.0761(4) 0.32469(12) 0.40900(15)
H23 H 0.0483 0.3502 0.3707
C24 C 0.1149(4) 0.34717(13) 0.47699(17)
H24 H 0.1118 0.3878 0.4848
C25 C 0.1583(4) 0.30948(14) 0.53327(16)
H25 H 0.1850 0.3250 0.5790
C26 C 0.1629(3) 0.24971(13) 0.52326(13)
H26 H 0.1927 0.2250 0.5621
C27 C 0.1229(3) 0.22527(11) 0.45500(12)
C28 C 0.0359(3) 0.23869(11) 0.32795(12)
H27 H 0.0150 0.2634 0.2883
C29 C 0.0256(3) 0.18002(11) 0.31919(11)
C30 C 0.0660(3) 0.13806(11) 0.37815(11)
C31 C 0.1938(4) 0.12580(12) 0.50204(13)
H28 H 0.1095 0.1222 0.5381
H29 H 0.2958 0.1434 0.5250
C32 C 0.2357(3) 0.06547(11) 0.47388(14)
H30 H 0.3382 0.0677 0.4470
H31 H 0.2578 0.0386 0.5142
C33 C 0.0912(3) 0.04217(11) 0.42576(14)
H32 H 0.1232 0.0042 0.4062
H33 H -0.0078 0.0361 0.4539
C34 C 0.1240(3) 0.10631(10) 0.20657(11)
C35 C 0.0993(3) 0.04625(11) 0.19733(13)
H34 H -0.0057 0.0293 0.2059
C36 C 0.2318(4) 0.01159(11) 0.17522(13)
H35 H 0.2149 -0.0288 0.1685
C37 C 0.3895(3) 0.03616(12) 0.16298(13)
C38 C 0.4108(3) 0.09613(12) 0.17347(13)
H36 H 0.5165 0.1131 0.1662
C39 C 0.2785(3) 0.13170(11) 0.19464(12)
H37 H 0.2944 0.1722 0.2006
C40 C 0.5332(4) -0.00148(15) 0.13795(17)
H38 H 0.5205 -0.0064 0.0865
H39 H 0.5303 -0.0395 0.1609
H40 H 0.6404 0.0174 0.1506
C20? C 0.1196(17) 0.0742(7) 0.9369(9)
H19? H 0.2423 0.0799 0.9376
H20? H 0.0939 0.0326 0.9296
C21? C 0.0425(14) 0.0985(4) 1.0092(5)
H21? H -0.0801 0.1041 1.0034
H22? H 0.0691 0.0726 1.0500
loop_
_geom_bond_atom_site_label_1
_geom_bond_atom_site_label_2
_geom_bond_site_symmetry_1
_geom_bond_site_symmetry_2
S1 O1 1_555 1_555
N1 C6 1_555 1_555
N2 C9 1_555 1_555
O2 S1 1_555 1_555
C1 C2 1_555 1_555
C2 H1 1_555 1_555
C3 C2 1_555 1_555
H2 C3 1_555 1_555
C4 C3 1_555 1_555
H3 C4 1_555 1_555
C5 C4 1_555 1_555
H4 C5 1_555 1_555
C6 C1 1_555 1_555
C7 C1 1_555 1_555
H5 C7 1_555 1_555
C8 S1 1_555 1_555
C9 N1 1_555 1_555
C10 N2 1_555 1_555
H6 C10 1_555 1_555
H7 C10 1_555 1_555
C11 C10 1_555 1_555
H8 C11 1_555 1_555
H9 C11 1_555 1_555
C12 N1 1_555 1_555
C13 S1 1_555 1_555
C14 C13 1_555 1_555
H10 C14 1_555 1_555
C15 C14 1_555 1_555
H11 C15 1_555 1_555
C16 C15 1_555 1_555
C17 C16 1_555 1_555
H12 C17 1_555 1_555
C18 C13 1_555 1_555
H13 C18 1_555 1_555
C19 C16 1_555 1_555
H14 C19 1_555 1_555
H15 C19 1_555 1_555
H16 C19 1_555 1_555
H17 C12 1_555 1_555
H18 C12 1_555 1_555
S2 O3 1_555 1_555
N3 C27 1_555 1_555
N4 C30 1_555 1_555
O4 S2 1_555 1_555
C22 C23 1_555 1_555
C23 H23 1_555 1_555
C24 C23 1_555 1_555
H24 C24 1_555 1_555
C25 C24 1_555 1_555
H25 C25 1_555 1_555
C26 C25 1_555 1_555
H26 C26 1_555 1_555
C27 C22 1_555 1_555
C28 C22 1_555 1_555
H27 C28 1_555 1_555
C29 S2 1_555 1_555
C30 N3 1_555 1_555
C31 N3 1_555 1_555
H28 C31 1_555 1_555
H29 C31 1_555 1_555
C32 C31 1_555 1_555
H30 C32 1_555 1_555
H31 C32 1_555 1_555
C33 N4 1_555 1_555
H32 C33 1_555 1_555
H33 C33 1_555 1_555
C34 S2 1_555 1_555
C35 C34 1_555 1_555
H34 C35 1_555 1_555
C36 C35 1_555 1_555
H35 C36 1_555 1_555
C37 C36 1_555 1_555
C38 C37 1_555 1_555
H36 C38 1_555 1_555
C39 C34 1_555 1_555
H37 C39 1_555 1_555
C40 C37 1_555 1_555
H38 C40 1_555 1_555
H39 C40 1_555 1_555
H40 C40 1_555 1_555
C5 C6 1_555 1_555
C7 C8 1_555 1_555
C8 C9 1_555 1_555
C11 C12 1_555 1_555
C17 C18 1_555 1_555
C26 C27 1_555 1_555
C28 C29 1_555 1_555
C29 C30 1_555 1_555
C32 C33 1_555 1_555
C38 C39 1_555 1_555

#END
