
#######################################################################
#
#                 Cambridge Crystallographic Data Centre
#                                CCDC 
#
#######################################################################
#
# If this CIF has been generated from an entry in the Cambridge 
# Structural Database, then it will include bibliographic, chemical, 
# crystal, experimental, refinement or atomic coordinate data resulting 
# from the CCDC's data processing and validation procedures.
#
#######################################################################

data_FAZWOV
_chemical_formula_moiety         'C32 H40 B1 N1 O3 Si1'
_chemical_name_systematic        
4'-{[t-butyl(dimethyl)silyl]oxy}-3'-(4,4,5,5-tetramethyl-1,3,2-dioxaborolan-2-yl)[1,2'-binaphthalen]-1'-amine
_symmetry_cell_setting           monoclinic
_symmetry_space_group_name_H-M   'P 21/c'
_symmetry_Int_Tables_number      14
_space_group_name_Hall           '-P 2ybc'
loop_
_symmetry_equiv_pos_site_id
_symmetry_equiv_pos_as_xyz
1 x,y,z
2 -x,1/2+y,1/2-z
3 -x,-y,-z
4 x,1/2-y,1/2+z
_cell_length_a                   20.188(3)
_cell_length_b                   10.6143(18)
_cell_length_c                   13.479(2)
_cell_angle_alpha                90
_cell_angle_beta                 91.456(4)
_cell_angle_gamma                90
_cell_volume                     2887.37
_exptl_crystal_colour            colorless
_exptl_crystal_description       block
_cell_formula_units_Z            4
loop_
_atom_site_label
_atom_site_type_symbol
_atom_site_fract_x
_atom_site_fract_y
_atom_site_fract_z
Si1 Si 0.65884(8) 0.68110(16) 0.18724(14)
O1 O 0.70650(16) 0.5705(3) 0.2373(3)
O2 O 0.6927(2) 0.3256(4) 0.1234(3)
O3 O 0.7590(2) 0.3586(5) -0.0027(3)
N1 N 0.9790(2) 0.4985(5) 0.2023(3)
H1 H 0.9871 0.4246 0.1789
H2 H 0.9941 0.5547 0.1624
C1 C 0.7962(2) 0.4638(5) 0.1594(4)
C2 C 0.7732(2) 0.5525(5) 0.2257(4)
C3 C 0.8173(2) 0.6217(5) 0.2883(4)
C4 C 0.7949(3) 0.7037(5) 0.3639(4)
H3 H 0.7488 0.7096 0.3758
C5 C 0.8387(3) 0.7742(5) 0.4195(4)
H4 H 0.8226 0.8297 0.4687
C6 C 0.9062(3) 0.7656(5) 0.4049(4)
H5 H 0.9361 0.8160 0.4434
C7 C 0.9301(3) 0.6845(5) 0.3352(4)
H6 H 0.9765 0.6798 0.3257
C8 C 0.8871(2) 0.6078(5) 0.2771(4)
C9 C 0.9107(2) 0.5161(5) 0.2098(4)
C10 C 0.8662(2) 0.4455(5) 0.1540(3)
C11 C 0.8917(2) 0.3409(5) 0.0908(4)
C12 C 0.9210(3) 0.3637(6) 0.0021(4)
H7 H 0.9272 0.4481 -0.0190
C13 C 0.9419(3) 0.2640(6) -0.0583(4)
H8 H 0.9624 0.2818 -0.1193
C14 C 0.9330(3) 0.1423(6) -0.0299(4)
H9 H 0.9467 0.0759 -0.0720
C15 C 0.9036(2) 0.1134(5) 0.0608(4)
C16 C 0.8945(3) -0.0120(6) 0.0930(4)
H10 H 0.9070 -0.0790 0.0507
C17 C 0.8687(3) -0.0397(6) 0.1813(4)
H11 H 0.8624 -0.1250 0.2004
C18 C 0.8508(3) 0.0601(5) 0.2458(4)
H12 H 0.8339 0.0411 0.3092
C19 C 0.8576(2) 0.1822(5) 0.2177(4)
H13 H 0.8446 0.2477 0.2610
C20 C 0.8842(2) 0.2131(5) 0.1236(4)
C21 C 0.6724(4) 0.6966(9) 0.0571(6)
H14 H 0.7196 0.7113 0.0463
H15 H 0.6466 0.7678 0.0307
H16 H 0.6585 0.6191 0.0230
C22 C 0.6742(4) 0.8396(7) 0.2514(6)
H17 H 0.6715 0.8289 0.3234
H18 H 0.6407 0.9004 0.2284
H19 H 0.7184 0.8706 0.2353
C23 C 0.5737(3) 0.6389(7) 0.2212(5)
C24 C 0.5259(4) 0.7465(8) 0.1996(7)
H20 H 0.5342 0.8148 0.2472
H21 H 0.4803 0.7164 0.2056
H22 H 0.5323 0.7777 0.1321
C25 C 0.5693(4) 0.5886(9) 0.3282(6)
H23 H 0.5938 0.5092 0.3341
H24 H 0.5228 0.5743 0.3438
H25 H 0.5885 0.6505 0.3746
C26 C 0.5505(4) 0.5220(8) 0.1566(7)
H26 H 0.5469 0.5468 0.0866
H27 H 0.5073 0.4929 0.1787
H28 H 0.5830 0.4538 0.1643
C27 C 0.7052(3) 0.2813(8) -0.0431(5)
C28 C 0.6586(5) 0.3767(11) -0.1004(7)
H29 H 0.6409 0.4378 -0.0534
H30 H 0.6219 0.3307 -0.1327
H31 H 0.6840 0.4210 -0.1506
C29 C 0.7315(5) 0.1990(10) -0.1157(7)
H32 H 0.7569 0.2480 -0.1632
H33 H 0.6951 0.1554 -0.1509
H34 H 0.7605 0.1368 -0.0830
C30 C 0.6722(3) 0.2320(6) 0.0489(4)
C31 C 0.5993(4) 0.2258(9) 0.0410(6)
H35 H 0.5812 0.2156 0.1074
H36 H 0.5860 0.1540 -0.0006
H37 H 0.5822 0.3038 0.0111
C32 C 0.7045(6) 0.1101(9) 0.0793(7)
H38 H 0.7477 0.1275 0.1113
H39 H 0.7107 0.0575 0.0205
H40 H 0.6763 0.0657 0.1260
B1 B 0.7473(3) 0.3822(6) 0.0934(4)
loop_
_geom_bond_atom_site_label_1
_geom_bond_atom_site_label_2
_geom_bond_site_symmetry_1
_geom_bond_site_symmetry_2
Si1 O1 1_555 1_555
O1 C2 1_555 1_555
O2 C30 1_555 1_555
O3 C27 1_555 1_555
N1 H1 1_555 1_555
H2 N1 1_555 1_555
C1 C2 1_555 1_555
C2 C3 1_555 1_555
C3 C4 1_555 1_555
C4 H3 1_555 1_555
C5 C4 1_555 1_555
H4 C5 1_555 1_555
C6 C5 1_555 1_555
H5 C6 1_555 1_555
C7 C6 1_555 1_555
H6 C7 1_555 1_555
C8 C3 1_555 1_555
C9 N1 1_555 1_555
C10 C1 1_555 1_555
C11 C10 1_555 1_555
C12 C11 1_555 1_555
H7 C12 1_555 1_555
C13 C12 1_555 1_555
H8 C13 1_555 1_555
C14 C13 1_555 1_555
H9 C14 1_555 1_555
C15 C14 1_555 1_555
C16 C15 1_555 1_555
H10 C16 1_555 1_555
C17 C16 1_555 1_555
H11 C17 1_555 1_555
C18 C17 1_555 1_555
H12 C18 1_555 1_555
C19 C18 1_555 1_555
H13 C19 1_555 1_555
C20 C11 1_555 1_555
C21 Si1 1_555 1_555
H14 C21 1_555 1_555
H15 C21 1_555 1_555
H16 C21 1_555 1_555
C22 Si1 1_555 1_555
H17 C22 1_555 1_555
H18 C22 1_555 1_555
H19 C22 1_555 1_555
C23 Si1 1_555 1_555
C24 C23 1_555 1_555
H20 C24 1_555 1_555
H21 C24 1_555 1_555
H22 C24 1_555 1_555
C25 C23 1_555 1_555
H23 C25 1_555 1_555
H24 C25 1_555 1_555
H25 C25 1_555 1_555
C26 C23 1_555 1_555
H26 C26 1_555 1_555
H27 C26 1_555 1_555
H28 C26 1_555 1_555
C27 C28 1_555 1_555
C28 H29 1_555 1_555
H30 C28 1_555 1_555
H31 C28 1_555 1_555
C29 C27 1_555 1_555
H32 C29 1_555 1_555
H33 C29 1_555 1_555
H34 C29 1_555 1_555
C30 C27 1_555 1_555
C31 C30 1_555 1_555
H35 C31 1_555 1_555
H36 C31 1_555 1_555
H37 C31 1_555 1_555
C32 C30 1_555 1_555
H38 C32 1_555 1_555
H39 C32 1_555 1_555
H40 C32 1_555 1_555
B1 O2 1_555 1_555
O3 B1 1_555 1_555
C1 B1 1_555 1_555
C7 C8 1_555 1_555
C8 C9 1_555 1_555
C9 C10 1_555 1_555
C15 C20 1_555 1_555
C19 C20 1_555 1_555

#END
