
#######################################################################
#
#                 Cambridge Crystallographic Data Centre
#                                CCDC 
#
#######################################################################
#
# If this CIF has been generated from an entry in the Cambridge 
# Structural Database, then it will include bibliographic, chemical, 
# crystal, experimental, refinement or atomic coordinate data resulting 
# from the CCDC's data processing and validation procedures.
#
#######################################################################

data_FAZWEL
_chemical_formula_moiety         'C22 H27 N1 O1 Si1'
_chemical_name_systematic        
2-(1-{[t-butyl(dimethyl)silyl]oxy}-3-phenylprop-1-en-1-yl)benzonitrile
_symmetry_cell_setting           orthorhombic
_symmetry_space_group_name_H-M   'P 21 21 21'
_symmetry_Int_Tables_number      19
_space_group_name_Hall           'P 2ac 2ab'
loop_
_symmetry_equiv_pos_site_id
_symmetry_equiv_pos_as_xyz
1 x,y,z
2 1/2-x,-y,1/2+z
3 -x,1/2+y,1/2-z
4 1/2+x,1/2-y,-z
_cell_length_a                   8.1740(12)
_cell_length_b                   13.0525(18)
_cell_length_c                   19.466(3)
_cell_angle_alpha                90
_cell_angle_beta                 90
_cell_angle_gamma                90
_cell_volume                     2076.85
_exptl_crystal_colour            colorless
_exptl_crystal_description       prismatic
_cell_formula_units_Z            4
loop_
_atom_site_label
_atom_site_type_symbol
_atom_site_fract_x
_atom_site_fract_y
_atom_site_fract_z
Si1 Si 0.07231(11) 0.62436(7) 0.90489(4)
N1 N 0.4696(4) 0.4910(4) 1.0863(2)
O1 O 0.0131(3) 0.51127(16) 0.93616(10)
C1 C 0.1645(4) 0.5180(2) 1.10877(16)
C2 C 0.1206(5) 0.5542(3) 1.17347(17)
H1 H 0.2011 0.5658 1.2064
C3 C -0.0390(5) 0.5729(3) 1.18902(18)
H2 H -0.0680 0.5965 1.2324
C4 C -0.1573(5) 0.5563(3) 1.1397(2)
H3 H -0.2667 0.5686 1.1499
C5 C -0.1146(4) 0.5220(3) 1.07586(17)
H4 H -0.1959 0.5129 1.0430
C6 C 0.0455(4) 0.5004(2) 1.05860(15)
C7 C 0.0858(4) 0.4595(2) 0.98954(14)
C8 C 0.1705(4) 0.3750(3) 0.97960(17)
H5 H 0.2134 0.3432 1.0183
C9 C 0.2041(5) 0.3256(3) 0.9116(2)
H6 H 0.1547 0.3671 0.8759
H7 H 0.1507 0.2592 0.9108
C10 C 0.3831(4) 0.3105(2) 0.89434(18)
C11 C 0.4261(6) 0.2388(3) 0.84516(16)
H8 H 0.3453 0.1992 0.8245
C12 C 0.5882(6) 0.2256(3) 0.82642(18)
H9 H 0.6156 0.1779 0.7928
C13 C 0.7071(6) 0.2821(3) 0.8570(2)
H10 H 0.8161 0.2728 0.8448
C14 C 0.6659(5) 0.3523(3) 0.9055(2)
H11 H 0.7474 0.3912 0.9262
C15 C 0.5072(5) 0.3664(3) 0.92406(19)
H12 H 0.4819 0.4148 0.9575
C16 C 0.3340(5) 0.5016(3) 1.09503(19)
C17 C 0.0435(6) 0.7268(3) 0.96994(19)
H13 H -0.0690 0.7285 0.9840
H14 H 0.0730 0.7917 0.9504
H15 H 0.1116 0.7131 1.0091
C18 C 0.2909(5) 0.6175(3) 0.8809(2)
H16 H 0.3553 0.6037 0.9211
H17 H 0.3242 0.6815 0.8611
H18 H 0.3066 0.5635 0.8480
C19 C -0.0638(4) 0.6447(3) 0.82898(15)
C20 C -0.2416(5) 0.6469(4) 0.8505(2)
H19 H -0.2593 0.7032 0.8814
H20 H -0.2688 0.5838 0.8732
H21 H -0.3095 0.6551 0.8107
C21 C -0.0195(6) 0.7477(3) 0.79499(19)
H22 H -0.0919 0.7602 0.7571
H23 H 0.0913 0.7452 0.7787
H24 H -0.0303 0.8019 0.8280
C22 C -0.0372(7) 0.5590(3) 0.7771(2)
H25 H -0.0581 0.4941 0.7985
H26 H 0.0737 0.5609 0.7609
H27 H -0.1105 0.5680 0.7390
loop_
_geom_bond_atom_site_label_1
_geom_bond_atom_site_label_2
_geom_bond_site_symmetry_1
_geom_bond_site_symmetry_2
Si1 O1 1_555 1_555
N1 C16 1_555 1_555
O1 C7 1_555 1_555
C1 C2 1_555 1_555
C2 H1 1_555 1_555
C3 C2 1_555 1_555
H2 C3 1_555 1_555
C4 C3 1_555 1_555
H3 C4 1_555 1_555
C5 C4 1_555 1_555
H4 C5 1_555 1_555
C6 C1 1_555 1_555
C7 C6 1_555 1_555
C8 C7 1_555 1_555
H5 C8 1_555 1_555
C9 C8 1_555 1_555
H6 C9 1_555 1_555
H7 C9 1_555 1_555
C10 C9 1_555 1_555
C11 C10 1_555 1_555
H8 C11 1_555 1_555
C12 C11 1_555 1_555
H9 C12 1_555 1_555
C13 C12 1_555 1_555
H10 C13 1_555 1_555
C14 C13 1_555 1_555
H11 C14 1_555 1_555
C15 C10 1_555 1_555
H12 C15 1_555 1_555
C16 C1 1_555 1_555
C17 Si1 1_555 1_555
H13 C17 1_555 1_555
H14 C17 1_555 1_555
H15 C17 1_555 1_555
C18 Si1 1_555 1_555
H16 C18 1_555 1_555
H17 C18 1_555 1_555
H18 C18 1_555 1_555
C19 Si1 1_555 1_555
C20 C19 1_555 1_555
H19 C20 1_555 1_555
H20 C20 1_555 1_555
H21 C20 1_555 1_555
C21 C19 1_555 1_555
H22 C21 1_555 1_555
H23 C21 1_555 1_555
H24 C21 1_555 1_555
C22 C19 1_555 1_555
H25 C22 1_555 1_555
H26 C22 1_555 1_555
H27 C22 1_555 1_555
C5 C6 1_555 1_555
C14 C15 1_555 1_555

#END
