
#######################################################################
#
#                 Cambridge Crystallographic Data Centre
#                                CCDC 
#
#######################################################################
#
# If this CIF has been generated from an entry in the Cambridge 
# Structural Database, then it will include bibliographic, chemical, 
# crystal, experimental, refinement or atomic coordinate data resulting 
# from the CCDC's data processing and validation procedures.
#
#######################################################################

data_FAZZIR
_chemical_formula_moiety         'C9 H11 N3 S2'
_chemical_name_systematic        
'Methyl 2-(1-(pyridin-2-yl)ethylidene)hydrazinecarbodithioate'
_symmetry_cell_setting           triclinic
_symmetry_space_group_name_H-M   'P -1'
_symmetry_Int_Tables_number      2
_space_group_name_Hall           '-P 1'
loop_
_symmetry_equiv_pos_site_id
_symmetry_equiv_pos_as_xyz
1 x,y,z
2 -x,-y,-z
_cell_length_a                   5.8633(5)
_cell_length_b                   8.1483(10)
_cell_length_c                   11.7569(15)
_cell_angle_alpha                81.909(10)
_cell_angle_beta                 79.334(9)
_cell_angle_gamma                84.497(8)
_cell_volume                     545.087
_exptl_crystal_colour            yellow
_exptl_crystal_description       prism
_cell_formula_units_Z            2
loop_
_atom_site_label
_atom_site_type_symbol
_atom_site_fract_x
_atom_site_fract_y
_atom_site_fract_z
C1 C 0.3171(7) 0.2316(5) 0.6722(3)
H1 H 0.1924 0.2519 0.7313
C2 C 0.5087(8) 0.1372(5) 0.7025(3)
H2 H 0.5124 0.0927 0.7795
C3 C 0.6925(7) 0.1110(5) 0.6165(4)
H3 H 0.8268 0.0501 0.6341
C4 C 0.6787(6) 0.1747(4) 0.5039(3)
H4 H 0.8015 0.1556 0.4437
C5 C 0.4782(6) 0.2684(4) 0.4810(3)
C6 C 0.4525(5) 0.3374(4) 0.3598(3)
C7 C 0.2384(5) 0.4440(4) 0.3398(3)
H5 H 0.2805 0.5529 0.3045
H6 H 0.1363 0.4521 0.4131
H7 H 0.1606 0.3955 0.2891
C8 C 0.7911(5) 0.3050(4) 0.0840(3)
C9 C 1.2220(5) 0.1460(4) 0.0184(3)
H8 H 1.1541 0.0951 -0.035
H9 H 1.3509 0.0753 0.0409
H10 H 1.2755 0.2514 -0.0188
N1 N 0.2990(5) 0.2955(4) 0.5641(3)
N2 N 0.6224(4) 0.2972(3) 0.2808(2)
N3 N 0.6159(4) 0.3514(3) 0.1653(2)
H11 H 0.4999 0.4147 0.1457
S1 S 0.79887(14) 0.35774(12) -0.05690(7)
S2 S 1.00829(14) 0.17669(11) 0.14517(7)
loop_
_geom_bond_atom_site_label_1
_geom_bond_atom_site_label_2
_geom_bond_site_symmetry_1
_geom_bond_site_symmetry_2
C1 H1 1_555 1_555
C2 C1 1_555 1_555
H2 C2 1_555 1_555
C3 C2 1_555 1_555
H3 C3 1_555 1_555
C4 C3 1_555 1_555
H4 C4 1_555 1_555
C5 C4 1_555 1_555
C6 C5 1_555 1_555
C7 C6 1_555 1_555
H5 C7 1_555 1_555
H6 C7 1_555 1_555
H7 C7 1_555 1_555
C8 N3 1_555 1_555
C9 H8 1_555 1_555
H9 C9 1_555 1_555
H10 C9 1_555 1_555
N1 C1 1_555 1_555
N2 C6 1_555 1_555
N3 N2 1_555 1_555
H11 N3 1_555 1_555
S1 C8 1_555 1_555
S2 C8 1_555 1_555
C5 N1 1_555 1_555
C9 S2 1_555 1_555

#END
