
#######################################################################
#
#                 Cambridge Crystallographic Data Centre
#                                CCDC 
#
#######################################################################
#
# If this CIF has been generated from an entry in the Cambridge 
# Structural Database, then it will include bibliographic, chemical, 
# crystal, experimental, refinement or atomic coordinate data resulting 
# from the CCDC's data processing and validation procedures.
#
#######################################################################

data_FEBBAS
_chemical_formula_moiety         'C25 H25 Br1 O7'
_chemical_name_systematic        
"2-(2,2-dimethyl-5-oxo[5,6,7,7a-tetrahydro-2H,2'H-[4,5'-bi-1,3-benzodioxole]]-4(3aH)-yl)ethyl 4-bromobenzoate"
_symmetry_cell_setting           orthorhombic
_symmetry_space_group_name_H-M   'P 21 21 21'
_symmetry_Int_Tables_number      19
_space_group_name_Hall           'P 2ac 2ab'
loop_
_symmetry_equiv_pos_site_id
_symmetry_equiv_pos_as_xyz
1 x,y,z
2 1/2-x,-y,1/2+z
3 -x,1/2+y,1/2-z
4 1/2+x,1/2-y,-z
_cell_length_a                   6.5332(16)
_cell_length_b                   8.086(2)
_cell_length_c                   44.285(11)
_cell_angle_alpha                90
_cell_angle_beta                 90
_cell_angle_gamma                90
_cell_volume                     2339.46
_exptl_crystal_description       block
_cell_formula_units_Z            4
loop_
_atom_site_label
_atom_site_type_symbol
_atom_site_fract_x
_atom_site_fract_y
_atom_site_fract_z
Br1 Br 1.21732(17) 0.11840(16) 0.24132(2)
O1 O 0.8546(7) -0.0709(6) 0.10107(10)
O2 O 0.6230(6) 0.1167(5) 0.11581(7)
O3 O -0.0375(6) 0.3476(5) 0.08182(9)
O4 O 0.3975(5) 0.3900(4) 0.03404(7)
O5 O 0.4296(7) 0.6624(5) 0.02562(8)
O6 O 0.1599(10) 0.5179(8) 0.19387(11)
O7 O 0.4861(9) 0.6374(7) 0.20336(9)
C1 C 1.0771(13) 0.0892(12) 0.20436(15)
C2 C 1.1642(12) -0.0125(10) 0.18292(18)
H1 H 1.2875 -0.0659 0.1868
C3 C 1.0663(11) -0.0340(10) 0.15569(15)
H2 H 1.1235 -0.1023 0.1411
C4 C 0.8827(11) 0.0459(8) 0.15003(14)
C5 C 0.7982(11) 0.1497(9) 0.17133(14)
H3 H 0.6769 0.2057 0.1673
C6 C 0.8970(14) 0.1695(9) 0.19893(15)
H4 H 0.8404 0.2374 0.2137
C7 C 0.7876(11) 0.0228(8) 0.11975(14)
C8 C 0.5344(8) 0.1083(7) 0.08574(10)
H5 H 0.5180 -0.0064 0.0798
H6 H 0.6249 0.1616 0.0714
C9 C 0.3284(8) 0.1938(6) 0.08570(11)
H7 H 0.2514 0.1533 0.1029
H8 H 0.2555 0.1594 0.0677
C10 C 0.3251(7) 0.3841(6) 0.08678(10)
C11 C 0.1064(9) 0.4411(7) 0.07951(11)
C12 C 0.0773(9) 0.6148(7) 0.06916(13)
H9 H -0.0340 0.6639 0.0806
H10 H 0.0371 0.6136 0.0481
C13 C 0.2651(8) 0.7221(6) 0.07256(13)
H11 H 0.2388 0.8298 0.0637
H12 H 0.2941 0.7379 0.0939
C14 C 0.4489(9) 0.6452(7) 0.05741(11)
H13 H 0.5746 0.6993 0.0644
C15 C 0.4640(8) 0.4571(6) 0.06239(10)
H14 H 0.6065 0.4257 0.0662
C16 C 0.4604(10) 0.5055(7) 0.01154(12)
C17 C 0.3222(11) 0.4923(8) -0.01523(12)
H15 H 0.3344 0.3839 -0.0239
H16 H 0.3602 0.5738 -0.0300
H17 H 0.1833 0.5105 -0.0090
C18 C 0.6836(10) 0.4816(7) 0.00293(12)
H18 H 0.7651 0.4734 0.0209
H19 H 0.7289 0.5742 -0.0089
H20 H 0.6976 0.3819 -0.0087
C19 C 0.3799(9) 0.4507(6) 0.11817(11)
C20 C 0.2312(10) 0.4449(7) 0.14129(12)
H21 H 0.1021 0.4000 0.1379
C21 C 0.2847(12) 0.5080(8) 0.16891(13)
C22 C 0.4702(11) 0.5789(8) 0.17444(13)
C23 C 0.6179(10) 0.5845(8) 0.15326(12)
H22 H 0.7461 0.6293 0.1573
C24 C 0.5685(9) 0.5194(7) 0.12481(12)
H23 H 0.6672 0.5226 0.1097
C25 C 0.2937(17) 0.5868(14) 0.21764(16)
H24 H 0.2283 0.6813 0.2271
H25 H 0.3198 0.5041 0.2330
loop_
_geom_bond_atom_site_label_1
_geom_bond_atom_site_label_2
_geom_bond_site_symmetry_1
_geom_bond_site_symmetry_2
Br1 C1 1_555 1_555
O1 C7 1_555 1_555
O2 C7 1_555 1_555
O3 C11 1_555 1_555
O4 C15 1_555 1_555
O5 C14 1_555 1_555
O6 C21 1_555 1_555
O7 C22 1_555 1_555
C1 C2 1_555 1_555
C2 H1 1_555 1_555
C3 C2 1_555 1_555
H2 C3 1_555 1_555
C4 C3 1_555 1_555
C5 C4 1_555 1_555
H3 C5 1_555 1_555
C6 C1 1_555 1_555
H4 C6 1_555 1_555
C7 C4 1_555 1_555
C8 O2 1_555 1_555
H5 C8 1_555 1_555
H6 C8 1_555 1_555
C9 C8 1_555 1_555
H7 C9 1_555 1_555
H8 C9 1_555 1_555
C10 C9 1_555 1_555
C11 C10 1_555 1_555
C12 C11 1_555 1_555
H9 C12 1_555 1_555
H10 C12 1_555 1_555
C13 C12 1_555 1_555
H11 C13 1_555 1_555
H12 C13 1_555 1_555
C14 C13 1_555 1_555
H13 C14 1_555 1_555
C15 C10 1_555 1_555
H14 C15 1_555 1_555
C16 O4 1_555 1_555
C17 C16 1_555 1_555
H15 C17 1_555 1_555
H16 C17 1_555 1_555
H17 C17 1_555 1_555
C18 C16 1_555 1_555
H18 C18 1_555 1_555
H19 C18 1_555 1_555
H20 C18 1_555 1_555
C19 C10 1_555 1_555
C20 C19 1_555 1_555
H21 C20 1_555 1_555
C21 C20 1_555 1_555
C22 C21 1_555 1_555
C23 C22 1_555 1_555
H22 C23 1_555 1_555
C24 C19 1_555 1_555
H23 C24 1_555 1_555
C25 O6 1_555 1_555
H24 C25 1_555 1_555
H25 C25 1_555 1_555
O5 C16 1_555 1_555
O7 C25 1_555 1_555
C5 C6 1_555 1_555
C14 C15 1_555 1_555
C23 C24 1_555 1_555

#END
