
#######################################################################
#
#                 Cambridge Crystallographic Data Centre
#                                CCDC 
#
#######################################################################
#
# If this CIF has been generated from an entry in the Cambridge 
# Structural Database, then it will include bibliographic, chemical, 
# crystal, experimental, refinement or atomic coordinate data resulting 
# from the CCDC's data processing and validation procedures.
#
#######################################################################

data_FEBCUK
_chemical_formula_moiety         'C24 H34 O8'
_chemical_name_systematic        
1,4-Epoxy-2,6,6-tris(methoxycarbonyl)-10-methyl-13-isopropyl-14-hydroxytricyclo(8.4.0.0^4,9^)tetradec-2-ene
_symmetry_cell_setting           monoclinic
_symmetry_space_group_name_H-M   'I 2/a'
_symmetry_Int_Tables_number      15
_space_group_name_Hall           '-I 2ya'
loop_
_symmetry_equiv_pos_site_id
_symmetry_equiv_pos_as_xyz
1 x,y,z
2 1/2+x,1/2+y,1/2+z
3 1/2-x,y,-z
4 -x,1/2+y,1/2-z
5 -x,-y,-z
6 1/2-x,1/2-y,1/2-z
7 1/2+x,-y,z
8 x,1/2-y,1/2+z
_cell_length_a                   21.1907(20)
_cell_length_b                   10.4561(16)
_cell_length_c                   21.7424(19)
_cell_angle_alpha                90
_cell_angle_beta                 104.318(8)
_cell_angle_gamma                90
_cell_volume                     4667.87
_cell_formula_units_Z            8
loop_
_atom_site_label
_atom_site_type_symbol
_atom_site_fract_x
_atom_site_fract_y
_atom_site_fract_z
C1 C 0.48501(15) 0.0692(3) 0.34813(14)
C2 C 0.51796(15) 0.0582(4) 0.29207(16)
C3 C 0.47674(16) 0.0996(3) 0.22664(15)
C4 C 0.41223(14) 0.0301(3) 0.21596(14)
C5 C 0.35644(14) 0.0362(3) 0.15378(14)
C6 C 0.29840(14) 0.0821(3) 0.18150(13)
C7 C 0.31310(14) 0.2204(3) 0.20495(14)
C8 C 0.36129(14) 0.2110(3) 0.25686(14)
C9 C 0.37748(14) 0.0710(3) 0.26684(13)
C10 C 0.41300(14) 0.0231(3) 0.33120(14)
C11 C 0.34225(16) -0.1002(3) 0.12730(15)
C12 C 0.27326(17) -0.1212(4) 0.08786(15)
C13 C 0.22381(15) -0.0941(3) 0.12660(14)
C14 C 0.22923(14) 0.0463(3) 0.14512(14)
C15 C 0.37050(18) 0.1257(4) 0.10318(16)
C16 C 0.15325(16) -0.1299(4) 0.09309(16)
C17 C 0.10935(18) -0.1247(4) 0.13836(19)
C18 C 0.14690(19) -0.2580(4) 0.06052(19)
C19 C 0.28684(16) 0.3423(3) 0.17527(15)
C20 C 0.29510(18) 0.5662(3) 0.18176(19)
C21 C 0.48806(15) 0.2062(3) 0.37302(15)
C22 C 0.47048(22) 0.3329(4) 0.45740(20)
C23 C 0.52405(16) -0.0147(3) 0.40148(16)
C24 C 0.62519(19) -0.0414(4) 0.47471(18)
O1 O 0.20923(12) 0.11745(23) 0.08806(11)
O2 O 0.31337(8) 0.01520(18) 0.24253(9)
O3 O 0.24166(13) 0.35439(24) 0.12932(12)
O4 O 0.31874(10) 0.44182(20) 0.20539(11)
O5 O 0.50250(12) 0.29875(23) 0.34698(11)
O6 O 0.47108(12) 0.20949(21) 0.42756(11)
O7 O 0.50523(14) -0.1114(3) 0.41950(13)
O8 O 0.58352(11) 0.03169(23) 0.42442(11)
H1 H 0.2115(21) 0.206(4) 0.0976(19)
H2 H 0.534 -0.029 0.289
H3 H 0.555 0.117 0.303
H4 H 0.472 0.193 0.225
H5 H 0.496 0.072 0.192
H6 H 0.422 -0.061 0.222
H7 H 0.381 0.281 0.285
H8 H 0.393 0.067 0.361
H9 H 0.409 -0.070 0.336
H10 H 0.353 -0.161 0.163
H11 H 0.370 -0.117 0.098
H12 H 0.267 -0.210 0.073
H13 H 0.264 -0.063 0.051
H14 H 0.236 -0.145 0.165
H15 H 0.199 0.062 0.172
H16 H 0.408 0.090 0.090
H17 H 0.333 0.130 0.066
H18 H 0.381 0.212 0.121
H19 H 0.137 -0.064 0.061
H20 H 0.112 -0.042 0.160
H21 H 0.064 -0.140 0.115
H22 H 0.123 -0.193 0.169
H23 H 0.176 -0.252 0.032
H24 H 0.161 -0.328 0.091
H25 H 0.102 -0.275 0.036
H26 H 0.321 0.635 0.206
H27 H 0.300 0.569 0.138
H28 H 0.249 0.577 0.181
H29 H 0.455 0.324 0.496
H30 H 0.516 0.364 0.469
H31 H 0.443 0.395 0.429
H32 H 0.667 0.000 0.490
H33 H 0.603 -0.045 0.509
H34 H 0.632 -0.128 0.461
loop_
_geom_bond_atom_site_label_1
_geom_bond_atom_site_label_2
_geom_bond_site_symmetry_1
_geom_bond_site_symmetry_2
C1 C2 1_555 1_555
C2 C3 1_555 1_555
C3 C4 1_555 1_555
C4 C5 1_555 1_555
C5 C6 1_555 1_555
C6 C7 1_555 1_555
C7 C8 1_555 1_555
C8 C9 1_555 1_555
C9 C4 1_555 1_555
C10 C1 1_555 1_555
C11 C5 1_555 1_555
C12 C11 1_555 1_555
C13 C12 1_555 1_555
C14 C6 1_555 1_555
C15 C5 1_555 1_555
C16 C13 1_555 1_555
C17 C16 1_555 1_555
C18 C16 1_555 1_555
C19 C7 1_555 1_555
C20 O4 1_555 1_555
C21 C1 1_555 1_555
C22 O6 1_555 1_555
C23 C1 1_555 1_555
C24 O8 1_555 1_555
O1 C14 1_555 1_555
O2 C6 1_555 1_555
O3 C19 1_555 1_555
O4 C19 1_555 1_555
O5 C21 1_555 1_555
O6 C21 1_555 1_555
O7 C23 1_555 1_555
O8 C23 1_555 1_555
H1 O1 1_555 1_555
H2 C2 1_555 1_555
H3 C2 1_555 1_555
H4 C3 1_555 1_555
H5 C3 1_555 1_555
H6 C4 1_555 1_555
H7 C8 1_555 1_555
H8 C10 1_555 1_555
H9 C10 1_555 1_555
H10 C11 1_555 1_555
H11 C11 1_555 1_555
H12 C12 1_555 1_555
H13 C12 1_555 1_555
H14 C13 1_555 1_555
H15 C14 1_555 1_555
H16 C15 1_555 1_555
H17 C15 1_555 1_555
H18 C15 1_555 1_555
H19 C16 1_555 1_555
H20 C17 1_555 1_555
H21 C17 1_555 1_555
H22 C17 1_555 1_555
H23 C18 1_555 1_555
H24 C18 1_555 1_555
H25 C18 1_555 1_555
H26 C20 1_555 1_555
H27 C20 1_555 1_555
H28 C20 1_555 1_555
H29 C22 1_555 1_555
H30 C22 1_555 1_555
H31 C22 1_555 1_555
H32 C24 1_555 1_555
H33 C24 1_555 1_555
H34 C24 1_555 1_555
C9 C10 1_555 1_555
C9 O2 1_555 1_555
C13 C14 1_555 1_555

#END
