
#######################################################################
#
#                 Cambridge Crystallographic Data Centre
#                                CCDC 
#
#######################################################################
#
# If this CIF has been generated from an entry in the Cambridge 
# Structural Database, then it will include bibliographic, chemical, 
# crystal, experimental, refinement or atomic coordinate data resulting 
# from the CCDC's data processing and validation procedures.
#
#######################################################################

data_FEBDAR
_chemical_formula_moiety         'C24 H33 Cl1 O7'
_chemical_name_systematic        
3,3,13-tris(Methoxycarbonyl)-6-chloro-7-methyl-10-isopropyl-15-oxatricyclo(10.2.1.0^7,11^)pentadeca-12,14-diene
_symmetry_cell_setting           monoclinic
_symmetry_space_group_name_H-M   'P 21/a'
_symmetry_Int_Tables_number      14
_space_group_name_Hall           '-P 2yab'
loop_
_symmetry_equiv_pos_site_id
_symmetry_equiv_pos_as_xyz
1 x,y,z
2 1/2-x,1/2+y,-z
3 -x,-y,-z
4 1/2+x,1/2-y,z
_cell_length_a                   9.8313(14)
_cell_length_b                   12.1559(20)
_cell_length_c                   20.284(3)
_cell_angle_alpha                90
_cell_angle_beta                 96.833(12)
_cell_angle_gamma                90
_cell_volume                     2406.89
_cell_formula_units_Z            4
loop_
_atom_site_label
_atom_site_type_symbol
_atom_site_fract_x
_atom_site_fract_y
_atom_site_fract_z
Cl1 Cl 0.90565(14) 0.89183(15) 0.13200(8)
C1 C 1.2928(4) 1.1438(4) 0.13257(20)
C2 C 1.1624(4) 1.0711(4) 0.12628(21)
C3 C 1.1570(4) 0.9722(4) 0.17266(22)
C4 C 1.0170(4) 0.9616(4) 0.19817(23)
C5 C 1.0097(4) 0.9054(4) 0.26521(24)
C6 C 0.8611(5) 0.8874(5) 0.2791(3)
C7 C 0.8064(5) 0.9989(5) 0.2950(3)
C8 C 0.9281(4) 1.0603(4) 0.33327(22)
C9 C 1.0545(4) 0.9865(4) 0.32427(22)
C10 C 1.1837(4) 1.0465(4) 0.31674(20)
C11 C 1.3191(4) 1.0290(4) 0.33797(21)
C12 C 1.3951(4) 1.0990(4) 0.29864(21)
C13 C 1.3035(4) 1.1540(4) 0.25727(20)
C14 C 1.3087(4) 1.2186(4) 0.19528(22)
C15 C 1.0926(6) 0.7997(4) 0.2698(3)
C16 C 0.9109(5) 1.0805(4) 0.40614(23)
C17 C 1.0399(5) 1.1268(5) 0.4456(3)
C18 C 0.7910(5) 1.1574(5) 0.4135(3)
C19 C 1.3725(4) 0.9487(4) 0.38835(22)
C20 C 1.5741(6) 0.8760(6) 0.4477(3)
C21 C 1.4246(4) 1.0763(4) 0.13114(22)
C22 C 1.5213(6) 0.9222(6) 0.0849(3)
C23 C 1.2800(5) 1.2172(5) 0.07059(23)
C24 C 1.3451(12) 1.3803(11) 0.0220(5)
O1 O 1.1730(3) 1.12795(23) 0.27013(13)
O2 O 1.3049(3) 0.8871(4) 0.41731(18)
O3 O 1.5088(3) 0.9514(3) 0.39824(16)
O4 O 1.5312(3) 1.0969(3) 0.16244(17)
O5 O 1.4044(3) 0.9918(3) 0.09033(18)
O6 O 1.2433(10) 1.1826(8) 0.0156(3)
O7 O 1.3427(6) 1.3100(6) 0.0789(3)
H1 H 1.08380 1.12018 0.13409
H2 H 1.14494 1.04520 0.07983
H3 H 1.17736 0.90320 0.14889
H4 H 1.23161 0.97955 0.21075
H5 H 0.97755 1.03891 0.20054
H6 H 0.80674 0.85197 0.24030
H7 H 0.85959 0.83427 0.31727
H8 H 0.73111 0.99188 0.32380
H9 H 0.76923 1.03734 0.25426
H10 H 0.93979 1.13369 0.31057
H11 H 1.07049 0.93973 0.36517
H12 H 1.49789 1.10514 0.30142
H13 H 1.23322 1.27428 0.19080
H14 H 1.39608 1.25992 0.19733
H15 H 1.06227 0.74985 0.23183
H16 H 1.19089 0.81414 0.26939
H17 H 1.08075 0.75870 0.31111
H18 H 0.89041 1.00823 0.42649
H19 H 1.12039 1.07799 0.44266
H20 H 1.06335 1.19976 0.42728
H21 H 1.03003 1.13720 0.49290
H22 H 0.70473 1.12997 0.38849
H23 H 0.77549 1.16913 0.45976
H24 H 0.80881 1.23169 0.39414
H25 H 1.67480 0.88109 0.45212
H26 H 1.54386 0.88823 0.49186
H27 H 1.54933 0.79805 0.43476
H28 H 1.49838 0.86128 0.05316
H29 H 1.59874 0.96380 0.06982
H30 H 1.55520 0.88866 0.12861
H31 H 1.39191 1.44749 0.03442
H32 H 1.24905 1.40009 0.00520
H33 H 1.38402 1.34453 -0.01242
C25? C 1.3729(13) 1.3395(11) 0.0028(6)
O8? O 1.1645(7) 1.2392(9) 0.0404(4)
O9? O 1.3865(7) 1.2593(7) 0.0576(4)
H34? H 1.46263 1.36784 -0.00352
H35? H 1.31537 1.39966 0.01221
H36? H 1.33457 1.30456 -0.03806
loop_
_geom_bond_atom_site_label_1
_geom_bond_atom_site_label_2
_geom_bond_site_symmetry_1
_geom_bond_site_symmetry_2
Cl1 C4 1_555 1_555
C1 C2 1_555 1_555
C2 C3 1_555 1_555
C3 C4 1_555 1_555
C4 C5 1_555 1_555
C5 C6 1_555 1_555
C6 C7 1_555 1_555
C7 C8 1_555 1_555
C8 C9 1_555 1_555
C9 C5 1_555 1_555
C10 C9 1_555 1_555
C11 C10 1_555 1_555
C12 C11 1_555 1_555
C13 C12 1_555 1_555
C14 C1 1_555 1_555
C15 C5 1_555 1_555
C16 C8 1_555 1_555
C17 C16 1_555 1_555
C18 C16 1_555 1_555
C19 C11 1_555 1_555
C20 O3 1_555 1_555
C21 C1 1_555 1_555
C22 O5 1_555 1_555
C23 C1 1_555 1_555
C24 O7 1_555 1_555
O1 C10 1_555 1_555
O2 C19 1_555 1_555
O3 C19 1_555 1_555
O4 C21 1_555 1_555
O5 C21 1_555 1_555
O6 C23 1_555 1_555
O7 C23 1_555 1_555
H1 C2 1_555 1_555
H2 C2 1_555 1_555
H3 C3 1_555 1_555
H4 C3 1_555 1_555
H5 C4 1_555 1_555
H6 C6 1_555 1_555
H7 C6 1_555 1_555
H8 C7 1_555 1_555
H9 C7 1_555 1_555
H10 C8 1_555 1_555
H11 C9 1_555 1_555
H12 C12 1_555 1_555
H13 C14 1_555 1_555
H14 C14 1_555 1_555
H15 C15 1_555 1_555
H16 C15 1_555 1_555
H17 C15 1_555 1_555
H18 C16 1_555 1_555
H19 C17 1_555 1_555
H20 C17 1_555 1_555
H21 C17 1_555 1_555
H22 C18 1_555 1_555
H23 C18 1_555 1_555
H24 C18 1_555 1_555
H25 C20 1_555 1_555
H26 C20 1_555 1_555
H27 C20 1_555 1_555
H28 C22 1_555 1_555
H29 C22 1_555 1_555
H30 C22 1_555 1_555
H31 C24 1_555 1_555
H32 C24 1_555 1_555
H33 C24 1_555 1_555
C13 C14 1_555 1_555
C13 O1 1_555 1_555

#END
