
#######################################################################
#
#                 Cambridge Crystallographic Data Centre
#                                CCDC 
#
#######################################################################
#
# If this CIF has been generated from an entry in the Cambridge 
# Structural Database, then it will include bibliographic, chemical, 
# crystal, experimental, refinement or atomic coordinate data resulting 
# from the CCDC's data processing and validation procedures.
#
#######################################################################

data_FEBFUP
_chemical_formula_moiety         'C14 H14 Br1 N1 O4'
_chemical_name_systematic        
7-Bromo-1-hydroxy-7-nitro-6-phenylbicyclo[3.2.1]octan-8-one
_symmetry_cell_setting           orthorhombic
_symmetry_space_group_name_H-M   'P 21 21 21'
_symmetry_Int_Tables_number      19
_space_group_name_Hall           'P 2ac 2ab'
loop_
_symmetry_equiv_pos_site_id
_symmetry_equiv_pos_as_xyz
1 x,y,z
2 1/2-x,-y,1/2+z
3 -x,1/2+y,1/2-z
4 1/2+x,1/2-y,-z
_cell_length_a                   6.9084(19)
_cell_length_b                   14.098(4)
_cell_length_c                   14.210(4)
_cell_angle_alpha                90
_cell_angle_beta                 90
_cell_angle_gamma                90
_cell_volume                     1383.98
_exptl_crystal_colour            colorless
_exptl_crystal_description       block
_chemical_melting_point          '178-188 deg.C'
_cell_formula_units_Z            4
loop_
_atom_site_label
_atom_site_type_symbol
_atom_site_fract_x
_atom_site_fract_y
_atom_site_fract_z
Br1 Br 0.80658(6) 0.55275(3) 1.07305(3)
C1 C 0.5391(5) 0.5486(3) 1.0351(2)
C2 C 0.4781(6) 0.6298(3) 0.9699(3)
C3 C 0.6137(7) 0.6442(3) 0.8857(3)
H1 H 0.5590 0.6924 0.8449
H2 H 0.7371 0.6677 0.9085
C4 C 0.6494(6) 0.5547(4) 0.8279(3)
H3 H 0.7035 0.5723 0.7674
H4 H 0.7437 0.5154 0.8602
C5 C 0.4655(7) 0.4972(3) 0.8120(3)
H5 H 0.4993 0.4345 0.7894
H6 H 0.3871 0.5279 0.7643
C6 C 0.3472(6) 0.4882(3) 0.9040(3)
H7 H 0.2326 0.4480 0.8963
C7 C 0.4791(6) 0.4544(3) 0.9857(2)
H8 H 0.5966 0.4288 0.9566
C8 C 0.2955(7) 0.5895(3) 0.9276(3)
C9 C 0.4043(7) 0.3784(3) 1.0521(3)
C10 C 0.2129(8) 0.3560(3) 1.0632(4)
H9 H 0.1206 0.3875 1.0272
C11 C 0.1528(9) 0.2864(4) 1.1278(4)
H10 H 0.0222 0.2716 1.1340
C12 C 0.2863(10) 0.2412(4) 1.1810(4)
H11 H 0.2469 0.1963 1.2250
C13 C 0.4813(10) 0.2613(4) 1.1705(4)
H12 H 0.5732 0.2297 1.2066
C14 C 0.5369(8) 0.3286(4) 1.1058(4)
H13 H 0.6681 0.3410 1.0980
N1 N 0.4149(5) 0.5605(3) 1.1252(2)
O1 O 0.4448(5) 0.71476(19) 1.0177(2)
H14 H 0.5478 0.7425 1.0257
O2 O 0.1501(4) 0.6317(2) 0.9088(2)
O3 O 0.2417(4) 0.5656(2) 1.10829(19)
O4 O 0.4855(4) 0.5633(3) 1.20240(19)
loop_
_geom_bond_atom_site_label_1
_geom_bond_atom_site_label_2
_geom_bond_site_symmetry_1
_geom_bond_site_symmetry_2
Br1 C1 1_555 1_555
C1 C2 1_555 1_555
C2 C3 1_555 1_555
C3 H1 1_555 1_555
H2 C3 1_555 1_555
C4 C3 1_555 1_555
H3 C4 1_555 1_555
H4 C4 1_555 1_555
C5 C4 1_555 1_555
H5 C5 1_555 1_555
H6 C5 1_555 1_555
C6 C5 1_555 1_555
H7 C6 1_555 1_555
C7 C1 1_555 1_555
H8 C7 1_555 1_555
C8 C2 1_555 1_555
C9 C7 1_555 1_555
C10 C9 1_555 1_555
H9 C10 1_555 1_555
C11 C10 1_555 1_555
H10 C11 1_555 1_555
C12 C11 1_555 1_555
H11 C12 1_555 1_555
C13 C12 1_555 1_555
H12 C13 1_555 1_555
C14 C9 1_555 1_555
H13 C14 1_555 1_555
N1 C1 1_555 1_555
O1 C2 1_555 1_555
H14 O1 1_555 1_555
O2 C8 1_555 1_555
O3 N1 1_555 1_555
O4 N1 1_555 1_555
C6 C7 1_555 1_555
C6 C8 1_555 1_555
C13 C14 1_555 1_555

#END
