
#######################################################################
#
#                 Cambridge Crystallographic Data Centre
#                                CCDC 
#
#######################################################################
#
# If this CIF has been generated from an entry in the Cambridge 
# Structural Database, then it will include bibliographic, chemical, 
# crystal, experimental, refinement or atomic coordinate data resulting 
# from the CCDC's data processing and validation procedures.
#
#######################################################################

data_FEBJOM01
_chemical_formula_moiety         'C14 H17 N1 O3'
_chemical_name_systematic        
syn-(2S)-2-((1R)-2-Nitro-1-phenylethyl)cyclohexanone
_symmetry_cell_setting           orthorhombic
_symmetry_space_group_name_H-M   'P 21 21 21'
_symmetry_Int_Tables_number      19
_space_group_name_Hall           'P 2ac 2ab'
loop_
_symmetry_equiv_pos_site_id
_symmetry_equiv_pos_as_xyz
1 x,y,z
2 1/2+x,1/2-y,-z
3 -x,1/2+y,1/2-z
4 1/2-x,-y,1/2+z
_cell_length_a                   5.578(4)
_cell_length_b                   8.563(18)
_cell_length_c                   27.852(3)
_cell_angle_alpha                90
_cell_angle_beta                 90
_cell_angle_gamma                90
_cell_volume                     1330.33
_exptl_crystal_colour            colorless
_exptl_crystal_description       block
_cell_formula_units_Z            4
loop_
_atom_site_label
_atom_site_type_symbol
_atom_site_fract_x
_atom_site_fract_y
_atom_site_fract_z
O1 O 0.5573(2) 0.37838(14) 0.73074(4)
O2 O 0.1924(2) 0.71988(13) 0.64480(5)
O3 O 0.4613(2) 0.88678(14) 0.62637(6)
N1 N 0.3998(2) 0.76232(16) 0.64231(5)
C1 C 0.5682(2) 0.49471(14) 0.63598(6)
C2 C 0.7645(2) 0.38498(16) 0.65538(5)
C3 C 0.7808(3) 0.23079(17) 0.62756(6)
C4 C 0.9774(3) 0.1252(2) 0.64675(6)
C5 C 0.9501(3) 0.0924(2) 0.69945(6)
C6 C 0.9314(3) 0.2435(2) 0.72813(6)
C7 C 0.7335(3) 0.34310(18) 0.70774(6)
C8 C 0.5748(2) 0.50702(16) 0.58190(6)
C9 C 0.3986(3) 0.4386(2) 0.55429(6)
C10 C 0.4072(4) 0.4427(2) 0.50479(8)
C11 C 0.5923(5) 0.5171(2) 0.48216(8)
C12 C 0.7673(4) 0.5880(2) 0.50859(8)
C13 C 0.7579(3) 0.58278(19) 0.55801(6)
C14 C 0.5898(2) 0.65423(14) 0.66037(6)
H1 H 0.4136 0.4493 0.6452
H2 H 0.6281 0.1776 0.6307
H3 H 0.8119 0.2526 0.5940
H4 H 0.9708 0.0268 0.6295
H5 H 1.1314 0.1746 0.6412
H6 H 0.8071 0.0302 0.7046
H7 H 1.0895 0.0348 0.7104
H8 H 0.8962 0.2188 0.7614
H9 H 1.0817 0.3002 0.7263
H10 H 0.2638 0.3864 0.5702
H11 H 0.2819 0.3916 0.4858
H12 H 0.5989 0.5198 0.4470
H13 H 0.8981 0.6430 0.4923
H14 H 0.8853 0.6329 0.5767
H15 H 0.7462 0.6982 0.6533
H16 H 0.5723 0.6418 0.6948
H17 H 0.9184 0.4390 0.6520
loop_
_geom_bond_atom_site_label_1
_geom_bond_atom_site_label_2
_geom_bond_site_symmetry_1
_geom_bond_site_symmetry_2
O1 C7 1_555 1_555
O2 N1 1_555 1_555
O3 N1 1_555 1_555
N1 C14 1_555 1_555
C1 C2 1_555 1_555
C2 C3 1_555 1_555
C3 C4 1_555 1_555
C4 C5 1_555 1_555
C5 C6 1_555 1_555
C6 C7 1_555 1_555
C7 C2 1_555 1_555
C8 C1 1_555 1_555
C9 C8 1_555 1_555
C10 C9 1_555 1_555
C11 C10 1_555 1_555
C12 C11 1_555 1_555
C13 C8 1_555 1_555
C14 C1 1_555 1_555
H1 C1 1_555 1_555
H2 C3 1_555 1_555
H3 C3 1_555 1_555
H4 C4 1_555 1_555
H5 C4 1_555 1_555
H6 C5 1_555 1_555
H7 C5 1_555 1_555
H8 C6 1_555 1_555
H9 C6 1_555 1_555
H10 C9 1_555 1_555
H11 C10 1_555 1_555
H12 C11 1_555 1_555
H13 C12 1_555 1_555
H14 C13 1_555 1_555
H15 C14 1_555 1_555
H16 C14 1_555 1_555
H17 C2 1_555 1_555
C12 C13 1_555 1_555

#END
