
#######################################################################
#
#                 Cambridge Crystallographic Data Centre
#                                CCDC 
#
#######################################################################
#
# If this CIF has been generated from an entry in the Cambridge 
# Structural Database, then it will include bibliographic, chemical, 
# crystal, experimental, refinement or atomic coordinate data resulting 
# from the CCDC's data processing and validation procedures.
#
#######################################################################

data_FEBJOO
_chemical_formula_moiety         'C13 H15 Br1 O2'
_chemical_name_systematic        
10-bromooctahydro-1H,8H-1,7a-ethenopentaleno[2,1-c]pyran-8-one
_symmetry_cell_setting           monoclinic
_symmetry_space_group_name_H-M   'P 21/c'
_symmetry_Int_Tables_number      14
_space_group_name_Hall           '-P 2ybc'
loop_
_symmetry_equiv_pos_site_id
_symmetry_equiv_pos_as_xyz
1 x,y,z
2 -x,1/2+y,1/2-z
3 -x,-y,-z
4 x,1/2-y,1/2+z
_cell_length_a                   9.0905(2)
_cell_length_b                   12.8885(3)
_cell_length_c                   10.5064(3)
_cell_angle_alpha                90
_cell_angle_beta                 106.194(3)
_cell_angle_gamma                90
_cell_volume                     1182.12
_exptl_crystal_colour            colorless
_exptl_crystal_description       block
_cell_formula_units_Z            4
loop_
_atom_site_label
_atom_site_type_symbol
_atom_site_fract_x
_atom_site_fract_y
_atom_site_fract_z
Br1 Br 0.00479(5) 0.84483(4) 0.08454(5)
O1 O 0.0231(3) 0.6009(2) 0.1253(3)
O2 O 0.4107(3) 0.6215(2) -0.0906(2)
C1 C 0.1652(4) 0.7506(3) 0.0826(3)
C2 C 0.1145(4) 0.6404(3) 0.0461(4)
H1 H 0.0508 0.6409 -0.0461
C3 C 0.2535(4) 0.5697(3) 0.0530(3)
H2 H 0.2234 0.5070 -0.0006
C4 C 0.3430(4) 0.5429(2) 0.1976(3)
H3 H 0.4048 0.4809 0.1957
C5 C 0.4541(4) 0.6357(2) 0.2458(3)
H4 H 0.4244 0.6738 0.3155
C6 C 0.4366(4) 0.7070(2) 0.1227(3)
C7 C 0.3084(4) 0.7832(2) 0.1128(3)
H5 H 0.3301 0.8534 0.1279
C8 C 0.1061(5) 0.5952(3) 0.2616(4)
H6 H 0.0375 0.5740 0.3129
H7 H 0.1458 0.6634 0.2923
C9 C 0.2369(5) 0.5193(3) 0.2839(4)
H8 H 0.1960 0.4497 0.2644
H9 H 0.2956 0.5212 0.3764
C10 C 0.3717(4) 0.6309(2) 0.0095(3)
C11 C 0.6261(4) 0.6125(3) 0.2904(4)
H10 H 0.6515 0.5553 0.2403
H11 H 0.6597 0.5957 0.3841
C12 C 0.6993(5) 0.7148(4) 0.2614(5)
H12 H 0.7033 0.7656 0.3304
H13 H 0.8023 0.7029 0.2548
C13 C 0.5953(4) 0.7507(3) 0.1307(4)
H14 H 0.6312 0.7250 0.0579
H15 H 0.5922 0.8259 0.1267
loop_
_geom_bond_atom_site_label_1
_geom_bond_atom_site_label_2
_geom_bond_site_symmetry_1
_geom_bond_site_symmetry_2
Br1 C1 1_555 1_555
O1 C2 1_555 1_555
O2 C10 1_555 1_555
C1 C2 1_555 1_555
C2 H1 1_555 1_555
C3 C2 1_555 1_555
H2 C3 1_555 1_555
C4 C3 1_555 1_555
H3 C4 1_555 1_555
C5 C4 1_555 1_555
H4 C5 1_555 1_555
C6 C5 1_555 1_555
C7 C1 1_555 1_555
H5 C7 1_555 1_555
C8 O1 1_555 1_555
H6 C8 1_555 1_555
H7 C8 1_555 1_555
C9 C4 1_555 1_555
H8 C9 1_555 1_555
H9 C9 1_555 1_555
C10 C3 1_555 1_555
C11 C5 1_555 1_555
H10 C11 1_555 1_555
H11 C11 1_555 1_555
C12 C11 1_555 1_555
H12 C12 1_555 1_555
H13 C12 1_555 1_555
C13 C6 1_555 1_555
H14 C13 1_555 1_555
H15 C13 1_555 1_555
C6 C7 1_555 1_555
C6 C10 1_555 1_555
C8 C9 1_555 1_555
C12 C13 1_555 1_555

#END
