
#######################################################################
#
#                 Cambridge Crystallographic Data Centre
#                                CCDC 
#
#######################################################################
#
# If this CIF has been generated from an entry in the Cambridge 
# Structural Database, then it will include bibliographic, chemical, 
# crystal, experimental, refinement or atomic coordinate data resulting 
# from the CCDC's data processing and validation procedures.
#
#######################################################################

data_FEBKAY
_chemical_compound_source        Streptomyces
_chemical_formula_moiety         'C12 H14 N2 O2'
_chemical_name_systematic        
(2E,10R,10aS)-2-Ethylidine-2,3,10,10a-tetrahydro-10-hydroxy-1H,5H-dipyrrolo(1,2-c:2',1'-f)pyrimidin-5-one
_symmetry_cell_setting           orthorhombic
_symmetry_space_group_name_H-M   'P 21 21 21'
_symmetry_Int_Tables_number      19
_space_group_name_Hall           'P 2ac 2ab'
loop_
_symmetry_equiv_pos_site_id
_symmetry_equiv_pos_as_xyz
1 x,y,z
2 1/2+x,1/2-y,-z
3 -x,1/2+y,1/2-z
4 1/2-x,-y,1/2+z
_cell_length_a                   12.479(4)
_cell_length_b                   12.421(2)
_cell_length_c                   7.057(1)
_cell_angle_alpha                90
_cell_angle_beta                 90
_cell_angle_gamma                90
_cell_volume                     1093.85
_exptl_crystal_colour            colorless
_chemical_melting_point          181-183deg.C
_cell_formula_units_Z            4
loop_
_atom_site_label
_atom_site_type_symbol
_atom_site_fract_x
_atom_site_fract_y
_atom_site_fract_z
C1 C 0.5981(6) 0.2198(6) 1.0096(10)
C2 C 0.7101(6) 0.2542(6) 1.0472(9)
C3 C 0.7830(5) 0.1596(6) 1.0460(10)
N1 N 0.7127(4) 0.0697(5) 1.0422(8)
C4 C 0.7473(6) -0.0328(5) 1.0441(9)
N2 N 0.6623(5) -0.1145(5) 1.0412(8)
C5 C 0.6718(6) -0.2254(5) 1.0510(10)
C6 C 0.5607(7) -0.2575(6) 1.0356(12)
C7 C 0.4952(6) -0.1756(7) 1.0217(11)
C8 C 0.5581(5) -0.0831(5) 1.0269(8)
C9 C 0.5229(6) 0.0242(5) 0.9882(8)
C10 C 0.6018(5) 0.1030(6) 1.0768(9)
C11 C 0.7429(3) 0.3574(7) 1.0860(12)
C12 C 0.6728(8) 0.4558(7) 1.0818(15)
O1 O 0.8428(4) -0.0600(4) 1.0438(7)
O2 O 0.5003(4) 0.0423(4) 0.7957(7)
H1 H 0.5441 0.2652 1.0986
H2 H 0.5830 0.2219 0.8590
H3 H 0.8292 0.1583 1.1755
H4 H 0.8308 0.1606 0.9184
H5 H 0.7427 -0.2746 1.0661
H6 H 0.5345 -0.3404 1.0356
H7 H 0.4091 -0.1790 1.0087
H8 H 0.4460 0.0374 1.0541
H9 H 0.5768 0.1007 1.2232
H10 H 0.8262 0.3668 1.1225
H11 H 0.7198 0.5259 1.1181
H12 H 0.6084 0.4466 1.1829
H13 H 0.6397 0.4657 0.9415
H14 H 0.4772 0.1154 0.7785
loop_
_geom_bond_atom_site_label_1
_geom_bond_atom_site_label_2
_geom_bond_site_symmetry_1
_geom_bond_site_symmetry_2
C1 C2 1_555 1_555
C2 C3 1_555 1_555
C3 N1 1_555 1_555
N1 C4 1_555 1_555
C4 N2 1_555 1_555
N2 C5 1_555 1_555
C5 C6 1_555 1_555
C6 C7 1_555 1_555
C7 C8 1_555 1_555
C8 N2 1_555 1_555
C9 C8 1_555 1_555
C10 C1 1_555 1_555
C11 C2 1_555 1_555
C12 C11 1_555 1_555
O1 C4 1_555 1_555
O2 C9 1_555 1_555
H1 C1 1_555 1_555
H2 C1 1_555 1_555
H3 C3 1_555 1_555
H4 C3 1_555 1_555
H5 C5 1_555 1_555
H6 C6 1_555 1_555
H7 C7 1_555 1_555
H8 C9 1_555 1_555
H9 C10 1_555 1_555
H10 C11 1_555 1_555
H11 C12 1_555 1_555
H12 C12 1_555 1_555
H13 C12 1_555 1_555
H14 O2 1_555 1_555
N1 C10 1_555 1_555
C9 C10 1_555 1_555

#END
