
#######################################################################
#
#                 Cambridge Crystallographic Data Centre
#                                CCDC 
#
#######################################################################
#
# If this CIF has been generated from an entry in the Cambridge 
# Structural Database, then it will include bibliographic, chemical, 
# crystal, experimental, refinement or atomic coordinate data resulting 
# from the CCDC's data processing and validation procedures.
#
#######################################################################

data_FEBKOP02
_chemical_formula_moiety         'C13 H10 Cl1 N1 O2'
_chemical_name_systematic        '4-chloro-2-(phenylamino)benzoic acid'
_symmetry_cell_setting           orthorhombic
_symmetry_space_group_name_H-M   'P b c a'
_symmetry_Int_Tables_number      61
_space_group_name_Hall           '-P 2ac 2ab'
loop_
_symmetry_equiv_pos_site_id
_symmetry_equiv_pos_as_xyz
1 x,y,z
2 1/2-x,-y,1/2+z
3 1/2+x,1/2-y,-z
4 -x,1/2+y,1/2-z
5 -x,-y,-z
6 1/2+x,y,1/2-z
7 1/2-x,1/2+y,z
8 x,1/2-y,1/2+z
_cell_length_a                   9.8504(1)
_cell_length_b                   7.4915(2)
_cell_length_c                   31.4272(8)
_cell_angle_alpha                90
_cell_angle_beta                 90
_cell_angle_gamma                90
_cell_volume                     2319.15
_exptl_crystal_colour            colorless
_exptl_crystal_description       rod
_cell_formula_units_Z            8
loop_
_atom_site_label
_atom_site_type_symbol
_atom_site_fract_x
_atom_site_fract_y
_atom_site_fract_z
Cl1 Cl 1.15122(7) 0.33957(12) 0.62450(2)
C1 C 0.7640(3) 0.2122(4) 0.59897(8)
C2 C 0.7753(3) 0.1372(4) 0.55767(8)
C3 C 0.9047(3) 0.1162(4) 0.53968(8)
H1 H 0.912162 0.060754 0.512592
C4 C 1.0209(3) 0.1726(4) 0.55970(9)
H2 H 1.107694 0.155971 0.547161
C5 C 1.0064(3) 0.2544(4) 0.59873(9)
C6 C 0.8828(3) 0.2767(4) 0.61834(8)
H3 H 0.877748 0.335696 0.645049
N1 N 0.6396(2) 0.2269(3) 0.61871(7)
H4 H 0.567(3) 0.211(4) 0.6007(9)
C7 C 0.6125(3) 0.2884(4) 0.66013(8)
C8 C 0.6935(3) 0.2441(4) 0.69507(9)
H5 H 0.769896 0.168091 0.691621
C9 C 0.6613(3) 0.3124(4) 0.73484(9)
H6 H 0.718164 0.286439 0.758468
C10 C 0.5475(3) 0.4178(4) 0.74050(9)
H7 H 0.526782 0.464726 0.767819
C11 C 0.4641(3) 0.4546(4) 0.70629(9)
H8 H 0.384405 0.524088 0.710253
C12 C 0.4962(3) 0.3905(4) 0.66635(9)
H9 H 0.438500 0.416337 0.642927
C13 C 0.6561(3) 0.0818(4) 0.53294(9)
O1 O 0.53744(18) 0.1102(3) 0.54382(6)
O2 O 0.6844(2) 0.0018(3) 0.49629(6)
H10 H 0.609(3) -0.034(4) 0.4828(9)
loop_
_geom_bond_atom_site_label_1
_geom_bond_atom_site_label_2
_geom_bond_site_symmetry_1
_geom_bond_site_symmetry_2
Cl1 C5 1_555 1_555
C1 C2 1_555 1_555
C2 C3 1_555 1_555
C3 H1 1_555 1_555
C4 C3 1_555 1_555
H2 C4 1_555 1_555
C5 C4 1_555 1_555
C6 C1 1_555 1_555
H3 C6 1_555 1_555
N1 C1 1_555 1_555
H4 N1 1_555 1_555
C7 N1 1_555 1_555
C8 C7 1_555 1_555
H5 C8 1_555 1_555
C9 C8 1_555 1_555
H6 C9 1_555 1_555
C10 C9 1_555 1_555
H7 C10 1_555 1_555
C11 C10 1_555 1_555
H8 C11 1_555 1_555
C12 C7 1_555 1_555
H9 C12 1_555 1_555
C13 C2 1_555 1_555
O1 C13 1_555 1_555
O2 C13 1_555 1_555
H10 O2 1_555 1_555
C5 C6 1_555 1_555
C11 C12 1_555 1_555

#END
