
#######################################################################
#
#                 Cambridge Crystallographic Data Centre
#                                CCDC 
#
#######################################################################
#
# If this CIF has been generated from an entry in the Cambridge 
# Structural Database, then it will include bibliographic, chemical, 
# crystal, experimental, refinement or atomic coordinate data resulting 
# from the CCDC's data processing and validation procedures.
#
#######################################################################

data_FEBLUW
_chemical_formula_moiety         'C24 H23 B1 F10 N1 1-,Li1 1+'
_chemical_name_systematic        
'lithium bis(pentafluorophenyl)[3-(2,2,6,6-tetramethylpiperidin-1-yl)propylidene]borate'
_symmetry_cell_setting           triclinic
_symmetry_space_group_name_H-M   'P -1'
_symmetry_Int_Tables_number      2
_space_group_name_Hall           '-P 1'
loop_
_symmetry_equiv_pos_site_id
_symmetry_equiv_pos_as_xyz
1 x,y,z
2 -x,-y,-z
_cell_length_a                   7.4978(3)
_cell_length_b                   10.8784(3)
_cell_length_c                   14.5077(5)
_cell_angle_alpha                83.4720(10)
_cell_angle_beta                 89.7130(10)
_cell_angle_gamma                73.8890(10)
_cell_volume                     1129.03
_exptl_crystal_colour            colorless
_exptl_crystal_description       prism
_cell_formula_units_Z            2
loop_
_atom_site_label
_atom_site_type_symbol
_atom_site_fract_x
_atom_site_fract_y
_atom_site_fract_z
B1 B 0.67587(19) 0.57136(13) 0.27168(9)
N1 N 0.39318(15) 0.96254(10) 0.22929(7)
C1 C 0.56489(18) 0.93219(12) 0.17258(9)
H1 H 0.6613 0.9623 0.2021
H2 H 0.5355 0.9814 0.1102
C2 C 0.64576(18) 0.78818(12) 0.16106(9)
H3 H 0.5513 0.76 0.1282
H4 H 0.7543 0.7793 0.1206
C3 C 0.70633(17) 0.69688(12) 0.24986(9)
H5 H 0.790(2) 0.7229(16) 0.2892(12)
C4 C 0.21800(18) 1.01770(12) 0.16825(9)
C5 C 0.04905(18) 1.03105(13) 0.23078(9)
H6 H -0.0656 1.0712 0.1924
H7 H 0.0443 0.9441 0.2574
C6 C 0.05342(19) 1.11157(13) 0.30966(10)
H8 H -0.0532 1.1118 0.3502
H9 H 0.0434 1.2016 0.284
C7 C 0.23480(19) 1.05515(12) 0.36594(9)
H10 H 0.2353 0.9695 0.3976
H11 H 0.2395 1.1114 0.4144
C8 C 0.41031(18) 1.04035(12) 0.30794(9)
C9 C 0.2032(2) 1.14783(13) 0.10936(9)
H12 H 0.1716 1.2172 0.1493
H13 H 0.1063 1.1635 0.0609
H14 H 0.3224 1.1454 0.0805
C10 C 0.2079(2) 0.92178(13) 0.09959(9)
H15 H 0.3044 0.9198 0.0535
H16 H 0.0856 0.9488 0.0681
H17 H 0.2274 0.8356 0.1334
C11 C 0.4427(2) 1.17315(13) 0.27786(10)
H18 H 0.5349 1.165 0.2292
H19 H 0.4882 1.2043 0.3314
H20 H 0.3256 1.2344 0.254
C12 C 0.57655(19) 0.96389(13) 0.37212(9)
H21 H 0.5668 0.8764 0.3898
H22 H 0.5763 1.0068 0.428
H23 H 0.6924 0.9598 0.3394
C13 C 0.54564(18) 0.52068(12) 0.20605(8)
C14 C 0.35588(18) 0.57327(12) 0.19696(9)
F1 F 0.27134(10) 0.66611(7) 0.25298(5)
C15 C 0.24062(18) 0.54223(12) 0.13449(9)
F2 F 0.05924(11) 0.60266(8) 0.12651(6)
C16 C 0.31931(19) 0.44808(12) 0.07860(9)
F3 F 0.21424(12) 0.41675(8) 0.01554(5)
C17 C 0.50779(19) 0.38738(12) 0.08707(9)
F4 F 0.58427(12) 0.29356(8) 0.03381(6)
C18 C 0.61657(18) 0.42441(12) 0.14938(9)
F5 F 0.80036(11) 0.36349(8) 0.15327(6)
C19 C 0.76613(17) 0.47344(11) 0.36104(8)
C20 C 0.65880(17) 0.41497(12) 0.42001(9)
F6 F 0.47383(10) 0.44380(7) 0.40303(5)
C21 C 0.72959(18) 0.33032(12) 0.49793(9)
F7 F 0.61647(11) 0.27945(7) 0.55469(5)
C22 C 0.91657(18) 0.29843(12) 0.52007(8)
F8 F 0.98586(11) 0.21475(8) 0.59528(5)
C23 C 1.03038(17) 0.35292(12) 0.46407(9)
F9 F 1.21313(10) 0.32198(8) 0.48501(6)
C24 C 0.95433(17) 0.43824(12) 0.38655(9)
F10 F 1.07398(11) 0.48657(8) 0.33454(5)
Li1 Li 0.4175(3) 0.7765(2) 0.29838(16)
loop_
_geom_bond_atom_site_label_1
_geom_bond_atom_site_label_2
_geom_bond_site_symmetry_1
_geom_bond_site_symmetry_2
B1 C3 1_555 1_555
N1 C1 1_555 1_555
C1 H1 1_555 1_555
H2 C1 1_555 1_555
C2 C1 1_555 1_555
H3 C2 1_555 1_555
H4 C2 1_555 1_555
C3 C2 1_555 1_555
H5 C3 1_555 1_555
C4 N1 1_555 1_555
C5 C4 1_555 1_555
H6 C5 1_555 1_555
H7 C5 1_555 1_555
C6 C5 1_555 1_555
H8 C6 1_555 1_555
H9 C6 1_555 1_555
C7 C6 1_555 1_555
H10 C7 1_555 1_555
H11 C7 1_555 1_555
C8 N1 1_555 1_555
C9 C4 1_555 1_555
H12 C9 1_555 1_555
H13 C9 1_555 1_555
H14 C9 1_555 1_555
C10 C4 1_555 1_555
H15 C10 1_555 1_555
H16 C10 1_555 1_555
H17 C10 1_555 1_555
C11 C8 1_555 1_555
H18 C11 1_555 1_555
H19 C11 1_555 1_555
H20 C11 1_555 1_555
C12 C8 1_555 1_555
H21 C12 1_555 1_555
H22 C12 1_555 1_555
H23 C12 1_555 1_555
C13 B1 1_555 1_555
C14 C13 1_555 1_555
F1 C14 1_555 1_555
C15 C14 1_555 1_555
F2 C15 1_555 1_555
C16 C15 1_555 1_555
F3 C16 1_555 1_555
C17 C16 1_555 1_555
F4 C17 1_555 1_555
C18 C13 1_555 1_555
F5 C18 1_555 1_555
C19 B1 1_555 1_555
C20 C19 1_555 1_555
F6 C20 1_555 1_555
C21 C20 1_555 1_555
F7 C21 1_555 1_555
C22 C21 1_555 1_555
F8 C22 1_555 1_555
C23 C22 1_555 1_555
F9 C23 1_555 1_555
C24 C19 1_555 1_555
F10 C24 1_555 1_555
C7 C8 1_555 1_555
C17 C18 1_555 1_555
C23 C24 1_555 1_555

#END
