
#######################################################################
#
#                 Cambridge Crystallographic Data Centre
#                                CCDC 
#
#######################################################################
#
# If this CIF has been generated from an entry in the Cambridge 
# Structural Database, then it will include bibliographic, chemical, 
# crystal, experimental, refinement or atomic coordinate data resulting 
# from the CCDC's data processing and validation procedures.
#
#######################################################################

data_FEBMOR
_chemical_formula_moiety         'C29 H31 B1 F10 N1 O1 1-,C9 H19 N1,Li1 1+'
_chemical_name_systematic        
'lithium 2,2-bis(pentafluorophenyl)-3-[2-(2,2,6,6-tetramethylpiperidin-1-yl)ethyl]-1-oxa-2-boraspiro[3.4]octan-2-ide 2,2,6,6-tetramethylpiperidine unknown solvate'
_symmetry_cell_setting           triclinic
_symmetry_space_group_name_H-M   'P -1'
_symmetry_Int_Tables_number      2
_space_group_name_Hall           '-P 1'
loop_
_symmetry_equiv_pos_site_id
_symmetry_equiv_pos_as_xyz
1 x,y,z
2 -x,-y,-z
_cell_length_a                   11.3860(2)
_cell_length_b                   12.1287(3)
_cell_length_c                   15.1316(3)
_cell_angle_alpha                91.934(2)
_cell_angle_beta                 94.577(1)
_cell_angle_gamma                99.948(1)
_cell_volume                     2049.25
_exptl_crystal_colour            colorless
_exptl_crystal_description       prism
_cell_formula_units_Z            2
loop_
_atom_site_label
_atom_site_type_symbol
_atom_site_fract_x
_atom_site_fract_y
_atom_site_fract_z
O1 O 0.43857(13) 0.49857(13) 0.29116(11)
C1 C 0.7258(2) 0.2790(2) 0.26034(16)
H1 H 0.7723 0.3535 0.2530
H2 H 0.7345 0.2634 0.3234
C2 C 0.5937(2) 0.2806(2) 0.23297(16)
H3 H 0.5860 0.3042 0.1718
H4 H 0.5483 0.2043 0.2342
C3 C 0.5392(2) 0.3581(2) 0.29228(16)
H5 H 0.5614 0.3444 0.3550
C4 C 0.5636(2) 0.4864(2) 0.27993(17)
C5 C 0.6494(2) 0.5644(2) 0.3470(2)
H6 H 0.7187 0.5300 0.3656
H7 H 0.6090 0.5800 0.3996
C6 C 0.6891(3) 0.6726(3) 0.2997(3)
H8 H 0.6669 0.7367 0.3313
H9 H 0.7761 0.6864 0.2968
C7 C 0.6249(3) 0.6552(3) 0.2066(2)
H10 H 0.5508 0.6862 0.2038
H11 H 0.6762 0.6908 0.1628
C8 C 0.5985(3) 0.5286(2) 0.19023(19)
H12 H 0.6693 0.5004 0.1729
H13 H 0.5326 0.5060 0.1439
N1 N 0.77616(16) 0.19560(16) 0.20920(13)
C9 C 0.8670(2) 0.2455(2) 0.14988(17)
C10 C 0.9005(2) 0.1514(2) 0.09154(18)
H14 H 0.8313 0.1198 0.0501
H15 H 0.9656 0.1834 0.0564
C11 C 0.9390(2) 0.0585(2) 0.1445(2)
H16 H 0.9573 -0.0003 0.1045
H17 H 1.0111 0.0878 0.1838
C12 C 0.8380(2) 0.0111(2) 0.1986(2)
H18 H 0.8626 -0.0485 0.2340
H19 H 0.7687 -0.0227 0.1581
C13 C 0.8002(2) 0.0982(2) 0.26086(17)
C14 C 0.8080(3) 0.3200(3) 0.0863(2)
H20 H 0.7327 0.2782 0.0592
H21 H 0.8607 0.3433 0.0405
H22 H 0.7934 0.3856 0.1192
C15 C 0.9805(3) 0.3162(3) 0.1979(2)
H23 H 0.9584 0.3637 0.2444
H24 H 1.0236 0.3625 0.1559
H25 H 1.0312 0.2671 0.2239
C16 C 0.8951(3) 0.1277(3) 0.34099(19)
H26 H 0.9737 0.1487 0.3198
H27 H 0.8943 0.0632 0.3772
H28 H 0.8768 0.1899 0.3762
C17 C 0.6827(3) 0.0426(2) 0.2960(2)
H29 H 0.6592 0.0930 0.3398
H30 H 0.6941 -0.0265 0.3232
H31 H 0.6207 0.0263 0.2473
B1 B 0.3994(2) 0.3719(2) 0.28163(18)
C18 C 0.3108(2) 0.32761(19) 0.35817(15)
F1 F 0.19717(13) 0.46780(12) 0.32317(11)
C19 C 0.2166(2) 0.3802(2) 0.37420(16)
F2 F 0.04741(16) 0.40732(17) 0.44785(13)
C20 C 0.1369(2) 0.3508(2) 0.43670(19)
F3 F 0.07426(18) 0.22845(19) 0.54784(12)
C21 C 0.1506(3) 0.2614(3) 0.48729(18)
F4 F 0.25585(18) 0.11672(15) 0.52377(11)
C22 C 0.2427(3) 0.2047(2) 0.47425(17)
F5 F 0.40829(14) 0.17733(13) 0.40197(10)
C23 C 0.3202(2) 0.2375(2) 0.41129(16)
C24 C 0.3261(2) 0.33021(19) 0.18441(15)
F6 F 0.29876(14) 0.51200(12) 0.13901(10)
C25 C 0.2853(2) 0.39846(19) 0.12126(16)
F7 F 0.19002(17) 0.43338(14) -0.01723(10)
C26 C 0.2277(2) 0.3614(2) 0.03972(16)
F8 F 0.14775(15) 0.21053(14) -0.06181(10)
C27 C 0.2052(2) 0.2487(2) 0.01736(16)
F9 F 0.21539(15) 0.06520(12) 0.05724(10)
C28 C 0.2397(2) 0.1760(2) 0.07782(16)
F10 F 0.32760(13) 0.14073(11) 0.21474(10)
C29 C 0.2978(2) 0.2176(2) 0.15784(15)
N2 N 0.2357(2) 0.70972(18) 0.30465(14)
H32 H 0.171(3) 0.663(3) 0.332(2)
C30 C 0.3041(3) 0.7829(2) 0.38050(19)
C31 C 0.2307(3) 0.8670(3) 0.4148(2)
H33 H 0.1665 0.8271 0.4473
H34 H 0.2824 0.9214 0.4567
C32 C 0.1767(4) 0.9287(3) 0.3423(3)
H35 H 0.2406 0.9759 0.3142
H36 H 0.1268 0.9777 0.3678
C33 C 0.1019(4) 0.8487(3) 0.2736(2)
H37 H 0.0730 0.8917 0.2253
H38 H 0.0317 0.8097 0.3004
C34 C 0.1675(3) 0.7616(2) 0.23436(18)
C35 C 0.4235(3) 0.8406(4) 0.3555(3)
H39 H 0.4646 0.7860 0.3287
H40 H 0.4712 0.8759 0.4081
H41 H 0.4119 0.8972 0.3134
C36 C 0.3243(5) 0.7035(4) 0.4540(2)
H42 H 0.2478 0.6624 0.4681
H43 H 0.3644 0.7464 0.5064
H44 H 0.3735 0.6513 0.4342
C37 C 0.2529(5) 0.8142(4) 0.1680(2)
H45 H 0.3029 0.8816 0.1952
H46 H 0.2069 0.8331 0.1157
H47 H 0.3029 0.7612 0.1512
C38 C 0.0794(4) 0.6677(4) 0.1861(3)
H48 H 0.1224 0.6156 0.1582
H49 H 0.0302 0.6982 0.1411
H50 H 0.0288 0.6289 0.2280
Li1 Li 0.3252(4) 0.5851(4) 0.2658(3)
loop_
_geom_bond_atom_site_label_1
_geom_bond_atom_site_label_2
_geom_bond_site_symmetry_1
_geom_bond_site_symmetry_2
O1 C4 1_555 1_555
C1 H1 1_555 1_555
H2 C1 1_555 1_555
C2 C1 1_555 1_555
H3 C2 1_555 1_555
H4 C2 1_555 1_555
C3 C2 1_555 1_555
H5 C3 1_555 1_555
C4 C3 1_555 1_555
C5 C4 1_555 1_555
H6 C5 1_555 1_555
H7 C5 1_555 1_555
C6 C5 1_555 1_555
H8 C6 1_555 1_555
H9 C6 1_555 1_555
C7 C6 1_555 1_555
H10 C7 1_555 1_555
H11 C7 1_555 1_555
C8 C4 1_555 1_555
H12 C8 1_555 1_555
H13 C8 1_555 1_555
N1 C1 1_555 1_555
C9 N1 1_555 1_555
C10 C9 1_555 1_555
H14 C10 1_555 1_555
H15 C10 1_555 1_555
C11 C10 1_555 1_555
H16 C11 1_555 1_555
H17 C11 1_555 1_555
C12 C11 1_555 1_555
H18 C12 1_555 1_555
H19 C12 1_555 1_555
C13 N1 1_555 1_555
C14 C9 1_555 1_555
H20 C14 1_555 1_555
H21 C14 1_555 1_555
H22 C14 1_555 1_555
C15 C9 1_555 1_555
H23 C15 1_555 1_555
H24 C15 1_555 1_555
H25 C15 1_555 1_555
C16 C13 1_555 1_555
H26 C16 1_555 1_555
H27 C16 1_555 1_555
H28 C16 1_555 1_555
C17 C13 1_555 1_555
H29 C17 1_555 1_555
H30 C17 1_555 1_555
H31 C17 1_555 1_555
B1 O1 1_555 1_555
C18 B1 1_555 1_555
F1 C19 1_555 1_555
C19 C18 1_555 1_555
F2 C20 1_555 1_555
C20 C19 1_555 1_555
F3 C21 1_555 1_555
C21 C20 1_555 1_555
F4 C22 1_555 1_555
C22 C21 1_555 1_555
F5 C23 1_555 1_555
C23 C18 1_555 1_555
C24 B1 1_555 1_555
F6 C25 1_555 1_555
C25 C24 1_555 1_555
F7 C26 1_555 1_555
C26 C25 1_555 1_555
F8 C27 1_555 1_555
C27 C26 1_555 1_555
F9 C28 1_555 1_555
C28 C27 1_555 1_555
F10 C29 1_555 1_555
C29 C24 1_555 1_555
N2 H32 1_555 1_555
C30 N2 1_555 1_555
C31 C30 1_555 1_555
H33 C31 1_555 1_555
H34 C31 1_555 1_555
C32 C31 1_555 1_555
H35 C32 1_555 1_555
H36 C32 1_555 1_555
C33 C32 1_555 1_555
H37 C33 1_555 1_555
H38 C33 1_555 1_555
C34 N2 1_555 1_555
C35 C30 1_555 1_555
H39 C35 1_555 1_555
H40 C35 1_555 1_555
H41 C35 1_555 1_555
C36 C30 1_555 1_555
H42 C36 1_555 1_555
H43 C36 1_555 1_555
H44 C36 1_555 1_555
C37 C34 1_555 1_555
H45 C37 1_555 1_555
H46 C37 1_555 1_555
H47 C37 1_555 1_555
C38 C34 1_555 1_555
H48 C38 1_555 1_555
H49 C38 1_555 1_555
H50 C38 1_555 1_555
C3 B1 1_555 1_555
C7 C8 1_555 1_555
C12 C13 1_555 1_555
C22 C23 1_555 1_555
C28 C29 1_555 1_555
C33 C34 1_555 1_555

#END
