
#######################################################################
#
#                 Cambridge Crystallographic Data Centre
#                                CCDC 
#
#######################################################################
#
# If this CIF has been generated from an entry in the Cambridge 
# Structural Database, then it will include bibliographic, chemical, 
# crystal, experimental, refinement or atomic coordinate data resulting 
# from the CCDC's data processing and validation procedures.
#
#######################################################################

data_FEBMIL
_chemical_formula_moiety         
'C37 H31 B1 F10 N1 O1 1-,C9 H19 N1,C1 H2 Cl2,Li1 1+'
_chemical_name_systematic        
"lithium 2',2'-bis(pentafluorophenyl)-3'-[2-(2,2,6,6-tetramethylpiperidin-1-yl)ethyl]spiro[fluorene-9,4'-[1,2]oxaboretan[2]ide] 2,2,6,6-tetramethylpiperidine dichloromethane solvate"
_symmetry_cell_setting           monoclinic
_symmetry_space_group_name_H-M   'P 21/c'
_symmetry_Int_Tables_number      14
_space_group_name_Hall           '-P 2ybc'
loop_
_symmetry_equiv_pos_site_id
_symmetry_equiv_pos_as_xyz
1 x,y,z
2 -x,1/2+y,1/2-z
3 -x,-y,-z
4 x,1/2-y,1/2+z
_cell_length_a                   11.5750(1)
_cell_length_b                   21.5349(3)
_cell_length_c                   18.6398(4)
_cell_angle_alpha                90
_cell_angle_beta                 97.6330(1)
_cell_angle_gamma                90
_cell_volume                     4605.11
_exptl_crystal_colour            colorless
_exptl_crystal_description       prism
_cell_formula_units_Z            4
loop_
_atom_site_label
_atom_site_type_symbol
_atom_site_fract_x
_atom_site_fract_y
_atom_site_fract_z
Li1 Li 0.0275(6) 0.4843(3) 0.8073(4)
O1 O 0.12226(19) 0.54909(11) 0.79212(13)
C1 C 0.4152(3) 0.63374(19) 0.6934(2)
H1 H 0.4289 0.6661 0.7305
H2 H 0.4469 0.5948 0.7150
C2 C 0.2834(3) 0.62610(19) 0.6725(2)
H3 H 0.2527 0.6620 0.6436
H4 H 0.2682 0.5888 0.6425
C3 C 0.2205(3) 0.62060(17) 0.7387(2)
H5 H 0.2366 0.6584 0.7686
C4 C 0.2453(3) 0.56210(18) 0.78880(19)
N1 N 0.4802(2) 0.65018(15) 0.63294(17)
C5 C 0.5558(4) 0.5990(2) 0.6119(2)
C6 C 0.6065(4) 0.6184(2) 0.5436(3)
H6 H 0.6625 0.5868 0.5325
H7 H 0.5435 0.6199 0.5030
C7 C 0.6671(4) 0.6811(2) 0.5503(3)
H8 H 0.7348 0.6794 0.5880
H9 H 0.6944 0.6921 0.5044
C8 C 0.5814(4) 0.7292(2) 0.5697(2)
H10 H 0.5184 0.7333 0.5294
H11 H 0.6211 0.7694 0.5760
C9 C 0.5283(3) 0.7141(2) 0.6386(2)
C10 C 0.6556(4) 0.5792(3) 0.6715(3)
H12 H 0.7173 0.6099 0.6752
H13 H 0.6863 0.5392 0.6590
H14 H 0.6256 0.5759 0.7175
C11 C 0.4789(4) 0.5425(2) 0.5920(3)
H15 H 0.4521 0.5259 0.6353
H16 H 0.5234 0.5111 0.5705
H17 H 0.4123 0.5546 0.5577
C12 C 0.6203(4) 0.7260(2) 0.7056(2)
H18 H 0.5931 0.7084 0.7483
H19 H 0.6318 0.7704 0.7123
H20 H 0.6935 0.7067 0.6982
C13 C 0.4278(4) 0.7597(2) 0.6424(2)
H21 H 0.3657 0.7510 0.6034
H22 H 0.4554 0.8018 0.6376
H23 H 0.3986 0.7551 0.6885
B1 B 0.0840(4) 0.6015(2) 0.7387(2)
C14 C 0.0117(3) 0.57659(19) 0.6617(2)
F1 F 0.0321(2) 0.67505(12) 0.60974(13)
C15 C -0.0068(3) 0.6160(2) 0.6028(2)
F2 F -0.0792(2) 0.63954(15) 0.48078(13)
C16 C -0.0652(3) 0.5986(3) 0.5359(2)
F3 F -0.1688(2) 0.52315(16) 0.46272(13)
C17 C -0.1100(4) 0.5397(3) 0.5269(2)
F4 F -0.1419(3) 0.44250(14) 0.57526(16)
C18 C -0.0964(4) 0.4997(2) 0.5837(2)
F5 F -0.0304(2) 0.47451(11) 0.70284(13)
C19 C -0.0365(3) 0.5188(2) 0.6489(2)
C20 C -0.0022(3) 0.64903(18) 0.77595(19)
F6 F 0.0867(2) 0.74329(11) 0.74671(14)
C21 C 0.0048(3) 0.71316(19) 0.7790(2)
F7 F -0.0571(2) 0.81223(13) 0.81324(15)
C22 C -0.0690(4) 0.7500(2) 0.8130(2)
F8 F -0.2278(2) 0.75856(14) 0.87906(15)
C23 C -0.1551(4) 0.7231(2) 0.8461(2)
F9 F -0.2523(2) 0.63248(15) 0.87602(14)
C24 C -0.1668(3) 0.6597(2) 0.8446(2)
F10 F -0.10775(19) 0.56172(11) 0.80988(13)
C25 C -0.0912(3) 0.6251(2) 0.8104(2)
C26 C 0.3085(3) 0.50640(17) 0.7619(2)
C27 C 0.4116(3) 0.49598(19) 0.8091(2)
C28 C 0.4828(4) 0.4469(2) 0.7955(3)
H24 H 0.5529 0.4397 0.8260
C29 C 0.4504(4) 0.4086(2) 0.7372(3)
H25 H 0.4984 0.3750 0.7284
C30 C 0.3481(5) 0.4190(2) 0.6916(3)
H26 H 0.3271 0.3924 0.6521
C31 C 0.2760(4) 0.4685(2) 0.7036(2)
H27 H 0.2066 0.4759 0.6725
C32 C 0.3170(3) 0.57581(18) 0.86091(19)
C33 C 0.4187(3) 0.53995(19) 0.8693(2)
C34 C 0.5037(4) 0.5500(2) 0.9281(2)
H28 H 0.5730 0.5267 0.9337
C35 C 0.4846(4) 0.5947(3) 0.9781(3)
H29 H 0.5420 0.6021 1.0178
C36 C 0.3830(4) 0.6287(2) 0.9709(2)
H30 H 0.3707 0.6580 1.0065
C37 C 0.2984(3) 0.6200(2) 0.9116(2)
H31 H 0.2297 0.6438 0.9061
N2 N 0.0073(3) 0.39813(16) 0.85238(18)
H32 H 0.007(3) 0.3725(16) 0.8161(18)
C38 C 0.1151(3) 0.38091(19) 0.9028(2)
C39 C 0.1020(3) 0.3196(2) 0.9418(2)
H33 H 0.1049 0.2854 0.9074
H34 H 0.1681 0.3147 0.9801
C40 C -0.0106(4) 0.3151(2) 0.9751(2)
H35 H -0.0160 0.2742 0.9975
H36 H -0.0113 0.3468 1.0128
C41 C -0.1133(3) 0.32469(19) 0.9169(2)
H37 H -0.1855 0.3223 0.9390
H38 H -0.1148 0.2910 0.8815
C42 C -0.1101(3) 0.38691(19) 0.8774(2)
C43 C 0.1473(4) 0.4334(2) 0.9568(3)
H39 H 0.1511 0.4723 0.9309
H40 H 0.2225 0.4248 0.9846
H41 H 0.0886 0.4365 0.9893
C44 C 0.2114(3) 0.3750(2) 0.8548(3)
H42 H 0.1921 0.3419 0.8199
H43 H 0.2846 0.3656 0.8845
H44 H 0.2187 0.4138 0.8293
C45 C -0.1403(4) 0.4404(2) 0.9255(3)
H45 H -0.2212 0.4369 0.9335
H46 H -0.1284 0.4796 0.9020
H47 H -0.0905 0.4385 0.9716
C46 C -0.1978(4) 0.3859(2) 0.8083(3)
H48 H -0.1722 0.3565 0.7743
H49 H -0.2030 0.4270 0.7868
H50 H -0.2737 0.3736 0.8200
C47 C 0.3109(8) 0.8277(5) 0.9151(6)
H51 H 0.3588 0.8457 0.9573
H52 H 0.2789 0.8620 0.8842
Cl1 Cl 0.4001(2) 0.78251(12) 0.86707(13)
Cl2 Cl 0.1989(2) 0.78776(12) 0.94372(17)
C48? C 0.259(5) 0.811(3) 0.8793(14)
H53? H 0.1830 0.8232 0.8528
H54? H 0.2872 0.7731 0.8594
Cl3? Cl 0.259(2) 0.8088(10) 0.9722(10)
Cl4? Cl 0.3604(17) 0.8715(11) 0.8860(10)
loop_
_geom_bond_atom_site_label_1
_geom_bond_atom_site_label_2
_geom_bond_site_symmetry_1
_geom_bond_site_symmetry_2
O1 C4 1_555 1_555
C1 H1 1_555 1_555
H2 C1 1_555 1_555
C2 C1 1_555 1_555
H3 C2 1_555 1_555
H4 C2 1_555 1_555
C3 C2 1_555 1_555
H5 C3 1_555 1_555
C4 C3 1_555 1_555
N1 C1 1_555 1_555
C5 N1 1_555 1_555
C6 C5 1_555 1_555
H6 C6 1_555 1_555
H7 C6 1_555 1_555
C7 C6 1_555 1_555
H8 C7 1_555 1_555
H9 C7 1_555 1_555
C8 C7 1_555 1_555
H10 C8 1_555 1_555
H11 C8 1_555 1_555
C9 N1 1_555 1_555
C10 C5 1_555 1_555
H12 C10 1_555 1_555
H13 C10 1_555 1_555
H14 C10 1_555 1_555
C11 C5 1_555 1_555
H15 C11 1_555 1_555
H16 C11 1_555 1_555
H17 C11 1_555 1_555
C12 C9 1_555 1_555
H18 C12 1_555 1_555
H19 C12 1_555 1_555
H20 C12 1_555 1_555
C13 C9 1_555 1_555
H21 C13 1_555 1_555
H22 C13 1_555 1_555
H23 C13 1_555 1_555
B1 O1 1_555 1_555
C14 B1 1_555 1_555
F1 C15 1_555 1_555
C15 C14 1_555 1_555
F2 C16 1_555 1_555
C16 C15 1_555 1_555
F3 C17 1_555 1_555
C17 C16 1_555 1_555
F4 C18 1_555 1_555
C18 C17 1_555 1_555
F5 C19 1_555 1_555
C19 C14 1_555 1_555
C20 B1 1_555 1_555
F6 C21 1_555 1_555
C21 C20 1_555 1_555
F7 C22 1_555 1_555
C22 C21 1_555 1_555
F8 C23 1_555 1_555
C23 C22 1_555 1_555
F9 C24 1_555 1_555
C24 C23 1_555 1_555
F10 C25 1_555 1_555
C25 C20 1_555 1_555
C26 C4 1_555 1_555
C27 C26 1_555 1_555
C28 C27 1_555 1_555
H24 C28 1_555 1_555
C29 C28 1_555 1_555
H25 C29 1_555 1_555
C30 C29 1_555 1_555
H26 C30 1_555 1_555
C31 C26 1_555 1_555
H27 C31 1_555 1_555
C32 C4 1_555 1_555
C33 C27 1_555 1_555
C34 C33 1_555 1_555
H28 C34 1_555 1_555
C35 C34 1_555 1_555
H29 C35 1_555 1_555
C36 C35 1_555 1_555
H30 C36 1_555 1_555
C37 C32 1_555 1_555
H31 C37 1_555 1_555
N2 H32 1_555 1_555
C38 N2 1_555 1_555
C39 C38 1_555 1_555
H33 C39 1_555 1_555
H34 C39 1_555 1_555
C40 C39 1_555 1_555
H35 C40 1_555 1_555
H36 C40 1_555 1_555
C41 C40 1_555 1_555
H37 C41 1_555 1_555
H38 C41 1_555 1_555
C42 N2 1_555 1_555
C43 C38 1_555 1_555
H39 C43 1_555 1_555
H40 C43 1_555 1_555
H41 C43 1_555 1_555
C44 C38 1_555 1_555
H42 C44 1_555 1_555
H43 C44 1_555 1_555
H44 C44 1_555 1_555
C45 C42 1_555 1_555
H45 C45 1_555 1_555
H46 C45 1_555 1_555
H47 C45 1_555 1_555
C46 C42 1_555 1_555
H48 C46 1_555 1_555
H49 C46 1_555 1_555
H50 C46 1_555 1_555
C47 H51 1_555 1_555
H52 C47 1_555 1_555
Cl1 C47 1_555 1_555
Cl2 C47 1_555 1_555
C3 B1 1_555 1_555
C8 C9 1_555 1_555
C18 C19 1_555 1_555
C24 C25 1_555 1_555
C30 C31 1_555 1_555
C32 C33 1_555 1_555
C36 C37 1_555 1_555
C41 C42 1_555 1_555

#END
