
#######################################################################
#
#                 Cambridge Crystallographic Data Centre
#                                CCDC 
#
#######################################################################
#
# If this CIF has been generated from an entry in the Cambridge 
# Structural Database, then it will include bibliographic, chemical, 
# crystal, experimental, refinement or atomic coordinate data resulting 
# from the CCDC's data processing and validation procedures.
#
#######################################################################

data_FEBNOS
_chemical_formula_moiety         'C33 H11 B2 F20 1-,C9 H19 N1,Li1 1+'
_chemical_name_systematic        
'lithium (3-phenylpropane-1,1-diyl)(hydrido)bis[bis(pentafluorophenyl)borate] 2,2,6,6-tetramethylpiperidine'
_symmetry_cell_setting           monoclinic
_symmetry_space_group_name_H-M   'P 21'
_symmetry_Int_Tables_number      4
_space_group_name_Hall           'P 2yb'
loop_
_symmetry_equiv_pos_site_id
_symmetry_equiv_pos_as_xyz
1 x,y,z
2 -x,1/2+y,-z
_cell_length_a                   10.1438(8)
_cell_length_b                   19.1936(16)
_cell_length_c                   10.2323(8)
_cell_angle_alpha                90
_cell_angle_beta                 91.835(9)
_cell_angle_gamma                90
_cell_volume                     1991.17
_exptl_crystal_colour            colorless
_exptl_crystal_description       plate
_cell_formula_units_Z            2
loop_
_atom_site_label
_atom_site_type_symbol
_atom_site_fract_x
_atom_site_fract_y
_atom_site_fract_z
Li1 Li 0.6656(8) 0.6412(4) 0.7662(8)
B1 B 0.6810(5) 0.4434(2) 0.7184(5)
H1 H 0.730(4) 0.5077(19) 0.690(4)
B2 B 0.7669(5) 0.4857(3) 0.5701(5)
C1 C 0.7407(4) 0.4061(2) 0.5937(4)
H2 H 0.673(5) 0.390(3) 0.526(5)
C2 C 0.8523(4) 0.3526(2) 0.6152(4)
H3 H 0.917 0.3577 0.5454
H4 H 0.8985 0.3618 0.7001
C3 C 0.7989(4) 0.2785(2) 0.6140(5)
H5 H 0.7189 0.2772 0.6669
H6 H 0.772 0.2662 0.5231
C4 C 0.8942(4) 0.2242(2) 0.6656(4)
C5 C 0.8586(4) 0.1799(2) 0.7655(5)
H7 H 0.7748 0.1853 0.8033
C6 C 0.9432(5) 0.1278(3) 0.8112(5)
H8 H 0.9162 0.0974 0.8785
C7 C 1.0662(5) 0.1201(2) 0.7593(5)
H9 H 1.1238 0.0842 0.7899
C8 C 1.1047(5) 0.1650(2) 0.6625(5)
H10 H 1.19 0.1606 0.6276
C9 C 1.0186(5) 0.2171(2) 0.6153(5)
H11 H 1.0458 0.2477 0.5484
C10 C 0.5248(4) 0.4574(2) 0.7326(4)
C11 C 0.4799(4) 0.5142(2) 0.8014(4)
F1 F 0.5691(2) 0.56311(12) 0.8470(2)
C12 C 0.3494(4) 0.5261(2) 0.8310(4)
F2 F 0.3148(3) 0.58277(15) 0.8976(3)
C13 C 0.2562(4) 0.4774(3) 0.7911(4)
F3 F 0.1302(2) 0.48605(16) 0.8219(3)
C14 C 0.2941(4) 0.4215(2) 0.7191(4)
F4 F 0.2025(3) 0.37448(15) 0.6790(3)
C15 C 0.4251(4) 0.4122(2) 0.6924(4)
F5 F 0.4541(2) 0.35368(13) 0.6260(2)
C16 C 0.7488(4) 0.4233(2) 0.8587(4)
C17 C 0.8438(4) 0.4586(2) 0.9315(4)
F6 F 0.8819(2) 0.52323(12) 0.8942(2)
C18 C 0.9046(4) 0.4327(2) 1.0453(4)
F7 F 0.9980(3) 0.47021(13) 1.1105(2)
C19 C 0.8684(5) 0.3696(2) 1.0920(4)
F8 F 0.9243(3) 0.34400(14) 1.2037(2)
C20 C 0.7700(4) 0.3326(2) 1.0271(4)
F9 F 0.7301(3) 0.27077(13) 1.0725(3)
C21 C 0.7129(4) 0.3601(2) 0.9140(4)
F10 F 0.6159(3) 0.32171(13) 0.8544(2)
C22 C 0.9114(4) 0.5226(2) 0.5726(4)
C23 C 0.9393(4) 0.5837(2) 0.6387(4)
F11 F 0.8413(2) 0.61610(12) 0.7061(2)
C24 C 1.0598(4) 0.6177(2) 0.6425(4)
F12 F 1.0766(3) 0.67672(14) 0.7113(3)
C25 C 1.1593(4) 0.5911(2) 0.5725(5)
F13 F 1.2783(3) 0.62173(15) 0.5749(3)
C26 C 1.1375(4) 0.5314(3) 0.4997(4)
F14 F 1.2352(3) 0.50584(15) 0.4279(3)
C27 C 1.0158(4) 0.4992(2) 0.4993(4)
F15 F 1.0012(3) 0.44343(13) 0.4209(2)
C28 C 0.6682(4) 0.5202(2) 0.4607(4)
C29 C 0.5897(4) 0.5787(2) 0.4721(4)
F16 F 0.5863(2) 0.61185(12) 0.5914(2)
C30 C 0.5135(4) 0.6082(2) 0.3736(4)
F17 F 0.4450(3) 0.66668(13) 0.3921(2)
C31 C 0.5091(4) 0.5773(2) 0.2521(4)
F18 F 0.4342(3) 0.60321(14) 0.1535(2)
C32 C 0.5855(4) 0.5190(2) 0.2322(4)
F19 F 0.5852(3) 0.48992(14) 0.1130(2)
C33 C 0.6619(4) 0.4924(2) 0.3342(4)
F20 F 0.7352(3) 0.43615(13) 0.3069(2)
N1 N 0.6241(4) 0.73758(19) 0.8390(3)
H12 H 0.537(7) 0.737(3) 0.879(6)
C34 C 0.7123(5) 0.7545(2) 0.9576(4)
C35 C 0.7041(5) 0.8324(3) 0.9936(5)
H13 H 0.619 0.8412 1.0354
H14 H 0.7756 0.8434 1.0585
C36 C 0.7153(5) 0.8804(2) 0.8785(6)
H15 H 0.8027 0.8745 0.8396
H16 H 0.7075 0.9294 0.9077
C37 C 0.6073(5) 0.8643(2) 0.7767(5)
H17 H 0.6158 0.8964 0.7016
H18 H 0.5204 0.8728 0.815
C38 C 0.6128(4) 0.7891(2) 0.7278(4)
C39 C 0.8534(5) 0.7329(3) 0.9367(5)
H19 H 0.8561 0.6833 0.914
H20 H 0.9062 0.7409 1.0172
H21 H 0.8894 0.7604 0.8655
C40 C 0.6585(5) 0.7119(3) 1.0690(5)
H22 H 0.5656 0.7237 1.0801
H23 H 0.709 0.7224 1.1499
H24 H 0.6663 0.6622 1.049
C41 C 0.7267(5) 0.7800(3) 0.6347(5)
H25 H 0.8098 0.7928 0.6798
H26 H 0.7122 0.81 0.5581
H27 H 0.7309 0.7313 0.6065
C42 C 0.4821(5) 0.7728(2) 0.6552(5)
H28 H 0.4839 0.7249 0.6222
H29 H 0.4693 0.8052 0.5818
H30 H 0.4093 0.778 0.7153
loop_
_geom_bond_atom_site_label_1
_geom_bond_atom_site_label_2
_geom_bond_site_symmetry_1
_geom_bond_site_symmetry_2
B1 H1 1_555 1_555
H1 B2 1_555 1_555
B2 C1 1_555 1_555
C1 B1 1_555 1_555
H2 C1 1_555 1_555
C2 C1 1_555 1_555
H3 C2 1_555 1_555
H4 C2 1_555 1_555
C3 C2 1_555 1_555
H5 C3 1_555 1_555
H6 C3 1_555 1_555
C4 C3 1_555 1_555
C5 C4 1_555 1_555
H7 C5 1_555 1_555
C6 C5 1_555 1_555
H8 C6 1_555 1_555
C7 C6 1_555 1_555
H9 C7 1_555 1_555
C8 C7 1_555 1_555
H10 C8 1_555 1_555
C9 C4 1_555 1_555
H11 C9 1_555 1_555
C10 B1 1_555 1_555
C11 C10 1_555 1_555
F1 C11 1_555 1_555
C12 C11 1_555 1_555
F2 C12 1_555 1_555
C13 C12 1_555 1_555
F3 C13 1_555 1_555
C14 C13 1_555 1_555
F4 C14 1_555 1_555
C15 C10 1_555 1_555
F5 C15 1_555 1_555
C16 B1 1_555 1_555
C17 C16 1_555 1_555
F6 C17 1_555 1_555
C18 C17 1_555 1_555
F7 C18 1_555 1_555
C19 C18 1_555 1_555
F8 C19 1_555 1_555
C20 C19 1_555 1_555
F9 C20 1_555 1_555
C21 C16 1_555 1_555
F10 C21 1_555 1_555
C22 B2 1_555 1_555
C23 C22 1_555 1_555
F11 C23 1_555 1_555
C24 C23 1_555 1_555
F12 C24 1_555 1_555
C25 C24 1_555 1_555
F13 C25 1_555 1_555
C26 C25 1_555 1_555
F14 C26 1_555 1_555
C27 C22 1_555 1_555
F15 C27 1_555 1_555
C28 B2 1_555 1_555
C29 C28 1_555 1_555
F16 C29 1_555 1_555
C30 C29 1_555 1_555
F17 C30 1_555 1_555
C31 C30 1_555 1_555
F18 C31 1_555 1_555
C32 C31 1_555 1_555
F19 C32 1_555 1_555
C33 C28 1_555 1_555
F20 C33 1_555 1_555
N1 H12 1_555 1_555
C34 N1 1_555 1_555
C35 C34 1_555 1_555
H13 C35 1_555 1_555
H14 C35 1_555 1_555
C36 C35 1_555 1_555
H15 C36 1_555 1_555
H16 C36 1_555 1_555
C37 C36 1_555 1_555
H17 C37 1_555 1_555
H18 C37 1_555 1_555
C38 N1 1_555 1_555
C39 C34 1_555 1_555
H19 C39 1_555 1_555
H20 C39 1_555 1_555
H21 C39 1_555 1_555
C40 C34 1_555 1_555
H22 C40 1_555 1_555
H23 C40 1_555 1_555
H24 C40 1_555 1_555
C41 C38 1_555 1_555
H25 C41 1_555 1_555
H26 C41 1_555 1_555
H27 C41 1_555 1_555
C42 C38 1_555 1_555
H28 C42 1_555 1_555
H29 C42 1_555 1_555
H30 C42 1_555 1_555
C8 C9 1_555 1_555
C14 C15 1_555 1_555
C20 C21 1_555 1_555
C26 C27 1_555 1_555
C32 C33 1_555 1_555
C37 C38 1_555 1_555

#END
