
#######################################################################
#
#                 Cambridge Crystallographic Data Centre
#                                CCDC 
#
#######################################################################
#
# If this CIF has been generated from an entry in the Cambridge 
# Structural Database, then it will include bibliographic, chemical, 
# crystal, experimental, refinement or atomic coordinate data resulting 
# from the CCDC's data processing and validation procedures.
#
#######################################################################

data_FEBNEI
_chemical_formula_moiety         'C29 H31 B1 F10 N1 O1 1-,C9 H19 N1,Li1 1+'
_chemical_name_systematic        
'lithium (cyclopent-1-en-1-olato)[bis(pentafluorophenyl)][3-(2,2,6,6-tetramethylpiperidin-1-yl)propyl]borate 2,2,6,6-tetramethylpiperidine'
_symmetry_cell_setting           monoclinic
_symmetry_space_group_name_H-M   'C 2/c'
_symmetry_Int_Tables_number      15
_space_group_name_Hall           '-C 2yn'
loop_
_symmetry_equiv_pos_site_id
_symmetry_equiv_pos_as_xyz
1 x,y,z
2 -x,y,1/2-z
3 1/2+x,1/2+y,z
4 1/2-x,1/2+y,1/2-z
5 -x,-y,-z
6 x,-y,1/2+z
7 1/2-x,1/2-y,-z
8 1/2+x,1/2-y,1/2+z
_cell_length_a                   26.6576(19)
_cell_length_b                   17.0458(14)
_cell_length_c                   20.604(3)
_cell_angle_alpha                90
_cell_angle_beta                 123.014(2)
_cell_angle_gamma                90
_cell_volume                     7850.77
_exptl_crystal_colour            colorless
_exptl_crystal_description       prism
_cell_formula_units_Z            8
loop_
_atom_site_label
_atom_site_type_symbol
_atom_site_fract_x
_atom_site_fract_y
_atom_site_fract_z
B1 B 0.68105(9) 0.19924(12) 0.75229(11)
O1 O 0.67805(5) 0.28865(7) 0.74648(7)
C1 C 0.65800(8) 0.16106(11) 0.66832(10)
H1 H 0.6863 0.1752 0.6532
H2 H 0.6579 0.1032 0.6724
C2 C 0.69868(9) 0.32619(11) 0.70645(11)
C3 C 0.67062(11) 0.38911(12) 0.66029(13)
H3 H 0.6339 0.4107 0.6493
C4 C 0.70670(11) 0.41972(12) 0.62885(13)
H4 H 0.725 0.4711 0.6521
H5 H 0.6813 0.4255 0.5719
C5 C 0.75478(10) 0.35722(12) 0.65220(13)
H6 H 0.7446 0.3235 0.6075
H7 H 0.7942 0.3819 0.6721
C6 C 0.75576(9) 0.30940(15) 0.71552(14)
H8 H 0.7596 0.2527 0.7087
H9 H 0.7895 0.3257 0.7674
C7 C 0.59496(8) 0.18880(11) 0.60503(10)
H10 H 0.5658 0.1688 0.6166
H11 H 0.5936 0.2468 0.6052
C8 C 0.5770(2) 0.1604(3) 0.5244(2)
H12 H 0.6099 0.1728 0.5171
H13 H 0.5726 0.1026 0.5225
N1 N 0.52110(18) 0.1946(3) 0.4595(2)
C9 C 0.47010(13) 0.1386(2) 0.42117(17)
C10 C 0.41346(11) 0.1824(2) 0.36115(15)
H14 H 0.3805 0.1441 0.3327
H15 H 0.4021 0.2191 0.3882
C11 C 0.42058(13) 0.2280(2) 0.30372(16)
H16 H 0.3832 0.2567 0.2674
H17 H 0.4292 0.1917 0.2734
C12 C 0.47194(17) 0.28531(17) 0.34838(18)
H18 H 0.4609 0.324 0.3744
H19 H 0.4778 0.3142 0.3113
C13 C 0.53123(15) 0.24647(17) 0.40939(16)
C14 C 0.47895(16) 0.06746(18) 0.38234(17)
H20 H 0.476 0.0845 0.335
H21 H 0.448 0.0282 0.3694
H22 H 0.5185 0.0444 0.4179
C15 C 0.46000(13) 0.1094(2) 0.48363(16)
H23 H 0.4941 0.0771 0.5212
H24 H 0.4233 0.0779 0.4595
H25 H 0.4562 0.1544 0.5102
C16 C 0.55884(14) 0.2066(2) 0.36855(17)
H26 H 0.5953 0.1785 0.4069
H27 H 0.5688 0.2466 0.3431
H28 H 0.53 0.1695 0.3298
C17 C 0.57389(15) 0.31212(16) 0.46059(16)
H29 H 0.5589 0.3364 0.49
H30 H 0.5763 0.3518 0.428
H31 H 0.6137 0.2901 0.4966
C18 C 0.63709(8) 0.16902(11) 0.78137(10)
C19 C 0.60277(8) 0.21385(12) 0.79900(10)
F1 F 0.60328(5) 0.29420(7) 0.79538(6)
C20 C 0.56723(9) 0.18472(14) 0.82326(11)
F2 F 0.53534(5) 0.23339(9) 0.83887(7)
C21 C 0.56482(9) 0.10540(15) 0.83123(11)
F3 F 0.53020(6) 0.07544(10) 0.85407(8)
C22 C 0.59807(10) 0.05704(13) 0.81529(11)
F4 F 0.59714(7) -0.02113(8) 0.82420(8)
C23 C 0.63323(8) 0.08895(12) 0.79173(11)
F5 F 0.66646(5) 0.03764(6) 0.78026(7)
C24 C 0.75013(8) 0.17828(10) 0.82525(10)
C25 C 0.77175(8) 0.21420(10) 0.89630(10)
F6 F 0.73489(5) 0.26457(6) 0.90450(6)
C26 C 0.82780(8) 0.20420(11) 0.96186(10)
F7 F 0.84399(5) 0.24138(7) 1.02818(6)
C27 C 0.86724(8) 0.15461(11) 0.95867(10)
F8 F 0.92267(5) 0.14374(7) 1.02094(6)
C28 C 0.84886(8) 0.11676(10) 0.88991(11)
F9 F 0.88710(5) 0.06835(7) 0.88621(6)
C29 C 0.79170(8) 0.12908(10) 0.82588(10)
F10 F 0.77815(5) 0.09011(6) 0.76079(6)
Li1 Li 0.67659(15) 0.34676(19) 0.82226(19)
N2 N 0.68938(7) 0.46395(9) 0.84944(9)
H32 H 0.6935(9) 0.4785(13) 0.8138(13)
C30 C 0.63431(9) 0.50689(11) 0.83380(12)
C31 C 0.64637(11) 0.59487(12) 0.84717(14)
H33 H 0.6507 0.6166 0.8059
H34 H 0.6114 0.6206 0.843
C32 C 0.70175(13) 0.61430(13) 0.92493(15)
H35 H 0.6964 0.5971 0.9667
H36 H 0.7082 0.6718 0.9294
C33 C 0.75596(11) 0.57353(13) 0.93398(14)
H37 H 0.7913 0.5842 0.9865
H38 H 0.764 0.5961 0.8962
C34 C 0.74824(9) 0.48399(12) 0.92182(11)
C35 C 0.58591(10) 0.49189(14) 0.74870(12)
H39 H 0.6003 0.5091 0.7162
H40 H 0.5497 0.5212 0.7346
H41 H 0.5767 0.4357 0.7407
C36 C 0.61245(10) 0.47322(13) 0.88327(13)
H42 H 0.6099 0.4159 0.8783
H43 H 0.5729 0.4947 0.8655
H44 H 0.6406 0.4875 0.9376
C37 C 0.79620(9) 0.45160(14) 0.91014(14)
H45 H 0.7925 0.3944 0.905
H46 H 0.8359 0.4654 0.9548
H47 H 0.791 0.4742 0.8631
C38 C 0.75468(10) 0.44328(13) 0.99276(11)
H48 H 0.7304 0.4711 1.008
H49 H 0.7967 0.444 1.0358
H50 H 0.741 0.3888 0.9797
H51? H 0.5959 0.2456 0.5959
H52? H 0.5673 0.1804 0.6225
C39? C 0.5718(9) 0.1434(10) 0.5287(8)
H53? H 0.606 0.1287 0.5247
H54? H 0.5516 0.0947 0.5287
N3? N 0.5297(7) 0.1922(14) 0.4623(10)
C40? C 0.4660(6) 0.1689(9) 0.4238(8)
C41? C 0.4270(6) 0.2327(10) 0.3670(8)
H55? H 0.3854 0.2131 0.3351
H56? H 0.4272 0.2786 0.3966
C42? C 0.4460(7) 0.2593(9) 0.3140(8)
H57? H 0.4189 0.301 0.279
H58? H 0.4445 0.2149 0.2821
C43? C 0.5088(7) 0.2901(8) 0.3634(8)
H59? H 0.5092 0.3354 0.3937
H60? H 0.5218 0.309 0.3294
C44? C 0.5530(6) 0.2294(8) 0.4186(8)
C45? C 0.4491(6) 0.1585(11) 0.4845(8)
H61? H 0.4764 0.1207 0.5239
H62? H 0.408 0.1392 0.4588
H63? H 0.4524 0.2091 0.5092
C46? C 0.4539(8) 0.0904(10) 0.3824(10)
H64? H 0.452 0.098 0.3339
H65? H 0.4158 0.0691 0.371
H66? H 0.4863 0.0537 0.4156
C47? C 0.5653(8) 0.1655(11) 0.3758(10)
H67? H 0.5866 0.1215 0.4109
H68? H 0.5899 0.1876 0.3582
H69? H 0.5273 0.1469 0.331
C48? C 0.6125(7) 0.2717(12) 0.4779(9)
H70? H 0.6053 0.3096 0.5076
H71? H 0.6278 0.2991 0.4502
H72? H 0.642 0.2329 0.5132
loop_
_geom_bond_atom_site_label_1
_geom_bond_atom_site_label_2
_geom_bond_site_symmetry_1
_geom_bond_site_symmetry_2
B1 O1 1_555 1_555
O1 C2 1_555 1_555
C1 B1 1_555 1_555
H1 C1 1_555 1_555
H2 C1 1_555 1_555
C2 C3 1_555 1_555
C3 H3 1_555 1_555
C4 C3 1_555 1_555
H4 C4 1_555 1_555
H5 C4 1_555 1_555
C5 C4 1_555 1_555
H6 C5 1_555 1_555
H7 C5 1_555 1_555
C6 C2 1_555 1_555
H8 C6 1_555 1_555
H9 C6 1_555 1_555
C7 C1 1_555 1_555
H10 C7 1_555 1_555
H11 C7 1_555 1_555
C8 C7 1_555 1_555
H12 C8 1_555 1_555
H13 C8 1_555 1_555
N1 C8 1_555 1_555
C9 N1 1_555 1_555
C10 C9 1_555 1_555
H14 C10 1_555 1_555
H15 C10 1_555 1_555
C11 C10 1_555 1_555
H16 C11 1_555 1_555
H17 C11 1_555 1_555
C12 C11 1_555 1_555
H18 C12 1_555 1_555
H19 C12 1_555 1_555
C13 N1 1_555 1_555
C14 C9 1_555 1_555
H20 C14 1_555 1_555
H21 C14 1_555 1_555
H22 C14 1_555 1_555
C15 C9 1_555 1_555
H23 C15 1_555 1_555
H24 C15 1_555 1_555
H25 C15 1_555 1_555
C16 C13 1_555 1_555
H26 C16 1_555 1_555
H27 C16 1_555 1_555
H28 C16 1_555 1_555
C17 C13 1_555 1_555
H29 C17 1_555 1_555
H30 C17 1_555 1_555
H31 C17 1_555 1_555
C18 B1 1_555 1_555
C19 C18 1_555 1_555
F1 C19 1_555 1_555
C20 C19 1_555 1_555
F2 C20 1_555 1_555
C21 C20 1_555 1_555
F3 C21 1_555 1_555
C22 C21 1_555 1_555
F4 C22 1_555 1_555
C23 C18 1_555 1_555
F5 C23 1_555 1_555
C24 B1 1_555 1_555
C25 C24 1_555 1_555
F6 C25 1_555 1_555
C26 C25 1_555 1_555
F7 C26 1_555 1_555
C27 C26 1_555 1_555
F8 C27 1_555 1_555
C28 C27 1_555 1_555
F9 C28 1_555 1_555
C29 C24 1_555 1_555
F10 C29 1_555 1_555
N2 H32 1_555 1_555
C30 N2 1_555 1_555
C31 C30 1_555 1_555
H33 C31 1_555 1_555
H34 C31 1_555 1_555
C32 C31 1_555 1_555
H35 C32 1_555 1_555
H36 C32 1_555 1_555
C33 C32 1_555 1_555
H37 C33 1_555 1_555
H38 C33 1_555 1_555
C34 N2 1_555 1_555
C35 C30 1_555 1_555
H39 C35 1_555 1_555
H40 C35 1_555 1_555
H41 C35 1_555 1_555
C36 C30 1_555 1_555
H42 C36 1_555 1_555
H43 C36 1_555 1_555
H44 C36 1_555 1_555
C37 C34 1_555 1_555
H45 C37 1_555 1_555
H46 C37 1_555 1_555
H47 C37 1_555 1_555
C38 C34 1_555 1_555
H48 C38 1_555 1_555
H49 C38 1_555 1_555
H50 C38 1_555 1_555
C5 C6 1_555 1_555
C12 C13 1_555 1_555
C22 C23 1_555 1_555
C28 C29 1_555 1_555
C33 C34 1_555 1_555

#END
