
#######################################################################
#
#                 Cambridge Crystallographic Data Centre
#                                CCDC 
#
#######################################################################
#
# If this CIF has been generated from an entry in the Cambridge 
# Structural Database, then it will include bibliographic, chemical, 
# crystal, experimental, refinement or atomic coordinate data resulting 
# from the CCDC's data processing and validation procedures.
#
#######################################################################

data_FEBPAG
_chemical_formula_moiety         'C29 H18 B1 F10 O1 1-,C9 H19 N1,Li1 1+'
_chemical_name_systematic        
'lithium bis(pentafluorophenyl)(1-phenylethen-1-olato)(3-phenylpropyl)borate 2,2,6,6-tetramethylpiperidine'
_symmetry_cell_setting           monoclinic
_symmetry_space_group_name_H-M   'P 21/n'
_symmetry_Int_Tables_number      14
_space_group_name_Hall           '-P 2yn'
loop_
_symmetry_equiv_pos_site_id
_symmetry_equiv_pos_as_xyz
1 x,y,z
2 1/2-x,1/2+y,1/2-z
3 -x,-y,-z
4 1/2+x,1/2-y,1/2+z
_cell_length_a                   10.4348(3)
_cell_length_b                   31.1087(8)
_cell_length_c                   11.4021(3)
_cell_angle_alpha                90
_cell_angle_beta                 108.3640(10)
_cell_angle_gamma                90
_cell_volume                     3512.78
_exptl_crystal_colour            colorless
_exptl_crystal_description       plate
_cell_formula_units_Z            4
loop_
_atom_site_label
_atom_site_type_symbol
_atom_site_fract_x
_atom_site_fract_y
_atom_site_fract_z
Li1 Li 0.3285(2) 0.61876(8) 0.3636(2)
B1 B 0.34821(15) 0.64594(5) 0.61817(14)
O1 O 0.27712(9) 0.61612(3) 0.51021(8)
C1 C 0.25841(14) 0.65092(4) 0.71016(13)
H1 H 0.2625 0.6238 0.7564
H2 H 0.2975 0.6739 0.7709
C2 C 0.11029(14) 0.66171(5) 0.64131(14)
H3 H 0.0618 0.6348 0.6081
H4 H 0.1066 0.6805 0.5702
C3 C 0.03667(15) 0.68415(5) 0.72157(14)
H5 H -0.0601 0.687 0.6734
H6 H 0.0432 0.6659 0.7944
C4 C 0.09329(15) 0.72820(5) 0.76530(15)
C5 C 0.09376(18) 0.76039(6) 0.68069(19)
H7 H 0.0545 0.7551 0.5947
C6 C 0.1512(2) 0.80031(6) 0.7210(2)
H8 H 0.1519 0.8219 0.6624
C7 C 0.2073(2) 0.80863(7) 0.8458(3)
H9 H 0.2473 0.8358 0.873
C8 C 0.2048(2) 0.77741(7) 0.9302(2)
H10 H 0.2414 0.7832 1.0161
C9 C 0.14894(17) 0.73749(6) 0.89030(17)
H11 H 0.1487 0.7161 0.9496
C10 C 0.35890(13) 0.69422(4) 0.55916(13)
C11 C 0.31056(13) 0.70727(4) 0.43706(13)
F1 F 0.26166(8) 0.67754(3) 0.34412(7)
C12 C 0.30879(14) 0.74907(5) 0.39555(14)
F2 F 0.26055(9) 0.75845(3) 0.27472(8)
C13 C 0.36003(15) 0.78101(5) 0.48084(16)
F3 F 0.35942(10) 0.82203(3) 0.44395(10)
C14 C 0.41483(15) 0.77031(5) 0.60402(15)
F4 F 0.46698(10) 0.80118(3) 0.68760(9)
C15 C 0.41445(14) 0.72793(5) 0.63978(13)
F5 F 0.47224(9) 0.72005(3) 0.76154(8)
C16 C 0.50499(14) 0.62803(4) 0.67642(13)
C17 C 0.58058(14) 0.62080(4) 0.59790(13)
F6 F 0.52401(8) 0.62984(3) 0.47411(7)
C18 C 0.71044(15) 0.60488(5) 0.63243(14)
F7 F 0.77601(9) 0.59853(3) 0.54960(9)
C19 C 0.77283(14) 0.59513(5) 0.75522(15)
F8 F 0.89900(9) 0.57946(3) 0.79281(9)
C20 C 0.70332(15) 0.60147(5) 0.83798(13)
F9 F 0.76287(9) 0.59170(3) 0.95789(8)
C21 C 0.57363(14) 0.61796(4) 0.79858(13)
F10 F 0.51445(9) 0.62339(3) 0.88675(8)
C22 C 0.22458(13) 0.57718(4) 0.52822(13)
C23 C 0.27342(15) 0.55237(5) 0.62737(14)
H12 H 0.3506 0.5613 0.6927
H13 H 0.2311 0.5257 0.6328
C24 C 0.10594(14) 0.56527(4) 0.42102(13)
C25 C 0.07802(15) 0.52238(5) 0.38461(15)
H14 H 0.1341 0.5001 0.4304
C26 C -0.03118(16) 0.51222(5) 0.28207(16)
H15 H -0.0486 0.4831 0.2571
C27 C -0.11477(16) 0.54440(6) 0.21610(15)
H16 H -0.1894 0.5373 0.1459
C28 C -0.08980(15) 0.58690(5) 0.25234(15)
H17 H -0.1483 0.6089 0.2081
C29 C 0.02030(14) 0.59727(5) 0.35297(13)
H18 H 0.038 0.6265 0.3762
N1 N 0.30677(12) 0.57766(4) 0.21535(11)
H19 H 0.2352(17) 0.5624(5) 0.2214(15)
C30 C 0.25690(14) 0.59902(5) 0.09064(13)
C31 C 0.23597(16) 0.56619(5) -0.01421(14)
H20 H 0.1553 0.5486 -0.0194
H21 H 0.2181 0.5818 -0.0934
C32 C 0.35623(16) 0.53651(5) 0.00273(15)
H22 H 0.436 0.5534 0.0012
H23 H 0.3359 0.5153 -0.0655
C33 C 0.38599(16) 0.51330(5) 0.12589(15)
H24 H 0.4639 0.4938 0.1369
H25 H 0.307 0.4955 0.125
C34 C 0.41747(15) 0.54460(5) 0.23488(14)
C35 C 0.12060(15) 0.61899(5) 0.08091(14)
H26 H 0.0585 0.5965 0.0898
H27 H 0.0834 0.6329 0.0002
H28 H 0.1322 0.6404 0.1465
C36 C 0.35341(16) 0.63498(5) 0.08172(14)
H29 H 0.3674 0.6546 0.1519
H30 H 0.3145 0.6509 0.0044
H31 H 0.4401 0.6225 0.0831
C37 C 0.55588(15) 0.56551(5) 0.25579(15)
H32 H 0.5629 0.5756 0.1766
H33 H 0.6271 0.5444 0.2917
H34 H 0.5661 0.5899 0.3124
C38 C 0.42053(19) 0.52030(6) 0.35190(16)
H35 H 0.4405 0.5404 0.4215
H36 H 0.4905 0.4981 0.369
H37 H 0.3325 0.5068 0.3403
loop_
_geom_bond_atom_site_label_1
_geom_bond_atom_site_label_2
_geom_bond_site_symmetry_1
_geom_bond_site_symmetry_2
B1 O1 1_555 1_555
O1 C22 1_555 1_555
C1 B1 1_555 1_555
H1 C1 1_555 1_555
H2 C1 1_555 1_555
C2 C1 1_555 1_555
H3 C2 1_555 1_555
H4 C2 1_555 1_555
C3 C2 1_555 1_555
H5 C3 1_555 1_555
H6 C3 1_555 1_555
C4 C3 1_555 1_555
C5 C4 1_555 1_555
H7 C5 1_555 1_555
C6 C5 1_555 1_555
H8 C6 1_555 1_555
C7 C6 1_555 1_555
H9 C7 1_555 1_555
C8 C7 1_555 1_555
H10 C8 1_555 1_555
C9 C4 1_555 1_555
H11 C9 1_555 1_555
C10 B1 1_555 1_555
C11 C10 1_555 1_555
F1 C11 1_555 1_555
C12 C11 1_555 1_555
F2 C12 1_555 1_555
C13 C12 1_555 1_555
F3 C13 1_555 1_555
C14 C13 1_555 1_555
F4 C14 1_555 1_555
C15 C10 1_555 1_555
F5 C15 1_555 1_555
C16 B1 1_555 1_555
C17 C16 1_555 1_555
F6 C17 1_555 1_555
C18 C17 1_555 1_555
F7 C18 1_555 1_555
C19 C18 1_555 1_555
F8 C19 1_555 1_555
C20 C19 1_555 1_555
F9 C20 1_555 1_555
C21 C16 1_555 1_555
F10 C21 1_555 1_555
C22 C23 1_555 1_555
C23 H12 1_555 1_555
H13 C23 1_555 1_555
C24 C22 1_555 1_555
C25 C24 1_555 1_555
H14 C25 1_555 1_555
C26 C25 1_555 1_555
H15 C26 1_555 1_555
C27 C26 1_555 1_555
H16 C27 1_555 1_555
C28 C27 1_555 1_555
H17 C28 1_555 1_555
C29 C24 1_555 1_555
H18 C29 1_555 1_555
N1 H19 1_555 1_555
C30 N1 1_555 1_555
C31 C30 1_555 1_555
H20 C31 1_555 1_555
H21 C31 1_555 1_555
C32 C31 1_555 1_555
H22 C32 1_555 1_555
H23 C32 1_555 1_555
C33 C32 1_555 1_555
H24 C33 1_555 1_555
H25 C33 1_555 1_555
C34 N1 1_555 1_555
C35 C30 1_555 1_555
H26 C35 1_555 1_555
H27 C35 1_555 1_555
H28 C35 1_555 1_555
C36 C30 1_555 1_555
H29 C36 1_555 1_555
H30 C36 1_555 1_555
H31 C36 1_555 1_555
C37 C34 1_555 1_555
H32 C37 1_555 1_555
H33 C37 1_555 1_555
H34 C37 1_555 1_555
C38 C34 1_555 1_555
H35 C38 1_555 1_555
H36 C38 1_555 1_555
H37 C38 1_555 1_555
C8 C9 1_555 1_555
C14 C15 1_555 1_555
C20 C21 1_555 1_555
C28 C29 1_555 1_555
C33 C34 1_555 1_555

#END
