
#######################################################################
#
#                 Cambridge Crystallographic Data Centre
#                                CCDC 
#
#######################################################################
#
# If this CIF has been generated from an entry in the Cambridge 
# Structural Database, then it will include bibliographic, chemical, 
# crystal, experimental, refinement or atomic coordinate data resulting 
# from the CCDC's data processing and validation procedures.
#
#######################################################################

data_FEBPIO01
_chemical_formula_moiety         'C24 B2 F20 O2 2-,2(C9 H19 N1),2(Li1 1+)'
_chemical_name_systematic        
'di-lithium 2,2,4,4-tetrakis(pentafluorophenyl)-1,3,2,4-dioxadiboretane-2,4-diide bis(2,2,6,6-tetramethylpiperidine)'
_symmetry_cell_setting           monoclinic
_symmetry_space_group_name_H-M   'P 21/n'
_symmetry_Int_Tables_number      14
_space_group_name_Hall           '-P 2yn'
loop_
_symmetry_equiv_pos_site_id
_symmetry_equiv_pos_as_xyz
1 x,y,z
2 1/2-x,1/2+y,1/2-z
3 -x,-y,-z
4 1/2+x,1/2-y,1/2+z
_cell_length_a                   9.4685(2)
_cell_length_b                   11.0334(2)
_cell_length_c                   21.6455(4)
_cell_angle_alpha                90
_cell_angle_beta                 93.492(1)
_cell_angle_gamma                90
_cell_volume                     2257.1
_exptl_crystal_colour            colorless
_exptl_crystal_description       prism
_cell_formula_units_Z            2
loop_
_atom_site_label
_atom_site_type_symbol
_atom_site_fract_x
_atom_site_fract_y
_atom_site_fract_z
Li1 Li 0.0486(6) 0.5733(5) 0.1246(2)
O1 O -0.00740(18) 0.51287(16) 0.04948(8)
B1 B 0.0514(3) 0.4217(3) 0.00809(14)
C1 C -0.0207(3) 0.2864(3) 0.01535(12)
F1 F -0.1118(2) 0.26670(17) -0.08930(8)
C2 C -0.0960(3) 0.2222(3) -0.03022(14)
F2 F -0.2326(3) 0.0550(2) -0.06774(11)
C3 C -0.1601(3) 0.1116(3) -0.02117(17)
F3 F -0.2082(3) -0.04820(19) 0.04605(12)
C4 C -0.1470(4) 0.0599(3) 0.03622(18)
F4 F -0.0551(3) 0.0650(2) 0.13937(10)
C5 C -0.0702(4) 0.1168(3) 0.08301(16)
F5 F 0.06669(19) 0.27965(17) 0.11938(8)
C6 C -0.0095(3) 0.2276(3) 0.07181(13)
C7 C 0.2243(3) 0.4018(2) 0.01782(12)
F6 F 0.25202(17) 0.49443(19) 0.11714(8)
C8 C 0.3089(3) 0.4360(3) 0.06863(14)
F7 F 0.52809(19) 0.4516(2) 0.12734(10)
C9 C 0.4524(3) 0.4136(3) 0.07658(15)
F8 F 0.65567(19) 0.3282(2) 0.03843(12)
C10 C 0.5168(3) 0.3521(3) 0.03177(18)
F9 F 0.5020(2) 0.2545(2) -0.06558(11)
C11 C 0.4392(4) 0.3149(3) -0.02043(17)
F10 F 0.2224(2) 0.30185(17) -0.07834(8)
C12 C 0.2965(3) 0.3411(3) -0.02642(14)
O1B O 0.00740(18) 0.48713(16) -0.04948(8)
B1B B -0.0514(3) 0.5783(3) -0.00809(14)
C1B C 0.0207(3) 0.7136(3) -0.01535(12)
F1B F 0.1118(2) 0.73330(17) 0.08930(8)
C2B C 0.0960(3) 0.7778(3) 0.03022(14)
F2B F 0.2326(3) 0.9450(2) 0.06774(11)
C3B C 0.1601(3) 0.8884(3) 0.02117(17)
F3B F 0.2082(3) 1.04820(19) -0.04605(12)
C4B C 0.1470(4) 0.9401(3) -0.03622(18)
F4B F 0.0551(3) 0.9350(2) -0.13937(10)
C5B C 0.0702(4) 0.8832(3) -0.08301(16)
F5B F -0.06669(19) 0.72035(17) -0.11938(8)
C6B C 0.0095(3) 0.7724(3) -0.07181(13)
C7B C -0.2243(3) 0.5982(2) -0.01782(12)
F6B F -0.25202(17) 0.50557(19) -0.11714(8)
C8B C -0.3089(3) 0.5640(3) -0.06863(14)
F7B F -0.52809(19) 0.5484(2) -0.12734(10)
C9B C -0.4524(3) 0.5864(3) -0.07658(15)
F8B F -0.65567(19) 0.6718(2) -0.03843(12)
C10B C -0.5168(3) 0.6479(3) -0.03177(18)
F9B F -0.5020(2) 0.7455(2) 0.06558(11)
C11B C -0.4392(4) 0.6851(3) 0.02043(17)
F10B F -0.2224(2) 0.69815(17) 0.07834(8)
C12B C -0.2965(3) 0.6589(3) 0.02642(14)
N1 N 0.0374(3) 0.5660(3) 0.21988(12)
H1 H 0.093(4) 0.500(3) 0.2251(18)
C13 C 0.1211(4) 0.6579(3) 0.25898(15)
C14 C 0.1218(5) 0.6252(6) 0.32687(18)
H2 H 0.1857 0.5562 0.3345
H3 H 0.1610 0.6937 0.3511
C15 C -0.0190(5) 0.5934(5) 0.35036(17)
H4 H -0.0799 0.6653 0.3491
H5 H -0.0064 0.5662 0.3934
C16 C -0.0884(5) 0.4940(4) 0.31105(18)
H6 H -0.0345 0.4189 0.3181
H7 H -0.1840 0.4802 0.3246
C17 C -0.0982(3) 0.5213(3) 0.24260(15)
C18 C 0.0601(6) 0.7833(4) 0.2459(2)
H8 H 0.0386 0.7925 0.2017
H9 H 0.1286 0.8442 0.2599
H10 H -0.0257 0.7934 0.2676
C19 C 0.2700(4) 0.6547(5) 0.2376(2)
H11 H 0.3081 0.5735 0.2428
H12 H 0.3288 0.7111 0.2620
H13 H 0.2688 0.6774 0.1943
C20 C -0.1406(5) 0.4102(4) 0.2043(2)
H14 H -0.1448 0.4310 0.1607
H15 H -0.2327 0.3821 0.2155
H16 H -0.0713 0.3465 0.2123
C21 C -0.2169(4) 0.6141(4) 0.2279(2)
H17 H -0.2093 0.6795 0.2579
H18 H -0.3081 0.5747 0.2299
H19 H -0.2081 0.6466 0.1867
loop_
_geom_bond_atom_site_label_1
_geom_bond_atom_site_label_2
_geom_bond_site_symmetry_1
_geom_bond_site_symmetry_2
O1 B1 1_555 1_555
B1 C1 1_555 1_555
C1 C2 1_555 1_555
F1 C2 1_555 1_555
C2 C3 1_555 1_555
F2 C3 1_555 1_555
C3 C4 1_555 1_555
F3 C4 1_555 1_555
C4 C5 1_555 1_555
F4 C5 1_555 1_555
C5 C6 1_555 1_555
F5 C6 1_555 1_555
C6 C1 1_555 1_555
C7 B1 1_555 1_555
F6 C8 1_555 1_555
C8 C7 1_555 1_555
F7 C9 1_555 1_555
C9 C8 1_555 1_555
F8 C10 1_555 1_555
C10 C9 1_555 1_555
F9 C11 1_555 1_555
C11 C10 1_555 1_555
F10 C12 1_555 1_555
C12 C7 1_555 1_555
N1 H1 1_555 1_555
C13 N1 1_555 1_555
C14 C13 1_555 1_555
H2 C14 1_555 1_555
H3 C14 1_555 1_555
C15 C14 1_555 1_555
H4 C15 1_555 1_555
H5 C15 1_555 1_555
C16 C15 1_555 1_555
H6 C16 1_555 1_555
H7 C16 1_555 1_555
C17 N1 1_555 1_555
C18 C13 1_555 1_555
H8 C18 1_555 1_555
H9 C18 1_555 1_555
H10 C18 1_555 1_555
C19 C13 1_555 1_555
H11 C19 1_555 1_555
H12 C19 1_555 1_555
H13 C19 1_555 1_555
C20 C17 1_555 1_555
H14 C20 1_555 1_555
H15 C20 1_555 1_555
H16 C20 1_555 1_555
C21 C17 1_555 1_555
H17 C21 1_555 1_555
H18 C21 1_555 1_555
H19 C21 1_555 1_555
O1B B1 1_555 1_555
B1B O1 1_555 1_555
C1B B1B 1_555 1_555
F1B C2B 1_555 1_555
C2B C1B 1_555 1_555
F2B C3B 1_555 1_555
C3B C2B 1_555 1_555
F3B C4B 1_555 1_555
C4B C3B 1_555 1_555
F4B C5B 1_555 1_555
C5B C4B 1_555 1_555
F5B C6B 1_555 1_555
C6B C1B 1_555 1_555
C7B B1B 1_555 1_555
F6B C8B 1_555 1_555
C8B C7B 1_555 1_555
F7B C9B 1_555 1_555
C9B C8B 1_555 1_555
F8B C10B 1_555 1_555
C10B C9B 1_555 1_555
F9B C11B 1_555 1_555
C11B C10B 1_555 1_555
F10B C12B 1_555 1_555
C12B C7B 1_555 1_555
C11 C12 1_555 1_555
C16 C17 1_555 1_555
O1B B1B 1_555 1_555
C5B C6B 1_555 1_555
C11B C12B 1_555 1_555

#END
