
#######################################################################
#
#                 Cambridge Crystallographic Data Centre
#                                CCDC 
#
#######################################################################
#
# If this CIF has been generated from an entry in the Cambridge 
# Structural Database, then it will include bibliographic, chemical, 
# crystal, experimental, refinement or atomic coordinate data resulting 
# from the CCDC's data processing and validation procedures.
#
#######################################################################

data_FEBQIP
_chemical_formula_moiety         'C20 H26 N2'
_chemical_name_systematic        
3-ethyl-2-(prop-2-en-1-yl)-1,2,3,4,6,7,12,12b-octahydroindolo[2,3-a]quinolizine
_symmetry_cell_setting           trigonal
_symmetry_space_group_name_H-M   'P 32'
_symmetry_Int_Tables_number      145
_space_group_name_Hall           'P 32'
loop_
_symmetry_equiv_pos_site_id
_symmetry_equiv_pos_as_xyz
1 x,y,z
2 -y,x-y,2/3+z
3 -x+y,-x,1/3+z
_cell_length_a                   20.168(2)
_cell_length_b                   20.168(2)
_cell_length_c                   11.2557(12)
_cell_angle_alpha                90
_cell_angle_beta                 90
_cell_angle_gamma                120
_cell_volume                     3964.87
_exptl_crystal_colour            colorless
_exptl_crystal_description       block
_cell_formula_units_Z            9
loop_
_atom_site_label
_atom_site_type_symbol
_atom_site_fract_x
_atom_site_fract_y
_atom_site_fract_z
N1 N 0.745360 0.471850 0.397980
H1 H 0.714928 0.458015 0.337966
N2 N 0.800670 0.329150 0.481970
C1 C 0.766190 0.536060 0.466230
C2 C 0.743740 0.588320 0.466000
H2 H 0.708832 0.585685 0.409542
C3 C 0.772900 0.646970 0.550910
H3 H 0.758833 0.684405 0.552112
C4 C 0.824250 0.646330 0.633770
H4 H 0.843686 0.685033 0.690514
C5 C 0.848960 0.593170 0.639200
H5 H 0.883845 0.596755 0.696470
C6 C 0.819240 0.533950 0.554980
C7 C 0.826570 0.470900 0.533110
C8 C 0.781250 0.432510 0.441130
C9 C 0.770950 0.362220 0.391740
H6 H 0.803008 0.374749 0.320559
C10 C 0.877940 0.386340 0.522190
H7 H 0.910794 0.409732 0.453839
H8 H 0.899501 0.361426 0.569270
C11 C 0.874790 0.446500 0.594700
H9 H 0.853607 0.426287 0.672475
H10 H 0.925961 0.489823 0.605256
C12 C 0.798140 0.263100 0.434890
H11 H 0.818557 0.242804 0.493501
H12 H 0.831125 0.277659 0.365646
C13 C 0.719350 0.200860 0.399850
H13 H 0.687647 0.186376 0.471644
C14 C 0.683040 0.229300 0.310740
H14 H 0.714940 0.243416 0.239189
C15 C 0.689700 0.301910 0.358060
H15 H 0.657201 0.289856 0.427536
H16 H 0.670869 0.323165 0.298455
C16 C 0.603930 0.173740 0.272480
H17 H 0.584102 0.200436 0.225824
H18 H 0.605281 0.135564 0.221723
C17 C 0.553430 0.136230 0.368780
H19 H 0.573692 0.112592 0.415440
C18 C 0.495950 0.124600 0.409900
H20 H 0.467948 0.144311 0.373983
H21 H 0.477793 0.095550 0.478838
C19 C 0.719130 0.127460 0.354920
H22 H 0.669623 0.093195 0.319785
H23 H 0.757424 0.142002 0.293054
C20 C 0.735190 0.084340 0.451800
H24 H 0.727650 0.036794 0.420418
H25 H 0.700917 0.074266 0.517266
H26 H 0.787099 0.114853 0.478620
N3 N 0.864860 0.901220 0.561420
H27 H 0.873846 0.932141 0.619738
N4 N 1.035520 0.885950 0.475130
C21 C 0.797470 0.863650 0.497450
C22 C 0.729140 0.865880 0.510900
H28 H 0.724185 0.895805 0.569183
C23 C 0.669330 0.821420 0.433310
H29 H 0.623469 0.821760 0.438176
C24 C 0.678600 0.776340 0.348190
H30 H 0.637338 0.747721 0.297967
C25 C 0.744360 0.770020 0.331040
H31 H 0.747340 0.737994 0.274481
C26 C 0.807240 0.818390 0.410270
C27 C 0.882310 0.830340 0.423090
C28 C 0.916180 0.879960 0.514310
C29 C 0.995080 0.906770 0.562630
H32 H 0.989951 0.878465 0.636047
C30 C 0.990530 0.805000 0.439670
H33 H 0.971935 0.772741 0.509680
H34 H 1.022396 0.790564 0.394719
C31 C 0.923750 0.794220 0.364410
H35 H 0.942204 0.817307 0.287015
H36 H 0.888566 0.739975 0.352897
C32 C 1.110350 0.902960 0.528480
H37 H 1.137507 0.888393 0.472735
H38 H 1.100777 0.872487 0.599809
C33 C 1.160190 0.987080 0.559490
H39 H 1.173173 1.017318 0.486249
C34 C 1.119590 1.013450 0.642030
H40 H 1.110884 0.985231 0.716658
C35 C 1.040930 0.990370 0.589680
H41 H 1.012815 1.003679 0.645528
H42 H 1.047725 1.019160 0.517255
C36 C 1.165300 1.099750 0.672570
H43 H 1.133263 1.112315 0.720860
H44 H 1.209334 1.109354 0.720141
C37 C 1.192550 1.151870 0.567670
H45 H 1.227934 1.148951 0.518192
C38 C 1.171890 1.199960 0.539570
H46 H 1.136612 1.204879 0.586433
H47 H 1.192066 1.230196 0.472166
C39 C 1.238590 0.999720 0.620820
H48 H 1.267482 1.052736 0.646126
H49 H 1.224276 0.968563 0.692123
C40 C 1.289690 0.983600 0.554410
H50 H 1.275979 0.978010 0.471847
H51 H 1.286000 0.937034 0.583055
H52 H 1.341256 1.024978 0.563927
N5 N 0.448820 0.801270 0.502690
H53 H 0.417692 0.796149 0.446525
N6 N 0.432530 0.615840 0.588920
C41 C 0.495910 0.868130 0.562990
C42 C 0.505960 0.940750 0.553440
H54 H 0.477993 0.950625 0.497619
C43 C 0.558140 0.999810 0.627470
H55 H 0.566120 1.049180 0.619611
C44 C 0.596690 0.983890 0.710480
H56 H 0.630040 1.022881 0.760975
C45 C 0.588270 0.909940 0.723630
H57 H 0.616471 0.901152 0.780461
C46 C 0.536780 0.850470 0.649570
C47 C 0.510720 0.771620 0.637890
C48 C 0.460000 0.743990 0.547530
C49 C 0.421690 0.664510 0.502540
H58 H 0.447411 0.664395 0.428736
C50 C 0.514380 0.652790 0.625660
H59 H 0.522510 0.616654 0.671254
H60 H 0.546552 0.666773 0.555516
C51 C 0.536520 0.722010 0.698190
H61 H 0.591662 0.750377 0.708343
H62 H 0.513147 0.707192 0.776163
C52 C 0.407750 0.539160 0.539390
H63 H 0.415598 0.508248 0.597547
H64 H 0.437780 0.543682 0.469378
C53 C 0.322670 0.500830 0.506500
H65 H 0.296027 0.498089 0.580742
C54 C 0.304300 0.547750 0.423220
H66 H 0.332585 0.553160 0.349671
C55 C 0.337510 0.629960 0.475520
H67 H 0.330279 0.662080 0.418944
H68 H 0.310202 0.627684 0.547737
C56 C 0.218660 0.515570 0.386600
H69 H 0.215594 0.551055 0.331787
H70 H 0.200550 0.467295 0.345387
C57 C 0.166580 0.503110 0.492290
H71 H 0.178660 0.482723 0.557353
C58 C 0.115560 0.512770 0.511680
H72 H 0.098217 0.532975 0.453153
H73 H 0.091988 0.500312 0.585757
C59 C 0.295380 0.418860 0.472340
H74 H 0.304778 0.393516 0.538038
H75 H 0.240534 0.392936 0.459070
C60 C 0.329780 0.411660 0.373660
H76 H 0.309980 0.358365 0.356798
H77 H 0.319717 0.435467 0.307627
H78 H 0.384010 0.436048 0.386656
loop_
_geom_bond_atom_site_label_1
_geom_bond_atom_site_label_2
_geom_bond_site_symmetry_1
_geom_bond_site_symmetry_2
N1 H1 1_555 1_555
N2 C9 1_555 1_555
C1 N1 1_555 1_555
C2 C1 1_555 1_555
H2 C2 1_555 1_555
C3 C2 1_555 1_555
H3 C3 1_555 1_555
C4 C3 1_555 1_555
H4 C4 1_555 1_555
C5 C4 1_555 1_555
H5 C5 1_555 1_555
C6 C1 1_555 1_555
C7 C6 1_555 1_555
C8 N1 1_555 1_555
C9 C8 1_555 1_555
H6 C9 1_555 1_555
C10 N2 1_555 1_555
H7 C10 1_555 1_555
H8 C10 1_555 1_555
C11 C7 1_555 1_555
H9 C11 1_555 1_555
H10 C11 1_555 1_555
C12 N2 1_555 1_555
H11 C12 1_555 1_555
H12 C12 1_555 1_555
C13 C12 1_555 1_555
H13 C13 1_555 1_555
C14 C13 1_555 1_555
H14 C14 1_555 1_555
C15 C9 1_555 1_555
H15 C15 1_555 1_555
H16 C15 1_555 1_555
C16 C14 1_555 1_555
H17 C16 1_555 1_555
H18 C16 1_555 1_555
C17 C16 1_555 1_555
H19 C17 1_555 1_555
C18 C17 1_555 1_555
H20 C18 1_555 1_555
H21 C18 1_555 1_555
C19 C13 1_555 1_555
H22 C19 1_555 1_555
H23 C19 1_555 1_555
C20 C19 1_555 1_555
H24 C20 1_555 1_555
H25 C20 1_555 1_555
H26 C20 1_555 1_555
N3 H27 1_555 1_555
N4 C29 1_555 1_555
C21 N3 1_555 1_555
C22 C21 1_555 1_555
H28 C22 1_555 1_555
C23 C22 1_555 1_555
H29 C23 1_555 1_555
C24 C23 1_555 1_555
H30 C24 1_555 1_555
C25 C24 1_555 1_555
H31 C25 1_555 1_555
C26 C21 1_555 1_555
C27 C26 1_555 1_555
C28 N3 1_555 1_555
C29 C28 1_555 1_555
H32 C29 1_555 1_555
C30 N4 1_555 1_555
H33 C30 1_555 1_555
H34 C30 1_555 1_555
C31 C27 1_555 1_555
H35 C31 1_555 1_555
H36 C31 1_555 1_555
C32 N4 1_555 1_555
H37 C32 1_555 1_555
H38 C32 1_555 1_555
C33 C32 1_555 1_555
H39 C33 1_555 1_555
C34 C33 1_555 1_555
H40 C34 1_555 1_555
C35 C29 1_555 1_555
H41 C35 1_555 1_555
H42 C35 1_555 1_555
C36 C34 1_555 1_555
H43 C36 1_555 1_555
H44 C36 1_555 1_555
C37 C36 1_555 1_555
H45 C37 1_555 1_555
C38 C37 1_555 1_555
H46 C38 1_555 1_555
H47 C38 1_555 1_555
C39 C33 1_555 1_555
H48 C39 1_555 1_555
H49 C39 1_555 1_555
C40 C39 1_555 1_555
H50 C40 1_555 1_555
H51 C40 1_555 1_555
H52 C40 1_555 1_555
N5 H53 1_555 1_555
N6 C49 1_555 1_555
C41 N5 1_555 1_555
C42 C41 1_555 1_555
H54 C42 1_555 1_555
C43 C42 1_555 1_555
H55 C43 1_555 1_555
C44 C43 1_555 1_555
H56 C44 1_555 1_555
C45 C44 1_555 1_555
H57 C45 1_555 1_555
C46 C41 1_555 1_555
C47 C46 1_555 1_555
C48 N5 1_555 1_555
C49 C48 1_555 1_555
H58 C49 1_555 1_555
C50 N6 1_555 1_555
H59 C50 1_555 1_555
H60 C50 1_555 1_555
C51 C47 1_555 1_555
H61 C51 1_555 1_555
H62 C51 1_555 1_555
C52 N6 1_555 1_555
H63 C52 1_555 1_555
H64 C52 1_555 1_555
C53 C52 1_555 1_555
H65 C53 1_555 1_555
C54 C53 1_555 1_555
H66 C54 1_555 1_555
C55 C49 1_555 1_555
H67 C55 1_555 1_555
H68 C55 1_555 1_555
C56 C54 1_555 1_555
H69 C56 1_555 1_555
H70 C56 1_555 1_555
C57 C56 1_555 1_555
H71 C57 1_555 1_555
C58 C57 1_555 1_555
H72 C58 1_555 1_555
H73 C58 1_555 1_555
C59 C53 1_555 1_555
H74 C59 1_555 1_555
H75 C59 1_555 1_555
C60 C59 1_555 1_555
H76 C60 1_555 1_555
H77 C60 1_555 1_555
H78 C60 1_555 1_555
C5 C6 1_555 1_555
C7 C8 1_555 1_555
C10 C11 1_555 1_555
C14 C15 1_555 1_555
C25 C26 1_555 1_555
C27 C28 1_555 1_555
C30 C31 1_555 1_555
C34 C35 1_555 1_555
C45 C46 1_555 1_555
C47 C48 1_555 1_555
C50 C51 1_555 1_555
C54 C55 1_555 1_555

#END
