
#######################################################################
#
#                 Cambridge Crystallographic Data Centre
#                                CCDC 
#
#######################################################################
#
# If this CIF has been generated from an entry in the Cambridge 
# Structural Database, then it will include bibliographic, chemical, 
# crystal, experimental, refinement or atomic coordinate data resulting 
# from the CCDC's data processing and validation procedures.
#
#######################################################################

data_FEBRUC
_chemical_formula_moiety         'C18 H13 N1 O2'
_chemical_name_systematic        
(Z)-4-((9H-fluoren-2-yl)methylidene)-2-methyl-1,3-oxazol-5(4H)-one
_symmetry_cell_setting           triclinic
_symmetry_space_group_name_H-M   'P -1'
_symmetry_Int_Tables_number      2
_space_group_name_Hall           '-P 1'
loop_
_symmetry_equiv_pos_site_id
_symmetry_equiv_pos_as_xyz
1 x,y,z
2 -x,-y,-z
_cell_length_a                   7.5049(4)
_cell_length_b                   9.0156(5)
_cell_length_c                   10.4168(8)
_cell_angle_alpha                83.024(6)
_cell_angle_beta                 69.361(6)
_cell_angle_gamma                81.471(5)
_cell_volume                     650.459
_exptl_crystal_colour            orange
_exptl_crystal_description       plate
_cell_formula_units_Z            2
_exptl_crystal_recrystallization_method dichloromethane/hexane
_exptl_crystal_preparation       ', Luminescent'
loop_
_atom_site_label
_atom_site_type_symbol
_atom_site_fract_x
_atom_site_fract_y
_atom_site_fract_z
O1 O 0.17873(13) 0.88090(10) 0.93822(9)
O2 O 0.31909(14) 1.03724(10) 0.75461(10)
N1 N 0.16751(15) 0.67648(12) 0.83537(11)
C1 C 0.26158(18) 0.91771(14) 0.79835(13)
C2 C 0.25319(17) 0.78495(14) 0.73142(13)
C3 C 0.12765(18) 0.73709(14) 0.94913(14)
C4 C 0.0313(2) 0.67566(15) 1.09089(14)
H1 H 0.1162 0.6718 1.1446
H2 H 0.0012 0.5740 1.0889
H3 H -0.0874 0.7404 1.1333
C5 C 0.31578(17) 0.78079(14) 0.59382(13)
H4 H 0.3714 0.8675 0.5437
C6 C 0.31203(17) 0.66511(14) 0.50943(13)
C7 C 0.23365(17) 0.52933(14) 0.56449(13)
H5 H 0.1798 0.5087 0.6612
C8 C 0.23628(17) 0.42603(14) 0.47520(13)
C9 C 0.31390(17) 0.45704(15) 0.33229(13)
C10 C 0.39294(18) 0.59027(15) 0.27724(13)
H6 H 0.4470 0.6104 0.1805
C11 C 0.39152(18) 0.69307(15) 0.36594(14)
H7 H 0.4454 0.7845 0.3292
C12 C 0.16760(18) 0.27227(14) 0.50779(13)
H8 H 0.0283 0.2786 0.5599
H9 H 0.2373 0.2051 0.5613
C13 C 0.21347(17) 0.21817(15) 0.36621(13)
C14 C 0.29755(18) 0.32810(15) 0.26458(13)
C15 C 0.35238(19) 0.30446(16) 0.12593(14)
H10 H 0.4086 0.3798 0.0575
C16 C 0.3240(2) 0.16953(17) 0.08858(14)
H11 H 0.3608 0.1519 -0.0059
C17 C 0.24141(19) 0.05994(16) 0.18987(15)
H12 H 0.2225 -0.0323 0.1638
C18 C 0.18627(18) 0.08366(15) 0.32859(14)
H13 H 0.1304 0.0081 0.3969
loop_
_geom_bond_atom_site_label_1
_geom_bond_atom_site_label_2
_geom_bond_site_symmetry_1
_geom_bond_site_symmetry_2
O1 C1 1_555 1_555
O2 C1 1_555 1_555
N1 C2 1_555 1_555
C1 C2 1_555 1_555
C2 C5 1_555 1_555
C3 O1 1_555 1_555
C4 C3 1_555 1_555
H1 C4 1_555 1_555
H2 C4 1_555 1_555
H3 C4 1_555 1_555
C5 H4 1_555 1_555
C6 C5 1_555 1_555
C7 C6 1_555 1_555
H5 C7 1_555 1_555
C8 C7 1_555 1_555
C9 C8 1_555 1_555
C10 C9 1_555 1_555
H6 C10 1_555 1_555
C11 C6 1_555 1_555
H7 C11 1_555 1_555
C12 C8 1_555 1_555
H8 C12 1_555 1_555
H9 C12 1_555 1_555
C13 C12 1_555 1_555
C14 C9 1_555 1_555
C15 C14 1_555 1_555
H10 C15 1_555 1_555
C16 C15 1_555 1_555
H11 C16 1_555 1_555
C17 C16 1_555 1_555
H12 C17 1_555 1_555
C18 C13 1_555 1_555
H13 C18 1_555 1_555
N1 C3 1_555 1_555
C10 C11 1_555 1_555
C13 C14 1_555 1_555
C17 C18 1_555 1_555

#END
