
#######################################################################
#
#                 Cambridge Crystallographic Data Centre
#                                CCDC 
#
#######################################################################
#
# If this CIF has been generated from an entry in the Cambridge 
# Structural Database, then it will include bibliographic, chemical, 
# crystal, experimental, refinement or atomic coordinate data resulting 
# from the CCDC's data processing and validation procedures.
#
#######################################################################

data_FEBREM
_chemical_formula_moiety         'C25 H30 N2 O4 S1'
_chemical_name_systematic        
'ethyl 2-benzylidene-4-(4,4-dimethyl-1-(methylsulfonyl)-3-phenyl-4,5-dihydro-1H-pyrazol-5-yl)butanoate'
_symmetry_cell_setting           orthorhombic
_symmetry_space_group_name_H-M   'F d d 2'
_symmetry_Int_Tables_number      43
_space_group_name_Hall           'F 2 -2d'
loop_
_symmetry_equiv_pos_site_id
_symmetry_equiv_pos_as_xyz
1 x,y,z
2 -x,-y,z
3 1/4+x,1/4-y,1/4+z
4 1/4-x,1/4+y,1/4+z
5 x,1/2+y,1/2+z
6 -x,1/2-y,1/2+z
7 1/4+x,3/4-y,3/4+z
8 1/4-x,3/4+y,3/4+z
9 1/2+x,y,1/2+z
10 1/2-x,-y,1/2+z
11 3/4+x,1/4-y,3/4+z
12 3/4-x,1/4+y,3/4+z
13 1/2+x,1/2+y,z
14 1/2-x,1/2-y,z
15 3/4+x,3/4-y,1/4+z
16 3/4-x,3/4+y,1/4+z
_cell_length_a                   16.0693(16)
_cell_length_b                   54.037(5)
_cell_length_c                   10.9426(11)
_cell_angle_alpha                90
_cell_angle_beta                 90
_cell_angle_gamma                90
_cell_volume                     9501.86
_exptl_crystal_colour            colorless
_exptl_crystal_description       block
_cell_formula_units_Z            16
loop_
_atom_site_label
_atom_site_type_symbol
_atom_site_fract_x
_atom_site_fract_y
_atom_site_fract_z
C1 C 0.71511(16) 0.41450(4) 1.2224(2)
C2 C 0.74549(19) 0.40126(5) 1.1236(3)
H1 H 0.7158 0.4010 1.0507
C3 C 0.8199(2) 0.38834(6) 1.1324(3)
H2 H 0.8392 0.3795 1.0654
C4 C 0.86501(19) 0.38846(6) 1.2382(4)
H3 H 0.9156 0.3802 1.2426
C5 C 0.83460(19) 0.40100(6) 1.3379(3)
H4 H 0.8644 0.4009 1.4108
C6 C 0.76038(18) 0.41376(6) 1.3311(3)
H5 H 0.7403 0.4220 1.3998
C7 C 0.63746(15) 0.42896(5) 1.2218(2)
H6 H 0.6123 0.4306 1.2979
C8 C 0.59691(14) 0.44011(4) 1.1297(2)
C9 C 0.62313(12) 0.44048(4) 0.9977(2)
H7 H 0.6830 0.4384 0.9931
H8 H 0.6097 0.4565 0.9629
C10 C 0.58095(14) 0.42020(4) 0.9219(2)
H9 H 0.5911 0.4044 0.9612
H10 H 0.5214 0.4231 0.9232
C11 C 0.60896(13) 0.41835(4) 0.7889(2)
H11 H 0.5955 0.4018 0.7583
C12 C 0.57655(13) 0.43788(4) 0.6960(2)
C13 C 0.65411(12) 0.45339(4) 0.6774(2)
C14 C 0.50264(14) 0.45311(5) 0.7398(3)
H12 H 0.5160 0.4607 0.8165
H13 H 0.4552 0.4425 0.7498
H14 H 0.4901 0.4657 0.6806
C15 C 0.55398(19) 0.42453(6) 0.5756(3)
H15 H 0.5321 0.4363 0.5183
H16 H 0.5129 0.4120 0.5917
H17 H 0.6029 0.4169 0.5420
C16 C 0.85963(17) 0.40902(6) 0.7947(3)
H18 H 0.9016 0.3972 0.7722
H19 H 0.8600 0.4112 0.8817
H20 H 0.8709 0.4246 0.7555
C17 C 0.65727(14) 0.47845(4) 0.6222(2)
C18 C 0.61550(18) 0.48437(5) 0.5151(3)
H21 H 0.5838 0.4724 0.4753
C19 C 0.6212(2) 0.50821(7) 0.4673(4)
H22 H 0.5936 0.5120 0.3949
C20 C 0.6661(2) 0.52584(6) 0.5245(4)
H23 H 0.6695 0.5417 0.4915
C21 C 0.7072(2) 0.52037(5) 0.6324(4)
H24 H 0.7375 0.5326 0.6725
C22 C 0.70313(15) 0.49660(4) 0.6806(3)
H25 H 0.7314 0.4929 0.7525
C23 C 0.51971(15) 0.45373(5) 1.1653(2)
C24 C 0.40323(17) 0.47610(6) 1.0892(3)
H26 H 0.4151 0.4911 1.1350
H27 H 0.3642 0.4661 1.1356
C25 C 0.3678(2) 0.48237(8) 0.9680(4)
H28 H 0.3557 0.4674 0.9241
H29 H 0.4073 0.4920 0.9227
H30 H 0.3176 0.4917 0.9788
N1 N 0.70102(11) 0.42197(3) 0.78273(18)
N2 N 0.72176(11) 0.44381(3) 0.71770(18)
O1 O 0.49433(13) 0.45654(5) 1.26700(19)
O2 O 0.47951(11) 0.46231(4) 1.06730(18)
O3 O 0.73399(13) 0.37853(3) 0.8254(2)
O4 O 0.76544(13) 0.39353(4) 0.6207(2)
S1 S 0.76185(3) 0.39815(2) 0.74848(5)
loop_
_geom_bond_atom_site_label_1
_geom_bond_atom_site_label_2
_geom_bond_site_symmetry_1
_geom_bond_site_symmetry_2
C1 C2 1_555 1_555
C2 H1 1_555 1_555
C3 C2 1_555 1_555
H2 C3 1_555 1_555
C4 C3 1_555 1_555
H3 C4 1_555 1_555
C5 C4 1_555 1_555
H4 C5 1_555 1_555
C6 C1 1_555 1_555
H5 C6 1_555 1_555
C7 C1 1_555 1_555
H6 C7 1_555 1_555
C8 C7 1_555 1_555
C9 C8 1_555 1_555
H7 C9 1_555 1_555
H8 C9 1_555 1_555
C10 C9 1_555 1_555
H9 C10 1_555 1_555
H10 C10 1_555 1_555
C11 C10 1_555 1_555
H11 C11 1_555 1_555
C12 C11 1_555 1_555
C13 C12 1_555 1_555
C14 C12 1_555 1_555
H12 C14 1_555 1_555
H13 C14 1_555 1_555
H14 C14 1_555 1_555
C15 C12 1_555 1_555
H15 C15 1_555 1_555
H16 C15 1_555 1_555
H17 C15 1_555 1_555
C16 H18 1_555 1_555
H19 C16 1_555 1_555
H20 C16 1_555 1_555
C17 C13 1_555 1_555
C18 C17 1_555 1_555
H21 C18 1_555 1_555
C19 C18 1_555 1_555
H22 C19 1_555 1_555
C20 C19 1_555 1_555
H23 C20 1_555 1_555
C21 C20 1_555 1_555
H24 C21 1_555 1_555
C22 C17 1_555 1_555
H25 C22 1_555 1_555
C23 C8 1_555 1_555
C24 H26 1_555 1_555
H27 C24 1_555 1_555
C25 C24 1_555 1_555
H28 C25 1_555 1_555
H29 C25 1_555 1_555
H30 C25 1_555 1_555
N1 C11 1_555 1_555
N2 C13 1_555 1_555
O1 C23 1_555 1_555
O2 C23 1_555 1_555
O3 S1 1_555 1_555
O4 S1 1_555 1_555
S1 C16 1_555 1_555
C5 C6 1_555 1_555
C21 C22 1_555 1_555
C24 O2 1_555 1_555
N1 N2 1_555 1_555
N1 S1 1_555 1_555

#END
