
#######################################################################
#
#                 Cambridge Crystallographic Data Centre
#                                CCDC 
#
#######################################################################
#
# If this CIF has been generated from an entry in the Cambridge 
# Structural Database, then it will include bibliographic, chemical, 
# crystal, experimental, refinement or atomic coordinate data resulting 
# from the CCDC's data processing and validation procedures.
#
#######################################################################

data_FEBSOX
_chemical_name_common            
'4-carbamoylpyridin-1-ium 2-nitrobenzoate isonicotinamide 2-nitrobenzoic acid'
_chemical_formula_moiety         
'C6 H7 N2 O1 1+,C7 H4 N1 O4 1-,C6 H6 N2 O1,C7 H5 N1 O4'
_chemical_name_systematic        
'4-carbamoylpyridin-1-ium 2-nitrobenzoate pyridine-4-carboxamide 2-nitrobenzoic acid'
_symmetry_cell_setting           monoclinic
_symmetry_space_group_name_H-M   'P 21/c'
_symmetry_Int_Tables_number      14
_space_group_name_Hall           '-P 2ybc'
loop_
_symmetry_equiv_pos_site_id
_symmetry_equiv_pos_as_xyz
1 x,y,z
2 -x,1/2+y,1/2-z
3 -x,-y,-z
4 x,1/2-y,1/2+z
_cell_length_a                   8.873(2)
_cell_length_b                   34.245(8)
_cell_length_c                   9.175(2)
_cell_angle_alpha                90
_cell_angle_beta                 105.942(8)
_cell_angle_gamma                90
_cell_volume                     2680.66
_exptl_crystal_colour            colorless
_exptl_crystal_description       Brick
_cell_formula_units_Z            4
loop_
_atom_site_label
_atom_site_type_symbol
_atom_site_fract_x
_atom_site_fract_y
_atom_site_fract_z
C1 C 0.5342(3) 0.56549(6) 0.9550(2)
H1 H 0.5251 0.5387 0.939
C2 C 0.5817(3) 0.58912(6) 0.8522(3)
H2 H 0.6043 0.578 0.7681
N1 N 0.5949(2) 0.62756(5) 0.8742(2)
H3 H 0.6157 0.6416 0.7996
C3 C 0.5624(3) 0.64398(7) 0.9963(3)
H4 H 0.5722 0.6709 1.009
C4 C 0.5150(3) 0.62210(6) 1.1034(3)
H5 H 0.494 0.634 1.1867
C5 C 0.4998(2) 0.58191(6) 1.0829(2)
C6 C 0.4409(2) 0.55631(6) 1.1914(2)
N2 N 0.4661(2) 0.56823(6) 1.3375(2)
H6 H 0.527(2) 0.5882(5) 1.379(2)
H7 H 0.435(3) 0.5548(6) 1.4069(19)
O1 O 0.3714(2) 0.52604(4) 1.14047(18)
C7 C 0.1897(3) 0.49378(6) 0.7616(3)
H8 H 0.2472 0.5165 0.7925
C8 C 0.1153(3) 0.47595(7) 0.8584(3)
H9 H 0.1254 0.4864 0.9541
N3 N 0.0302(2) 0.44422(5) 0.8158(2)
C9 C 0.0201(3) 0.42923(7) 0.6758(3)
H10 H -0.04 0.4068 0.6471
C10 C 0.0924(3) 0.44480(6) 0.5733(3)
H11 H 0.0824 0.4332 0.4794
C11 C 0.1795(2) 0.47802(6) 0.6161(2)
C12 C 0.2602(2) 0.49809(6) 0.5111(2)
N4 N 0.2416(2) 0.48348(6) 0.3694(2)
H12 H 0.282(3) 0.4960(7) 0.304(2)
H13 H 0.179(3) 0.4632(5) 0.335(3)
O2 O 0.3386(2) 0.52721(5) 0.55901(19)
C13 C 0.8726(3) 0.67349(8) 0.4151(3)
H14 H 0.9314 0.6519 0.4594
C14 C 0.9297(3) 0.69800(10) 0.3220(3)
H15 H 1.026 0.6924 0.3052
C15 C 0.8490(4) 0.73008(9) 0.2544(3)
H16 H 0.8887 0.7458 0.191
C16 C 0.7124(4) 0.73843(7) 0.2808(3)
H17 H 0.6563 0.7606 0.2395
C17 C 0.6558(3) 0.71316(6) 0.3718(3)
C18 C 0.7338(2) 0.68044(6) 0.4423(2)
C19 C 0.6812(2) 0.65449(6) 0.5540(2)
O3 O 0.6810(2) 0.61891(4) 0.5377(2)
O4 O 0.6456(2) 0.67215(4) 0.66397(18)
N5 N 0.5031(3) 0.72035(8) 0.3871(3)
O5 O 0.4146(3) 0.69286(8) 0.3637(3)
O6 O 0.4718(3) 0.75305(8) 0.4209(3)
C20 C 0.8109(3) 0.30334(7) 0.2378(3)
H18 H 0.814 0.277 0.2138
C21 C 0.7428(3) 0.31517(8) 0.3494(3)
H19 H 0.7004 0.2966 0.4008
C22 C 0.7374(3) 0.35408(8) 0.3847(3)
H20 H 0.6907 0.3618 0.4593
C23 C 0.8019(3) 0.38183(8) 0.3087(3)
H21 H 0.7984 0.4081 0.3336
C24 C 0.8722(2) 0.37089(6) 0.1953(2)
C25 C 0.8745(2) 0.33119(7) 0.1624(3)
N6 N 0.9514(3) 0.31693(6) 0.0486(3)
O7 O 1.0682(2) 0.33261(7) 0.0439(3)
O8 O 0.8949(3) 0.28969(7) -0.0342(3)
C26 C 0.9355(3) 0.40201(7) 0.1127(3)
O9 O 0.8854(2) 0.40033(6) -0.0374(2)
H22 H 0.928(4) 0.4170(8) -0.080(4)
O10 O 1.0195(2) 0.42716(5) 0.1837(2)
loop_
_geom_bond_atom_site_label_1
_geom_bond_atom_site_label_2
_geom_bond_site_symmetry_1
_geom_bond_site_symmetry_2
C1 H1 1_555 1_555
C2 C1 1_555 1_555
H2 C2 1_555 1_555
N1 C2 1_555 1_555
H3 N1 1_555 1_555
C3 N1 1_555 1_555
H4 C3 1_555 1_555
C4 C3 1_555 1_555
H5 C4 1_555 1_555
C5 C1 1_555 1_555
C6 C5 1_555 1_555
N2 C6 1_555 1_555
H6 N2 1_555 1_555
H7 N2 1_555 1_555
O1 C6 1_555 1_555
C7 H8 1_555 1_555
C8 C7 1_555 1_555
H9 C8 1_555 1_555
N3 C8 1_555 1_555
C9 N3 1_555 1_555
H10 C9 1_555 1_555
C10 C9 1_555 1_555
H11 C10 1_555 1_555
C11 C7 1_555 1_555
C12 C11 1_555 1_555
N4 C12 1_555 1_555
H12 N4 1_555 1_555
H13 N4 1_555 1_555
O2 C12 1_555 1_555
C13 H14 1_555 1_555
C14 C13 1_555 1_555
H15 C14 1_555 1_555
C15 C14 1_555 1_555
H16 C15 1_555 1_555
C16 C15 1_555 1_555
H17 C16 1_555 1_555
C17 C16 1_555 1_555
C18 C13 1_555 1_555
C19 C18 1_555 1_555
O3 C19 1_555 1_555
O4 C19 1_555 1_555
N5 C17 1_555 1_555
O5 N5 1_555 1_555
O6 N5 1_555 1_555
C20 H18 1_555 1_555
C21 C20 1_555 1_555
H19 C21 1_555 1_555
C22 C21 1_555 1_555
H20 C22 1_555 1_555
C23 C22 1_555 1_555
H21 C23 1_555 1_555
C24 C23 1_555 1_555
C25 C20 1_555 1_555
N6 C25 1_555 1_555
O7 N6 1_555 1_555
O8 N6 1_555 1_555
C26 C24 1_555 1_555
O9 C26 1_555 1_555
H22 O9 1_555 1_555
O10 C26 1_555 1_555
C4 C5 1_555 1_555
C10 C11 1_555 1_555
C17 C18 1_555 1_555
C24 C25 1_555 1_555

#END
