
#######################################################################
#
#                 Cambridge Crystallographic Data Centre
#                                CCDC 
#
#######################################################################
#
# If this CIF has been generated from an entry in the Cambridge 
# Structural Database, then it will include bibliographic, chemical, 
# crystal, experimental, refinement or atomic coordinate data resulting 
# from the CCDC's data processing and validation procedures.
#
#######################################################################

data_FEBSAJ
_chemical_formula_moiety         'C18 H15 N1 O3'
_chemical_name_systematic        
(Z)-4-((4'-methoxybiphenyl-4-yl)methylidene)-2-methyl-1,3-oxazol-5(4H)-one
_symmetry_cell_setting           monoclinic
_symmetry_space_group_name_H-M   'P 21/c'
_symmetry_Int_Tables_number      14
_space_group_name_Hall           '-P 2ybc'
loop_
_symmetry_equiv_pos_site_id
_symmetry_equiv_pos_as_xyz
1 x,y,z
2 -x,1/2+y,1/2-z
3 -x,-y,-z
4 x,1/2-y,1/2+z
_cell_length_a                   7.26244(11)
_cell_length_b                   17.2417(3)
_cell_length_c                   11.68246(15)
_cell_angle_alpha                90
_cell_angle_beta                 95.8807(14)
_cell_angle_gamma                90
_cell_volume                     1455.14
_exptl_crystal_colour            yellow
_exptl_crystal_description       block
_cell_formula_units_Z            4
_exptl_crystal_recrystallization_method dichloromethane/hexane
_exptl_crystal_preparation       ', Luminescent'
loop_
_atom_site_label
_atom_site_type_symbol
_atom_site_fract_x
_atom_site_fract_y
_atom_site_fract_z
O1 O 0.28507(9) 0.31301(4) 0.52843(6)
O2 O 0.17243(11) 0.32145(4) 0.34067(6)
O3 O 0.24803(10) 1.06748(4) 0.43637(6)
N1 N 0.30580(11) 0.43939(5) 0.57999(7)
C1 C 0.33264(12) 0.36885(5) 0.61135(8)
C2 C 0.22009(13) 0.35376(6) 0.42975(8)
C3 C 0.23136(12) 0.43587(5) 0.46423(8)
C4 C 0.17396(12) 0.49357(6) 0.39114(8)
H1 H 0.1220 0.4771 0.3172
C5 C 0.17933(12) 0.57678(6) 0.40809(8)
C6 C 0.09248(12) 0.62413(5) 0.32118(8)
H2 H 0.0274 0.6008 0.2553
C7 C 0.09952(12) 0.70420(5) 0.32928(8)
H3 H 0.0379 0.7349 0.2696
C8 C 0.19631(12) 0.74060(6) 0.42432(8)
C9 C 0.28006(12) 0.69287(5) 0.51247(8)
H4 H 0.3441 0.7162 0.5786
C10 C 0.27165(13) 0.61322(6) 0.50544(8)
H5 H 0.3286 0.5826 0.5668
C11 C 0.40938(14) 0.33836(6) 0.72412(8)
H6 H 0.3214 0.3018 0.7527
H7 H 0.4314 0.3813 0.7787
H8 H 0.5264 0.3116 0.7160
C12 C 0.21246(12) 0.82598(6) 0.42998(8)
C13 C 0.21401(13) 0.87086(6) 0.32995(8)
H9 H 0.2051 0.8458 0.2572
C14 C 0.22825(13) 0.95064(6) 0.33492(8)
H10 H 0.2305 0.9798 0.2660
C15 C 0.23942(12) 0.98863(6) 0.44095(8)
C16 C 0.24008(13) 0.94539(6) 0.54145(8)
H11 H 0.2496 0.9706 0.6141
C17 C 0.22681(13) 0.86532(6) 0.53493(8)
H12 H 0.2275 0.8363 0.6041
C18 C 0.26601(15) 1.10881(6) 0.54348(9)
H13 H 0.2725 1.1646 0.5285
H14 H 0.3792 1.0922 0.5899
H15 H 0.1586 1.0979 0.5853
loop_
_geom_bond_atom_site_label_1
_geom_bond_atom_site_label_2
_geom_bond_site_symmetry_1
_geom_bond_site_symmetry_2
O1 C1 1_555 1_555
O2 C2 1_555 1_555
O3 C15 1_555 1_555
N1 C1 1_555 1_555
C1 C11 1_555 1_555
C2 O1 1_555 1_555
C3 N1 1_555 1_555
C4 C3 1_555 1_555
H1 C4 1_555 1_555
C5 C4 1_555 1_555
C6 C5 1_555 1_555
H2 C6 1_555 1_555
C7 C6 1_555 1_555
H3 C7 1_555 1_555
C8 C7 1_555 1_555
C9 C8 1_555 1_555
H4 C9 1_555 1_555
C10 C5 1_555 1_555
H5 C10 1_555 1_555
C11 H6 1_555 1_555
H7 C11 1_555 1_555
H8 C11 1_555 1_555
C12 C8 1_555 1_555
C13 C12 1_555 1_555
H9 C13 1_555 1_555
C14 C13 1_555 1_555
H10 C14 1_555 1_555
C15 C14 1_555 1_555
C16 C15 1_555 1_555
H11 C16 1_555 1_555
C17 C12 1_555 1_555
H12 C17 1_555 1_555
C18 O3 1_555 1_555
H13 C18 1_555 1_555
H14 C18 1_555 1_555
H15 C18 1_555 1_555
C2 C3 1_555 1_555
C9 C10 1_555 1_555
C16 C17 1_555 1_555

#END
