
#######################################################################
#
#                 Cambridge Crystallographic Data Centre
#                                CCDC 
#
#######################################################################
#
# If this CIF has been generated from an entry in the Cambridge 
# Structural Database, then it will include bibliographic, chemical, 
# crystal, experimental, refinement or atomic coordinate data resulting 
# from the CCDC's data processing and validation procedures.
#
#######################################################################

data_FEBTEM
_chemical_formula_moiety         'C24 H12 O16 S8 4-,2(C10 H10 N2 2+),2(H2 O1)'
_chemical_name_systematic        
"5,11,17,23-tetrakis(Sulfonato)-25,26,27,28-tetrahydroxy-2,8,14,20-tetrathiacalix(4)arene bis(4,4'-bipyridine-1,1'-di-ium) clathrate dihydrate"
_symmetry_cell_setting           triclinic
_symmetry_space_group_name_H-M   'P -1'
_symmetry_Int_Tables_number      2
_space_group_name_Hall           '-P 1'
loop_
_symmetry_equiv_pos_site_id
_symmetry_equiv_pos_as_xyz
1 x,y,z
2 -x,-y,-z
_cell_length_a                   9.475(4)
_cell_length_b                   10.311(5)
_cell_length_c                   15.274(8)
_cell_angle_alpha                73.379(6)
_cell_angle_beta                 84.377(6)
_cell_angle_gamma                79.072(5)
_cell_volume                     1402.42
_exptl_crystal_colour            yellow
_exptl_crystal_description       block
_cell_formula_units_Z            1
loop_
_atom_site_label
_atom_site_type_symbol
_atom_site_fract_x
_atom_site_fract_y
_atom_site_fract_z
S1 S 0.7138(2) 0.2867(3) 0.50264(17)
S2 S 0.8979(2) -0.3172(3) 0.56682(18)
S3 S 0.9414(2) -0.0512(3) 0.84850(17)
S4 S 0.2568(2) 0.3925(3) 0.76988(18)
O1 O 0.7793(8) -0.0114(7) 0.4518(5)
H1 H 0.7726 0.0676 0.4189
O2 O 0.4425(6) 0.2606(8) 0.3922(5)
H2 H 0.5300 0.2491 0.3826
O3 O 1.1031(7) -0.1052(8) 0.8474(5)
O4 O 0.9027(9) 0.0951(7) 0.8607(5)
O5 O 0.8577(8) -0.1531(8) 0.9173(5)
O6 O 0.3956(7) 0.4033(10) 0.8070(5)
O7 O 0.1468(7) 0.5271(7) 0.7537(5)
O8 O 0.1843(7) 0.2707(8) 0.8288(5)
C1 C 0.8070(9) -0.0144(10) 0.5409(6)
C2 C 0.8574(8) -0.1511(10) 0.6049(6)
C3 C 0.8966(9) -0.1620(10) 0.6969(6)
H3 H 0.9308 -0.2481 0.7351
C4 C 0.8832(9) -0.0380(10) 0.7316(7)
C5 C 0.8275(9) 0.0953(10) 0.6705(7)
H4 H 0.8177 0.1732 0.6911
C6 C 0.7868(9) 0.1103(10) 0.5784(7)
C7 C 0.5135(9) 0.3020(9) 0.5401(6)
C8 C 0.4641(9) 0.3384(9) 0.6250(6)
H5 H 0.5313 0.3522 0.6604
C9 C 0.3127(9) 0.3538(10) 0.6562(7)
C10 C 0.2045(9) 0.3376(9) 0.5991(6)
H6 H 0.1081 0.3453 0.6189
C11 C 0.7499(9) -0.3089(10) 0.4904(7)
C12 C 0.4077(9) 0.2902(10) 0.4801(7)
S1A S 0.2862(2) -0.2867(3) 0.49736(17)
S2A S 0.1021(2) 0.3172(3) 0.43318(18)
S3A S 0.0586(2) 0.0512(3) 0.15150(17)
S4A S 0.7432(2) -0.3925(3) 0.23012(18)
O1A O 0.2207(8) 0.0114(7) 0.5482(5)
H1A H 0.2274 -0.0676 0.5811
O2A O 0.5575(6) -0.2606(8) 0.6078(5)
H2A H 0.4700 -0.2491 0.6174
O3A O -0.1031(7) 0.1052(8) 0.1526(5)
O4A O 0.0973(9) -0.0951(7) 0.1393(5)
O5A O 0.1423(8) 0.1531(8) 0.0827(5)
O6A O 0.6044(7) -0.4033(10) 0.1930(5)
O7A O 0.8532(7) -0.5271(7) 0.2463(5)
O8A O 0.8157(7) -0.2707(8) 0.1712(5)
C1A C 0.1930(9) 0.0144(10) 0.4591(6)
C2A C 0.1426(8) 0.1511(10) 0.3951(6)
C3A C 0.1034(9) 0.1620(10) 0.3031(6)
H3A H 0.0692 0.2481 0.2649
C4A C 0.1168(9) 0.0380(10) 0.2684(7)
C5A C 0.1725(9) -0.0953(10) 0.3295(7)
H4A H 0.1823 -0.1732 0.3089
C6A C 0.2132(9) -0.1103(10) 0.4216(7)
C7A C 0.4865(9) -0.3020(9) 0.4599(6)
C8A C 0.5359(9) -0.3384(9) 0.3750(6)
H5A H 0.4687 -0.3522 0.3396
C9A C 0.6873(9) -0.3538(10) 0.3438(7)
C10A C 0.7955(9) -0.3376(9) 0.4009(6)
H6A H 0.8919 -0.3453 0.3811
C11A C 0.2501(9) 0.3089(10) 0.5096(7)
C12A C 0.5923(9) -0.2902(10) 0.5199(7)
N1 N 0.8792(10) 0.3603(10) 0.9070(8)
H7 H 0.9401 0.2861 0.9097
N2 N 0.3588(9) 1.0052(10) 0.8865(8)
H8 H 0.3018 1.0821 0.8823
C13 C 0.8072(13) 0.4273(12) 0.8243(9)
H9 H 0.8273 0.3942 0.7730
C14 C 0.7023(11) 0.5478(11) 0.8234(7)
H10 H 0.6521 0.5898 0.7704
C15 C 0.6683(9) 0.6098(10) 0.8998(7)
C16 C 0.7489(12) 0.5358(11) 0.9840(7)
H11 H 0.7323 0.5685 1.0355
C17 C 0.8541(12) 0.4116(12) 0.9851(8)
H12 H 0.9050 0.3659 1.0374
C18 C 0.4349(11) 0.9784(12) 0.8086(9)
H13 H 0.4201 1.0451 0.7530
C19 C 0.5350(10) 0.8535(10) 0.8088(8)
H14 H 0.5832 0.8410 0.7550
C20 C 0.5591(9) 0.7463(10) 0.8964(7)
C21 C 0.4777(11) 0.7755(12) 0.9803(8)
H15 H 0.4914 0.7118 1.0371
C22 C 0.3760(11) 0.9059(12) 0.9722(9)
H16 H 0.3231 0.9225 1.0236
O9 O 0.7254(8) 0.2201(8) 0.2940(5)
H17 H 0.776(11) 0.174(9) 0.260(5)
H18 H 0.689(12) 0.299(5) 0.262(6)
loop_
_geom_bond_atom_site_label_1
_geom_bond_atom_site_label_2
_geom_bond_site_symmetry_1
_geom_bond_site_symmetry_2
S1 C6 1_555 1_555
S2 C2 1_555 1_555
S3 O3 1_555 1_555
S4 O6 1_555 1_555
O1 H1 1_555 1_555
O2 H2 1_555 1_555
O4 S3 1_555 1_555
O5 S3 1_555 1_555
O7 S4 1_555 1_555
O8 S4 1_555 1_555
C1 O1 1_555 1_555
C2 C1 1_555 1_555
C3 C2 1_555 1_555
H3 C3 1_555 1_555
C4 S3 1_555 1_555
C5 C4 1_555 1_555
H4 C5 1_555 1_555
C6 C1 1_555 1_555
C7 S1 1_555 1_555
C8 C7 1_555 1_555
H5 C8 1_555 1_555
C9 S4 1_555 1_555
C10 C9 1_555 1_555
H6 C10 1_555 1_555
C11 S2 1_555 1_555
C12 O2 1_555 1_555
N1 H7 1_555 1_555
N2 H8 1_555 1_555
C13 N1 1_555 1_555
H9 C13 1_555 1_555
C14 C13 1_555 1_555
H10 C14 1_555 1_555
C15 C14 1_555 1_555
C16 C15 1_555 1_555
H11 C16 1_555 1_555
C17 N1 1_555 1_555
H12 C17 1_555 1_555
C18 N2 1_555 1_555
H13 C18 1_555 1_555
C19 C18 1_555 1_555
H14 C19 1_555 1_555
C20 C15 1_555 1_555
C21 C20 1_555 1_555
H15 C21 1_555 1_555
C22 N2 1_555 1_555
H16 C22 1_555 1_555
O9 H17 1_555 1_555
H18 O9 1_555 1_555
S1A C6A 1_555 1_555
S2A C2A 1_555 1_555
S3A O3A 1_555 1_555
S4A O6A 1_555 1_555
O1A H1A 1_555 1_555
O2A H2A 1_555 1_555
O4A S3A 1_555 1_555
O5A S3A 1_555 1_555
O7A S4A 1_555 1_555
O8A S4A 1_555 1_555
C1A O1A 1_555 1_555
C2A C1A 1_555 1_555
C3A C2A 1_555 1_555
H3A C3A 1_555 1_555
C4A S3A 1_555 1_555
C5A C4A 1_555 1_555
H4A C5A 1_555 1_555
C6A C1A 1_555 1_555
C7A S1A 1_555 1_555
C8A C7A 1_555 1_555
H5A C8A 1_555 1_555
C9A S4A 1_555 1_555
C10A C11 1_555 1_555
H6A C10A 1_555 1_555
C11A C10 1_555 1_555
C12A C11 1_555 1_555
C3 C4 1_555 1_555
C5 C6 1_555 1_555
C7 C12 1_555 1_555
C8 C9 1_555 1_555
C12 C11A 1_555 1_555
C16 C17 1_555 1_555
C19 C20 1_555 1_555
C21 C22 1_555 1_555
S2A C11A 1_555 1_555
O2A C12A 1_555 1_555
C3A C4A 1_555 1_555
C5A C6A 1_555 1_555
C7A C12A 1_555 1_555
C8A C9A 1_555 1_555
C9A C10A 1_555 1_555

#END
