
#######################################################################
#
#                 Cambridge Crystallographic Data Centre
#                                CCDC 
#
#######################################################################
#
# If this CIF has been generated from an entry in the Cambridge 
# Structural Database, then it will include bibliographic, chemical, 
# crystal, experimental, refinement or atomic coordinate data resulting 
# from the CCDC's data processing and validation procedures.
#
#######################################################################

data_FEBTAI
_chemical_formula_moiety         'C28 H22 O16 S4 2-,C10 H10 N2 2+,7.5(H2 O1)'
_chemical_name_systematic        
"5,11-bis(Sulfonato)-17,23-bis(hydrogen sulfonato)-25,26,27,28-tetrahydroxycalix(4)arene 2,2'-bipyridine-1,1'-di-ium clathrate hydrate"
_symmetry_cell_setting           monoclinic
_symmetry_space_group_name_H-M   'P 21/n'
_symmetry_Int_Tables_number      14
_space_group_name_Hall           '-P 2yn'
loop_
_symmetry_equiv_pos_site_id
_symmetry_equiv_pos_as_xyz
1 x,y,z
2 1/2-x,1/2+y,1/2-z
3 -x,-y,-z
4 1/2+x,1/2-y,1/2+z
_cell_length_a                   12.133(4)
_cell_length_b                   29.653(11)
_cell_length_c                   12.323(5)
_cell_angle_alpha                90
_cell_angle_beta                 91.771(6)
_cell_angle_gamma                90
_cell_volume                     4431.45
_exptl_crystal_colour            colorless
_cell_formula_units_Z            4
loop_
_atom_site_label
_atom_site_type_symbol
_atom_site_fract_x
_atom_site_fract_y
_atom_site_fract_z
S1 S 0.99201(4) 0.121375(18) 0.37508(4)
S2 S 0.80160(5) 0.10542(2) -0.21987(5)
S3 S 0.26564(5) 0.06514(2) 0.00622(5)
S4 S 0.39720(5) 0.10814(2) 0.58322(5)
O1 O 0.69745(13) 0.26792(5) 0.22612(13)
H1 H 0.6736 0.2644 0.1637
O2 O 0.92994(14) 0.08819(5) 0.43256(15)
O3 O 1.06682(13) 0.14655(6) 0.44827(14)
O4 O 1.04987(15) 0.10460(6) 0.28311(14)
O5 O 0.61943(14) 0.25732(5) 0.02351(13)
H2 H 0.6471 0.2584 0.0850
O6 O 0.90879(17) 0.09615(7) -0.16954(16)
O7 O 0.81463(15) 0.12194(7) -0.32990(14)
O8 O 0.7245(2) 0.06906(7) -0.2165(2)
O9 O 0.40654(13) 0.25305(5) 0.08157(12)
H3 H 0.4329 0.2556 0.1433
O10 O 0.3654(2) 0.04064(8) 0.0047(4)
O11 O 0.2027(2) 0.06328(7) -0.09159(19)
O12 O 0.2010(2) 0.05153(8) 0.09496(19)
O13 O 0.48995(12) 0.25782(5) 0.28691(12)
H4 H 0.5551 0.2585 0.2711
O14 O 0.3139(2) 0.08139(8) 0.53706(19)
O15 O 0.3625(3) 0.13084(10) 0.67835(18)
O16 O 0.4958(2) 0.08533(10) 0.6063(3)
C1 C 0.66336(16) 0.23185(7) 0.43853(17)
H5 H 0.6533 0.2638 0.4243
H6 H 0.6922 0.2287 0.5124
C2 C 0.74713(16) 0.21333(7) 0.36140(16)
C3 C 0.81658(16) 0.17842(7) 0.39390(16)
H7 H 0.8103 0.1660 0.4628
C4 C 0.89519(16) 0.16172(7) 0.32541(16)
C5 C 0.90348(17) 0.17900(7) 0.22102(16)
H8 H 0.9554 0.1672 0.1749
C6 C 0.83533(16) 0.21351(7) 0.18534(16)
C7 C 0.75940(16) 0.23094(7) 0.25717(16)
C8 C 0.84556(17) 0.23257(7) 0.07157(16)
H9 H 0.8268 0.2644 0.0725
H10 H 0.9216 0.2300 0.0503
C9 C 0.77206(16) 0.20893(7) -0.01178(16)
C10 C 0.81273(18) 0.17288(8) -0.07121(17)
H11 H 0.8857 0.1639 -0.0603
C11 C 0.74622(18) 0.15044(8) -0.14574(17)
C12 C 0.63617(18) 0.16278(7) -0.16227(17)
H12 H 0.5918 0.1472 -0.2124
C13 C 0.59272(17) 0.19819(7) -0.10439(16)
C14 C 0.66154(17) 0.22100(7) -0.03079(17)
C15 C 0.47079(17) 0.21027(8) -0.11762(16)
H13 H 0.4624 0.2427 -0.1122
H14 H 0.4440 0.2011 -0.1893
C16 C 0.40188(16) 0.18775(7) -0.03272(16)
C17 C 0.36601(17) 0.14389(7) -0.04860(17)
H15 H 0.3838 0.1288 -0.1118
C18 C 0.30411(18) 0.12219(7) 0.02814(17)
C19 C 0.27630(17) 0.14414(7) 0.12288(17)
H16 H 0.2337 0.1294 0.1733
C20 C 0.31157(16) 0.18784(7) 0.14278(16)
C21 C 0.37410(16) 0.20921(7) 0.06443(16)
C22 C 0.28619(16) 0.21053(8) 0.25027(17)
H17 H 0.2857 0.2430 0.2404
H18 H 0.2134 0.2015 0.2722
C23 C 0.37052(16) 0.19824(7) 0.33957(16)
C24 C 0.34991(17) 0.16314(7) 0.41058(17)
H19 H 0.2831 0.1478 0.4051
C25 C 0.42782(18) 0.15076(7) 0.48943(17)
C26 C 0.52800(17) 0.17300(7) 0.49830(16)
H20 H 0.5799 0.1642 0.5512
C27 C 0.55191(16) 0.20846(7) 0.42877(16)
C28 C 0.47128(16) 0.22093(7) 0.35103(16)
H31 H 0.5076(8) 0.0732(4) 0.6652(6)
H32 H 0.2292(11) 0.0345(3) 0.1404(6)
C29 C 0.9983(2) -0.02712(9) 0.3407(2)
H21 H 1.0588 -0.0431 0.3684
C30 C 0.5762(2) 0.11186(10) 0.1488(3)
H22 H 0.5222 0.1325 0.1270
C31 C 0.6330(2) 0.08822(10) 0.0735(2)
H23 H 0.6165 0.0920 -0.0002
C32 C 0.7152(2) 0.05862(9) 0.1071(2)
H24 H 0.7548 0.0427 0.0562
C33 C 0.73777(18) 0.05287(7) 0.21541(18)
N1 N 0.67901(16) 0.07608(7) 0.28731(16)
H25 H 0.6931 0.0723 0.3555
C34 C 0.5997(2) 0.10472(10) 0.2561(2)
H26 H 0.5601 0.1200 0.3081
C35 C 0.82338(19) 0.02236(7) 0.26167(18)
N2 N 0.91990(16) 0.02134(6) 0.21034(15)
H27 H 0.9263 0.0367 0.1517
C36 C 1.0056(2) -0.00271(9) 0.2476(2)
H28 H 1.0708 -0.0029 0.2099
C37 C 0.9002(2) -0.02766(9) 0.3928(2)
H29 H 0.8934 -0.0448 0.4554
C38 C 0.8113(2) -0.00298(8) 0.3532(2)
H30 H 0.7444 -0.0036 0.3882
O17 O 0.01465(15) 0.15551(6) 0.64338(14)
O18 O 0.69479(16) 0.07310(8) 0.50214(15)
O19 O 0.64991(17) -0.00401(6) 0.77737(18)
O21 O 0.16189(18) 0.13091(8) 0.76807(18)
O22 O 0.2440(2) 0.04721(10) 0.3363(2)
O23 O 0.9645(3) 0.07876(14) 0.0477(3)
O25 O 0.4717(4) 0.02503(19) 0.7885(6)
O27 O 0.5206(5) -0.0142(2) 0.6013(7)
O20? O 0.6119(10) 0.0203(4) 0.7007(9)
O24? O 0.9731(4) 0.0565(2) 0.0193(4)
O26? O 0.5106(7) 0.0115(5) 0.8659(10)
loop_
_geom_bond_atom_site_label_1
_geom_bond_atom_site_label_2
_geom_bond_site_symmetry_1
_geom_bond_site_symmetry_2
S1 O2 1_555 1_555
S2 O6 1_555 1_555
S3 O10 1_555 1_555
S4 O14 1_555 1_555
O1 H1 1_555 1_555
O3 S1 1_555 1_555
O4 S1 1_555 1_555
O5 H2 1_555 1_555
O7 S2 1_555 1_555
O8 S2 1_555 1_555
O9 H3 1_555 1_555
O11 S3 1_555 1_555
O12 S3 1_555 1_555
O13 H4 1_555 1_555
O15 S4 1_555 1_555
O16 S4 1_555 1_555
C1 H5 1_555 1_555
H6 C1 1_555 1_555
C2 C1 1_555 1_555
C3 C2 1_555 1_555
H7 C3 1_555 1_555
C4 S1 1_555 1_555
C5 C4 1_555 1_555
H8 C5 1_555 1_555
C6 C5 1_555 1_555
C7 O1 1_555 1_555
C8 C6 1_555 1_555
H9 C8 1_555 1_555
H10 C8 1_555 1_555
C9 C8 1_555 1_555
C10 C9 1_555 1_555
H11 C10 1_555 1_555
C11 S2 1_555 1_555
C12 C11 1_555 1_555
H12 C12 1_555 1_555
C13 C12 1_555 1_555
C14 O5 1_555 1_555
C15 C13 1_555 1_555
H13 C15 1_555 1_555
H14 C15 1_555 1_555
C16 C15 1_555 1_555
C17 C16 1_555 1_555
H15 C17 1_555 1_555
C18 S3 1_555 1_555
C19 C18 1_555 1_555
H16 C19 1_555 1_555
C20 C19 1_555 1_555
C21 O9 1_555 1_555
C22 C20 1_555 1_555
H17 C22 1_555 1_555
H18 C22 1_555 1_555
C23 C22 1_555 1_555
C24 C23 1_555 1_555
H19 C24 1_555 1_555
C25 S4 1_555 1_555
C26 C25 1_555 1_555
H20 C26 1_555 1_555
C27 C1 1_555 1_555
C28 O13 1_555 1_555
C29 H21 1_555 1_555
C30 H22 1_555 1_555
C31 C30 1_555 1_555
H23 C31 1_555 1_555
C32 C31 1_555 1_555
H24 C32 1_555 1_555
C33 C32 1_555 1_555
N1 C33 1_555 1_555
H25 N1 1_555 1_555
C34 C30 1_555 1_555
H26 C34 1_555 1_555
C35 C33 1_555 1_555
N2 C35 1_555 1_555
H27 N2 1_555 1_555
C36 C29 1_555 1_555
H28 C36 1_555 1_555
C37 C29 1_555 1_555
H29 C37 1_555 1_555
C38 C35 1_555 1_555
H30 C38 1_555 1_555
H31 O16 1_555 1_555
H32 O12 1_555 1_555
C2 C7 1_555 1_555
C3 C4 1_555 1_555
C6 C7 1_555 1_555
C9 C14 1_555 1_555
C10 C11 1_555 1_555
C13 C14 1_555 1_555
C16 C21 1_555 1_555
C17 C18 1_555 1_555
C20 C21 1_555 1_555
C23 C28 1_555 1_555
C24 C25 1_555 1_555
C26 C27 1_555 1_555
C27 C28 1_555 1_555
N1 C34 1_555 1_555
N2 C36 1_555 1_555
C37 C38 1_555 1_555

#END
