
#######################################################################
#
#                 Cambridge Crystallographic Data Centre
#                                CCDC 
#
#######################################################################
#
# If this CIF has been generated from an entry in the Cambridge 
# Structural Database, then it will include bibliographic, chemical, 
# crystal, experimental, refinement or atomic coordinate data resulting 
# from the CCDC's data processing and validation procedures.
#
#######################################################################

data_FEBVIU
_chemical_formula_moiety         'C16 H16 F6 O3'
_chemical_name_systematic        
3a-((1,1,1,3,3,3-hexafluoropropan-2-yl)oxy)-1,3a,4,7,8,9,9a,9b-octahydro-2H-4,6a-methanoazuleno[5,4-b]furan-10-one
_symmetry_cell_setting           triclinic
_symmetry_space_group_name_H-M   'P -1'
_symmetry_Int_Tables_number      2
_space_group_name_Hall           '-P 1'
loop_
_symmetry_equiv_pos_site_id
_symmetry_equiv_pos_as_xyz
1 x,y,z
2 -x,-y,-z
_cell_length_a                   7.6511(6)
_cell_length_b                   10.6171(17)
_cell_length_c                   11.0543(14)
_cell_angle_alpha                65.681(14)
_cell_angle_beta                 78.962(10)
_cell_angle_gamma                83.688(10)
_cell_volume                     802.665
_exptl_crystal_colour            colorless
_exptl_crystal_description       block
_cell_formula_units_Z            2
loop_
_atom_site_label
_atom_site_type_symbol
_atom_site_fract_x
_atom_site_fract_y
_atom_site_fract_z
F1 F 0.5830(4) 0.1959(4) 0.2888(3)
F2 F 0.3552(5) 0.2177(3) 0.4211(3)
F3 F 0.3989(6) 0.0382(3) 0.3826(3)
F4 F 0.0405(4) 0.2493(3) 0.3468(2)
F5 F 0.0301(3) 0.2836(3) 0.1456(3)
F6 F 0.0802(4) 0.0822(3) 0.2846(3)
O1 O 0.8111(3) 0.4670(2) -0.2142(3)
O2 O 0.3783(3) 0.18384(19) 0.11190(18)
O3 O 0.3941(3) 0.40742(19) -0.0623(2)
C1 C 0.6665(4) 0.2811(3) -0.0132(3)
H1 H 0.6851 0.3263 0.0446
C2 C 0.7597(4) 0.1402(3) 0.0198(3)
H2 H 0.7722 0.0769 0.1062
C3 C 0.8202(4) 0.1200(3) -0.0904(3)
H3 H 0.8833 0.0405 -0.0921
C4 C 0.7753(4) 0.2404(3) -0.2133(3)
C5 C 0.7582(4) 0.3512(3) -0.1580(3)
C6 C 0.4707(4) 0.2735(3) -0.0196(3)
C7 C 0.4368(3) 0.2107(3) -0.1145(3)
H4 H 0.4201 0.1114 -0.0627
C8 C 0.5844(4) 0.2300(3) -0.2376(3)
H5 H 0.5864 0.1468 -0.2555
C9 C 0.5764(4) 0.3520(4) -0.3707(3)
H6 H 0.5541 0.4379 -0.3582
H7 H 0.4838 0.3416 -0.4145
C10 C 0.7600(5) 0.3488(5) -0.4524(4)
H8 H 0.7960 0.4420 -0.5117
H9 H 0.7585 0.2968 -0.5067
C11 C 0.8889(4) 0.2793(3) -0.3520(3)
H10 H 0.9464 0.1976 -0.3627
H11 H 0.9800 0.3425 -0.3648
C12 C 0.2553(4) 0.2804(3) -0.1481(3)
H12 H 0.2405 0.2910 -0.2370
H13 H 0.1587 0.2268 -0.0827
C13 C 0.2595(4) 0.4187(4) -0.1424(4)
H14 H 0.2890 0.4897 -0.2322
H15 H 0.1442 0.4428 -0.1014
C14 C 0.3123(4) 0.2396(3) 0.2075(3)
H16 H 0.3297 0.3395 0.1667
C15 C 0.4121(7) 0.1730(5) 0.3253(4)
C16 C 0.1158(5) 0.2133(4) 0.2477(4)
loop_
_geom_bond_atom_site_label_1
_geom_bond_atom_site_label_2
_geom_bond_site_symmetry_1
_geom_bond_site_symmetry_2
F1 C15 1_555 1_555
F2 C15 1_555 1_555
F3 C15 1_555 1_555
F4 C16 1_555 1_555
F5 C16 1_555 1_555
F6 C16 1_555 1_555
O1 C5 1_555 1_555
O2 C6 1_555 1_555
O3 C6 1_555 1_555
C1 H1 1_555 1_555
C2 C1 1_555 1_555
H2 C2 1_555 1_555
C3 C2 1_555 1_555
H3 C3 1_555 1_555
C4 C3 1_555 1_555
C5 C1 1_555 1_555
C6 C1 1_555 1_555
C7 C6 1_555 1_555
H4 C7 1_555 1_555
C8 C4 1_555 1_555
H5 C8 1_555 1_555
C9 C8 1_555 1_555
H6 C9 1_555 1_555
H7 C9 1_555 1_555
C10 C9 1_555 1_555
H8 C10 1_555 1_555
H9 C10 1_555 1_555
C11 C4 1_555 1_555
H10 C11 1_555 1_555
H11 C11 1_555 1_555
C12 C7 1_555 1_555
H12 C12 1_555 1_555
H13 C12 1_555 1_555
C13 O3 1_555 1_555
H14 C13 1_555 1_555
H15 C13 1_555 1_555
C14 O2 1_555 1_555
H16 C14 1_555 1_555
C15 C14 1_555 1_555
C16 C14 1_555 1_555
C4 C5 1_555 1_555
C7 C8 1_555 1_555
C10 C11 1_555 1_555
C12 C13 1_555 1_555

#END
