
#######################################################################
#
#                 Cambridge Crystallographic Data Centre
#                                CCDC 
#
#######################################################################
#
# If this CIF has been generated from an entry in the Cambridge 
# Structural Database, then it will include bibliographic, chemical, 
# crystal, experimental, refinement or atomic coordinate data resulting 
# from the CCDC's data processing and validation procedures.
#
#######################################################################

data_FEBYET
_chemical_formula_moiety         'C22 H20 O1 P1 1+,F6 P1 1-'
_chemical_name_systematic        
'1-(2-hydroxyethyl)-1,2-diphenyl-1H-phosphindol-1-ium hexafluorophosphate'
_symmetry_cell_setting           triclinic
_symmetry_space_group_name_H-M   'P -1'
_symmetry_Int_Tables_number      2
_space_group_name_Hall           '-P 1'
loop_
_symmetry_equiv_pos_site_id
_symmetry_equiv_pos_as_xyz
1 x,y,z
2 -x,-y,-z
_cell_length_a                   9.0781(4)
_cell_length_b                   10.6021(5)
_cell_length_c                   11.4141(4)
_cell_angle_alpha                76.150(3)
_cell_angle_beta                 87.971(3)
_cell_angle_gamma                86.907(3)
_cell_volume                     1064.79
_exptl_crystal_colour            colorless
_exptl_crystal_description       prism
_cell_formula_units_Z            2
_exptl_crystal_recrystallization_method dichloromethane/toluene
loop_
_atom_site_label
_atom_site_type_symbol
_atom_site_fract_x
_atom_site_fract_y
_atom_site_fract_z
P1 P 0.41932(4) 0.79673(4) 0.74418(3)
C1 C 0.40180(17) 0.79904(15) 0.58650(14)
C2 C 0.49098(18) 0.70223(16) 0.56198(14)
H1 H 0.5002 0.6873 0.4832
C3 C 0.57305(17) 0.62111(15) 0.66355(14)
C4 C 0.54366(17) 0.65630(15) 0.77326(14)
C5 C 0.60389(17) 0.58548(16) 0.87997(15)
H2 H 0.5830 0.6101 0.9538
C6 C 0.69619(18) 0.47674(16) 0.87630(15)
H3 H 0.7367 0.4253 0.9488
C7 C 0.72926(19) 0.44315(17) 0.76783(16)
H4 H 0.7940 0.3700 0.7667
C8 C 0.66862(19) 0.51544(17) 0.66033(16)
H5 H 0.6925 0.4926 0.5861
C9 C 0.29751(17) 0.88541(16) 0.50488(14)
C10 C 0.22991(19) 0.83978(17) 0.41546(16)
H6 H 0.2511 0.7531 0.4084
C11 C 0.1323(2) 0.92043(18) 0.33726(16)
H7 H 0.0868 0.8887 0.2770
C12 C 0.10094(19) 1.04683(18) 0.34643(16)
H8 H 0.0346 1.1019 0.2922
C13 C 0.16640(19) 1.09303(17) 0.43486(15)
H9 H 0.1449 1.1799 0.4412
C14 C 0.26333(18) 1.01257(16) 0.51413(14)
H10 H 0.3068 1.0444 0.5752
C15 C 0.24395(17) 0.76779(15) 0.81973(14)
C16 C 0.16822(18) 0.66501(16) 0.79791(15)
H11 H 0.2078 0.6176 0.7423
C17 C 0.03515(19) 0.63238(16) 0.85768(16)
H12 H -0.0168 0.5624 0.8431
C18 C -0.02230(18) 0.70217(17) 0.93903(15)
H13 H -0.1128 0.6788 0.9809
C19 C 0.05155(18) 0.80553(17) 0.95931(15)
H14 H 0.0108 0.8535 1.0141
C20 C 0.18546(18) 0.83965(16) 0.89972(15)
H15 H 0.2362 0.9107 0.9133
C21 C 0.50274(18) 0.93937(16) 0.76818(15)
H16 H 0.5666 0.9761 0.6975
H17 H 0.4242 1.0059 0.7750
C22 C 0.59445(19) 0.90879(17) 0.88163(16)
H18 H 0.6825 0.8527 0.8715
H19 H 0.6276 0.9900 0.8985
O1 O 0.50210(14) 0.84341(13) 0.97749(11)
H20 H 0.5526 0.8141 1.0392
P2 P 0.26453(5) 0.30359(4) 0.74738(4)
F1 F 0.23466(14) 0.17192(11) 0.84920(11)
F2 F 0.29909(13) 0.43369(10) 0.64917(9)
F3 F 0.09822(12) 0.35408(11) 0.76148(10)
F4 F 0.43295(12) 0.25085(11) 0.73653(11)
F5 F 0.22091(14) 0.23584(13) 0.64484(12)
F6 F 0.31130(13) 0.36955(11) 0.85242(9)
loop_
_geom_bond_atom_site_label_1
_geom_bond_atom_site_label_2
_geom_bond_site_symmetry_1
_geom_bond_site_symmetry_2
P1 C1 1_555 1_555
C1 C2 1_555 1_555
C2 H1 1_555 1_555
C3 C2 1_555 1_555
C4 P1 1_555 1_555
C5 C4 1_555 1_555
H2 C5 1_555 1_555
C6 C5 1_555 1_555
H3 C6 1_555 1_555
C7 C6 1_555 1_555
H4 C7 1_555 1_555
C8 C3 1_555 1_555
H5 C8 1_555 1_555
C9 C1 1_555 1_555
C10 C9 1_555 1_555
H6 C10 1_555 1_555
C11 C10 1_555 1_555
H7 C11 1_555 1_555
C12 C11 1_555 1_555
H8 C12 1_555 1_555
C13 C12 1_555 1_555
H9 C13 1_555 1_555
C14 C9 1_555 1_555
H10 C14 1_555 1_555
C15 P1 1_555 1_555
C16 C15 1_555 1_555
H11 C16 1_555 1_555
C17 C16 1_555 1_555
H12 C17 1_555 1_555
C18 C17 1_555 1_555
H13 C18 1_555 1_555
C19 C18 1_555 1_555
H14 C19 1_555 1_555
C20 C15 1_555 1_555
H15 C20 1_555 1_555
C21 P1 1_555 1_555
H16 C21 1_555 1_555
H17 C21 1_555 1_555
C22 C21 1_555 1_555
H18 C22 1_555 1_555
H19 C22 1_555 1_555
O1 C22 1_555 1_555
H20 O1 1_555 1_555
P2 F1 1_555 1_555
F2 P2 1_555 1_555
F3 P2 1_555 1_555
F4 P2 1_555 1_555
F5 P2 1_555 1_555
F6 P2 1_555 1_555
C3 C4 1_555 1_555
C7 C8 1_555 1_555
C13 C14 1_555 1_555
C19 C20 1_555 1_555

#END
