
#######################################################################
#
#                 Cambridge Crystallographic Data Centre
#                                CCDC 
#
#######################################################################
#
# If this CIF has been generated from an entry in the Cambridge 
# Structural Database, then it will include bibliographic, chemical, 
# crystal, experimental, refinement or atomic coordinate data resulting 
# from the CCDC's data processing and validation procedures.
#
#######################################################################

data_FECFOL
_chemical_name_common            'isonicotinamide bis(3-methoxybenzoic acid)'
_chemical_formula_moiety         'C6 H6 N2 O1,2(C8 H8 O3)'
_chemical_name_systematic        
'pyridine-4-carboxamide bis(3-methoxybenzoic acid)'
_symmetry_cell_setting           triclinic
_symmetry_space_group_name_H-M   'P -1'
_symmetry_Int_Tables_number      2
_space_group_name_Hall           '-P 1'
loop_
_symmetry_equiv_pos_site_id
_symmetry_equiv_pos_as_xyz
1 x,y,z
2 -x,-y,-z
_cell_length_a                   10.443(8)
_cell_length_b                   12.603(11)
_cell_length_c                   17.396(16)
_cell_angle_alpha                110.90(2)
_cell_angle_beta                 98.50(2)
_cell_angle_gamma                90.185(19)
_cell_volume                     2111.52
_exptl_crystal_description       Block
_cell_formula_units_Z            4
loop_
_atom_site_label
_atom_site_type_symbol
_atom_site_fract_x
_atom_site_fract_y
_atom_site_fract_z
O1 O 0.32410(19) 0.48508(17) 0.30691(14)
H1 H 0.3967 0.4902 0.334
O2 O 0.34796(19) 0.67305(17) 0.36092(14)
O3 O -0.0631(2) 0.37947(19) 0.09375(16)
C1 C 0.1723(2) 0.5850(2) 0.25022(17)
C2 C 0.2898(3) 0.5859(2) 0.31126(18)
C3 C 0.1050(3) 0.4840(2) 0.19842(18)
H2 H 0.1323 0.4154 0.2017
C4 C -0.0033(3) 0.4845(3) 0.14155(19)
C5 C 0.1307(3) 0.6870(3) 0.2452(2)
H3 H 0.175 0.7554 0.2799
C6 C -0.0441(3) 0.5868(3) 0.1365(2)
H4 H -0.1162 0.5878 0.0984
C7 C 0.0231(3) 0.6863(3) 0.1884(2)
H5 H -0.0045 0.7549 0.1853
C8 C -0.1703(3) 0.3744(3) 0.0312(2)
H6 H -0.2373 0.4193 0.0567
H7 H -0.2033 0.2969 0.0027
H8 H -0.1425 0.4037 -0.008
O4 O 0.9182(2) 1.01500(17) 0.69394(14)
H9 H 0.9753 1.0098 0.6653
O5 O 0.9162(2) 0.82748(17) 0.64109(14)
O6 O 0.6415(3) 1.1219(2) 0.90916(16)
C9 C 0.7956(2) 0.9159(2) 0.75161(17)
C10 C 0.8826(3) 0.9141(2) 0.69056(18)
C11 C 0.7552(3) 1.0171(2) 0.80383(18)
H10 H 0.7816 1.0857 0.8006
C12 C 0.6757(3) 1.0168(3) 0.8609(2)
C13 C 0.7560(3) 0.8138(3) 0.7570(2)
H11 H 0.783 0.7455 0.7225
C14 C 0.6374(3) 0.9146(3) 0.8664(2)
H12 H 0.5856 0.9136 0.9053
C15 C 0.6773(3) 0.8143(3) 0.8133(2)
H13 H 0.6499 0.7456 0.8159
C16 C 0.5629(4) 1.1269(4) 0.9706(2)
H14 H 0.4838 1.081 0.9442
H15 H 0.5429 1.2043 0.9981
H16 H 0.6088 1.0988 1.0107
O7 O 0.1473(2) 0.36899(17) 0.65930(14)
O8 O 0.1903(2) 0.55530(18) 0.70850(15)
O9 O 0.5831(2) 0.63010(18) 0.91658(15)
C17 C 0.3331(2) 0.4429(2) 0.76152(17)
C18 C 0.4082(3) 0.5389(2) 0.81380(18)
H17 H 0.3863 0.6101 0.8131
C19 C 0.5164(3) 0.5294(2) 0.86747(18)
C20 C 0.2170(3) 0.4617(2) 0.70757(18)
C21 C 0.5506(3) 0.4244(3) 0.8676(2)
H18 H 0.6235 0.4179 0.9032
C22 C 0.3668(3) 0.3368(2) 0.76131(19)
H19 H 0.3167 0.2719 0.7258
C23 C 0.4757(3) 0.3278(3) 0.8144(2)
H20 H 0.4987 0.2566 0.8144
C24 C 0.6892(3) 0.6272(3) 0.9776(2)
H21 H 0.6589 0.5958 1.0149
H22 H 0.7261 0.7031 1.0085
H23 H 0.7539 0.5808 0.9504
H24 H 0.088(2) 0.388(3) 0.6316(19)
O10 O 0.93244(19) 0.40163(16) 0.56692(13)
N1 N 0.5442(2) 0.4982(2) 0.40763(15)
N2 N 0.9607(2) 0.5914(2) 0.61282(16)
H25 H 1.0313 0.5929 0.6457
H26 H 0.9313 0.6538 0.6101
C25 C 0.7717(2) 0.4997(2) 0.51075(16)
C26 C 0.8982(3) 0.4947(2) 0.56722(18)
C27 C 0.6054(3) 0.5959(2) 0.45469(19)
H27 H 0.5715 0.6631 0.4527
C28 C 0.5889(3) 0.4018(2) 0.40885(19)
H28 H 0.5431 0.3339 0.3748
C29 C 0.7062(3) 0.3987(2) 0.46126(18)
H29 H 0.7373 0.3299 0.4618
C30 C 0.7238(3) 0.6001(2) 0.50914(19)
H30 H 0.7672 0.6694 0.5427
O11 O 0.5656(2) 0.13104(17) 0.34116(14)
H31 H 0.5137 0.1141 0.3665
O12 O 0.5838(2) -0.05525(18) 0.29223(15)
O13 O 0.8773(2) -0.12962(18) 0.08675(15)
C31 C 0.7013(2) 0.0569(2) 0.23976(17)
C32 C 0.7513(3) -0.0386(2) 0.18819(18)
H32 H 0.7295 -0.1098 0.1889
C33 C 0.6114(3) 0.0386(2) 0.29335(18)
C34 C 0.8337(3) -0.0292(2) 0.13535(18)
C35 C 0.8674(3) 0.0767(3) 0.1347(2)
H33 H 0.9231 0.0836 0.0995
C36 C 0.7343(3) 0.1635(2) 0.2394(2)
H34 H 0.7006 0.2281 0.2741
C37 C 0.8171(3) 0.1728(3) 0.1875(2)
H35 H 0.8399 0.2442 0.1875
C38 C 0.9490(4) -0.1267(3) 0.0241(2)
H36 H 0.8972 -0.0973 -0.0133
H37 H 0.9714 -0.2023 -0.0064
H38 H 1.0266 -0.0786 0.0496
O14 O 0.3962(2) 1.09831(16) 0.43320(14)
N3 N 0.0889(2) 1.0019(2) 0.59321(15)
N4 N 0.4038(2) 0.9087(2) 0.38890(16)
H39 H 0.4583 0.9072 0.356
H40 H 0.3763 0.8463 0.3922
C39 C 0.2646(2) 1.0006(2) 0.49031(16)
C40 C 0.3630(3) 1.0050(2) 0.43344(18)
C41 C 0.1328(3) 1.0981(2) 0.59196(19)
H41 H 0.1037 1.1658 0.6259
C42 C 0.1256(3) 0.9043(2) 0.54617(19)
H42 H 0.0916 0.8371 0.5479
C43 C 0.2179(3) 0.9001(2) 0.4918(2)
H43 H 0.2451 0.831 0.4585
C44 C 0.2249(3) 1.1017(2) 0.53956(19)
H44 H 0.2564 1.1705 0.5391
loop_
_geom_bond_atom_site_label_1
_geom_bond_atom_site_label_2
_geom_bond_site_symmetry_1
_geom_bond_site_symmetry_2
O1 H1 1_555 1_555
O2 C2 1_555 1_555
O3 C4 1_555 1_555
C1 C2 1_555 1_555
C2 O1 1_555 1_555
C3 C1 1_555 1_555
H2 C3 1_555 1_555
C4 C3 1_555 1_555
C5 C1 1_555 1_555
H3 C5 1_555 1_555
C6 C4 1_555 1_555
H4 C6 1_555 1_555
C7 C5 1_555 1_555
H5 C7 1_555 1_555
C8 O3 1_555 1_555
H6 C8 1_555 1_555
H7 C8 1_555 1_555
H8 C8 1_555 1_555
O4 H9 1_555 1_555
O5 C10 1_555 1_555
O6 C12 1_555 1_555
C9 C10 1_555 1_555
C10 O4 1_555 1_555
C11 C9 1_555 1_555
H10 C11 1_555 1_555
C12 C11 1_555 1_555
C13 C9 1_555 1_555
H11 C13 1_555 1_555
C14 C12 1_555 1_555
H12 C14 1_555 1_555
C15 C13 1_555 1_555
H13 C15 1_555 1_555
C16 O6 1_555 1_555
H14 C16 1_555 1_555
H15 C16 1_555 1_555
H16 C16 1_555 1_555
O7 C20 1_555 1_555
O8 C20 1_555 1_555
O9 C19 1_555 1_555
C17 C18 1_555 1_555
C18 H17 1_555 1_555
C19 C18 1_555 1_555
C20 C17 1_555 1_555
C21 C19 1_555 1_555
H18 C21 1_555 1_555
C22 C17 1_555 1_555
H19 C22 1_555 1_555
C23 C21 1_555 1_555
H20 C23 1_555 1_555
C24 O9 1_555 1_555
H21 C24 1_555 1_555
H22 C24 1_555 1_555
H23 C24 1_555 1_555
H24 O7 1_555 1_555
O10 C26 1_555 1_555
N1 C27 1_555 1_555
N2 H25 1_555 1_555
H26 N2 1_555 1_555
C25 C26 1_555 1_555
C26 N2 1_555 1_555
C27 H27 1_555 1_555
C28 N1 1_555 1_555
H28 C28 1_555 1_555
C29 C25 1_555 1_555
H29 C29 1_555 1_555
C30 C25 1_555 1_555
H30 C30 1_555 1_555
O11 H31 1_555 1_555
O12 C33 1_555 1_555
O13 C34 1_555 1_555
C31 C32 1_555 1_555
C32 H32 1_555 1_555
C33 O11 1_555 1_555
C34 C32 1_555 1_555
C35 C34 1_555 1_555
H33 C35 1_555 1_555
C36 C31 1_555 1_555
H34 C36 1_555 1_555
C37 C35 1_555 1_555
H35 C37 1_555 1_555
C38 O13 1_555 1_555
H36 C38 1_555 1_555
H37 C38 1_555 1_555
H38 C38 1_555 1_555
O14 C40 1_555 1_555
N3 C41 1_555 1_555
N4 H39 1_555 1_555
H40 N4 1_555 1_555
C39 C40 1_555 1_555
C40 N4 1_555 1_555
C41 H41 1_555 1_555
C42 N3 1_555 1_555
H42 C42 1_555 1_555
C43 C39 1_555 1_555
H43 C43 1_555 1_555
C44 C39 1_555 1_555
H44 C44 1_555 1_555
C6 C7 1_555 1_555
C14 C15 1_555 1_555
C22 C23 1_555 1_555
C27 C30 1_555 1_555
C28 C29 1_555 1_555
C31 C33 1_555 1_555
C36 C37 1_555 1_555
C41 C44 1_555 1_555
C42 C43 1_555 1_555

#END
