
#######################################################################
#
#                 Cambridge Crystallographic Data Centre
#                                CCDC 
#
#######################################################################
#
# If this CIF has been generated from an entry in the Cambridge 
# Structural Database, then it will include bibliographic, chemical, 
# crystal, experimental, refinement or atomic coordinate data resulting 
# from the CCDC's data processing and validation procedures.
#
#######################################################################

data_FECGOM
_chemical_name_common            'nicotinamide m-toluic acid'
_chemical_formula_moiety         'C6 H6 N2 O1,2(C8 H8 O2)'
_chemical_name_systematic        
'pyridine-3-carboxamide bis(3-methylbenzoic acid)'
_symmetry_cell_setting           monoclinic
_symmetry_space_group_name_H-M   'P 21/n'
_symmetry_Int_Tables_number      14
_space_group_name_Hall           '-P 2yn'
loop_
_symmetry_equiv_pos_site_id
_symmetry_equiv_pos_as_xyz
1 x,y,z
2 1/2-x,1/2+y,1/2-z
3 -x,-y,-z
4 1/2+x,1/2-y,1/2+z
_cell_length_a                   10.878(3)
_cell_length_b                   12.704(4)
_cell_length_c                   15.328(5)
_cell_angle_alpha                90
_cell_angle_beta                 107.034(9)
_cell_angle_gamma                90
_cell_volume                     2025.31
_exptl_crystal_colour            colorless
_exptl_crystal_description       Plate/Block
_cell_formula_units_Z            4
loop_
_atom_site_label
_atom_site_type_symbol
_atom_site_fract_x
_atom_site_fract_y
_atom_site_fract_z
C1 C 0.6845(3) 0.3627(3) 0.8125(2)
H1 H 0.6843 0.2902 0.8038
N1 N 0.7117(3) 0.3979(2) 0.8976(2)
C2 C 0.7122(4) 0.5028(3) 0.9090(3)
H2 H 0.7301 0.5293 0.968
C3 C 0.6874(4) 0.5726(3) 0.8376(3)
H3 H 0.6905 0.6447 0.8486
C4 C 0.6578(3) 0.5348(3) 0.7492(3)
H4 H 0.6394 0.581 0.7
C5 C 0.6562(3) 0.4263(3) 0.7353(2)
C6 C 0.6245(3) 0.3766(3) 0.6442(2)
N2 N 0.6182(3) 0.4349(2) 0.5718(2)
H5 H 0.5995 0.4063 0.5186
H6 H 0.6327 0.5014 0.5777
O1 O 0.6039(3) 0.27972(19) 0.63779(16)
C7 C 0.7942(4) 0.0193(3) 0.1333(3)
H7 H 0.7758 -0.0178 0.0787
C8 C 0.8146(4) -0.0340(3) 0.2145(3)
H8 H 0.8103 -0.1072 0.2145
C9 C 0.8413(4) 0.0200(3) 0.2955(3)
H9 H 0.8534 -0.0171 0.3496
C10 C 0.8506(4) 0.1288(3) 0.2981(3)
C11 C 0.8284(4) 0.1815(3) 0.2152(3)
H10 H 0.8319 0.2546 0.2151
C12 C 0.8011(3) 0.1280(3) 0.1330(2)
C13 C 0.7784(4) 0.1844(3) 0.0450(3)
O2 O 0.7620(3) 0.2874(2) 0.05091(17)
H11 H 0.7558 0.315 0.0014
O3 O 0.7723(3) 0.1419(2) -0.02730(19)
C14 C 0.8823(5) 0.1884(4) 0.3869(3)
H12 H 0.9424 0.2435 0.3863
H13 H 0.9195 0.1412 0.4365
H14 H 0.8052 0.2185 0.3946
C15 C 0.5090(4) 0.0224(3) 0.3500(3)
H15 H 0.5196 -0.0054 0.4079
C16 C 0.4853(4) -0.0430(3) 0.2753(3)
H16 H 0.4817 -0.1154 0.2832
C17 C 0.4669(4) -0.0026(3) 0.1889(3)
H17 H 0.4491 -0.048 0.1392
C18 C 0.4746(4) 0.1048(3) 0.1753(2)
C19 C 0.4998(3) 0.1698(3) 0.2506(2)
H18 H 0.5055 0.242 0.2426
C20 C 0.5168(3) 0.1308(3) 0.3380(2)
C21 C 0.5399(4) 0.2054(3) 0.4153(2)
O4 O 0.5490(3) 0.3002(2) 0.40730(17)
O5 O 0.5498(3) 0.16017(19) 0.49427(16)
H19 H 0.5651 0.205 0.5346
C22 C 0.4551(4) 0.1491(3) 0.0806(3)
H20 H 0.3661 0.1668 0.0542
H21 H 0.4799 0.0975 0.0433
H22 H 0.5068 0.2111 0.0843
loop_
_geom_bond_atom_site_label_1
_geom_bond_atom_site_label_2
_geom_bond_site_symmetry_1
_geom_bond_site_symmetry_2
C1 H1 1_555 1_555
N1 C1 1_555 1_555
C2 N1 1_555 1_555
H2 C2 1_555 1_555
C3 C2 1_555 1_555
H3 C3 1_555 1_555
C4 C3 1_555 1_555
H4 C4 1_555 1_555
C5 C1 1_555 1_555
C6 C5 1_555 1_555
N2 C6 1_555 1_555
H5 N2 1_555 1_555
H6 N2 1_555 1_555
O1 C6 1_555 1_555
C7 H7 1_555 1_555
C8 C7 1_555 1_555
H8 C8 1_555 1_555
C9 C8 1_555 1_555
H9 C9 1_555 1_555
C10 C9 1_555 1_555
C11 C10 1_555 1_555
H10 C11 1_555 1_555
C12 C7 1_555 1_555
C13 C12 1_555 1_555
O2 C13 1_555 1_555
H11 O2 1_555 1_555
O3 C13 1_555 1_555
C14 C10 1_555 1_555
H12 C14 1_555 1_555
H13 C14 1_555 1_555
H14 C14 1_555 1_555
C15 H15 1_555 1_555
C16 C15 1_555 1_555
H16 C16 1_555 1_555
C17 C16 1_555 1_555
H17 C17 1_555 1_555
C18 C17 1_555 1_555
C19 C18 1_555 1_555
H18 C19 1_555 1_555
C20 C15 1_555 1_555
C21 C20 1_555 1_555
O4 C21 1_555 1_555
O5 C21 1_555 1_555
H19 O5 1_555 1_555
C22 C18 1_555 1_555
H20 C22 1_555 1_555
H21 C22 1_555 1_555
H22 C22 1_555 1_555
C4 C5 1_555 1_555
C11 C12 1_555 1_555
C19 C20 1_555 1_555

#END
