
#######################################################################
#
#                 Cambridge Crystallographic Data Centre
#                                CCDC 
#
#######################################################################
#
# If this CIF has been generated from an entry in the Cambridge 
# Structural Database, then it will include bibliographic, chemical, 
# crystal, experimental, refinement or atomic coordinate data resulting 
# from the CCDC's data processing and validation procedures.
#
#######################################################################

data_FECGAY
_chemical_name_common            'isonicotinamide 2-aminobenzoic acid'
_chemical_formula_moiety         'C6 H6 N2 O1,C7 H7 N1 O2'
_chemical_name_systematic        'pyridine-4-carboxamide 2-aminobenzoic acid'
_symmetry_cell_setting           monoclinic
_symmetry_space_group_name_H-M   'P 21/c'
_symmetry_Int_Tables_number      14
_space_group_name_Hall           '-P 2ybc'
loop_
_symmetry_equiv_pos_site_id
_symmetry_equiv_pos_as_xyz
1 x,y,z
2 -x,1/2+y,1/2-z
3 -x,-y,-z
4 x,1/2-y,1/2+z
_cell_length_a                   12.516(5)
_cell_length_b                   10.899(4)
_cell_length_c                   9.306(3)
_cell_angle_alpha                90
_cell_angle_beta                 95.296(12)
_cell_angle_gamma                90
_cell_volume                     1264.03
_exptl_crystal_colour            orange
_exptl_crystal_description       Plate
_cell_formula_units_Z            4
loop_
_atom_site_label
_atom_site_type_symbol
_atom_site_fract_x
_atom_site_fract_y
_atom_site_fract_z
N1 N 0.1780(4) 0.7002(3) 0.6405(4)
H1 H 0.205 0.7187 0.5616
H2 H 0.1736 0.755 0.7062
C1 C 0.1419(4) 0.5837(4) 0.6614(4)
C2 C 0.0996(4) 0.5536(4) 0.7934(4)
H3 H 0.0957 0.6138 0.8636
C3 C 0.0648(4) 0.4378(5) 0.8187(4)
H4 H 0.0376 0.42 0.906
C4 C 0.0692(4) 0.3463(4) 0.7162(5)
H5 H 0.0445 0.2677 0.7337
C5 C 0.1108(4) 0.3734(4) 0.5881(4)
H6 H 0.1148 0.3117 0.5198
C6 C 0.1469(4) 0.4903(4) 0.5577(4)
C7 C 0.1958(4) 0.5146(4) 0.4210(4)
O1 O 0.2177(3) 0.6166(3) 0.3790(3)
O2 O 0.2132(3) 0.4140(3) 0.3479(3)
H7 H 0.2337 0.4318 0.2711
C8 C 0.6392(4) 0.6378(4) 0.1146(4)
H8 H 0.6294 0.707 0.1704
C9 C 0.6819(4) 0.6487(4) -0.0166(4)
H9 H 0.7037 0.7257 -0.0458
N2 N 0.6930(4) 0.5523(4) -0.1030(3)
C10 C 0.6637(4) 0.4430(4) -0.0585(4)
H10 H 0.6715 0.3757 -0.118
C11 C 0.6220(4) 0.4244(4) 0.0722(4)
H11 H 0.6015 0.3465 0.0997
C12 C 0.6116(4) 0.5249(4) 0.1615(4)
C13 C 0.5615(4) 0.5175(4) 0.3045(4)
O3 O 0.5130(6) 0.6078(6) 0.3469(7)
N3 N 0.5715(10) 0.4118(7) 0.3732(11)
H12 H 0.5433 0.402 0.4533
H13 H 0.6062 0.3525 0.338
O4? O 0.5600(15) 0.6040(13) 0.3866(17)
N4? N 0.534(2) 0.4058(13) 0.343(3)
H14? H 0.5143 0.3929 0.4274
H15? H 0.5357 0.346 0.2825
loop_
_geom_bond_atom_site_label_1
_geom_bond_atom_site_label_2
_geom_bond_site_symmetry_1
_geom_bond_site_symmetry_2
N1 H1 1_555 1_555
H2 N1 1_555 1_555
C1 N1 1_555 1_555
C2 C1 1_555 1_555
H3 C2 1_555 1_555
C3 C2 1_555 1_555
H4 C3 1_555 1_555
C4 C3 1_555 1_555
H5 C4 1_555 1_555
C5 C4 1_555 1_555
H6 C5 1_555 1_555
C6 C1 1_555 1_555
C7 C6 1_555 1_555
O1 C7 1_555 1_555
O2 C7 1_555 1_555
H7 O2 1_555 1_555
C8 H8 1_555 1_555
C9 C8 1_555 1_555
H9 C9 1_555 1_555
N2 C9 1_555 1_555
C10 N2 1_555 1_555
H10 C10 1_555 1_555
C11 C10 1_555 1_555
H11 C11 1_555 1_555
C12 C8 1_555 1_555
C13 C12 1_555 1_555
O3 C13 1_555 1_555
N3 C13 1_555 1_555
H12 N3 1_555 1_555
H13 N3 1_555 1_555
C5 C6 1_555 1_555
C11 C12 1_555 1_555

#END
