
#######################################################################
#
#                 Cambridge Crystallographic Data Centre
#                                CCDC 
#
#######################################################################
#
# If this CIF has been generated from an entry in the Cambridge 
# Structural Database, then it will include bibliographic, chemical, 
# crystal, experimental, refinement or atomic coordinate data resulting 
# from the CCDC's data processing and validation procedures.
#
#######################################################################

data_FECJOP
_chemical_formula_moiety         'C15 H17 N1 O3 S1'
_chemical_name_systematic        
'4a-(phenylethynyl)octahydro-3,2,1-benzoxathiazine 2,2-dioxide'
_symmetry_cell_setting           monoclinic
_symmetry_space_group_name_H-M   'P 21/c'
_symmetry_Int_Tables_number      14
_space_group_name_Hall           '-P 2ybc'
loop_
_symmetry_equiv_pos_site_id
_symmetry_equiv_pos_as_xyz
1 x,y,z
2 -x,1/2+y,1/2-z
3 -x,-y,-z
4 x,1/2-y,1/2+z
_cell_length_a                   8.7197(19)
_cell_length_b                   18.932(4)
_cell_length_c                   8.9238(19)
_cell_angle_alpha                90
_cell_angle_beta                 101.498(4)
_cell_angle_gamma                90
_cell_volume                     1443.59
_exptl_crystal_colour            colorless
_exptl_crystal_description       block
_cell_formula_units_Z            4
loop_
_atom_site_label
_atom_site_type_symbol
_atom_site_fract_x
_atom_site_fract_y
_atom_site_fract_z
S1 S 0.80811(8) 0.55205(3) 0.32741(8)
O1 O 0.6615(2) 0.52647(9) 0.3912(2)
O2 O 0.9030(2) 0.49086(9) 0.3250(2)
O3 O 0.7549(2) 0.59066(10) 0.1903(2)
N1 N 0.8980(2) 0.60604(11) 0.4552(3)
H1 H 0.961(3) 0.5812(15) 0.538(3)
C1 C 0.5616(3) 0.58513(13) 0.4234(3)
H2 H 0.4684 0.5659 0.4568
H3 H 0.5254 0.6128 0.3288
C2 C 0.6521(3) 0.63362(12) 0.5487(3)
C3 C 0.6993(3) 0.59381(13) 0.7023(3)
H4 H 0.6038 0.5780 0.7368
H5 H 0.7608 0.5513 0.6873
C4 C 0.7963(3) 0.64056(14) 0.8254(3)
H6 H 0.7305 0.6799 0.8494
H7 H 0.8303 0.6125 0.9198
C5 C 0.9394(3) 0.67043(14) 0.7743(3)
H8 H 1.0127 0.6314 0.7655
H9 H 0.9935 0.7037 0.8530
C6 C 0.8971(3) 0.70862(14) 0.6217(3)
H10 H 0.8388 0.7523 0.6353
H11 H 0.9945 0.7226 0.5885
C7 C 0.7984(3) 0.66374(12) 0.4974(3)
H12 H 0.7628 0.6941 0.4053
C8 C 0.5480(3) 0.69321(13) 0.5639(3)
C9 C 0.4673(3) 0.74274(13) 0.5754(3)
C10 C 0.3697(3) 0.80274(13) 0.5910(3)
C11 C 0.2649(3) 0.79933(14) 0.6896(3)
H13 H 0.2580 0.7575 0.7468
C12 C 0.1708(3) 0.85636(16) 0.7047(4)
H14 H 0.0980 0.8535 0.7708
C13 C 0.1822(3) 0.91756(16) 0.6238(4)
H15 H 0.1166 0.9566 0.6337
C14 C 0.2880(4) 0.92236(15) 0.5288(4)
H16 H 0.2969 0.9651 0.4753
C15 C 0.3819(3) 0.86510(14) 0.5108(3)
H17 H 0.4540 0.8683 0.4441
loop_
_geom_bond_atom_site_label_1
_geom_bond_atom_site_label_2
_geom_bond_site_symmetry_1
_geom_bond_site_symmetry_2
S1 O1 1_555 1_555
O1 C1 1_555 1_555
O2 S1 1_555 1_555
O3 S1 1_555 1_555
N1 S1 1_555 1_555
H1 N1 1_555 1_555
C1 H2 1_555 1_555
H3 C1 1_555 1_555
C2 C1 1_555 1_555
C3 C2 1_555 1_555
H4 C3 1_555 1_555
H5 C3 1_555 1_555
C4 C3 1_555 1_555
H6 C4 1_555 1_555
H7 C4 1_555 1_555
C5 C4 1_555 1_555
H8 C5 1_555 1_555
H9 C5 1_555 1_555
C6 C5 1_555 1_555
H10 C6 1_555 1_555
H11 C6 1_555 1_555
C7 N1 1_555 1_555
H12 C7 1_555 1_555
C8 C2 1_555 1_555
C9 C8 1_555 1_555
C10 C9 1_555 1_555
C11 C10 1_555 1_555
H13 C11 1_555 1_555
C12 C11 1_555 1_555
H14 C12 1_555 1_555
C13 C12 1_555 1_555
H15 C13 1_555 1_555
C14 C13 1_555 1_555
H16 C14 1_555 1_555
C15 C10 1_555 1_555
H17 C15 1_555 1_555
C2 C7 1_555 1_555
C6 C7 1_555 1_555
C14 C15 1_555 1_555

#END
