
#######################################################################
#
#                 Cambridge Crystallographic Data Centre
#                                CCDC 
#
#######################################################################
#
# If this CIF has been generated from an entry in the Cambridge 
# Structural Database, then it will include bibliographic, chemical, 
# crystal, experimental, refinement or atomic coordinate data resulting 
# from the CCDC's data processing and validation procedures.
#
#######################################################################

data_FECLUV
_chemical_formula_moiety         'C17 H21 N1 O5'
_chemical_name_systematic        
'Ethyl 1-(\a-nitromethylbenzyl)-2-oxocyclohexanecarboxylate'
_symmetry_cell_setting           orthorhombic
_symmetry_space_group_name_H-M   'P 21 21 21'
_symmetry_Int_Tables_number      19
_space_group_name_Hall           'P 2ac 2ab'
loop_
_symmetry_equiv_pos_site_id
_symmetry_equiv_pos_as_xyz
1 x,y,z
2 1/2+x,1/2-y,-z
3 -x,1/2+y,1/2-z
4 1/2-x,-y,1/2+z
_cell_length_a                   8.590(5)
_cell_length_b                   9.982(6)
_cell_length_c                   19.217(7)
_cell_angle_alpha                90
_cell_angle_beta                 90
_cell_angle_gamma                90
_cell_volume                     1647.77
_exptl_crystal_colour            colorless
_exptl_crystal_description       prism
_cell_formula_units_Z            4
_exptl_crystal_recrystallization_method 'hexane/ethyl acetate'
loop_
_atom_site_label
_atom_site_type_symbol
_atom_site_fract_x
_atom_site_fract_y
_atom_site_fract_z
C1 C -0.1594(9) 0.1143(6) -0.1400(3)
C2 C -0.2767(9) -0.0066(7) -0.1382(4)
C3 C -0.2980(10) -0.0664(7) -0.0651(4)
C4 C -0.3821(11) -0.0043(8) -0.0133(4)
C5 C -0.3890(13) -0.0599(9) 0.0524(4)
C6 C -0.3100(15) -0.1786(10) 0.0673(4)
C7 C -0.2306(14) -0.2407(9) 0.0160(4)
C8 C -0.2185(13) -0.1857(9) -0.0496(4)
C9 C -0.4372(10) 0.0284(9) -0.1696(5)
C10 C -0.1283(11) 0.1521(7) -0.2160(4)
C11 C -0.0081(14) 0.2664(10) -0.2235(4)
C12 C 0.1450(12) 0.2208(12) -0.1924(6)
C13 C 0.1262(11) 0.1788(9) -0.1174(5)
C14 C -0.0008(11) 0.0726(8) -0.1103(4)
C15 C -0.2187(12) 0.2336(8) -0.0986(4)
C16 C -0.428(4) 0.4033(15) -0.0957(9)
C17 C -0.374(4) 0.514(3) -0.1255(14)
N1 N -0.5325(10) -0.0984(9) -0.1852(3)
O1 O -0.4598(10) -0.1954(8) -0.2045(5)
O2 O -0.6658(9) -0.0885(9) -0.1812(5)
O3 O -0.1666(8) 0.0856(6) -0.2642(3)
O4 O -0.1832(11) 0.2660(6) -0.0426(3)
O5 O -0.3355(11) 0.2942(6) -0.1339(4)
H1 H -0.2333 -0.0752 -0.1664
H2 H -0.4355 0.0770 -0.0228
H3 H -0.4481 -0.0169 0.0877
H4 H -0.3121 -0.2152 0.1130
H5 H -0.1819 -0.3242 0.0253
H6 H -0.1567 -0.2283 -0.0842
H7 H -0.4221 0.0768 -0.2116
H8 H -0.4931 0.0823 -0.1374
H9 H 0.0060 0.2870 -0.2714
H10 H -0.0442 0.3437 -0.1996
H11 H 0.2175 0.2925 -0.1948
H12 H 0.1832 0.1470 -0.2185
H13 H 0.0987 0.2548 -0.0903
H14 H 0.2219 0.1431 -0.1010
H15 H 0.0326 -0.0058 -0.1340
H16 H -0.0138 0.0531 -0.0622
H17 H -0.4937 0.3582 -0.0637
H19 H -0.5365 0.3936 -0.1031
H21 H -0.4234 0.5895 -0.1057
H22 H -0.3946 0.5106 -0.1740
H23 H -0.2646 0.5195 -0.1181
C18? C -0.503(6) 0.476(5) -0.124(2)
H18? H -0.3535 0.4552 -0.0708
H20? H -0.4066 0.4025 -0.0472
H24? H -0.5504 0.5356 -0.0920
H25? H -0.5815 0.4289 -0.1491
H26? H -0.4413 0.5259 -0.1561
loop_
_geom_bond_atom_site_label_1
_geom_bond_atom_site_label_2
_geom_bond_site_symmetry_1
_geom_bond_site_symmetry_2
C1 C2 1_555 1_555
C2 C3 1_555 1_555
C3 C4 1_555 1_555
C4 C5 1_555 1_555
C5 C6 1_555 1_555
C6 C7 1_555 1_555
C7 C8 1_555 1_555
C8 C3 1_555 1_555
C9 C2 1_555 1_555
C10 C1 1_555 1_555
C11 C10 1_555 1_555
C12 C11 1_555 1_555
C13 C12 1_555 1_555
C14 C1 1_555 1_555
C15 C1 1_555 1_555
C16 C17 1_555 1_555
C17 H21 1_555 1_555
N1 C9 1_555 1_555
O1 N1 1_555 1_555
O2 N1 1_555 1_555
O3 C10 1_555 1_555
O4 C15 1_555 1_555
O5 C15 1_555 1_555
H1 C2 1_555 1_555
H2 C4 1_555 1_555
H3 C5 1_555 1_555
H4 C6 1_555 1_555
H5 C7 1_555 1_555
H6 C8 1_555 1_555
H7 C9 1_555 1_555
H8 C9 1_555 1_555
H9 C11 1_555 1_555
H10 C11 1_555 1_555
H11 C12 1_555 1_555
H12 C12 1_555 1_555
H13 C13 1_555 1_555
H14 C13 1_555 1_555
H15 C14 1_555 1_555
H16 C14 1_555 1_555
H17 C16 1_555 1_555
H19 C16 1_555 1_555
H22 C17 1_555 1_555
H23 C17 1_555 1_555
C13 C14 1_555 1_555
C16 O5 1_555 1_555

#END
