
#######################################################################
#
#                 Cambridge Crystallographic Data Centre
#                                CCDC 
#
#######################################################################
#
# If this CIF has been generated from an entry in the Cambridge 
# Structural Database, then it will include bibliographic, chemical, 
# crystal, experimental, refinement or atomic coordinate data resulting 
# from the CCDC's data processing and validation procedures.
#
#######################################################################

data_FECMAC
_chemical_formula_moiety         'C14 H14 Cl1 N1 O5'
_chemical_name_systematic        
3-Acetyl-3-(4-chloro-\a-nitromethylbenzyl)-tetrahydrofuran-2-one
_symmetry_cell_setting           monoclinic
_symmetry_space_group_name_H-M   'P 21'
_symmetry_Int_Tables_number      4
_space_group_name_Hall           'P 2yb'
loop_
_symmetry_equiv_pos_site_id
_symmetry_equiv_pos_as_xyz
1 x,y,z
2 -x,1/2+y,-z
_cell_length_a                   9.4067(13)
_cell_length_b                   6.624(3)
_cell_length_c                   11.9832(12)
_cell_angle_alpha                90
_cell_angle_beta                 104.760(10)
_cell_angle_gamma                90
_cell_volume                     722.034
_exptl_crystal_colour            colorless
_exptl_crystal_description       needle
_cell_formula_units_Z            2
_exptl_crystal_recrystallization_method 'hexane/ethyl acetate'
loop_
_atom_site_label
_atom_site_type_symbol
_atom_site_fract_x
_atom_site_fract_y
_atom_site_fract_z
C1 C 1.0657(3) 0.2177(5) 0.7267(2)
C2 C 0.9022(3) 0.2164(5) 0.6556(2)
C3 C 0.7995(3) 0.1178(5) 0.7192(2)
C4 C 0.7711(4) 0.2024(6) 0.8177(3)
C5 C 0.6834(4) 0.1048(7) 0.8770(3)
C6 C 0.6211(3) -0.0770(6) 0.8363(3)
C7 C 0.6415(3) -0.1605(6) 0.7368(3)
C8 C 0.7319(3) -0.0616(6) 0.6796(2)
C9 C 0.8490(4) 0.4287(6) 0.6144(3)
C10 C 1.1166(4) 0.0077(6) 0.7759(3)
C11 C 1.1196(5) 0.0242(8) 0.9036(4)
C12 C 1.0872(4) 0.3485(6) 0.8338(3)
C13 C 1.1675(3) 0.2904(6) 0.6522(2)
C14 C 1.3212(4) 0.3492(9) 0.7108(4)
Cl1 Cl 0.51393(10) -0.2036(2) 0.91274(9)
N1 N 0.7094(4) 0.4099(6) 0.5204(3)
O1 O 1.1191(3) 0.2368(5) 0.9304(2)
O2 O 1.0768(3) 0.5286(5) 0.8374(2)
O3 O 1.1237(3) 0.2934(5) 0.54851(19)
O4 O 0.7156(4) 0.3278(7) 0.4320(2)
O5 O 0.5985(4) 0.4820(8) 0.5368(4)
H1 H 0.8977 0.1376 0.5885
H2 H 0.8128 0.3295 0.8446
H3 H 0.6664 0.1625 0.9450
H4 H 0.5945 -0.2836 0.7077
H5 H 0.7477 -0.1194 0.6112
H6 H 0.8310 0.5039 0.6769
H7 H 0.9216 0.4952 0.5855
H8 H 1.2117 -0.0225 0.7666
H9 H 1.0493 -0.0936 0.7392
H10 H 1.2060 -0.0378 0.9494
H11 H 1.0355 -0.0395 0.9177
H12 H 1.3706 0.3904 0.6547
H13 H 1.3710 0.2370 0.7526
H14 H 1.3199 0.4575 0.7625
loop_
_geom_bond_atom_site_label_1
_geom_bond_atom_site_label_2
_geom_bond_site_symmetry_1
_geom_bond_site_symmetry_2
C1 C2 1_555 1_555
C2 C3 1_555 1_555
C3 C4 1_555 1_555
C4 C5 1_555 1_555
C5 C6 1_555 1_555
C6 C7 1_555 1_555
C7 C8 1_555 1_555
C8 C3 1_555 1_555
C9 C2 1_555 1_555
C10 C1 1_555 1_555
C11 C10 1_555 1_555
C12 C1 1_555 1_555
C13 C1 1_555 1_555
C14 C13 1_555 1_555
Cl1 C6 1_555 1_555
N1 C9 1_555 1_555
O1 C11 1_555 1_555
O2 C12 1_555 1_555
O3 C13 1_555 1_555
O4 N1 1_555 1_555
O5 N1 1_555 1_555
H1 C2 1_555 1_555
H2 C4 1_555 1_555
H3 C5 1_555 1_555
H4 C7 1_555 1_555
H5 C8 1_555 1_555
H6 C9 1_555 1_555
H7 C9 1_555 1_555
H8 C10 1_555 1_555
H9 C10 1_555 1_555
H10 C11 1_555 1_555
H11 C11 1_555 1_555
H12 C14 1_555 1_555
H13 C14 1_555 1_555
H14 C14 1_555 1_555
C12 O1 1_555 1_555

#END
