
#######################################################################
#
#                 Cambridge Crystallographic Data Centre
#                                CCDC 
#
#######################################################################
#
# If this CIF has been generated from an entry in the Cambridge 
# Structural Database, then it will include bibliographic, chemical, 
# crystal, experimental, refinement or atomic coordinate data resulting 
# from the CCDC's data processing and validation procedures.
#
#######################################################################

data_FECPAF
_chemical_formula_moiety         'C28 H52 P2 2+,2(F6 P1 1-)'
_chemical_name_systematic        
'1,1,4,4-tetrakis(Cyclohexyl)-1,4-diphosphoniacyclohexane hexafluorophosphate'
_symmetry_cell_setting           monoclinic
_symmetry_space_group_name_H-M   'P 21/c'
_symmetry_Int_Tables_number      14
_space_group_name_Hall           '-P 2ybc'
loop_
_symmetry_equiv_pos_site_id
_symmetry_equiv_pos_as_xyz
1 x,y,z
2 -x,1/2+y,1/2-z
3 -x,-y,-z
4 x,1/2-y,1/2+z
_cell_length_a                   7.934(7)
_cell_length_b                   12.17(2)
_cell_length_c                   17.83(4)
_cell_angle_alpha                90
_cell_angle_beta                 100.60(14)
_cell_angle_gamma                90
_cell_volume                     1692.23
_exptl_crystal_colour            colorless
_chemical_melting_point          355-357deg.C
_cell_formula_units_Z            2
_exptl_crystal_recrystallization_method 'diethyl ether/hexane/acetone'
loop_
_atom_site_label
_atom_site_type_symbol
_atom_site_fract_x
_atom_site_fract_y
_atom_site_fract_z
P1 P 0.92101(9) 0.60934(5) 0.44316(4)
C1 C 0.9960(4) 0.5838(2) 0.35484(16)
H1 H 1.0870 0.5262 0.3662
C2 C 0.8578(4) 0.5380(3) 0.29089(17)
H2 H 0.8058 0.4714 0.3091
H3 H 0.7663 0.5933 0.2762
C3 C 0.9375(5) 0.5094(3) 0.22237(19)
H4 H 0.8468 0.4834 0.1804
H5 H 1.0208 0.4489 0.2361
C4 C 1.0287(5) 0.6083(3) 0.19505(18)
H6 H 1.0851 0.5854 0.1525
H7 H 0.9430 0.6655 0.1756
C5 C 1.1618(4) 0.6561(3) 0.25865(19)
H8 H 1.2126 0.7227 0.2400
H9 H 1.2548 0.6019 0.2741
C6 C 1.0814(5) 0.6855(2) 0.32709(18)
H10 H 0.9947 0.7440 0.3128
H11 H 1.1708 0.7138 0.3688
C7 C 0.7895(4) 0.7310(2) 0.44711(16)
H12 H 0.7449 0.7243 0.4958
C8 C 0.8893(4) 0.8403(2) 0.4536(2)
H13 H 0.9889 0.8361 0.4960
H14 H 0.9323 0.8546 0.4058
C9 C 0.7696(4) 0.9339(2) 0.4684(2)
H15 H 0.7325 0.9213 0.5177
H16 H 0.8328 1.0045 0.4718
C10 C 0.6140(4) 0.9412(2) 0.40571(19)
H17 H 0.6503 0.9595 0.3570
H18 H 0.5379 1.0007 0.4175
C11 C 0.5156(4) 0.8326(2) 0.3972(2)
H19 H 0.4188 0.8379 0.3535
H20 H 0.4674 0.8191 0.4438
C12 C 0.6308(4) 0.7358(2) 0.38435(17)
H21 H 0.5658 0.6663 0.3838
H22 H 0.6662 0.7439 0.3342
C13 C 0.7959(4) 0.4933(2) 0.46555(16)
H23 H 0.7479 0.5115 0.5115
H24 H 0.6982 0.4824 0.4229
C14 C 1.1043(4) 0.6164(2) 0.51997(16)
H25 H 1.0648 0.6384 0.5673
H26 H 1.1832 0.6742 0.5080
P1B P 1.07899(9) 0.39066(5) 0.55684(4)
C1B C 1.0040(4) 0.4162(2) 0.64516(16)
H1B H 0.9130 0.4738 0.6338
C2B C 1.1422(4) 0.4620(3) 0.70911(17)
H2B H 1.1942 0.5286 0.6909
H3B H 1.2337 0.4067 0.7238
C3B C 1.0625(5) 0.4906(3) 0.77763(19)
H4B H 1.1532 0.5166 0.8196
H5B H 0.9792 0.5511 0.7639
C4B C 0.9713(5) 0.3917(3) 0.80495(18)
H6B H 0.9149 0.4146 0.8475
H7B H 1.0570 0.3345 0.8244
C5B C 0.8382(4) 0.3439(3) 0.74135(19)
H8B H 0.7874 0.2773 0.7600
H9B H 0.7452 0.3981 0.7259
C6B C 0.9186(5) 0.3145(2) 0.67291(18)
H10B H 1.0053 0.2560 0.6872
H11B H 0.8292 0.2862 0.6312
C7B C 1.2105(4) 0.2690(2) 0.55289(16)
H12B H 1.2551 0.2757 0.5042
C8B C 1.1107(4) 0.1597(2) 0.5464(2)
H13B H 1.0111 0.1639 0.5040
H14B H 1.0677 0.1454 0.5942
C9B C 1.2304(4) 0.0661(2) 0.5316(2)
H15B H 1.2675 0.0787 0.4823
H16B H 1.1672 -0.0045 0.5282
C10B C 1.3860(4) 0.0588(2) 0.59429(19)
H17B H 1.3497 0.0405 0.6430
H18B H 1.4621 -0.0007 0.5825
C11B C 1.4844(4) 0.1674(2) 0.6028(2)
H19B H 1.5812 0.1621 0.6465
H20B H 1.5326 0.1809 0.5562
C12B C 1.3692(4) 0.2642(2) 0.61565(17)
H21B H 1.4342 0.3337 0.6162
H22B H 1.3338 0.2561 0.6658
C13B C 1.2041(4) 0.5067(2) 0.53445(16)
H23B H 1.2521 0.4885 0.4885
H24B H 1.3018 0.5176 0.5771
C14B C 0.8957(4) 0.3836(2) 0.48003(16)
H25B H 0.9352 0.3616 0.4327
H26B H 0.8168 0.3258 0.4920
P2 P 0.59708(10) 0.66637(6) 0.64215(4)
F1 F 0.5119(3) 0.67527(18) 0.55493(11)
F2 F 0.4116(3) 0.66863(17) 0.66398(12)
F3 F 0.6863(3) 0.6529(2) 0.72835(11)
F4 F 0.7847(2) 0.66023(14) 0.61995(10)
F5 F 0.6116(3) 0.79503(17) 0.64855(17)
F6 F 0.5843(3) 0.53523(15) 0.63434(12)
loop_
_geom_bond_atom_site_label_1
_geom_bond_atom_site_label_2
_geom_bond_site_symmetry_1
_geom_bond_site_symmetry_2
P1 C1 1_555 1_555
C1 H1 1_555 1_555
C2 C1 1_555 1_555
H2 C2 1_555 1_555
H3 C2 1_555 1_555
C3 C2 1_555 1_555
H4 C3 1_555 1_555
H5 C3 1_555 1_555
C4 C3 1_555 1_555
H6 C4 1_555 1_555
H7 C4 1_555 1_555
C5 C4 1_555 1_555
H8 C5 1_555 1_555
H9 C5 1_555 1_555
C6 C1 1_555 1_555
H10 C6 1_555 1_555
H11 C6 1_555 1_555
C7 P1 1_555 1_555
H12 C7 1_555 1_555
C8 C7 1_555 1_555
H13 C8 1_555 1_555
H14 C8 1_555 1_555
C9 C8 1_555 1_555
H15 C9 1_555 1_555
H16 C9 1_555 1_555
C10 C9 1_555 1_555
H17 C10 1_555 1_555
H18 C10 1_555 1_555
C11 C10 1_555 1_555
H19 C11 1_555 1_555
H20 C11 1_555 1_555
C12 C7 1_555 1_555
H21 C12 1_555 1_555
H22 C12 1_555 1_555
C13 P1 1_555 1_555
H23 C13 1_555 1_555
H24 C13 1_555 1_555
C14 P1 1_555 1_555
H25 C14 1_555 1_555
H26 C14 1_555 1_555
P2 F1 1_555 1_555
F2 P2 1_555 1_555
F3 P2 1_555 1_555
F4 P2 1_555 1_555
F5 P2 1_555 1_555
F6 P2 1_555 1_555
P1B C1B 1_555 1_555
C1B H1B 1_555 1_555
C2B C1B 1_555 1_555
H2B C2B 1_555 1_555
H3B C2B 1_555 1_555
C3B C2B 1_555 1_555
H4B C3B 1_555 1_555
H5B C3B 1_555 1_555
C4B C3B 1_555 1_555
H6B C4B 1_555 1_555
H7B C4B 1_555 1_555
C5B C4B 1_555 1_555
H8B C5B 1_555 1_555
H9B C5B 1_555 1_555
C6B C1B 1_555 1_555
H10B C6B 1_555 1_555
H11B C6B 1_555 1_555
C7B P1B 1_555 1_555
H12B C7B 1_555 1_555
C8B C7B 1_555 1_555
H13B C8B 1_555 1_555
H14B C8B 1_555 1_555
C9B C8B 1_555 1_555
H15B C9B 1_555 1_555
H16B C9B 1_555 1_555
C10B C9B 1_555 1_555
H17B C10B 1_555 1_555
H18B C10B 1_555 1_555
C11B C10B 1_555 1_555
H19B C11B 1_555 1_555
H20B C11B 1_555 1_555
C12B C7B 1_555 1_555
H21B C12B 1_555 1_555
H22B C12B 1_555 1_555
C13B C14 1_555 1_555
H23B C13B 1_555 1_555
H24B C13B 1_555 1_555
C14B C13 1_555 1_555
H25B C14B 1_555 1_555
H26B C14B 1_555 1_555
C5 C6 1_555 1_555
C11 C12 1_555 1_555
P1B C13B 1_555 1_555
P1B C14B 1_555 1_555
C5B C6B 1_555 1_555
C11B C12B 1_555 1_555

#END
