
#######################################################################
#
#                 Cambridge Crystallographic Data Centre
#                                CCDC 
#
#######################################################################
#
# If this CIF has been generated from an entry in the Cambridge 
# Structural Database, then it will include bibliographic, chemical, 
# crystal, experimental, refinement or atomic coordinate data resulting 
# from the CCDC's data processing and validation procedures.
#
#######################################################################

data_FECVIV
_chemical_formula_moiety         'C25 H23 N1 O2'
_chemical_name_systematic        
N-ethyl-5-(3-methoxyphenyl)-3,3-diphenylfuran-2(3H)-imine
_symmetry_cell_setting           orthorhombic
_symmetry_space_group_name_H-M   'P 21 21 21'
_symmetry_Int_Tables_number      19
_space_group_name_Hall           'P 2ac 2ab'
loop_
_symmetry_equiv_pos_site_id
_symmetry_equiv_pos_as_xyz
1 x,y,z
2 1/2-x,-y,1/2+z
3 1/2+x,1/2-y,-z
4 -x,1/2+y,1/2-z
_cell_length_a                   8.9205(7)
_cell_length_b                   9.2312(6)
_cell_length_c                   24.273(2)
_cell_angle_alpha                90
_cell_angle_beta                 90
_cell_angle_gamma                90
_cell_volume                     1998.81
_exptl_crystal_colour            colorless
_exptl_crystal_description       prismatic
_cell_formula_units_Z            4
loop_
_atom_site_label
_atom_site_type_symbol
_atom_site_fract_x
_atom_site_fract_y
_atom_site_fract_z
N1 N 0.6072(3) 0.7473(2) 0.34964(8)
O1 O 0.7342(2) 0.60533(16) 0.28586(6)
O2 O 1.0715(2) 0.57080(18) 0.12198(7)
C1 C 0.6679(3) 0.6303(2) 0.33701(9)
C2 C 0.6808(3) 0.4920(2) 0.37256(9)
C3 C 0.7623(3) 0.3953(3) 0.33263(10)
H1 H 0.7922 0.3009 0.3403
C4 C 0.7856(3) 0.4621(2) 0.28544(10)
C5 C 0.8557(3) 0.4143(3) 0.23352(9)
C6 C 0.9292(3) 0.5123(3) 0.19997(9)
H2 H 0.9324 0.6097 0.2096
C7 C 0.9986(3) 0.4652(3) 0.15165(10)
C8 C 0.9913(3) 0.3219(3) 0.13661(11)
H3 H 1.0362 0.2901 0.1042
C9 C 0.9163(4) 0.2257(3) 0.17031(12)
H4 H 0.9114 0.1286 0.1602
C10 C 0.8485(3) 0.2697(3) 0.21846(11)
H5 H 0.7986 0.2031 0.2406
C11 C 1.1385(4) 0.5298(4) 0.07105(11)
H6 H 1.2124 0.4561 0.0776
H7 H 1.1856 0.6126 0.0546
H8 H 1.0628 0.4929 0.0467
C12 C 0.6013(4) 0.8618(3) 0.30748(11)
H9 H 0.5505 0.8252 0.2750
H10 H 0.7025 0.8885 0.2970
C13 C 0.5206(4) 0.9928(3) 0.32829(13)
H11 H 0.4220 0.9657 0.3403
H12 H 0.5128 1.0630 0.2993
H13 H 0.5751 1.0337 0.3586
C14 C 0.7691(3) 0.5265(2) 0.42498(9)
C15 C 0.9175(3) 0.4843(3) 0.43097(11)
H14 H 0.9625 0.4286 0.4037
C16 C 0.9993(4) 0.5236(3) 0.47688(13)
H15 H 1.0989 0.4949 0.4801
C17 C 0.9346(5) 0.6048(3) 0.51789(13)
H16 H 0.9897 0.6307 0.5489
C18 C 0.7877(5) 0.6474(3) 0.51281(12)
H17 H 0.7433 0.7025 0.5405
C19 C 0.7051(4) 0.6088(3) 0.46670(11)
H18 H 0.6058 0.6383 0.4637
C20 C 0.5262(3) 0.4256(2) 0.38368(10)
C21 C 0.5004(3) 0.3370(3) 0.42901(11)
H19 H 0.5745 0.3270 0.4557
C22 C 0.3666(3) 0.2637(3) 0.43498(12)
H20 H 0.3507 0.2060 0.4658
C23 C 0.2571(4) 0.2755(3) 0.39577(14)
H21 H 0.1679 0.2244 0.3996
C24 C 0.2796(4) 0.3629(3) 0.35086(14)
H22 H 0.2049 0.3721 0.3244
C25 C 0.4121(3) 0.4371(3) 0.34479(12)
H23 H 0.4258 0.4961 0.3141
loop_
_geom_bond_atom_site_label_1
_geom_bond_atom_site_label_2
_geom_bond_site_symmetry_1
_geom_bond_site_symmetry_2
N1 C1 1_555 1_555
O1 C1 1_555 1_555
O2 C7 1_555 1_555
C1 C2 1_555 1_555
C2 C3 1_555 1_555
C3 H1 1_555 1_555
C4 O1 1_555 1_555
C5 C4 1_555 1_555
C6 C5 1_555 1_555
H2 C6 1_555 1_555
C7 C6 1_555 1_555
C8 C7 1_555 1_555
H3 C8 1_555 1_555
C9 C8 1_555 1_555
H4 C9 1_555 1_555
C10 C5 1_555 1_555
H5 C10 1_555 1_555
C11 O2 1_555 1_555
H6 C11 1_555 1_555
H7 C11 1_555 1_555
H8 C11 1_555 1_555
C12 N1 1_555 1_555
H9 C12 1_555 1_555
H10 C12 1_555 1_555
C13 C12 1_555 1_555
H11 C13 1_555 1_555
H12 C13 1_555 1_555
H13 C13 1_555 1_555
C14 C2 1_555 1_555
C15 C14 1_555 1_555
H14 C15 1_555 1_555
C16 C15 1_555 1_555
H15 C16 1_555 1_555
C17 C16 1_555 1_555
H16 C17 1_555 1_555
C18 C17 1_555 1_555
H17 C18 1_555 1_555
C19 C14 1_555 1_555
H18 C19 1_555 1_555
C20 C2 1_555 1_555
C21 C20 1_555 1_555
H19 C21 1_555 1_555
C22 C21 1_555 1_555
H20 C22 1_555 1_555
C23 C22 1_555 1_555
H21 C23 1_555 1_555
C24 C23 1_555 1_555
H22 C24 1_555 1_555
C25 C20 1_555 1_555
H23 C25 1_555 1_555
C3 C4 1_555 1_555
C9 C10 1_555 1_555
C18 C19 1_555 1_555
C24 C25 1_555 1_555

#END
