
#######################################################################
#
#                 Cambridge Crystallographic Data Centre
#                                CCDC 
#
#######################################################################
#
# If this CIF has been generated from an entry in the Cambridge 
# Structural Database, then it will include bibliographic, chemical, 
# crystal, experimental, refinement or atomic coordinate data resulting 
# from the CCDC's data processing and validation procedures.
#
#######################################################################

data_FEDBIA
_chemical_formula_moiety         'C10 H15 N1 O3'
_chemical_name_systematic        
(3S,3aR,7aR)-3-Ethyltetrahydro-7a-methylfuro(3,2-b)pyridine-2,5(3H,4H)-dione
_symmetry_cell_setting           orthorhombic
_symmetry_space_group_name_H-M   'C 2 2 21'
_symmetry_Int_Tables_number      20
_space_group_name_Hall           'C 2n 2'
loop_
_symmetry_equiv_pos_site_id
_symmetry_equiv_pos_as_xyz
1 x,y,z
2 -x,-y,1/2+z
3 -x,y,1/2-z
4 x,-y,-z
5 1/2+x,1/2+y,z
6 1/2-x,1/2-y,1/2+z
7 1/2-x,1/2+y,1/2-z
8 1/2+x,1/2-y,-z
_cell_length_a                   10.6675(4)
_cell_length_b                   11.0586(5)
_cell_length_c                   16.5092(7)
_cell_angle_alpha                90
_cell_angle_beta                 90
_cell_angle_gamma                90
_cell_volume                     1947.55
_exptl_crystal_colour            colorless
_exptl_crystal_description       plate
_cell_formula_units_Z            8
_exptl_crystal_recrystallization_method 'hexanes/ethyl acetate (3:1)'
loop_
_atom_site_label
_atom_site_type_symbol
_atom_site_fract_x
_atom_site_fract_y
_atom_site_fract_z
C1 C 0.76427(10) 0.35731(8) 0.70314(5)
H1 H 0.8308 0.3139 0.7344
N1 N 0.64797(9) 0.28692(8) 0.70317(5)
H2 H 0.6197(16) 0.2675(13) 0.7491(10)
C2 C 0.57794(11) 0.25309(9) 0.63907(7)
O1 O 0.47544(8) 0.20347(8) 0.64885(6)
C3 C 0.62966(12) 0.27624(12) 0.55556(7)
H3 H 0.5896 0.3497 0.5331
H4 H 0.6075 0.2074 0.5200
C4 C 0.77056(11) 0.29295(10) 0.55460(6)
H5 H 0.8119 0.2147 0.5663
H6 H 0.7974 0.3196 0.5001
C5 C 0.81082(10) 0.38568(8) 0.61680(6)
O2 O 0.74612(7) 0.49932(6) 0.59629(4)
C6 C 0.70604(10) 0.55663(9) 0.66342(6)
O3 O 0.64926(9) 0.65024(7) 0.66009(5)
C7 C 0.74417(10) 0.48551(8) 0.73804(5)
H7 H 0.8281 0.5164 0.7554
C8 C 0.95144(11) 0.40784(10) 0.61523(8)
H8 H 0.9759 0.4383 0.5618
H9 H 0.9956 0.3319 0.6262
H10 H 0.9735 0.4676 0.6567
C9 C 0.65579(10) 0.49995(10) 0.80965(6)
H11 H 0.5760 0.4580 0.7975
H12 H 0.6369 0.5869 0.8171
C10 C 0.70969(13) 0.44949(11) 0.88839(7)
H13 H 0.7293 0.3635 0.8813
H14 H 0.6481 0.4589 0.9320
H15 H 0.7863 0.4936 0.9024
loop_
_geom_bond_atom_site_label_1
_geom_bond_atom_site_label_2
_geom_bond_site_symmetry_1
_geom_bond_site_symmetry_2
C1 H1 1_555 1_555
N1 C1 1_555 1_555
H2 N1 1_555 1_555
C2 N1 1_555 1_555
O1 C2 1_555 1_555
C3 C2 1_555 1_555
H3 C3 1_555 1_555
H4 C3 1_555 1_555
C4 C3 1_555 1_555
H5 C4 1_555 1_555
H6 C4 1_555 1_555
C5 C1 1_555 1_555
O2 C5 1_555 1_555
C6 O2 1_555 1_555
O3 C6 1_555 1_555
C7 C1 1_555 1_555
H7 C7 1_555 1_555
C8 C5 1_555 1_555
H8 C8 1_555 1_555
H9 C8 1_555 1_555
H10 C8 1_555 1_555
C9 C7 1_555 1_555
H11 C9 1_555 1_555
H12 C9 1_555 1_555
C10 C9 1_555 1_555
H13 C10 1_555 1_555
H14 C10 1_555 1_555
H15 C10 1_555 1_555
C4 C5 1_555 1_555
C6 C7 1_555 1_555

#END
