
#######################################################################
#
#                 Cambridge Crystallographic Data Centre
#                                CCDC 
#
#######################################################################
#
# If this CIF has been generated from an entry in the Cambridge 
# Structural Database, then it will include bibliographic, chemical, 
# crystal, experimental, refinement or atomic coordinate data resulting 
# from the CCDC's data processing and validation procedures.
#
#######################################################################

data_FEDCUO
_chemical_formula_moiety         'C3 N5 O7 1-,C2 H4 N3 1+'
_chemical_name_systematic        
'1H-1,2,4-Triazol-4-ium 3,4,5-trinitro-1H-pyrazol-1-olate'
_symmetry_cell_setting           orthorhombic
_symmetry_space_group_name_H-M   'P 21 21 21'
_symmetry_Int_Tables_number      19
_space_group_name_Hall           'P 2ac 2ab'
loop_
_symmetry_equiv_pos_site_id
_symmetry_equiv_pos_as_xyz
1 x,y,z
2 1/2-x,-y,1/2+z
3 1/2+x,1/2-y,-z
4 -x,1/2+y,1/2-z
_cell_length_a                   6.9627(2)
_cell_length_b                   9.7861(3)
_cell_length_c                   15.4356(5)
_cell_angle_alpha                90
_cell_angle_beta                 90
_cell_angle_gamma                90
_cell_volume                     1051.75
_exptl_crystal_colour            yellow
_exptl_crystal_description       irregular
_cell_formula_units_Z            4
loop_
_atom_site_label
_atom_site_type_symbol
_atom_site_fract_x
_atom_site_fract_y
_atom_site_fract_z
N1 N -1.0981(2) -0.66287(18) -0.32024(11)
N2 N -1.1623(3) -0.78784(18) -0.30643(11)
C1 C -1.0420(3) -0.8696(2) -0.35061(12)
C2 C -0.9000(3) -0.7978(2) -0.39215(13)
C3 C -0.9384(3) -0.6623(2) -0.37199(13)
O1 O -1.1842(2) -0.55961(15) -0.28448(9)
N3 N -1.0748(3) -1.01444(19) -0.34927(11)
O2 O -1.2087(2) -1.05751(16) -0.30548(10)
O3 O -0.9649(2) -1.08580(15) -0.39228(10)
N4 N -0.7428(2) -0.85036(17) -0.44506(11)
O4 O -0.5852(2) -0.85972(17) -0.41088(11)
O5 O -0.7799(2) -0.88213(18) -0.51948(10)
N5 N -0.8474(3) -0.54163(18) -0.40412(12)
O6 O -0.7029(2) -0.56117(17) -0.44874(13)
O7 O -0.9163(2) -0.43012(15) -0.38745(10)
N6 N -1.0207(3) -1.31942(19) -0.57977(11)
N7 N -1.0767(2) -1.29413(19) -0.66311(11)
H1 H -1.1676 -1.3396 -0.6902
C4 C -0.9785(3) -1.1939(2) -0.69760(13)
H2 H -0.9930 -1.1584 -0.7545
N8 N -0.8551(3) -1.15147(18) -0.63820(12)
H3 H -0.7707 -1.0851 -0.6437
C5 C -0.8843(3) -1.2305(2) -0.56696(13)
H4 H -0.8141 -1.2219 -0.5145
loop_
_geom_bond_atom_site_label_1
_geom_bond_atom_site_label_2
_geom_bond_site_symmetry_1
_geom_bond_site_symmetry_2
N1 N2 1_555 1_555
N2 C1 1_555 1_555
C1 C2 1_555 1_555
C2 C3 1_555 1_555
C3 N1 1_555 1_555
O1 N1 1_555 1_555
N3 C1 1_555 1_555
O2 N3 1_555 1_555
O3 N3 1_555 1_555
N4 C2 1_555 1_555
O4 N4 1_555 1_555
O5 N4 1_555 1_555
N5 C3 1_555 1_555
O6 N5 1_555 1_555
O7 N5 1_555 1_555
N6 N7 1_555 1_555
N7 H1 1_555 1_555
C4 N7 1_555 1_555
H2 C4 1_555 1_555
N8 C4 1_555 1_555
H3 N8 1_555 1_555
C5 N6 1_555 1_555
H4 C5 1_555 1_555
N8 C5 1_555 1_555

#END
