
#######################################################################
#
#                 Cambridge Crystallographic Data Centre
#                                CCDC 
#
#######################################################################
#
# If this CIF has been generated from an entry in the Cambridge 
# Structural Database, then it will include bibliographic, chemical, 
# crystal, experimental, refinement or atomic coordinate data resulting 
# from the CCDC's data processing and validation procedures.
#
#######################################################################

data_FEDFEC
_chemical_name_common            
'Janusarene J1 bis(perylene) clathrate dichloromethane solvate'
_chemical_formula_moiety         'C126 H102 O12,2(C20 H12),2(C1 H2 Cl2)'
_chemical_name_systematic        
"hexakis(4,4''-dimethoxy-1,3':5',1''-terphenyl-1'-yl)benzene bis(perylene) clathrate dichloromethane solvate"
_symmetry_cell_setting           monoclinic
_symmetry_space_group_name_H-M   'C 2/c'
_symmetry_Int_Tables_number      15
_space_group_name_Hall           '-C 2yn'
loop_
_symmetry_equiv_pos_site_id
_symmetry_equiv_pos_as_xyz
1 x,y,z
2 -x,y,1/2-z
3 1/2+x,1/2+y,z
4 1/2-x,1/2+y,1/2-z
5 -x,-y,-z
6 x,-y,1/2+z
7 1/2-x,1/2-y,-z
8 1/2+x,1/2-y,1/2+z
_cell_length_a                   33.3215(15)
_cell_length_b                   13.7330(4)
_cell_length_c                   32.2199(14)
_cell_angle_alpha                90
_cell_angle_beta                 118.155(6)
_cell_angle_gamma                90
_cell_volume                     12999.4
_exptl_crystal_colour            yellow
_exptl_crystal_description       plate
_cell_formula_units_Z            4
loop_
_atom_site_label
_atom_site_type_symbol
_atom_site_fract_x
_atom_site_fract_y
_atom_site_fract_z
Cl1 Cl 0.43494(9) 1.09976(19) 0.72770(8)
Cl2 Cl 0.43990(7) 1.29754(16) 0.74888(11)
C1 C 0.4204(2) 1.2130(8) 0.7052(3)
H1 H 0.3875 1.2177 0.6871
H2 H 0.4331 1.2256 0.6841
O1 O 0.25524(8) -0.14375(14) 0.74404(7)
C3 C 0.26893(6) 0.26894(14) 0.54854(6)
C4 C 0.27852(6) 0.24182(14) 0.47923(6)
C5 C 0.28706(6) 0.27643(14) 0.60087(6)
C6 C 0.29735(6) 0.26193(14) 0.52765(6)
C7 C 0.34802(6) 0.27247(15) 0.55580(6)
C8 C 0.30923(6) 0.23266(15) 0.45718(6)
C9 C 0.28265(7) 0.19509(15) 0.62379(6)
H5 H 0.2720 0.1373 0.6071
C10 C 0.33496(6) 0.31181(16) 0.45669(7)
H6 H 0.3324 0.3707 0.4695
C11 C 0.31310(7) 0.14494(16) 0.43795(7)
H7 H 0.2956 0.0920 0.4378
C12 C 0.29375(7) 0.19738(15) 0.67123(6)
C13 C 0.30439(6) 0.36164(15) 0.62642(6)
H8 H 0.3075 0.4166 0.6113
C14 C 0.36464(7) 0.30461(16) 0.43735(7)
C15 C 0.41473(7) 0.37395(17) 0.59992(7)
C16 C 0.36741(6) 0.36178(16) 0.57537(6)
H9 H 0.3486 0.4144 0.5721
C17 C 0.31721(7) 0.36605(16) 0.67460(7)
C18 C 0.28498(8) 0.10990(16) 0.69309(7)
C19 C 0.37628(7) 0.19516(16) 0.56021(7)
H10 H 0.3635 0.1353 0.5472
O2 O 0.38235(9) 0.71396(17) 0.77814(9)
C20 C 0.42357(7) 0.20491(17) 0.58378(7)
C21 C 0.34279(7) 0.13481(17) 0.41880(7)
C22 C 0.33531(8) 0.45796(17) 0.70117(7)
O3 O 0.48370(8) 0.73327(18) 0.69090(9)
C23 C 0.31152(8) 0.28325(16) 0.69611(7)
H11 H 0.3198 0.2853 0.7280
C24 C 0.43395(7) 0.46964(18) 0.62133(8)
C25 C 0.44200(7) 0.29395(18) 0.60371(8)
H12 H 0.4735 0.3006 0.6201
C26 C 0.36779(7) 0.21569(17) 0.41871(8)
H13 H 0.3873 0.2100 0.4057
C27 C 0.39190(7) 0.38970(17) 0.43715(9)
C28 C 0.24311(8) 0.06256(17) 0.66996(8)
H14 H 0.2208 0.0875 0.6416
C29 C 0.31682(9) 0.07143(18) 0.73567(7)
H15 H 0.3447 0.1026 0.7524
O4 O 0.47122(10) 0.6220(2) 0.43308(12)
C30 C 0.26700(10) -0.05904(18) 0.73002(9)
C31 C 0.30815(10) -0.01281(19) 0.75413(8)
H16 H 0.3302 -0.0377 0.7827
C32 C 0.36362(8) 0.51858(18) 0.69295(9)
H17 H 0.3718 0.5017 0.6700
C33 C 0.41215(8) 0.5557(2) 0.60173(9)
H18 H 0.3859 0.5538 0.5728
C34 C 0.38034(9) 0.6046(2) 0.71808(10)
H19 H 0.3995 0.6444 0.7119
C35 C 0.23407(10) -0.02008(19) 0.68812(9)
H20 H 0.2057 -0.0499 0.6722
C36 C 0.32396(10) 0.4858(2) 0.73589(8)
H21 H 0.3051 0.4459 0.7425
C37 C 0.42751(9) 0.6447(2) 0.62319(10)
H22 H 0.4116 0.7013 0.6090
C38 C 0.40997(9) 0.4545(2) 0.47440(11)
H23 H 0.4044 0.4454 0.4998
C39 C 0.36857(10) 0.6306(2) 0.75188(10)
C40 C 0.40120(9) 0.4070(2) 0.39998(10)
H24 H 0.3894 0.3648 0.3744
C41 C 0.47386(9) 0.4762(2) 0.66375(10)
H25 H 0.4902 0.4199 0.6777
C42 C 0.46639(10) 0.6490(2) 0.66557(11)
C43 C 0.44480(11) 0.5467(2) 0.43656(15)
C44 C 0.43665(10) 0.5340(2) 0.47445(13)
H26 H 0.4486 0.5774 0.4996
C45 C 0.34014(11) 0.5711(2) 0.76068(10)
H27 H 0.3319 0.5887 0.7835
O5 O 0.5150(4) -0.1505(11) 0.5772(5)
C46 C 0.48960(11) 0.5647(3) 0.68540(12)
H28 H 0.5163 0.5673 0.7139
C47 C 0.42712(12) 0.4841(3) 0.39985(14)
H29 H 0.4326 0.4935 0.3744
C48 C 0.28841(13) -0.1921(2) 0.78443(13)
H30 H 0.3152 -0.2028 0.7811
H31 H 0.2766 -0.2535 0.7879
H32 H 0.2960 -0.1527 0.8118
C49 C 0.40603(13) 0.7849(3) 0.76593(17)
H33 H 0.3891 0.7992 0.7329
H34 H 0.4355 0.7602 0.7729
H35 H 0.4095 0.8432 0.7837
C50 C 0.45790(15) 0.8190(3) 0.67522(17)
H36 H 0.4564 0.8391 0.6460
H37 H 0.4719 0.8694 0.6983
H38 H 0.4277 0.8072 0.6707
C51 C 0.48705(16) 0.6904(3) 0.4673(2)
H39 H 0.5060 0.7355 0.4618
H40 H 0.5045 0.6595 0.4973
H41 H 0.4619 0.7246 0.4672
O6 O 0.3472(3) -0.2219(6) 0.3285(2)
C52 C 0.3943(3) -0.2590(7) 0.3369(3)
H42 H 0.3905 -0.3167 0.3186
H43 H 0.4128 -0.2738 0.3697
H44 H 0.4089 -0.2096 0.3277
C53 C 0.4396(4) 0.0670(10) 0.5405(3)
H45 H 0.4171 0.0927 0.5125
C54 C 0.4503(3) 0.1125(8) 0.5832(4)
C55 C 0.4840(3) 0.0738(7) 0.6253(3)
H46 H 0.4910 0.1041 0.6537
C56 C 0.5071(3) -0.0104(7) 0.6247(3)
H47 H 0.5296 -0.0362 0.6527
C57 C 0.4964(5) -0.0560(7) 0.5820(4)
C58 C 0.4628(5) -0.0173(9) 0.5399(3)
H48 H 0.4558 -0.0476 0.5115
C59 C 0.5290(6) -0.2079(19) 0.6087(7)
H49 H 0.5333 -0.2698 0.5975
H50 H 0.5075 -0.2146 0.6204
H51 H 0.5576 -0.1855 0.6335
C60 C 0.3056(2) -0.0999(8) 0.3431(3)
H52 H 0.2790 -0.1327 0.3233
C61 C 0.3035(3) -0.0129(9) 0.3643(4)
H53 H 0.2755 0.0123 0.3586
C62 C 0.3435(4) 0.0364(7) 0.3940(4)
C63 C 0.3855(3) -0.0014(6) 0.4026(3)
H54 H 0.4122 0.0314 0.4225
C64 C 0.3876(2) -0.0884(6) 0.3814(2)
H55 H 0.4157 -0.1136 0.3871
C65 C 0.3477(2) -0.1376(6) 0.3516(2)
O1F O 0.24476(8) 0.64375(14) 0.25596(7)
C3F C 0.23107(6) 0.23106(14) 0.45146(6)
C4F C 0.22148(6) 0.25818(14) 0.52077(6)
C5F C 0.21294(6) 0.22357(14) 0.39913(6)
C6F C 0.20265(6) 0.23807(14) 0.47235(6)
C7F C 0.15198(6) 0.22753(15) 0.44420(6)
C8F C 0.19077(6) 0.26734(15) 0.54282(6)
C9F C 0.21735(7) 0.30491(15) 0.37621(6)
H5F H 0.2280 0.3627 0.3929
C10F C 0.16504(6) 0.18819(16) 0.54331(7)
H6F H 0.1676 0.1293 0.5305
C11F C 0.18690(7) 0.35506(16) 0.56205(7)
H7F H 0.2044 0.4080 0.5622
C12F C 0.20625(7) 0.30262(15) 0.32877(6)
C13F C 0.19561(6) 0.13836(15) 0.37358(6)
H8F H 0.1925 0.0834 0.3887
C14F C 0.13536(7) 0.19539(16) 0.56265(7)
C15F C 0.08527(7) 0.12605(17) 0.40008(7)
C16F C 0.13259(6) 0.13822(16) 0.42463(6)
H9F H 0.1514 0.0856 0.4279
C17F C 0.18279(7) 0.13395(16) 0.32540(7)
C18F C 0.21502(8) 0.39010(16) 0.30691(7)
C19F C 0.12372(7) 0.30484(16) 0.43979(7)
H10F H 0.1365 0.3647 0.4528
O2F O 0.11765(9) -0.21396(17) 0.22186(9)
C20F C 0.07643(7) 0.29509(17) 0.41622(7)
C21F C 0.15721(7) 0.36519(17) 0.58120(7)
C22F C 0.16469(8) 0.04204(17) 0.29883(7)
O3F O 0.01630(8) -0.23327(18) 0.30910(9)
C23F C 0.18848(8) 0.21675(16) 0.30389(7)
H11F H 0.1802 0.2147 0.2720
C24F C 0.06605(7) 0.03036(18) 0.37867(8)
C25F C 0.05800(7) 0.20605(18) 0.39629(8)
H12F H 0.0265 0.1994 0.3799
C26F C 0.13221(7) 0.28431(17) 0.58129(8)
H13F H 0.1127 0.2900 0.5943
C27F C 0.10810(7) 0.11030(17) 0.56285(9)
C28F C 0.25689(8) 0.43744(17) 0.33004(8)
H14F H 0.2792 0.4125 0.3584
C29F C 0.18318(9) 0.42857(18) 0.26433(7)
H15F H 0.1553 0.3974 0.2476
O4F O 0.02878(10) -0.1220(2) 0.56692(12)
C30F C 0.23300(10) 0.55904(18) 0.26998(9)
C31F C 0.19185(10) 0.51281(19) 0.24587(8)
H16F H 0.1698 0.5377 0.2173
C32F C 0.13638(8) -0.01858(18) 0.30705(9)
H17F H 0.1282 -0.0017 0.3300
C33F C 0.08785(8) -0.0557(2) 0.39827(9)
H18F H 0.1141 -0.0538 0.4272
C34F C 0.11966(9) -0.1046(2) 0.28192(10)
H19F H 0.1005 -0.1444 0.2881
C35F C 0.26593(10) 0.52008(19) 0.31188(9)
H20F H 0.2943 0.5499 0.3278
C36F C 0.17604(10) 0.0142(2) 0.26411(8)
H21F H 0.1949 0.0541 0.2575
C37F C 0.07249(9) -0.1447(2) 0.37681(10)
H22F H 0.0884 -0.2013 0.3910
C38F C 0.09003(9) 0.0455(2) 0.52560(11)
H23F H 0.0956 0.0546 0.5002
C39F C 0.13143(10) -0.1306(2) 0.24812(10)
C40F C 0.09880(9) 0.0930(2) 0.60002(10)
H24F H 0.1106 0.1352 0.6256
C41F C 0.02614(9) 0.0238(2) 0.33625(10)
H25F H 0.0098 0.0801 0.3223
C42F C 0.03361(10) -0.1490(2) 0.33443(11)
C43F C 0.05520(11) -0.0467(2) 0.56344(15)
C44F C 0.06335(10) -0.0340(2) 0.52555(13)
H26F H 0.0514 -0.0774 0.5004
C45F C 0.15986(11) -0.0711(2) 0.23932(10)
H27F H 0.1681 -0.0887 0.2165
O5F O -0.0150(4) 0.6505(11) 0.4228(5)
C46F C 0.01040(11) -0.0647(3) 0.31460(12)
H28F H -0.0163 -0.0673 0.2861
C47F C 0.07288(12) 0.0159(3) 0.60015(14)
H29F H 0.0674 0.0065 0.6256
C48F C 0.21159(13) 0.6921(2) 0.21557(13)
H30F H 0.1848 0.7028 0.2189
H31F H 0.2234 0.7535 0.2121
H32F H 0.2040 0.6527 0.1882
C49F C 0.09397(13) -0.2849(3) 0.23407(17)
H33F H 0.1109 -0.2992 0.2671
H34F H 0.0645 -0.2602 0.2271
H35F H 0.0905 -0.3432 0.2163
C50F C 0.04210(15) -0.3190(3) 0.32478(17)
H36F H 0.0436 -0.3391 0.3540
H37F H 0.0281 -0.3694 0.3017
H38F H 0.0723 -0.3072 0.3293
C51F C 0.01295(16) -0.1904(3) 0.5327(2)
H39F H -0.0060 -0.2355 0.5382
H40F H -0.0045 -0.1595 0.5027
H41F H 0.0381 -0.2246 0.5328
O6F O 0.1528(3) 0.7219(6) 0.6715(2)
C52F C 0.1057(3) 0.7590(7) 0.6631(3)
H42F H 0.1095 0.8167 0.6814
H43F H 0.0872 0.7738 0.6303
H44F H 0.0911 0.7096 0.6723
C53F C 0.0604(4) 0.4330(10) 0.4595(3)
H45F H 0.0829 0.4073 0.4875
C54F C 0.0497(3) 0.3875(8) 0.4168(4)
C55F C 0.0160(3) 0.4262(7) 0.3747(3)
H46F H 0.0090 0.3959 0.3463
C56F C -0.0071(3) 0.5104(7) 0.3753(3)
H47F H -0.0296 0.5362 0.3473
C57F C 0.0036(5) 0.5560(7) 0.4180(4)
C58F C 0.0372(5) 0.5173(9) 0.4601(3)
H48F H 0.0442 0.5476 0.4885
C59F C -0.0290(6) 0.7079(19) 0.3913(7)
H49F H -0.0333 0.7698 0.4025
H50F H -0.0075 0.7146 0.3796
H51F H -0.0576 0.6855 0.3665
C60F C 0.1944(2) 0.5999(8) 0.6569(3)
H52F H 0.2210 0.6327 0.6767
C61F C 0.1965(3) 0.5129(9) 0.6357(4)
H53F H 0.2245 0.4877 0.6414
C62F C 0.1565(4) 0.4636(7) 0.6060(4)
C63F C 0.1145(3) 0.5014(6) 0.5974(3)
H54F H 0.0878 0.4686 0.5775
C64F C 0.1124(2) 0.5884(6) 0.6186(2)
H55F H 0.0843 0.6136 0.6129
C65F C 0.1523(2) 0.6376(6) 0.6484(2)
C80 C 0.31668(8) 0.79877(16) 0.58794(7)
C81 C 0.28838(8) 0.65180(16) 0.53645(8)
C82 C 0.31022(8) 0.68548(18) 0.51074(7)
C83 C 0.29241(8) 0.70899(17) 0.57683(8)
C84 C 0.33516(8) 0.77411(19) 0.52235(8)
C85 C 0.33787(8) 0.83297(17) 0.56154(8)
C86 C 0.30702(10) 0.6295(2) 0.47188(9)
C87 C 0.31993(10) 0.8556(2) 0.62633(9)
C88 C 0.26380(10) 0.56561(19) 0.52253(11)
H70 H 0.2492 0.5427 0.5390
C89 C 0.28148(14) 0.5439(3) 0.45975(13)
H71 H 0.2789 0.5079 0.4342
C90 C 0.26073(14) 0.5126(2) 0.48386(14)
H72 H 0.2441 0.4550 0.4750
C91 C 0.29940(12) 0.8204(4) 0.65243(11)
H73 H 0.3013 0.8567 0.6776
C92 C 0.36086(12) 0.9206(2) 0.57417(11)
H74 H 0.3749 0.9433 0.5570
C93 C 0.27356(10) 0.6796(3) 0.60434(10)
H75 H 0.2580 0.6206 0.5977
C94 C 0.35592(11) 0.8021(3) 0.49577(10)
H76 H 0.3720 0.8604 0.5027
C95 C 0.34396(13) 0.9450(2) 0.63666(12)
H77 H 0.3460 0.9831 0.6615
C96 C 0.32925(14) 0.6624(4) 0.44692(11)
H78 H 0.3272 0.6263 0.4216
C97 C 0.35327(13) 0.7447(4) 0.45900(12)
H79 H 0.3685 0.7642 0.4425
C98 C 0.36382(15) 0.9755(2) 0.61112(13)
H80 H 0.3797 1.0341 0.6185
C99 C 0.27695(13) 0.7350(4) 0.64190(12)
H81 H 0.2636 0.7131 0.6599
Cl3? Cl 0.4437(12) 1.179(3) 0.7081(10)
Cl4? Cl 0.4262(3) 1.2644(12) 0.7816(4)
C2? C 0.430(2) 1.1570(13) 0.7541(16)
H3? H 0.4016 1.1223 0.7415
H4? H 0.4537 1.1156 0.7774
O7? O 0.3778(4) -0.2140(5) 0.3541(4)
C66? C 0.3531(7) -0.2805(9) 0.3349(4)
H56? H 0.3284 -0.2588 0.3057
H57? H 0.3412 -0.3056 0.3547
H58? H 0.3697 -0.3309 0.3289
C67? C 0.5074(6) -0.2042(12) 0.5659(9)
H59? H 0.5058 -0.1745 0.5382
H60? H 0.4774 -0.2237 0.5599
H61? H 0.5268 -0.2602 0.5743
O8? O 0.5274(2) -0.1277(5) 0.6083(4)
C68? C 0.4425(4) 0.0621(9) 0.5515(3)
H62? H 0.4178 0.0767 0.5224
C69? C 0.4549(3) 0.1260(8) 0.5892(4)
C70? C 0.4919(3) 0.1042(6) 0.6327(3)
H63? H 0.5002 0.1468 0.6579
C71? C 0.5163(3) 0.0184(6) 0.6385(3)
H64? H 0.5410 0.0038 0.6676
C72? C 0.5038(4) -0.0455(7) 0.6008(4)
C73? C 0.4670(4) -0.0237(9) 0.5573(3)
H65? H 0.4587 -0.0663 0.5321
C74? C 0.3680(2) -0.1292(6) 0.3688(3)
C75? C 0.3239(2) -0.1049(8) 0.3593(3)
H66? H 0.2998 -0.1463 0.3412
C76? C 0.3159(3) -0.0185(9) 0.3769(4)
H67? H 0.2864 -0.0022 0.3705
C77? C 0.3519(4) 0.0435(7) 0.4040(4)
C78? C 0.3961(4) 0.0192(7) 0.4135(4)
H68? H 0.4202 0.0605 0.4317
C79? C 0.4042(2) -0.0672(7) 0.3959(3)
H69? H 0.4336 -0.0834 0.4022
loop_
_geom_bond_atom_site_label_1
_geom_bond_atom_site_label_2
_geom_bond_site_symmetry_1
_geom_bond_site_symmetry_2
Cl1 C1 1_555 1_555
Cl2 C1 1_555 1_555
C1 H1 1_555 1_555
H2 C1 1_555 1_555
O1 C30 1_555 1_555
C3 C5 1_555 1_555
C4 C6 1_555 1_555
C5 C9 1_555 1_555
C6 C3 1_555 1_555
C7 C6 1_555 1_555
C8 C4 1_555 1_555
C9 H5 1_555 1_555
C10 C8 1_555 1_555
H6 C10 1_555 1_555
C11 C8 1_555 1_555
H7 C11 1_555 1_555
C12 C9 1_555 1_555
C13 C5 1_555 1_555
H8 C13 1_555 1_555
C14 C10 1_555 1_555
C15 C16 1_555 1_555
C16 C7 1_555 1_555
H9 C16 1_555 1_555
C17 C13 1_555 1_555
C18 C12 1_555 1_555
C19 C7 1_555 1_555
H10 C19 1_555 1_555
O2 C39 1_555 1_555
C20 C19 1_555 1_555
C21 C11 1_555 1_555
C22 C17 1_555 1_555
O3 C42 1_555 1_555
C23 C12 1_555 1_555
H11 C23 1_555 1_555
C24 C15 1_555 1_555
C25 C15 1_555 1_555
H12 C25 1_555 1_555
C26 C14 1_555 1_555
H13 C26 1_555 1_555
C27 C14 1_555 1_555
C28 C18 1_555 1_555
H14 C28 1_555 1_555
C29 C18 1_555 1_555
H15 C29 1_555 1_555
O4 C43 1_555 1_555
C30 C31 1_555 1_555
C31 C29 1_555 1_555
H16 C31 1_555 1_555
C32 C22 1_555 1_555
H17 C32 1_555 1_555
C33 C24 1_555 1_555
H18 C33 1_555 1_555
C34 C32 1_555 1_555
H19 C34 1_555 1_555
C35 C28 1_555 1_555
H20 C35 1_555 1_555
C36 C22 1_555 1_555
H21 C36 1_555 1_555
C37 C33 1_555 1_555
H22 C37 1_555 1_555
C38 C27 1_555 1_555
H23 C38 1_555 1_555
C39 C34 1_555 1_555
C40 C27 1_555 1_555
H24 C40 1_555 1_555
C41 C24 1_555 1_555
H25 C41 1_555 1_555
C42 C37 1_555 1_555
C43 C44 1_555 1_555
C44 C38 1_555 1_555
H26 C44 1_555 1_555
C45 C36 1_555 1_555
H27 C45 1_555 1_555
O5 C57 1_555 1_555
C46 C41 1_555 1_555
H28 C46 1_555 1_555
C47 C40 1_555 1_555
H29 C47 1_555 1_555
C48 O1 1_555 1_555
H30 C48 1_555 1_555
H31 C48 1_555 1_555
H32 C48 1_555 1_555
C49 O2 1_555 1_555
H33 C49 1_555 1_555
H34 C49 1_555 1_555
H35 C49 1_555 1_555
C50 O3 1_555 1_555
H36 C50 1_555 1_555
H37 C50 1_555 1_555
H38 C50 1_555 1_555
C51 O4 1_555 1_555
H39 C51 1_555 1_555
H40 C51 1_555 1_555
H41 C51 1_555 1_555
O6 C52 1_555 1_555
C52 H42 1_555 1_555
H43 C52 1_555 1_555
H44 C52 1_555 1_555
C53 H45 1_555 1_555
C54 C20 1_555 1_555
C55 C54 1_555 1_555
H46 C55 1_555 1_555
C56 C55 1_555 1_555
H47 C56 1_555 1_555
C57 C56 1_555 1_555
C58 C53 1_555 1_555
H48 C58 1_555 1_555
C59 O5 1_555 1_555
H49 C59 1_555 1_555
H50 C59 1_555 1_555
H51 C59 1_555 1_555
C60 H52 1_555 1_555
C61 C60 1_555 1_555
H53 C61 1_555 1_555
C62 C21 1_555 1_555
C63 C62 1_555 1_555
H54 C63 1_555 1_555
C64 C63 1_555 1_555
H55 C64 1_555 1_555
C65 O6 1_555 1_555
C80 C83 1_555 1_555
C81 C82 1_555 1_555
C82 C84 1_555 1_555
C83 C81 1_555 1_555
C84 C85 1_555 1_555
C85 C80 1_555 1_555
C86 C82 1_555 1_555
C87 C80 1_555 1_555
C88 C81 1_555 1_555
H70 C88 1_555 1_555
C89 C86 1_555 1_555
H71 C89 1_555 1_555
C90 C88 1_555 1_555
H72 C90 1_555 1_555
C91 C87 1_555 1_555
H73 C91 1_555 1_555
C92 C85 1_555 1_555
H74 C92 1_555 1_555
C93 C83 1_555 1_555
H75 C93 1_555 1_555
C94 C84 1_555 1_555
H76 C94 1_555 1_555
C95 C87 1_555 1_555
H77 C95 1_555 1_555
C96 C86 1_555 1_555
H78 C96 1_555 1_555
C97 C94 1_555 1_555
H79 C97 1_555 1_555
C98 C92 1_555 1_555
H80 C98 1_555 1_555
C99 C91 1_555 1_555
H81 C99 1_555 1_555
O1F C30F 1_555 1_555
C3F C4 1_555 1_555
C4F C3 1_555 1_555
C5F C3F 1_555 1_555
C6F C3F 1_555 1_555
C7F C6F 1_555 1_555
C8F C4F 1_555 1_555
C9F C5F 1_555 1_555
H5F C9F 1_555 1_555
C10F C8F 1_555 1_555
H6F C10F 1_555 1_555
C11F C8F 1_555 1_555
H7F C11F 1_555 1_555
C12F C9F 1_555 1_555
C13F C5F 1_555 1_555
H8F C13F 1_555 1_555
C14F C10F 1_555 1_555
C15F C16F 1_555 1_555
C16F C7F 1_555 1_555
H9F C16F 1_555 1_555
C17F C13F 1_555 1_555
C18F C12F 1_555 1_555
C19F C7F 1_555 1_555
H10F C19F 1_555 1_555
O2F C39F 1_555 1_555
C20F C19F 1_555 1_555
C21F C11F 1_555 1_555
C22F C17F 1_555 1_555
O3F C42F 1_555 1_555
C23F C12F 1_555 1_555
H11F C23F 1_555 1_555
C24F C15F 1_555 1_555
C25F C15F 1_555 1_555
H12F C25F 1_555 1_555
C26F C14F 1_555 1_555
H13F C26F 1_555 1_555
C27F C14F 1_555 1_555
C28F C18F 1_555 1_555
H14F C28F 1_555 1_555
C29F C18F 1_555 1_555
H15F C29F 1_555 1_555
O4F C43F 1_555 1_555
C30F C31F 1_555 1_555
C31F C29F 1_555 1_555
H16F C31F 1_555 1_555
C32F C22F 1_555 1_555
H17F C32F 1_555 1_555
C33F C24F 1_555 1_555
H18F C33F 1_555 1_555
C34F C32F 1_555 1_555
H19F C34F 1_555 1_555
C35F C28F 1_555 1_555
H20F C35F 1_555 1_555
C36F C22F 1_555 1_555
H21F C36F 1_555 1_555
C37F C33F 1_555 1_555
H22F C37F 1_555 1_555
C38F C27F 1_555 1_555
H23F C38F 1_555 1_555
C39F C34F 1_555 1_555
C40F C27F 1_555 1_555
H24F C40F 1_555 1_555
C41F C24F 1_555 1_555
H25F C41F 1_555 1_555
C42F C37F 1_555 1_555
C43F C44F 1_555 1_555
C44F C38F 1_555 1_555
H26F C44F 1_555 1_555
C45F C36F 1_555 1_555
H27F C45F 1_555 1_555
O5F C57F 1_555 1_555
C46F C41F 1_555 1_555
H28F C46F 1_555 1_555
C47F C40F 1_555 1_555
H29F C47F 1_555 1_555
C48F O1F 1_555 1_555
H30F C48F 1_555 1_555
H31F C48F 1_555 1_555
H32F C48F 1_555 1_555
C49F O2F 1_555 1_555
H33F C49F 1_555 1_555
H34F C49F 1_555 1_555
H35F C49F 1_555 1_555
C50F O3F 1_555 1_555
H36F C50F 1_555 1_555
H37F C50F 1_555 1_555
H38F C50F 1_555 1_555
C51F O4F 1_555 1_555
H39F C51F 1_555 1_555
H40F C51F 1_555 1_555
H41F C51F 1_555 1_555
O6F C52F 1_555 1_555
C52F H42F 1_555 1_555
H43F C52F 1_555 1_555
H44F C52F 1_555 1_555
C53F H45F 1_555 1_555
C54F C20F 1_555 1_555
C55F C54F 1_555 1_555
H46F C55F 1_555 1_555
C56F C55F 1_555 1_555
H47F C56F 1_555 1_555
C57F C56F 1_555 1_555
C58F C53F 1_555 1_555
H48F C58F 1_555 1_555
C59F O5F 1_555 1_555
H49F C59F 1_555 1_555
H50F C59F 1_555 1_555
H51F C59F 1_555 1_555
C60F H52F 1_555 1_555
C61F C60F 1_555 1_555
H53F C61F 1_555 1_555
C62F C21F 1_555 1_555
C63F C62F 1_555 1_555
H54F C63F 1_555 1_555
C64F C63F 1_555 1_555
H55F C64F 1_555 1_555
C65F O6F 1_555 1_555
C17 C23 1_555 1_555
C20 C25 1_555 1_555
C21 C26 1_555 1_555
C30 C35 1_555 1_555
C39 C45 1_555 1_555
C42 C46 1_555 1_555
C43 C47 1_555 1_555
C53 C54 1_555 1_555
C57 C58 1_555 1_555
C60 C65 1_555 1_555
C61 C62 1_555 1_555
C64 C65 1_555 1_555
C89 C90 1_555 1_555
C93 C99 1_555 1_555
C95 C98 1_555 1_555
C96 C97 1_555 1_555
C4F C6F 1_555 1_555
C17F C23F 1_555 1_555
C20F C25F 1_555 1_555
C21F C26F 1_555 1_555
C30F C35F 1_555 1_555
C39F C45F 1_555 1_555
C42F C46F 1_555 1_555
C43F C47F 1_555 1_555
C53F C54F 1_555 1_555
C57F C58F 1_555 1_555
C60F C65F 1_555 1_555
C61F C62F 1_555 1_555
C64F C65F 1_555 1_555

#END
