
#######################################################################
#
#                 Cambridge Crystallographic Data Centre
#                                CCDC 
#
#######################################################################
#
# If this CIF has been generated from an entry in the Cambridge 
# Structural Database, then it will include bibliographic, chemical, 
# crystal, experimental, refinement or atomic coordinate data resulting 
# from the CCDC's data processing and validation procedures.
#
#######################################################################

data_FEDFIG
_chemical_name_common            
'Janusarene J1 bis(pyrene) clathrate dichloromethane solvate'
_chemical_formula_moiety         'C126 H102 O12,2(C16 H10),2(C1 H2 Cl2)'
_chemical_name_systematic        
"hexakis(4,4''-dimethoxy-1,3':5',1''-terphenyl-1'-yl)benzene bis(pyrene) clathrate dichloromethane solvate"
_symmetry_cell_setting           monoclinic
_symmetry_space_group_name_H-M   'C 2/c'
_symmetry_Int_Tables_number      15
_space_group_name_Hall           '-C 2yn'
loop_
_symmetry_equiv_pos_site_id
_symmetry_equiv_pos_as_xyz
1 x,y,z
2 -x,y,1/2-z
3 1/2+x,1/2+y,z
4 1/2-x,1/2+y,1/2-z
5 -x,-y,-z
6 x,-y,1/2+z
7 1/2-x,1/2-y,-z
8 1/2+x,1/2-y,1/2+z
_cell_length_a                   33.4919(14)
_cell_length_b                   13.3311(3)
_cell_length_c                   33.6938(15)
_cell_angle_alpha                90
_cell_angle_beta                 123.495(6)
_cell_angle_gamma                90
_cell_volume                     12545.5
_exptl_crystal_colour            colorless
_exptl_crystal_description       prism
_cell_formula_units_Z            4
loop_
_atom_site_label
_atom_site_type_symbol
_atom_site_fract_x
_atom_site_fract_y
_atom_site_fract_z
Cl1 Cl 0.4427(2) 0.4705(4) 0.25231(19)
Cl2 Cl 0.4585(2) 0.6713(4) 0.2828(2)
C1 C 0.4668(4) 0.5494(11) 0.2986(4)
H1 H 0.5009 0.5363 0.3190
H2 H 0.4530 0.5362 0.3168
O1 O 0.26366(19) 0.9274(4) 0.2541(2)
C2 C 0.45090(17) 0.4957(4) 0.47930(17)
C3 C 0.43424(18) 0.4825(4) 0.39784(17)
C4 C 0.48092(17) 0.5121(4) 0.52778(17)
C5 C 0.42425(19) 0.3971(4) 0.37058(18)
H3 H 0.4418 0.3391 0.3850
C6 C 0.3890(2) 0.3955(4) 0.32245(19)
C7 C 0.46895(17) 0.4851(4) 0.45031(17)
C8 C 0.45974(18) 0.5246(4) 0.55701(17)
C9 C 0.39775(18) 0.4862(4) 0.45659(17)
C10 C 0.3418(2) 0.6619(4) 0.30623(19)
C11 C 0.37113(19) 0.5658(4) 0.45631(19)
H4 H 0.3860 0.6270 0.4692
C12 C 0.3625(2) 0.4826(4) 0.30157(19)
H5 H 0.3383 0.4824 0.2693
C13 C 0.2941(2) 0.6419(4) 0.4373(2)
C14 C 0.40773(19) 0.5688(4) 0.37551(18)
H6 H 0.4148 0.6274 0.3932
C15 C 0.32643(19) 0.3819(4) 0.4176(2)
C16 C 0.4606(2) 0.6163(4) 0.57664(19)
H7 H 0.4766 0.6698 0.5736
C17 C 0.3712(2) 0.5694(4) 0.32774(19)
O2 O 0.2106(2) 0.8756(5) 0.4360(3)
C18 C 0.4353(2) 0.4452(4) 0.56112(19)
H8 H 0.4347 0.3831 0.5483
C19 C 0.32193(19) 0.5554(4) 0.4369(2)
C20 C 0.37544(19) 0.3947(4) 0.4372(2)
H9 H 0.3933 0.3413 0.4373
O3 O 0.2364(3) 0.0112(4) 0.3344(2)
C21 C 0.3793(2) 0.3018(4) 0.2946(2)
O4 O 0.3488(2) 0.0375(4) 0.2172(2)
C22 C 0.4116(2) 0.4577(5) 0.5844(2)
C23 C 0.4381(2) 0.6306(4) 0.6009(2)
C24 C 0.3032(2) 0.2834(5) 0.3970(2)
C25 C 0.3006(2) 0.4636(4) 0.4178(2)
H10 H 0.2680 0.4561 0.4048
C26 C 0.2888(2) 0.8386(5) 0.2690(2)
O5 O 0.4564(3) 1.0012(5) 0.6905(3)
C27 C 0.4407(2) 0.7297(5) 0.6225(2)
C28 C 0.3278(2) 0.6958(5) 0.2620(2)
H11 H 0.3363 0.6591 0.2442
C29 C 0.2683(2) 0.2467(5) 0.4031(3)
H12 H 0.2596 0.2837 0.4206
C30 C 0.4138(2) 0.5499(5) 0.6043(2)
H13 H 0.3987 0.5581 0.6203
C31 C 0.2464(2) 0.6562(5) 0.4005(2)
H14 H 0.2319 0.6123 0.3748
C32 C 0.3011(2) 0.8051(5) 0.3126(2)
H15 H 0.2917 0.8410 0.3298
C33 C 0.3332(3) 0.2741(5) 0.2589(2)
H16 H 0.3077 0.3157 0.2517
C34 C 0.3137(2) 0.7087(5) 0.4746(3)
H17 H 0.3454 0.7003 0.4998
C35 C 0.4070(3) 0.1492(5) 0.2786(3)
H18 H 0.4322 0.1071 0.2856
C36 C 0.3613(3) 0.1234(5) 0.2437(3)
C37 C 0.3012(2) 0.7837(5) 0.2426(2)
H19 H 0.2920 0.8049 0.2124
C38 C 0.2404(3) 0.8003(6) 0.4389(3)
C39 C 0.2460(3) 0.1549(6) 0.3834(3)
H20 H 0.2232 0.1307 0.3886
C40 C 0.3276(2) 0.7177(5) 0.3314(2)
H21 H 0.3360 0.6959 0.3613
C41 C 0.3145(3) 0.2259(5) 0.3700(3)
H22 H 0.3379 0.2489 0.3655
C42 C 0.4160(3) 0.2379(5) 0.3037(2)
H23 H 0.4474 0.2548 0.3272
C43 C 0.2574(3) 0.1003(5) 0.3565(3)
C44 C 0.2875(3) 0.7886(5) 0.4758(3)
H24 H 0.3017 0.8335 0.5011
C45 C 0.4437(3) 0.8172(5) 0.6036(3)
H25 H 0.4421 0.8151 0.5752
C46 C 0.4506(3) 0.9146(6) 0.6660(3)
C47 C 0.2922(3) 0.1363(6) 0.3500(3)
H26 H 0.3005 0.0997 0.3320
C48 C 0.4419(3) 0.7367(6) 0.6642(3)
H27 H 0.4393 0.6788 0.6780
C49 C 0.2203(3) 0.7349(6) 0.4019(3)
H28 H 0.1885 0.7433 0.3770
C50 C 0.3242(3) 0.1863(6) 0.2339(3)
H29 H 0.2929 0.1693 0.2102
C51 C 0.4491(3) 0.9094(6) 0.6250(3)
H30 H 0.4518 0.9675 0.6113
C52 C 0.2465(3) 0.9613(6) 0.2079(3)
H31 H 0.2224 0.9162 0.1851
H32 H 0.2725 0.9640 0.2035
H33 H 0.2330 1.0271 0.2036
C53 C 0.4470(4) 0.8279(7) 0.6855(3)
H34 H 0.4479 0.8307 0.7136
C54 C 0.3845(4) -0.0379(7) 0.2319(4)
H35 H 0.3702 -0.0971 0.2130
H36 H 0.3983 -0.0536 0.2648
H37 H 0.4090 -0.0137 0.2278
C55 C 0.2304(4) 0.9484(7) 0.4716(4)
H38 H 0.2062 0.9966 0.4653
H39 H 0.2562 0.9815 0.4723
H40 H 0.2423 0.9170 0.5018
C56 C 0.4693(5) 1.0895(7) 0.6773(5)
H41 H 0.4438 1.1090 0.6459
H42 H 0.4978 1.0775 0.6776
H43 H 0.4752 1.1421 0.6994
C57 C 0.1988(5) -0.0253(8) 0.3382(4)
H44 H 0.1730 0.0223 0.3243
H45 H 0.2105 -0.0349 0.3711
H46 H 0.1875 -0.0881 0.3217
O6 O 0.3046(9) 0.095(2) 0.5704(9)
C58 C 0.3295(13) 0.055(4) 0.6144(13)
H47 H 0.3163 -0.0095 0.6139
H48 H 0.3275 0.0984 0.6360
H49 H 0.3624 0.0471 0.6249
C59 C 0.3321(9) 0.1962(15) 0.5800(7)
C60 C 0.3645(9) 0.2425(15) 0.6233(6)
H50 H 0.3699 0.2162 0.6514
C61 C 0.3890(10) 0.3283(17) 0.6245(8)
H51 H 0.4107 0.3591 0.6534
C62 C 0.3809(11) 0.3678(17) 0.5823(11)
C63 C 0.3484(12) 0.321(2) 0.5390(8)
H52 H 0.3430 0.3478 0.5109
C64 C 0.3239(10) 0.236(2) 0.5378(6)
H53 H 0.3022 0.2048 0.5089
O1D O 0.73634(19) 0.0726(4) 0.7459(2)
C2D C 0.54910(17) 0.5043(4) 0.52070(17)
C3D C 0.56576(18) 0.5175(4) 0.60216(17)
C4D C 0.51908(17) 0.4879(4) 0.47222(17)
C5D C 0.57575(19) 0.6029(4) 0.62942(18)
H3D H 0.5582 0.6609 0.6150
C6D C 0.6110(2) 0.6045(4) 0.67755(19)
C7D C 0.53105(17) 0.5149(4) 0.54969(17)
C8D C 0.54026(18) 0.4754(4) 0.44299(17)
C9D C 0.60225(18) 0.5138(4) 0.54341(17)
C10D C 0.6582(2) 0.3381(4) 0.69377(19)
C11D C 0.62887(19) 0.4342(4) 0.54369(19)
H4D H 0.6140 0.3730 0.5308
C12D C 0.6375(2) 0.5174(4) 0.69843(19)
H5D H 0.6617 0.5176 0.7307
C13D C 0.7059(2) 0.3581(4) 0.5627(2)
C14D C 0.59227(19) 0.4312(4) 0.62449(18)
H6D H 0.5852 0.3726 0.6068
C15D C 0.67357(19) 0.6181(4) 0.5824(2)
C16D C 0.5394(2) 0.3837(4) 0.42336(19)
H7D H 0.5234 0.3302 0.4264
C17D C 0.6288(2) 0.4306(4) 0.67226(19)
O2D O 0.7894(2) 0.1244(5) 0.5640(3)
C18D C 0.5647(2) 0.5548(4) 0.43888(19)
H8D H 0.5653 0.6169 0.4517
C19D C 0.67807(19) 0.4446(4) 0.5631(2)
C20D C 0.62456(19) 0.6053(4) 0.5628(2)
H9D H 0.6067 0.6587 0.5627
O3D O 0.7636(3) 0.9888(4) 0.6656(2)
C21D C 0.6207(2) 0.6982(4) 0.7054(2)
O4D O 0.6512(2) 0.9625(4) 0.7828(2)
C22D C 0.5884(2) 0.5423(5) 0.4156(2)
C23D C 0.5619(2) 0.3694(4) 0.3991(2)
C24D C 0.6968(2) 0.7166(5) 0.6030(2)
C25D C 0.6994(2) 0.5364(4) 0.5822(2)
H10D H 0.7320 0.5439 0.5952
C26D C 0.7112(2) 0.1614(5) 0.7310(2)
O5D O 0.5436(3) -0.0012(5) 0.3095(3)
C27D C 0.5593(2) 0.2703(5) 0.3775(2)
C28D C 0.6722(2) 0.3042(5) 0.7380(2)
H11D H 0.6637 0.3409 0.7558
C29D C 0.7317(2) 0.7533(5) 0.5969(3)
H12D H 0.7404 0.7163 0.5794
C30D C 0.5862(2) 0.4501(5) 0.3957(2)
H13D H 0.6013 0.4419 0.3797
C31D C 0.7536(2) 0.3438(5) 0.5995(2)
H14D H 0.7681 0.3877 0.6252
C32D C 0.6989(2) 0.1949(5) 0.6874(2)
H15D H 0.7083 0.1590 0.6702
C33D C 0.6668(3) 0.7259(5) 0.7411(2)
H16D H 0.6923 0.6843 0.7483
C34D C 0.6863(2) 0.2913(5) 0.5254(3)
H17D H 0.6546 0.2997 0.5002
C35D C 0.5930(3) 0.8508(5) 0.7214(3)
H18D H 0.5678 0.8929 0.7144
C36D C 0.6387(3) 0.8766(5) 0.7563(3)
C37D C 0.6988(2) 0.2163(5) 0.7574(2)
H19D H 0.7080 0.1951 0.7876
C38D C 0.7596(3) 0.1997(6) 0.5611(3)
C39D C 0.7540(3) 0.8451(6) 0.6166(3)
H20D H 0.7768 0.8693 0.6114
C40D C 0.6724(2) 0.2823(5) 0.6686(2)
H21D H 0.6640 0.3041 0.6387
C41D C 0.6855(3) 0.7741(5) 0.6300(3)
H22D H 0.6621 0.7511 0.6345
C42D C 0.5840(3) 0.7621(5) 0.6963(2)
H23D H 0.5526 0.7452 0.6728
C43D C 0.7426(3) 0.8997(5) 0.6435(3)
C44D C 0.7125(3) 0.2114(5) 0.5242(3)
H24D H 0.6983 0.1665 0.4989
C45D C 0.5563(3) 0.1828(5) 0.3964(3)
H25D H 0.5579 0.1849 0.4248
C46D C 0.5494(3) 0.0854(6) 0.3340(3)
C47D C 0.7078(3) 0.8637(6) 0.6500(3)
H26D H 0.6995 0.9003 0.6680
C48D C 0.5581(3) 0.2633(6) 0.3358(3)
H27D H 0.5607 0.3212 0.3220
C49D C 0.7797(3) 0.2651(6) 0.5981(3)
H28D H 0.8115 0.2567 0.6230
C50D C 0.6758(3) 0.8137(6) 0.7661(3)
H29D H 0.7071 0.8307 0.7898
C51D C 0.5509(3) 0.0906(6) 0.3750(3)
H30D H 0.5482 0.0325 0.3887
C52D C 0.7535(3) 0.0387(6) 0.7921(3)
H31D H 0.7776 0.0838 0.8149
H32D H 0.7275 0.0360 0.7965
H33D H 0.7670 -0.0271 0.7964
C53D C 0.5530(4) 0.1721(7) 0.3145(3)
H34D H 0.5521 0.1693 0.2864
C54D C 0.6155(4) 1.0379(7) 0.7681(4)
H35D H 0.6298 1.0971 0.7870
H36D H 0.6017 1.0536 0.7352
H37D H 0.5910 1.0137 0.7722
C55D C 0.7696(4) 0.0516(7) 0.5284(4)
H38D H 0.7938 0.0034 0.5347
H39D H 0.7438 0.0185 0.5277
H40D H 0.7577 0.0830 0.4982
C56D C 0.5307(5) -0.0895(7) 0.3227(5)
H41D H 0.5562 -0.1090 0.3541
H42D H 0.5022 -0.0775 0.3224
H43D H 0.5248 -0.1421 0.3006
C57D C 0.8012(5) 1.0253(8) 0.6618(4)
H44D H 0.8270 0.9777 0.6757
H45D H 0.7895 1.0349 0.6289
H46D H 0.8125 1.0881 0.6783
O6D O 0.6954(9) 0.905(2) 0.4296(9)
C58D C 0.6705(13) 0.945(4) 0.3856(13)
H47D H 0.6837 1.0095 0.3861
H48D H 0.6725 0.9016 0.3640
H49D H 0.6376 0.9529 0.3751
C59D C 0.6679(9) 0.8038(15) 0.4200(7)
C60D C 0.6355(9) 0.7575(15) 0.3767(6)
H50D H 0.6301 0.7838 0.3486
C61D C 0.6110(10) 0.6717(17) 0.3755(8)
H51D H 0.5893 0.6409 0.3466
C62D C 0.6191(11) 0.6322(17) 0.4177(11)
C63D C 0.6516(12) 0.679(2) 0.4610(8)
H52D H 0.6570 0.6522 0.4891
C64D C 0.6761(10) 0.764(2) 0.4622(6)
H53D H 0.6978 0.7952 0.4911
C65 C 0.4245(4) 0.8218(8) 0.4685(4)
H54 H 0.4279 0.7599 0.4580
C66 C 0.3796(4) 0.8672(10) 0.4455(4)
H55 H 0.3533 0.8352 0.4197
C67 C 0.3738(3) 0.9598(10) 0.4606(4)
H56 H 0.3436 0.9892 0.4449
C68 C 0.4128(3) 1.0093(8) 0.4994(4)
C69 C 0.4082(4) 1.1049(8) 0.5161(5)
H57 H 0.3783 1.1356 0.5009
C70 C 0.4466(4) 1.1516(7) 0.5538(5)
H58 H 0.4424 1.2135 0.5638
C71 C 0.4934(4) 1.1072(6) 0.5785(4)
C72 C 0.5336(5) 1.1539(9) 0.6174(5)
H59 H 0.5302 1.2158 0.6279
C73 C 0.5784(4) 1.1086(11) 0.6404(4)
H60 H 0.6047 1.1405 0.6661
C74 C 0.5844(3) 1.0159(11) 0.6252(4)
H61 H 0.6146 0.9866 0.6409
C75 C 0.5453(2) 0.9664(8) 0.5865(3)
C76 C 0.5499(3) 0.8707(8) 0.5697(4)
H62 H 0.5798 0.8401 0.5849
C77 C 0.5115(4) 0.8241(6) 0.5321(4)
H63 H 0.5157 0.7622 0.5221
C78 C 0.4647(3) 0.8685(6) 0.5074(3)
C79 C 0.4589(2) 0.9634(5) 0.5232(3)
C80 C 0.4992(3) 1.0123(6) 0.5627(3)
O7? O 0.3215(9) 0.1265(11) 0.6025(10)
C81? C 0.3241(11) 0.035(2) 0.5858(14)
H64? H 0.2933 0.0028 0.5699
H65? H 0.3472 -0.0063 0.6119
H66? H 0.3336 0.0433 0.5638
C82? C 0.3426(10) 0.2106(15) 0.6004(8)
C83? C 0.3696(11) 0.2760(14) 0.6385(7)
H67? H 0.3729 0.2642 0.6673
C84? C 0.3917(11) 0.3590(15) 0.6333(9)
H68? H 0.4097 0.4025 0.6587
C85? C 0.3867(12) 0.3766(17) 0.5900(11)
C86? C 0.3596(12) 0.311(2) 0.5519(8)
H69? H 0.3562 0.3231 0.5230
C87? C 0.3376(10) 0.228(2) 0.5571(6)
H70? H 0.3195 0.1848 0.5316
C88? C 0.5839(3) 0.9353(10) 0.6100(4)
H71? H 0.6075 0.8877 0.6178
C89? C 0.5958(3) 1.0226(11) 0.6368(4)
H72? H 0.6271 1.0328 0.6624
C90? C 0.5611(4) 1.0949(10) 0.6258(4)
H73? H 0.5695 1.1529 0.6441
C91? C 0.5136(3) 1.0811(7) 0.5874(3)
C92? C 0.4768(4) 1.1539(8) 0.5749(5)
H74? H 0.4845 1.2124 0.5927
C93? C 0.4309(4) 1.1389(8) 0.5376(5)
H75? H 0.4079 1.1874 0.5304
C94? C 0.4173(3) 1.0498(8) 0.5090(4)
C95? C 0.3702(3) 1.0328(10) 0.4703(4)
H76? H 0.3467 1.0804 0.4625
C96? C 0.3584(3) 0.9454(11) 0.4434(4)
H77? H 0.3270 0.9351 0.4178
C97? C 0.3931(4) 0.8731(9) 0.4544(4)
H78? H 0.3847 0.8152 0.4361
C98? C 0.4406(3) 0.8869(7) 0.4928(3)
C99? C 0.4774(4) 0.8141(7) 0.5053(4)
H79? H 0.4696 0.7556 0.4875
C100? C 0.5232(4) 0.8291(8) 0.5426(5)
H80? H 0.5462 0.7806 0.5498
C101? C 0.5369(3) 0.9182(8) 0.5712(4)
C102? C 0.5011(3) 0.9918(6) 0.5597(3)
C103? C 0.4531(3) 0.9762(6) 0.5205(3)
C104? C 0.4474(4) 0.8033(6) 0.4803(4)
H81? H 0.4577 0.7419 0.4760
C105? C 0.3996(4) 0.8313(8) 0.4497(4)
H82? H 0.3784 0.7885 0.4252
C106? C 0.3834(3) 0.9227(9) 0.4556(3)
H83? H 0.3514 0.9403 0.4349
C107? C 0.4147(2) 0.9885(7) 0.4923(3)
C108? C 0.3993(3) 1.0835(8) 0.4994(4)
H84? H 0.3675 1.1026 0.4791
C109? C 0.4303(3) 1.1460(6) 0.5353(4)
H85? H 0.4193 1.2070 0.5390
C110? C 0.4798(3) 1.1199(5) 0.5675(3)
C111? C 0.5125(4) 1.1832(7) 0.6047(4)
H86? H 0.5021 1.2445 0.6091
C112? C 0.5603(4) 1.1552(9) 0.6353(4)
H87? H 0.5816 1.1981 0.6598
C113? C 0.5765(3) 1.0638(9) 0.6295(3)
H88? H 0.6085 1.0460 0.6502
C114? C 0.5452(2) 0.9980(7) 0.5928(3)
C115? C 0.5606(3) 0.9030(7) 0.5856(4)
H89? H 0.5924 0.8840 0.6058
C116? C 0.5296(3) 0.8404(6) 0.5498(4)
H90? H 0.5406 0.7793 0.5462
C117? C 0.4801(3) 0.8665(5) 0.5176(3)
C118? C 0.4636(2) 0.9604(5) 0.5237(2)
C119? C 0.4962(2) 1.0260(5) 0.5613(2)
loop_
_geom_bond_atom_site_label_1
_geom_bond_atom_site_label_2
_geom_bond_site_symmetry_1
_geom_bond_site_symmetry_2
Cl1 C1 1_555 1_555
Cl2 C1 1_555 1_555
C1 H1 1_555 1_555
H2 C1 1_555 1_555
O1 C26 1_555 1_555
C2 C4 1_555 1_555
C3 C5 1_555 1_555
C4 C8 1_555 1_555
C5 H3 1_555 1_555
C6 C5 1_555 1_555
C7 C2 1_555 1_555
C8 C16 1_555 1_555
C9 C2 1_555 1_555
C10 C17 1_555 1_555
C11 C9 1_555 1_555
H4 C11 1_555 1_555
C12 C6 1_555 1_555
H5 C12 1_555 1_555
C13 C19 1_555 1_555
C14 C3 1_555 1_555
H6 C14 1_555 1_555
C15 C20 1_555 1_555
C16 H7 1_555 1_555
C17 C12 1_555 1_555
O2 C38 1_555 1_555
C18 C8 1_555 1_555
H8 C18 1_555 1_555
C19 C11 1_555 1_555
C20 C9 1_555 1_555
H9 C20 1_555 1_555
O3 C43 1_555 1_555
C21 C6 1_555 1_555
O4 C36 1_555 1_555
C22 C18 1_555 1_555
C23 C16 1_555 1_555
C24 C15 1_555 1_555
C25 C15 1_555 1_555
H10 C25 1_555 1_555
C26 C32 1_555 1_555
O5 C46 1_555 1_555
C27 C23 1_555 1_555
C28 C10 1_555 1_555
H11 C28 1_555 1_555
C29 C24 1_555 1_555
H12 C29 1_555 1_555
C30 C22 1_555 1_555
H13 C30 1_555 1_555
C31 C13 1_555 1_555
H14 C31 1_555 1_555
C32 H15 1_555 1_555
C33 C21 1_555 1_555
H16 C33 1_555 1_555
C34 C13 1_555 1_555
H17 C34 1_555 1_555
C35 H18 1_555 1_555
C36 C35 1_555 1_555
C37 C26 1_555 1_555
H19 C37 1_555 1_555
C38 C44 1_555 1_555
C39 C29 1_555 1_555
H20 C39 1_555 1_555
C40 C10 1_555 1_555
H21 C40 1_555 1_555
C41 C24 1_555 1_555
H22 C41 1_555 1_555
C42 C21 1_555 1_555
H23 C42 1_555 1_555
C43 C39 1_555 1_555
C44 C34 1_555 1_555
H24 C44 1_555 1_555
C45 C27 1_555 1_555
H25 C45 1_555 1_555
C46 C51 1_555 1_555
C47 C41 1_555 1_555
H26 C47 1_555 1_555
C48 C27 1_555 1_555
H27 C48 1_555 1_555
C49 C31 1_555 1_555
H28 C49 1_555 1_555
C50 C33 1_555 1_555
H29 C50 1_555 1_555
C51 C45 1_555 1_555
H30 C51 1_555 1_555
C52 O1 1_555 1_555
H31 C52 1_555 1_555
H32 C52 1_555 1_555
H33 C52 1_555 1_555
C53 C46 1_555 1_555
H34 C53 1_555 1_555
C54 O4 1_555 1_555
H35 C54 1_555 1_555
H36 C54 1_555 1_555
H37 C54 1_555 1_555
C55 O2 1_555 1_555
H38 C55 1_555 1_555
H39 C55 1_555 1_555
H40 C55 1_555 1_555
C56 O5 1_555 1_555
H41 C56 1_555 1_555
H42 C56 1_555 1_555
H43 C56 1_555 1_555
C57 O3 1_555 1_555
H44 C57 1_555 1_555
H45 C57 1_555 1_555
H46 C57 1_555 1_555
O6 C58 1_555 1_555
C58 H47 1_555 1_555
H48 C58 1_555 1_555
H49 C58 1_555 1_555
C59 O6 1_555 1_555
C60 C59 1_555 1_555
H50 C60 1_555 1_555
C61 C60 1_555 1_555
H51 C61 1_555 1_555
C62 C22 1_555 1_555
C63 C62 1_555 1_555
H52 C63 1_555 1_555
C64 C59 1_555 1_555
H53 C64 1_555 1_555
C65 H54 1_555 1_555
C66 C65 1_555 1_555
H55 C66 1_555 1_555
C67 C66 1_555 1_555
H56 C67 1_555 1_555
C68 C67 1_555 1_555
C69 C68 1_555 1_555
H57 C69 1_555 1_555
C70 C69 1_555 1_555
H58 C70 1_555 1_555
C71 C70 1_555 1_555
C72 C71 1_555 1_555
H59 C72 1_555 1_555
C73 C72 1_555 1_555
H60 C73 1_555 1_555
C74 C73 1_555 1_555
H61 C74 1_555 1_555
C75 C74 1_555 1_555
C76 C75 1_555 1_555
H62 C76 1_555 1_555
C77 C76 1_555 1_555
H63 C77 1_555 1_555
C78 C65 1_555 1_555
C79 C68 1_555 1_555
C80 C71 1_555 1_555
O1D C26D 1_555 1_555
C2D C4D 1_555 1_555
C3D C5D 1_555 1_555
C4D C7 1_555 1_555
C5D H3D 1_555 1_555
C6D C5D 1_555 1_555
C7D C4 1_555 1_555
C8D C4D 1_555 1_555
C9D C2D 1_555 1_555
C10D C17D 1_555 1_555
C11D C9D 1_555 1_555
H4D C11D 1_555 1_555
C12D C6D 1_555 1_555
H5D C12D 1_555 1_555
C13D C19D 1_555 1_555
C14D C3D 1_555 1_555
H6D C14D 1_555 1_555
C15D C20D 1_555 1_555
C16D C8D 1_555 1_555
H7D C16D 1_555 1_555
C17D C12D 1_555 1_555
O2D C38D 1_555 1_555
C18D C8D 1_555 1_555
H8D C18D 1_555 1_555
C19D C11D 1_555 1_555
C20D C9D 1_555 1_555
H9D C20D 1_555 1_555
O3D C43D 1_555 1_555
C21D C6D 1_555 1_555
O4D C36D 1_555 1_555
C22D C18D 1_555 1_555
C23D C16D 1_555 1_555
C24D C15D 1_555 1_555
C25D C15D 1_555 1_555
H10D C25D 1_555 1_555
C26D C32D 1_555 1_555
O5D C46D 1_555 1_555
C27D C23D 1_555 1_555
C28D C10D 1_555 1_555
H11D C28D 1_555 1_555
C29D C24D 1_555 1_555
H12D C29D 1_555 1_555
C30D C22D 1_555 1_555
H13D C30D 1_555 1_555
C31D C13D 1_555 1_555
H14D C31D 1_555 1_555
C32D H15D 1_555 1_555
C33D C21D 1_555 1_555
H16D C33D 1_555 1_555
C34D C13D 1_555 1_555
H17D C34D 1_555 1_555
C35D H18D 1_555 1_555
C36D C35D 1_555 1_555
C37D C26D 1_555 1_555
H19D C37D 1_555 1_555
C38D C44D 1_555 1_555
C39D C29D 1_555 1_555
H20D C39D 1_555 1_555
C40D C10D 1_555 1_555
H21D C40D 1_555 1_555
C41D C24D 1_555 1_555
H22D C41D 1_555 1_555
C42D C21D 1_555 1_555
H23D C42D 1_555 1_555
C43D C39D 1_555 1_555
C44D C34D 1_555 1_555
H24D C44D 1_555 1_555
C45D C27D 1_555 1_555
H25D C45D 1_555 1_555
C46D C51D 1_555 1_555
C47D C41D 1_555 1_555
H26D C47D 1_555 1_555
C48D C27D 1_555 1_555
H27D C48D 1_555 1_555
C49D C31D 1_555 1_555
H28D C49D 1_555 1_555
C50D C33D 1_555 1_555
H29D C50D 1_555 1_555
C51D C45D 1_555 1_555
H30D C51D 1_555 1_555
C52D O1D 1_555 1_555
H31D C52D 1_555 1_555
H32D C52D 1_555 1_555
H33D C52D 1_555 1_555
C53D C46D 1_555 1_555
H34D C53D 1_555 1_555
C54D O4D 1_555 1_555
H35D C54D 1_555 1_555
H36D C54D 1_555 1_555
H37D C54D 1_555 1_555
C55D O2D 1_555 1_555
H38D C55D 1_555 1_555
H39D C55D 1_555 1_555
H40D C55D 1_555 1_555
C56D O5D 1_555 1_555
H41D C56D 1_555 1_555
H42D C56D 1_555 1_555
H43D C56D 1_555 1_555
C57D O3D 1_555 1_555
H44D C57D 1_555 1_555
H45D C57D 1_555 1_555
H46D C57D 1_555 1_555
O6D C58D 1_555 1_555
C58D H47D 1_555 1_555
H48D C58D 1_555 1_555
H49D C58D 1_555 1_555
C59D O6D 1_555 1_555
C60D C59D 1_555 1_555
H50D C60D 1_555 1_555
C61D C60D 1_555 1_555
H51D C61D 1_555 1_555
C62D C22D 1_555 1_555
C63D C62D 1_555 1_555
H52D C63D 1_555 1_555
C64D C59D 1_555 1_555
H53D C64D 1_555 1_555
C3 C7 1_555 1_555
C14 C17 1_555 1_555
C19 C25 1_555 1_555
C23 C30 1_555 1_555
C28 C37 1_555 1_555
C32 C40 1_555 1_555
C35 C42 1_555 1_555
C36 C50 1_555 1_555
C38 C49 1_555 1_555
C43 C47 1_555 1_555
C48 C53 1_555 1_555
C61 C62 1_555 1_555
C63 C64 1_555 1_555
C75 C80 1_555 1_555
C77 C78 1_555 1_555
C78 C79 1_555 1_555
C79 C80 1_555 1_555
C2D C7D 1_555 1_555
C3D C7D 1_555 1_555
C14D C17D 1_555 1_555
C19D C25D 1_555 1_555
C23D C30D 1_555 1_555
C28D C37D 1_555 1_555
C32D C40D 1_555 1_555
C35D C42D 1_555 1_555
C36D C50D 1_555 1_555
C38D C49D 1_555 1_555
C43D C47D 1_555 1_555
C48D C53D 1_555 1_555
C61D C62D 1_555 1_555
C63D C64D 1_555 1_555

#END
