
#######################################################################
#
#                 Cambridge Crystallographic Data Centre
#                                CCDC 
#
#######################################################################
#
# If this CIF has been generated from an entry in the Cambridge 
# Structural Database, then it will include bibliographic, chemical, 
# crystal, experimental, refinement or atomic coordinate data resulting 
# from the CCDC's data processing and validation procedures.
#
#######################################################################

data_FEDLIK
_chemical_formula_moiety         'C11 H11 N3 O2'
_chemical_name_systematic        
1-(4-Hydroxyphenyl)-3-(1H-1,2,4-triazol-1-yl)propan-1-one
_chemical_properties_biological  'potential biological activity'
_symmetry_cell_setting           monoclinic
_symmetry_space_group_name_H-M   'C c'
_symmetry_Int_Tables_number      9
_space_group_name_Hall           'C -2yc'
loop_
_symmetry_equiv_pos_site_id
_symmetry_equiv_pos_as_xyz
1 x,y,z
2 x,-y,1/2+z
3 1/2+x,1/2+y,z
4 1/2+x,1/2-y,1/2+z
_cell_length_a                   22.759(4)
_cell_length_b                   5.5729(9)
_cell_length_c                   8.3902(14)
_cell_angle_alpha                90
_cell_angle_beta                 90.929(2)
_cell_angle_gamma                90
_cell_volume                     1064.02
_exptl_crystal_colour            colorless
_exptl_crystal_description       block
_cell_formula_units_Z            4
_exptl_crystal_recrystallization_method methanol
loop_
_atom_site_label
_atom_site_type_symbol
_atom_site_fract_x
_atom_site_fract_y
_atom_site_fract_z
N1 N 0.14909(8) 0.2545(3) 0.1435(2)
N2 N 0.17183(8) 0.0500(3) 0.0831(2)
N3 N 0.21645(8) 0.3727(3) -0.0190(2)
O1 O 0.03756(7) 0.5294(3) 0.0556(2)
O2 O -0.21274(6) 0.1802(3) -0.17034(17)
H1 H -0.2324(10) 0.073(4) -0.120(3)
C1 C 0.01373(9) 0.3386(4) 0.0832(2)
C2 C 0.04437(9) 0.1561(4) 0.1890(3)
H2 H 0.0519 0.0125 0.1273
H3 H 0.0185 0.1126 0.2751
C3 C 0.10210(10) 0.2470(4) 0.2596(2)
H4 H 0.0962 0.4069 0.3021
H5 H 0.1140 0.1435 0.3474
C4 C 0.21187(10) 0.1313(4) -0.0136(3)
H6 H 0.2353 0.0305 -0.0738
C5 C 0.17636(9) 0.4422(4) 0.0827(2)
H7 H 0.1683 0.6011 0.1082
C6 C -0.04500(8) 0.2822(4) 0.0161(2)
C7 C -0.07716(9) 0.0807(4) 0.0587(2)
H8 H -0.0606 -0.0310 0.1284
C8 C -0.13323(9) 0.0440(4) -0.0007(3)
H9 H -0.1543 -0.0905 0.0306
C9 C -0.15838(8) 0.2058(4) -0.1068(2)
C10 C -0.12644(9) 0.4057(4) -0.1531(3)
H10 H -0.1425 0.5136 -0.2262
C11 C -0.07100(9) 0.4437(4) -0.0906(2)
H11 H -0.0504 0.5802 -0.1203
loop_
_geom_bond_atom_site_label_1
_geom_bond_atom_site_label_2
_geom_bond_site_symmetry_1
_geom_bond_site_symmetry_2
N1 N2 1_555 1_555
N2 C4 1_555 1_555
N3 C4 1_555 1_555
O1 C1 1_555 1_555
O2 H1 1_555 1_555
C1 C2 1_555 1_555
C2 H2 1_555 1_555
H3 C2 1_555 1_555
C3 N1 1_555 1_555
H4 C3 1_555 1_555
H5 C3 1_555 1_555
C4 H6 1_555 1_555
C5 N1 1_555 1_555
H7 C5 1_555 1_555
C6 C1 1_555 1_555
C7 C6 1_555 1_555
H8 C7 1_555 1_555
C8 C7 1_555 1_555
H9 C8 1_555 1_555
C9 O2 1_555 1_555
C10 C9 1_555 1_555
H10 C10 1_555 1_555
C11 C6 1_555 1_555
H11 C11 1_555 1_555
N3 C5 1_555 1_555
C2 C3 1_555 1_555
C8 C9 1_555 1_555
C10 C11 1_555 1_555

#END
