
#######################################################################
#
#                 Cambridge Crystallographic Data Centre
#                                CCDC 
#
#######################################################################
#
# If this CIF has been generated from an entry in the Cambridge 
# Structural Database, then it will include bibliographic, chemical, 
# crystal, experimental, refinement or atomic coordinate data resulting 
# from the CCDC's data processing and validation procedures.
#
#######################################################################

data_FEDLOQ
_chemical_formula_moiety         
'2(C9 H8 N1 O1 1+),C4 H2 Br2 O4 2-,2(C4 H4 Br2 O4)'
_chemical_name_systematic        
'bis(8-Hydroxyquinolinium) dibromosuccinate bis(dibromosuccinic acid)'
_symmetry_cell_setting           triclinic
_symmetry_space_group_name_H-M   'P -1'
_symmetry_Int_Tables_number      2
_space_group_name_Hall           '-P 1'
loop_
_symmetry_equiv_pos_site_id
_symmetry_equiv_pos_as_xyz
1 x,y,z
2 -x,-y,-z
_cell_length_a                   6.9687(8)
_cell_length_b                   11.4468(12)
_cell_length_c                   12.6870(13)
_cell_angle_alpha                110.396(2)
_cell_angle_beta                 100.042(2)
_cell_angle_gamma                100.915(2)
_cell_volume                     899.099
_exptl_crystal_colour            yellow
_exptl_crystal_description       prism
_cell_formula_units_Z            1
_exptl_crystal_recrystallization_method ethanol/water
loop_
_atom_site_label
_atom_site_type_symbol
_atom_site_fract_x
_atom_site_fract_y
_atom_site_fract_z
Br1 Br 0.82192(13) 0.58880(9) 0.62382(8)
O2 O 0.6640(9) 0.3102(6) 0.3460(5)
O3 O 0.6717(9) 0.5056(6) 0.3439(5)
C10 C 0.6438(12) 0.4194(8) 0.3889(7)
C11 C 0.5832(11) 0.4658(8) 0.5027(7)
H7 H 0.5378 0.3919 0.5229
H12 H 0.7080 0.4750 0.2740
Br1A Br 0.17808(13) 0.41120(9) 0.37618(8)
O2A O 0.3360(9) 0.6898(6) 0.6540(5)
O3A O 0.3283(9) 0.4944(6) 0.6561(5)
C10A C 0.3562(12) 0.5806(8) 0.6111(7)
C11A C 0.4168(11) 0.5342(8) 0.4973(7)
H7A H 0.4622 0.6081 0.4771
H12A H 0.2920 0.5250 0.7260
Br2 Br 0.68209(14) -0.14188(10) -0.07866(10)
O4 O 0.8228(12) 0.1533(7) -0.0592(6)
O5 O 0.8386(10) 0.2001(6) 0.1283(5)
C12 C 0.8557(13) 0.1305(8) 0.0270(8)
C13 C 0.9144(14) 0.0087(9) 0.0245(8)
H8 H 0.9443 0.0099 0.1033
H13 H 0.7950 0.2730 0.1310
Br2A Br 1.31791(14) 0.14188(10) 0.07866(10)
O4A O 1.1772(12) -0.1533(7) 0.0592(6)
O5A O 1.1614(10) -0.2001(6) -0.1283(5)
C12A C 1.1443(13) -0.1305(8) -0.0270(8)
C13A C 1.0856(14) -0.0087(9) -0.0245(8)
H8A H 1.0557 -0.0099 -0.1033
H13A H 1.2050 -0.2730 -0.1310
Br3 Br 0.69861(16) 0.51918(12) -0.08931(10)
O6 O 0.7810(10) 0.4240(5) 0.1556(5)
O7 O 0.9551(11) 0.6253(6) 0.1971(5)
C14 C 0.8866(14) 0.5106(9) 0.1317(8)
C15 C 0.920(2) 0.4655(10) 0.0112(10)
H9 H 0.9055 0.3722 -0.0219
Br3A Br 1.30139(16) 0.48082(12) 0.08931(10)
O6A O 1.2190(10) 0.5760(5) -0.1556(5)
O7A O 1.0449(11) 0.3747(6) -0.1971(5)
C14A C 1.1134(14) 0.4894(9) -0.1317(8)
C15A C 1.080(2) 0.5345(10) -0.0112(10)
H9A H 1.0945 0.6278 0.0219
N1 N 0.6903(10) 0.0796(6) 0.3695(6)
O1 O 0.8055(11) 0.2484(6) 0.5924(6)
C1 C 0.6360(13) 0.0002(9) 0.2567(8)
H1 H 0.6110 0.0337 0.2002
C2 C 0.6165(15) -0.1308(10) 0.2233(8)
H2 H 0.5755 -0.1859 0.1448
C3 C 0.6581(13) -0.1783(9) 0.3070(8)
H3 H 0.6486 -0.2661 0.2850
C4 C 0.7571(13) -0.1406(8) 0.5157(8)
H4 H 0.7506 -0.2275 0.4978
C5 C 0.8068(13) -0.0580(9) 0.6280(8)
H5 H 0.8311 -0.0889 0.6864
C6 C 0.8227(12) 0.0770(9) 0.6587(8)
H6 H 0.8571 0.1331 0.7367
C7 C 0.7874(12) 0.1238(8) 0.5734(7)
C8 C 0.7293(11) 0.0357(7) 0.4559(7)
C9 C 0.7142(11) -0.0981(8) 0.4238(7)
H10 H 0.7007 0.1629 0.3881
H11 H 0.9110 0.3099 0.6587
loop_
_geom_bond_atom_site_label_1
_geom_bond_atom_site_label_2
_geom_bond_site_symmetry_1
_geom_bond_site_symmetry_2
Br1 C11 1_555 1_555
Br2 C13 1_555 1_555
Br3 C15 1_555 1_555
N1 C1 1_555 1_555
O1 C7 1_555 1_555
O2 C10 1_555 1_555
O3 C10 1_555 1_555
O4 C12 1_555 1_555
O5 C12 1_555 1_555
O6 C14 1_555 1_555
O7 C14 1_555 1_555
C1 H1 1_555 1_555
C2 C1 1_555 1_555
H2 C2 1_555 1_555
C3 C2 1_555 1_555
H3 C3 1_555 1_555
C4 H4 1_555 1_555
C5 C4 1_555 1_555
H5 C5 1_555 1_555
C6 C5 1_555 1_555
H6 C6 1_555 1_555
C7 C6 1_555 1_555
C8 N1 1_555 1_555
C9 C3 1_555 1_555
C10 C11 1_555 1_555
C11 H7 1_555 1_555
C12 C13 1_555 1_555
C13 H8 1_555 1_555
C14 C15 1_555 1_555
C15 H9 1_555 1_555
H10 N1 1_555 1_555
H11 O1 1_555 1_555
H12 O3 1_555 1_555
H13 O5 1_555 1_555
Br1A C11A 1_555 1_555
Br2A C13A 1_555 1_555
Br3A C15A 1_555 1_555
O2A C10A 1_555 1_555
O3A C10A 1_555 1_555
O4A C12A 1_555 1_555
O5A C12A 1_555 1_555
O6A C14A 1_555 1_555
O7A C14A 1_555 1_555
C10A C11A 1_555 1_555
C11A C11 1_555 1_555
H7A C11A 1_555 1_555
C12A C13A 1_555 1_555
C13A C13 1_555 1_555
H8A C13A 1_555 1_555
C14A C15A 1_555 1_555
C15A C15 1_555 1_555
H9A C15A 1_555 1_555
H12A O3A 1_555 1_555
H13A O5A 1_555 1_555
C4 C9 1_555 1_555
C7 C8 1_555 1_555
C8 C9 1_555 1_555

#END
