
#######################################################################
#
#                 Cambridge Crystallographic Data Centre
#                                CCDC 
#
#######################################################################
#
# If this CIF has been generated from an entry in the Cambridge 
# Structural Database, then it will include bibliographic, chemical, 
# crystal, experimental, refinement or atomic coordinate data resulting 
# from the CCDC's data processing and validation procedures.
#
#######################################################################

data_FEDMIL
_chemical_name_common            'Rilmenidine phosphate'
_chemical_formula_moiety         'C10 H17 N2 O1 1+,H2 O4 P1 1-'
_chemical_name_systematic        
'N-(Dicyclopropylmethyl)-4,5-dihydro-oxazol-1-ium-2-amine phosphate'
_chemical_properties_biological  
'rilmenidine exhibits good antihypertensive activity'
_symmetry_cell_setting           triclinic
_symmetry_space_group_name_H-M   'P -1'
_symmetry_Int_Tables_number      2
_space_group_name_Hall           '-P 1'
loop_
_symmetry_equiv_pos_site_id
_symmetry_equiv_pos_as_xyz
1 x,y,z
2 -x,-y,-z
_cell_length_a                   8.3212(8)
_cell_length_b                   8.9609(9)
_cell_length_c                   9.8813(10)
_cell_angle_alpha                97.070(2)
_cell_angle_beta                 101.475(2)
_cell_angle_gamma                108.355(2)
_cell_volume                     671.538
_exptl_crystal_colour            white
_exptl_crystal_description       block
_cell_formula_units_Z            2
_exptl_crystal_recrystallization_method ethanol
loop_
_atom_site_label
_atom_site_type_symbol
_atom_site_fract_x
_atom_site_fract_y
_atom_site_fract_z
P1 P 0.74068(5) 0.45733(5) 0.01745(4)
O2 O 0.81915(15) 0.33081(13) -0.01304(13)
O3 O 0.62255(15) 0.42479(14) 0.11584(12)
O4 O 0.63681(17) 0.47379(17) -0.12690(13)
O5 O 0.88770(17) 0.62380(14) 0.08172(15)
H18 H 0.560(2) 0.509(3) -0.118(2)
H19 H 0.978(3) 0.633(2) 0.058(2)
O1 O 0.64830(15) -0.04662(12) 0.28368(11)
N1 N 0.73497(19) 0.07777(17) 0.11883(14)
N2 N 0.61067(18) 0.19272(16) 0.27686(14)
C1 C 0.66448(19) 0.08108(17) 0.22573(15)
C2 C 0.7392(2) -0.13967(19) 0.21748(18)
H1 H 0.6697 -0.2532 0.1939
H2 H 0.8517 -0.1242 0.2795
C3 C 0.7619(2) -0.07433(19) 0.08626(17)
H3 H 0.8781 -0.0583 0.0729
H4 H 0.6752 -0.1442 0.0031
C4 C 0.5272(2) 0.18359(18) 0.39558(15)
H5 H 0.4717 0.0700 0.3970
C5 C 0.3856(2) 0.2551(2) 0.36854(17)
H6 H 0.4252 0.3711 0.3724
C6 C 0.2269(3) 0.1873(3) 0.4218(2)
H7 H 0.2200 0.0975 0.4688
H8 H 0.1749 0.2613 0.4585
C7 C 0.2142(2) 0.1593(3) 0.2678(2)
H9 H 0.1995 0.0523 0.2212
H10 H 0.1544 0.2160 0.2109
C8 C 0.6560(2) 0.2629(2) 0.53664(17)
H11 H 0.6030 0.2559 0.6169
C9 C 0.8388(3) 0.2615(2) 0.5689(2)
H12 H 0.8884 0.2494 0.6626
H13 H 0.8761 0.2118 0.4939
C10 C 0.8054(3) 0.4134(2) 0.5545(2)
H14 H 0.8353 0.4937 0.6395
H15 H 0.8230 0.4561 0.4709
H16 H 0.756(2) 0.154(2) 0.073(2)
H17 H 0.620(2) 0.270(2) 0.2336(19)
loop_
_geom_bond_atom_site_label_1
_geom_bond_atom_site_label_2
_geom_bond_site_symmetry_1
_geom_bond_site_symmetry_2
P1 O2 1_555 1_555
O1 C1 1_555 1_555
N1 C1 1_555 1_555
N2 C1 1_555 1_555
C2 O1 1_555 1_555
H1 C2 1_555 1_555
H2 C2 1_555 1_555
C3 N1 1_555 1_555
H3 C3 1_555 1_555
H4 C3 1_555 1_555
C4 N2 1_555 1_555
H5 C4 1_555 1_555
C5 C4 1_555 1_555
H6 C5 1_555 1_555
C6 C5 1_555 1_555
H7 C6 1_555 1_555
H8 C6 1_555 1_555
C7 C5 1_555 1_555
H9 C7 1_555 1_555
H10 C7 1_555 1_555
C8 C4 1_555 1_555
H11 C8 1_555 1_555
C9 C8 1_555 1_555
H12 C9 1_555 1_555
H13 C9 1_555 1_555
C10 C8 1_555 1_555
H14 C10 1_555 1_555
H15 C10 1_555 1_555
O3 P1 1_555 1_555
O4 P1 1_555 1_555
O5 P1 1_555 1_555
H16 N1 1_555 1_555
H17 N2 1_555 1_555
H18 O4 1_555 1_555
H19 O5 1_555 1_555
C2 C3 1_555 1_555
C6 C7 1_555 1_555
C9 C10 1_555 1_555

#END
