
#######################################################################
#
#                 Cambridge Crystallographic Data Centre
#                                CCDC 
#
#######################################################################
#
# If this CIF has been generated from an entry in the Cambridge 
# Structural Database, then it will include bibliographic, chemical, 
# crystal, experimental, refinement or atomic coordinate data resulting 
# from the CCDC's data processing and validation procedures.
#
#######################################################################

data_FEDQUB
_chemical_formula_moiety         'C20 H19 N3 O3'
_chemical_name_systematic        
'3-(((1Z)-(3-Methyl-5-oxo-1-phenyl-1,5-dihydropyrazol-4-ylidene)(phenyl)methyl)amino)propionic acid'
_symmetry_cell_setting           monoclinic
_symmetry_space_group_name_H-M   'C 2/c'
_symmetry_Int_Tables_number      15
_space_group_name_Hall           '-C 2yn'
loop_
_symmetry_equiv_pos_site_id
_symmetry_equiv_pos_as_xyz
1 x,y,z
2 1/2+x,1/2+y,z
3 -x,y,1/2-z
4 1/2-x,1/2+y,1/2-z
5 -x,-y,-z
6 1/2-x,1/2-y,-z
7 x,-y,1/2+z
8 1/2+x,1/2-y,1/2+z
_cell_length_a                   22.779(3)
_cell_length_b                   11.7073(12)
_cell_length_c                   16.8032(16)
_cell_angle_alpha                90
_cell_angle_beta                 124.978(6)
_cell_angle_gamma                90
_cell_volume                     3671.68
_exptl_crystal_colour            yellow
_exptl_crystal_description       block
_cell_formula_units_Z            8
_exptl_crystal_recrystallization_method propan-2-ol
loop_
_atom_site_label
_atom_site_type_symbol
_atom_site_fract_x
_atom_site_fract_y
_atom_site_fract_z
N1 N 0.13771(8) 0.69052(11) 0.02599(10)
H1 H 0.1571(10) 0.6339(16) 0.0104(13)
N2 N 0.13817(7) 0.35698(10) 0.10494(9)
N3 N 0.10026(7) 0.37172(11) 0.14674(9)
O1 O 0.16758(7) 0.68974(11) -0.12209(9)
O2 O 0.07346(7) 0.77143(11) -0.25198(9)
H2 H 0.0833(13) 0.7260(16) -0.2819(16)
O3 O 0.17741(7) 0.47255(9) 0.03084(9)
C1 C 0.11936(9) 0.75748(13) -0.15757(12)
C2 C 0.10486(9) 0.83455(13) -0.09917(12)
H3 H 0.0548 0.8281 -0.1233
H4 H 0.1137 0.9130 -0.1080
C3 C 0.15074(9) 0.80638(13) 0.00779(12)
H5 H 0.2009 0.8143 0.0325
H6 H 0.1405 0.8601 0.0423
C4 C 0.11017(8) 0.65889(12) 0.07331(11)
C5 C 0.10924(8) 0.54185(12) 0.09143(11)
C6 C 0.14510(9) 0.45894(12) 0.06987(11)
C7 C 0.08309(9) 0.48044(14) 0.13808(11)
C8 C 0.04036(11) 0.52126(17) 0.17465(15)
H7 H 0.0200 0.4569 0.1861
H8 H 0.0026 0.5705 0.1272
H9 H 0.0710 0.5626 0.2342
C9 C 0.08394(8) 0.74903(12) 0.10862(11)
C10 C 0.02085(9) 0.80650(14) 0.04547(13)
H10 H -0.0070 0.7874 -0.0201
C11 C -0.00115(10) 0.89243(16) 0.07922(15)
H11 H -0.0443 0.9301 0.0366
C12 C 0.04032(12) 0.92210(17) 0.17508(16)
H12 H 0.0259 0.9808 0.1975
C13 C 0.10292(13) 0.86578(19) 0.23792(15)
H13 H 0.1310 0.8861 0.3032
C14 C 0.12486(10) 0.77844(16) 0.20507(13)
H14 H 0.1674 0.7397 0.2484
C15 C 0.17109(8) 0.25098(12) 0.11248(11)
C16 C 0.18770(10) 0.22346(14) 0.04730(13)
H15 H 0.1753 0.2728 -0.0035
C17 C 0.22302(10) 0.12162(15) 0.05848(15)
H16 H 0.2352 0.1038 0.0157
C18 C 0.24014(10) 0.04716(15) 0.13176(17)
H17 H 0.2644 -0.0203 0.1393
C19 C 0.22130(10) 0.07272(15) 0.19354(16)
H18 H 0.2310 0.0207 0.2415
C20 C 0.18782(9) 0.17546(15) 0.18562(14)
H19 H 0.1767 0.1932 0.2295
loop_
_geom_bond_atom_site_label_1
_geom_bond_atom_site_label_2
_geom_bond_site_symmetry_1
_geom_bond_site_symmetry_2
N1 H1 1_555 1_555
N2 N3 1_555 1_555
N3 C7 1_555 1_555
O1 C1 1_555 1_555
O2 H2 1_555 1_555
O3 C6 1_555 1_555
C1 O2 1_555 1_555
C2 C1 1_555 1_555
H3 C2 1_555 1_555
H4 C2 1_555 1_555
C3 N1 1_555 1_555
H5 C3 1_555 1_555
H6 C3 1_555 1_555
C4 N1 1_555 1_555
C5 C4 1_555 1_555
C6 N2 1_555 1_555
C7 C5 1_555 1_555
C8 C7 1_555 1_555
H7 C8 1_555 1_555
H8 C8 1_555 1_555
H9 C8 1_555 1_555
C9 C4 1_555 1_555
C10 C9 1_555 1_555
H10 C10 1_555 1_555
C11 C10 1_555 1_555
H11 C11 1_555 1_555
C12 C11 1_555 1_555
H12 C12 1_555 1_555
C13 C12 1_555 1_555
H13 C13 1_555 1_555
C14 C9 1_555 1_555
H14 C14 1_555 1_555
C15 N2 1_555 1_555
C16 C15 1_555 1_555
H15 C16 1_555 1_555
C17 C16 1_555 1_555
H16 C17 1_555 1_555
C18 C17 1_555 1_555
H17 C18 1_555 1_555
C19 C18 1_555 1_555
H18 C19 1_555 1_555
C20 C15 1_555 1_555
H19 C20 1_555 1_555
C2 C3 1_555 1_555
C5 C6 1_555 1_555
C13 C14 1_555 1_555
C19 C20 1_555 1_555

#END
