
#######################################################################
#
#                 Cambridge Crystallographic Data Centre
#                                CCDC 
#
#######################################################################
#
# If this CIF has been generated from an entry in the Cambridge 
# Structural Database, then it will include bibliographic, chemical, 
# crystal, experimental, refinement or atomic coordinate data resulting 
# from the CCDC's data processing and validation procedures.
#
#######################################################################

data_FEDTUE
_chemical_formula_moiety         'C18 H16 N2 O1 S1'
_chemical_name_systematic        
(Z)-5-Benzylidene-3-phenylethyl-2-thioxo-imidazolidin-4-one
_symmetry_cell_setting           triclinic
_symmetry_space_group_name_H-M   'P -1'
_symmetry_Int_Tables_number      2
_space_group_name_Hall           '-P 1'
loop_
_symmetry_equiv_pos_site_id
_symmetry_equiv_pos_as_xyz
1 x,y,z
2 -x,-y,-z
_cell_length_a                   9.8221(10)
_cell_length_b                   10.6654(10)
_cell_length_c                   16.5207(16)
_cell_angle_alpha                107.009(2)
_cell_angle_beta                 101.652(2)
_cell_angle_gamma                100.645(2)
_cell_volume                     1564.96
_exptl_crystal_colour            colorless
_exptl_crystal_description       block
_chemical_melting_point          '455-456 K'
_cell_formula_units_Z            4
_exptl_crystal_recrystallization_method ethanol
loop_
_atom_site_label
_atom_site_type_symbol
_atom_site_fract_x
_atom_site_fract_y
_atom_site_fract_z
S1 S 0.34174(9) 0.93643(9) 0.11058(6)
O1 O -0.0832(3) 0.5762(3) 0.08155(17)
N1 N 0.1264(3) 0.7398(3) 0.11138(17)
N2 N 0.0795(3) 0.8058(3) -0.00276(17)
H1 H 0.0892 0.8492 -0.0385
C1 C 0.1463(4) 0.7008(4) 0.3794(3)
H3 H 0.0490 0.6704 0.3493
C2 C 0.1952(5) 0.6598(5) 0.4483(3)
H4 H 0.1312 0.6016 0.4641
C3 C 0.3363(5) 0.7034(5) 0.4939(3)
H5 H 0.3693 0.6753 0.5408
C4 C 0.4306(5) 0.7901(5) 0.4701(3)
H6 H 0.5276 0.8204 0.5009
C5 C 0.3813(4) 0.8314(4) 0.4009(2)
H7 H 0.4452 0.8908 0.3859
C6 C 0.2373(4) 0.7859(4) 0.3531(2)
C7 C 0.1844(4) 0.8248(4) 0.2743(2)
H8 H 0.2395 0.9155 0.2831
H9 H 0.0841 0.8255 0.2671
C8 C 0.2000(4) 0.7253(3) 0.1923(2)
H10 H 0.3015 0.7377 0.1955
H11 H 0.1622 0.6338 0.1909
C9 C 0.1812(3) 0.8275(3) 0.0718(2)
C10 C -0.0104(4) 0.6617(3) 0.0623(2)
C11 C -0.0434(3) 0.7050(3) -0.0152(2)
C12 C -0.1668(3) 0.6465(3) -0.0788(2)
H12 H -0.2303 0.5797 -0.0691
C13 C -0.2183(3) 0.6699(3) -0.1605(2)
C14 C -0.3247(4) 0.5678(4) -0.2291(2)
H13 H -0.3649 0.4883 -0.2204
C15 C -0.3714(4) 0.5820(4) -0.3093(3)
H14 H -0.4414 0.5120 -0.3545
C16 C -0.3151(4) 0.6992(5) -0.3227(3)
H15 H -0.3451 0.7085 -0.3773
C17 C -0.2139(4) 0.8031(4) -0.2548(3)
H16 H -0.1767 0.8837 -0.2632
C18 C -0.1675(4) 0.7889(3) -0.1750(3)
H17 H -0.1003 0.8608 -0.1294
S2 S 0.84701(10) 0.97491(10) 0.12039(6)
O2 O 0.4439(3) 0.5844(2) 0.07778(16)
N3 N 0.6479(3) 0.7573(3) 0.11151(18)
N4 N 0.5993(3) 0.8244(3) -0.00223(17)
H2 H 0.6082 0.8686 -0.0376
C19 C 0.7265(4) 0.6656(4) 0.3570(3)
H18 H 0.6844 0.5899 0.3063
C20 C 0.7860(5) 0.6481(6) 0.4340(4)
H19 H 0.7851 0.5613 0.4351
C21 C 0.8468(5) 0.7580(8) 0.5094(4)
H20 H 0.8866 0.7459 0.5617
C22 C 0.8488(5) 0.8849(7) 0.5077(3)
H21 H 0.8898 0.9597 0.5590
C23 C 0.7901(4) 0.9030(5) 0.4298(3)
H22 H 0.7928 0.9903 0.4291
C24 C 0.7276(4) 0.7933(4) 0.3531(2)
C25 C 0.6605(4) 0.8125(4) 0.2686(2)
H23 H 0.6770 0.9089 0.2783
H24 H 0.5573 0.7734 0.2520
C26 C 0.7202(4) 0.7478(4) 0.1941(2)
H25 H 0.8220 0.7918 0.2087
H26 H 0.7105 0.6529 0.1874
C27 C 0.6964(3) 0.8520(3) 0.0752(2)
C28 C 0.5137(4) 0.6729(3) 0.0593(2)
C29 C 0.4825(3) 0.7151(3) -0.0181(2)
C30 C 0.3601(3) 0.6564(3) -0.0832(2)
H27 H 0.2986 0.5851 -0.0763
C31 C 0.3072(4) 0.6856(3) -0.1628(2)
C32 C 0.1613(4) 0.6395(4) -0.2050(2)
H28 H 0.1006 0.5885 -0.1831
C33 C 0.1043(4) 0.6678(4) -0.2789(3)
H29 H 0.0059 0.6371 -0.3061
C34 C 0.1936(5) 0.7418(4) -0.3123(3)
H30 H 0.1554 0.7622 -0.3617
C35 C 0.3395(4) 0.7857(4) -0.2727(2)
H31 H 0.3998 0.8349 -0.2958
C36 C 0.3960(4) 0.7568(3) -0.1992(2)
H32 H 0.4949 0.7853 -0.1734
loop_
_geom_bond_atom_site_label_1
_geom_bond_atom_site_label_2
_geom_bond_site_symmetry_1
_geom_bond_site_symmetry_2
S1 C9 1_555 1_555
S2 C27 1_555 1_555
O1 C10 1_555 1_555
O2 C28 1_555 1_555
N1 C8 1_555 1_555
N2 H1 1_555 1_555
N3 C26 1_555 1_555
N4 H2 1_555 1_555
C1 H3 1_555 1_555
C2 C1 1_555 1_555
H4 C2 1_555 1_555
C3 C2 1_555 1_555
H5 C3 1_555 1_555
C4 C3 1_555 1_555
H6 C4 1_555 1_555
C5 C4 1_555 1_555
H7 C5 1_555 1_555
C6 C1 1_555 1_555
C7 C6 1_555 1_555
H8 C7 1_555 1_555
H9 C7 1_555 1_555
C8 C7 1_555 1_555
H10 C8 1_555 1_555
H11 C8 1_555 1_555
C9 N1 1_555 1_555
C10 N1 1_555 1_555
C11 N2 1_555 1_555
C12 C11 1_555 1_555
H12 C12 1_555 1_555
C13 C12 1_555 1_555
C14 C13 1_555 1_555
H13 C14 1_555 1_555
C15 C14 1_555 1_555
H14 C15 1_555 1_555
C16 C15 1_555 1_555
H15 C16 1_555 1_555
C17 C16 1_555 1_555
H16 C17 1_555 1_555
C18 C13 1_555 1_555
H17 C18 1_555 1_555
C19 H18 1_555 1_555
C20 C19 1_555 1_555
H19 C20 1_555 1_555
C21 C20 1_555 1_555
H20 C21 1_555 1_555
C22 C21 1_555 1_555
H21 C22 1_555 1_555
C23 C22 1_555 1_555
H22 C23 1_555 1_555
C24 C19 1_555 1_555
C25 C24 1_555 1_555
H23 C25 1_555 1_555
H24 C25 1_555 1_555
C26 C25 1_555 1_555
H25 C26 1_555 1_555
H26 C26 1_555 1_555
C27 N3 1_555 1_555
C28 N3 1_555 1_555
C29 N4 1_555 1_555
C30 C29 1_555 1_555
H27 C30 1_555 1_555
C31 C30 1_555 1_555
C32 C31 1_555 1_555
H28 C32 1_555 1_555
C33 C32 1_555 1_555
H29 C33 1_555 1_555
C34 C33 1_555 1_555
H30 C34 1_555 1_555
C35 C34 1_555 1_555
H31 C35 1_555 1_555
C36 C31 1_555 1_555
H32 C36 1_555 1_555
N2 C9 1_555 1_555
N4 C27 1_555 1_555
C5 C6 1_555 1_555
C10 C11 1_555 1_555
C17 C18 1_555 1_555
C23 C24 1_555 1_555
C28 C29 1_555 1_555
C35 C36 1_555 1_555

#END
