
#######################################################################
#
#                 Cambridge Crystallographic Data Centre
#                                CCDC 
#
#######################################################################
#
# If this CIF has been generated from an entry in the Cambridge 
# Structural Database, then it will include bibliographic, chemical, 
# crystal, experimental, refinement or atomic coordinate data resulting 
# from the CCDC's data processing and validation procedures.
#
#######################################################################

data_FEDWET
_chemical_name_common            'Janusarene C60fullerene unknown solvate'
_chemical_formula_moiety         'C126 H102 O12,C60'
_chemical_name_systematic        
'hexakis(3,5-bis(4-methoxyphenyl)phenyl)benzene C60fullerene unknown solvate'
_symmetry_cell_setting           triclinic
_symmetry_space_group_name_H-M   'P 1'
_symmetry_Int_Tables_number      1
_space_group_name_Hall           'P 1'
loop_
_symmetry_equiv_pos_site_id
_symmetry_equiv_pos_as_xyz
1 x,y,z
_cell_length_a                   30.7870(7)
_cell_length_b                   28.4276(6)
_cell_length_c                   14.4053(2)
_cell_angle_alpha                90.000
_cell_angle_beta                 90.000
_cell_angle_gamma                90.000
_cell_volume                     12607.5
_exptl_crystal_colour            'reddish brown'
_cell_formula_units_Z            4
loop_
_atom_site_label
_atom_site_type_symbol
_atom_site_fract_x
_atom_site_fract_y
_atom_site_fract_z
C1 C 0.1378(2) 0.2804(2) 0.8676(6)
C2 C 0.0980(2) 0.2573(2) 0.8674(6)
C3 C 0.0966(2) 0.2077(3) 0.8687(6)
C4 C 0.1352(3) 0.1823(2) 0.8664(6)
C5 C 0.1753(2) 0.2052(2) 0.8683(6)
C6 C 0.1769(2) 0.2553(2) 0.8688(6)
C7 C 0.1397(2) 0.3337(2) 0.8690(6)
C8 C 0.1531(2) 0.3578(3) 0.9453(6)
H1 H 0.1632 0.3408 0.9979
C9 C 0.1523(3) 0.4073(2) 0.9481(7)
C10 C 0.1396(3) 0.4306(2) 0.8658(7)
H2 H 0.1401 0.4640 0.8645
C11 C 0.1265(3) 0.4067(3) 0.7868(7)
C12 C 0.1263(2) 0.3576(2) 0.7905(6)
H3 H 0.1167 0.3402 0.7380
O1 O 0.1957(2) 0.5049(2) 1.2746(4)
C13 C 0.1650(2) 0.4324(2) 1.0343(3)
C14 C 0.1996(2) 0.4166(2) 1.0878(4)
H4 H 0.2158 0.3899 1.0684
C15 C 0.2105(2) 0.4397(2) 1.1695(4)
H5 H 0.2341 0.4289 1.2060
C16 C 0.1868(2) 0.4788(2) 1.1978(4)
C17 C 0.1521(2) 0.4947(2) 1.1444(4)
H6 H 0.1359 0.5214 1.1637
C18 C 0.1412(2) 0.4715(2) 1.0626(4)
H7 H 0.1176 0.4824 1.0261
C19 C 0.2298(3) 0.4862(4) 1.3358(8)
H8 H 0.2335 0.5073 1.3891
H9 H 0.2571 0.4842 1.3014
H10 H 0.2214 0.4549 1.3577
O2 O 0.0789(3) 0.4901(4) 0.4488(5)
C20 C 0.1144(2) 0.4304(2) 0.6995(4)
C21 C 0.1422(2) 0.4629(2) 0.6585(5)
H11 H 0.1686 0.4712 0.6883
C22 C 0.1313(2) 0.4831(2) 0.5738(5)
H12 H 0.1503 0.5053 0.5457
C23 C 0.0927(3) 0.4709(3) 0.5301(4)
C24 C 0.0649(2) 0.4384(3) 0.5711(5)
H13 H 0.0385 0.4300 0.5413
C25 C 0.0758(2) 0.4182(2) 0.6559(5)
H14 H 0.0568 0.3960 0.6839
C26 C 0.1113(4) 0.5149(6) 0.3921(11)
H15 H 0.0975 0.5267 0.3354
H16 H 0.1348 0.4932 0.3757
H17 H 0.1232 0.5414 0.4275
C27 C 0.0572(2) 0.2864(2) 0.8695(6)
C28 C 0.0469(2) 0.3113(3) 0.9483(6)
H18 H 0.0644 0.3077 1.0022
C29 C 0.0119(2) 0.3415(3) 0.9511(4)
C30 C -0.0125(2) 0.3472(3) 0.8692(7)
H19 H -0.0369 0.3675 0.8704
C31 C 0.0326(2) 0.2923(3) 0.7896(6)
H20 H 0.0395 0.2742 0.7361
O3 O -0.0251(5) 0.4425(7) 1.2767(8)
C32 C 0.0033(4) 0.3721(5) 1.0327(7)
C33 C 0.0372(3) 0.3892(6) 1.0867(9)
H21 H 0.0664 0.3847 1.0673
C34 C 0.0284(4) 0.4129(6) 1.1689(9)
H22 H 0.0516 0.4246 1.2058
C35 C -0.0143(4) 0.4195(6) 1.1972(7)
C36 C -0.0483(3) 0.4024(7) 1.1432(8)
H23 H -0.0775 0.4069 1.1625
C37 C -0.0394(3) 0.3787(6) 1.0609(7)
H24 H -0.0626 0.3670 1.0240
C38 C 0.0098(8) 0.4499(12) 1.3447(18)
H25 H -0.0017 0.4667 1.3987
H26 H 0.0331 0.4685 1.3163
H27 H 0.0214 0.4194 1.3644
C39 C -0.0023(2) 0.3240(3) 0.7856(4)
O4 O -0.0822(5) 0.3800(8) 0.4522(7)
C40 C -0.0238(6) 0.3398(5) 0.6987(8)
C41 C -0.0357(6) 0.3865(5) 0.6848(8)
H28 H -0.0305 0.4092 0.7319
C42 C -0.0551(6) 0.3999(6) 0.6019(9)
H29 H -0.0632 0.4318 0.5924
C43 C -0.0627(4) 0.3668(7) 0.5329(6)
C44 C -0.0509(6) 0.3201(6) 0.5468(8)
H30 H -0.0561 0.2974 0.4997
C45 C -0.0314(7) 0.3066(5) 0.6298(10)
H31 H -0.0233 0.2748 0.6393
C46 C -0.0868(11) 0.3455(12) 0.3768(17)
H32 H -0.1013 0.3604 0.3238
H33 H -0.1042 0.3189 0.3985
H34 H -0.0580 0.3344 0.3579
C47 C 0.0542(2) 0.1828(3) 0.8764(7)
C48 C 0.0303(3) 0.1876(3) 0.9572(7)
H35 H 0.0394 0.2093 1.0034
C49 C -0.0069(3) 0.1609(3) 0.9710(8)
C50 C -0.0200(3) 0.1301(4) 0.9028(10)
H36 H -0.0443 0.1104 0.9146
C51 C 0.0397(3) 0.1536(3) 0.8076(8)
H37 H 0.0560 0.1512 0.7518
O5 O -0.0819(6) 0.1804(5) 1.3253(6)
C52 C -0.0871(11) 0.2277(8) 1.365(3)
H38 H -0.0992 0.2251 1.4280
H39 H -0.1069 0.2461 1.3263
H40 H -0.0588 0.2433 1.3680
O6 O -0.0611(7) 0.0286(6) 0.5052(9)
C53 C -0.0182(7) 0.1026(6) 0.7352(8)
C54 C -0.0349(9) 0.0575(6) 0.7459(8)
H41 H -0.0366 0.0437 0.8059
C55 C -0.0492(8) 0.0325(5) 0.6688(10)
H42 H -0.0606 0.0017 0.6760
C56 C -0.0468(6) 0.0526(6) 0.5810(9)
C57 C -0.0300(7) 0.0977(6) 0.5703(8)
H43 H -0.0284 0.1115 0.5103
C58 C -0.0158(7) 0.1227(5) 0.6475(9)
H44 H -0.0044 0.1535 0.6402
C59 C -0.0729(12) -0.0214(7) 0.512(2)
H45 H -0.0812 -0.0330 0.4501
H46 H -0.0973 -0.0251 0.5546
H47 H -0.0479 -0.0394 0.5345
C60 C 0.0008(3) 0.1265(4) 0.8175(6)
C61 C -0.0305(2) 0.1664(2) 1.0613(4)
C62 C -0.0393(2) 0.2110(2) 1.0961(5)
H48 H -0.0334 0.2380 1.0595
C63 C -0.0566(2) 0.2160(2) 1.1846(5)
H49 H -0.0627 0.2465 1.2085
C64 C -0.0652(2) 0.1764(3) 1.2383(4)
C65 C -0.0564(2) 0.1318(2) 1.2034(5)
H50 H -0.0622 0.1048 1.2401
C66 C -0.0390(2) 0.1268(2) 1.1149(6)
H51 H -0.0330 0.0963 1.0911
C67 C 0.1356(2) 0.1296(2) 0.8698(7)
C68 C 0.1213(3) 0.1058(3) 0.9484(7)
H52 H 0.1094 0.1228 0.9993
C69 C 0.1244(3) 0.0565(3) 0.9524(5)
C70 C 0.1427(3) 0.0319(3) 0.8812(7)
H53 H 0.1465 -0.0012 0.8861
C71 C 0.1520(2) 0.1043(3) 0.7957(7)
H54 H 0.1605 0.1204 0.7409
O7 O 0.0830(4) -0.0286(7) 1.2934(9)
C72 C 0.0399(7) -0.0128(12) 1.325(2)
H55 H 0.0339 -0.0261 1.3863
H56 H 0.0178 -0.0235 1.2808
H57 H 0.0395 0.0216 1.3285
O8 O 0.2169(5) -0.0396(5) 0.4813(9)
C73 C 0.1122(3) 0.0335(2) 1.0412(4)
C74 C 0.0751(2) 0.0477(2) 1.0885(5)
H58 H 0.0569 0.0714 1.0629
C75 C 0.0646(3) 0.0272(3) 1.1733(6)
H59 H 0.0393 0.0369 1.2056
C76 C 0.0913(3) -0.0074(3) 1.2107(5)
C77 C 0.1284(3) -0.0216(3) 1.1634(6)
H60 H 0.1466 -0.0452 1.1890
C78 C 0.1389(2) -0.0011(3) 1.0786(5)
H61 H 0.1642 -0.0108 1.0463
C79 C 0.1562(3) 0.0560(3) 0.7997(7)
C80 C 0.1735(2) 0.0296(2) 0.7164(4)
C81 C 0.1565(2) -0.0140(2) 0.6925(5)
H62 H 0.1350 -0.0282 0.7307
C82 C 0.1708(2) -0.0368(2) 0.6130(5)
H63 H 0.1592 -0.0666 0.5967
C83 C 0.2023(2) -0.0161(2) 0.5572(4)
C84 C 0.2194(2) 0.0276(2) 0.5811(5)
H64 H 0.2409 0.0418 0.5429
C85 C 0.2050(2) 0.0504(2) 0.6606(5)
H65 H 0.2167 0.0802 0.6769
C86 C 0.2165(2) 0.1783(3) 0.8680(6)
C87 C 0.2278(3) 0.1497(2) 0.9441(6)
H66 H 0.2087 0.1474 0.9957
C88 C 0.2936(3) 0.1268(3) 0.8666(6)
H67 H 0.3194 0.1085 0.8654
C89 C 0.2837(3) 0.1549(3) 0.7911(6)
C90 C 0.2453(2) 0.1810(2) 0.7935(6)
H68 H 0.2386 0.2011 0.7429
O9 O 0.3024(6) 0.0407(7) 1.2897(7)
O10 O 0.3722(5) 0.1596(5) 0.4501(7)
C91 C 0.3369(8) 0.0603(8) 1.3488(18)
H69 H 0.3388 0.0421 1.4064
H70 H 0.3301 0.0932 1.3635
H71 H 0.3647 0.0587 1.3159
C92 C 0.3816(7) 0.2047(6) 0.4044(14)
H72 H 0.3981 0.1989 0.3473
H73 H 0.3986 0.2246 0.4462
H74 H 0.3542 0.2205 0.3891
C93 C 0.2668(3) 0.1248(3) 0.9447(6)
C94 C 0.2778(2) 0.0986(2) 1.0314(3)
C95 C 0.2472(2) 0.0702(2) 1.0750(4)
H75 H 0.2201 0.0640 1.0456
C96 C 0.2561(2) 0.0509(2) 1.1615(4)
H76 H 0.2352 0.0315 1.1913
C97 C 0.2956(2) 0.0599(2) 1.2045(4)
C98 C 0.3262(2) 0.0883(3) 1.1609(5)
H77 H 0.3533 0.0945 1.1903
C99 C 0.3173(2) 0.1076(2) 1.0744(5)
H78 H 0.3382 0.1270 1.0446
C100 C 0.3093(2) 0.1572(3) 0.7041(6)
C101 C 0.3188(3) 0.1168(3) 0.6565(7)
H79 H 0.3109 0.0873 0.6825
C102 C 0.3394(4) 0.1180(4) 0.5722(8)
H80 H 0.3461 0.0895 0.5409
C103 C 0.3507(3) 0.1612(4) 0.5325(5)
C104 C 0.3428(3) 0.2021(3) 0.5819(7)
H81 H 0.3521 0.2315 0.5579
C105 C 0.3215(3) 0.1999(3) 0.6662(6)
H82 H 0.3151 0.2282 0.6986
C106 C 0.2198(2) 0.2795(2) 0.8684(7)
C107 C 0.2488(3) 0.2747(3) 0.9415(6)
H83 H 0.2404 0.2568 0.9942
C108 C 0.2889(3) 0.2950(3) 0.9403(6)
C109 C 0.3010(3) 0.3221(3) 0.8622(7)
H84 H 0.3289 0.3365 0.8598
C110 C 0.2723(2) 0.3277(3) 0.7896(6)
C111 C 0.2319(3) 0.3075(3) 0.7931(6)
H85 H 0.2120 0.3125 0.7437
O11 O 0.3912(5) 0.2717(6) 1.2588(7)
C112 C 0.4285(6) 0.3008(7) 1.2868(16)
H86 H 0.4430 0.2862 1.3401
H87 H 0.4183 0.3322 1.3040
H88 H 0.4490 0.3032 1.2349
C113 C 0.3190(2) 0.2909(2) 1.0203(4)
C114 C 0.3214(2) 0.2474(2) 1.0641(5)
H89 H 0.3052 0.2216 1.0409
C115 C 0.3477(2) 0.2418(2) 1.1418(5)
H90 H 0.3493 0.2120 1.1718
C116 C 0.3715(2) 0.2796(3) 1.1758(5)
C117 C 0.3690(2) 0.3231(2) 1.1320(5)
H91 H 0.3853 0.3489 1.1552
C118 C 0.3428(2) 0.3287(2) 1.0543(5)
H92 H 0.3411 0.3585 1.0244
O12 O 0.3062(3) 0.4110(3) 0.4411(4)
C119 C 0.2850(2) 0.3543(2) 0.7016(3)
C120 C 0.3225(2) 0.3417(2) 0.6539(4)
H93 H 0.3423 0.3199 0.6806
C121 C 0.3311(2) 0.3611(2) 0.5672(4)
H94 H 0.3567 0.3525 0.5346
C122 C 0.3021(2) 0.3930(2) 0.5282(4)
C123 C 0.2646(2) 0.4056(2) 0.5759(4)
H95 H 0.2449 0.4274 0.5492
C124 C 0.2561(2) 0.3862(2) 0.6626(4)
H96 H 0.2305 0.3948 0.6952
C125 C 0.3395(5) 0.3889(5) 0.3825(10)
H97 H 0.3397 0.4040 0.3213
H98 H 0.3330 0.3553 0.3753
H99 H 0.3681 0.3926 0.4116
H100 H 0.2453 -0.0436 0.3551
H101 H 0.2699 -0.0089 0.4251
H102 H 0.2254 0.0072 0.3773
C126 C 0.2414(8) -0.0196(8) 0.4032(15)
C127 C 0.1259(3) 0.1099(5) 0.3698(8)
C128 C 0.0829(3) 0.1291(4) 0.3578(7)
C129 C 0.0687(4) 0.1500(3) 0.4437(6)
C130 C 0.1017(4) 0.1444(3) 0.5141(7)
C131 C 0.1349(3) 0.1182(5) 0.4667(8)
C132 C 0.1596(3) 0.1136(5) 0.3041(7)
C133 C 0.2030(3) 0.1255(5) 0.3339(7)
C134 C 0.2198(4) 0.1540(4) 0.2591(7)
C135 C 0.1868(4) 0.1594(5) 0.1896(9)
C136 C 0.1477(4) 0.1354(6) 0.2173(8)
C137 C 0.0746(4) 0.1488(4) 0.2699(7)
C138 C 0.1065(4) 0.1541(5) 0.1973(9)
C139 C 0.1035(4) 0.1989(3) 0.1516(12)
C140 C 0.0669(4) 0.2210(4) 0.1965(8)
C141 C 0.0491(4) 0.1914(3) 0.2686(6)
C142 C 0.0437(3) 0.1913(4) 0.4364(6)
C143 C 0.0337(4) 0.2138(3) 0.3492(7)
C144 C 0.0363(3) 0.2641(3) 0.3625(7)
C145 C 0.0466(4) 0.2727(4) 0.4584(6)
C146 C 0.0506(3) 0.2277(3) 0.5045(8)
C147 C 0.1067(3) 0.1804(3) 0.5795(8)
C148 C 0.0825(3) 0.2238(3) 0.5741(7)
C149 C 0.1114(4) 0.2619(3) 0.5976(11)
C150 C 0.1535(3) 0.2416(4) 0.6145(12)
C151 C 0.1509(3) 0.1913(4) 0.6034(11)
C152 C 0.1768(4) 0.1304(5) 0.4956(7)
C153 C 0.1854(4) 0.1678(3) 0.5603(9)
C154 C 0.2242(4) 0.1926(3) 0.5319(9)
C155 C 0.2411(5) 0.1714(3) 0.4484(7)
C156 C 0.2116(3) 0.1332(5) 0.4286(8)
C157 C 0.2483(4) 0.1900(3) 0.2860(7)
C158 C 0.2595(4) 0.2011(3) 0.3809(7)
C159 C 0.2600(4) 0.2516(3) 0.3915(6)
C160 C 0.2507(4) 0.2717(3) 0.3017(6)
C161 C 0.2429(4) 0.2337(4) 0.2371(6)
C162 C 0.1838(4) 0.2025(4) 0.1438(13)
C163 C 0.2107(4) 0.2417(4) 0.1700(9)
C164 C 0.1857(3) 0.2845(4) 0.1632(8)
C165 C 0.1416(3) 0.2724(4) 0.1395(8)
C166 C 0.1417(4) 0.2222(4) 0.1252(12)
C167 C 0.0698(4) 0.2702(4) 0.2052(8)
C168 C 0.1076(3) 0.2978(4) 0.1816(10)
C169 C 0.1161(3) 0.3337(5) 0.2500(7)
C170 C 0.0813(3) 0.3290(4) 0.3166(7)
C171 C 0.0532(5) 0.2910(3) 0.2895(8)
C172 C 0.0737(5) 0.3109(4) 0.4786(7)
C173 C 0.1064(4) 0.3043(4) 0.5493(10)
C174 C 0.1458(3) 0.3290(5) 0.5270(8)
C175 C 0.1363(3) 0.3514(5) 0.4396(7)
C176 C 0.0930(3) 0.3400(4) 0.4081(7)
C177 C 0.1904(4) 0.2669(3) 0.5875(11)
C178 C 0.1880(4) 0.3116(5) 0.5410(7)
C179 C 0.2208(3) 0.3136(4) 0.4696(7)
C180 C 0.2453(4) 0.2705(3) 0.4762(6)
C181 C 0.2266(4) 0.2414(3) 0.5477(8)
C182 C 0.2269(4) 0.3140(3) 0.3024(6)
C183 C 0.1952(3) 0.3195(3) 0.2292(8)
C184 C 0.1595(3) 0.3446(4) 0.2711(7)
C185 C 0.1673(3) 0.3547(4) 0.3681(7)
C186 C 0.2101(4) 0.3359(4) 0.3853(7)
O13? O -0.0407(7) 0.4153(10) 1.2955(8)
C187? C -0.0014(5) 0.3594(8) 1.0438(8)
C188? C 0.0291(5) 0.3806(9) 1.1014(11)
H103? H 0.0587 0.3820 1.0830
C189? C 0.0163(6) 0.3996(8) 1.186(1)
H104? H 0.0371 0.4140 1.2254
C190? C -0.0270(6) 0.3974(8) 1.2129(7)
C191? C -0.0575(5) 0.3763(9) 1.1553(9)
H105? H -0.0871 0.3748 1.1737
C192? C -0.0447(5) 0.3572(9) 1.0707(9)
H106? H -0.0655 0.3428 1.0313
C193? C -0.0108(9) 0.4181(13) 1.3748(17)
H107? H -0.0260 0.4317 1.4283
H108? H 0.0140 0.4381 1.3585
H109? H -0.0004 0.3865 1.3906
O14? O -0.0957(5) 0.3429(8) 0.4528(7)
C194? C -0.0291(5) 0.3258(5) 0.7000(8)
C195? C -0.0473(5) 0.3689(5) 0.6769(8)
H110? H -0.0449 0.3947 0.7184
C196? C -0.0692(5) 0.3743(6) 0.5932(8)
H111? H -0.0817 0.4038 0.5774
C197? C -0.0728(4) 0.3365(7) 0.5325(6)
C198? C -0.0545(5) 0.2933(6) 0.5555(8)
H112? H -0.0570 0.2675 0.5140
C199? C -0.0326(6) 0.2880(5) 0.6393(10)
H113? H -0.0202 0.2585 0.6550
C200? C -0.0979(10) 0.3056(10) 0.3824(16)
H114? H -0.1157 0.3163 0.3300
H115? H -0.1110 0.2774 0.4097
H116? H -0.0686 0.2982 0.3605
O15? O -0.0804(7) 0.1813(5) 1.3264(6)
C201? C -0.0708(13) 0.1426(11) 1.391(2)
H117? H -0.0834 0.1497 1.4518
H118? H -0.0393 0.1390 1.3969
H119? H -0.0834 0.1134 1.3670
O16? O -0.0611(9) 0.0053(8) 0.5396(13)
C202? C -0.0121(9) 0.0912(6) 0.7466(9)
C203? C -0.0319(11) 0.0489(6) 0.7704(9)
H120? H -0.0338 0.0398 0.8336
C204? C -0.0490(9) 0.0201(6) 0.7015(12)
H121? H -0.0625 -0.0088 0.7177
C205? C -0.0462(7) 0.0335(6) 0.6089(11)
C206? C -0.0264(7) 0.0758(6) 0.5852(9)
H122? H -0.0245 0.0850 0.5219
C207? C -0.0093(8) 0.1046(5) 0.654(1)
H123? H 0.0042 0.1335 0.6378
C208? C -0.0762(14) -0.0406(9) 0.574(3)
H124? H -0.0892 -0.0584 0.5229
H125? H -0.0978 -0.0357 0.6229
H126? H -0.0515 -0.0582 0.5993
O17? O 0.0885(8) -0.0154(11) 1.3036(6)
C209? C 0.1239(6) -0.0472(8) 1.3312(18)
H127? H 0.1056(10) -0.0436(16) 1.386(4)
H128? H 0.1508(19) -0.029(4) 1.3395(16)
H129? H 0.131(4) -0.0805(11) 1.322(3)
O18? O 0.2142(6) -0.0363(7) 0.4755(10)
C210? C 0.1949(8) -0.0779(7) 0.4314(18)
H130? H 0.191(2) -0.097(3) 0.375(4)
H131? H 0.1662(12) -0.0714(13) 0.458(4)
H132? H 0.2125(10) -0.095(3) 0.476(5)
O19? O 0.3060(6) 0.0428(8) 1.2899(8)
O20? O 0.3656(7) 0.1649(6) 0.4439(7)
C211? C 0.2750(8) 0.0124(9) 1.3391(18)
H133? H 0.2876 0.0026 1.3986
H134? H 0.2688 -0.0155 1.3013
H135? H 0.2480 0.0298 1.3504
C212? C 0.3633(9) 0.1305(8) 0.3679(14)
H136? H 0.3762 0.1441 0.3118
H137? H 0.3328 0.1226 0.3557
H138? H 0.3792 0.1021 0.3854
O21? O 0.4046(6) 0.2708(9) 1.2358(15)
C213? C 0.3965(13) 0.2572(16) 1.3327(16)
H139? H 0.4239 0.2582 1.3675
H140? H 0.3846 0.2253 1.3347
H141? H 0.3757 0.2792 1.3606
loop_
_geom_bond_atom_site_label_1
_geom_bond_atom_site_label_2
_geom_bond_site_symmetry_1
_geom_bond_site_symmetry_2
C1 C2 1_555 1_555
C2 C3 1_555 1_555
C3 C4 1_555 1_555
C4 C5 1_555 1_555
C5 C6 1_555 1_555
C6 C1 1_555 1_555
C7 C1 1_555 1_555
C8 C7 1_555 1_555
H1 C8 1_555 1_555
C9 C8 1_555 1_555
C10 C9 1_555 1_555
H2 C10 1_555 1_555
C11 C10 1_555 1_555
C12 C7 1_555 1_555
H3 C12 1_555 1_555
O1 C16 1_555 1_555
C13 C9 1_555 1_555
C14 C13 1_555 1_555
H4 C14 1_555 1_555
C15 C14 1_555 1_555
H5 C15 1_555 1_555
C16 C15 1_555 1_555
C17 C16 1_555 1_555
H6 C17 1_555 1_555
C18 C13 1_555 1_555
H7 C18 1_555 1_555
C19 O1 1_555 1_555
H8 C19 1_555 1_555
H9 C19 1_555 1_555
H10 C19 1_555 1_555
O2 C23 1_555 1_555
C20 C11 1_555 1_555
C21 C20 1_555 1_555
H11 C21 1_555 1_555
C22 C21 1_555 1_555
H12 C22 1_555 1_555
C23 C22 1_555 1_555
C24 C23 1_555 1_555
H13 C24 1_555 1_555
C25 C20 1_555 1_555
H14 C25 1_555 1_555
C26 O2 1_555 1_555
H15 C26 1_555 1_555
H16 C26 1_555 1_555
H17 C26 1_555 1_555
C27 C2 1_555 1_555
C28 C27 1_555 1_555
H18 C28 1_555 1_555
C29 C28 1_555 1_555
C30 C29 1_555 1_555
H19 C30 1_555 1_555
C31 C27 1_555 1_555
H20 C31 1_555 1_555
O3 C35 1_555 1_555
C32 C29 1_555 1_555
C33 C32 1_555 1_555
H21 C33 1_555 1_555
C34 C33 1_555 1_555
H22 C34 1_555 1_555
C35 C34 1_555 1_555
C36 C35 1_555 1_555
H23 C36 1_555 1_555
C37 C32 1_555 1_555
H24 C37 1_555 1_555
C38 O3 1_555 1_555
H25 C38 1_555 1_555
H26 C38 1_555 1_555
H27 C38 1_555 1_555
C39 C30 1_555 1_555
O4 C43 1_555 1_555
C40 C39 1_555 1_555
C41 C40 1_555 1_555
H28 C41 1_555 1_555
C42 C41 1_555 1_555
H29 C42 1_555 1_555
C43 C42 1_555 1_555
C44 C43 1_555 1_555
H30 C44 1_555 1_555
C45 C40 1_555 1_555
H31 C45 1_555 1_555
C46 O4 1_555 1_555
H32 C46 1_555 1_555
H33 C46 1_555 1_555
H34 C46 1_555 1_555
C47 C3 1_555 1_555
C48 C47 1_555 1_555
H35 C48 1_555 1_555
C49 C48 1_555 1_555
C50 C49 1_555 1_555
H36 C50 1_555 1_555
C51 C47 1_555 1_555
H37 C51 1_555 1_555
O5 C52 1_555 1_555
C52 H38 1_555 1_555
H39 C52 1_555 1_555
H40 C52 1_555 1_555
O6 C56 1_555 1_555
C53 C54 1_555 1_555
C54 H41 1_555 1_555
C55 C54 1_555 1_555
H42 C55 1_555 1_555
C56 C55 1_555 1_555
C57 C56 1_555 1_555
H43 C57 1_555 1_555
C58 C53 1_555 1_555
H44 C58 1_555 1_555
C59 O6 1_555 1_555
H45 C59 1_555 1_555
H46 C59 1_555 1_555
H47 C59 1_555 1_555
C60 C50 1_555 1_555
C61 C49 1_555 1_555
C62 C61 1_555 1_555
H48 C62 1_555 1_555
C63 C62 1_555 1_555
H49 C63 1_555 1_555
C64 O5 1_555 1_555
C65 C64 1_555 1_555
H50 C65 1_555 1_555
C66 C61 1_555 1_555
H51 C66 1_555 1_555
C67 C4 1_555 1_555
C68 C67 1_555 1_555
H52 C68 1_555 1_555
C69 C68 1_555 1_555
C70 C69 1_555 1_555
H53 C70 1_555 1_555
C71 C67 1_555 1_555
H54 C71 1_555 1_555
O7 C72 1_555 1_555
C72 H55 1_555 1_555
H56 C72 1_555 1_555
H57 C72 1_555 1_555
O8 C83 1_555 1_555
C73 C69 1_555 1_555
C74 C73 1_555 1_555
H58 C74 1_555 1_555
C75 C74 1_555 1_555
H59 C75 1_555 1_555
C76 O7 1_555 1_555
C77 C76 1_555 1_555
H60 C77 1_555 1_555
C78 C73 1_555 1_555
H61 C78 1_555 1_555
C79 C70 1_555 1_555
C80 C79 1_555 1_555
C81 C80 1_555 1_555
H62 C81 1_555 1_555
C82 C81 1_555 1_555
H63 C82 1_555 1_555
C83 C82 1_555 1_555
C84 C83 1_555 1_555
H64 C84 1_555 1_555
C85 C80 1_555 1_555
H65 C85 1_555 1_555
C86 C5 1_555 1_555
C87 C86 1_555 1_555
H66 C87 1_555 1_555
C88 H67 1_555 1_555
C89 C88 1_555 1_555
C90 C86 1_555 1_555
H68 C90 1_555 1_555
O9 C91 1_555 1_555
O10 C92 1_555 1_555
C91 H69 1_555 1_555
H70 C91 1_555 1_555
H71 C91 1_555 1_555
C92 H72 1_555 1_555
H73 C92 1_555 1_555
H74 C92 1_555 1_555
C93 C87 1_555 1_555
C94 C93 1_555 1_555
C95 C94 1_555 1_555
H75 C95 1_555 1_555
C96 C95 1_555 1_555
H76 C96 1_555 1_555
C97 O9 1_555 1_555
C98 C97 1_555 1_555
H77 C98 1_555 1_555
C99 C94 1_555 1_555
H78 C99 1_555 1_555
C100 C89 1_555 1_555
C101 C100 1_555 1_555
H79 C101 1_555 1_555
C102 C101 1_555 1_555
H80 C102 1_555 1_555
C103 O10 1_555 1_555
C104 C103 1_555 1_555
H81 C104 1_555 1_555
C105 C100 1_555 1_555
H82 C105 1_555 1_555
C106 C6 1_555 1_555
C107 C106 1_555 1_555
H83 C107 1_555 1_555
C108 C107 1_555 1_555
C109 C108 1_555 1_555
H84 C109 1_555 1_555
C110 C109 1_555 1_555
C111 C106 1_555 1_555
H85 C111 1_555 1_555
O11 C112 1_555 1_555
C112 H86 1_555 1_555
H87 C112 1_555 1_555
H88 C112 1_555 1_555
C113 C108 1_555 1_555
C114 C113 1_555 1_555
H89 C114 1_555 1_555
C115 C114 1_555 1_555
H90 C115 1_555 1_555
C116 O11 1_555 1_555
C117 C116 1_555 1_555
H91 C117 1_555 1_555
C118 C113 1_555 1_555
H92 C118 1_555 1_555
O12 C122 1_555 1_555
C119 C110 1_555 1_555
C120 C119 1_555 1_555
H93 C120 1_555 1_555
C121 C120 1_555 1_555
H94 C121 1_555 1_555
C122 C121 1_555 1_555
C123 C122 1_555 1_555
H95 C123 1_555 1_555
C124 C119 1_555 1_555
H96 C124 1_555 1_555
C125 O12 1_555 1_555
H97 C125 1_555 1_555
H98 C125 1_555 1_555
H99 C125 1_555 1_555
H100 C126 1_555 1_555
H101 C126 1_555 1_555
H102 C126 1_555 1_555
C126 O8 1_555 1_555
C127 C128 1_555 1_555
C128 C129 1_555 1_555
C129 C130 1_555 1_555
C130 C131 1_555 1_555
C131 C127 1_555 1_555
C132 C127 1_555 1_555
C133 C132 1_555 1_555
C134 C133 1_555 1_555
C135 C134 1_555 1_555
C136 C132 1_555 1_555
C137 C128 1_555 1_555
C138 C136 1_555 1_555
C139 C138 1_555 1_555
C140 C139 1_555 1_555
C141 C137 1_555 1_555
C142 C129 1_555 1_555
C143 C141 1_555 1_555
C144 C143 1_555 1_555
C145 C144 1_555 1_555
C146 C142 1_555 1_555
C147 C130 1_555 1_555
C148 C146 1_555 1_555
C149 C148 1_555 1_555
C150 C149 1_555 1_555
C151 C147 1_555 1_555
C152 C131 1_555 1_555
C153 C151 1_555 1_555
C154 C153 1_555 1_555
C155 C154 1_555 1_555
C156 C133 1_555 1_555
C157 C134 1_555 1_555
C158 C155 1_555 1_555
C159 C158 1_555 1_555
C160 C159 1_555 1_555
C161 C157 1_555 1_555
C162 C135 1_555 1_555
C163 C161 1_555 1_555
C164 C163 1_555 1_555
C165 C164 1_555 1_555
C166 C139 1_555 1_555
C167 C140 1_555 1_555
C168 C165 1_555 1_555
C169 C168 1_555 1_555
C170 C169 1_555 1_555
C171 C144 1_555 1_555
C172 C145 1_555 1_555
C173 C149 1_555 1_555
C174 C173 1_555 1_555
C175 C174 1_555 1_555
C176 C170 1_555 1_555
C177 C150 1_555 1_555
C178 C174 1_555 1_555
C179 C178 1_555 1_555
C180 C159 1_555 1_555
C181 C154 1_555 1_555
C182 C160 1_555 1_555
C183 C164 1_555 1_555
C184 C169 1_555 1_555
C185 C175 1_555 1_555
C186 C179 1_555 1_555
C11 C12 1_555 1_555
C17 C18 1_555 1_555
C24 C25 1_555 1_555
C31 C39 1_555 1_555
C36 C37 1_555 1_555
C44 C45 1_555 1_555
C51 C60 1_555 1_555
C53 C60 1_555 1_555
C57 C58 1_555 1_555
C63 C64 1_555 1_555
C65 C66 1_555 1_555
C71 C79 1_555 1_555
C75 C76 1_555 1_555
C77 C78 1_555 1_555
C84 C85 1_555 1_555
C88 C93 1_555 1_555
C89 C90 1_555 1_555
C96 C97 1_555 1_555
C98 C99 1_555 1_555
C102 C103 1_555 1_555
C104 C105 1_555 1_555
C110 C111 1_555 1_555
C115 C116 1_555 1_555
C117 C118 1_555 1_555
C123 C124 1_555 1_555
C135 C136 1_555 1_555
C137 C138 1_555 1_555
C140 C141 1_555 1_555
C142 C143 1_555 1_555
C145 C146 1_555 1_555
C147 C148 1_555 1_555
C150 C151 1_555 1_555
C152 C153 1_555 1_555
C152 C156 1_555 1_555
C155 C156 1_555 1_555
C157 C158 1_555 1_555
C160 C161 1_555 1_555
C162 C163 1_555 1_555
C162 C166 1_555 1_555
C165 C166 1_555 1_555
C167 C168 1_555 1_555
C167 C171 1_555 1_555
C170 C171 1_555 1_555
C172 C173 1_555 1_555
C172 C176 1_555 1_555
C175 C176 1_555 1_555
C177 C178 1_555 1_555
C177 C181 1_555 1_555
C179 C180 1_555 1_555
C180 C181 1_555 1_555
C182 C183 1_555 1_555
C182 C186 1_555 1_555
C183 C184 1_555 1_555
C184 C185 1_555 1_555
C185 C186 1_555 1_555

#END
