
#######################################################################
#
#                 Cambridge Crystallographic Data Centre
#                                CCDC 
#
#######################################################################
#
# If this CIF has been generated from an entry in the Cambridge 
# Structural Database, then it will include bibliographic, chemical, 
# crystal, experimental, refinement or atomic coordinate data resulting 
# from the CCDC's data processing and validation procedures.
#
#######################################################################

data_FEFDIG
_chemical_formula_moiety         'C15 H18 N6 O1'
_chemical_name_systematic        
7'-amino-5'-benzyl-5'H-spiro[cyclopentane-1,8'-tetrazolo[1,5-a]pyrazin]-6'(7'H)-one
_symmetry_cell_setting           monoclinic
_symmetry_space_group_name_H-M   'P 21/c'
_symmetry_Int_Tables_number      14
_space_group_name_Hall           '-P 2ybc'
loop_
_symmetry_equiv_pos_site_id
_symmetry_equiv_pos_as_xyz
1 x,y,z
2 -x,1/2+y,1/2-z
3 -x,-y,-z
4 x,1/2-y,1/2+z
_cell_length_a                   11.5427(4)
_cell_length_b                   8.6359(3)
_cell_length_c                   14.6147(5)
_cell_angle_alpha                90
_cell_angle_beta                 93.932(3)
_cell_angle_gamma                90
_cell_volume                     1453.39
_exptl_crystal_colour            white
_exptl_crystal_description       prism
_cell_formula_units_Z            4
loop_
_atom_site_label
_atom_site_type_symbol
_atom_site_fract_x
_atom_site_fract_y
_atom_site_fract_z
N1 N 0.36110(11) 0.21813(14) 0.83632(8)
N2 N 0.37390(10) -0.04106(14) 0.94171(8)
N3 N 0.35266(12) 0.35864(16) 0.78528(9)
O1 O 0.43358(10) 0.08893(13) 0.71787(7)
N4 N 0.38428(11) -0.15366(16) 1.00666(8)
N5 N 0.32143(11) 0.06159(16) 1.06737(8)
C1 C 0.39486(12) -0.06616(17) 0.84568(9)
H1 H 0.4726 -0.1165 0.8432
C2 C 0.33562(12) 0.08796(17) 0.97941(9)
N6 N 0.35220(12) -0.09020(16) 1.08143(9)
C3 C 0.39880(12) 0.08913(17) 0.79577(9)
C4 C 0.30298(13) -0.17605(18) 0.79960(10)
H2 H 0.3189 -0.1893 0.7344
H3 H 0.3102 -0.2788 0.8294
C5 C 0.31347(12) 0.23464(17) 0.92708(9)
C6 C 0.11802(15) -0.1461(2) 0.88166(11)
H4 H 0.153 -0.2032 0.9318
C7 C 0.12661(15) -0.0333(2) 0.73296(11)
H5 H 0.1676 -0.0125 0.6801
C8 C 0.18026(13) -0.11846(18) 0.80488(10)
C9 C 0.18154(13) 0.27068(19) 0.91777(10)
H6 H 0.159 0.3182 0.8575
H7 H 0.1353 0.1754 0.9247
C10 C 0.36975(14) 0.37463(18) 0.98170(10)
H8 H 0.4041 0.3404 1.0423
H9 H 0.4314 0.4227 0.9473
C11 C -0.04675(15) -0.0072(2) 0.81309(14)
H10 H -0.1239 0.03 0.8156
C12 C 0.01428(16) 0.0216(2) 0.73728(13)
H11 H -0.0208 0.0795 0.6875
C13 C 0.00507(16) -0.0908(2) 0.88566(13)
H12 H -0.0365 -0.1106 0.9383
C14 C 0.1639(3) 0.3840(5) 0.9956(2)
H13 H 0.162 0.3297 1.0551
H14 H 0.0913 0.4442 0.984
C15 C 0.2716(3) 0.4881(3) 0.9930(3)
H15 H 0.2636 0.5611 0.9407
H16 H 0.2846 0.5478 1.0506
H17 H 0.427(2) 0.410(3) 0.7889(15)
H18 H 0.339(2) 0.334(3) 0.7241(17)
C16? C 0.2670(14) 0.450(4) 1.0268(19)
H19? H 0.2543 0.3975 1.0857
H20? H 0.2829 0.5605 1.0392
C17? C 0.174(3) 0.434(3) 0.969(3)
H21? H 0.1713 0.519 0.9233
H22? H 0.1027 0.4385 1.0026
loop_
_geom_bond_atom_site_label_1
_geom_bond_atom_site_label_2
_geom_bond_site_symmetry_1
_geom_bond_site_symmetry_2
N1 N3 1_555 1_555
N2 N4 1_555 1_555
N3 H17 1_555 1_555
O1 C3 1_555 1_555
N4 N6 1_555 1_555
N5 C2 1_555 1_555
C1 N2 1_555 1_555
H1 C1 1_555 1_555
C2 N2 1_555 1_555
N6 N5 1_555 1_555
C3 N1 1_555 1_555
C4 C1 1_555 1_555
H2 C4 1_555 1_555
H3 C4 1_555 1_555
C5 N1 1_555 1_555
C6 H4 1_555 1_555
C7 H5 1_555 1_555
C8 C4 1_555 1_555
C9 C5 1_555 1_555
H6 C9 1_555 1_555
H7 C9 1_555 1_555
C10 C5 1_555 1_555
H8 C10 1_555 1_555
H9 C10 1_555 1_555
C11 H10 1_555 1_555
C12 C7 1_555 1_555
H11 C12 1_555 1_555
C13 C6 1_555 1_555
H12 C13 1_555 1_555
C14 C9 1_555 1_555
H13 C14 1_555 1_555
H14 C14 1_555 1_555
C15 C10 1_555 1_555
H15 C15 1_555 1_555
H16 C15 1_555 1_555
H18 N3 1_555 1_555
C1 C3 1_555 1_555
C2 C5 1_555 1_555
C6 C8 1_555 1_555
C7 C8 1_555 1_555
C11 C12 1_555 1_555
C11 C13 1_555 1_555
C14 C15 1_555 1_555

#END
