
#######################################################################
#
#                 Cambridge Crystallographic Data Centre
#                                CCDC 
#
#######################################################################
#
# If this CIF has been generated from an entry in the Cambridge 
# Structural Database, then it will include bibliographic, chemical, 
# crystal, experimental, refinement or atomic coordinate data resulting 
# from the CCDC's data processing and validation procedures.
#
#######################################################################

data_FEFDAY
_chemical_formula_moiety         'C15 H26 N6 O4'
_chemical_name_systematic        
't-butyl 2-(1-(1-(2-methoxy-2-oxoethyl)-1H-tetrazol-5-yl)cyclohexyl)hydrazinecarboxylate'
_symmetry_cell_setting           monoclinic
_symmetry_space_group_name_H-M   'C 2/c'
_symmetry_Int_Tables_number      15
_space_group_name_Hall           '-C 2yn'
loop_
_symmetry_equiv_pos_site_id
_symmetry_equiv_pos_as_xyz
1 x,y,z
2 -x,y,1/2-z
3 1/2+x,1/2+y,z
4 1/2-x,1/2+y,1/2-z
5 -x,-y,-z
6 x,-y,1/2+z
7 1/2-x,1/2-y,-z
8 1/2+x,1/2-y,1/2+z
_cell_length_a                   15.8975(6)
_cell_length_b                   12.9679(3)
_cell_length_c                   19.3594(9)
_cell_angle_alpha                90
_cell_angle_beta                 115.611(5)
_cell_angle_gamma                90
_cell_volume                     3598.95
_exptl_crystal_colour            white
_exptl_crystal_description       column
_cell_formula_units_Z            8
loop_
_atom_site_label
_atom_site_type_symbol
_atom_site_fract_x
_atom_site_fract_y
_atom_site_fract_z
O1 O 0.61008(8) 0.17940(8) 0.14535(6)
O2 O 0.55788(7) -0.31620(7) 0.05179(6)
O3 O 0.51442(8) -0.14916(7) 0.05316(6)
O4 O 0.73195(9) 0.19000(9) 0.11572(8)
N1 N 0.59413(9) -0.20111(9) -0.01470(7)
N2 N 0.73163(9) -0.02633(9) 0.10411(7)
N3 N 0.58950(9) -0.10098(9) -0.04505(7)
N4 N 0.80672(10) -0.04607(10) 0.17120(7)
N5 N 0.83002(9) -0.11105(9) 0.07670(7)
N6 N 0.86536(10) -0.09674(10) 0.15415(7)
C1 C 0.61081(11) 0.05851(12) -0.15205(9)
H1 H 0.5471 0.0379 -0.165
H2 H 0.6098 0.1299 -0.1673
C2 C 0.61528(13) 0.28951(12) 0.15930(11)
H3 H 0.6762 0.3069 0.1979
H4 H 0.5692 0.309 0.1765
H5 H 0.6039 0.3256 0.1128
C3 C 0.55129(10) -0.21587(10) 0.03222(8)
C4 C 0.74689(10) -0.06718(10) 0.04646(8)
C5 C 0.64958(12) -0.00822(14) -0.19618(9)
H6 H 0.6075 -0.0057 -0.2503
H7 H 0.7093 0.0192 -0.1896
C6 C 0.52731(11) -0.35074(11) 0.11051(9)
C7 C 0.55457(12) -0.46370(12) 0.12036(10)
H8 H 0.5244 -0.4983 0.0719
H9 H 0.5356 -0.4947 0.1564
H10 H 0.621 -0.4697 0.139
C8 C 0.68125(10) -0.06348(10) -0.03749(8)
C9 C 0.66878(10) 0.04942(11) -0.06564(8)
H11 H 0.6387 0.0883 -0.0398
H12 H 0.7297 0.0797 -0.0519
C10 C 0.66188(12) -0.11977(13) -0.16912(9)
H13 H 0.6912 -0.1586 -0.1956
H14 H 0.6012 -0.15 -0.1818
C11 C 0.67236(11) 0.14117(11) 0.12242(8)
C12 C 0.72153(10) -0.12747(11) -0.08292(8)
H15 H 0.7841 -0.1035 -0.0709
H16 H 0.7257 -0.1991 -0.0674
C13 C 0.42250(11) -0.33993(13) 0.07935(11)
H17 H 0.4058 -0.2683 0.0713
H18 H 0.4022 -0.3684 0.1154
H19 H 0.393 -0.3762 0.0316
C14 C 0.65222(11) 0.02803(11) 0.10497(9)
H20 H 0.636 -0.0027 0.1433
H21 H 0.5991 0.0205 0.0555
C15 C 0.58028(14) -0.29258(14) 0.18473(10)
H22 H 0.6456 -0.2922 0.1968
H23 H 0.5711 -0.3258 0.2253
H24 H 0.5577 -0.223 0.1791
H25 H 0.5464(12) -0.1013(13) -0.0957(10)
H26 H 0.6105(11) -0.2558(13) -0.0330(9)
loop_
_geom_bond_atom_site_label_1
_geom_bond_atom_site_label_2
_geom_bond_site_symmetry_1
_geom_bond_site_symmetry_2
O1 C2 1_555 1_555
O2 C3 1_555 1_555
O3 C3 1_555 1_555
O4 C11 1_555 1_555
N1 N3 1_555 1_555
N2 N4 1_555 1_555
N3 C8 1_555 1_555
N4 N6 1_555 1_555
N5 N6 1_555 1_555
C1 H1 1_555 1_555
H2 C1 1_555 1_555
C2 H3 1_555 1_555
H4 C2 1_555 1_555
H5 C2 1_555 1_555
C3 N1 1_555 1_555
C4 N2 1_555 1_555
C5 C1 1_555 1_555
H6 C5 1_555 1_555
H7 C5 1_555 1_555
C6 O2 1_555 1_555
C7 C6 1_555 1_555
H8 C7 1_555 1_555
H9 C7 1_555 1_555
H10 C7 1_555 1_555
C8 C4 1_555 1_555
C9 C1 1_555 1_555
H11 C9 1_555 1_555
H12 C9 1_555 1_555
C10 C5 1_555 1_555
H13 C10 1_555 1_555
H14 C10 1_555 1_555
C11 O1 1_555 1_555
C12 C8 1_555 1_555
H15 C12 1_555 1_555
H16 C12 1_555 1_555
C13 C6 1_555 1_555
H17 C13 1_555 1_555
H18 C13 1_555 1_555
H19 C13 1_555 1_555
C14 N2 1_555 1_555
H20 C14 1_555 1_555
H21 C14 1_555 1_555
C15 C6 1_555 1_555
H22 C15 1_555 1_555
H23 C15 1_555 1_555
H24 C15 1_555 1_555
H25 N3 1_555 1_555
H26 N1 1_555 1_555
N5 C4 1_555 1_555
C8 C9 1_555 1_555
C10 C12 1_555 1_555
C11 C14 1_555 1_555

#END
