
#######################################################################
#
#                 Cambridge Crystallographic Data Centre
#                                CCDC 
#
#######################################################################
#
# If this CIF has been generated from an entry in the Cambridge 
# Structural Database, then it will include bibliographic, chemical, 
# crystal, experimental, refinement or atomic coordinate data resulting 
# from the CCDC's data processing and validation procedures.
#
#######################################################################

data_FEFJEH
_chemical_formula_moiety         'C16 H10 N4 O4'
_chemical_name_systematic        
5-Carboxy-3-(pyridin-1-ium-2-yl)-6-(pyridin-2-yl)pyrazine-2-carboxylate
_symmetry_cell_setting           monoclinic
_symmetry_space_group_name_H-M   'P 21/c'
_symmetry_Int_Tables_number      14
_space_group_name_Hall           '-P 2ybc'
loop_
_symmetry_equiv_pos_site_id
_symmetry_equiv_pos_as_xyz
1 x,y,z
2 -x,1/2+y,1/2-z
3 -x,-y,-z
4 x,1/2-y,1/2+z
_cell_length_a                   8.304(3)
_cell_length_b                   9.6840(10)
_cell_length_c                   17.802(2)
_cell_angle_alpha                90
_cell_angle_beta                 93.890(10)
_cell_angle_gamma                90
_cell_volume                     1428.27
_exptl_crystal_colour            colorless
_exptl_crystal_description       rod
_cell_formula_units_Z            4
loop_
_atom_site_label
_atom_site_type_symbol
_atom_site_fract_x
_atom_site_fract_y
_atom_site_fract_z
O1 O 0.6004(3) -0.3146(2) 0.05568(12)
O2 O 0.7772(3) -0.3595(2) 0.15328(13)
O3 O 0.5723(3) 0.3148(2) 0.21142(12)
O4 O 0.7608(3) 0.3811(2) 0.13479(13)
N1 N 0.7303(3) 0.1069(3) 0.08187(13)
N2 N 0.7305(3) -0.0916(3) 0.19477(13)
N3 N 0.8607(3) -0.1718(3) -0.02336(13)
N4 N 0.6567(4) -0.0069(3) 0.33651(13)
C1 C 0.7395(4) -0.0271(3) 0.06572(15)
C2 C 0.7278(4) -0.1275(3) 0.12231(15)
C3 C 0.7287(4) 0.0440(3) 0.21090(15)
C4 C 0.7188(4) 0.1433(3) 0.15377(15)
C5 C 0.7623(4) -0.0648(3) -0.01387(15)
C6 C 0.6891(4) 0.0109(3) -0.07274(16)
C7 C 0.7123(5) -0.0301(4) -0.14580(17)
C8 C 0.8116(5) -0.1408(4) -0.15661(17)
C9 C 0.8836(4) -0.2080(4) -0.09475(17)
C10 C 0.6967(4) -0.2791(3) 0.10605(16)
C11 C 0.7422(4) 0.0757(3) 0.29247(16)
C12 C 0.8446(4) 0.1715(3) 0.32588(17)
C13 C 0.8587(4) 0.1823(4) 0.40439(18)
C14 C 0.7696(4) 0.0969(4) 0.44688(18)
C15 C 0.6672(4) 0.0026(4) 0.41177(16)
C16 C 0.6829(4) 0.2937(3) 0.16834(15)
H1 H 0.750(5) -0.447(2) 0.145(2)
H2 H 0.584(4) -0.065(3) 0.3160(19)
H3 H 0.62520 0.08840 -0.06340
H4 H 0.66110 0.01670 -0.18710
H5 H 0.83020 -0.17040 -0.20550
H6 H 0.95220 -0.28290 -0.10300
H7 H 0.90510 0.22970 0.29630
H8 H 0.92900 0.24770 0.42790
H9 H 0.77860 0.10310 0.49970
H10 H 0.60440 -0.05550 0.44040
loop_
_geom_bond_atom_site_label_1
_geom_bond_atom_site_label_2
_geom_bond_site_symmetry_1
_geom_bond_site_symmetry_2
O1 C10 1_555 1_555
O2 C10 1_555 1_555
O3 C16 1_555 1_555
O4 C16 1_555 1_555
N1 C1 1_555 1_555
N2 C2 1_555 1_555
N3 C5 1_555 1_555
N4 C11 1_555 1_555
C1 C2 1_555 1_555
C2 C10 1_555 1_555
C3 N2 1_555 1_555
C4 N1 1_555 1_555
C5 C1 1_555 1_555
C6 C5 1_555 1_555
C7 C6 1_555 1_555
C8 C7 1_555 1_555
C9 N3 1_555 1_555
C11 C3 1_555 1_555
C12 C11 1_555 1_555
C13 C12 1_555 1_555
C14 C13 1_555 1_555
C15 N4 1_555 1_555
C16 C4 1_555 1_555
H1 O2 1_555 1_555
H2 N4 1_555 1_555
H3 C6 1_555 1_555
H4 C7 1_555 1_555
H5 C8 1_555 1_555
H6 C9 1_555 1_555
H7 C12 1_555 1_555
H8 C13 1_555 1_555
H9 C14 1_555 1_555
H10 C15 1_555 1_555
C3 C4 1_555 1_555
C8 C9 1_555 1_555
C14 C15 1_555 1_555

#END
