
#######################################################################
#
#                 Cambridge Crystallographic Data Centre
#                                CCDC 
#
#######################################################################
#
# If this CIF has been generated from an entry in the Cambridge 
# Structural Database, then it will include bibliographic, chemical, 
# crystal, experimental, refinement or atomic coordinate data resulting 
# from the CCDC's data processing and validation procedures.
#
#######################################################################

data_FEFJOR
_chemical_formula_moiety         'C16 H10 N4 O4,2(C2 H6 O1 S1)'
_chemical_name_systematic        
'3,6-Bis(pyridin-2-yl)pyrazine-2,5-dicarboxylic acid dimethyl sulfoxide solvate'
_symmetry_cell_setting           monoclinic
_symmetry_space_group_name_H-M   'P 21/n'
_symmetry_Int_Tables_number      14
_space_group_name_Hall           '-P 2yn'
loop_
_symmetry_equiv_pos_site_id
_symmetry_equiv_pos_as_xyz
1 x,y,z
2 1/2-x,1/2+y,1/2-z
3 -x,-y,-z
4 1/2+x,1/2-y,1/2+z
_cell_length_a                   13.0670(10)
_cell_length_b                   6.1380(10)
_cell_length_c                   14.4530(10)
_cell_angle_alpha                90
_cell_angle_beta                 103.590(10)
_cell_angle_gamma                90
_cell_volume                     1126.75
_exptl_crystal_colour            colorless
_exptl_crystal_description       rod
_cell_formula_units_Z            2
loop_
_atom_site_label
_atom_site_type_symbol
_atom_site_fract_x
_atom_site_fract_y
_atom_site_fract_z
O1 O 0.38051(15) 0.3095(3) 0.68347(12)
O2 O 0.54242(14) 0.1658(4) 0.70910(14)
N1 N 0.55440(16) 0.5453(3) 0.59271(14)
N2 N 0.36463(16) -0.0091(3) 0.52033(15)
C1 C 0.42877(19) 0.3352(4) 0.47999(18)
C2 C 0.4843(2) 0.3838(4) 0.57293(17)
C3 C 0.35261(19) 0.1527(4) 0.45630(17)
C4 C 0.2742(2) 0.1535(5) 0.37278(18)
C5 C 0.2060(2) -0.0222(5) 0.3539(2)
C6 C 0.2182(2) -0.1897(5) 0.4179(2)
C7 C 0.2977(2) -0.1765(4) 0.49948(19)
C8 C 0.4624(2) 0.2776(4) 0.66021(17)
H1 H 0.526(3) 0.119(5) 0.7597(17)
H2 H 0.26750 0.27080 0.33000
H3 H 0.15220 -0.02620 0.29790
H4 H 0.17330 -0.31140 0.40640
H5 H 0.30540 -0.29230 0.54310
O1B O 0.61949(15) 0.6905(3) 0.31653(12)
O2B O 0.45758(14) 0.8342(4) 0.29090(14)
N1B N 0.44560(16) 0.4547(3) 0.40729(14)
N2B N 0.63537(16) 1.0091(3) 0.47967(15)
C1B C 0.57123(19) 0.6648(4) 0.52001(18)
C2B C 0.5157(2) 0.6162(4) 0.42707(17)
C3B C 0.64739(19) 0.8473(4) 0.54370(17)
C4B C 0.7258(2) 0.8465(5) 0.62722(18)
C5B C 0.7940(2) 1.0222(5) 0.6461(2)
C6B C 0.7818(2) 1.1897(5) 0.5821(2)
C7B C 0.7023(2) 1.1765(4) 0.50052(19)
C8B C 0.5376(2) 0.7224(4) 0.33979(17)
H1B H 0.474(3) 0.881(5) 0.2403(17)
H2B H 0.73250 0.72920 0.67000
H3B H 0.84780 1.02620 0.70210
H4B H 0.82670 1.31140 0.59360
H5B H 0.69460 1.29230 0.45690
S1 S 0.38909(6) -0.05423(12) 0.86118(5)
O3 O 0.50225(14) 0.0048(3) 0.86415(13)
C9 C 0.3409(2) -0.1835(5) 0.75067(19)
C10 C 0.3951(3) -0.2859(6) 0.9351(2)
H6 H 0.38370 -0.31020 0.74610
H7 H 0.34370 -0.08280 0.69960
H8 H 0.26860 -0.22860 0.74540
H9 H 0.42300 -0.24430 1.00090
H10 H 0.44060 -0.39470 0.91690
H11 H 0.32500 -0.34580 0.92780
loop_
_geom_bond_atom_site_label_1
_geom_bond_atom_site_label_2
_geom_bond_site_symmetry_1
_geom_bond_site_symmetry_2
O1 C8 1_555 1_555
O2 C8 1_555 1_555
N1 C2 1_555 1_555
N2 C3 1_555 1_555
C1 C2 1_555 1_555
C2 C8 1_555 1_555
C3 C1 1_555 1_555
C4 C3 1_555 1_555
C5 C4 1_555 1_555
C6 C5 1_555 1_555
C7 N2 1_555 1_555
S1 O3 1_555 1_555
C9 S1 1_555 1_555
C10 S1 1_555 1_555
H1 O2 1_555 1_555
H2 C4 1_555 1_555
H3 C5 1_555 1_555
H4 C6 1_555 1_555
H5 C7 1_555 1_555
H6 C9 1_555 1_555
H7 C9 1_555 1_555
H8 C9 1_555 1_555
H9 C10 1_555 1_555
H10 C10 1_555 1_555
H11 C10 1_555 1_555
O1B C8B 1_555 1_555
O2B C8B 1_555 1_555
N1B C1 1_555 1_555
N2B C3B 1_555 1_555
C1B N1 1_555 1_555
C2B N1B 1_555 1_555
C3B C1B 1_555 1_555
C4B C3B 1_555 1_555
C5B C4B 1_555 1_555
C6B C5B 1_555 1_555
C7B N2B 1_555 1_555
C8B C2B 1_555 1_555
H1B O2B 1_555 1_555
H2B C4B 1_555 1_555
H3B C5B 1_555 1_555
H4B C6B 1_555 1_555
H5B C7B 1_555 1_555
C6 C7 1_555 1_555
C1B C2B 1_555 1_555
C6B C7B 1_555 1_555

#END
