
#######################################################################
#
#                 Cambridge Crystallographic Data Centre
#                                CCDC 
#
#######################################################################
#
# If this CIF has been generated from an entry in the Cambridge 
# Structural Database, then it will include bibliographic, chemical, 
# crystal, experimental, refinement or atomic coordinate data resulting 
# from the CCDC's data processing and validation procedures.
#
#######################################################################

data_FEFJEI
_chemical_formula_moiety         'C4 Cl2 N6 O10'
_chemical_name_systematic        
3,4-bis[chloro(dinitro)methyl]-2-oxo-1,2\l^5^,5-oxadiazole
_symmetry_cell_setting           triclinic
_symmetry_space_group_name_H-M   'P -1'
_symmetry_Int_Tables_number      2
_space_group_name_Hall           '-P 1'
loop_
_symmetry_equiv_pos_site_id
_symmetry_equiv_pos_as_xyz
1 x,y,z
2 -x,-y,-z
_cell_length_a                   6.454(3)
_cell_length_b                   8.568(4)
_cell_length_c                   11.642(6)
_cell_angle_alpha                96.165(8)
_cell_angle_beta                 98.183(7)
_cell_angle_gamma                103.260(7)
_cell_volume                     613.647
_exptl_crystal_colour            colorless
_exptl_crystal_description       block
_cell_formula_units_Z            2
loop_
_atom_site_label
_atom_site_type_symbol
_atom_site_fract_x
_atom_site_fract_y
_atom_site_fract_z
Cl1 Cl 0.24283(11) 0.80289(7) 0.42397(5)
Cl2 Cl 0.17521(10) 0.48251(7) 0.21542(6)
N1 N 0.2284(3) 1.0870(2) 0.35699(18)
N2 N 0.4357(3) 0.9274(3) 0.2488(2)
N3 N -0.0491(3) 0.9302(2) 0.14542(17)
N4 N -0.2501(3) 0.6718(2) 0.08704(17)
N5 N -0.2469(4) 0.3778(2) 0.11995(19)
N6 N -0.1617(3) 0.4936(3) 0.32874(18)
O1 O 0.0704(4) 1.0978(3) 0.3961(2)
O2 O 0.3879(3) 1.1913(2) 0.3537(2)
O3 O 0.5955(3) 0.9093(4) 0.3081(2)
O4 O 0.4149(3) 0.9630(3) 0.1510(2)
O5 O -0.0058(3) 1.0743(2) 0.13821(17)
O6 O -0.2324(3) 0.8271(2) 0.06407(14)
O7 O -0.4227(4) 0.3328(3) 0.1465(2)
O8 O -0.1843(4) 0.3366(2) 0.03172(18)
O9 O -0.2715(4) 0.5825(3) 0.3574(2)
O10 O -0.1127(4) 0.3880(3) 0.37889(19)
C1 C 0.2264(3) 0.9078(3) 0.30538(19)
C2 C 0.0326(3) 0.8358(2) 0.21390(18)
C3 C -0.0973(3) 0.6754(2) 0.17374(18)
C4 C -0.0791(4) 0.5157(3) 0.21071(19)
loop_
_geom_bond_atom_site_label_1
_geom_bond_atom_site_label_2
_geom_bond_site_symmetry_1
_geom_bond_site_symmetry_2
Cl1 C1 1_555 1_555
Cl2 C4 1_555 1_555
N1 O1 1_555 1_555
N2 O3 1_555 1_555
N3 O5 1_555 1_555
N4 O6 1_555 1_555
N5 O7 1_555 1_555
N6 O9 1_555 1_555
O2 N1 1_555 1_555
O4 N2 1_555 1_555
O6 N3 1_555 1_555
O8 N5 1_555 1_555
O10 N6 1_555 1_555
C1 N1 1_555 1_555
C2 N3 1_555 1_555
C3 N4 1_555 1_555
C4 N5 1_555 1_555
N2 C1 1_555 1_555
N6 C4 1_555 1_555
C1 C2 1_555 1_555
C2 C3 1_555 1_555
C3 C4 1_555 1_555

#END
