
#######################################################################
#
#                 Cambridge Crystallographic Data Centre
#                                CCDC 
#
#######################################################################
#
# If this CIF has been generated from an entry in the Cambridge 
# Structural Database, then it will include bibliographic, chemical, 
# crystal, experimental, refinement or atomic coordinate data resulting 
# from the CCDC's data processing and validation procedures.
#
#######################################################################

data_FEFJIM
_chemical_formula_moiety         'C16 H15 N1 O5'
_chemical_name_systematic        
3-(2-ethoxy-4-oxo-4,5-dihydrofuran-3-yl)-1-phenylpyrrolidine-2,5-dione
_symmetry_cell_setting           monoclinic
_symmetry_space_group_name_H-M   'P 21/n'
_symmetry_Int_Tables_number      14
_space_group_name_Hall           '-P 2yn'
loop_
_symmetry_equiv_pos_site_id
_symmetry_equiv_pos_as_xyz
1 x,y,z
2 1/2-x,1/2+y,1/2-z
3 -x,-y,-z
4 1/2+x,1/2-y,1/2+z
_cell_length_a                   5.4135(8)
_cell_length_b                   8.3175(11)
_cell_length_c                   31.982(4)
_cell_angle_alpha                90
_cell_angle_beta                 93.664(12)
_cell_angle_gamma                90
_cell_volume                     1437.1
_exptl_crystal_colour            colorless
_exptl_crystal_description       block
_cell_formula_units_Z            4
loop_
_atom_site_label
_atom_site_type_symbol
_atom_site_fract_x
_atom_site_fract_y
_atom_site_fract_z
O1 O 0.2610(4) 0.2238(2) 0.59166(6)
O2 O 1.0801(4) 0.7309(2) 0.51463(7)
O3 O 0.9473(4) 0.5069(2) 0.63535(6)
O4 O 0.6214(4) 0.9312(2) 0.56958(6)
O5 O 0.4257(4) 0.7294(2) 0.60241(6)
N1 N 0.6168(4) 0.3395(2) 0.62125(6)
C1 C 0.7441(5) 0.6713(3) 0.55838(7)
C2 C 0.4389(5) 0.3099(3) 0.58865(8)
C3 C 0.5937(5) 0.7740(3) 0.57729(8)
C4 C 0.9054(5) 0.7671(3) 0.53535(8)
C5 C 0.7464(5) 0.4936(3) 0.56455(8)
H1 H 0.8812 0.4482 0.5492
C6 C 0.6123(5) 0.2723(3) 0.66249(8)
C7 C 0.5066(5) 0.4040(3) 0.55101(8)
H2 H 0.3763 0.4795 0.5425
H3 H 0.5328 0.3326 0.5277
C8 C 0.7922(5) 0.4516(3) 0.61073(8)
C9 C 0.8205(6) 0.9410(3) 0.54141(10)
H4 H 0.9554 1.0060 0.5536
H5 H 0.7620 0.9879 0.5148
C10 C 0.4210(6) 0.3082(4) 0.68684(9)
H6 H 0.2934 0.3753 0.6767
C11 C 0.8023(6) 0.1746(4) 0.67749(11)
H7 H 0.9320 0.1499 0.6609
C12 C 0.3040(7) 0.8430(4) 0.62822(10)
H8 H 0.3563 0.9512 0.6217
H9 H 0.1263 0.8363 0.6223
C13 C 0.4191(7) 0.2432(5) 0.72687(10)
H10 H 0.2881 0.2655 0.7434
C14 C 0.6069(8) 0.1477(5) 0.74192(11)
H11 H 0.6055 0.1055 0.7688
C15 C 0.7979(8) 0.1136(5) 0.71758(13)
H12 H 0.9268 0.0484 0.7281
C16 C 0.3623(13) 0.8105(6) 0.67102(12)
H13 H 0.5386 0.8145 0.6766
H14 H 0.3028 0.7055 0.6777
H15 H 0.2853 0.8894 0.6878
loop_
_geom_bond_atom_site_label_1
_geom_bond_atom_site_label_2
_geom_bond_site_symmetry_1
_geom_bond_site_symmetry_2
O1 C2 1_555 1_555
O2 C4 1_555 1_555
O3 C8 1_555 1_555
O4 C3 1_555 1_555
O5 C3 1_555 1_555
N1 C2 1_555 1_555
C1 C3 1_555 1_555
C2 C7 1_555 1_555
C4 C1 1_555 1_555
C5 C1 1_555 1_555
H1 C5 1_555 1_555
C6 N1 1_555 1_555
C7 C5 1_555 1_555
H2 C7 1_555 1_555
H3 C7 1_555 1_555
C8 N1 1_555 1_555
C9 O4 1_555 1_555
H4 C9 1_555 1_555
H5 C9 1_555 1_555
C10 C6 1_555 1_555
H6 C10 1_555 1_555
C11 C6 1_555 1_555
H7 C11 1_555 1_555
C12 O5 1_555 1_555
H8 C12 1_555 1_555
H9 C12 1_555 1_555
C13 C10 1_555 1_555
H10 C13 1_555 1_555
C14 C13 1_555 1_555
H11 C14 1_555 1_555
C15 C11 1_555 1_555
H12 C15 1_555 1_555
C16 C12 1_555 1_555
H13 C16 1_555 1_555
H14 C16 1_555 1_555
H15 C16 1_555 1_555
C4 C9 1_555 1_555
C5 C8 1_555 1_555
C14 C15 1_555 1_555

#END
