
#######################################################################
#
#                 Cambridge Crystallographic Data Centre
#                                CCDC 
#
#######################################################################
#
# If this CIF has been generated from an entry in the Cambridge 
# Structural Database, then it will include bibliographic, chemical, 
# crystal, experimental, refinement or atomic coordinate data resulting 
# from the CCDC's data processing and validation procedures.
#
#######################################################################

data_FEFKUY
_chemical_formula_moiety         'C6 H7 N1 O2 S1'
_chemical_name_systematic        '2,4-Dimethyl-1,3-thiazole-5-carboxylic acid'
_symmetry_cell_setting           monoclinic
_symmetry_space_group_name_H-M   'P 21/c'
_symmetry_Int_Tables_number      14
_space_group_name_Hall           '-P 2ybc'
loop_
_symmetry_equiv_pos_site_id
_symmetry_equiv_pos_as_xyz
1 x,y,z
2 -x,1/2+y,1/2-z
3 -x,-y,-z
4 x,1/2-y,1/2+z
_cell_length_a                   4.8120(3)
_cell_length_b                   14.3729(7)
_cell_length_c                   9.9178(5)
_cell_angle_alpha                90
_cell_angle_beta                 94.037(2)
_cell_angle_gamma                90
_cell_volume                     684.237
_exptl_crystal_colour            colorless
_exptl_crystal_description       plate
_cell_formula_units_Z            4
loop_
_atom_site_label
_atom_site_type_symbol
_atom_site_fract_x
_atom_site_fract_y
_atom_site_fract_z
S1 S 0.45810(5) 0.619635(16) 0.00899(3)
O1 O 0.78973(17) 0.72378(5) -0.16442(8)
O2 O 0.66108(19) 0.86916(5) -0.10973(9)
N1 N 0.15541(18) 0.71303(6) 0.16100(9)
C1 C 0.4659(2) 0.73920(7) -0.00279(10)
C2 C 0.2919(2) 0.77796(7) 0.08597(10)
C3 C 0.2247(2) 0.62707(7) 0.13147(11)
C4 C 0.6463(2) 0.78554(7) -0.09681(10)
C5 C 0.2407(3) 0.87877(7) 0.11043(13)
C6 C 0.1226(2) 0.54277(7) 0.20076(12)
H1 H 0.889(5) 0.7486(15) -0.220(2)
H2 H 0.057(5) 0.8942(14) 0.089(2)
H3 H 0.275(5) 0.8936(12) 0.196(2)
H4 H 0.356(5) 0.9172(15) 0.059(2)
H5 H -0.040(4) 0.5538(13) 0.240(2)
H6 H 0.256(5) 0.5241(14) 0.270(2)
H7 H 0.097(4) 0.4920(11) 0.147(2)
loop_
_geom_bond_atom_site_label_1
_geom_bond_atom_site_label_2
_geom_bond_site_symmetry_1
_geom_bond_site_symmetry_2
S1 C1 1_555 1_555
O1 C4 1_555 1_555
O2 C4 1_555 1_555
N1 C2 1_555 1_555
C1 C2 1_555 1_555
C2 C5 1_555 1_555
C3 S1 1_555 1_555
C4 C1 1_555 1_555
C5 H2 1_555 1_555
C6 C3 1_555 1_555
H1 O1 1_555 1_555
H3 C5 1_555 1_555
H4 C5 1_555 1_555
H5 C6 1_555 1_555
H6 C6 1_555 1_555
H7 C6 1_555 1_555
N1 C3 1_555 1_555

#END
