
#######################################################################
#
#                 Cambridge Crystallographic Data Centre
#                                CCDC 
#
#######################################################################
#
# If this CIF has been generated from an entry in the Cambridge 
# Structural Database, then it will include bibliographic, chemical, 
# crystal, experimental, refinement or atomic coordinate data resulting 
# from the CCDC's data processing and validation procedures.
#
#######################################################################

data_FEFLUA
_chemical_formula_moiety         'C21 H19 Cl1 F3 N5 O1 S1,C1 H4 O1'
_chemical_name_systematic        
'3-(2-chloro-3,3,3-trifluoroprop-1-en-1-yl)-N-((3-cyano-1-(4-methylphenyl)-1H-pyrazol-5-yl)carbamothioyl)-2,2-dimethylcyclopropanecarboxamide methanol solvate'
_symmetry_cell_setting           triclinic
_symmetry_space_group_name_H-M   'P -1'
_symmetry_Int_Tables_number      2
_space_group_name_Hall           '-P 1'
loop_
_symmetry_equiv_pos_site_id
_symmetry_equiv_pos_as_xyz
1 x,y,z
2 -x,-y,-z
_cell_length_a                   7.8540(16)
_cell_length_b                   12.694(3)
_cell_length_c                   13.211(3)
_cell_angle_alpha                99.39(3)
_cell_angle_beta                 97.66(3)
_cell_angle_gamma                104.38(3)
_cell_volume                     1237.76
_exptl_crystal_colour            colorless
_exptl_crystal_description       plate
_cell_formula_units_Z            2
loop_
_atom_site_label
_atom_site_type_symbol
_atom_site_fract_x
_atom_site_fract_y
_atom_site_fract_z
C1 C 0.2332(6) 0.8450(4) 0.9956(3)
C2 C 0.2936(5) 0.8841(3) 0.9032(3)
C3 C 0.3857(5) 0.8353(3) 0.8445(3)
H1 H 0.4076 0.7707 0.8607
C4 C 0.4575(5) 0.8737(3) 0.7556(2)
H2 H 0.4329 0.9425 0.7416
C5 C 0.6335(5) 0.8597(3) 0.7330(3)
C6 C 0.4633(5) 0.7912(3) 0.6582(2)
H3 H 0.4436 0.8175 0.5930
C7 C 0.7472(6) 0.9527(3) 0.6917(3)
H4 H 0.8515 0.9918 0.7433
H5 H 0.6791 1.0032 0.6763
H6 H 0.7828 0.9219 0.6293
C8 C 0.7389(5) 0.8055(3) 0.8014(3)
H7 H 0.8407 0.8608 0.8441
H8 H 0.7786 0.7510 0.7586
H9 H 0.6648 0.7700 0.8453
C9 C 0.3945(5) 0.6706(3) 0.6467(3)
C10 C 0.2593(4) 0.5030(3) 0.5064(2)
C11 C 0.1118(4) 0.3351(3) 0.5632(2)
C12 C 0.0236(4) 0.2557(3) 0.4766(3)
H10 H 0.0193 0.2611 0.4070
C13 C -0.0584(5) 0.1646(3) 0.5167(3)
C14 C -0.1718(5) 0.0591(3) 0.4601(3)
C15 C 0.1388(4) 0.3360(3) 0.7578(2)
C16 C 0.1093(5) 0.4347(3) 0.8003(3)
H11 H 0.0536 0.4732 0.7585
C17 C 0.1642(5) 0.4759(3) 0.9068(3)
H12 H 0.1460 0.5431 0.9358
C18 C 0.2449(5) 0.4201(3) 0.9707(3)
C19 C 0.2692(5) 0.3209(3) 0.9259(3)
H13 H 0.3213 0.2813 0.9682
C20 C 0.2183(5) 0.2774(3) 0.8190(3)
H14 H 0.2377 0.2106 0.7899
C21 C 0.3009(6) 0.4657(4) 1.0871(3)
H15 H 0.3535 0.4158 1.1192
H16 H 0.1981 0.4731 1.1165
H17 H 0.3867 0.5371 1.0994
Cl1 Cl 0.23093(18) 1.00002(11) 0.88292(12)
F1 F 0.0672(4) 0.8074(4) 0.9861(3)
F2 F 0.2931(5) 0.9182(3) 1.0821(2)
F3 F 0.2963(5) 0.7622(3) 1.0174(2)
N1 N 0.3493(4) 0.6137(2) 0.54530(19)
H18 H 0.3812 0.6520 0.4996
N2 N 0.2185(4) 0.4432(2) 0.57936(19)
H19 H 0.2638 0.4757 0.6431
N3 N 0.0794(4) 0.2890(2) 0.6482(2)
N4 N -0.0248(4) 0.1834(2) 0.6201(2)
N5 N -0.2630(5) -0.0245(3) 0.4161(3)
O1 O 0.3738(4) 0.62236(19) 0.72016(17)
S1 S 0.21171(16) 0.45641(8) 0.37841(7)
C22 C 0.3889(6) 0.7388(4) 0.3005(3)
H20 H 0.3498 0.6602 0.2727
H21 H 0.4706 0.7742 0.2603
H22 H 0.2874 0.7683 0.2971
O2 O 0.4737(4) 0.7583(2) 0.4033(2)
H23 H 0.5376 0.8224 0.4205
loop_
_geom_bond_atom_site_label_1
_geom_bond_atom_site_label_2
_geom_bond_site_symmetry_1
_geom_bond_site_symmetry_2
C1 C2 1_555 1_555
C2 C3 1_555 1_555
C3 H1 1_555 1_555
C4 C3 1_555 1_555
H2 C4 1_555 1_555
C5 C4 1_555 1_555
C6 C4 1_555 1_555
H3 C6 1_555 1_555
C7 C5 1_555 1_555
H4 C7 1_555 1_555
H5 C7 1_555 1_555
H6 C7 1_555 1_555
C8 C5 1_555 1_555
H7 C8 1_555 1_555
H8 C8 1_555 1_555
H9 C8 1_555 1_555
C9 C6 1_555 1_555
C10 N1 1_555 1_555
C11 C12 1_555 1_555
C12 H10 1_555 1_555
C13 C12 1_555 1_555
C14 C13 1_555 1_555
C15 C16 1_555 1_555
C16 H11 1_555 1_555
C17 C16 1_555 1_555
H12 C17 1_555 1_555
C18 C17 1_555 1_555
C19 C18 1_555 1_555
H13 C19 1_555 1_555
C20 C15 1_555 1_555
H14 C20 1_555 1_555
C21 C18 1_555 1_555
H15 C21 1_555 1_555
H16 C21 1_555 1_555
H17 C21 1_555 1_555
Cl1 C2 1_555 1_555
F1 C1 1_555 1_555
F2 C1 1_555 1_555
F3 C1 1_555 1_555
N1 C9 1_555 1_555
H18 N1 1_555 1_555
N2 C10 1_555 1_555
H19 N2 1_555 1_555
N3 C11 1_555 1_555
N4 C13 1_555 1_555
N5 C14 1_555 1_555
O1 C9 1_555 1_555
S1 C10 1_555 1_555
C22 H20 1_555 1_555
H21 C22 1_555 1_555
H22 C22 1_555 1_555
O2 C22 1_555 1_555
H23 O2 1_555 1_555
C5 C6 1_555 1_555
C11 N2 1_555 1_555
C15 N3 1_555 1_555
C19 C20 1_555 1_555
N3 N4 1_555 1_555

#END
