
#######################################################################
#
#                 Cambridge Crystallographic Data Centre
#                                CCDC 
#
#######################################################################
#
# If this CIF has been generated from an entry in the Cambridge 
# Structural Database, then it will include bibliographic, chemical, 
# crystal, experimental, refinement or atomic coordinate data resulting 
# from the CCDC's data processing and validation procedures.
#
#######################################################################

data_FEFLAE
_chemical_formula_moiety         'C7 H7 I1 N2 O3'
_chemical_name_systematic        2-Iodo-6-methoxy-4-nitroaniline
_symmetry_cell_setting           triclinic
_symmetry_space_group_name_H-M   'P -1'
_symmetry_Int_Tables_number      2
_space_group_name_Hall           '-P 1'
loop_
_symmetry_equiv_pos_site_id
_symmetry_equiv_pos_as_xyz
1 x,y,z
2 -x,-y,-z
_cell_length_a                   8.0671(3)
_cell_length_b                   8.0739(4)
_cell_length_c                   8.6212(5)
_cell_angle_alpha                112.616(2)
_cell_angle_beta                 115.060(3)
_cell_angle_gamma                93.810(3)
_cell_volume                     451.546
_exptl_crystal_colour            yellow
_exptl_crystal_description       plate
_chemical_melting_point          427-431K
_cell_formula_units_Z            2
_exptl_crystal_recrystallization_method chloroform
loop_
_atom_site_label
_atom_site_type_symbol
_atom_site_fract_x
_atom_site_fract_y
_atom_site_fract_z
I1 I 0.21628(2) 0.90838(2) 0.66781(3)
O1 O 0.7476(3) 0.6384(3) 1.0752(3)
O2 O 0.7049(3) 0.3445(3) 0.9016(3)
O3 O 0.1721(3) 0.1987(3) 0.2458(3)
N1 N 0.0624(3) 0.5013(4) 0.2886(3)
N2 N 0.6613(3) 0.4922(3) 0.9212(3)
C1 C 0.2056(4) 0.5048(4) 0.4476(4)
C2 C 0.2989(4) 0.6607(4) 0.6293(4)
C3 C 0.4480(4) 0.6571(4) 0.7856(4)
C4 C 0.5038(4) 0.4954(4) 0.7597(4)
C5 C 0.4153(4) 0.3347(4) 0.5824(4)
C6 C 0.2686(4) 0.3417(4) 0.4282(4)
C7 C 0.2159(4) 0.0240(4) 0.2147(4)
H1 H 0.5103 0.7640 0.9079
H2 H 0.4550 0.2241 0.5686
H3 H 0.0225 0.6014 0.2957
H4 H 0.0094 0.3989 0.1783
H5 H 0.3503 0.0405 0.2487
H6 H 0.1361 -0.0667 0.0789
H7 H 0.1914 -0.0217 0.2952
loop_
_geom_bond_atom_site_label_1
_geom_bond_atom_site_label_2
_geom_bond_site_symmetry_1
_geom_bond_site_symmetry_2
I1 C2 1_555 1_555
O1 N2 1_555 1_555
O2 N2 1_555 1_555
O3 C6 1_555 1_555
N1 C1 1_555 1_555
N2 C4 1_555 1_555
C1 C2 1_555 1_555
C2 C3 1_555 1_555
C3 C4 1_555 1_555
C4 C5 1_555 1_555
C5 C6 1_555 1_555
C6 C1 1_555 1_555
C7 O3 1_555 1_555
H1 C3 1_555 1_555
H2 C5 1_555 1_555
H3 N1 1_555 1_555
H4 N1 1_555 1_555
H5 C7 1_555 1_555
H6 C7 1_555 1_555
H7 C7 1_555 1_555

#END
