
#######################################################################
#
#                 Cambridge Crystallographic Data Centre
#                                CCDC 
#
#######################################################################
#
# If this CIF has been generated from an entry in the Cambridge 
# Structural Database, then it will include bibliographic, chemical, 
# crystal, experimental, refinement or atomic coordinate data resulting 
# from the CCDC's data processing and validation procedures.
#
#######################################################################

data_FEFNIQ
_chemical_formula_moiety         'C20 H19 N1 O5'
_chemical_name_systematic        
'dimethyl 2-phenyl-2,3-dihydro-1,5-epoxy-1-benzazepine-4,4(5H)-dicarboxylate'
_symmetry_cell_setting           monoclinic
_symmetry_space_group_name_H-M   'P 2/n'
_symmetry_Int_Tables_number      13
_space_group_name_Hall           '-P 2yac'
loop_
_symmetry_equiv_pos_site_id
_symmetry_equiv_pos_as_xyz
1 x,y,z
2 1/2-x,y,1/2-z
3 -x,-y,-z
4 1/2+x,-y,1/2+z
_cell_length_a                   16.8611(8)
_cell_length_b                   7.7647(3)
_cell_length_c                   27.0984(13)
_cell_angle_alpha                90
_cell_angle_beta                 98.764(5)
_cell_angle_gamma                90
_cell_volume                     3506.34
_exptl_crystal_colour            colorless
_exptl_crystal_description       block
_cell_formula_units_Z            8
loop_
_atom_site_label
_atom_site_type_symbol
_atom_site_fract_x
_atom_site_fract_y
_atom_site_fract_z
O1 O 0.59992(12) 0.6948(2) 0.68653(8)
O2 O 0.74251(15) 0.5201(3) 0.62340(10)
O3 O 0.79681(14) 0.6479(3) 0.69325(9)
O4 O 0.77746(15) 1.0542(3) 0.67178(11)
O5 O 0.78481(14) 0.9592(3) 0.59475(9)
N1 N 0.53231(14) 0.7253(3) 0.64606(10)
C1 C 0.42985(19) 0.5796(4) 0.55959(15)
H1 H 0.4269 0.5207 0.5891
C2 C 0.3681(2) 0.5655(5) 0.52035(19)
H2 H 0.3240 0.4966 0.5234
C3 C 0.3713(2) 0.6518(6) 0.47713(17)
H3 H 0.3292 0.6426 0.4508
C4 C 0.4368(3) 0.7531(5) 0.47225(15)
H4 H 0.4390 0.8119 0.4426
C5 C 0.4994(2) 0.7672(4) 0.51179(13)
H5 H 0.5435 0.8357 0.5084
C6 C 0.49694(18) 0.6810(4) 0.55574(12)
C7 C 0.56515(17) 0.6802(4) 0.59926(11)
H6 H 0.5840 0.5609 0.6032
C8 C 0.63851(17) 0.7898(4) 0.59212(11)
H7 H 0.6653 0.7373 0.5667
H8 H 0.6205 0.9034 0.5804
C9 C 0.69859(17) 0.8083(4) 0.64041(11)
C10 C 0.65175(18) 0.8404(4) 0.68435(12)
H9 H 0.6877 0.8580 0.7159
C11 C 0.59187(17) 0.9863(4) 0.67331(12)
C12 C 0.5947(2) 1.1603(4) 0.68259(13)
H10 H 0.6418 1.2128 0.6977
C13 C 0.5251(2) 1.2551(4) 0.66874(14)
H11 H 0.5254 1.3730 0.6748
C14 C 0.4554(2) 1.1766(4) 0.64603(15)
H12 H 0.4093 1.2425 0.6374
C15 C 0.45282(19) 1.0017(4) 0.63583(13)
H13 H 0.4063 0.9494 0.6198
C16 C 0.52151(17) 0.9090(4) 0.65031(11)
C17 C 0.74716(18) 0.6415(4) 0.65039(12)
C18 C 0.8456(3) 0.4964(4) 0.70643(16)
H14 H 0.8868 0.4898 0.6857
H15 H 0.8125 0.3954 0.7016
H16 H 0.8698 0.5036 0.7408
C19 C 0.75741(18) 0.9548(4) 0.63836(14)
C20 C 0.8411(2) 1.0960(5) 0.58913(16)
H17 H 0.8563 1.0900 0.5564
H18 H 0.8879 1.0833 0.6139
H19 H 0.8164 1.2053 0.5933
O6 O 0.23474(12) 0.3770(2) 0.64268(8)
O7 O 0.05586(18) 0.5235(3) 0.68206(10)
O8 O 0.14649(15) 0.4254(3) 0.74306(8)
O9 O 0.13574(15) 0.0172(3) 0.73004(10)
O10 O 0.01393(13) 0.0758(3) 0.68934(9)
N2 N 0.20779(14) 0.3365(3) 0.58976(10)
C21 C 0.1253(2) 0.4288(4) 0.49207(14)
H20 H 0.1690 0.4996 0.5029
C22 C 0.0993(3) 0.4104(6) 0.44216(15)
H21 H 0.1259 0.4679 0.4194
C23 C 0.0346(3) 0.3086(5) 0.42495(14)
H22 H 0.0178 0.2960 0.3908
C24 C -0.0050(2) 0.2256(5) 0.45866(14)
H23 H -0.0496 0.1580 0.4475
C25 C 0.0216(2) 0.2424(4) 0.50939(12)
H24 H -0.0053 0.1850 0.5320
C26 C 0.08732(18) 0.3433(4) 0.52684(11)
C27 C 0.11828(17) 0.3666(4) 0.58206(11)
H25 H 0.1096 0.4874 0.5903
C28 C 0.07552(17) 0.2561(4) 0.61660(11)
H26 H 0.0707 0.1394 0.6037
H27 H 0.0218 0.3007 0.6165
C29 C 0.11968(17) 0.2516(4) 0.67093(11)
C30 C 0.21049(17) 0.2306(4) 0.66963(12)
H28 H 0.2415 0.2207 0.7032
C31 C 0.22648(16) 0.0841(4) 0.63631(12)
C32 C 0.23719(18) -0.0911(4) 0.64352(14)
H29 H 0.2385 -0.1398 0.6750
C33 C 0.2460(2) -0.1924(4) 0.60256(15)
H30 H 0.2533 -0.3105 0.6066
C34 C 0.2441(2) -0.1204(5) 0.55585(15)
H31 H 0.2508 -0.1905 0.5290
C35 C 0.23208(19) 0.0559(4) 0.54831(14)
H32 H 0.2300 0.1052 0.5169
C36 C 0.22351(17) 0.1531(4) 0.58926(12)
C37 C 0.1031(2) 0.4170(4) 0.69821(12)
C38 C 0.1335(3) 0.5747(4) 0.77301(14)
H33 H 0.1488 0.6770 0.7569
H34 H 0.1654 0.5644 0.8054
H35 H 0.0778 0.5816 0.7766
C39 C 0.09234(19) 0.1024(4) 0.70028(12)
C40 C -0.0181(2) -0.0665(5) 0.71495(14)
H36 H 0.0012 -0.1733 0.7035
H37 H -0.0757 -0.0646 0.7080
H38 H -0.0011 -0.0556 0.7503
loop_
_geom_bond_atom_site_label_1
_geom_bond_atom_site_label_2
_geom_bond_site_symmetry_1
_geom_bond_site_symmetry_2
O1 N1 1_555 1_555
O2 C17 1_555 1_555
O3 C17 1_555 1_555
O4 C19 1_555 1_555
O5 C19 1_555 1_555
N1 C7 1_555 1_555
C1 H1 1_555 1_555
C2 C1 1_555 1_555
H2 C2 1_555 1_555
C3 C2 1_555 1_555
H3 C3 1_555 1_555
C4 C3 1_555 1_555
H4 C4 1_555 1_555
C5 C4 1_555 1_555
H5 C5 1_555 1_555
C6 C1 1_555 1_555
C7 C6 1_555 1_555
H6 C7 1_555 1_555
C8 C7 1_555 1_555
H7 C8 1_555 1_555
H8 C8 1_555 1_555
C9 C8 1_555 1_555
C10 O1 1_555 1_555
H9 C10 1_555 1_555
C11 C10 1_555 1_555
C12 C11 1_555 1_555
H10 C12 1_555 1_555
C13 C12 1_555 1_555
H11 C13 1_555 1_555
C14 C13 1_555 1_555
H12 C14 1_555 1_555
C15 C14 1_555 1_555
H13 C15 1_555 1_555
C16 N1 1_555 1_555
C17 C9 1_555 1_555
C18 O3 1_555 1_555
H14 C18 1_555 1_555
H15 C18 1_555 1_555
H16 C18 1_555 1_555
C19 C9 1_555 1_555
C20 O5 1_555 1_555
H17 C20 1_555 1_555
H18 C20 1_555 1_555
H19 C20 1_555 1_555
O6 N2 1_555 1_555
O7 C37 1_555 1_555
O8 C37 1_555 1_555
O9 C39 1_555 1_555
O10 C39 1_555 1_555
N2 C27 1_555 1_555
C21 H20 1_555 1_555
C22 C21 1_555 1_555
H21 C22 1_555 1_555
C23 C22 1_555 1_555
H22 C23 1_555 1_555
C24 C23 1_555 1_555
H23 C24 1_555 1_555
C25 C24 1_555 1_555
H24 C25 1_555 1_555
C26 C21 1_555 1_555
C27 C26 1_555 1_555
H25 C27 1_555 1_555
C28 C27 1_555 1_555
H26 C28 1_555 1_555
H27 C28 1_555 1_555
C29 C28 1_555 1_555
C30 O6 1_555 1_555
H28 C30 1_555 1_555
C31 C30 1_555 1_555
C32 C31 1_555 1_555
H29 C32 1_555 1_555
C33 C32 1_555 1_555
H30 C33 1_555 1_555
C34 C33 1_555 1_555
H31 C34 1_555 1_555
C35 C34 1_555 1_555
H32 C35 1_555 1_555
C36 N2 1_555 1_555
C37 C29 1_555 1_555
C38 O8 1_555 1_555
H33 C38 1_555 1_555
H34 C38 1_555 1_555
H35 C38 1_555 1_555
C39 C29 1_555 1_555
C40 O10 1_555 1_555
H36 C40 1_555 1_555
H37 C40 1_555 1_555
H38 C40 1_555 1_555
C5 C6 1_555 1_555
C9 C10 1_555 1_555
C11 C16 1_555 1_555
C15 C16 1_555 1_555
C25 C26 1_555 1_555
C29 C30 1_555 1_555
C31 C36 1_555 1_555
C35 C36 1_555 1_555

#END
