
#######################################################################
#
#                 Cambridge Crystallographic Data Centre
#                                CCDC 
#
#######################################################################
#
# If this CIF has been generated from an entry in the Cambridge 
# Structural Database, then it will include bibliographic, chemical, 
# crystal, experimental, refinement or atomic coordinate data resulting 
# from the CCDC's data processing and validation procedures.
#
#######################################################################

data_FEFPEM
_chemical_formula_moiety         'C12 H9 N1 O3'
_chemical_name_systematic        '4-Nitrophenyl phenyl ether'
_symmetry_cell_setting           monoclinic
_symmetry_space_group_name_H-M   'P 21/c'
_symmetry_Int_Tables_number      14
_space_group_name_Hall           '-P 2ybc'
loop_
_symmetry_equiv_pos_site_id
_symmetry_equiv_pos_as_xyz
1 x,y,z
2 -x,1/2+y,1/2-z
3 -x,-y,-z
4 x,1/2-y,1/2+z
_cell_length_a                   10.3300(5)
_cell_length_b                   12.2408(4)
_cell_length_c                   7.9804(4)
_cell_angle_alpha                90
_cell_angle_beta                 96.215(2)
_cell_angle_gamma                90
_cell_volume                     1003.17
_exptl_crystal_colour            colorless
_exptl_crystal_description       shard
_cell_formula_units_Z            4
_exptl_crystal_recrystallization_method ethanol
loop_
_atom_site_label
_atom_site_type_symbol
_atom_site_fract_x
_atom_site_fract_y
_atom_site_fract_z
O1 O 0.36142(9) 0.31179(7) 0.32222(13)
O2 O 0.22322(10) 0.78372(8) 0.54552(14)
O3 O 0.38921(10) 0.81782(8) 0.41061(15)
N1 N 0.31209(11) 0.75386(9) 0.46511(16)
C1 C 0.34314(12) 0.42031(10) 0.35927(17)
C2 C 0.25253(12) 0.45470(11) 0.46435(18)
C3 C 0.24360(13) 0.56507(11) 0.50037(18)
C4 C 0.32547(12) 0.63742(10) 0.43173(17)
C5 C 0.41804(12) 0.60360(11) 0.32985(18)
C6 C 0.42682(12) 0.49404(11) 0.29330(18)
C7 C 0.25903(12) 0.23800(10) 0.32812(18)
C8 C 0.28895(14) 0.13855(11) 0.40378(17)
C9 C 0.19265(14) 0.05949(11) 0.40325(18)
C10 C 0.06804(14) 0.08090(12) 0.32944(19)
C11 C 0.03923(14) 0.18169(12) 0.25384(19)
C12 C 0.13495(13) 0.26051(11) 0.25177(19)
H1 H 0.1974 0.4034 0.5109
H2 H 0.1819 0.5905 0.5714
H3 H 0.4745 0.6550 0.2859
H4 H 0.4896 0.4690 0.2235
H5 H 0.3745 0.1243 0.4556
H6 H 0.2125 -0.0096 0.4538
H7 H 0.0021 0.0269 0.3303
H8 H -0.0466 0.1964 0.2034
H9 H 0.1159 0.3290 0.1988
loop_
_geom_bond_atom_site_label_1
_geom_bond_atom_site_label_2
_geom_bond_site_symmetry_1
_geom_bond_site_symmetry_2
O1 C1 1_555 1_555
O2 N1 1_555 1_555
O3 N1 1_555 1_555
N1 C4 1_555 1_555
C1 C2 1_555 1_555
C2 C3 1_555 1_555
C3 C4 1_555 1_555
C4 C5 1_555 1_555
C5 C6 1_555 1_555
C6 C1 1_555 1_555
C7 O1 1_555 1_555
C8 C7 1_555 1_555
C9 C8 1_555 1_555
C10 C9 1_555 1_555
C11 C10 1_555 1_555
C12 C7 1_555 1_555
H1 C2 1_555 1_555
H2 C3 1_555 1_555
H3 C5 1_555 1_555
H4 C6 1_555 1_555
H5 C8 1_555 1_555
H6 C9 1_555 1_555
H7 C10 1_555 1_555
H8 C11 1_555 1_555
H9 C12 1_555 1_555
C11 C12 1_555 1_555

#END
