
#######################################################################
#
#                 Cambridge Crystallographic Data Centre
#                                CCDC 
#
#######################################################################
#
# If this CIF has been generated from an entry in the Cambridge 
# Structural Database, then it will include bibliographic, chemical, 
# crystal, experimental, refinement or atomic coordinate data resulting 
# from the CCDC's data processing and validation procedures.
#
#######################################################################

data_FEFTAO
_chemical_formula_moiety         'C23 H25 N1 O5'
_chemical_name_systematic        
'4-t-butyl 4-methyl 2-phenyl-2,3-dihydro-1,5-epoxy-1-benzazepine-4,4(5H)-dicarboxylate'
_symmetry_cell_setting           triclinic
_symmetry_space_group_name_H-M   'P -1'
_symmetry_Int_Tables_number      2
_space_group_name_Hall           '-P 1'
loop_
_symmetry_equiv_pos_site_id
_symmetry_equiv_pos_as_xyz
1 x,y,z
2 -x,-y,-z
_cell_length_a                   11.8383(9)
_cell_length_b                   13.1551(10)
_cell_length_c                   13.6364(10)
_cell_angle_alpha                78.762(7)
_cell_angle_beta                 85.450(6)
_cell_angle_gamma                89.969(6)
_cell_volume                     2076.13
_exptl_crystal_colour            'light colorless'
_exptl_crystal_description       block
_cell_formula_units_Z            4
loop_
_atom_site_label
_atom_site_type_symbol
_atom_site_fract_x
_atom_site_fract_y
_atom_site_fract_z
O1 O 0.43493(14) 1.05962(13) 0.13732(11)
O2 O 0.77611(15) 1.08312(16) 0.19738(13)
O3 O 0.72730(15) 1.01709(16) 0.35909(12)
O4 O 0.49887(16) 0.86245(14) 0.32633(13)
O5 O 0.61847(14) 0.87905(13) 0.18628(12)
N1 N 0.37259(17) 1.13082(16) 0.19228(14)
C1 C 0.4425(2) 1.22419(19) 0.16253(16)
C2 C 0.4100(2) 1.3245(2) 0.16369(17)
H1 H 0.3374 1.3393 0.1879
C3 C 0.4903(2) 1.4030(2) 0.12709(19)
H2 H 0.4710 1.4716 0.1266
C4 C 0.5984(2) 1.3806(2) 0.09146(18)
H3 H 0.6503 1.4343 0.0664
C5 C 0.6304(2) 1.2779(2) 0.09289(17)
H4 H 0.7032 1.2623 0.0698
C6 C 0.5507(2) 1.20043(19) 0.12965(16)
C7 C 0.5534(2) 1.0838(2) 0.14310(17)
H5 H 0.6024 1.0609 0.0905
C8 C 0.58182(19) 1.03049(19) 0.24935(16)
C9 C 0.5049(2) 1.07385(19) 0.32822(16)
H6 H 0.5075 1.0282 0.3931
H7 H 0.5338 1.1414 0.3336
C10 C 0.3814(2) 1.0840(2) 0.30106(16)
H8 H 0.3491 1.0137 0.3126
C11 C 0.3068(2) 1.14504(19) 0.36373(16)
C12 C 0.3418(2) 1.1753(2) 0.44818(17)
H9 H 0.4141 1.1593 0.4680
C13 C 0.2690(3) 1.2295(2) 0.5035(2)
H10 H 0.2934 1.2501 0.5599
C14 C 0.1612(3) 1.2532(2) 0.4759(2)
H11 H 0.1128 1.2891 0.5137
C15 C 0.1255(2) 1.2230(2) 0.39157(19)
H12 H 0.0531 1.2391 0.3721
C16 C 0.1975(2) 1.1693(2) 0.33660(19)
H13 H 0.1728 1.1488 0.2803
C17 C 0.7058(2) 1.0475(2) 0.26326(18)
C18 C 0.8430(2) 1.0298(3) 0.3830(2)
H14 H 0.8935 0.9971 0.3404
H15 H 0.8503 0.9983 0.4518
H16 H 0.8617 1.1023 0.3726
C19 C 0.5605(2) 0.9134(2) 0.26051(17)
C20 C 0.5993(2) 0.7725(2) 0.16748(19)
C21 C 0.6799(3) 0.7714(2) 0.0755(2)
H17 H 0.6634 0.8281 0.0230
H18 H 0.6709 0.7072 0.0533
H19 H 0.7565 0.7781 0.0921
C22 C 0.6321(3) 0.6927(2) 0.2552(2)
H20 H 0.7078 0.7070 0.2698
H21 H 0.6287 0.6250 0.2389
H22 H 0.5806 0.6951 0.3127
C23 C 0.4767(2) 0.7630(3) 0.1450(2)
H23 H 0.4280 0.7644 0.2045
H24 H 0.4654 0.6988 0.1234
H25 H 0.4591 0.8197 0.0930
O6 O 0.92260(14) 1.59412(13) 0.13531(11)
O7 O 1.26834(15) 1.54866(16) 0.17926(13)
O8 O 1.22747(15) 1.54708(16) 0.34266(13)
O9 O 0.99996(17) 1.72138(15) 0.31517(13)
O10 O 1.11605(14) 1.75708(13) 0.17285(12)
N2 N 0.86296(17) 1.50113(16) 0.19416(14)
C24 C 0.9315(2) 1.4191(2) 0.16521(17)
C25 C 0.9004(2) 1.3164(2) 0.17489(17)
H26 H 0.8288 1.2920 0.2022
C26 C 0.9812(2) 1.2508(2) 0.14187(18)
H27 H 0.9631 1.1810 0.1473
C27 C 1.0874(2) 1.2875(2) 0.10126(17)
H28 H 1.1393 1.2424 0.0789
C28 C 1.1179(2) 1.3914(2) 0.09337(17)
H29 H 1.1897 1.4161 0.0666
C29 C 1.0387(2) 1.4560(2) 0.12630(16)
C30 C 1.0406(2) 1.56841(19) 0.13562(17)
H30 H 1.0867 1.6117 0.0802
C31 C 1.0767(2) 1.58102(19) 0.23959(16)
C32 C 1.00315(19) 1.50763(19) 0.32267(16)
H31 H 1.0316 1.4377 0.3286
H32 H 1.0096 1.5289 0.3863
C33 C 0.8776(2) 1.5077(2) 0.30096(16)
H33 H 0.8459 1.5737 0.3123
C34 C 0.8060(2) 1.42076(19) 0.36768(17)
C35 C 0.6957(2) 1.4059(2) 0.34428(19)
H34 H 0.6677 1.4491 0.2894
C36 C 0.6270(3) 1.3278(2) 0.4016(2)
H35 H 0.5534 1.3189 0.3852
C37 C 0.6677(3) 1.2629(3) 0.4832(2)
H36 H 0.6222 1.2097 0.5212
C38 C 0.7764(3) 1.2779(2) 0.5078(2)
H37 H 0.8036 1.2352 0.5633
C39 C 0.8458(2) 1.3561(2) 0.45025(18)
H38 H 0.9192 1.3651 0.4672
C40 C 1.2019(2) 1.55721(19) 0.24827(18)
C41 C 1.3425(2) 1.5202(3) 0.3631(2)
H39 H 1.3937 1.5687 0.3197
H40 H 1.3573 1.4516 0.3514
H41 H 1.3530 1.5224 0.4317
C42 C 1.0583(2) 1.6947(2) 0.24861(18)
C43 C 1.1046(2) 1.8720(2) 0.15569(19)
C44 C 1.1830(3) 1.9081(2) 0.0621(2)
H42 H 1.2592 1.8881 0.0754
H43 H 1.1801 1.9822 0.0428
H44 H 1.1596 1.8770 0.0087
C45 C 1.1442(3) 1.9119(2) 0.2436(2)
H45 H 1.0917 1.8899 0.3012
H46 H 1.1482 1.9863 0.2278
H47 H 1.2178 1.8851 0.2577
C46 C 0.9829(2) 1.8988(2) 0.1358(2)
H48 H 0.9609 1.8671 0.0824
H49 H 0.9763 1.9727 0.1172
H50 H 0.9343 1.8736 0.1954
loop_
_geom_bond_atom_site_label_1
_geom_bond_atom_site_label_2
_geom_bond_site_symmetry_1
_geom_bond_site_symmetry_2
O1 N1 1_555 1_555
O2 C17 1_555 1_555
O3 C17 1_555 1_555
O4 C19 1_555 1_555
O5 C19 1_555 1_555
N1 C1 1_555 1_555
C1 C2 1_555 1_555
C2 H1 1_555 1_555
C3 C2 1_555 1_555
H2 C3 1_555 1_555
C4 C3 1_555 1_555
H3 C4 1_555 1_555
C5 C4 1_555 1_555
H4 C5 1_555 1_555
C6 C1 1_555 1_555
C7 O1 1_555 1_555
H5 C7 1_555 1_555
C8 C7 1_555 1_555
C9 C8 1_555 1_555
H6 C9 1_555 1_555
H7 C9 1_555 1_555
C10 N1 1_555 1_555
H8 C10 1_555 1_555
C11 C10 1_555 1_555
C12 C11 1_555 1_555
H9 C12 1_555 1_555
C13 C12 1_555 1_555
H10 C13 1_555 1_555
C14 C13 1_555 1_555
H11 C14 1_555 1_555
C15 C14 1_555 1_555
H12 C15 1_555 1_555
C16 C11 1_555 1_555
H13 C16 1_555 1_555
C17 C8 1_555 1_555
C18 O3 1_555 1_555
H14 C18 1_555 1_555
H15 C18 1_555 1_555
H16 C18 1_555 1_555
C19 C8 1_555 1_555
C20 O5 1_555 1_555
C21 C20 1_555 1_555
H17 C21 1_555 1_555
H18 C21 1_555 1_555
H19 C21 1_555 1_555
C22 C20 1_555 1_555
H20 C22 1_555 1_555
H21 C22 1_555 1_555
H22 C22 1_555 1_555
C23 C20 1_555 1_555
H23 C23 1_555 1_555
H24 C23 1_555 1_555
H25 C23 1_555 1_555
O6 N2 1_555 1_555
O7 C40 1_555 1_555
O8 C40 1_555 1_555
O9 C42 1_555 1_555
O10 C42 1_555 1_555
N2 C24 1_555 1_555
C24 C25 1_555 1_555
C25 H26 1_555 1_555
C26 C25 1_555 1_555
H27 C26 1_555 1_555
C27 C26 1_555 1_555
H28 C27 1_555 1_555
C28 C27 1_555 1_555
H29 C28 1_555 1_555
C29 C24 1_555 1_555
C30 O6 1_555 1_555
H30 C30 1_555 1_555
C31 C30 1_555 1_555
C32 C31 1_555 1_555
H31 C32 1_555 1_555
H32 C32 1_555 1_555
C33 N2 1_555 1_555
H33 C33 1_555 1_555
C34 C33 1_555 1_555
C35 C34 1_555 1_555
H34 C35 1_555 1_555
C36 C35 1_555 1_555
H35 C36 1_555 1_555
C37 C36 1_555 1_555
H36 C37 1_555 1_555
C38 C37 1_555 1_555
H37 C38 1_555 1_555
C39 C34 1_555 1_555
H38 C39 1_555 1_555
C40 C31 1_555 1_555
C41 O8 1_555 1_555
H39 C41 1_555 1_555
H40 C41 1_555 1_555
H41 C41 1_555 1_555
C42 C31 1_555 1_555
C43 O10 1_555 1_555
C44 C43 1_555 1_555
H42 C44 1_555 1_555
H43 C44 1_555 1_555
H44 C44 1_555 1_555
C45 C43 1_555 1_555
H45 C45 1_555 1_555
H46 C45 1_555 1_555
H47 C45 1_555 1_555
C46 C43 1_555 1_555
H48 C46 1_555 1_555
H49 C46 1_555 1_555
H50 C46 1_555 1_555
C5 C6 1_555 1_555
C6 C7 1_555 1_555
C9 C10 1_555 1_555
C15 C16 1_555 1_555
C28 C29 1_555 1_555
C29 C30 1_555 1_555
C32 C33 1_555 1_555
C38 C39 1_555 1_555

#END
