
#######################################################################
#
#                 Cambridge Crystallographic Data Centre
#                                CCDC 
#
#######################################################################
#
# If this CIF has been generated from an entry in the Cambridge 
# Structural Database, then it will include bibliographic, chemical, 
# crystal, experimental, refinement or atomic coordinate data resulting 
# from the CCDC's data processing and validation procedures.
#
#######################################################################

data_FEFVAQ
_chemical_formula_moiety         'C12 H13 N1 O1'
_chemical_name_systematic        
3-hydroxy-3-methyl-1-phenylcyclobutane-1-carbonitrile
_symmetry_cell_setting           orthorhombic
_symmetry_space_group_name_H-M   'P n m a'
_symmetry_Int_Tables_number      62
_space_group_name_Hall           '-P 2ac 2n'
loop_
_symmetry_equiv_pos_site_id
_symmetry_equiv_pos_as_xyz
1 x,y,z
2 1/2-x,-y,1/2+z
3 -x,1/2+y,-z
4 1/2+x,1/2-y,1/2-z
5 -x,-y,-z
6 1/2+x,y,1/2-z
7 x,1/2-y,z
8 1/2-x,1/2+y,1/2+z
_cell_length_a                   20.9561(15)
_cell_length_b                   7.0112(5)
_cell_length_c                   6.9145(5)
_cell_angle_alpha                90
_cell_angle_beta                 90
_cell_angle_gamma                90
_cell_volume                     1015.93
_exptl_crystal_colour            'light yellow'
_exptl_crystal_description       prism
_cell_formula_units_Z            4
loop_
_atom_site_label
_atom_site_type_symbol
_atom_site_fract_x
_atom_site_fract_y
_atom_site_fract_z
C1 C 0.77880(18) 0.7500 0.4721(5)
H1 H 0.7628 0.7500 0.6052
H2 H 0.8048 0.6359 0.4506
C2 C 0.72302(17) 0.7500 0.3328(5)
C3 C 0.67194(12) 0.5951(4) 0.3734(3)
H3 H 0.6867 0.4933 0.4619
H4 H 0.6528 0.5403 0.2549
C4 C 0.62899(17) 0.7500 0.4741(5)
C5 C 0.64061(18) 0.7500 0.6832(5)
C6 C 0.55757(18) 0.7500 0.4310(5)
C7 C 0.51231(18) 0.7500 0.5779(5)
H5 H 0.5257 0.7500 0.7092
C8 C 0.44791(19) 0.7500 0.5345(5)
H6 H 0.4174 0.7500 0.6362
C9 C 0.42735(19) 0.7500 0.3436(5)
H7 H 0.3831 0.7500 0.3141
C10 C 0.47234(19) 0.7500 0.1969(6)
H8 H 0.4587 0.7500 0.0658
C11 C 0.53681(19) 0.7500 0.2389(5)
H9 H 0.5671 0.7500 0.1368
N1 N 0.65156(16) 0.7500 0.8462(4)
O1 O 0.75018(12) 0.7500 0.1444(3)
H10 H 0.7209 0.7500 0.0615
H2F H 0.8048 0.8641 0.4506
C3F C 0.67194(12) 0.9049(4) 0.3734(3)
H3F H 0.6867 1.0067 0.4619
H4F H 0.6528 0.9597 0.2549
H11? H 0.8048 0.6359 0.4506
loop_
_geom_bond_atom_site_label_1
_geom_bond_atom_site_label_2
_geom_bond_site_symmetry_1
_geom_bond_site_symmetry_2
C1 H1 1_555 1_555
H2 C1 1_555 1_555
C2 C1 1_555 1_555
C3 C2 1_555 1_555
H3 C3 1_555 1_555
H4 C3 1_555 1_555
C4 C3 1_555 1_555
C5 C4 1_555 1_555
C6 C4 1_555 1_555
C7 C6 1_555 1_555
H5 C7 1_555 1_555
C8 C7 1_555 1_555
H6 C8 1_555 1_555
C9 C8 1_555 1_555
H7 C9 1_555 1_555
C10 C9 1_555 1_555
H8 C10 1_555 1_555
C11 C6 1_555 1_555
H9 C11 1_555 1_555
N1 C5 1_555 1_555
O1 C2 1_555 1_555
H10 O1 1_555 1_555
H2F C1 1_555 1_555
C3F C2 1_555 1_555
H3F C3F 1_555 1_555
H4F C3F 1_555 1_555
C4 C3F 1_555 1_555
C10 C11 1_555 1_555

#END
