
#######################################################################
#
#                 Cambridge Crystallographic Data Centre
#                                CCDC 
#
#######################################################################
#
# If this CIF has been generated from an entry in the Cambridge 
# Structural Database, then it will include bibliographic, chemical, 
# crystal, experimental, refinement or atomic coordinate data resulting 
# from the CCDC's data processing and validation procedures.
#
#######################################################################

data_FEFXOG
_chemical_name_common            'aglaodoratin A monohydrate'
_chemical_formula_moiety         'C36 H42 N2 O8,H2 O1'
_chemical_name_systematic        
'N-(1-((1,12-dihydroxy-3,5-dimethoxy-9-(4-methoxyphenyl)-10-phenyl-8-oxatricyclo[7.2.1.0^2,7^]dodeca-2,4,6-trien-11-yl)carbonyl)pyrrolidin-2-yl)-2-methylbutanamide monohydrate'
_symmetry_cell_setting           orthorhombic
_symmetry_space_group_name_H-M   'P 21 21 21'
_symmetry_Int_Tables_number      19
_space_group_name_Hall           'P 2ac 2ab'
loop_
_symmetry_equiv_pos_site_id
_symmetry_equiv_pos_as_xyz
1 x,y,z
2 1/2-x,-y,1/2+z
3 1/2+x,1/2-y,-z
4 -x,1/2+y,1/2-z
_cell_length_a                   7.4941(2)
_cell_length_b                   20.0228(4)
_cell_length_c                   23.3997(6)
_cell_angle_alpha                90
_cell_angle_beta                 90
_cell_angle_gamma                90
_cell_volume                     3511.19
_exptl_crystal_colour            colorless
_exptl_crystal_description       orthorhombic
_chemical_melting_point          '417 K'
_cell_formula_units_Z            4
_exptl_crystal_recrystallization_method Methanol/water
loop_
_atom_site_label
_atom_site_type_symbol
_atom_site_fract_x
_atom_site_fract_y
_atom_site_fract_z
O1 O 0.7206(3) 0.54975(11) 0.59737(10)
O2 O 0.5621(3) 0.61177(13) 0.43611(11)
O3 O 0.4333(3) 0.49509(12) 0.48016(11)
H1 H 0.3421 0.5136 0.4691
O4 O 0.9564(4) 0.76508(13) 0.63960(12)
O5 O 0.7893(4) 0.71114(12) 0.44991(11)
O6 O 1.1053(3) 0.56061(13) 0.47220(10)
C1 C 0.6594(4) 0.58216(16) 0.48137(14)
C2 C 0.6583(4) 0.50085(17) 0.55434(14)
C3 C 0.7673(5) 0.61253(17) 0.57819(16)
C4 C 0.5307(4) 0.53921(16) 0.51616(15)
H2 H 0.4499 0.5671 0.5389
O7 O 0.3658(5) 0.28727(15) 0.68333(14)
C5 C 0.8378(5) 0.65461(18) 0.61951(16)
H3 H 0.8525 0.6403 0.6570
N1 N 0.9887(4) 0.57229(16) 0.38456(13)
C6 C 0.8215(4) 0.48417(17) 0.51461(15)
H4 H 0.9293 0.4995 0.5343
C7 C 0.7444(4) 0.63105(17) 0.52174(16)
C8 C 0.8855(5) 0.71841(18) 0.60306(17)
N2 N 1.2952(4) 0.55013(19) 0.35518(14)
H5 H 1.3932 0.5560 0.3736
C9 C 0.5834(5) 0.44444(17) 0.58968(15)
C10 C 0.8681(5) 0.73926(18) 0.54704(17)
H6 H 0.9004 0.7824 0.5367
C11 C 0.7968(4) 0.52912(16) 0.46123(15)
H7 H 0.7420 0.5024 0.4309
C12 C 0.6944(6) 0.39598(19) 0.61304(16)
H8 H 0.8169 0.3988 0.6072
C13 C 0.3350(6) 0.3868(2) 0.63417(19)
H9 H 0.2134 0.3848 0.6419
C14 C 0.4037(6) 0.4392(2) 0.60194(18)
H10 H 0.3261 0.4717 0.5882
C15 C 1.0277(6) 0.3887(2) 0.4968(2)
H11 H 1.1186 0.4156 0.5111
C16 C 0.6256(7) 0.3430(2) 0.64524(18)
H12 H 0.7023 0.3110 0.6603
C17 C 0.8028(4) 0.69577(17) 0.50688(16)
C18 C 0.7233(7) 0.3733(2) 0.47283(18)
H13 H 0.6070 0.3893 0.4705
C19 C 0.9763(4) 0.55514(17) 0.43974(15)
C20 C 0.4463(7) 0.3382(2) 0.65459(18)
C21 C 0.8548(5) 0.41269(18) 0.49562(16)
C22 C 0.8369(7) 0.7776(2) 0.4321(2)
H14 H 0.8161 0.7823 0.3919
H15 H 0.9608 0.7854 0.4402
H16 H 0.7655 0.8095 0.4526
O8 O 1.1484(4) 0.4837(2) 0.29378(15)
C23 C 0.8497(5) 0.5699(2) 0.34044(16)
H17 H 0.7322 0.5770 0.3567
H18 H 0.8512 0.5276 0.3202
C24 C 1.2829(5) 0.4958(3) 0.32213(18)
C25 C 1.1554(5) 0.6002(2) 0.36242(18)
H19 H 1.1980 0.6344 0.3891
C26 C 0.7631(9) 0.3097(2) 0.4532(2)
H20 H 0.6729 0.2829 0.4383
C27 C 0.9891(8) 0.7457(2) 0.69719(19)
H21 H 1.0729 0.7094 0.6978
H22 H 0.8793 0.7317 0.7146
H23 H 1.0372 0.7828 0.7180
C28 C 1.0675(9) 0.3254(3) 0.4768(3)
H24 H 1.1843 0.3097 0.4779
C29 C 0.4708(10) 0.2312(2) 0.7001(3)
H25 H 0.5335 0.2140 0.6674
H26 H 0.3943 0.1970 0.7153
H27 H 0.5551 0.2446 0.7287
C30 C 1.0992(7) 0.6343(3) 0.3068(2)
H28 H 1.1315 0.6812 0.3076
H29 H 1.1581 0.6134 0.2745
C31 C 1.4423(6) 0.4507(3) 0.3203(2)
H30 H 1.5384 0.4711 0.3427
C32 C 0.9344(10) 0.2860(2) 0.4555(2)
H31 H 0.9600 0.2431 0.4426
C33 C 1.5068(9) 0.4412(3) 0.2600(2)
H32 H 1.6166 0.4156 0.2611
H33 H 1.4191 0.4147 0.2396
C34 C 1.3951(10) 0.3837(3) 0.3469(3)
H34 H 1.2972 0.3641 0.3264
H35 H 1.3617 0.3902 0.3862
H36 H 1.4966 0.3545 0.3450
C35 C 0.9030(8) 0.6268(3) 0.3019(3)
H37 H 0.8700 0.6171 0.2627
H38 H 0.8437 0.6676 0.3136
C36 C 1.5402(9) 0.5038(4) 0.2267(3)
H39 H 1.5799 0.4925 0.1889
H40 H 1.6302 0.5298 0.2456
H41 H 1.4318 0.5292 0.2243
H42 H 0.596(5) 0.6460(17) 0.4257(15)
O9 O 0.4717(13) 0.5997(3) 0.7035(3)
H43 H 0.527(16) 0.569(4) 0.686(5)
H44 H 0.404(15) 0.581(5) 0.728(4)
loop_
_geom_bond_atom_site_label_1
_geom_bond_atom_site_label_2
_geom_bond_site_symmetry_1
_geom_bond_site_symmetry_2
O1 C2 1_555 1_555
O2 C1 1_555 1_555
O3 H1 1_555 1_555
O4 C8 1_555 1_555
O5 C17 1_555 1_555
O6 C19 1_555 1_555
C1 C4 1_555 1_555
C2 C4 1_555 1_555
C3 O1 1_555 1_555
C4 O3 1_555 1_555
H2 C4 1_555 1_555
O7 C20 1_555 1_555
C5 C3 1_555 1_555
H3 C5 1_555 1_555
N1 C19 1_555 1_555
C6 C2 1_555 1_555
H4 C6 1_555 1_555
C7 C1 1_555 1_555
C8 C5 1_555 1_555
N2 H5 1_555 1_555
C9 C2 1_555 1_555
C10 C8 1_555 1_555
H6 C10 1_555 1_555
C11 C1 1_555 1_555
H7 C11 1_555 1_555
C12 C9 1_555 1_555
H8 C12 1_555 1_555
C13 H9 1_555 1_555
C14 C9 1_555 1_555
H10 C14 1_555 1_555
C15 H11 1_555 1_555
C16 C12 1_555 1_555
H12 C16 1_555 1_555
C17 C7 1_555 1_555
C18 H13 1_555 1_555
C19 C11 1_555 1_555
C20 C13 1_555 1_555
C21 C6 1_555 1_555
C22 O5 1_555 1_555
H14 C22 1_555 1_555
H15 C22 1_555 1_555
H16 C22 1_555 1_555
O8 C24 1_555 1_555
C23 N1 1_555 1_555
H17 C23 1_555 1_555
H18 C23 1_555 1_555
C24 N2 1_555 1_555
C25 N1 1_555 1_555
H19 C25 1_555 1_555
C26 C18 1_555 1_555
H20 C26 1_555 1_555
C27 O4 1_555 1_555
H21 C27 1_555 1_555
H22 C27 1_555 1_555
H23 C27 1_555 1_555
C28 C15 1_555 1_555
H24 C28 1_555 1_555
C29 O7 1_555 1_555
H25 C29 1_555 1_555
H26 C29 1_555 1_555
H27 C29 1_555 1_555
C30 C25 1_555 1_555
H28 C30 1_555 1_555
H29 C30 1_555 1_555
C31 C24 1_555 1_555
H30 C31 1_555 1_555
C32 C26 1_555 1_555
H31 C32 1_555 1_555
C33 C31 1_555 1_555
H32 C33 1_555 1_555
H33 C33 1_555 1_555
C34 C31 1_555 1_555
H34 C34 1_555 1_555
H35 C34 1_555 1_555
H36 C34 1_555 1_555
C35 C23 1_555 1_555
H37 C35 1_555 1_555
H38 C35 1_555 1_555
C36 C33 1_555 1_555
H39 C36 1_555 1_555
H40 C36 1_555 1_555
H41 C36 1_555 1_555
H42 O2 1_555 1_555
O9 H43 1_555 1_555
H44 O9 1_555 1_555
C3 C7 1_555 1_555
C6 C11 1_555 1_555
N2 C25 1_555 1_555
C10 C17 1_555 1_555
C13 C14 1_555 1_555
C15 C21 1_555 1_555
C16 C20 1_555 1_555
C18 C21 1_555 1_555
C28 C32 1_555 1_555
C30 C35 1_555 1_555

#END
