
#######################################################################
#
#                 Cambridge Crystallographic Data Centre
#                                CCDC 
#
#######################################################################
#
# If this CIF has been generated from an entry in the Cambridge 
# Structural Database, then it will include bibliographic, chemical, 
# crystal, experimental, refinement or atomic coordinate data resulting 
# from the CCDC's data processing and validation procedures.
#
#######################################################################

data_FEFYEW
_chemical_name_common            'Furosemide pentoxifylline monohydrate'
_chemical_formula_moiety         'C13 H18 N4 O3,C12 H11 Cl1 N2 O5 S1,H2 O1'
_chemical_name_systematic        
'4-Chloro-2-((2-furylmethyl)amino)-5-sulfamoylbenzoic acid 3,7-dimethyl-1-(5-oxohexyl)-3,7-dihydro-1H-purine-2,6-dione monohydrate'
_symmetry_cell_setting           triclinic
_symmetry_space_group_name_H-M   'P -1'
_symmetry_Int_Tables_number      2
_space_group_name_Hall           '-P 1'
loop_
_symmetry_equiv_pos_site_id
_symmetry_equiv_pos_as_xyz
1 x,y,z
2 -x,-y,-z
_cell_length_a                   8.4052(2)
_cell_length_b                   9.4494(3)
_cell_length_c                   19.6748(9)
_cell_angle_alpha                92.6490(10)
_cell_angle_beta                 99.170(2)
_cell_angle_gamma                111.4660(10)
_cell_volume                     1426.35
_exptl_crystal_colour            colorless
_exptl_crystal_description       plate
_chemical_melting_point          '435 K'
_cell_formula_units_Z            2
loop_
_atom_site_label
_atom_site_type_symbol
_atom_site_fract_x
_atom_site_fract_y
_atom_site_fract_z
S1 S -0.18998(14) 0.00259(10) 0.34191(6)
N1 N -0.3398(5) -0.0983(3) 0.2790(2)
H1 H -0.4515 -0.0732 0.2717
H2 H -0.2781 -0.1212 0.2426
O1 O -0.2608(4) -0.0119(3) 0.40382(15)
O2 O -0.0432(4) -0.0391(3) 0.33889(16)
C1 C -0.1351(5) 0.1970(4) 0.3275(2)
C2 C -0.0655(5) 0.2583(4) 0.2709(2)
C3 C -0.0320(5) 0.4080(4) 0.2607(2)
H3 H 0.0155 0.4457 0.2226
C4 C -0.0676(5) 0.5061(4) 0.3065(2)
C5 C -0.1364(5) 0.4442(4) 0.3654(2)
C6 C -0.1673(5) 0.2922(4) 0.3740(2)
H4 H -0.2114 0.2530 0.4125
Cl1 Cl -0.02174(15) 0.14647(11) 0.20952(6)
C7 C -0.1769(6) 0.5384(4) 0.4175(2)
O3 O -0.1611(5) 0.6708(3) 0.41192(16)
O4 O -0.2343(4) 0.4663(3) 0.47002(15)
H5 H -0.2540 0.5245 0.4967
N2 N -0.0351(4) 0.6550(3) 0.29613(17)
H6 H -0.0548 0.7112 0.3268
C8 C 0.0306(6) 0.7251(4) 0.2368(2)
H7 H 0.1272 0.6971 0.2296
H8 H 0.0754 0.8354 0.2477
C9 C -0.0985(6) 0.6825(4) 0.1714(2)
O5 O -0.2298(4) 0.7371(4) 0.16793(17)
C10 C -0.3322(7) 0.6860(6) 0.1038(3)
H9 H -0.4309 0.7066 0.0881
C11 C -0.2722(8) 0.6033(6) 0.0671(3)
H10 H -0.3187 0.5569 0.0219
C12 C -0.1217(7) 0.5993(5) 0.1108(3)
H11 H -0.0520 0.5482 0.0994
C13 C 0.1070(9) -0.2451(7) -0.0202(3)
H12 H 0.0922 -0.3460 -0.0084
H13 H 0.1309 -0.2361 -0.0663
H14 H 0.0024 -0.2273 -0.0181
C14 C 0.2535(8) -0.1310(6) 0.0292(3)
O6 O 0.3411(6) -0.1677(4) 0.0749(2)
C15 C 0.2924(8) 0.0340(6) 0.0172(3)
H15 H 0.1850 0.0519 0.0133
H16 H 0.3304 0.0494 -0.0269
C16 C 0.4327(7) 0.1567(6) 0.0738(2)
H17 H 0.5309 0.1263 0.0868
H18 H 0.4745 0.2541 0.0552
C17 C 0.3581(6) 0.1750(5) 0.1376(2)
H19 H 0.2905 0.0748 0.1494
H20 H 0.2812 0.2299 0.1277
C18 C 0.5035(6) 0.2621(5) 0.1986(2)
H21 H 0.5813 0.2076 0.2072
H22 H 0.5700 0.3620 0.1863
N3 N 0.4410(5) 0.2826(4) 0.26303(18)
C19 C 0.4310(6) 0.4238(5) 0.2793(2)
N4 N 0.3889(4) 0.4488(3) 0.34216(17)
C20 C 0.3527(5) 0.3335(4) 0.3846(2)
C21 C 0.3623(5) 0.1964(4) 0.3670(2)
C22 C 0.4046(5) 0.1593(5) 0.3028(2)
O7 O 0.4088(4) 0.0371(3) 0.28192(16)
O8 O 0.4592(5) 0.5218(4) 0.23925(17)
C23 C 0.3884(6) 0.5995(4) 0.3644(2)
H23 H 0.3566 0.5982 0.4092
H24 H 0.3059 0.6220 0.3316
H25 H 0.5024 0.6765 0.3670
N5 N 0.3027(5) 0.3392(3) 0.44655(17)
C24 C 0.2823(6) 0.2007(4) 0.4666(2)
H26 H 0.2473 0.1698 0.5078
N6 N 0.3176(5) 0.1114(3) 0.42096(17)
C25 C 0.3046(6) -0.0468(4) 0.4270(2)
H27 H 0.2801 -0.0741 0.4717
H28 H 0.4127 -0.0549 0.4217
H29 H 0.2125 -0.1148 0.3915
O9 O 0.2316(7) 0.5238(6) 0.1180(3)
H30 H 0.295(9) 0.538(8) 0.1651(17)
H31 H 0.283(9) 0.630(4) 0.108(4)
loop_
_geom_bond_atom_site_label_1
_geom_bond_atom_site_label_2
_geom_bond_site_symmetry_1
_geom_bond_site_symmetry_2
S1 N1 1_555 1_555
N1 H1 1_555 1_555
H2 N1 1_555 1_555
O1 S1 1_555 1_555
O2 S1 1_555 1_555
C1 S1 1_555 1_555
C2 C1 1_555 1_555
C3 C2 1_555 1_555
H3 C3 1_555 1_555
C4 C3 1_555 1_555
C5 C4 1_555 1_555
C6 C1 1_555 1_555
H4 C6 1_555 1_555
Cl1 C2 1_555 1_555
C7 C5 1_555 1_555
O3 C7 1_555 1_555
O4 C7 1_555 1_555
H5 O4 1_555 1_555
N2 C4 1_555 1_555
H6 N2 1_555 1_555
C8 N2 1_555 1_555
H7 C8 1_555 1_555
H8 C8 1_555 1_555
C9 C8 1_555 1_555
O5 C9 1_555 1_555
C10 O5 1_555 1_555
H9 C10 1_555 1_555
C11 C10 1_555 1_555
H10 C11 1_555 1_555
C12 C9 1_555 1_555
H11 C12 1_555 1_555
C13 H12 1_555 1_555
H13 C13 1_555 1_555
H14 C13 1_555 1_555
C14 C13 1_555 1_555
O6 C14 1_555 1_555
C15 C14 1_555 1_555
H15 C15 1_555 1_555
H16 C15 1_555 1_555
C16 C15 1_555 1_555
H17 C16 1_555 1_555
H18 C16 1_555 1_555
C17 C16 1_555 1_555
H19 C17 1_555 1_555
H20 C17 1_555 1_555
C18 C17 1_555 1_555
H21 C18 1_555 1_555
H22 C18 1_555 1_555
N3 C18 1_555 1_555
C19 N3 1_555 1_555
N4 C19 1_555 1_555
C20 N4 1_555 1_555
C21 C20 1_555 1_555
C22 N3 1_555 1_555
O7 C22 1_555 1_555
O8 C19 1_555 1_555
C23 N4 1_555 1_555
H23 C23 1_555 1_555
H24 C23 1_555 1_555
H25 C23 1_555 1_555
N5 C20 1_555 1_555
C24 N5 1_555 1_555
H26 C24 1_555 1_555
N6 C21 1_555 1_555
C25 N6 1_555 1_555
H27 C25 1_555 1_555
H28 C25 1_555 1_555
H29 C25 1_555 1_555
O9 H30 1_555 1_555
H31 O9 1_555 1_555
C5 C6 1_555 1_555
C11 C12 1_555 1_555
C21 C22 1_555 1_555
C24 N6 1_555 1_555

#END
