
#######################################################################
#
#                 Cambridge Crystallographic Data Centre
#                                CCDC 
#
#######################################################################
#
# If this CIF has been generated from an entry in the Cambridge 
# Structural Database, then it will include bibliographic, chemical, 
# crystal, experimental, refinement or atomic coordinate data resulting 
# from the CCDC's data processing and validation procedures.
#
#######################################################################

data_FEFZEX
_chemical_name_common            
'Methyl 4-O-beta-D-mannopyranosyl beta-D-xylopyranoside'
_chemical_formula_moiety         'C12 H22 O10'
_chemical_name_systematic        
2-((4,5-Dihydroxy-6-methoxytetrahydro-2H-pyran-3-yl)oxy)-6-(hydroxymethyl)tetrahydro-2H-pyran-3,4,5-triol
_symmetry_cell_setting           monoclinic
_symmetry_space_group_name_H-M   'P 21'
_symmetry_Int_Tables_number      4
_space_group_name_Hall           'P 2yb'
loop_
_symmetry_equiv_pos_site_id
_symmetry_equiv_pos_as_xyz
1 x,y,z
2 -x,1/2+y,-z
_cell_length_a                   13.1578(6)
_cell_length_b                   4.6755(2)
_cell_length_c                   23.4908(11)
_cell_angle_alpha                90
_cell_angle_beta                 95.112(2)
_cell_angle_gamma                90
_cell_volume                     1439.39
_exptl_crystal_colour            colorless
_exptl_crystal_description       rod
_cell_formula_units_Z            4
loop_
_atom_site_label
_atom_site_type_symbol
_atom_site_fract_x
_atom_site_fract_y
_atom_site_fract_z
O1 O 0.18592(10) 0.6246(4) 1.04913(5)
O2 O 0.37438(9) 0.8998(3) 1.05197(5)
H1 H 0.4308 0.9688 1.0449
O3 O 0.46822(9) 0.8234(3) 0.94716(5)
H2 H 0.4914 0.8995 0.9186
O4 O 0.16205(10) 0.6702(3) 0.95259(5)
O5 O 0.31724(9) 0.9551(3) 0.84521(5)
O6 O 0.36087(9) 1.2392(3) 0.74799(5)
H3 H 0.3180 1.2832 0.7208
O7 O 0.44273(10) 0.9042(3) 0.65839(5)
H4 H 0.4266 1.0773 0.6542
O8 O 0.64208(9) 0.8568(3) 0.71565(5)
H5 H 0.6755 0.9961 0.7046
O9 O 0.48841(9) 0.9691(3) 0.83634(5)
O10 O 0.68409(9) 1.2524(3) 0.83909(5)
H6 H 0.6736 1.3187 0.8713
C1 C 0.21275(14) 0.7882(5) 1.00357(7)
H7 H 0.1926 0.9925 1.0083
C2 C 0.32794(13) 0.7619(4) 1.00222(7)
H8 H 0.3470 0.5548 1.0035
C3 C 0.36309(12) 0.8943(4) 0.94791(7)
H9 H 0.3567 1.1069 0.9505
C4 C 0.29819(13) 0.7910(4) 0.89495(7)
H10 H 0.3128 0.5845 0.8881
C5 C 0.18578(14) 0.8287(5) 0.90346(7)
H11 H 0.1706 1.0338 0.9088
H12 H 0.1435 0.7596 0.8693
C6 C 0.08504(16) 0.6818(7) 1.06467(9)
H13 H 0.0730 0.5721 1.0990
H14 H 0.0350 0.6258 1.0332
H15 H 0.0781 0.8865 1.0724
C7 C 0.39359(12) 0.8499(4) 0.81309(7)
H16 H 0.3964 0.6367 0.8161
C8 C 0.37092(13) 0.9365(4) 0.75088(7)
H17 H 0.3062 0.8441 0.7346
C9 C 0.45944(13) 0.8402(4) 0.71753(7)
H18 H 0.4636 0.6272 0.7209
C10 C 0.55968(12) 0.9590(4) 0.74504(7)
H19 H 0.5581 1.1728 0.7438
C11 C 0.57246(13) 0.8576(4) 0.80732(7)
H20 H 0.5689 0.6440 0.8077
C12 C 0.67154(13) 0.9488(4) 0.83941(7)
H21 H 0.6732 0.8812 0.8794
H22 H 0.7291 0.8583 0.8218
O11 O 0.36657(10) 0.5788(3) 0.49266(5)
O12 O 0.39334(9) 0.4124(3) 0.60806(5)
H23 H 0.4208 0.5599 0.6229
O13 O 0.21660(9) 0.4482(3) 0.66456(5)
H24 H 0.1662 0.3888 0.6807
O14 O 0.19851(9) 0.4634(3) 0.48731(5)
O15 O 0.02359(9) 0.2668(3) 0.59163(5)
O16 O -0.14996(10) 0.0227(3) 0.62938(5)
H25 H -0.1687 -0.0145 0.5951
O17 O -0.27955(9) 0.3559(3) 0.68864(5)
H26 H -0.3127 0.4993 0.6981
O18 O -0.14285(9) 0.4549(3) 0.79355(5)
H27 H -0.1976 0.3858 0.8033
O19 O 0.03231(9) 0.2582(3) 0.68901(5)
O20 O 0.16455(10) 0.3821(4) 0.78868(6)
H28 H 0.2099 0.2620 0.7992
C13 C 0.29791(12) 0.4042(4) 0.51630(7)
H29 H 0.3165 0.1984 0.5121
C14 C 0.29761(13) 0.4853(4) 0.57908(7)
H30 H 0.2887 0.6972 0.5816
C15 C 0.21105(12) 0.3423(4) 0.60761(7)
H31 H 0.2216 0.1305 0.6083
C16 C 0.11014(12) 0.4120(4) 0.57287(7)
H32 H 0.0981 0.6232 0.5736
C17 C 0.11795(13) 0.3149(4) 0.51131(7)
H33 H 0.1310 0.1065 0.5106
H34 H 0.0527 0.3530 0.4883
C18 C 0.40707(16) 0.4658(6) 0.44231(8)
H35 H 0.4606 0.5934 0.4307
H36 H 0.3523 0.4515 0.4113
H37 H 0.4359 0.2756 0.4507
C19 C -0.01894(12) 0.3872(4) 0.63890(7)
H38 H -0.0079 0.5989 0.6397
C20 C -0.13223(13) 0.3206(4) 0.63555(7)
H39 H -0.1676 0.4230 0.6021
C21 C -0.17417(12) 0.4270(4) 0.69036(7)
H40 H -0.1683 0.6403 0.6911
C22 C -0.11458(13) 0.3106(4) 0.74415(7)
H41 H -0.1255 0.0999 0.7476
C23 C -0.00191(13) 0.3766(4) 0.74098(7)
H42 H 0.0073 0.5888 0.7404
C24 C 0.06706(14) 0.2542(5) 0.78974(7)
H43 H 0.0389 0.2953 0.8266
H44 H 0.0725 0.0442 0.7855
loop_
_geom_bond_atom_site_label_1
_geom_bond_atom_site_label_2
_geom_bond_site_symmetry_1
_geom_bond_site_symmetry_2
O1 C1 1_555 1_555
O2 H1 1_555 1_555
O3 H2 1_555 1_555
O4 C1 1_555 1_555
O5 C4 1_555 1_555
O6 H3 1_555 1_555
O7 H4 1_555 1_555
O8 H5 1_555 1_555
O9 C7 1_555 1_555
O10 H6 1_555 1_555
C1 H7 1_555 1_555
C2 O2 1_555 1_555
H8 C2 1_555 1_555
C3 O3 1_555 1_555
H9 C3 1_555 1_555
C4 C3 1_555 1_555
H10 C4 1_555 1_555
C5 O4 1_555 1_555
H11 C5 1_555 1_555
H12 C5 1_555 1_555
C6 O1 1_555 1_555
H13 C6 1_555 1_555
H14 C6 1_555 1_555
H15 C6 1_555 1_555
C7 O5 1_555 1_555
H16 C7 1_555 1_555
C8 O6 1_555 1_555
H17 C8 1_555 1_555
C9 O7 1_555 1_555
H18 C9 1_555 1_555
C10 O8 1_555 1_555
H19 C10 1_555 1_555
C11 O9 1_555 1_555
H20 C11 1_555 1_555
C12 O10 1_555 1_555
H21 C12 1_555 1_555
H22 C12 1_555 1_555
O11 C13 1_555 1_555
O12 H23 1_555 1_555
O13 H24 1_555 1_555
O14 C13 1_555 1_555
O15 C16 1_555 1_555
O16 H25 1_555 1_555
O17 H26 1_555 1_555
O18 H27 1_555 1_555
O19 C19 1_555 1_555
O20 H28 1_555 1_555
C13 H29 1_555 1_555
C14 O12 1_555 1_555
H30 C14 1_555 1_555
C15 O13 1_555 1_555
H31 C15 1_555 1_555
C16 C15 1_555 1_555
H32 C16 1_555 1_555
C17 O14 1_555 1_555
H33 C17 1_555 1_555
H34 C17 1_555 1_555
C18 O11 1_555 1_555
H35 C18 1_555 1_555
H36 C18 1_555 1_555
H37 C18 1_555 1_555
C19 O15 1_555 1_555
H38 C19 1_555 1_555
C20 O16 1_555 1_555
H39 C20 1_555 1_555
C21 O17 1_555 1_555
H40 C21 1_555 1_555
C22 O18 1_555 1_555
H41 C22 1_555 1_555
C23 O19 1_555 1_555
H42 C23 1_555 1_555
C24 O20 1_555 1_555
H43 C24 1_555 1_555
H44 C24 1_555 1_555
C1 C2 1_555 1_555
C2 C3 1_555 1_555
C4 C5 1_555 1_555
C7 C8 1_555 1_555
C8 C9 1_555 1_555
C9 C10 1_555 1_555
C10 C11 1_555 1_555
C11 C12 1_555 1_555
C13 C14 1_555 1_555
C14 C15 1_555 1_555
C16 C17 1_555 1_555
C19 C20 1_555 1_555
C20 C21 1_555 1_555
C21 C22 1_555 1_555
C22 C23 1_555 1_555
C23 C24 1_555 1_555

#END
