
#######################################################################
#
#                 Cambridge Crystallographic Data Centre
#                                CCDC 
#
#######################################################################
#
# If this CIF has been generated from an entry in the Cambridge 
# Structural Database, then it will include bibliographic, chemical, 
# crystal, experimental, refinement or atomic coordinate data resulting 
# from the CCDC's data processing and validation procedures.
#
#######################################################################

data_FEGLIN
_chemical_compound_source        
'fruit bodies of xylariaceous ascomycete Hypoxylon rubiginosum'
_chemical_name_common            'Rubiginosic acid'
_chemical_formula_moiety         'C15 H26 O2'
_chemical_name_systematic        '2-Methyl-2E,4E-tetradecadienoic acid'
_symmetry_cell_setting           triclinic
_symmetry_space_group_name_H-M   'P 1'
_symmetry_Int_Tables_number      1
_space_group_name_Hall           'P 1'
loop_
_symmetry_equiv_pos_site_id
_symmetry_equiv_pos_as_xyz
1 x,y,z
_cell_length_a                   10.383(2)
_cell_length_b                   11.931(3)
_cell_length_c                   13.358(4)
_cell_angle_alpha                72.275(10)
_cell_angle_beta                 80.378(9)
_cell_angle_gamma                74.914(15)
_cell_volume                     1514.94
_exptl_crystal_colour            colorless
_exptl_crystal_description       cube
_chemical_melting_point          55-57deg.C
_cell_formula_units_Z            4
_exptl_crystal_recrystallization_method n-hexane/ether
loop_
_atom_site_label
_atom_site_type_symbol
_atom_site_fract_x
_atom_site_fract_y
_atom_site_fract_z
O1 O 0.2425(8) -0.0701(9) 0.4316(7)
O2 O 0.1296(7) -0.1341(9) 0.3396(7)
C10 C 0.2404(9) -0.1275(12) 0.3655(9)
C13 C 0.6156(11) -0.2246(10) 0.2992(8)
C15 C 0.3652(12) -0.1781(10) 0.3116(10)
C19 C 1.0422(10) -0.3753(13) 0.1791(11)
C21 C 1.2162(11) -0.4715(10) 0.0562(9)
C23 C 1.4062(13) -0.6325(14) -0.1580(11)
C28 C 0.7259(13) -0.2170(13) 0.3327(9)
C34 C 0.4838(11) -0.1746(12) 0.3400(10)
C35 C 0.8657(12) -0.2698(13) 0.2967(10)
C43 C 1.2414(14) -0.5320(13) -0.0327(10)
C47 C 0.3552(13) -0.2442(12) 0.2316(11)
C49 C 1.0689(9) -0.4272(12) 0.0899(10)
C51 C 1.3858(12) -0.5776(12) -0.0657(11)
C52 C 1.5440(18) -0.6857(19) -0.1881(18)
C54 C 0.8959(11) -0.3292(11) 0.2102(10)
H1 H 0.1332 -0.0291 0.4731
H18 H 0.6293 -0.2680 0.2471
H27 H 1.0806 -0.4308 0.2410
H28 H 1.0811 -0.3060 0.1573
H29 H 1.2600 -0.5268 0.1158
H30 H 1.2567 -0.4030 0.0297
H33 H 1.3639 -0.6998 -0.1362
H34 H 1.3651 -0.5735 -0.2172
H38 H 0.7121 -0.1732 0.3845
H45 H 0.4785 -0.1304 0.3903
H46 H 0.9155 -0.2075 0.2721
H47 H 0.9066 -0.3314 0.3547
H61 H 1.2024 -0.6014 -0.0058
H62 H 1.1962 -0.4772 -0.0919
H70 H 0.4407 -0.2785 0.2002
H71 H 0.3036 -0.1861 0.1775
H72 H 0.3084 -0.3070 0.2676
H74 H 1.0314 -0.4975 0.1122
H75 H 1.0290 -0.3722 0.0284
H78 H 1.4297 -0.6357 -0.0073
H79 H 1.4253 -0.5085 -0.0883
H80 H 1.5467 -0.7198 -0.2451
H81 H 1.5878 -0.7465 -0.1310
H82 H 1.5891 -0.6201 -0.2121
H85 H 0.8559 -0.2721 0.1496
H86 H 0.8551 -0.3974 0.2325
C1 C 0.9789(10) 0.0050(12) 0.0520(10)
C3 C 1.4860(14) -0.2807(16) -0.3405(14)
C8 C 0.5540(12) 0.1352(11) 0.1888(9)
O5 O 0.0700(8) 0.2172(9) 0.2396(8)
C12 C 1.1538(11) -0.0926(13) -0.0738(10)
C14 C 1.3233(11) -0.1894(11) -0.2026(10)
C24 C 0.1773(12) 0.2288(10) 0.2602(11)
C27 C 0.8066(11) 0.1035(11) 0.1786(8)
C30 C 0.3067(12) 0.1776(11) 0.2017(10)
C37 C 0.6627(12) 0.1446(12) 0.2188(9)
C38 C 0.4234(11) 0.1828(10) 0.2319(10)
C39 C 1.0053(11) -0.0515(11) -0.0367(10)
C41 C 1.3398(11) -0.2435(14) -0.2920(12)
C42 C 0.8314(12) 0.0432(12) 0.0886(9)
C46 C 0.2898(12) 0.1180(12) 0.1229(10)
C53 C 1.1732(12) -0.1478(14) -0.1627(12)
O7 O 0.1851(8) 0.2847(9) 0.3242(8)
H2 H 1.0211 -0.0494 0.1127
H3 H 1.0139 0.0766 0.0292
H6 H 1.4922 -0.3177 -0.3963
H7 H 1.5394 -0.3352 -0.2859
H8 H 1.5181 -0.2077 -0.3680
H14 H 0.5583 0.0898 0.1396
H16 H 1.1891 -0.0213 -0.1024
H17 H 1.2034 -0.1461 -0.0164
H19 H 1.3738 -0.2453 -0.1468
H20 H 1.3591 -0.1183 -0.2295
H36 H 0.8478 0.1715 0.1526
H37 H 0.8535 0.0452 0.2354
H51 H 0.6583 0.1905 0.2675
H52 H 0.4154 0.2257 0.2837
H53 H 0.9732 -0.1247 -0.0130
H54 H 0.9602 0.0017 -0.0965
H57 H 1.3074 -0.3164 -0.2643
H58 H 1.2862 -0.1889 -0.3465
H59 H 0.7853 0.1012 0.0314
H60 H 0.7916 -0.0257 0.1132
H67 H 0.3762 0.0888 0.0896
H68 H 0.2336 0.1724 0.0701
H69 H 0.2497 0.0511 0.1604
H83 H 1.1395 -0.2200 -0.1343
H84 H 1.1234 -0.0951 -0.2201
H94 H 0.0961 0.3255 0.3665
O3 O 0.9562(9) 0.3706(9) -0.5792(7)
C5 C 0.0102(13) 0.6722(11) -0.3262(11)
C6 C 0.7199(11) 0.4204(10) -0.5456(9)
C16 C 0.2149(12) 0.5057(13) -0.5387(11)
C17 C 0.1945(11) 0.5663(12) -0.4474(9)
C25 C 0.8508(12) 0.3606(10) -0.5971(10)
C26 C 0.3599(11) 0.4570(11) -0.5692(10)
C29 C 0.6087(11) 0.4130(10) -0.5735(9)
C32 C -0.1367(11) 0.7080(13) -0.2953(12)
O6 O 0.8412(9) 0.3026(10) -0.6636(8)
C40 C 0.0431(12) 0.6095(12) -0.4168(10)
C45 C -0.1610(11) 0.7643(12) -0.2039(12)
C48 C 0.4695(10) 0.4649(12) -0.5344(11)
C50 C -0.3077(12) 0.8083(14) -0.1683(11)
C55 C 0.7327(14) 0.4745(14) -0.4646(12)
C59 C -0.4656(18) 0.926(2) -0.0480(17)
C60 C -0.3292(17) 0.8686(19) -0.0819(16)
H11 H 0.0465 0.7430 -0.3468
H12 H 0.0540 0.6143 -0.2677
H21 H 0.1720 0.4387 -0.5146
H22 H 0.1750 0.5623 -0.5996
H23 H 0.2372 0.5105 -0.3874
H24 H 0.2345 0.6351 -0.4723
H35 H 0.3861 0.4157 -0.6234
H39 H 0.6093 0.3771 -0.6290
H41 H -0.1812 0.7618 -0.3551
H42 H -0.1718 0.6365 -0.2703
H55 H 0.0036 0.5405 -0.3976
H56 H 0.0031 0.6683 -0.4767
H65 H -0.1179 0.7096 -0.1437
H66 H -0.1235 0.8345 -0.2285
H73 H 0.4634 0.5017 -0.4786
H76 H -0.3524 0.8661 -0.2263
H77 H -0.3481 0.7398 -0.1439
H87 H 0.6437 0.5054 -0.4363
H88 H 0.7770 0.5399 -0.4968
H89 H 0.7821 0.4174 -0.4087
H98 H -0.4716 0.9614 0.0088
H99 H -0.5253 0.8720 -0.0299
H100 H -0.4901 0.9886 -0.1110
H101 H -0.3059 0.8070 -0.0181
H102 H -0.2707 0.9236 -0.0992
C2 C -0.0948(12) 0.3824(11) -0.0686(10)
O4 O 0.9007(8) -0.0503(8) -0.5617(7)
C4 C 0.2530(11) 0.1917(11) -0.3242(10)
C7 C 0.6647(10) 0.0542(11) -0.4625(9)
C9 C 0.9034(11) 0.0097(11) -0.4928(8)
C11 C 0.4182(11) 0.0882(11) -0.4523(11)
C18 C 0.0755(12) 0.2875(12) -0.1973(10)
C20 C 0.7794(11) 0.0599(11) -0.4400(9)
C22 C 0.2740(10) 0.1347(13) -0.4145(10)
C31 C 0.5279(11) 0.0999(12) -0.4199(10)
C33 C -0.0723(11) 0.3248(11) -0.1628(9)
C36 C 0.7905(14) 0.1174(12) -0.3552(11)
C44 C 0.1023(12) 0.2292(11) -0.2899(9)
C56 C -0.2595(14) 0.4748(14) 0.0653(11)
C57 C -0.2380(12) 0.4211(13) -0.0297(10)
O8 O 1.0135(9) 0.0186(9) -0.4728(8)
C58 C -0.4049(15) 0.5111(16) 0.1030(14)
H4 H -0.0524 0.3233 -0.0100
H5 H -0.0561 0.4518 -0.0887
H9 H 0.3021 0.1386 -0.2664
H10 H 0.2878 0.2633 -0.3525
H13 H 0.6619 0.0208 -0.5189
H15 H 0.4408 0.0545 -0.5114
H25 H 0.1144 0.3569 -0.2199
H26 H 0.1173 0.2309 -0.1373
H31 H 0.2397 0.0629 -0.3861
H32 H 0.2246 0.1876 -0.4721
H40 H 0.5191 0.1353 -0.3629
H43 H -0.1122 0.2561 -0.1430
H44 H -0.1137 0.3843 -0.2217
H48 H 0.8844 0.1076 -0.3513
H49 H 0.7505 0.0777 -0.2880
H50 H 0.7484 0.2019 -0.3733
H63 H 0.0572 0.2831 -0.3495
H64 H 0.0704 0.1559 -0.2671
H90 H -0.2178 0.4140 0.1234
H91 H -0.2206 0.5439 0.0477
H92 H -0.2826 0.4837 -0.0853
H93 H -0.2804 0.3538 -0.0096
H95 H -0.4135 0.5420 0.1629
H96 H -0.4458 0.4431 0.1222
H97 H -0.4486 0.5730 0.0465
loop_
_geom_bond_atom_site_label_1
_geom_bond_atom_site_label_2
_geom_bond_site_symmetry_1
_geom_bond_site_symmetry_2
O1 C10 1_555 1_555
C1 C39 1_555 1_555
O2 C10 1_555 1_555
O3 C25 1_555 1_555
C2 C33 1_555 1_555
O4 C9 1_555 1_555
C3 C41 1_555 1_555
C4 C22 1_555 1_555
C5 C32 1_555 1_555
C6 C25 1_555 1_555
C7 C20 1_555 1_555
C8 C37 1_555 1_555
O5 C24 1_555 1_555
C9 C20 1_555 1_555
C10 C15 1_555 1_555
C11 C22 1_555 1_555
C12 C39 1_555 1_555
C13 C28 1_555 1_555
C14 C41 1_555 1_555
C15 C34 1_555 1_555
C16 C17 1_555 1_555
C17 C40 1_555 1_555
C18 C33 1_555 1_555
C19 C49 1_555 1_555
C20 C36 1_555 1_555
C21 C43 1_555 1_555
C22 H31 1_555 1_555
C23 C51 1_555 1_555
C24 C30 1_555 1_555
C25 O6 1_555 1_555
C26 C16 1_555 1_555
C27 C37 1_555 1_555
C28 C35 1_555 1_555
C29 C6 1_555 1_555
C30 C38 1_555 1_555
C31 C7 1_555 1_555
C32 C45 1_555 1_555
C33 H43 1_555 1_555
C34 C13 1_555 1_555
C35 C54 1_555 1_555
C36 H48 1_555 1_555
C37 H51 1_555 1_555
C38 C8 1_555 1_555
C39 H53 1_555 1_555
C40 C5 1_555 1_555
C41 H57 1_555 1_555
C42 C1 1_555 1_555
C43 C51 1_555 1_555
C44 C4 1_555 1_555
C45 C50 1_555 1_555
C46 C30 1_555 1_555
C47 C15 1_555 1_555
C48 C26 1_555 1_555
C49 C21 1_555 1_555
C50 C60 1_555 1_555
C51 H78 1_555 1_555
C52 C23 1_555 1_555
C53 C12 1_555 1_555
C54 C19 1_555 1_555
C55 C6 1_555 1_555
C56 C57 1_555 1_555
C57 C2 1_555 1_555
O7 C24 1_555 1_555
O8 C9 1_555 1_555
C58 C56 1_555 1_555
C59 C60 1_555 1_555
C60 H101 1_555 1_555
H1 O1 1_555 1_555
H2 C1 1_555 1_555
H3 C1 1_555 1_555
H4 C2 1_555 1_555
H5 C2 1_555 1_555
H6 C3 1_555 1_555
H7 C3 1_555 1_555
H8 C3 1_555 1_555
H9 C4 1_555 1_555
H10 C4 1_555 1_555
H11 C5 1_555 1_555
H12 C5 1_555 1_555
H13 C7 1_555 1_555
H14 C8 1_555 1_555
H15 C11 1_555 1_555
H16 C12 1_555 1_555
H17 C12 1_555 1_555
H18 C13 1_555 1_555
H19 C14 1_555 1_555
H20 C14 1_555 1_555
H21 C16 1_555 1_555
H22 C16 1_555 1_555
H23 C17 1_555 1_555
H24 C17 1_555 1_555
H25 C18 1_555 1_555
H26 C18 1_555 1_555
H27 C19 1_555 1_555
H28 C19 1_555 1_555
H29 C21 1_555 1_555
H30 C21 1_555 1_555
H32 C22 1_555 1_555
H33 C23 1_555 1_555
H34 C23 1_555 1_555
H35 C26 1_555 1_555
H36 C27 1_555 1_555
H37 C27 1_555 1_555
H38 C28 1_555 1_555
H39 C29 1_555 1_555
H40 C31 1_555 1_555
H41 C32 1_555 1_555
H42 C32 1_555 1_555
H44 C33 1_555 1_555
H45 C34 1_555 1_555
H46 C35 1_555 1_555
H47 C35 1_555 1_555
H49 C36 1_555 1_555
H50 C36 1_555 1_555
H52 C38 1_555 1_555
H54 C39 1_555 1_555
H55 C40 1_555 1_555
H56 C40 1_555 1_555
H58 C41 1_555 1_555
H59 C42 1_555 1_555
H60 C42 1_555 1_555
H61 C43 1_555 1_555
H62 C43 1_555 1_555
H63 C44 1_555 1_555
H64 C44 1_555 1_555
H65 C45 1_555 1_555
H66 C45 1_555 1_555
H67 C46 1_555 1_555
H68 C46 1_555 1_555
H69 C46 1_555 1_555
H70 C47 1_555 1_555
H71 C47 1_555 1_555
H72 C47 1_555 1_555
H73 C48 1_555 1_555
H74 C49 1_555 1_555
H75 C49 1_555 1_555
H76 C50 1_555 1_555
H77 C50 1_555 1_555
H79 C51 1_555 1_555
H80 C52 1_555 1_555
H81 C52 1_555 1_555
H82 C52 1_555 1_555
H83 C53 1_555 1_555
H84 C53 1_555 1_555
H85 C54 1_555 1_555
H86 C54 1_555 1_555
H87 C55 1_555 1_555
H88 C55 1_555 1_555
H89 C55 1_555 1_555
H90 C56 1_555 1_555
H91 C56 1_555 1_555
H92 C57 1_555 1_555
H93 C57 1_555 1_555
H94 O7 1_555 1_555
H95 C58 1_555 1_555
H96 C58 1_555 1_555
H97 C58 1_555 1_555
H98 C59 1_555 1_555
H99 C59 1_555 1_555
H100 C59 1_555 1_555
H102 C60 1_555 1_555
C11 C31 1_555 1_555
C14 C53 1_555 1_555
C18 C44 1_555 1_555
C27 C42 1_555 1_555
C29 C48 1_555 1_555

#END
