
#######################################################################
#
#                 Cambridge Crystallographic Data Centre
#                                CCDC 
#
#######################################################################
#
# If this CIF has been generated from an entry in the Cambridge 
# Structural Database, then it will include bibliographic, chemical, 
# crystal, experimental, refinement or atomic coordinate data resulting 
# from the CCDC's data processing and validation procedures.
#
#######################################################################

data_FEGLUZ
_chemical_name_common            
'(R)-Ethyl(dimethyl)ammonium 2-(2-chloro-4-methylanilino)-2-(2-bromophenyl)ethanoate'
_chemical_formula_moiety         'C4 H12 N1 1+,C15 H12 Br1 Cl1 N1 O2 1-'
_chemical_name_systematic        
'(R)-Ethyl(dimethyl)ammonium (2-bromophenyl)-N-(2-chloro-4-methylphenyl)glycinate'
_chemical_properties_biological  'Corticotropin releasing factor antagonist'
_symmetry_cell_setting           monoclinic
_symmetry_space_group_name_H-M   'P 21'
_symmetry_Int_Tables_number      4
_space_group_name_Hall           'P 2yb'
loop_
_symmetry_equiv_pos_site_id
_symmetry_equiv_pos_as_xyz
1 x,y,z
2 -x,1/2+y,-z
_cell_length_a                   7.0696(11)
_cell_length_b                   8.9830(13)
_cell_length_c                   16.047(2)
_cell_angle_alpha                90
_cell_angle_beta                 92.632(3)
_cell_angle_gamma                90
_cell_volume                     1018.01
_exptl_crystal_colour            colorless
_exptl_crystal_description       plate
_cell_formula_units_Z            2
_exptl_crystal_recrystallization_method 'ethyl acetate/pentane'
loop_
_atom_site_label
_atom_site_type_symbol
_atom_site_fract_x
_atom_site_fract_y
_atom_site_fract_z
Br1 Br -0.6379(1) -0.6106(1) -0.1901(1)
Cl1 Cl 0.2324(2) -0.2168(2) -0.3186(1)
O1 O -0.2251(6) -0.5825(6) -0.0706(2)
O2 O 0.0367(5) -0.4641(5) -0.1026(2)
N1 N -0.0795(7) -0.4004(5) -0.2552(3)
C1 C -0.2126(7) -0.4876(6) -0.2083(3)
C2 C -0.1265(7) -0.5166(6) -0.1189(3)
C3 C -0.2613(6) -0.6353(6) -0.2502(3)
C4 C -0.1265(7) -0.7072(6) -0.2961(3)
C5 C -0.1632(10) -0.8441(8) -0.3355(4)
C6 C -0.3386(9) -0.9088(7) -0.3290(3)
C7 C -0.4762(7) -0.8388(6) -0.2845(3)
C8 C -0.4380(6) -0.7019(6) -0.2464(3)
C9 C -0.1250(8) -0.3323(6) -0.3287(4)
C10 C -0.3005(8) -0.3459(6) -0.3710(3)
C11 C -0.3418(7) -0.2726(6) -0.4458(3)
C12 C -0.2099(7) -0.1837(6) -0.4830(3)
C13 C -0.0306(7) -0.1694(6) -0.4423(3)
C14 C 0.0085(6) -0.2395(6) -0.3680(3)
C15 C -0.2587(7) -0.0985(11) -0.5618(3)
H1 H 0.0160(60) -0.3900(50) -0.2370(30)
H2 H -0.3294 -0.4299 -0.2040
H3 H -0.0083 -0.6632 -0.3007
H4 H -0.0706 -0.8905 -0.3656
H5 H -0.3646 -0.9999 -0.3546
H6 H -0.5941 -0.8831 -0.2800
H7 H -0.3925 -0.4059 -0.3486
H8 H -0.4615 -0.2834 -0.4716
H9 H 0.0620 -0.1118 -0.4661
H10 H -0.3673 -0.1429 -0.5901
H11 H -0.1534 -0.1013 -0.5974
H12 H -0.2866 0.0030 -0.5482
N2 N -0.2062(7) -0.0135(7) -0.0435(3)
C16 C -0.2663(13) -0.1731(9) -0.0491(5)
C17 C -0.3810(10) 0.0727(10) -0.0391(5)
C18 C -0.0981(11) 0.0445(14) -0.1127(4)
C19 C 0.0831(11) -0.0040(13) -0.1248(5)
H13 H -0.3206 -0.2022 0.0022
H14 H -0.1582 -0.2344 -0.0587
H15 H -0.3587 -0.1850 -0.0943
H16 H -0.3512 0.1769 -0.0366
H17 H -0.4452 0.0446 0.0100
H18 H -0.4614 0.0531 -0.0877
H19 H -0.1723 0.0249 -0.1638
H20 H -0.0922 0.1518 -0.1063
H21 H 0.1281 0.0401 -0.1747
H22 H 0.0833 -0.1104 -0.1303
H23 H 0.1645 0.0245 -0.0779
H24 H -0.1130(70) 0.0100(60) 0.0190(30)
loop_
_geom_bond_atom_site_label_1
_geom_bond_atom_site_label_2
_geom_bond_site_symmetry_1
_geom_bond_site_symmetry_2
Br1 C8 1_555 1_555
Cl1 C14 1_555 1_555
O1 C2 1_555 1_555
O2 C2 1_555 1_555
N1 C1 1_555 1_555
C1 C2 1_555 1_555
C3 C1 1_555 1_555
C4 C3 1_555 1_555
C5 C4 1_555 1_555
C6 C5 1_555 1_555
C7 C6 1_555 1_555
C8 C3 1_555 1_555
C9 N1 1_555 1_555
C10 C9 1_555 1_555
C11 C10 1_555 1_555
C12 C11 1_555 1_555
C13 C12 1_555 1_555
C14 C9 1_555 1_555
C15 C12 1_555 1_555
N2 C16 1_555 1_555
C16 H13 1_555 1_555
C17 N2 1_555 1_555
C18 N2 1_555 1_555
C19 C18 1_555 1_555
H1 N1 1_555 1_555
H2 C1 1_555 1_555
H3 C4 1_555 1_555
H4 C5 1_555 1_555
H5 C6 1_555 1_555
H6 C7 1_555 1_555
H7 C10 1_555 1_555
H8 C11 1_555 1_555
H9 C13 1_555 1_555
H10 C15 1_555 1_555
H11 C15 1_555 1_555
H12 C15 1_555 1_555
H14 C16 1_555 1_555
H15 C16 1_555 1_555
H16 C17 1_555 1_555
H17 C17 1_555 1_555
H18 C17 1_555 1_555
H19 C18 1_555 1_555
H20 C18 1_555 1_555
H21 C19 1_555 1_555
H22 C19 1_555 1_555
H23 C19 1_555 1_555
H24 N2 1_555 1_555
C7 C8 1_555 1_555
C13 C14 1_555 1_555

#END
