
#######################################################################
#
#                 Cambridge Crystallographic Data Centre
#                                CCDC 
#
#######################################################################
#
# If this CIF has been generated from an entry in the Cambridge 
# Structural Database, then it will include bibliographic, chemical, 
# crystal, experimental, refinement or atomic coordinate data resulting 
# from the CCDC's data processing and validation procedures.
#
#######################################################################

data_FEGVIW01
_chemical_formula_moiety         'C10 H18 N2 O4'
_chemical_name_systematic        
10,11,14,15-Tetraoxa-1,8-diazatricyclo(6.4.4.0^2,7^)hexadecane
_symmetry_cell_setting           triclinic
_symmetry_space_group_name_H-M   'P -1'
_symmetry_Int_Tables_number      2
_space_group_name_Hall           '-P 1'
loop_
_symmetry_equiv_pos_site_id
_symmetry_equiv_pos_as_xyz
1 x,y,z
2 -x,-y,-z
_cell_length_a                   6.9886(3)
_cell_length_b                   8.1717(17)
_cell_length_c                   11.202(3)
_cell_angle_alpha                73.836(18)
_cell_angle_beta                 76.15(3)
_cell_angle_gamma                68.994(21)
_cell_volume                     566.615
_exptl_crystal_description       'rectangular plates'
_cell_formula_units_Z            2
_exptl_crystal_recrystallization_method ethanol
loop_
_atom_site_label
_atom_site_type_symbol
_atom_site_fract_x
_atom_site_fract_y
_atom_site_fract_z
O1 O 0.1566(4) 0.1551(3) 0.01054(20)
O2 O 0.2522(4) 0.2910(3) -0.00024(21)
O3 O 0.1744(4) 0.1115(3) -0.31373(23)
O4 O 0.3104(4) 0.0022(3) -0.21819(22)
N1 N -0.0245(4) 0.3144(3) -0.17288(22)
N2 N 0.4214(4) 0.2616(3) -0.21287(23)
C1 C -0.0392(6) 0.2540(5) -0.0393(3)
C2 C 0.4434(6) 0.2559(5) -0.0919(3)
C3 C -0.0249(6) 0.2002(5) -0.2470(4)
C4 C 0.4757(6) 0.0829(5) -0.2457(4)
C5 C 0.0578(4) 0.4648(4) -0.2308(3)
C6 C 0.2897(5) 0.4099(4) -0.2883(3)
C7 C 0.3635(5) 0.5741(4) -0.3203(3)
C8 C 0.2382(6) 0.7245(4) -0.4144(3)
C9 C 0.0078(6) 0.7725(4) -0.3661(4)
C10 C -0.0683(6) 0.6087(4) -0.3274(3)
H1 H -0.117(4) 0.354(3) 0.0019(23)
H2 H -0.119(4) 0.170(4) -0.007(3)
H3 H 0.469(4) 0.360(4) -0.081(3)
H4 H 0.548(5) 0.140(4) -0.057(3)
H5 H -0.077(4) 0.260(3) -0.329(3)
H6 H -0.091(5) 0.107(4) -0.193(3)
H7 H 0.509(5) 0.093(4) -0.338(3)
H8 H 0.574(5) -0.001(4) -0.194(3)
H9 H 0.039(3) 0.520(3) -0.1626(20)
H10 H 0.302(4) 0.378(3) -0.3685(25)
H11 H 0.505(4) 0.547(3) -0.3530(24)
H12 H 0.347(4) 0.616(4) -0.240(3)
H13 H 0.273(5) 0.684(4) -0.499(3)
H14 H 0.289(4) 0.822(4) -0.433(3)
H15 H -0.068(5) 0.855(4) -0.429(3)
H16 H -0.024(4) 0.828(4) -0.289(3)
H17 H -0.206(5) 0.639(4) -0.296(3)
H18 H -0.053(4) 0.559(3) -0.407(3)
loop_
_geom_bond_atom_site_label_1
_geom_bond_atom_site_label_2
_geom_bond_site_symmetry_1
_geom_bond_site_symmetry_2
O1 O2 1_555 1_555
O2 C2 1_555 1_555
O3 O4 1_555 1_555
O4 C4 1_555 1_555
N1 C1 1_555 1_555
N2 C2 1_555 1_555
C1 O1 1_555 1_555
C2 H3 1_555 1_555
C3 O3 1_555 1_555
C4 N2 1_555 1_555
C5 N1 1_555 1_555
C6 N2 1_555 1_555
C7 C6 1_555 1_555
C8 C7 1_555 1_555
C9 C8 1_555 1_555
C10 C5 1_555 1_555
H1 C1 1_555 1_555
H2 C1 1_555 1_555
H4 C2 1_555 1_555
H5 C3 1_555 1_555
H6 C3 1_555 1_555
H7 C4 1_555 1_555
H8 C4 1_555 1_555
H9 C5 1_555 1_555
H10 C6 1_555 1_555
H11 C7 1_555 1_555
H12 C7 1_555 1_555
H13 C8 1_555 1_555
H14 C8 1_555 1_555
H15 C9 1_555 1_555
H16 C9 1_555 1_555
H17 C10 1_555 1_555
H18 C10 1_555 1_555
N1 C3 1_555 1_555
C5 C6 1_555 1_555
C9 C10 1_555 1_555

#END
