
#######################################################################
#
#                 Cambridge Crystallographic Data Centre
#                                CCDC 
#
#######################################################################
#
# If this CIF has been generated from an entry in the Cambridge 
# Structural Database, then it will include bibliographic, chemical, 
# crystal, experimental, refinement or atomic coordinate data resulting 
# from the CCDC's data processing and validation procedures.
#
#######################################################################

data_FEGYOF
_chemical_compound_source        'Psorospermum febrifugum Spach. (Guttiferae)'
_chemical_formula_moiety         'C23 H22 O7'
_chemical_name_systematic        3',4'-Epoxyrotenone
_symmetry_cell_setting           orthorhombic
_symmetry_space_group_name_H-M   'P 21 21 21'
_symmetry_Int_Tables_number      19
_space_group_name_Hall           'P 2ac 2ab'
loop_
_symmetry_equiv_pos_site_id
_symmetry_equiv_pos_as_xyz
1 x,y,z
2 1/2+x,1/2-y,-z
3 -x,1/2+y,1/2-z
4 1/2-x,-y,1/2+z
_cell_length_a                   4.536(2)
_cell_length_b                   16.49(2)
_cell_length_c                   25.31(2)
_cell_angle_alpha                90
_cell_angle_beta                 90
_cell_angle_gamma                90
_cell_volume                     1893.15
_exptl_crystal_colour            white
_chemical_melting_point          179-181deg.C
_cell_formula_units_Z            4
loop_
_atom_site_label
_atom_site_type_symbol
_atom_site_fract_x
_atom_site_fract_y
_atom_site_fract_z
C1 C 0.389(4) 0.2471(8) 0.7776(5)
C2 C 0.190(4) 0.2981(8) 0.7541(5)
O1 O 0.112(3) 0.2950(6) 0.7026(4)
C3 C 0.208(5) 0.231(1) 0.6722(6)
C4 C 0.085(4) 0.3629(8) 0.7834(5)
O2 O -0.103(3) 0.4134(6) 0.7570(4)
C5 C -0.204(4) 0.4839(9) 0.7836(5)
C6 C 0.142(3) 0.3682(7) 0.8368(5)
C7 C 0.337(3) 0.3146(7) 0.8601(5)
O3 O 0.378(2) 0.3235(5) 0.9138(3)
C8 C 0.619(3) 0.2819(7) 0.9365(5)
C9 C 0.647(3) 0.1966(7) 0.9160(5)
O4 O 0.392(2) 0.1524(5) 0.9337(3)
C10 C 0.375(4) 0.0739(8) 0.9136(6)
C11 C 0.220(3) 0.0216(8) 0.9434(5)
C12 C 0.198(4) -0.0589(8) 0.9246(5)
O5 O 0.043(2) -0.1073(5) 0.9583(4)
C13 C 0.330(4) -0.0865(8) 0.8787(5)
C14 C 0.488(3) -0.0294(7) 0.8510(5)
C15 C 0.518(3) 0.0496(8) 0.8677(5)
C16 C 0.666(3) 0.1088(8) 0.8350(5)
O6 O 0.771(2) 0.0938(5) 0.7926(4)
C17 C 0.690(3) 0.1966(7) 0.8568(5)
C18 C 0.464(3) 0.2527(8) 0.8311(5)
C19 C 0.055(3) 0.0265(7) 0.9951(5)
C20 C -0.100(3) -0.0572(8) 0.9989(5)
C21 C -0.062(4) -0.1000(8) 1.0507(6)
O7 O 0.215(2) -0.0846(6) 1.0786(4)
C22 C -0.065(5) -0.0549(8) 1.0982(6)
C23 C -0.172(4) -0.1856(8) 1.0508(5)
loop_
_geom_bond_atom_site_label_1
_geom_bond_atom_site_label_2
_geom_bond_site_symmetry_1
_geom_bond_site_symmetry_2
C1 C2 1_555 1_555
C2 O1 1_555 1_555
O1 C3 1_555 1_555
C4 C2 1_555 1_555
O2 C4 1_555 1_555
C5 O2 1_555 1_555
C6 C4 1_555 1_555
C7 C6 1_555 1_555
O3 C7 1_555 1_555
C8 O3 1_555 1_555
C9 C8 1_555 1_555
O4 C9 1_555 1_555
C10 O4 1_555 1_555
C11 C10 1_555 1_555
C12 C11 1_555 1_555
O5 C12 1_555 1_555
C13 C12 1_555 1_555
C14 C13 1_555 1_555
C15 C10 1_555 1_555
C16 C15 1_555 1_555
O6 C16 1_555 1_555
C17 C9 1_555 1_555
C18 C1 1_555 1_555
C19 C11 1_555 1_555
C20 O5 1_555 1_555
C21 C20 1_555 1_555
O7 C21 1_555 1_555
C22 C21 1_555 1_555
C23 C21 1_555 1_555
C7 C18 1_555 1_555
C14 C15 1_555 1_555
C16 C17 1_555 1_555
C17 C18 1_555 1_555
C19 C20 1_555 1_555
O7 C22 1_555 1_555

#END
