
#######################################################################
#
#                 Cambridge Crystallographic Data Centre
#                                CCDC 
#
#######################################################################
#
# If this CIF has been generated from an entry in the Cambridge 
# Structural Database, then it will include bibliographic, chemical, 
# crystal, experimental, refinement or atomic coordinate data resulting 
# from the CCDC's data processing and validation procedures.
#
#######################################################################

data_FEGYUL
_chemical_formula_moiety         'C15 H18 O2 S1'
_chemical_name_systematic        
cis-7a-Hydroxy-3a-phenylsulfenyl-3a,4,5,6,7,7a-hexahydroindan-4-one
_symmetry_cell_setting           orthorhombic
_symmetry_space_group_name_H-M   'P b c a'
_symmetry_Int_Tables_number      61
_space_group_name_Hall           '-P 2ac 2ab'
loop_
_symmetry_equiv_pos_site_id
_symmetry_equiv_pos_as_xyz
1 x,y,z
2 1/2-x,-y,1/2+z
3 1/2+x,1/2-y,-z
4 -x,1/2+y,1/2-z
5 -x,-y,-z
6 1/2+x,y,1/2-z
7 1/2-x,1/2+y,z
8 x,1/2-y,1/2+z
_cell_length_a                   8.380
_cell_length_b                   13.780
_cell_length_c                   23.693
_cell_angle_alpha                90
_cell_angle_beta                 90
_cell_angle_gamma                90
_cell_volume                     2735.98
_chemical_melting_point          105-106deg.C
_cell_formula_units_Z            8
loop_
_atom_site_label
_atom_site_type_symbol
_atom_site_fract_x
_atom_site_fract_y
_atom_site_fract_z
C1 C 0.2456(4) 0.4139(2) 0.9738(1)
C2 C 0.3836(4) 0.3600(2) 1.0013(1)
C3 C 0.4901(5) 0.3222(2) 0.9537(1)
C4 C 0.3834(3) 0.3268(2) 0.9012(1)
C5 C 0.2724(3) 0.2395(2) 0.8969(1)
C6 C 0.1325(4) 0.2494(2) 0.8574(2)
C7 C 0.0350(4) 0.3387(2) 0.8722(2)
C8 C 0.1387(3) 0.4297(2) 0.8716(2)
C9 C 0.2833(3) 0.4203(2) 0.9101(1)
C10 C 0.5605(3) 0.2149(3) 0.8220(1)
C11 C 0.5048(3) 0.1647(2) 0.7753(1)
C12 C 0.5664(4) 0.0743(2) 0.7624(1)
C13 C 0.6814(3) 0.0322(2) 0.7959(2)
C14 C 0.7359(3) 0.0819(2) 0.8430(1)
C15 C 0.6785(3) 0.1730(2) 0.8553(1)
O1 O 0.2965(3) 0.1671(1) 0.92411(9)
O2 O 0.3890(2) 0.4992(1) 0.89994(9)
S1 S 0.49291(9) 0.33576(5) 0.83399(3)
H1 H 0.13520 0.37250 0.97710
H2 H 0.25040 0.48260 0.99110
H3 H 0.34110 0.30530 1.02680
H4 H 0.43090 0.40250 1.02710
H5 H 0.53550 0.25400 0.96410
H6 H 0.57730 0.37680 0.94800
H7 H 0.05770 0.19460 0.85980
H8 H 0.18960 0.26020 0.81230
H9 H -0.02530 0.33920 0.84710
H10 H -0.01390 0.32650 0.91300
H11 H 0.07630 0.48590 0.88540
H12 H 0.18400 0.44260 0.82320
H13 H 0.41780 0.19600 0.75200
H14 H 0.52380 0.03180 0.72710
H15 H 0.73430 -0.04090 0.79140
H16 H 0.82230 0.04420 0.86530
H17 H 0.72190 0.20980 0.89110
H18 H 0.33110 0.55650 0.89990
loop_
_geom_bond_atom_site_label_1
_geom_bond_atom_site_label_2
_geom_bond_site_symmetry_1
_geom_bond_site_symmetry_2
C1 C2 1_555 1_555
C2 C3 1_555 1_555
C3 C4 1_555 1_555
C4 C5 1_555 1_555
C5 C6 1_555 1_555
C6 C7 1_555 1_555
C7 C8 1_555 1_555
C8 C9 1_555 1_555
C9 C1 1_555 1_555
C10 C11 1_555 1_555
C11 C12 1_555 1_555
C12 C13 1_555 1_555
C13 C14 1_555 1_555
C14 C15 1_555 1_555
C15 C10 1_555 1_555
O1 C5 1_555 1_555
O2 C9 1_555 1_555
S1 C4 1_555 1_555
H1 C1 1_555 1_555
H2 C1 1_555 1_555
H3 C2 1_555 1_555
H4 C2 1_555 1_555
H5 C3 1_555 1_555
H6 C3 1_555 1_555
H7 C6 1_555 1_555
H8 C6 1_555 1_555
H9 C7 1_555 1_555
H10 C7 1_555 1_555
H11 C8 1_555 1_555
H12 C8 1_555 1_555
H13 C11 1_555 1_555
H14 C12 1_555 1_555
H15 C13 1_555 1_555
H16 C14 1_555 1_555
H17 C15 1_555 1_555
H18 O2 1_555 1_555
C4 C9 1_555 1_555
C10 S1 1_555 1_555

#END
