
#######################################################################
#
#                 Cambridge Crystallographic Data Centre
#                                CCDC 
#
#######################################################################
#
# If this CIF has been generated from an entry in the Cambridge 
# Structural Database, then it will include bibliographic, chemical, 
# crystal, experimental, refinement or atomic coordinate data resulting 
# from the CCDC's data processing and validation procedures.
#
#######################################################################

data_FEGZUP
_chemical_formula_moiety         'C18 H17 N3 O3'
_chemical_name_systematic        
'methyl 4-{1-[(4-methoxyphenyl)methyl]-1H-1,2,3-triazol-4-yl}benzoate'
_symmetry_cell_setting           orthorhombic
_symmetry_space_group_name_H-M   'P n a 21'
_symmetry_Int_Tables_number      33
_space_group_name_Hall           'P 2c -2n'
loop_
_symmetry_equiv_pos_site_id
_symmetry_equiv_pos_as_xyz
1 x,y,z
2 -x,-y,1/2+z
3 1/2+x,1/2-y,z
4 1/2-x,1/2+y,1/2+z
_cell_length_a                   24.807(3)
_cell_length_b                   5.7253(8)
_cell_length_c                   32.699(4)
_cell_angle_alpha                90
_cell_angle_beta                 90
_cell_angle_gamma                90
_cell_volume                     4644.16
_exptl_crystal_colour            colorless
_exptl_crystal_description       Prism
_cell_formula_units_Z            12
loop_
_atom_site_label
_atom_site_type_symbol
_atom_site_fract_x
_atom_site_fract_y
_atom_site_fract_z
O1 O 0.98018(5) 0.5039(2) 0.52786(3)
O2 O 1.07090(5) 0.9126(2) 0.93543(4)
O3 O 1.08011(5) 1.2792(2) 0.91261(4)
N1 N 0.90183(5) 0.7324(2) 0.71041(4)
N2 N 0.89873(5) 0.9657(2) 0.70713(4)
N3 N 0.92764(5) 1.0543(2) 0.73727(4)
C1 C 0.89949(6) 0.7325(3) 0.61100(5)
H1 H 0.8789 0.8690 0.6164
C2 C 0.92556(6) 0.7088(3) 0.57373(5)
H2 H 0.9228 0.8288 0.5538
C3 C 0.95570(6) 0.5097(3) 0.56560(5)
C4 C 0.95964(6) 0.3339(3) 0.59463(5)
H3 H 0.9801 0.1972 0.5892
C5 C 0.93313(6) 0.3606(3) 0.63204(5)
H4 H 0.9358 0.2403 0.6519
C6 C 0.90313(6) 0.5580(3) 0.64080(5)
C7 C 0.87349(6) 0.5824(3) 0.68083(5)
H5 H 0.8373 0.6486 0.6755
H6 H 0.8685 0.4255 0.6930
C8 C 0.93229(6) 0.6688(3) 0.74257(5)
H7 H 0.9406 0.5148 0.7514
C9 C 0.94872(6) 0.8763(3) 0.75997(5)
C10 C 0.98035(6) 0.9213(3) 0.79698(5)
C11 C 1.00720(6) 1.1335(3) 0.80233(5)
H8 H 1.0070 1.2464 0.7810
C12 C 1.03428(6) 1.1804(3) 0.83868(5)
H9 H 1.0518 1.3265 0.8423
C13 C 1.03580(6) 1.0138(3) 0.86991(5)
C14 C 1.01037(6) 0.7991(3) 0.86419(5)
H10 H 1.0119 0.6835 0.8850
C15 C 0.98285(6) 0.7541(3) 0.82818(5)
H11 H 0.9654 0.6078 0.8246
C16 C 1.06411(6) 1.0576(3) 0.90916(5)
C17 C 1.10671(7) 1.3407(3) 0.95028(5)
H12 H 1.0824 1.3110 0.9733
H13 H 1.1164 1.5067 0.9497
H14 H 1.1394 1.2464 0.9534
C18 C 1.00900(7) 0.2981(3) 0.51704(6)
H15 H 1.0365 0.2660 0.5378
H16 H 1.0264 0.3205 0.4904
H17 H 0.9839 0.1661 0.5155
O4 O 0.34001(4) 0.48151(19) 0.01889(3)
O5 O 0.26998(5) 0.0887(2) 0.42350(4)
O6 O 0.26265(5) -0.2812(2) 0.40204(4)
N4 N 0.43755(5) 0.2634(2) 0.19735(4)
N5 N 0.44132(5) 0.0296(2) 0.19386(4)
N6 N 0.41557(5) -0.0604(2) 0.22547(4)
C19 C 0.42633(6) 0.2572(3) 0.09895(5)
H18 H 0.4468 0.1197 0.1039
C20 C 0.39709(6) 0.2774(3) 0.06316(5)
H19 H 0.3975 0.1542 0.0437
C21 C 0.36698(6) 0.4783(3) 0.05556(5)
C22 C 0.36567(6) 0.6567(3) 0.08419(5)
H20 H 0.3448 0.7930 0.0794
C23 C 0.39556(6) 0.6337(3) 0.12039(5)
H21 H 0.3948 0.7557 0.1401
C24 C 0.42623(6) 0.4361(3) 0.12791(5)
C25 C 0.46088(6) 0.4168(3) 0.16589(5)
H22 H 0.4968 0.3560 0.1581
H23 H 0.4660 0.5746 0.1776
C26 C 0.40971(6) 0.3233(3) 0.23099(5)
H24 H 0.4015 0.4764 0.2403
C27 C 0.39570(6) 0.1160(3) 0.24906(5)
C28 C 0.36475(6) 0.0693(3) 0.28655(5)
C29 C 0.36212(6) 0.2375(3) 0.31751(5)
H25 H 0.3800 0.3828 0.3140
C30 C 0.33363(7) 0.1944(3) 0.35321(5)
H26 H 0.3317 0.3106 0.3739
C31 C 0.30781(6) -0.0194(3) 0.35871(5)
C32 C 0.30961(6) -0.1867(3) 0.32789(5)
H27 H 0.2915 -0.3316 0.3314
C33 C 0.33776(6) -0.1422(3) 0.29200(5)
H28 H 0.3386 -0.2568 0.2710
C34 C 0.27816(6) -0.0597(3) 0.39807(5)
C35 C 0.23423(7) -0.3367(3) 0.43959(5)
H29 H 0.2574 -0.3019 0.4631
H30 H 0.2248 -0.5030 0.4397
H31 H 0.2013 -0.2428 0.4413
C36 C 0.31463(7) 0.6940(3) 0.00700(5)
H32 H 0.2879 0.7387 0.0277
H33 H 0.2967 0.6723 -0.0194
H34 H 0.3418 0.8174 0.0046
O7 O 0.18722(4) -0.0033(2) 0.02644(3)
O8 O 0.09632(5) 0.4156(2) 0.43530(4)
O9 O 0.08584(5) 0.7773(2) 0.41039(4)
N7 N 0.26552(5) 0.2042(2) 0.21070(4)
N8 N 0.26959(5) 0.4379(2) 0.20705(4)
N9 N 0.24216(5) 0.5302(2) 0.23741(4)
C37 C 0.26609(6) 0.2112(3) 0.11157(5)
H35 H 0.2870 0.3456 0.1177
C38 C 0.24088(6) 0.1935(3) 0.07406(5)
H36 H 0.2446 0.3154 0.0546
C39 C 0.21000(6) -0.0021(3) 0.06472(5)
C40 C 0.20433(6) -0.1804(3) 0.09314(5)
H37 H 0.1832 -0.3143 0.0870
C41 C 0.23013(6) -0.1601(3) 0.13098(5)
H38 H 0.2263 -0.2819 0.1505
C42 C 0.26111(6) 0.0333(3) 0.14070(5)
C43 C 0.29148(6) 0.0496(3) 0.18051(5)
H39 H 0.2948 -0.1088 0.1924
H40 H 0.3283 0.1079 0.1749
C44 C 0.23555(6) 0.1453(3) 0.24358(5)
H41 H 0.2268 -0.0073 0.2529
C45 C 0.22050(6) 0.3554(3) 0.26074(5)
C46 C 0.18875(6) 0.4054(3) 0.29755(5)
C47 C 0.18545(6) 0.2418(3) 0.32928(5)
H42 H 0.2029 0.0950 0.3265
C48 C 0.15697(6) 0.2912(3) 0.36475(5)
H43 H 0.1549 0.1781 0.3859
C49 C 0.13149(6) 0.5062(3) 0.36935(5)
C50 C 0.13376(6) 0.6692(3) 0.33741(5)
H44 H 0.1160 0.8154 0.3401
C51 C 0.16193(6) 0.6178(3) 0.30185(5)
H45 H 0.1629 0.7285 0.2802
C52 C 0.10272(6) 0.5565(3) 0.40837(5)
C53 C 0.05927(7) 0.8441(3) 0.44787(5)
H46 H 0.0270 0.7479 0.4517
H47 H 0.0489 1.0090 0.4464
H48 H 0.0839 0.8207 0.4710
C54 C 0.15805(7) -0.2057(3) 0.01431(6)
H49 H 0.1824 -0.3406 0.0138
H50 H 0.1429 -0.1814 -0.0130
H51 H 0.1288 -0.2346 0.0338
loop_
_geom_bond_atom_site_label_1
_geom_bond_atom_site_label_2
_geom_bond_site_symmetry_1
_geom_bond_site_symmetry_2
O1 C3 1_555 1_555
O2 C16 1_555 1_555
O3 C16 1_555 1_555
N1 N2 1_555 1_555
N2 N3 1_555 1_555
N3 C9 1_555 1_555
C1 H1 1_555 1_555
C2 C1 1_555 1_555
H2 C2 1_555 1_555
C3 C2 1_555 1_555
C4 C3 1_555 1_555
H3 C4 1_555 1_555
C5 C4 1_555 1_555
H4 C5 1_555 1_555
C6 C1 1_555 1_555
C7 N1 1_555 1_555
H5 C7 1_555 1_555
H6 C7 1_555 1_555
C8 N1 1_555 1_555
H7 C8 1_555 1_555
C9 C8 1_555 1_555
C10 C9 1_555 1_555
C11 C10 1_555 1_555
H8 C11 1_555 1_555
C12 C11 1_555 1_555
H9 C12 1_555 1_555
C13 C12 1_555 1_555
C14 C13 1_555 1_555
H10 C14 1_555 1_555
C15 C10 1_555 1_555
H11 C15 1_555 1_555
C16 C13 1_555 1_555
C17 O3 1_555 1_555
H12 C17 1_555 1_555
H13 C17 1_555 1_555
H14 C17 1_555 1_555
C18 O1 1_555 1_555
H15 C18 1_555 1_555
H16 C18 1_555 1_555
H17 C18 1_555 1_555
O4 C21 1_555 1_555
O5 C34 1_555 1_555
O6 C34 1_555 1_555
N4 N5 1_555 1_555
N5 N6 1_555 1_555
N6 C27 1_555 1_555
C19 H18 1_555 1_555
C20 C19 1_555 1_555
H19 C20 1_555 1_555
C21 C20 1_555 1_555
C22 C21 1_555 1_555
H20 C22 1_555 1_555
C23 C22 1_555 1_555
H21 C23 1_555 1_555
C24 C19 1_555 1_555
C25 N4 1_555 1_555
H22 C25 1_555 1_555
H23 C25 1_555 1_555
C26 N4 1_555 1_555
H24 C26 1_555 1_555
C27 C26 1_555 1_555
C28 C27 1_555 1_555
C29 C28 1_555 1_555
H25 C29 1_555 1_555
C30 C29 1_555 1_555
H26 C30 1_555 1_555
C31 C30 1_555 1_555
C32 C31 1_555 1_555
H27 C32 1_555 1_555
C33 C28 1_555 1_555
H28 C33 1_555 1_555
C34 C31 1_555 1_555
C35 O6 1_555 1_555
H29 C35 1_555 1_555
H30 C35 1_555 1_555
H31 C35 1_555 1_555
C36 O4 1_555 1_555
H32 C36 1_555 1_555
H33 C36 1_555 1_555
H34 C36 1_555 1_555
O7 C39 1_555 1_555
O8 C52 1_555 1_555
O9 C52 1_555 1_555
N7 N8 1_555 1_555
N8 N9 1_555 1_555
N9 C45 1_555 1_555
C37 H35 1_555 1_555
C38 C37 1_555 1_555
H36 C38 1_555 1_555
C39 C38 1_555 1_555
C40 C39 1_555 1_555
H37 C40 1_555 1_555
C41 C40 1_555 1_555
H38 C41 1_555 1_555
C42 C37 1_555 1_555
C43 N7 1_555 1_555
H39 C43 1_555 1_555
H40 C43 1_555 1_555
C44 N7 1_555 1_555
H41 C44 1_555 1_555
C45 C44 1_555 1_555
C46 C45 1_555 1_555
C47 C46 1_555 1_555
H42 C47 1_555 1_555
C48 C47 1_555 1_555
H43 C48 1_555 1_555
C49 C48 1_555 1_555
C50 C49 1_555 1_555
H44 C50 1_555 1_555
C51 C46 1_555 1_555
H45 C51 1_555 1_555
C52 C49 1_555 1_555
C53 O9 1_555 1_555
H46 C53 1_555 1_555
H47 C53 1_555 1_555
H48 C53 1_555 1_555
C54 O7 1_555 1_555
H49 C54 1_555 1_555
H50 C54 1_555 1_555
H51 C54 1_555 1_555
C5 C6 1_555 1_555
C6 C7 1_555 1_555
C14 C15 1_555 1_555
C23 C24 1_555 1_555
C24 C25 1_555 1_555
C32 C33 1_555 1_555
C41 C42 1_555 1_555
C42 C43 1_555 1_555
C50 C51 1_555 1_555

#END
