
#######################################################################
#
#                 Cambridge Crystallographic Data Centre
#                                CCDC 
#
#######################################################################
#
# If this CIF has been generated from an entry in the Cambridge 
# Structural Database, then it will include bibliographic, chemical, 
# crystal, experimental, refinement or atomic coordinate data resulting 
# from the CCDC's data processing and validation procedures.
#
#######################################################################

data_FEGZEW
_chemical_formula_moiety         'C15 H16 O1 S1'
_chemical_name_systematic        
3-Phenylsulfenylbicyclo(4.3.0)nona-1(6)-en-2-one
_symmetry_cell_setting           orthorhombic
_symmetry_space_group_name_H-M   'P 21 21 21'
_symmetry_Int_Tables_number      19
_space_group_name_Hall           'P 2ac 2ab'
loop_
_symmetry_equiv_pos_site_id
_symmetry_equiv_pos_as_xyz
1 x,y,z
2 1/2+x,1/2-y,-z
3 -x,1/2+y,1/2-z
4 1/2-x,-y,1/2+z
_cell_length_a                   7.590
_cell_length_b                   9.260
_cell_length_c                   18.292
_cell_angle_alpha                90
_cell_angle_beta                 90
_cell_angle_gamma                90
_cell_volume                     1285.62
_chemical_melting_point          91.0-92.5deg.C
_cell_formula_units_Z            4
loop_
_atom_site_label
_atom_site_type_symbol
_atom_site_fract_x
_atom_site_fract_y
_atom_site_fract_z
C1 C 1.0392(9) -0.6237(7) 0.2655(4)
C2 C 1.0548(9) -0.5397(8) 0.3372(4)
C3 C 0.8782(9) -0.4640(6) 0.3488(3)
C4 C 0.7851(9) -0.4786(7) 0.2767(3)
C5 C 0.6172(9) -0.4146(7) 0.2583(3)
C6 C 0.5377(7) -0.4692(6) 0.1868(3)
C7 C 0.6839(8) -0.4859(7) 0.1291(3)
C8 C 0.8183(8) -0.5958(6) 0.1547(3)
C9 C 0.8777(9) -0.5633(7) 0.2311(4)
C10 C 0.2662(7) -0.4414(8) 0.0859(3)
C11 C 0.161(1) -0.3585(7) 0.0404(4)
C12 C 0.076(1) -0.419(1) -0.0177(4)
C13 C 0.094(1) -0.563(1) -0.0327(3)
C14 C 0.1974(9) -0.6473(8) 0.0118(4)
C15 C 0.2828(8) -0.5869(8) 0.0706(4)
S1 S 0.3595(2) -0.3520(2) 0.16134(8)
O1 O 0.5404(6) -0.3287(5) 0.2971(2)
loop_
_geom_bond_atom_site_label_1
_geom_bond_atom_site_label_2
_geom_bond_site_symmetry_1
_geom_bond_site_symmetry_2
C1 C2 1_555 1_555
C2 C3 1_555 1_555
C3 C4 1_555 1_555
C4 C5 1_555 1_555
C5 C6 1_555 1_555
C6 C7 1_555 1_555
C7 C8 1_555 1_555
C8 C9 1_555 1_555
C9 C1 1_555 1_555
C10 C11 1_555 1_555
C11 C12 1_555 1_555
C12 C13 1_555 1_555
C13 C14 1_555 1_555
C14 C15 1_555 1_555
C15 C10 1_555 1_555
S1 C6 1_555 1_555
O1 C5 1_555 1_555
C4 C9 1_555 1_555
C10 S1 1_555 1_555

#END
