
#######################################################################
#
#                 Cambridge Crystallographic Data Centre
#                                CCDC 
#
#######################################################################
#
# If this CIF has been generated from an entry in the Cambridge 
# Structural Database, then it will include bibliographic, chemical, 
# crystal, experimental, refinement or atomic coordinate data resulting 
# from the CCDC's data processing and validation procedures.
#
#######################################################################

data_FEGZOJ
_chemical_formula_moiety         'C18 H16 I1 N3 O3'
_chemical_name_systematic        
'methyl 4-{5-iodo-1-[(4-methoxyphenyl)methyl]-1H-1,2,3-triazol-4-yl}benzoate'
_symmetry_cell_setting           monoclinic
_symmetry_space_group_name_H-M   'P 21/c'
_symmetry_Int_Tables_number      14
_space_group_name_Hall           '-P 2ybc'
loop_
_symmetry_equiv_pos_site_id
_symmetry_equiv_pos_as_xyz
1 x,y,z
2 -x,1/2+y,1/2-z
3 -x,-y,-z
4 x,1/2-y,1/2+z
_cell_length_a                   12.250(2)
_cell_length_b                   8.7012(17)
_cell_length_c                   16.867(3)
_cell_angle_alpha                90
_cell_angle_beta                 102.59(3)
_cell_angle_gamma                90
_cell_volume                     1754.62
_exptl_crystal_colour            colorless
_exptl_crystal_description       colummar
_cell_formula_units_Z            4
loop_
_atom_site_label
_atom_site_type_symbol
_atom_site_fract_x
_atom_site_fract_y
_atom_site_fract_z
I1 I 0.227365(15) 0.744440(19) 0.185841(11)
N1 N 0.44738(17) 0.8034(3) 0.30309(13)
N2 N 0.5100(2) 0.7760(3) 0.37732(18)
N3 N 0.45165(17) 0.6892(3) 0.41594(14)
O1 O 0.77505(16) 0.5219(2) 0.09673(13)
O2 O -0.0433(2) 0.2445(2) 0.46662(17)
O3 O 0.0923(2) 0.2412(2) 0.57849(17)
C1 C 0.5318(3) 0.7430(3) 0.1272(2)
H1 H 0.4601 0.7699 0.0995
C2 C 0.5977(2) 0.6512(3) 0.08793(16)
H2 H 0.5706 0.6186 0.0348
C3 C 0.70328(19) 0.6100(3) 0.12941(16)
C4 C 0.7368(3) 0.4706(4) 0.0157(2)
H3 H 0.7940 0.4099 -0.0001
H4 H 0.7199 0.5578 -0.0198
H5 H 0.6707 0.4095 0.0120
C5 C 0.7432(2) 0.6590(3) 0.20887(17)
H6 H 0.8141 0.6298 0.2370
C6 C 0.6773(3) 0.7512(3) 0.2461(2)
H7 H 0.7048 0.7849 0.2990
C7 C 0.5695(2) 0.7946(3) 0.20515(17)
C8 C 0.4971(2) 0.8925(3) 0.24621(16)
H8 H 0.5418 0.9751 0.2754
H9 H 0.4380 0.9382 0.2053
C9 C 0.3464(2) 0.7313(3) 0.29346(18)
C10 C 0.35001(18) 0.6578(3) 0.36623(14)
C11 C 0.26980(19) 0.5627(3) 0.39905(14)
C12 C 0.1599(2) 0.5348(4) 0.35774(16)
H10 H 0.1339 0.5772 0.3065
C13 C 0.0895(2) 0.4455(3) 0.39173(16)
H11 H 0.0169 0.4272 0.3629
C14 C 0.12558(19) 0.3827(3) 0.46835(15)
C15 C 0.2343(2) 0.4104(3) 0.50991(17)
H12 H 0.2597 0.3697 0.5616
C16 C 0.3051(2) 0.4980(3) 0.47504(17)
H13 H 0.3783 0.5139 0.5034
C17 C 0.0487(3) 0.2837(3) 0.5026(2)
C18 C 0.0244(2) 0.1403(4) 0.6170(2)
H14 H 0.0639 0.1175 0.6714
H15 H 0.0095 0.0466 0.5866
H16 H -0.0450 0.1904 0.6186
loop_
_geom_bond_atom_site_label_1
_geom_bond_atom_site_label_2
_geom_bond_site_symmetry_1
_geom_bond_site_symmetry_2
I1 C9 1_555 1_555
N1 N2 1_555 1_555
N2 N3 1_555 1_555
N3 C10 1_555 1_555
O1 C3 1_555 1_555
O2 C17 1_555 1_555
O3 C17 1_555 1_555
C1 H1 1_555 1_555
C2 C1 1_555 1_555
H2 C2 1_555 1_555
C3 C2 1_555 1_555
C4 O1 1_555 1_555
H3 C4 1_555 1_555
H4 C4 1_555 1_555
H5 C4 1_555 1_555
C5 C3 1_555 1_555
H6 C5 1_555 1_555
C6 C5 1_555 1_555
H7 C6 1_555 1_555
C7 C1 1_555 1_555
C8 N1 1_555 1_555
H8 C8 1_555 1_555
H9 C8 1_555 1_555
C9 N1 1_555 1_555
C10 C9 1_555 1_555
C11 C10 1_555 1_555
C12 C11 1_555 1_555
H10 C12 1_555 1_555
C13 C12 1_555 1_555
H11 C13 1_555 1_555
C14 C13 1_555 1_555
C15 C14 1_555 1_555
H12 C15 1_555 1_555
C16 C11 1_555 1_555
H13 C16 1_555 1_555
C17 C14 1_555 1_555
C18 O3 1_555 1_555
H14 C18 1_555 1_555
H15 C18 1_555 1_555
H16 C18 1_555 1_555
C6 C7 1_555 1_555
C7 C8 1_555 1_555
C15 C16 1_555 1_555

#END
