
#######################################################################
#
#                 Cambridge Crystallographic Data Centre
#                                CCDC 
#
#######################################################################
#
# If this CIF has been generated from an entry in the Cambridge 
# Structural Database, then it will include bibliographic, chemical, 
# crystal, experimental, refinement or atomic coordinate data resulting 
# from the CCDC's data processing and validation procedures.
#
#######################################################################

data_FEGZIC
_chemical_formula_moiety         'C33 H28 B1 F10 O2 P1 S1'
_chemical_name_systematic        
'3,3-dimesityl-4-methyl-6,6-bis(pentafluorophenyl)-1,2,3,6-oxathiaphosphaborinan-3-ium-6-ide 2-oxide unknown solvate'
_symmetry_cell_setting           triclinic
_symmetry_space_group_name_H-M   'P -1'
_symmetry_Int_Tables_number      2
_space_group_name_Hall           '-P 1'
loop_
_symmetry_equiv_pos_site_id
_symmetry_equiv_pos_as_xyz
1 x,y,z
2 -x,-y,-z
_cell_length_a                   13.2898(3)
_cell_length_b                   13.3521(6)
_cell_length_c                   22.5790(9)
_cell_angle_alpha                73.392(3)
_cell_angle_beta                 73.073(3)
_cell_angle_gamma                83.328(4)
_cell_volume                     3670.71
_exptl_crystal_colour            colorless
_exptl_crystal_description       plate
_cell_formula_units_Z            4
loop_
_atom_site_label
_atom_site_type_symbol
_atom_site_fract_x
_atom_site_fract_y
_atom_site_fract_z
P1 P 0.66952(4) 0.44632(4) 0.10664(3)
S1 S 0.60313(5) 0.39771(4) 0.03420(3)
O1 O 0.60570(12) 0.27830(11) 0.05683(8)
O2 O 0.69262(15) 0.43623(13) -0.02087(8)
C1 C 0.78220(17) 0.35085(17) 0.10424(11)
H1 H 0.8257 0.3624 0.0592
C2 C 0.73416(18) 0.24117(17) 0.12609(11)
H2 H 0.6726 0.2405 0.1629
H3 H 0.7859 0.1897 0.1415
C3 C 0.8533(2) 0.35471(19) 0.14621(13)
H4 H 0.8122 0.3416 0.1907
H5 H 0.8833 0.4232 0.1323
H6 H 0.9095 0.3017 0.1421
C4 C 0.60253(18) 0.43716(17) 0.19063(11)
C5 C 0.6441(2) 0.49010(19) 0.22397(12)
C6 C 0.5957(3) 0.4768(2) 0.28924(14)
H7 H 0.6232 0.5108 0.3119
C7 C 0.5092(3) 0.4160(2) 0.32220(15)
C8 C 0.4677(2) 0.3690(2) 0.28779(14)
H8 H 0.4074 0.3293 0.3093
C9 C 0.51166(19) 0.37824(18) 0.22258(12)
C10 C 0.7337(2) 0.5640(2) 0.19441(15)
H9 H 0.7612 0.5674 0.1491
H10 H 0.7890 0.5391 0.2158
H11 H 0.7086 0.6332 0.1993
C11 C 0.4592(4) 0.4038(4) 0.39322(17)
H12 H 0.5139 0.3976 0.4148
H13 H 0.4180 0.3414 0.4112
H14 H 0.4138 0.4645 0.3992
C12 C 0.4557(2) 0.3277(2) 0.18984(14)
H15 H 0.4390 0.3799 0.1538
H16 H 0.3912 0.2982 0.2201
H17 H 0.5008 0.2727 0.1746
C13 C 0.68702(17) 0.58377(17) 0.06347(11)
C14 C 0.78318(18) 0.62861(18) 0.02391(12)
C15 C 0.7862(2) 0.73602(18) -0.00137(12)
H18 H 0.8507 0.7656 -0.0269
C16 C 0.6982(2) 0.80149(18) 0.00953(12)
C17 C 0.60302(19) 0.75643(17) 0.04423(12)
H19 H 0.5418 0.7997 0.0495
C18 C 0.59442(18) 0.64888(17) 0.07174(11)
C19 C 0.88482(19) 0.5668(2) 0.00725(14)
H20 H 0.9387 0.6133 -0.0230
H21 H 0.8745 0.5137 -0.0119
H22 H 0.9067 0.5335 0.0459
C20 C 0.7056(3) 0.91883(19) -0.01765(14)
H23 H 0.6958 0.9386 -0.0605
H24 H 0.7744 0.9396 -0.0197
H25 H 0.6515 0.9534 0.0098
C21 C 0.48566(18) 0.60980(19) 0.10854(14)
H26 H 0.4766 0.5987 0.1541
H27 H 0.4772 0.5444 0.1001
H28 H 0.4334 0.6612 0.0950
C22 C 0.64780(17) 0.08500(17) 0.10741(11)
F1 F 0.81254(11) 0.01785(10) 0.12539(8)
C23 C 0.71031(18) 0.00189(18) 0.13186(11)
F2 F 0.74373(14) -0.17411(11) 0.18483(9)
C24 C 0.6781(2) -0.09890(18) 0.16167(12)
F3 F 0.54279(14) -0.21958(12) 0.19622(8)
C25 C 0.5770(2) -0.12226(18) 0.16745(12)
F4 F 0.41305(12) -0.06602(13) 0.14719(9)
C26 C 0.51171(19) -0.0442(2) 0.14306(13)
F5 F 0.47726(11) 0.12664(12) 0.09069(8)
C27 C 0.54740(18) 0.05640(19) 0.11387(12)
C28 C 0.78790(17) 0.19505(16) 0.00796(11)
F6 F 0.93799(11) 0.20490(13) 0.04340(7)
C29 C 0.89635(19) 0.19298(19) -0.00236(12)
F7 F 1.07241(12) 0.17925(17) -0.06366(9)
C30 C 0.96815(19) 0.1788(2) -0.05711(14)
F8 F 1.00397(13) 0.15401(15) -0.16042(8)
C31 C 0.9346(2) 0.1656(2) -0.10633(13)
F9 F 0.79337(13) 0.15129(14) -0.14612(7)
C32 C 0.8284(2) 0.16609(19) -0.09905(12)
F10 F 0.65555(10) 0.17536(11) -0.03857(7)
C33 C 0.75875(17) 0.17976(17) -0.04322(11)
B1 B 0.69816(19) 0.20161(19) 0.07449(13)
P2 P 0.11449(5) 0.10385(5) 0.29561(3)
S2 S 0.16137(5) 0.14706(5) 0.37756(3)
O3 O 0.22420(12) 0.04585(13) 0.39939(8)
O4 O 0.22943(15) 0.23315(14) 0.33826(9)
B2 B 0.3310(2) 0.0078(2) 0.35952(14)
C34 C 0.22694(19) 0.0140(2) 0.27064(13)
H29 H 0.2429 0.0276 0.2234
C35 C 0.32791(18) 0.0365(2) 0.28539(12)
H30 H 0.3408 0.1112 0.2667
H31 H 0.3870 -0.0015 0.2626
C36 C 0.1949(2) -0.0977(2) 0.29930(16)
H32 H 0.2548 -0.1440 0.2880
H33 H 0.1389 -0.1096 0.2828
H34 H 0.1701 -0.1115 0.3456
C37 C 0.10453(18) 0.23530(19) 0.24426(11)
C38 C 0.17729(19) 0.2785(2) 0.18468(11)
C39 C 0.1636(2) 0.3830(2) 0.15364(13)
H35 H 0.2122 0.4119 0.1143
C40 C 0.0814(2) 0.4465(2) 0.17815(13)
C41 C 0.0100(2) 0.4020(2) 0.23585(13)
H36 H -0.0472 0.4436 0.2526
C42 C 0.01958(19) 0.2986(2) 0.26989(12)
C43 C 0.2680(2) 0.2188(2) 0.15077(12)
H37 H 0.3135 0.1887 0.1786
H38 H 0.3077 0.2658 0.1117
H39 H 0.2413 0.1634 0.1402
C44 C 0.0696(3) 0.5605(2) 0.14352(16)
H40 H 0.1262 0.5779 0.1042
H41 H 0.0727 0.6038 0.1709
H42 H 0.0025 0.5731 0.1333
C45 C -0.0638(2) 0.2617(2) 0.33244(14)
H43 H -0.1062 0.3213 0.3435
H44 H -0.0303 0.2266 0.3661
H45 H -0.1084 0.2134 0.3278
C46 C -0.00580(19) 0.03689(19) 0.31121(12)
C47 C -0.0382(2) 0.0300(2) 0.25826(13)
C48 C -0.1292(2) -0.0226(2) 0.27032(15)
H46 H -0.1513 -0.0276 0.2354
C49 C -0.1888(2) -0.0680(3) 0.33203(16)
C50 C -0.1546(2) -0.0620(2) 0.38268(15)
H47 H -0.1942 -0.0933 0.4247
C51 C -0.0636(2) -0.0114(2) 0.37433(13)
C52 C 0.0224(2) 0.0735(2) 0.18924(13)
H48 H -0.0135 0.0586 0.1612
H49 H 0.0927 0.0413 0.1818
H50 H 0.0272 0.1486 0.1804
C53 C -0.2876(3) -0.1244(3) 0.3435(2)
H51 H -0.2774 -0.1982 0.3633
H52 H -0.3031 -0.1159 0.3029
H53 H -0.3459 -0.0954 0.3718
C54 C -0.0318(2) -0.0122(3) 0.43325(13)
H54 H -0.0803 -0.0534 0.4711
H55 H -0.0335 0.0589 0.4365
H56 H 0.0389 -0.0425 0.4301
C55 C 0.34432(19) -0.11769(19) 0.39541(12)
F11 F 0.49845(12) -0.12892(13) 0.31252(8)
C56 C 0.4314(2) -0.1745(2) 0.36935(13)
F12 F 0.54430(15) -0.32553(15) 0.36967(11)
C57 C 0.4569(2) -0.2771(2) 0.39820(15)
F13 F 0.41581(18) -0.42729(13) 0.48513(10)
C58 C 0.3934(3) -0.3278(2) 0.45602(15)
F14 F 0.24026(17) -0.32675(14) 0.53965(9)
C59 C 0.3047(3) -0.2766(2) 0.48367(13)
F15 F 0.19315(14) -0.13214(13) 0.48563(8)
C60 C 0.2823(2) -0.1742(2) 0.45360(13)
C61 C 0.42554(19) 0.06516(19) 0.37023(11)
F16 F 0.53712(12) 0.09018(14) 0.26322(7)
C62 C 0.5191(2) 0.0991(2) 0.32385(12)
F17 F 0.68643(13) 0.17410(16) 0.28716(8)
C63 C 0.5990(2) 0.1424(2) 0.33484(13)
F18 F 0.66525(15) 0.19839(17) 0.40545(9)
C64 C 0.5894(2) 0.1546(2) 0.39398(14)
F19 F 0.48715(15) 0.13591(16) 0.50092(8)
C65 C 0.4987(2) 0.1229(2) 0.44238(13)
F20 F 0.33730(12) 0.04541(14) 0.48029(7)
C66 C 0.4213(2) 0.0788(2) 0.42960(12)
loop_
_geom_bond_atom_site_label_1
_geom_bond_atom_site_label_2
_geom_bond_site_symmetry_1
_geom_bond_site_symmetry_2
P1 S1 1_555 1_555
S1 O1 1_555 1_555
O1 B1 1_555 1_555
O2 S1 1_555 1_555
C1 P1 1_555 1_555
H1 C1 1_555 1_555
C2 C1 1_555 1_555
H2 C2 1_555 1_555
H3 C2 1_555 1_555
C3 C1 1_555 1_555
H4 C3 1_555 1_555
H5 C3 1_555 1_555
H6 C3 1_555 1_555
C4 P1 1_555 1_555
C5 C4 1_555 1_555
C6 C5 1_555 1_555
H7 C6 1_555 1_555
C7 C6 1_555 1_555
C8 C7 1_555 1_555
H8 C8 1_555 1_555
C9 C4 1_555 1_555
C10 C5 1_555 1_555
H9 C10 1_555 1_555
H10 C10 1_555 1_555
H11 C10 1_555 1_555
C11 C7 1_555 1_555
H12 C11 1_555 1_555
H13 C11 1_555 1_555
H14 C11 1_555 1_555
C12 C9 1_555 1_555
H15 C12 1_555 1_555
H16 C12 1_555 1_555
H17 C12 1_555 1_555
C13 P1 1_555 1_555
C14 C13 1_555 1_555
C15 C14 1_555 1_555
H18 C15 1_555 1_555
C16 C15 1_555 1_555
C17 C16 1_555 1_555
H19 C17 1_555 1_555
C18 C13 1_555 1_555
C19 C14 1_555 1_555
H20 C19 1_555 1_555
H21 C19 1_555 1_555
H22 C19 1_555 1_555
C20 C16 1_555 1_555
H23 C20 1_555 1_555
H24 C20 1_555 1_555
H25 C20 1_555 1_555
C21 C18 1_555 1_555
H26 C21 1_555 1_555
H27 C21 1_555 1_555
H28 C21 1_555 1_555
C22 C23 1_555 1_555
F1 C23 1_555 1_555
C23 C24 1_555 1_555
F2 C24 1_555 1_555
C24 C25 1_555 1_555
F3 C25 1_555 1_555
C25 C26 1_555 1_555
F4 C26 1_555 1_555
C26 C27 1_555 1_555
F5 C27 1_555 1_555
C27 C22 1_555 1_555
C28 C29 1_555 1_555
F6 C29 1_555 1_555
C29 C30 1_555 1_555
F7 C30 1_555 1_555
C30 C31 1_555 1_555
F8 C31 1_555 1_555
C31 C32 1_555 1_555
F9 C32 1_555 1_555
C32 C33 1_555 1_555
F10 C33 1_555 1_555
C33 C28 1_555 1_555
B1 C2 1_555 1_555
P2 S2 1_555 1_555
S2 O3 1_555 1_555
O3 B2 1_555 1_555
O4 S2 1_555 1_555
B2 C35 1_555 1_555
C34 P2 1_555 1_555
H29 C34 1_555 1_555
C35 C34 1_555 1_555
H30 C35 1_555 1_555
H31 C35 1_555 1_555
C36 C34 1_555 1_555
H32 C36 1_555 1_555
H33 C36 1_555 1_555
H34 C36 1_555 1_555
C37 P2 1_555 1_555
C38 C37 1_555 1_555
C39 C38 1_555 1_555
H35 C39 1_555 1_555
C40 C39 1_555 1_555
C41 C40 1_555 1_555
H36 C41 1_555 1_555
C42 C37 1_555 1_555
C43 C38 1_555 1_555
H37 C43 1_555 1_555
H38 C43 1_555 1_555
H39 C43 1_555 1_555
C44 C40 1_555 1_555
H40 C44 1_555 1_555
H41 C44 1_555 1_555
H42 C44 1_555 1_555
C45 C42 1_555 1_555
H43 C45 1_555 1_555
H44 C45 1_555 1_555
H45 C45 1_555 1_555
C46 P2 1_555 1_555
C47 C46 1_555 1_555
C48 C47 1_555 1_555
H46 C48 1_555 1_555
C49 C48 1_555 1_555
C50 C49 1_555 1_555
H47 C50 1_555 1_555
C51 C46 1_555 1_555
C52 C47 1_555 1_555
H48 C52 1_555 1_555
H49 C52 1_555 1_555
H50 C52 1_555 1_555
C53 C49 1_555 1_555
H51 C53 1_555 1_555
H52 C53 1_555 1_555
H53 C53 1_555 1_555
C54 C51 1_555 1_555
H54 C54 1_555 1_555
H55 C54 1_555 1_555
H56 C54 1_555 1_555
C55 B2 1_555 1_555
F11 C56 1_555 1_555
C56 C55 1_555 1_555
F12 C57 1_555 1_555
C57 C56 1_555 1_555
F13 C58 1_555 1_555
C58 C57 1_555 1_555
F14 C59 1_555 1_555
C59 C58 1_555 1_555
F15 C60 1_555 1_555
C60 C55 1_555 1_555
C61 B2 1_555 1_555
F16 C62 1_555 1_555
C62 C61 1_555 1_555
F17 C63 1_555 1_555
C63 C62 1_555 1_555
F18 C64 1_555 1_555
C64 C63 1_555 1_555
F19 C65 1_555 1_555
C65 C64 1_555 1_555
F20 C66 1_555 1_555
C66 C61 1_555 1_555
C8 C9 1_555 1_555
C17 C18 1_555 1_555
C22 B1 1_555 1_555
C28 B1 1_555 1_555
C41 C42 1_555 1_555
C50 C51 1_555 1_555
C59 C60 1_555 1_555
C65 C66 1_555 1_555

#END
