
#######################################################################
#
#                 Cambridge Crystallographic Data Centre
#                                CCDC 
#
#######################################################################
#
# If this CIF has been generated from an entry in the Cambridge 
# Structural Database, then it will include bibliographic, chemical, 
# crystal, experimental, refinement or atomic coordinate data resulting 
# from the CCDC's data processing and validation procedures.
#
#######################################################################

data_FEGZAS
_chemical_formula_moiety         'C22 H22 N4 O4 S1'
_chemical_name_systematic        
'1-Methyl-7-phenylsulfenylbicyclo(4.3.0)nona-6-en-2-one 2,4-dinitrophenylhydrazone'
_symmetry_cell_setting           orthorhombic
_symmetry_space_group_name_H-M   'P b c a'
_symmetry_Int_Tables_number      61
_space_group_name_Hall           '-P 2ac 2ab'
loop_
_symmetry_equiv_pos_site_id
_symmetry_equiv_pos_as_xyz
1 x,y,z
2 1/2-x,-y,1/2+z
3 1/2+x,1/2-y,-z
4 -x,1/2+y,1/2-z
5 -x,-y,-z
6 1/2+x,y,1/2-z
7 1/2-x,1/2+y,z
8 x,1/2-y,1/2+z
_cell_length_a                   7.024
_cell_length_b                   15.828
_cell_length_c                   39.170
_cell_angle_alpha                90
_cell_angle_beta                 90
_cell_angle_gamma                90
_cell_volume                     4354.76
_exptl_crystal_colour            orange
_chemical_melting_point          143-144deg.C
_cell_formula_units_Z            8
loop_
_atom_site_label
_atom_site_type_symbol
_atom_site_fract_x
_atom_site_fract_y
_atom_site_fract_z
C1 C 0.285(1) 0.2276(5) 0.5658(2)
C2 C 0.159(1) 0.1517(5) 0.5743(2)
C3 C 0.093(1) 0.1737(5) 0.6107(2)
C4 C 0.088(1) 0.2708(5) 0.6113(2)
C5 C 0.129(1) 0.3111(5) 0.6461(2)
C6 C 0.212(2) 0.3992(5) 0.6455(2)
C7 C 0.375(2) 0.4089(5) 0.6215(2)
C8 C 0.330(1) 0.3799(5) 0.5857(2)
C9 C 0.243(1) 0.2935(5) 0.5862(2)
C10 C -0.107(1) 0.3039(6) 0.5984(2)
C11 C 0.571(1) 0.1400(4) 0.5332(2)
C12 C 0.631(1) 0.1035(6) 0.5033(2)
C13 C 0.740(1) 0.0310(6) 0.5037(2)
C14 C 0.780(1) -0.0071(6) 0.5345(3)
C15 C 0.722(1) 0.0288(6) 0.5646(2)
C16 C 0.616(1) 0.1023(6) 0.5643(2)
C17 C 0.106(1) 0.2606(6) 0.7326(2)
C18 C 0.115(1) 0.2999(6) 0.7655(2)
C19 C 0.105(1) 0.2504(8) 0.7944(2)
C20 C 0.076(1) 0.1671(8) 0.7923(3)
C21 C 0.064(1) 0.1260(6) 0.7610(3)
C22 C 0.076(1) 0.1727(6) 0.7314(2)
S1 S 0.4339(4) 0.2340(1) 0.53016(5)
O1 O 0.180(1) 0.4323(4) 0.7451(2)
O2 O 0.122(2) 0.4184(5) 0.7985(2)
O3 O 0.083(1) 0.1520(7) 0.8507(2)
O4 O 0.036(2) 0.0417(8) 0.8207(3)
N1 N 0.0920(9) 0.2661(4) 0.6723(1)
N2 N 0.1147(9) 0.3074(4) 0.7038(2)
N3 N 0.143(1) 0.3893(6) 0.7697(2)
N4 N 0.067(2) 0.114(1) 0.8231(3)
loop_
_geom_bond_atom_site_label_1
_geom_bond_atom_site_label_2
_geom_bond_site_symmetry_1
_geom_bond_site_symmetry_2
C1 C2 1_555 1_555
C2 C3 1_555 1_555
C3 C4 1_555 1_555
C4 C5 1_555 1_555
C5 C6 1_555 1_555
C6 C7 1_555 1_555
C7 C8 1_555 1_555
C8 C9 1_555 1_555
C9 C1 1_555 1_555
C10 C4 1_555 1_555
C11 C12 1_555 1_555
C12 C13 1_555 1_555
C13 C14 1_555 1_555
C14 C15 1_555 1_555
C15 C16 1_555 1_555
C16 C11 1_555 1_555
C17 C18 1_555 1_555
C18 C19 1_555 1_555
C19 C20 1_555 1_555
C20 C21 1_555 1_555
C21 C22 1_555 1_555
C22 C17 1_555 1_555
S1 C1 1_555 1_555
O1 N3 1_555 1_555
O2 N3 1_555 1_555
O3 N4 1_555 1_555
O4 N4 1_555 1_555
N1 C5 1_555 1_555
N2 C17 1_555 1_555
N3 C18 1_555 1_555
N4 C20 1_555 1_555
C4 C9 1_555 1_555
C11 S1 1_555 1_555
N1 N2 1_555 1_555

#END
