
#######################################################################
#
#                 Cambridge Crystallographic Data Centre
#                                CCDC 
#
#######################################################################
#
# If this CIF has been generated from an entry in the Cambridge 
# Structural Database, then it will include bibliographic, chemical, 
# crystal, experimental, refinement or atomic coordinate data resulting 
# from the CCDC's data processing and validation procedures.
#
#######################################################################

data_FEHBUS
_chemical_compound_source        'I. flexicaulis'
_chemical_name_common            '(-)-flexicaulin A methanol solvate'
_chemical_formula_moiety         'C22 H32 O6,0.5(C1 H4 O1)'
_chemical_name_systematic        
'7,11,14-trihydroxy-15-oxokaur-16-en-20-yl acetate methanol solvate'
_symmetry_cell_setting           orthorhombic
_symmetry_space_group_name_H-M   'C 2 2 21'
_symmetry_Int_Tables_number      20
_space_group_name_Hall           'C 2n 2'
loop_
_symmetry_equiv_pos_site_id
_symmetry_equiv_pos_as_xyz
1 x,y,z
2 -x,-y,1/2+z
3 x,-y,-z
4 -x,y,1/2-z
5 1/2+x,1/2+y,z
6 1/2-x,1/2-y,1/2+z
7 1/2+x,1/2-y,-z
8 1/2-x,1/2+y,1/2-z
_cell_length_a                   24.6699(19)
_cell_length_b                   15.2437(10)
_cell_length_c                   11.8245(6)
_cell_angle_alpha                90
_cell_angle_beta                 90
_cell_angle_gamma                90
_cell_volume                     4446.73
_exptl_crystal_colour            colorless
_exptl_crystal_description       block
_cell_formula_units_Z            8
loop_
_atom_site_label
_atom_site_type_symbol
_atom_site_fract_x
_atom_site_fract_y
_atom_site_fract_z
O1 O 0.21401(12) 0.45092(14) 0.5934(2)
H1 H 0.2215 0.4435 0.6599
O2 O 0.26505(9) 0.11165(18) 0.48202(18)
H2 H 0.2500 0.1109 0.4202
O3 O 0.25658(11) 0.36114(16) 0.75881(19)
H3 H 0.2325 0.3982 0.7611
O4 O 0.29207(10) 0.32618(19) 0.4478(2)
O5 O 0.12765(10) 0.10279(15) 0.7181(2)
O6 O 0.07282(15) 0.1138(3) 0.8646(3)
C1 C 0.10784(13) 0.1264(2) 0.4832(3)
H4 H 0.1245 0.1304 0.4091
H5 H 0.1187 0.0709 0.5164
C2 C 0.04657(14) 0.1268(2) 0.4692(4)
H6 H 0.0295 0.1194 0.5424
H7 H 0.0357 0.0781 0.4214
C3 C 0.02783(15) 0.2124(3) 0.4164(4)
H8 H -0.0113 0.2113 0.4096
H9 H 0.0428 0.2168 0.3407
C4 C 0.04428(14) 0.2942(2) 0.4836(3)
C5 C 0.10668(12) 0.28919(19) 0.5080(2)
H10 H 0.1232 0.2928 0.4328
C6 C 0.13060(14) 0.36787(18) 0.5712(3)
H11 H 0.1132 0.4215 0.5462
H12 H 0.1244 0.3615 0.6518
C7 C 0.19077(13) 0.37245(17) 0.5478(2)
H13 H 0.1950 0.3759 0.4655
C8 C 0.22164(12) 0.29168(18) 0.5863(2)
C9 C 0.19267(10) 0.20627(17) 0.5411(2)
H14 H 0.1967 0.2112 0.4588
C10 C 0.12941(11) 0.20163(17) 0.5576(2)
C11 C 0.22529(13) 0.12220(19) 0.5695(2)
H15 H 0.2006 0.0718 0.5676
C12 C 0.25473(13) 0.1232(2) 0.6840(3)
H16 H 0.2828 0.0786 0.6836
H17 H 0.2291 0.1084 0.7432
C13 C 0.28064(13) 0.2128(2) 0.7111(2)
H18 H 0.3003 0.2109 0.7830
C14 C 0.23516(13) 0.28057(19) 0.7147(2)
H19 H 0.2038 0.2598 0.7582
C15 C 0.27978(13) 0.2925(2) 0.5366(2)
C16 C 0.31638(14) 0.2464(2) 0.6169(3)
C17 C 0.36910(16) 0.2434(3) 0.6048(4)
H20 H 0.3854 0.2711 0.5436
H21 H 0.3902 0.2137 0.6575
C18 C 0.00874(16) 0.3072(3) 0.5889(4)
H22 H -0.0281 0.3173 0.5661
H23 H 0.0216 0.3568 0.6310
H24 H 0.0105 0.2557 0.6354
C19 C 0.03428(19) 0.3737(3) 0.4042(4)
H25 H -0.0021 0.3713 0.3753
H26 H 0.0595 0.3718 0.3424
H27 H 0.0392 0.4272 0.4458
C20 C 0.10977(14) 0.1882(2) 0.6797(3)
H28 H 0.1246 0.2336 0.7282
H29 H 0.0705 0.1917 0.6827
C21 C 0.10400(18) 0.0713(3) 0.8099(3)
C22 C 0.1253(3) -0.0163(3) 0.8421(4)
H30 H 0.1508 -0.0100 0.9029
H31 H 0.1431 -0.0425 0.7782
H32 H 0.0959 -0.0532 0.8660
O7 O 0.3478(2) 1.0000 0.5000
C23 C 0.4012(4) 1.0000 0.5000
H33? H 0.3367 1.0507 0.4967
H34? H 0.4142 1.0579 0.4829
H35? H 0.4142 0.9596 0.4439
H36? H 0.4142 0.9825 0.5732
loop_
_geom_bond_atom_site_label_1
_geom_bond_atom_site_label_2
_geom_bond_site_symmetry_1
_geom_bond_site_symmetry_2
O1 H1 1_555 1_555
O2 H2 1_555 1_555
O3 H3 1_555 1_555
O4 C15 1_555 1_555
O5 C20 1_555 1_555
O6 C21 1_555 1_555
C1 H4 1_555 1_555
H5 C1 1_555 1_555
C2 C1 1_555 1_555
H6 C2 1_555 1_555
H7 C2 1_555 1_555
C3 C2 1_555 1_555
H8 C3 1_555 1_555
H9 C3 1_555 1_555
C4 C3 1_555 1_555
C5 C4 1_555 1_555
H10 C5 1_555 1_555
C6 C5 1_555 1_555
H11 C6 1_555 1_555
H12 C6 1_555 1_555
C7 O1 1_555 1_555
H13 C7 1_555 1_555
C8 C7 1_555 1_555
C9 C8 1_555 1_555
H14 C9 1_555 1_555
C10 C1 1_555 1_555
C11 O2 1_555 1_555
H15 C11 1_555 1_555
C12 C11 1_555 1_555
H16 C12 1_555 1_555
H17 C12 1_555 1_555
C13 C12 1_555 1_555
H18 C13 1_555 1_555
C14 O3 1_555 1_555
H19 C14 1_555 1_555
C15 C8 1_555 1_555
C16 C13 1_555 1_555
C17 C16 1_555 1_555
H20 C17 1_555 1_555
H21 C17 1_555 1_555
C18 C4 1_555 1_555
H22 C18 1_555 1_555
H23 C18 1_555 1_555
H24 C18 1_555 1_555
C19 C4 1_555 1_555
H25 C19 1_555 1_555
H26 C19 1_555 1_555
H27 C19 1_555 1_555
C20 C10 1_555 1_555
H28 C20 1_555 1_555
H29 C20 1_555 1_555
C21 O5 1_555 1_555
C22 C21 1_555 1_555
H30 C22 1_555 1_555
H31 C22 1_555 1_555
H32 C22 1_555 1_555
O7 C23 1_555 1_555
C5 C10 1_555 1_555
C6 C7 1_555 1_555
C8 C14 1_555 1_555
C9 C10 1_555 1_555
C9 C11 1_555 1_555
C13 C14 1_555 1_555
C15 C16 1_555 1_555

#END
