
#######################################################################
#
#                 Cambridge Crystallographic Data Centre
#                                CCDC 
#
#######################################################################
#
# If this CIF has been generated from an entry in the Cambridge 
# Structural Database, then it will include bibliographic, chemical, 
# crystal, experimental, refinement or atomic coordinate data resulting 
# from the CCDC's data processing and validation procedures.
#
#######################################################################

data_FEHCAZ
_chemical_name_common            '(-)-pseudoirroratin A methanol solvate'
_chemical_formula_moiety         'C20 H28 O5,C1 H4 O1'
_chemical_name_systematic        
'7,11,14-trihydroxy-11,20-epoxykaur-16-en-15-one methanol solvate'
_chemical_properties_biological  
'cytotoxicity against human colorectal carcinoma cells'
_symmetry_cell_setting           orthorhombic
_symmetry_space_group_name_H-M   'P 21 21 21'
_symmetry_Int_Tables_number      19
_space_group_name_Hall           'P 2ac 2ab'
loop_
_symmetry_equiv_pos_site_id
_symmetry_equiv_pos_as_xyz
1 x,y,z
2 1/2-x,-y,1/2+z
3 1/2+x,1/2-y,-z
4 -x,1/2+y,1/2-z
_cell_length_a                   6.7361(5)
_cell_length_b                   12.6045(7)
_cell_length_c                   22.4880(11)
_cell_angle_alpha                90
_cell_angle_beta                 90
_cell_angle_gamma                90
_cell_volume                     1909.35
_exptl_crystal_colour            colorless
_exptl_crystal_description       block
_cell_formula_units_Z            4
loop_
_atom_site_label
_atom_site_type_symbol
_atom_site_fract_x
_atom_site_fract_y
_atom_site_fract_z
O1 O 0.6953(6) 0.6131(2) 0.37649(15)
H1 H 0.7859 0.6328 0.3982
O2 O 0.4395(6) 0.1444(3) 0.40451(15)
H2 H 0.3733 0.1227 0.4326
O3 O 0.2822(6) 0.2583(3) 0.33785(14)
O4 O 0.3299(6) 0.5829(3) 0.40635(17)
H3 H 0.4359 0.6122 0.3992
O5 O 0.7806(6) 0.4395(3) 0.48627(14)
C1 C 0.7121(8) 0.1788(4) 0.30330(19)
H4 H 0.6213 0.1262 0.3191
H5 H 0.8351 0.1741 0.3256
C2 C 0.7535(9) 0.1547(4) 0.23718(19)
H6 H 0.8142 0.0851 0.2339
H7 H 0.6288 0.1530 0.2157
C3 C 0.8883(8) 0.2360(4) 0.2092(2)
H8 H 0.9052 0.2189 0.1675
H9 H 1.0177 0.2319 0.2280
C4 C 0.8094(9) 0.3509(4) 0.2146(2)
C5 C 0.7624(8) 0.3708(4) 0.28187(19)
H10 H 0.8898 0.3601 0.3020
C6 C 0.7067(9) 0.4853(4) 0.2962(2)
H11 H 0.7965 0.5335 0.2761
H12 H 0.5728 0.4998 0.2826
C7 C 0.7195(9) 0.5018(4) 0.3631(2)
H13 H 0.8528 0.4807 0.3760
C8 C 0.5697(8) 0.4343(4) 0.3972(2)
C9 C 0.5854(8) 0.3134(4) 0.3790(2)
H14 H 0.6930 0.2809 0.4020
C10 C 0.6220(9) 0.2901(4) 0.3114(2)
C11 C 0.3899(9) 0.2526(4) 0.3927(2)
C12 C 0.2494(9) 0.2945(4) 0.4401(2)
H15 H 0.2766 0.2580 0.4772
H16 H 0.1143 0.2776 0.4286
C13 C 0.2645(8) 0.4147(4) 0.4509(2)
H17 H 0.1365 0.4449 0.4629
C14 C 0.3493(8) 0.4716(4) 0.3965(2)
H18 H 0.2818 0.4496 0.3599
C15 C 0.6137(9) 0.4381(4) 0.4642(2)
C16 C 0.4233(9) 0.4354(4) 0.4968(2)
C17 C 0.4063(9) 0.4456(4) 0.5553(2)
H19 H 0.5190 0.4552 0.5786
H20 H 0.2816 0.4431 0.5731
C18 C 0.6293(9) 0.3680(4) 0.1737(2)
H21 H 0.6713 0.3652 0.1330
H22 H 0.5713 0.4361 0.1818
H23 H 0.5328 0.3134 0.1809
C19 C 0.9770(9) 0.4248(4) 0.1937(2)
H24 H 0.9285 0.4963 0.1917
H25 H 1.0218 0.4029 0.1551
H26 H 1.0855 0.4213 0.2213
C20 C 0.4055(8) 0.2896(4) 0.2889(2)
H27 H 0.3681 0.3597 0.2751
H28 H 0.3910 0.2400 0.2562
O6 O 0.9943(6) 0.6781(3) 0.44749(15)
H29 H 1.0919 0.6450 0.4361
C21 C 0.9860(10) 0.6757(5) 0.5115(2)
H30 H 1.0356 0.6088 0.5255
H31 H 0.8510 0.6845 0.5243
H32 H 1.0658 0.7321 0.5274
loop_
_geom_bond_atom_site_label_1
_geom_bond_atom_site_label_2
_geom_bond_site_symmetry_1
_geom_bond_site_symmetry_2
O1 H1 1_555 1_555
O2 H2 1_555 1_555
O3 C11 1_555 1_555
O4 H3 1_555 1_555
O5 C15 1_555 1_555
C1 H4 1_555 1_555
H5 C1 1_555 1_555
C2 C1 1_555 1_555
H6 C2 1_555 1_555
H7 C2 1_555 1_555
C3 C2 1_555 1_555
H8 C3 1_555 1_555
H9 C3 1_555 1_555
C4 C3 1_555 1_555
C5 C4 1_555 1_555
H10 C5 1_555 1_555
C6 C5 1_555 1_555
H11 C6 1_555 1_555
H12 C6 1_555 1_555
C7 O1 1_555 1_555
H13 C7 1_555 1_555
C8 C7 1_555 1_555
C9 C8 1_555 1_555
H14 C9 1_555 1_555
C10 C1 1_555 1_555
C11 O2 1_555 1_555
C12 C11 1_555 1_555
H15 C12 1_555 1_555
H16 C12 1_555 1_555
C13 C12 1_555 1_555
H17 C13 1_555 1_555
C14 O4 1_555 1_555
H18 C14 1_555 1_555
C15 C8 1_555 1_555
C16 C13 1_555 1_555
C17 C16 1_555 1_555
H19 C17 1_555 1_555
H20 C17 1_555 1_555
C18 C4 1_555 1_555
H21 C18 1_555 1_555
H22 C18 1_555 1_555
H23 C18 1_555 1_555
C19 C4 1_555 1_555
H24 C19 1_555 1_555
H25 C19 1_555 1_555
H26 C19 1_555 1_555
C20 O3 1_555 1_555
H27 C20 1_555 1_555
H28 C20 1_555 1_555
O6 H29 1_555 1_555
C21 O6 1_555 1_555
H30 C21 1_555 1_555
H31 C21 1_555 1_555
H32 C21 1_555 1_555
C5 C10 1_555 1_555
C6 C7 1_555 1_555
C8 C14 1_555 1_555
C9 C10 1_555 1_555
C9 C11 1_555 1_555
C10 C20 1_555 1_555
C13 C14 1_555 1_555
C15 C16 1_555 1_555

#END
