
#######################################################################
#
#                 Cambridge Crystallographic Data Centre
#                                CCDC 
#
#######################################################################
#
# If this CIF has been generated from an entry in the Cambridge 
# Structural Database, then it will include bibliographic, chemical, 
# crystal, experimental, refinement or atomic coordinate data resulting 
# from the CCDC's data processing and validation procedures.
#
#######################################################################

data_FEHHIL
_chemical_formula_moiety         'C13 H16 Cl1 N3 O1'
_chemical_name_systematic        
3-(3-(4-chloroanilino)-5-methyl-1H-pyrazol-4-yl)propan-1-ol
_symmetry_cell_setting           triclinic
_symmetry_space_group_name_H-M   'P -1'
_symmetry_Int_Tables_number      2
_space_group_name_Hall           '-P 1'
loop_
_symmetry_equiv_pos_site_id
_symmetry_equiv_pos_as_xyz
1 x,y,z
2 -x,-y,-z
_cell_length_a                   10.1813(14)
_cell_length_b                   11.4717(15)
_cell_length_c                   13.7287(18)
_cell_angle_alpha                92.490(2)
_cell_angle_beta                 91.719(2)
_cell_angle_gamma                107.966(2)
_cell_volume                     1522.25
_cell_formula_units_Z            4
loop_
_atom_site_label
_atom_site_type_symbol
_atom_site_fract_x
_atom_site_fract_y
_atom_site_fract_z
C1 C 0.2948(3) 0.4329(3) 0.3565(3)
C2 C 0.4186(3) 0.5293(3) 0.3771(3)
C3 C 0.3899(4) 0.5977(3) 0.4535(3)
C4 C 0.4786(4) 0.7104(4) 0.5085(3)
H1 H 0.4675 0.7830 0.4785
H2 H 0.5755 0.7127 0.5069
H3 H 0.4513 0.7099 0.5763
C5 C 0.5550(3) 0.5510(4) 0.3292(3)
H4 H 0.5645 0.4705 0.3080
H5 H 0.6305 0.5902 0.3785
C6 C 0.5736(3) 0.6310(3) 0.2411(3)
H6 H 0.5735 0.7141 0.2635
H7 H 0.6652 0.6388 0.2147
C7 C 0.4648(4) 0.5831(3) 0.1600(3)
H8 H 0.3758 0.5898 0.1826
H9 H 0.4906 0.6356 0.1039
C8 C 0.1706(4) 0.2391(3) 0.2556(3)
C9 C 0.0454(4) 0.2021(4) 0.3008(3)
H10 H 0.0300 0.2499 0.3549
C10 C -0.0556(4) 0.0977(4) 0.2681(4)
H11 H -0.1390 0.0719 0.3018
C11 C -0.0393(4) 0.0283(4) 0.1866(4)
C12 C 0.0847(4) 0.0620(4) 0.1424(4)
H12 H 0.0997 0.0135 0.0886
C13 C 0.1874(4) 0.1664(3) 0.1763(3)
H13 H 0.2725 0.1894 0.1445
Cl1 Cl -0.17283(15) -0.10161(13) 0.14429(16)
N1 N 0.2562(3) 0.5423(3) 0.4741(2)
H27 H 0.2135 0.5698 0.5203
N2 N 0.1948(3) 0.4386(3) 0.4150(2)
N3 N 0.2808(3) 0.3418(3) 0.2828(2)
O1 O 0.4456(2) 0.4582(2) 0.12759(17)
H29 H 0.5188 0.4526 0.1041
C14 C 0.7939(3) 0.4478(3) 0.1292(2)
C15 C 0.9258(3) 0.5370(3) 0.1242(2)
C16 C 0.9081(3) 0.6075(3) 0.0498(2)
C17 C 1.0096(4) 0.7129(3) 0.0063(3)
H14 H 0.9822 0.7161 -0.0623
H15 H 1.1016 0.7026 0.0106
H16 H 1.0118 0.7894 0.0420
C18 C 1.0548(3) 0.5484(3) 0.1832(3)
H17 H 1.1350 0.5830 0.1427
H18 H 1.0550 0.4653 0.1998
C19 C 1.0734(3) 0.6293(3) 0.2781(3)
H19 H 1.1620 0.6325 0.3116
H20 H 1.0799 0.7138 0.2612
C20 C 0.9583(4) 0.5861(3) 0.3489(3)
H21 H 0.9829 0.6390 0.4098
H22 H 0.8722 0.5956 0.3199
C21 C 0.6580(3) 0.2440(3) 0.1875(3)
C22 C 0.5741(4) 0.1999(3) 0.1039(3)
H23 H 0.5828 0.2487 0.0489
C23 C 0.4764(4) 0.0827(3) 0.1013(3)
H24 H 0.4191 0.0522 0.0441
C24 C 0.4629(4) 0.0118(4) 0.1804(4)
C25 C 0.5451(5) 0.0553(4) 0.2642(4)
H25 H 0.5353 0.0062 0.3191
C26 C 0.6421(4) 0.1711(4) 0.2676(3)
H26 H 0.6984 0.2012 0.3253
Cl2 Cl 0.34190(13) -0.13432(10) 0.17514(12)
N4 N 0.7749(3) 0.5621(3) 0.0159(2)
H28 H 0.7392 0.5931 -0.0319
N5 N 0.7023(3) 0.4626(2) 0.0645(2)
N6 N 0.7626(3) 0.3572(3) 0.1972(2)
O2 O 0.9329(2) 0.4594(2) 0.37263(18)
H30 H 1.0075 0.4490 0.3916
loop_
_geom_bond_atom_site_label_1
_geom_bond_atom_site_label_2
_geom_bond_site_symmetry_1
_geom_bond_site_symmetry_2
C1 C2 1_555 1_555
C2 C3 1_555 1_555
C3 C4 1_555 1_555
C4 H1 1_555 1_555
H2 C4 1_555 1_555
H3 C4 1_555 1_555
C5 C2 1_555 1_555
H4 C5 1_555 1_555
H5 C5 1_555 1_555
C6 C5 1_555 1_555
H6 C6 1_555 1_555
H7 C6 1_555 1_555
C7 C6 1_555 1_555
H8 C7 1_555 1_555
H9 C7 1_555 1_555
C8 C9 1_555 1_555
C9 H10 1_555 1_555
C10 C9 1_555 1_555
H11 C10 1_555 1_555
C11 C10 1_555 1_555
C12 C11 1_555 1_555
H12 C12 1_555 1_555
C13 C8 1_555 1_555
H13 C13 1_555 1_555
C14 C15 1_555 1_555
C15 C16 1_555 1_555
C16 C17 1_555 1_555
C17 H14 1_555 1_555
H15 C17 1_555 1_555
H16 C17 1_555 1_555
C18 C15 1_555 1_555
H17 C18 1_555 1_555
H18 C18 1_555 1_555
C19 C18 1_555 1_555
H19 C19 1_555 1_555
H20 C19 1_555 1_555
C20 C19 1_555 1_555
H21 C20 1_555 1_555
H22 C20 1_555 1_555
C21 C22 1_555 1_555
C22 H23 1_555 1_555
C23 C22 1_555 1_555
H24 C23 1_555 1_555
C24 C23 1_555 1_555
C25 C24 1_555 1_555
H25 C25 1_555 1_555
C26 C21 1_555 1_555
H26 C26 1_555 1_555
Cl1 C11 1_555 1_555
Cl2 C24 1_555 1_555
N1 C3 1_555 1_555
H27 N1 1_555 1_555
N2 C1 1_555 1_555
N3 C1 1_555 1_555
N4 C16 1_555 1_555
H28 N4 1_555 1_555
N5 C14 1_555 1_555
N6 C14 1_555 1_555
O1 C7 1_555 1_555
H29 O1 1_555 1_555
O2 C20 1_555 1_555
H30 O2 1_555 1_555
C8 N3 1_555 1_555
C12 C13 1_555 1_555
C21 N6 1_555 1_555
C25 C26 1_555 1_555
N1 N2 1_555 1_555
N4 N5 1_555 1_555

#END
