
#######################################################################
#
#                 Cambridge Crystallographic Data Centre
#                                CCDC 
#
#######################################################################
#
# If this CIF has been generated from an entry in the Cambridge 
# Structural Database, then it will include bibliographic, chemical, 
# crystal, experimental, refinement or atomic coordinate data resulting 
# from the CCDC's data processing and validation procedures.
#
#######################################################################

data_FEHHEH
_chemical_formula_moiety         'C8 H20 N2 2+,2(C2 F6 N1 O4 S2 1-)'
_chemical_name_systematic        
'1-(3-Ammoniopropyl)-1-methylpyrrolidinium bis(bis((trifluoromethyl)sulfonyl)amide)'
_symmetry_cell_setting           monoclinic
_symmetry_space_group_name_H-M   'P 21/c'
_symmetry_Int_Tables_number      14
_space_group_name_Hall           '-P 2ybc'
loop_
_symmetry_equiv_pos_site_id
_symmetry_equiv_pos_as_xyz
1 x,y,z
2 -x,1/2+y,1/2-z
3 -x,-y,-z
4 x,1/2-y,1/2+z
_cell_length_a                   12.1683(6)
_cell_length_b                   13.3609(4)
_cell_length_c                   16.6212(8)
_cell_angle_alpha                90
_cell_angle_beta                 98.350(4)
_cell_angle_gamma                90
_cell_volume                     2673.62
_exptl_crystal_colour            yellow
_exptl_crystal_description       prism
_cell_formula_units_Z            4
loop_
_atom_site_label
_atom_site_type_symbol
_atom_site_fract_x
_atom_site_fract_y
_atom_site_fract_z
C1 C 0.6728(9) 0.0625(9) 0.1755(8)
H1 H 0.6204 0.0084 0.1708
H2 H 0.6966 0.0741 0.1237
H3 H 0.6384 0.1219 0.1926
N1 N 0.7670(19) 0.0371(18) 0.2342(12)
N2 N 0.653(2) -0.3175(15) 0.2658(11)
H4 H 0.6761 -0.3808 0.2662
H5 H 0.5939 -0.3099 0.2283
H6 H 0.6360 -0.3016 0.3144
C2 C 0.748(2) -0.2479(17) 0.2458(15)
H7 H 0.8144 -0.2572 0.2848
H8 H 0.7650 -0.2615 0.1917
C3 C 0.7049(17) -0.1471(14) 0.2507(12)
H9 H 0.6851 -0.1349 0.3043
H10 H 0.6393 -0.1378 0.2107
C4 C 0.7980(14) -0.0748(13) 0.2337(7)
H11 H 0.8626 -0.0859 0.2744
H12 H 0.8189 -0.0912 0.1812
C5 C 0.8705(10) 0.0967(10) 0.2162(8)
H13 H 0.9155 0.0575 0.1842
H14 H 0.8494 0.1589 0.1881
C6 C 0.9308(10) 0.1154(9) 0.3018(8)
H15 H 0.9533 0.1851 0.3071
H16 H 0.9972 0.0744 0.3111
C7 C 0.8522(13) 0.0895(12) 0.3682(8)
H17 H 0.8792 0.0319 0.4008
H18 H 0.8447 0.1460 0.4037
C8 C 0.7510(11) 0.0682(9) 0.3175(8)
H19 H 0.7042 0.1273 0.3138
H20 H 0.7126 0.0153 0.3421
S1 S 0.37354(7) 0.87072(7) 0.21286(7)
S2 S 0.17578(8) 0.91285(7) 0.27289(7)
C11 C 0.3352(4) 0.8963(4) 0.1044(3)
C12 C 0.2041(5) 0.8967(4) 0.3833(3)
N4 N 0.2611(3) 0.8390(2) 0.2409(2)
O5 O 0.0673(2) 0.8743(2) 0.2512(2)
O6 O 0.1945(2) 1.01684(19) 0.2609(2)
O7 O 0.4425(2) 0.7839(2) 0.2149(2)
O8 O 0.4225(2) 0.96189(19) 0.24535(19)
F7 F 0.3065(3) 0.9219(3) 0.4103(2)
F8 F 0.1896(4) 0.8030(3) 0.4036(2)
F9 F 0.1373(3) 0.9525(3) 0.4187(2)
F10 F 0.2636(3) 0.9707(2) 0.09300(19)
F11 F 0.2882(3) 0.8168(3) 0.06615(19)
F12 F 0.4235(2) 0.9202(2) 0.07183(19)
S3 S 0.36360(9) 0.21016(9) 0.02037(6)
S4 S 0.14138(9) 0.26928(9) 0.00794(7)
C9 C 0.4290(4) 0.3276(4) -0.0009(3)
C10 C 0.0636(4) 0.1538(4) 0.0123(3)
N3 N 0.2584(3) 0.2423(3) 0.05796(19)
O1 O 0.0884(3) 0.3375(3) 0.0545(3)
O2 O 0.4400(3) 0.1681(3) 0.0846(2)
O3 O 0.1405(3) 0.2876(3) -0.07574(19)
O4 O 0.3451(2) 0.1600(3) -0.05552(18)
F1 F 0.5267(3) 0.3115(3) -0.0223(2)
F2 F 0.3701(4) 0.3741(3) -0.0623(3)
F3 F 0.4429(3) 0.3870(3) 0.0609(2)
F4 F -0.0410(2) 0.1684(3) -0.0207(2)
F5 F 0.0643(3) 0.1226(3) 0.0864(2)
F6 F 0.1051(3) 0.0813(3) -0.0282(2)
C13? C 0.744(3) -0.257(2) 0.243(2)
C14? C 0.714(2) -0.1407(19) 0.2555(19)
C15? C 0.8076(19) -0.0757(17) 0.2563(12)
C16? C 0.8767(13) 0.0964(12) 0.2595(11)
C17? C 0.8933(13) 0.1013(15) 0.3479(15)
C18? C 0.7677(14) 0.0686(11) 0.3758(10)
C19? C 0.6967(11) 0.0680(10) 0.2935(10)
C20? C 0.7263(17) 0.0536(12) 0.1499(10)
H21? H 0.6847 -0.3894 0.2415
H22? H 0.6033 -0.3167 0.2054
H23? H 0.6318 -0.3225 0.2932
H24? H 0.7698 -0.2635 0.1911
H25? H 0.8051 -0.2746 0.2848
H26? H 0.6561 -0.1204 0.2119
H27? H 0.6842 -0.1334 0.3064
H28? H 0.8497 -0.0967 0.2140
H29? H 0.8553 -0.0827 0.3080
H30? H 0.9398 0.0660 0.2394
H31? H 0.8634 0.1622 0.2354
H32? H 0.9143 0.1684 0.3664
H33? H 0.9509 0.0550 0.3708
H34? H 0.7705 0.0032 0.4014
H35? H 0.7422 0.1178 0.4119
H36? H 0.6343 0.0226 0.2920
H37? H 0.6698 0.1344 0.2775
H38? H 0.6589 0.0162 0.1361
H39? H 0.7790 0.0336 0.1152
H40? H 0.7108 0.1238 0.1426
N5? N 0.658(3) -0.328(2) 0.2461(15)
N6? N 0.777(2) 0.032(2) 0.2435(19)
loop_
_geom_bond_atom_site_label_1
_geom_bond_atom_site_label_2
_geom_bond_site_symmetry_1
_geom_bond_site_symmetry_2
C1 H1 1_555 1_555
H2 C1 1_555 1_555
H3 C1 1_555 1_555
N1 C1 1_555 1_555
N2 H4 1_555 1_555
H5 N2 1_555 1_555
H6 N2 1_555 1_555
C2 N2 1_555 1_555
H7 C2 1_555 1_555
H8 C2 1_555 1_555
C3 C2 1_555 1_555
H9 C3 1_555 1_555
H10 C3 1_555 1_555
C4 N1 1_555 1_555
H11 C4 1_555 1_555
H12 C4 1_555 1_555
C5 N1 1_555 1_555
H13 C5 1_555 1_555
H14 C5 1_555 1_555
C6 C5 1_555 1_555
H15 C6 1_555 1_555
H16 C6 1_555 1_555
C7 C6 1_555 1_555
H17 C7 1_555 1_555
H18 C7 1_555 1_555
C8 N1 1_555 1_555
H19 C8 1_555 1_555
H20 C8 1_555 1_555
S1 C11 1_555 1_555
S2 C12 1_555 1_555
S3 C9 1_555 1_555
S4 C10 1_555 1_555
C9 F1 1_555 1_555
C10 F4 1_555 1_555
C11 F10 1_555 1_555
C12 F7 1_555 1_555
N3 S3 1_555 1_555
N4 S1 1_555 1_555
O1 S4 1_555 1_555
O2 S3 1_555 1_555
O3 S4 1_555 1_555
O4 S3 1_555 1_555
O5 S2 1_555 1_555
O6 S2 1_555 1_555
O7 S1 1_555 1_555
O8 S1 1_555 1_555
F2 C9 1_555 1_555
F3 C9 1_555 1_555
F5 C10 1_555 1_555
F6 C10 1_555 1_555
F8 C12 1_555 1_555
F9 C12 1_555 1_555
F11 C11 1_555 1_555
F12 C11 1_555 1_555
C3 C4 1_555 1_555
C7 C8 1_555 1_555
S2 N4 1_555 1_555
S4 N3 1_555 1_555

#END
