
#######################################################################
#
#                 Cambridge Crystallographic Data Centre
#                                CCDC 
#
#######################################################################
#
# If this CIF has been generated from an entry in the Cambridge 
# Structural Database, then it will include bibliographic, chemical, 
# crystal, experimental, refinement or atomic coordinate data resulting 
# from the CCDC's data processing and validation procedures.
#
#######################################################################

data_FEHHOR
_chemical_formula_moiety         'C14 H19 N3 O1'
_chemical_name_systematic        
3-(3-Anilino-1,5-dimethyl-1H-pyrazol-4-yl)propan-1-ol
_symmetry_cell_setting           orthorhombic
_symmetry_space_group_name_H-M   'P 21 21 21'
_symmetry_Int_Tables_number      19
_space_group_name_Hall           'P 2ac 2ab'
loop_
_symmetry_equiv_pos_site_id
_symmetry_equiv_pos_as_xyz
1 x,y,z
2 1/2-x,-y,1/2+z
3 1/2+x,1/2-y,-z
4 -x,1/2+y,1/2-z
_cell_length_a                   9.012(3)
_cell_length_b                   9.445(2)
_cell_length_c                   15.967(4)
_cell_angle_alpha                90
_cell_angle_beta                 90
_cell_angle_gamma                90
_cell_volume                     1359.08
_exptl_crystal_colour            colorless
_exptl_crystal_description       block
_cell_formula_units_Z            4
loop_
_atom_site_label
_atom_site_type_symbol
_atom_site_fract_x
_atom_site_fract_y
_atom_site_fract_z
C1 C 0.3075(3) -0.2804(3) 0.20358(16)
C2 C 0.4544(3) -0.2622(3) 0.18471(16)
C3 C 0.4534(3) -0.1649(3) 0.11745(15)
C4 C 0.0681(4) -0.1830(4) 0.1454(2)
H1 H 0.0446 -0.1175 0.1014
H2 H 0.0305 -0.1476 0.1976
H3 H 0.0235 -0.2731 0.1334
C5 C 0.2364(4) -0.3682(4) 0.27064(19)
H4 H 0.1306 -0.3585 0.2674
H5 H 0.2702 -0.3366 0.3245
H6 H 0.2631 -0.4657 0.2630
C6 C 0.5901(3) -0.3221(3) 0.22677(17)
C7 C 0.6402(4) -0.4662(3) 0.19315(19)
H7 H 0.7316 -0.4930 0.2210
H8 H 0.5657 -0.5363 0.2073
C8 C 0.6652(3) -0.4691(3) 0.09960(18)
H9 H 0.7021 -0.5614 0.0830
H10 H 0.5721 -0.4525 0.0708
C9 C 0.5921(3) -0.0044(3) 0.02027(16)
C10 C 0.4913(3) 0.1076(3) 0.01601(18)
H11 H 0.4088 0.1085 0.0509
C11 C 0.5138(3) 0.2172(3) -0.04001(17)
H12 H 0.4452 0.2907 -0.0428
C12 C 0.6364(3) 0.2195(3) -0.09187(18)
H13 H 0.6509 0.2940 -0.1291
C13 C 0.7375(3) 0.1089(3) -0.08766(19)
H14 H 0.8204 0.1092 -0.1223
C14 C 0.7159(3) -0.0015(3) -0.03236(16)
H15 H 0.7847 -0.0749 -0.0301
N1 N 0.2266(3) -0.1993(2) 0.15098(14)
N2 N 0.3162(2) -0.1255(2) 0.09654(14)
N3 N 0.5800(3) -0.1169(3) 0.07634(16)
O1 O 0.7692(2) -0.3632(2) 0.07697(14)
H16 H 0.643(3) -0.187(4) 0.0698(19)
H17 H 0.778(4) -0.381(5) 0.026(3)
loop_
_geom_bond_atom_site_label_1
_geom_bond_atom_site_label_2
_geom_bond_site_symmetry_1
_geom_bond_site_symmetry_2
C1 C2 1_555 1_555
C2 C3 1_555 1_555
C3 N2 1_555 1_555
C4 H1 1_555 1_555
H2 C4 1_555 1_555
H3 C4 1_555 1_555
C5 C1 1_555 1_555
H4 C5 1_555 1_555
H5 C5 1_555 1_555
H6 C5 1_555 1_555
C6 C2 1_555 1_555
C7 C6 1_555 1_555
H7 C7 1_555 1_555
H8 C7 1_555 1_555
C8 C7 1_555 1_555
H9 C8 1_555 1_555
H10 C8 1_555 1_555
C9 C10 1_555 1_555
C10 H11 1_555 1_555
C11 C10 1_555 1_555
H12 C11 1_555 1_555
C12 C11 1_555 1_555
H13 C12 1_555 1_555
C13 C12 1_555 1_555
H14 C13 1_555 1_555
C14 C9 1_555 1_555
H15 C14 1_555 1_555
N1 C1 1_555 1_555
N2 N1 1_555 1_555
N3 C3 1_555 1_555
O1 C8 1_555 1_555
H16 N3 1_555 1_555
H17 O1 1_555 1_555
C4 N1 1_555 1_555
C9 N3 1_555 1_555
C13 C14 1_555 1_555

#END
