
#######################################################################
#
#                 Cambridge Crystallographic Data Centre
#                                CCDC 
#
#######################################################################
#
# If this CIF has been generated from an entry in the Cambridge 
# Structural Database, then it will include bibliographic, chemical, 
# crystal, experimental, refinement or atomic coordinate data resulting 
# from the CCDC's data processing and validation procedures.
#
#######################################################################

data_FEHMOU
_chemical_formula_moiety         'C24 H40 O4,0.3(C9 H9 Cl1 O1)'
_chemical_name_systematic        
'Deoxycholic acid p-chloropropiophenone clathrate'
_symmetry_cell_setting           orthorhombic
_symmetry_space_group_name_H-M   'P 21 21 21'
_symmetry_Int_Tables_number      19
_space_group_name_Hall           'P 2ac 2ab'
loop_
_symmetry_equiv_pos_site_id
_symmetry_equiv_pos_as_xyz
1 x,y,z
2 1/2+x,1/2-y,-z
3 -x,1/2+y,1/2-z
4 1/2-x,-y,1/2+z
_cell_length_a                   25.432(8)
_cell_length_b                   13.582(6)
_cell_length_c                   7.201(3)
_cell_angle_alpha                90
_cell_angle_beta                 90
_cell_angle_gamma                90
_cell_volume                     2487.35
_chemical_melting_point          171deg.C
_cell_formula_units_Z            4
loop_
_atom_site_label
_atom_site_type_symbol
_atom_site_fract_x
_atom_site_fract_y
_atom_site_fract_z
C1 C 0.1235(1) 0.2185(2) 0.3543(4)
C2 C 0.0678(1) 0.1896(2) 0.2956(4)
C3 C 0.0704(1) 0.1185(2) 0.1351(4)
C4 C 0.1004(1) 0.1622(2) -0.0258(4)
C5 C 0.1563(1) 0.1948(2) 0.0294(5)
C6 C 0.1855(1) 0.2380(2) -0.1370(5)
C7 C 0.1654(1) 0.3394(2) -0.1933(4)
C8 C 0.1639(1) 0.4116(2) -0.0300(4)
C9 C 0.1326(1) 0.3667(2) 0.1348(4)
C10 C 0.1558(1) 0.2661(2) 0.1979(4)
C11 C 0.1251(1) 0.4420(2) 0.2903(4)
C12 C 0.1002(1) 0.5395(2) 0.2257(4)
C13 C 0.1324(1) 0.5853(2) 0.0676(4)
C14 C 0.1381(1) 0.5076(2) -0.0873(4)
C15 C 0.1617(1) 0.5646(2) -0.2498(5)
C16 C 0.2120(1) 0.2788(2) 0.2741(6)
O1 O 0.0172(1) 0.0949(2) 0.0838(4)
O2 O 0.0473(1) 0.5196(1) 0.1637(3)
C17 C 0.1364(1) 0.6673(2) -0.2344(4)
C18 C 0.1068(1) 0.6709(2) -0.0437(4)
C19 C 0.1861(1) 0.6181(2) 0.1461(4)
C20 C 0.1070(1) 0.7752(2) 0.0384(4)
C21 C 0.0797(1) 0.7828(2) 0.2252(5)
C22 C 0.0843(1) 0.8510(2) -0.1010(4)
C23 C 0.0266(1) 0.8349(2) -0.1542(5)
C24 C 0.0083(1) 0.9151(2) -0.2848(4)
O3 O 0.0082(1) 1.0023(2) -0.2448(4)
O4 O -0.0079(1) 0.8832(1) -0.4462(3)
H1 H 0.1435(16) 0.1585(33) 0.4067(64)
H2 H 0.1272(16) 0.2570(32) 0.4756(65)
H3 H 0.0506(13) 0.1601(25) 0.4067(50)
H4 H 0.0451(12) 0.2514(25) 0.2533(48)
H5 H 0.0908(13) 0.0530(26) 0.1746(52)
H6 H 0.0805(12) 0.2212(24) -0.0665(46)
H7 H 0.1029(12) 0.1169(24) -0.1120(49)
H8 H 0.1763(13) 0.1351(25) 0.0726(51)
H9 H 0.1843(14) 0.1888(26) -0.2395(55)
H10 H 0.2260(15) 0.2460(27) -0.1196(55)
H11 H 0.1299(13) 0.3289(24) -0.2595(47)
H12 H 0.1896(12) 0.3620(24) -0.2984(47)
H13 H 0.2010(14) 0.4259(27) -0.0049(52)
H14 H 0.0970 0.3519 0.0845
H15 H 0.1005(15) 0.4086(29) 0.3793(61)
H16 H 0.1634(15) 0.4602(29) 0.3492(58)
H17 H 0.0980 0.5785 0.3268
H18 H 0.1054(15) 0.4983(27) -0.1149(53)
H19 H 0.1521(13) 0.5394(25) -0.3591(51)
H20 H 0.2000(13) 0.5699(26) -0.2328(50)
H21 H 0.2077(15) 0.6603(32) 0.0655(60)
H22 H 0.1860(16) 0.6538(31) 0.2537(58)
H23 H 0.2069(16) 0.5572(31) 0.1964(59)
H24 H 0.2151(15) 0.3256(31) 0.3880(63)
H25 H 0.2224(16) 0.2143(30) 0.2989(58)
H26 H 0.2421(16) 0.3109(30) 0.1978(58)
H27 H 0.0147(14) 0.0730(28) -0.0088(55)
H28 H 0.0281(23) 0.5363(42) 0.2495(86)
H29 H 0.1433(10) 0.7907(19) 0.0529(39)
H30 H 0.1665(14) 0.7200(28) -0.2278(54)
H31 H 0.1107(15) 0.6789(29) -0.3432(56)
H32 H 0.0701(12) 0.6563(24) -0.0581(48)
H33 H 0.0985(12) 0.7523(25) 0.3263(49)
H34 H 0.0489(13) 0.7445(24) 0.2114(49)
H35 H 0.0774(13) 0.8529(25) 0.2495(47)
H36 H 0.0898(13) 0.9118(26) -0.0205(51)
H37 H 0.1067(13) 0.8490(26) -0.2097(51)
H38 H 0.0041(12) 0.8407(25) -0.0315(49)
H39 H 0.0233(12) 0.7751(25) -0.2209(50)
loop_
_geom_bond_atom_site_label_1
_geom_bond_atom_site_label_2
_geom_bond_site_symmetry_1
_geom_bond_site_symmetry_2
C1 C2 1_555 1_555
C2 C3 1_555 1_555
C3 C4 1_555 1_555
C4 C5 1_555 1_555
C5 C6 1_555 1_555
C6 C7 1_555 1_555
C7 C8 1_555 1_555
C8 C9 1_555 1_555
C9 C10 1_555 1_555
C10 C1 1_555 1_555
C11 C9 1_555 1_555
C12 C11 1_555 1_555
C13 C12 1_555 1_555
C14 C8 1_555 1_555
C15 C14 1_555 1_555
C16 C10 1_555 1_555
O1 C3 1_555 1_555
O2 C12 1_555 1_555
C17 C15 1_555 1_555
C18 C13 1_555 1_555
C19 C13 1_555 1_555
C20 C18 1_555 1_555
C21 C20 1_555 1_555
C22 C20 1_555 1_555
C23 C22 1_555 1_555
C24 C23 1_555 1_555
O3 C24 1_555 1_555
O4 C24 1_555 1_555
H1 C1 1_555 1_555
H2 C1 1_555 1_555
H3 C2 1_555 1_555
H4 C2 1_555 1_555
H5 C3 1_555 1_555
H6 C4 1_555 1_555
H7 C4 1_555 1_555
H8 C5 1_555 1_555
H9 C6 1_555 1_555
H10 C6 1_555 1_555
H11 C7 1_555 1_555
H12 C7 1_555 1_555
H13 C8 1_555 1_555
H14 C9 1_555 1_555
H15 C11 1_555 1_555
H16 C11 1_555 1_555
H17 C12 1_555 1_555
H18 C14 1_555 1_555
H19 C15 1_555 1_555
H20 C15 1_555 1_555
H21 C19 1_555 1_555
H22 C19 1_555 1_555
H23 C19 1_555 1_555
H24 C16 1_555 1_555
H25 C16 1_555 1_555
H26 C16 1_555 1_555
H27 O1 1_555 1_555
H28 O2 1_555 1_555
H29 C20 1_555 1_555
H30 C17 1_555 1_555
H31 C17 1_555 1_555
H32 C18 1_555 1_555
H33 C21 1_555 1_555
H34 C21 1_555 1_555
H35 C21 1_555 1_555
H36 C22 1_555 1_555
H37 C22 1_555 1_555
H38 C23 1_555 1_555
H39 C23 1_555 1_555
C5 C10 1_555 1_555
C13 C14 1_555 1_555
C17 C18 1_555 1_555

#END
