
#######################################################################
#
#                 Cambridge Crystallographic Data Centre
#                                CCDC 
#
#######################################################################
#
# If this CIF has been generated from an entry in the Cambridge 
# Structural Database, then it will include bibliographic, chemical, 
# crystal, experimental, refinement or atomic coordinate data resulting 
# from the CCDC's data processing and validation procedures.
#
#######################################################################

data_FEHNAH
_chemical_formula_moiety         'C33 H47 F1 O4,C2 H4 O2'
_chemical_name_systematic        
"5\b-(1'R,4''-Fluorophenylpropyl)-3\a-(1'-oxy)-12\a-hydroxycholanic acid acetic acid solvate"
_symmetry_cell_setting           orthorhombic
_symmetry_space_group_name_H-M   'P 21 21 21'
_symmetry_Int_Tables_number      19
_space_group_name_Hall           'P 2ac 2ab'
loop_
_symmetry_equiv_pos_site_id
_symmetry_equiv_pos_as_xyz
1 x,y,z
2 1/2+x,1/2-y,-z
3 -x,1/2+y,1/2-z
4 1/2-x,-y,1/2+z
_cell_length_a                   17.603(4)
_cell_length_b                   12.147(2)
_cell_length_c                   14.910(2)
_cell_angle_alpha                90
_cell_angle_beta                 90
_cell_angle_gamma                90
_cell_volume                     3188.11
_cell_formula_units_Z            4
loop_
_atom_site_label
_atom_site_type_symbol
_atom_site_fract_x
_atom_site_fract_y
_atom_site_fract_z
C1 C 0.3175(3) 0.9863(4) 0.4501(4)
C2 C 0.2341(3) 1.0089(4) 0.4624(4)
C3 C 0.1872(3) 0.9322(4) 0.4044(3)
C4 C 0.2013(3) 0.8147(4) 0.4328(3)
C5 C 0.2810(2) 0.7954(3) 0.3930(3)
C6 C 0.3026(3) 0.6734(3) 0.3933(4)
C7 C 0.3082(3) 0.6265(3) 0.4882(4)
C8 C 0.3633(3) 0.6910(3) 0.5471(3)
C9 C 0.3421(2) 0.8151(3) 0.5471(3)
C10 C 0.3413(2) 0.8640(3) 0.4505(3)
C11 C 0.3930(3) 0.8785(4) 0.6136(3)
C12 C 0.3946(3) 0.8325(4) 0.7078(3)
C13 C 0.4167(3) 0.7098(4) 0.7074(3)
C14 C 0.3617(3) 0.6493(3) 0.6425(3)
C15 C 0.3782(4) 0.5275(4) 0.6597(4)
C16 C 0.3984(4) 0.5210(4) 0.7604(4)
C17 C 0.4038(3) 0.6437(4) 0.7962(4)
C18 C 0.4993(3) 0.6989(5) 0.6774(4)
C19 C 0.4228(3) 0.8568(4) 0.4124(3)
C20 C 0.4615(3) 0.6564(5) 0.8709(4)
C21 C 0.4677(4) 0.7751(5) 0.9065(4)
C22 C 0.4456(3) 0.5773(5) 0.9513(4)
C23 C 0.3688(3) 0.5885(5) 0.9941(4)
C24 C 0.3593(3) 0.5179(4) 1.0755(4)
O1 O 0.3213(3) 0.5493(3) 1.1395(3)
O2 O 0.3881(2) 0.4208(3) 1.0727(3)
O3 O 0.3217(2) 0.8427(3) 0.7516(2)
C25 C 0.2645(2) 0.8439(3) 0.2945(3)
O4 O 0.2149(2) 0.9374(2) 0.3120(2)
C26 C 0.2190(3) 0.7603(4) 0.2368(3)
C27 C 0.1893(4) 0.8062(5) 0.1497(4)
C28 C 0.3317(3) 0.8848(4) 0.2389(3)
C29 C 0.3838(3) 0.8081(5) 0.2057(4)
C30 C 0.4452(3) 0.8402(6) 0.1552(4)
C31 C 0.4554(3) 0.9500(6) 0.1385(4)
C32 C 0.4054(4) 1.0263(6) 0.1691(4)
C33 C 0.3441(3) 0.9935(4) 0.2189(4)
F1 F 0.5165(2) 0.9817(5) 0.0904(3)
H1 H 0.3530(31) 1.0207(50) 0.4942(40)
H2 H 0.3254(34) 1.0173(51) 0.4022(40)
H3 H 0.2156(31) 1.0057(48) 0.5282(40)
H4 H 0.2182(33) 1.0910(46) 0.4530(38)
H5 H 0.1329(33) 0.9519(47) 0.4012(37)
H6 H 0.1573(31) 0.7718(47) 0.3967(38)
H7 H 0.2095(32) 0.8171(45) 0.5086(42)
H8 H 0.2651(33) 0.6310(47) 0.3614(39)
H9 H 0.3460(34) 0.6611(49) 0.3659(38)
H10 H 0.3132(33) 0.5353(49) 0.4846(38)
H11 H 0.2532(32) 0.6196(45) 0.5194(38)
H12 H 0.4194(32) 0.6854(47) 0.5137(39)
H13 H 0.2950(34) 0.8207(46) 0.5684(38)
H14 H 0.3757(34) 0.9490(50) 0.6222(38)
H15 H 0.4429(34) 0.8779(47) 0.6018(37)
H16 H 0.4419(32) 0.8829(46) 0.7441(38)
H17 H 0.3068(33) 0.6632(46) 0.6651(37)
H18 H 0.4197(34) 0.5125(51) 0.6238(39)
H19 H 0.3283(33) 0.4839(49) 0.6537(37)
H20 H 0.3487(32) 0.4703(49) 0.7966(37)
H21 H 0.4513(32) 0.5085(51) 0.7621(41)
H22 H 0.3522(33) 0.6642(49) 0.8208(38)
H23 H 0.5203(32) 0.7320(37) 0.6265(30)
H24 H 0.5148(26) 0.6287(37) 0.6767(29)
H25 H 0.4264(25) 0.9075(38) 0.3643(29)
H26 H 0.4627(26) 0.8839(37) 0.4534(30)
H27 H 0.4468(24) 0.7901(37) 0.4139(30)
H28 H 0.5124(26) 0.6370(37) 0.8549(31)
H29 H 0.4994(25) 0.7711(37) 0.9573(29)
H30 H 0.4968(25) 0.8239(37) 0.8554(29)
H31 H 0.4238(25) 0.8005(39) 0.8968(30)
H32 H 0.4869(26) 0.5893(37) 1.0115(30)
H33 H 0.4394(26) 0.5067(41) 0.9263(31)
H34 H 0.3559(26) 0.6631(40) 1.0099(31)
H35 H 0.3159(26) 0.5753(37) 0.9606(30)
H36 H 0.2499(24) 0.6912(38) 0.2261(30)
H37 H 0.1784(29) 0.7276(40) 0.2724(32)
H38 H 0.2423(27) 0.8231(40) 0.1202(31)
H39 H 0.1485(28) 0.8561(40) 0.1554(32)
H40 H 0.1527(27) 0.7542(39) 0.1142(29)
H41 H 0.3797(27) 0.7321(42) 0.2236(32)
H42 H 0.4742(29) 0.7920(41) 0.1351(34)
H43 H 0.4127(28) 1.0902(42) 0.1599(34)
H44 H 0.3121(28) 1.0386(40) 0.2392(32)
H45 H 0.3130(27) 0.9091(40) 0.7627(33)
O5 O 0.6249(3) 0.8042(4) 0.2776(4)
O6 O 0.6956(3) 0.9324(3) 0.2141(3)
C34 C 0.6612(4) 0.8411(5) 0.2143(5)
C35 C 0.6703(5) 0.7765(6) 0.1289(5)
H46 H 0.6378(5) 0.7019(6) 0.1378(5)
H47 H 0.7292(5) 0.7560(6) 0.1176(5)
H48 H 0.6487(5) 0.8214(6) 0.0718(5)
loop_
_geom_bond_atom_site_label_1
_geom_bond_atom_site_label_2
_geom_bond_site_symmetry_1
_geom_bond_site_symmetry_2
C1 C2 1_555 1_555
C2 C3 1_555 1_555
C3 C4 1_555 1_555
C4 C5 1_555 1_555
C5 C6 1_555 1_555
C6 C7 1_555 1_555
C7 C8 1_555 1_555
C8 C9 1_555 1_555
C9 C10 1_555 1_555
C10 C1 1_555 1_555
C11 C9 1_555 1_555
C12 C11 1_555 1_555
C13 C12 1_555 1_555
C14 C8 1_555 1_555
C15 C14 1_555 1_555
C16 C15 1_555 1_555
C17 C13 1_555 1_555
C18 C13 1_555 1_555
C19 C10 1_555 1_555
C20 C17 1_555 1_555
C21 C20 1_555 1_555
C22 C20 1_555 1_555
C23 C22 1_555 1_555
C24 C23 1_555 1_555
O1 C24 1_555 1_555
O2 C24 1_555 1_555
O3 C12 1_555 1_555
C25 C5 1_555 1_555
O4 C3 1_555 1_555
C26 C25 1_555 1_555
C27 C26 1_555 1_555
C28 C25 1_555 1_555
C29 C28 1_555 1_555
C30 C29 1_555 1_555
C31 C30 1_555 1_555
C32 C31 1_555 1_555
C33 C28 1_555 1_555
F1 C31 1_555 1_555
H1 C1 1_555 1_555
H2 C1 1_555 1_555
H3 C2 1_555 1_555
H4 C2 1_555 1_555
H5 C3 1_555 1_555
H6 C4 1_555 1_555
H7 C4 1_555 1_555
H8 C6 1_555 1_555
H9 C6 1_555 1_555
H10 C7 1_555 1_555
H11 C7 1_555 1_555
H12 C8 1_555 1_555
H13 C9 1_555 1_555
H14 C11 1_555 1_555
H15 C11 1_555 1_555
H16 C12 1_555 1_555
H17 C14 1_555 1_555
H18 C15 1_555 1_555
H19 C15 1_555 1_555
H20 C16 1_555 1_555
H21 C16 1_555 1_555
H22 C17 1_555 1_555
H23 C18 1_555 1_555
H24 C18 1_555 1_555
H25 C19 1_555 1_555
H26 C19 1_555 1_555
H27 C19 1_555 1_555
H28 C20 1_555 1_555
H29 C21 1_555 1_555
H30 C21 1_555 1_555
H31 C21 1_555 1_555
H32 C22 1_555 1_555
H33 C22 1_555 1_555
H34 C23 1_555 1_555
H35 C23 1_555 1_555
H36 C26 1_555 1_555
H37 C26 1_555 1_555
H38 C27 1_555 1_555
H39 C27 1_555 1_555
H40 C27 1_555 1_555
H41 C29 1_555 1_555
H42 C30 1_555 1_555
H43 C32 1_555 1_555
H44 C33 1_555 1_555
H45 O3 1_555 1_555
O5 C34 1_555 1_555
O6 C34 1_555 1_555
C34 C35 1_555 1_555
C35 H46 1_555 1_555
H47 C35 1_555 1_555
H48 C35 1_555 1_555
C5 C10 1_555 1_555
C13 C14 1_555 1_555
C16 C17 1_555 1_555
C25 O4 1_555 1_555
C32 C33 1_555 1_555

#END
