
#######################################################################
#
#                 Cambridge Crystallographic Data Centre
#                                CCDC 
#
#######################################################################
#
# If this CIF has been generated from an entry in the Cambridge 
# Structural Database, then it will include bibliographic, chemical, 
# crystal, experimental, refinement or atomic coordinate data resulting 
# from the CCDC's data processing and validation procedures.
#
#######################################################################

data_FEHSAM
_chemical_formula_moiety         'C19 H17 N4 O2 1+,Cl1 1-,2(H2 O1)'
_chemical_name_systematic        
'5-(Acridin-9-yl)-6-amino-1,3-dimethyluracil hydrochloride dihydrate'
_symmetry_cell_setting           triclinic
_symmetry_space_group_name_H-M   'P -1'
_symmetry_Int_Tables_number      2
_space_group_name_Hall           '-P 1'
loop_
_symmetry_equiv_pos_site_id
_symmetry_equiv_pos_as_xyz
1 x,y,z
2 -x,-y,-z
_cell_length_a                   8.763(3)
_cell_length_b                   16.130(9)
_cell_length_c                   7.620(2)
_cell_angle_alpha                117.51(4)
_cell_angle_beta                 83.81(3)
_cell_angle_gamma                94.21(4)
_cell_volume                     949.372
_exptl_crystal_colour            yellow
_chemical_melting_point          'above 300deg.C'
_cell_formula_units_Z            2
loop_
_atom_site_label
_atom_site_type_symbol
_atom_site_fract_x
_atom_site_fract_y
_atom_site_fract_z
C1 C 1.2119(6) 0.1252(4) 0.5562(7)
C2 C 1.3054(6) 0.0498(4) 0.4780(8)
C3 C 1.2634(6) -0.0346(4) 0.3124(8)
C4 C 1.1300(6) -0.0433(4) 0.2290(7)
C5 C 0.6604(6) 0.0823(4) 0.2048(8)
C6 C 0.5638(6) 0.1553(5) 0.2691(9)
C7 C 0.5990(6) 0.2437(5) 0.4248(9)
C8 C 0.7300(6) 0.2585(4) 0.5189(8)
C9 C 0.9706(5) 0.1953(3) 0.5484(7)
N1 N 0.8978(5) 0.0262(3) 0.2295(6)
C10 C 1.0730(5) 0.1201(3) 0.4721(7)
C11 C 1.0330(5) 0.0345(3) 0.3088(7)
C12 C 0.8341(5) 0.1845(3) 0.4576(7)
C13 C 0.7979(5) 0.0969(4) 0.2959(7)
C14 C 1.0078(5) 0.2829(3) 0.7257(7)
C15 C 0.9224(6) 0.3037(3) 0.9084(7)
N2 N 0.9782(5) 0.3795(3) 1.0765(6)
C16 C 1.1032(6) 0.4345(4) 1.0705(7)
N3 N 1.1737(5) 0.4162(3) 0.8855(6)
C17 C 1.1298(5) 0.3404(3) 0.7136(7)
O1 O 0.8061(4) 0.2602(3) 0.9292(5)
C18 C 0.9098(8) 0.3947(5) 1.2744(8)
O2 O 1.1505(5) 0.4984(3) 1.2211(6)
C19 C 1.3138(7) 0.4717(4) 0.8806(9)
N4 N 1.2087(5) 0.3261(3) 0.5433(6)
H1 H 1.234(7) 0.187(4) 0.685(9)
H2 H 1.407(8) 0.048(5) 0.550(10)
H3 H 1.350(8) -0.092(5) 0.239(11)
H4 H 1.104(7) -0.099(4) 0.098(9)
H5 H 0.646(8) 0.017(5) 0.097(10)
H6 H 0.459(8) 0.152(5) 0.213(10)
H7 H 0.520(7) 0.301(5) 0.474(10)
H8 H 0.756(7) 0.318(4) 0.644(8)
H9 H 0.868(8) -0.027(5) 0.114(11)
H10 H 0.871(8) 0.468(5) 1.360(11)
H11 H 0.797(9) 0.359(6) 1.257(12)
H12 H 0.997(9) 0.374(6) 1.348(12)
H13 H 1.300(9) 0.495(5) 0.781(11)
H14 H 1.336(8) 0.521(5) 1.001(10)
H15 H 1.409(8) 0.428(5) 0.844(10)
H16 H 1.186(7) 0.281(4) 0.435(9)
H17 H 1.260(7) 0.369(5) 0.532(9)
O3 O 0.5221(7) -0.3020(4) 0.0006(9)
H18 H 0.583(10) -0.254(6) -0.007(13)
H19 H 0.400(9) -0.280(5) 0.040(11)
O4 O 0.6107(6) -0.4369(4) -0.3881(7)
H20 H 0.680(8) -0.470(5) -0.340(10)
H21 H 0.588(9) -0.400(6) -0.259(12)
Cl1 Cl 0.8014(2) -0.1731(1) -0.0748(2)
loop_
_geom_bond_atom_site_label_1
_geom_bond_atom_site_label_2
_geom_bond_site_symmetry_1
_geom_bond_site_symmetry_2
C1 C2 1_555 1_555
C2 C3 1_555 1_555
C3 C4 1_555 1_555
C4 C11 1_555 1_555
C5 C6 1_555 1_555
C6 C7 1_555 1_555
C7 C8 1_555 1_555
C8 C12 1_555 1_555
C9 C10 1_555 1_555
N1 C11 1_555 1_555
C10 C1 1_555 1_555
C11 C10 1_555 1_555
C12 C9 1_555 1_555
C13 C5 1_555 1_555
C14 C9 1_555 1_555
C15 C14 1_555 1_555
N2 C15 1_555 1_555
C16 N2 1_555 1_555
N3 C16 1_555 1_555
C17 C14 1_555 1_555
O1 C15 1_555 1_555
C18 N2 1_555 1_555
O2 C16 1_555 1_555
C19 N3 1_555 1_555
N4 C17 1_555 1_555
H1 C1 1_555 1_555
H2 C2 1_555 1_555
H3 C3 1_555 1_555
H4 C4 1_555 1_555
H5 C5 1_555 1_555
H6 C6 1_555 1_555
H7 C7 1_555 1_555
H8 C8 1_555 1_555
H9 N1 1_555 1_555
H10 C18 1_555 1_555
H11 C18 1_555 1_555
H12 C18 1_555 1_555
H13 C19 1_555 1_555
H14 C19 1_555 1_555
H15 C19 1_555 1_555
H16 N4 1_555 1_555
H17 N4 1_555 1_555
O3 H18 1_555 1_555
H19 O3 1_555 1_555
O4 H20 1_555 1_555
H21 O4 1_555 1_555
N1 C13 1_555 1_555
C12 C13 1_555 1_555
N3 C17 1_555 1_555

#END
