
#######################################################################
#
#                 Cambridge Crystallographic Data Centre
#                                CCDC 
#
#######################################################################
#
# If this CIF has been generated from an entry in the Cambridge 
# Structural Database, then it will include bibliographic, chemical, 
# crystal, experimental, refinement or atomic coordinate data resulting 
# from the CCDC's data processing and validation procedures.
#
#######################################################################

data_FEHZOI
_chemical_formula_moiety         'C31 H40 Cl1 N7 O2 2+,2(N1 O3 1-),3(H2 O1)'
_chemical_name_systematic        
'1-(D-1,2,3,4-Tetrahydroisoquinolinium-3-carbonyl-D-4-chlorophenylalanyl)-4-((R,R)-2-(1,2,4-triazol-1-yl)cyclohexyl)piperazinium dinitrate trihydrate'
_chemical_properties_biological  
'melanocortin 4 receptor specific small-molecule agonist'
_symmetry_cell_setting           orthorhombic
_symmetry_space_group_name_H-M   'P 21 21 21'
_symmetry_Int_Tables_number      19
_space_group_name_Hall           'P 2ac 2ab'
loop_
_symmetry_equiv_pos_site_id
_symmetry_equiv_pos_as_xyz
1 x,y,z
2 1/2-x,-y,1/2+z
3 1/2+x,1/2-y,-z
4 -x,1/2+y,1/2-z
_cell_length_a                   9.6106(2)
_cell_length_b                   15.5673(3)
_cell_length_c                   24.4890(6)
_cell_angle_alpha                90
_cell_angle_beta                 90
_cell_angle_gamma                90
_cell_volume                     3663.83
_exptl_crystal_colour            colorless
_exptl_crystal_description       needle
_cell_formula_units_Z            4
loop_
_atom_site_label
_atom_site_type_symbol
_atom_site_fract_x
_atom_site_fract_y
_atom_site_fract_z
Cl1 Cl -0.3110(3) -0.18216(19) -0.08261(17)
O1 O -0.1331(3) 0.1118(3) 0.09051(17)
O2 O 0.2527(4) 0.2204(2) -0.01032(17)
N1 N 0.0220(4) 0.0445(3) 0.14310(19)
N2 N 0.0930(5) 0.0612(3) 0.2575(2)
C1 C 0.1262(5) 0.2267(3) -0.0080(2)
C2 C 0.0311(5) 0.4586(4) -0.0435(3)
N3 N 0.0443(4) 0.1773(3) 0.0220(2)
N4 N 0.1162(4) 0.3053(3) -0.09408(18)
N5 N 0.1371(5) -0.0412(4) 0.3780(2)
C3 C 0.0222(5) 0.4532(4) -0.0997(3)
N6 N 0.3060(6) -0.1400(4) 0.3674(2)
C4 C 0.0190(6) -0.0201(4) -0.0016(3)
C5 C 0.3455(7) -0.0668(5) 0.3453(3)
C6 C 0.0713(6) 0.3825(4) -0.0097(3)
C7 C 0.2511(6) 0.0852(4) 0.3384(3)
C8 C 0.0984(5) 0.1091(4) 0.0567(2)
C9 C 0.0534(5) 0.2976(4) -0.0392(2)
C10 C 0.1973(5) 0.0746(4) 0.2130(3)
C11 C 0.1618(6) 0.0238(4) 0.1624(2)
N7 N 0.2488(5) -0.0079(3) 0.3510(2)
C12 C -0.0518(6) 0.0797(5) 0.2358(3)
C13 C -0.0120(5) 0.0898(4) 0.0992(3)
C14 C 0.1395(6) 0.0298(4) 0.0234(3)
C15 C 0.1758(7) -0.1217(4) 0.3862(3)
C16 C 0.0064(7) 0.5371(4) -0.0183(3)
C17 C -0.0117(6) 0.5267(4) -0.1296(3)
C18 C -0.0568(7) 0.0111(4) -0.0452(3)
C19 C 0.1278(10) 0.2092(4) 0.2987(3)
C20 C 0.2738(8) 0.1358(5) 0.3912(3)
C21 C -0.0831(6) 0.0258(5) 0.1853(3)
C22 C 0.0418(6) 0.3690(4) -0.1289(3)
C23 C -0.0354(7) 0.6043(5) -0.1041(4)
C24 C -0.0144(8) -0.1011(5) 0.0184(3)
C25 C -0.0277(8) 0.6091(4) -0.0478(4)
C26 C 0.1194(7) 0.1140(4) 0.3086(3)
C27 C -0.1860(8) -0.1170(6) -0.0509(4)
C28 C -0.1599(7) -0.0383(5) -0.0702(3)
C29 C 0.2800(10) 0.2307(5) 0.3786(4)
C30 C -0.1190(11) -0.1499(5) -0.0071(5)
C31 C 0.1518(11) 0.2594(5) 0.3507(4)
H1 H 0.439(5) -0.072(3) 0.323(2)
H2 H -0.073(5) 0.662(4) -0.131(2)
H3 H 0.201(5) -0.006(3) 0.048(2)
H4 H 0.185(5) 0.141(3) 0.0750(18)
H5 H -0.040(4) 0.074(3) -0.0611(19)
H6 H 0.164(5) -0.036(4) 0.168(2)
H7 H 0.059(9) 0.262(5) 0.375(4)
H8 H 0.204(6) 0.320(3) -0.089(2)
H9 H 0.050(5) -0.131(3) 0.052(2)
H10 H 0.205(4) 0.055(3) -0.0072(18)
H11 H 0.297(7) 0.252(4) 0.409(3)
H12 H -0.108(5) 0.067(3) 0.263(2)
H13 H -0.178(5) 0.036(3) 0.176(2)
H14 H 0.290(5) 0.059(3) 0.2256(19)
H15 H 0.013(6) 0.538(4) 0.014(2)
H16 H -0.048(12) 0.687(7) -0.021(4)
H17 H -0.010(4) 0.523(3) -0.166(2)
H18 H -0.121(6) -0.221(4) 0.007(2)
H19 H -0.231(7) -0.018(4) -0.099(3)
H20 H 0.205(5) 0.136(3) 0.409(2)
H21 H 0.371(7) 0.120(4) 0.405(3)
H22 H 0.204(6) 0.225(4) 0.271(3)
H23 H 0.067(7) 0.231(5) 0.279(3)
H25 H -0.073(5) -0.045(4) 0.194(2)
H26 H -0.031(6) 0.192(3) 0.020(2)
H27 H 0.110(6) -0.171(4) 0.403(2)
H28 H 0.158(5) 0.321(4) 0.341(2)
H29 H -0.058(7) 0.163(5) 0.233(3)
H30 H 0.335(5) 0.090(3) 0.311(2)
H31 H 0.238(7) 0.043(4) 0.133(3)
H32 H 0.379(7) 0.245(4) 0.352(3)
H33 H 0.189(4) 0.145(3) 0.2035(19)
H34 H 0.092(5) -0.001(4) 0.265(2)
H35 H 0.162(4) 0.383(2) -0.0006(14)
H36 H 0.019(5) 0.377(3) 0.023(2)
H37 H 0.119(4) 0.254(3) -0.1109(17)
H38 H 0.030(5) 0.103(3) 0.339(2)
H39 H -0.056(5) 0.280(3) -0.0491(19)
H40 H -0.051(5) 0.336(3) -0.1379(18)
H41 H 0.087(5) 0.373(3) -0.157(2)
N8 N 0.2105(12) 0.3073(6) 0.1402(4)
O4 O 0.1851(9) 0.3765(5) 0.1559(4)
O5 O 0.3056(12) 0.2807(9) 0.1208(5)
O7 O 0.1108(15) 0.2575(7) 0.1502(4)
O3 O 0.6647(9) 0.3557(6) 0.2702(3)
N9 N 0.6375(11) 0.2789(7) 0.2580(3)
O6 O 0.7298(9) 0.2295(5) 0.2453(4)
O8 O 0.5158(10) 0.2580(6) 0.2590(5)
O9 O 0.9489(5) 0.3865(3) 0.2353(2)
H24 H 0.985833 0.318750 0.208432
H46 H 0.865543 0.355660 0.241462
O10 O 0.5314(6) 0.0677(5) 0.2648(3)
H42 H 0.610987 0.064209 0.288176
H43 H 0.579637 0.140499 0.247856
O11 O 0.3347(8) 0.4137(5) 0.2518(4)
H44 H 0.304(10) 0.406(7) 0.216(4)
H45 H 0.394654 0.346810 0.257098
loop_
_geom_bond_atom_site_label_1
_geom_bond_atom_site_label_2
_geom_bond_site_symmetry_1
_geom_bond_site_symmetry_2
Cl1 C27 1_555 1_555
O1 C13 1_555 1_555
O2 C1 1_555 1_555
N1 C11 1_555 1_555
N2 C10 1_555 1_555
C1 N3 1_555 1_555
C2 C3 1_555 1_555
N3 C8 1_555 1_555
N4 C9 1_555 1_555
N5 N7 1_555 1_555
C3 C17 1_555 1_555
N6 C5 1_555 1_555
C4 C14 1_555 1_555
C5 N7 1_555 1_555
C6 C2 1_555 1_555
C7 N7 1_555 1_555
C8 C13 1_555 1_555
C9 C1 1_555 1_555
C10 C11 1_555 1_555
C11 H6 1_555 1_555
C12 N2 1_555 1_555
C13 N1 1_555 1_555
C14 C8 1_555 1_555
C15 N5 1_555 1_555
C16 C2 1_555 1_555
C17 C23 1_555 1_555
C18 C4 1_555 1_555
C19 C26 1_555 1_555
C20 C7 1_555 1_555
N8 O4 1_555 1_555
C21 N1 1_555 1_555
O3 N9 1_555 1_555
C22 N4 1_555 1_555
C23 C25 1_555 1_555
C24 C4 1_555 1_555
C25 C16 1_555 1_555
C26 N2 1_555 1_555
N9 O6 1_555 1_555
C27 C28 1_555 1_555
C28 C18 1_555 1_555
C29 C20 1_555 1_555
C30 C24 1_555 1_555
C31 C19 1_555 1_555
O5 N8 1_555 1_555
O7 N8 1_555 1_555
O8 N9 1_555 1_555
O9 H24 1_555 1_555
O10 H42 1_555 1_555
O11 H44 1_555 1_555
H1 C5 1_555 1_555
H2 C23 1_555 1_555
H3 C14 1_555 1_555
H4 C8 1_555 1_555
H5 C18 1_555 1_555
H7 C31 1_555 1_555
H8 N4 1_555 1_555
H9 C24 1_555 1_555
H10 C14 1_555 1_555
H11 C29 1_555 1_555
H12 C12 1_555 1_555
H13 C21 1_555 1_555
H14 C10 1_555 1_555
H15 C16 1_555 1_555
H16 C25 1_555 1_555
H17 C17 1_555 1_555
H18 C30 1_555 1_555
H19 C28 1_555 1_555
H20 C20 1_555 1_555
H21 C20 1_555 1_555
H22 C19 1_555 1_555
H23 C19 1_555 1_555
H25 C21 1_555 1_555
H26 N3 1_555 1_555
H27 C15 1_555 1_555
H28 C31 1_555 1_555
H29 C12 1_555 1_555
H30 C7 1_555 1_555
H31 C11 1_555 1_555
H32 C29 1_555 1_555
H33 C10 1_555 1_555
H34 N2 1_555 1_555
H35 C6 1_555 1_555
H36 C6 1_555 1_555
H37 N4 1_555 1_555
H38 C26 1_555 1_555
H39 C9 1_555 1_555
H40 C22 1_555 1_555
H41 C22 1_555 1_555
H43 O10 1_555 1_555
H45 O11 1_555 1_555
H46 O9 1_555 1_555
C3 C22 1_555 1_555
N6 C15 1_555 1_555
C6 C9 1_555 1_555
C7 C26 1_555 1_555
C12 C21 1_555 1_555
C27 C30 1_555 1_555
C29 C31 1_555 1_555

#END
