
#######################################################################
#
#                 Cambridge Crystallographic Data Centre
#                                CCDC 
#
#######################################################################
#
# If this CIF has been generated from an entry in the Cambridge 
# Structural Database, then it will include bibliographic, chemical, 
# crystal, experimental, refinement or atomic coordinate data resulting 
# from the CCDC's data processing and validation procedures.
#
#######################################################################

data_FEHZIC
_chemical_formula_moiety         '2(C33 H42 Cl1 N6 O2 1+),O4 S1 2-,6(H2 O1)'
_chemical_name_systematic        
'1-(D-1,2,3,4-Tetrahydroisoquinolinium-3-carbonyl-D-4-chlorophenylalanyl)-4-cyclohexyl-4-((1,2,4-triazol-1-yl)methyl)piperidine sulfate hexahydrate'
_chemical_properties_biological  
'THIQ is a melanocortin 4 receptor specific small-molecule agonist'
_symmetry_cell_setting           monoclinic
_symmetry_space_group_name_H-M   'P 21'
_symmetry_Int_Tables_number      4
_space_group_name_Hall           'P 2yb'
loop_
_symmetry_equiv_pos_site_id
_symmetry_equiv_pos_as_xyz
1 x,y,z
2 -x,1/2+y,-z
_cell_length_a                   17.9338(8)
_cell_length_b                   10.6646(5)
_cell_length_c                   19.3499(11)
_cell_angle_alpha                90
_cell_angle_beta                 100.827(2)
_cell_angle_gamma                90
_cell_volume                     3634.92
_exptl_crystal_colour            colorless
_exptl_crystal_description       Plate
_cell_formula_units_Z            2
loop_
_atom_site_label
_atom_site_type_symbol
_atom_site_fract_x
_atom_site_fract_y
_atom_site_fract_z
S1 S -0.20820(14) -0.3536(2) 0.00765(16)
O1 O -0.1658(4) -0.2473(7) -0.0149(5)
O2 O -0.1558(4) -0.4353(7) 0.0525(5)
O3 O -0.2650(5) -0.3060(7) 0.0465(6)
O4 O -0.2480(5) -0.4212(8) -0.0559(5)
Cl1 Cl -0.8856(2) -0.1370(5) -0.3821(2)
O5 O -0.5783(5) -0.3082(6) -0.0992(4)
N1 N -0.5374(5) -0.0728(8) -0.0457(5)
N2 N -0.5609(5) -0.2431(8) -0.2049(5)
C1 C -0.5724(6) -0.2197(9) -0.1406(6)
N3 N -0.3423(4) -0.0907(7) 0.0465(5)
O6 O -0.4328(4) -0.1599(7) -0.0756(4)
C2 C -0.4255(5) -0.0948(8) 0.0438(6)
C3 C -0.5831(5) -0.0888(9) -0.1163(5)
C4 C -0.4645(6) -0.1106(9) -0.0317(6)
C5 C -0.3000(6) -0.0580(10) 0.1164(7)
C6 C -0.7231(6) -0.0860(11) -0.1759(6)
C7 C -0.3921(6) -0.1978(9) 0.1625(6)
C8 C -0.6678(6) -0.0708(10) -0.1081(6)
C9 C -0.3232(7) -0.1333(9) 0.1733(6)
C10 C -0.4420(6) -0.2000(11) 0.0919(7)
C11 C -0.6009(7) -0.1811(11) -0.3292(7)
C12 C -0.5944(8) -0.3200(12) -0.3560(7)
C13 C -0.7490(6) -0.2055(10) -0.1989(7)
C14 C -0.7514(7) 0.0144(10) -0.2165(7)
C15 C -0.5992(7) -0.4097(11) -0.2928(7)
C16 C -0.7995(7) -0.2213(13) -0.2625(7)
C17 C -0.7997(8) 0.0009(14) -0.2805(8)
C18 C -0.5516(7) -0.1485(11) -0.2603(6)
C19 C -0.4132(8) -0.2593(12) 0.2192(8)
C20 C -0.5471(8) -0.3728(10) -0.2254(7)
C21 C -0.8229(7) -0.1194(15) -0.3028(7)
C22 C -0.2776(7) -0.1360(12) 0.2416(8)
C23 C -0.3663(10) -0.2578(13) 0.2850(8)
C24 C -0.2992(10) -0.1981(13) 0.2960(7)
C25 C -0.6571(10) -0.3490(17) -0.4194(10)
C26 C -0.5156(9) -0.3375(15) -0.3772(9)
C27 C -0.6564(12) -0.2808(19) -0.4842(12)
N4 N -0.5006(11) -0.4592(18) -0.3966(12)
C28 C -0.7325(16) -0.369(3) -0.4035(17)
C29 C -0.784(2) -0.350(3) -0.537(2)
C30 C -0.7907(15) -0.420(3) -0.4738(16)
C31 C -0.710(2) -0.323(3) -0.551(2)
C32 C -0.482(2) -0.657(4) -0.414(3)
N5 N -0.4712(13) -0.546(2) -0.3543(14)
C33 C -0.522(3) -0.491(5) -0.464(3)
N6 N -0.500(2) -0.606(4) -0.461(2)
H1 H -0.460985 -0.302462 0.213367
H2 H -0.380554 -0.302150 0.323716
H3 H -0.267016 -0.199487 0.341606
H4 H -0.230552 -0.090472 0.249833
H5 H -0.308666 0.028856 0.125163
H6 H -0.246666 -0.071644 0.117963
H7 H -0.433781 -0.279020 0.070725
H8 H -0.493681 -0.195220 0.098525
H9 H -0.442336 -0.017731 0.061503
H10 H -0.569034 -0.031036 -0.149703
H11 H -0.673937 0.011539 -0.089809
H12 H -0.679978 -0.132567 -0.075859
H13 H -0.736608 0.097762 -0.200952
H14 H -0.817703 0.073746 -0.307663
H15 H -0.817775 -0.303576 -0.277108
H16 H -0.732110 -0.277677 -0.170609
H17 H -0.499666 -0.148248 -0.266445
H18 H -0.564885 -0.066586 -0.245971
H19 H -0.651945 -0.167134 -0.322483
H20 H -0.589084 -0.122944 -0.363460
H21 H -0.587445 -0.494061 -0.304395
H22 H -0.649655 -0.406739 -0.282974
H23 H -0.554063 -0.429565 -0.188644
H24 H -0.495893 -0.379320 -0.233221
H25 H -0.476534 -0.314379 -0.338255
H26 H -0.512632 -0.284808 -0.416779
H27 H -0.541454 -0.419504 -0.491476
H28 H -0.470861 -0.741164 -0.397703
H29 H -0.642761 -0.433036 -0.429064
H30 H -0.751063 -0.290056 -0.390425
H31 H -0.728498 -0.426612 -0.364654
H32 H -0.841358 -0.432294 -0.465803
H33 H -0.770058 -0.498149 -0.485537
H34 H -0.799651 -0.269315 -0.522717
H35 H -0.819788 -0.378724 -0.577130
H36 H -0.689316 -0.402423 -0.561710
H37 H -0.707455 -0.264979 -0.588375
H38 H -0.605802 -0.269338 -0.492685
H39 H -0.678089 -0.200598 -0.477020
H40 H -0.345644 -0.156943 0.031110
H41 H -0.331118 -0.062323 0.001548
H42 H -0.559667 -0.034697 -0.009438
Cl2 Cl 0.0169(3) -0.5689(9) -0.4811(3)
O7 O 0.0189(4) -0.4583(7) -0.1210(5)
N7 N -0.0832(4) -0.6568(8) 0.0780(5)
N8 N 0.0182(5) -0.7040(8) -0.0672(5)
O8 O -0.1036(4) -0.6734(8) -0.0599(4)
N9 N -0.0929(5) -0.5126(7) -0.1903(5)
C34 C -0.0370(7) -0.6852(8) -0.0325(6)
C35 C 0.0041(6) -0.5838(10) 0.1878(7)
C36 C -0.0244(6) -0.5414(10) -0.1521(6)
C37 C 0.0529(6) -0.5366(10) 0.1457(7)
C38 C -0.1512(6) -0.5996(10) -0.2229(6)
C39 C 0.0344(6) -0.5549(10) 0.0679(6)
N10 N -0.3045(6) -0.2836(10) -0.2546(6)
C40 C -0.0139(5) -0.6710(9) 0.0481(6)
C41 C 0.0633(6) -0.6607(11) -0.2494(6)
C42 C 0.0750(6) -0.6902(11) -0.1725(7)
C43 C 0.0032(6) -0.6773(9) -0.1428(6)
C44 C -0.0673(6) -0.6557(11) 0.1562(6)
C45 C 0.1174(7) -0.4738(11) 0.1782(8)
C46 C -0.1849(7) -0.5616(12) -0.2958(8)
C47 C -0.1497(6) -0.3400(10) -0.2636(8)
C48 C 0.0683(7) -0.5437(13) -0.2729(8)
C49 C -0.2830(8) -0.4101(13) -0.2698(8)
C50 C -0.2327(7) -0.3816(12) -0.3847(8)
C51 C 0.0232(8) -0.5740(13) 0.2594(8)
C52 C 0.1362(8) -0.4650(13) 0.2510(10)
N11 N -0.3278(7) -0.1968(12) -0.3083(7)
N12 N -0.3195(7) -0.1089(13) -0.2011(8)
C53 C -0.2117(6) -0.4199(10) -0.3055(6)
C54 C -0.3011(9) -0.2308(15) -0.1939(9)
C55 C -0.1201(7) -0.3824(10) -0.1892(7)
C56 C 0.0888(9) -0.5142(14) 0.2917(8)
C57 C 0.0543(9) -0.5139(18) -0.3442(9)
C58 C 0.0437(10) -0.7521(14) -0.2985(8)
C59 C 0.0263(11) -0.725(2) -0.3713(10)
C60 C -0.3360(10) -0.0992(17) -0.2688(10)
C61 C 0.0341(9) -0.607(2) -0.3908(9)
C62 C -0.3014(10) -0.4400(17) -0.4270(10)
C63 C -0.1642(11) -0.3977(17) -0.4228(11)
C64 C -0.1900(13) -0.351(2) -0.5029(14)
C65 C -0.2546(14) -0.412(2) -0.5388(14)
C66 C -0.3192(14) -0.395(2) -0.5044(15)
H43 H -0.128524 -0.723440 0.067235
H44 H 0.069852 -0.699429 -0.047424
H45 H -0.118924 -0.601340 0.054735
H46 H -0.060983 -0.740206 0.173442
H47 H -0.108788 -0.617052 0.173030
H48 H 0.014302 -0.743543 0.067231
H49 H 0.080761 -0.562087 0.050206
H50 H 0.006407 -0.483284 0.047055
H51 H 0.150087 -0.436965 0.149825
H52 H 0.182056 -0.423946 0.273393
H53 H 0.099971 -0.506439 0.342054
H54 H -0.009384 -0.611213 0.287748
H55 H -0.035172 -0.732764 -0.166915
H56 H 0.111639 -0.632694 -0.147546
H57 H 0.093648 -0.774412 -0.164623
H58 H 0.041424 -0.838052 -0.284416
H59 H 0.008940 -0.791064 -0.404338
H60 H 0.059606 -0.429083 -0.359202
H61 H 0.081846 -0.476052 -0.240288
H62 H -0.191127 -0.601363 -0.196035
H63 H -0.129773 -0.681882 -0.223754
H64 H -0.228645 -0.612704 -0.312385
H65 H -0.148092 -0.573949 -0.325384
H66 H -0.167884 -0.255769 -0.260897
H67 H -0.106552 -0.339700 -0.286365
H68 H -0.079488 -0.329747 -0.166158
H69 H -0.160869 -0.380713 -0.163403
H70 H -0.324901 -0.450403 -0.299731
H71 H -0.270565 -0.454959 -0.226153
H72 H -0.353590 -0.022619 -0.292466
H73 H -0.286456 -0.279488 -0.151770
H74 H -0.344278 -0.420349 -0.405872
H75 H -0.294665 -0.529308 -0.427523
H76 H -0.332836 -0.307511 -0.505601
H77 H -0.360731 -0.442533 -0.529975
H78 H -0.244033 -0.499793 -0.541383
H79 H -0.267355 -0.377892 -0.585432
H80 H -0.148954 -0.363754 -0.527576
H81 H -0.201251 -0.262704 -0.502108
H82 H -0.151093 -0.484899 -0.423267
H83 H -0.121551 -0.350949 -0.398373
H84 H -0.240346 -0.292759 -0.382261
O9 O -0.4085(4) -0.4382(7) -0.0647(5)
H85 H -0.414602 -0.349241 -0.069250
H86 H -0.358102 -0.432841 -0.060250
O10 O -0.2392(5) -0.0305(7) -0.0501(5)
H87 H -0.227545 -0.007163 -0.087407
H88 H -0.299045 -0.034263 -0.087407
O11 O 0.1591(5) -0.3830(7) -0.0604(5)
H89 H 0.112712 -0.440951 -0.070366
H90 H 0.183912 -0.454851 -0.030166
O12 O -0.6329(5) -0.3454(7) 0.0236(5)
H91 H -0.670125 -0.279634 0.034973
H92 H -0.597026 -0.309734 -0.001627
O13 O -0.2614(5) -0.6792(8) -0.0613(7)
H93 H -0.257978 -0.591341 -0.048379
H94 H -0.229478 -0.688141 -0.078479
O14 O -0.5736(8) -0.4157(12) 0.1655(7)
H95 H -0.574780 -0.432060 0.214096
H96 H -0.617573 -0.432060 0.130050
loop_
_geom_bond_atom_site_label_1
_geom_bond_atom_site_label_2
_geom_bond_site_symmetry_1
_geom_bond_site_symmetry_2
S1 O1 1_555 1_555
O2 S1 1_555 1_555
O3 S1 1_555 1_555
O4 S1 1_555 1_555
Cl1 C21 1_555 1_555
O5 C1 1_555 1_555
N1 C3 1_555 1_555
N2 C1 1_555 1_555
C1 C3 1_555 1_555
N3 C2 1_555 1_555
O6 C4 1_555 1_555
C2 C4 1_555 1_555
C3 C8 1_555 1_555
C4 N1 1_555 1_555
C5 N3 1_555 1_555
C6 C8 1_555 1_555
C7 C9 1_555 1_555
C8 H11 1_555 1_555
C9 C5 1_555 1_555
C10 C2 1_555 1_555
C11 C12 1_555 1_555
C12 C15 1_555 1_555
C13 C6 1_555 1_555
C14 C6 1_555 1_555
C15 C20 1_555 1_555
C16 C13 1_555 1_555
C17 C14 1_555 1_555
C18 N2 1_555 1_555
C19 C7 1_555 1_555
C20 N2 1_555 1_555
C21 C16 1_555 1_555
C22 C9 1_555 1_555
C23 C19 1_555 1_555
C24 C22 1_555 1_555
C25 C12 1_555 1_555
C26 C12 1_555 1_555
C27 C25 1_555 1_555
N4 C26 1_555 1_555
C28 C25 1_555 1_555
C29 C30 1_555 1_555
C30 C28 1_555 1_555
C31 C27 1_555 1_555
C32 N5 1_555 1_555
N5 N4 1_555 1_555
C33 N4 1_555 1_555
N6 C32 1_555 1_555
H1 C19 1_555 1_555
H2 C23 1_555 1_555
H3 C24 1_555 1_555
H4 C22 1_555 1_555
H5 C5 1_555 1_555
H6 C5 1_555 1_555
H7 C10 1_555 1_555
H8 C10 1_555 1_555
H9 C2 1_555 1_555
H10 C3 1_555 1_555
H12 C8 1_555 1_555
H13 C14 1_555 1_555
H14 C17 1_555 1_555
H15 C16 1_555 1_555
H16 C13 1_555 1_555
H17 C18 1_555 1_555
H18 C18 1_555 1_555
H19 C11 1_555 1_555
H20 C11 1_555 1_555
H21 C15 1_555 1_555
H22 C15 1_555 1_555
H23 C20 1_555 1_555
H24 C20 1_555 1_555
H25 C26 1_555 1_555
H26 C26 1_555 1_555
H27 C33 1_555 1_555
H28 C32 1_555 1_555
H29 C25 1_555 1_555
H30 C28 1_555 1_555
H31 C28 1_555 1_555
H32 C30 1_555 1_555
H33 C30 1_555 1_555
H34 C29 1_555 1_555
H35 C29 1_555 1_555
H36 C31 1_555 1_555
H37 C31 1_555 1_555
H38 C27 1_555 1_555
H39 C27 1_555 1_555
H40 N3 1_555 1_555
H41 N3 1_555 1_555
H42 N1 1_555 1_555
Cl2 C61 1_555 1_555
O7 C36 1_555 1_555
N7 C40 1_555 1_555
N8 C34 1_555 1_555
O8 C34 1_555 1_555
N9 C36 1_555 1_555
C34 C40 1_555 1_555
C35 C37 1_555 1_555
C36 C43 1_555 1_555
C37 C39 1_555 1_555
C38 N9 1_555 1_555
C39 C40 1_555 1_555
N10 C49 1_555 1_555
C40 H48 1_555 1_555
C41 C42 1_555 1_555
C42 C43 1_555 1_555
C43 N8 1_555 1_555
C44 N7 1_555 1_555
C45 C37 1_555 1_555
C46 C38 1_555 1_555
C47 C53 1_555 1_555
C48 C41 1_555 1_555
C49 C53 1_555 1_555
C50 C53 1_555 1_555
C51 C35 1_555 1_555
C52 C45 1_555 1_555
N11 N10 1_555 1_555
N12 C54 1_555 1_555
C53 C46 1_555 1_555
C54 N10 1_555 1_555
C55 N9 1_555 1_555
C56 C51 1_555 1_555
C57 C48 1_555 1_555
C58 C41 1_555 1_555
C59 C58 1_555 1_555
C60 N11 1_555 1_555
C61 C57 1_555 1_555
C62 C50 1_555 1_555
C63 C50 1_555 1_555
C64 C63 1_555 1_555
C65 C64 1_555 1_555
C66 C62 1_555 1_555
H43 N7 1_555 1_555
H44 N8 1_555 1_555
H45 N7 1_555 1_555
H46 C44 1_555 1_555
H47 C44 1_555 1_555
H49 C39 1_555 1_555
H50 C39 1_555 1_555
H51 C45 1_555 1_555
H52 C52 1_555 1_555
H53 C56 1_555 1_555
H54 C51 1_555 1_555
H55 C43 1_555 1_555
H56 C42 1_555 1_555
H57 C42 1_555 1_555
H58 C58 1_555 1_555
H59 C59 1_555 1_555
H60 C57 1_555 1_555
H61 C48 1_555 1_555
H62 C38 1_555 1_555
H63 C38 1_555 1_555
H64 C46 1_555 1_555
H65 C46 1_555 1_555
H66 C47 1_555 1_555
H67 C47 1_555 1_555
H68 C55 1_555 1_555
H69 C55 1_555 1_555
H70 C49 1_555 1_555
H71 C49 1_555 1_555
H72 C60 1_555 1_555
H73 C54 1_555 1_555
H74 C62 1_555 1_555
H75 C62 1_555 1_555
H76 C66 1_555 1_555
H77 C66 1_555 1_555
H78 C65 1_555 1_555
H79 C65 1_555 1_555
H80 C64 1_555 1_555
H81 C64 1_555 1_555
H82 C63 1_555 1_555
H83 C63 1_555 1_555
H84 C50 1_555 1_555
O9 H85 1_555 1_555
H86 O9 1_555 1_555
O10 H87 1_555 1_555
H88 O10 1_555 1_555
O11 H89 1_555 1_555
H90 O11 1_555 1_555
O12 H91 1_555 1_555
H92 O12 1_555 1_555
O13 H93 1_555 1_555
H94 O13 1_555 1_555
O14 H95 1_555 1_555
H96 O14 1_555 1_555
C7 C10 1_555 1_555
C11 C18 1_555 1_555
C17 C21 1_555 1_555
C23 C24 1_555 1_555
C29 C31 1_555 1_555
C33 N6 1_555 1_555
C35 C44 1_555 1_555
C47 C55 1_555 1_555
C52 C56 1_555 1_555
N12 C60 1_555 1_555
C59 C61 1_555 1_555
C65 C66 1_555 1_555

#END
