
#######################################################################
#
#                 Cambridge Crystallographic Data Centre
#                                CCDC 
#
#######################################################################
#
# If this CIF has been generated from an entry in the Cambridge 
# Structural Database, then it will include bibliographic, chemical, 
# crystal, experimental, refinement or atomic coordinate data resulting 
# from the CCDC's data processing and validation procedures.
#
#######################################################################

data_FEJJEJ
_chemical_formula_moiety         'C12 H11 N1 O1'
_chemical_name_systematic        4-Benzyl-3-vinylidene-azetidin-2-one
_symmetry_cell_setting           monoclinic
_symmetry_space_group_name_H-M   'P 21/n'
_symmetry_Int_Tables_number      14
_space_group_name_Hall           '-P 2yn'
loop_
_symmetry_equiv_pos_site_id
_symmetry_equiv_pos_as_xyz
1 x,y,z
2 1/2-x,1/2+y,1/2-z
3 -x,-y,-z
4 1/2+x,1/2-y,1/2+z
_cell_length_a                   7.239(2)
_cell_length_b                   6.984(2)
_cell_length_c                   19.996(5)
_cell_angle_alpha                90
_cell_angle_beta                 93.84(2)
_cell_angle_gamma                90
_cell_volume                     1008.67
_cell_formula_units_Z            4
loop_
_atom_site_label
_atom_site_type_symbol
_atom_site_fract_x
_atom_site_fract_y
_atom_site_fract_z
O1 O 0.2125(2) 0.8407(2) 0.0213(1)
C1 C 0.1356(3) 0.7761(3) -0.0297(1)
C2 C 0.1494(3) 0.5976(3) -0.0705(1)
C3 C -0.0087(3) 0.6748(3) -0.1180(1)
N1 N -0.0011(3) 0.8458(3) -0.0730(1)
C4 C 0.2502(3) 0.4459(3) -0.0668(1)
C5 C 0.3556(3) 0.2950(4) -0.0618(1)
C6 C -0.1876(3) 0.5651(3) -0.1209(1)
C7 C -0.3378(3) 0.6589(3) -0.1659(1)
C8 C -0.3733(3) 0.6022(3) -0.2317(1)
C9 C -0.5106(3) 0.6873(3) -0.2724(1)
C10 C -0.6146(3) 0.8314(4) -0.2480(1)
C11 C -0.5799(3) 0.8914(4) -0.1833(1)
C12 C -0.4423(3) 0.8058(4) -0.1427(1)
H1 H -0.078(4) 0.911(4) -0.059(1)
H2 H 0.019(2) 0.709(3) -0.169(1)
H3 H 0.472(3) 0.296(3) -0.084(1)
H4 H 0.316(3) 0.181(3) -0.036(1)
H5 H -0.222(3) 0.553(3) -0.069(1)
H6 H -0.165(2) 0.441(3) -0.140(1)
H7 H -0.302(2) 0.507(2) -0.248(1)
H8 H -0.534(2) 0.645(2) -0.317(1)
H9 H -0.711(2) 0.891(2) -0.276(1)
H10 H -0.653(2) 0.996(3) -0.165(1)
H11 H -0.422(2) 0.843(2) -0.096(1)
loop_
_geom_bond_atom_site_label_1
_geom_bond_atom_site_label_2
_geom_bond_site_symmetry_1
_geom_bond_site_symmetry_2
O1 C1 1_555 1_555
C1 C2 1_555 1_555
C2 C3 1_555 1_555
C3 N1 1_555 1_555
N1 C1 1_555 1_555
C4 C2 1_555 1_555
C5 C4 1_555 1_555
C6 C3 1_555 1_555
C7 C6 1_555 1_555
C8 C7 1_555 1_555
C9 C8 1_555 1_555
C10 C9 1_555 1_555
C11 C10 1_555 1_555
C12 C7 1_555 1_555
H1 N1 1_555 1_555
H2 C3 1_555 1_555
H3 C5 1_555 1_555
H4 C5 1_555 1_555
H5 C6 1_555 1_555
H6 C6 1_555 1_555
H7 C8 1_555 1_555
H8 C9 1_555 1_555
H9 C10 1_555 1_555
H10 C11 1_555 1_555
H11 C12 1_555 1_555
C11 C12 1_555 1_555

#END
