
#######################################################################
#
#                 Cambridge Crystallographic Data Centre
#                                CCDC 
#
#######################################################################
#
# If this CIF has been generated from an entry in the Cambridge 
# Structural Database, then it will include bibliographic, chemical, 
# crystal, experimental, refinement or atomic coordinate data resulting 
# from the CCDC's data processing and validation procedures.
#
#######################################################################

data_FEJQIX
_chemical_formula_moiety         'C48 H51 N3 O8 S2'
_chemical_name_systematic        
'ethyl 4-(2-(diphenyl((trimethylsulfanyl)oxy)methyl)pyrrolidin-1-yl)-6-((4-methylphenyl)sulfonyl)-5-(4-nitrophenyl)-4a,5,6,10b-tetrahydro-4H-pyrano[3,4-c]quinoline-2-carboxylate'
_symmetry_cell_setting           monoclinic
_symmetry_space_group_name_H-M   'P 21'
_symmetry_Int_Tables_number      4
_space_group_name_Hall           'P 2yb'
loop_
_symmetry_equiv_pos_site_id
_symmetry_equiv_pos_as_xyz
1 x,y,z
2 -x,1/2+y,-z
_cell_length_a                   11.2130(4)
_cell_length_b                   13.1574(5)
_cell_length_c                   14.6972(4)
_cell_angle_alpha                90
_cell_angle_beta                 95.529(2)
_cell_angle_gamma                90
_cell_volume                     2158.25
_exptl_crystal_colour            colorless
_exptl_crystal_description       plate
_cell_formula_units_Z            2
loop_
_atom_site_label
_atom_site_type_symbol
_atom_site_fract_x
_atom_site_fract_y
_atom_site_fract_z
C1 C -0.0643(3) 0.5436(3) 0.5540(2)
C2 C -0.1371(3) 0.5801(4) 0.4789(3)
H1 H -0.1205 0.6433 0.4517
C3 C -0.2336(3) 0.5222(4) 0.4452(3)
H2 H -0.2854 0.5467 0.3950
C4 C -0.2562(3) 0.4296(4) 0.4829(3)
H3 H -0.3220 0.3899 0.4577
C5 C -0.1837(3) 0.3938(4) 0.5574(3)
H4 H -0.1995 0.3294 0.5829
C6 C -0.0879(3) 0.4516(3) 0.5951(2)
C7 C 0.0064(3) 0.4179(3) 0.6705(2)
H5 H 0.0112 0.4703 0.7201
C8 C 0.1266(3) 0.4184(3) 0.6262(2)
H6 H 0.1162 0.3759 0.5696
C9 C -0.0123(3) 0.3167(3) 0.7122(2)
H7 H -0.0898 0.2996 0.7284
C10 C 0.0751(4) 0.2501(3) 0.7275(3)
C11 C 0.0513(4) 0.1469(3) 0.7652(3)
C12 C 0.1265(5) -0.0189(4) 0.7970(4)
H8 H 0.0830 -0.0181 0.8525
H9 H 0.0776 -0.0569 0.7487
C13 C 0.2410(5) -0.0678(4) 0.8167(4)
H10 H 0.2755 -0.0825 0.7594
H11 H 0.2304 -0.1315 0.8496
H12 H 0.2949 -0.0229 0.8546
C14 C 0.2250(3) 0.3703(3) 0.6918(2)
H13 H 0.2307 0.4084 0.7510
C15 C 0.3485(3) 0.3126(3) 0.5718(2)
H14 H 0.3014 0.3452 0.5193
H15 H 0.3205 0.2418 0.5780
C16 C 0.4804(3) 0.3162(3) 0.5614(2)
H16 H 0.5046 0.3837 0.5398
H17 H 0.5037 0.2633 0.5187
C17 C 0.5348(3) 0.2954(3) 0.6596(3)
H18 H 0.6126 0.3308 0.6720
H19 H 0.5476 0.2216 0.6695
C18 C 0.4423(3) 0.3369(3) 0.7221(2)
H20 H 0.4140 0.2786 0.7580
C19 C 0.4922(3) 0.4200(3) 0.7913(2)
C20 C 0.6129(3) 0.3836(3) 0.8401(2)
C21 C 0.6304(4) 0.2827(4) 0.8625(3)
H21 H 0.5670 0.2355 0.8489
C22 C 0.7396(4) 0.2487(4) 0.9047(3)
H22 H 0.7507 0.1787 0.9186
C23 C 0.8316(4) 0.3162(4) 0.9262(3)
H23 H 0.9065 0.2931 0.9544
C24 C 0.8141(4) 0.4167(4) 0.9067(3)
H24 H 0.8768 0.4638 0.9230
C25 C 0.7058(3) 0.4514(4) 0.8633(3)
H25 H 0.6956 0.5216 0.8495
C26 C 0.5040(3) 0.5243(3) 0.7470(2)
C27 C 0.5896(3) 0.5410(3) 0.6846(3)
H26 H 0.6384 0.4863 0.6681
C28 C 0.6038(4) 0.6368(4) 0.6468(3)
H27 H 0.6606 0.6467 0.6036
C29 C 0.5350(4) 0.7176(4) 0.6722(3)
H28 H 0.5468 0.7835 0.6482
C30 C 0.4505(4) 0.7025(4) 0.7314(3)
H29 H 0.4026 0.7578 0.7480
C31 C 0.4337(4) 0.6059(3) 0.7679(2)
H30 H 0.3729 0.5961 0.8079
C32 C 0.4631(4) 0.3338(4) 1.0347(3)
H31 H 0.4296 0.2714 1.0062
H32 H 0.4397 0.3391 1.0970
H33 H 0.5507 0.3319 1.0366
C33 C 0.4928(4) 0.5578(4) 1.0074(3)
H34 H 0.5752 0.5511 0.9914
H35 H 0.4932 0.5637 1.0739
H36 H 0.4561 0.6186 0.9782
C34 C 0.2443(4) 0.4652(4) 0.9793(3)
H37 H 0.2194 0.5307 0.9520
H38 H 0.2310 0.4653 1.0442
H39 H 0.1973 0.4105 0.9479
C35 C 0.1575(3) 0.5281(3) 0.5982(2)
H40 H 0.2133 0.5579 0.6483
C36 C 0.2191(3) 0.5307(3) 0.5109(2)
C37 C 0.3383(3) 0.5603(3) 0.5129(2)
H41 H 0.3786 0.5850 0.5683
C38 C 0.3989(3) 0.5545(3) 0.4359(3)
H42 H 0.4809 0.5734 0.4380
C39 C 0.3379(3) 0.5207(3) 0.3562(2)
C40 C 0.2192(3) 0.4935(3) 0.3502(3)
H43 H 0.1791 0.4716 0.2937
C41 C 0.1593(3) 0.4985(4) 0.4278(2)
H44 H 0.0771 0.4800 0.4249
C42 C -0.0113(3) 0.7020(3) 0.7342(3)
C43 C 0.0595(4) 0.6656(4) 0.8100(3)
H45 H 0.1399 0.6451 0.8050
C44 C 0.0107(4) 0.6597(4) 0.8934(3)
H46 H 0.0585 0.6341 0.9452
C45 C -0.1044(4) 0.6897(4) 0.9029(3)
C46 C -0.1554(4) 0.6809(4) 0.9941(3)
H47 H -0.1875 0.6124 1.0008
H48 H -0.2198 0.7308 0.9971
H49 H -0.0921 0.6940 1.0434
C47 C -0.1733(4) 0.7277(4) 0.8257(3)
H50 H -0.2529 0.7502 0.8308
C48 C -0.1267(4) 0.7327(4) 0.7426(3)
H51 H -0.1748 0.7576 0.6906
N1 N 0.0470(3) 0.5926(3) 0.5869(2)
N2 N 0.3404(3) 0.3710(3) 0.65721(19)
N3 N 0.4022(3) 0.5115(3) 0.2737(2)
O1 O 0.1914(2) 0.2647(2) 0.70890(18)
O2 O -0.0438(3) 0.1230(3) 0.7898(2)
O3 O 0.1449(3) 0.0855(2) 0.7664(2)
O4 O 0.4040(2) 0.4267(2) 0.85599(15)
O5 O 0.5070(3) 0.5361(4) 0.2781(2)
O6 O 0.3480(3) 0.4794(4) 0.2042(2)
O7 O 0.1733(3) 0.7355(2) 0.6435(2)
O8 O -0.0317(3) 0.7683(2) 0.5691(2)
S1 S 0.40569(9) 0.44443(9) 0.96746(6)
S2 S 0.04930(9) 0.70812(8) 0.62753(7)
loop_
_geom_bond_atom_site_label_1
_geom_bond_atom_site_label_2
_geom_bond_site_symmetry_1
_geom_bond_site_symmetry_2
C1 C2 1_555 1_555
C2 H1 1_555 1_555
C3 C2 1_555 1_555
H2 C3 1_555 1_555
C4 C3 1_555 1_555
H3 C4 1_555 1_555
C5 C4 1_555 1_555
H4 C5 1_555 1_555
C6 C1 1_555 1_555
C7 C6 1_555 1_555
H5 C7 1_555 1_555
C8 C7 1_555 1_555
H6 C8 1_555 1_555
C9 C7 1_555 1_555
H7 C9 1_555 1_555
C10 C9 1_555 1_555
C11 C10 1_555 1_555
C12 H8 1_555 1_555
H9 C12 1_555 1_555
C13 C12 1_555 1_555
H10 C13 1_555 1_555
H11 C13 1_555 1_555
H12 C13 1_555 1_555
C14 C8 1_555 1_555
H13 C14 1_555 1_555
C15 H14 1_555 1_555
H15 C15 1_555 1_555
C16 C15 1_555 1_555
H16 C16 1_555 1_555
H17 C16 1_555 1_555
C17 C16 1_555 1_555
H18 C17 1_555 1_555
H19 C17 1_555 1_555
C18 C17 1_555 1_555
H20 C18 1_555 1_555
C19 C18 1_555 1_555
C20 C19 1_555 1_555
C21 C20 1_555 1_555
H21 C21 1_555 1_555
C22 C21 1_555 1_555
H22 C22 1_555 1_555
C23 C22 1_555 1_555
H23 C23 1_555 1_555
C24 C23 1_555 1_555
H24 C24 1_555 1_555
C25 C20 1_555 1_555
H25 C25 1_555 1_555
C26 C19 1_555 1_555
C27 C26 1_555 1_555
H26 C27 1_555 1_555
C28 C27 1_555 1_555
H27 C28 1_555 1_555
C29 C28 1_555 1_555
H28 C29 1_555 1_555
C30 C29 1_555 1_555
H29 C30 1_555 1_555
C31 C26 1_555 1_555
H30 C31 1_555 1_555
C32 H31 1_555 1_555
H32 C32 1_555 1_555
H33 C32 1_555 1_555
C33 H34 1_555 1_555
H35 C33 1_555 1_555
H36 C33 1_555 1_555
C34 H37 1_555 1_555
H38 C34 1_555 1_555
H39 C34 1_555 1_555
C35 C8 1_555 1_555
H40 C35 1_555 1_555
C36 C35 1_555 1_555
C37 C36 1_555 1_555
H41 C37 1_555 1_555
C38 C37 1_555 1_555
H42 C38 1_555 1_555
C39 C38 1_555 1_555
C40 C39 1_555 1_555
H43 C40 1_555 1_555
C41 C36 1_555 1_555
H44 C41 1_555 1_555
C42 C43 1_555 1_555
C43 H45 1_555 1_555
C44 C43 1_555 1_555
H46 C44 1_555 1_555
C45 C44 1_555 1_555
C46 C45 1_555 1_555
H47 C46 1_555 1_555
H48 C46 1_555 1_555
H49 C46 1_555 1_555
C47 C45 1_555 1_555
H50 C47 1_555 1_555
C48 C42 1_555 1_555
H51 C48 1_555 1_555
N1 C1 1_555 1_555
N2 C14 1_555 1_555
N3 C39 1_555 1_555
O1 C10 1_555 1_555
O2 C11 1_555 1_555
O3 C11 1_555 1_555
O4 C19 1_555 1_555
O5 N3 1_555 1_555
O6 N3 1_555 1_555
O7 S2 1_555 1_555
O8 S2 1_555 1_555
S1 C32 1_555 1_555
S2 C42 1_555 1_555
C5 C6 1_555 1_555
C12 O3 1_555 1_555
C14 O1 1_555 1_555
C15 N2 1_555 1_555
C18 N2 1_555 1_555
C24 C25 1_555 1_555
C30 C31 1_555 1_555
C33 S1 1_555 1_555
C34 S1 1_555 1_555
C35 N1 1_555 1_555
C40 C41 1_555 1_555
C47 C48 1_555 1_555
N1 S2 1_555 1_555
O4 S1 1_555 1_555

#END
