
#######################################################################
#
#                 Cambridge Crystallographic Data Centre
#                                CCDC 
#
#######################################################################
#
# If this CIF has been generated from an entry in the Cambridge 
# Structural Database, then it will include bibliographic, chemical, 
# crystal, experimental, refinement or atomic coordinate data resulting 
# from the CCDC's data processing and validation procedures.
#
#######################################################################

data_FEJQET
_chemical_formula_moiety         'C28 H26 Br1 N1 O6 S1,2.5(C1 H1 Cl3)'
_chemical_name_systematic        
'ethyl 5-(2-bromophenyl)-4-hydroxy-6-((4-methylphenyl)sulfonyl)-4a,5,6,10b-tetrahydro-4H-pyrano[3,4-c]quinoline-2-carboxylate chloroform solvate'
_symmetry_cell_setting           monoclinic
_symmetry_space_group_name_H-M   'P 21'
_symmetry_Int_Tables_number      4
_space_group_name_Hall           'P 2yb'
loop_
_symmetry_equiv_pos_site_id
_symmetry_equiv_pos_as_xyz
1 x,y,z
2 -x,1/2+y,-z
_cell_length_a                   9.6708(8)
_cell_length_b                   24.094(2)
_cell_length_c                   15.4897(14)
_cell_angle_alpha                90
_cell_angle_beta                 92.783(4)
_cell_angle_gamma                90
_cell_volume                     3604.97
_exptl_crystal_colour            colorless
_exptl_crystal_description       block
_cell_formula_units_Z            4
loop_
_atom_site_label
_atom_site_type_symbol
_atom_site_fract_x
_atom_site_fract_y
_atom_site_fract_z
Br1 Br 0.19077(8) 0.74368(3) 0.62942(4)
C1 C 0.2026(6) 0.7690(3) 0.9972(4)
C2 C 0.1242(7) 0.7932(2) 1.0605(4)
H1 H 0.0571 0.8208 1.0451
C3 C 0.1449(7) 0.7768(3) 1.1459(4)
H2 H 0.0935 0.7938 1.1895
C4 C 0.2407(7) 0.7355(3) 1.1682(4)
H3 H 0.2530 0.7237 1.2266
C5 C 0.3183(7) 0.7116(3) 1.1049(4)
H4 H 0.3849 0.6840 1.1207
C6 C 0.3001(6) 0.7274(2) 1.0190(4)
C7 C 0.3682(7) 0.7008(2) 0.9453(4)
H5 H 0.4311 0.7287 0.9199
C8 C 0.4504(6) 0.6501(3) 0.9668(4)
H6 H 0.5177 0.6512 1.0135
C9 C 0.4322(6) 0.6034(3) 0.9226(4)
C10 C 0.5049(7) 0.5497(3) 0.9449(4)
C11 C 0.6708(8) 0.5058(3) 1.0401(5)
H7 H 0.7089 0.4858 0.9908
H8 H 0.6054 0.4810 1.0685
C12 C 0.7851(8) 0.5226(3) 1.1029(5)
H9 H 0.8470 0.5485 1.0750
H10 H 0.8374 0.4896 1.1221
H11 H 0.7460 0.5407 1.1529
C13 C 0.3059(7) 0.6486(3) 0.8096(4)
H12 H 0.2320 0.6415 0.7635
C14 C 0.2501(6) 0.6882(2) 0.8780(4)
H13 H 0.1742 0.6689 0.9077
C15 C 0.1925(6) 0.7419(3) 0.8381(4)
H14 H 0.2598 0.7559 0.7962
C16 C 0.0527(6) 0.7345(2) 0.7901(4)
C17 C 0.0359(7) 0.7364(3) 0.6996(4)
C18 C -0.0934(8) 0.7318(3) 0.6584(5)
H15 H -0.1028 0.7327 0.5971
C19 C -0.2081(7) 0.7261(3) 0.7060(5)
H16 H -0.2971 0.7238 0.6774
C20 C -0.1962(7) 0.7236(3) 0.7953(5)
H17 H -0.2758 0.7188 0.8282
C21 C -0.0654(7) 0.7283(3) 0.8360(4)
H18 H -0.0569 0.7273 0.8974
C22 C 0.4021(6) 0.8536(2) 0.8831(4)
C23 C 0.4727(7) 0.8403(3) 0.8083(4)
H19 H 0.4235 0.8286 0.7570
C24 C 0.6158(7) 0.8448(3) 0.8114(4)
H20 H 0.6647 0.8350 0.7619
C25 C 0.6888(7) 0.8630(3) 0.8847(5)
C26 C 0.8433(7) 0.8701(3) 0.8870(5)
H21 H 0.8797 0.8544 0.8343
H22 H 0.8849 0.8509 0.9376
H23 H 0.8662 0.9097 0.8905
C27 C 0.6130(7) 0.8755(3) 0.9582(4)
H24 H 0.6619 0.8879 1.0093
C28 C 0.4740(7) 0.8705(3) 0.9587(4)
H25 H 0.4262 0.8784 1.0094
N1 N 0.1812(5) 0.7844(2) 0.9084(3)
O1 O 0.5991(5) 0.55643(18) 1.0095(3)
O2 O 0.4799(5) 0.50620(17) 0.9084(3)
O3 O 0.3473(5) 0.59673(17) 0.8503(3)
O4 O 0.4184(5) 0.67433(18) 0.7736(3)
H26 H 0.4245 0.6636 0.7223
O5 O 0.1691(4) 0.85466(18) 0.7919(3)
O6 O 0.1750(5) 0.88506(17) 0.9454(3)
S1 S 0.22037(16) 0.84862(6) 0.88018(10)
Br2 Br 0.10970(8) 0.41293(3) 0.87647(4)
C29 C 0.1312(6) 0.3880(3) 0.5118(4)
C30 C 0.0484(6) 0.3637(3) 0.4450(4)
H27 H -0.0243 0.3389 0.4574
C31 C 0.0756(7) 0.3769(3) 0.3611(4)
H28 H 0.0224 0.3600 0.3151
C32 C 0.1770(7) 0.4137(3) 0.3424(4)
H29 H 0.1950 0.4218 0.2840
C33 C 0.2529(7) 0.4388(3) 0.4085(4)
H30 H 0.3204 0.4658 0.3955
C34 C 0.2325(7) 0.4255(2) 0.4939(4)
C35 C 0.3116(6) 0.4516(2) 0.5719(4)
H31 H 0.3713 0.4227 0.6013
C36 C 0.3990(7) 0.5005(3) 0.5504(4)
H32 H 0.4580 0.4982 0.5032
C37 C 0.3955(7) 0.5470(3) 0.5959(4)
C38 C 0.4820(7) 0.5966(3) 0.5761(4)
O7 O 0.4753(5) 0.63993(19) 0.6132(3)
C39 C 0.6295(15) 0.6399(5) 0.4791(8)
H33 H 0.5788 0.6745 0.4909
H34 H 0.7190 0.6406 0.5129
C40 C 0.6529(16) 0.6357(6) 0.3879(8)
H35 H 0.7031 0.6012 0.3768
H36 H 0.7078 0.6675 0.3700
H37 H 0.5638 0.6354 0.3550
O8 O 0.5465(11) 0.5907(4) 0.5039(6)
C41 C 0.2638(6) 0.5062(2) 0.7044(4)
H38 H 0.1922 0.5164 0.7460
C42 C 0.1989(6) 0.4694(2) 0.6323(4)
H39 H 0.1281 0.4917 0.5983
C43 C 0.1278(6) 0.4183(3) 0.6688(4)
H40 H 0.1903 0.4028 0.7162
C44 C -0.0116(6) 0.4286(2) 0.7054(4)
C45 C -0.0360(7) 0.4236(3) 0.7934(4)
C46 C -0.1706(7) 0.4269(3) 0.8238(5)
H41 H -0.1851 0.4221 0.8835
C47 C -0.2815(8) 0.4373(3) 0.7665(6)
H42 H -0.3729 0.4386 0.7864
C48 C -0.2584(7) 0.4458(3) 0.6788(5)
H43 H -0.3336 0.4552 0.6398
C49 C -0.1271(7) 0.4408(3) 0.6492(5)
H44 H -0.1138 0.4455 0.5893
C50 C 0.3321(6) 0.3044(2) 0.6281(4)
C51 C 0.4134(6) 0.3154(3) 0.7008(4)
H45 H 0.3736 0.3233 0.7544
C52 C 0.5545(7) 0.3146(3) 0.6938(4)
H46 H 0.6136 0.3225 0.7431
C53 C 0.6120(7) 0.3023(3) 0.6147(5)
C54 C 0.7680(7) 0.3013(3) 0.6123(5)
H47 H 0.8030 0.2655 0.6342
H48 H 0.8073 0.3313 0.6485
H49 H 0.7950 0.3064 0.5527
C55 C 0.5285(7) 0.2922(3) 0.5446(4)
H50 H 0.5682 0.2845 0.4910
C56 C 0.3876(7) 0.2929(3) 0.5488(4)
H51 H 0.3292 0.2856 0.4990
N2 N 0.1092(5) 0.3748(2) 0.6002(3)
O9 O 0.3173(4) 0.55594(16) 0.6648(3)
O10 O 0.3704(5) 0.47706(17) 0.7469(3)
H52 H 0.3940 0.4934 0.7932
O11 O 0.1116(4) 0.30536(18) 0.7192(3)
O12 O 0.0882(5) 0.27277(17) 0.5679(3)
S2 S 0.14881(16) 0.30976(6) 0.63141(11)
C59 C 0.1357(8) 0.0645(3) 0.2243(5)
H58 H 0.1385 0.0236 0.2347
Cl1 Cl 0.0457(2) 0.09448(8) 0.30784(14)
Cl2 Cl 0.0486(3) 0.07531(9) 0.12410(15)
Cl3 Cl 0.3068(2) 0.08784(8) 0.22527(15)
C60 C 0.9055(8) 0.1584(4) 0.5842(6)
H59 H 0.9212 0.1953 0.5567
Cl4 Cl 0.7280(3) 0.15193(12) 0.6003(2)
Cl5 Cl 1.0002(3) 0.15638(11) 0.68042(17)
Cl6 Cl 0.9567(4) 0.10669(12) 0.5126(2)
C61 C 0.7856(9) 0.0691(4) 0.8454(6)
H60 H 0.8162 0.1086 0.8424
Cl7 Cl 0.8824(3) 0.03198(10) 0.77445(16)
Cl8 Cl 0.6104(3) 0.06785(11) 0.81709(19)
Cl9 Cl 0.8206(3) 0.04675(15) 0.95232(18)
C62 C 0.1883(8) 0.2151(3) 0.8767(5)
H61 H 0.1266 0.2374 0.8364
Cl10 Cl 0.3063(2) 0.17868(9) 0.81533(13)
Cl11 Cl 0.0844(2) 0.16776(8) 0.93212(14)
Cl12 Cl 0.2741(2) 0.26043(8) 0.94935(15)
C63 C 0.2674(8) 0.9443(3) 0.6486(5)
H62 H 0.2172 0.9198 0.6888
Cl13 Cl 0.3334(2) 0.90309(8) 0.56455(12)
Cl14 Cl 0.1506(2) 0.99384(8) 0.60273(16)
Cl15 Cl 0.4043(2) 0.97708(9) 0.70617(14)
C57? C 0.688(3) 0.6234(12) 0.4920(16)
H53? H 0.7112 0.6520 0.5364
H54? H 0.7751 0.6048 0.4769
C58? C 0.622(4) 0.6485(14) 0.417(2)
H55? H 0.5906 0.6194 0.3762
H56? H 0.6886 0.6726 0.3889
H57? H 0.5430 0.6705 0.4337
O13? O 0.588(2) 0.5816(8) 0.5260(14)
loop_
_geom_bond_atom_site_label_1
_geom_bond_atom_site_label_2
_geom_bond_site_symmetry_1
_geom_bond_site_symmetry_2
Br1 C17 1_555 1_555
C1 C2 1_555 1_555
C2 H1 1_555 1_555
C3 C2 1_555 1_555
H2 C3 1_555 1_555
C4 C3 1_555 1_555
H3 C4 1_555 1_555
C5 C4 1_555 1_555
H4 C5 1_555 1_555
C6 C1 1_555 1_555
C7 C6 1_555 1_555
H5 C7 1_555 1_555
C8 C7 1_555 1_555
H6 C8 1_555 1_555
C9 C8 1_555 1_555
C10 C9 1_555 1_555
C11 H7 1_555 1_555
H8 C11 1_555 1_555
C12 C11 1_555 1_555
H9 C12 1_555 1_555
H10 C12 1_555 1_555
H11 C12 1_555 1_555
C13 H12 1_555 1_555
C14 C7 1_555 1_555
H13 C14 1_555 1_555
C15 C14 1_555 1_555
H14 C15 1_555 1_555
C16 C15 1_555 1_555
C17 C16 1_555 1_555
C18 C17 1_555 1_555
H15 C18 1_555 1_555
C19 C18 1_555 1_555
H16 C19 1_555 1_555
C20 C19 1_555 1_555
H17 C20 1_555 1_555
C21 C16 1_555 1_555
H18 C21 1_555 1_555
C22 C23 1_555 1_555
C23 H19 1_555 1_555
C24 C23 1_555 1_555
H20 C24 1_555 1_555
C25 C24 1_555 1_555
C26 C25 1_555 1_555
H21 C26 1_555 1_555
H22 C26 1_555 1_555
H23 C26 1_555 1_555
C27 C25 1_555 1_555
H24 C27 1_555 1_555
C28 C22 1_555 1_555
H25 C28 1_555 1_555
N1 C1 1_555 1_555
O1 C10 1_555 1_555
O2 C10 1_555 1_555
O3 C9 1_555 1_555
O4 C13 1_555 1_555
H26 O4 1_555 1_555
O5 S1 1_555 1_555
O6 S1 1_555 1_555
S1 C22 1_555 1_555
Br2 C45 1_555 1_555
C29 C30 1_555 1_555
C30 H27 1_555 1_555
C31 C30 1_555 1_555
H28 C31 1_555 1_555
C32 C31 1_555 1_555
H29 C32 1_555 1_555
C33 C32 1_555 1_555
H30 C33 1_555 1_555
C34 C29 1_555 1_555
C35 C34 1_555 1_555
H31 C35 1_555 1_555
C36 C35 1_555 1_555
H32 C36 1_555 1_555
C37 C36 1_555 1_555
C38 C37 1_555 1_555
O7 C38 1_555 1_555
C39 H33 1_555 1_555
H34 C39 1_555 1_555
C40 C39 1_555 1_555
H35 C40 1_555 1_555
H36 C40 1_555 1_555
H37 C40 1_555 1_555
O8 C38 1_555 1_555
C41 H38 1_555 1_555
C42 C35 1_555 1_555
H39 C42 1_555 1_555
C43 C42 1_555 1_555
H40 C43 1_555 1_555
C44 C43 1_555 1_555
C45 C44 1_555 1_555
C46 C45 1_555 1_555
H41 C46 1_555 1_555
C47 C46 1_555 1_555
H42 C47 1_555 1_555
C48 C47 1_555 1_555
H43 C48 1_555 1_555
C49 C44 1_555 1_555
H44 C49 1_555 1_555
C50 C51 1_555 1_555
C51 H45 1_555 1_555
C52 C51 1_555 1_555
H46 C52 1_555 1_555
C53 C52 1_555 1_555
C54 C53 1_555 1_555
H47 C54 1_555 1_555
H48 C54 1_555 1_555
H49 C54 1_555 1_555
C55 C53 1_555 1_555
H50 C55 1_555 1_555
C56 C50 1_555 1_555
H51 C56 1_555 1_555
N2 C29 1_555 1_555
O9 C37 1_555 1_555
O10 C41 1_555 1_555
H52 O10 1_555 1_555
O11 S2 1_555 1_555
O12 S2 1_555 1_555
S2 C50 1_555 1_555
C59 H58 1_555 1_555
Cl1 C59 1_555 1_555
Cl2 C59 1_555 1_555
Cl3 C59 1_555 1_555
C60 H59 1_555 1_555
Cl4 C60 1_555 1_555
Cl5 C60 1_555 1_555
Cl6 C60 1_555 1_555
C61 H60 1_555 1_555
Cl7 C61 1_555 1_555
Cl8 C61 1_555 1_555
Cl9 C61 1_555 1_555
C62 H61 1_555 1_555
Cl10 C62 1_555 1_555
Cl11 C62 1_555 1_555
Cl12 C62 1_555 1_555
C63 H62 1_555 1_555
Cl13 C63 1_555 1_555
Cl14 C63 1_555 1_555
Cl15 C63 1_555 1_555
C5 C6 1_555 1_555
C11 O1 1_555 1_555
C13 C14 1_555 1_555
C13 O3 1_555 1_555
C15 N1 1_555 1_555
C20 C21 1_555 1_555
C27 C28 1_555 1_555
N1 S1 1_555 1_555
C33 C34 1_555 1_555
C39 O8 1_555 1_555
C41 C42 1_555 1_555
C41 O9 1_555 1_555
C43 N2 1_555 1_555
C48 C49 1_555 1_555
C55 C56 1_555 1_555
N2 S2 1_555 1_555

#END
