
#######################################################################
#
#                 Cambridge Crystallographic Data Centre
#                                CCDC 
#
#######################################################################
#
# If this CIF has been generated from an entry in the Cambridge 
# Structural Database, then it will include bibliographic, chemical, 
# crystal, experimental, refinement or atomic coordinate data resulting 
# from the CCDC's data processing and validation procedures.
#
#######################################################################

data_FEJWIB
_chemical_formula_moiety         'C13 H19 N1 O1'
_chemical_name_systematic        
8a-Cyano-5,5-dimethyl-3,4,4a,5,6,7,8,8a-octahydro-1(2H)-naphthalenone
_symmetry_cell_setting           monoclinic
_symmetry_space_group_name_H-M   'P 21/n'
_symmetry_Int_Tables_number      14
_space_group_name_Hall           '-P 2yn'
loop_
_symmetry_equiv_pos_site_id
_symmetry_equiv_pos_as_xyz
1 x,y,z
2 1/2-x,1/2+y,1/2-z
3 -x,-y,-z
4 1/2+x,1/2-y,1/2+z
_cell_length_a                   10.952(2)
_cell_length_b                   9.319(3)
_cell_length_c                   11.885(2)
_cell_angle_alpha                90
_cell_angle_beta                 99.97(2)
_cell_angle_gamma                90
_cell_volume                     1194.69
_exptl_crystal_colour            colorless
_exptl_crystal_description       chunk
_chemical_melting_point          57-58deg.C
_cell_formula_units_Z            4
loop_
_atom_site_label
_atom_site_type_symbol
_atom_site_fract_x
_atom_site_fract_y
_atom_site_fract_z
O1 O -0.0283(1) 0.1319(2) 0.5828(1)
N1 N -0.0575(2) 0.2809(3) 0.3348(2)
C1 C 0.1325(2) 0.2380(2) 0.4971(2)
C2 C 0.0816(2) 0.1428(2) 0.5849(2)
C3 C 0.1747(2) 0.0720(3) 0.6741(2)
C4 C 0.2741(2) -0.0009(3) 0.6209(2)
C5 C 0.3351(2) 0.1021(3) 0.5497(2)
C6 C 0.2446(2) 0.1698(2) 0.4506(2)
C7 C 0.3084(2) 0.2754(3) 0.3780(2)
C8 C 0.3353(2) 0.4190(3) 0.4405(2)
C9 C 0.2235(3) 0.4862(3) 0.4796(2)
C10 C 0.1688(2) 0.3838(3) 0.5563(2)
C11 C 0.0262(2) 0.2621(2) 0.4040(2)
C12 C 0.2291(3) 0.2999(3) 0.2596(2)
C13 C 0.4321(2) 0.2132(3) 0.3559(2)
H1 H 0.2121 0.1423 0.7270
H2 H 0.1342 0.0024 0.7131
H3 H 0.3353 -0.0385 0.6801
H4 H 0.2376 -0.0772 0.5737
H5 H 0.3970 0.0514 0.5187
H6 H 0.3728 0.1768 0.5978
H7 H 0.2122 0.0934 0.4013
H8 H 0.3974 0.4035 0.5059
H9 H 0.3655 0.4843 0.3904
H10 H 0.2485 0.5719 0.5208
H11 H 0.1629 0.5084 0.4148
H12 H 0.2280 0.3671 0.6234
H13 H 0.0967 0.4263 0.5765
H14 H 0.2177 0.2112 0.2199
H15 H 0.1511 0.3379 0.2684
H16 H 0.2704 0.3656 0.2178
H17 H 0.4169 0.1259 0.3147
H18 H 0.4848 0.1958 0.4267
H19 H 0.4702 0.2799 0.3124
loop_
_geom_bond_atom_site_label_1
_geom_bond_atom_site_label_2
_geom_bond_site_symmetry_1
_geom_bond_site_symmetry_2
O1 C2 1_555 1_555
N1 C11 1_555 1_555
C1 C2 1_555 1_555
C2 C3 1_555 1_555
C3 C4 1_555 1_555
C4 C5 1_555 1_555
C5 C6 1_555 1_555
C6 C1 1_555 1_555
C7 C6 1_555 1_555
C8 C7 1_555 1_555
C9 C8 1_555 1_555
C10 C1 1_555 1_555
C11 C1 1_555 1_555
C12 C7 1_555 1_555
C13 C7 1_555 1_555
H1 C3 1_555 1_555
H2 C3 1_555 1_555
H3 C4 1_555 1_555
H4 C4 1_555 1_555
H5 C5 1_555 1_555
H6 C5 1_555 1_555
H7 C6 1_555 1_555
H8 C8 1_555 1_555
H9 C8 1_555 1_555
H10 C9 1_555 1_555
H11 C9 1_555 1_555
H12 C10 1_555 1_555
H13 C10 1_555 1_555
H14 C12 1_555 1_555
H15 C12 1_555 1_555
H16 C12 1_555 1_555
H17 C13 1_555 1_555
H18 C13 1_555 1_555
H19 C13 1_555 1_555
C9 C10 1_555 1_555

#END
