
#######################################################################
#
#                 Cambridge Crystallographic Data Centre
#                                CCDC 
#
#######################################################################
#
# If this CIF has been generated from an entry in the Cambridge 
# Structural Database, then it will include bibliographic, chemical, 
# crystal, experimental, refinement or atomic coordinate data resulting 
# from the CCDC's data processing and validation procedures.
#
#######################################################################

data_FEJWEX
_chemical_formula_moiety         'C23 H41 N3 O5,H2 O1'
_chemical_name_systematic        
"(R,R)-N-(2-Methylpropyl)-2-(2'-(pivaloylaminoxy)cyclohexylcarbonylaminoxy)cyclohexanecarboxamide monohydrate"
_symmetry_cell_setting           tetragonal
_symmetry_space_group_name_H-M   'P 41'
_symmetry_Int_Tables_number      76
_space_group_name_Hall           'P 4w'
loop_
_symmetry_equiv_pos_site_id
_symmetry_equiv_pos_as_xyz
1 x,y,z
2 -x,-y,1/2+z
3 -y,x,1/4+z
4 y,-x,3/4+z
_cell_length_a                   9.5210(10)
_cell_length_b                   9.5210(10)
_cell_length_c                   28.686(6)
_cell_angle_alpha                90
_cell_angle_beta                 90
_cell_angle_gamma                90
_cell_volume                     2600.37
_exptl_crystal_colour            colorless
_exptl_crystal_description       prism
_chemical_melting_point          198deg.C
_cell_formula_units_Z            4
_exptl_crystal_recrystallization_method chloroform/n-hexane
loop_
_atom_site_label
_atom_site_type_symbol
_atom_site_fract_x
_atom_site_fract_y
_atom_site_fract_z
O1 O 0.12263(18) 0.66721(15) 0.13856(5)
O2 O 0.14955(16) 0.66761(14) 0.04769(5)
O3 O 0.26979(16) 1.07359(15) 0.04219(5)
O4 O 0.31663(14) 0.97999(14) 0.12868(5)
O5 O 0.59784(19) 1.27256(19) 0.16377(6)
N1 N 0.1054(2) 0.5463(2) 0.07188(6)
N2 N 0.22168(19) 0.9151(2) 0.09834(6)
N3 N 0.4802(2) 1.2258(2) 0.09737(7)
C1 C 0.1037(2) 0.5542(2) 0.11847(7)
C2 C 0.0722(2) 0.4213(2) 0.14618(8)
C3 C 0.1943(4) 0.4043(4) 0.18050(11)
H1 H 0.1802 0.3212 0.1989
H2 H 0.1985 0.4848 0.2006
H3 H 0.2808 0.3962 0.1635
C4 C 0.0603(4) 0.2896(3) 0.11655(11)
H4 H 0.0410 0.2104 0.1362
H5 H 0.1470 0.2745 0.1002
H6 H -0.0147 0.3008 0.0945
C5 C -0.0627(3) 0.4462(3) 0.17284(13)
H7 H -0.0855 0.3641 0.1907
H8 H -0.1374 0.4656 0.1513
H9 H -0.0509 0.5248 0.1934
C6 C 0.2036(2) 0.9690(2) 0.05607(7)
C7 C 0.0937(2) 0.9017(2) 0.02485(7)
H10 H 0.1391 0.8845 -0.0053
C8 C 0.0317(2) 0.7624(2) 0.04047(7)
H11 H -0.0182 0.7757 0.0700
C9 C -0.0689(3) 0.7056(2) 0.00446(8)
H12 H -0.1077 0.6173 0.0153
H13 H -0.0186 0.6878 -0.0243
C10 C -0.1877(3) 0.8088(3) -0.00473(9)
H14 H -0.2482 0.7722 -0.0291
H15 H -0.2436 0.8199 0.0233
C11 C -0.1302(3) 0.9502(3) -0.01947(9)
H16 H -0.2070 1.0164 -0.0226
H17 H -0.0850 0.9412 -0.0496
C12 C -0.0248(2) 1.0062(2) 0.01581(9)
H18 H -0.0728 1.0261 0.0449
H19 H 0.0147 1.0935 0.0043
C13 C 0.5423(2) 1.1870(2) 0.13694(8)
C14 C 0.5537(2) 1.0311(2) 0.14754(7)
H20 H 0.5321 1.0187 0.1807
C15 C 0.4594(2) 0.9317(2) 0.12044(7)
H21 H 0.4810 0.9390 0.0871
C16 C 0.4789(2) 0.7809(2) 0.13623(9)
H22 H 0.4184 0.7198 0.1181
H23 H 0.4524 0.7723 0.1688
C17 C 0.6322(3) 0.7355(3) 0.13007(10)
H24 H 0.6443 0.6415 0.1425
H25 H 0.6547 0.7328 0.0971
C18 C 0.7324(3) 0.8347(3) 0.15458(10)
H26 H 0.8283 0.8086 0.1471
H27 H 0.7203 0.8260 0.1880
C19 C 0.7078(2) 0.9862(3) 0.14030(9)
H28 H 0.7324 0.9976 0.1077
H29 H 0.7685 1.0469 0.1585
C20 C 0.4769(3) 1.3685(2) 0.07941(9)
H30 H 0.5234 1.4305 0.1014
H31 H 0.3801 1.3989 0.0765
C21 C 0.5479(4) 1.3799(3) 0.03268(9)
H32 H 0.5078 1.3088 0.0119
C22 C 0.7047(5) 1.3512(5) 0.03800(18)
H33 H 0.7494 1.3575 0.0081
H34 H 0.7182 1.2588 0.0506
H35 H 0.7451 1.4194 0.0587
C23 C 0.5211(4) 1.5243(3) 0.01166(13)
H36 H 0.5668 1.5307 -0.0181
H37 H 0.5577 1.5953 0.0321
H38 H 0.4219 1.5380 0.0078
H39 H 0.110(2) 0.473(3) 0.0567(8)
H40 H 0.189(3) 0.837(3) 0.1096(9)
H42 H 0.431(3) 1.158(3) 0.0816(11)
O6 O 0.6649(2) 1.1678(2) 0.25335(7)
H41 H 0.651(3) 1.205(3) 0.2229(13)
H43 H 0.744(4) 1.194(3) 0.2627(12)
loop_
_geom_bond_atom_site_label_1
_geom_bond_atom_site_label_2
_geom_bond_site_symmetry_1
_geom_bond_site_symmetry_2
O1 C1 1_555 1_555
O2 N1 1_555 1_555
O3 C6 1_555 1_555
O4 N2 1_555 1_555
O5 C13 1_555 1_555
O6 H41 1_555 1_555
N1 C1 1_555 1_555
N2 C6 1_555 1_555
N3 C13 1_555 1_555
C1 C2 1_555 1_555
C2 C3 1_555 1_555
C3 H1 1_555 1_555
H2 C3 1_555 1_555
H3 C3 1_555 1_555
C4 C2 1_555 1_555
H4 C4 1_555 1_555
H5 C4 1_555 1_555
H6 C4 1_555 1_555
C5 C2 1_555 1_555
H7 C5 1_555 1_555
H8 C5 1_555 1_555
H9 C5 1_555 1_555
C6 C7 1_555 1_555
C7 H10 1_555 1_555
C8 O2 1_555 1_555
H11 C8 1_555 1_555
C9 C8 1_555 1_555
H12 C9 1_555 1_555
H13 C9 1_555 1_555
C10 C9 1_555 1_555
H14 C10 1_555 1_555
H15 C10 1_555 1_555
C11 C10 1_555 1_555
H16 C11 1_555 1_555
H17 C11 1_555 1_555
C12 C7 1_555 1_555
H18 C12 1_555 1_555
H19 C12 1_555 1_555
C13 C14 1_555 1_555
C14 H20 1_555 1_555
C15 O4 1_555 1_555
H21 C15 1_555 1_555
C16 C15 1_555 1_555
H22 C16 1_555 1_555
H23 C16 1_555 1_555
C17 C16 1_555 1_555
H24 C17 1_555 1_555
H25 C17 1_555 1_555
C18 C17 1_555 1_555
H26 C18 1_555 1_555
H27 C18 1_555 1_555
C19 C14 1_555 1_555
H28 C19 1_555 1_555
H29 C19 1_555 1_555
C20 N3 1_555 1_555
H30 C20 1_555 1_555
H31 C20 1_555 1_555
C21 C20 1_555 1_555
H32 C21 1_555 1_555
C22 C21 1_555 1_555
H33 C22 1_555 1_555
H34 C22 1_555 1_555
H35 C22 1_555 1_555
C23 C21 1_555 1_555
H36 C23 1_555 1_555
H37 C23 1_555 1_555
H38 C23 1_555 1_555
H39 N1 1_555 1_555
H40 N2 1_555 1_555
H42 N3 1_555 1_555
H43 O6 1_555 1_555
C7 C8 1_555 1_555
C11 C12 1_555 1_555
C14 C15 1_555 1_555
C18 C19 1_555 1_555

#END
