
#######################################################################
#
#                 Cambridge Crystallographic Data Centre
#                                CCDC 
#
#######################################################################
#
# If this CIF has been generated from an entry in the Cambridge 
# Structural Database, then it will include bibliographic, chemical, 
# crystal, experimental, refinement or atomic coordinate data resulting 
# from the CCDC's data processing and validation procedures.
#
#######################################################################

data_FEJWOH
_chemical_formula_moiety         'C13 H21 N1 O1'
_chemical_name_systematic        
(1R*,2R*)-2-Hydroxy-7,7-dimethylbicyclo(4.4.0)decanecarbonitrile
_symmetry_cell_setting           monoclinic
_symmetry_space_group_name_H-M   'P 21/n'
_symmetry_Int_Tables_number      14
_space_group_name_Hall           '-P 2yn'
loop_
_symmetry_equiv_pos_site_id
_symmetry_equiv_pos_as_xyz
1 x,y,z
2 1/2-x,1/2+y,1/2-z
3 -x,-y,-z
4 1/2+x,1/2-y,1/2+z
_cell_length_a                   9.002(1)
_cell_length_b                   10.091(2)
_cell_length_c                   13.627(1)
_cell_angle_alpha                90
_cell_angle_beta                 100.24(1)
_cell_angle_gamma                90
_cell_volume                     1218.15
_exptl_crystal_colour            colorless
_exptl_crystal_description       plate
_chemical_melting_point          '377-379 K'
_cell_formula_units_Z            4
_exptl_crystal_recrystallization_method 'ethyl acetate/hexanes'
loop_
_atom_site_label
_atom_site_type_symbol
_atom_site_fract_x
_atom_site_fract_y
_atom_site_fract_z
O1 O 0.8507(4) 0.2467(4) 0.2060(3)
N1 N 0.5731(5) 0.4803(5) 0.2214(4)
C1 C 0.5753(5) 0.2326(4) 0.1659(3)
C2 C 0.7279(5) 0.2128(5) 0.1299(4)
C3 C 0.7375(6) 0.2951(6) 0.0385(5)
C4 C 0.6058(7) 0.2681(6) -0.0458(4)
C5 C 0.4554(6) 0.2846(5) -0.0128(4)
C6 C 0.4431(5) 0.1996(4) 0.0788(3)
C7 C 0.2847(5) 0.1941(5) 0.1068(4)
C8 C 0.2919(6) 0.1111(5) 0.2028(4)
C9 C 0.4147(7) 0.1536(6) 0.2880(4)
C10 C 0.5679(6) 0.1451(5) 0.2572(4)
C11 C 0.5716(5) 0.3728(5) 0.1969(4)
C12 C 0.2176(6) 0.3314(5) 0.1204(5)
C13 C 0.1747(6) 0.1210(6) 0.0246(5)
H1 H 0.7367 0.1198 0.1132
H2 H 0.7365 0.3856 0.0556
H3 H 0.8284 0.2746 0.0151
H4 H 0.6106 0.3288 -0.0987
H5 H 0.6134 0.1803 -0.0692
H6 H 0.3781 0.2588 -0.0660
H7 H 0.4434 0.3749 0.0030
H8 H 0.4627 0.1117 0.0601
H9 H 0.3093 0.0215 0.1868
H10 H 0.1972 0.1183 0.2238
H11 H 0.4134 0.0973 0.3437
H12 H 0.3972 0.2426 0.3061
H13 H 0.5864 0.0556 0.2410
H14 H 0.6432 0.1732 0.3110
H15 H 0.2056 0.3793 0.0597
H16 H 0.1217 0.3218 0.1402
H17 H 0.2832 0.3791 0.1708
H18 H 0.1665 0.1676 -0.0364
H19 H 0.2115 0.0338 0.0167
H20 H 0.0778 0.1150 0.0433
H21 H 0.8746 0.1857 0.2306
loop_
_geom_bond_atom_site_label_1
_geom_bond_atom_site_label_2
_geom_bond_site_symmetry_1
_geom_bond_site_symmetry_2
O1 C2 1_555 1_555
N1 C11 1_555 1_555
C1 C2 1_555 1_555
C2 C3 1_555 1_555
C3 C4 1_555 1_555
C4 C5 1_555 1_555
C5 C6 1_555 1_555
C6 C1 1_555 1_555
C7 C6 1_555 1_555
C8 C7 1_555 1_555
C9 C8 1_555 1_555
C10 C1 1_555 1_555
C11 C1 1_555 1_555
C12 C7 1_555 1_555
C13 C7 1_555 1_555
H1 C2 1_555 1_555
H2 C3 1_555 1_555
H3 C3 1_555 1_555
H4 C4 1_555 1_555
H5 C4 1_555 1_555
H6 C5 1_555 1_555
H7 C5 1_555 1_555
H8 C6 1_555 1_555
H9 C8 1_555 1_555
H10 C8 1_555 1_555
H11 C9 1_555 1_555
H12 C9 1_555 1_555
H13 C10 1_555 1_555
H14 C10 1_555 1_555
H15 C12 1_555 1_555
H16 C12 1_555 1_555
H17 C12 1_555 1_555
H18 C13 1_555 1_555
H19 C13 1_555 1_555
H20 C13 1_555 1_555
H21 O1 1_555 1_555
C9 C10 1_555 1_555

#END
