
#######################################################################
#
#                 Cambridge Crystallographic Data Centre
#                                CCDC 
#
#######################################################################
#
# If this CIF has been generated from an entry in the Cambridge 
# Structural Database, then it will include bibliographic, chemical, 
# crystal, experimental, refinement or atomic coordinate data resulting 
# from the CCDC's data processing and validation procedures.
#
#######################################################################

data_FEJYUO
_chemical_formula_moiety         'C11 H6 Br2 S5,C2 H6 O1 S1'
_chemical_name_systematic        
'6,7-Dibromo-2,11,13,15-tetrathiatricyclo(10.3.0.0^4,9^)pentadeca-1(12),4(9),5,7-tetraene-14-thione dimethylsulfoxide solvate'
_symmetry_cell_setting           monoclinic
_symmetry_space_group_name_H-M   'P 21/m'
_symmetry_Int_Tables_number      11
_space_group_name_Hall           '-P 2yb'
loop_
_symmetry_equiv_pos_site_id
_symmetry_equiv_pos_as_xyz
1 x,y,z
2 x,1/2-y,z
3 -x,-y,-z
4 -x,1/2+y,-z
_cell_length_a                   8.7323(11)
_cell_length_b                   10.7383(14)
_cell_length_c                   9.7660(12)
_cell_angle_alpha                90
_cell_angle_beta                 95.458(4)
_cell_angle_gamma                90
_cell_volume                     911.607
_exptl_crystal_colour            'light brown'
_exptl_crystal_description       plate
_chemical_melting_point          524K(dec.)
_cell_formula_units_Z            2
loop_
_atom_site_label
_atom_site_type_symbol
_atom_site_fract_x
_atom_site_fract_y
_atom_site_fract_z
Br1 Br 0.75688(5) 0.09234(4) 0.01673(5)
S1 S 0.12152(12) 0.08971(10) 0.24717(12)
S2 S -0.12993(12) 0.11636(10) 0.43329(11)
S3 S -0.3562(2) 0.2500 0.5904(2)
C1 C 0.6249(4) 0.1846(4) 0.1203(4)
C2 C 0.5234(5) 0.1216(4) 0.1960(4)
H1 H 0.5244(5) 0.0332(4) 0.1969(4)
C3 C 0.4195(4) 0.1845(4) 0.2701(4)
C4 C 0.3106(5) 0.1090(4) 0.3469(4)
H2 H 0.2963(5) 0.1508(4) 0.4352(4)
H3 H 0.3560(5) 0.0259(4) 0.3681(4)
C5 C 0.0019(4) 0.1867(4) 0.3346(4)
C6 C -0.2136(7) 0.2500 0.4905(6)
C1A C 0.6249(4) 0.3154(4) 0.1203(4)
Br1A Br 0.75688(5) 0.40766(4) 0.01673(5)
C2A C 0.5234(5) 0.3784(4) 0.1960(4)
H1A H 0.5244(5) 0.4668(4) 0.1969(4)
C3A C 0.4195(4) 0.3155(4) 0.2701(4)
S2A S -0.12993(12) 0.38364(10) 0.43329(11)
C5A C 0.0019(4) 0.3133(4) 0.3346(4)
S1A S 0.12152(12) 0.41029(10) 0.24717(12)
C4A C 0.3106(5) 0.3910(4) 0.3469(4)
H2A H 0.2963(5) 0.3492(4) 0.4352(4)
H3A H 0.3560(5) 0.4741(4) 0.3681(4)
S4? S -0.1998(3) -0.1912(2) 0.2562(2)
O1? O -0.2025(6) -0.2500 0.3831(5)
C7? C -0.3516(8) -0.2500 0.1393(7)
H4? H -0.4490(8) -0.2274 0.1702(7)
H5? H -0.3433(8) -0.2149 0.0499(7)
H6? H -0.3442(8) -0.3391 0.1343(7)
C8? C -0.0483(7) -0.2500 0.1669(7)
H7? H 0.0487(7) -0.2278 0.2154(7)
H8? H -0.0562(7) -0.3390 0.1606(7)
H9? H -0.0553(7) -0.2149 0.0761(7)
loop_
_geom_bond_atom_site_label_1
_geom_bond_atom_site_label_2
_geom_bond_site_symmetry_1
_geom_bond_site_symmetry_2
Br1 C1 1_555 1_555
S1 C4 1_555 1_555
S2 C5 1_555 1_555
S3 C6 1_555 1_555
C1 C2 1_555 1_555
C2 H1 1_555 1_555
C3 C2 1_555 1_555
C4 C3 1_555 1_555
H2 C4 1_555 1_555
H3 C4 1_555 1_555
C5 S1 1_555 1_555
C6 S2 1_555 1_555
C1A C1 1_555 1_555
Br1A C1A 1_555 1_555
C2A C1A 1_555 1_555
H1A C2A 1_555 1_555
C3A C3 1_555 1_555
S2A C6 1_555 1_555
C5A C5 1_555 1_555
S1A C5A 1_555 1_555
C4A C3A 1_555 1_555
H2A C4A 1_555 1_555
H3A C4A 1_555 1_555
C2A C3A 1_555 1_555
S2A C5A 1_555 1_555
S1A C4A 1_555 1_555

#END
