
#######################################################################
#
#                 Cambridge Crystallographic Data Centre
#                                CCDC 
#
#######################################################################
#
# If this CIF has been generated from an entry in the Cambridge 
# Structural Database, then it will include bibliographic, chemical, 
# crystal, experimental, refinement or atomic coordinate data resulting 
# from the CCDC's data processing and validation procedures.
#
#######################################################################

data_FEJYIC
_chemical_formula_moiety         'C7 H4 O2 S5'
_chemical_name_systematic        
10-Thioxo-2,7,9,11-tetrathiabicyclo(6.3.0)undec-1(8)-ene-4,5-dione
_symmetry_cell_setting           monoclinic
_symmetry_space_group_name_H-M   'P 21/c'
_symmetry_Int_Tables_number      14
_space_group_name_Hall           '-P 2ybc'
loop_
_symmetry_equiv_pos_site_id
_symmetry_equiv_pos_as_xyz
1 x,y,z
2 -x,1/2+y,1/2-z
3 -x,-y,-z
4 x,1/2-y,1/2+z
_cell_length_a                   14.8785(14)
_cell_length_b                   5.8547(5)
_cell_length_c                   11.9620(11)
_cell_angle_alpha                90
_cell_angle_beta                 96.473(5)
_cell_angle_gamma                90
_cell_volume                     1035.36
_exptl_crystal_colour            amber
_exptl_crystal_description       prism
_chemical_melting_point          'about 442K(dec)'
_cell_formula_units_Z            4
_exptl_crystal_recrystallization_method 'carbon disulfide'
loop_
_atom_site_label
_atom_site_type_symbol
_atom_site_fract_x
_atom_site_fract_y
_atom_site_fract_z
S1 S 0.48337(3) 0.80184(8) 0.64327(4)
S2 S 0.38651(3) 0.73735(7) 0.41222(3)
S3 S 0.35141(3) 0.42531(7) 0.59023(3)
S4 S 0.21580(3) 0.14136(7) 0.44187(3)
S5 S 0.26111(3) 0.51518(8) 0.23322(3)
O1 O 0.09571(8) 0.6789(2) 0.46706(10)
O2 O 0.03800(8) 0.3629(2) 0.23897(10)
C1 C 0.41173(10) 0.6640(3) 0.55349(13)
C2 C 0.30683(10) 0.5241(3) 0.37633(13)
C3 C 0.29041(10) 0.3765(3) 0.45881(13)
C4 C 0.11050(11) 0.2706(3) 0.4781(2)
H1 H 0.0658(13) 0.1681(36) 0.4500(16)
H2 H 0.1115(13) 0.2913(37) 0.5579(19)
C5 C 0.09833(10) 0.4966(3) 0.41946(14)
C6 C 0.09102(11) 0.4933(3) 0.28988(14)
C7 C 0.15171(11) 0.6562(3) 0.23638(14)
H3 H 0.1289(13) 0.6780(35) 0.1574(17)
H4 H 0.1601(11) 0.7913(33) 0.2746(15)
loop_
_geom_bond_atom_site_label_1
_geom_bond_atom_site_label_2
_geom_bond_site_symmetry_1
_geom_bond_site_symmetry_2
S1 C1 1_555 1_555
S2 C1 1_555 1_555
S3 C1 1_555 1_555
S4 C3 1_555 1_555
S5 C2 1_555 1_555
O1 C5 1_555 1_555
O2 C6 1_555 1_555
C2 S2 1_555 1_555
C3 S3 1_555 1_555
C4 S4 1_555 1_555
H1 C4 1_555 1_555
H2 C4 1_555 1_555
C5 C4 1_555 1_555
C6 C5 1_555 1_555
C7 S5 1_555 1_555
H3 C7 1_555 1_555
H4 C7 1_555 1_555
C2 C3 1_555 1_555
C6 C7 1_555 1_555

#END
