
#######################################################################
#
#                 Cambridge Crystallographic Data Centre
#                                CCDC 
#
#######################################################################
#
# If this CIF has been generated from an entry in the Cambridge 
# Structural Database, then it will include bibliographic, chemical, 
# crystal, experimental, refinement or atomic coordinate data resulting 
# from the CCDC's data processing and validation procedures.
#
#######################################################################

data_FEJZUR
_chemical_formula_moiety         'C27 H24 N2 O4 S1'
_chemical_name_systematic        
'Ethyl 6-methyl-2-(2-oxo-2-phenylethylidene)-4-phenyl-3-(2-thienylcarbonyl)-1,2,3,4-tetrahydropyrimidine-5-carboxylate'
_symmetry_cell_setting           triclinic
_symmetry_space_group_name_H-M   'P -1'
_symmetry_Int_Tables_number      2
_space_group_name_Hall           '-P 1'
loop_
_symmetry_equiv_pos_site_id
_symmetry_equiv_pos_as_xyz
1 x,y,z
2 -x,-y,-z
_cell_length_a                   8.194(2)
_cell_length_b                   12.604(3)
_cell_length_c                   13.595(4)
_cell_angle_alpha                110.085(2)
_cell_angle_beta                 105.984(2)
_cell_angle_gamma                102.997(2)
_cell_volume                     1185.68
_exptl_crystal_colour            yellow
_exptl_crystal_description       block
_cell_formula_units_Z            2
loop_
_atom_site_label
_atom_site_type_symbol
_atom_site_fract_x
_atom_site_fract_y
_atom_site_fract_z
C1 C 0.2671(3) 1.0291(2) 0.2176(2)
C2 C 0.1691(3) 0.8119(2) 0.11116(19)
H1 H 0.2097 0.7452 0.1142
C3 C 0.1947(3) 0.8323(2) 0.0121(2)
C4 C 0.2181(3) 0.9438(2) 0.0170(2)
C5 C 0.2810(3) 1.1181(2) 0.3132(2)
H2 H 0.3005 1.1050 0.3781
C6 C 0.2674(3) 1.2316(2) 0.3201(2)
C7 C 0.2972(3) 1.3267(2) 0.4322(2)
C8 C 0.2419(4) 1.4227(2) 0.4333(3)
H3 H 0.1872 1.4260 0.3653
C9 C 0.2668(5) 1.5139(3) 0.5345(3)
H4 H 0.2275 1.5776 0.5343
C10 C 0.3486(5) 1.5105(3) 0.6344(3)
H5 H 0.3668 1.5727 0.7024
C11 C 0.4045(5) 1.4165(3) 0.6357(3)
H6 H 0.4594 1.4144 0.7043
C12 C 0.3793(4) 1.3245(3) 0.5346(2)
H7 H 0.4178 1.2607 0.5357
C13 C 0.4364(3) 0.9160(2) 0.29265(19)
C14 C 0.6041(3) 1.0224(2) 0.35695(19)
C15 C 0.6761(3) 1.1126(2) 0.3298(2)
H8 H 0.6147 1.1228 0.2671
C16 C 0.8524(4) 1.1875(3) 0.4076(3)
H9 H 0.9219 1.2531 0.4023
C17 C 0.9103(4) 1.1541(3) 0.4909(3)
H10 H 1.0235 1.1949 0.5502
C18 C -0.0261(3) 0.7792(2) 0.1044(2)
C19 C -0.0617(3) 0.8110(2) 0.2019(2)
H11 H 0.0339 0.8567 0.2721
C20 C -0.2379(4) 0.7757(3) 0.1963(2)
H12 H -0.2598 0.7978 0.2628
C21 C -0.3796(4) 0.7087(3) 0.0938(3)
H13 H -0.4979 0.6843 0.0901
C22 C -0.3458(4) 0.6777(3) -0.0034(3)
H14 H -0.4421 0.6325 -0.0734
C23 C -0.1705(3) 0.7128(2) 0.0011(2)
H15 H -0.1498 0.6915 -0.0657
C24 C 0.1916(3) 0.7321(2) -0.0852(2)
C25 C 0.1093(5) 0.5161(3) -0.1662(3)
H16 H 0.1835 0.4740 -0.1393
H17 H 0.1414 0.5317 -0.2248
C26 C -0.0825(5) 0.4415(3) -0.2130(3)
H18 H -0.1118 0.4222 -0.1560
H19 H -0.1064 0.3682 -0.2771
H20 H -0.1555 0.4849 -0.2366
C27 C 0.2355(4) 0.9848(3) -0.0713(2)
H21 H 0.3616 1.0194 -0.0566
H22 H 0.1797 1.0443 -0.0695
H23 H 0.1765 0.9171 -0.1447
N1 N 0.2259(3) 1.03313(18) 0.11486(16)
H24 H 0.2033 1.0951 0.1103
N2 N 0.2925(2) 0.92209(17) 0.21460(16)
O1 O 0.2306(3) 1.25186(15) 0.23508(15)
O2 O 0.4259(2) 0.82154(16) 0.30104(15)
O3 O 0.2273(3) 0.73703(19) -0.16344(18)
O4 O 0.1431(3) 0.62955(17) -0.07297(16)
S1 S 0.75562(10) 1.03048(8) 0.47624(7)
loop_
_geom_bond_atom_site_label_1
_geom_bond_atom_site_label_2
_geom_bond_site_symmetry_1
_geom_bond_site_symmetry_2
C1 C5 1_555 1_555
C2 H1 1_555 1_555
C3 C2 1_555 1_555
C4 C3 1_555 1_555
C5 H2 1_555 1_555
C6 C5 1_555 1_555
C7 C6 1_555 1_555
C8 C7 1_555 1_555
H3 C8 1_555 1_555
C9 C8 1_555 1_555
H4 C9 1_555 1_555
C10 C9 1_555 1_555
H5 C10 1_555 1_555
C11 C10 1_555 1_555
H6 C11 1_555 1_555
C12 C7 1_555 1_555
H7 C12 1_555 1_555
C13 C14 1_555 1_555
C14 C15 1_555 1_555
C15 H8 1_555 1_555
C16 C15 1_555 1_555
H9 C16 1_555 1_555
C17 C16 1_555 1_555
H10 C17 1_555 1_555
C18 C2 1_555 1_555
C19 C18 1_555 1_555
H11 C19 1_555 1_555
C20 C19 1_555 1_555
H12 C20 1_555 1_555
C21 C20 1_555 1_555
H13 C21 1_555 1_555
C22 C21 1_555 1_555
H14 C22 1_555 1_555
C23 C18 1_555 1_555
H15 C23 1_555 1_555
C24 C3 1_555 1_555
C25 H16 1_555 1_555
H17 C25 1_555 1_555
C26 C25 1_555 1_555
H18 C26 1_555 1_555
H19 C26 1_555 1_555
H20 C26 1_555 1_555
C27 C4 1_555 1_555
H21 C27 1_555 1_555
H22 C27 1_555 1_555
H23 C27 1_555 1_555
N1 C1 1_555 1_555
H24 N1 1_555 1_555
N2 C1 1_555 1_555
O1 C6 1_555 1_555
O2 C13 1_555 1_555
O3 C24 1_555 1_555
O4 C24 1_555 1_555
S1 C14 1_555 1_555
C2 N2 1_555 1_555
C4 N1 1_555 1_555
C11 C12 1_555 1_555
C13 N2 1_555 1_555
C17 S1 1_555 1_555
C22 C23 1_555 1_555
C25 O4 1_555 1_555

#END
