
#######################################################################
#
#                 Cambridge Crystallographic Data Centre
#                                CCDC 
#
#######################################################################
#
# If this CIF has been generated from an entry in the Cambridge 
# Structural Database, then it will include bibliographic, chemical, 
# crystal, experimental, refinement or atomic coordinate data resulting 
# from the CCDC's data processing and validation procedures.
#
#######################################################################

data_FEKBEE
_chemical_formula_moiety         'C28 H26 N2 O6'
_chemical_name_systematic        
'Ethyl 3-(2-furoyl)-4-(2-methoxyphenyl)-6-methyl-2-(2-oxo-2-phenylethylidene)-1,2,3,4-tetrahydropyrimidine-5-carboxylate'
_symmetry_cell_setting           triclinic
_symmetry_space_group_name_H-M   'P -1'
_symmetry_Int_Tables_number      2
_space_group_name_Hall           '-P 1'
loop_
_symmetry_equiv_pos_site_id
_symmetry_equiv_pos_as_xyz
1 x,y,z
2 -x,-y,-z
_cell_length_a                   10.799(9)
_cell_length_b                   10.973(9)
_cell_length_c                   11.933(10)
_cell_angle_alpha                62.809(6)
_cell_angle_beta                 76.563(7)
_cell_angle_gamma                80.600(7)
_cell_volume                     1220.66
_exptl_crystal_colour            yellow
_exptl_crystal_description       block
_cell_formula_units_Z            2
loop_
_atom_site_label
_atom_site_type_symbol
_atom_site_fract_x
_atom_site_fract_y
_atom_site_fract_z
C1 C 0.2040(2) 0.4154(2) 0.7907(2)
H1 H 0.1899 0.3343 0.8734
C2 C 0.1677(2) 0.3844(2) 0.6927(2)
C3 C 0.22125(19) 0.4584(2) 0.5696(2)
C4 C 0.3754(2) 0.5433(2) 0.63263(19)
C5 C 0.1276(2) 0.5377(2) 0.8069(2)
C6 C 0.0299(2) 0.6092(2) 0.7411(2)
H2 H 0.0133 0.5866 0.6800
C7 C -0.0443(3) 0.7143(3) 0.7639(3)
H3 H -0.1098 0.7618 0.7185
C8 C -0.0199(3) 0.7470(3) 0.8536(3)
H4 H -0.0700 0.8164 0.8702
C9 C 0.0772(3) 0.6791(3) 0.9195(3)
H5 H 0.0937 0.7035 0.9794
C10 C 0.1509(2) 0.5745(2) 0.8974(2)
C11 C 0.2854(4) 0.5368(4) 1.0457(3)
H6 H 0.3105 0.6296 0.9998
H7 H 0.3562 0.4766 1.0798
H8 H 0.2157 0.5302 1.1145
C12 C 0.0749(2) 0.2804(2) 0.7430(2)
C13 C -0.0506(3) 0.1520(3) 0.7055(3)
H9 H -0.1295 0.1801 0.7485
H10 H -0.0164 0.0664 0.7670
C14 C -0.0747(3) 0.1334(3) 0.5984(3)
H11 H -0.1135 0.2170 0.5408
H12 H -0.1309 0.0607 0.6307
H13 H 0.0045 0.1104 0.5536
C15 C 0.1954(2) 0.4598(2) 0.4513(2)
H14 H 0.1961 0.3672 0.4629
H15 H 0.2601 0.5073 0.3799
H16 H 0.1134 0.5059 0.4351
C16 C 0.4644(2) 0.6343(2) 0.5996(2)
H17 H 0.5061 0.6272 0.6626
C17 C 0.4970(2) 0.7401(2) 0.4728(2)
C18 C 0.5871(2) 0.8428(2) 0.4495(2)
C19 C 0.6405(3) 0.9248(3) 0.3245(3)
H18 H 0.6237 0.9115 0.2580
C20 C 0.7183(3) 1.0264(3) 0.2976(3)
H19 H 0.7543 1.0807 0.2132
C21 C 0.7427(3) 1.0474(3) 0.3945(3)
H20 H 0.7943 1.1167 0.3762
C22 C 0.6913(3) 0.9666(3) 0.5183(3)
H21 H 0.7081 0.9808 0.5842
C23 C 0.6145(2) 0.8641(2) 0.5462(2)
H22 H 0.5808 0.8088 0.6310
C24 C 0.4296(2) 0.3656(2) 0.8351(2)
C25 C 0.3957(2) 0.2328(3) 0.9438(2)
C26 C 0.4351(3) 0.1707(4) 1.0561(3)
H23 H 0.4863 0.2050 1.0865
C27 C 0.3806(4) 0.0378(4) 1.1207(3)
H24 H 0.3890 -0.0299 1.2022
C28 C 0.3170(4) 0.0313(3) 1.0423(3)
H25 H 0.2737 -0.0438 1.0599
N1 N 0.34235(16) 0.43677(18) 0.75407(16)
N2 N 0.31003(17) 0.54895(17) 0.54557(16)
H26 H 0.3251 0.6141 0.4694
O1 O 0.24654(18) 0.4983(2) 0.96119(17)
O2 O 0.0320(2) 0.2214(2) 0.85532(17)
O3 O 0.04023(16) 0.25671(16) 0.65495(15)
O4 O 0.45323(16) 0.75117(16) 0.38066(14)
O5 O 0.53279(19) 0.4064(2) 0.81902(18)
O6 O 0.32318(19) 0.14857(19) 0.93274(18)
loop_
_geom_bond_atom_site_label_1
_geom_bond_atom_site_label_2
_geom_bond_site_symmetry_1
_geom_bond_site_symmetry_2
C1 H1 1_555 1_555
C2 C1 1_555 1_555
C3 C2 1_555 1_555
C4 C16 1_555 1_555
C5 C1 1_555 1_555
C6 C5 1_555 1_555
H2 C6 1_555 1_555
C7 C6 1_555 1_555
H3 C7 1_555 1_555
C8 C7 1_555 1_555
H4 C8 1_555 1_555
C9 C8 1_555 1_555
H5 C9 1_555 1_555
C10 C5 1_555 1_555
C11 H6 1_555 1_555
H7 C11 1_555 1_555
H8 C11 1_555 1_555
C12 C2 1_555 1_555
C13 H9 1_555 1_555
H10 C13 1_555 1_555
C14 C13 1_555 1_555
H11 C14 1_555 1_555
H12 C14 1_555 1_555
H13 C14 1_555 1_555
C15 C3 1_555 1_555
H14 C15 1_555 1_555
H15 C15 1_555 1_555
H16 C15 1_555 1_555
C16 H17 1_555 1_555
C17 C16 1_555 1_555
C18 C17 1_555 1_555
C19 C18 1_555 1_555
H18 C19 1_555 1_555
C20 C19 1_555 1_555
H19 C20 1_555 1_555
C21 C20 1_555 1_555
H20 C21 1_555 1_555
C22 C21 1_555 1_555
H21 C22 1_555 1_555
C23 C18 1_555 1_555
H22 C23 1_555 1_555
C24 C25 1_555 1_555
C25 C26 1_555 1_555
C26 H23 1_555 1_555
C27 C26 1_555 1_555
H24 C27 1_555 1_555
C28 C27 1_555 1_555
H25 C28 1_555 1_555
N1 C1 1_555 1_555
N2 C3 1_555 1_555
H26 N2 1_555 1_555
O1 C10 1_555 1_555
O2 C12 1_555 1_555
O3 C12 1_555 1_555
O4 C17 1_555 1_555
O5 C24 1_555 1_555
O6 C25 1_555 1_555
C4 N1 1_555 1_555
C4 N2 1_555 1_555
C9 C10 1_555 1_555
C11 O1 1_555 1_555
C13 O3 1_555 1_555
C22 C23 1_555 1_555
C24 N1 1_555 1_555
C28 O6 1_555 1_555

#END
