
#######################################################################
#
#                 Cambridge Crystallographic Data Centre
#                                CCDC 
#
#######################################################################
#
# If this CIF has been generated from an entry in the Cambridge 
# Structural Database, then it will include bibliographic, chemical, 
# crystal, experimental, refinement or atomic coordinate data resulting 
# from the CCDC's data processing and validation procedures.
#
#######################################################################

data_FEKDOR
_chemical_formula_moiety         'C20 H30 O2'
_chemical_name_systematic        
3b,6,6,9a-tetramethyl-3b,4,5,5a,6,7,8,9,9a,9b,10,11-dodecahydrophenanthro[1,2-b]furan-2(3aH)-one
_symmetry_cell_setting           orthorhombic
_symmetry_space_group_name_H-M   'P 21 21 21'
_symmetry_Int_Tables_number      19
_space_group_name_Hall           'P 2ac 2ab'
loop_
_symmetry_equiv_pos_site_id
_symmetry_equiv_pos_as_xyz
1 x,y,z
2 1/2-x,-y,1/2+z
3 1/2+x,1/2-y,-z
4 -x,1/2+y,1/2-z
_cell_length_a                   6.4098(5)
_cell_length_b                   11.2006(7)
_cell_length_c                   23.5781(12)
_cell_angle_alpha                90
_cell_angle_beta                 90
_cell_angle_gamma                90
_cell_volume                     1692.76
_exptl_crystal_colour            'light colorless'
_exptl_crystal_description       block
_cell_formula_units_Z            4
loop_
_atom_site_label
_atom_site_type_symbol
_atom_site_fract_x
_atom_site_fract_y
_atom_site_fract_z
C1 C -0.7440(6) -0.9587(3) -0.12828(12)
H1 H -0.5922 -0.9603 -0.1332
C2 C -0.6407(6) -1.0511(3) -0.03906(13)
H2 H -0.4950 -1.0343 -0.0489
C3 C -0.7777(6) -0.9511(3) -0.06274(13)
O1 O -0.6564(5) -1.0643(2) 0.02232(9)
C4 C -0.8181(6) -0.8478(3) -0.16334(13)
C5 C -0.7763(8) -0.7243(3) -0.07394(13)
H3 H -0.7178 -0.6515 -0.0583
H4 H -0.9270 -0.7196 -0.0710
C6 C -0.7131(7) -0.7364(3) -0.13646(13)
H5 H -0.5645 -0.7569 -0.1351
C7 C -0.6971(7) -0.8311(3) -0.04060(14)
H6 H -0.7388 -0.8223 -0.0013
H7 H -0.5459 -0.8316 -0.0418
C8 C -0.6966(7) -1.1717(3) -0.06139(15)
C9 C -0.8196(7) -1.0800(3) -0.15142(14)
H8 H -0.9684 -1.0873 -0.1447
H9 H -0.7970 -1.0823 -0.1921
C10 C -0.7333(8) -0.8603(3) -0.22418(13)
H10 H -0.5861 -0.8803 -0.2225
H11 H -0.8049 -0.9256 -0.2429
C11 C -0.7204(8) -0.6174(3) -0.17055(15)
C12 C -0.7082(8) -1.1864(3) -0.12414(15)
H12 H -0.7828 -1.2594 -0.1331
H13 H -0.5683 -1.1930 -0.1395
C13 C -0.7604(9) -0.7473(4) -0.25921(15)
H14 H -0.9078 -0.7291 -0.2628
H15 H -0.7043 -0.7599 -0.2969
C14 C -0.6486(8) -0.6427(4) -0.23126(16)
H16 H -0.6710 -0.5717 -0.2540
H17 H -0.5000 -0.6589 -0.2309
C15 C -0.7090(7) -1.1799(4) 0.03492(17)
C16 C -1.0046(6) -0.9706(4) -0.04326(14)
H18 H -1.0868 -0.9020 -0.0531
H19 H -1.0076 -0.9818 -0.0029
H20 H -1.0606 -1.0400 -0.0616
O2 O -0.7258(6) -1.2138(3) 0.08314(11)
C17 C -0.7351(7) -1.2445(4) -0.01851(15)
H21 H -0.7729 -1.3244 -0.0218
C18 C -1.0597(7) -0.8411(4) -0.16625(16)
H22 H -1.1158 -0.9203 -0.1695
H23 H -1.1005 -0.7948 -0.1987
H24 H -1.1121 -0.8042 -0.1324
C19 C -0.5633(9) -0.5290(4) -0.14429(18)
H25 H -0.6156 -0.5012 -0.1085
H26 H -0.5445 -0.4624 -0.1694
H27 H -0.4319 -0.5684 -0.1386
C20 C -0.9322(8) -0.5570(4) -0.17047(17)
H28 H -1.0290 -0.6040 -0.1921
H29 H -0.9202 -0.4791 -0.1871
H30 H -0.9815 -0.5498 -0.1322
loop_
_geom_bond_atom_site_label_1
_geom_bond_atom_site_label_2
_geom_bond_site_symmetry_1
_geom_bond_site_symmetry_2
C1 H1 1_555 1_555
C2 H2 1_555 1_555
C3 C1 1_555 1_555
O1 C2 1_555 1_555
C4 C1 1_555 1_555
C5 H3 1_555 1_555
H4 C5 1_555 1_555
C6 C4 1_555 1_555
H5 C6 1_555 1_555
C7 C3 1_555 1_555
H6 C7 1_555 1_555
H7 C7 1_555 1_555
C8 C2 1_555 1_555
C9 C1 1_555 1_555
H8 C9 1_555 1_555
H9 C9 1_555 1_555
C10 C4 1_555 1_555
H10 C10 1_555 1_555
H11 C10 1_555 1_555
C11 C6 1_555 1_555
C12 C8 1_555 1_555
H12 C12 1_555 1_555
H13 C12 1_555 1_555
C13 C10 1_555 1_555
H14 C13 1_555 1_555
H15 C13 1_555 1_555
C14 C11 1_555 1_555
H16 C14 1_555 1_555
H17 C14 1_555 1_555
C15 O1 1_555 1_555
C16 C3 1_555 1_555
H18 C16 1_555 1_555
H19 C16 1_555 1_555
H20 C16 1_555 1_555
O2 C15 1_555 1_555
C17 C8 1_555 1_555
H21 C17 1_555 1_555
C18 C4 1_555 1_555
H22 C18 1_555 1_555
H23 C18 1_555 1_555
H24 C18 1_555 1_555
C19 C11 1_555 1_555
H25 C19 1_555 1_555
H26 C19 1_555 1_555
H27 C19 1_555 1_555
C20 C11 1_555 1_555
H28 C20 1_555 1_555
H29 C20 1_555 1_555
H30 C20 1_555 1_555
C2 C3 1_555 1_555
C5 C6 1_555 1_555
C5 C7 1_555 1_555
C9 C12 1_555 1_555
C13 C14 1_555 1_555
C15 C17 1_555 1_555

#END
