
#######################################################################
#
#                 Cambridge Crystallographic Data Centre
#                                CCDC 
#
#######################################################################
#
# If this CIF has been generated from an entry in the Cambridge 
# Structural Database, then it will include bibliographic, chemical, 
# crystal, experimental, refinement or atomic coordinate data resulting 
# from the CCDC's data processing and validation procedures.
#
#######################################################################

data_FEKMOZ
_chemical_formula_moiety         'C19 H17 N1 O1'
_chemical_name_systematic        
N-Hydroxy-1-(2-phenyl-1-(phenylethynyl)cyclopropyl)ethanimine
_symmetry_cell_setting           triclinic
_symmetry_space_group_name_H-M   'P -1'
_symmetry_Int_Tables_number      2
_space_group_name_Hall           '-P 1'
loop_
_symmetry_equiv_pos_site_id
_symmetry_equiv_pos_as_xyz
1 x,y,z
2 -x,-y,-z
_cell_length_a                   8.7408(6)
_cell_length_b                   9.4519(7)
_cell_length_c                   9.7111(7)
_cell_angle_alpha                98.767(3)
_cell_angle_beta                 90.605(3)
_cell_angle_gamma                107.327(2)
_cell_volume                     755.615
_exptl_crystal_colour            colorless
_exptl_crystal_description       block
_cell_formula_units_Z            2
loop_
_atom_site_label
_atom_site_type_symbol
_atom_site_fract_x
_atom_site_fract_y
_atom_site_fract_z
O1 O 0.4493(2) 0.8416(2) 0.0651(2)
N1 N 0.5643(2) 0.9742(2) 0.1333(2)
C1 C 0.9978(3) 1.5757(3) 0.1782(3)
H1 H 1.0751 1.5483 0.2252
C2 C 1.0407(4) 1.7064(3) 0.1229(3)
H2 H 1.1468 1.7674 0.1330
C3 C 0.9284(4) 1.7475(3) 0.0530(3)
H3 H 0.9579 1.8358 0.0152
C4 C 0.7722(4) 1.6578(3) 0.0389(3)
H4 H 0.6955 1.6856 -0.0084
C5 C 0.7278(3) 1.5275(3) 0.0939(3)
H5 H 0.6213 1.4674 0.0837
C6 C 0.8402(3) 1.4846(3) 0.1643(2)
C7 C 0.7972(3) 1.3459(3) 0.2193(3)
C8 C 0.7684(3) 1.2315(3) 0.2654(3)
C9 C 0.7430(3) 1.0960(3) 0.3247(2)
C10 C 0.7723(3) 1.1155(3) 0.4811(3)
H6 H 0.7996 1.2167 0.5330
H7 H 0.7060 1.0386 0.5292
C11 C 0.8959(3) 1.0758(3) 0.3924(3)
H8 H 0.8938 0.9708 0.3861
C12 C 1.0576(3) 1.1807(3) 0.3798(3)
C13 C 1.1101(3) 1.3277(3) 0.4477(3)
H9 H 1.0417 1.3649 0.5052
C14 C 1.2617(4) 1.4201(4) 0.4320(3)
H10 H 1.2935 1.5191 0.4776
C15 C 1.3655(4) 1.3682(4) 0.3504(3)
H11 H 1.4680 1.4308 0.3405
C16 C 1.3166(4) 1.2217(4) 0.2829(3)
H12 H 1.3866 1.1848 0.2272
C17 C 1.1653(3) 1.1299(3) 0.2971(3)
H13 H 1.1340 1.0313 0.2504
C18 C 0.6211(3) 0.9591(3) 0.2499(3)
C19 C 0.5709(3) 0.8163(3) 0.3104(3)
H14 H 0.4916 0.7408 0.2480
H15 H 0.5265 0.8343 0.3989
H16 H 0.6627 0.7825 0.3228
H17 H 0.425(4) 0.883(3) -0.013(4)
loop_
_geom_bond_atom_site_label_1
_geom_bond_atom_site_label_2
_geom_bond_site_symmetry_1
_geom_bond_site_symmetry_2
O1 N1 1_555 1_555
N1 C18 1_555 1_555
C1 H1 1_555 1_555
C2 C1 1_555 1_555
H2 C2 1_555 1_555
C3 C2 1_555 1_555
H3 C3 1_555 1_555
C4 C3 1_555 1_555
H4 C4 1_555 1_555
C5 C4 1_555 1_555
H5 C5 1_555 1_555
C6 C1 1_555 1_555
C7 C6 1_555 1_555
C8 C7 1_555 1_555
C9 C8 1_555 1_555
C10 C9 1_555 1_555
H6 C10 1_555 1_555
H7 C10 1_555 1_555
C11 C9 1_555 1_555
H8 C11 1_555 1_555
C12 C11 1_555 1_555
C13 C12 1_555 1_555
H9 C13 1_555 1_555
C14 C13 1_555 1_555
H10 C14 1_555 1_555
C15 C14 1_555 1_555
H11 C15 1_555 1_555
C16 C15 1_555 1_555
H12 C16 1_555 1_555
C17 C12 1_555 1_555
H13 C17 1_555 1_555
C18 C9 1_555 1_555
C19 C18 1_555 1_555
H14 C19 1_555 1_555
H15 C19 1_555 1_555
H16 C19 1_555 1_555
H17 O1 1_555 1_555
C5 C6 1_555 1_555
C10 C11 1_555 1_555
C16 C17 1_555 1_555

#END
