
#######################################################################
#
#                 Cambridge Crystallographic Data Centre
#                                CCDC 
#
#######################################################################
#
# If this CIF has been generated from an entry in the Cambridge 
# Structural Database, then it will include bibliographic, chemical, 
# crystal, experimental, refinement or atomic coordinate data resulting 
# from the CCDC's data processing and validation procedures.
#
#######################################################################

data_FEKMIT
_chemical_formula_moiety         'C33 H29 Br1 N2 O2'
_chemical_name_systematic        
8-(4-Bromophenyl)-7-methoxy-6-methyl-1,2,4-triphenyl-1,4,5,7-tetrahydro-2H-pyrrolo[3,4-d][1,2]oxazepine
_symmetry_cell_setting           triclinic
_symmetry_space_group_name_H-M   'P -1'
_symmetry_Int_Tables_number      2
_space_group_name_Hall           '-P 1'
loop_
_symmetry_equiv_pos_site_id
_symmetry_equiv_pos_as_xyz
1 x,y,z
2 -x,-y,-z
_cell_length_a                   11.6214(10)
_cell_length_b                   15.8217(13)
_cell_length_c                   17.0555(17)
_cell_angle_alpha                94.468(4)
_cell_angle_beta                 109.797(3)
_cell_angle_gamma                108.237(3)
_cell_volume                     2742.47
_exptl_crystal_colour            colorless
_exptl_crystal_description       block
_cell_formula_units_Z            4
loop_
_atom_site_label
_atom_site_type_symbol
_atom_site_fract_x
_atom_site_fract_y
_atom_site_fract_z
Br1 Br 1.41084(8) 0.86393(6) -0.05118(6)
O1 O 1.1198(4) 1.0496(3) 0.1649(3)
O2 O 0.6796(4) 0.6607(2) 0.1035(2)
N1 N 1.0202(5) 0.9669(4) 0.1488(3)
N2 N 0.8052(5) 0.6682(3) 0.1032(3)
C1 C 0.7183(6) 0.7082(4) -0.0399(4)
C2 C 0.6791(6) 0.7758(5) -0.0714(5)
H1 H 0.7212 0.8351 -0.0398
C3 C 0.5779(7) 0.7573(6) -0.1497(5)
H2 H 0.5514 0.8038 -0.1699
C4 C 0.5166(7) 0.6708(7) -0.1976(5)
H3 H 0.4483 0.6581 -0.2501
C5 C 0.5567(7) 0.6039(6) -0.1673(5)
H4 H 0.5165 0.5452 -0.2002
C6 C 0.6566(7) 0.6212(5) -0.0884(4)
H5 H 0.6817 0.5742 -0.0681
C7 C 0.8118(7) 0.5796(4) 0.0941(4)
C8 C 0.9271(7) 0.5725(5) 0.0918(4)
H6 H 0.9929 0.6233 0.0901
C9 C 0.9435(9) 0.4891(6) 0.0920(5)
H7 H 1.0212 0.4849 0.0914
C10 C 0.8467(10) 0.4128(6) 0.0932(5)
H8 H 0.8585 0.3573 0.0939
C11 C 0.7330(9) 0.4205(5) 0.0934(5)
H9 H 0.6664 0.3691 0.0932
C12 C 0.7141(7) 0.5036(5) 0.0938(4)
H10 H 0.6358 0.5072 0.0939
C13 C 0.5724(7) 0.6868(4) 0.1935(4)
C14 C 0.4510(7) 0.6487(5) 0.1278(5)
H11 H 0.4452 0.6447 0.0718
C15 C 0.3389(8) 0.6166(5) 0.1438(6)
H12 H 0.2580 0.5917 0.0985
C16 C 0.3441(9) 0.6207(5) 0.2263(7)
H13 H 0.2684 0.5965 0.2371
C17 C 0.4632(11) 0.6612(6) 0.2912(6)
H14 H 0.4685 0.6676 0.3471
C18 C 0.5780(8) 0.6933(5) 0.2751(5)
H15 H 0.6588 0.7194 0.3204
C19 C 1.1041(6) 0.8857(4) 0.0627(4)
C20 C 1.1467(6) 0.9475(5) 0.0149(4)
H16 H 1.1133 0.9937 0.0053
C21 C 1.2367(7) 0.9411(5) -0.0178(5)
H17 H 1.2627 0.9821 -0.0503
C22 C 1.2890(6) 0.8741(5) -0.0030(5)
C23 C 1.2527(7) 0.8133(5) 0.0439(5)
H18 H 1.2879 0.7680 0.0536
C24 C 1.1617(7) 0.8207(4) 0.0770(4)
H19 H 1.1382 0.7801 0.1104
C25 C 0.6956(6) 0.7242(4) 0.1762(4)
H20 H 0.7714 0.7266 0.2257
C26 C 0.7152(6) 0.8193(4) 0.1571(4)
H21 H 0.6413 0.8155 0.1066
H22 H 0.7150 0.8578 0.2041
C27 C 0.8393(6) 0.8636(4) 0.1433(4)
C28 C 0.9210(7) 0.9526(4) 0.1776(4)
C29 C 1.0086(6) 0.8905(4) 0.0981(4)
C30 C 0.8938(6) 0.8248(4) 0.0940(4)
C31 C 0.8351(5) 0.7280(4) 0.0446(4)
H23 H 0.9042 0.7157 0.0306
C32 C 0.9190(7) 1.0281(5) 0.2362(5)
H24 H 0.9940 1.0819 0.2469
H25 H 0.9215 1.0101 0.2890
H26 H 0.8403 1.0404 0.2100
C33 C 1.2315(7) 1.0541(5) 0.2346(5)
H27 H 1.3005 1.1116 0.2455
H28 H 1.2599 1.0059 0.2217
H29 H 1.2101 1.0481 0.2840
Br2 Br 1.18198(11) 0.35029(8) 0.22424(8)
O3 O 0.8559(4) 0.5463(3) 0.3908(3)
O4 O 0.5066(4) 0.1680(3) 0.4403(3)
N3 N 0.7819(5) 0.4632(4) 0.4028(3)
N4 N 0.5707(5) 0.1667(3) 0.3823(3)
C34 C 0.7775(6) 0.2129(5) 0.5159(4)
C35 C 0.8212(6) 0.2784(5) 0.5876(5)
H30 H 0.8111 0.3340 0.5827
C36 C 0.8802(7) 0.2622(6) 0.6674(5)
H31 H 0.9090 0.3067 0.7158
C37 C 0.8962(7) 0.1809(7) 0.6750(6)
H32 H 0.9360 0.1702 0.7286
C38 C 0.8546(7) 0.1165(6) 0.6053(6)
H33 H 0.8664 0.0614 0.6110
C39 C 0.7945(6) 0.1307(5) 0.5253(5)
H34 H 0.7654 0.0852 0.4776
C40 C 0.5424(6) 0.0736(4) 0.3474(4)
C41 C 0.5820(6) 0.0595(5) 0.2795(5)
H35 H 0.6305 0.1089 0.2635
C42 C 0.5485(7) -0.0279(6) 0.2367(5)
H36 H 0.5727 -0.0374 0.1911
C43 C 0.4791(8) -0.1011(5) 0.2619(6)
H37 H 0.4589 -0.1601 0.2345
C44 C 0.4405(7) -0.0867(5) 0.3266(6)
H38 H 0.3920 -0.1364 0.3422
C45 C 0.4711(6) 0.0000(5) 0.3702(5)
H39 H 0.4436 0.0082 0.4145
C46 C 0.3270(6) 0.1993(4) 0.4530(4)
C47 C 0.3214(7) 0.1418(5) 0.5084(5)
H40 H 0.3890 0.1199 0.5292
C48 C 0.2167(9) 0.1155(5) 0.5344(6)
H41 H 0.2149 0.0753 0.5714
C49 C 0.1170(9) 0.1470(6) 0.5070(6)
H42 H 0.0471 0.1290 0.5246
C50 C 0.1221(8) 0.2057(6) 0.4533(6)
H43 H 0.0562 0.2295 0.4348
C51 C 0.2250(7) 0.2303(5) 0.4258(5)
H44 H 0.2250 0.2691 0.3875
C52 C 0.9001(6) 0.3754(4) 0.3571(4)
C53 C 1.0261(7) 0.4388(5) 0.3832(4)
H45 H 1.0551 0.4879 0.4276
C54 C 1.1084(7) 0.4302(6) 0.3446(6)
H46 H 1.1928 0.4733 0.3634
C55 C 1.0683(10) 0.3596(7) 0.2793(6)
C56 C 0.9443(9) 0.2939(5) 0.2507(5)
H47 H 0.9178 0.2445 0.2069
C57 C 0.8598(7) 0.3040(5) 0.2896(4)
H48 H 0.7745 0.2618 0.2697
C58 C 0.4404(6) 0.2323(4) 0.4253(4)
H49 H 0.4067 0.2321 0.3642
C59 C 0.5360(6) 0.3271(4) 0.4737(4)
H50 H 0.4870 0.3673 0.4704
H51 H 0.5758 0.3251 0.5331
C60 C 0.6430(6) 0.3670(4) 0.4422(4)
C61 C 0.6829(7) 0.4540(4) 0.4298(4)
C62 C 0.8077(6) 0.3838(4) 0.3947(4)
C63 C 0.7207(6) 0.3233(4) 0.4199(4)
C64 C 0.7123(5) 0.2270(4) 0.4257(4)
H52 H 0.7584 0.2107 0.3918
C65 C 0.6347(7) 0.5305(4) 0.4397(5)
H53 H 0.6864 0.5831 0.4259
H54 H 0.6425 0.5448 0.4974
H55 H 0.5445 0.5124 0.4020
C66 C 0.8075(7) 0.5511(5) 0.3043(5)
H56 H 0.8586 0.6082 0.2965
H57 H 0.7176 0.5462 0.2867
H58 H 0.8133 0.5022 0.2707
loop_
_geom_bond_atom_site_label_1
_geom_bond_atom_site_label_2
_geom_bond_site_symmetry_1
_geom_bond_site_symmetry_2
Br1 C22 1_555 1_555
O1 N1 1_555 1_555
O2 N2 1_555 1_555
N1 C28 1_555 1_555
N2 C7 1_555 1_555
C1 C2 1_555 1_555
C2 H1 1_555 1_555
C3 C2 1_555 1_555
H2 C3 1_555 1_555
C4 C3 1_555 1_555
H3 C4 1_555 1_555
C5 C4 1_555 1_555
H4 C5 1_555 1_555
C6 C1 1_555 1_555
H5 C6 1_555 1_555
C7 C8 1_555 1_555
C8 H6 1_555 1_555
C9 C8 1_555 1_555
H7 C9 1_555 1_555
C10 C9 1_555 1_555
H8 C10 1_555 1_555
C11 C10 1_555 1_555
H9 C11 1_555 1_555
C12 C7 1_555 1_555
H10 C12 1_555 1_555
C13 C14 1_555 1_555
C14 H11 1_555 1_555
C15 C14 1_555 1_555
H12 C15 1_555 1_555
C16 C15 1_555 1_555
H13 C16 1_555 1_555
C17 C16 1_555 1_555
H14 C17 1_555 1_555
C18 C13 1_555 1_555
H15 C18 1_555 1_555
C19 C20 1_555 1_555
C20 H16 1_555 1_555
C21 C20 1_555 1_555
H17 C21 1_555 1_555
C22 C21 1_555 1_555
C23 C22 1_555 1_555
H18 C23 1_555 1_555
C24 C19 1_555 1_555
H19 C24 1_555 1_555
C25 O2 1_555 1_555
H20 C25 1_555 1_555
C26 C25 1_555 1_555
H21 C26 1_555 1_555
H22 C26 1_555 1_555
C27 C26 1_555 1_555
C28 C27 1_555 1_555
C29 N1 1_555 1_555
C30 C27 1_555 1_555
C31 N2 1_555 1_555
H23 C31 1_555 1_555
C32 C28 1_555 1_555
H24 C32 1_555 1_555
H25 C32 1_555 1_555
H26 C32 1_555 1_555
C33 O1 1_555 1_555
H27 C33 1_555 1_555
H28 C33 1_555 1_555
H29 C33 1_555 1_555
Br2 C55 1_555 1_555
O3 N3 1_555 1_555
O4 N4 1_555 1_555
N3 C61 1_555 1_555
N4 C40 1_555 1_555
C34 C35 1_555 1_555
C35 H30 1_555 1_555
C36 C35 1_555 1_555
H31 C36 1_555 1_555
C37 C36 1_555 1_555
H32 C37 1_555 1_555
C38 C37 1_555 1_555
H33 C38 1_555 1_555
C39 C34 1_555 1_555
H34 C39 1_555 1_555
C40 C41 1_555 1_555
C41 H35 1_555 1_555
C42 C41 1_555 1_555
H36 C42 1_555 1_555
C43 C42 1_555 1_555
H37 C43 1_555 1_555
C44 C43 1_555 1_555
H38 C44 1_555 1_555
C45 C40 1_555 1_555
H39 C45 1_555 1_555
C46 C47 1_555 1_555
C47 H40 1_555 1_555
C48 C47 1_555 1_555
H41 C48 1_555 1_555
C49 C48 1_555 1_555
H42 C49 1_555 1_555
C50 C49 1_555 1_555
H43 C50 1_555 1_555
C51 C46 1_555 1_555
H44 C51 1_555 1_555
C52 C53 1_555 1_555
C53 H45 1_555 1_555
C54 C53 1_555 1_555
H46 C54 1_555 1_555
C55 C54 1_555 1_555
C56 C55 1_555 1_555
H47 C56 1_555 1_555
C57 C52 1_555 1_555
H48 C57 1_555 1_555
C58 O4 1_555 1_555
H49 C58 1_555 1_555
C59 C58 1_555 1_555
H50 C59 1_555 1_555
H51 C59 1_555 1_555
C60 C59 1_555 1_555
C61 C60 1_555 1_555
C62 N3 1_555 1_555
C63 C60 1_555 1_555
C64 N4 1_555 1_555
H52 C64 1_555 1_555
C65 C61 1_555 1_555
H53 C65 1_555 1_555
H54 C65 1_555 1_555
H55 C65 1_555 1_555
C66 O3 1_555 1_555
H56 C66 1_555 1_555
H57 C66 1_555 1_555
H58 C66 1_555 1_555
C1 C31 1_555 1_555
C5 C6 1_555 1_555
C11 C12 1_555 1_555
C13 C25 1_555 1_555
C17 C18 1_555 1_555
C19 C29 1_555 1_555
C23 C24 1_555 1_555
C29 C30 1_555 1_555
C30 C31 1_555 1_555
C34 C64 1_555 1_555
C38 C39 1_555 1_555
C44 C45 1_555 1_555
C46 C58 1_555 1_555
C50 C51 1_555 1_555
C52 C62 1_555 1_555
C56 C57 1_555 1_555
C62 C63 1_555 1_555
C63 C64 1_555 1_555

#END
