
#######################################################################
#
#                 Cambridge Crystallographic Data Centre
#                                CCDC 
#
#######################################################################
#
# If this CIF has been generated from an entry in the Cambridge 
# Structural Database, then it will include bibliographic, chemical, 
# crystal, experimental, refinement or atomic coordinate data resulting 
# from the CCDC's data processing and validation procedures.
#
#######################################################################

data_FEKQAP
_chemical_formula_moiety         'C15 H12 Cl1 N1 O4'
_chemical_name_systematic        
1-(4-Chlorophenyl)-3-(2-methyl-5-oxo-2,5-dihydrofuran-2-yl)pyrrolidine-2,5-dione
_symmetry_cell_setting           monoclinic
_symmetry_space_group_name_H-M   'P 21'
_symmetry_Int_Tables_number      4
_space_group_name_Hall           'P 2yb'
loop_
_symmetry_equiv_pos_site_id
_symmetry_equiv_pos_as_xyz
1 x,y,z
2 -x,1/2+y,-z
_cell_length_a                   7.6537(4)
_cell_length_b                   5.6415(3)
_cell_length_c                   15.7333(8)
_cell_angle_alpha                90
_cell_angle_beta                 94.487(3)
_cell_angle_gamma                90
_cell_volume                     677.256
_exptl_crystal_colour            colorless
_exptl_crystal_description       block
_cell_formula_units_Z            2
loop_
_atom_site_label
_atom_site_type_symbol
_atom_site_fract_x
_atom_site_fract_y
_atom_site_fract_z
H1 H 0.2169 0.2664 0.0887
H2 H 0.4099 0.3195 0.2089
H3 H 0.8505 0.5214 0.4020
H4 H 0.3438 0.9105 0.0033
H5 H 0.5385 0.9622 0.1234
H6 H 0.6905 0.8265 0.4334
H7 H 0.8072 0.9929 0.3806
H8 H 1.3735 0.4078 0.4109
H9 H 1.1386 0.3554 0.3020
H10 H 1.1594 0.8935 0.2467
H11 H 0.9640 0.9709 0.2525
H12 H 1.0071 0.7374 0.2044
C1 C 0.2632(2) 0.5842(3) 0.03610(10)
C2 C 0.2812(2) 0.4058(3) 0.09615(11)
C3 C 0.3963(2) 0.4375(3) 0.16764(10)
C4 C 0.4911(2) 0.6460(3) 0.17716(11)
C5 C 0.7471(2) 0.5295(3) 0.27719(10)
C6 C 0.8460(2) 0.6364(3) 0.35520(11)
C7 C 1.0360(2) 0.6988(3) 0.33423(10)
C8 C 1.2581(2) 0.7411(3) 0.44086(11)
C9 C 0.3576(2) 0.7929(3) 0.04467(11)
C10 C 0.4734(2) 0.8235(3) 0.11632(11)
C11 C 0.7367(2) 0.8498(4) 0.37837(10)
C12 C 0.5898(2) 0.8679(3) 0.30921(10)
C13 C 1.2827(2) 0.5145(4) 0.39792(10)
C14 C 1.1536(2) 0.4871(3) 0.33734(10)
C15 C 1.0422(2) 0.8379(4) 0.25188(10)
N1 N 0.60798(17) 0.6809(3) 0.25188(9)
O1 O 1.10977(14) 0.8458(2) 0.40430(7)
O2 O 1.34305(16) 0.8348(3) 0.49933(7)
O3 O 0.78109(15) 0.3492(2) 0.24023(8)
O4 O 0.47278(14) 1.0106(2) 0.30286(7)
Cl1 Cl 0.11971(6) 0.54230(10) -0.05390(3)
loop_
_geom_bond_atom_site_label_1
_geom_bond_atom_site_label_2
_geom_bond_site_symmetry_1
_geom_bond_site_symmetry_2
H1 C2 1_555 1_555
H2 C3 1_555 1_555
H3 C6 1_555 1_555
H4 C9 1_555 1_555
H5 C10 1_555 1_555
H6 C11 1_555 1_555
H7 C11 1_555 1_555
H8 C13 1_555 1_555
H9 C14 1_555 1_555
H10 C15 1_555 1_555
H11 C15 1_555 1_555
H12 C15 1_555 1_555
C1 C2 1_555 1_555
C2 C3 1_555 1_555
C3 C4 1_555 1_555
C4 C10 1_555 1_555
C5 C6 1_555 1_555
C6 C7 1_555 1_555
C7 C14 1_555 1_555
C8 C13 1_555 1_555
C9 C1 1_555 1_555
C10 C9 1_555 1_555
C11 C6 1_555 1_555
C12 C11 1_555 1_555
C13 C14 1_555 1_555
C15 C7 1_555 1_555
N1 C4 1_555 1_555
O1 C7 1_555 1_555
O2 C8 1_555 1_555
O3 C5 1_555 1_555
O4 C12 1_555 1_555
Cl1 C1 1_555 1_555
C5 N1 1_555 1_555
C8 O1 1_555 1_555
C12 N1 1_555 1_555

#END
