
#######################################################################
#
#                 Cambridge Crystallographic Data Centre
#                                CCDC 
#
#######################################################################
#
# If this CIF has been generated from an entry in the Cambridge 
# Structural Database, then it will include bibliographic, chemical, 
# crystal, experimental, refinement or atomic coordinate data resulting 
# from the CCDC's data processing and validation procedures.
#
#######################################################################

data_FEKRUK
_chemical_formula_moiety         'C25 H29 I1 N2 O5'
_chemical_name_systematic        
'Ethyl 3-(2-((4-iodophenyl)amino)-2-oxoethyl)-2-isopropyl-1-(4-methoxybenzyl)-4-oxoazetidine-2-carboxylate'
_symmetry_cell_setting           monoclinic
_symmetry_space_group_name_H-M   'P 21'
_symmetry_Int_Tables_number      4
_space_group_name_Hall           'P 2yb'
loop_
_symmetry_equiv_pos_site_id
_symmetry_equiv_pos_as_xyz
1 x,y,z
2 -x,1/2+y,-z
_cell_length_a                   11.8641(4)
_cell_length_b                   6.7776(2)
_cell_length_c                   15.5120(5)
_cell_angle_alpha                90
_cell_angle_beta                 90.788(2)
_cell_angle_gamma                90
_cell_volume                     1247.2
_exptl_crystal_colour            colorless
_exptl_crystal_description       prism
_cell_formula_units_Z            2
loop_
_atom_site_label
_atom_site_type_symbol
_atom_site_fract_x
_atom_site_fract_y
_atom_site_fract_z
C1 C 0.6622(3) 1.4881(12) -0.1006(2)
H1 H 0.5798 1.4840 -0.1050
H2 H 0.6936 1.5135 -0.1577
H3 H 0.6852 1.5937 -0.0609
O1 O 0.7035(3) 1.3019(5) -0.06866(18)
C2 C 0.6670(3) 1.2418(7) 0.0106(2)
C3 C 0.5974(3) 1.3529(7) 0.0629(2)
H4 H 0.5680 1.4755 0.0433
C4 C 0.5712(3) 1.2821(7) 0.1447(2)
H5 H 0.5238 1.3580 0.1807
C5 C 0.6130(3) 1.1030(6) 0.1746(2)
C6 C 0.6808(3) 0.9904(10) 0.1202(2)
H6 H 0.7086 0.8659 0.1391
C7 C 0.7077(3) 1.0603(6) 0.0387(2)
H7 H 0.7540 0.9836 0.0021
C8 C 0.5837(3) 1.0269(8) 0.2633(2)
H8 H 0.5021 0.9967 0.2644
H9 H 0.6251 0.9022 0.2739
N1 N 0.6106(2) 1.1658(4) 0.33319(18)
C9 C 0.5428(3) 1.2887(5) 0.3759(2)
O2 O 0.4444(2) 1.3355(4) 0.36246(16)
C10 C 0.6328(3) 1.3364(6) 0.4452(2)
H10 H 0.6591 1.4764 0.4422
C11 C 0.7095(3) 1.1923(6) 0.3922(2)
C12 C 0.8157(3) 1.2841(5) 0.3518(2)
H11 H 0.8660 1.3271 0.4005
C13 C 0.8822(3) 1.1325(6) 0.2991(2)
H12 H 0.8360 1.0877 0.2501
H13 H 0.9017 1.0194 0.3358
H14 H 0.9514 1.1937 0.2780
C14 C 0.7901(3) 1.4672(7) 0.2975(2)
H15 H 0.8609 1.5309 0.2814
H16 H 0.7447 1.5597 0.3311
H17 H 0.7481 1.4287 0.2453
C15 C 0.7348(2) 1.0022(9) 0.43985(17)
O3 O 0.6826(2) 0.8500(4) 0.43109(17)
O4 O 0.82141(17) 1.0288(5) 0.49457(14)
C16 C 0.8560(3) 0.8573(5) 0.5465(2)
H18 H 0.7882 0.7874 0.5670
H19 H 0.8996 0.9026 0.5976
C17 C 0.9266(3) 0.7179(6) 0.4950(3)
H20 H 0.8811 0.6629 0.4476
H21 H 0.9535 0.6106 0.5323
H22 H 0.9912 0.7890 0.4716
C18 C 0.6003(3) 1.2764(6) 0.5361(2)
H23 H 0.5777 1.1358 0.5361
H24 H 0.5346 1.3555 0.5542
C19 C 0.6967(3) 1.3060(6) 0.6010(2)
O5 O 0.7623(2) 1.4439(4) 0.59513(16)
N2 N 0.7012(2) 1.1680(5) 0.66480(18)
H25 H 0.6443 1.0846 0.6664
C20 C 0.7862(3) 1.1420(6) 0.7291(2)
C21 C 0.7897(3) 0.9606(6) 0.7708(2)
H26 H 0.7352 0.8626 0.7568
C22 C 0.8720(3) 0.9215(6) 0.8329(2)
H27 H 0.8744 0.7970 0.8610
C23 C 0.9502(3) 1.0648(5) 0.8534(2)
C24 C 0.9473(3) 1.2463(6) 0.8134(2)
H28 H 1.0012 1.3442 0.8289
C25 C 0.8660(3) 1.2872(6) 0.7503(2)
H29 H 0.8646 1.4117 0.7221
I1 I 1.078714(17) 1.00024(5) 0.944615(13)
loop_
_geom_bond_atom_site_label_1
_geom_bond_atom_site_label_2
_geom_bond_site_symmetry_1
_geom_bond_site_symmetry_2
C1 H1 1_555 1_555
H2 C1 1_555 1_555
H3 C1 1_555 1_555
O1 C1 1_555 1_555
C2 O1 1_555 1_555
C3 C2 1_555 1_555
H4 C3 1_555 1_555
C4 C3 1_555 1_555
H5 C4 1_555 1_555
C5 C4 1_555 1_555
C6 C5 1_555 1_555
H6 C6 1_555 1_555
C7 C2 1_555 1_555
H7 C7 1_555 1_555
C8 C5 1_555 1_555
H8 C8 1_555 1_555
H9 C8 1_555 1_555
N1 C8 1_555 1_555
C9 N1 1_555 1_555
O2 C9 1_555 1_555
C10 C9 1_555 1_555
H10 C10 1_555 1_555
C11 N1 1_555 1_555
C12 C11 1_555 1_555
H11 C12 1_555 1_555
C13 C12 1_555 1_555
H12 C13 1_555 1_555
H13 C13 1_555 1_555
H14 C13 1_555 1_555
C14 C12 1_555 1_555
H15 C14 1_555 1_555
H16 C14 1_555 1_555
H17 C14 1_555 1_555
C15 C11 1_555 1_555
O3 C15 1_555 1_555
O4 C15 1_555 1_555
C16 O4 1_555 1_555
H18 C16 1_555 1_555
H19 C16 1_555 1_555
C17 C16 1_555 1_555
H20 C17 1_555 1_555
H21 C17 1_555 1_555
H22 C17 1_555 1_555
C18 C10 1_555 1_555
H23 C18 1_555 1_555
H24 C18 1_555 1_555
C19 C18 1_555 1_555
O5 C19 1_555 1_555
N2 C19 1_555 1_555
H25 N2 1_555 1_555
C20 N2 1_555 1_555
C21 C20 1_555 1_555
H26 C21 1_555 1_555
C22 C21 1_555 1_555
H27 C22 1_555 1_555
C23 C22 1_555 1_555
C24 C23 1_555 1_555
H28 C24 1_555 1_555
C25 C20 1_555 1_555
H29 C25 1_555 1_555
I1 C23 1_555 1_555
C6 C7 1_555 1_555
C10 C11 1_555 1_555
C24 C25 1_555 1_555

#END
