
#######################################################################
#
#                 Cambridge Crystallographic Data Centre
#                                CCDC 
#
#######################################################################
#
# If this CIF has been generated from an entry in the Cambridge 
# Structural Database, then it will include bibliographic, chemical, 
# crystal, experimental, refinement or atomic coordinate data resulting 
# from the CCDC's data processing and validation procedures.
#
#######################################################################

data_FELCUW
_chemical_formula_moiety         'C75 H73 B3 N4'
_chemical_name_systematic        
3,3'-((1,3,7,9-Tetramethyl-5H-6\l^5^,5\l^5^-dipyrrolo[1,2-c:2',1'-f][1,3,2]diazaborinine-5,5-diyl)diethyne-2,1-diyl)bis(6,6-dimesityl-6H-5\l^5^,6\l^5^-pyrido[1,2-b][2,1]benzazaborole)
_symmetry_cell_setting           triclinic
_symmetry_space_group_name_H-M   'P -1'
_symmetry_Int_Tables_number      2
_space_group_name_Hall           '-P 1'
loop_
_symmetry_equiv_pos_site_id
_symmetry_equiv_pos_as_xyz
1 x,y,z
2 -x,-y,-z
_cell_length_a                   14.146(8)
_cell_length_b                   22.169(13)
_cell_length_c                   22.401(13)
_cell_angle_alpha                96.040(7)
_cell_angle_beta                 91.218(6)
_cell_angle_gamma                92.290(6)
_cell_volume                     6978.14
_cell_formula_units_Z            4
loop_
_atom_site_label
_atom_site_type_symbol
_atom_site_fract_x
_atom_site_fract_y
_atom_site_fract_z
N1 N 0.8519(4) 0.0543(3) 0.5703(3)
N2 N 0.9138(4) -0.0466(3) 0.5875(3)
N3 N 1.2781(4) 0.1371(2) 0.7275(3)
N4 N 0.6251(4) -0.0632(2) 0.8286(3)
C1 C 0.8100(6) 0.1436(4) 0.6378(4)
H1 H 0.8639 0.1352 0.6634
H2 H 0.7512 0.1290 0.6548
H3 H 0.8079 0.1874 0.6354
C2 C 0.8203(6) 0.1122(4) 0.5772(6)
C3 C 0.7960(7) 0.1284(5) 0.5211(6)
H4 H 0.7707 0.1662 0.5142
C4 C 0.8129(6) 0.0836(6) 0.4773(6)
C5 C 0.7998(8) 0.0775(5) 0.4111(4)
H5 H 0.8022 0.1178 0.3969
H6 H 0.7382 0.0571 0.3999
H7 H 0.8502 0.0534 0.3926
C6 C 0.8504(5) 0.0352(5) 0.5093(4)
C7 C 0.8781(5) -0.0212(5) 0.4893(4)
H8 H 0.8752 -0.0330 0.4472
C8 C 0.9108(6) -0.0633(4) 0.5271(4)
C9 C 0.9414(6) -0.1215(5) 0.5132(5)
C10 C 0.9495(7) -0.1538(5) 0.4530(5)
H9 H 0.9372 -0.1974 0.4548
H10 H 1.0134 -0.1468 0.4385
H11 H 0.9032 -0.1389 0.4256
C11 C 0.9586(6) -0.1438(4) 0.5669(6)
H12 H 0.9759 -0.1840 0.5718
C12 C 0.9463(6) -0.0969(5) 0.6144(5)
C13 C 0.9614(7) -0.0936(4) 0.6813(4)
H13 H 1.0051 -0.0593 0.6949
H14 H 0.9882 -0.1314 0.6917
H15 H 0.9007 -0.0881 0.7010
C14 C 0.9744(6) 0.0471(4) 0.6576(4)
C15 C 1.0392(7) 0.0725(4) 0.6879(4)
C16 C 1.1994(6) 0.1171(3) 0.6963(4)
H16 H 1.1992 0.1160 0.6538
C17 C 1.1202(5) 0.0986(3) 0.7228(4)
C18 C 1.1203(5) 0.1016(4) 0.7865(4)
H17 H 1.0659 0.0888 0.8067
C19 C 1.2006(6) 0.1236(3) 0.8182(3)
H18 H 1.2009 0.1274 0.8608
C20 C 1.2798(5) 0.1400(3) 0.7895(3)
C21 C 1.3734(5) 0.1626(3) 0.8119(4)
C22 C 1.4050(5) 0.1687(3) 0.8733(3)
H19 H 1.3634 0.1591 0.9040
C23 C 1.4953(6) 0.1886(3) 0.8868(4)
H20 H 1.5185 0.1918 0.9271
C24 C 1.5529(5) 0.2039(3) 0.8423(4)
H21 H 1.6152 0.2194 0.8531
C25 C 1.5252(5) 0.1979(3) 0.7821(3)
H22 H 1.5688 0.2069 0.7522
C26 C 1.4322(5) 0.1783(3) 0.7660(3)
C27 C 1.3392(4) 0.2162(3) 0.6606(3)
C28 C 1.3280(4) 0.2745(3) 0.6884(2)
C29 C 1.2923(5) 0.3188(2) 0.6557(3)
H23 H 1.2846 0.3587 0.6746
C30 C 1.2679(5) 0.3049(3) 0.5952(3)
C31 C 1.2791(5) 0.2466(4) 0.5675(2)
H24 H 1.2624 0.2371 0.5262
C32 C 1.3148(4) 0.2023(3) 0.6002(3)
C33 C 1.3413(6) 0.2921(4) 0.7546(4)
H25 H 1.3167 0.3325 0.7650
H26 H 1.4089 0.2929 0.7654
H27 H 1.3071 0.2625 0.7765
C34 C 1.2323(12) 0.3552(6) 0.5547(6)
H28 H 1.1663 0.3456 0.5419
H29 H 1.2717 0.3556 0.5193
H30 H 1.2373 0.3951 0.5781
C35 C 1.3204(6) 0.1395(4) 0.5636(3)
H31 H 1.2711 0.1351 0.5318
H32 H 1.3108 0.1075 0.5901
H33 H 1.3827 0.1362 0.5455
C36 C 1.4456(4) 0.1099(2) 0.6644(2)
C37 C 1.5150(4) 0.1319(2) 0.6283(2)
C38 C 1.5679(3) 0.0916(3) 0.5924(2)
H34 H 1.6153 0.1066 0.5677
C39 C 1.5515(4) 0.0294(3) 0.5926(2)
C40 C 1.4822(4) 0.0074(2) 0.6288(2)
H35 H 1.4710 -0.0351 0.6289
C41 C 1.4293(3) 0.0477(3) 0.6646(2)
C42 C 1.5433(6) 0.1991(4) 0.6254(4)
H36 H 1.6124 0.2040 0.6242
H37 H 1.5206 0.2233 0.6609
H38 H 1.5150 0.2128 0.5892
C43 C 1.6042(6) -0.0163(4) 0.5513(4)
H39 H 1.5996 -0.0057 0.5100
H40 H 1.5759 -0.0571 0.5531
H41 H 1.6709 -0.0154 0.5643
C44 C 1.3633(5) 0.0174(3) 0.7078(3)
H42 H 1.3832 -0.0239 0.7116
H43 H 1.2981 0.0158 0.6919
H44 H 1.3669 0.0411 0.7473
C45 C 0.8019(6) 0.0046(4) 0.6650(4)
C46 C 0.7423(6) -0.0022(3) 0.7004(3)
C47 C 0.6800(5) -0.0581(3) 0.7808(3)
H45 H 0.7215 -0.0897 0.7696
C48 C 0.6789(5) -0.0086(3) 0.7468(3)
C49 C 0.6111(6) 0.0366(4) 0.7631(3)
H46 H 0.6067 0.0712 0.7417
C50 C 0.5544(5) 0.0288(3) 0.8090(4)
H47 H 0.5085 0.0580 0.8193
C51 C 0.5602(5) -0.0209(3) 0.8424(3)
C52 C 0.5041(5) -0.0394(3) 0.8916(3)
C53 C 0.4308(5) -0.0055(4) 0.9190(4)
H48 H 0.4118 0.0308 0.9039
C54 C 0.3883(6) -0.0260(4) 0.9674(4)
H49 H 0.3372 -0.0050 0.9854
C55 C 0.4200(6) -0.0788(4) 0.9911(4)
H50 H 0.3920 -0.0925 1.0257
C56 C 0.4944(5) -0.1109(3) 0.9620(3)
H51 H 0.5157 -0.1462 0.9778
C57 C 0.5364(4) -0.0924(3) 0.9121(3)
C58 C 0.6146(4) -0.1807(2) 0.8233(2)
C59 C 0.5260(3) -0.2063(3) 0.8053(3)
C60 C 0.5185(4) -0.2585(3) 0.7650(3)
H52 H 0.4579 -0.2760 0.7527
C61 C 0.5997(5) -0.2851(2) 0.7427(2)
C62 C 0.6884(4) -0.2595(3) 0.7608(3)
H53 H 0.7438 -0.2777 0.7456
C63 C 0.6958(3) -0.2073(3) 0.8010(3)
C64 C 0.4292(6) -0.1814(4) 0.8226(5)
H54 H 0.4124 -0.1932 0.8621
H55 H 0.3810 -0.1981 0.7926
H56 H 0.4325 -0.1370 0.8241
C65 C 0.5918(9) -0.3440(5) 0.6974(5)
H57 H 0.5608 -0.3350 0.6600
H58 H 0.5544 -0.3756 0.7149
H59 H 0.6553 -0.3583 0.6889
C66 C 0.7989(5) -0.1838(4) 0.8167(4)
H60 H 0.8329 -0.1798 0.7796
H61 H 0.8305 -0.2127 0.8398
H62 H 0.7984 -0.1442 0.8406
C67 C 0.7149(3) -0.1150(3) 0.92264(19)
C68 C 0.7214(3) -0.1666(2) 0.9526(2)
C69 C 0.7952(4) -0.1705(2) 0.9939(2)
H63 H 0.7997 -0.2057 1.0144
C70 C 0.8623(3) -0.1230(3) 1.00511(19)
C71 C 0.8558(3) -0.0714(2) 0.9751(2)
H64 H 0.9017 -0.0389 0.9828
C72 C 0.7821(4) -0.0675(2) 0.9339(2)
C73 C 0.6554(6) -0.2222(3) 0.9445(4)
H65 H 0.6017 -0.2147 0.9182
H66 H 0.6321 -0.2311 0.9836
H67 H 0.6894 -0.2568 0.9262
C74 C 0.9518(6) -0.1284(5) 1.0460(4)
H68 H 0.9803 -0.0878 1.0581
H69 H 0.9977 -0.1533 1.0237
H70 H 0.9334 -0.1474 1.0818
C75 C 0.7814(5) -0.0077(3) 0.9062(3)
H71 H 0.8264 0.0216 0.9284
H72 H 0.7177 0.0081 0.9083
H73 H 0.7997 -0.0144 0.8642
B1 B 0.8856(7) 0.0160(4) 0.6201(4)
B2 B 1.3811(6) 0.1638(4) 0.7018(4)
B3 B 0.6217(6) -0.1184(4) 0.8730(3)
N5 N 0.4229(4) 0.5300(3) 0.9046(3)
N6 N 0.3607(4) 0.4380(3) 0.9490(3)
N7 N 0.0967(6) 0.5312(3) 0.6989(4)
N8 N 0.7625(5) 0.3330(3) 0.7891(4)
C76 C 0.3191(5) 0.3319(3) 0.9075(4)
H74 H 0.2714 0.3003 0.9146
H75 H 0.3811 0.3139 0.9030
H76 H 0.3020 0.3499 0.8709
C77 C 0.3236(5) 0.3808(3) 0.9606(4)
C78 C 0.2959(5) 0.3808(3) 1.0188(4)
H77 H 0.2679 0.3476 1.0366
C79 C 0.3166(5) 0.4388(4) 1.0467(4)
C80 C 0.2960(6) 0.4586(4) 1.1108(4)
H78 H 0.2893 0.4229 1.1330
H79 H 0.2370 0.4804 1.1127
H80 H 0.3480 0.4855 1.1287
C81 C 0.3561(5) 0.4731(4) 1.0037(4)
C82 C 0.3840(5) 0.5336(4) 1.0066(4)
H81 H 0.3816 0.5568 1.0446
C83 C 0.4146(5) 0.5631(4) 0.9602(4)
C84 C 0.4434(5) 0.6236(4) 0.9554(5)
C85 C 0.4448(6) 0.6744(3) 1.0054(4)
H82 H 0.4998 0.7019 1.0015
H83 H 0.4490 0.6577 1.0441
H84 H 0.3867 0.6968 1.0032
C86 C 0.4654(7) 0.6299(4) 0.8951(5)
H85 H 0.4832 0.6658 0.8778
C87 C 0.4547(6) 0.5695(4) 0.8666(5)
C88 C 0.4644(7) 0.5511(4) 0.8027(4)
H86 H 0.5085 0.5181 0.7973
H87 H 0.4887 0.5857 0.7829
H88 H 0.4025 0.5370 0.7849
C89 C 0.4730(5) 0.4228(3) 0.8591(3)
C90 C 0.5336(5) 0.3972(3) 0.8300(4)
C91 C 0.6890(6) 0.3530(3) 0.8214(4)
H89 H 0.6937 0.3563 0.8640
C92 C 0.6061(6) 0.3688(3) 0.7935(4)
C93 C 0.5983(7) 0.3611(4) 0.7309(4)
H90 H 0.5415 0.3705 0.7112
C94 C 0.6739(8) 0.3398(4) 0.6977(5)
H91 H 0.6709 0.3355 0.6551
C95 C 0.7513(9) 0.3254(4) 0.7275(6)
C96 C 0.8449(8) 0.3038(4) 0.7041(6)
C97 C 0.8640(9) 0.2980(5) 0.6421(6)
H92 H 0.8176 0.3060 0.6131
C98 C 0.9562(11) 0.2795(5) 0.6250(7)
H93 H 0.9748 0.2760 0.5843
C99 C 1.0200(9) 0.2662(4) 0.6737(7)
H94 H 1.0818 0.2545 0.6631
C100 C 0.9979(8) 0.2692(4) 0.7353(7)
H95 H 1.0416 0.2574 0.7642
C101 C 0.9077(8) 0.2908(4) 0.7525(6)
C102 C 0.9335(7) 0.3745(4) 0.8406(5)
C103 C 0.9241(7) 0.4344(4) 0.8286(4)
C104 C 0.9775(7) 0.4828(5) 0.8581(5)
H96 H 0.9651 0.5233 0.8508
C105 C 1.0493(8) 0.4718(5) 0.8986(5)
C106 C 1.0690(7) 0.4111(5) 0.9086(5)
H97 H 1.1177 0.4021 0.9357
C107 C 1.0126(8) 0.3658(4) 0.8762(6)
C108 C 1.0436(7) 0.3001(5) 0.8920(5)
H98 H 1.0339 0.2706 0.8565
H99 H 1.0052 0.2874 0.9248
H100 H 1.1106 0.3024 0.9045
C109 C 0.8541(6) 0.4537(4) 0.7821(4)
H101 H 0.8692 0.4346 0.7421
H102 H 0.8585 0.4980 0.7823
H103 H 0.7897 0.4409 0.7919
C110 C 1.1089(8) 0.5243(4) 0.9326(5)
H104 H 1.1394 0.5102 0.9680
H105 H 1.0678 0.5576 0.9454
H106 H 1.1573 0.5387 0.9062
C111 C 0.8315(4) 0.2706(3) 0.8710(3)
C112 C 0.8201(4) 0.2979(2) 0.9290(4)
C113 C 0.8040(4) 0.2623(4) 0.9755(3)
H107 H 0.7962 0.2809 1.0152
C114 C 0.7994(4) 0.1994(4) 0.9641(4)
C115 C 0.8108(4) 0.1720(2) 0.9061(4)
H108 H 0.8076 0.1290 0.8983
C116 C 0.8269(4) 0.2077(3) 0.8595(3)
C117 C 0.8229(6) 0.3643(4) 0.9509(4)
H109 H 0.7756 0.3718 0.9819
H110 H 0.8090 0.3877 0.9173
H111 H 0.8860 0.3766 0.9679
C118 C 0.7927(7) 0.1608(4) 1.0189(5)
H112 H 0.7367 0.1717 1.0420
H113 H 0.8496 0.1691 1.0447
H114 H 0.7878 0.1175 1.0042
C119 C 0.8297(7) 0.1739(4) 0.7954(4)
H115 H 0.7997 0.1333 0.7951
H116 H 0.8956 0.1705 0.7833
H117 H 0.7954 0.1967 0.7672
C120 C 0.3046(6) 0.4575(3) 0.8444(4)
C121 C 0.2409(6) 0.4585(3) 0.8095(4)
C122 C 0.1600(6) 0.5226(4) 0.7466(4)
H118 H 0.1945 0.5562 0.7676
C123 C 0.1708(5) 0.4655(4) 0.7620(4)
C124 C 0.1181(6) 0.4164(4) 0.7340(4)
H119 H 0.1254 0.3770 0.7462
C125 C 0.0545(7) 0.4247(5) 0.6882(4)
H120 H 0.0162 0.3921 0.6686
C126 C 0.0501(8) 0.4823(6) 0.6728(5)
C127 C -0.0109(5) 0.5026(4) 0.6247(3)
C128 C -0.0662(6) 0.4649(3) 0.5831(4)
H121 H -0.0702 0.4224 0.5857
C129 C -0.1157(6) 0.4894(4) 0.5378(4)
H122 H -0.1535 0.4636 0.5094
C130 C -0.1098(6) 0.5516(5) 0.5340(3)
H123 H -0.1436 0.5683 0.5030
C131 C -0.0545(6) 0.5893(3) 0.5756(4)
H124 H -0.0505 0.6319 0.5730
C132 C -0.0051(5) 0.5649(4) 0.6209(3)
C133 C 0.1532(8) 0.6251(6) 0.6304(4)
C134 C 0.2311(9) 0.5937(4) 0.6094(5)
C135 C 0.2910(6) 0.6185(6) 0.5691(5)
H125 H 0.3442 0.5971 0.5548
C136 C 0.2730(9) 0.6746(7) 0.5499(4)
C137 C 0.1951(11) 0.7060(4) 0.5709(6)
H126 H 0.1828 0.7443 0.5577
C138 C 0.1352(7) 0.6812(6) 0.6112(5)
C139 C 0.2584(8) 0.5328(5) 0.6164(5)
H127 H 0.2160 0.5149 0.6444
H128 H 0.3236 0.5340 0.6323
H129 H 0.2541 0.5083 0.5774
C140 C 0.3150(11) 0.7022(7) 0.4931(6)
H130 H 0.2906 0.7427 0.4906
H131 H 0.2961 0.6757 0.4566
H132 H 0.3842 0.7053 0.4969
C141 C 0.0529(12) 0.7182(8) 0.6422(8)
H133 H 0.0478 0.7567 0.6247
H134 H 0.0670 0.7265 0.6854
H135 H -0.0070 0.6944 0.6358
C142 C 0.0377(6) 0.6346(3) 0.7408(3)
C143 C 0.1091(4) 0.6613(3) 0.7796(4)
C144 C 0.0873(5) 0.6872(3) 0.8366(3)
H136 H 0.1361 0.7054 0.8631
C145 C -0.0061(6) 0.6864(3) 0.8548(3)
C146 C -0.0775(4) 0.6598(3) 0.8160(4)
H137 H -0.1413 0.6592 0.8285
C147 C -0.0556(5) 0.6339(3) 0.7590(3)
C148 C -0.1365(7) 0.6089(5) 0.7181(5)
H138 H -0.1965 0.6172 0.7378
H139 H -0.1314 0.5650 0.7090
H140 H -0.1345 0.6283 0.6807
C149 C 0.2178(10) 0.6757(6) 0.7643(6)
H141 H 0.2204 0.6999 0.7302
H142 H 0.2493 0.6375 0.7542
H143 H 0.2500 0.6985 0.7994
C150 C -0.0262(9) 0.7109(5) 0.9178(5)
H144 H -0.0891 0.6959 0.9285
H145 H -0.0243 0.7554 0.9211
H146 H 0.0216 0.6975 0.9453
B4 B 0.3920(6) 0.4616(4) 0.8892(4)
B5 B 0.8670(7) 0.3161(4) 0.8173(5)
B6 B 0.0687(11) 0.5979(6) 0.6710(7)
loop_
_geom_bond_atom_site_label_1
_geom_bond_atom_site_label_2
_geom_bond_site_symmetry_1
_geom_bond_site_symmetry_2
N1 C2 1_555 1_555
N2 C8 1_555 1_555
N3 C16 1_555 1_555
N4 C47 1_555 1_555
N5 C83 1_555 1_555
N6 C77 1_555 1_555
N7 C122 1_555 1_555
N8 C91 1_555 1_555
C1 H1 1_555 1_555
H2 C1 1_555 1_555
H3 C1 1_555 1_555
C2 C1 1_555 1_555
C3 C2 1_555 1_555
H4 C3 1_555 1_555
C4 C3 1_555 1_555
C5 C4 1_555 1_555
H5 C5 1_555 1_555
H6 C5 1_555 1_555
H7 C5 1_555 1_555
C6 N1 1_555 1_555
C7 C6 1_555 1_555
H8 C7 1_555 1_555
C8 C7 1_555 1_555
C9 C8 1_555 1_555
C10 C9 1_555 1_555
H9 C10 1_555 1_555
H10 C10 1_555 1_555
H11 C10 1_555 1_555
C11 C9 1_555 1_555
H12 C11 1_555 1_555
C12 N2 1_555 1_555
C13 C12 1_555 1_555
H13 C13 1_555 1_555
H14 C13 1_555 1_555
H15 C13 1_555 1_555
C14 C15 1_555 1_555
C15 C17 1_555 1_555
C16 H16 1_555 1_555
C17 C16 1_555 1_555
C18 C17 1_555 1_555
H17 C18 1_555 1_555
C19 C18 1_555 1_555
H18 C19 1_555 1_555
C20 N3 1_555 1_555
C21 C20 1_555 1_555
C22 C21 1_555 1_555
H19 C22 1_555 1_555
C23 C22 1_555 1_555
H20 C23 1_555 1_555
C24 C23 1_555 1_555
H21 C24 1_555 1_555
C25 C24 1_555 1_555
H22 C25 1_555 1_555
C26 C21 1_555 1_555
C27 C28 1_555 1_555
C28 C29 1_555 1_555
C29 H23 1_555 1_555
C30 C29 1_555 1_555
C31 C30 1_555 1_555
H24 C31 1_555 1_555
C32 C27 1_555 1_555
C33 C28 1_555 1_555
H25 C33 1_555 1_555
H26 C33 1_555 1_555
H27 C33 1_555 1_555
C34 C30 1_555 1_555
H28 C34 1_555 1_555
H29 C34 1_555 1_555
H30 C34 1_555 1_555
C35 C32 1_555 1_555
H31 C35 1_555 1_555
H32 C35 1_555 1_555
H33 C35 1_555 1_555
C36 C37 1_555 1_555
C37 C38 1_555 1_555
C38 H34 1_555 1_555
C39 C38 1_555 1_555
C40 C39 1_555 1_555
H35 C40 1_555 1_555
C41 C36 1_555 1_555
C42 C37 1_555 1_555
H36 C42 1_555 1_555
H37 C42 1_555 1_555
H38 C42 1_555 1_555
C43 C39 1_555 1_555
H39 C43 1_555 1_555
H40 C43 1_555 1_555
H41 C43 1_555 1_555
C44 C41 1_555 1_555
H42 C44 1_555 1_555
H43 C44 1_555 1_555
H44 C44 1_555 1_555
C45 C46 1_555 1_555
C46 C48 1_555 1_555
C47 H45 1_555 1_555
C48 C47 1_555 1_555
C49 C48 1_555 1_555
H46 C49 1_555 1_555
C50 C49 1_555 1_555
H47 C50 1_555 1_555
C51 N4 1_555 1_555
C52 C51 1_555 1_555
C53 C52 1_555 1_555
H48 C53 1_555 1_555
C54 C53 1_555 1_555
H49 C54 1_555 1_555
C55 C54 1_555 1_555
H50 C55 1_555 1_555
C56 C55 1_555 1_555
H51 C56 1_555 1_555
C57 C52 1_555 1_555
C58 C59 1_555 1_555
C59 C60 1_555 1_555
C60 H52 1_555 1_555
C61 C60 1_555 1_555
C62 C61 1_555 1_555
H53 C62 1_555 1_555
C63 C58 1_555 1_555
C64 C59 1_555 1_555
H54 C64 1_555 1_555
H55 C64 1_555 1_555
H56 C64 1_555 1_555
C65 C61 1_555 1_555
H57 C65 1_555 1_555
H58 C65 1_555 1_555
H59 C65 1_555 1_555
C66 C63 1_555 1_555
H60 C66 1_555 1_555
H61 C66 1_555 1_555
H62 C66 1_555 1_555
C67 C68 1_555 1_555
C68 C69 1_555 1_555
C69 H63 1_555 1_555
C70 C69 1_555 1_555
C71 C70 1_555 1_555
H64 C71 1_555 1_555
C72 C67 1_555 1_555
C73 C68 1_555 1_555
H65 C73 1_555 1_555
H66 C73 1_555 1_555
H67 C73 1_555 1_555
C74 C70 1_555 1_555
H68 C74 1_555 1_555
H69 C74 1_555 1_555
H70 C74 1_555 1_555
C75 C72 1_555 1_555
H71 C75 1_555 1_555
H72 C75 1_555 1_555
H73 C75 1_555 1_555
C76 H74 1_555 1_555
H75 C76 1_555 1_555
H76 C76 1_555 1_555
C77 C76 1_555 1_555
C78 C77 1_555 1_555
H77 C78 1_555 1_555
C79 C78 1_555 1_555
C80 C79 1_555 1_555
H78 C80 1_555 1_555
H79 C80 1_555 1_555
H80 C80 1_555 1_555
C81 N6 1_555 1_555
C82 C81 1_555 1_555
H81 C82 1_555 1_555
C83 C82 1_555 1_555
C84 C83 1_555 1_555
C85 C84 1_555 1_555
H82 C85 1_555 1_555
H83 C85 1_555 1_555
H84 C85 1_555 1_555
C86 C84 1_555 1_555
H85 C86 1_555 1_555
C87 N5 1_555 1_555
C88 C87 1_555 1_555
H86 C88 1_555 1_555
H87 C88 1_555 1_555
H88 C88 1_555 1_555
C89 C90 1_555 1_555
C90 C92 1_555 1_555
C91 H89 1_555 1_555
C92 C91 1_555 1_555
C93 C92 1_555 1_555
H90 C93 1_555 1_555
C94 C93 1_555 1_555
H91 C94 1_555 1_555
C95 N8 1_555 1_555
C96 C95 1_555 1_555
C97 C96 1_555 1_555
H92 C97 1_555 1_555
C98 C97 1_555 1_555
H93 C98 1_555 1_555
C99 C98 1_555 1_555
H94 C99 1_555 1_555
C100 C99 1_555 1_555
H95 C100 1_555 1_555
C101 C96 1_555 1_555
C102 C103 1_555 1_555
C103 C104 1_555 1_555
C104 H96 1_555 1_555
C105 C104 1_555 1_555
C106 C105 1_555 1_555
H97 C106 1_555 1_555
C107 C102 1_555 1_555
C108 C107 1_555 1_555
H98 C108 1_555 1_555
H99 C108 1_555 1_555
H100 C108 1_555 1_555
C109 C103 1_555 1_555
H101 C109 1_555 1_555
H102 C109 1_555 1_555
H103 C109 1_555 1_555
C110 C105 1_555 1_555
H104 C110 1_555 1_555
H105 C110 1_555 1_555
H106 C110 1_555 1_555
C111 C112 1_555 1_555
C112 C113 1_555 1_555
C113 H107 1_555 1_555
C114 C113 1_555 1_555
C115 C114 1_555 1_555
H108 C115 1_555 1_555
C116 C111 1_555 1_555
C117 C112 1_555 1_555
H109 C117 1_555 1_555
H110 C117 1_555 1_555
H111 C117 1_555 1_555
C118 C114 1_555 1_555
H112 C118 1_555 1_555
H113 C118 1_555 1_555
H114 C118 1_555 1_555
C119 C116 1_555 1_555
H115 C119 1_555 1_555
H116 C119 1_555 1_555
H117 C119 1_555 1_555
C120 C121 1_555 1_555
C121 C123 1_555 1_555
C122 H118 1_555 1_555
C123 C122 1_555 1_555
C124 C123 1_555 1_555
H119 C124 1_555 1_555
C125 C124 1_555 1_555
H120 C125 1_555 1_555
C126 N7 1_555 1_555
C127 C126 1_555 1_555
C128 C127 1_555 1_555
H121 C128 1_555 1_555
C129 C128 1_555 1_555
H122 C129 1_555 1_555
C130 C129 1_555 1_555
H123 C130 1_555 1_555
C131 C130 1_555 1_555
H124 C131 1_555 1_555
C132 C127 1_555 1_555
C133 C134 1_555 1_555
C134 C135 1_555 1_555
C135 H125 1_555 1_555
C136 C135 1_555 1_555
C137 C136 1_555 1_555
H126 C137 1_555 1_555
C138 C133 1_555 1_555
C139 C134 1_555 1_555
H127 C139 1_555 1_555
H128 C139 1_555 1_555
H129 C139 1_555 1_555
C140 C136 1_555 1_555
H130 C140 1_555 1_555
H131 C140 1_555 1_555
H132 C140 1_555 1_555
C141 C138 1_555 1_555
H133 C141 1_555 1_555
H134 C141 1_555 1_555
H135 C141 1_555 1_555
C142 C143 1_555 1_555
C143 C144 1_555 1_555
C144 H136 1_555 1_555
C145 C144 1_555 1_555
C146 C145 1_555 1_555
H137 C146 1_555 1_555
C147 C142 1_555 1_555
C148 C147 1_555 1_555
H138 C148 1_555 1_555
H139 C148 1_555 1_555
H140 C148 1_555 1_555
C149 C143 1_555 1_555
H141 C149 1_555 1_555
H142 C149 1_555 1_555
H143 C149 1_555 1_555
C150 C145 1_555 1_555
H144 C150 1_555 1_555
H145 C150 1_555 1_555
H146 C150 1_555 1_555
B1 N1 1_555 1_555
B2 N3 1_555 1_555
B3 N4 1_555 1_555
B4 N5 1_555 1_555
B5 N8 1_555 1_555
B6 N7 1_555 1_555
N2 B1 1_555 1_555
N6 B4 1_555 1_555
C4 C6 1_555 1_555
C11 C12 1_555 1_555
C14 B1 1_555 1_555
C19 C20 1_555 1_555
C25 C26 1_555 1_555
C26 B2 1_555 1_555
C27 B2 1_555 1_555
C31 C32 1_555 1_555
C36 B2 1_555 1_555
C40 C41 1_555 1_555
C45 B1 1_555 1_555
C50 C51 1_555 1_555
C56 C57 1_555 1_555
C57 B3 1_555 1_555
C58 B3 1_555 1_555
C62 C63 1_555 1_555
C67 B3 1_555 1_555
C71 C72 1_555 1_555
C79 C81 1_555 1_555
C86 C87 1_555 1_555
C89 B4 1_555 1_555
C94 C95 1_555 1_555
C100 C101 1_555 1_555
C101 B5 1_555 1_555
C102 B5 1_555 1_555
C106 C107 1_555 1_555
C111 B5 1_555 1_555
C115 C116 1_555 1_555
C120 B4 1_555 1_555
C125 C126 1_555 1_555
C131 C132 1_555 1_555
C132 B6 1_555 1_555
C133 B6 1_555 1_555
C137 C138 1_555 1_555
C142 B6 1_555 1_555
C146 C147 1_555 1_555

#END
