
#######################################################################
#
#                 Cambridge Crystallographic Data Centre
#                                CCDC 
#
#######################################################################
#
# If this CIF has been generated from an entry in the Cambridge 
# Structural Database, then it will include bibliographic, chemical, 
# crystal, experimental, refinement or atomic coordinate data resulting 
# from the CCDC's data processing and validation procedures.
#
#######################################################################

data_FELCOQ
_chemical_formula_moiety         'C53 H63 B3 N2'
_chemical_name_systematic        
5,5-bis(2-(dimesitylboryl)vinyl)-1,3,7,9-tetramethyl-5H-4\l^5^,5\l^5^-dipyrrolo[1,2-c:2',1'-f][1,3,2]diazaborinine
_symmetry_cell_setting           monoclinic
_symmetry_space_group_name_H-M   'P 21/c'
_symmetry_Int_Tables_number      14
_space_group_name_Hall           '-P 2ybc'
loop_
_symmetry_equiv_pos_site_id
_symmetry_equiv_pos_as_xyz
1 x,y,z
2 -x,1/2+y,1/2-z
3 -x,-y,-z
4 x,1/2-y,1/2+z
_cell_length_a                   15.244(5)
_cell_length_b                   8.677(3)
_cell_length_c                   36.884(11)
_cell_angle_alpha                90
_cell_angle_beta                 110.67(2)
_cell_angle_gamma                90
_cell_volume                     4564.68
_cell_formula_units_Z            4
loop_
_atom_site_label
_atom_site_type_symbol
_atom_site_fract_x
_atom_site_fract_y
_atom_site_fract_z
N1 N 0.3045(4) 0.5143(7) 0.12558(18)
C1 C 0.0541(6) 0.4182(10) 0.0610(2)
B1 B 0.2308(6) 0.3864(11) 0.1052(3)
N2 N 0.1362(4) 0.4750(8) 0.08349(17)
C2 C -0.0123(6) 0.5350(11) 0.0501(2)
H1 H -0.0750 0.5230 0.0347
B2 B 0.2015(6) 0.2525(12) 0.2067(3)
C3 C 0.0292(6) 0.6693(11) 0.0658(2)
B3 B 0.2863(6) 0.2261(11) 0.0110(3)
C4 C 0.1234(6) 0.6329(9) 0.0875(2)
C5 C 0.1939(6) 0.7220(10) 0.1098(2)
H2 H 0.1813 0.8252 0.1127
C6 C 0.2837(5) 0.6690(9) 0.1286(2)
C7 C 0.3664(6) 0.7453(10) 0.1516(2)
C8 C 0.4344(6) 0.6396(10) 0.1625(2)
H3 H 0.4963 0.6576 0.1783
C9 C 0.3979(5) 0.4987(10) 0.1464(2)
C10 C 0.0379(5) 0.2497(11) 0.0505(2)
H4 H 0.0841 0.2144 0.0402
H5 H -0.0236 0.2364 0.0314
H6 H 0.0430 0.1912 0.0733
C11 C -0.0132(6) 0.8264(11) 0.0601(3)
H7 H -0.0794 0.8182 0.0547
H8 H -0.0025 0.8757 0.0387
H9 H 0.0151 0.8863 0.0831
C12 C 0.3717(6) 0.9174(10) 0.1586(3)
H10 H 0.4304 0.9425 0.1784
H11 H 0.3211 0.9488 0.1667
H12 H 0.3669 0.9700 0.1351
C13 C 0.4472(6) 0.3474(10) 0.1513(3)
H13 H 0.4121 0.2710 0.1592
H14 H 0.5086 0.3568 0.1707
H15 H 0.4527 0.3170 0.1272
C14 C 0.2135(5) 0.2829(10) 0.1383(2)
H16 H 0.1974 0.1800 0.1327
C15 C 0.2209(5) 0.3359(10) 0.1734(2)
H17 H 0.2405 0.4377 0.1784
C16 C 0.2286(6) 0.3409(10) 0.2465(2)
C17 C 0.1628(6) 0.3703(10) 0.2648(3)
C18 C 0.1862(8) 0.4715(10) 0.2962(2)
H18 H 0.1414 0.4939 0.3072
C19 C 0.2726(9) 0.5389(11) 0.3114(3)
C20 C 0.3385(7) 0.5042(11) 0.2944(3)
H19 H 0.3983 0.5463 0.3047
C21 C 0.3171(6) 0.4093(11) 0.2628(2)
C22 C 0.0666(6) 0.2966(12) 0.2508(3)
H20 H 0.0335 0.3263 0.2676
H21 H 0.0730 0.1865 0.2512
H22 H 0.0321 0.3303 0.2249
C23 C 0.2956(8) 0.6472(13) 0.3457(3)
H23 H 0.2443 0.6488 0.3551
H24 H 0.3057 0.7491 0.3379
H25 H 0.3513 0.6122 0.3660
C24 C 0.3965(6) 0.3832(12) 0.2466(2)
H26 H 0.4509 0.3439 0.2668
H27 H 0.4117 0.4791 0.2373
H28 H 0.3762 0.3103 0.2257
C25 C 0.1534(6) 0.0850(10) 0.1986(2)
C26 C 0.0657(6) 0.0589(10) 0.1708(2)
C27 C 0.0298(6) -0.0897(11) 0.1637(3)
H29 H -0.0306 -0.1044 0.1461
C28 C 0.0797(6) -0.2124(11) 0.1815(3)
C29 C 0.1664(7) -0.1916(11) 0.2098(3)
H30 H 0.2006 -0.2765 0.2227
C30 C 0.2032(7) -0.0440(13) 0.2192(3)
C31 C 0.0023(6) 0.1907(11) 0.1494(3)
H31 H 0.0396 0.2705 0.1440
H32 H -0.0305 0.2316 0.1652
H33 H -0.0422 0.1531 0.1255
C32 C 0.0408(7) -0.3775(12) 0.1714(3)
H34 H 0.0570 -0.4376 0.1947
H35 H 0.0674 -0.4240 0.1541
H36 H -0.0262 -0.3735 0.1593
C33 C 0.2977(6) -0.0247(11) 0.2511(3)
H37 H 0.3251 -0.1242 0.2593
H38 H 0.2899 0.0278 0.2727
H39 H 0.3382 0.0347 0.2416
C34 C 0.2651(5) 0.2913(9) 0.0756(2)
H40 H 0.3056 0.2099 0.0862
C35 C 0.2429(5) 0.3136(9) 0.0369(2)
H41 H 0.1977 0.3876 0.0251
C36 C 0.3480(5) 0.0773(10) 0.0302(2)
C37 C 0.3085(5) -0.0557(10) 0.0407(2)
C38 C 0.3645(6) -0.1784(10) 0.0576(2)
H42 H 0.3369 -0.2664 0.0632
C39 C 0.4608(6) -0.1763(10) 0.0668(2)
C40 C 0.4990(6) -0.0442(11) 0.0577(3)
H43 H 0.5635 -0.0403 0.0636
C41 C 0.4458(6) 0.0841(10) 0.0399(2)
C42 C 0.2042(5) -0.0691(10) 0.0314(2)
H44 H 0.1866 -0.1759 0.0288
H45 H 0.1717 -0.0163 0.0076
H46 H 0.1881 -0.0238 0.0520
C43 C 0.5214(6) -0.3157(11) 0.0833(3)
H47 H 0.4821 -0.4026 0.0829
H48 H 0.5612 -0.2948 0.1095
H49 H 0.5592 -0.3383 0.0680
C44 C 0.4927(6) 0.2246(10) 0.0319(3)
H50 H 0.4513 0.2752 0.0091
H51 H 0.5492 0.1952 0.0278
H52 H 0.5078 0.2937 0.0536
C45 C 0.2711(5) 0.2754(10) -0.0318(2)
C46 C 0.2497(5) 0.1672(10) -0.0631(2)
C47 C 0.2307(6) 0.2137(10) -0.1013(2)
H53 H 0.2156 0.1403 -0.1209
C48 C 0.2342(6) 0.3665(12) -0.1102(2)
C49 C 0.2554(6) 0.4757(11) -0.0809(3)
H54 H 0.2577 0.5796 -0.0868
C50 C 0.2735(5) 0.4300(10) -0.0424(2)
C51 C 0.2439(5) -0.0085(9) -0.0567(2)
H55 H 0.2399 -0.0627 -0.0799
H56 H 0.1892 -0.0304 -0.0503
H57 H 0.2989 -0.0412 -0.0358
C52 C 0.2210(7) 0.4165(12) -0.1510(3)
H58 H 0.2005 0.3303 -0.1682
H59 H 0.2794 0.4543 -0.1519
H60 H 0.1748 0.4968 -0.1588
C53 C 0.3010(6) 0.5556(10) -0.0119(3)
H61 H 0.3262 0.6418 -0.0213
H62 H 0.3475 0.5167 0.0113
H63 H 0.2468 0.5879 -0.0064
loop_
_geom_bond_atom_site_label_1
_geom_bond_atom_site_label_2
_geom_bond_site_symmetry_1
_geom_bond_site_symmetry_2
N1 B1 1_555 1_555
C1 N2 1_555 1_555
B1 N2 1_555 1_555
N2 C4 1_555 1_555
C2 C1 1_555 1_555
H1 C2 1_555 1_555
B2 C15 1_555 1_555
C3 C2 1_555 1_555
B3 C35 1_555 1_555
C4 C3 1_555 1_555
C5 C4 1_555 1_555
H2 C5 1_555 1_555
C6 N1 1_555 1_555
C7 C6 1_555 1_555
C8 C7 1_555 1_555
H3 C8 1_555 1_555
C9 N1 1_555 1_555
C10 C1 1_555 1_555
H4 C10 1_555 1_555
H5 C10 1_555 1_555
H6 C10 1_555 1_555
C11 C3 1_555 1_555
H7 C11 1_555 1_555
H8 C11 1_555 1_555
H9 C11 1_555 1_555
C12 C7 1_555 1_555
H10 C12 1_555 1_555
H11 C12 1_555 1_555
H12 C12 1_555 1_555
C13 C9 1_555 1_555
H13 C13 1_555 1_555
H14 C13 1_555 1_555
H15 C13 1_555 1_555
C14 B1 1_555 1_555
H16 C14 1_555 1_555
C15 C14 1_555 1_555
H17 C15 1_555 1_555
C16 B2 1_555 1_555
C17 C16 1_555 1_555
C18 C17 1_555 1_555
H18 C18 1_555 1_555
C19 C18 1_555 1_555
C20 C19 1_555 1_555
H19 C20 1_555 1_555
C21 C16 1_555 1_555
C22 C17 1_555 1_555
H20 C22 1_555 1_555
H21 C22 1_555 1_555
H22 C22 1_555 1_555
C23 C19 1_555 1_555
H23 C23 1_555 1_555
H24 C23 1_555 1_555
H25 C23 1_555 1_555
C24 C21 1_555 1_555
H26 C24 1_555 1_555
H27 C24 1_555 1_555
H28 C24 1_555 1_555
C25 B2 1_555 1_555
C26 C25 1_555 1_555
C27 C26 1_555 1_555
H29 C27 1_555 1_555
C28 C27 1_555 1_555
C29 C28 1_555 1_555
H30 C29 1_555 1_555
C30 C25 1_555 1_555
C31 C26 1_555 1_555
H31 C31 1_555 1_555
H32 C31 1_555 1_555
H33 C31 1_555 1_555
C32 C28 1_555 1_555
H34 C32 1_555 1_555
H35 C32 1_555 1_555
H36 C32 1_555 1_555
C33 C30 1_555 1_555
H37 C33 1_555 1_555
H38 C33 1_555 1_555
H39 C33 1_555 1_555
C34 B1 1_555 1_555
H40 C34 1_555 1_555
C35 C34 1_555 1_555
H41 C35 1_555 1_555
C36 B3 1_555 1_555
C37 C36 1_555 1_555
C38 C37 1_555 1_555
H42 C38 1_555 1_555
C39 C38 1_555 1_555
C40 C39 1_555 1_555
H43 C40 1_555 1_555
C41 C36 1_555 1_555
C42 C37 1_555 1_555
H44 C42 1_555 1_555
H45 C42 1_555 1_555
H46 C42 1_555 1_555
C43 C39 1_555 1_555
H47 C43 1_555 1_555
H48 C43 1_555 1_555
H49 C43 1_555 1_555
C44 C41 1_555 1_555
H50 C44 1_555 1_555
H51 C44 1_555 1_555
H52 C44 1_555 1_555
C45 B3 1_555 1_555
C46 C45 1_555 1_555
C47 C46 1_555 1_555
H53 C47 1_555 1_555
C48 C47 1_555 1_555
C49 C48 1_555 1_555
H54 C49 1_555 1_555
C50 C45 1_555 1_555
C51 C46 1_555 1_555
H55 C51 1_555 1_555
H56 C51 1_555 1_555
H57 C51 1_555 1_555
C52 C48 1_555 1_555
H58 C52 1_555 1_555
H59 C52 1_555 1_555
H60 C52 1_555 1_555
C53 C50 1_555 1_555
H61 C53 1_555 1_555
H62 C53 1_555 1_555
H63 C53 1_555 1_555
C5 C6 1_555 1_555
C8 C9 1_555 1_555
C20 C21 1_555 1_555
C29 C30 1_555 1_555
C40 C41 1_555 1_555
C49 C50 1_555 1_555

#END
