
#######################################################################
#
#                 Cambridge Crystallographic Data Centre
#                                CCDC 
#
#######################################################################
#
# If this CIF has been generated from an entry in the Cambridge 
# Structural Database, then it will include bibliographic, chemical, 
# crystal, experimental, refinement or atomic coordinate data resulting 
# from the CCDC's data processing and validation procedures.
#
#######################################################################

data_FELCUX
_chemical_formula_moiety         'C7 H10 N1 1+,C6 H4 N1 O3 1-,0.5(H2 O1)'
_chemical_name_systematic        
'phenylmethanaminium 4-nitrophenolate hemihydrate'
_symmetry_cell_setting           triclinic
_symmetry_space_group_name_H-M   'P -1'
_symmetry_Int_Tables_number      2
_space_group_name_Hall           '-P 1'
loop_
_symmetry_equiv_pos_site_id
_symmetry_equiv_pos_as_xyz
1 x,y,z
2 -x,-y,-z
_cell_length_a                   10.2776(10)
_cell_length_b                   11.4048(11)
_cell_length_c                   11.5952(12)
_cell_angle_alpha                88.266(2)
_cell_angle_beta                 81.5840(10)
_cell_angle_gamma                78.2350(10)
_cell_volume                     1316.24
_exptl_crystal_colour            colorless
_exptl_crystal_description       block
_cell_formula_units_Z            4
loop_
_atom_site_label
_atom_site_type_symbol
_atom_site_fract_x
_atom_site_fract_y
_atom_site_fract_z
N1 N -0.0205(4) 0.8113(4) 0.4543(3)
H1 H 0.0020 0.8366 0.5191
H2 H -0.1017 0.8517 0.4440
H3 H 0.0391 0.8234 0.3936
C1 C -0.0220(5) 0.6811(5) 0.4649(5)
H4 H -0.0380 0.6522 0.3914
H5 H -0.0955 0.6696 0.5241
C2 C 0.1072(5) 0.6089(5) 0.4965(5)
C3 C 0.1255(8) 0.5895(6) 0.6099(6)
H6 H 0.0602 0.6259 0.6693
C4 C 0.2446(10) 0.5135(8) 0.6374(7)
H7 H 0.2575 0.4979 0.7145
C5 C 0.3387(9) 0.4643(7) 0.5492(9)
H8 H 0.4172 0.4145 0.5661
C6 C 0.3212(8) 0.4859(7) 0.4375(7)
H9 H 0.3886 0.4519 0.3786
C7 C 0.2060(6) 0.5572(6) 0.4083(5)
H10 H 0.1946 0.5705 0.3306
N2 N 0.0303(4) 0.8526(4) 0.0685(3)
H11 H 0.0797 0.8329 0.1257
H12 H -0.0421 0.9077 0.0938
H13 H 0.0785 0.8818 0.0085
C8 C -0.0123(5) 0.7435(5) 0.0302(4)
H14 H -0.0907 0.7300 0.0823
H15 H -0.0363 0.7560 -0.0477
C9 C 0.0979(6) 0.6378(5) 0.0309(5)
C10 C 0.0886(8) 0.5471(7) 0.1125(5)
H16 H 0.0109 0.5529 0.1661
C11 C 0.1888(10) 0.4507(7) 0.1163(6)
H17 H 0.1793 0.3922 0.1727
C12 C 0.3047(10) 0.4382(7) 0.0379(7)
H18 H 0.3737 0.3716 0.0401
C13 C 0.3158(7) 0.5260(7) -0.0430(6)
H19 H 0.3940 0.5191 -0.0962
C14 C 0.2143(6) 0.6243(5) -0.0479(5)
H20 H 0.2241 0.6823 -0.1049
N3 N 0.7052(5) 0.8395(5) 0.7687(5)
O1 O 0.1498(3) 0.9294(3) 0.8546(3)
O2 O 0.7669(4) 0.8661(4) 0.8441(4)
O3 O 0.7623(4) 0.7982(4) 0.6737(4)
C15 C 0.2800(5) 0.9052(4) 0.8352(4)
C16 C 0.3584(5) 0.9203(5) 0.9202(4)
H21 H 0.3156 0.9475 0.9936
C17 C 0.4959(5) 0.8967(5) 0.8997(5)
H22 H 0.5446 0.9078 0.9586
C18 C 0.5620(5) 0.8565(5) 0.7919(5)
C19 C 0.4884(6) 0.8359(5) 0.7063(5)
H23 H 0.5321 0.8059 0.6340
C20 C 0.3516(5) 0.8598(5) 0.7283(4)
H24 H 0.3038 0.8455 0.6699
N4 N 0.6761(5) 0.8338(4) 0.3331(4)
O4 O 0.1595(3) 0.8255(3) 0.2607(3)
O5 O 0.6933(4) 0.8820(4) 0.4223(3)
O6 O 0.7727(4) 0.7876(4) 0.2619(3)
C21 C 0.2810(5) 0.8254(5) 0.2763(4)
C22 C 0.3066(5) 0.8834(5) 0.3751(4)
H25 H 0.2348 0.9210 0.4285
C23 C 0.4350(5) 0.8848(5) 0.3929(4)
H26 H 0.4496 0.9218 0.4589
C24 C 0.5430(5) 0.8313(5) 0.3134(4)
C25 C 0.5226(5) 0.7728(5) 0.2184(4)
H27 H 0.5955 0.7351 0.1662
C26 C 0.3939(5) 0.7699(5) 0.2002(4)
H28 H 0.3815 0.7298 0.1353
O7 O 0.0220(3) 0.9221(3) 0.6593(3)
H29 H 0.0692 0.9121 0.7145
H30 H -0.0334 0.9886 0.6702
loop_
_geom_bond_atom_site_label_1
_geom_bond_atom_site_label_2
_geom_bond_site_symmetry_1
_geom_bond_site_symmetry_2
N1 H1 1_555 1_555
H2 N1 1_555 1_555
H3 N1 1_555 1_555
C1 N1 1_555 1_555
H4 C1 1_555 1_555
H5 C1 1_555 1_555
C2 C1 1_555 1_555
C3 C2 1_555 1_555
H6 C3 1_555 1_555
C4 C3 1_555 1_555
H7 C4 1_555 1_555
C5 C4 1_555 1_555
H8 C5 1_555 1_555
C6 C5 1_555 1_555
H9 C6 1_555 1_555
C7 C2 1_555 1_555
H10 C7 1_555 1_555
N2 H11 1_555 1_555
H12 N2 1_555 1_555
H13 N2 1_555 1_555
C8 N2 1_555 1_555
H14 C8 1_555 1_555
H15 C8 1_555 1_555
C9 C8 1_555 1_555
C10 C9 1_555 1_555
H16 C10 1_555 1_555
C11 C10 1_555 1_555
H17 C11 1_555 1_555
C12 C11 1_555 1_555
H18 C12 1_555 1_555
C13 C12 1_555 1_555
H19 C13 1_555 1_555
C14 C9 1_555 1_555
H20 C14 1_555 1_555
N3 O2 1_555 1_555
O1 C15 1_555 1_555
O3 N3 1_555 1_555
C15 C16 1_555 1_555
C16 H21 1_555 1_555
C17 C16 1_555 1_555
H22 C17 1_555 1_555
C18 N3 1_555 1_555
C19 C18 1_555 1_555
H23 C19 1_555 1_555
C20 C15 1_555 1_555
H24 C20 1_555 1_555
N4 O5 1_555 1_555
O4 C21 1_555 1_555
O6 N4 1_555 1_555
C21 C22 1_555 1_555
C22 H25 1_555 1_555
C23 C22 1_555 1_555
H26 C23 1_555 1_555
C24 N4 1_555 1_555
C25 C24 1_555 1_555
H27 C25 1_555 1_555
C26 C21 1_555 1_555
H28 C26 1_555 1_555
O7 H29 1_555 1_555
H30 O7 1_555 1_555
C6 C7 1_555 1_555
C13 C14 1_555 1_555
C17 C18 1_555 1_555
C19 C20 1_555 1_555
C23 C24 1_555 1_555
C25 C26 1_555 1_555

#END
