
#######################################################################
#
#                 Cambridge Crystallographic Data Centre
#                                CCDC 
#
#######################################################################
#
# If this CIF has been generated from an entry in the Cambridge 
# Structural Database, then it will include bibliographic, chemical, 
# crystal, experimental, refinement or atomic coordinate data resulting 
# from the CCDC's data processing and validation procedures.
#
#######################################################################

data_FELCAC
_chemical_formula_moiety         'C28 H27 N3 O3'
_chemical_name_systematic        
2,6-Diphenyl-4-(2-phenyl-3,6-dihydro-2H-1,2-oxazin-4-yl)-2,3,5,6,8,8a-hexahydro[1,2]oxazino[5,6-d][1,2]oxazine
_symmetry_cell_setting           triclinic
_symmetry_space_group_name_H-M   'P -1'
_symmetry_Int_Tables_number      2
_space_group_name_Hall           '-P 1'
loop_
_symmetry_equiv_pos_site_id
_symmetry_equiv_pos_as_xyz
1 x,y,z
2 -x,-y,-z
_cell_length_a                   9.9709(6)
_cell_length_b                   10.7612(9)
_cell_length_c                   13.1112(11)
_cell_angle_alpha                105.781(3)
_cell_angle_beta                 100.075(4)
_cell_angle_gamma                115.216(4)
_cell_volume                     1154.44
_exptl_crystal_colour            colorless
_exptl_crystal_description       plate
_cell_formula_units_Z            2
loop_
_atom_site_label
_atom_site_type_symbol
_atom_site_fract_x
_atom_site_fract_y
_atom_site_fract_z
O1 O 0.55810(16) 0.10227(16) 0.82031(12)
N1 N 0.70351(19) 0.14624(19) 0.79598(14)
C1 C 0.6774(2) 0.1652(2) 0.68949(17)
C2 C 0.6137(2) 0.2701(2) 0.69426(17)
C3 C 0.5624(2) 0.3094(2) 0.77851(17)
C4 C 0.5137(2) 0.4255(2) 0.80114(18)
N2 N 0.3569(2) 0.36085(19) 0.81217(14)
O2 O 0.36508(17) 0.30991(17) 0.90453(12)
C5 C 0.3844(3) 0.1836(3) 0.8696(2)
C6 C 0.5462(2) 0.2333(2) 0.85964(17)
C7 C 0.7565(2) 0.0448(2) 0.80480(17)
C8 C 0.7313(3) -0.0188(2) 0.88402(18)
C9 C 0.7953(3) -0.1069(3) 0.8987(2)
C10 C 0.8845(3) -0.1330(3) 0.8358(2)
C11 C 0.9099(3) -0.0709(3) 0.75713(19)
C12 C 0.8461(2) 0.0170(2) 0.74089(18)
C13 C 0.6184(2) 0.3269(2) 0.60193(17)
C14 C 0.4970(2) 0.2661(2) 0.50963(17)
C15 C 0.5049(2) 0.3260(2) 0.41946(18)
O3 O 0.6248(2) 0.4790(2) 0.46492(16)
N3 N 0.7713(4) 0.4846(3) 0.5133(3)
C16 C 0.7722(2) 0.4568(2) 0.61683(17)
C17 C 0.8948(2) 0.6244(2) 0.52569(17)
C18 C 0.8705(3) 0.6999(2) 0.46016(18)
C19 C 0.9951(3) 0.8283(3) 0.4671(2)
C20 C 1.1451(3) 0.8853(3) 0.5391(2)
C21 C 1.1697(3) 0.8095(3) 0.6024(2)
C22 C 1.0460(2) 0.6789(2) 0.59628(19)
C23 C 0.2924(2) 0.4566(2) 0.83619(16)
C24 C 0.3549(3) 0.5935(3) 0.82604(18)
C25 C 0.2799(3) 0.6763(3) 0.8418(2)
C26 C 0.1446(3) 0.6258(3) 0.8689(2)
C27 C 0.0820(3) 0.4901(3) 0.8795(2)
C28 C 0.1539(3) 0.4046(3) 0.86340(18)
H1 H 0.7776 0.2057 0.6748
H2 H 0.6052 0.0704 0.6285
H3 H 0.5914 0.5132 0.8708
H4 H 0.5060 0.4573 0.7370
H5 H 0.3774 0.1428 0.9287
H6 H 0.3032 0.1062 0.7964
H7 H 0.6265 0.3012 0.9349
H8 H 0.6706 -0.0009 0.9266
H9 H 0.7760 -0.1503 0.9520
H10 H 0.9266 -0.1930 0.8472
H11 H 0.9718 -0.0867 0.7155
H12 H 0.8625 0.0574 0.6865
H13 H 0.4031 0.1836 0.4999
H14 H 0.5280 0.2704 0.3626
H15 H 0.4064 0.3172 0.3879
H16 H 0.8543 0.4361 0.6372
H17 H 0.7906 0.5434 0.6750
H18 H 0.7688 0.6629 0.4110
H19 H 0.9765 0.8783 0.4227
H20 H 1.2289 0.9738 0.5452
H21 H 1.2706 0.8453 0.6505
H22 H 1.0647 0.6291 0.6411
H23 H 0.4475 0.6295 0.8079
H24 H 0.3239 0.7690 0.8347
H25 H 0.0950 0.6825 0.8791
H26 H -0.0103 0.4548 0.8974
H27 H 0.1123 0.3130 0.8720
H28? H 0.4667 0.3940 0.4303
H29? H 0.4435 0.2466 0.3479
H30? H 0.8092 0.5322 0.6894
H31? H 0.8463 0.4242 0.6105
N4? N 0.7569(15) 0.5161(13) 0.5368(10)
O4? O 0.6674(7) 0.4013(8) 0.4268(5)
loop_
_geom_bond_atom_site_label_1
_geom_bond_atom_site_label_2
_geom_bond_site_symmetry_1
_geom_bond_site_symmetry_2
O1 N1 1_555 1_555
N1 C1 1_555 1_555
C1 C2 1_555 1_555
C2 C3 1_555 1_555
C3 C4 1_555 1_555
C4 N2 1_555 1_555
N2 O2 1_555 1_555
O2 C5 1_555 1_555
C5 C6 1_555 1_555
C6 O1 1_555 1_555
C7 N1 1_555 1_555
C8 C7 1_555 1_555
C9 C8 1_555 1_555
C10 C9 1_555 1_555
C11 C10 1_555 1_555
C12 C7 1_555 1_555
C13 C2 1_555 1_555
C14 C13 1_555 1_555
C15 C14 1_555 1_555
O3 C15 1_555 1_555
N3 O3 1_555 1_555
C16 C13 1_555 1_555
C17 N3 1_555 1_555
C18 C17 1_555 1_555
C19 C18 1_555 1_555
C20 C19 1_555 1_555
C21 C20 1_555 1_555
C22 C17 1_555 1_555
C23 N2 1_555 1_555
C24 C23 1_555 1_555
C25 C24 1_555 1_555
C26 C25 1_555 1_555
C27 C26 1_555 1_555
C28 C23 1_555 1_555
H1 C1 1_555 1_555
H2 C1 1_555 1_555
H3 C4 1_555 1_555
H4 C4 1_555 1_555
H5 C5 1_555 1_555
H6 C5 1_555 1_555
H7 C6 1_555 1_555
H8 C8 1_555 1_555
H9 C9 1_555 1_555
H10 C10 1_555 1_555
H11 C11 1_555 1_555
H12 C12 1_555 1_555
H13 C14 1_555 1_555
H14 C15 1_555 1_555
H15 C15 1_555 1_555
H16 C16 1_555 1_555
H17 C16 1_555 1_555
H18 C18 1_555 1_555
H19 C19 1_555 1_555
H20 C20 1_555 1_555
H21 C21 1_555 1_555
H22 C22 1_555 1_555
H23 C24 1_555 1_555
H24 C25 1_555 1_555
H25 C26 1_555 1_555
H26 C27 1_555 1_555
H27 C28 1_555 1_555
C3 C6 1_555 1_555
C11 C12 1_555 1_555
N3 C16 1_555 1_555
C21 C22 1_555 1_555
C27 C28 1_555 1_555

#END
