
#######################################################################
#
#                 Cambridge Crystallographic Data Centre
#                                CCDC 
#
#######################################################################
#
# If this CIF has been generated from an entry in the Cambridge 
# Structural Database, then it will include bibliographic, chemical, 
# crystal, experimental, refinement or atomic coordinate data resulting 
# from the CCDC's data processing and validation procedures.
#
#######################################################################

data_FELDIL
_chemical_formula_moiety         'C14 H17 N1 O1'
_chemical_name_systematic        6a-Phenyloctahydroazireno[2,3,1-hi]indol-4-ol
_symmetry_cell_setting           orthorhombic
_symmetry_space_group_name_H-M   'P b c a'
_symmetry_Int_Tables_number      61
_space_group_name_Hall           '-P 2ac 2ab'
loop_
_symmetry_equiv_pos_site_id
_symmetry_equiv_pos_as_xyz
1 x,y,z
2 1/2-x,-y,1/2+z
3 1/2+x,1/2-y,-z
4 -x,1/2+y,1/2-z
5 -x,-y,-z
6 1/2+x,y,1/2-z
7 1/2-x,1/2+y,z
8 x,1/2-y,1/2+z
_cell_length_a                   7.91047(18)
_cell_length_b                   28.8044(6)
_cell_length_c                   9.7649(3)
_cell_angle_alpha                90
_cell_angle_beta                 90
_cell_angle_gamma                90
_cell_volume                     2224.99
_exptl_crystal_colour            colorless
_exptl_crystal_description       block
_cell_formula_units_Z            8
loop_
_atom_site_label
_atom_site_type_symbol
_atom_site_fract_x
_atom_site_fract_y
_atom_site_fract_z
O1 O 0.35071(11) 0.45031(3) 0.22378(8)
N1 N 0.23988(12) 0.46322(3) 0.60288(9)
C1 C 0.14149(13) 0.42948(3) 0.51812(10)
C2 C 0.25231(13) 0.46398(3) 0.44998(10)
C3 C 0.40398(13) 0.44978(3) 0.36387(11)
C4 C 0.46922(13) 0.40074(3) 0.39163(11)
C5 C 0.32556(13) 0.36632(3) 0.41544(11)
C6 C 0.21126(12) 0.38013(3) 0.53768(10)
C7 C 0.31713(14) 0.38507(4) 0.67073(11)
C8 C 0.37066(15) 0.43630(4) 0.67783(11)
C9 C 0.07171(13) 0.34380(3) 0.54933(10)
C10 C -0.07383(14) 0.34633(4) 0.46820(11)
C11 C -0.19614(15) 0.31163(4) 0.47453(12)
C12 C -0.17631(15) 0.27397(4) 0.56220(12)
C13 C -0.03287(15) 0.27107(4) 0.64283(11)
C14 C 0.09075(14) 0.30549(4) 0.63571(11)
H1 H 0.3278 0.4798 0.1977
H2 H 0.0163 0.4336 0.5112
H3 H 0.1872 0.4902 0.4083
H4 H 0.4977 0.4727 0.3772
H5 H 0.5378 0.3903 0.3126
H6 H 0.5434 0.4013 0.4733
H7 H 0.3740 0.3352 0.4328
H8 H 0.2557 0.3644 0.3315
H9 H 0.2486 0.3766 0.7518
H10 H 0.4177 0.3646 0.6674
H11 H 0.3774 0.4467 0.7743
H12 H 0.4828 0.4406 0.6346
H13 H -0.0893 0.3720 0.4083
H14 H -0.2940 0.3137 0.4185
H15 H -0.2604 0.2505 0.5667
H16 H -0.0186 0.2455 0.7033
H17 H 0.1895 0.3029 0.6905
loop_
_geom_bond_atom_site_label_1
_geom_bond_atom_site_label_2
_geom_bond_site_symmetry_1
_geom_bond_site_symmetry_2
O1 C3 1_555 1_555
N1 C1 1_555 1_555
C1 C2 1_555 1_555
C2 N1 1_555 1_555
C3 C2 1_555 1_555
C4 C3 1_555 1_555
C5 C4 1_555 1_555
C6 C1 1_555 1_555
C7 C6 1_555 1_555
C8 N1 1_555 1_555
C9 C6 1_555 1_555
C10 C9 1_555 1_555
C11 C10 1_555 1_555
C12 C11 1_555 1_555
C13 C12 1_555 1_555
C14 C9 1_555 1_555
H1 O1 1_555 1_555
H2 C1 1_555 1_555
H3 C2 1_555 1_555
H4 C3 1_555 1_555
H5 C4 1_555 1_555
H6 C4 1_555 1_555
H7 C5 1_555 1_555
H8 C5 1_555 1_555
H9 C7 1_555 1_555
H10 C7 1_555 1_555
H11 C8 1_555 1_555
H12 C8 1_555 1_555
H13 C10 1_555 1_555
H14 C11 1_555 1_555
H15 C12 1_555 1_555
H16 C13 1_555 1_555
H17 C14 1_555 1_555
C5 C6 1_555 1_555
C7 C8 1_555 1_555
C13 C14 1_555 1_555

#END
