
#######################################################################
#
#                 Cambridge Crystallographic Data Centre
#                                CCDC 
#
#######################################################################
#
# If this CIF has been generated from an entry in the Cambridge 
# Structural Database, then it will include bibliographic, chemical, 
# crystal, experimental, refinement or atomic coordinate data resulting 
# from the CCDC's data processing and validation procedures.
#
#######################################################################

data_FELDIM
_chemical_formula_moiety         'C7 H10 N1 1+,C7 H5 O4 1-'
_chemical_name_systematic        'phenylmethanaminium 2,5-dihydroxybenzoate'
_symmetry_cell_setting           triclinic
_symmetry_space_group_name_H-M   'P -1'
_symmetry_Int_Tables_number      2
_space_group_name_Hall           '-P 1'
loop_
_symmetry_equiv_pos_site_id
_symmetry_equiv_pos_as_xyz
1 x,y,z
2 -x,-y,-z
_cell_length_a                   8.0641(9)
_cell_length_b                   8.9122(8)
_cell_length_c                   9.4494(9)
_cell_angle_alpha                87.629(2)
_cell_angle_beta                 83.3210(10)
_cell_angle_gamma                79.7140(10)
_cell_volume                     663.521
_exptl_crystal_colour            colorless
_exptl_crystal_description       block
_cell_formula_units_Z            2
loop_
_atom_site_label
_atom_site_type_symbol
_atom_site_fract_x
_atom_site_fract_y
_atom_site_fract_z
N1 N 0.5802(3) 0.3797(2) 0.8427(2)
H1 H 0.4734 0.4010 0.8826
H2 H 0.6425 0.4368 0.8811
H3 H 0.6212 0.2815 0.8576
C1 C 0.5860(3) 0.4126(3) 0.6876(3)
H4 H 0.6968 0.3684 0.6416
H5 H 0.5704 0.5221 0.6711
C2 C 0.4520(3) 0.3503(3) 0.6220(3)
C3 C 0.2822(4) 0.4125(3) 0.6550(3)
H6 H 0.2514 0.4905 0.7204
C4 C 0.1594(4) 0.3597(4) 0.5920(4)
H7 H 0.0459 0.4013 0.6162
C5 C 0.2023(6) 0.2455(4) 0.4931(4)
H8 H 0.1187 0.2117 0.4492
C6 C 0.3677(6) 0.1833(4) 0.4607(4)
H9 H 0.3974 0.1058 0.3948
C7 C 0.4928(4) 0.2336(3) 0.5245(3)
H10 H 0.6056 0.1888 0.5018
O1 O 0.26920(19) 0.39193(18) 0.0469(2)
O2 O 0.4221(2) 0.16466(18) 0.0854(2)
O3 O 0.2871(2) -0.06008(17) 0.1718(2)
H11 H 0.3640 -0.0119 0.1482
O4 O -0.33524(19) 0.30528(18) 0.1339(2)
H12 H -0.3217 0.3910 0.1058
C8 C 0.2802(3) 0.2544(2) 0.0815(3)
C9 C 0.1246(3) 0.1870(2) 0.1196(2)
C10 C 0.1348(3) 0.0329(2) 0.1629(3)
C11 C -0.0118(3) -0.0259(3) 0.1986(3)
H13 H -0.0047 -0.1273 0.2285
C12 C -0.1681(3) 0.0630(3) 0.1906(3)
H14 H -0.2659 0.0220 0.2158
C13 C -0.1799(3) 0.2148(2) 0.1446(3)
C14 C -0.0350(3) 0.2749(2) 0.1107(3)
H15 H -0.0435 0.3766 0.0811
loop_
_geom_bond_atom_site_label_1
_geom_bond_atom_site_label_2
_geom_bond_site_symmetry_1
_geom_bond_site_symmetry_2
N1 H1 1_555 1_555
H2 N1 1_555 1_555
H3 N1 1_555 1_555
C1 N1 1_555 1_555
H4 C1 1_555 1_555
H5 C1 1_555 1_555
C2 C1 1_555 1_555
C3 C2 1_555 1_555
H6 C3 1_555 1_555
C4 C3 1_555 1_555
H7 C4 1_555 1_555
C5 C4 1_555 1_555
H8 C5 1_555 1_555
C6 C5 1_555 1_555
H9 C6 1_555 1_555
C7 C2 1_555 1_555
H10 C7 1_555 1_555
O1 C8 1_555 1_555
O2 C8 1_555 1_555
O3 H11 1_555 1_555
O4 H12 1_555 1_555
C8 C9 1_555 1_555
C9 C10 1_555 1_555
C10 O3 1_555 1_555
C11 C10 1_555 1_555
H13 C11 1_555 1_555
C12 C11 1_555 1_555
H14 C12 1_555 1_555
C13 O4 1_555 1_555
C14 C9 1_555 1_555
H15 C14 1_555 1_555
C6 C7 1_555 1_555
C12 C13 1_555 1_555
C13 C14 1_555 1_555

#END
