
#######################################################################
#
#                 Cambridge Crystallographic Data Centre
#                                CCDC 
#
#######################################################################
#
# If this CIF has been generated from an entry in the Cambridge 
# Structural Database, then it will include bibliographic, chemical, 
# crystal, experimental, refinement or atomic coordinate data resulting 
# from the CCDC's data processing and validation procedures.
#
#######################################################################

data_FELDOR
_chemical_formula_moiety         'C16 H21 N1 O2'
_chemical_name_systematic        
2-(4-Hydroxy-1-phenylcyclohexyl)-N,N-dimethylacetamide
_symmetry_cell_setting           orthorhombic
_symmetry_space_group_name_H-M   'P 21 21 21'
_symmetry_Int_Tables_number      19
_space_group_name_Hall           'P 2ac 2ab'
loop_
_symmetry_equiv_pos_site_id
_symmetry_equiv_pos_as_xyz
1 x,y,z
2 1/2+x,1/2-y,-z
3 -x,1/2+y,1/2-z
4 1/2-x,-y,1/2+z
_cell_length_a                   8.8377(5)
_cell_length_b                   10.8189(5)
_cell_length_c                   14.7921(9)
_cell_angle_alpha                90
_cell_angle_beta                 90
_cell_angle_gamma                90
_cell_volume                     1414.33
_exptl_crystal_colour            colorless
_exptl_crystal_description       block
_cell_formula_units_Z            4
loop_
_atom_site_label
_atom_site_type_symbol
_atom_site_fract_x
_atom_site_fract_y
_atom_site_fract_z
O1 O 0.6843(2) 0.6032(2) 0.63318(15)
O2 O 0.6433(2) 0.5525(2) 0.23070(16)
N1 N 0.4274(2) 0.6257(2) 0.17026(16)
C1 C 0.5602(3) 0.5398(3) 0.5977(2)
C2 C 0.4390(3) 0.6316(4) 0.5747(2)
C3 C 0.4272(4) 0.6801(2) 0.48843(19)
C4 C 0.4591(3) 0.5972(2) 0.40668(17)
C5 C 0.5916(3) 0.5135(2) 0.4311(2)
C6 C 0.5950(6) 0.4619(3) 0.5181(2)
C7 C 0.5008(3) 0.6843(2) 0.32657(19)
C8 C 0.5260(3) 0.6164(2) 0.2386(2)
C9 C 0.4557(4) 0.5569(3) 0.0876(2)
C10 C 0.2863(3) 0.6944(2) 0.1714(2)
C11 C 0.3163(3) 0.5240(2) 0.38113(17)
C12 C 0.3207(3) 0.3987(2) 0.3597(2)
C13 C 0.1891(4) 0.3362(3) 0.3342(2)
C14 C 0.0547(3) 0.3961(3) 0.3293(2)
C15 C 0.0478(3) 0.5204(3) 0.3503(2)
C16 C 0.1767(3) 0.5840(2) 0.37566(19)
H1 H 0.7661 0.5457 0.6589
H2 H 0.5198 0.4845 0.6463
H3 H 0.4097 0.6763 0.6292
H4 H 0.3538 0.7449 0.4773
H5 H 0.5939 0.4448 0.3869
H6 H 0.6859 0.5616 0.4227
H7 H 0.6973 0.4269 0.5273
H8 H 0.5232 0.3917 0.5186
H9 H 0.4184 0.7453 0.3182
H10 H 0.5939 0.7305 0.3422
H11 H 0.5475 0.5071 0.0948
H12 H 0.4692 0.6148 0.0373
H13 H 0.3696 0.5026 0.0750
H14 H 0.2739 0.7382 0.1139
H15 H 0.2880 0.7542 0.2211
H16 H 0.2016 0.6370 0.1799
H17 H 0.4141 0.3554 0.3624
H18 H 0.1939 0.2506 0.3202
H19 H -0.0341 0.3530 0.3115
H20 H -0.0464 0.5625 0.3474
H21 H 0.1702 0.6696 0.3895
loop_
_geom_bond_atom_site_label_1
_geom_bond_atom_site_label_2
_geom_bond_site_symmetry_1
_geom_bond_site_symmetry_2
O1 C1 1_555 1_555
O2 C8 1_555 1_555
N1 C8 1_555 1_555
C1 C2 1_555 1_555
C2 C3 1_555 1_555
C3 C4 1_555 1_555
C4 C5 1_555 1_555
C5 C6 1_555 1_555
C6 C1 1_555 1_555
C7 C4 1_555 1_555
C8 C7 1_555 1_555
C9 N1 1_555 1_555
C10 N1 1_555 1_555
C11 C4 1_555 1_555
C12 C11 1_555 1_555
C13 C12 1_555 1_555
C14 C13 1_555 1_555
C15 C14 1_555 1_555
C16 C11 1_555 1_555
H1 O1 1_555 1_555
H2 C1 1_555 1_555
H3 C2 1_555 1_555
H4 C3 1_555 1_555
H5 C5 1_555 1_555
H6 C5 1_555 1_555
H7 C6 1_555 1_555
H8 C6 1_555 1_555
H9 C7 1_555 1_555
H10 C7 1_555 1_555
H11 C9 1_555 1_555
H12 C9 1_555 1_555
H13 C9 1_555 1_555
H14 C10 1_555 1_555
H15 C10 1_555 1_555
H16 C10 1_555 1_555
H17 C12 1_555 1_555
H18 C13 1_555 1_555
H19 C14 1_555 1_555
H20 C15 1_555 1_555
H21 C16 1_555 1_555
C15 C16 1_555 1_555

#END
