
#######################################################################
#
#                 Cambridge Crystallographic Data Centre
#                                CCDC 
#
#######################################################################
#
# If this CIF has been generated from an entry in the Cambridge 
# Structural Database, then it will include bibliographic, chemical, 
# crystal, experimental, refinement or atomic coordinate data resulting 
# from the CCDC's data processing and validation procedures.
#
#######################################################################

data_FELDOS
_chemical_formula_moiety         'C7 H10 N1 1+,C4 H2 Br1 O4 1-'
_chemical_name_systematic        'phenylmethanaminium 2-bromo-3-carboxyacrylate'
_symmetry_cell_setting           monoclinic
_symmetry_space_group_name_H-M   'P 21/c'
_symmetry_Int_Tables_number      14
_space_group_name_Hall           '-P 2ybc'
loop_
_symmetry_equiv_pos_site_id
_symmetry_equiv_pos_as_xyz
1 x,y,z
2 -x,1/2+y,1/2-z
3 -x,-y,-z
4 x,1/2-y,1/2+z
_cell_length_a                   8.8032(9)
_cell_length_b                   6.0368(13)
_cell_length_c                   23.210(4)
_cell_angle_alpha                90
_cell_angle_beta                 93.907(12)
_cell_angle_gamma                90
_cell_volume                     1230.59
_exptl_crystal_colour            colorless
_exptl_crystal_description       block
_cell_formula_units_Z            4
loop_
_atom_site_label
_atom_site_type_symbol
_atom_site_fract_x
_atom_site_fract_y
_atom_site_fract_z
Br1 Br 1.12320(17) 0.9026(3) 0.08902(7)
O1 O 1.3227(10) 0.9390(17) 0.1945(5)
O2 O 1.1598(10) 0.9400(13) 0.2628(4)
O3 O 0.8856(10) 0.9396(13) 0.2743(4)
H1 H 0.9784 0.9331 0.2733
O4 O 0.6814(9) 0.9367(14) 0.2145(4)
C1 C 1.1919(15) 0.933(2) 0.2098(7)
C2 C 1.0591(13) 0.920(2) 0.1651(5)
C3 C 0.9107(12) 0.9126(18) 0.1709(6)
H2 H 0.8520 0.8935 0.1364
C4 C 0.8225(13) 0.9286(19) 0.2220(5)
N1 N 0.5011(12) 0.5270(19) 0.1949(4)
H3 H 0.5971 0.4902 0.2050
H4 H 0.4408 0.4755 0.2211
H5 H 0.4930 0.6739 0.1930
C5 C 0.4547(16) 0.429(3) 0.1374(6)
H6 H 0.4508 0.2691 0.1404
H7 H 0.3541 0.4818 0.1243
C6 C 0.5663(13) 0.494(2) 0.0952(5)
C7 C 0.6851(17) 0.353(3) 0.0858(7)
H8 H 0.6950 0.2213 0.1066
C8 C 0.789(2) 0.403(3) 0.0466(8)
H9 H 0.8670 0.3042 0.0404
C9 C 0.7794(17) 0.595(3) 0.0167(7)
H10 H 0.8528 0.6308 -0.0087
C10 C 0.6634(19) 0.732(3) 0.0240(7)
H11 H 0.6539 0.8602 0.0019
C11 C 0.5549(16) 0.686(2) 0.0643(7)
H12 H 0.4767 0.7861 0.0698
loop_
_geom_bond_atom_site_label_1
_geom_bond_atom_site_label_2
_geom_bond_site_symmetry_1
_geom_bond_site_symmetry_2
Br1 C2 1_555 1_555
O1 C1 1_555 1_555
O2 C1 1_555 1_555
O3 H1 1_555 1_555
O4 C4 1_555 1_555
C1 C2 1_555 1_555
C2 C3 1_555 1_555
C3 H2 1_555 1_555
C4 O3 1_555 1_555
N1 H3 1_555 1_555
H4 N1 1_555 1_555
H5 N1 1_555 1_555
C5 N1 1_555 1_555
H6 C5 1_555 1_555
H7 C5 1_555 1_555
C6 C5 1_555 1_555
C7 C6 1_555 1_555
H8 C7 1_555 1_555
C8 C7 1_555 1_555
H9 C8 1_555 1_555
C9 C8 1_555 1_555
H10 C9 1_555 1_555
C10 C9 1_555 1_555
H11 C10 1_555 1_555
C11 C6 1_555 1_555
H12 C11 1_555 1_555
C3 C4 1_555 1_555
C10 C11 1_555 1_555

#END
