
#######################################################################
#
#                 Cambridge Crystallographic Data Centre
#                                CCDC 
#
#######################################################################
#
# If this CIF has been generated from an entry in the Cambridge 
# Structural Database, then it will include bibliographic, chemical, 
# crystal, experimental, refinement or atomic coordinate data resulting 
# from the CCDC's data processing and validation procedures.
#
#######################################################################

data_FELDUY
_chemical_formula_moiety         'C7 H10 N1 1+,C7 H4 N1 O4 1-'
_chemical_name_systematic        
'phenylmethanaminium 6-carboxypyridine-2-carboxylate'
_symmetry_cell_setting           triclinic
_symmetry_space_group_name_H-M   'P -1'
_symmetry_Int_Tables_number      2
_space_group_name_Hall           '-P 1'
loop_
_symmetry_equiv_pos_site_id
_symmetry_equiv_pos_as_xyz
1 x,y,z
2 -x,-y,-z
_cell_length_a                   8.0671(12)
_cell_length_b                   11.7985(12)
_cell_length_c                   14.6652(13)
_cell_angle_alpha                80.101(2)
_cell_angle_beta                 79.333(2)
_cell_angle_gamma                76.1000(10)
_cell_volume                     1319.6
_exptl_crystal_colour            colorless
_exptl_crystal_description       block
_cell_formula_units_Z            4
loop_
_atom_site_label
_atom_site_type_symbol
_atom_site_fract_x
_atom_site_fract_y
_atom_site_fract_z
N1 N 0.3414(4) 0.2823(3) 0.0801(2)
H1 H 0.3226 0.3440 0.0360
H2 H 0.4368 0.2813 0.1028
H3 H 0.2520 0.2878 0.1261
C1 C 0.3613(16) 0.1790(12) 0.0417(8)
H4 H 0.4576 0.1743 -0.0091
H5 H 0.2580 0.1816 0.0157
C2 C 0.3930(13) 0.0703(10) 0.1125(6)
C3 C 0.5575(11) 0.0180(8) 0.1319(6)
H6 H 0.6506 0.0503 0.1011
C4 C 0.5844(13) -0.0807(9) 0.1959(7)
H7 H 0.6956 -0.1150 0.2086
C5 C 0.4482(13) -0.1297(9) 0.2416(7)
H8 H 0.4677 -0.1977 0.2845
C6 C 0.2847(14) -0.0788(10) 0.2243(7)
H9 H 0.1929 -0.1121 0.2555
C7 C 0.254(2) 0.0219(13) 0.1606(9)
H10 H 0.1423 0.0572 0.1498
N2 N 0.1506(3) 0.3341(3) 0.45801(18)
O1 O 0.1795(3) 0.2907(2) 0.27710(15)
O2 O -0.1031(3) 0.2960(3) 0.29702(15)
O3 O 0.4285(3) 0.3585(3) 0.53366(18)
O4 O 0.2473(3) 0.4038(3) 0.66469(16)
H11 H 0.3343 0.4132 0.6811
C8 C 0.0360(4) 0.3013(3) 0.3262(2)
C9 C 0.0097(4) 0.3232(3) 0.4267(2)
C10 C -0.1510(4) 0.3339(4) 0.4804(2)
H12 H -0.2463 0.3303 0.4547
C11 C -0.1690(5) 0.3501(4) 0.5726(3)
H13 H -0.2755 0.3552 0.6109
C12 C -0.0246(4) 0.3588(4) 0.6072(2)
H14 H -0.0323 0.3682 0.6696
C13 C 0.1310(4) 0.3533(3) 0.5481(2)
C14 C 0.2855(4) 0.3728(4) 0.5812(2)
N3 N 0.6279(3) 0.3708(3) 0.96315(18)
O5 O 0.3341(3) 0.3845(3) 0.88747(16)
O6 O 0.4718(3) 0.4389(3) 0.74498(16)
O7 O 0.6422(3) 0.3014(2) 1.15042(15)
O8 O 0.9206(3) 0.3089(3) 1.12739(16)
H15 H 0.9114 0.2844 1.1835
C15 C 0.4587(4) 0.4119(3) 0.8348(2)
C16 C 0.6210(4) 0.4132(3) 0.8723(2)
C17 C 0.7570(4) 0.4530(3) 0.8135(2)
H16 H 0.7470 0.4834 0.7514
C18 C 0.9079(4) 0.4470(3) 0.8483(2)
H17 H 1.0014 0.4721 0.8101
C19 C 0.9156(4) 0.4025(3) 0.9417(2)
H18 H 1.0151 0.3972 0.9671
C20 C 0.7737(4) 0.3659(3) 0.9969(2)
C21 C 0.7745(4) 0.3215(3) 1.0989(2)
H19? H 0.5789 0.2981 0.3012
H20? H 0.4679 0.3447 0.3823
H21? H 0.4020 0.2824 0.3244
H22? H 0.3080 0.3151 0.0253
H23? H 0.4237 0.3150 0.0904
H24? H 0.2515 0.2938 0.1255
C22? C 0.5539(13) 0.1741(9) 0.4063(7)
H25? H 0.4693 0.1676 0.4622
H26? H 0.6612 0.1767 0.4259
C23? C 0.5828(12) 0.0646(9) 0.3593(6)
C24? C 0.4536(11) 0.0034(8) 0.3699(6)
H27? H 0.3472 0.0290 0.4056
C25? C 0.4844(14) -0.0966(9) 0.3269(7)
H28? H 0.3973 -0.1383 0.3347
C26? C 0.6370(15) -0.1360(10) 0.2737(8)
H29? H 0.6543 -0.2036 0.2456
C27? C 0.7665(15) -0.0742(11) 0.2619(8)
H30? H 0.8712 -0.0997 0.2247
C28? C 0.7416(14) 0.0256(10) 0.3052(8)
H31? H 0.8298 0.0661 0.2982
C29? C 0.4143(16) 0.1449(13) 0.0798(10)
H32? H 0.5127 0.1326 0.0306
H33? H 0.4544 0.1113 0.1390
C30? C 0.2813(10) 0.0804(8) 0.0648(6)
C31? C 0.1830(12) 0.1182(9) -0.0056(7)
H34? H 0.1964 0.1855 -0.0472
C32? C 0.0631(14) 0.0558(10) -0.0147(8)
H35? H -0.0075 0.0853 -0.0632
C33? C 0.0450(14) -0.0438(10) 0.0438(8)
H36? H -0.0367 -0.0871 0.0356
C34? C 0.1410(14) -0.0831(10) 0.1146(8)
H37? H 0.1271 -0.1512 0.1551
C35? C 0.261(2) -0.0206(14) 0.1257(10)
H38? H 0.3263 -0.0466 0.1740
N4? N 0.4946(4) 0.2859(3) 0.3479(2)
H39? H 0.3962 0.3196 0.3258
H40? H 0.5828 0.3063 0.3075
H41? H 0.4919 0.3097 0.4026
C36? C 0.5159(13) 0.1568(10) 0.3607(8)
H42? H 0.5149 0.1322 0.3010
H43? H 0.4179 0.1358 0.4037
C37? C 0.6791(11) 0.0903(8) 0.3975(6)
C38? C 0.6851(11) 0.0705(8) 0.4922(6)
H44? H 0.5875 0.0989 0.5334
C39? C 0.8348(12) 0.0088(9) 0.5271(7)
H45? H 0.8374 -0.0043 0.5933
C40? C 0.9794(13) -0.0333(9) 0.4657(8)
H46? H 1.0834 -0.0762 0.4892
C41? C 0.9747(12) -0.0130(9) 0.3717(8)
H47? H 1.0723 -0.0408 0.3302
C42? C 0.8258(13) 0.0487(9) 0.3383(8)
H48? H 0.8244 0.0625 0.2741
loop_
_geom_bond_atom_site_label_1
_geom_bond_atom_site_label_2
_geom_bond_site_symmetry_1
_geom_bond_site_symmetry_2
N1 H1 1_555 1_555
H2 N1 1_555 1_555
H3 N1 1_555 1_555
C1 N1 1_555 1_555
H4 C1 1_555 1_555
H5 C1 1_555 1_555
C2 C1 1_555 1_555
C3 C2 1_555 1_555
H6 C3 1_555 1_555
C4 C3 1_555 1_555
H7 C4 1_555 1_555
C5 C4 1_555 1_555
H8 C5 1_555 1_555
C6 C5 1_555 1_555
H9 C6 1_555 1_555
C7 C2 1_555 1_555
H10 C7 1_555 1_555
N2 C9 1_555 1_555
O1 C8 1_555 1_555
O2 C8 1_555 1_555
O3 C14 1_555 1_555
O4 H11 1_555 1_555
C8 C9 1_555 1_555
C9 C10 1_555 1_555
C10 H12 1_555 1_555
C11 C10 1_555 1_555
H13 C11 1_555 1_555
C12 C11 1_555 1_555
H14 C12 1_555 1_555
C13 N2 1_555 1_555
C14 O4 1_555 1_555
N3 C16 1_555 1_555
O5 C15 1_555 1_555
O6 C15 1_555 1_555
O7 C21 1_555 1_555
O8 H15 1_555 1_555
C15 C16 1_555 1_555
C16 C17 1_555 1_555
C17 H16 1_555 1_555
C18 C17 1_555 1_555
H17 C18 1_555 1_555
C19 C18 1_555 1_555
H18 C19 1_555 1_555
C20 N3 1_555 1_555
C21 O8 1_555 1_555
C6 C7 1_555 1_555
C12 C13 1_555 1_555
C13 C14 1_555 1_555
C19 C20 1_555 1_555
C20 C21 1_555 1_555

#END
