
#######################################################################
#
#                 Cambridge Crystallographic Data Centre
#                                CCDC 
#
#######################################################################
#
# If this CIF has been generated from an entry in the Cambridge 
# Structural Database, then it will include bibliographic, chemical, 
# crystal, experimental, refinement or atomic coordinate data resulting 
# from the CCDC's data processing and validation procedures.
#
#######################################################################

data_FELFAF
_chemical_name_common            12123a
_chemical_formula_moiety         'C21 H25 N1 O3 S1'
_chemical_name_systematic        
N-Butyl-N-(6-methoxy-1H-inden-3-yl)-4-methylbenzenesulfonamide
_symmetry_cell_setting           triclinic
_symmetry_space_group_name_H-M   'P -1'
_symmetry_Int_Tables_number      2
_space_group_name_Hall           '-P 1'
loop_
_symmetry_equiv_pos_site_id
_symmetry_equiv_pos_as_xyz
1 x,y,z
2 -x,-y,-z
_cell_length_a                   7.5367(8)
_cell_length_b                   11.3510(12)
_cell_length_c                   11.8790(12)
_cell_angle_alpha                70.952(1)
_cell_angle_beta                 85.663(1)
_cell_angle_gamma                81.889(1)
_cell_volume                     950.51
_exptl_crystal_colour            yellow
_exptl_crystal_description       block
_cell_formula_units_Z            2
loop_
_atom_site_label
_atom_site_type_symbol
_atom_site_fract_x
_atom_site_fract_y
_atom_site_fract_z
S1 S 0.48372(5) 0.25424(4) 0.44670(3)
O1 O 0.40171(17) 0.14987(11) 0.44138(11)
O2 O 0.39729(16) 0.37953(11) 0.39645(11)
O3 O 0.85507(17) 0.73474(12) -0.08501(10)
N1 N 0.67890(18) 0.24724(12) 0.37825(12)
C1 C 0.7722(2) 0.35586(15) 0.34512(14)
C2 C 0.8653(2) 0.39374(17) 0.41544(15)
H1 H 0.8802 0.3519 0.4982
C3 C 0.9430(2) 0.51178(17) 0.34521(15)
H2 H 1.0756 0.4991 0.3471
H3 H 0.8966 0.5818 0.3760
C4 C 0.8798(2) 0.53660(15) 0.22064(14)
C5 C 0.9045(2) 0.63249(16) 0.11724(15)
H4 H 0.9725 0.6972 0.1162
C6 C 0.8279(2) 0.63348(15) 0.01343(14)
C7 C 0.7314(2) 0.53774(16) 0.01375(14)
H5 H 0.6824 0.5384 -0.0578
C8 C 0.7067(2) 0.44092(15) 0.11916(14)
H6 H 0.6409 0.3751 0.1200
C9 C 0.7785(2) 0.44118(14) 0.22255(14)
C10 C 0.7795(2) 0.74111(18) -0.19327(15)
H7 H 0.8083 0.8173 -0.2563
H8 H 0.6491 0.7433 -0.1823
H9 H 0.8291 0.6671 -0.2159
C11 C 0.7868(2) 0.12351(15) 0.39727(15)
H10 H 0.7265 0.0589 0.4595
H11 H 0.9056 0.1255 0.4265
C12 C 0.8125(2) 0.08747(16) 0.28503(15)
H12 H 0.8737 0.1514 0.2226
H13 H 0.6942 0.0849 0.2556
C13 C 0.9243(2) -0.04087(18) 0.30892(18)
H14 H 1.0457 -0.0354 0.3317
H15 H 0.8688 -0.1023 0.3771
C14 C 0.9409(3) -0.0881(2) 0.2036(2)
H16 H 1.0221 -0.1669 0.2220
H17 H 0.9889 -0.0254 0.1342
H18 H 0.8225 -0.1027 0.1859
C15 C 0.5211(2) 0.22970(15) 0.59745(14)
C16 C 0.5187(2) 0.33143(16) 0.63832(15)
H19 H 0.4924 0.4146 0.5855
C17 C 0.5545(3) 0.31147(17) 0.75585(16)
H20 H 0.5531 0.3815 0.7832
C18 C 0.5926(2) 0.19075(17) 0.83473(15)
C19 C 0.5951(2) 0.09012(16) 0.79211(15)
H21 H 0.6221 0.0070 0.8448
C20 C 0.5592(2) 0.10814(15) 0.67473(15)
H22 H 0.5605 0.0382 0.6473
C21 C 0.6297(3) 0.1706(2) 0.96284(17)
H23 H 0.6750 0.0822 1.0016
H24 H 0.5187 0.1926 1.0040
H25 H 0.7195 0.2238 0.9663
loop_
_geom_bond_atom_site_label_1
_geom_bond_atom_site_label_2
_geom_bond_site_symmetry_1
_geom_bond_site_symmetry_2
S1 O1 1_555 1_555
O2 S1 1_555 1_555
O3 C6 1_555 1_555
N1 S1 1_555 1_555
C1 N1 1_555 1_555
C2 C1 1_555 1_555
H1 C2 1_555 1_555
C3 C2 1_555 1_555
H2 C3 1_555 1_555
H3 C3 1_555 1_555
C4 C3 1_555 1_555
C5 C4 1_555 1_555
H4 C5 1_555 1_555
C6 C5 1_555 1_555
C7 C6 1_555 1_555
H5 C7 1_555 1_555
C8 C7 1_555 1_555
H6 C8 1_555 1_555
C9 C1 1_555 1_555
C10 O3 1_555 1_555
H7 C10 1_555 1_555
H8 C10 1_555 1_555
H9 C10 1_555 1_555
C11 N1 1_555 1_555
H10 C11 1_555 1_555
H11 C11 1_555 1_555
C12 C11 1_555 1_555
H12 C12 1_555 1_555
H13 C12 1_555 1_555
C13 C12 1_555 1_555
H14 C13 1_555 1_555
H15 C13 1_555 1_555
C14 C13 1_555 1_555
H16 C14 1_555 1_555
H17 C14 1_555 1_555
H18 C14 1_555 1_555
C15 S1 1_555 1_555
C16 C15 1_555 1_555
H19 C16 1_555 1_555
C17 C16 1_555 1_555
H20 C17 1_555 1_555
C18 C17 1_555 1_555
C19 C18 1_555 1_555
H21 C19 1_555 1_555
C20 C15 1_555 1_555
H22 C20 1_555 1_555
C21 C18 1_555 1_555
H23 C21 1_555 1_555
H24 C21 1_555 1_555
H25 C21 1_555 1_555
C4 C9 1_555 1_555
C8 C9 1_555 1_555
C19 C20 1_555 1_555

#END
