
#######################################################################
#
#                 Cambridge Crystallographic Data Centre
#                                CCDC 
#
#######################################################################
#
# If this CIF has been generated from an entry in the Cambridge 
# Structural Database, then it will include bibliographic, chemical, 
# crystal, experimental, refinement or atomic coordinate data resulting 
# from the CCDC's data processing and validation procedures.
#
#######################################################################

data_FELGUY02
_chemical_formula_moiety         'C4 H14 Mg1 O8'
_chemical_name_systematic        bis(acetato)-tetra-aqua-magnesium
_symmetry_cell_setting           monoclinic
_symmetry_space_group_name_H-M   'P 21/c'
_symmetry_Int_Tables_number      14
_space_group_name_Hall           '-P 2ybc'
loop_
_symmetry_equiv_pos_site_id
_symmetry_equiv_pos_as_xyz
1 x,y,z
2 -x,1/2+y,1/2-z
3 -x,-y,-z
4 x,1/2-y,1/2+z
_cell_length_a                   4.7716(3)
_cell_length_b                   11.9247(7)
_cell_length_c                   8.3462(5)
_cell_angle_alpha                90
_cell_angle_beta                 93.658(2)
_cell_angle_gamma                90
_cell_volume                     473.93
_exptl_crystal_colour            colorless
_exptl_crystal_description       plate
_cell_formula_units_Z            2
loop_
_atom_site_label
_atom_site_type_symbol
_atom_site_fract_x
_atom_site_fract_y
_atom_site_fract_z
C1 C 0.36266(17) 0.74384(7) 0.55992(10)
C2 C 0.2088(2) 0.84569(7) 0.49399(11)
H1 H 0.2541 0.8577 0.3824
H2 H 0.2661 0.9115 0.5584
H3 H 0.0061 0.8342 0.4983
O1 O 0.27068(13) 0.64773(5) 0.51411(8)
O2 O 0.57686(14) 0.75624(5) 0.65399(8)
O3 O 0.22007(13) 0.41776(5) 0.64530(7)
H4 H 0.292(3) 0.3721(10) 0.7139(15)
H5 H 0.091(3) 0.3828(11) 0.5952(15)
O4 O 0.25900(14) 0.45374(5) 0.29780(8)
H6 H 0.276(3) 0.3817(10) 0.2971(16)
H7 H 0.091(3) 0.4732(11) 0.2912(16)
Mg1 Mg 0.5000 0.5000 0.5000
C1B C 0.63734(17) 0.25616(7) 0.44008(10)
C2B C 0.7912(2) 0.15431(7) 0.50601(11)
H1B H 0.7459 0.1423 0.6176
H2B H 0.7339 0.0885 0.4416
H3B H 0.9939 0.1658 0.5017
O1B O 0.72932(13) 0.35227(5) 0.48589(8)
O2B O 0.42314(14) 0.24376(5) 0.34601(8)
O3B O 0.77993(13) 0.58224(5) 0.35470(7)
H4B H 0.708(3) 0.6279(10) 0.2861(15)
H5B H 0.909(3) 0.6172(11) 0.4048(15)
O4B O 0.74100(14) 0.54626(5) 0.70220(8)
H6B H 0.724(3) 0.6183(10) 0.7029(16)
H7B H 0.909(3) 0.5268(11) 0.7088(16)
loop_
_geom_bond_atom_site_label_1
_geom_bond_atom_site_label_2
_geom_bond_site_symmetry_1
_geom_bond_site_symmetry_2
C1 C2 1_555 1_555
C2 H1 1_555 1_555
H2 C2 1_555 1_555
H3 C2 1_555 1_555
O1 C1 1_555 1_555
O2 C1 1_555 1_555
O3 H4 1_555 1_555
H5 O3 1_555 1_555
O4 H6 1_555 1_555
H7 O4 1_555 1_555
Mg1 O1 1_555 1_555
C1B C2B 1_555 1_555
C2B H1B 1_555 1_555
H2B C2B 1_555 1_555
H3B C2B 1_555 1_555
O1B Mg1 1_555 1_555
O2B C1B 1_555 1_555
O3B Mg1 1_555 1_555
H4B O3B 1_555 1_555
H5B O3B 1_555 1_555
O4B Mg1 1_555 1_555
H6B O4B 1_555 1_555
H7B O4B 1_555 1_555
O3 Mg1 1_555 1_555
O4 Mg1 1_555 1_555
C1B O1B 1_555 1_555

#END
