
#######################################################################
#
#                 Cambridge Crystallographic Data Centre
#                                CCDC 
#
#######################################################################
#
# If this CIF has been generated from an entry in the Cambridge 
# Structural Database, then it will include bibliographic, chemical, 
# crystal, experimental, refinement or atomic coordinate data resulting 
# from the CCDC's data processing and validation procedures.
#
#######################################################################

data_FELPUI
_chemical_formula_moiety         'C22 H19 N1 O2'
_chemical_name_systematic        
(3R)-3-Phenyl-2-((1R)-2-hydroxy-1-phenylethyl)-2,3-dihydro-1H-isoindol-1-one
_symmetry_cell_setting           monoclinic
_symmetry_space_group_name_H-M   'P 21'
_symmetry_Int_Tables_number      4
_space_group_name_Hall           'P 2yb'
loop_
_symmetry_equiv_pos_site_id
_symmetry_equiv_pos_as_xyz
1 x,y,z
2 -x,1/2+y,-z
_cell_length_a                   6.490
_cell_length_b                   17.679
_cell_length_c                   7.671
_cell_angle_alpha                90
_cell_angle_beta                 94.11
_cell_angle_gamma                90
_cell_volume                     877.882
_exptl_crystal_colour            colorless
_exptl_crystal_description       chunk
_chemical_melting_point          '134-135 deg.C'
_cell_formula_units_Z            2
loop_
_atom_site_label
_atom_site_type_symbol
_atom_site_fract_x
_atom_site_fract_y
_atom_site_fract_z
O1 O -0.0078(6) 0.6811(3) 0.4289(6)
O2 O 0.6349(7) 0.6777(3) 0.5942(7)
N1 N 0.3037(7) 0.7254(3) 0.3522(6)
C1 C 0.4427(10) 0.7166(4) 0.2079(8)
H1 H 0.5693 0.6902 0.2507
C2 C 0.3160(10) 0.6666(3) 0.0873(9)
C3 C 0.1326(10) 0.6492(3) 0.1536(9)
C4 C 0.4979(10) 0.7925(4) 0.1251(8)
C5 C 0.1303(9) 0.6851(3) 0.3245(8)
C6 C 0.3575(9) 0.7642(4) 0.5190(8)
H2 H 0.2817 0.7375 0.6063
C7 C 0.5803(9) 0.7563(4) 0.5783(9)
H3 H 0.6644 0.7805 0.4949
H4 H 0.6071 0.7811 0.6904
C8 C 0.6959(11) 0.8161(4) 0.1216(10)
H5 H 0.8017 0.7859 0.1714
C9 C 0.3585(14) 0.6399(4) -0.0779(10)
H6 H 0.4828 0.6512 -0.1253
C10 C -0.0148(11) 0.6043(4) 0.0663(10)
H7 H -0.1368 0.5916 0.1158
C11 C 0.4024(12) 0.9051(4) 0.4697(10)
H8 H 0.5326 0.8965 0.4303
C12 C 0.2819(9) 0.8443(4) 0.5207(9)
C13 C 0.0930(11) 0.8599(4) 0.5776(11)
H9 H 0.0116 0.8201 0.6125
C14 C 0.7441(14) 0.8837(4) 0.0460(12)
H10 H 0.8808 0.8996 0.0468
C15 C 0.3857(14) 0.9061(4) -0.0307(9)
H11 H 0.2807 0.9367 -0.0805
C16 C 0.3429(12) 0.8368(4) 0.0472(10)
H12 H 0.2067 0.8203 0.0462
C17 C 0.2112(14) 0.5963(5) -0.1681(11)
H13 H 0.2369 0.5783 -0.2783
C18 C 0.5894(13) 0.9271(4) -0.0302(10)
H14 H 0.6228 0.9723 -0.0836
C19 C 0.0272(14) 0.5787(5) -0.1002(11)
H15 H -0.0700 0.5497 -0.1651
C20 C 0.3259(17) 0.9787(5) 0.4785(11)
H16 H 0.4069 1.0190 0.4459
C21 C 0.1408(17) 0.9922(5) 0.5322(12)
H17 H 0.0928 1.0417 0.5342
C22 C 0.0165(16) 0.9342(6) 0.5856(13)
H18 H -0.1129 0.9440 0.6253
loop_
_geom_bond_atom_site_label_1
_geom_bond_atom_site_label_2
_geom_bond_site_symmetry_1
_geom_bond_site_symmetry_2
O1 C5 1_555 1_555
O2 C7 1_555 1_555
N1 C1 1_555 1_555
C1 H1 1_555 1_555
C2 C1 1_555 1_555
C3 C2 1_555 1_555
C4 C1 1_555 1_555
C5 N1 1_555 1_555
C6 N1 1_555 1_555
H2 C6 1_555 1_555
C7 C6 1_555 1_555
H3 C7 1_555 1_555
H4 C7 1_555 1_555
C8 C4 1_555 1_555
H5 C8 1_555 1_555
C9 C2 1_555 1_555
H6 C9 1_555 1_555
C10 C3 1_555 1_555
H7 C10 1_555 1_555
C11 H8 1_555 1_555
C12 C6 1_555 1_555
C13 C12 1_555 1_555
H9 C13 1_555 1_555
C14 C8 1_555 1_555
H10 C14 1_555 1_555
C15 H11 1_555 1_555
C16 C4 1_555 1_555
H12 C16 1_555 1_555
C17 C9 1_555 1_555
H13 C17 1_555 1_555
C18 C14 1_555 1_555
H14 C18 1_555 1_555
C19 C10 1_555 1_555
H15 C19 1_555 1_555
C20 C11 1_555 1_555
H16 C20 1_555 1_555
C21 C20 1_555 1_555
H17 C21 1_555 1_555
C22 C13 1_555 1_555
H18 C22 1_555 1_555
C3 C5 1_555 1_555
C11 C12 1_555 1_555
C15 C16 1_555 1_555
C15 C18 1_555 1_555
C17 C19 1_555 1_555
C21 C22 1_555 1_555

#END
