
#######################################################################
#
#                 Cambridge Crystallographic Data Centre
#                                CCDC 
#
#######################################################################
#
# If this CIF has been generated from an entry in the Cambridge 
# Structural Database, then it will include bibliographic, chemical, 
# crystal, experimental, refinement or atomic coordinate data resulting 
# from the CCDC's data processing and validation procedures.
#
#######################################################################

data_FELQAP
_chemical_formula_moiety         'C13 H19 N1 O1'
_chemical_name_systematic        
(1R*)-7,7-Dimethyl-2-oxobicyclo(4.4.0)decanecarbonitrile
_symmetry_cell_setting           monoclinic
_symmetry_space_group_name_H-M   'P 21/n'
_symmetry_Int_Tables_number      14
_space_group_name_Hall           '-P 2yn'
loop_
_symmetry_equiv_pos_site_id
_symmetry_equiv_pos_as_xyz
1 x,y,z
2 1/2-x,1/2+y,1/2-z
3 -x,-y,-z
4 1/2+x,1/2-y,1/2+z
_cell_length_a                   11.381(2)
_cell_length_b                   8.772(2)
_cell_length_c                   11.853(2)
_cell_angle_alpha                90
_cell_angle_beta                 97.95(1)
_cell_angle_gamma                90
_cell_volume                     1171.96
_exptl_crystal_colour            colorless
_exptl_crystal_description       chunk
_chemical_melting_point          '332-334 K'
_cell_formula_units_Z            4
_exptl_crystal_recrystallization_method 'ethyl acetate/hexanes'
loop_
_atom_site_label
_atom_site_type_symbol
_atom_site_fract_x
_atom_site_fract_y
_atom_site_fract_z
O1 O 0.3453(2) 0.1372(3) 0.2842(2)
N1 N 0.2570(2) -0.1188(3) -0.0178(2)
C1 C 0.2891(2) 0.1459(2) 0.0819(2)
C2 C 0.2666(2) 0.1183(3) 0.2059(2)
C3 C 0.1439(3) 0.0759(3) 0.2220(2)
C4 C 0.0533(2) 0.1896(3) 0.1628(2)
C5 C 0.0723(2) 0.2156(3) 0.0398(2)
C6 C 0.1976(2) 0.2697(2) 0.0317(2)
C7 C 0.2177(2) 0.3329(2) -0.0862(2)
C8 C 0.3498(2) 0.3729(3) -0.0840(2)
C9 C 0.4347(2) 0.2445(3) -0.0431(2)
C10 C 0.4176(2) 0.1960(3) 0.0754(2)
C11 C 0.2687(2) -0.0020(3) 0.0235(2)
C12 C 0.1776(2) 0.2210(3) -0.1828(2)
C13 C 0.1457(2) 0.4797(3) -0.1087(2)
H1 H 0.1274 -0.0266 0.1941
H2 H 0.1388 0.0723 0.3036
H3 H -0.0273 0.1515 0.1630
H4 H 0.0585 0.2850 0.2010
H5 H 0.0577 0.1216 -0.0017
H6 H 0.0156 0.2892 0.0048
H7 H 0.2104 0.3552 0.0842
H8 H 0.3678 0.4589 -0.0340
H9 H 0.3631 0.4036 -0.1589
H10 H 0.5157 0.2759 -0.0445
H11 H 0.4200 0.1584 -0.0931
H12 H 0.4713 0.1161 0.1010
H13 H 0.4371 0.2827 0.1260
H14 H 0.0957 0.1957 -0.1834
H15 H 0.1894 0.2603 -0.2540
H16 H 0.2224 0.1267 -0.1698
H17 H 0.0623 0.4578 -0.1104
H18 H 0.1566 0.5235 -0.1799
H19 H 0.1679 0.5520 -0.0497
loop_
_geom_bond_atom_site_label_1
_geom_bond_atom_site_label_2
_geom_bond_site_symmetry_1
_geom_bond_site_symmetry_2
O1 C2 1_555 1_555
N1 C11 1_555 1_555
C1 C2 1_555 1_555
C2 C3 1_555 1_555
C3 C4 1_555 1_555
C4 C5 1_555 1_555
C5 C6 1_555 1_555
C6 C1 1_555 1_555
C7 C6 1_555 1_555
C8 C7 1_555 1_555
C9 C8 1_555 1_555
C10 C1 1_555 1_555
C11 C1 1_555 1_555
C12 C7 1_555 1_555
C13 C7 1_555 1_555
H1 C3 1_555 1_555
H2 C3 1_555 1_555
H3 C4 1_555 1_555
H4 C4 1_555 1_555
H5 C5 1_555 1_555
H6 C5 1_555 1_555
H7 C6 1_555 1_555
H8 C8 1_555 1_555
H9 C8 1_555 1_555
H10 C9 1_555 1_555
H11 C9 1_555 1_555
H12 C10 1_555 1_555
H13 C10 1_555 1_555
H14 C12 1_555 1_555
H15 C12 1_555 1_555
H16 C12 1_555 1_555
H17 C13 1_555 1_555
H18 C13 1_555 1_555
H19 C13 1_555 1_555
C9 C10 1_555 1_555

#END
