
#######################################################################
#
#                 Cambridge Crystallographic Data Centre
#                                CCDC 
#
#######################################################################
#
# If this CIF has been generated from an entry in the Cambridge 
# Structural Database, then it will include bibliographic, chemical, 
# crystal, experimental, refinement or atomic coordinate data resulting 
# from the CCDC's data processing and validation procedures.
#
#######################################################################

data_FELQIZ
_chemical_formula_moiety         'C27 H36 N2 O1 Si1'
_chemical_name_systematic        
6-benzyl-2,2,4a-trimethyl-3,3-bis(propan-2-yl)-2,4,4a,6-tetrahydro[1,3]azasilino[5,6-c]quinolin-5(3H)-one
_symmetry_cell_setting           monoclinic
_symmetry_space_group_name_H-M   'P 21/c'
_symmetry_Int_Tables_number      14
_space_group_name_Hall           '-P 2ybc'
loop_
_symmetry_equiv_pos_site_id
_symmetry_equiv_pos_as_xyz
1 x,y,z
2 -x,1/2+y,1/2-z
3 -x,-y,-z
4 x,1/2-y,1/2+z
_cell_length_a                   12.787(2)
_cell_length_b                   16.559(3)
_cell_length_c                   11.9492(18)
_cell_angle_alpha                90
_cell_angle_beta                 95.643(3)
_cell_angle_gamma                90
_cell_volume                     2517.86
_exptl_crystal_colour            colorless
_cell_formula_units_Z            4
loop_
_atom_site_label
_atom_site_type_symbol
_atom_site_fract_x
_atom_site_fract_y
_atom_site_fract_z
Si1 Si 0.37556(4) 0.12741(3) 0.78673(4)
N1 N 0.22434(11) 0.02450(9) 0.68303(12)
C1 C 0.04801(12) 0.02957(10) 0.72309(14)
N2 N 0.02334(11) 0.11305(8) 0.88504(11)
C2 C 0.10787(13) 0.16126(10) 0.87000(14)
O1 O 0.14114(11) 0.20879(8) 0.94269(11)
C3 C -0.01594(13) 0.05501(10) 0.80438(14)
C4 C 0.50016(15) 0.18208(11) 0.75905(18)
H1 H 0.4974 0.1886 0.6773
C5 C -0.02056(15) 0.11817(11) 0.99330(15)
H2 H 0.0364 0.1294 1.0510
H3 H -0.0492 0.0657 1.0098
C6 C -0.16336(16) 0.17628(12) 1.09231(16)
H4 H -0.1531 0.1338 1.1430
C7 C 0.01208(15) -0.03158(12) 0.64947(16)
H5 H 0.0543 -0.0493 0.5953
C8 C -0.14833(17) -0.03929(14) 0.7339(2)
H6 H -0.2143 -0.0623 0.7372
C9 C 0.26184(13) 0.19774(10) 0.76624(16)
H7 H 0.2657 0.2352 0.8289
H8 H 0.2678 0.2290 0.6985
C10 C 0.07557(15) 0.20441(11) 0.67378(17)
H9 H 0.0995 0.2036 0.6001
H10 H 0.0716 0.2593 0.6990
H11 H 0.0072 0.1800 0.6710
C11 C 0.15240(12) 0.06809(10) 0.71802(13)
C12 C 0.50770(18) 0.26716(13) 0.8084(2)
H12 H 0.5148 0.2640 0.8890
H13 H 0.4452 0.2968 0.7835
H14 H 0.5678 0.2942 0.7837
C13 C -0.10478(12) 0.18051(10) 1.00177(13)
C14 C 0.33369(14) 0.05200(11) 0.67197(16)
C15 C -0.08498(17) -0.06647(14) 0.6554(2)
H15 H -0.1075 -0.1081 0.6067
C16 C 0.15370(12) 0.15646(9) 0.75661(13)
C17 C -0.12208(14) 0.24406(12) 0.92770(16)
H16 H -0.0834 0.2476 0.8659
C18 C 0.40096(17) -0.02534(14) 0.6783(2)
H17 H 0.3958 -0.0516 0.7492
H18 H 0.4730 -0.0115 0.6714
H19 H 0.3761 -0.0611 0.6183
C19 C 0.4156(2) 0.13774(17) 1.02478(19)
H20 H 0.3570 0.1738 1.0263
H21 H 0.4776 0.1682 1.0133
H22 H 0.4264 0.1093 1.0950
C20 C -0.23692(19) 0.23462(16) 1.1080(2)
H23 H -0.2761 0.2313 1.1694
C21 C -0.25299(18) 0.29764(15) 1.0340(2)
H24 H -0.3028 0.3370 1.0452
C22 C 0.60039(16) 0.13381(14) 0.7944(2)
H25 H 0.6603 0.1628 0.7731
H26 H 0.5964 0.0821 0.7579
H27 H 0.6072 0.1263 0.8745
C23 C -0.11534(14) 0.02179(12) 0.80816(17)
H28 H -0.1593 0.0404 0.8601
C24 C -0.19585(16) 0.30250(13) 0.94401(19)
H29 H -0.2065 0.3452 0.8936
C25 C 0.33357(18) 0.08866(18) 0.55392(17)
H30 H 0.3013 0.0516 0.4993
H31 H 0.4046 0.0990 0.5383
H32 H 0.2948 0.1384 0.5504
C26 C 0.39330(15) 0.07728(12) 0.92905(16)
H33 H 0.4565 0.0438 0.9292
C27 C 0.30505(17) 0.02023(15) 0.9558(2)
H34 H 0.3238 -0.0054 1.0270
H35 H 0.2947 -0.0202 0.8981
H36 H 0.2413 0.0504 0.9589
loop_
_geom_bond_atom_site_label_1
_geom_bond_atom_site_label_2
_geom_bond_site_symmetry_1
_geom_bond_site_symmetry_2
Si1 C4 1_555 1_555
N1 C11 1_555 1_555
C1 C3 1_555 1_555
N2 C2 1_555 1_555
C2 O1 1_555 1_555
C3 N2 1_555 1_555
C4 H1 1_555 1_555
C5 N2 1_555 1_555
H2 C5 1_555 1_555
H3 C5 1_555 1_555
C6 H4 1_555 1_555
C7 C1 1_555 1_555
H5 C7 1_555 1_555
C8 H6 1_555 1_555
C9 Si1 1_555 1_555
H7 C9 1_555 1_555
H8 C9 1_555 1_555
C10 H9 1_555 1_555
H10 C10 1_555 1_555
H11 C10 1_555 1_555
C11 C1 1_555 1_555
C12 C4 1_555 1_555
H12 C12 1_555 1_555
H13 C12 1_555 1_555
H14 C12 1_555 1_555
C13 C5 1_555 1_555
C14 Si1 1_555 1_555
C15 C7 1_555 1_555
H15 C15 1_555 1_555
C16 C2 1_555 1_555
C17 C13 1_555 1_555
H16 C17 1_555 1_555
C18 C14 1_555 1_555
H17 C18 1_555 1_555
H18 C18 1_555 1_555
H19 C18 1_555 1_555
C19 H20 1_555 1_555
H21 C19 1_555 1_555
H22 C19 1_555 1_555
C20 C6 1_555 1_555
H23 C20 1_555 1_555
C21 C20 1_555 1_555
H24 C21 1_555 1_555
C22 C4 1_555 1_555
H25 C22 1_555 1_555
H26 C22 1_555 1_555
H27 C22 1_555 1_555
C23 C3 1_555 1_555
H28 C23 1_555 1_555
C24 C17 1_555 1_555
H29 C24 1_555 1_555
C25 C14 1_555 1_555
H30 C25 1_555 1_555
H31 C25 1_555 1_555
H32 C25 1_555 1_555
C26 Si1 1_555 1_555
H33 C26 1_555 1_555
C27 C26 1_555 1_555
H34 C27 1_555 1_555
H35 C27 1_555 1_555
H36 C27 1_555 1_555
N1 C14 1_555 1_555
C6 C13 1_555 1_555
C8 C15 1_555 1_555
C8 C23 1_555 1_555
C9 C16 1_555 1_555
C10 C16 1_555 1_555
C11 C16 1_555 1_555
C19 C26 1_555 1_555
C21 C24 1_555 1_555

#END
