
#######################################################################
#
#                 Cambridge Crystallographic Data Centre
#                                CCDC 
#
#######################################################################
#
# If this CIF has been generated from an entry in the Cambridge 
# Structural Database, then it will include bibliographic, chemical, 
# crystal, experimental, refinement or atomic coordinate data resulting 
# from the CCDC's data processing and validation procedures.
#
#######################################################################

data_FEMCUY
_chemical_formula_moiety         'C80 H104 O12'
_chemical_name_systematic        
6,13,19,26,32,39,45,52-octabutoxy-3,16,29,42-tetraoxanonacyclo[46.4.0.0^5,10^.0^9,14^.0^18,23^.0^22,27^.0^31,36^.0^35,40^.0^44,49^]dopentaconta-1(52),5,7,9,11,13,18,20,22,24,26,31,33,35,37,39,44,46,48,50-icosaene
_symmetry_cell_setting           monoclinic
_symmetry_space_group_name_H-M   'P 21/n'
_symmetry_Int_Tables_number      14
_space_group_name_Hall           '-P 2yn'
loop_
_symmetry_equiv_pos_site_id
_symmetry_equiv_pos_as_xyz
1 x,y,z
2 1/2-x,1/2+y,1/2-z
3 -x,-y,-z
4 1/2+x,1/2-y,1/2+z
_cell_length_a                   18.8502(5)
_cell_length_b                   9.25277(17)
_cell_length_c                   20.4322(5)
_cell_angle_alpha                90
_cell_angle_beta                 106.169(3)
_cell_angle_gamma                90
_cell_volume                     3422.75
_exptl_crystal_colour            colorless
_exptl_crystal_description       plate
_cell_formula_units_Z            2
loop_
_atom_site_label
_atom_site_type_symbol
_atom_site_fract_x
_atom_site_fract_y
_atom_site_fract_z
C1 C 0.48737(9) 0.62186(18) 0.91393(9)
C2 C 0.53428(9) 0.67438(18) 0.97558(8)
H1 H 0.5147 0.6959 1.0126
C3 C 0.60784(9) 0.69451(18) 0.98236(8)
H2 H 0.6390 0.7276 1.0246
C4 C 0.63865(9) 0.66715(17) 0.92783(8)
C5 C 0.59069(9) 0.61458(17) 0.86535(8)
C6 C 0.51451(9) 0.58945(17) 0.85933(8)
C7 C 0.62132(9) 0.59155(18) 0.81022(8)
H3 H 0.5910 0.5536 0.7686
C8 C 0.69348(9) 0.62274(19) 0.81577(8)
H4 H 0.7123 0.6090 0.7777
C9 C 0.74056(9) 0.67537(19) 0.87767(8)
C10 C 0.71482(9) 0.69530(17) 0.93376(8)
C11 C 0.46298(9) 0.52993(18) 0.79488(8)
H5 H 0.4127 0.5205 0.8005
H6 H 0.4606 0.5973 0.7567
C12 C 0.42970(9) 0.29672(18) 0.74569(8)
H7 H 0.4479 0.2287 0.7167
H8 H 0.3893 0.3544 0.7157
C13 C 0.39952(9) 0.21165(17) 0.79528(8)
C14 C 0.44667(9) 0.11070(18) 0.83529(8)
C15 C 0.42443(9) 0.02593(18) 0.88333(8)
H9 H 0.4575 -0.0426 0.9103
C16 C 0.35505(9) 0.04259(18) 0.89096(8)
H10 H 0.3407 -0.0148 0.9237
C17 C 0.30407(9) 0.14298(17) 0.85151(8)
C18 C 0.32712(9) 0.22921(17) 0.80285(8)
C19 C 0.27513(9) 0.33038(18) 0.76482(8)
H11 H 0.2887 0.3890 0.7320
C20 C 0.20632(9) 0.34652(18) 0.77364(8)
H12 H 0.1729 0.4150 0.7470
C21 C 0.18476(9) 0.26124(18) 0.82244(8)
C22 C 0.23217(9) 0.16063(17) 0.86096(8)
C23 C 0.37888(9) 0.65322(19) 0.95341(9)
H13 H 0.3906 0.7567 0.9630
H14 H 0.3961 0.5983 0.9965
C24 C 0.29675(9) 0.6327(2) 0.92258(9)
H15 H 0.2868 0.5306 0.9086
H16 H 0.2800 0.6936 0.8813
C25 C 0.25308(9) 0.6724(2) 0.97235(9)
H17 H 0.2635 0.7741 0.9868
H18 H 0.2694 0.6106 1.0134
C26 C 0.17034(10) 0.6537(2) 0.94123(10)
H19 H 0.1443 0.6804 0.9748
H20 H 0.1596 0.5526 0.9277
H21 H 0.1538 0.7160 0.9011
C27 C 0.76624(9) 0.74236(18) 1.00072(8)
H22 H 0.7621 0.6751 1.0371
H23 H 0.8178 0.7396 0.9980
C28 C 0.21033(9) 0.07444(18) 0.91517(8)
H24 H 0.1571 0.0896 0.9102
H25 H 0.2179 -0.0296 0.9081
C29 C 0.83714(10) 0.7318(2) 0.82537(9)
H26 H 0.8048 0.8048 0.7962
H27 H 0.8347 0.6416 0.7988
C30 C 0.91580(10) 0.7866(2) 0.84860(10)
H28 H 0.9465 0.7132 0.8789
H29 H 0.9347 0.7966 0.8082
C31 C 0.92513(10) 0.9294(2) 0.88581(10)
H30 H 0.9069 0.9203 0.9266
H31 H 0.8950 1.0038 0.8557
C32 C 1.00576(10) 0.9778(2) 0.90762(11)
H32 H 1.0359 0.9037 0.9369
H33 H 1.0099 1.0689 0.9328
H34 H 1.0232 0.9918 0.8671
C33 C 0.57071(9) 0.0193(2) 0.87400(9)
H35 H 0.5590 -0.0851 0.8720
H36 H 0.5733 0.0551 0.9203
C34 C 0.64363(9) 0.0436(2) 0.85873(10)
H37 H 0.6416 -0.0014 0.8143
H38 H 0.6831 -0.0055 0.8940
C35 C 0.66359(9) 0.2019(2) 0.85640(10)
H39 H 0.6520 0.2534 0.8946
H40 H 0.6332 0.2449 0.8133
C36 C 0.74525(10) 0.2228(3) 0.86117(11)
H41 H 0.7755 0.1832 0.9045
H42 H 0.7557 0.3261 0.8589
H43 H 0.7569 0.1724 0.8233
C37 C 0.06519(9) 0.37806(19) 0.79615(9)
H44 H 0.0536 0.3561 0.7469
H45 H 0.0859 0.4770 0.8039
C38 C -0.00385(9) 0.3668(2) 0.82001(9)
H46 H -0.0237 0.2674 0.8113
H47 H -0.0416 0.4338 0.7927
C39 C 0.00849(10) 0.4014(2) 0.89509(9)
H48 H 0.0259 0.5024 0.9037
H49 H 0.0477 0.3374 0.9226
C40 C -0.06130(11) 0.3822(2) 0.91802(11)
H50 H -0.0504 0.4038 0.9668
H51 H -0.0787 0.2822 0.9098
H52 H -0.0997 0.4481 0.8923
O1 O 0.48851(6) 0.39137(12) 0.77964(6)
O2 O 0.74827(6) 0.88639(12) 1.01706(5)
O3 O 0.41328(6) 0.60032(14) 0.90404(6)
O4 O 0.81391(6) 0.70540(15) 0.88536(6)
O5 O 0.51459(6) 0.09629(13) 0.82403(6)
O6 O 0.11724(6) 0.27509(13) 0.83484(6)
C1B C 0.51263(9) 0.37814(18) 1.08607(9)
C2B C 0.46572(9) 0.32562(18) 1.02442(8)
H1B H 0.4853 0.3041 0.9874
C3B C 0.39216(9) 0.30549(18) 1.01764(8)
H2B H 0.3610 0.2724 0.9754
C4B C 0.36135(9) 0.33285(17) 1.07217(8)
C5B C 0.40931(9) 0.38542(17) 1.13465(8)
C6B C 0.48549(9) 0.41055(17) 1.14067(8)
C7B C 0.37868(9) 0.40845(18) 1.18978(8)
H3B H 0.4090 0.4464 1.2314
C8B C 0.30652(9) 0.37726(19) 1.18423(8)
H4B H 0.2877 0.3910 1.2223
C9B C 0.25944(9) 0.32463(19) 1.12233(8)
C10B C 0.28518(9) 0.30470(17) 1.06624(8)
C11B C 0.53702(9) 0.47007(18) 1.20512(8)
H5B H 0.5873 0.4795 1.1995
H6B H 0.5394 0.4027 1.2433
C12B C 0.57030(9) 0.70328(18) 1.25431(8)
H7B H 0.5521 0.7713 1.2833
H8B H 0.6107 0.6456 1.2843
C13B C 0.60048(9) 0.78835(17) 1.20472(8)
C14B C 0.55333(9) 0.88930(18) 1.16471(8)
C15B C 0.57557(9) 0.97407(18) 1.11667(8)
H9B H 0.5425 1.0426 1.0897
C16B C 0.64495(9) 0.95741(18) 1.10904(8)
H10B H 0.6593 1.0148 1.0763
C17B C 0.69593(9) 0.85702(17) 1.14849(8)
C18B C 0.67288(9) 0.77079(17) 1.19715(8)
C19B C 0.72487(9) 0.66962(18) 1.23518(8)
H11B H 0.7113 0.6110 1.2680
C20B C 0.79368(9) 0.65348(18) 1.22636(8)
H12B H 0.8271 0.5850 1.2530
C21B C 0.81524(9) 0.73876(18) 1.17756(8)
C22B C 0.76783(9) 0.83937(17) 1.13904(8)
C23B C 0.62112(9) 0.34678(19) 1.04659(9)
H13B H 0.6094 0.2433 1.0370
H14B H 0.6039 0.4017 1.0035
C24B C 0.70325(9) 0.3673(2) 1.07742(9)
H15B H 0.7132 0.4694 1.0914
H16B H 0.7200 0.3064 1.1187
C25B C 0.74692(9) 0.3276(2) 1.02765(9)
H17B H 0.7365 0.2259 1.0132
H18B H 0.7306 0.3894 0.9866
C26B C 0.82966(10) 0.3463(2) 1.05877(10)
H19B H 0.8557 0.3196 1.0252
H20B H 0.8404 0.4474 1.0723
H21B H 0.8462 0.2840 1.0989
C27B C 0.23376(9) 0.25764(18) 0.99928(8)
H22B H 0.2379 0.3249 0.9629
H23B H 0.1822 0.2604 1.0020
C28B C 0.78967(9) 0.92556(18) 1.08483(8)
H24B H 0.8429 0.9104 1.0898
H25B H 0.7821 1.0296 1.0919
C29B C 0.16286(10) 0.2682(2) 1.17463(9)
H26B H 0.1952 0.1952 1.2038
H27B H 0.1653 0.3584 1.2012
C30B C 0.08420(10) 0.2134(2) 1.15140(10)
H28B H 0.0535 0.2868 1.1211
H29B H 0.0653 0.2034 1.1918
C31B C 0.07487(10) 0.0706(2) 1.11419(10)
H30B H 0.0931 0.0797 1.0734
H31B H 0.1050 -0.0038 1.1443
C32B C -0.00576(10) 0.0222(2) 1.09238(11)
H32B H -0.0359 0.0963 1.0631
H33B H -0.0099 -0.0689 1.0672
H34B H -0.0232 0.0082 1.1329
C33B C 0.42929(9) 0.9807(2) 1.12600(9)
H35B H 0.4410 1.0851 1.1280
H36B H 0.4267 0.9449 1.0797
C34B C 0.35637(9) 0.9564(2) 1.14127(10)
H37B H 0.3584 1.0014 1.1857
H38B H 0.3169 1.0055 1.1060
C35B C 0.33641(9) 0.7981(2) 1.14360(10)
H39B H 0.3480 0.7466 1.1054
H40B H 0.3668 0.7551 1.1867
C36B C 0.25475(10) 0.7772(3) 1.13883(11)
H41B H 0.2245 0.8168 1.0955
H42B H 0.2443 0.6739 1.1411
H43B H 0.2431 0.8276 1.1767
C37B C 0.93481(9) 0.62194(19) 1.20385(9)
H44B H 0.9464 0.6439 1.2531
H45B H 0.9141 0.5230 1.1961
C38B C 1.00385(9) 0.6332(2) 1.17999(9)
H46B H 1.0237 0.7326 1.1887
H47B H 1.0416 0.5662 1.2073
C39B C 0.99151(10) 0.5986(2) 1.10491(9)
H48B H 0.9741 0.4976 1.0963
H49B H 0.9523 0.6626 1.0774
C40B C 1.06130(11) 0.6178(2) 1.08198(11)
H50B H 1.0504 0.5962 1.0332
H51B H 1.0787 0.7178 1.0902
H52B H 1.0997 0.5519 1.1077
O1B O 0.51149(6) 0.60863(12) 1.22036(6)
O2B O 0.25173(6) 0.11361(12) 0.98294(5)
O3B O 0.58672(6) 0.39968(14) 1.09596(6)
O4B O 0.18609(6) 0.29460(15) 1.11464(6)
O5B O 0.48541(6) 0.90371(13) 1.17597(6)
O6B O 0.88276(6) 0.72491(13) 1.16516(6)
loop_
_geom_bond_atom_site_label_1
_geom_bond_atom_site_label_2
_geom_bond_site_symmetry_1
_geom_bond_site_symmetry_2
C1 C2 1_555 1_555
C2 H1 1_555 1_555
C3 C2 1_555 1_555
H2 C3 1_555 1_555
C4 C3 1_555 1_555
C5 C4 1_555 1_555
C6 C1 1_555 1_555
C7 C5 1_555 1_555
H3 C7 1_555 1_555
C8 C7 1_555 1_555
H4 C8 1_555 1_555
C9 C8 1_555 1_555
C10 C4 1_555 1_555
C11 C6 1_555 1_555
H5 C11 1_555 1_555
H6 C11 1_555 1_555
C12 H7 1_555 1_555
H8 C12 1_555 1_555
C13 C12 1_555 1_555
C14 C13 1_555 1_555
C15 C14 1_555 1_555
H9 C15 1_555 1_555
C16 C15 1_555 1_555
H10 C16 1_555 1_555
C17 C16 1_555 1_555
C18 C13 1_555 1_555
C19 C18 1_555 1_555
H11 C19 1_555 1_555
C20 C19 1_555 1_555
H12 C20 1_555 1_555
C21 C20 1_555 1_555
C22 C17 1_555 1_555
C23 H13 1_555 1_555
H14 C23 1_555 1_555
C24 C23 1_555 1_555
H15 C24 1_555 1_555
H16 C24 1_555 1_555
C25 C24 1_555 1_555
H17 C25 1_555 1_555
H18 C25 1_555 1_555
C26 C25 1_555 1_555
H19 C26 1_555 1_555
H20 C26 1_555 1_555
H21 C26 1_555 1_555
C27 C10 1_555 1_555
H22 C27 1_555 1_555
H23 C27 1_555 1_555
C28 C22 1_555 1_555
H24 C28 1_555 1_555
H25 C28 1_555 1_555
C29 H26 1_555 1_555
H27 C29 1_555 1_555
C30 C29 1_555 1_555
H28 C30 1_555 1_555
H29 C30 1_555 1_555
C31 C30 1_555 1_555
H30 C31 1_555 1_555
H31 C31 1_555 1_555
C32 C31 1_555 1_555
H32 C32 1_555 1_555
H33 C32 1_555 1_555
H34 C32 1_555 1_555
C33 H35 1_555 1_555
H36 C33 1_555 1_555
C34 C33 1_555 1_555
H37 C34 1_555 1_555
H38 C34 1_555 1_555
C35 C34 1_555 1_555
H39 C35 1_555 1_555
H40 C35 1_555 1_555
C36 C35 1_555 1_555
H41 C36 1_555 1_555
H42 C36 1_555 1_555
H43 C36 1_555 1_555
C37 H44 1_555 1_555
H45 C37 1_555 1_555
C38 C37 1_555 1_555
H46 C38 1_555 1_555
H47 C38 1_555 1_555
C39 C38 1_555 1_555
H48 C39 1_555 1_555
H49 C39 1_555 1_555
C40 C39 1_555 1_555
H50 C40 1_555 1_555
H51 C40 1_555 1_555
H52 C40 1_555 1_555
O1 C11 1_555 1_555
O2 C27 1_555 1_555
O3 C1 1_555 1_555
O4 C9 1_555 1_555
O5 C14 1_555 1_555
O6 C21 1_555 1_555
C1B C2B 1_555 1_555
C2B H1B 1_555 1_555
C3B C2B 1_555 1_555
H2B C3B 1_555 1_555
C4B C3B 1_555 1_555
C5B C4B 1_555 1_555
C6B C1B 1_555 1_555
C7B C5B 1_555 1_555
H3B C7B 1_555 1_555
C8B C7B 1_555 1_555
H4B C8B 1_555 1_555
C9B C8B 1_555 1_555
C10B C4B 1_555 1_555
C11B C6B 1_555 1_555
H5B C11B 1_555 1_555
H6B C11B 1_555 1_555
C12B H7B 1_555 1_555
H8B C12B 1_555 1_555
C13B C12B 1_555 1_555
C14B C13B 1_555 1_555
C15B C14B 1_555 1_555
H9B C15B 1_555 1_555
C16B C15B 1_555 1_555
H10B C16B 1_555 1_555
C17B C16B 1_555 1_555
C18B C13B 1_555 1_555
C19B C18B 1_555 1_555
H11B C19B 1_555 1_555
C20B C19B 1_555 1_555
H12B C20B 1_555 1_555
C21B C20B 1_555 1_555
C22B C17B 1_555 1_555
C23B H13B 1_555 1_555
H14B C23B 1_555 1_555
C24B C23B 1_555 1_555
H15B C24B 1_555 1_555
H16B C24B 1_555 1_555
C25B C24B 1_555 1_555
H17B C25B 1_555 1_555
H18B C25B 1_555 1_555
C26B C25B 1_555 1_555
H19B C26B 1_555 1_555
H20B C26B 1_555 1_555
H21B C26B 1_555 1_555
C27B C10B 1_555 1_555
H22B C27B 1_555 1_555
H23B C27B 1_555 1_555
C28B O2 1_555 1_555
H24B C28B 1_555 1_555
H25B C28B 1_555 1_555
C29B H26B 1_555 1_555
H27B C29B 1_555 1_555
C30B C29B 1_555 1_555
H28B C30B 1_555 1_555
H29B C30B 1_555 1_555
C31B C30B 1_555 1_555
H30B C31B 1_555 1_555
H31B C31B 1_555 1_555
C32B C31B 1_555 1_555
H32B C32B 1_555 1_555
H33B C32B 1_555 1_555
H34B C32B 1_555 1_555
C33B H35B 1_555 1_555
H36B C33B 1_555 1_555
C34B C33B 1_555 1_555
H37B C34B 1_555 1_555
H38B C34B 1_555 1_555
C35B C34B 1_555 1_555
H39B C35B 1_555 1_555
H40B C35B 1_555 1_555
C36B C35B 1_555 1_555
H41B C36B 1_555 1_555
H42B C36B 1_555 1_555
H43B C36B 1_555 1_555
C37B H44B 1_555 1_555
H45B C37B 1_555 1_555
C38B C37B 1_555 1_555
H46B C38B 1_555 1_555
H47B C38B 1_555 1_555
C39B C38B 1_555 1_555
H48B C39B 1_555 1_555
H49B C39B 1_555 1_555
C40B C39B 1_555 1_555
H50B C40B 1_555 1_555
H51B C40B 1_555 1_555
H52B C40B 1_555 1_555
O1B C11B 1_555 1_555
O2B C28 1_555 1_555
O3B C1B 1_555 1_555
O4B C9B 1_555 1_555
O5B C14B 1_555 1_555
O6B C21B 1_555 1_555
C5 C6 1_555 1_555
C9 C10 1_555 1_555
C12 O1 1_555 1_555
C17 C18 1_555 1_555
C21 C22 1_555 1_555
C23 O3 1_555 1_555
C29 O4 1_555 1_555
C33 O5 1_555 1_555
C37 O6 1_555 1_555
C5B C6B 1_555 1_555
C9B C10B 1_555 1_555
C12B O1B 1_555 1_555
C17B C18B 1_555 1_555
C21B C22B 1_555 1_555
C22B C28B 1_555 1_555
C23B O3B 1_555 1_555
C27B O2B 1_555 1_555
C29B O4B 1_555 1_555
C33B O5B 1_555 1_555
C37B O6B 1_555 1_555

#END
