
#######################################################################
#
#                 Cambridge Crystallographic Data Centre
#                                CCDC 
#
#######################################################################
#
# If this CIF has been generated from an entry in the Cambridge 
# Structural Database, then it will include bibliographic, chemical, 
# crystal, experimental, refinement or atomic coordinate data resulting 
# from the CCDC's data processing and validation procedures.
#
#######################################################################

data_FEMKEQ
_chemical_formula_moiety         'C31 H22 N4,0.5(C1 H2 Cl2)'
_chemical_name_systematic        
'2-amino-3-({[4-(triphenylethenyl)phenyl]methylidene}amino)but-2-enedinitrile dichloromethane solvate'
_symmetry_cell_setting           triclinic
_symmetry_space_group_name_H-M   'P -1'
_symmetry_Int_Tables_number      2
_space_group_name_Hall           '-P 1'
loop_
_symmetry_equiv_pos_site_id
_symmetry_equiv_pos_as_xyz
1 x,y,z
2 -x,-y,-z
_cell_length_a                   10.5762(4)
_cell_length_b                   13.3993(4)
_cell_length_c                   21.7435(6)
_cell_angle_alpha                97.986(3)
_cell_angle_beta                 100.725(3)
_cell_angle_gamma                112.276(3)
_cell_volume                     2726.21
_exptl_crystal_colour            'pale yellow'
_exptl_crystal_description       prism
_cell_formula_units_Z            4
loop_
_atom_site_label
_atom_site_type_symbol
_atom_site_fract_x
_atom_site_fract_y
_atom_site_fract_z
N1 N -0.1631(3) 0.3292(2) 0.44256(11)
C1 C -0.2359(3) 0.2971(3) 0.48856(14)
C2 C -0.1369(3) 0.4234(3) 0.42917(14)
H1 H -0.1692(3) 0.4711(3) 0.44966(14)
C3 C -0.0570(3) 0.4576(2) 0.38201(13)
C4 C 0.0936(3) 0.5232(3) 0.29076(14)
C5 C -0.0354(3) 0.5581(3) 0.36530(15)
H2 H -0.0710(3) 0.6042(3) 0.38468(15)
C6 C -0.0003(3) 0.3912(3) 0.35323(15)
H3 H -0.0132(3) 0.3239(3) 0.36407(15)
C7 C 0.0743(4) 0.4238(3) 0.30918(16)
H4 H 0.1130(4) 0.3788(3) 0.29111(16)
C8 C 0.0391(4) 0.5902(3) 0.31980(15)
H5 H 0.0522(4) 0.6575(3) 0.30883(15)
N2 N -0.3349(4) 0.4211(3) 0.54416(16)
C9 C 0.1769(4) 0.5547(3) 0.24286(15)
C10 C -0.0208(4) 0.5648(3) 0.16652(15)
C11 C -0.2576(4) 0.1957(3) 0.50069(16)
N3 N -0.2181(4) 0.1242(3) 0.46913(18)
H6 H -0.1765(4) 0.1414(3) 0.43925(18)
H7 H -0.2344(4) 0.0612(3) 0.47871(18)
C12 C 0.1272(4) 0.5777(3) 0.18779(16)
C13 C -0.1346(4) 0.4668(3) 0.16229(17)
H8 H -0.1181(4) 0.4078(3) 0.17398(17)
C14 C 0.3208(4) 0.5528(3) 0.26034(16)
C15 C 0.1694(5) 0.5556(4) 0.07901(17)
H9 H 0.0800(5) 0.4973(4) 0.06455(17)
C16 C 0.2167(4) 0.6134(3) 0.14226(17)
N4 N -0.3699(5) 0.1386(3) 0.5930(2)
C17 C 0.3516(5) 0.4752(5) 0.2242(2)
H10 H 0.2850(5) 0.4259(5) 0.1874(2)
C18 C -0.0488(5) 0.6503(4) 0.1477(2)
H11 H 0.0254(5) 0.7167(4) 0.1490(2)
C19 C 0.3496(5) 0.7021(4) 0.1622(2)
H12 H 0.3835(5) 0.7433(4) 0.2045(2)
C20 C 0.2529(7) 0.5832(5) 0.0365(2)
H13 H 0.2194(7) 0.5430(5) -0.0060(2)
C21 C 0.3846(6) 0.6693(6) 0.0567(3)
H14 H 0.4413(6) 0.6868(6) 0.0284(3)
C22 C 0.4199(4) 0.6224(4) 0.31569(19)
H15 H 0.3996(4) 0.6729(4) 0.34136(19)
C23 C -0.2712(5) 0.4545(4) 0.1413(2)
H16 H -0.3458(5) 0.3874(4) 0.1386(2)
C24 C -0.1893(6) 0.6369(5) 0.1266(2)
H17 H -0.2075(6) 0.6949(5) 0.1142(2)
C25 C -0.2988(5) 0.5404(5) 0.1243(2)
H18 H -0.3916(5) 0.5326(5) 0.1113(2)
C26 C 0.4314(6) 0.7289(6) 0.1186(3)
H19 H 0.5197(6) 0.7886(6) 0.1321(3)
C27 C 0.5506(6) 0.6174(7) 0.3333(3)
H20 H 0.6191(6) 0.6659(7) 0.3699(3)
C28 C 0.4812(8) 0.4718(7) 0.2434(4)
H21 H 0.5019(8) 0.4204(7) 0.2187(4)
C29 C 0.5767(7) 0.5400(9) 0.2959(4)
H22 H 0.6632(7) 0.5355(9) 0.3078(4)
C30 C -0.2907(3) 0.3648(3) 0.52088(15)
C31 C -0.3223(4) 0.1626(3) 0.55148(19)
Cl1 Cl 0.3114(2) 0.3092(2) 0.04530(13)
Cl2 Cl 0.4183(5) 0.1593(4) 0.0734(4)
C32 C 0.2943(8) 0.1941(8) 0.0765(5)
H23 H 0.2909(8) 0.2101(8) 0.1209(5)
H24 H 0.2056(8) 0.1327(8) 0.0526(5)
N5 N 0.4454(3) 0.2104(2) 0.37134(13)
C33 C 0.5489(3) 0.1060(3) 0.31567(15)
C34 C 0.4656(3) 0.1218(3) 0.35944(16)
H25 H 0.4253(3) 0.0653(3) 0.37961(16)
C35 C 0.7253(3) 0.0744(3) 0.24072(15)
C36 C 0.5593(4) 0.0056(3) 0.30310(17)
H26 H 0.5071(4) -0.0519(3) 0.31994(17)
C37 C 0.3713(4) 0.2223(3) 0.41651(16)
C38 C 0.7088(4) 0.1735(3) 0.25071(16)
H27 H 0.7560(4) 0.2295(3) 0.23160(16)
C39 C 1.0047(4) -0.0117(3) 0.18228(17)
C40 C 0.8278(4) 0.0631(3) 0.20396(16)
C41 C 0.6459(4) -0.0107(3) 0.26592(17)
H28 H 0.6509(4) -0.0789(3) 0.25783(17)
C42 C 0.9248(4) -0.0240(3) 0.28366(16)
C43 C 0.3424(4) 0.3134(3) 0.42467(17)
C44 C 0.6241(4) 0.1899(3) 0.28819(16)
H29 H 0.6169(4) 0.2574(3) 0.29526(16)
C45 C 0.9135(4) 0.0125(3) 0.22216(16)
C46 C 0.9625(5) 0.1951(3) 0.1445(2)
H30 H 1.0446(5) 0.2135(3) 0.1766(2)
N6 N 0.3747(4) 0.3900(3) 0.38991(18)
H31 H 0.4165(4) 0.3834(3) 0.36021(18)
H32 H 0.3538(4) 0.4458(3) 0.39724(18)
N7 N 0.3085(5) 0.0856(3) 0.4894(2)
C47 C 0.9667(4) 0.0504(4) 0.34219(17)
H33 H 0.9886(4) 0.1248(4) 0.34304(17)
N8 N 0.2057(5) 0.3339(3) 0.5086(2)
C48 C 0.9537(4) -0.0599(3) 0.11776(18)
H34 H 0.8612(4) -0.0748(3) 0.09683(18)
C49 C 1.1419(5) 0.0065(5) 0.2119(2)
H35 H 1.1786(5) 0.0376(5) 0.2558(2)
C50 C 0.8976(5) -0.1336(4) 0.2837(2)
H36 H 0.8738(5) -0.1844(4) 0.2451(2)
C51 C 0.7149(5) 0.0928(5) 0.1006(2)
H37 H 0.6278(5) 0.0421(5) 0.1029(2)
C52 C 1.0401(5) -0.0866(4) 0.0833(2)
H38 H 1.0050(5) -0.1178(4) 0.0393(2)
C53 C 0.9765(5) 0.0167(6) 0.3992(2)
H39 H 1.0049(5) 0.0680(6) 0.4381(2)
C54 C 0.9690(7) 0.2463(4) 0.0936(3)
H40 H 1.0552(7) 0.2989(4) 0.0917(3)
C55 C 1.1738(5) -0.0678(5) 0.1128(2)
H41 H 1.2302(5) -0.0865(5) 0.0895(2)
C56 C 0.8504(8) 0.2206(5) 0.0465(3)
H42 H 0.8559(8) 0.2552(5) 0.0122(3)
C57 C 0.7225(7) 0.1440(6) 0.0489(2)
H43 H 0.6414(7) 0.1263(6) 0.0164(2)
C58 C 1.2247(5) -0.0214(5) 0.1765(3)
H44 H 1.3169(5) -0.0079(5) 0.1969(3)
C59 C 0.9443(6) -0.0932(7) 0.3984(3)
H45 H 0.9487(6) -0.1167(7) 0.4367(3)
C60 C 0.9058(6) -0.1677(5) 0.3411(3)
H46 H 0.8849(6) -0.2418(5) 0.3406(3)
C61 C 0.8347(4) 0.1162(3) 0.14832(17)
C62 C 0.3336(4) 0.1471(3) 0.45665(19)
C63 C 0.2667(5) 0.3263(3) 0.4714(2)
loop_
_geom_bond_atom_site_label_1
_geom_bond_atom_site_label_2
_geom_bond_site_symmetry_1
_geom_bond_site_symmetry_2
N1 C1 1_555 1_555
C1 C11 1_555 1_555
C2 N1 1_555 1_555
H1 C2 1_555 1_555
C3 C2 1_555 1_555
C4 C7 1_555 1_555
C5 C3 1_555 1_555
H2 C5 1_555 1_555
C6 C3 1_555 1_555
H3 C6 1_555 1_555
C7 C6 1_555 1_555
H4 C7 1_555 1_555
C8 C4 1_555 1_555
H5 C8 1_555 1_555
N2 C30 1_555 1_555
C9 C4 1_555 1_555
C10 C12 1_555 1_555
C11 N3 1_555 1_555
N3 H6 1_555 1_555
H7 N3 1_555 1_555
C12 C9 1_555 1_555
C13 C10 1_555 1_555
H8 C13 1_555 1_555
C14 C9 1_555 1_555
C15 H9 1_555 1_555
C16 C12 1_555 1_555
N4 C31 1_555 1_555
C17 C14 1_555 1_555
H10 C17 1_555 1_555
C18 C10 1_555 1_555
H11 C18 1_555 1_555
C19 C16 1_555 1_555
H12 C19 1_555 1_555
C20 C15 1_555 1_555
H13 C20 1_555 1_555
C21 C20 1_555 1_555
H14 C21 1_555 1_555
C22 C14 1_555 1_555
H15 C22 1_555 1_555
C23 C13 1_555 1_555
H16 C23 1_555 1_555
C24 C18 1_555 1_555
H17 C24 1_555 1_555
C25 C23 1_555 1_555
H18 C25 1_555 1_555
C26 C19 1_555 1_555
H19 C26 1_555 1_555
C27 C22 1_555 1_555
H20 C27 1_555 1_555
C28 C17 1_555 1_555
H21 C28 1_555 1_555
C29 C27 1_555 1_555
H22 C29 1_555 1_555
C30 C1 1_555 1_555
C31 C11 1_555 1_555
Cl1 C32 1_555 1_555
Cl2 C32 1_555 1_555
C32 H23 1_555 1_555
H24 C32 1_555 1_555
N5 C34 1_555 1_555
C33 C34 1_555 1_555
C34 H25 1_555 1_555
C35 C38 1_555 1_555
C36 C33 1_555 1_555
H26 C36 1_555 1_555
C37 N5 1_555 1_555
C38 H27 1_555 1_555
C39 C45 1_555 1_555
C40 C35 1_555 1_555
C41 C35 1_555 1_555
H28 C41 1_555 1_555
C42 C45 1_555 1_555
C43 C37 1_555 1_555
C44 C33 1_555 1_555
H29 C44 1_555 1_555
C45 C40 1_555 1_555
C46 H30 1_555 1_555
N6 C43 1_555 1_555
H31 N6 1_555 1_555
H32 N6 1_555 1_555
N7 C62 1_555 1_555
C47 C42 1_555 1_555
H33 C47 1_555 1_555
N8 C63 1_555 1_555
C48 C39 1_555 1_555
H34 C48 1_555 1_555
C49 C39 1_555 1_555
H35 C49 1_555 1_555
C50 C42 1_555 1_555
H36 C50 1_555 1_555
C51 H37 1_555 1_555
C52 C48 1_555 1_555
H38 C52 1_555 1_555
C53 C47 1_555 1_555
H39 C53 1_555 1_555
C54 C46 1_555 1_555
H40 C54 1_555 1_555
C55 C52 1_555 1_555
H41 C55 1_555 1_555
C56 C54 1_555 1_555
H42 C56 1_555 1_555
C57 C51 1_555 1_555
H43 C57 1_555 1_555
C58 C49 1_555 1_555
H44 C58 1_555 1_555
C59 C53 1_555 1_555
H45 C59 1_555 1_555
C60 C50 1_555 1_555
H46 C60 1_555 1_555
C61 C40 1_555 1_555
C62 C37 1_555 1_555
C63 C43 1_555 1_555
C5 C8 1_555 1_555
C15 C16 1_555 1_555
C21 C26 1_555 1_555
C24 C25 1_555 1_555
C28 C29 1_555 1_555
C36 C41 1_555 1_555
C38 C44 1_555 1_555
C46 C61 1_555 1_555
C51 C61 1_555 1_555
C55 C58 1_555 1_555
C56 C57 1_555 1_555
C59 C60 1_555 1_555

#END
