
#######################################################################
#
#                 Cambridge Crystallographic Data Centre
#                                CCDC 
#
#######################################################################
#
# If this CIF has been generated from an entry in the Cambridge 
# Structural Database, then it will include bibliographic, chemical, 
# crystal, experimental, refinement or atomic coordinate data resulting 
# from the CCDC's data processing and validation procedures.
#
#######################################################################

data_FEMMAO03
_chemical_formula_moiety         'C8 H12 N1 1+,Cl1 O4 1-,H2 O1'
_chemical_name_systematic        '2,6-dimethylanilinium perchlorate monohydrate'
_symmetry_cell_setting           orthorhombic
_symmetry_space_group_name_H-M   'I b a 2'
_symmetry_Int_Tables_number      45
_space_group_name_Hall           'I 2 -2c'
loop_
_symmetry_equiv_pos_site_id
_symmetry_equiv_pos_as_xyz
1 x,y,z
2 -x,-y,z
3 -x,y,1/2+z
4 x,-y,1/2+z
5 1/2+x,1/2+y,1/2+z
6 1/2-x,1/2-y,1/2+z
7 1/2-x,1/2+y,z
8 1/2+x,1/2-y,z
_cell_length_a                   13.915(14)
_cell_length_b                   23.42(2)
_cell_length_c                   7.558(7)
_cell_angle_alpha                90
_cell_angle_beta                 90
_cell_angle_gamma                90
_cell_volume                     2463.07
_exptl_crystal_description       block
_cell_formula_units_Z            8
loop_
_atom_site_label
_atom_site_type_symbol
_atom_site_fract_x
_atom_site_fract_y
_atom_site_fract_z
N1 N 0.22878(17) -0.08049(11) 0.9084(9)
H1 H 0.2243 -0.0680 0.7975
H2 H 0.2567 -0.0539 0.9750
H3 H 0.1703 -0.0878 0.9502
C1 C 0.2865(2) -0.13284(14) 0.9125(8)
C2 C 0.2409(3) -0.1856(2) 0.9065(12)
C3 C 0.3871(2) -0.12697(18) 0.9111(11)
C4 C 0.4355(3) -0.0695(2) 0.9186(12)
H4 H 0.4069 -0.0445 0.8327
H5 H 0.5027 -0.0738 0.8933
H6 H 0.4277 -0.0535 1.0347
C5 C 0.4396(3) -0.1785(2) 0.9044(14)
H7 H 0.5057 -0.1770 0.8862
C6 C 0.1321(3) -0.1910(2) 0.9147(16)
H8 H 0.1086 -0.1718 1.0183
H9 H 0.1147 -0.2306 0.9199
H10 H 0.1043 -0.1740 0.8112
C7 C 0.2964(4) -0.2349(2) 0.9138(19)
H11 H 0.2669 -0.2706 0.9118
C8 C 0.3959(4) -0.2310(3) 0.924(2)
H12 H 0.4327 -0.2635 0.9440
Cl1 Cl 0.23571(8) -0.08285(4) 1.4112(3)
O1 O 0.1605(5) -0.1181(3) 1.3301(10)
O2 O 0.3011(6) -0.1257(4) 1.3524(10)
O3 O 0.2119(5) -0.0459(3) 1.5471(10)
O4 O 0.2866(6) -0.0446(4) 1.2909(12)
O5 O 0.0240(3) -0.0582(2) 0.9337(19)
H13 H 0.0085 -0.0901 0.8873
H14 H 0.0495 -0.0370 0.8555
O6? O 0.2856(6) -0.0462(3) 1.5562(11)
O7? O 0.1837(6) -0.0469(4) 1.2834(13)
O8? O 0.3084(7) -0.1172(5) 1.4648(16)
O9? O 0.1607(7) -0.1070(4) 1.5258(12)
loop_
_geom_bond_atom_site_label_1
_geom_bond_atom_site_label_2
_geom_bond_site_symmetry_1
_geom_bond_site_symmetry_2
N1 H1 1_555 1_555
H2 N1 1_555 1_555
H3 N1 1_555 1_555
C1 N1 1_555 1_555
C2 C1 1_555 1_555
C3 C1 1_555 1_555
C4 C3 1_555 1_555
H4 C4 1_555 1_555
H5 C4 1_555 1_555
H6 C4 1_555 1_555
C5 C3 1_555 1_555
H7 C5 1_555 1_555
C6 C2 1_555 1_555
H8 C6 1_555 1_555
H9 C6 1_555 1_555
H10 C6 1_555 1_555
C7 C2 1_555 1_555
H11 C7 1_555 1_555
C8 C5 1_555 1_555
H12 C8 1_555 1_555
Cl1 O1 1_555 1_555
O2 Cl1 1_555 1_555
O3 Cl1 1_555 1_555
O4 Cl1 1_555 1_555
O5 H13 1_555 1_555
H14 O5 1_555 1_555
C7 C8 1_555 1_555

#END
