
#######################################################################
#
#                 Cambridge Crystallographic Data Centre
#                                CCDC 
#
#######################################################################
#
# If this CIF has been generated from an entry in the Cambridge 
# Structural Database, then it will include bibliographic, chemical, 
# crystal, experimental, refinement or atomic coordinate data resulting 
# from the CCDC's data processing and validation procedures.
#
#######################################################################

data_FEMMAO01
_chemical_formula_moiety         'C8 H12 N1 1+,Cl1 O4 1-,H2 O1'
_chemical_name_systematic        '2,6-dimethylanilinium perchlorate monohydrate'
_symmetry_cell_setting           monoclinic
_symmetry_space_group_name_H-M   'C 2/c'
_symmetry_Int_Tables_number      15
_space_group_name_Hall           '-C 2yn'
loop_
_symmetry_equiv_pos_site_id
_symmetry_equiv_pos_as_xyz
1 x,y,z
2 -x,y,1/2-z
3 1/2+x,1/2+y,z
4 1/2-x,1/2+y,1/2-z
5 -x,-y,-z
6 x,-y,1/2+z
7 1/2-x,1/2-y,-z
8 1/2+x,1/2-y,1/2+z
_cell_length_a                   15.118(4)
_cell_length_b                   22.983(6)
_cell_length_c                   7.4425(18)
_cell_angle_alpha                90
_cell_angle_beta                 115.954(3)
_cell_angle_gamma                90
_cell_volume                     2325.14
_exptl_crystal_description       block
_cell_formula_units_Z            8
loop_
_atom_site_label
_atom_site_type_symbol
_atom_site_fract_x
_atom_site_fract_y
_atom_site_fract_z
Cl1 Cl 0.23642(3) 0.083467(15) 0.74774(5)
O1 O 0.28051(17) 0.04410(9) 0.6541(3)
O2 O 0.18415(18) 0.04807(10) 0.8267(3)
O3 O 0.30405(17) 0.12076(10) 0.8802(3)
O4 O 0.16111(15) 0.11732(9) 0.5798(3)
C1 C 0.23687(12) 0.18527(7) 1.2392(3)
C2 C 0.28664(9) 0.13246(6) 1.29131(19)
C3 C 0.38746(10) 0.12801(7) 1.3898(2)
N1 N 0.22877(7) 0.07883(5) 1.23802(15)
H1 H 0.2624 0.0507 1.2076
H2 H 0.1703 0.0855 1.1303
H3 H 0.2177 0.0670 1.3430
C4 C 0.43846(12) 0.06929(8) 1.4407(3)
H4 H 0.4196 0.0487 1.5340
H5 H 0.5099 0.0750 1.5026
H6 H 0.4188 0.0463 1.3183
C5 C 0.39416(15) 0.23204(9) 1.3905(4)
H7 H 0.4317 0.2669 1.4266
C6 C 0.12683(13) 0.19008(8) 1.1317(3)
H8 H 0.1033 0.1717 1.0000
H9 H 0.1078 0.2312 1.1152
H10 H 0.0975 0.1705 1.2096
C7 C 0.44124(14) 0.17920(8) 1.4391(3)
H11 H 0.5110 0.1778 1.5069
C8 C 0.29453(15) 0.23497(8) 1.2912(3)
H12 H 0.2637 0.2720 1.2565
O9 O 0.02019(8) 0.05605(5) 1.07927(19)
H13 H 0.0568 0.0447 1.1977
H14 H 0.0174 0.0930 1.0767
O5? O 0.30623(18) 0.12722(10) 0.7598(4)
O6? O 0.15518(16) 0.10944(11) 0.7684(4)
O7? O 0.28862(17) 0.04604(9) 0.9318(3)
O8? O 0.20973(17) 0.04748(10) 0.5837(3)
loop_
_geom_bond_atom_site_label_1
_geom_bond_atom_site_label_2
_geom_bond_site_symmetry_1
_geom_bond_site_symmetry_2
Cl1 O1 1_555 1_555
O2 Cl1 1_555 1_555
O3 Cl1 1_555 1_555
O4 Cl1 1_555 1_555
C1 C2 1_555 1_555
C2 C3 1_555 1_555
C3 C4 1_555 1_555
N1 C2 1_555 1_555
H1 N1 1_555 1_555
H2 N1 1_555 1_555
H3 N1 1_555 1_555
C4 H4 1_555 1_555
H5 C4 1_555 1_555
H6 C4 1_555 1_555
C5 H7 1_555 1_555
C6 C1 1_555 1_555
H8 C6 1_555 1_555
H9 C6 1_555 1_555
H10 C6 1_555 1_555
C7 C3 1_555 1_555
H11 C7 1_555 1_555
C8 C1 1_555 1_555
H12 C8 1_555 1_555
O9 H13 1_555 1_555
H14 O9 1_555 1_555
C5 C7 1_555 1_555
C5 C8 1_555 1_555

#END
