
#######################################################################
#
#                 Cambridge Crystallographic Data Centre
#                                CCDC 
#
#######################################################################
#
# If this CIF has been generated from an entry in the Cambridge 
# Structural Database, then it will include bibliographic, chemical, 
# crystal, experimental, refinement or atomic coordinate data resulting 
# from the CCDC's data processing and validation procedures.
#
#######################################################################

data_FEMMAO
_chemical_formula_moiety         'C8 H12 N1 1+,Cl1 O4 1-,H2 O1'
_chemical_name_systematic        '2,6-dimethylanilinium perchlorate monohydrate'
_symmetry_cell_setting           monoclinic
_symmetry_space_group_name_H-M   'C 2/c'
_symmetry_Int_Tables_number      15
_space_group_name_Hall           '-C 2yn'
loop_
_symmetry_equiv_pos_site_id
_symmetry_equiv_pos_as_xyz
1 x,y,z
2 -x,y,1/2-z
3 1/2+x,1/2+y,z
4 1/2-x,1/2+y,1/2-z
5 -x,-y,-z
6 x,-y,1/2+z
7 1/2-x,1/2-y,-z
8 1/2+x,1/2-y,1/2+z
_cell_length_a                   15.197(7)
_cell_length_b                   23.040(11)
_cell_length_c                   7.462(4)
_cell_angle_alpha                90
_cell_angle_beta                 116.056(6)
_cell_angle_gamma                90
_cell_volume                     2347.19
_exptl_crystal_description       block
_cell_formula_units_Z            8
loop_
_atom_site_label
_atom_site_type_symbol
_atom_site_fract_x
_atom_site_fract_y
_atom_site_fract_z
Cl1 Cl 0.23632(2) 0.083624(10) 0.24754(3)
O1 O 0.15563(13) 0.10960(9) 0.2665(3)
O2 O 0.21300(15) 0.04734(7) 0.0882(2)
O3 O 0.18658(17) 0.04853(7) 0.3290(2)
O4 O 0.30460(14) 0.12167(7) 0.3715(3)
C1 C 0.23804(8) 0.18477(5) 0.74039(18)
C2 C 0.28653(6) 0.13262(4) 0.79200(13)
C3 C 0.38683(7) 0.12760(4) 0.88934(16)
N1 N 0.22915(5) 0.07885(3) 0.73886(11)
H1 H 0.2399 0.0599 0.6464
H2 H 0.1657 0.0873 0.6912
H3 H 0.2469 0.0566 0.8467
C4 C 0.43727(9) 0.06913(6) 0.9420(2)
H4 H 0.4190 0.0495 1.0340
H5 H 0.5070 0.0746 1.0023
H6 H 0.4178 0.0463 0.8231
C5 C 0.12818(10) 0.19032(5) 0.6341(3)
H7 H 0.1044 0.1721 0.5056
H8 H 0.1105 0.2306 0.6176
H9 H 0.0997 0.1717 0.7114
C6 C 0.39475(11) 0.23166(5) 0.8900(3)
H10 H 0.4316 0.2656 0.9253
C7 C 0.44075(10) 0.17875(6) 0.9381(3)
H11 H 0.5088 0.1771 1.0041
C8 C 0.29462(12) 0.23472(6) 0.7901(3)
H12 H 0.2643 0.2708 0.7553
O5 O 0.02056(6) 0.05676(4) 0.58336(16)
H13 H 0.0131 0.0652 0.4666
H14 H 0.0510 0.0248 0.6196
O6? O 0.30507(15) 0.12651(9) 0.2542(3)
O7? O 0.28729(15) 0.04621(6) 0.4297(2)
O8? O 0.27840(14) 0.04394(6) 0.1519(2)
O9? O 0.16212(13) 0.11800(6) 0.0804(3)
loop_
_geom_bond_atom_site_label_1
_geom_bond_atom_site_label_2
_geom_bond_site_symmetry_1
_geom_bond_site_symmetry_2
Cl1 O1 1_555 1_555
O2 Cl1 1_555 1_555
O3 Cl1 1_555 1_555
O4 Cl1 1_555 1_555
C1 C2 1_555 1_555
C2 C3 1_555 1_555
C3 C4 1_555 1_555
N1 C2 1_555 1_555
H1 N1 1_555 1_555
H2 N1 1_555 1_555
H3 N1 1_555 1_555
C4 H4 1_555 1_555
H5 C4 1_555 1_555
H6 C4 1_555 1_555
C5 C1 1_555 1_555
H7 C5 1_555 1_555
H8 C5 1_555 1_555
H9 C5 1_555 1_555
C6 H10 1_555 1_555
C7 C3 1_555 1_555
H11 C7 1_555 1_555
C8 C1 1_555 1_555
H12 C8 1_555 1_555
O5 H13 1_555 1_555
H14 O5 1_555 1_555
C6 C7 1_555 1_555
C6 C8 1_555 1_555

#END
