
#######################################################################
#
#                 Cambridge Crystallographic Data Centre
#                                CCDC 
#
#######################################################################
#
# If this CIF has been generated from an entry in the Cambridge 
# Structural Database, then it will include bibliographic, chemical, 
# crystal, experimental, refinement or atomic coordinate data resulting 
# from the CCDC's data processing and validation procedures.
#
#######################################################################

data_FEMNIX02
_chemical_formula_moiety         'C12 H24 O6,F6 P1 1-,H3 O1 1+'
_chemical_name_systematic        'oxonium hexafluorophosphate 18-crown-6'
_symmetry_cell_setting           monoclinic
_symmetry_space_group_name_H-M   'P 21/c'
_symmetry_Int_Tables_number      14
_space_group_name_Hall           '-P 2ybc'
loop_
_symmetry_equiv_pos_site_id
_symmetry_equiv_pos_as_xyz
1 x,y,z
2 -x,1/2+y,1/2-z
3 -x,-y,-z
4 x,1/2-y,1/2+z
_cell_length_a                   10.8066(19)
_cell_length_b                   10.3265(17)
_cell_length_c                   8.4046(15)
_cell_angle_alpha                90
_cell_angle_beta                 91.301(10)
_cell_angle_gamma                90
_cell_volume                     937.664
_exptl_crystal_colour            colorless
_exptl_crystal_description       block
_cell_formula_units_Z            2
loop_
_atom_site_label
_atom_site_type_symbol
_atom_site_fract_x
_atom_site_fract_y
_atom_site_fract_z
C1 C 0.1794(11) 0.0692(16) 0.545(2)
H1 H 0.0999 0.0429 0.5882
H2 H 0.1641 0.1058 0.4384
C2 C 0.2397(12) 0.1675(13) 0.6501(17)
H3 H 0.1853 0.2429 0.6596
H4 H 0.2532 0.1308 0.7566
C3 C 0.4134(16) 0.3087(13) 0.6718(18)
H5 H 0.4246 0.2839 0.7838
H6 H 0.3608 0.3859 0.6669
C4 C 0.5319(14) 0.3371(11) 0.6048(18)
H7 H 0.5717 0.4088 0.6625
H8 H 0.5214 0.3621 0.4928
C5 C 0.7247(14) 0.2498(18) 0.562(3)
H9 H 0.7642 0.3173 0.6270
H10 H 0.7184 0.2808 0.4515
C6 C 0.7965(14) 0.1328(19) 0.570(3)
H11 H 0.7987 0.1001 0.6790
H12 H 0.8816 0.1509 0.5386
O1 O 0.2570(8) -0.0362(10) 0.5352(13)
O2 O 0.3561(8) 0.2073(9) 0.5869(11)
O3 O 0.6074(8) 0.2217(8) 0.6180(12)
C1B C 0.8206(11) -0.0692(16) 0.455(2)
H1B H 0.9001 -0.0429 0.4118
H2B H 0.8359 -0.1058 0.5616
C2B C 0.7603(12) -0.1675(13) 0.3499(17)
H3B H 0.8147 -0.2429 0.3404
H4B H 0.7468 -0.1308 0.2434
C3B C 0.5866(16) -0.3087(13) 0.3282(18)
H5B H 0.5754 -0.2839 0.2162
H6B H 0.6392 -0.3859 0.3331
C4B C 0.4681(14) -0.3371(11) 0.3952(18)
H7B H 0.4283 -0.4088 0.3375
H8B H 0.4786 -0.3621 0.5072
C5B C 0.2753(14) -0.2498(18) 0.438(3)
H9B H 0.2358 -0.3173 0.3730
H10B H 0.2816 -0.2808 0.5485
C6B C 0.2035(14) -0.1328(19) 0.430(3)
H11B H 0.2013 -0.1001 0.3210
H12B H 0.1184 -0.1509 0.4614
O1B O 0.7430(8) 0.0362(10) 0.4648(13)
O2B O 0.6439(8) -0.2073(9) 0.4131(11)
O3B O 0.3926(8) -0.2217(8) 0.3820(12)
F1 F 0.8543(7) 0.5130(8) 0.4834(13)
F2 F 1.0065(7) 0.6342(7) 0.5954(11)
F3 F 0.9850(8) 0.4229(7) 0.6592(10)
P1 P 1.0000 0.5000 0.5000
F1B F 1.1457(7) 0.4870(8) 0.5166(13)
F2B F 0.9935(7) 0.3658(7) 0.4046(11)
F3B F 1.0150(8) 0.5771(7) 0.3408(10)
O4 O 0.5000 0.0000 0.5000
loop_
_geom_bond_atom_site_label_1
_geom_bond_atom_site_label_2
_geom_bond_site_symmetry_1
_geom_bond_site_symmetry_2
C1 H1 1_555 1_555
H2 C1 1_555 1_555
C2 C1 1_555 1_555
H3 C2 1_555 1_555
H4 C2 1_555 1_555
C3 H5 1_555 1_555
H6 C3 1_555 1_555
C4 C3 1_555 1_555
H7 C4 1_555 1_555
H8 C4 1_555 1_555
C5 H9 1_555 1_555
H10 C5 1_555 1_555
C6 C5 1_555 1_555
H11 C6 1_555 1_555
H12 C6 1_555 1_555
O1 C1 1_555 1_555
O2 C2 1_555 1_555
O3 C4 1_555 1_555
F1 P1 1_555 1_555
F2 P1 1_555 1_555
F3 P1 1_555 1_555
P1 F1B 1_555 1_555
C1B H1B 1_555 1_555
H2B C1B 1_555 1_555
C2B C1B 1_555 1_555
H3B C2B 1_555 1_555
H4B C2B 1_555 1_555
C3B H5B 1_555 1_555
H6B C3B 1_555 1_555
C4B C3B 1_555 1_555
H7B C4B 1_555 1_555
H8B C4B 1_555 1_555
C5B H9B 1_555 1_555
H10B C5B 1_555 1_555
C6B O1 1_555 1_555
H11B C6B 1_555 1_555
H12B C6B 1_555 1_555
O1B C6 1_555 1_555
O2B C2B 1_555 1_555
O3B C4B 1_555 1_555
F2B P1 1_555 1_555
F3B P1 1_555 1_555
C3 O2 1_555 1_555
C5 O3 1_555 1_555
C1B O1B 1_555 1_555
C3B O2B 1_555 1_555
C5B C6B 1_555 1_555
C5B O3B 1_555 1_555

#END
