
#######################################################################
#
#                 Cambridge Crystallographic Data Centre
#                                CCDC 
#
#######################################################################
#
# If this CIF has been generated from an entry in the Cambridge 
# Structural Database, then it will include bibliographic, chemical, 
# crystal, experimental, refinement or atomic coordinate data resulting 
# from the CCDC's data processing and validation procedures.
#
#######################################################################

data_FEMSIA
_chemical_formula_moiety         
'C268 H316 Br4 O52,4(C2 H6 O1),5(C1 D1 Cl3),3(H2 O1)'
_chemical_name_systematic        
"5,11,17,23-(11',11'':17'',17''':11''',11'''':17'''',17'-tetrakis(Oxymethoxy)tetrakis(5-bromo-2,8,14,20-tetra-n-pentyl-4,24:6,10:12,16:18,22-O,O'-tetramethylenecalix(4)resorcinarene-23-oxymethylene))-2,8,14,20-tetra-n-pentyl-4,24:6,10:12,16:18,22-O,O'-tetramethylenecalix(4)resorcinarene tetrakis(ethanol) deuterochloroform clathrate deuterochloroform solvate trihydrate"
_symmetry_cell_setting           triclinic
_symmetry_space_group_name_H-M   'P -1'
_symmetry_Int_Tables_number      2
_space_group_name_Hall           '-P 1'
loop_
_symmetry_equiv_pos_site_id
_symmetry_equiv_pos_as_xyz
1 x,y,z
2 -x,-y,-z
_cell_length_a                   22.4832(6)
_cell_length_b                   25.2863(7)
_cell_length_c                   31.2864(8)
_cell_angle_alpha                81.514(2)
_cell_angle_beta                 80.2321(14)
_cell_angle_gamma                78.3354(9)
_cell_volume                     17048.4
_exptl_crystal_colour            colorless
_exptl_crystal_description       prism
_cell_formula_units_Z            2
_exptl_crystal_recrystallization_method 
'deuterochloroform/ethanol/methyl ethyl ketone'
loop_
_atom_site_label
_atom_site_type_symbol
_atom_site_fract_x
_atom_site_fract_y
_atom_site_fract_z
Cl1 Cl 0.7582(8) -0.0020(7) 1.0687(5)
Cl2 Cl 0.6647(7) 0.0817(5) 1.0393(4)
Cl3 Cl 0.6729(8) 0.0579(6) 1.1291(4)
C57 C 0.6827(7) 0.0309(5) 1.0806(4)
Cl4 Cl 0.7916(9) -0.0776(5) 0.4333(4)
Cl5 Cl 0.7578(6) 0.0052(5) 0.3658(3)
Cl6 Cl 0.7170(6) 0.0227(5) 0.4542(4)
C106 C 0.7346(6) -0.0249(5) 0.4174(3)
Cl7 Cl 0.0689(5) 0.6169(4) 0.3252(3)
Cl8 Cl 0.1187(4) 0.6225(4) 0.4016(3)
Cl9 Cl 0.0287(5) 0.7091(4) 0.3703(3)
C156 C 0.0537(4) 0.6397(4) 0.3757(3)
Cl10 Cl -0.0462(9) 0.7574(9) 1.0177(6)
Cl11 Cl 0.0319(8) 0.7105(8) 1.0800(5)
Cl12 Cl 0.0571(7) 0.6780(6) 0.9951(5)
C207 C 0.0002(6) 0.6990(7) 1.0365(4)
Cl13 Cl 0.2336(10) 0.2319(9) 0.7556(7)
Cl14 Cl 0.3557(13) 0.234(2) 0.763(2)
Cl15 Cl 0.267(2) 0.3298(14) 0.766(2)
C258 C 0.2907(14) 0.2698(14) 0.7436(10)
O21 O 0.525(2) 0.259(2) 0.3767(17)
O38 O 0.002(2) 0.0775(19) 0.8141(14)
O39 O 0.054(2) 0.002(2) 0.8784(15)
O56 O 0.461(3) 0.219(3) 0.8277(18)
C259 C 0.5231(18) 0.2028(16) 0.8858(12)
C260 C 0.483(3) 0.2454(14) 0.8571(18)
O57 O 0.4914(18) 0.1659(17) 0.6762(11)
C261 C 0.5540(17) 0.1527(16) 0.6059(11)
C262 C 0.541(2) 0.183(2) 0.6464(15)
O58 O 0.285(3) 0.408(2) 0.6103(17)
C263 C 0.2407(18) 0.4873(15) 0.5647(13)
C264 C 0.256(5) 0.464(2) 0.6105(14)
O59 O 0.233(4) 0.466(3) 0.800(2)
C265 C 0.2159(19) 0.5258(16) 0.8566(12)
C266 C 0.255(3) 0.474(3) 0.838(2)
Br1 Br 0.6342(2) 0.34739(19) 0.81152(16)
Br2 Br 0.6737(3) 0.2738(2) 0.6422(2)
Br3 Br 0.4195(2) 0.5707(2) 0.56988(17)
Br4 Br 0.3947(3) 0.6182(2) 0.79361(17)
O1 O 0.3665(8) 0.0955(7) 0.9101(5)
O2 O 0.3830(8) 0.0684(7) 0.6224(6)
O3 O 0.0995(8) 0.3628(7) 0.6011(6)
O4 O 0.0800(7) 0.3933(8) 0.8845(6)
O5 O 0.3562(8) 0.0653(6) 0.8120(5)
O6 O 0.3600(7) 0.0542(6) 0.7377(5)
O7 O 0.6274(8) 0.0867(6) 0.7761(6)
O8 O 0.6295(8) 0.0347(6) 0.7276(6)
O9 O 0.2599(7) 0.1606(7) 0.6216(5)
O10 O 0.1856(8) 0.2403(6) 0.6143(4)
O11 O 0.4480(8) 0.2944(7) 0.5145(4)
O12 O 0.3725(8) 0.3585(7) 0.4985(4)
O13 O 0.0663(7) 0.3645(6) 0.7103(5)
O14 O 0.0626(7) 0.3742(6) 0.7840(5)
O15 O 0.1329(7) 0.5821(5) 0.6710(5)
O16 O 0.1360(6) 0.5990(6) 0.7367(5)
O17 O 0.1666(8) 0.2737(6) 0.9013(4)
O18 O 0.2407(6) 0.1933(7) 0.9085(4)
O19 O 0.3374(8) 0.4165(7) 0.9454(4)
O20 O 0.3957(7) 0.3375(6) 0.9549(4)
O22 O 0.3528(7) 0.1588(7) 0.9794(5)
O23 O 0.3624(8) 0.2435(6) 0.9979(5)
O24 O 0.5084(7) 0.3610(7) 0.9561(6)
O25 O 0.5986(9) 0.3588(7) 0.9075(5)
O26 O 0.7109(8) 0.2342(6) 0.8087(6)
O27 O 0.7065(8) 0.1475(8) 0.7918(6)
O28 O 0.5666(9) 0.0236(6) 0.8397(5)
O29 O 0.4740(7) 0.0278(6) 0.8882(6)
O30 O 0.4827(7) -0.0039(6) 0.6500(6)
O31 O 0.5679(8) -0.0186(6) 0.6865(5)
O32 O 0.7313(8) 0.0763(8) 0.6845(5)
O33 O 0.7509(7) 0.1608(7) 0.6479(7)
O34 O 0.6486(10) 0.2965(8) 0.5472(6)
O35 O 0.5670(8) 0.3074(7) 0.5064(6)
O36 O 0.4153(8) 0.2009(6) 0.4995(5)
O37 O 0.3924(7) 0.1199(7) 0.5381(5)
O40 O 0.1669(7) 0.3443(6) 0.5217(5)
O41 O 0.2656(7) 0.3393(6) 0.4811(5)
O42 O 0.4179(8) 0.4502(6) 0.4586(6)
O43 O 0.4268(8) 0.5313(8) 0.4821(5)
O44 O 0.2985(7) 0.6488(6) 0.5786(6)
O45 O 0.2016(9) 0.6526(6) 0.6212(5)
O46 O 0.0435(6) 0.5468(7) 0.6396(5)
O47 O 0.0320(6) 0.4677(6) 0.6130(6)
O48 O 0.0215(7) 0.4909(6) 0.8449(6)
O49 O 0.0375(7) 0.5646(8) 0.7909(5)
O50 O 0.1848(10) 0.6837(7) 0.7523(5)
O51 O 0.2737(7) 0.6918(7) 0.7791(7)
O52 O 0.3831(8) 0.5910(8) 0.8919(5)
O53 O 0.3714(8) 0.5160(6) 0.9425(6)
O54 O 0.2226(7) 0.3980(7) 0.9813(5)
O55 O 0.1287(8) 0.3936(7) 0.9596(5)
C1 C 0.3564(11) 0.1379(9) 0.8733(7)
C2 C 0.3709(11) 0.1099(9) 0.6519(9)
C3 C 0.1461(10) 0.3459(11) 0.6299(8)
C4 C 0.1298(9) 0.3738(9) 0.8525(8)
C5 C 0.2981(7) 0.1279(7) 0.8615(6)
C6 C 0.2423(6) 0.1543(6) 0.8811(5)
C7 C 0.1881(6) 0.1434(6) 0.8721(5)
C8 C 0.1911(7) 0.1075(7) 0.8422(5)
C9 C 0.2458(6) 0.0808(6) 0.8226(5)
C10 C 0.2998(7) 0.0918(6) 0.8317(5)
C11 C 0.3768(8) 0.0842(8) 0.7677(7)
C12 C 0.2483(6) 0.0396(5) 0.7905(5)
C13 C 0.6629(8) 0.0527(14) 0.7504(7)
C14 C 0.3103(7) 0.1047(7) 0.6780(5)
C15 C 0.3072(6) 0.0756(6) 0.7201(4)
C16 C 0.2509(6) 0.0686(6) 0.7439(4)
C17 C 0.1984(7) 0.0927(7) 0.7266(5)
C18 C 0.2002(6) 0.1225(6) 0.6850(4)
C19 C 0.2570(6) 0.1285(6) 0.6610(5)
C20 C 0.2473(8) 0.2173(8) 0.6221(7)
C21 C 0.1410(6) 0.1485(6) 0.6656(4)
C22 C 0.4230(14) 0.3303(14) 0.4819(6)
C23 C 0.1230(7) 0.3023(6) 0.6614(5)
C24 C 0.1411(6) 0.2506(5) 0.6505(5)
C25 C 0.1191(6) 0.2072(6) 0.6777(4)
C26 C 0.0795(8) 0.2181(6) 0.7152(5)
C27 C 0.0608(7) 0.2700(5) 0.7265(4)
C28 C 0.0837(7) 0.3123(6) 0.6995(4)
C29 C 0.0964(8) 0.3794(8) 0.7421(7)
C30 C 0.0188(6) 0.2816(5) 0.7694(4)
C31 C 0.1069(13) 0.6153(11) 0.7012(6)
C32 C 0.1111(7) 0.3239(6) 0.8447(5)
C33 C 0.0774(7) 0.3256(6) 0.8110(4)
C34 C 0.0572(6) 0.2791(5) 0.8045(4)
C35 C 0.0730(7) 0.2321(6) 0.8307(5)
C36 C 0.1076(6) 0.2292(5) 0.8634(4)
C37 C 0.1272(6) 0.2764(5) 0.8701(5)
C38 C 0.2290(8) 0.2495(8) 0.8907(6)
C39 C 0.1257(6) 0.1748(6) 0.8928(4)
C40 C 0.3653(14) 0.3799(10) 0.9744(6)
C41 C 0.1942(8) 0.0074(7) 0.8029(7)
C42 C 0.2081(12) -0.0413(12) 0.7765(11)
C43 C 0.1548(15) -0.0734(12) 0.7891(11)
C44 C 0.104(2) -0.047(3) 0.761(3)
C45 C 0.0912(9) 0.1141(7) 0.6791(6)
C46 C 0.0411(15) 0.1345(17) 0.6505(13)
C47 C -0.0105(17) 0.100(2) 0.6655(16)
C48 C -0.0294(8) 0.2425(8) 0.7824(6)
C49 C -0.0742(12) 0.2539(10) 0.7483(8)
C50 C -0.1212(12) 0.2150(12) 0.7616(8)
C51 C -0.1519(15) 0.2126(13) 0.7217(10)
C52 C -0.194(2) 0.2670(19) 0.7121(15)
C53 C 0.0750(8) 0.1401(9) 0.9016(6)
C54 C 0.0940(15) 0.0897(14) 0.9340(15)
C55 C 0.042(2) 0.0559(19) 0.9434(19)
C56 C 0.049(4) 0.017(3) 0.986(2)
C58 C 0.4147(7) 0.0947(7) 0.9335(5)
C59 C 0.4696(6) 0.0605(6) 0.9214(5)
C60 C 0.5195(6) 0.0559(6) 0.9439(4)
C61 C 0.5128(7) 0.0862(7) 0.9781(5)
C62 C 0.4573(6) 0.1209(6) 0.9908(5)
C63 C 0.4087(6) 0.1254(6) 0.9672(4)
C64 C 0.3476(10) 0.2153(9) 0.9657(6)
C65 C 0.4496(6) 0.1555(6) 1.0290(4)
C66 C 0.4375(6) 0.3003(6) 0.9737(4)
C67 C 0.4220(6) 0.2515(6) 0.9941(5)
C68 C 0.4656(6) 0.2113(6) 1.0115(5)
C69 C 0.5250(8) 0.2212(7) 1.0086(5)
C70 C 0.5409(6) 0.2701(6) 0.9891(4)
C71 C 0.4961(6) 0.3099(5) 0.9712(5)
C72 C 0.5346(10) 0.3704(8) 0.9122(6)
C73 C 0.6084(6) 0.2791(5) 0.9821(5)
C74 C 0.6497(7) 0.2946(5) 0.8585(4)
C75 C 0.6274(7) 0.3064(5) 0.9004(4)
C76 C 0.6392(6) 0.2675(5) 0.9357(4)
C77 C 0.6735(8) 0.2166(7) 0.9275(5)
C78 C 0.6973(7) 0.2049(6) 0.8860(5)
C79 C 0.6853(7) 0.2446(6) 0.8512(4)
C80 C 0.6808(10) 0.2041(10) 0.7870(7)
C81 C 0.7338(6) 0.1484(8) 0.8771(5)
C82 C 0.6363(7) 0.0862(7) 0.8164(5)
C83 C 0.6785(7) 0.1145(6) 0.8251(5)
C84 C 0.6899(7) 0.1126(6) 0.8672(5)
C85 C 0.6582(8) 0.0823(7) 0.9001(5)
C86 C 0.6170(6) 0.0528(6) 0.8917(4)
C87 C 0.6065(7) 0.0549(6) 0.8494(4)
C88 C 0.5022(9) 0.0453(8) 0.8461(6)
C89 C 0.5818(7) 0.0205(5) 0.9276(4)
C90 C 0.4866(8) 0.1265(8) 1.0653(5)
C91 C 0.4654(18) 0.1569(12) 1.1062(8)
C92 C 0.494(2) 0.1215(15) 1.1455(9)
C93 C 0.473(3) 0.152(2) 1.1861(11)
C94 C 0.6449(9) 0.2456(8) 1.0176(6)
C95 C 0.6150(13) 0.2638(13) 1.0621(6)
C96 C 0.6541(13) 0.2321(17) 1.0976(7)
C97 C 0.6186(15) 0.2429(17) 1.1432(8)
C98 C 0.6540(19) 0.2067(19) 1.1782(9)
C99 C 0.7701(9) 0.1207(11) 0.9144(8)
C100 C 0.819(3) 0.155(2) 0.918(2)
C101 C 0.6192(9) -0.0039(7) 0.9650(5)
C102 C 0.6725(12) -0.0489(10) 0.9481(8)
C103 C 0.7218(12) -0.0601(13) 0.9787(9)
C104 C 0.7765(15) -0.1022(18) 0.9601(12)
C105 C 0.8256(16) -0.114(2) 0.9907(14)
C107 C 0.4390(7) 0.0594(7) 0.5941(6)
C108 C 0.4435(6) 0.0851(6) 0.5525(4)
C109 C 0.4989(6) 0.0750(6) 0.5235(5)
C110 C 0.5481(7) 0.0394(7) 0.5385(5)
C111 C 0.5437(6) 0.0126(6) 0.5804(4)
C112 C 0.4890(6) 0.0239(6) 0.6086(5)
C113 C 0.5095(10) 0.0130(8) 0.6823(6)
C114 C 0.5971(7) -0.0304(5) 0.5963(4)
C115 C 0.6476(7) 0.0295(7) 0.6849(5)
C116 C 0.6178(7) 0.0016(6) 0.6643(5)
C117 C 0.6354(6) -0.0037(6) 0.6200(4)
C118 C 0.6852(8) 0.0200(7) 0.5973(5)
C119 C 0.7158(7) 0.0482(6) 0.6176(5)
C120 C 0.6977(7) 0.0523(6) 0.6622(5)
C121 C 0.7165(10) 0.1338(10) 0.6841(7)
C122 C 0.7676(6) 0.0780(8) 0.5920(5)
C123 C 0.6936(7) 0.2256(5) 0.5998(4)
C124 C 0.7264(7) 0.1742(6) 0.6093(5)
C125 C 0.7407(7) 0.1379(6) 0.5783(5)
C126 C 0.7227(8) 0.1553(8) 0.5370(6)
C127 C 0.6899(7) 0.2071(6) 0.5268(5)
C128 C 0.6754(7) 0.2424(6) 0.5581(5)
C129 C 0.5829(10) 0.3089(10) 0.5478(7)
C130 C 0.6660(8) 0.2249(7) 0.4819(5)
C131 C 0.4923(7) 0.2526(6) 0.5050(5)
C132 C 0.5527(7) 0.2593(6) 0.4982(5)
C133 C 0.5982(7) 0.2180(6) 0.4863(5)
C134 C 0.5828(8) 0.1694(7) 0.4797(5)
C135 C 0.5225(6) 0.1631(6) 0.4838(5)
C136 C 0.4772(6) 0.2053(6) 0.4963(5)
C137 C 0.3879(9) 0.1759(8) 0.5391(6)
C138 C 0.5056(6) 0.1089(6) 0.4790(4)
C139 C 0.6366(10) -0.0608(7) 0.5588(6)
C140 C 0.6751(17) -0.1139(12) 0.5788(7)
C141 C 0.717(2) -0.1427(17) 0.5417(10)
C142 C 0.751(3) -0.198(2) 0.5612(14)
C143 C 0.8030(9) 0.0491(10) 0.5530(7)
C144 C 0.840(2) -0.0056(14) 0.5705(10)
C145 C 0.882(4) -0.031(3) 0.5321(15)
C146 C 0.7071(11) 0.1949(11) 0.4451(6)
C147 C 0.6869(16) 0.2160(19) 0.4000(9)
C148 C 0.739(2) 0.196(4) 0.3643(9)
C149 C 0.716(3) 0.212(4) 0.3194(11)
C150 C 0.761(5) 0.179(5) 0.2854(18)
C151 C 0.5519(9) 0.0777(7) 0.4443(5)
C152 C 0.5428(11) 0.1080(12) 0.3980(6)
C153 C 0.5978(12) 0.0853(14) 0.3643(6)
C154 C 0.5871(13) 0.1137(13) 0.3180(7)
C155 C 0.6389(16) 0.0888(15) 0.2844(8)
C157 C 0.1020(8) 0.4067(6) 0.5675(5)
C158 C 0.0686(7) 0.4586(5) 0.5734(4)
C159 C 0.0695(7) 0.5006(5) 0.5394(4)
C160 C 0.1057(8) 0.4897(6) 0.4990(5)
C161 C 0.1385(6) 0.4371(5) 0.4924(4)
C162 C 0.1378(6) 0.3963(5) 0.5277(4)
C163 C 0.2304(10) 0.3311(8) 0.5235(6)
C164 C 0.1774(6) 0.4240(5) 0.4482(4)
C165 C 0.3384(7) 0.3967(6) 0.4743(5)
C166 C 0.2820(6) 0.3891(6) 0.4683(5)
C167 C 0.2428(6) 0.4304(5) 0.4477(4)
C168 C 0.2622(7) 0.4799(6) 0.4325(5)
C169 C 0.3189(6) 0.4884(5) 0.4378(5)
C170 C 0.3576(6) 0.4462(6) 0.4590(5)
C171 C 0.4314(10) 0.4745(9) 0.4928(6)
C172 C 0.3381(7) 0.5450(6) 0.4246(4)
C173 C 0.3604(6) 0.5868(6) 0.5318(4)
C174 C 0.3714(6) 0.5634(6) 0.4935(5)
C175 C 0.3280(6) 0.5755(6) 0.4650(5)
C176 C 0.2737(7) 0.6113(7) 0.4764(5)
C177 C 0.2628(6) 0.6356(6) 0.5145(4)
C178 C 0.3066(6) 0.6229(6) 0.5421(4)
C179 C 0.2640(11) 0.6268(9) 0.6170(6)
C180 C 0.2013(8) 0.6742(5) 0.5281(4)
C181 C 0.1261(6) 0.5956(6) 0.6288(4)
C182 C 0.1609(7) 0.6294(6) 0.6029(4)
C183 C 0.1563(6) 0.6416(6) 0.5582(4)
C184 C 0.1154(7) 0.6192(7) 0.5416(4)
C185 C 0.0796(7) 0.5854(5) 0.5674(4)
C186 C 0.0845(6) 0.5743(6) 0.6118(4)
C187 C 0.0571(9) 0.4886(8) 0.6440(5)
C188 C 0.0375(6) 0.5587(6) 0.5485(4)
C189 C 0.1490(9) 0.4580(7) 0.4089(6)
C190 C 0.1815(13) 0.4323(11) 0.3662(6)
C191 C 0.1520(16) 0.4646(12) 0.3270(8)
C192 C 0.107(4) 0.433(3) 0.315(3)
C193 C 0.081(3) 0.463(3) 0.273(2)
C194 C 0.3053(10) 0.5785(8) 0.3873(6)
C195 C 0.3241(15) 0.5484(13) 0.3459(7)
C196 C 0.286(2) 0.5799(11) 0.3099(9)
C197 C 0.288(2) 0.5425(15) 0.2753(13)
C198 C 0.245(2) 0.5726(18) 0.2418(12)
C199 C 0.1734(10) 0.7068(7) 0.4883(6)
C200 C 0.1209(15) 0.7524(14) 0.5043(8)
C201 C 0.100(3) 0.790(2) 0.4642(12)
C202 C 0.0138(8) 0.5936(7) 0.5073(5)
C203 C -0.0291(11) 0.6461(8) 0.5220(5)
C204 C -0.0338(13) 0.6900(8) 0.4827(6)
C205 C -0.0756(16) 0.7416(10) 0.4982(8)
C206 C -0.0815(16) 0.7859(10) 0.4589(10)
C208 C 0.0751(8) 0.4425(6) 0.9026(6)
C209 C 0.0990(7) 0.4412(6) 0.9411(5)
C210 C 0.0922(6) 0.4876(5) 0.9606(4)
C211 C 0.0625(7) 0.5370(6) 0.9399(5)
C212 C 0.0386(6) 0.5387(5) 0.9012(4)
C213 C 0.0458(7) 0.4907(5) 0.8827(5)
C214 C 0.0560(9) 0.5076(8) 0.8045(7)
C215 C 0.0048(6) 0.5920(6) 0.8784(4)
C216 C 0.1161(6) 0.6203(6) 0.7741(4)
C217 C 0.0693(7) 0.6007(6) 0.8034(4)
C218 C 0.0512(7) 0.6197(6) 0.8438(4)
C219 C 0.0798(8) 0.6592(7) 0.8538(5)
C220 C 0.1270(6) 0.6791(6) 0.8244(4)
C221 C 0.1442(7) 0.6594(6) 0.7843(4)
C222 C 0.2474(11) 0.6637(9) 0.7518(7)
C223 C 0.1634(7) 0.7179(5) 0.8373(4)
C224 C 0.3266(6) 0.6377(6) 0.8352(4)
C225 C 0.2741(7) 0.6708(6) 0.8221(4)
C226 C 0.2231(7) 0.6855(6) 0.8529(4)
C227 C 0.2263(7) 0.6671(7) 0.8965(5)
C228 C 0.2790(6) 0.6345(6) 0.9102(5)
C229 C 0.3295(6) 0.6201(6) 0.8791(4)
C230 C 0.3895(10) 0.5336(9) 0.8991(7)
C231 C 0.2814(6) 0.6117(6) 0.9586(5)
C232 C 0.2947(7) 0.4584(6) 0.9579(5)
C233 C 0.3103(6) 0.5098(6) 0.9549(5)
C234 C 0.2655(6) 0.5543(6) 0.9670(4)
C235 C 0.2066(7) 0.5461(6) 0.9819(5)
C236 C 0.1908(6) 0.4943(5) 0.9860(5)
C237 C 0.2360(6) 0.4507(6) 0.9742(5)
C238 C 0.1933(10) 0.3819(8) 0.9494(6)
C239 C 0.1245(6) 0.4855(5) 1.0008(4)
C240 C -0.0318(8) 0.6308(8) 0.9114(6)
C241 C -0.0741(14) 0.6774(11) 0.8866(8)
C242 C -0.1077(15) 0.7185(11) 0.9186(11)
C243 C -0.164(2) 0.698(2) 0.945(2)
C244 C -0.201(3) 0.741(3) 0.973(3)
C245 C 0.1245(10) 0.7545(7) 0.8716(6)
C246 C 0.0720(15) 0.7926(15) 0.8505(9)
C247 C 0.041(2) 0.8355(18) 0.8811(15)
C248 C 0.2403(9) 0.6501(8) 0.9899(6)
C249 C 0.2555(13) 0.6309(10) 1.0368(6)
C250 C 0.2207(16) 0.6742(9) 1.0670(6)
C251 C 0.2254(15) 0.6508(10) 1.1150(7)
C252 C 0.1873(17) 0.6923(13) 1.1448(8)
C253 C 0.0885(8) 0.5254(8) 1.0327(5)
C254 C 0.1166(15) 0.5113(9) 1.0766(7)
C255 C 0.0946(14) 0.5599(8) 1.1042(7)
C256 C 0.1155(15) 0.5426(10) 1.1497(7)
C257 C 0.0904(16) 0.5886(12) 1.1781(8)
Cl16? Cl 0.3111 0.2788 0.7428
loop_
_geom_bond_atom_site_label_1
_geom_bond_atom_site_label_2
_geom_bond_site_symmetry_1
_geom_bond_site_symmetry_2
Br1 C74 1_555 1_555
Br2 C123 1_555 1_555
Br3 C173 1_555 1_555
Br4 C224 1_555 1_555
Cl1 C57 1_555 1_555
Cl2 C57 1_555 1_555
Cl3 C57 1_555 1_555
Cl4 C106 1_555 1_555
Cl5 C106 1_555 1_555
Cl6 C106 1_555 1_555
Cl7 C156 1_555 1_555
Cl8 C156 1_555 1_555
Cl9 C156 1_555 1_555
Cl10 C207 1_555 1_555
Cl11 C207 1_555 1_555
Cl12 C207 1_555 1_555
Cl13 C258 1_555 1_555
Cl14 C258 1_555 1_555
Cl15 C258 1_555 1_555
O1 C1 1_555 1_555
O2 C2 1_555 1_555
O3 C3 1_555 1_555
O4 C4 1_555 1_555
O5 C10 1_555 1_555
O6 C11 1_555 1_555
O7 C13 1_555 1_555
O8 C13 1_555 1_555
O9 C19 1_555 1_555
O10 C20 1_555 1_555
O11 C22 1_555 1_555
O12 C22 1_555 1_555
O13 C28 1_555 1_555
O14 C29 1_555 1_555
O15 C31 1_555 1_555
O16 C31 1_555 1_555
O17 C37 1_555 1_555
O18 C6 1_555 1_555
O19 C40 1_555 1_555
O20 C40 1_555 1_555
O22 C63 1_555 1_555
O23 C64 1_555 1_555
O24 C71 1_555 1_555
O25 C72 1_555 1_555
O26 C79 1_555 1_555
O27 C80 1_555 1_555
O28 C87 1_555 1_555
O29 C59 1_555 1_555
O30 C112 1_555 1_555
O31 C113 1_555 1_555
O32 C120 1_555 1_555
O33 C121 1_555 1_555
O34 C128 1_555 1_555
O35 C129 1_555 1_555
O36 C136 1_555 1_555
O37 C108 1_555 1_555
O40 C162 1_555 1_555
O41 C163 1_555 1_555
O42 C170 1_555 1_555
O43 C171 1_555 1_555
O44 C178 1_555 1_555
O45 C179 1_555 1_555
O46 C186 1_555 1_555
O47 C158 1_555 1_555
O48 C213 1_555 1_555
O49 C214 1_555 1_555
O50 C221 1_555 1_555
O51 C222 1_555 1_555
O52 C229 1_555 1_555
O53 C230 1_555 1_555
O54 C237 1_555 1_555
O55 C209 1_555 1_555
O56 C260 1_555 1_555
O57 C262 1_555 1_555
O58 C264 1_555 1_555
O59 C266 1_555 1_555
C1 C5 1_555 1_555
C2 C14 1_555 1_555
C3 C23 1_555 1_555
C4 C32 1_555 1_555
C5 C6 1_555 1_555
C6 C7 1_555 1_555
C7 C8 1_555 1_555
C8 C9 1_555 1_555
C9 C10 1_555 1_555
C10 C5 1_555 1_555
C11 O5 1_555 1_555
C12 C9 1_555 1_555
C14 C15 1_555 1_555
C15 O6 1_555 1_555
C16 C12 1_555 1_555
C17 C16 1_555 1_555
C18 C17 1_555 1_555
C19 C14 1_555 1_555
C20 O9 1_555 1_555
C21 C18 1_555 1_555
C23 C24 1_555 1_555
C24 O10 1_555 1_555
C25 C21 1_555 1_555
C26 C25 1_555 1_555
C27 C26 1_555 1_555
C28 C23 1_555 1_555
C29 O13 1_555 1_555
C30 C27 1_555 1_555
C32 C33 1_555 1_555
C33 O14 1_555 1_555
C34 C30 1_555 1_555
C35 C34 1_555 1_555
C36 C35 1_555 1_555
C37 C32 1_555 1_555
C38 O17 1_555 1_555
C39 C7 1_555 1_555
C41 C12 1_555 1_555
C42 C41 1_555 1_555
C43 C42 1_555 1_555
C44 C43 1_555 1_555
C45 C21 1_555 1_555
C46 C45 1_555 1_555
C47 C46 1_555 1_555
C48 C30 1_555 1_555
C49 C48 1_555 1_555
C50 C49 1_555 1_555
C51 C50 1_555 1_555
C52 C51 1_555 1_555
C53 C39 1_555 1_555
C54 C53 1_555 1_555
C55 C54 1_555 1_555
C56 C55 1_555 1_555
C58 O1 1_555 1_555
C59 C58 1_555 1_555
C60 C59 1_555 1_555
C61 C60 1_555 1_555
C62 C61 1_555 1_555
C63 C58 1_555 1_555
C64 O22 1_555 1_555
C65 C62 1_555 1_555
C66 O20 1_555 1_555
C67 O23 1_555 1_555
C68 C65 1_555 1_555
C69 C68 1_555 1_555
C70 C69 1_555 1_555
C71 C66 1_555 1_555
C72 O24 1_555 1_555
C73 C70 1_555 1_555
C74 C75 1_555 1_555
C75 O25 1_555 1_555
C76 C73 1_555 1_555
C77 C76 1_555 1_555
C78 C77 1_555 1_555
C79 C74 1_555 1_555
C80 O26 1_555 1_555
C81 C78 1_555 1_555
C82 O7 1_555 1_555
C83 O27 1_555 1_555
C84 C81 1_555 1_555
C85 C84 1_555 1_555
C86 C85 1_555 1_555
C87 C82 1_555 1_555
C88 O28 1_555 1_555
C89 C60 1_555 1_555
C90 C65 1_555 1_555
C91 C90 1_555 1_555
C92 C91 1_555 1_555
C93 C92 1_555 1_555
C94 C73 1_555 1_555
C95 C94 1_555 1_555
C96 C95 1_555 1_555
C97 C96 1_555 1_555
C98 C97 1_555 1_555
C99 C81 1_555 1_555
C100 C99 1_555 1_555
C101 C89 1_555 1_555
C102 C101 1_555 1_555
C103 C102 1_555 1_555
C104 C103 1_555 1_555
C105 C104 1_555 1_555
C107 O2 1_555 1_555
C108 C107 1_555 1_555
C109 C108 1_555 1_555
C110 C109 1_555 1_555
C111 C110 1_555 1_555
C112 C107 1_555 1_555
C113 O30 1_555 1_555
C114 C111 1_555 1_555
C115 O8 1_555 1_555
C116 O31 1_555 1_555
C117 C114 1_555 1_555
C118 C117 1_555 1_555
C119 C118 1_555 1_555
C120 C115 1_555 1_555
C121 O32 1_555 1_555
C122 C119 1_555 1_555
C123 C124 1_555 1_555
C124 O33 1_555 1_555
C125 C122 1_555 1_555
C126 C125 1_555 1_555
C127 C126 1_555 1_555
C128 C123 1_555 1_555
C129 O34 1_555 1_555
C130 C127 1_555 1_555
C131 O11 1_555 1_555
C132 O35 1_555 1_555
C133 C130 1_555 1_555
C134 C133 1_555 1_555
C135 C134 1_555 1_555
C136 C131 1_555 1_555
C137 O36 1_555 1_555
C138 C109 1_555 1_555
C139 C114 1_555 1_555
C140 C139 1_555 1_555
C141 C140 1_555 1_555
C142 C141 1_555 1_555
C143 C122 1_555 1_555
C144 C143 1_555 1_555
C145 C144 1_555 1_555
C146 C130 1_555 1_555
C147 C146 1_555 1_555
C148 C147 1_555 1_555
C149 C148 1_555 1_555
C150 C149 1_555 1_555
C151 C138 1_555 1_555
C152 C151 1_555 1_555
C153 C152 1_555 1_555
C154 C153 1_555 1_555
C155 C154 1_555 1_555
C157 O3 1_555 1_555
C158 C157 1_555 1_555
C159 C158 1_555 1_555
C160 C159 1_555 1_555
C161 C160 1_555 1_555
C162 C157 1_555 1_555
C163 O40 1_555 1_555
C164 C161 1_555 1_555
C165 O12 1_555 1_555
C166 O41 1_555 1_555
C167 C164 1_555 1_555
C168 C167 1_555 1_555
C169 C168 1_555 1_555
C170 C165 1_555 1_555
C171 O42 1_555 1_555
C172 C169 1_555 1_555
C173 C174 1_555 1_555
C174 O43 1_555 1_555
C175 C172 1_555 1_555
C176 C175 1_555 1_555
C177 C176 1_555 1_555
C178 C173 1_555 1_555
C179 O44 1_555 1_555
C180 C177 1_555 1_555
C181 O15 1_555 1_555
C182 O45 1_555 1_555
C183 C180 1_555 1_555
C184 C183 1_555 1_555
C185 C184 1_555 1_555
C186 C181 1_555 1_555
C187 O46 1_555 1_555
C188 C159 1_555 1_555
C189 C164 1_555 1_555
C190 C189 1_555 1_555
C191 C190 1_555 1_555
C192 C191 1_555 1_555
C193 C192 1_555 1_555
C194 C172 1_555 1_555
C195 C194 1_555 1_555
C196 C195 1_555 1_555
C197 C196 1_555 1_555
C198 C197 1_555 1_555
C199 C180 1_555 1_555
C200 C199 1_555 1_555
C201 C200 1_555 1_555
C202 C188 1_555 1_555
C203 C202 1_555 1_555
C204 C203 1_555 1_555
C205 C204 1_555 1_555
C206 C205 1_555 1_555
C208 O4 1_555 1_555
C209 C208 1_555 1_555
C210 C209 1_555 1_555
C211 C210 1_555 1_555
C212 C211 1_555 1_555
C213 C208 1_555 1_555
C214 O48 1_555 1_555
C215 C212 1_555 1_555
C216 O16 1_555 1_555
C217 O49 1_555 1_555
C218 C215 1_555 1_555
C219 C218 1_555 1_555
C220 C219 1_555 1_555
C221 C216 1_555 1_555
C222 O50 1_555 1_555
C223 C220 1_555 1_555
C224 C225 1_555 1_555
C225 O51 1_555 1_555
C226 C223 1_555 1_555
C227 C226 1_555 1_555
C228 C227 1_555 1_555
C229 C224 1_555 1_555
C230 O52 1_555 1_555
C231 C228 1_555 1_555
C232 O19 1_555 1_555
C233 O53 1_555 1_555
C234 C231 1_555 1_555
C235 C234 1_555 1_555
C236 C235 1_555 1_555
C237 C232 1_555 1_555
C238 O54 1_555 1_555
C239 C210 1_555 1_555
C240 C215 1_555 1_555
C241 C240 1_555 1_555
C242 C241 1_555 1_555
C243 C242 1_555 1_555
C244 C243 1_555 1_555
C245 C223 1_555 1_555
C246 C245 1_555 1_555
C247 C246 1_555 1_555
C248 C231 1_555 1_555
C249 C248 1_555 1_555
C250 C249 1_555 1_555
C251 C250 1_555 1_555
C252 C251 1_555 1_555
C253 C239 1_555 1_555
C254 C253 1_555 1_555
C255 C254 1_555 1_555
C256 C255 1_555 1_555
C257 C256 1_555 1_555
C259 C260 1_555 1_555
C261 C262 1_555 1_555
C263 C264 1_555 1_555
C265 C266 1_555 1_555
O18 C38 1_555 1_555
O29 C88 1_555 1_555
O37 C137 1_555 1_555
O47 C187 1_555 1_555
O55 C238 1_555 1_555
C15 C16 1_555 1_555
C18 C19 1_555 1_555
C24 C25 1_555 1_555
C27 C28 1_555 1_555
C33 C34 1_555 1_555
C36 C37 1_555 1_555
C36 C39 1_555 1_555
C62 C63 1_555 1_555
C66 C67 1_555 1_555
C67 C68 1_555 1_555
C70 C71 1_555 1_555
C75 C76 1_555 1_555
C78 C79 1_555 1_555
C82 C83 1_555 1_555
C83 C84 1_555 1_555
C86 C87 1_555 1_555
C86 C89 1_555 1_555
C111 C112 1_555 1_555
C115 C116 1_555 1_555
C116 C117 1_555 1_555
C119 C120 1_555 1_555
C124 C125 1_555 1_555
C127 C128 1_555 1_555
C131 C132 1_555 1_555
C132 C133 1_555 1_555
C135 C136 1_555 1_555
C135 C138 1_555 1_555
C161 C162 1_555 1_555
C165 C166 1_555 1_555
C166 C167 1_555 1_555
C169 C170 1_555 1_555
C174 C175 1_555 1_555
C177 C178 1_555 1_555
C181 C182 1_555 1_555
C182 C183 1_555 1_555
C185 C186 1_555 1_555
C185 C188 1_555 1_555
C212 C213 1_555 1_555
C216 C217 1_555 1_555
C217 C218 1_555 1_555
C220 C221 1_555 1_555
C225 C226 1_555 1_555
C228 C229 1_555 1_555
C232 C233 1_555 1_555
C233 C234 1_555 1_555
C236 C237 1_555 1_555
C236 C239 1_555 1_555

#END
