
#######################################################################
#
#                 Cambridge Crystallographic Data Centre
#                                CCDC 
#
#######################################################################
#
# If this CIF has been generated from an entry in the Cambridge 
# Structural Database, then it will include bibliographic, chemical, 
# crystal, experimental, refinement or atomic coordinate data resulting 
# from the CCDC's data processing and validation procedures.
#
#######################################################################

data_FEMZEF
_chemical_formula_moiety         'C26 H25 N4 1+,Cl1 1-'
_chemical_name_systematic        
"2-[([1H,1'H-[2,2'-bipyrrole]]-5-yl)(2,4,6-trimethylphenyl)methylidene]-5-(1H-pyrrol-2-yl)-2H-pyrrol-1-ium chloride"
_symmetry_cell_setting           monoclinic
_symmetry_space_group_name_H-M   'I 2/a'
_symmetry_Int_Tables_number      15
_space_group_name_Hall           '-I 2ya'
loop_
_symmetry_equiv_pos_site_id
_symmetry_equiv_pos_as_xyz
1 x,y,z
2 1/2-x,y,-z
3 1/2+x,1/2+y,1/2+z
4 -x,1/2+y,1/2-z
5 -x,-y,-z
6 1/2+x,-y,z
7 1/2-x,1/2-y,1/2-z
8 x,1/2-y,1/2+z
_cell_length_a                   7.850(9)
_cell_length_b                   22.69(3)
_cell_length_c                   12.772(19)
_cell_angle_alpha                90
_cell_angle_beta                 94.72(6)
_cell_angle_gamma                90
_cell_volume                     2267.19
_exptl_crystal_colour            'metallic greenish green'
_exptl_crystal_description       cube
_cell_formula_units_Z            4
loop_
_atom_site_label
_atom_site_type_symbol
_atom_site_fract_x
_atom_site_fract_y
_atom_site_fract_z
N1 N -0.12655(16) -0.40838(5) -0.10576(9)
H1 H -0.0378(19) -0.4161(6) -0.0750(11)
N2 N 0.05440(13) -0.29418(5) -0.05384(7)
H2 H 0.1210 -0.3231 -0.0358
C1 C -0.2416(2) -0.44938(7) -0.14094(12)
H3 H -0.2265 -0.4900 -0.1362
C2 C -0.3830(2) -0.42158(7) -0.18443(13)
H4 H -0.4811 -0.4395 -0.2154
C3 C -0.35389(19) -0.36136(7) -0.17413(11)
H5 H -0.4297 -0.3315 -0.1964
C4 C -0.19263(16) -0.35382(6) -0.12503(9)
C5 C -0.10657(16) -0.29982(5) -0.09933(9)
C6 C -0.17184(18) -0.24262(6) -0.11739(10)
H6 H -0.2799 -0.2332 -0.1482
C7 C -0.04896(17) -0.20365(6) -0.08177(10)
H7 H -0.0597 -0.1628 -0.0839
C8 C 0.09772(15) -0.23485(5) -0.04104(8)
C9 C 0.2500 -0.20959(7) 0.0000
C10 C 0.2500 -0.14328(7) 0.0000
C11 C 0.29494(17) -0.11271(6) -0.08857(11)
C12 C 0.3469(2) -0.14437(8) -0.18457(12)
H8 H 0.4653 -0.1551 -0.1742
H9 H 0.3297 -0.1189 -0.2446
H10 H 0.2787 -0.1792 -0.1961
C13 C 0.29297(19) -0.05167(7) -0.08646(14)
H11 H 0.3217 -0.0311 -0.1455
C14 C 0.2500 -0.02035(9) 0.0000
C15 C 0.2500 0.04547(10) 0.0000
N1A N 0.62655(16) -0.40838(5) 0.10576(9)
H1A H 0.5378(19) -0.4161(6) 0.0750(11)
N2A N 0.44560(13) -0.29418(5) 0.05384(7)
H2A H 0.3790 -0.3231 0.0358
C1A C 0.7416(2) -0.44938(7) 0.14094(12)
H3A H 0.7265 -0.4900 0.1362
C2A C 0.8830(2) -0.42158(7) 0.18443(13)
H4A H 0.9811 -0.4395 0.2154
C3A C 0.85389(19) -0.36136(7) 0.17413(11)
H5A H 0.9297 -0.3315 0.1964
C4A C 0.69263(16) -0.35382(6) 0.12503(9)
C5A C 0.60657(16) -0.29982(5) 0.09933(9)
C6A C 0.67184(18) -0.24262(6) 0.11739(10)
H6A H 0.7799 -0.2332 0.1482
C7A C 0.54896(17) -0.20365(6) 0.08177(10)
H7A H 0.5597 -0.1628 0.0839
C8A C 0.40228(15) -0.23485(5) 0.04104(8)
C11A C 0.20506(17) -0.11271(6) 0.08857(11)
C12A C 0.1531(2) -0.14437(8) 0.18457(12)
H8A H 0.0347 -0.1551 0.1742
H9A H 0.1703 -0.1189 0.2446
H10A H 0.2213 -0.1792 0.1961
C13A C 0.20703(19) -0.05167(7) 0.08646(14)
H11A H 0.1783 -0.0311 0.1455
Cl1 Cl 0.2500 -0.41175(2) 0.0000
H12? H 0.3549 0.0593 -0.0250
H13? H 0.2369 0.0600 0.0683
H14? H 0.1556 0.0594 -0.0479
loop_
_geom_bond_atom_site_label_1
_geom_bond_atom_site_label_2
_geom_bond_site_symmetry_1
_geom_bond_site_symmetry_2
N1 H1 1_555 1_555
N2 H2 1_555 1_555
C1 N1 1_555 1_555
H3 C1 1_555 1_555
C2 C1 1_555 1_555
H4 C2 1_555 1_555
C3 C2 1_555 1_555
H5 C3 1_555 1_555
C4 N1 1_555 1_555
C5 N2 1_555 1_555
C6 C5 1_555 1_555
H6 C6 1_555 1_555
C7 C6 1_555 1_555
H7 C7 1_555 1_555
C8 N2 1_555 1_555
C9 C8 1_555 1_555
C10 C9 1_555 1_555
C11 C10 1_555 1_555
C12 C11 1_555 1_555
H8 C12 1_555 1_555
H9 C12 1_555 1_555
H10 C12 1_555 1_555
C13 C11 1_555 1_555
H11 C13 1_555 1_555
C14 C13 1_555 1_555
C15 C14 1_555 1_555
N1A H1A 1_555 1_555
N2A H2A 1_555 1_555
C1A N1A 1_555 1_555
H3A C1A 1_555 1_555
C2A C1A 1_555 1_555
H4A C2A 1_555 1_555
C3A C2A 1_555 1_555
H5A C3A 1_555 1_555
C4A N1A 1_555 1_555
C5A N2A 1_555 1_555
C6A C5A 1_555 1_555
H6A C6A 1_555 1_555
C7A C6A 1_555 1_555
H7A C7A 1_555 1_555
C8A C9 1_555 1_555
C11A C10 1_555 1_555
C12A C11A 1_555 1_555
H8A C12A 1_555 1_555
H9A C12A 1_555 1_555
H10A C12A 1_555 1_555
C13A C14 1_555 1_555
H11A C13A 1_555 1_555
C3 C4 1_555 1_555
C4 C5 1_555 1_555
C7 C8 1_555 1_555
N2A C8A 1_555 1_555
C3A C4A 1_555 1_555
C4A C5A 1_555 1_555
C7A C8A 1_555 1_555
C11A C13A 1_555 1_555

#END
