
#######################################################################
#
#                 Cambridge Crystallographic Data Centre
#                                CCDC 
#
#######################################################################
#
# If this CIF has been generated from an entry in the Cambridge 
# Structural Database, then it will include bibliographic, chemical, 
# crystal, experimental, refinement or atomic coordinate data resulting 
# from the CCDC's data processing and validation procedures.
#
#######################################################################

data_FENWOL
_chemical_formula_moiety         'C21 H29 Br1 O3'
_chemical_name_systematic        16\b-Bromo-17\a-hydroxypregn-4-ene-3,20-dione
_symmetry_cell_setting           monoclinic
_symmetry_space_group_name_H-M   'C 2'
_symmetry_Int_Tables_number      5
_space_group_name_Hall           'C 2y'
loop_
_symmetry_equiv_pos_site_id
_symmetry_equiv_pos_as_xyz
1 x,y,z
2 -x,y,-z
3 1/2+x,1/2+y,z
4 1/2-x,1/2+y,-z
_cell_length_a                   22.565(7)
_cell_length_b                   9.393(3)
_cell_length_c                   21.052(7)
_cell_angle_alpha                90
_cell_angle_beta                 115.682(8)
_cell_angle_gamma                90
_cell_volume                     4021.25
_exptl_crystal_colour            colorless
_exptl_crystal_description       block
_cell_formula_units_Z            8
_exptl_crystal_recrystallization_method acetone
loop_
_atom_site_label
_atom_site_type_symbol
_atom_site_fract_x
_atom_site_fract_y
_atom_site_fract_z
Br1 Br 0.43123(3) 0.25640(7) 0.02031(3)
O1 O 0.25906(19) -0.3337(5) 0.39598(18)
O2 O 0.41558(19) 0.5390(4) 0.14409(19)
O3 O 0.27481(15) 0.3550(4) 0.05811(15)
H1 H 0.2649 0.4089 0.0826
C1 C 0.3261(3) -0.0075(5) 0.3614(2)
H3 H 0.3522 0.0715 0.3891
H4 H 0.2820 0.0277 0.3328
C2 C 0.3228(3) -0.1232(6) 0.4116(3)
H5 H 0.3671 -0.1478 0.4452
H6 H 0.3000 -0.0856 0.4378
C3 C 0.2887(3) -0.2532(7) 0.3735(3)
C4 C 0.2947(2) -0.2857(6) 0.3086(2)
H7 H 0.2743 -0.3675 0.2840
C5 C 0.3276(2) -0.2053(5) 0.2825(2)
C6 C 0.3399(3) -0.2607(6) 0.2214(2)
H8 H 0.3857 -0.2877 0.2385
H9 H 0.3133 -0.3448 0.2018
C7 C 0.3235(3) -0.1497(5) 0.1644(3)
H10 H 0.2763 -0.1352 0.1420
H11 H 0.3363 -0.1851 0.1289
C8 C 0.3572(2) -0.0071(5) 0.1916(2)
H12 H 0.4049 -0.0220 0.2127
C9 C 0.3378(2) 0.0476(5) 0.2500(2)
H13 H 0.2897 0.0543 0.2278
C10 C 0.3560(2) -0.0614(5) 0.3122(2)
C11 C 0.3631(3) 0.1984(5) 0.2749(2)
H14 H 0.4104 0.1945 0.3023
H15 H 0.3444 0.2314 0.3060
C12 C 0.3470(3) 0.3077(5) 0.2153(2)
H16 H 0.3683 0.3975 0.2348
H17 H 0.2999 0.3239 0.1920
C13 C 0.3708(2) 0.2533(6) 0.16113(19)
C14 C 0.3462(2) 0.3358(5) 0.0901(2)
C15 C 0.3535(2) 0.2239(5) 0.0393(2)
H18 H 0.3141 0.2283 -0.0056
C16 C 0.3560(3) 0.0755(5) 0.0722(2)
H19 H 0.3238 0.0119 0.0386
H20 H 0.3993 0.0333 0.0881
C17 C 0.3398(2) 0.1060(5) 0.1350(2)
H21 H 0.2921 0.1191 0.1152
C18 C 0.4316(3) -0.0779(6) 0.3549(3)
H22 H 0.4408 -0.1507 0.3899
H23 H 0.4502 0.0107 0.3775
H24 H 0.4506 -0.1040 0.3236
C19 C 0.4474(2) 0.2438(6) 0.1963(2)
H25 H 0.4657 0.3368 0.2117
H26 H 0.4620 0.2080 0.1628
H27 H 0.4617 0.1808 0.2361
C20 C 0.3753(3) 0.4851(6) 0.0911(3)
C21 C 0.3464(3) 0.5675(6) 0.0220(3)
H28 H 0.3115 0.6276 0.0206
H29 H 0.3295 0.5018 -0.0168
H30 H 0.3801 0.6250 0.0186
Br2 Br 0.07052(4) -0.31301(7) 0.42330(3)
O4 O 0.20637(18) 0.5286(4) 0.11173(17)
O5 O 0.0828(2) 0.0739(6) 0.5140(2)
O6 O 0.20916(17) -0.0036(4) 0.48219(16)
H2 H 0.2179 0.0595 0.5118
C22 C 0.1278(3) 0.4831(6) 0.2246(3)
H31 H 0.1032 0.5407 0.2432
H32 H 0.1719 0.4717 0.2618
C23 C 0.1321(3) 0.5635(6) 0.1638(2)
H33 H 0.0881 0.5850 0.1282
H34 H 0.1552 0.6527 0.1809
C24 C 0.1677(3) 0.4756(6) 0.1320(2)
C25 C 0.1539(3) 0.3231(6) 0.1271(2)
H35 H 0.1703 0.2670 0.1020
C26 C 0.1188(2) 0.2590(7) 0.1567(2)
C27 C 0.1013(3) 0.1036(6) 0.1440(3)
H36 H 0.1221 0.0637 0.1161
H37 H 0.0541 0.0945 0.1169
C28 C 0.1230(3) 0.0169(6) 0.2130(3)
H38 H 0.1057 -0.0792 0.2020
H39 H 0.1706 0.0109 0.2362
C29 C 0.0985(2) 0.0858(5) 0.2621(2)
H40 H 0.0505 0.0786 0.2410
C30 C 0.1179(2) 0.2443(6) 0.2744(2)
H41 H 0.1661 0.2464 0.2965
C31 C 0.0955(3) 0.3363(6) 0.2056(2)
C32 C 0.0968(3) 0.3122(6) 0.3280(2)
H42 H 0.0492 0.3159 0.3076
H43 H 0.1131 0.4092 0.3373
C33 C 0.1225(3) 0.2296(5) 0.3985(2)
H44 H 0.1701 0.2368 0.4224
H45 H 0.1048 0.2720 0.4286
C34 C 0.1027(2) 0.0732(5) 0.3863(2)
C35 C 0.1386(2) -0.0297(6) 0.4496(2)
C36 C 0.1337(3) -0.1766(6) 0.4155(3)
H46 H 0.1774 -0.2205 0.4373
C37 C 0.1162(3) -0.1515(6) 0.3363(2)
H47 H 0.1450 -0.2052 0.3220
H48 H 0.0709 -0.1774 0.3065
C38 C 0.1269(2) 0.0090(5) 0.3337(2)
H49 H 0.1746 0.0237 0.3545
C39 C 0.0200(3) 0.3511(6) 0.1674(3)
H50 H 0.0080 0.4050 0.1249
H51 H 0.0045 0.3994 0.1976
H52 H 0.0004 0.2583 0.1561
C40 C 0.0263(2) 0.0573(7) 0.3583(3)
H53 H 0.0116 0.1137 0.3867
H54 H 0.0156 -0.0408 0.3607
H55 H 0.0050 0.0894 0.3103
C41 C 0.1186(3) -0.0197(7) 0.5123(3)
C42 C 0.1534(4) -0.1208(7) 0.5732(3)
H56 H 0.1837 -0.0684 0.6133
H57 H 0.1769 -0.1910 0.5600
H58 H 0.1215 -0.1672 0.5850
loop_
_geom_bond_atom_site_label_1
_geom_bond_atom_site_label_2
_geom_bond_site_symmetry_1
_geom_bond_site_symmetry_2
Br1 C15 1_555 1_555
Br2 C36 1_555 1_555
O1 C3 1_555 1_555
O2 C20 1_555 1_555
O3 H1 1_555 1_555
O4 C24 1_555 1_555
O5 C41 1_555 1_555
O6 H2 1_555 1_555
C1 H3 1_555 1_555
H4 C1 1_555 1_555
C2 C1 1_555 1_555
H5 C2 1_555 1_555
H6 C2 1_555 1_555
C3 C2 1_555 1_555
C4 C3 1_555 1_555
H7 C4 1_555 1_555
C5 C4 1_555 1_555
C6 C5 1_555 1_555
H8 C6 1_555 1_555
H9 C6 1_555 1_555
C7 C6 1_555 1_555
H10 C7 1_555 1_555
H11 C7 1_555 1_555
C8 C7 1_555 1_555
H12 C8 1_555 1_555
C9 C8 1_555 1_555
H13 C9 1_555 1_555
C10 C1 1_555 1_555
C11 C9 1_555 1_555
H14 C11 1_555 1_555
H15 C11 1_555 1_555
C12 C11 1_555 1_555
H16 C12 1_555 1_555
H17 C12 1_555 1_555
C13 C12 1_555 1_555
C14 O3 1_555 1_555
C15 C14 1_555 1_555
H18 C15 1_555 1_555
C16 C15 1_555 1_555
H19 C16 1_555 1_555
H20 C16 1_555 1_555
C17 C8 1_555 1_555
H21 C17 1_555 1_555
C18 C10 1_555 1_555
H22 C18 1_555 1_555
H23 C18 1_555 1_555
H24 C18 1_555 1_555
C19 C13 1_555 1_555
H25 C19 1_555 1_555
H26 C19 1_555 1_555
H27 C19 1_555 1_555
C20 C14 1_555 1_555
C21 C20 1_555 1_555
H28 C21 1_555 1_555
H29 C21 1_555 1_555
H30 C21 1_555 1_555
C22 H31 1_555 1_555
H32 C22 1_555 1_555
C23 C22 1_555 1_555
H33 C23 1_555 1_555
H34 C23 1_555 1_555
C24 C23 1_555 1_555
C25 C24 1_555 1_555
H35 C25 1_555 1_555
C26 C25 1_555 1_555
C27 C26 1_555 1_555
H36 C27 1_555 1_555
H37 C27 1_555 1_555
C28 C27 1_555 1_555
H38 C28 1_555 1_555
H39 C28 1_555 1_555
C29 C28 1_555 1_555
H40 C29 1_555 1_555
C30 C29 1_555 1_555
H41 C30 1_555 1_555
C31 C22 1_555 1_555
C32 C30 1_555 1_555
H42 C32 1_555 1_555
H43 C32 1_555 1_555
C33 C32 1_555 1_555
H44 C33 1_555 1_555
H45 C33 1_555 1_555
C34 C33 1_555 1_555
C35 O6 1_555 1_555
C36 C35 1_555 1_555
H46 C36 1_555 1_555
C37 C36 1_555 1_555
H47 C37 1_555 1_555
H48 C37 1_555 1_555
C38 C29 1_555 1_555
H49 C38 1_555 1_555
C39 C31 1_555 1_555
H50 C39 1_555 1_555
H51 C39 1_555 1_555
H52 C39 1_555 1_555
C40 C34 1_555 1_555
H53 C40 1_555 1_555
H54 C40 1_555 1_555
H55 C40 1_555 1_555
C41 C35 1_555 1_555
C42 C41 1_555 1_555
H56 C42 1_555 1_555
H57 C42 1_555 1_555
H58 C42 1_555 1_555
C5 C10 1_555 1_555
C9 C10 1_555 1_555
C13 C14 1_555 1_555
C13 C17 1_555 1_555
C16 C17 1_555 1_555
C26 C31 1_555 1_555
C30 C31 1_555 1_555
C34 C35 1_555 1_555
C34 C38 1_555 1_555
C37 C38 1_555 1_555

#END
