
#######################################################################
#
#                 Cambridge Crystallographic Data Centre
#                                CCDC 
#
#######################################################################
#
# If this CIF has been generated from an entry in the Cambridge 
# Structural Database, then it will include bibliographic, chemical, 
# crystal, experimental, refinement or atomic coordinate data resulting 
# from the CCDC's data processing and validation procedures.
#
#######################################################################

data_FEPFIP
_chemical_formula_moiety         'C13 H17 N3 O4'
_chemical_name_systematic        
'N-(2-Methylamino-5-nitrobenzoyl) 2-hydroxymethylpyrrolidine'
_symmetry_cell_setting           orthorhombic
_symmetry_space_group_name_H-M   'P 21 21 21'
_symmetry_Int_Tables_number      19
_space_group_name_Hall           'P 2ac 2ab'
loop_
_symmetry_equiv_pos_site_id
_symmetry_equiv_pos_as_xyz
1 x,y,z
2 1/2-x,-y,1/2+z
3 1/2+x,1/2-y,-z
4 -x,1/2+y,1/2-z
_cell_length_a                   9.792(2)
_cell_length_b                   18.821(4)
_cell_length_c                   7.432(2)
_cell_angle_alpha                90
_cell_angle_beta                 90
_cell_angle_gamma                90
_cell_volume                     1369.68
_exptl_crystal_colour            yellow
_exptl_crystal_description       prism
_chemical_melting_point          166-168deg.C
_cell_formula_units_Z            4
loop_
_atom_site_label
_atom_site_type_symbol
_atom_site_fract_x
_atom_site_fract_y
_atom_site_fract_z
O1 O -0.8070(5) -0.2650(2) -0.4736(5)
O2 O -1.0980(4) -0.4915(2) -0.3114(6)
O3 O -0.9870(5) -0.5897(2) -0.3027(7)
O4 O -0.4549(4) -0.1759(3) -0.2582(5)
N1 N -0.7001(5) -0.2583(2) -0.2069(7)
N2 N -0.9911(6) -0.5248(3) -0.3111(9)
N3 N -0.4996(5) -0.3745(2) -0.3541(7)
C1 C -0.6799(8) -0.1607(4) -0.0107(9)
C2 C -0.6309(9) -0.2261(4) 0.0823(9)
C3 C -0.6597(7) -0.2887(3) -0.0312(9)
C4 C -0.7545(6) -0.2948(3) -0.3449(10)
C5 C -0.7445(6) -0.3757(3) -0.3297(9)
C6 C -0.8661(6) -0.4122(3) -0.3229(9)
C7 C -0.8619(6) -0.4857(3) -0.3174(9)
C8 C -0.7409(7) -0.5227(3) -0.3203(10)
C9 C -0.6216(6) -0.4865(3) -0.3309(10)
C10 C -0.6185(6) -0.4109(3) -0.3397(9)
C11 C -0.3673(6) -0.4105(4) -0.3681(9)
C12 C -0.6973(6) -0.1802(3) -0.2071(9)
C13 C -0.5816(7) -0.1544(3) -0.3275(9)
H1 H -0.6148 -0.1238 0.0023
H2 H -0.7647 -0.1461 0.0395
H3 H -0.5355 -0.2223 0.1024
H4 H -0.6768 -0.2308 0.1943
H5 H -0.5805 -0.3176 -0.0435
H6 H -0.7318 -0.3163 0.0182
H7 H -0.9508 -0.3877 -0.3229
H8 H -0.7407 -0.5731 -0.3148
H9 H -0.5380 -0.5121 -0.3326
H10 H -0.5023 -0.3240 -0.3547
H11 H -0.3528 -0.4388 -0.2639
H12 H -0.3667 -0.4398 -0.4719
H13 H -0.2968 -0.3760 -0.3773
H14 H -0.7822 -0.1624 -0.2499
H15 H -0.5936 -0.1739 -0.4446
H16 H -0.5847 -0.1041 -0.3343
H17 H -0.3946 -0.1629 -0.3588
loop_
_geom_bond_atom_site_label_1
_geom_bond_atom_site_label_2
_geom_bond_site_symmetry_1
_geom_bond_site_symmetry_2
O1 C4 1_555 1_555
O2 N2 1_555 1_555
O3 N2 1_555 1_555
O4 C13 1_555 1_555
N1 C3 1_555 1_555
N2 C7 1_555 1_555
N3 C10 1_555 1_555
C1 C2 1_555 1_555
C2 C3 1_555 1_555
C3 H5 1_555 1_555
C4 N1 1_555 1_555
C5 C4 1_555 1_555
C6 C5 1_555 1_555
C7 C6 1_555 1_555
C8 C7 1_555 1_555
C9 C8 1_555 1_555
C10 C5 1_555 1_555
C11 N3 1_555 1_555
C12 N1 1_555 1_555
C13 C12 1_555 1_555
H1 C1 1_555 1_555
H2 C1 1_555 1_555
H3 C2 1_555 1_555
H4 C2 1_555 1_555
H6 C3 1_555 1_555
H7 C6 1_555 1_555
H8 C8 1_555 1_555
H9 C9 1_555 1_555
H10 N3 1_555 1_555
H11 C11 1_555 1_555
H12 C11 1_555 1_555
H13 C11 1_555 1_555
H14 C12 1_555 1_555
H15 C13 1_555 1_555
H16 C13 1_555 1_555
H17 O4 1_555 1_555
C1 C12 1_555 1_555
C9 C10 1_555 1_555

#END
