
#######################################################################
#
#                 Cambridge Crystallographic Data Centre
#                                CCDC 
#
#######################################################################
#
# If this CIF has been generated from an entry in the Cambridge 
# Structural Database, then it will include bibliographic, chemical, 
# crystal, experimental, refinement or atomic coordinate data resulting 
# from the CCDC's data processing and validation procedures.
#
#######################################################################

data_FEPJOB01
_chemical_name_common            Acemetacin
_chemical_formula_moiety         'C21 H18 Cl1 N1 O6'
_chemical_name_systematic        
'(2-(1-(4-Chlorobenzoyl)-5-methoxy-2-methyl-1H-indol-3-yl)acetoxy)acetic acid'
_symmetry_cell_setting           monoclinic
_symmetry_space_group_name_H-M   'P 21'
_symmetry_Int_Tables_number      4
_space_group_name_Hall           'P 2yb'
loop_
_symmetry_equiv_pos_site_id
_symmetry_equiv_pos_as_xyz
1 x,y,z
2 -x,1/2+y,-z
_cell_length_a                   11.858(3)
_cell_length_b                   4.8452(9)
_cell_length_c                   16.785(3)
_cell_angle_alpha                90
_cell_angle_beta                 102.47(2)
_cell_angle_gamma                90
_cell_volume                     941.621
_exptl_crystal_colour            colorless
_exptl_crystal_description       needle
_chemical_melting_point          '421 K'
_cell_formula_units_Z            2
_chemical_properties_physical    moisture-sensitive
_exptl_crystal_recrystallization_method 'ethyl acetate'
loop_
_atom_site_label
_atom_site_type_symbol
_atom_site_fract_x
_atom_site_fract_y
_atom_site_fract_z
Cl1 Cl -0.2432(2) 1.1007(7) -0.05933(17)
O1 O 0.3540(5) 0.0842(14) 0.5459(3)
O2 O 0.5624(5) 0.8330(12) 0.2575(3)
C1 C 0.2669(8) 0.5989(19) 0.3886(5)
O3 O 0.4145(6) 0.5418(15) 0.2272(4)
C2 C 0.1464(8) 0.5799(19) 0.3759(5)
C3 C 0.1606(8) 0.2369(17) 0.4768(5)
H1 H 0.1259 0.1178 0.5077
O4 O 0.5791(6) 0.6420(14) 0.0541(4)
O5 O -0.0849(6) 0.7507(17) 0.3258(4)
C4 C 0.3018(8) -0.100(2) 0.5945(5)
H2 H 0.2521 0.0028 0.6218
H3 H 0.3610 -0.1891 0.6342
H4 H 0.2573 -0.2367 0.5599
C5 C -0.2006(8) 1.1759(19) 0.1034(7)
H5 H -0.2560 1.3149 0.0937
C6 C 0.2819(8) 0.2448(17) 0.4899(5)
C7 C 0.0930(8) 0.4002(19) 0.4195(5)
H6 H 0.0129 0.3904 0.4102
O6 O 0.5066(8) 1.0092(16) 0.1054(5)
C8 C 0.5596(8) 0.775(2) 0.1094(6)
C9 C -0.0885(9) 0.830(2) 0.0535(6)
H7 H -0.0702 0.7329 0.0101
N1 N 0.0999(6) 0.7684(15) 0.3106(4)
C10 C 0.4124(7) 0.8900(19) 0.3278(5)
H8 H 0.4113 1.0852 0.3148
H9 H 0.4639 0.8644 0.3807
C11 C 0.3342(8) 0.4256(16) 0.4459(5)
H10 H 0.4143 0.4318 0.4544
C12 C -0.0632(8) 0.9063(19) 0.1985(6)
C13 C 0.6117(8) 0.6915(18) 0.1981(5)
H11 H 0.6012 0.4945 0.2037
H12 H 0.6941 0.7275 0.2095
C14 C 0.4576(8) 0.7347(19) 0.2658(5)
C15 C -0.1463(8) 1.102(2) 0.1823(6)
H13 H -0.1680 1.1902 0.2258
C16 C -0.0149(9) 0.804(2) 0.2847(6)
C17 C 0.1812(7) 1.119(2) 0.2246(5)
H14 H 0.2527 1.2184 0.2305
H15 H 0.1211 1.2440 0.2313
H16 H 0.1617 1.0375 0.1713
C18 C 0.2943(7) 0.8017(17) 0.3329(5)
C19 C -0.1692(8) 1.034(2) 0.0393(6)
C20 C 0.1940(8) 0.8996(18) 0.2873(5)
C21 C -0.0331(8) 0.765(2) 0.1340(6)
H17 H 0.0235 0.6291 0.1442
H18 H 0.469(13) 1.07(4) 0.066(8)
loop_
_geom_bond_atom_site_label_1
_geom_bond_atom_site_label_2
_geom_bond_site_symmetry_1
_geom_bond_site_symmetry_2
Cl1 C19 1_555 1_555
O1 C4 1_555 1_555
O2 C13 1_555 1_555
C1 C2 1_555 1_555
O3 C14 1_555 1_555
C2 C7 1_555 1_555
C3 H1 1_555 1_555
O4 C8 1_555 1_555
O5 C16 1_555 1_555
C4 H2 1_555 1_555
H3 C4 1_555 1_555
H4 C4 1_555 1_555
C5 H5 1_555 1_555
C6 O1 1_555 1_555
C7 C3 1_555 1_555
H6 C7 1_555 1_555
O6 C8 1_555 1_555
C8 C13 1_555 1_555
C9 H7 1_555 1_555
N1 C2 1_555 1_555
C10 H8 1_555 1_555
H9 C10 1_555 1_555
C11 C1 1_555 1_555
H10 C11 1_555 1_555
C12 C15 1_555 1_555
C13 H11 1_555 1_555
H12 C13 1_555 1_555
C14 O2 1_555 1_555
C15 C5 1_555 1_555
H13 C15 1_555 1_555
C16 N1 1_555 1_555
C17 H14 1_555 1_555
H15 C17 1_555 1_555
H16 C17 1_555 1_555
C18 C1 1_555 1_555
C19 C5 1_555 1_555
C20 N1 1_555 1_555
C21 C9 1_555 1_555
H17 C21 1_555 1_555
H18 O6 1_555 1_555
C3 C6 1_555 1_555
C6 C11 1_555 1_555
C9 C19 1_555 1_555
C10 C14 1_555 1_555
C10 C18 1_555 1_555
C12 C16 1_555 1_555
C12 C21 1_555 1_555
C17 C20 1_555 1_555
C18 C20 1_555 1_555

#END
