
#######################################################################
#
#                 Cambridge Crystallographic Data Centre
#                                CCDC 
#
#######################################################################
#
# If this CIF has been generated from an entry in the Cambridge 
# Structural Database, then it will include bibliographic, chemical, 
# crystal, experimental, refinement or atomic coordinate data resulting 
# from the CCDC's data processing and validation procedures.
#
#######################################################################

data_FEPKUH
_chemical_formula_moiety         'C34 H44 O8'
_chemical_name_systematic        O,O'-Diacetylabsinthin
_symmetry_cell_setting           orthorhombic
_symmetry_space_group_name_H-M   'P 21 21 21'
_symmetry_Int_Tables_number      19
_space_group_name_Hall           'P 2ac 2ab'
loop_
_symmetry_equiv_pos_site_id
_symmetry_equiv_pos_as_xyz
1 x,y,z
2 1/2-x,-y,1/2+z
3 -x,1/2+y,1/2-z
4 1/2+x,1/2-y,-z
_cell_length_a                   9.9596(15)
_cell_length_b                   11.4051(18)
_cell_length_c                   28.487(4)
_cell_angle_alpha                90
_cell_angle_beta                 90
_cell_angle_gamma                90
_cell_volume                     3235.84
_exptl_crystal_colour            colorless
_chemical_melting_point          188deg.C(dec.)
_cell_formula_units_Z            4
loop_
_atom_site_label
_atom_site_type_symbol
_atom_site_fract_x
_atom_site_fract_y
_atom_site_fract_z
O1 O 0.6656(4) -0.3208(3) 1.02471(13)
O2 O 0.5898(3) -0.2032(3) 0.96936(11)
O3 O 0.6081(4) -0.2434(3) 0.72917(12)
O4 O 0.6928(3) -0.1187(2) 0.78125(10)
O5 O 0.2633(5) 0.3749(4) 0.97196(19)
O6 O 0.4540(4) 0.2927(3) 0.95071(12)
O7 O 0.9468(4) 0.4801(3) 0.76859(15)
O8 O 0.7910(3) 0.3882(2) 0.81301(10)
C1 C 0.5973(6) -0.2372(5) 1.01440(18)
C2 C 0.5155(5) -0.1619(4) 1.04620(17)
C3 C 0.4981(5) -0.0538(4) 1.01609(15)
C4 C 0.3799(5) 0.0245(4) 1.02727(15)
H1 H 0.3673 0.0265 1.0610
H2 H 0.2996 -0.0091 1.0135
C5 C 0.3963(5) 0.1511(4) 1.00922(15)
H3 H 0.3187 0.1961 1.0192
H4 H 0.4745 0.1852 1.0242
C6 C 0.4116(6) 0.1658(4) 0.95572(16)
C7 C 0.5361(5) 0.1074(4) 0.93406(16)
C8 C 0.5268(4) -0.0237(4) 0.92711(15)
C9 C 0.4945(5) -0.1060(4) 0.96709(17)
C10 C 0.5437(5) -0.0566(4) 0.88229(15)
C11 C 0.5742(5) 0.0454(4) 0.85080(15)
C12 C 0.5654(5) 0.1527(4) 0.88477(15)
C13 C 0.7038(5) 0.2164(4) 0.87754(15)
C14 C 0.8105(5) 0.1343(4) 0.89528(17)
C15 C 0.8190(5) 0.0420(4) 0.86626(14)
C16 C 0.7175(4) 0.0621(3) 0.82741(13)
C17 C 0.7116(5) 0.1996(4) 0.82368(15)
C18 C 0.8194(5) 0.2670(4) 0.79559(15)
C19 C 0.7782(6) 0.2696(4) 0.74346(15)
H5 H 0.6891 0.3036 0.7414
H6 H 0.8390 0.3219 0.7271
C20 C 0.7763(5) 0.1546(4) 0.71748(15)
H7 H 0.8680 0.1264 0.7155
H8 H 0.7463 0.1700 0.6857
C21 C 0.6904(6) 0.0561(4) 0.73721(15)
C22 C 0.7461(5) 0.0004(4) 0.78141(16)
C23 C 0.6528(5) -0.1477(4) 0.73752(17)
C24 C 0.6774(6) -0.0493(4) 0.70432(16)
C25 C 0.5800(6) -0.1469(5) 1.09359(17)
H9 H 0.5256 -0.0962 1.1126
H10 H 0.6676 -0.1131 1.0898
H11 H 0.5879 -0.2220 1.1086
C26 C 0.2829(5) 0.1372(4) 0.92940(17)
H12 H 0.2956 0.1518 0.8965
H13 H 0.2113 0.1856 0.9410
H14 H 0.2605 0.0562 0.9341
C27 C 0.3875(8) 0.3826(6) 0.9621(2)
C28 C 0.4524(6) 0.4965(4) 0.96217(19)
H15 H 0.3887 0.5556 0.9532
H16 H 0.5258 0.4961 0.9403
H17 H 0.4857 0.5133 0.9931
C29 C 0.5242(6) -0.1815(4) 0.86471(15)
H18 H 0.4660 -0.1809 0.8378
H19 H 0.4847 -0.2282 0.8891
H20 H 0.6096 -0.2141 0.8561
C30 C 0.9005(5) -0.0683(4) 0.87248(17)
H21 H 0.8414 -0.1348 0.8734
H22 H 0.9500 -0.0639 0.9013
H23 H 0.9618 -0.0765 0.8467
C31 C 0.9633(5) 0.2369(4) 0.80356(17)
H24 H 0.9870 0.2540 0.8355
H25 H 1.0186 0.2822 0.7828
H26 H 0.9770 0.1549 0.7975
C32 C 0.8548(6) 0.4826(4) 0.79535(19)
C33 C 0.7924(6) 0.5932(4) 0.8153(2)
H27 H 0.7183 0.6168 0.7959
H28 H 0.8584 0.6545 0.8160
H29 H 0.7611 0.5782 0.8466
C34 C 0.5731(6) -0.0393(5) 0.66590(18)
H30 H 0.4853 -0.0344 0.6797
H31 H 0.5778 -0.1071 0.6460
H32 H 0.5900 0.0299 0.6476
H33 H 0.435(2) -0.202(3) 1.0482(12)
H34 H 0.574(4) 0.002(4) 1.0202(15)
H35 H 0.612(3) 0.134(3) 0.9533(11)
H36 H 0.407(4) -0.138(3) 0.9600(13)
H37 H 0.520(3) 0.035(3) 0.8242(9)
H38 H 0.498(4) 0.203(3) 0.8747(12)
H39 H 0.712(5) 0.3000(19) 0.8866(13)
H40 H 0.844(4) 0.138(4) 0.9275(16)
H41 H 0.624(5) 0.228(4) 0.8071(15)
H42 H 0.598(2) 0.073(4) 0.7432(15)
H43 H 0.848(4) -0.001(3) 0.7787(14)
H44 H 0.766(3) -0.050(5) 0.6899(18)
loop_
_geom_bond_atom_site_label_1
_geom_bond_atom_site_label_2
_geom_bond_site_symmetry_1
_geom_bond_site_symmetry_2
O1 C1 1_555 1_555
O2 C1 1_555 1_555
O3 C23 1_555 1_555
O4 C22 1_555 1_555
O5 C27 1_555 1_555
O6 C6 1_555 1_555
O7 C32 1_555 1_555
O8 C18 1_555 1_555
C1 C2 1_555 1_555
C2 C3 1_555 1_555
C3 C4 1_555 1_555
C4 H1 1_555 1_555
H2 C4 1_555 1_555
C5 C4 1_555 1_555
H3 C5 1_555 1_555
H4 C5 1_555 1_555
C6 C5 1_555 1_555
C7 C6 1_555 1_555
C8 C7 1_555 1_555
C9 O2 1_555 1_555
C10 C8 1_555 1_555
C11 C10 1_555 1_555
C12 C7 1_555 1_555
C13 C12 1_555 1_555
C14 C13 1_555 1_555
C15 C14 1_555 1_555
C16 C11 1_555 1_555
C17 C13 1_555 1_555
C18 C17 1_555 1_555
C19 C18 1_555 1_555
H5 C19 1_555 1_555
H6 C19 1_555 1_555
C20 C19 1_555 1_555
H7 C20 1_555 1_555
H8 C20 1_555 1_555
C21 C20 1_555 1_555
C22 C16 1_555 1_555
C23 O4 1_555 1_555
C24 C21 1_555 1_555
C25 C2 1_555 1_555
H9 C25 1_555 1_555
H10 C25 1_555 1_555
H11 C25 1_555 1_555
C26 C6 1_555 1_555
H12 C26 1_555 1_555
H13 C26 1_555 1_555
H14 C26 1_555 1_555
C27 O6 1_555 1_555
C28 C27 1_555 1_555
H15 C28 1_555 1_555
H16 C28 1_555 1_555
H17 C28 1_555 1_555
C29 C10 1_555 1_555
H18 C29 1_555 1_555
H19 C29 1_555 1_555
H20 C29 1_555 1_555
C30 C15 1_555 1_555
H21 C30 1_555 1_555
H22 C30 1_555 1_555
H23 C30 1_555 1_555
C31 C18 1_555 1_555
H24 C31 1_555 1_555
H25 C31 1_555 1_555
H26 C31 1_555 1_555
C32 O8 1_555 1_555
C33 C32 1_555 1_555
H27 C33 1_555 1_555
H28 C33 1_555 1_555
H29 C33 1_555 1_555
C34 C24 1_555 1_555
H30 C34 1_555 1_555
H31 C34 1_555 1_555
H32 C34 1_555 1_555
H33 C2 1_555 1_555
H34 C3 1_555 1_555
H35 C7 1_555 1_555
H36 C9 1_555 1_555
H37 C11 1_555 1_555
H38 C12 1_555 1_555
H39 C13 1_555 1_555
H40 C14 1_555 1_555
H41 C17 1_555 1_555
H42 C21 1_555 1_555
H43 C22 1_555 1_555
H44 C24 1_555 1_555
C3 C9 1_555 1_555
C8 C9 1_555 1_555
C11 C12 1_555 1_555
C15 C16 1_555 1_555
C16 C17 1_555 1_555
C21 C22 1_555 1_555
C23 C24 1_555 1_555

#END
