
#######################################################################
#
#                 Cambridge Crystallographic Data Centre
#                                CCDC 
#
#######################################################################
#
# If this CIF has been generated from an entry in the Cambridge 
# Structural Database, then it will include bibliographic, chemical, 
# crystal, experimental, refinement or atomic coordinate data resulting 
# from the CCDC's data processing and validation procedures.
#
#######################################################################

data_FEPKOB
_chemical_formula_moiety         'C30 H40 O6,2(C6 H6)'
_chemical_name_systematic        '(+)-Absinthin benzene solvate'
_chemical_properties_biological  
'can relieve the inflammation caused by gastric ulcers in rats and stimulate regeneration of the stomach wall; stomach tonic; a constituent of Absinthium which is used in traditional Chinese medicine to treat acute bacillary dysentry'
_symmetry_cell_setting           orthorhombic
_symmetry_space_group_name_H-M   'P 21 21 21'
_symmetry_Int_Tables_number      19
_space_group_name_Hall           'P 2ac 2ab'
loop_
_symmetry_equiv_pos_site_id
_symmetry_equiv_pos_as_xyz
1 x,y,z
2 1/2-x,-y,1/2+z
3 -x,1/2+y,1/2-z
4 1/2+x,1/2-y,-z
_cell_length_a                   8.574(2)
_cell_length_b                   15.235(4)
_cell_length_c                   28.536(7)
_cell_angle_alpha                90
_cell_angle_beta                 90
_cell_angle_gamma                90
_cell_volume                     3727.51
_exptl_crystal_colour            colorless
_chemical_melting_point          165-166deg.C(dec.)
_cell_formula_units_Z            4
loop_
_atom_site_label
_atom_site_type_symbol
_atom_site_fract_x
_atom_site_fract_y
_atom_site_fract_z
O1 O 0.4659(4) 0.2290(2) -0.02842(12)
O2 O 0.5423(3) 0.14530(15) 0.03059(8)
O3 O 0.8468(2) 0.12866(12) 0.15366(9)
H1 H 0.8633 0.0763 0.1581
O4 O 0.3909(3) -0.31124(17) -0.00115(9)
O5 O 0.3281(3) -0.18699(13) 0.03477(7)
O6 O 0.0008(3) -0.04142(15) 0.15350(9)
H2 H -0.0091 -0.0556 0.1259
C1 C 0.5591(3) 0.11234(17) 0.16266(10)
H3 H 0.4739 0.1533 0.1694
C2 C 0.5074(3) 0.02120(18) 0.17950(10)
H4 H 0.5105 0.0120 0.2135
C3 C 0.6135(3) -0.03669(17) 0.15123(11)
H5 H 0.6571 -0.0893 0.1613
C4 C 0.6341(3) -0.00058(17) 0.11006(10)
C5 C 0.5469(3) 0.08702(16) 0.10998(10)
C6 C 0.6086(4) 0.15587(18) 0.07694(10)
H6 H 0.7221 0.1496 0.0748
C7 C 0.5700(4) 0.25156(17) 0.09082(12)
H7 H 0.4675 0.2541 0.1059
C8 C 0.6932(4) 0.28978(19) 0.12314(14)
H8 H 0.7942 0.2806 0.1086
H9 H 0.6766 0.3527 0.1248
C9 C 0.7017(4) 0.25504(19) 0.17284(14)
H10 H 0.6105 0.2760 0.1895
H11 H 0.7922 0.2810 0.1878
C10 C 0.7111(4) 0.15524(18) 0.17970(11)
C11 C 0.5639(4) 0.2965(2) 0.04350(15)
H12 H 0.6695 0.3158 0.0354
C12 C 0.5182(5) 0.2248(3) 0.01054(17)
C13 C 0.4540(5) 0.3754(3) 0.0390(2)
H13 H 0.4638 0.4003 0.0082
H14 H 0.4811 0.4188 0.0620
H15 H 0.3484 0.3566 0.0439
C14 C 0.7375(5) 0.1349(3) 0.23119(12)
H16 H 0.7664 0.0744 0.2346
H17 H 0.6433 0.1460 0.2484
H18 H 0.8195 0.1716 0.2431
C15 C 0.7153(4) -0.0371(2) 0.06834(12)
H19 H 0.7539 -0.0947 0.0755
H20 H 0.8009 0.0004 0.0600
H21 H 0.6436 -0.0405 0.0426
C28 C 0.2772(3) -0.07573(16) 0.14876(10)
H34 H 0.3541 -0.1188 0.1596
C29 C 0.3445(3) 0.01794(16) 0.15717(10)
H35 H 0.2711 0.0526 0.1759
C30 C 0.3681(3) 0.06132(17) 0.10877(10)
H36 H 0.3042 0.1145 0.1065
C31 C 0.3103(3) -0.00572(17) 0.07491(10)
C32 C 0.2687(3) -0.08049(17) 0.09615(10)
C33 C 0.2145(3) -0.15965(17) 0.07014(10)
H37 H 0.1174 -0.1444 0.0540
C34 C 0.1858(4) -0.24283(16) 0.09810(10)
H38 H 0.2764 -0.2530 0.1183
C35 C 0.0428(4) -0.2374(2) 0.12873(12)
H39 H 0.0063 -0.2964 0.1354
H40 H -0.0390 -0.2070 0.1118
C36 C 0.0721(4) -0.1901(2) 0.17468(12)
H41 H 0.1520 -0.2226 0.1913
H42 H -0.0226 -0.1945 0.1931
C37 C 0.1215(4) -0.09306(19) 0.17460(11)
C38 C 0.1890(4) -0.31030(18) 0.05891(11)
H43 H 0.0885 -0.3082 0.0426
C39 C 0.3107(4) -0.2749(2) 0.02684(12)
C40 C 0.2196(5) -0.4049(2) 0.07361(14)
H44 H 0.2340 -0.4406 0.0462
H45 H 0.1322 -0.4265 0.0912
H46 H 0.3118 -0.4073 0.0926
C41 C 0.1299(5) -0.0651(2) 0.22538(12)
H47 H 0.1331 -0.0022 0.2272
H48 H 0.2222 -0.0891 0.2395
H49 H 0.0396 -0.0863 0.2418
C42 C 0.2918(5) 0.0109(2) 0.02330(11)
H50 H 0.3917 0.0070 0.0083
H51 H 0.2491 0.0685 0.0185
H52 H 0.2227 -0.0321 0.0101
C16 C 0.7577(6) 0.5586(3) 0.10769(19)
H22 H 0.8078 0.5162 0.0897
C17 C 0.7028(6) 0.6332(4) 0.08705(17)
H23 H 0.7155 0.6417 0.0550
C18 C 0.6290(5) 0.6957(3) 0.1136(2)
H24 H 0.5934 0.7470 0.0996
C19 C 0.6079(6) 0.6832(4) 0.1595(2)
H25 H 0.5550 0.7246 0.1774
C20 C 0.6648(8) 0.6096(4) 0.17956(18)
H26 H 0.6527 0.6018 0.2117
C21 C 0.7392(8) 0.5462(3) 0.1543(2)
H27 H 0.7764 0.4957 0.1688
C22 C 0.2647(11) 0.4117(4) 0.1680(4)
H28 H 0.2926 0.4664 0.1563
C23 C 0.3176(8) 0.3862(7) 0.2091(4)
H29 H 0.3839 0.4222 0.2263
C24 C 0.2735(15) 0.3054(10) 0.2264(2)
H30 H 0.3053 0.2852 0.2556
C25 C 0.1831(13) 0.2589(5) 0.1985(5)
H31 H 0.1536 0.2032 0.2085
C26 C 0.1335(8) 0.2852(7) 0.1589(5)
H32 H 0.0683 0.2497 0.1409
C27 C 0.1745(10) 0.3612(9) 0.1439(2)
H33 H 0.1383 0.3803 0.1150
loop_
_geom_bond_atom_site_label_1
_geom_bond_atom_site_label_2
_geom_bond_site_symmetry_1
_geom_bond_site_symmetry_2
O1 C12 1_555 1_555
O2 C6 1_555 1_555
O3 H1 1_555 1_555
O4 C39 1_555 1_555
O5 C33 1_555 1_555
O6 H2 1_555 1_555
C1 H3 1_555 1_555
C2 C1 1_555 1_555
H4 C2 1_555 1_555
C3 C2 1_555 1_555
H5 C3 1_555 1_555
C4 C3 1_555 1_555
C5 C1 1_555 1_555
C6 C5 1_555 1_555
H6 C6 1_555 1_555
C7 C6 1_555 1_555
H7 C7 1_555 1_555
C8 C7 1_555 1_555
H8 C8 1_555 1_555
H9 C8 1_555 1_555
C9 C8 1_555 1_555
H10 C9 1_555 1_555
H11 C9 1_555 1_555
C10 O3 1_555 1_555
C11 C7 1_555 1_555
H12 C11 1_555 1_555
C12 O2 1_555 1_555
C13 C11 1_555 1_555
H13 C13 1_555 1_555
H14 C13 1_555 1_555
H15 C13 1_555 1_555
C14 C10 1_555 1_555
H16 C14 1_555 1_555
H17 C14 1_555 1_555
H18 C14 1_555 1_555
C15 C4 1_555 1_555
H19 C15 1_555 1_555
H20 C15 1_555 1_555
H21 C15 1_555 1_555
C16 H22 1_555 1_555
C17 C16 1_555 1_555
H23 C17 1_555 1_555
C18 C17 1_555 1_555
H24 C18 1_555 1_555
C19 C18 1_555 1_555
H25 C19 1_555 1_555
C20 C19 1_555 1_555
H26 C20 1_555 1_555
C21 C16 1_555 1_555
H27 C21 1_555 1_555
C22 H28 1_555 1_555
C23 C22 1_555 1_555
H29 C23 1_555 1_555
C24 C23 1_555 1_555
H30 C24 1_555 1_555
C25 C24 1_555 1_555
H31 C25 1_555 1_555
C26 C25 1_555 1_555
H32 C26 1_555 1_555
C27 C22 1_555 1_555
H33 C27 1_555 1_555
C28 H34 1_555 1_555
C29 C2 1_555 1_555
H35 C29 1_555 1_555
C30 C5 1_555 1_555
H36 C30 1_555 1_555
C31 C30 1_555 1_555
C32 C28 1_555 1_555
C33 C32 1_555 1_555
H37 C33 1_555 1_555
C34 C33 1_555 1_555
H38 C34 1_555 1_555
C35 C34 1_555 1_555
H39 C35 1_555 1_555
H40 C35 1_555 1_555
C36 C35 1_555 1_555
H41 C36 1_555 1_555
H42 C36 1_555 1_555
C37 O6 1_555 1_555
C38 C34 1_555 1_555
H43 C38 1_555 1_555
C39 O5 1_555 1_555
C40 C38 1_555 1_555
H44 C40 1_555 1_555
H45 C40 1_555 1_555
H46 C40 1_555 1_555
C41 C37 1_555 1_555
H47 C41 1_555 1_555
H48 C41 1_555 1_555
H49 C41 1_555 1_555
C42 C31 1_555 1_555
H50 C42 1_555 1_555
H51 C42 1_555 1_555
H52 C42 1_555 1_555
C1 C10 1_555 1_555
C4 C5 1_555 1_555
C9 C10 1_555 1_555
C11 C12 1_555 1_555
C20 C21 1_555 1_555
C26 C27 1_555 1_555
C28 C29 1_555 1_555
C28 C37 1_555 1_555
C29 C30 1_555 1_555
C31 C32 1_555 1_555
C36 C37 1_555 1_555
C38 C39 1_555 1_555

#END
