
#######################################################################
#
#                 Cambridge Crystallographic Data Centre
#                                CCDC 
#
#######################################################################
#
# If this CIF has been generated from an entry in the Cambridge 
# Structural Database, then it will include bibliographic, chemical, 
# crystal, experimental, refinement or atomic coordinate data resulting 
# from the CCDC's data processing and validation procedures.
#
#######################################################################

data_FEPQUP
_chemical_compound_source        'Lucopodiastrum casuarinoides'
_chemical_name_common            'Lycocasuarine C monohydrate'
_chemical_formula_moiety         'C16 H20 N2 O2,H2 O1'
_chemical_name_systematic        
'3-(hydroxymethyl)-11-methyl-1,2,3,3a,4,5-hexahydro-4,9b-prop[1]enopyrrolo[2,3-f]quinolin-7(6H)-one monohydrate'
_chemical_properties_biological  
'tested for acetylcholinesterase inhibitory activity'
_symmetry_cell_setting           tetragonal
_symmetry_space_group_name_H-M   'P 43 21 2'
_symmetry_Int_Tables_number      96
_space_group_name_Hall           'P 4nw 2abw'
loop_
_symmetry_equiv_pos_site_id
_symmetry_equiv_pos_as_xyz
1 x,y,z
2 1/2-y,1/2+x,3/4+z
3 1/2+y,1/2-x,1/4+z
4 1/2+x,1/2-y,1/4-z
5 1/2-x,1/2+y,3/4-z
6 -x,-y,1/2+z
7 y,x,-z
8 -y,-x,1/2-z
_cell_length_a                   13.1884(4)
_cell_length_b                   13.1884(4)
_cell_length_c                   17.5109(7)
_cell_angle_alpha                90
_cell_angle_beta                 90
_cell_angle_gamma                90
_cell_volume                     3045.74
_exptl_crystal_colour            colorless
_exptl_crystal_description       block
_cell_formula_units_Z            8
loop_
_atom_site_label
_atom_site_type_symbol
_atom_site_fract_x
_atom_site_fract_y
_atom_site_fract_z
O1 O 0.10077(12) 0.44358(13) -0.00753(9)
H1 H 0.0425 0.4291 0.0102
H2 H 0.1461(18) 0.435(3) 0.0308(16)
O2 O 0.93010(11) 0.74135(11) -0.02156(8)
O3 O 0.58593(11) 0.77869(12) 0.37362(9)
H3 H 0.5537 0.7906 0.3332
N1 N 0.86329(12) 0.78444(12) 0.09353(9)
H4 H 0.8271 0.8311 0.0701
C1 C 0.78327(15) 0.85168(15) 0.20839(11)
H5 H 0.7117 0.8336 0.1980
H6 H 0.7962 0.9197 0.1866
N2 N 0.87845(13) 0.58341(12) 0.31627(11)
C2 C 0.97261(14) 0.64133(15) 0.16719(11)
H7 H 1.0113 0.5912 0.1930
C3 C 0.63008(16) 0.68065(16) 0.36937(12)
H8 H 0.5768 0.6308 0.3560
H9 H 0.6572 0.6621 0.4202
C4 C 0.90290(16) 0.90203(15) 0.31297(11)
H10 H 0.9074 0.9738 0.3104
C5 C 0.98620(17) 0.85161(16) 0.33233(12)
C6 C 0.99047(16) 0.73673(16) 0.33436(12)
H11 H 0.9948 0.7134 0.3880
H12 H 1.0519 0.7130 0.3072
C7 C 0.76706(17) 0.56894(15) 0.31037(13)
H13 H 0.7425 0.5278 0.3539
H14 H 0.7504 0.5326 0.2625
C8 C 1.08319(19) 0.9045(2) 0.35390(14)
H15 H 1.0752 0.9777 0.3467
H16 H 1.1385 0.8798 0.3215
H17 H 1.0990 0.8903 0.4075
C9 C 0.92668(14) 0.72604(15) 0.04989(11)
C10 C 0.98415(15) 0.65216(15) 0.09017(12)
H18 H 1.0307 0.6102 0.0634
C11 C 0.90465(14) 0.70247(14) 0.20996(11)
C12 C 0.89617(16) 0.69144(14) 0.29668(12)
C13 C 0.80261(15) 0.74660(15) 0.32721(11)
H19 H 0.8099 0.7521 0.3839
C14 C 0.71491(16) 0.67428(15) 0.31092(12)
H20 H 0.6869 0.6888 0.2590
C15 C 0.85206(14) 0.77550(14) 0.17115(11)
C16 C 0.80128(16) 0.85424(15) 0.29468(12)
H21 H 0.7461 0.8941 0.3198
H22 H 0.8982(16) 0.5794(16) 0.3631(11)
loop_
_geom_bond_atom_site_label_1
_geom_bond_atom_site_label_2
_geom_bond_site_symmetry_1
_geom_bond_site_symmetry_2
O1 H1 1_555 1_555
H2 O1 1_555 1_555
O2 C9 1_555 1_555
O3 H3 1_555 1_555
N1 H4 1_555 1_555
C1 H5 1_555 1_555
H6 C1 1_555 1_555
N2 C7 1_555 1_555
C2 H7 1_555 1_555
C3 O3 1_555 1_555
H8 C3 1_555 1_555
H9 C3 1_555 1_555
C4 H10 1_555 1_555
C5 C4 1_555 1_555
C6 C5 1_555 1_555
H11 C6 1_555 1_555
H12 C6 1_555 1_555
C7 H13 1_555 1_555
H14 C7 1_555 1_555
C8 C5 1_555 1_555
H15 C8 1_555 1_555
H16 C8 1_555 1_555
H17 C8 1_555 1_555
C9 N1 1_555 1_555
C10 C2 1_555 1_555
H18 C10 1_555 1_555
C11 C2 1_555 1_555
C12 N2 1_555 1_555
C13 C12 1_555 1_555
H19 C13 1_555 1_555
C14 C3 1_555 1_555
H20 C14 1_555 1_555
C15 N1 1_555 1_555
C16 C1 1_555 1_555
H21 C16 1_555 1_555
H22 N2 1_555 1_555
C1 C15 1_555 1_555
C4 C16 1_555 1_555
C6 C12 1_555 1_555
C7 C14 1_555 1_555
C9 C10 1_555 1_555
C11 C12 1_555 1_555
C11 C15 1_555 1_555
C13 C14 1_555 1_555
C13 C16 1_555 1_555

#END
