
#######################################################################
#
#                 Cambridge Crystallographic Data Centre
#                                CCDC 
#
#######################################################################
#
# If this CIF has been generated from an entry in the Cambridge 
# Structural Database, then it will include bibliographic, chemical, 
# crystal, experimental, refinement or atomic coordinate data resulting 
# from the CCDC's data processing and validation procedures.
#
#######################################################################

data_FEPRIE
_chemical_compound_source        'Ceriops tagal'
_chemical_name_common            'tagalene I'
_chemical_formula_moiety         'C20 H28 O5'
_chemical_name_systematic        
3'-hydroxy-7'-(hydroxyacetyl)-4b',7',10a'-trimethyl-4a',4b',5',6',7',8',8a',9',10',10a'-decahydro-2'H-spiro[oxirane-2,1'-phenanthren]-2'-one
_chemical_properties_biological  
'potent cytotoxic effects against four human breast cancer cell lines MDA-MB-453, MDA-MB-231, SK-BR-3,'
_symmetry_cell_setting           orthorhombic
_symmetry_space_group_name_H-M   'P 21 21 21'
_symmetry_Int_Tables_number      19
_space_group_name_Hall           'P 2ac 2ab'
loop_
_symmetry_equiv_pos_site_id
_symmetry_equiv_pos_as_xyz
1 x,y,z
2 1/2-x,-y,1/2+z
3 -x,1/2+y,1/2-z
4 1/2+x,1/2-y,-z
_cell_length_a                   6.61050(10)
_cell_length_b                   13.61220(10)
_cell_length_c                   19.4873(2)
_cell_angle_alpha                90
_cell_angle_beta                 90
_cell_angle_gamma                90
_cell_volume                     1753.53
_exptl_crystal_colour            colorless
_exptl_crystal_description       block
_cell_formula_units_Z            4
loop_
_atom_site_label
_atom_site_type_symbol
_atom_site_fract_x
_atom_site_fract_y
_atom_site_fract_z
O1 O 0.6394(2) 0.38734(11) 0.14475(7)
H1 H 0.7559 0.3732 0.1342
O2 O 0.9104(2) 0.26897(11) 0.20985(7)
O3 O 0.84968(18) 0.21727(9) 0.34956(6)
O4 O 0.4956(3) 0.60572(12) 0.57575(9)
O5 O 0.3249(2) 0.78072(9) 0.59092(7)
H2 H 0.3876 0.7505 0.6205
C1 C 0.4265(3) 0.37162(12) 0.24090(9)
H3 H 0.3332 0.4122 0.2192
C2 C 0.5951(3) 0.34772(13) 0.20722(9)
C3 C 0.7451(3) 0.27937(13) 0.23650(9)
C4 C 0.6853(3) 0.22234(12) 0.30012(8)
C5 C 0.4656(3) 0.23121(12) 0.32425(9)
C6 C 0.4380(3) 0.20059(12) 0.39963(9)
H4 H 0.2973 0.1830 0.4067
H5 H 0.5184 0.1422 0.4079
C7 C 0.4959(3) 0.27766(13) 0.45238(9)
H6 H 0.6405 0.2893 0.4505
H7 H 0.4626 0.2542 0.4980
C8 C 0.3829(2) 0.37315(12) 0.43811(8)
H8 H 0.2386 0.3569 0.4363
C9 C 0.4400(2) 0.41547(12) 0.36708(8)
C10 C 0.3798(2) 0.33634(12) 0.31206(8)
H9 H 0.2322 0.3302 0.3145
C11 C 0.3099(3) 0.50826(12) 0.35579(8)
H10 H 0.3459 0.5375 0.3121
H11 H 0.1687 0.4891 0.3534
C12 C 0.3352(3) 0.58554(12) 0.41234(8)
H12 H 0.2456 0.6404 0.4031
H13 H 0.4730 0.6100 0.4117
C13 C 0.2877(2) 0.54342(12) 0.48477(9)
C14 C 0.4101(3) 0.44821(12) 0.49588(9)
H14 H 0.5524 0.4647 0.4996
H15 H 0.3688 0.4185 0.5389
C15 C 0.3540(3) 0.61898(13) 0.53790(9)
C16 C 0.2370(3) 0.71369(14) 0.54472(10)
H16 H 0.2272 0.7444 0.4999
H17 H 0.1007 0.6987 0.5600
C17 C 0.0589(3) 0.52534(12) 0.49291(9)
H18 H -0.0144 0.5807 0.4752
H19 H 0.0273 0.5167 0.5406
H20 H 0.0213 0.4673 0.4680
C18 C 0.7994(3) 0.13053(12) 0.31102(9)
H21 H 0.7320 0.0774 0.3350
H22 H 0.8924 0.1099 0.2753
C19 C 0.3452(3) 0.15886(12) 0.27919(10)
H23 H 0.2030 0.1684 0.2866
H24 H 0.3813 0.0927 0.2911
H25 H 0.3764 0.1704 0.2318
C20 C 0.6650(3) 0.44347(12) 0.36238(8)
H26 H 0.7466 0.3857 0.3679
H27 H 0.6971 0.4898 0.3979
H28 H 0.6918 0.4724 0.3184
loop_
_geom_bond_atom_site_label_1
_geom_bond_atom_site_label_2
_geom_bond_site_symmetry_1
_geom_bond_site_symmetry_2
O1 H1 1_555 1_555
O2 C3 1_555 1_555
O3 C4 1_555 1_555
O4 C15 1_555 1_555
O5 H2 1_555 1_555
C1 H3 1_555 1_555
C2 O1 1_555 1_555
C3 C2 1_555 1_555
C4 C3 1_555 1_555
C5 C4 1_555 1_555
C6 C5 1_555 1_555
H4 C6 1_555 1_555
H5 C6 1_555 1_555
C7 C6 1_555 1_555
H6 C7 1_555 1_555
H7 C7 1_555 1_555
C8 C7 1_555 1_555
H8 C8 1_555 1_555
C9 C8 1_555 1_555
C10 C1 1_555 1_555
H9 C10 1_555 1_555
C11 C9 1_555 1_555
H10 C11 1_555 1_555
H11 C11 1_555 1_555
C12 C11 1_555 1_555
H12 C12 1_555 1_555
H13 C12 1_555 1_555
C13 C12 1_555 1_555
C14 C8 1_555 1_555
H14 C14 1_555 1_555
H15 C14 1_555 1_555
C15 C13 1_555 1_555
C16 O5 1_555 1_555
H16 C16 1_555 1_555
H17 C16 1_555 1_555
C17 C13 1_555 1_555
H18 C17 1_555 1_555
H19 C17 1_555 1_555
H20 C17 1_555 1_555
C18 O3 1_555 1_555
H21 C18 1_555 1_555
H22 C18 1_555 1_555
C19 C5 1_555 1_555
H23 C19 1_555 1_555
H24 C19 1_555 1_555
H25 C19 1_555 1_555
C20 C9 1_555 1_555
H26 C20 1_555 1_555
H27 C20 1_555 1_555
H28 C20 1_555 1_555
C1 C2 1_555 1_555
C4 C18 1_555 1_555
C5 C10 1_555 1_555
C9 C10 1_555 1_555
C13 C14 1_555 1_555
C15 C16 1_555 1_555

#END
