
#######################################################################
#
#                 Cambridge Crystallographic Data Centre
#                                CCDC 
#
#######################################################################
#
# If this CIF has been generated from an entry in the Cambridge 
# Structural Database, then it will include bibliographic, chemical, 
# crystal, experimental, refinement or atomic coordinate data resulting 
# from the CCDC's data processing and validation procedures.
#
#######################################################################

data_FEPVUT
_chemical_formula_moiety         'C22 H12 F4 N2 O5'
_chemical_name_systematic        
N-(2-(2-(4-Fluorophenyl)-2-oxoacetyl)-4-(trifluoromethyl)phenyl)-4-nitrobenzamide
_symmetry_cell_setting           monoclinic
_symmetry_space_group_name_H-M   'P 21/c'
_symmetry_Int_Tables_number      14
_space_group_name_Hall           '-P 2ybc'
loop_
_symmetry_equiv_pos_site_id
_symmetry_equiv_pos_as_xyz
1 x,y,z
2 -x,1/2+y,1/2-z
3 -x,-y,-z
4 x,1/2-y,1/2+z
_cell_length_a                   19.2840(8)
_cell_length_b                   5.7400(2)
_cell_length_c                   18.3607(7)
_cell_angle_alpha                90
_cell_angle_beta                 109.903(4)
_cell_angle_gamma                90
_cell_volume                     1910.96
_cell_formula_units_Z            4
loop_
_atom_site_label
_atom_site_type_symbol
_atom_site_fract_x
_atom_site_fract_y
_atom_site_fract_z
F1 F 0.45816(4) 0.94925(14) 0.42014(5)
F2 F 0.86266(4) 0.11984(12) 0.41843(5)
F3 F 0.92704(5) 0.36983(13) 0.50003(4)
F4 F 0.97488(5) 0.18666(14) 0.42669(5)
O1 O 0.65330(5) 0.42135(14) 0.26003(6)
O2 O 0.68164(5) 0.94781(14) 0.22129(5)
O3 O 0.91729(5) 1.15622(17) 0.19094(6)
O4 O 0.73175(6) 2.07124(16) -0.03315(6)
O5 O 0.63975(6) 2.00888(15) 0.00654(6)
N1 N 0.81438(6) 1.04056(18) 0.21569(6)
N2 N 0.70030(7) 1.95783(19) 0.00319(6)
C1 C 0.61637(7) 0.9287(2) 0.35841(7)
H1 H 0.6578 1.0210 0.3602
C2 C 0.56744(7) 1.0070(2) 0.39374(7)
H2 H 0.5753 1.1506 0.4211
C3 C 0.50731(7) 0.8705(2) 0.38792(7)
C4 C 0.49364(7) 0.6580(2) 0.35064(7)
H3 H 0.4514 0.5687 0.3481
C5 C 0.54338(7) 0.5800(2) 0.31721(7)
H4 H 0.5359 0.4332 0.2918
C6 C 0.60457(7) 0.7146(2) 0.32031(7)
C7 C 0.65578(7) 0.6208(2) 0.28321(7)
C8 C 0.71017(7) 0.7855(2) 0.26467(7)
C9 C 0.78902(7) 0.7279(2) 0.29114(7)
C10 C 0.81414(7) 0.5440(2) 0.34327(7)
H5 H 0.7804 0.4633 0.3617
C11 C 0.88724(7) 0.4775(2) 0.36851(7)
C12 C 0.93629(7) 0.5918(2) 0.34019(7)
H6 H 0.9862 0.5423 0.3560
C13 C 0.91354(7) 0.7761(2) 0.28939(7)
H7 H 0.9479 0.8531 0.2710
C14 C 0.84031(7) 0.8500(2) 0.26495(7)
C15 C 0.85258(7) 1.1820(2) 0.18239(7)
C16 C 0.80822(7) 1.3762(2) 0.13320(7)
C17 C 0.84533(8) 1.5198(2) 0.09715(8)
H8 H 0.8952 1.4874 0.1029
C18 C 0.81025(8) 1.7081(2) 0.05325(8)
H9 H 0.8352 1.8055 0.0284
C19 C 0.73802(7) 1.7511(2) 0.04641(7)
C20 C 0.69944(7) 1.6116(2) 0.08050(7)
H10 H 0.6495 1.6447 0.0742
C21 C 0.73493(7) 1.4229(2) 0.12385(7)
H11 H 0.7091 1.3243 0.1475
C22 C 0.91287(7) 0.2890(2) 0.42748(8)
H12 H 0.7680(8) 1.064(2) 0.2062(8)
loop_
_geom_bond_atom_site_label_1
_geom_bond_atom_site_label_2
_geom_bond_site_symmetry_1
_geom_bond_site_symmetry_2
F1 C3 1_555 1_555
F2 C22 1_555 1_555
F3 C22 1_555 1_555
F4 C22 1_555 1_555
O1 C7 1_555 1_555
O2 C8 1_555 1_555
O3 C15 1_555 1_555
O4 N2 1_555 1_555
O5 N2 1_555 1_555
N1 C14 1_555 1_555
N2 C19 1_555 1_555
C1 H1 1_555 1_555
C2 C1 1_555 1_555
H2 C2 1_555 1_555
C3 C2 1_555 1_555
C4 C3 1_555 1_555
H3 C4 1_555 1_555
C5 C4 1_555 1_555
H4 C5 1_555 1_555
C6 C1 1_555 1_555
C7 C6 1_555 1_555
C8 C7 1_555 1_555
C9 C8 1_555 1_555
C10 C9 1_555 1_555
H5 C10 1_555 1_555
C11 C10 1_555 1_555
C12 C11 1_555 1_555
H6 C12 1_555 1_555
C13 C12 1_555 1_555
H7 C13 1_555 1_555
C14 C9 1_555 1_555
C15 N1 1_555 1_555
C16 C15 1_555 1_555
C17 C16 1_555 1_555
H8 C17 1_555 1_555
C18 C17 1_555 1_555
H9 C18 1_555 1_555
C19 C18 1_555 1_555
C20 C19 1_555 1_555
H10 C20 1_555 1_555
C21 C16 1_555 1_555
H11 C21 1_555 1_555
C22 C11 1_555 1_555
H12 N1 1_555 1_555
C5 C6 1_555 1_555
C13 C14 1_555 1_555
C20 C21 1_555 1_555

#END
