
#######################################################################
#
#                 Cambridge Crystallographic Data Centre
#                                CCDC 
#
#######################################################################
#
# If this CIF has been generated from an entry in the Cambridge 
# Structural Database, then it will include bibliographic, chemical, 
# crystal, experimental, refinement or atomic coordinate data resulting 
# from the CCDC's data processing and validation procedures.
#
#######################################################################

data_FEPWUU
_chemical_formula_moiety         'C18 H17 Cl1 N2 O4'
_chemical_name_systematic        
6-(4-Chlorophenyl)-4-(4-methoxyphenyl)-5-nitropiperidin-2-one
_symmetry_cell_setting           triclinic
_symmetry_space_group_name_H-M   'P -1'
_symmetry_Int_Tables_number      2
_space_group_name_Hall           '-P 1'
loop_
_symmetry_equiv_pos_site_id
_symmetry_equiv_pos_as_xyz
1 x,y,z
2 -x,-y,-z
_cell_length_a                   5.6019(10)
_cell_length_b                   11.324(2)
_cell_length_c                   13.943(2)
_cell_angle_alpha                90.811(2)
_cell_angle_beta                 99.533(2)
_cell_angle_gamma                100.542(2)
_cell_volume                     856.648
_exptl_crystal_colour            colorless
_exptl_crystal_description       block
_cell_formula_units_Z            2
loop_
_atom_site_label
_atom_site_type_symbol
_atom_site_fract_x
_atom_site_fract_y
_atom_site_fract_z
Cl1 Cl 0.36659(13) -0.08681(5) 0.60876(5)
O1 O 1.1313(3) 0.63297(12) 0.57066(10)
N1 N 0.8032(3) 0.49925(14) 0.59939(12)
C1 C 0.6009(3) 0.45470(16) 0.65276(13)
H1 H 0.4541 0.4850 0.6231
N2 N 0.4761(3) 0.46244(15) 0.81368(13)
C2 C 0.5438(3) 0.31845(16) 0.64430(13)
C3 C 0.7289(4) 0.64406(16) 0.75786(14)
H2 H 0.5835 0.6685 0.7202
C4 C 0.7775(4) 0.70642(17) 0.85818(14)
C5 C 0.9656(3) 0.60319(16) 0.61928(13)
C6 C 0.6801(3) 0.50674(16) 0.75798(13)
H3 H 0.8304 0.4795 0.7879
C7 C 0.4335(4) 0.07009(17) 0.62296(15)
C8 C 0.9467(4) 0.68281(17) 0.70391(15)
H4 H 0.9385 0.7625 0.6805
H5 H 1.0978 0.6897 0.7508
C9 C 0.6416(4) 0.7906(2) 0.87858(16)
H6 H 0.5168 0.8069 0.8307
O2 O 0.2739(3) 0.48581(17) 0.78504(14)
O3 O 0.9303(4) 0.88305(17) 1.13176(11)
C10 C 1.0099(4) 0.7437(2) 1.02125(16)
H7 H 1.1344 0.7273 1.0692
C11 C 0.3143(4) 0.26015(19) 0.59688(16)
H8 H 0.1963 0.3050 0.5723
C12 C 0.8715(4) 0.8283(2) 1.04031(14)
C13 C 0.7157(4) 0.25017(18) 0.68235(16)
H9 H 0.8692 0.2883 0.7153
C14 C 0.9636(4) 0.6839(2) 0.93152(16)
H10 H 1.0580 0.6275 0.9196
C15 C 0.2586(4) 0.1353(2) 0.58562(17)
H11 H 0.1049 0.0966 0.5532
C16 C 0.6857(4) 0.8519(2) 0.96881(16)
H12 H 0.5911 0.9081 0.9810
C17 C 0.6616(4) 0.12628(19) 0.67189(17)
H13 H 0.7779 0.0811 0.6976
O4 O 0.5237(4) 0.4062(2) 0.88501(16)
C18 C 0.7982(6) 0.9734(3) 1.15219(19)
H14 H 0.8219 1.0367 1.1077
H15 H 0.8575 1.0054 1.2177
H16 H 0.6259 0.9392 1.1450
H17 H 0.822(4) 0.456(2) 0.5533(18)
loop_
_geom_bond_atom_site_label_1
_geom_bond_atom_site_label_2
_geom_bond_site_symmetry_1
_geom_bond_site_symmetry_2
Cl1 C7 1_555 1_555
O1 C5 1_555 1_555
N1 C1 1_555 1_555
C1 H1 1_555 1_555
N2 C6 1_555 1_555
C2 C1 1_555 1_555
C3 H2 1_555 1_555
C4 C3 1_555 1_555
C5 N1 1_555 1_555
C6 C1 1_555 1_555
H3 C6 1_555 1_555
C7 C15 1_555 1_555
C8 C3 1_555 1_555
H4 C8 1_555 1_555
H5 C8 1_555 1_555
C9 C4 1_555 1_555
H6 C9 1_555 1_555
O2 N2 1_555 1_555
O3 C12 1_555 1_555
C10 H7 1_555 1_555
C11 C2 1_555 1_555
H8 C11 1_555 1_555
C12 C10 1_555 1_555
C13 C2 1_555 1_555
H9 C13 1_555 1_555
C14 C4 1_555 1_555
H10 C14 1_555 1_555
C15 C11 1_555 1_555
H11 C15 1_555 1_555
C16 C9 1_555 1_555
H12 C16 1_555 1_555
C17 C7 1_555 1_555
H13 C17 1_555 1_555
O4 N2 1_555 1_555
C18 O3 1_555 1_555
H14 C18 1_555 1_555
H15 C18 1_555 1_555
H16 C18 1_555 1_555
H17 N1 1_555 1_555
C3 C6 1_555 1_555
C5 C8 1_555 1_555
C10 C14 1_555 1_555
C12 C16 1_555 1_555
C13 C17 1_555 1_555

#END
