
#######################################################################
#
#                 Cambridge Crystallographic Data Centre
#                                CCDC 
#
#######################################################################
#
# If this CIF has been generated from an entry in the Cambridge 
# Structural Database, then it will include bibliographic, chemical, 
# crystal, experimental, refinement or atomic coordinate data resulting 
# from the CCDC's data processing and validation procedures.
#
#######################################################################

data_FEPWEE
_chemical_formula_moiety         'C17 H14 N2 O1 S1'
_chemical_name_systematic        4-(Methylsulfinyl)-3,6-diphenylpyridazine
_symmetry_cell_setting           monoclinic
_symmetry_space_group_name_H-M   'P 21/c'
_symmetry_Int_Tables_number      14
_space_group_name_Hall           '-P 2ybc'
loop_
_symmetry_equiv_pos_site_id
_symmetry_equiv_pos_as_xyz
1 x,y,z
2 -x,1/2+y,1/2-z
3 -x,-y,-z
4 x,1/2-y,1/2+z
_cell_length_a                   9.899(2)
_cell_length_b                   20.194(5)
_cell_length_c                   7.881(2)
_cell_angle_alpha                90
_cell_angle_beta                 111.832(4)
_cell_angle_gamma                90
_cell_volume                     1462.42
_cell_formula_units_Z            4
loop_
_atom_site_label
_atom_site_type_symbol
_atom_site_fract_x
_atom_site_fract_y
_atom_site_fract_z
C1 C 0.7241(2) 0.31645(9) 0.3006(2)
C2 C 0.8475(3) 0.29506(11) 0.2723(3)
H1 H 0.8636 0.2499 0.2664
C3 C 0.9464(3) 0.33938(13) 0.2528(4)
H2 H 1.0278 0.3240 0.2328
C4 C 0.9253(3) 0.40602(13) 0.2628(4)
H3 H 0.9920 0.4360 0.2497
C5 C 0.8051(3) 0.42818(11) 0.2921(4)
H4 H 0.7906 0.4735 0.2989
C6 C 0.7055(3) 0.38433(10) 0.3116(3)
H5 H 0.6248 0.4003 0.3323
C7 C 0.6145(2) 0.26951(9) 0.3159(2)
C8 C 0.6226(2) 0.20057(9) 0.2941(2)
H6 H 0.7010 0.1817 0.2737
C9 C 0.5123(2) 0.16245(9) 0.3036(2)
C10 C 0.3990(2) 0.19266(9) 0.3409(2)
C11 C 0.2746(2) 0.15548(9) 0.3562(3)
C12 C 0.1338(2) 0.17109(10) 0.2431(3)
H7 H 0.1166 0.2061 0.1611
C13 C 0.0185(2) 0.13450(12) 0.2522(3)
H8 H -0.0759 0.1442 0.1736
C14 C 0.0427(2) 0.08364(11) 0.3774(3)
H9 H -0.0352 0.0595 0.3838
C15 C 0.1815(3) 0.06906(11) 0.4917(3)
H10 H 0.1977 0.0354 0.5774
C16 C 0.2977(2) 0.10400(11) 0.4807(3)
H11 H 0.3920 0.0930 0.5572
C17 C 0.3711(3) 0.07611(10) 0.0400(3)
H12 H 0.3920 0.1078 -0.0377
H13 H 0.2826 0.0883 0.0554
H14 H 0.3601 0.0330 -0.0146
N1 N 0.50229(19) 0.29607(8) 0.3451(2)
N2 N 0.39553(18) 0.25859(8) 0.3590(2)
O1 O 0.65328(17) 0.06452(7) 0.2214(2)
S1 S 0.51746(6) 0.07475(2) 0.25827(8)
loop_
_geom_bond_atom_site_label_1
_geom_bond_atom_site_label_2
_geom_bond_site_symmetry_1
_geom_bond_site_symmetry_2
C1 C2 1_555 1_555
C2 H1 1_555 1_555
C3 C2 1_555 1_555
H2 C3 1_555 1_555
C4 C3 1_555 1_555
H3 C4 1_555 1_555
C5 C4 1_555 1_555
H4 C5 1_555 1_555
C6 C1 1_555 1_555
H5 C6 1_555 1_555
C7 C1 1_555 1_555
C8 C7 1_555 1_555
H6 C8 1_555 1_555
C9 C8 1_555 1_555
C10 C9 1_555 1_555
C11 C10 1_555 1_555
C12 C11 1_555 1_555
H7 C12 1_555 1_555
C13 C12 1_555 1_555
H8 C13 1_555 1_555
C14 C13 1_555 1_555
H9 C14 1_555 1_555
C15 C14 1_555 1_555
H10 C15 1_555 1_555
C16 C11 1_555 1_555
H11 C16 1_555 1_555
C17 H12 1_555 1_555
H13 C17 1_555 1_555
H14 C17 1_555 1_555
N1 C7 1_555 1_555
N2 C10 1_555 1_555
O1 S1 1_555 1_555
S1 C9 1_555 1_555
C5 C6 1_555 1_555
C15 C16 1_555 1_555
C17 S1 1_555 1_555
N1 N2 1_555 1_555

#END
