
#######################################################################
#
#                 Cambridge Crystallographic Data Centre
#                                CCDC 
#
#######################################################################
#
# If this CIF has been generated from an entry in the Cambridge 
# Structural Database, then it will include bibliographic, chemical, 
# crystal, experimental, refinement or atomic coordinate data resulting 
# from the CCDC's data processing and validation procedures.
#
#######################################################################

data_FEPYAB
_chemical_formula_moiety         'C24 H36 Cl18 Si6'
_chemical_name_systematic        hexakis(3-(Trichlorosilyl)propyl)benzene
_symmetry_cell_setting           triclinic
_symmetry_space_group_name_H-M   'P -1'
_symmetry_Int_Tables_number      2
_space_group_name_Hall           '-P 1'
loop_
_symmetry_equiv_pos_site_id
_symmetry_equiv_pos_as_xyz
1 x,y,z
2 -x,-y,-z
_cell_length_a                   13.382(6)
_cell_length_b                   13.436(6)
_cell_length_c                   14.294(7)
_cell_angle_alpha                89.879(8)
_cell_angle_beta                 79.459(8)
_cell_angle_gamma                74.784(7)
_cell_volume                     2435.26
_exptl_crystal_colour            yellow
_exptl_crystal_description       Prism
_chemical_melting_point          '140-141 deg.C'
_cell_formula_units_Z            2
loop_
_atom_site_label
_atom_site_type_symbol
_atom_site_fract_x
_atom_site_fract_y
_atom_site_fract_z
Si1 Si -0.0232(2) 0.58091(17) 1.16618(16)
Si2 Si 0.3809(2) 0.7115(3) 1.1543(3)
Si3 Si -0.3969(2) 0.9430(3) 1.3311(2)
Cl1 Cl -0.1745(2) 0.6371(2) 1.1475(2)
Cl2 Cl -0.0091(2) 0.6418(2) 1.29054(15)
Cl3 Cl -0.0018(2) 0.42649(16) 1.18017(16)
Cl4 Cl 0.2886(4) 0.7011(5) 1.2807(4)
Cl5 Cl 0.3550(3) 0.6118(3) 1.0605(5)
Cl6 Cl 0.5351(2) 0.6577(4) 1.1641(3)
Cl7 Cl -0.4295(4) 1.0932(3) 1.3715(3)
Cl8 Cl -0.5391(3) 0.9090(5) 1.3552(3)
Cl9 Cl -0.3034(4) 0.8617(4) 1.4128(3)
C1 C 0.0121(7) 0.9049(6) 1.0432(5)
C2 C 0.1018(7) 0.9399(6) 1.0075(5)
C3 C -0.0886(6) 0.9639(6) 1.0337(5)
C4 C 0.0256(7) 0.8015(6) 1.0901(5)
H1 H -0.0367 0.8044 1.1382
H2 H 0.0854 0.7899 1.1220
C5 C 0.0429(7) 0.7099(6) 1.0188(5)
H3 H -0.0211 0.7165 0.9938
H4 H 0.0986 0.7130 0.9659
C6 C 0.0723(7) 0.6043(6) 1.0631(6)
H5 H 0.1394 0.5962 1.0829
H6 H 0.0825 0.5511 1.0139
C7 C 0.2095(7) 0.8757(6) 1.0171(6)
H7 H 0.2612 0.8874 0.9642
H8 H 0.2110 0.8032 1.0140
C8 C 0.2398(7) 0.9014(7) 1.1116(6)
H9 H 0.1911 0.8841 1.1640
H10 H 0.2313 0.9753 1.1170
C9 C 0.3544(8) 0.8445(9) 1.1220(8)
H11 H 0.3742 0.8832 1.1694
H12 H 0.4007 0.8474 1.0619
C10 C -0.1872(7) 0.9265(6) 1.0709(5)
H13 H -0.1684 0.8519 1.0624
H14 H -0.2397 0.9543 1.0324
C11 C -0.2364(7) 0.9565(7) 1.1753(6)
H15 H -0.1855 0.9267 1.2148
H16 H -0.2545 1.0310 1.1850
C12 C -0.3360(9) 0.9190(9) 1.2059(7)
H17 H -0.3876 0.9522 1.1682
H18 H -0.3180 0.8452 1.1911
Si1A Si 0.0232(2) 1.41909(17) 0.83382(16)
Si2A Si -0.3809(2) 1.2885(3) 0.8457(3)
Si3A Si 0.3969(2) 1.0570(3) 0.6689(2)
Cl1A Cl 0.1745(2) 1.3629(2) 0.8525(2)
Cl2A Cl 0.0091(2) 1.3582(2) 0.70946(15)
Cl3A Cl 0.0018(2) 1.57351(16) 0.81983(16)
Cl4A Cl -0.2886(4) 1.2989(5) 0.7193(4)
Cl5A Cl -0.3550(3) 1.3882(3) 0.9395(5)
Cl6A Cl -0.5351(2) 1.3423(4) 0.8359(3)
Cl7A Cl 0.4295(4) 0.9068(3) 0.6285(3)
Cl8A Cl 0.5391(3) 1.0910(5) 0.6448(3)
Cl9A Cl 0.3034(4) 1.1383(4) 0.5872(3)
C1A C -0.0121(7) 1.0951(6) 0.9568(5)
C2A C -0.1018(7) 1.0601(6) 0.9925(5)
C3A C 0.0886(6) 1.0361(6) 0.9663(5)
C4A C -0.0256(7) 1.1985(6) 0.9099(5)
H1A H 0.0367 1.1956 0.8618
H2A H -0.0854 1.2101 0.8780
C5A C -0.0429(7) 1.2901(6) 0.9812(5)
H3A H 0.0211 1.2835 1.0062
H4A H -0.0986 1.2870 1.0341
C6A C -0.0723(7) 1.3957(6) 0.9369(6)
H5A H -0.1394 1.4038 0.9171
H6A H -0.0825 1.4489 0.9861
C7A C -0.2095(7) 1.1243(6) 0.9829(6)
H7A H -0.2612 1.1126 1.0358
H8A H -0.2110 1.1968 0.9860
C8A C -0.2398(7) 1.0986(7) 0.8884(6)
H9A H -0.1911 1.1159 0.8360
H10A H -0.2313 1.0247 0.8830
C9A C -0.3544(8) 1.1555(9) 0.8780(8)
H11A H -0.3742 1.1168 0.8306
H12A H -0.4007 1.1526 0.9381
C10A C 0.1872(7) 1.0735(6) 0.9291(5)
H13A H 0.1684 1.1481 0.9376
H14A H 0.2397 1.0457 0.9676
C11A C 0.2364(7) 1.0435(7) 0.8247(6)
H15A H 0.1855 1.0733 0.7852
H16A H 0.2545 0.9690 0.8150
C12A C 0.3360(9) 1.0810(9) 0.7941(7)
H17A H 0.3876 1.0478 0.8318
H18A H 0.3180 1.1548 0.8089
Si4 Si 0.6214(2) 0.4104(2) 0.3568(2)
Si5 Si 0.6303(2) 0.7624(2) 0.8507(2)
Si6 Si 1.0155(2) 0.06921(17) 0.33708(16)
Cl10 Cl 0.7260(3) 0.3327(4) 0.2446(3)
Cl11 Cl 0.4723(2) 0.4352(3) 0.3319(3)
Cl12 Cl 0.6289(3) 0.3149(3) 0.4697(3)
Cl16 Cl 0.6403(19) 0.6246(12) 0.8932(10)
Cl17 Cl 0.4673(13) 0.828(2) 0.8583(12)
Cl18 Cl 0.703(4) 0.820(3) 0.9088(12)
Cl19 Cl 1.1661(2) 0.0388(2) 0.3607(2)
Cl20 Cl 0.9847(2) -0.06959(17) 0.32327(17)
Cl21 Cl 1.0097(3) 0.13718(18) 0.21083(16)
C13 C 0.8983(6) 0.4941(6) 0.4945(5)
C14 C 0.9121(6) 0.5820(6) 0.5363(5)
C15 C 0.9869(6) 0.4120(5) 0.4557(5)
C16 C 0.7866(6) 0.4887(6) 0.4862(5)
H19 H 0.7832 0.4175 0.4885
H20 H 0.7358 0.5277 0.5394
C17 C 0.7591(6) 0.5330(7) 0.3922(5)
H21 H 0.8083 0.4918 0.3393
H22 H 0.7665 0.6029 0.3888
C18 C 0.6457(7) 0.5342(8) 0.3831(7)
H23 H 0.6258 0.5802 0.3332
H24 H 0.5990 0.5638 0.4422
C19 C 0.8171(6) 0.6714(6) 0.5767(5)
H25 H 0.7622 0.6745 0.5400
H26 H 0.8376 0.7355 0.5693
C20 C 0.7717(6) 0.6627(6) 0.6827(6)
H27 H 0.7415 0.6043 0.6892
H28 H 0.8284 0.6499 0.7185
C21 C 0.6884(9) 0.7588(8) 0.7242(7)
H29 H 0.6317 0.7695 0.6884
H30 H 0.7188 0.8169 0.7137
C22 C 0.9705(6) 0.3168(5) 0.4095(5)
H31 H 0.9098 0.3377 0.3788
H32 H 1.0317 0.2865 0.3606
C23 C 0.9533(7) 0.2351(6) 0.4808(5)
H33 H 0.8984 0.2677 0.5341
H34 H 1.0177 0.2074 0.5050
C24 C 0.9223(7) 0.1465(6) 0.4375(6)
H35 H 0.9094 0.1002 0.4877
H36 H 0.8559 0.1750 0.4166
Si4A Si 1.3786(2) 0.5896(2) 0.6432(2)
Si5A Si 1.3697(2) 0.2376(2) 0.1493(2)
Si6A Si 0.9845(2) 0.93079(17) 0.66292(16)
Cl10A Cl 1.2740(3) 0.6673(4) 0.7554(3)
Cl11A Cl 1.5277(2) 0.5648(3) 0.6681(3)
Cl12A Cl 1.3711(3) 0.6851(3) 0.5303(3)
Cl16A Cl 1.3597(19) 0.3754(12) 0.1068(10)
Cl17A Cl 1.5327(13) 0.172(2) 0.1417(12)
Cl18A Cl 1.297(4) 0.180(3) 0.0912(12)
Cl19A Cl 0.8339(2) 0.9612(2) 0.6393(2)
Cl20A Cl 1.0153(2) 1.06959(17) 0.67673(17)
Cl21A Cl 0.9903(3) 0.86282(18) 0.78917(16)
C13A C 1.1017(6) 0.5059(6) 0.5055(5)
C14A C 1.0879(6) 0.4180(6) 0.4637(5)
C15A C 1.0131(6) 0.5880(5) 0.5443(5)
C16A C 1.2134(6) 0.5113(6) 0.5138(5)
H19A H 1.2168 0.5825 0.5115
H20A H 1.2642 0.4723 0.4606
C17A C 1.2409(6) 0.4670(7) 0.6078(5)
H21A H 1.1917 0.5082 0.6607
H22A H 1.2335 0.3971 0.6112
C18A C 1.3543(7) 0.4658(8) 0.6169(7)
H23A H 1.3742 0.4198 0.6668
H24A H 1.4010 0.4362 0.5578
C19A C 1.1829(6) 0.3286(6) 0.4233(5)
H25A H 1.2378 0.3255 0.4600
H26A H 1.1624 0.2645 0.4307
C20A C 1.2283(6) 0.3373(6) 0.3173(6)
H27A H 1.2585 0.3957 0.3108
H28A H 1.1716 0.3501 0.2815
C21A C 1.3116(9) 0.2412(8) 0.2758(7)
H29A H 1.3683 0.2305 0.3116
H30A H 1.2812 0.1831 0.2863
C22A C 1.0295(6) 0.6832(5) 0.5905(5)
H31A H 1.0902 0.6623 0.6212
H32A H 0.9683 0.7135 0.6394
C23A C 1.0467(7) 0.7649(6) 0.5192(5)
H33A H 1.1016 0.7323 0.4659
H34A H 0.9823 0.7926 0.4950
C24A C 1.0777(7) 0.8535(6) 0.5625(6)
H35A H 1.0906 0.8998 0.5123
H36A H 1.1441 0.8250 0.5834
Cl13? Cl 0.5223(6) 0.6864(6) 0.8825(4)
Cl14? Cl 0.5693(5) 0.9101(3) 0.9072(4)
Cl15? Cl 0.7422(5) 0.6957(6) 0.9336(3)
loop_
_geom_bond_atom_site_label_1
_geom_bond_atom_site_label_2
_geom_bond_site_symmetry_1
_geom_bond_site_symmetry_2
Si1 Cl1 1_555 1_555
Si2 Cl4 1_555 1_555
Si3 Cl7 1_555 1_555
Cl2 Si1 1_555 1_555
Cl3 Si1 1_555 1_555
Cl5 Si2 1_555 1_555
Cl6 Si2 1_555 1_555
Cl8 Si3 1_555 1_555
Cl9 Si3 1_555 1_555
C1 C2 1_555 1_555
C2 C7 1_555 1_555
C3 C1 1_555 1_555
C4 C1 1_555 1_555
H1 C4 1_555 1_555
H2 C4 1_555 1_555
C5 C4 1_555 1_555
H3 C5 1_555 1_555
H4 C5 1_555 1_555
C6 Si1 1_555 1_555
H5 C6 1_555 1_555
H6 C6 1_555 1_555
C7 H7 1_555 1_555
H8 C7 1_555 1_555
C8 C7 1_555 1_555
H9 C8 1_555 1_555
H10 C8 1_555 1_555
C9 Si2 1_555 1_555
H11 C9 1_555 1_555
H12 C9 1_555 1_555
C10 C3 1_555 1_555
H13 C10 1_555 1_555
H14 C10 1_555 1_555
C11 C10 1_555 1_555
H15 C11 1_555 1_555
H16 C11 1_555 1_555
C12 Si3 1_555 1_555
H17 C12 1_555 1_555
H18 C12 1_555 1_555
Si4 Cl10 1_555 1_555
Si5 Cl16 1_555 1_555
Si6 Cl19 1_555 1_555
Cl11 Si4 1_555 1_555
Cl12 Si4 1_555 1_555
Cl17 Si5 1_555 1_555
Cl18 Si5 1_555 1_555
Cl20 Si6 1_555 1_555
Cl21 Si6 1_555 1_555
C13 C14 1_555 1_555
C14 C19 1_555 1_555
C15 C13 1_555 1_555
C16 C13 1_555 1_555
H19 C16 1_555 1_555
H20 C16 1_555 1_555
C17 C16 1_555 1_555
H21 C17 1_555 1_555
H22 C17 1_555 1_555
C18 Si4 1_555 1_555
H23 C18 1_555 1_555
H24 C18 1_555 1_555
C19 H25 1_555 1_555
H26 C19 1_555 1_555
C20 C19 1_555 1_555
H27 C20 1_555 1_555
H28 C20 1_555 1_555
C21 Si5 1_555 1_555
H29 C21 1_555 1_555
H30 C21 1_555 1_555
C22 C15 1_555 1_555
H31 C22 1_555 1_555
H32 C22 1_555 1_555
C23 C22 1_555 1_555
H33 C23 1_555 1_555
H34 C23 1_555 1_555
C24 Si6 1_555 1_555
H35 C24 1_555 1_555
H36 C24 1_555 1_555
Si1A Cl1A 1_555 1_555
Si2A Cl4A 1_555 1_555
Si3A Cl7A 1_555 1_555
Cl2A Si1A 1_555 1_555
Cl3A Si1A 1_555 1_555
Cl5A Si2A 1_555 1_555
Cl6A Si2A 1_555 1_555
Cl8A Si3A 1_555 1_555
Cl9A Si3A 1_555 1_555
C1A C2A 1_555 1_555
C2A C3 1_555 1_555
C3A C2 1_555 1_555
C4A C1A 1_555 1_555
H1A C4A 1_555 1_555
H2A C4A 1_555 1_555
C5A C4A 1_555 1_555
H3A C5A 1_555 1_555
H4A C5A 1_555 1_555
C6A Si1A 1_555 1_555
H5A C6A 1_555 1_555
H6A C6A 1_555 1_555
C7A C2A 1_555 1_555
H7A C7A 1_555 1_555
H8A C7A 1_555 1_555
C8A C7A 1_555 1_555
H9A C8A 1_555 1_555
H10A C8A 1_555 1_555
C9A Si2A 1_555 1_555
H11A C9A 1_555 1_555
H12A C9A 1_555 1_555
C10A C3A 1_555 1_555
H13A C10A 1_555 1_555
H14A C10A 1_555 1_555
C11A C10A 1_555 1_555
H15A C11A 1_555 1_555
H16A C11A 1_555 1_555
C12A Si3A 1_555 1_555
H17A C12A 1_555 1_555
H18A C12A 1_555 1_555
Si4A Cl10A 1_555 1_555
Si5A Cl16A 1_555 1_555
Si6A Cl19A 1_555 1_555
Cl11A Si4A 1_555 1_555
Cl12A Si4A 1_555 1_555
Cl17A Si5A 1_555 1_555
Cl18A Si5A 1_555 1_555
Cl20A Si6A 1_555 1_555
Cl21A Si6A 1_555 1_555
C13A C14A 1_555 1_555
C14A C15 1_555 1_555
C15A C14 1_555 1_555
C16A C13A 1_555 1_555
H19A C16A 1_555 1_555
H20A C16A 1_555 1_555
C17A C16A 1_555 1_555
H21A C17A 1_555 1_555
H22A C17A 1_555 1_555
C18A Si4A 1_555 1_555
H23A C18A 1_555 1_555
H24A C18A 1_555 1_555
C19A C14A 1_555 1_555
H25A C19A 1_555 1_555
H26A C19A 1_555 1_555
C20A C19A 1_555 1_555
H27A C20A 1_555 1_555
H28A C20A 1_555 1_555
C21A Si5A 1_555 1_555
H29A C21A 1_555 1_555
H30A C21A 1_555 1_555
C22A C15A 1_555 1_555
H31A C22A 1_555 1_555
H32A C22A 1_555 1_555
C23A C22A 1_555 1_555
H33A C23A 1_555 1_555
H34A C23A 1_555 1_555
C24A Si6A 1_555 1_555
H35A C24A 1_555 1_555
H36A C24A 1_555 1_555
C5 C6 1_555 1_555
C8 C9 1_555 1_555
C11 C12 1_555 1_555
C17 C18 1_555 1_555
C20 C21 1_555 1_555
C23 C24 1_555 1_555
C1A C3A 1_555 1_555
C5A C6A 1_555 1_555
C8A C9A 1_555 1_555
C11A C12A 1_555 1_555
C13A C15A 1_555 1_555
C17A C18A 1_555 1_555
C20A C21A 1_555 1_555
C23A C24A 1_555 1_555

#END
