
#######################################################################
#
#                 Cambridge Crystallographic Data Centre
#                                CCDC 
#
#######################################################################
#
# If this CIF has been generated from an entry in the Cambridge 
# Structural Database, then it will include bibliographic, chemical, 
# crystal, experimental, refinement or atomic coordinate data resulting 
# from the CCDC's data processing and validation procedures.
#
#######################################################################

data_FEQBAG
_chemical_formula_moiety         'C27 H29 Cl2 N1 O4 S2'
_chemical_name_systematic        
N-(4-(2,4-Dichlorophenyl)-2-(4-methoxyphenyl)-1-(phenylsulfonyl)but-3-en-2-yl)-2-methylpropane-2-sulfinamide
_symmetry_cell_setting           monoclinic
_symmetry_space_group_name_H-M   'C 2'
_symmetry_Int_Tables_number      5
_space_group_name_Hall           'C 2y'
loop_
_symmetry_equiv_pos_site_id
_symmetry_equiv_pos_as_xyz
1 x,y,z
2 -x,y,-z
3 1/2+x,1/2+y,z
4 1/2-x,1/2+y,-z
_cell_length_a                   26.1700(16)
_cell_length_b                   8.5433(6)
_cell_length_c                   14.2864(9)
_cell_angle_alpha                90
_cell_angle_beta                 120.683(3)
_cell_angle_gamma                90
_cell_volume                     2746.96
_exptl_crystal_colour            colorless
_exptl_crystal_description       prism
_cell_formula_units_Z            4
loop_
_atom_site_label
_atom_site_type_symbol
_atom_site_fract_x
_atom_site_fract_y
_atom_site_fract_z
S1 S 0.33481(5) 0.62036(15) 0.10287(10)
S2 S 0.32818(5) 0.59680(16) 0.40467(10)
Cl1 Cl 0.09987(5) 0.91681(17) 0.08325(10)
Cl2 Cl 0.09458(6) 1.41503(18) 0.30586(12)
N1 N 0.36469(18) 0.6832(5) 0.3510(3)
H1 H 0.415 0.649 0.379
O1 O 0.3864(2) 0.5447(6) 0.1936(5)
O2 O 0.29090(17) 0.5218(5) 0.0172(3)
O3 O 0.28039(18) 0.4929(6) 0.3243(3)
O4 O 0.50378(16) 1.2162(5) 0.2692(3)
C1 C 0.2950(2) 0.7268(7) 0.1534(4)
H2 H 0.2717 0.8096 0.1000
H3 H 0.2663 0.6543 0.1562
C2 C 0.3320(2) 0.8048(6) 0.2668(4)
C3 C 0.2925(2) 0.8965(7) 0.2951(4)
H4 H 0.3104 0.9353 0.3674
C4 C 0.2358(2) 0.9286(7) 0.2299(4)
H5 H 0.2158 0.8768 0.1615
C5 C 0.2002(2) 1.0395(7) 0.2547(4)
C6 C 0.1384(2) 1.0472(7) 0.1901(4)
C7 C 0.1054(2) 1.1596(7) 0.2070(4)
H6 H 0.0633 1.1620 0.1622
C8 C 0.1343(3) 1.2665(7) 0.2890(5)
C9 C 0.1953(3) 1.2611(7) 0.3569(5)
H7 H 0.2151 1.3323 0.4159
C10 C 0.2269(2) 1.1491(7) 0.3367(5)
H8 H 0.2689 1.1478 0.3815
C11 C 0.3777(2) 0.9199(7) 0.2695(4)
C12 C 0.3592(2) 1.0398(6) 0.1931(4)
H9 H 0.3180 1.0514 0.1417
C13 C 0.3995(2) 1.1437(6) 0.1899(4)
H10 H 0.3862 1.2238 0.1363
C14 C 0.4598(2) 1.1273(7) 0.2671(4)
C15 C 0.4788(2) 1.0136(7) 0.3478(4)
H11 H 0.5196 1.0064 0.4022
C16 C 0.4379(2) 0.9104(7) 0.3488(4)
H12 H 0.4511 0.8327 0.4040
C17 C 0.4883(3) 1.3109(7) 0.1757(5)
H13 H 0.4689 1.2458 0.1100
H14 H 0.5244 1.3576 0.1829
H15 H 0.4611 1.3941 0.1701
C18 C 0.3610(2) 0.7566(7) 0.0444(4)
C19 C 0.3204(2) 0.8306(7) -0.0533(4)
H16 H 0.2791 0.8084 -0.0882
C20 C 0.3422(3) 0.9376(8) -0.0980(4)
H17 H 0.3155 0.9893 -0.1641
C21 C 0.4019(3) 0.9693(7) -0.0478(4)
H18 H 0.4159 1.0433 -0.0791
C22 C 0.4421(2) 0.8943(7) 0.0485(4)
H19 H 0.4833 0.9163 0.0824
C23 C 0.4217(2) 0.7864(7) 0.0955(4)
H20 H 0.4487 0.7343 0.1612
C24 C 0.3898(2) 0.4622(7) 0.4964(4)
C25 C 0.4440(2) 0.5597(7) 0.5724(4)
H21 H 0.4732 0.4937 0.6319
H22 H 0.4321 0.6458 0.6025
H23 H 0.4618 0.6025 0.5318
C26 C 0.4024(3) 0.3481(8) 0.4317(5)
H24 H 0.4192 0.4036 0.3934
H25 H 0.3654 0.2962 0.3785
H26 H 0.4308 0.2697 0.4805
C27 C 0.3645(2) 0.3793(7) 0.5610(4)
H27 H 0.3278 0.3238 0.5102
H28 H 0.3558 0.4575 0.6013
H29 H 0.3937 0.3044 0.6123
loop_
_geom_bond_atom_site_label_1
_geom_bond_atom_site_label_2
_geom_bond_site_symmetry_1
_geom_bond_site_symmetry_2
S1 O1 1_555 1_555
S2 N1 1_555 1_555
Cl1 C6 1_555 1_555
Cl2 C8 1_555 1_555
N1 H1 1_555 1_555
O2 S1 1_555 1_555
O3 S2 1_555 1_555
O4 C14 1_555 1_555
C1 S1 1_555 1_555
H2 C1 1_555 1_555
H3 C1 1_555 1_555
C2 N1 1_555 1_555
C3 C2 1_555 1_555
H4 C3 1_555 1_555
C4 C3 1_555 1_555
H5 C4 1_555 1_555
C5 C4 1_555 1_555
C6 C5 1_555 1_555
C7 C6 1_555 1_555
H6 C7 1_555 1_555
C8 C7 1_555 1_555
C9 C8 1_555 1_555
H7 C9 1_555 1_555
C10 C5 1_555 1_555
H8 C10 1_555 1_555
C11 C2 1_555 1_555
C12 C11 1_555 1_555
H9 C12 1_555 1_555
C13 C12 1_555 1_555
H10 C13 1_555 1_555
C14 C13 1_555 1_555
C15 C14 1_555 1_555
H11 C15 1_555 1_555
C16 C11 1_555 1_555
H12 C16 1_555 1_555
C17 O4 1_555 1_555
H13 C17 1_555 1_555
H14 C17 1_555 1_555
H15 C17 1_555 1_555
C18 S1 1_555 1_555
C19 C18 1_555 1_555
H16 C19 1_555 1_555
C20 C19 1_555 1_555
H17 C20 1_555 1_555
C21 C20 1_555 1_555
H18 C21 1_555 1_555
C22 C21 1_555 1_555
H19 C22 1_555 1_555
C23 C18 1_555 1_555
H20 C23 1_555 1_555
C24 S2 1_555 1_555
C25 C24 1_555 1_555
H21 C25 1_555 1_555
H22 C25 1_555 1_555
H23 C25 1_555 1_555
C26 C24 1_555 1_555
H24 C26 1_555 1_555
H25 C26 1_555 1_555
H26 C26 1_555 1_555
C27 C24 1_555 1_555
H27 C27 1_555 1_555
H28 C27 1_555 1_555
H29 C27 1_555 1_555
C1 C2 1_555 1_555
C9 C10 1_555 1_555
C15 C16 1_555 1_555
C22 C23 1_555 1_555

#END
