
#######################################################################
#
#                 Cambridge Crystallographic Data Centre
#                                CCDC 
#
#######################################################################
#
# If this CIF has been generated from an entry in the Cambridge 
# Structural Database, then it will include bibliographic, chemical, 
# crystal, experimental, refinement or atomic coordinate data resulting 
# from the CCDC's data processing and validation procedures.
#
#######################################################################

data_FEQFIT
_chemical_formula_moiety         'C18 H19 N1 O6,H2 O1'
_chemical_name_systematic        
'3-(2,6-dimethoxyphenyl)-4-hydroxy-6-(hydroxymethyl)-7-methoxy-2,3-dihydro-1H-isoindol-1-one monohydrate'
_symmetry_cell_setting           orthorhombic
_symmetry_space_group_name_H-M   'P 21 21 21'
_symmetry_Int_Tables_number      19
_space_group_name_Hall           'P 2ac 2ab'
loop_
_symmetry_equiv_pos_site_id
_symmetry_equiv_pos_as_xyz
1 x,y,z
2 1/2-x,-y,1/2+z
3 1/2+x,1/2-y,-z
4 -x,1/2+y,1/2-z
_cell_length_a                   8.76896(10)
_cell_length_b                   13.31797(14)
_cell_length_c                   14.92659(18)
_cell_angle_alpha                90
_cell_angle_beta                 90
_cell_angle_gamma                90
_cell_volume                     1743.2
_exptl_crystal_colour            colorless
_exptl_crystal_description       block
_cell_formula_units_Z            4
loop_
_atom_site_label
_atom_site_type_symbol
_atom_site_fract_x
_atom_site_fract_y
_atom_site_fract_z
O1 O -0.20307(15) -0.40469(8) -0.32306(8)
H1 H -0.1602 -0.4267 -0.2783
O2 O -0.43793(13) -0.53823(8) -0.67353(7)
O3 O -0.20707(13) -0.68774(8) -0.59668(7)
O4 O -0.59187(14) -0.48353(8) -0.40624(8)
O5 O -0.37902(15) -0.16640(8) -0.45478(8)
N1 N -0.44492(15) -0.40363(9) -0.57818(9)
H2 H -0.5114 -0.3697 -0.6079
O6 O -0.03565(16) -0.76441(9) -0.34654(8)
H3 H -0.0013 -0.8215 -0.3422
C1 C -0.28588(18) -0.45820(11) -0.46629(10)
C2 C -0.69003(19) -0.24142(14) -0.30423(11)
H4 H -0.7570 -0.2139 -0.2626
C3 C -0.12925(19) -0.56783(12) -0.37944(10)
H5 H -0.0773 -0.5817 -0.3265
C4 C -0.48604(18) -0.22075(12) -0.40919(11)
C5 C -0.0449(2) -0.73739(13) -0.43784(11)
H6 H -0.0973 -0.7897 -0.4710
H7 H 0.0570 -0.7306 -0.4624
C6 C -0.39609(17) -0.49353(11) -0.60384(10)
C7 C -0.20820(17) -0.61944(11) -0.52716(10)
C8 C -0.12965(18) -0.63958(11) -0.44781(11)
C9 C -0.28984(18) -0.53005(11) -0.53370(10)
C10 C -0.58622(19) -0.17910(12) -0.34699(11)
H8 H -0.5836 -0.1107 -0.3344
C11 C -0.20410(18) -0.47634(11) -0.38818(10)
C12 C -0.48939(17) -0.32381(12) -0.42842(10)
C13 C -0.0813(2) -0.67357(14) -0.65672(12)
H9 H -0.0878 -0.7214 -0.7047
H10 H 0.0127 -0.6831 -0.6249
H11 H -0.0845 -0.6068 -0.6808
C14 C -0.59589(19) -0.38406(12) -0.38402(11)
C15 C -0.69688(19) -0.34341(13) -0.32167(12)
H12 H -0.7674 -0.3840 -0.2924
C16 C -0.3650(2) -0.06258(12) -0.43400(12)
H13 H -0.2843 -0.0338 -0.4690
H14 H -0.3422 -0.0549 -0.3715
H15 H -0.4591 -0.0290 -0.4475
C17 C -0.37574(18) -0.36704(11) -0.49474(10)
H16 H -0.3030 -0.3139 -0.5103
C18 C -0.6887(3) -0.55021(14) -0.35809(15)
H17 H -0.6736 -0.6175 -0.3793
H18 H -0.7932 -0.5311 -0.3671
H19 H -0.6647 -0.5470 -0.2954
O7 O -0.14122(16) -0.19432(10) -0.29846(9)
H20 H -0.092(3) -0.2118(19) -0.2536(19)
H21 H -0.172(4) -0.250(2) -0.318(2)
loop_
_geom_bond_atom_site_label_1
_geom_bond_atom_site_label_2
_geom_bond_site_symmetry_1
_geom_bond_site_symmetry_2
O1 H1 1_555 1_555
O2 C6 1_555 1_555
O3 C7 1_555 1_555
O4 C14 1_555 1_555
O5 C4 1_555 1_555
N1 H2 1_555 1_555
O6 H3 1_555 1_555
C1 C9 1_555 1_555
C2 H4 1_555 1_555
C3 H5 1_555 1_555
C4 C10 1_555 1_555
C5 O6 1_555 1_555
H6 C5 1_555 1_555
H7 C5 1_555 1_555
C6 N1 1_555 1_555
C7 C8 1_555 1_555
C8 C3 1_555 1_555
C9 C6 1_555 1_555
C10 C2 1_555 1_555
H8 C10 1_555 1_555
C11 O1 1_555 1_555
C12 C4 1_555 1_555
C13 O3 1_555 1_555
H9 C13 1_555 1_555
H10 C13 1_555 1_555
H11 C13 1_555 1_555
C14 C12 1_555 1_555
C15 C2 1_555 1_555
H12 C15 1_555 1_555
C16 O5 1_555 1_555
H13 C16 1_555 1_555
H14 C16 1_555 1_555
H15 C16 1_555 1_555
C17 N1 1_555 1_555
H16 C17 1_555 1_555
C18 O4 1_555 1_555
H17 C18 1_555 1_555
H18 C18 1_555 1_555
H19 C18 1_555 1_555
O7 H20 1_555 1_555
H21 O7 1_555 1_555
C1 C11 1_555 1_555
C1 C17 1_555 1_555
C3 C11 1_555 1_555
C5 C8 1_555 1_555
C7 C9 1_555 1_555
C12 C17 1_555 1_555
C14 C15 1_555 1_555

#END
