
#######################################################################
#
#                 Cambridge Crystallographic Data Centre
#                                CCDC 
#
#######################################################################
#
# If this CIF has been generated from an entry in the Cambridge 
# Structural Database, then it will include bibliographic, chemical, 
# crystal, experimental, refinement or atomic coordinate data resulting 
# from the CCDC's data processing and validation procedures.
#
#######################################################################

data_FEQHIU
_chemical_formula_moiety         'C15 H11 Br1 Cl1 N5 O1'
_chemical_name_systematic        
3-Bromo-1-(3-chloropyridin-2-yl)-N-(6-methylpyridin-2-yl)-1H-pyrazole-5-carboxamide
_symmetry_cell_setting           monoclinic
_symmetry_space_group_name_H-M   'C 2/c'
_symmetry_Int_Tables_number      15
_space_group_name_Hall           '-C 2yn'
loop_
_symmetry_equiv_pos_site_id
_symmetry_equiv_pos_as_xyz
1 x,y,z
2 -x,y,1/2-z
3 1/2+x,1/2+y,z
4 1/2-x,1/2+y,1/2-z
5 -x,-y,-z
6 x,-y,1/2+z
7 1/2-x,1/2-y,-z
8 1/2+x,1/2-y,1/2+z
_cell_length_a                   18.418(4)
_cell_length_b                   13.254(3)
_cell_length_c                   14.175(3)
_cell_angle_alpha                90
_cell_angle_beta                 116.44(3)
_cell_angle_gamma                90
_cell_volume                     3098.35
_cell_formula_units_Z            8
loop_
_atom_site_label
_atom_site_type_symbol
_atom_site_fract_x
_atom_site_fract_y
_atom_site_fract_z
Br1 Br 1.045136(16) 0.85429(2) 0.14639(2)
Cl1 Cl 0.77089(4) 0.67072(5) -0.11956(5)
O1 O 0.91279(10) 0.40855(14) 0.04545(13)
N1 N 1.13872(12) 0.28727(16) 0.26065(15)
N2 N 1.04574(12) 0.40842(16) 0.17338(16)
N3 N 0.91882(13) 0.71899(16) 0.10079(16)
N4 N 0.90536(12) 0.61791(16) 0.09333(15)
N5 N 0.82260(12) 0.52534(16) 0.14733(15)
C1 C 1.24847(17) 0.1743(2) 0.3661(3)
H1 H 1.2842 0.2216 0.3568
H2 H 1.2651 0.1068 0.3605
H3 H 1.2504 0.1836 0.4343
C2 C 1.16327(15) 0.1911(2) 0.2825(2)
C3 C 1.11244(17) 0.1112(2) 0.2311(2)
H4 H 1.1302 0.0450 0.2480
C4 C 1.03528(18) 0.1314(2) 0.1547(2)
H5 H 1.0007 0.0783 0.1196
C5 C 1.00879(17) 0.2294(2) 0.1297(2)
H6 H 0.9570 0.2443 0.0778
C6 C 1.06344(15) 0.3049(2) 0.18615(19)
C7 C 0.97428(15) 0.4528(2) 0.10804(18)
C8 C 0.97519(15) 0.56449(19) 0.11732(18)
C9 C 1.03577(15) 0.63370(19) 0.13942(18)
H7 H 1.0902 0.6216 0.1581
C10 C 0.99711(15) 0.72650(19) 0.12744(18)
C11 C 0.82659(15) 0.58145(18) 0.07229(19)
C12 C 0.76022(15) 0.60552(19) -0.02110(19)
C13 C 0.68415(15) 0.57219(19) -0.03623(19)
H8 H 0.6378 0.5887 -0.0972
C14 C 0.67915(16) 0.5145(2) 0.0409(2)
H9 H 0.6292 0.4913 0.0333
C15 C 0.74968(16) 0.4911(2) 0.1303(2)
H10 H 0.7460 0.4495 0.1809
H11 H 1.0830(12) 0.4497(16) 0.2180(15)
loop_
_geom_bond_atom_site_label_1
_geom_bond_atom_site_label_2
_geom_bond_site_symmetry_1
_geom_bond_site_symmetry_2
Br1 C10 1_555 1_555
Cl1 C12 1_555 1_555
O1 C7 1_555 1_555
N1 C2 1_555 1_555
N2 C6 1_555 1_555
N3 N4 1_555 1_555
N4 C8 1_555 1_555
N5 C11 1_555 1_555
C1 H1 1_555 1_555
H2 C1 1_555 1_555
H3 C1 1_555 1_555
C2 C1 1_555 1_555
C3 C2 1_555 1_555
H4 C3 1_555 1_555
C4 C3 1_555 1_555
H5 C4 1_555 1_555
C5 C4 1_555 1_555
H6 C5 1_555 1_555
C6 N1 1_555 1_555
C7 N2 1_555 1_555
C8 C7 1_555 1_555
C9 C8 1_555 1_555
H7 C9 1_555 1_555
C10 N3 1_555 1_555
C11 N4 1_555 1_555
C12 C11 1_555 1_555
C13 C12 1_555 1_555
H8 C13 1_555 1_555
C14 C13 1_555 1_555
H9 C14 1_555 1_555
C15 N5 1_555 1_555
H10 C15 1_555 1_555
H11 N2 1_555 1_555
C5 C6 1_555 1_555
C9 C10 1_555 1_555
C14 C15 1_555 1_555

#END
