
#######################################################################
#
#                 Cambridge Crystallographic Data Centre
#                                CCDC 
#
#######################################################################
#
# If this CIF has been generated from an entry in the Cambridge 
# Structural Database, then it will include bibliographic, chemical, 
# crystal, experimental, refinement or atomic coordinate data resulting 
# from the CCDC's data processing and validation procedures.
#
#######################################################################

data_FEQLUK
_chemical_formula_moiety         'C31 H30 N2 O7 S1'
_chemical_name_systematic        
'Ethyl (4-acetyl-1-((4-methylphenyl)sulfonyl)-4-((4-nitrophenyl)ethynyl)-5-phenylpyrrolidin-3-yl)acetate'
_symmetry_cell_setting           monoclinic
_symmetry_space_group_name_H-M   'P 21/c'
_symmetry_Int_Tables_number      14
_space_group_name_Hall           '-P 2ybc'
loop_
_symmetry_equiv_pos_site_id
_symmetry_equiv_pos_as_xyz
1 x,y,z
2 -x,1/2+y,1/2-z
3 -x,-y,-z
4 x,1/2-y,1/2+z
_cell_length_a                   16.8637(12)
_cell_length_b                   11.6948(8)
_cell_length_c                   15.1556(11)
_cell_angle_alpha                90
_cell_angle_beta                 97.722(2)
_cell_angle_gamma                90
_cell_volume                     2961.85
_exptl_crystal_colour            colorless
_exptl_crystal_description       block
_cell_formula_units_Z            4
loop_
_atom_site_label
_atom_site_type_symbol
_atom_site_fract_x
_atom_site_fract_y
_atom_site_fract_z
S1 S 0.49681(6) 0.58160(8) 0.18215(6)
O1 O 0.49514(17) 0.4799(2) 0.12901(19)
O2 O 0.45451(16) 0.5838(2) 0.25680(18)
O3 O 0.9740(3) 0.3173(5) 0.6715(4)
O4 O 1.0386(3) 0.2437(4) 0.5736(4)
O5 O 0.7978(3) 0.9296(4) 0.2131(3)
O6 O 0.8088(3) 0.9923(4) 0.3499(3)
O7 O 0.72658(19) 0.7703(3) 0.0594(2)
N1 N 0.59085(18) 0.6051(2) 0.22009(19)
N2 N 0.9867(3) 0.3062(4) 0.5961(4)
C1 C 0.8525(2) 0.5038(3) 0.3970(3)
C2 C 0.9065(3) 0.4220(4) 0.3741(3)
H1 H 0.9127 0.4107 0.3147
C3 C 0.9505(3) 0.3583(4) 0.4394(4)
H2 H 0.9873 0.3047 0.4247
C4 C 0.9395(3) 0.3746(4) 0.5261(3)
C5 C 0.8863(3) 0.4537(4) 0.5505(3)
H3 H 0.8798 0.4637 0.6100
C6 C 0.8428(3) 0.5177(4) 0.4852(3)
H4 H 0.8063 0.5712 0.5007
C7 C 0.6783(2) 0.4877(3) 0.1310(3)
C8 C 0.6975(3) 0.4708(4) 0.0468(3)
H5 H 0.6880 0.5282 0.0042
C9 C 0.7316(4) 0.3668(7) 0.0250(6)
H6 H 0.7450 0.3551 -0.0319
C10 C 0.7449(4) 0.2839(6) 0.0871(7)
H7 H 0.7687 0.2158 0.0729
C11 C 0.7243(3) 0.2978(4) 0.1695(5)
H8 H 0.7322 0.2387 0.2108
C12 C 0.6915(3) 0.4005(4) 0.1923(3)
H9 H 0.6782 0.4107 0.2494
C13 C 0.4644(2) 0.6973(3) 0.1125(2)
C14 C 0.4313(3) 0.7922(4) 0.1489(3)
H10 H 0.4256 0.7939 0.2091
C15 C 0.4070(3) 0.8837(4) 0.0946(3)
H11 H 0.3843 0.9468 0.1188
C16 C 0.4154(3) 0.8841(4) 0.0056(3)
C17 C 0.4494(2) 0.7893(4) -0.0292(3)
H12 H 0.4558 0.7883 -0.0892
C18 C 0.4740(2) 0.6962(3) 0.0235(2)
H13 H 0.4969 0.6332 -0.0008
C19 C 0.6064(2) 0.7072(3) 0.2797(3)
H14 H 0.6263 0.6837 0.3400
H15 H 0.5579 0.7513 0.2806
C20 C 0.6691(2) 0.7771(3) 0.2402(3)
H16 H 0.6423 0.8247 0.1919
C21 C 0.7183(2) 0.6835(3) 0.1999(2)
C22 C 0.6492(2) 0.6036(3) 0.1552(2)
H17 H 0.6243 0.6408 0.1004
C23 C 0.7691(2) 0.6224(3) 0.2699(3)
C24 C 0.8071(2) 0.5706(4) 0.3285(3)
C25 C 0.7639(3) 0.7257(4) 0.1235(3)
C26 C 0.8499(3) 0.6985(6) 0.1274(5)
H18 H 0.8698 0.7298 0.0760
H19 H 0.8570 0.6171 0.1282
H20 H 0.8788 0.7310 0.1804
C27 C 0.3864(3) 0.9839(5) -0.0529(3)
H21 H 0.3644 1.0411 -0.0178
H22 H 0.3459 0.9584 -0.0993
H23 H 0.4303 1.0158 -0.0788
C28 C 0.7123(3) 0.8542(4) 0.3119(3)
H24 H 0.6730 0.9029 0.3342
H25 H 0.7359 0.8065 0.3609
C29 C 0.7762(3) 0.9282(4) 0.2844(4)
C30 C 0.8697(6) 1.0735(8) 0.3319(6)
H26 H 0.8747 1.0751 0.2689
H27 H 0.8567 1.1499 0.3506
C31 C 0.9420(6) 1.0334(10) 0.3826(15)
H28 H 0.9854 1.0832 0.3731
H29 H 0.9533 0.9574 0.3639
H30 H 0.9360 1.0329 0.4447
loop_
_geom_bond_atom_site_label_1
_geom_bond_atom_site_label_2
_geom_bond_site_symmetry_1
_geom_bond_site_symmetry_2
S1 O1 1_555 1_555
O2 S1 1_555 1_555
O3 N2 1_555 1_555
O4 N2 1_555 1_555
O5 C29 1_555 1_555
O6 C29 1_555 1_555
O7 C25 1_555 1_555
N1 S1 1_555 1_555
N2 C4 1_555 1_555
C1 C2 1_555 1_555
C2 H1 1_555 1_555
C3 C2 1_555 1_555
H2 C3 1_555 1_555
C4 C3 1_555 1_555
C5 C4 1_555 1_555
H3 C5 1_555 1_555
C6 C1 1_555 1_555
H4 C6 1_555 1_555
C7 C8 1_555 1_555
C8 H5 1_555 1_555
C9 C8 1_555 1_555
H6 C9 1_555 1_555
C10 C9 1_555 1_555
H7 C10 1_555 1_555
C11 C10 1_555 1_555
H8 C11 1_555 1_555
C12 C7 1_555 1_555
H9 C12 1_555 1_555
C13 S1 1_555 1_555
C14 C13 1_555 1_555
H10 C14 1_555 1_555
C15 C14 1_555 1_555
H11 C15 1_555 1_555
C16 C15 1_555 1_555
C17 C16 1_555 1_555
H12 C17 1_555 1_555
C18 C13 1_555 1_555
H13 C18 1_555 1_555
C19 N1 1_555 1_555
H14 C19 1_555 1_555
H15 C19 1_555 1_555
C20 C19 1_555 1_555
H16 C20 1_555 1_555
C21 C20 1_555 1_555
C22 N1 1_555 1_555
H17 C22 1_555 1_555
C23 C21 1_555 1_555
C24 C1 1_555 1_555
C25 C21 1_555 1_555
C26 C25 1_555 1_555
H18 C26 1_555 1_555
H19 C26 1_555 1_555
H20 C26 1_555 1_555
C27 C16 1_555 1_555
H21 C27 1_555 1_555
H22 C27 1_555 1_555
H23 C27 1_555 1_555
C28 C20 1_555 1_555
H24 C28 1_555 1_555
H25 C28 1_555 1_555
C29 C28 1_555 1_555
C30 O6 1_555 1_555
H26 C30 1_555 1_555
H27 C30 1_555 1_555
C31 C30 1_555 1_555
H28 C31 1_555 1_555
H29 C31 1_555 1_555
H30 C31 1_555 1_555
C5 C6 1_555 1_555
C7 C22 1_555 1_555
C11 C12 1_555 1_555
C17 C18 1_555 1_555
C21 C22 1_555 1_555
C23 C24 1_555 1_555

#END
