
#######################################################################
#
#                 Cambridge Crystallographic Data Centre
#                                CCDC 
#
#######################################################################
#
# If this CIF has been generated from an entry in the Cambridge 
# Structural Database, then it will include bibliographic, chemical, 
# crystal, experimental, refinement or atomic coordinate data resulting 
# from the CCDC's data processing and validation procedures.
#
#######################################################################

data_FEQNAR
_chemical_formula_moiety         'C77 H98 N4 O4'
_chemical_name_systematic        
2,7-bis(4-(2-(4-Dodecyloxyphenyl)-1,3,4-oxadiazol-5-yl)phenyl)-9,9-dihexylfluorene
_symmetry_cell_setting           triclinic
_symmetry_space_group_name_H-M   'P -1'
_symmetry_Int_Tables_number      2
_space_group_name_Hall           '-P 1'
loop_
_symmetry_equiv_pos_site_id
_symmetry_equiv_pos_as_xyz
1 x,y,z
2 -x,-y,-z
_cell_length_a                   12.7434(9)
_cell_length_b                   15.6535(11)
_cell_length_c                   17.7496(13)
_cell_angle_alpha                90.56(1)
_cell_angle_beta                 95.93(1)
_cell_angle_gamma                107.64(1)
_cell_volume                     3352.98
_exptl_crystal_colour            colorless
_exptl_crystal_description       plate
_chemical_melting_point          '434.7-435.2 K'
_cell_formula_units_Z            2
_exptl_crystal_recrystallization_method hexane/dichloromethane
loop_
_atom_site_label
_atom_site_type_symbol
_atom_site_fract_x
_atom_site_fract_y
_atom_site_fract_z
O1 O 0.98487(10) 0.22846(8) 0.44239(7)
O2 O 1.63018(10) 0.08855(8) -0.48499(7)
O3 O 0.58055(11) 0.34835(9) 0.54150(8)
O4 O 1.89984(11) -0.00416(9) -0.74301(7)
N1 N 1.08325(14) 0.17382(12) 0.52754(10)
N2 N 1.00537(14) 0.20235(12) 0.56398(10)
N3 N 1.48287(13) 0.13168(10) -0.51935(9)
N4 N 1.53055(13) 0.11835(10) -0.58499(9)
C1 C 1.24188(15) 0.12840(12) 0.13062(11)
H1 H 1.1662 0.1257 0.1224
C2 C 1.29475(15) 0.13673(12) 0.20487(11)
C3 C 1.40650(15) 0.13853(13) 0.21550(11)
H2 H 1.4431 0.1437 0.2654
C4 C 1.46383(16) 0.13322(13) 0.15421(11)
H3 H 1.5385 0.1331 0.1623
C5 C 1.55400(16) 0.12646(13) -0.01320(11)
H4 H 1.6128 0.1282 0.0247
C6 C 1.56951(16) 0.12490(13) -0.08903(11)
H5 H 1.6398 0.1259 -0.1027
C7 C 1.48414(15) 0.12216(12) -0.14648(11)
C8 C 1.37959(15) 0.11968(13) -0.12557(11)
H6 H 1.3200 0.1163 -0.1633
C9 C 1.25914(15) 0.12099(13) -0.01482(11)
C10 C 1.29917(15) 0.12444(13) 0.06935(11)
C11 C 1.41098(15) 0.12763(12) 0.08075(11)
C12 C 1.45074(15) 0.12546(12) 0.00641(11)
C13 C 1.36416(15) 0.12220(12) -0.04960(11)
C14 C 1.16304(15) 0.03500(13) -0.04042(11)
H7 H 1.0993 0.0346 -0.0130
H8 H 1.1402 0.0383 -0.0949
C15 C 1.18674(18) -0.05275(14) -0.02864(14)
H9 H 1.1970 -0.0618 0.0263
H10 H 1.2566 -0.0500 -0.0494
C16 C 1.09527(17) -0.13255(14) -0.06606(13)
H11 H 1.0233 -0.1407 -0.0516
H12 H 1.0714 -0.1137 -0.1225
C17 C 1.1277(4) -0.2171(3) -0.0801(3)
H13 H 1.1700 -0.2287 -0.0335
H14 H 1.1769 -0.2067 -0.1208
C18 C 1.0334(5) -0.2954(4) -0.1177(4)
H15 H 1.0105 -0.2793 -0.1691
H16 H 0.9693 -0.3062 -0.0882
C19 C 1.0647(5) -0.3818(3) -0.1231(3)
H17 H 0.9978 -0.4324 -0.1375
H18 H 1.1002 -0.3920 -0.0738
H19 H 1.1162 -0.3764 -0.1614
C23 C 1.22015(15) 0.20260(13) -0.03610(11)
H27 H 1.1916 0.1951 -0.0904
H28 H 1.1574 0.2013 -0.0074
C24 C 1.30584(17) 0.29465(14) -0.02312(12)
H29 H 1.3681 0.2979 -0.0529
H30 H 1.3354 0.3033 0.0310
C25 C 1.25749(17) 0.36997(14) -0.04488(13)
H31 H 1.2214 0.3577 -0.0975
H32 H 1.1998 0.3698 -0.0117
C26 C 1.34261(19) 0.46286(15) -0.03929(15)
H33 H 1.3768 0.4765 0.0137
H34 H 1.4017 0.4628 -0.0711
C27 C 1.2930(2) 0.53622(15) -0.06415(17)
H35 H 1.2312 0.5340 -0.0342
H36 H 1.2623 0.5242 -0.1179
C28 C 1.3761(2) 0.63016(17) -0.05476(19)
H37 H 1.3401 0.6739 -0.0738
H38 H 1.4384 0.6326 -0.0834
H39 H 1.4031 0.6442 -0.0011
C29 C 1.23616(15) 0.14857(12) 0.27052(11)
C30 C 1.27116(15) 0.13084(12) 0.34493(11)
H40 H 1.3331 0.1093 0.3537
C31 C 1.21741(15) 0.14450(12) 0.40519(11)
H41 H 1.2430 0.1325 0.4548
C32 C 1.12544(15) 0.17564(12) 0.39375(11)
C33 C 1.08965(15) 0.19323(12) 0.32042(11)
H42 H 1.0270 0.2139 0.3116
C34 C 1.14489(15) 0.18070(13) 0.26048(11)
H43 H 1.1201 0.1940 0.2111
C35 C 1.06775(15) 0.19044(12) 0.45700(11)
C36 C 0.95026(15) 0.23338(12) 0.51210(11)
C37 C 0.85815(15) 0.26894(12) 0.51803(11)
C38 C 0.82279(15) 0.27753(12) 0.58897(11)
H44 H 0.8617 0.2635 0.6331
C39 C 0.73168(15) 0.30603(12) 0.59493(11)
H45 H 0.7093 0.3130 0.6433
C40 C 0.67269(15) 0.32517(12) 0.53000(11)
C41 C 0.70895(15) 0.31938(12) 0.45964(11)
H46 H 0.6709 0.3346 0.4156
C42 C 0.80132(15) 0.29137(12) 0.45393(11)
H47 H 0.8259 0.2873 0.4058
C43 C 0.51199(16) 0.35937(13) 0.47513(12)
H48 H 0.4902 0.3045 0.4418
H49 H 0.5533 0.4101 0.4466
C44 C 0.41021(16) 0.37658(14) 0.49964(12)
H50 H 0.4330 0.4270 0.5377
H51 H 0.3655 0.3230 0.5235
C45 C 0.34034(16) 0.39941(14) 0.43241(12)
H52 H 0.3869 0.4509 0.4071
H53 H 0.3154 0.3477 0.3956
C46 C 0.23884(15) 0.42196(13) 0.45428(12)
H54 H 0.1924 0.3705 0.4796
H55 H 0.2639 0.4736 0.4912
C47 C 0.16921(16) 0.44468(13) 0.38758(12)
H56 H 0.2165 0.4942 0.3606
H57 H 0.1408 0.3919 0.3519
C48 C 0.07155(16) 0.47194(13) 0.41073(12)
H58 H 0.0239 0.4221 0.4371
H59 H 0.1001 0.5241 0.4471
C49 C 0.00137(17) 0.49620(14) 0.34479(12)
H60 H -0.0326 0.4426 0.3106
H61 H 0.0499 0.5426 0.3158
C50 C -0.08973(16) 0.53069(14) 0.36938(12)
H62 H -0.0561 0.5805 0.4074
H63 H -0.1418 0.4821 0.3943
C51 C -0.15443(18) 0.56339(16) 0.30605(13)
H64 H -0.1886 0.5137 0.2680
H65 H -0.1028 0.6122 0.2811
C52 C -0.24543(17) 0.59729(15) 0.33308(13)
H66 H -0.2993 0.5473 0.3552
H67 H -0.2117 0.6442 0.3736
C53 C -0.30680(18) 0.63619(16) 0.27108(14)
H68 H -0.3738 0.6440 0.2897
H69 H -0.3307 0.5933 0.2269
C54 C -0.23593(19) 0.72499(16) 0.24709(15)
H70 H -0.2765 0.7455 0.2049
H71 H -0.1678 0.7181 0.2309
H72 H -0.2174 0.7691 0.2896
C55 C 1.50265(15) 0.12180(12) -0.22769(11)
C56 C 1.57870(15) 0.08310(13) -0.25357(11)
H73 H 1.6208 0.0578 -0.2184
C57 C 1.59340(15) 0.08133(12) -0.32951(11)
H74 H 1.6454 0.0549 -0.3459
C58 C 1.53251(15) 0.11795(12) -0.38215(11)
C59 C 1.45719(16) 0.15772(13) -0.35710(11)
H75 H 1.4152 0.1832 -0.3922
C60 C 1.44350(17) 0.15954(13) -0.28128(11)
H76 H 1.3931 0.1876 -0.2648
C61 C 1.54407(15) 0.11424(12) -0.46282(11)
C62 C 1.61612(15) 0.09351(12) -0.56203(10)
C63 C 1.69436(15) 0.07039(12) -0.60628(10)
C64 C 1.77158(15) 0.03139(12) -0.57376(11)
H77 H 1.7755 0.0221 -0.5210
C65 C 1.84301(15) 0.00587(13) -0.61668(11)
H78 H 1.8949 -0.0210 -0.5936
C66 C 1.83715(15) 0.02027(12) -0.69421(11)
C67 C 1.76084(16) 0.06083(13) -0.72725(11)
H79 H 1.7578 0.0716 -0.7797
C68 C 1.69034(16) 0.08525(13) -0.68395(11)
H80 H 1.6385 0.1123 -0.7069
C69 C 1.97688(16) -0.04965(13) -0.71291(11)
H81 H 1.9397 -0.0997 -0.6821
H82 H 2.0392 -0.0076 -0.6805
C70 C 2.01865(17) -0.08448(14) -0.77980(11)
H83 H 2.0669 -0.0334 -0.8045
H84 H 1.9550 -0.1153 -0.8171
C71 C 2.08328(17) -0.14933(15) -0.75706(12)
H85 H 2.0417 -0.1926 -0.7225
H86 H 2.1551 -0.1154 -0.7290
C72 C 2.1045(2) -0.20065(16) -0.82424(14)
H87 H 2.0342 -0.2261 -0.8572
H88 H 2.1569 -0.1585 -0.8541
C73 C 2.1501(3) -0.27653(17) -0.80178(17)
H89 H 2.0975 -0.3161 -0.7657
H90 H 2.2349 -0.2546 -0.7831
C74 C 2.1357(4) -0.3384(3) -0.8806(3)
H91 H 2.0609 -0.3471 -0.9071
H92 H 2.1902 -0.3060 -0.9143
C75 C 2.1507(4) -0.4295(3) -0.8651(3)
H93 H 2.1345 -0.4647 -0.9137
H94 H 2.0954 -0.4614 -0.8317
C76 C 2.2671(4) -0.4273(3) -0.8287(3)
H95 H 2.3235 -0.3932 -0.8604
H96 H 2.2820 -0.3960 -0.7783
C77 C 2.2778(4) -0.5200(3) -0.8193(3)
H97 H 2.2259 -0.5513 -0.7836
H98 H 2.2533 -0.5530 -0.8689
C82 C 2.3895(2) -0.52780(17) -0.79291(16)
H107 H 2.4430 -0.4948 -0.8325
H108 H 2.4060 -0.4938 -0.7423
C83 C 2.4054(2) -0.61855(16) -0.77824(14)
H109 H 2.3496 -0.6517 -0.7457
H110 H 2.3916 -0.6528 -0.8272
C84 C 2.5191(2) -0.61325(18) -0.74134(17)
H111 H 2.5223 -0.6739 -0.7319
H112 H 2.5341 -0.5785 -0.6933
H113 H 2.5746 -0.5843 -0.7748
C20? C 0.1084(4) -0.2234(3) -0.0417(3)
H20? H 0.0865 -0.2358 0.0098
H21? H 0.1863 -0.2225 -0.0415
C21? C 0.0288(5) -0.3035(4) -0.0886(3)
H22? H 0.0283 -0.3591 -0.0627
H23? H 0.9531 -0.2984 -0.0919
C22? C 0.0606(5) -0.3097(4) -0.1676(3)
H24? H 0.0031 -0.3578 -0.1974
H25? H 0.1313 -0.3230 -0.1647
H26? H 0.0682 -0.2526 -0.1920
C78? C 0.1894(5) -0.3314(3) -0.8506(3)
H99? H 0.2495 -0.2908 -0.8759
H100? H 0.1280 -0.3595 -0.8903
C79? C 0.2317(5) -0.4059(4) -0.8173(3)
H101? H 0.3036 -0.3780 -0.7868
H102? H 0.1793 -0.4394 -0.7828
C80? C 0.2464(5) -0.4699(4) -0.8739(3)
H103? H 0.3073 -0.4381 -0.9032
H104? H 0.1781 -0.4903 -0.9097
C81? C 0.2716(5) -0.5515(4) -0.8409(4)
H105? H 0.2692 -0.5943 -0.8827
H106? H 0.2140 -0.5814 -0.8084
loop_
_geom_bond_atom_site_label_1
_geom_bond_atom_site_label_2
_geom_bond_site_symmetry_1
_geom_bond_site_symmetry_2
O1 C35 1_555 1_555
O2 C61 1_555 1_555
O3 C40 1_555 1_555
O4 C66 1_555 1_555
N1 N2 1_555 1_555
N2 C36 1_555 1_555
N3 N4 1_555 1_555
N4 C62 1_555 1_555
C1 H1 1_555 1_555
C2 C1 1_555 1_555
C3 C2 1_555 1_555
H2 C3 1_555 1_555
C4 C3 1_555 1_555
H3 C4 1_555 1_555
C5 H4 1_555 1_555
C6 C5 1_555 1_555
H5 C6 1_555 1_555
C7 C6 1_555 1_555
C8 C7 1_555 1_555
H6 C8 1_555 1_555
C9 C10 1_555 1_555
C10 C1 1_555 1_555
C11 C4 1_555 1_555
C12 C5 1_555 1_555
C13 C8 1_555 1_555
C14 C9 1_555 1_555
H7 C14 1_555 1_555
H8 C14 1_555 1_555
C15 C14 1_555 1_555
H9 C15 1_555 1_555
H10 C15 1_555 1_555
C16 C15 1_555 1_555
H11 C16 1_555 1_555
H12 C16 1_555 1_555
C17 C16 1_555 1_555
H13 C17 1_555 1_555
H14 C17 1_555 1_555
C18 C17 1_555 1_555
H15 C18 1_555 1_555
H16 C18 1_555 1_555
C19 C18 1_555 1_555
H17 C19 1_555 1_555
H18 C19 1_555 1_555
H19 C19 1_555 1_555
C23 C9 1_555 1_555
H27 C23 1_555 1_555
H28 C23 1_555 1_555
C24 C23 1_555 1_555
H29 C24 1_555 1_555
H30 C24 1_555 1_555
C25 C24 1_555 1_555
H31 C25 1_555 1_555
H32 C25 1_555 1_555
C26 C25 1_555 1_555
H33 C26 1_555 1_555
H34 C26 1_555 1_555
C27 C26 1_555 1_555
H35 C27 1_555 1_555
H36 C27 1_555 1_555
C28 C27 1_555 1_555
H37 C28 1_555 1_555
H38 C28 1_555 1_555
H39 C28 1_555 1_555
C29 C2 1_555 1_555
C30 C29 1_555 1_555
H40 C30 1_555 1_555
C31 C30 1_555 1_555
H41 C31 1_555 1_555
C32 C31 1_555 1_555
C33 C32 1_555 1_555
H42 C33 1_555 1_555
C34 C29 1_555 1_555
H43 C34 1_555 1_555
C35 N1 1_555 1_555
C36 O1 1_555 1_555
C37 C36 1_555 1_555
C38 C37 1_555 1_555
H44 C38 1_555 1_555
C39 C38 1_555 1_555
H45 C39 1_555 1_555
C40 C39 1_555 1_555
C41 C40 1_555 1_555
H46 C41 1_555 1_555
C42 C37 1_555 1_555
H47 C42 1_555 1_555
C43 O3 1_555 1_555
H48 C43 1_555 1_555
H49 C43 1_555 1_555
C44 C43 1_555 1_555
H50 C44 1_555 1_555
H51 C44 1_555 1_555
C45 C44 1_555 1_555
H52 C45 1_555 1_555
H53 C45 1_555 1_555
C46 C45 1_555 1_555
H54 C46 1_555 1_555
H55 C46 1_555 1_555
C47 C46 1_555 1_555
H56 C47 1_555 1_555
H57 C47 1_555 1_555
C48 C47 1_555 1_555
H58 C48 1_555 1_555
H59 C48 1_555 1_555
C49 C48 1_555 1_555
H60 C49 1_555 1_555
H61 C49 1_555 1_555
C50 C49 1_555 1_555
H62 C50 1_555 1_555
H63 C50 1_555 1_555
C51 C50 1_555 1_555
H64 C51 1_555 1_555
H65 C51 1_555 1_555
C52 C51 1_555 1_555
H66 C52 1_555 1_555
H67 C52 1_555 1_555
C53 C52 1_555 1_555
H68 C53 1_555 1_555
H69 C53 1_555 1_555
C54 C53 1_555 1_555
H70 C54 1_555 1_555
H71 C54 1_555 1_555
H72 C54 1_555 1_555
C55 C7 1_555 1_555
C56 C55 1_555 1_555
H73 C56 1_555 1_555
C57 C56 1_555 1_555
H74 C57 1_555 1_555
C58 C57 1_555 1_555
C59 C58 1_555 1_555
H75 C59 1_555 1_555
C60 C55 1_555 1_555
H76 C60 1_555 1_555
C61 N3 1_555 1_555
C62 O2 1_555 1_555
C63 C62 1_555 1_555
C64 C63 1_555 1_555
H77 C64 1_555 1_555
C65 C64 1_555 1_555
H78 C65 1_555 1_555
C66 C65 1_555 1_555
C67 C66 1_555 1_555
H79 C67 1_555 1_555
C68 C63 1_555 1_555
H80 C68 1_555 1_555
C69 O4 1_555 1_555
H81 C69 1_555 1_555
H82 C69 1_555 1_555
C70 C69 1_555 1_555
H83 C70 1_555 1_555
H84 C70 1_555 1_555
C71 C70 1_555 1_555
H85 C71 1_555 1_555
H86 C71 1_555 1_555
C72 C71 1_555 1_555
H87 C72 1_555 1_555
H88 C72 1_555 1_555
C73 C72 1_555 1_555
H89 C73 1_555 1_555
H90 C73 1_555 1_555
C74 C73 1_555 1_555
H91 C74 1_555 1_555
H92 C74 1_555 1_555
C75 C74 1_555 1_555
H93 C75 1_555 1_555
H94 C75 1_555 1_555
C76 C75 1_555 1_555
H95 C76 1_555 1_555
H96 C76 1_555 1_555
C77 C76 1_555 1_555
H97 C77 1_555 1_555
H98 C77 1_555 1_555
C82 C77 1_555 1_555
H107 C82 1_555 1_555
H108 C82 1_555 1_555
C83 C82 1_555 1_555
H109 C83 1_555 1_555
H110 C83 1_555 1_555
C84 C83 1_555 1_555
H111 C84 1_555 1_555
H112 C84 1_555 1_555
H113 C84 1_555 1_555
C9 C13 1_555 1_555
C10 C11 1_555 1_555
C11 C12 1_555 1_555
C12 C13 1_555 1_555
C32 C35 1_555 1_555
C33 C34 1_555 1_555
C41 C42 1_555 1_555
C58 C61 1_555 1_555
C59 C60 1_555 1_555
C67 C68 1_555 1_555

#END
