
#######################################################################
#
#                 Cambridge Crystallographic Data Centre
#                                CCDC 
#
#######################################################################
#
# If this CIF has been generated from an entry in the Cambridge 
# Structural Database, then it will include bibliographic, chemical, 
# crystal, experimental, refinement or atomic coordinate data resulting 
# from the CCDC's data processing and validation procedures.
#
#######################################################################

data_FEQQOH
_chemical_formula_moiety         'C16 H12 S4,C12 H4 N4'
_chemical_name_systematic        
'8,9-bis(Methylsulfanyl)acenaphtho(1,2-b)(1,4)dithiine 7,7,8,8-tetracyano-p-quinodimethane'
_symmetry_cell_setting           orthorhombic
_symmetry_space_group_name_H-M   'P n m a'
_symmetry_Int_Tables_number      62
_space_group_name_Hall           '-P 2ac 2n'
loop_
_symmetry_equiv_pos_site_id
_symmetry_equiv_pos_as_xyz
1 x,y,z
2 1/2+x,y,1/2-z
3 x,1/2-y,z
4 1/2-x,1/2+y,1/2+z
5 -x,-y,-z
6 1/2-x,-y,1/2+z
7 -x,1/2+y,-z
8 1/2+x,1/2-y,1/2-z
_cell_length_a                   19.451(1)
_cell_length_b                   18.738(1)
_cell_length_c                   6.883(1)
_cell_angle_alpha                90
_cell_angle_beta                 90
_cell_angle_gamma                90
_cell_volume                     2508.67
_exptl_crystal_colour            black
_exptl_crystal_description       prism
_cell_formula_units_Z            4
loop_
_atom_site_label
_atom_site_type_symbol
_atom_site_fract_x
_atom_site_fract_y
_atom_site_fract_z
S1 S 0.54296(5) 0.66269(5) 0.22245(14)
S2 S 0.65861(5) 0.66830(5) -0.0726(2)
C1 C 0.3995(2) 0.6878(2) 0.1348(5)
C2 C 0.3682(2) 0.6221(2) 0.1140(6)
H1 H 0.3934(23) 0.5791(25) 0.1358(65)
C3 C 0.2973(2) 0.6204(2) 0.0679(6)
H2 H 0.2771(21) 0.5770(22) 0.0589(60)
C4 C 0.2585(2) 0.6813(2) 0.0466(6)
H3 H 0.2113(21) 0.6746(18) 0.0196(52)
C5 C 0.2894(3) 0.7500 0.0675(8)
C6 C 0.3591(3) 0.7500 0.1097(7)
C7 C 0.4689(2) 0.7136(2) 0.1826(5)
C8 C 0.6044(2) 0.7139(2) 0.0888(6)
C9 C 0.6603(3) 0.5783(2) 0.0198(9)
H4 H 0.6860(26) 0.5553(27) -0.0832(74)
H5 H 0.6822(26) 0.5789(25) 0.1412(77)
H6 H 0.6196(27) 0.5612(25) 0.0196(68)
C4B C 0.2585(2) 0.8187(2) 0.0466(6)
C3B C 0.2973(2) 0.8796(2) 0.0679(6)
C2B C 0.3682(2) 0.8779(2) 0.1140(6)
C1B C 0.3995(2) 0.8122(2) 0.1348(5)
C7B C 0.4689(2) 0.7864(2) 0.1826(5)
S1B S 0.54296(5) 0.83731(5) 0.22245(14)
C8B C 0.6044(2) 0.7861(2) 0.0888(6)
S2B S 0.65861(5) 0.83170(5) -0.0726(2)
C9B C 0.6603(3) 0.9217(2) 0.0198(9)
H4B H 0.6860(26) 0.9447(27) -0.0832(74)
H5B H 0.6822(26) 0.9211(25) 0.1412(77)
H6B H 0.6196(27) 0.9388(25) 0.0196(68)
H1B H 0.3934(23) 0.9209(25) 0.1358(65)
H2B H 0.2771(21) 0.9230(22) 0.0589(60)
H3B H 0.2113(21) 0.8254(18) 0.0196(52)
C10 C 0.4222(2) 0.6743(2) 0.6387(5)
C11 C 0.4830(2) 0.7141(2) 0.6918(5)
H7 H 0.5263(14) 0.6864(16) 0.7254(50)
C12 C 0.3610(2) 0.7144(2) 0.5907(5)
H8 H 0.3216(21) 0.6926(19) 0.5675(55)
C13 C 0.4227(2) 0.6010(2) 0.6350(6)
C14 C 0.3647(2) 0.5590(2) 0.5801(7)
C15 C 0.4829(2) 0.5604(2) 0.6892(6)
N1 N 0.3192(2) 0.5233(2) 0.5372(7)
N2 N 0.5289(2) 0.5261(2) 0.7330(6)
C11B C 0.4830(2) 0.7859(2) 0.6918(5)
C10B C 0.4222(2) 0.8257(2) 0.6387(5)
C12B C 0.3610(2) 0.7856(2) 0.5907(5)
H8B H 0.3216(21) 0.8074(19) 0.5675(55)
C13B C 0.4227(2) 0.8990(2) 0.6350(6)
C14B C 0.3647(2) 0.9410(2) 0.5801(7)
N1B N 0.3192(2) 0.9767(2) 0.5372(7)
C15B C 0.4829(2) 0.9396(2) 0.6892(6)
N2B N 0.5289(2) 0.9739(2) 0.7330(6)
H7B H 0.5263(14) 0.8136(16) 0.7254(50)
loop_
_geom_bond_atom_site_label_1
_geom_bond_atom_site_label_2
_geom_bond_site_symmetry_1
_geom_bond_site_symmetry_2
S1 C7 1_555 1_555
S2 C8 1_555 1_555
C1 C2 1_555 1_555
C2 H1 1_555 1_555
C3 C2 1_555 1_555
H2 C3 1_555 1_555
C4 C3 1_555 1_555
H3 C4 1_555 1_555
C5 C4 1_555 1_555
C6 C1 1_555 1_555
C7 C1 1_555 1_555
C8 S1 1_555 1_555
C9 S2 1_555 1_555
H4 C9 1_555 1_555
H5 C9 1_555 1_555
H6 C9 1_555 1_555
C10 C11 1_555 1_555
C11 H7 1_555 1_555
C12 C10 1_555 1_555
H8 C12 1_555 1_555
C13 C10 1_555 1_555
C14 C13 1_555 1_555
C15 C13 1_555 1_555
N1 C14 1_555 1_555
N2 C15 1_555 1_555
C4B C5 1_555 1_555
C3B C4B 1_555 1_555
C2B C3B 1_555 1_555
C1B C6 1_555 1_555
C7B C7 1_555 1_555
S1B C7B 1_555 1_555
C8B C8 1_555 1_555
S2B C8B 1_555 1_555
C9B S2B 1_555 1_555
H4B C9B 1_555 1_555
H5B C9B 1_555 1_555
H6B C9B 1_555 1_555
H1B C2B 1_555 1_555
H2B C3B 1_555 1_555
H3B C4B 1_555 1_555
C11B C11 1_555 1_555
C10B C11B 1_555 1_555
C12B C12 1_555 1_555
H8B C12B 1_555 1_555
C13B C10B 1_555 1_555
C14B C13B 1_555 1_555
N1B C14B 1_555 1_555
C15B C13B 1_555 1_555
N2B C15B 1_555 1_555
H7B C11B 1_555 1_555
C5 C6 1_555 1_555
C2B C1B 1_555 1_555
C1B C7B 1_555 1_555
S1B C8B 1_555 1_555
C10B C12B 1_555 1_555

#END
