
#######################################################################
#
#                 Cambridge Crystallographic Data Centre
#                                CCDC 
#
#######################################################################
#
# If this CIF has been generated from an entry in the Cambridge 
# Structural Database, then it will include bibliographic, chemical, 
# crystal, experimental, refinement or atomic coordinate data resulting 
# from the CCDC's data processing and validation procedures.
#
#######################################################################

data_FEQQOI
_chemical_formula_moiety         
'C36 H40 O8,2(C8 H18 N2 2+),4(Br1 1-),C3 H8 O1,2(H2 O1)'
_chemical_name_systematic        
"4,6,10,12,16,18,22,24-Octahydroxy-2,8,14,20-tetraethylcalix(4)arene bis(N,N'-dimethyl-1,4-diazabicyclo(2.2.2)octane) tetrabromide propanol solvate dihydrate"
_symmetry_cell_setting           triclinic
_symmetry_space_group_name_H-M   'P -1'
_symmetry_Int_Tables_number      2
_space_group_name_Hall           '-P 1'
loop_
_symmetry_equiv_pos_site_id
_symmetry_equiv_pos_as_xyz
1 x,y,z
2 -x,-y,-z
_cell_length_a                   12.4513(2)
_cell_length_b                   13.6703(2)
_cell_length_c                   19.7836(4)
_cell_angle_alpha                71.716(5)
_cell_angle_beta                 79.631(5)
_cell_angle_gamma                72.3940(10)
_cell_volume                     3034.14
_exptl_crystal_colour            colorless
_exptl_crystal_description       block
_cell_formula_units_Z            2
loop_
_atom_site_label
_atom_site_type_symbol
_atom_site_fract_x
_atom_site_fract_y
_atom_site_fract_z
C1 C 0.6302(3) 0.5225(3) 0.3717(2)
C2 C 0.6017(3) 0.6000(3) 0.4078(2)
H1 H 0.6576 0.6027 0.4337
C3 C 0.4966(3) 0.6743(3) 0.4088(2)
C4 C 0.4169(3) 0.6704(4) 0.3682(2)
O1 O 0.3101(3) 0.7390(3) 0.3638(2)
H2 H 0.317(5) 0.788(5) 0.365(3)
C5 C 0.4420(4) 0.5942(4) 0.3313(2)
H3 H 0.3866 0.5911 0.3053
C6 C 0.5479(4) 0.5225(4) 0.3322(2)
O2 O 0.5763(3) 0.4483(3) 0.29368(18)
H4 H 0.530(4) 0.466(4) 0.265(3)
C7 C 0.4705(4) 0.7552(4) 0.4520(2)
H5 H 0.3863 0.7830 0.4576
C8 C 0.5178(3) 0.8508(3) 0.4106(2)
C9 C 0.6241(3) 0.8569(4) 0.4180(2)
H6 H 0.6688 0.7986 0.4507
C10 C 0.6697(3) 0.9414(3) 0.3812(2)
C11 C 0.6018(4) 1.0258(3) 0.3332(2)
O3 O 0.6492(3) 1.1081(3) 0.29399(19)
H7 H 0.607(4) 1.146(4) 0.273(3)
C12 C 0.4944(4) 1.0254(4) 0.3244(2)
H8 H 0.4492 1.0843 0.2923
C13 C 0.4528(4) 0.9382(4) 0.3628(2)
O4 O 0.3475(3) 0.9324(3) 0.35462(19)
H9 H 0.312(4) 0.989(4) 0.326(3)
C14 C 0.7848(3) 0.9466(4) 0.3928(2)
H10 H 0.7814 1.0241 0.3809
C15 C 0.8797(3) 0.9001(4) 0.3420(2)
C16 C 0.9261(3) 0.7905(4) 0.3544(2)
H11 H 0.8945 0.7442 0.3943
C17 C 1.0167(3) 0.7449(3) 0.3111(2)
C18 C 1.0607(3) 0.8142(4) 0.2530(2)
O5 O 1.1502(3) 0.7696(3) 0.20953(18)
H12 H 1.155(5) 0.808(5) 0.177(3)
C19 C 1.0171(4) 0.9234(4) 0.2383(2)
H13 H 1.0503 0.9693 0.1991
C20 C 0.9248(4) 0.9659(4) 0.2808(2)
O6 O 0.8820(3) 1.0758(3) 0.26059(19)
H14 H 0.817(4) 1.090(4) 0.273(3)
C21 C 1.0644(3) 0.6240(4) 0.3260(2)
H15 H 1.1382 0.6121 0.2959
C22 C 0.9894(3) 0.5740(3) 0.3015(2)
C23 C 0.9056(3) 0.5317(3) 0.3462(2)
H16 H 0.8939 0.5350 0.3944
C24 C 0.8370(3) 0.4843(3) 0.3250(2)
C25 C 0.8552(4) 0.4820(4) 0.2538(2)
O7 O 0.7929(3) 0.4393(3) 0.22530(18)
H17 H 0.738(4) 0.447(5) 0.245(3)
C26 C 0.9372(4) 0.5248(4) 0.2071(2)
H18 H 0.9483 0.5223 0.1588
C27 C 1.0028(3) 0.5710(4) 0.2301(2)
O8 O 1.0785(3) 0.6145(3) 0.17930(17)
H19 H 1.108(4) 0.647(4) 0.193(3)
C28 C 0.7445(3) 0.4392(3) 0.3757(2)
H20 H 0.7359 0.3811 0.3581
C29 C 0.5088(4) 0.7034(4) 0.5273(2)
H21 H 0.4816 0.6384 0.5491
H22 H 0.5926 0.6812 0.5238
C30 C 0.4661(5) 0.7768(4) 0.5759(3)
H23 H 0.4929 0.7391 0.6233
H24 H 0.3831 0.7983 0.5803
H25 H 0.4946 0.8404 0.5554
C31 C 0.8128(4) 0.8971(4) 0.4714(3)
H26 H 0.8105 0.8216 0.4858
H27 H 0.8916 0.8975 0.4735
C32 C 0.7426(8) 0.9462(7) 0.5229(5)
H30 H 0.7693 0.9081 0.5702
H31 H 0.6646 0.9439 0.5235
H32 H 0.7454 1.0207 0.5106
C34 C 1.0917(4) 0.5707(4) 0.4043(2)
H36 H 1.1367 0.6098 0.4171
H37 H 1.0201 0.5762 0.4359
C35 C 1.1575(4) 0.4532(4) 0.4177(3)
H38 H 1.1722 0.4233 0.4682
H39 H 1.2296 0.4472 0.3877
H40 H 1.1130 0.4136 0.4060
C36 C 0.7747(3) 0.3875(3) 0.4531(2)
H41 H 0.7920 0.4408 0.4707
H42 H 0.7081 0.3670 0.4833
C37 C 0.8754(4) 0.2891(4) 0.4614(3)
H43 H 0.8905 0.2599 0.5118
H44 H 0.9421 0.3090 0.4325
H45 H 0.8582 0.2351 0.4453
Br1 Br 0.42396(4) 0.52139(4) 0.16473(3)
Br2 Br 1.16691(4) 0.93366(4) 0.05426(3)
Br3 Br 0.84656(4) 0.67817(4) 0.00338(3)
Br4 Br 0.49550(4) 0.17560(4) 0.07329(3)
N1 N 0.8568(3) 0.2609(3) 0.05551(18)
N3 N 0.7160(3) 0.4411(3) 0.01742(18)
C38 C 0.9418(3) 0.1550(3) 0.0779(2)
H46 H 0.9367 0.1083 0.0504
H47 H 0.9261 0.1219 0.1290
H48 H 1.0181 0.1655 0.0688
C40 C 0.6335(3) 0.5488(3) -0.0060(2)
H52 H 0.6720 0.6049 -0.0145
H53 H 0.5708 0.5567 0.0315
H54 H 0.6039 0.5548 -0.0502
C42 C 0.7394(3) 0.2466(3) 0.0679(2)
H58 H 0.7160 0.2258 0.1199
H59 H 0.7373 0.1895 0.0478
C44 C 0.6590(3) 0.3528(3) 0.0313(2)
H62 H 0.6406 0.3492 -0.0143
H63 H 0.5876 0.3671 0.0625
C46 C 0.8800(3) 0.3122(3) -0.0228(2)
H66 H 0.8585 0.2744 -0.0514
H67 H 0.9617 0.3079 -0.0346
C48 C 0.8115(3) 0.4286(3) -0.0405(2)
H70 H 0.8603 0.4753 -0.0433
H71 H 0.7810 0.4493 -0.0874
C50 C 0.8638(3) 0.3320(3) 0.0980(2)
H74 H 0.9353 0.3539 0.0829
H75 H 0.8628 0.2932 0.1494
C52 C 0.7621(3) 0.4311(3) 0.0852(2)
H78 H 0.7032 0.4234 0.1259
H79 H 0.7862 0.4958 0.0807
N2 N 0.7154(3) 0.8539(3) 0.1525(2)
N4 N 0.5267(3) 0.8195(3) 0.1543(2)
C39 C 0.8286(4) 0.8731(5) 0.1513(4)
H49 H 0.8537 0.8440 0.1995
H50 H 0.8218 0.9500 0.1350
H51 H 0.8839 0.8378 0.1186
C41 C 0.4135(5) 0.7996(5) 0.1560(4)
H55 H 0.3547 0.8674 0.1491
H56 H 0.3965 0.7508 0.2023
H57 H 0.4158 0.7675 0.1177
C43 C 0.6733(5) 0.8989(5) 0.0794(3)
H60 H 0.7218 0.8576 0.0469
H61 H 0.6770 0.9741 0.0596
C45 C 0.5524(5) 0.8932(5) 0.0849(3)
H64 H 0.4999 0.9651 0.0809
H65 H 0.5423 0.8676 0.0455
C47 C 0.6294(4) 0.9062(5) 0.2027(3)
H68 H 0.6130 0.9848 0.1835
H69 H 0.6591 0.8854 0.2498
C49 C 0.5209(4) 0.8710(5) 0.2112(3)
H72 H 0.5129 0.8200 0.2588
H73 H 0.4543 0.9337 0.2073
C51 C 0.7236(4) 0.7364(4) 0.1765(3)
H76 H 0.7365 0.7077 0.2278
H77 H 0.7884 0.6987 0.1490
C53 C 0.6151(5) 0.7178(4) 0.1649(4)
H80 H 0.6272 0.6909 0.1224
H81 H 0.5916 0.6639 0.2070
O9 O 0.5222(4) 1.2608(3) 0.2021(2)
H84 H 0.487(6) 1.317(6) 0.204(4)
H85 H 0.506(6) 1.244(6) 0.169(4)
H82 H 1.231(5) 1.047(5) 0.098(3)
H83 H 1.277(5) 1.130(5) 0.112(4)
O10 O 1.2674(4) 1.0711(4) 0.1287(3)
O11 O 0.2284(4) 1.0877(3) 0.2637(2)
H86 H 0.282(5) 1.092(5) 0.219(4)
C54 C 0.1261(5) 1.1652(6) 0.2780(4)
H87 H 0.0872 1.1348 0.3247
H88 H 0.0747 1.1831 0.2406
C55 C 0.1523(7) 1.2643(6) 0.2794(5)
H89 H 0.0814 1.3138 0.2933
H90 H 0.2047 1.2452 0.3164
C56 C 0.2023(7) 1.3190(6) 0.2120(6)
H91 H 0.2195 1.3815 0.2172
H92 H 0.1492 1.3421 0.1755
H93 H 0.2723 1.2705 0.1975
H28? H 0.7428 0.9106 0.5038
H29? H 0.8445 0.8189 0.4808
C33? C 0.8980(9) 0.9461(9) 0.4859(6)
H33? H 0.8813 0.9534 0.5346
H34? H 0.8931 1.0166 0.4517
H35? H 0.9745 0.8997 0.4805
loop_
_geom_bond_atom_site_label_1
_geom_bond_atom_site_label_2
_geom_bond_site_symmetry_1
_geom_bond_site_symmetry_2
C1 C2 1_555 1_555
C2 H1 1_555 1_555
C3 C2 1_555 1_555
C4 C3 1_555 1_555
O1 C4 1_555 1_555
H2 O1 1_555 1_555
C5 C4 1_555 1_555
H3 C5 1_555 1_555
C6 C1 1_555 1_555
O2 C6 1_555 1_555
H4 O2 1_555 1_555
C7 C3 1_555 1_555
H5 C7 1_555 1_555
C8 C7 1_555 1_555
C9 C8 1_555 1_555
H6 C9 1_555 1_555
C10 C9 1_555 1_555
C11 C10 1_555 1_555
O3 C11 1_555 1_555
H7 O3 1_555 1_555
C12 C11 1_555 1_555
H8 C12 1_555 1_555
C13 C8 1_555 1_555
O4 C13 1_555 1_555
H9 O4 1_555 1_555
C14 C10 1_555 1_555
H10 C14 1_555 1_555
C15 C14 1_555 1_555
C16 C15 1_555 1_555
H11 C16 1_555 1_555
C17 C16 1_555 1_555
C18 C17 1_555 1_555
O5 C18 1_555 1_555
H12 O5 1_555 1_555
C19 C18 1_555 1_555
H13 C19 1_555 1_555
C20 C15 1_555 1_555
O6 C20 1_555 1_555
H14 O6 1_555 1_555
C21 C17 1_555 1_555
H15 C21 1_555 1_555
C22 C21 1_555 1_555
C23 C22 1_555 1_555
H16 C23 1_555 1_555
C24 C23 1_555 1_555
C25 C24 1_555 1_555
O7 C25 1_555 1_555
H17 O7 1_555 1_555
C26 C25 1_555 1_555
H18 C26 1_555 1_555
C27 C22 1_555 1_555
O8 C27 1_555 1_555
H19 O8 1_555 1_555
C28 C1 1_555 1_555
H20 C28 1_555 1_555
C29 C7 1_555 1_555
H21 C29 1_555 1_555
H22 C29 1_555 1_555
C30 C29 1_555 1_555
H23 C30 1_555 1_555
H24 C30 1_555 1_555
H25 C30 1_555 1_555
C31 C14 1_555 1_555
H26 C31 1_555 1_555
H27 C31 1_555 1_555
C32 C31 1_555 1_555
H30 C32 1_555 1_555
H31 C32 1_555 1_555
H32 C32 1_555 1_555
C34 C21 1_555 1_555
H36 C34 1_555 1_555
H37 C34 1_555 1_555
C35 C34 1_555 1_555
H38 C35 1_555 1_555
H39 C35 1_555 1_555
H40 C35 1_555 1_555
C36 C28 1_555 1_555
H41 C36 1_555 1_555
H42 C36 1_555 1_555
C37 C36 1_555 1_555
H43 C37 1_555 1_555
H44 C37 1_555 1_555
H45 C37 1_555 1_555
N1 C38 1_555 1_555
N2 C39 1_555 1_555
N3 C40 1_555 1_555
N4 C41 1_555 1_555
C38 H46 1_555 1_555
H47 C38 1_555 1_555
H48 C38 1_555 1_555
C39 H49 1_555 1_555
H50 C39 1_555 1_555
H51 C39 1_555 1_555
C40 H52 1_555 1_555
H53 C40 1_555 1_555
H54 C40 1_555 1_555
C41 H55 1_555 1_555
H56 C41 1_555 1_555
H57 C41 1_555 1_555
C42 N1 1_555 1_555
H58 C42 1_555 1_555
H59 C42 1_555 1_555
C43 N2 1_555 1_555
H60 C43 1_555 1_555
H61 C43 1_555 1_555
C44 N3 1_555 1_555
H62 C44 1_555 1_555
H63 C44 1_555 1_555
C45 N4 1_555 1_555
H64 C45 1_555 1_555
H65 C45 1_555 1_555
C46 N1 1_555 1_555
H66 C46 1_555 1_555
H67 C46 1_555 1_555
C47 N2 1_555 1_555
H68 C47 1_555 1_555
H69 C47 1_555 1_555
C48 N3 1_555 1_555
H70 C48 1_555 1_555
H71 C48 1_555 1_555
C49 N4 1_555 1_555
H72 C49 1_555 1_555
H73 C49 1_555 1_555
C50 N1 1_555 1_555
H74 C50 1_555 1_555
H75 C50 1_555 1_555
C51 N2 1_555 1_555
H76 C51 1_555 1_555
H77 C51 1_555 1_555
C52 N3 1_555 1_555
H78 C52 1_555 1_555
H79 C52 1_555 1_555
C53 N4 1_555 1_555
H80 C53 1_555 1_555
H81 C53 1_555 1_555
O9 H84 1_555 1_555
H82 O10 1_555 1_555
H83 O10 1_555 1_555
H85 O9 1_555 1_555
O11 H86 1_555 1_555
C54 O11 1_555 1_555
H87 C54 1_555 1_555
H88 C54 1_555 1_555
C55 C54 1_555 1_555
H89 C55 1_555 1_555
H90 C55 1_555 1_555
C56 C55 1_555 1_555
H91 C56 1_555 1_555
H92 C56 1_555 1_555
H93 C56 1_555 1_555
C5 C6 1_555 1_555
C12 C13 1_555 1_555
C19 C20 1_555 1_555
C24 C28 1_555 1_555
C26 C27 1_555 1_555
C42 C44 1_555 1_555
C43 C45 1_555 1_555
C46 C48 1_555 1_555
C47 C49 1_555 1_555
C50 C52 1_555 1_555
C51 C53 1_555 1_555

#END
