
#######################################################################
#
#                 Cambridge Crystallographic Data Centre
#                                CCDC 
#
#######################################################################
#
# If this CIF has been generated from an entry in the Cambridge 
# Structural Database, then it will include bibliographic, chemical, 
# crystal, experimental, refinement or atomic coordinate data resulting 
# from the CCDC's data processing and validation procedures.
#
#######################################################################

data_FEQQIC
_chemical_formula_moiety         
'C60 H56 O8,0.5(C4 H12 N1 1+),0.5(Br1 1-),2.5(C1 H4 O1),0.5(H2 O1)'
_chemical_name_systematic        
'4,6,10,12,16,18,22,24-Octahydroxy-2,8,14,20-tetrakis(2-phenylethyl)calix(4)arene hemikis(tetramethylammonium bromide) methanol solvate hemihydrate'
_symmetry_cell_setting           monoclinic
_symmetry_space_group_name_H-M   'C 2/c'
_symmetry_Int_Tables_number      15
_space_group_name_Hall           '-C 2yn'
loop_
_symmetry_equiv_pos_site_id
_symmetry_equiv_pos_as_xyz
1 x,y,z
2 1/2+x,1/2+y,z
3 -x,y,1/2-z
4 1/2-x,1/2+y,1/2-z
5 -x,-y,-z
6 1/2-x,1/2-y,-z
7 x,-y,1/2+z
8 1/2+x,1/2-y,1/2+z
_cell_length_a                   29.4551(5)
_cell_length_b                   15.4086(2)
_cell_length_c                   25.4790(5)
_cell_angle_alpha                90
_cell_angle_beta                 99.503(3)
_cell_angle_gamma                90
_cell_volume                     11405.3
_exptl_crystal_colour            colorless
_exptl_crystal_description       block
_cell_formula_units_Z            8
loop_
_atom_site_label
_atom_site_type_symbol
_atom_site_fract_x
_atom_site_fract_y
_atom_site_fract_z
Br1 Br -0.00175(6) 0.38849(9) 0.53812(5)
N1 N 0.0000 0.2874(5) 0.2500
C61 C -0.0502(7) 0.265(2) 0.2412(16)
C62 C 0.0147(13) 0.279(3) 0.1956(10)
C61B C 0.0502(7) 0.265(2) 0.2588(16)
C62B C -0.0147(13) 0.279(3) 0.3044(10)
O10 O 0.0424(5) -0.1709(9) 0.1926(6)
C65 C 0.0747(7) -0.2136(15) 0.1653(9)
O11 O 0.0215(3) 0.7296(5) 0.3115(3)
C66 C 0.0563(6) 0.7775(11) 0.3442(7)
O12 O 0.0135(4) -0.0418(7) 0.4299(5)
C68 C 0.0297(9) -0.1085(16) 0.4660(10)
O14 O -0.0452(8) -0.1886(17) 0.4338(9)
C70 C -0.0184(9) -0.1815(18) 0.4851(9)
C1 C 0.1191(2) 0.1530(4) 0.1685(2)
C2 C 0.1380(2) 0.1388(3) 0.2213(2)
H1 H 0.1634 0.1740 0.2363
C3 C 0.12262(19) 0.0766(4) 0.2540(2)
C4 C 0.0851(2) 0.0253(4) 0.2301(3)
O1 O 0.06788(19) -0.0392(3) 0.2589(2)
H2 H 0.066(3) -0.021(6) 0.2892(18)
C5 C 0.0647(2) 0.0391(5) 0.1781(3)
H3 H 0.0390 0.0049 0.1632
C6 C 0.0810(2) 0.1012(4) 0.1476(2)
O2 O 0.05832(16) 0.1096(3) 0.09623(17)
H4 H 0.0656 0.1570 0.0836
C7 C 0.14447(19) 0.0637(4) 0.3120(2)
H5 H 0.1372 0.0030 0.3217
C8 C 0.12218(19) 0.1241(3) 0.3484(2)
C9 C 0.13916(18) 0.2071(3) 0.3615(2)
H6 H 0.1651 0.2261 0.3469
C10 C 0.12039(17) 0.2638(3) 0.3947(2)
C11 C 0.08109(19) 0.2367(4) 0.4138(2)
O3 O 0.05871(15) 0.2880(3) 0.44493(19)
H7 H 0.056(3) 0.340(2) 0.435(3)
C12 C 0.0630(2) 0.1544(4) 0.4018(3)
H8 H 0.0365 0.1362 0.4157
C13 C 0.0833(2) 0.0983(4) 0.3694(3)
O4 O 0.06530(19) 0.0175(3) 0.3588(2)
H9 H 0.0530 0.0005 0.3845
C14 C 0.14100(18) 0.3529(3) 0.4090(2)
H10 H 0.1325 0.3690 0.4442
C15 C 0.11997(17) 0.4218(3) 0.3692(2)
C16 C 0.13439(17) 0.4330(3) 0.3207(2)
H11 H 0.1577 0.3952 0.3124
C17 C 0.11721(18) 0.4959(3) 0.2830(2)
C18 C 0.0818(2) 0.5483(4) 0.2965(3)
O5 O 0.06186(19) 0.6099(3) 0.2608(2)
H12 H 0.059(3) 0.594(6) 0.2286(14)
C19 C 0.0662(2) 0.5389(4) 0.3439(3)
H13 H 0.0421 0.5752 0.3518
C20 C 0.0851(2) 0.4770(4) 0.3807(3)
O6 O 0.06920(17) 0.4676(3) 0.42799(19)
H14 H 0.070(3) 0.498(5) 0.455(2)
C21 C 0.13702(18) 0.5092(4) 0.2324(2)
H15 H 0.1273 0.5687 0.2194
C22 C 0.11629(18) 0.4470(4) 0.1889(2)
C23 C 0.13478(19) 0.3661(4) 0.1813(2)
H16 H 0.1611 0.3483 0.2056
C24 C 0.1175(2) 0.3091(4) 0.1403(2)
C25 C 0.0796(3) 0.3375(4) 0.1049(3)
O7 O 0.0609(2) 0.2838(3) 0.0636(2)
H17 H 0.0410 0.3111 0.0426
C26 C 0.0589(3) 0.4167(5) 0.1112(3)
H18 H 0.0323 0.4340 0.0870
C27 C 0.0772(2) 0.4709(4) 0.1531(3)
O8 O 0.05642(17) 0.5489(3) 0.1580(2)
H19 H 0.050(3) 0.573(6) 0.1286(19)
C28 C 0.1380(2) 0.2193(4) 0.1341(2)
H20 H 0.1273 0.2013 0.0964
C29 C 0.19710(19) 0.0713(4) 0.3212(2)
H21 H 0.2093 0.0374 0.2936
H22 H 0.2058 0.1328 0.3175
C30 C 0.2190(2) 0.0384(4) 0.3763(3)
H23 H 0.1978 0.0515 0.4016
H24 H 0.2219 -0.0255 0.3746
C31 C 0.2656(2) 0.0757(4) 0.3980(2)
C32 C 0.3059(3) 0.0278(6) 0.4059(3)
H25 H 0.3049 -0.0322 0.3972
C33 C 0.3481(3) 0.0664(10) 0.4266(4)
H26 H 0.3756 0.0331 0.4316
C34 C 0.3493(3) 0.1520(11) 0.4395(4)
H27 H 0.3777 0.1780 0.4545
C35 C 0.3116(3) 0.1992(7) 0.4314(4)
H28 H 0.3133 0.2594 0.4397
C36 C 0.2698(2) 0.1626(5) 0.4111(3)
H29 H 0.2431 0.1982 0.4059
C37 C 0.19344(17) 0.3536(4) 0.4164(2)
H30 H 0.2031 0.3401 0.3819
H31 H 0.2055 0.3073 0.4418
C38 C 0.21493(19) 0.4406(4) 0.4369(3)
H32 H 0.2012 0.4878 0.4130
H33 H 0.2077 0.4520 0.4728
C39 C 0.2663(2) 0.4409(4) 0.4394(3)
C40 C 0.2959(3) 0.4186(7) 0.4850(3)
H34 H 0.2835 0.4022 0.5157
C41 C 0.3428(3) 0.4192(8) 0.4874(4)
H35 H 0.3623 0.4047 0.5197
C42 C 0.3616(3) 0.4406(7) 0.4438(5)
H36 H 0.3941 0.4402 0.4455
C43 C 0.3329(3) 0.4632(5) 0.3964(4)
H37 H 0.3454 0.4788 0.3657
C44 C 0.2860(2) 0.4623(4) 0.3955(3)
H38 H 0.2664 0.4769 0.3633
C45 C 0.18967(18) 0.5091(4) 0.2417(2)
H39 H 0.2008 0.4511 0.2545
H40 H 0.2003 0.5197 0.2073
C46 C 0.21088(19) 0.5774(4) 0.2818(2)
H41 H 0.2010 0.5650 0.3163
H42 H 0.2448 0.5711 0.2870
C47 C 0.19884(19) 0.6711(4) 0.2668(3)
C48 C 0.1822(3) 0.7250(5) 0.3019(3)
H43 H 0.1764 0.7029 0.3350
C49 C 0.1738(4) 0.8127(5) 0.2893(4)
H44 H 0.1617 0.8495 0.3135
C50 C 0.1829(4) 0.8453(5) 0.2427(4)
H45 H 0.1783 0.9053 0.2349
C51 C 0.1987(4) 0.7912(5) 0.2069(4)
H46 H 0.2047 0.8136 0.1740
C52 C 0.2057(3) 0.7048(5) 0.2186(3)
H47 H 0.2155 0.6676 0.1930
C53 C 0.1910(2) 0.2191(4) 0.1425(3)
H48 H 0.2018 0.1587 0.1396
H49 H 0.2029 0.2399 0.1789
C54 C 0.2110(3) 0.2761(5) 0.1021(4)
H50 H 0.2029 0.3375 0.1075
H51 H 0.2449 0.2714 0.1090
C55 C 0.1937(5) 0.2516(7) 0.0454(5)
C56 C 0.1661(5) 0.3076(7) 0.0116(4)
H52 H 0.1576 0.3619 0.0248
C57 C 0.1506(5) 0.2857(7) -0.0413(4)
H53 H 0.1322 0.3251 -0.0644
C58 C 0.1617(5) 0.2089(7) -0.0591(5)
H54 H 0.1497 0.1923 -0.0946
C59 C 0.1904(5) 0.1530(7) -0.0271(4)
H55 H 0.1990 0.0991 -0.0408
C60 C 0.2067(5) 0.1756(7) 0.0250(4)
H56 H 0.2272 0.1378 0.0468
O9? O -0.0356(5) 0.3747(7) 0.5370(6)
C63? C 0.0000 0.1887(13) 0.2500
C64? C -0.0211(13) 0.351(2) 0.2080(13)
C67? C 0.0467(14) 0.787(2) 0.2826(16)
O13? O -0.0099(6) -0.0397(14) 0.4581(9)
C69? C 0.0382(7) -0.0505(19) 0.4641(11)
loop_
_geom_bond_atom_site_label_1
_geom_bond_atom_site_label_2
_geom_bond_site_symmetry_1
_geom_bond_site_symmetry_2
C1 C2 1_555 1_555
C2 H1 1_555 1_555
C3 C2 1_555 1_555
C4 C3 1_555 1_555
O1 C4 1_555 1_555
H2 O1 1_555 1_555
C5 C4 1_555 1_555
H3 C5 1_555 1_555
C6 C1 1_555 1_555
O2 C6 1_555 1_555
H4 O2 1_555 1_555
C7 C3 1_555 1_555
H5 C7 1_555 1_555
C8 C7 1_555 1_555
C9 C8 1_555 1_555
H6 C9 1_555 1_555
C10 C9 1_555 1_555
C11 C10 1_555 1_555
O3 C11 1_555 1_555
H7 O3 1_555 1_555
C12 C11 1_555 1_555
H8 C12 1_555 1_555
C13 C8 1_555 1_555
O4 C13 1_555 1_555
H9 O4 1_555 1_555
C14 C10 1_555 1_555
H10 C14 1_555 1_555
C15 C14 1_555 1_555
C16 C15 1_555 1_555
H11 C16 1_555 1_555
C17 C16 1_555 1_555
C18 C17 1_555 1_555
O5 C18 1_555 1_555
H12 O5 1_555 1_555
C19 C18 1_555 1_555
H13 C19 1_555 1_555
C20 C15 1_555 1_555
O6 C20 1_555 1_555
H14 O6 1_555 1_555
C21 C17 1_555 1_555
H15 C21 1_555 1_555
C22 C21 1_555 1_555
C23 C22 1_555 1_555
H16 C23 1_555 1_555
C24 C23 1_555 1_555
C25 C24 1_555 1_555
O7 C25 1_555 1_555
H17 O7 1_555 1_555
C26 C25 1_555 1_555
H18 C26 1_555 1_555
C27 C22 1_555 1_555
O8 C27 1_555 1_555
H19 O8 1_555 1_555
C28 C1 1_555 1_555
H20 C28 1_555 1_555
C29 C7 1_555 1_555
H21 C29 1_555 1_555
H22 C29 1_555 1_555
C30 C29 1_555 1_555
H23 C30 1_555 1_555
H24 C30 1_555 1_555
C31 C30 1_555 1_555
C32 C31 1_555 1_555
H25 C32 1_555 1_555
C33 C32 1_555 1_555
H26 C33 1_555 1_555
C34 C33 1_555 1_555
H27 C34 1_555 1_555
C35 C34 1_555 1_555
H28 C35 1_555 1_555
C36 C31 1_555 1_555
H29 C36 1_555 1_555
C37 C14 1_555 1_555
H30 C37 1_555 1_555
H31 C37 1_555 1_555
C38 C37 1_555 1_555
H32 C38 1_555 1_555
H33 C38 1_555 1_555
C39 C38 1_555 1_555
C40 C39 1_555 1_555
H34 C40 1_555 1_555
C41 C40 1_555 1_555
H35 C41 1_555 1_555
C42 C41 1_555 1_555
H36 C42 1_555 1_555
C43 C42 1_555 1_555
H37 C43 1_555 1_555
C44 C39 1_555 1_555
H38 C44 1_555 1_555
C45 C21 1_555 1_555
H39 C45 1_555 1_555
H40 C45 1_555 1_555
C46 C45 1_555 1_555
H41 C46 1_555 1_555
H42 C46 1_555 1_555
C47 C46 1_555 1_555
C48 C47 1_555 1_555
H43 C48 1_555 1_555
C49 C48 1_555 1_555
H44 C49 1_555 1_555
C50 C49 1_555 1_555
H45 C50 1_555 1_555
C51 C50 1_555 1_555
H46 C51 1_555 1_555
C52 C47 1_555 1_555
H47 C52 1_555 1_555
C53 C28 1_555 1_555
H48 C53 1_555 1_555
H49 C53 1_555 1_555
C54 C53 1_555 1_555
H50 C54 1_555 1_555
H51 C54 1_555 1_555
C55 C54 1_555 1_555
C56 C55 1_555 1_555
H52 C56 1_555 1_555
C57 C56 1_555 1_555
H53 C57 1_555 1_555
C58 C57 1_555 1_555
H54 C58 1_555 1_555
C59 C58 1_555 1_555
H55 C59 1_555 1_555
C60 C55 1_555 1_555
H56 C60 1_555 1_555
N1 C61 1_555 1_555
C62 N1 1_555 1_555
O10 C65 1_555 1_555
O11 C66 1_555 1_555
O12 C68 1_555 1_555
O14 C70 1_555 1_555
C61B N1 1_555 1_555
C62B N1 1_555 1_555
C5 C6 1_555 1_555
C12 C13 1_555 1_555
C19 C20 1_555 1_555
C24 C28 1_555 1_555
C26 C27 1_555 1_555
C35 C36 1_555 1_555
C43 C44 1_555 1_555
C51 C52 1_555 1_555
C59 C60 1_555 1_555

#END
