
#######################################################################
#
#                 Cambridge Crystallographic Data Centre
#                                CCDC 
#
#######################################################################
#
# If this CIF has been generated from an entry in the Cambridge 
# Structural Database, then it will include bibliographic, chemical, 
# crystal, experimental, refinement or atomic coordinate data resulting 
# from the CCDC's data processing and validation procedures.
#
#######################################################################

data_FEQREZ
_chemical_formula_moiety         
'C52 H72 O8,1.5(C8 H18 N2 2+),3(Br1 1-),C2 H6 O1,H2 O1'
_chemical_name_systematic        
"4,6,10,12,16,18,22,24-Octahydroxy-2,8,14,20-tetrahexylcalix(4)arene sesquikis(N,N'-dimethyl-1,4-diazabicyclo(2.2.2)octane dibromide) ethanol solvate monohydrate"
_symmetry_cell_setting           monoclinic
_symmetry_space_group_name_H-M   'C 2/c'
_symmetry_Int_Tables_number      15
_space_group_name_Hall           '-C 2yn'
loop_
_symmetry_equiv_pos_site_id
_symmetry_equiv_pos_as_xyz
1 x,y,z
2 1/2+x,1/2+y,z
3 -x,y,1/2-z
4 1/2-x,1/2+y,1/2-z
5 -x,-y,-z
6 1/2-x,1/2-y,-z
7 x,-y,1/2+z
8 1/2+x,1/2-y,1/2+z
_cell_length_a                   53.2560(8)
_cell_length_b                   12.6490(3)
_cell_length_c                   20.5761(7)
_cell_angle_alpha                90
_cell_angle_beta                 97.955(1)
_cell_angle_gamma                90
_cell_volume                     13727.4
_exptl_crystal_colour            colorless
_exptl_crystal_description       block
_cell_formula_units_Z            8
loop_
_atom_site_label
_atom_site_type_symbol
_atom_site_fract_x
_atom_site_fract_y
_atom_site_fract_z
C1 C 0.12658(9) 0.7599(5) 0.3201(3)
C2 C 0.12452(9) 0.6729(5) 0.3598(3)
H1 H 0.1362 0.6676 0.3990
C3 C 0.10648(9) 0.5917(5) 0.3469(3)
C4 C 0.08883(9) 0.6064(5) 0.2906(3)
O1 O 0.06997(7) 0.5309(3) 0.2769(2)
H2 H 0.0586(9) 0.559(5) 0.251(3)
C5 C 0.08968(9) 0.6925(5) 0.2490(3)
H3 H 0.0773 0.6999 0.2113
C6 C 0.10858(9) 0.7672(5) 0.2623(3)
O2 O 0.11008(7) 0.8507(4) 0.2204(2)
H4 H 0.0985(9) 0.852(6) 0.188(2)
C7 C 0.10743(9) 0.4943(5) 0.3887(3)
H5 H 0.0951 0.4433 0.3649
C8 C 0.09873(9) 0.5132(5) 0.4558(3)
C9 C 0.11503(9) 0.5270(5) 0.5142(3)
H6 H 0.1327 0.5250 0.5121
C10 C 0.10741(9) 0.5435(5) 0.5751(3)
C11 C 0.08138(10) 0.5470(5) 0.5775(3)
O3 O 0.07062(7) 0.5620(4) 0.6339(2)
H7 H 0.0815(10) 0.584(6) 0.664(3)
C12 C 0.06427(9) 0.5338(5) 0.5202(3)
H8 H 0.0466 0.5346 0.5225
C13 C 0.07265(9) 0.5198(5) 0.4609(3)
O4 O 0.05471(7) 0.5100(4) 0.4061(2)
H9 H 0.0612(12) 0.507(6) 0.372(2)
C14 C 0.14756(9) 0.8419(5) 0.3362(3)
H10 H 0.1454 0.8942 0.2993
C15 C 0.14448(9) 0.9033(5) 0.3980(3)
C16 C 0.15658(9) 0.8792(5) 0.4607(3)
H11 H 0.1673 0.8187 0.4654
C17 C 0.15415(9) 0.9369(5) 0.5167(3)
C18 C 0.13823(10) 1.0270(5) 0.5087(3)
O5 O 0.13439(9) 1.0921(4) 0.5590(2)
H12 H 0.1374(14) 1.064(6) 0.596(2)
C19 C 0.12565(10) 1.0526(5) 0.4479(3)
H13 H 0.1146 1.1119 0.4432
C20 C 0.12887(9) 0.9929(5) 0.3935(3)
O6 O 0.11605(8) 1.0150(4) 0.3324(2)
H14 H 0.1079(12) 1.071(4) 0.338(4)
C21 C 0.16799(9) 0.9083(5) 0.5840(3)
H15 H 0.1715 0.9767 0.6079
C22 C 0.15093(9) 0.8446(5) 0.6241(3)
C23 C 0.14648(9) 0.7365(5) 0.6151(3)
H16 H 0.1547 0.7014 0.5831
C24 C 0.13088(9) 0.6768(5) 0.6494(3)
O7 O 0.10263(9) 0.6726(4) 0.7287(2)
H17 H 0.0972 0.7107 0.7572
C25 C 0.11857(10) 0.7320(6) 0.6948(3)
C26 C 0.12199(10) 0.8386(5) 0.7051(3)
H18 H 0.1132 0.8739 0.7360
C27 C 0.13816(9) 0.8949(5) 0.6707(3)
O8 O 0.14237(7) 1.0016(4) 0.6808(2)
H19 H 0.1319(10) 1.029(5) 0.703(3)
C28 C 0.12625(9) 0.5591(5) 0.6370(3)
H20 H 0.1176 0.5330 0.6741
C29 C 0.13379(10) 0.4420(5) 0.3926(3)
H21 H 0.1385 0.4384 0.3478
H22 H 0.1463 0.4881 0.4190
C30 C 0.13582(12) 0.3343(6) 0.4214(4)
H23 H 0.1225 0.2891 0.3973
H24 H 0.1326 0.3383 0.4676
C31 C 0.16208(14) 0.2812(6) 0.4193(4)
H25 H 0.1755 0.3294 0.4402
H26 H 0.1629 0.2156 0.4458
C32 C 0.16760(14) 0.2544(8) 0.3523(4)
H27 H 0.1657 0.3190 0.3248
H28 H 0.1549 0.2024 0.3324
C33 C 0.19429(18) 0.2087(9) 0.3514(5)
H29 H 0.2070 0.2607 0.3710
H30 H 0.1962 0.1439 0.3786
C34 C 0.17384(9) 0.7916(5) 0.3363(3)
H31 H 0.1784 0.7512 0.3775
H32 H 0.1732 0.7415 0.2992
C35 C 0.19416(12) 0.8750(7) 0.3305(4)
H33 H 0.1884 0.9203 0.2922
H34 H 0.1957 0.9204 0.3701
C36 C 0.21937(14) 0.8335(8) 0.3234(5)
H35 H 0.2175 0.7804 0.2877
H36 H 0.2262 0.7965 0.3644
C37 C 0.23855(16) 0.9150(9) 0.3086(6)
H37 H 0.2301 0.9617 0.2735
H38 H 0.2428 0.9592 0.3483
C38 C 0.2614(3) 0.8802(14) 0.2892(10)
H39 H 0.2573 0.8248 0.2554
H40 H 0.2714 0.8460 0.3276
C39 C 0.2784(4) 0.9611(16) 0.2620(10)
H41 H 0.2941 0.9264 0.2529
H42 H 0.2827 1.0176 0.2942
H43 H 0.2696 0.9911 0.2212
C42 C 0.19386(9) 0.8559(5) 0.5831(3)
H49 H 0.2012 0.8384 0.6288
H50 H 0.1914 0.7887 0.5584
C43 C 0.21260(10) 0.9234(6) 0.5529(4)
H51 H 0.2130 0.9949 0.5726
H52 H 0.2067 0.9307 0.5053
C44 C 0.23921(11) 0.8782(7) 0.5624(4)
H53 H 0.2458 0.8800 0.6098
H54 H 0.2383 0.8032 0.5486
C45 C 0.25779(11) 0.9347(7) 0.5255(4)
H55 H 0.2581 1.0105 0.5375
H56 H 0.2518 0.9296 0.4779
C46 C 0.28483(13) 0.8903(8) 0.5392(5)
H57 H 0.2915 0.9034 0.5859
H58 H 0.2841 0.8128 0.5326
C47 C 0.30228(15) 0.9347(8) 0.4987(5)
H59 H 0.3190 0.9026 0.5104
H60 H 0.3035 1.0112 0.5057
H61 H 0.2961 0.9203 0.4524
C48 C 0.15077(10) 0.4955(5) 0.6399(3)
H62 H 0.1590 0.5123 0.6008
H63 H 0.1625 0.5168 0.6793
C49 C 0.14619(11) 0.3768(6) 0.6423(3)
H64 H 0.1367 0.3542 0.5997
H65 H 0.1354 0.3621 0.6766
C50 C 0.17050(12) 0.3100(6) 0.6564(3)
H66 H 0.1807 0.3363 0.6971
H67 H 0.1657 0.2359 0.6643
C51 C 0.18638(13) 0.3115(7) 0.6032(4)
H68 H 0.1914 0.3854 0.5956
H69 H 0.1762 0.2857 0.5623
C52 C 0.21043(16) 0.2435(8) 0.6177(5)
H70 H 0.2202 0.2673 0.6597
H71 H 0.2054 0.1692 0.6235
C53 C 0.2274(2) 0.2474(10) 0.5656(6)
H72 H 0.2422 0.2026 0.5784
H73 H 0.2329 0.3205 0.5602
H74 H 0.2181 0.2218 0.5241
C54 C 0.1993(2) 0.1820(12) 0.2817(6)
H75 H 0.2164 0.1526 0.2834
H76 H 0.1979 0.2464 0.2549
H77 H 0.1869 0.1300 0.2622
Br1 Br 0.072915(11) 0.80747(6) 0.82483(4)
Br2 Br 0.023558(12) 0.99544(6) 0.12129(4)
Br3 Br 0.01643(3) 0.65015(12) 0.20186(7)
O10 O -0.00232(16) 0.6461(9) 0.4679(5)
N1 N 0.04754(8) 0.8770(4) 0.3798(2)
N2 N 0.06684(8) 0.8527(4) 0.4993(3)
C55 C 0.07826(12) 0.8391(6) 0.5695(3)
H78 H 0.0950 0.8728 0.5766
H79 H 0.0800 0.7636 0.5797
H80 H 0.0672 0.8720 0.5981
C56 C 0.03657(12) 0.8926(6) 0.3101(3)
H81 H 0.0370 0.8257 0.2863
H82 H 0.0465 0.9458 0.2901
H83 H 0.0190 0.9167 0.3078
C57 C 0.03252(10) 0.7966(5) 0.4121(3)
H84 H 0.0353 0.7252 0.3948
H85 H 0.0142 0.8132 0.4029
C58 C 0.04127(10) 0.7998(5) 0.4861(3)
H86 H 0.0288 0.8394 0.5081
H87 H 0.0424 0.7269 0.5038
C59 C 0.06333(10) 0.9672(5) 0.4833(3)
H88 H 0.0800 1.0011 0.4825
H89 H 0.0549 1.0026 0.5173
C60 C 0.04725(10) 0.9787(5) 0.4167(3)
H90 H 0.0296 0.9970 0.4225
H91 H 0.0541 1.0364 0.3917
C61 C 0.07457(10) 0.8368(6) 0.3851(4)
H92 H 0.0856 0.8928 0.3710
H93 H 0.0753 0.7751 0.3558
C62 C 0.08410(10) 0.8048(5) 0.4558(3)
H94 H 0.0841 0.7269 0.4600
H95 H 0.1016 0.8306 0.4686
N3 N -0.00150(9) 0.3145(5) 0.1887(3)
C63 C -0.00359(13) 0.2047(6) 0.2146(4)
H96 H -0.0212 0.1790 0.2036
H97 H 0.0077 0.1566 0.1940
C64 C 0.02345(10) 0.3593(5) 0.2188(3)
H98 H 0.0270 0.4254 0.1960
H99 H 0.0372 0.3083 0.2144
C65 C -0.00356(19) 0.3193(12) 0.1151(4)
H100 H 0.0100 0.2768 0.1004
H101 H -0.0019 0.3928 0.1013
H102 H -0.0201 0.2914 0.0956
C66 C -0.02231(10) 0.3814(5) 0.2099(3)
H103 H -0.0188 0.4572 0.2035
H104 H -0.0387 0.3637 0.1834
N3B N 0.00150(9) 0.3145(5) 0.3113(3)
C63B C 0.00359(13) 0.2047(6) 0.2854(4)
H96B H 0.0212 0.1790 0.2964
H97B H -0.0077 0.1566 0.3060
C64B C -0.02345(10) 0.3593(5) 0.2812(3)
H98B H -0.0270 0.4254 0.3040
H99B H -0.0372 0.3083 0.2856
C65B C 0.00356(19) 0.3193(12) 0.3849(4)
H100B H -0.0100 0.2768 0.3996
H101B H 0.0019 0.3928 0.3987
H102B H 0.0201 0.2914 0.4044
C66B C 0.02231(10) 0.3814(5) 0.2901(3)
H103B H 0.0188 0.4572 0.2965
H104B H 0.0387 0.3637 0.3166
O11 O 0.07409(8) 0.8454(4) 0.1166(2)
H105 H 0.0607 0.8627 0.1309
C67 C 0.06987(15) 0.7488(7) 0.0787(4)
H106 H 0.0566 0.7072 0.0965
H107 H 0.0857 0.7066 0.0852
C68 C 0.0622(2) 0.7626(10) 0.0087(5)
H110 H 0.0518 0.7026 -0.0086
H111 H 0.0774 0.7666 -0.0135
H112 H 0.0525 0.8282 0.0010
C40? C 0.2435(4) 0.944(2) 0.2495(10)
H44? H 0.2285 0.9820 0.2268
H45? H 0.2458 0.8797 0.2237
C41? C 0.2667(5) 1.015(3) 0.2490(12)
H46? H 0.2694 1.0278 0.2036
H47? H 0.2816 0.9796 0.2727
H48? H 0.2639 1.0821 0.2704
O9? O 0.03000(19) 0.6210(9) 0.2087(5)
Br4? Br -0.00200(2) 0.57984(14) 0.44198(8)
H108? H 0.0758 0.6879 0.1069
H109? H 0.0514 0.7399 0.0647
C69? C 0.0820(5) 0.748(2) 0.0251(11)
H113? H 0.0782 0.6824 0.0008
H114? H 0.1003 0.7542 0.0388
H115? H 0.0761 0.8085 -0.0031
loop_
_geom_bond_atom_site_label_1
_geom_bond_atom_site_label_2
_geom_bond_site_symmetry_1
_geom_bond_site_symmetry_2
C1 C2 1_555 1_555
C2 H1 1_555 1_555
C3 C2 1_555 1_555
C4 C3 1_555 1_555
O1 C4 1_555 1_555
H2 O1 1_555 1_555
C5 C4 1_555 1_555
H3 C5 1_555 1_555
C6 C1 1_555 1_555
O2 C6 1_555 1_555
H4 O2 1_555 1_555
C7 C3 1_555 1_555
H5 C7 1_555 1_555
C8 C7 1_555 1_555
C9 C8 1_555 1_555
H6 C9 1_555 1_555
C10 C9 1_555 1_555
C11 C10 1_555 1_555
O3 C11 1_555 1_555
H7 O3 1_555 1_555
C12 C11 1_555 1_555
H8 C12 1_555 1_555
C13 C8 1_555 1_555
O4 C13 1_555 1_555
H9 O4 1_555 1_555
C14 C1 1_555 1_555
H10 C14 1_555 1_555
C15 C14 1_555 1_555
C16 C15 1_555 1_555
H11 C16 1_555 1_555
C17 C16 1_555 1_555
C18 C17 1_555 1_555
O5 C18 1_555 1_555
H12 O5 1_555 1_555
C19 C18 1_555 1_555
H13 C19 1_555 1_555
C20 C15 1_555 1_555
O6 C20 1_555 1_555
H14 O6 1_555 1_555
C21 C17 1_555 1_555
H15 C21 1_555 1_555
C22 C21 1_555 1_555
C23 C22 1_555 1_555
H16 C23 1_555 1_555
C24 C23 1_555 1_555
O7 H17 1_555 1_555
C25 C24 1_555 1_555
C26 C25 1_555 1_555
H18 C26 1_555 1_555
C27 C22 1_555 1_555
O8 C27 1_555 1_555
H19 O8 1_555 1_555
C28 C10 1_555 1_555
H20 C28 1_555 1_555
C29 C7 1_555 1_555
H21 C29 1_555 1_555
H22 C29 1_555 1_555
C30 C29 1_555 1_555
H23 C30 1_555 1_555
H24 C30 1_555 1_555
C31 C30 1_555 1_555
H25 C31 1_555 1_555
H26 C31 1_555 1_555
C32 C31 1_555 1_555
H27 C32 1_555 1_555
H28 C32 1_555 1_555
C33 C32 1_555 1_555
H29 C33 1_555 1_555
H30 C33 1_555 1_555
C34 C14 1_555 1_555
H31 C34 1_555 1_555
H32 C34 1_555 1_555
C35 C34 1_555 1_555
H33 C35 1_555 1_555
H34 C35 1_555 1_555
C36 C35 1_555 1_555
H35 C36 1_555 1_555
H36 C36 1_555 1_555
C37 C36 1_555 1_555
H37 C37 1_555 1_555
H38 C37 1_555 1_555
C38 C37 1_555 1_555
H39 C38 1_555 1_555
H40 C38 1_555 1_555
C39 C38 1_555 1_555
H41 C39 1_555 1_555
H42 C39 1_555 1_555
H43 C39 1_555 1_555
C42 C21 1_555 1_555
H49 C42 1_555 1_555
H50 C42 1_555 1_555
C43 C42 1_555 1_555
H51 C43 1_555 1_555
H52 C43 1_555 1_555
C44 C43 1_555 1_555
H53 C44 1_555 1_555
H54 C44 1_555 1_555
C45 C44 1_555 1_555
H55 C45 1_555 1_555
H56 C45 1_555 1_555
C46 C45 1_555 1_555
H57 C46 1_555 1_555
H58 C46 1_555 1_555
C47 C46 1_555 1_555
H59 C47 1_555 1_555
H60 C47 1_555 1_555
H61 C47 1_555 1_555
C48 C28 1_555 1_555
H62 C48 1_555 1_555
H63 C48 1_555 1_555
C49 C48 1_555 1_555
H64 C49 1_555 1_555
H65 C49 1_555 1_555
C50 C49 1_555 1_555
H66 C50 1_555 1_555
H67 C50 1_555 1_555
C51 C50 1_555 1_555
H68 C51 1_555 1_555
H69 C51 1_555 1_555
C52 C51 1_555 1_555
H70 C52 1_555 1_555
H71 C52 1_555 1_555
C53 C52 1_555 1_555
H72 C53 1_555 1_555
H73 C53 1_555 1_555
H74 C53 1_555 1_555
C54 C33 1_555 1_555
H75 C54 1_555 1_555
H76 C54 1_555 1_555
H77 C54 1_555 1_555
N1 C56 1_555 1_555
N2 C55 1_555 1_555
C55 H78 1_555 1_555
H79 C55 1_555 1_555
H80 C55 1_555 1_555
C56 H81 1_555 1_555
H82 C56 1_555 1_555
H83 C56 1_555 1_555
C57 N1 1_555 1_555
H84 C57 1_555 1_555
H85 C57 1_555 1_555
C58 N2 1_555 1_555
H86 C58 1_555 1_555
H87 C58 1_555 1_555
C59 N2 1_555 1_555
H88 C59 1_555 1_555
H89 C59 1_555 1_555
C60 N1 1_555 1_555
H90 C60 1_555 1_555
H91 C60 1_555 1_555
C61 N1 1_555 1_555
H92 C61 1_555 1_555
H93 C61 1_555 1_555
C62 N2 1_555 1_555
H94 C62 1_555 1_555
H95 C62 1_555 1_555
N3 C63 1_555 1_555
C63 H96 1_555 1_555
H97 C63 1_555 1_555
C64 N3 1_555 1_555
H98 C64 1_555 1_555
H99 C64 1_555 1_555
C65 N3 1_555 1_555
H100 C65 1_555 1_555
H101 C65 1_555 1_555
H102 C65 1_555 1_555
C66 N3 1_555 1_555
H103 C66 1_555 1_555
H104 C66 1_555 1_555
O11 H105 1_555 1_555
C67 O11 1_555 1_555
H106 C67 1_555 1_555
H107 C67 1_555 1_555
C68 C67 1_555 1_555
H110 C68 1_555 1_555
H111 C68 1_555 1_555
H112 C68 1_555 1_555
N3B C63B 1_555 1_555
C63B C63 1_555 1_555
H96B C63B 1_555 1_555
H97B C63B 1_555 1_555
C64B C66 1_555 1_555
H98B C64B 1_555 1_555
H99B C64B 1_555 1_555
C65B N3B 1_555 1_555
H100B C65B 1_555 1_555
H101B C65B 1_555 1_555
H102B C65B 1_555 1_555
C66B C64 1_555 1_555
H103B C66B 1_555 1_555
H104B C66B 1_555 1_555
C5 C6 1_555 1_555
C12 C13 1_555 1_555
C19 C20 1_555 1_555
C24 C28 1_555 1_555
O7 C25 1_555 1_555
C26 C27 1_555 1_555
C57 C58 1_555 1_555
C59 C60 1_555 1_555
C61 C62 1_555 1_555
N3B C64B 1_555 1_555
N3B C66B 1_555 1_555

#END
