
#######################################################################
#
#                 Cambridge Crystallographic Data Centre
#                                CCDC 
#
#######################################################################
#
# If this CIF has been generated from an entry in the Cambridge 
# Structural Database, then it will include bibliographic, chemical, 
# crystal, experimental, refinement or atomic coordinate data resulting 
# from the CCDC's data processing and validation procedures.
#
#######################################################################

data_FEQRIC
_chemical_formula_moiety         'C62 H74 O9'
_chemical_name_systematic        
'25,27-bis(1-Propyloxy)calix(4)arene dibenzo(di-n-butyl)crown-7 ether'
_symmetry_cell_setting           monoclinic
_symmetry_space_group_name_H-M   'P 21'
_symmetry_Int_Tables_number      4
_space_group_name_Hall           'P 2yb'
loop_
_symmetry_equiv_pos_site_id
_symmetry_equiv_pos_as_xyz
1 x,y,z
2 -x,1/2+y,-z
_cell_length_a                   13.110(4)
_cell_length_b                   18.355(3)
_cell_length_c                   11.861(10)
_cell_angle_alpha                90
_cell_angle_beta                 97.92(4)
_cell_angle_gamma                90
_cell_volume                     2826.94
_exptl_crystal_colour            colorless
_exptl_crystal_description       plate
_chemical_melting_point          179-181deg.C
_cell_formula_units_Z            2
_exptl_crystal_recrystallization_method 'diethyl ether/hexanes'
loop_
_atom_site_label
_atom_site_type_symbol
_atom_site_fract_x
_atom_site_fract_y
_atom_site_fract_z
O1 O 0.2842(9) 0.0823(6) 0.4989(9)
O2 O 0.1847(5) -0.0379(8) 0.2173(6)
O3 O 0.0331(5) -0.0398(7) 0.5106(5)
O4 O 0.2814(6) -0.1647(5) 0.4913(8)
O5 O 0.4510(9) -0.2691(5) 0.7030(10)
O6 O 0.4515(9) -0.1949(6) 0.9003(8)
O7 O 0.4790(6) -0.0353(8) 0.9757(5)
O8 O 0.4384(8) 0.1192(6) 0.8928(8)
O9 O 0.4393(8) 0.1964(6) 0.7011(9)
C1 C 0.1761(14) 0.1013(9) 0.4320(15)
C2 C 0.0985(12) 0.1085(8) 0.4922(14)
C3 C 0.0204(13) 0.1364(7) 0.4003(16)
H1 H -0.0410 0.1503 0.4251
C4 C 0.0212(16) 0.1456(10) 0.2856(17)
H2 H -0.0381 0.1589 0.2378
C5 C 0.1115(14) 0.1346(10) 0.2446(14)
H3 H 0.1162 0.1408 0.1676
C6 C 0.1941(12) 0.1146(9) 0.3178(15)
C7 C 0.2846(12) 0.1064(8) 0.2554(14)
H4 H 0.2625 0.1148 0.1750
H5 H 0.3349 0.1435 0.2819
C8 C 0.3341(10) 0.0347(7) 0.2694(10)
C9 C 0.4378(11) 0.0438(8) 0.3018(11)
H6 H 0.4702 0.0889 0.3076
C10 C 0.4884(8) -0.0209(7) 0.3245(8)
H7 H 0.5580 -0.0157 0.3519
C11 C 0.4555(11) -0.0923(8) 0.3142(11)
H8 H 0.4993 -0.1319 0.3304
C12 C 0.3478(15) -0.0996(10) 0.2764(16)
C13 C 0.2926(8) -0.0392(10) 0.2540(8)
C14 C 0.1573(8) -0.0485(13) 0.0992(10)
H9 H 0.1849 -0.0941 0.0751
H10 H 0.1823 -0.0089 0.0564
C15 C 0.0391(11) -0.0501(10) 0.0834(9)
H11 H 0.0141 -0.0999 0.0774
H12 H 0.0132 -0.0268 0.1472
C16 C 0.0077(11) -0.0122(9) -0.0167(11)
H13 H -0.0662 -0.0102 -0.0300
H14 H 0.0326 -0.0366 -0.0791
H15 H 0.0349 0.0364 -0.0102
C17 C 0.2853(11) -0.1692(8) 0.2613(13)
H16 H 0.2699 -0.1761 0.1796
H17 H 0.3329 -0.2078 0.2887
C18 C 0.1916(11) -0.1861(8) 0.3052(12)
C19 C 0.0937(12) -0.2137(8) 0.2471(13)
H18 H 0.0862 -0.2233 0.1694
C20 C 0.0143(12) -0.2251(8) 0.3058(13)
H19 H -0.0453 -0.2445 0.2651
C21 C 0.0114(12) -0.2115(7) 0.4177(12)
H20 H -0.0476 -0.2164 0.4526
C22 C 0.1072(11) -0.1891(8) 0.4751(12)
C23 C 0.1959(8) -0.1789(6) 0.4280(9)
C24 C 0.1007(15) -0.1784(10) 0.6021(16)
H21 H 0.0288 -0.1819 0.6129
H22 H 0.1367 -0.2186 0.6433
C25 C 0.1421(11) -0.1100(8) 0.6546(12)
C26 C 0.2124(11) -0.1075(8) 0.7508(12)
H23 H 0.2392 -0.1506 0.7840
C27 C 0.2435(8) -0.0424(11) 0.7986(8)
H24 H 0.2941 -0.0406 0.8618
C28 C 0.1978(15) 0.0222(11) 0.7510(16)
H25 H 0.2146 0.0660 0.7886
C29 C 0.1289(12) 0.0237(9) 0.6507(14)
C30 C 0.1002(8) -0.0416(12) 0.6125(9)
C31 C -0.0689(8) -0.0440(14) 0.5213(9)
H26 H -0.0924 0.0000 0.5550
H27 H -0.0829 -0.0856 0.5672
C32 C -0.1213(10) -0.0532(12) 0.3930(12)
H28 H -0.0775 -0.0331 0.3412
H29 H -0.1334 -0.1043 0.3749
C33 C -0.2090(10) -0.0175(9) 0.3847(12)
H30 H -0.2425 -0.0193 0.3075
H31 H -0.1960 0.0323 0.4068
H32 H -0.2527 -0.0394 0.4339
C34 C 0.0988(12) 0.0951(6) 0.6083(11)
H33 H 0.0300 0.1046 0.6261
H34 H 0.1444 0.1303 0.6503
C35 C 0.3335(12) -0.2257(8) 0.5398(13)
H35 H 0.3632 -0.2520 0.4813
H36 H 0.2849 -0.2577 0.5696
C36 C 0.4199(12) -0.2051(9) 0.6368(14)
H37 H 0.3980 -0.1661 0.6844
C37 C 0.5156(11) -0.1877(9) 0.5974(12)
H38 H 0.5053 -0.1462 0.5465
H39 H 0.5366 -0.2287 0.5543
C38 C 0.6002(11) -0.1704(10) 0.6922(12)
H40 H 0.6056 -0.2095 0.7477
H41 H 0.5831 -0.1261 0.7299
C39 C 0.7042(12) -0.1606(9) 0.6487(11)
H42 H 0.7167 -0.2022 0.6020
H43 H 0.7015 -0.1174 0.6013
C40 C 0.7887(13) -0.1536(11) 0.7407(18)
H44 H 0.8517 -0.1462 0.7097
H45 H 0.7938 -0.1973 0.7857
H46 H 0.7764 -0.1128 0.7876
C41 C 0.3891(11) -0.2824(8) 0.7805(13)
C42 C 0.3353(12) -0.3442(9) 0.7415(14)
H47 H 0.3436 -0.3633 0.6707
C43 C 0.2709(10) -0.3772(8) 0.8047(11)
H48 H 0.2326 -0.4175 0.7764
C44 C 0.2626(12) -0.3509(9) 0.9107(13)
H49 H 0.2224 -0.3743 0.9584
C45 C 0.3184(13) -0.2855(8) 0.9458(15)
H50 H 0.3088 -0.2654 1.0155
C46 C 0.3834(12) -0.2511(9) 0.8852(15)
C47 C 0.4726(10) -0.1553(7) 1.0068(12)
H51 H 0.4075 -0.1383 1.0272
H52 H 0.5014 -0.1892 1.0653
C48 C 0.5406(10) -0.0940(7) 1.0091(12)
H53 H 0.5768 -0.0866 1.0852
H54 H 0.5908 -0.1015 0.9573
C49 C 0.5120(11) 0.0369(8) 1.0164(13)
H55 H 0.5378 0.0325 1.0968
H56 H 0.5699 0.0506 0.9782
C50 C 0.4417(9) 0.0953(6) 1.0044(11)
H57 H 0.3741 0.0793 1.0186
H58 H 0.4648 0.1341 1.0574
C51 C 0.3833(15) 0.1825(11) 0.8690(18)
C52 C 0.3289(16) 0.1991(10) 0.9557(19)
H59 H 0.3394 0.1716 1.0221
C53 C 0.2580(11) 0.2562(9) 0.9477(9)
H60 H 0.2167 0.2643 1.0043
C54 C 0.2515(11) 0.3008(9) 0.8515(10)
H61 H 0.2123 0.3432 0.8455
C55 C 0.3048(11) 0.2794(8) 0.7672(12)
H62 H 0.2919 0.3056 0.6997
C56 C 0.3723(12) 0.2264(8) 0.7684(13)
C57 C 0.4162(11) 0.1342(8) 0.6390(12)
H63 H 0.3846 0.1028 0.6913
C58 C 0.5008(13) 0.0882(9) 0.6058(14)
H64 H 0.4659 0.0482 0.5633
H65 H 0.5306 0.1173 0.5504
C59 C 0.5880(17) 0.0550(12) 0.6741(19)
H66 H 0.5666 0.0398 0.7456
H67 H 0.6060 0.0113 0.6353
C60 C 0.6723(15) 0.0952(11) 0.6976(17)
H68 H 0.6535 0.1366 0.7412
H69 H 0.6873 0.1144 0.6255
C61 C 0.7674(17) 0.0685(15) 0.756(2)
H70 H 0.8199 0.1049 0.7545
H71 H 0.7869 0.0251 0.7186
H72 H 0.7595 0.0574 0.8331
C62 C 0.3357(13) 0.1444(9) 0.5468(14)
H73 H 0.2848 0.1764 0.5726
H74 H 0.3644 0.1697 0.4867
loop_
_geom_bond_atom_site_label_1
_geom_bond_atom_site_label_2
_geom_bond_site_symmetry_1
_geom_bond_site_symmetry_2
O1 C1 1_555 1_555
O2 C13 1_555 1_555
O3 C30 1_555 1_555
O4 C23 1_555 1_555
O5 C36 1_555 1_555
O6 C46 1_555 1_555
O7 C48 1_555 1_555
O8 C50 1_555 1_555
O9 C56 1_555 1_555
C1 C2 1_555 1_555
C2 C3 1_555 1_555
C3 H1 1_555 1_555
C4 C3 1_555 1_555
H2 C4 1_555 1_555
C5 C4 1_555 1_555
H3 C5 1_555 1_555
C6 C1 1_555 1_555
C7 C6 1_555 1_555
H4 C7 1_555 1_555
H5 C7 1_555 1_555
C8 C7 1_555 1_555
C9 C8 1_555 1_555
H6 C9 1_555 1_555
C10 C9 1_555 1_555
H7 C10 1_555 1_555
C11 C10 1_555 1_555
H8 C11 1_555 1_555
C12 C11 1_555 1_555
C13 C8 1_555 1_555
C14 O2 1_555 1_555
H9 C14 1_555 1_555
H10 C14 1_555 1_555
C15 C14 1_555 1_555
H11 C15 1_555 1_555
H12 C15 1_555 1_555
C16 C15 1_555 1_555
H13 C16 1_555 1_555
H14 C16 1_555 1_555
H15 C16 1_555 1_555
C17 C12 1_555 1_555
H16 C17 1_555 1_555
H17 C17 1_555 1_555
C18 C17 1_555 1_555
C19 C18 1_555 1_555
H18 C19 1_555 1_555
C20 C19 1_555 1_555
H19 C20 1_555 1_555
C21 C20 1_555 1_555
H20 C21 1_555 1_555
C22 C21 1_555 1_555
C23 C18 1_555 1_555
C24 C22 1_555 1_555
H21 C24 1_555 1_555
H22 C24 1_555 1_555
C25 C24 1_555 1_555
C26 C25 1_555 1_555
H23 C26 1_555 1_555
C27 C26 1_555 1_555
H24 C27 1_555 1_555
C28 C27 1_555 1_555
H25 C28 1_555 1_555
C29 C28 1_555 1_555
C30 C25 1_555 1_555
C31 O3 1_555 1_555
H26 C31 1_555 1_555
H27 C31 1_555 1_555
C32 C31 1_555 1_555
H28 C32 1_555 1_555
H29 C32 1_555 1_555
C33 C32 1_555 1_555
H30 C33 1_555 1_555
H31 C33 1_555 1_555
H32 C33 1_555 1_555
C34 C2 1_555 1_555
H33 C34 1_555 1_555
H34 C34 1_555 1_555
C35 O4 1_555 1_555
H35 C35 1_555 1_555
H36 C35 1_555 1_555
C36 C35 1_555 1_555
H37 C36 1_555 1_555
C37 C36 1_555 1_555
H38 C37 1_555 1_555
H39 C37 1_555 1_555
C38 C37 1_555 1_555
H40 C38 1_555 1_555
H41 C38 1_555 1_555
C39 C38 1_555 1_555
H42 C39 1_555 1_555
H43 C39 1_555 1_555
C40 C39 1_555 1_555
H44 C40 1_555 1_555
H45 C40 1_555 1_555
H46 C40 1_555 1_555
C41 O5 1_555 1_555
C42 C41 1_555 1_555
H47 C42 1_555 1_555
C43 C42 1_555 1_555
H48 C43 1_555 1_555
C44 C43 1_555 1_555
H49 C44 1_555 1_555
C45 C44 1_555 1_555
H50 C45 1_555 1_555
C46 C41 1_555 1_555
C47 O6 1_555 1_555
H51 C47 1_555 1_555
H52 C47 1_555 1_555
C48 C47 1_555 1_555
H53 C48 1_555 1_555
H54 C48 1_555 1_555
C49 O7 1_555 1_555
H55 C49 1_555 1_555
H56 C49 1_555 1_555
C50 C49 1_555 1_555
H57 C50 1_555 1_555
H58 C50 1_555 1_555
C51 O8 1_555 1_555
C52 C51 1_555 1_555
H59 C52 1_555 1_555
C53 C52 1_555 1_555
H60 C53 1_555 1_555
C54 C53 1_555 1_555
H61 C54 1_555 1_555
C55 C54 1_555 1_555
H62 C55 1_555 1_555
C56 C51 1_555 1_555
C57 O9 1_555 1_555
H63 C57 1_555 1_555
C58 C57 1_555 1_555
H64 C58 1_555 1_555
H65 C58 1_555 1_555
C59 C58 1_555 1_555
H66 C59 1_555 1_555
H67 C59 1_555 1_555
C60 C59 1_555 1_555
H68 C60 1_555 1_555
H69 C60 1_555 1_555
C61 C60 1_555 1_555
H70 C61 1_555 1_555
H71 C61 1_555 1_555
H72 C61 1_555 1_555
C62 O1 1_555 1_555
H73 C62 1_555 1_555
H74 C62 1_555 1_555
C5 C6 1_555 1_555
C12 C13 1_555 1_555
C22 C23 1_555 1_555
C29 C30 1_555 1_555
C29 C34 1_555 1_555
C45 C46 1_555 1_555
C55 C56 1_555 1_555
C57 C62 1_555 1_555

#END
