
#######################################################################
#
#                 Cambridge Crystallographic Data Centre
#                                CCDC 
#
#######################################################################
#
# If this CIF has been generated from an entry in the Cambridge 
# Structural Database, then it will include bibliographic, chemical, 
# crystal, experimental, refinement or atomic coordinate data resulting 
# from the CCDC's data processing and validation procedures.
#
#######################################################################

data_FEQXIL
_chemical_formula_moiety         'C31 H27 N3'
_chemical_name_systematic        
N-(2-(2-(di-1H-indol-3-ylmethyl)phenyl)ethyl)aniline
_symmetry_cell_setting           triclinic
_symmetry_space_group_name_H-M   'P -1'
_symmetry_Int_Tables_number      2
_space_group_name_Hall           '-P 1'
loop_
_symmetry_equiv_pos_site_id
_symmetry_equiv_pos_as_xyz
1 x,y,z
2 -x,-y,-z
_cell_length_a                   8.9756(8)
_cell_length_b                   11.4577(10)
_cell_length_c                   12.2933(11)
_cell_angle_alpha                98.217(2)
_cell_angle_beta                 101.270(2)
_cell_angle_gamma                100.526(2)
_cell_volume                     1197.9
_exptl_crystal_colour            colorless
_exptl_crystal_description       block
_cell_formula_units_Z            2
loop_
_atom_site_label
_atom_site_type_symbol
_atom_site_fract_x
_atom_site_fract_y
_atom_site_fract_z
N1 N -0.0861(5) 0.3362(4) 0.0734(4)
H1 H -0.1528 0.3757 0.0415
N2 N 0.4854(4) 0.1438(3) 0.6475(3)
H2 H 0.5285 0.0908 0.6801
N3 N 0.0635(5) -0.0362(3) 0.1922(3)
H3 H -0.0107 -0.0953 0.1495
C1 C 0.2169(4) 0.2334(4) 0.4210(3)
H4 H 0.2648 0.3051 0.3921
C2 C 0.0675(5) 0.2599(4) 0.4524(3)
C3 C 0.0173(5) 0.2132(5) 0.5410(4)
H5 H 0.0761 0.1646 0.5798
C4 C -0.1148(6) 0.2350(5) 0.5744(4)
H6 H -0.1469 0.2016 0.6346
C5 C -0.1997(6) 0.3070(6) 0.5178(5)
H7 H -0.2891 0.3256 0.5407
C6 C -0.1536(6) 0.3510(5) 0.4285(5)
H8 H -0.2143 0.3982 0.3892
C7 C -0.0211(5) 0.3287(4) 0.3936(4)
C8 C 0.0137(5) 0.3748(5) 0.2882(4)
H9 H 0.1207 0.3690 0.2825
H10 H 0.0074 0.4608 0.2946
C9 C -0.1054(6) 0.2988(5) 0.1788(4)
H11 H -0.0970 0.2133 0.1735
H12 H -0.2119 0.3027 0.1874
C10 C 0.0329(6) 0.3133(4) 0.0187(5)
C11 C 0.1307(6) 0.2461(4) 0.0538(5)
H13 H 0.1197 0.2107 0.1179
C12 C 0.2471(6) 0.2254(4) 0.0016(4)
H14 H 0.3152 0.1777 0.0319
C13 C 0.2691(7) 0.2704(5) -0.0918(4)
H15 H 0.3509 0.2556 -0.1270
C14 C 0.1644(7) 0.3406(5) -0.1344(4)
H16 H 0.1725 0.3739 -0.2000
C15 C 0.0460(6) 0.3597(4) -0.0752(5)
H17 H -0.0255 0.4062 -0.1026
C16 C 0.3760(5) 0.1179(4) 0.5486(4)
H18 H 0.3341 0.0392 0.5048
C17 C 0.3351(4) 0.2206(4) 0.5215(3)
C18 C 0.4248(4) 0.3177(4) 0.6103(3)
C19 C 0.4375(5) 0.4425(4) 0.6305(4)
H19 H 0.3795 0.4799 0.5778
C20 C 0.5355(6) 0.5102(4) 0.7280(4)
H20 H 0.5435 0.5950 0.7429
C21 C 0.6233(6) 0.4577(4) 0.8053(4)
H21 H 0.6885 0.5072 0.8724
C22 C 0.6177(5) 0.3361(4) 0.7868(4)
H22 H 0.6797 0.3009 0.8391
C23 C 0.5175(5) 0.2655(4) 0.6882(3)
C24 C 0.0458(5) 0.0463(4) 0.2784(4)
H23 H -0.0490 0.0474 0.3016
C25 C 0.1829(5) 0.1263(4) 0.3264(3)
C26 C 0.2940(5) 0.0904(4) 0.2670(3)
C27 C 0.4531(5) 0.1344(4) 0.2771(4)
H24 H 0.5092 0.2027 0.3329
C28 C 0.5271(6) 0.0759(5) 0.2037(4)
H25 H 0.6351 0.1044 0.2091
C29 C 0.4441(7) -0.0241(5) 0.1222(4)
H26 H 0.4980 -0.0626 0.0736
C30 C 0.2896(7) -0.0689(4) 0.1093(4)
H27 H 0.2347 -0.1364 0.0523
C31 C 0.2158(6) -0.0116(4) 0.1831(4)
loop_
_geom_bond_atom_site_label_1
_geom_bond_atom_site_label_2
_geom_bond_site_symmetry_1
_geom_bond_site_symmetry_2
N1 H1 1_555 1_555
N2 H2 1_555 1_555
N3 H3 1_555 1_555
C1 H4 1_555 1_555
C2 C1 1_555 1_555
C3 C2 1_555 1_555
H5 C3 1_555 1_555
C4 C3 1_555 1_555
H6 C4 1_555 1_555
C5 C4 1_555 1_555
H7 C5 1_555 1_555
C6 C5 1_555 1_555
H8 C6 1_555 1_555
C7 C2 1_555 1_555
C8 C7 1_555 1_555
H9 C8 1_555 1_555
H10 C8 1_555 1_555
C9 N1 1_555 1_555
H11 C9 1_555 1_555
H12 C9 1_555 1_555
C10 N1 1_555 1_555
C11 C10 1_555 1_555
H13 C11 1_555 1_555
C12 C11 1_555 1_555
H14 C12 1_555 1_555
C13 C12 1_555 1_555
H15 C13 1_555 1_555
C14 C13 1_555 1_555
H16 C14 1_555 1_555
C15 C10 1_555 1_555
H17 C15 1_555 1_555
C16 N2 1_555 1_555
H18 C16 1_555 1_555
C17 C1 1_555 1_555
C18 C17 1_555 1_555
C19 C18 1_555 1_555
H19 C19 1_555 1_555
C20 C19 1_555 1_555
H20 C20 1_555 1_555
C21 C20 1_555 1_555
H21 C21 1_555 1_555
C22 C21 1_555 1_555
H22 C22 1_555 1_555
C23 N2 1_555 1_555
C24 N3 1_555 1_555
H23 C24 1_555 1_555
C25 C1 1_555 1_555
C26 C25 1_555 1_555
C27 C26 1_555 1_555
H24 C27 1_555 1_555
C28 C27 1_555 1_555
H25 C28 1_555 1_555
C29 C28 1_555 1_555
H26 C29 1_555 1_555
C30 C29 1_555 1_555
H27 C30 1_555 1_555
C31 N3 1_555 1_555
C6 C7 1_555 1_555
C8 C9 1_555 1_555
C14 C15 1_555 1_555
C16 C17 1_555 1_555
C18 C23 1_555 1_555
C22 C23 1_555 1_555
C24 C25 1_555 1_555
C26 C31 1_555 1_555
C30 C31 1_555 1_555

#END
