
#######################################################################
#
#                 Cambridge Crystallographic Data Centre
#                                CCDC 
#
#######################################################################
#
# If this CIF has been generated from an entry in the Cambridge 
# Structural Database, then it will include bibliographic, chemical, 
# crystal, experimental, refinement or atomic coordinate data resulting 
# from the CCDC's data processing and validation procedures.
#
#######################################################################

data_FEQXUW
_chemical_formula_moiety         'C13 H12 O4'
_chemical_name_systematic        
'Methyl 2-allyl-3-oxo-2,3-dihydro-1-benzofuran-2-carboxylate'
_symmetry_cell_setting           triclinic
_symmetry_space_group_name_H-M   'P -1'
_symmetry_Int_Tables_number      2
_space_group_name_Hall           '-P 1'
loop_
_symmetry_equiv_pos_site_id
_symmetry_equiv_pos_as_xyz
1 x,y,z
2 -x,-y,-z
_cell_length_a                   7.556(3)
_cell_length_b                   8.028(3)
_cell_length_c                   10.194(5)
_cell_angle_alpha                76.318(15)
_cell_angle_beta                 89.210(18)
_cell_angle_gamma                72.761(16)
_cell_volume                     572.769
_exptl_crystal_colour            colorless
_exptl_crystal_description       block
_cell_formula_units_Z            2
loop_
_atom_site_label
_atom_site_type_symbol
_atom_site_fract_x
_atom_site_fract_y
_atom_site_fract_z
O1 O 0.0630(3) 0.4493(2) 0.6425(2)
O2 O 0.3185(3) 0.0021(3) 0.8080(2)
O3 O 0.2450(3) 0.1332(3) 0.4552(2)
O4 O 0.3634(3) 0.3355(3) 0.5088(2)
C1 C 0.1233(4) 0.2616(3) 0.6402(3)
C2 C 0.2434(4) 0.1634(4) 0.7748(3)
C3 C 0.2400(4) 0.3032(4) 0.8428(3)
C4 C 0.1332(4) 0.4653(4) 0.7604(3)
C5 C 0.1029(4) 0.6276(4) 0.7938(3)
H1 H 0.0309 0.7373 0.7354
C6 C 0.1826(5) 0.6226(4) 0.9169(3)
H2 H 0.1645 0.7316 0.9440
C7 C 0.2883(4) 0.4615(4) 1.0016(3)
H3 H 0.3407 0.4630 1.0854
C8 C 0.3190(4) 0.3008(4) 0.9673(3)
H4 H 0.3912 0.1913 1.0258
C9 C 0.2473(4) 0.2360(3) 0.5215(3)
C10 C 0.4972(5) 0.3102(4) 0.4058(4)
H5 H 0.4343 0.3094 0.3226
H6 H 0.5947 0.1954 0.4379
H7 H 0.5528 0.4086 0.3875
C11 C -0.0446(5) 0.1970(4) 0.6293(3)
H8 H -0.1171 0.2659 0.5433
H9 H -0.0015 0.0687 0.6270
C12 C -0.1683(5) 0.2179(5) 0.7444(4)
H10 H -0.1979 0.3302 0.7680
C13 C -0.2366(6) 0.1037(6) 0.8127(5)
H11 H -0.2116 -0.0109 0.7935
H12 H -0.3136 0.1316 0.8838
loop_
_geom_bond_atom_site_label_1
_geom_bond_atom_site_label_2
_geom_bond_site_symmetry_1
_geom_bond_site_symmetry_2
O1 C1 1_555 1_555
O2 C2 1_555 1_555
O3 C9 1_555 1_555
O4 C9 1_555 1_555
C1 C2 1_555 1_555
C2 C3 1_555 1_555
C3 C4 1_555 1_555
C4 O1 1_555 1_555
C5 C4 1_555 1_555
H1 C5 1_555 1_555
C6 C5 1_555 1_555
H2 C6 1_555 1_555
C7 C6 1_555 1_555
H3 C7 1_555 1_555
C8 C3 1_555 1_555
H4 C8 1_555 1_555
C9 C1 1_555 1_555
C10 O4 1_555 1_555
H5 C10 1_555 1_555
H6 C10 1_555 1_555
H7 C10 1_555 1_555
C11 C1 1_555 1_555
H8 C11 1_555 1_555
H9 C11 1_555 1_555
C12 C11 1_555 1_555
H10 C12 1_555 1_555
C13 C12 1_555 1_555
H11 C13 1_555 1_555
H12 C13 1_555 1_555
C7 C8 1_555 1_555

#END
