
#######################################################################
#
#                 Cambridge Crystallographic Data Centre
#                                CCDC 
#
#######################################################################
#
# If this CIF has been generated from an entry in the Cambridge 
# Structural Database, then it will include bibliographic, chemical, 
# crystal, experimental, refinement or atomic coordinate data resulting 
# from the CCDC's data processing and validation procedures.
#
#######################################################################

data_FEQYIL
_chemical_formula_moiety         'C16 H20 N2 O1'
_chemical_name_systematic        
9-Phenyloctahydro-1H-pyrrolo[2,3-f]indolizin-2(3H)-one
_symmetry_cell_setting           monoclinic
_symmetry_space_group_name_H-M   'P 21/c'
_symmetry_Int_Tables_number      14
_space_group_name_Hall           '-P 2ybc'
loop_
_symmetry_equiv_pos_site_id
_symmetry_equiv_pos_as_xyz
1 x,y,z
2 -x,1/2+y,1/2-z
3 -x,-y,-z
4 x,1/2-y,1/2+z
_cell_length_a                   5.7374(5)
_cell_length_b                   15.8715(13)
_cell_length_c                   15.0804(13)
_cell_angle_alpha                90
_cell_angle_beta                 96.019(1)
_cell_angle_gamma                90
_cell_volume                     1365.67
_exptl_crystal_colour            colorless
_cell_formula_units_Z            4
loop_
_atom_site_label
_atom_site_type_symbol
_atom_site_fract_x
_atom_site_fract_y
_atom_site_fract_z
O1 O -0.4573(2) 0.47183(8) 0.38897(8)
N1 N -0.2576(2) 0.41665(8) 0.51614(8)
H1 H -0.3413 0.4380 0.5546
N2 N 0.16927(19) 0.25748(7) 0.62202(7)
C1 C -0.3009(3) 0.42786(10) 0.42736(10)
C2 C -0.1210(3) 0.37642(11) 0.38255(10)
H2 H -0.1912 0.3497 0.3283
H3 H 0.0101 0.4110 0.3689
C3 C -0.0467(2) 0.31187(10) 0.45426(9)
H4 H -0.1767 0.2717 0.4538
C4 C 0.1749(2) 0.25932(9) 0.45765(9)
H5 H 0.3122 0.2953 0.4610
H6 H 0.1730 0.2242 0.4049
C5 C 0.1781(2) 0.20514(9) 0.54099(9)
H7 H 0.0384 0.1692 0.5346
C6 C 0.3908(3) 0.14890(10) 0.56554(11)
H8 H 0.5317 0.1744 0.5472
H9 H 0.3690 0.0941 0.5375
C7 C 0.4061(3) 0.14117(10) 0.66741(11)
H10 H 0.3870 0.0830 0.6851
H11 H 0.5560 0.1617 0.6948
C8 C 0.2054(3) 0.19571(10) 0.69447(10)
H12 H 0.0654 0.1623 0.6986
H13 H 0.2488 0.2232 0.7512
C9 C -0.0470(2) 0.30746(9) 0.62145(9)
H14 H -0.1821 0.2694 0.6140
C10 C -0.0510(2) 0.36381(9) 0.53930(9)
H15 H 0.0880 0.4000 0.5459
C11 C -0.0538(2) 0.35695(8) 0.70766(9)
C12 C -0.2438(3) 0.34891(10) 0.75632(10)
H16 H -0.3671 0.3136 0.7356
C13 C -0.2537(3) 0.39262(12) 0.83562(11)
H17 H -0.3814 0.3859 0.8681
C14 C -0.0739(4) 0.44590(11) 0.86582(11)
H18 H -0.0794 0.4752 0.9190
C15 C 0.1148(3) 0.45574(11) 0.81703(12)
H19 H 0.2352 0.4925 0.8369
C16 C 0.1257(3) 0.41110(10) 0.73865(11)
H20 H 0.2545 0.4175 0.7066
loop_
_geom_bond_atom_site_label_1
_geom_bond_atom_site_label_2
_geom_bond_site_symmetry_1
_geom_bond_site_symmetry_2
O1 C1 1_555 1_555
N1 H1 1_555 1_555
N2 C5 1_555 1_555
C1 N1 1_555 1_555
C2 C1 1_555 1_555
H2 C2 1_555 1_555
H3 C2 1_555 1_555
C3 C2 1_555 1_555
H4 C3 1_555 1_555
C4 C3 1_555 1_555
H5 C4 1_555 1_555
H6 C4 1_555 1_555
C5 C4 1_555 1_555
H7 C5 1_555 1_555
C6 C5 1_555 1_555
H8 C6 1_555 1_555
H9 C6 1_555 1_555
C7 C6 1_555 1_555
H10 C7 1_555 1_555
H11 C7 1_555 1_555
C8 N2 1_555 1_555
H12 C8 1_555 1_555
H13 C8 1_555 1_555
C9 N2 1_555 1_555
H14 C9 1_555 1_555
C10 N1 1_555 1_555
H15 C10 1_555 1_555
C11 C9 1_555 1_555
C12 C11 1_555 1_555
H16 C12 1_555 1_555
C13 C12 1_555 1_555
H17 C13 1_555 1_555
C14 C13 1_555 1_555
H18 C14 1_555 1_555
C15 C14 1_555 1_555
H19 C15 1_555 1_555
C16 C11 1_555 1_555
H20 C16 1_555 1_555
C3 C10 1_555 1_555
C7 C8 1_555 1_555
C9 C10 1_555 1_555
C15 C16 1_555 1_555

#END
