
#######################################################################
#
#                 Cambridge Crystallographic Data Centre
#                                CCDC 
#
#######################################################################
#
# If this CIF has been generated from an entry in the Cambridge 
# Structural Database, then it will include bibliographic, chemical, 
# crystal, experimental, refinement or atomic coordinate data resulting 
# from the CCDC's data processing and validation procedures.
#
#######################################################################

data_FEQZEG
_chemical_formula_moiety         'C20 H25 N2 O2 1+,C15 H15 O6 1-'
_chemical_name_systematic        
"(3''R,4''S,8''S,9''R)-(-)-Quininium (3aR,4S,8aR)-(-)-decahydro-3a-methoxycarbonyl-8-oxo-3,5-(2'-oxapropanediylidene)azulene-4-carboxylate"
_symmetry_cell_setting           monoclinic
_symmetry_space_group_name_H-M   'P 21'
_symmetry_Int_Tables_number      4
_space_group_name_Hall           'P 2yb'
loop_
_symmetry_equiv_pos_site_id
_symmetry_equiv_pos_as_xyz
1 x,y,z
2 -x,1/2+y,-z
_cell_length_a                   8.147(1)
_cell_length_b                   19.669(2)
_cell_length_c                   10.089
_cell_angle_alpha                90
_cell_angle_beta                 107.16
_cell_angle_gamma                90
_cell_volume                     1544.73
_exptl_crystal_colour            colorless
_exptl_crystal_description       plate
_chemical_melting_point          229-231deg.C
_cell_formula_units_Z            2
_exptl_crystal_recrystallization_method methanol
loop_
_atom_site_label
_atom_site_type_symbol
_atom_site_fract_x
_atom_site_fract_y
_atom_site_fract_z
C1 C 0.42372(34) 0.63590 0.51940(29)
H1 H 0.31656(34) 0.61315 0.50975(29)
H2 H 0.42457(34) 0.65395 0.43120(29)
C2 C 0.44751(37) 0.69319(22) 0.62580(35)
H3 H 0.37145(37) 0.68781(22) 0.68183(35)
H4 H 0.42831(37) 0.73672(22) 0.58081(35)
C3 C 0.63234(31) 0.68534(20) 0.71116(26)
C4 C 0.85168(24) 0.58959(19) 0.79414(20)
H5 H 0.88735(24) 0.61043(19) 0.88416(20)
C5 C 0.96116(26) 0.61818(21) 0.71099(23)
C6 C 1.00603(30) 0.57393(21) 0.60508(26)
H6 H 1.04671(30) 0.60171(21) 0.54311(26)
H7 H 1.09399(30) 0.54225(21) 0.65121(26)
C7 C 0.84417(32) 0.53480(21) 0.52171(25)
H8 H 0.82089(32) 0.49892(21) 0.57812(25)
H9 H 0.86311(32) 0.51576(21) 0.43983(25)
C8 C 0.69319(31) 0.58236(22) 0.48097(23)
O1 O 0.66464(26) 0.61612(21) 0.37597(19)
C9 C 0.57420(26) 0.58539(21) 0.57347(22)
H10 H 0.53680(26) 0.53901(21) 0.57116(22)
C10 C 0.66230(26) 0.60875(20) 0.72552(20)
C11 C 0.74407(37) 0.73488(21) 0.73893(31)
H11 H 0.69953(37) 0.78019(21) 0.72000(31)
O2 O 0.92159(25) 0.72853(19) 0.79318(22)
C12 C 0.98935(32) 0.68409(22) 0.71546(28)
H12 H 1.05978(32) 0.70243(22) 0.66279(28)
C13 C 0.88208(27) 0.51364(20) 0.83006(20)
O3 O 0.75816(21) 0.47594(19) 0.82060(18)
O4 O 1.03837(20) 0.49575(18) 0.86901(15)
C14 C 0.55189(28) 0.58199(21) 0.81446(23)
O5 O 0.42497(21) 0.54782(19) 0.77450(18)
O6 O 0.61532(23) 0.60457(19) 0.94524(16)
C15 C 0.52181(44) 0.58414(24) 1.03966(31)
H13 H 0.57659(44) 0.60267(24) 1.12993(31)
H14 H 0.52054(44) 0.53543(24) 1.04524(31)
H15 H 0.40605(44) 0.60075(24) 1.00674(31)
N1 N 0.09251(24) 0.37066(19) 0.79963(18)
H16 H 0.0600(36) 0.4166(14) 0.8273(26)
C16 C -0.05358(32) 0.32406(21) 0.79595(27)
H17 H -0.06151(32) 0.31801(21) 0.88828(27)
H18 H -0.15870(32) 0.34336(21) 0.73832(27)
C17 C -0.02288(38) 0.25538(22) 0.73692(32)
H19 H -0.10527(38) 0.25056(22) 0.64711(32)
C18 C 0.15983(37) 0.25498(21) 0.72347(26)
H20 H 0.18446(37) 0.21049(21) 0.69512(26)
C19 C 0.29046(31) 0.27278(20) 0.86174(24)
H21 H 0.28244(31) 0.24047(20) 0.93087(24)
H22 H 0.40421(31) 0.27171(20) 0.85214(24)
C20 C 0.25139(26) 0.34435(19) 0.90508(20)
H23 H 0.23320(26) 0.33957(19) 0.99440(20)
C21 C 0.11507(38) 0.37632(21) 0.65866(23)
H24 H 0.00796(38) 0.38932(21) 0.59337(23)
H25 H 0.20057(38) 0.41008(21) 0.65977(23)
C22 C 0.17141(49) 0.30859(23) 0.61672(27)
H26 H 0.09779(49) 0.29600(23) 0.52689(27)
H27 H 0.28773(49) 0.31188(23) 0.61348(27)
C23 C 0.39946(28) 0.39593(20) 0.93222(20)
H28 H 0.35676(28) 0.44170(20) 0.92462(20)
O7 O 0.48753(23) 0.38736(19) 0.83133(17)
H29 H 0.5642(39) 0.4199(14) 0.8384(28)
C24 C 0.51757(29) 0.38586(20) 1.07891(22)
C25 C 0.67627(33) 0.35758(21) 1.10202(28)
H30 H 0.71670(33) 0.34512(21) 1.02511(28)
C26 C 0.78184(37) 0.34680(21) 1.23960(34)
H31 H 0.89451(37) 0.32836(21) 1.25210(34)
N2 N 0.73605(32) 0.36036(20) 1.35030(25)
C27 C 0.57896(34) 0.38855(21) 1.33125(24)
C28 C 0.46485(30) 0.40456(20) 1.19779(21)
C29 C 0.30628(30) 0.43706(20) 1.18853(22)
H32 H 0.23012(30) 0.44913(20) 1.09935(22)
C30 C 0.26097(33) 0.45127(21) 1.30638(23)
O8 O 0.11337(26) 0.48183(20) 1.31049(19)
C31 C 0.37186(42) 0.43273(22) 1.43818(26)
H33 H 0.33825(42) 0.44122(22) 1.52022(26)
C32 C 0.52354(43) 0.40349(22) 1.44876(24)
H34 H 0.59754(43) 0.39216(22) 1.53923(24)
C33 C -0.00639(40) 0.50065(25) 1.18322(29)
H35 H -0.10444(40) 0.52149(25) 1.20083(29)
H36 H -0.04224(40) 0.46098(25) 1.12665(29)
H37 H 0.04621(40) 0.53232(25) 1.13579(29)
C34 C -0.06051(53) 0.19647(26) 0.81032(60)
H38 H 0.01436(53) 0.15917(26) 0.80744(60)
C35 C -0.16170(62) 0.18397(27) 0.87373(48)
H39 H -0.23414 0.21772 0.88593
H40 H -0.16415 0.14079 0.91182
loop_
_geom_bond_atom_site_label_1
_geom_bond_atom_site_label_2
_geom_bond_site_symmetry_1
_geom_bond_site_symmetry_2
C1 H1 1_555 1_555
H2 C1 1_555 1_555
C2 C1 1_555 1_555
H3 C2 1_555 1_555
H4 C2 1_555 1_555
C3 C2 1_555 1_555
C4 H5 1_555 1_555
C5 C4 1_555 1_555
C6 C5 1_555 1_555
H6 C6 1_555 1_555
H7 C6 1_555 1_555
C7 C6 1_555 1_555
H8 C7 1_555 1_555
H9 C7 1_555 1_555
C8 C7 1_555 1_555
O1 C8 1_555 1_555
C9 C1 1_555 1_555
H10 C9 1_555 1_555
C10 C3 1_555 1_555
C11 C3 1_555 1_555
H11 C11 1_555 1_555
O2 C11 1_555 1_555
C12 C5 1_555 1_555
H12 C12 1_555 1_555
C13 C4 1_555 1_555
O3 C13 1_555 1_555
O4 C13 1_555 1_555
C14 C10 1_555 1_555
O5 C14 1_555 1_555
O6 C14 1_555 1_555
C15 O6 1_555 1_555
H13 C15 1_555 1_555
H14 C15 1_555 1_555
H15 C15 1_555 1_555
N1 H16 1_555 1_555
C16 N1 1_555 1_555
H17 C16 1_555 1_555
H18 C16 1_555 1_555
C17 C16 1_555 1_555
H19 C17 1_555 1_555
C18 C17 1_555 1_555
H20 C18 1_555 1_555
C19 C18 1_555 1_555
H21 C19 1_555 1_555
H22 C19 1_555 1_555
C20 N1 1_555 1_555
H23 C20 1_555 1_555
C21 N1 1_555 1_555
H24 C21 1_555 1_555
H25 C21 1_555 1_555
C22 C18 1_555 1_555
H26 C22 1_555 1_555
H27 C22 1_555 1_555
C23 C20 1_555 1_555
H28 C23 1_555 1_555
O7 C23 1_555 1_555
H29 O7 1_555 1_555
C24 C23 1_555 1_555
C25 C24 1_555 1_555
H30 C25 1_555 1_555
C26 C25 1_555 1_555
H31 C26 1_555 1_555
N2 C26 1_555 1_555
C27 N2 1_555 1_555
C28 C24 1_555 1_555
C29 C28 1_555 1_555
H32 C29 1_555 1_555
C30 C29 1_555 1_555
O8 C30 1_555 1_555
C31 C30 1_555 1_555
H33 C31 1_555 1_555
C32 C27 1_555 1_555
H34 C32 1_555 1_555
C33 O8 1_555 1_555
H35 C33 1_555 1_555
H36 C33 1_555 1_555
H37 C33 1_555 1_555
C34 C17 1_555 1_555
H38 C34 1_555 1_555
C35 C34 1_555 1_555
H39 C35 1_555 1_555
H40 C35 1_555 1_555
C4 C10 1_555 1_555
C8 C9 1_555 1_555
C9 C10 1_555 1_555
O2 C12 1_555 1_555
C19 C20 1_555 1_555
C21 C22 1_555 1_555
C27 C28 1_555 1_555
C31 C32 1_555 1_555

#END
