
#######################################################################
#
#                 Cambridge Crystallographic Data Centre
#                                CCDC 
#
#######################################################################
#
# If this CIF has been generated from an entry in the Cambridge 
# Structural Database, then it will include bibliographic, chemical, 
# crystal, experimental, refinement or atomic coordinate data resulting 
# from the CCDC's data processing and validation procedures.
#
#######################################################################

data_FERBAF
_chemical_compound_source        
'bark of Pseudolaric kaempferi Gord. (Pinaceae)'
_chemical_name_common            'Pseudolaric acid D'
_chemical_formula_moiety         'C20 H30 O3'
_chemical_name_systematic        '18-Hydroxy-ent-kaur-15-en-17-oic acid'
_chemical_properties_biological  'agent for treatment of fungal skin diseases'
_symmetry_cell_setting           orthorhombic
_symmetry_space_group_name_H-M   'P 21 21 21'
_symmetry_Int_Tables_number      19
_space_group_name_Hall           'P 2ac 2ab'
loop_
_symmetry_equiv_pos_site_id
_symmetry_equiv_pos_as_xyz
1 x,y,z
2 1/2+x,1/2-y,-z
3 -x,1/2+y,1/2-z
4 1/2-x,-y,1/2+z
_cell_length_a                   6.921(2)
_cell_length_b                   10.175(2)
_cell_length_c                   25.036(5)
_cell_angle_alpha                90
_cell_angle_beta                 90
_cell_angle_gamma                90
_cell_volume                     1763.06
_exptl_crystal_colour            colorless
_cell_formula_units_Z            4
loop_
_atom_site_label
_atom_site_type_symbol
_atom_site_fract_x
_atom_site_fract_y
_atom_site_fract_z
O1 O 0.5665(9) 0.7378(5) 0.4410(2)
O2 O -0.1250(8) -0.0964(4) 0.4352(2)
O3 O 0.0764(8) -0.0256(4) 0.4987(2)
C1 C 0.438(1) 0.4473(7) 0.3080(3)
C2 C 0.512(1) 0.5729(8) 0.2835(3)
C3 C 0.548(1) 0.6785(7) 0.3254(3)
C4 C 0.370(1) 0.7071(6) 0.3586(3)
C5 C 0.286(1) 0.5771(6) 0.3816(3)
C6 C 0.113(1) 0.5938(6) 0.4181(3)
C7 C 0.088(1) 0.4706(6) 0.4525(2)
C8 C 0.067(1) 0.3451(6) 0.4191(2)
C9 C 0.224(1) 0.3358(6) 0.3753(2)
C10 C 0.252(1) 0.4644(6) 0.3401(2)
C11 C 0.196(1) 0.2048(6) 0.3425(3)
C12 C -0.013(1) 0.1540(7) 0.3364(3)
C13 C -0.132(1) 0.1725(6) 0.3863(3)
C14 C -0.139(1) 0.3202(6) 0.3976(3)
C15 C 0.091(1) 0.2220(6) 0.4523(2)
C16 C -0.022(1) 0.1261(6) 0.4343(3)
C17 C -0.029(1) -0.0106(6) 0.4548(3)
C18 C 0.434(1) 0.7976(6) 0.4049(3)
C19 C 0.219(1) 0.7889(7) 0.3278(3)
C20 C 0.082(1) 0.4887(7) 0.3019(2)
loop_
_geom_bond_atom_site_label_1
_geom_bond_atom_site_label_2
_geom_bond_site_symmetry_1
_geom_bond_site_symmetry_2
O1 C18 1_555 1_555
O2 C17 1_555 1_555
O3 C17 1_555 1_555
C1 C2 1_555 1_555
C2 C3 1_555 1_555
C3 C4 1_555 1_555
C4 C5 1_555 1_555
C5 C6 1_555 1_555
C6 C7 1_555 1_555
C7 C8 1_555 1_555
C8 C9 1_555 1_555
C9 C10 1_555 1_555
C10 C1 1_555 1_555
C11 C9 1_555 1_555
C12 C11 1_555 1_555
C13 C12 1_555 1_555
C14 C8 1_555 1_555
C15 C8 1_555 1_555
C16 C13 1_555 1_555
C17 C16 1_555 1_555
C18 C4 1_555 1_555
C19 C4 1_555 1_555
C20 C10 1_555 1_555
C5 C10 1_555 1_555
C13 C14 1_555 1_555
C15 C16 1_555 1_555

#END
