
#######################################################################
#
#                 Cambridge Crystallographic Data Centre
#                                CCDC 
#
#######################################################################
#
# If this CIF has been generated from an entry in the Cambridge 
# Structural Database, then it will include bibliographic, chemical, 
# crystal, experimental, refinement or atomic coordinate data resulting 
# from the CCDC's data processing and validation procedures.
#
#######################################################################

data_FERDEO
_chemical_formula_moiety         'C45 H28 N6 O2,C1 H2 Cl2'
_chemical_name_systematic        
'3-nitro-5,10,15,20-tetraphenylporphyrin-2-carbonitrile dichloromethane solvate'
_symmetry_cell_setting           triclinic
_symmetry_space_group_name_H-M   'P -1'
_symmetry_Int_Tables_number      2
_space_group_name_Hall           '-P 1'
loop_
_symmetry_equiv_pos_site_id
_symmetry_equiv_pos_as_xyz
1 x,y,z
2 -x,-y,-z
_cell_length_a                   10.1654(2)
_cell_length_b                   12.5485(3)
_cell_length_c                   15.5573(4)
_cell_angle_alpha                75.4110(10)
_cell_angle_beta                 87.2960(10)
_cell_angle_gamma                73.8230(10)
_cell_volume                     1843.91
_exptl_crystal_colour            purple
_exptl_crystal_description       block
_cell_formula_units_Z            2
loop_
_atom_site_label
_atom_site_type_symbol
_atom_site_fract_x
_atom_site_fract_y
_atom_site_fract_z
C1 C 0.3634(2) 0.29088(15) 0.58653(11)
C2 C 0.2767(2) 0.40294(15) 0.58119(11)
C3 C 0.1805(2) 0.41988(14) 0.65475(11)
C4 C 0.2313(2) 0.39403(17) 0.74137(12)
H1 H 0.3275 0.3719 0.7524
C5 C 0.1423(2) 0.40038(18) 0.81171(12)
H2 H 0.1780 0.3815 0.8706
C6 C 0.0025(2) 0.43398(16) 0.79646(13)
H3 H -0.0580 0.4372 0.8448
C7 C -0.0497(2) 0.46310(16) 0.71022(13)
H4 H -0.1459 0.4878 0.6993
C8 C 0.0391(2) 0.45615(15) 0.63980(12)
H5 H 0.0030 0.4763 0.5809
C9 C 0.2771(2) 0.49881(15) 0.51225(11)
C10 C 0.2003(2) 0.61492(15) 0.50759(12)
H6 H 0.1440 0.6412 0.5527
C11 C 0.2220(2) 0.68107(15) 0.42721(12)
H7 H 0.1838 0.7615 0.4066
C12 C 0.3124(2) 0.60821(14) 0.37931(11)
C13 C 0.3524(2) 0.63750(14) 0.29085(11)
C14 C 0.2948(2) 0.75735(15) 0.23709(11)
C15 C 0.1537(2) 0.80612(16) 0.22464(12)
H8 H 0.0925 0.7643 0.2537
C16 C 0.1018(2) 0.91566(16) 0.17001(13)
H9 H 0.0056 0.9482 0.1620
C17 C 0.1904(3) 0.97727(16) 0.12726(13)
H10 H 0.1549 1.0513 0.0891
C18 C 0.3308(3) 0.93066(17) 0.14032(13)
H11 H 0.3914 0.9735 0.1118
C19 C 0.3833(2) 0.82139(16) 0.19503(12)
H12 H 0.4796 0.7900 0.2039
C20 C 0.4395(2) 0.55899(15) 0.24794(11)
C21 C 0.4607(2) 0.58518(16) 0.15251(12)
H13 H 0.4174 0.6539 0.1100
C22 C 0.5538(2) 0.49302(16) 0.13632(12)
H14 H 0.5892 0.4839 0.0802
C23 C 0.5897(2) 0.41001(15) 0.22184(11)
C24 C 0.6896(2) 0.30475(15) 0.23212(12)
C25 C 0.7690(2) 0.27857(16) 0.15292(12)
C26 C 0.8623(2) 0.33852(17) 0.11518(13)
H15 H 0.8760 0.3968 0.1397
C27 C 0.9357(2) 0.31324(19) 0.04139(13)
H16 H 1.0004 0.3537 0.0164
C28 C 0.9152(3) 0.2299(2) 0.00447(13)
H17 H 0.9636 0.2145 -0.0467
C29 C 0.8239(3) 0.1690(2) 0.04221(15)
H18 H 0.8103 0.1110 0.0172
C30 C 0.7515(3) 0.19225(18) 0.11685(14)
H19 H 0.6901 0.1491 0.1432
C31 C 0.7216(2) 0.21947(15) 0.31165(12)
C32 C 0.8287(2) 0.11451(16) 0.32640(13)
H20 H 0.8927 0.0906 0.2839
C33 C 0.8228(2) 0.05498(17) 0.41175(13)
H21 H 0.8834 -0.0169 0.4399
C34 C 0.7084(2) 0.12005(15) 0.45206(12)
C35 C 0.6569(2) 0.08444(15) 0.53531(11)
C36 C 0.7297(2) -0.03098(15) 0.59012(12)
C37 C 0.7391(3) -0.12956(17) 0.56139(13)
H22 H 0.6999 -0.1233 0.5055
C38 C 0.8053(3) -0.23657(18) 0.61406(15)
H23 H 0.8114 -0.3033 0.5941
C39 C 0.8629(3) -0.24644(17) 0.69602(14)
H24 H 0.9076 -0.3198 0.7323
C40 C 0.8547(2) -0.14908(16) 0.72446(13)
H25 H 0.8946 -0.1556 0.7802
C41 C 0.7886(2) -0.04174(15) 0.67200(12)
H26 H 0.7834 0.0248 0.6921
C42 C 0.5387(2) 0.14937(14) 0.56938(11)
C43 C 0.4635(2) 0.10115(15) 0.64325(11)
C44 C 0.3533(2) 0.18884(16) 0.65195(12)
N1 N 0.47461(17) 0.26286(12) 0.53639(9)
N2 N 0.34579(17) 0.49975(12) 0.43384(10)
H27 H 0.4029 0.4394 0.4206
N3 N 0.51628(18) 0.45074(13) 0.28850(10)
N4 N 0.65341(18) 0.22002(13) 0.38948(10)
H28 H 0.5843 0.2764 0.3981
N5 N 0.2397(2) 0.16742(16) 0.70565(15)
O1 O 0.1257(2) 0.19527(17) 0.66478(16)
O2 O 0.2618(3) 0.1155(2) 0.78172(16)
C45 C 0.4843(2) -0.01525(16) 0.69287(12)
N6 N 0.4966(3) -0.10679(19) 0.73374(16)
C47 C 0.6331(5) -0.2787(3) 0.9065(2)
H29 H 0.5442 -0.2877 0.8908
H30 H 0.6657 -0.2324 0.8529
Cl1 Cl 0.60767(11) -0.20482(6) 0.98958(6)
Cl2 Cl 0.74918(8) -0.41194(6) 0.93641(5)
N7? N 0.4843(2) -0.01525(16) 0.69287(12)
O3? O 0.4734(9) -0.0314(7) 0.7796(6)
O4? O 0.4901(10) -0.0871(7) 0.6567(6)
C46? C 0.2397(2) 0.16742(16) 0.70565(15)
N8? N 0.1760(16) 0.1542(10) 0.7759(7)
loop_
_geom_bond_atom_site_label_1
_geom_bond_atom_site_label_2
_geom_bond_site_symmetry_1
_geom_bond_site_symmetry_2
C1 C2 1_555 1_555
C2 C3 1_555 1_555
C3 C4 1_555 1_555
C4 H1 1_555 1_555
C5 C4 1_555 1_555
H2 C5 1_555 1_555
C6 C5 1_555 1_555
H3 C6 1_555 1_555
C7 C6 1_555 1_555
H4 C7 1_555 1_555
C8 C3 1_555 1_555
H5 C8 1_555 1_555
C9 C2 1_555 1_555
C10 C9 1_555 1_555
H6 C10 1_555 1_555
C11 C10 1_555 1_555
H7 C11 1_555 1_555
C12 C11 1_555 1_555
C13 C12 1_555 1_555
C14 C13 1_555 1_555
C15 C14 1_555 1_555
H8 C15 1_555 1_555
C16 C15 1_555 1_555
H9 C16 1_555 1_555
C17 C16 1_555 1_555
H10 C17 1_555 1_555
C18 C17 1_555 1_555
H11 C18 1_555 1_555
C19 C14 1_555 1_555
H12 C19 1_555 1_555
C20 C13 1_555 1_555
C21 C20 1_555 1_555
H13 C21 1_555 1_555
C22 C21 1_555 1_555
H14 C22 1_555 1_555
C23 C22 1_555 1_555
C24 C23 1_555 1_555
C25 C24 1_555 1_555
C26 C25 1_555 1_555
H15 C26 1_555 1_555
C27 C26 1_555 1_555
H16 C27 1_555 1_555
C28 C27 1_555 1_555
H17 C28 1_555 1_555
C29 C28 1_555 1_555
H18 C29 1_555 1_555
C30 C25 1_555 1_555
H19 C30 1_555 1_555
C31 C24 1_555 1_555
C32 C31 1_555 1_555
H20 C32 1_555 1_555
C33 C32 1_555 1_555
H21 C33 1_555 1_555
C34 C33 1_555 1_555
C35 C34 1_555 1_555
C36 C35 1_555 1_555
C37 C36 1_555 1_555
H22 C37 1_555 1_555
C38 C37 1_555 1_555
H23 C38 1_555 1_555
C39 C38 1_555 1_555
H24 C39 1_555 1_555
C40 C39 1_555 1_555
H25 C40 1_555 1_555
C41 C36 1_555 1_555
H26 C41 1_555 1_555
C42 C35 1_555 1_555
C43 C42 1_555 1_555
C44 C1 1_555 1_555
N1 C1 1_555 1_555
N2 C9 1_555 1_555
H27 N2 1_555 1_555
N3 C20 1_555 1_555
N4 C31 1_555 1_555
H28 N4 1_555 1_555
N5 C44 1_555 1_555
O1 N5 1_555 1_555
O2 N5 1_555 1_555
C45 C43 1_555 1_555
N6 C45 1_555 1_555
C47 H29 1_555 1_555
H30 C47 1_555 1_555
Cl1 C47 1_555 1_555
Cl2 C47 1_555 1_555
C7 C8 1_555 1_555
C12 N2 1_555 1_555
C18 C19 1_555 1_555
C23 N3 1_555 1_555
C29 C30 1_555 1_555
C34 N4 1_555 1_555
C40 C41 1_555 1_555
C42 N1 1_555 1_555
C43 C44 1_555 1_555

#END
