
#######################################################################
#
#                 Cambridge Crystallographic Data Centre
#                                CCDC 
#
#######################################################################
#
# If this CIF has been generated from an entry in the Cambridge 
# Structural Database, then it will include bibliographic, chemical, 
# crystal, experimental, refinement or atomic coordinate data resulting 
# from the CCDC's data processing and validation procedures.
#
#######################################################################

data_FERDIS
_chemical_formula_moiety         'C29 H25 N3 O1'
_chemical_name_systematic        
4'-(4-methylphenyl)-2',5'-diphenyl-2',4',5,6-tetrahydro-8H-spiro[indolizine-7,3'-pyrazol]-8-one
_symmetry_cell_setting           triclinic
_symmetry_space_group_name_H-M   'P -1'
_symmetry_Int_Tables_number      2
_space_group_name_Hall           '-P 1'
loop_
_symmetry_equiv_pos_site_id
_symmetry_equiv_pos_as_xyz
1 x,y,z
2 -x,-y,-z
_cell_length_a                   9.7988(7)
_cell_length_b                   10.1750(9)
_cell_length_c                   22.6209(19)
_cell_angle_alpha                81.426(2)
_cell_angle_beta                 86.745(2)
_cell_angle_gamma                89.211(2)
_cell_volume                     2226.53
_exptl_crystal_description       block
_cell_formula_units_Z            4
loop_
_atom_site_label
_atom_site_type_symbol
_atom_site_fract_x
_atom_site_fract_y
_atom_site_fract_z
C1 C 0.5126(2) 0.8131(2) 0.29570(11)
C2 C 0.5971(3) 0.8945(3) 0.32227(13)
H1 H 0.686714 0.873196 0.334747
C3 C 0.5260(3) 1.0127(3) 0.32718(12)
H2 H 0.557866 1.085854 0.344096
C4 C 0.4002(3) 1.0035(3) 0.30271(12)
H3 H 0.331402 1.070500 0.299340
C5 C 0.2792(3) 0.8323(3) 0.25516(12)
H4 H 0.294494 0.853173 0.211142
H5 H 0.192304 0.874654 0.266951
C6 C 0.2710(2) 0.6821(3) 0.27397(12)
H6 H 0.199798 0.646496 0.251459
H7 H 0.242298 0.663570 0.317055
C7 C 0.4062(2) 0.6082(2) 0.26346(11)
C8 C 0.5318(3) 0.6792(2) 0.28323(12)
C9 C 0.4376(2) 0.5805(2) 0.19772(11)
H8 H 0.538929 0.584617 0.189511
C10 C 0.3952(2) 0.4356(2) 0.20308(11)
C11 C 0.3620(2) 0.4324(2) 0.35690(11)
C12 C 0.3869(3) 0.5177(2) 0.39851(12)
H9 H 0.428633 0.601384 0.385231
C13 C 0.3511(3) 0.4807(3) 0.45873(12)
H10 H 0.367797 0.539861 0.486223
C14 C 0.2910(3) 0.3583(3) 0.47964(12)
H11 H 0.266246 0.333527 0.520974
C15 C 0.2680(3) 0.2731(3) 0.43858(12)
H12 H 0.228144 0.188757 0.452349
C16 C 0.3019(3) 0.3085(3) 0.37808(12)
H13 H 0.284365 0.248953 0.350852
C17 C 0.3729(3) 0.6717(2) 0.14823(11)
C18 C 0.4469(3) 0.7754(3) 0.11474(12)
H14 H 0.539021 0.788983 0.123315
C19 C 0.3876(3) 0.8596(3) 0.06875(12)
H15 H 0.440279 0.929232 0.046111
C20 C 0.2525(3) 0.8432(3) 0.05547(13)
C21 C 0.1787(3) 0.7399(3) 0.08874(12)
H16 H 0.086252 0.727432 0.080367
C22 C 0.2373(3) 0.6543(3) 0.13410(12)
H17 H 0.185039 0.583188 0.155803
C23 C 0.1892(5) 0.9367(3) 0.00588(16)
H18 H 0.260613 0.970688 -0.024426
H19 H 0.145100 1.011150 0.022554
H20 H 0.120979 0.888817 -0.012575
C24 C 0.3870(3) 0.3618(2) 0.15237(11)
C25 C 0.4603(3) 0.4040(3) 0.09813(12)
H21 H 0.512401 0.483319 0.093534
C26 C 0.4577(3) 0.3314(3) 0.05111(12)
H22 H 0.508979 0.360110 0.014664
C27 C 0.3800(3) 0.2166(3) 0.05729(12)
H23 H 0.377561 0.167207 0.024880
C28 C 0.3053(3) 0.1733(3) 0.11094(13)
H24 H 0.252163 0.094785 0.114904
C29 C 0.3087(3) 0.2452(3) 0.15863(12)
H25 H 0.258363 0.215570 0.195217
N1 N 0.3920(2) 0.8830(2) 0.28448(10)
N2 N 0.3973(2) 0.4697(2) 0.29566(10)
N3 N 0.3755(2) 0.3784(2) 0.25784(9)
O1 O 0.64138(19) 0.6198(2) 0.28717(10)
C30 C 0.7163(3) 0.0245(3) 0.16067(13)
H26 H 0.629932 0.024641 0.143575
C31 C 0.8183(3) -0.0699(3) 0.15693(14)
H27 H 0.814588 -0.144983 0.136668
C32 C 0.9278(3) -0.0349(3) 0.18832(12)
H28 H 1.011834 -0.081832 0.193447
C33 C 0.8905(3) 0.0826(2) 0.21083(11)
C34 C 0.9657(2) 0.1632(2) 0.24471(11)
C35 C 0.8992(2) 0.2954(2) 0.25754(11)
C36 C 0.7420(2) 0.2898(2) 0.25668(11)
H29 H 0.706838 0.234001 0.293902
H30 H 0.705191 0.380748 0.257344
C37 C 0.6860(3) 0.2361(3) 0.20374(12)
H31 H 0.587658 0.215931 0.212119
H32 H 0.695309 0.304371 0.167677
C38 C 0.9475(2) 0.3326(2) 0.31767(11)
H33 H 1.043183 0.298741 0.322274
C39 C 0.9547(2) 0.4828(2) 0.30188(11)
C40 C 0.9144(3) 0.4418(2) 0.15585(11)
C41 C 0.8342(3) 0.5539(3) 0.13948(11)
H34 H 0.809615 0.611328 0.167889
C42 C 0.7899(3) 0.5822(3) 0.08114(12)
H35 H 0.736234 0.659458 0.069950
C43 C 0.8239(3) 0.4979(3) 0.03955(12)
H36 H 0.792050 0.515927 0.000258
C44 C 0.9055(3) 0.3864(3) 0.05606(12)
H37 H 0.928845 0.328207 0.027856
C45 C 0.9527(3) 0.3599(3) 0.11329(12)
H38 H 1.011205 0.285781 0.123589
C46 C 0.9684(2) 0.5801(2) 0.34307(11)
C47 C 1.0170(3) 0.5445(3) 0.39994(11)
H39 H 1.034111 0.453603 0.414407
C48 C 1.0411(3) 0.6412(3) 0.43597(12)
H40 H 1.075545 0.615901 0.474456
C49 C 1.0146(3) 0.7738(3) 0.41560(12)
H41 H 1.031973 0.839532 0.439938
C50 C 0.9623(3) 0.8111(3) 0.35928(12)
H42 H 0.943382 0.901957 0.345509
C51 C 0.9381(3) 0.7152(2) 0.32345(11)
H43 H 0.900892 0.740627 0.285519
C52 C 0.8634(2) 0.2745(2) 0.37334(11)
C53 C 0.7395(3) 0.3329(2) 0.39021(12)
H44 H 0.708438 0.412597 0.367396
C54 C 0.6619(3) 0.2738(3) 0.44053(11)
H45 H 0.576634 0.312444 0.450776
C55 C 0.7067(3) 0.1593(3) 0.47616(11)
C56 C 0.8292(3) 0.1010(3) 0.45862(12)
H46 H 0.860186 0.021516 0.481589
C57 C 0.9070(3) 0.1578(2) 0.40780(11)
H47 H 0.990277 0.116760 0.396620
C58 C 0.6262(3) 0.1030(3) 0.53306(13)
H48 H 0.532349 0.137549 0.531756
H49 H 0.669180 0.129150 0.567575
H50 H 0.624736 0.005852 0.536728
N4 N 0.7597(2) 0.1159(2) 0.19253(10)
N5 N 0.9605(2) 0.4103(2) 0.21512(9)
N6 N 0.9655(2) 0.5213(2) 0.24481(9)
O2 O 1.07788(18) 0.12757(18) 0.26384(8)
loop_
_geom_bond_atom_site_label_1
_geom_bond_atom_site_label_2
_geom_bond_site_symmetry_1
_geom_bond_site_symmetry_2
C1 C2 1_555 1_555
C2 H1 1_555 1_555
C3 C2 1_555 1_555
H2 C3 1_555 1_555
C4 C3 1_555 1_555
H3 C4 1_555 1_555
C5 H4 1_555 1_555
H5 C5 1_555 1_555
C6 C5 1_555 1_555
H6 C6 1_555 1_555
H7 C6 1_555 1_555
C7 C6 1_555 1_555
C8 C1 1_555 1_555
C9 C7 1_555 1_555
H8 C9 1_555 1_555
C10 C9 1_555 1_555
C11 C12 1_555 1_555
C12 H9 1_555 1_555
C13 C12 1_555 1_555
H10 C13 1_555 1_555
C14 C13 1_555 1_555
H11 C14 1_555 1_555
C15 C14 1_555 1_555
H12 C15 1_555 1_555
C16 C11 1_555 1_555
H13 C16 1_555 1_555
C17 C9 1_555 1_555
C18 C17 1_555 1_555
H14 C18 1_555 1_555
C19 C18 1_555 1_555
H15 C19 1_555 1_555
C20 C19 1_555 1_555
C21 C20 1_555 1_555
H16 C21 1_555 1_555
C22 C17 1_555 1_555
H17 C22 1_555 1_555
C23 C20 1_555 1_555
H18 C23 1_555 1_555
H19 C23 1_555 1_555
H20 C23 1_555 1_555
C24 C10 1_555 1_555
C25 C24 1_555 1_555
H21 C25 1_555 1_555
C26 C25 1_555 1_555
H22 C26 1_555 1_555
C27 C26 1_555 1_555
H23 C27 1_555 1_555
C28 C27 1_555 1_555
H24 C28 1_555 1_555
C29 C24 1_555 1_555
H25 C29 1_555 1_555
N1 C1 1_555 1_555
N2 C7 1_555 1_555
N3 C10 1_555 1_555
O1 C8 1_555 1_555
C30 H26 1_555 1_555
C31 C30 1_555 1_555
H27 C31 1_555 1_555
C32 C31 1_555 1_555
H28 C32 1_555 1_555
C33 C32 1_555 1_555
C34 C33 1_555 1_555
C35 C34 1_555 1_555
C36 C35 1_555 1_555
H29 C36 1_555 1_555
H30 C36 1_555 1_555
C37 C36 1_555 1_555
H31 C37 1_555 1_555
H32 C37 1_555 1_555
C38 C35 1_555 1_555
H33 C38 1_555 1_555
C39 C38 1_555 1_555
C40 C41 1_555 1_555
C41 H34 1_555 1_555
C42 C41 1_555 1_555
H35 C42 1_555 1_555
C43 C42 1_555 1_555
H36 C43 1_555 1_555
C44 C43 1_555 1_555
H37 C44 1_555 1_555
C45 C40 1_555 1_555
H38 C45 1_555 1_555
C46 C39 1_555 1_555
C47 C46 1_555 1_555
H39 C47 1_555 1_555
C48 C47 1_555 1_555
H40 C48 1_555 1_555
C49 C48 1_555 1_555
H41 C49 1_555 1_555
C50 C49 1_555 1_555
H42 C50 1_555 1_555
C51 C46 1_555 1_555
H43 C51 1_555 1_555
C52 C38 1_555 1_555
C53 C52 1_555 1_555
H44 C53 1_555 1_555
C54 C53 1_555 1_555
H45 C54 1_555 1_555
C55 C54 1_555 1_555
C56 C55 1_555 1_555
H46 C56 1_555 1_555
C57 C52 1_555 1_555
H47 C57 1_555 1_555
C58 C55 1_555 1_555
H48 C58 1_555 1_555
H49 C58 1_555 1_555
H50 C58 1_555 1_555
N4 C30 1_555 1_555
N5 C35 1_555 1_555
N6 C39 1_555 1_555
O2 C34 1_555 1_555
C4 N1 1_555 1_555
C5 N1 1_555 1_555
C7 C8 1_555 1_555
C11 N2 1_555 1_555
C15 C16 1_555 1_555
C21 C22 1_555 1_555
C28 C29 1_555 1_555
N2 N3 1_555 1_555
C33 N4 1_555 1_555
C37 N4 1_555 1_555
C40 N5 1_555 1_555
C44 C45 1_555 1_555
C50 C51 1_555 1_555
C56 C57 1_555 1_555
N5 N6 1_555 1_555

#END
