
#######################################################################
#
#                 Cambridge Crystallographic Data Centre
#                                CCDC 
#
#######################################################################
#
# If this CIF has been generated from an entry in the Cambridge 
# Structural Database, then it will include bibliographic, chemical, 
# crystal, experimental, refinement or atomic coordinate data resulting 
# from the CCDC's data processing and validation procedures.
#
#######################################################################

data_FERGUF
_chemical_formula_moiety         'C16 H11 Br1 F1 N1 O4'
_chemical_name_systematic        
(+)-(9R)-(3-Bromo-4-fluorophenyl)-5,9-dihydro-3H-furo(3,4-b)pyrano(4,3-e)pyridine-1,8(4H,7H)-dione
_chemical_properties_biological  
'ATP-sensitive potassium channel opening activity'
_symmetry_cell_setting           orthorhombic
_symmetry_space_group_name_H-M   'P 21 21 21'
_symmetry_Int_Tables_number      19
_space_group_name_Hall           'P 2ac 2ab'
loop_
_symmetry_equiv_pos_site_id
_symmetry_equiv_pos_as_xyz
1 x,y,z
2 1/2-x,-y,1/2+z
3 1/2+x,1/2-y,-z
4 -x,1/2+y,1/2-z
_cell_length_a                   7.7839(4)
_cell_length_b                   13.5605(7)
_cell_length_c                   14.0248(7)
_cell_angle_alpha                90
_cell_angle_beta                 90
_cell_angle_gamma                90
_cell_volume                     1480.37
_exptl_crystal_description       rod
_cell_formula_units_Z            4
loop_
_atom_site_label
_atom_site_type_symbol
_atom_site_fract_x
_atom_site_fract_y
_atom_site_fract_z
Br1 Br -0.76220(4) -0.14838(3) -0.54739(2)
F1 F -1.0322(2) -0.1126(2) -0.3966(2)
O1 O -0.4268(3) -0.3322(2) 0.0083(2)
O2 O -0.2292(3) 0.1269(2) -0.1951(2)
O3 O -0.2669(4) 0.0592(2) -0.3393(2)
O4 O -0.3475(4) -0.3450(2) -0.2413(2)
N1 N -0.3284(4) -0.0737(2) -0.0311(2)
C1 C -0.3011(4) -0.0104(2) -0.1047(2)
C2 C -0.5719(4) -0.1449(2) -0.3721(2)
C3 C -0.3644(4) -0.2051(2) -0.1440(2)
C4 C -0.5533(4) -0.1317(2) -0.2747(2)
C5 C -0.3160(4) -0.0354(3) -0.1976(2)
C6 C -0.2707(5) 0.0494(2) -0.2543(2)
C7 C -0.8734(4) -0.1181(3) -0.3557(3)
C8 C -0.3573(4) -0.3099(3) -0.1618(3)
C9 C -0.2468(5) 0.0960(2) -0.0973(2)
C10 C -0.3503(3) -0.1726(2) -0.0532(2)
C11 C -0.3470(5) -0.2418(3) 0.0300(2)
C12 C -0.6951(4) -0.1101(3) -0.2191(2)
C13 C -0.7342(4) -0.1374(2) -0.4133(2)
C14 C -0.8565(4) -0.1042(3) -0.2597(3)
C15 C -0.3521(5) -0.3759(2) -0.0750(3)
C16 C -0.3713(4) -0.1362(2) -0.2310(2)
H1 H -0.3300 -0.0516 0.0330
H2 H -0.4752 -0.1623 -0.4097
H3 H -0.3226 0.1331 -0.0626
H4 H -0.1322 0.0997 -0.0665
H5 H -0.2298 -0.2543 0.0463
H6 H -0.4036 -0.2133 0.0831
H7 H -0.6817 -0.1017 -0.1532
H8 H -0.9536 -0.0893 -0.2209
H9 H -0.4135 -0.4356 -0.0892
H10 H -0.2351 -0.3923 -0.0631
H11 H -0.2930 -0.1582 -0.2784
loop_
_geom_bond_atom_site_label_1
_geom_bond_atom_site_label_2
_geom_bond_site_symmetry_1
_geom_bond_site_symmetry_2
Br1 C13 1_555 1_555
F1 C7 1_555 1_555
O1 C11 1_555 1_555
O2 C6 1_555 1_555
O3 C6 1_555 1_555
O4 C8 1_555 1_555
N1 C1 1_555 1_555
C1 C5 1_555 1_555
C2 C4 1_555 1_555
C3 C8 1_555 1_555
C4 C12 1_555 1_555
C5 C6 1_555 1_555
C7 C13 1_555 1_555
C8 C15 1_555 1_555
C9 O2 1_555 1_555
C10 N1 1_555 1_555
C11 C10 1_555 1_555
C12 C14 1_555 1_555
C13 C2 1_555 1_555
C14 C7 1_555 1_555
C15 O1 1_555 1_555
C16 C3 1_555 1_555
H1 N1 1_555 1_555
H2 C2 1_555 1_555
H3 C9 1_555 1_555
H4 C9 1_555 1_555
H5 C11 1_555 1_555
H6 C11 1_555 1_555
H7 C12 1_555 1_555
H8 C14 1_555 1_555
H9 C15 1_555 1_555
H10 C15 1_555 1_555
H11 C16 1_555 1_555
C1 C9 1_555 1_555
C3 C10 1_555 1_555
C4 C16 1_555 1_555
C5 C16 1_555 1_555

#END
