
#######################################################################
#
#                 Cambridge Crystallographic Data Centre
#                                CCDC 
#
#######################################################################
#
# If this CIF has been generated from an entry in the Cambridge 
# Structural Database, then it will include bibliographic, chemical, 
# crystal, experimental, refinement or atomic coordinate data resulting 
# from the CCDC's data processing and validation procedures.
#
#######################################################################

data_FERHEQ
_chemical_formula_moiety         'C18 H17 Br1 F1 N1 O3'
_chemical_name_systematic        
'Methyl 4-(3-bromo-4-fluorophenyl)-2-methyl-5-oxo-1,4,5,6,7,8-hexahydroquinoline-3-carboxylate'
_symmetry_cell_setting           orthorhombic
_symmetry_space_group_name_H-M   'P 21 21 21'
_symmetry_Int_Tables_number      19
_space_group_name_Hall           'P 2ac 2ab'
loop_
_symmetry_equiv_pos_site_id
_symmetry_equiv_pos_as_xyz
1 x,y,z
2 1/2-x,-y,1/2+z
3 1/2+x,1/2-y,-z
4 -x,1/2+y,1/2-z
_cell_length_a                   7.6917(1)
_cell_length_b                   14.2219(2)
_cell_length_c                   15.9799(1)
_cell_angle_alpha                90
_cell_angle_beta                 90
_cell_angle_gamma                90
_cell_volume                     1748.05
_exptl_crystal_description       rod
_cell_formula_units_Z            4
loop_
_atom_site_label
_atom_site_type_symbol
_atom_site_fract_x
_atom_site_fract_y
_atom_site_fract_z
Br1 Br -0.4713(1) 0.22133(5) -0.08126(5)
F1 F -0.7465(5) 0.3688(3) -0.1069(3)
O1 O 0.0104(8) 0.4128(3) -0.2610(3)
O2 O -0.020(1) 0.4939(3) 0.0466(3)
O3 O -0.051(1) 0.6412(4) 0.0874(3)
N1 N -0.0552(7) 0.7244(3) -0.1654(3)
C1 C -0.0312(8) 0.6602(4) -0.2272(3)
C2 C 0.003(1) 0.6990(4) -0.3134(4)
C3 C -0.022(2) 0.6278(5) -0.3782(4)
C4 C 0.050(1) 0.5364(5) -0.3622(4)
C5 C 0.008(1) 0.4983(4) -0.2745(4)
C6 C -0.0310(8) 0.5664(4) -0.2096(3)
C7 C -0.0749(8) 0.5309(4) -0.1216(3)
C8 C -0.0558(7) 0.6091(4) -0.0577(3)
C9 C -0.0534(7) 0.7013(4) -0.0797(3)
C10 C -0.044(1) 0.7876(4) -0.0258(4)
C11 C -0.0363(9) 0.5750(5) 0.0293(4)
C12 C -0.032(2) 0.6124(7) 0.1738(4)
C13 C -0.2585(7) 0.4876(4) -0.1188(3)
C14 C -0.2791(8) 0.3925(4) -0.1015(3)
C15 C -0.4045(8) 0.5409(4) -0.1322(4)
C16 C -0.5706(8) 0.5034(5) -0.1264(4)
C17 C -0.5849(8) 0.4089(5) -0.1114(4)
C18 C -0.438(1) 0.3525(4) -0.1004(4)
H1 H -0.0716 0.7884 -0.1803
H2 H -0.0652 0.7528 -0.3256
H3 H 0.1230 0.7157 -0.3141
H4 H -0.1435 0.6247 -0.3874
H5 H 0.0343 0.6493 -0.4276
H6 H -0.0082 0.4963 -0.4006
H7 H 0.1713 0.5350 -0.3728
H8 H 0.0058 0.4831 -0.1069
H9 H -0.0439 0.7704 0.0316
H10 H 0.0585 0.8217 -0.0384
H11 H -0.1430 0.8258 -0.0371
H12 H -0.1239 0.5715 0.1898
H13 H 0.0762 0.5812 0.1811
H14 H -0.0346 0.6673 0.2076
H15 H -0.1829 0.3529 -0.0895
H16 H -0.3927 0.6059 -0.1446
H17 H -0.6714 0.5407 -0.1353
loop_
_geom_bond_atom_site_label_1
_geom_bond_atom_site_label_2
_geom_bond_site_symmetry_1
_geom_bond_site_symmetry_2
Br1 C18 1_555 1_555
F1 C17 1_555 1_555
O1 C5 1_555 1_555
O2 C11 1_555 1_555
O3 C11 1_555 1_555
N1 C1 1_555 1_555
C1 C2 1_555 1_555
C2 C3 1_555 1_555
C3 C4 1_555 1_555
C4 C5 1_555 1_555
C5 C6 1_555 1_555
C6 C1 1_555 1_555
C7 C6 1_555 1_555
C8 C7 1_555 1_555
C9 N1 1_555 1_555
C10 C9 1_555 1_555
C11 C8 1_555 1_555
C12 O3 1_555 1_555
C13 C7 1_555 1_555
C14 C13 1_555 1_555
C15 C13 1_555 1_555
C16 C15 1_555 1_555
C17 C16 1_555 1_555
C18 C14 1_555 1_555
H1 N1 1_555 1_555
H2 C2 1_555 1_555
H3 C2 1_555 1_555
H4 C3 1_555 1_555
H5 C3 1_555 1_555
H6 C4 1_555 1_555
H7 C4 1_555 1_555
H8 C7 1_555 1_555
H9 C10 1_555 1_555
H10 C10 1_555 1_555
H11 C10 1_555 1_555
H12 C12 1_555 1_555
H13 C12 1_555 1_555
H14 C12 1_555 1_555
H15 C14 1_555 1_555
H16 C15 1_555 1_555
H17 C16 1_555 1_555
C8 C9 1_555 1_555
C17 C18 1_555 1_555

#END
