
#######################################################################
#
#                 Cambridge Crystallographic Data Centre
#                                CCDC 
#
#######################################################################
#
# If this CIF has been generated from an entry in the Cambridge 
# Structural Database, then it will include bibliographic, chemical, 
# crystal, experimental, refinement or atomic coordinate data resulting 
# from the CCDC's data processing and validation procedures.
#
#######################################################################

data_FERHOA
_chemical_formula_moiety         'C17 H15 Br1 F1 N1 O3 S1'
_chemical_name_systematic        
'(+)-(9S)-9-(3-Bromo-4-fluorophenyl)-3,4,5,6,7,9-hexahydrocyclopenta(b)thiopyrano(2,3-e)pyridin-8(2H)-one 1,1-dioxide'
_chemical_properties_biological  
'potential potassium ATP channel opening activity'
_symmetry_cell_setting           orthorhombic
_symmetry_space_group_name_H-M   'P 21 21 21'
_symmetry_Int_Tables_number      19
_space_group_name_Hall           'P 2ac 2ab'
loop_
_symmetry_equiv_pos_site_id
_symmetry_equiv_pos_as_xyz
1 x,y,z
2 1/2-x,-y,1/2+z
3 1/2+x,1/2-y,-z
4 -x,1/2+y,1/2-z
_cell_length_a                   6.7980(2)
_cell_length_b                   12.0901(2)
_cell_length_c                   20.8700(7)
_cell_angle_alpha                90
_cell_angle_beta                 90
_cell_angle_gamma                90
_cell_volume                     1715.27
_exptl_crystal_description       rod
_cell_formula_units_Z            4
loop_
_atom_site_label
_atom_site_type_symbol
_atom_site_fract_x
_atom_site_fract_y
_atom_site_fract_z
Br1 Br -0.1141(2) -0.19897(9) -0.11687(6)
S1 S -0.1023(3) -0.6930(2) -0.0896(1)
F1 F 0.2681(8) -0.2058(5) -0.0447(3)
O1 O -0.0510(8) -0.6421(6) -0.0299(3)
O2 O -0.2518(8) -0.6387(5) -0.1278(3)
O3 O 0.3460(8) -0.4762(5) -0.2931(3)
N1 N 0.3744(9) -0.8090(6) -0.1784(3)
C1 C 0.182(1) -0.4969(7) -0.1438(4)
C2 C 0.148(1) -0.6048(6) -0.1810(4)
C3 C 0.107(1) -0.7047(7) -0.1398(4)
C4 C 0.213(1) -0.8004(8) -0.1367(4)
C5 C 0.175(1) -0.9013(7) -0.0999(4)
C6 C 0.425(1) -0.7278(7) -0.2179(4)
C7 C 0.323(1) -0.6325(7) -0.2240(4)
C8 C 0.403(1) -0.5646(7) -0.2739(5)
C9 C 0.587(1) -0.6264(7) -0.2974(5)
C10 C 0.593(1) -0.7373(8) -0.2644(4)
C11 C 0.0689(10) -0.3174(7) -0.1120(4)
C12 C 0.350(1) -0.4818(7) -0.1074(5)
C13 C 0.041(1) -0.4123(8) -0.1443(5)
C14 C 0.379(1) -0.3870(7) -0.0733(4)
C15 C 0.232(1) -0.3054(8) -0.0779(5)
C16 C 0.012(1) -0.8927(8) -0.0491(5)
C17 C -0.170(1) -0.8304(8) -0.0764(5)
H1 H 0.4555 -0.8734 -0.1773
H2 H 0.0362 -0.5939 -0.2081
H3 H 0.2924 -0.9238 -0.0795
H4 H 0.1368 -0.9592 -0.1299
H5 H 0.7009 -0.5859 -0.2842
H6 H 0.5855 -0.6358 -0.3415
H7 H 0.5643 -0.7971 -0.2936
H8 H 0.7103 -0.7526 -0.2426
H9 H 0.4434 -0.5409 -0.1035
H10 H -0.0790 -0.4244 -0.1663
H11 H 0.4955 -0.3746 -0.0487
H12 H 0.0605 -0.8530 -0.0135
H13 H -0.0289 -0.9644 -0.0363
H14 H -0.2111 -0.8640 -0.1148
H15 H -0.2737 -0.8332 -0.0455
loop_
_geom_bond_atom_site_label_1
_geom_bond_atom_site_label_2
_geom_bond_site_symmetry_1
_geom_bond_site_symmetry_2
Br1 C11 1_555 1_555
S1 O1 1_555 1_555
F1 C15 1_555 1_555
O2 S1 1_555 1_555
O3 C8 1_555 1_555
N1 C4 1_555 1_555
C1 C2 1_555 1_555
C2 C3 1_555 1_555
C3 S1 1_555 1_555
C4 C3 1_555 1_555
C5 C4 1_555 1_555
C6 N1 1_555 1_555
C7 C2 1_555 1_555
C8 C7 1_555 1_555
C9 C8 1_555 1_555
C10 C6 1_555 1_555
C11 C13 1_555 1_555
C12 C1 1_555 1_555
C13 C1 1_555 1_555
C14 C12 1_555 1_555
C15 C11 1_555 1_555
C16 C5 1_555 1_555
C17 S1 1_555 1_555
H1 N1 1_555 1_555
H2 C2 1_555 1_555
H3 C5 1_555 1_555
H4 C5 1_555 1_555
H5 C9 1_555 1_555
H6 C9 1_555 1_555
H7 C10 1_555 1_555
H8 C10 1_555 1_555
H9 C12 1_555 1_555
H10 C13 1_555 1_555
H11 C14 1_555 1_555
H12 C16 1_555 1_555
H13 C16 1_555 1_555
H14 C17 1_555 1_555
H15 C17 1_555 1_555
C6 C7 1_555 1_555
C9 C10 1_555 1_555
C14 C15 1_555 1_555
C16 C17 1_555 1_555

#END
