
#######################################################################
#
#                 Cambridge Crystallographic Data Centre
#                                CCDC 
#
#######################################################################
#
# If this CIF has been generated from an entry in the Cambridge 
# Structural Database, then it will include bibliographic, chemical, 
# crystal, experimental, refinement or atomic coordinate data resulting 
# from the CCDC's data processing and validation procedures.
#
#######################################################################

data_FERJOE
_chemical_formula_moiety         'C12 H10 N4 O3'
_chemical_name_systematic        
N'-[(2,5-dihydroxyphenyl)methylidene]pyrimidine-2-carbohydrazide
_symmetry_cell_setting           monoclinic
_symmetry_space_group_name_H-M   'P 21/c'
_symmetry_Int_Tables_number      14
_space_group_name_Hall           '-P 2ybc'
loop_
_symmetry_equiv_pos_site_id
_symmetry_equiv_pos_as_xyz
1 x,y,z
2 -x,1/2+y,1/2-z
3 -x,-y,-z
4 x,1/2-y,1/2+z
_cell_length_a                   5.6215(6)
_cell_length_b                   29.395(2)
_cell_length_c                   6.8344(8)
_cell_angle_alpha                90
_cell_angle_beta                 101.499(12)
_cell_angle_gamma                90
_cell_volume                     1106.68
_exptl_crystal_colour            yellow
_exptl_crystal_description       plate
_cell_formula_units_Z            4
loop_
_atom_site_label
_atom_site_type_symbol
_atom_site_fract_x
_atom_site_fract_y
_atom_site_fract_z
O1 O 1.1188(5) 0.22233(9) 0.4410(5)
O2 O 0.4221(5) 0.09229(8) 0.1647(5)
O3 O 1.0692(5) 0.35951(8) 0.4083(4)
N1 N 0.4955(6) 0.40609(10) 0.2034(5)
N2 N 0.8519(6) 0.44499(10) 0.3658(5)
H1 H 0.544(7) 0.3348(12) 0.238(6)
N3 N 0.7039(7) 0.32746(10) 0.2792(5)
N4 N 0.7904(6) 0.28389(10) 0.3126(5)
H2 H 1.029(9) 0.2516(19) 0.401(8)
C1 C 0.7246(7) 0.40809(12) 0.2982(6)
C2 C 0.7269(8) 0.48412(12) 0.3339(6)
H3 H 0.807888 0.511681 0.378966
C3 C 0.4898(8) 0.48616(13) 0.2401(6)
H4 H 0.405884 0.514351 0.219987
C4 C 0.3749(8) 0.44548(13) 0.1748(7)
H5 H 0.209185 0.445671 0.109245
C5 C 0.6322(8) 0.25211(12) 0.2589(6)
H6 H 0.469092 0.259798 0.201594
C6 C 0.7030(7) 0.20468(12) 0.2859(6)
C7 C 0.9389(8) 0.19175(12) 0.3729(6)
C8 C 0.9966(8) 0.14535(13) 0.3914(6)
H7 H 1.155803 0.135945 0.452565
C9 C 0.8196(7) 0.11324(12) 0.3198(6)
H8 H 0.860134 0.081845 0.331121
C10 C 0.5873(7) 0.12579(12) 0.2330(6)
H9 H 0.297(8) 0.1006(14) 0.084(6)
C11 C 0.5282(7) 0.17154(13) 0.2166(6)
H10 H 0.367526 0.180490 0.157609
C12 C 0.8549(8) 0.36293(12) 0.3358(6)
loop_
_geom_bond_atom_site_label_1
_geom_bond_atom_site_label_2
_geom_bond_site_symmetry_1
_geom_bond_site_symmetry_2
O1 H2 1_555 1_555
O2 C10 1_555 1_555
O3 C12 1_555 1_555
N1 C1 1_555 1_555
N2 C1 1_555 1_555
H1 N3 1_555 1_555
N3 N4 1_555 1_555
N4 C5 1_555 1_555
C1 C12 1_555 1_555
C2 N2 1_555 1_555
H3 C2 1_555 1_555
C3 C2 1_555 1_555
H4 C3 1_555 1_555
C4 N1 1_555 1_555
H5 C4 1_555 1_555
C5 H6 1_555 1_555
C6 C5 1_555 1_555
C7 O1 1_555 1_555
C8 C7 1_555 1_555
H7 C8 1_555 1_555
C9 C8 1_555 1_555
H8 C9 1_555 1_555
C10 C9 1_555 1_555
H9 O2 1_555 1_555
C11 C6 1_555 1_555
H10 C11 1_555 1_555
C12 N3 1_555 1_555
C3 C4 1_555 1_555
C6 C7 1_555 1_555
C10 C11 1_555 1_555

#END
