
#######################################################################
#
#                 Cambridge Crystallographic Data Centre
#                                CCDC 
#
#######################################################################
#
# If this CIF has been generated from an entry in the Cambridge 
# Structural Database, then it will include bibliographic, chemical, 
# crystal, experimental, refinement or atomic coordinate data resulting 
# from the CCDC's data processing and validation procedures.
#
#######################################################################

data_FERJAQ
_chemical_formula_moiety         'C40 H29 N1 O1'
_chemical_name_systematic        
3-methyl-2-[(5,6,7,8-tetraphenylnaphthalen-1-yl)oxy]pyridine
_symmetry_cell_setting           triclinic
_symmetry_space_group_name_H-M   'P -1'
_symmetry_Int_Tables_number      2
_space_group_name_Hall           '-P 1'
loop_
_symmetry_equiv_pos_site_id
_symmetry_equiv_pos_as_xyz
1 x,y,z
2 -x,-y,-z
_cell_length_a                   12.6938(8)
_cell_length_b                   13.2866(10)
_cell_length_c                   20.9456(12)
_cell_angle_alpha                72.001(6)
_cell_angle_beta                 89.223(5)
_cell_angle_gamma                64.527(7)
_cell_volume                     3003.7
_exptl_crystal_colour            colorless
_exptl_crystal_description       block
_cell_formula_units_Z            4
loop_
_atom_site_label
_atom_site_type_symbol
_atom_site_fract_x
_atom_site_fract_y
_atom_site_fract_z
C1 C 0.7068(3) 0.4550(3) 0.37711(18)
C2 C 0.7892(3) 0.3880(4) 0.4322(2)
H1 H 0.8604 0.3924 0.4326
C3 C 0.7698(3) 0.3128(4) 0.4879(2)
H2 H 0.8274 0.2668 0.5256
C4 C 0.6652(3) 0.3067(3) 0.48709(18)
H3 H 0.6522 0.2557 0.5245
C5 C 0.5772(2) 0.3759(3) 0.43080(16)
C6 C 0.5965(2) 0.4521(3) 0.37229(15)
C7 C 0.5049(2) 0.5235(2) 0.31602(15)
C8 C 0.3986(2) 0.5193(3) 0.31989(15)
C9 C 0.3811(2) 0.4396(3) 0.37716(16)
C10 C 0.4686(2) 0.3690(2) 0.43154(15)
C11 C 0.8097(3) 0.4989(3) 0.28457(17)
C12 C 0.9175(3) 0.3586(4) 0.2410(2)
H4 H 0.9404 0.2838 0.2380
C13 C 0.9643(3) 0.4270(4) 0.2029(2)
H5 H 1.0176 0.4000 0.1741
C14 C 0.9322(3) 0.5367(4) 0.2072(2)
H6 H 0.9649 0.5842 0.1819
C15 C 0.8520(3) 0.5768(3) 0.24878(18)
C16 C 0.8140(4) 0.6951(3) 0.2556(2)
H7 H 0.7332 0.7451 0.2357
H8 H 0.8624 0.7300 0.2328
H9 H 0.8218 0.6866 0.3028
C17 C 0.5200(2) 0.6006(3) 0.25137(16)
C18 C 0.5747(3) 0.5542(3) 0.20273(17)
H10 H 0.6043 0.4734 0.2108
C19 C 0.5864(3) 0.6251(4) 0.14272(19)
H11 H 0.6244 0.5923 0.1107
C20 C 0.5421(4) 0.7443(4) 0.1299(2)
H12 H 0.5512 0.7925 0.0895
C21 C 0.4845(4) 0.7923(4) 0.1767(2)
H13 H 0.4520 0.8737 0.1676
C22 C 0.4746(3) 0.7204(3) 0.2375(2)
H14 H 0.4368 0.7534 0.2695
C23 C 0.2967(3) 0.6015(3) 0.26414(16)
C24 C 0.2852(3) 0.5780(3) 0.20613(17)
H15 H 0.3419 0.5093 0.2005
C25 C 0.1910(3) 0.6545(3) 0.15602(19)
H16 H 0.1842 0.6367 0.1172
C26 C 0.1074(3) 0.7566(3) 0.1632(2)
H17 H 0.0437 0.8085 0.1294
C27 C 0.1188(3) 0.7813(3) 0.2206(2)
H18 H 0.0631 0.8512 0.2255
C28 C 0.2116(3) 0.7043(3) 0.27113(18)
H19 H 0.2171 0.7214 0.3104
C29 C 0.2724(3) 0.4235(4) 0.37609(19)
C30 C 0.1825(4) 0.4720(5) 0.4077(3)
H20 H 0.1844 0.5216 0.4303
C31 C 0.0802(5) 0.4476(6) 0.4071(3)
H21 H 0.0142 0.4840 0.4265
C32 C 0.0877(4) 0.3693(6) 0.3766(3)
H22 H 0.0249 0.3505 0.3775
C33 C 0.1784(4) 0.3152(5) 0.3448(3)
H23 H 0.1803 0.2602 0.3256
C34 C 0.2665(4) 0.3486(5) 0.3436(3)
H24 H 0.3273 0.3192 0.3191
C35 C 0.4477(2) 0.2878(3) 0.49135(16)
C36 C 0.4551(5) 0.1832(4) 0.4913(2)
H25 H 0.4795 0.1589 0.4542
C37 C 0.4273(5) 0.1119(4) 0.5448(3)
H26 H 0.4317 0.0410 0.5432
C38 C 0.3936(4) 0.1447(5) 0.5995(2)
H27 H 0.3732 0.0976 0.6353
C39 C 0.3899(4) 0.2460(5) 0.6017(2)
H28 H 0.3700 0.2676 0.6400
C40 C 0.4152(3) 0.3178(4) 0.54771(19)
H29 H 0.4101 0.3888 0.5496
N1 N 0.8396(2) 0.3929(3) 0.28311(16)
O1 O 0.72766(18) 0.53848(19) 0.32563(12)
C41 C 0.2478(2) 0.0473(2) 0.22144(15)
C42 C 0.3237(3) -0.0032(3) 0.27966(17)
H30 H 0.4003 -0.0118 0.2779
C43 C 0.2888(3) -0.0425(3) 0.34231(17)
H31 H 0.3414 -0.0763 0.3820
C44 C 0.1776(3) -0.0309(3) 0.34458(16)
H32 H 0.1548 -0.0585 0.3862
C45 C 0.0954(2) 0.0221(2) 0.28517(15)
C46 C 0.1303(2) 0.0623(2) 0.22062(14)
C47 C 0.0446(2) 0.1160(2) 0.16118(14)
C48 C -0.0696(2) 0.1334(2) 0.16775(14)
C49 C -0.1035(2) 0.0940(2) 0.23228(15)
C50 C -0.0221(2) 0.0371(2) 0.28980(15)
C51 C 0.3010(3) 0.1811(3) 0.13964(16)
C52 C 0.2465(4) 0.3635(4) 0.1445(2)
H33 H 0.2052 0.4215 0.1636
C53 C 0.3109(5) 0.3864(4) 0.0948(3)
H34 H 0.3117 0.4596 0.0793
C54 C 0.3751(4) 0.2998(4) 0.0677(2)
H35 H 0.4203 0.3142 0.0340
C55 C 0.3726(3) 0.1927(3) 0.09014(18)
C56 C 0.4439(4) 0.0940(4) 0.0640(2)
H36 H 0.4943 0.0251 0.1012
H37 H 0.4911 0.1177 0.0323
H38 H 0.3920 0.0759 0.0418
C57 C 0.0760(3) 0.1539(3) 0.09180(15)
C58 C 0.0387(3) 0.2724(3) 0.05527(17)
H39 H -0.0061 0.3299 0.0740
C59 C 0.0683(4) 0.3053(4) -0.0093(2)
H40 H 0.0434 0.3850 -0.0337
C60 C 0.1337(4) 0.2216(5) -0.0377(2)
H41 H 0.1540 0.2444 -0.0808
C61 C 0.1688(4) 0.1054(5) -0.0026(2)
H42 H 0.2127 0.0485 -0.0219
C62 C 0.1396(3) 0.0717(3) 0.06131(19)
H43 H 0.1630 -0.0082 0.0846
C63 C -0.1627(2) 0.1970(3) 0.10700(15)
C64 C -0.1656(3) 0.1479(3) 0.05874(17)
H44 H -0.1071 0.0731 0.0626
C65 C -0.2549(4) 0.2088(4) 0.00449(18)
H45 H -0.2560 0.1748 -0.0280
C66 C -0.3417(3) 0.3192(4) -0.00165(19)
H46 H -0.4018 0.3599 -0.0382
C67 C -0.3399(3) 0.3687(3) 0.0455(2)
H47 H -0.3986 0.4437 0.0414
C68 C -0.2513(3) 0.3085(3) 0.09955(17)
H48 H -0.2510 0.3434 0.1318
C69 C -0.2289(2) 0.1152(3) 0.23830(15)
C70 C -0.2750(3) 0.0518(3) 0.21789(17)
H49 H -0.2291 -0.0042 0.1986
C71 C -0.3893(3) 0.0713(4) 0.2261(2)
H50 H -0.4198 0.0277 0.2125
C72 C -0.4582(3) 0.1536(4) 0.2539(2)
H51 H -0.5356 0.1671 0.2585
C73 C -0.4131(3) 0.2162(3) 0.2750(2)
H52 H -0.4594 0.2714 0.2947
C74 C -0.2987(3) 0.1975(3) 0.26704(18)
H53 H -0.2684 0.2408 0.2812
C75 C -0.0574(2) -0.0096(3) 0.35648(16)
C76 C -0.0616(3) -0.1160(4) 0.3747(2)
H54 H -0.0389 -0.1607 0.3460
C77 C -0.0997(4) -0.1585(5) 0.4359(3)
H55 H -0.1018 -0.2310 0.4482
C78 C -0.1335(4) -0.0908(7) 0.4770(3)
H56 H -0.1604 -0.1172 0.5173
C79 C -0.1287(4) 0.0122(6) 0.4605(2)
H57 H -0.1511 0.0562 0.4895
C80 C -0.0904(3) 0.0543(4) 0.40010(19)
H58 H -0.0871 0.1261 0.3891
N2 N 0.2400(2) 0.2606(2) 0.16712(15)
O2 O 0.29425(17) 0.07613(18) 0.16130(10)
loop_
_geom_bond_atom_site_label_1
_geom_bond_atom_site_label_2
_geom_bond_site_symmetry_1
_geom_bond_site_symmetry_2
C1 C2 1_555 1_555
C2 H1 1_555 1_555
C3 C2 1_555 1_555
H2 C3 1_555 1_555
C4 C3 1_555 1_555
H3 C4 1_555 1_555
C5 C4 1_555 1_555
C6 C1 1_555 1_555
C7 C6 1_555 1_555
C8 C7 1_555 1_555
C9 C8 1_555 1_555
C10 C5 1_555 1_555
C11 C15 1_555 1_555
C12 H4 1_555 1_555
C13 C12 1_555 1_555
H5 C13 1_555 1_555
C14 C13 1_555 1_555
H6 C14 1_555 1_555
C15 C14 1_555 1_555
C16 C15 1_555 1_555
H7 C16 1_555 1_555
H8 C16 1_555 1_555
H9 C16 1_555 1_555
C17 C7 1_555 1_555
C18 C17 1_555 1_555
H10 C18 1_555 1_555
C19 C18 1_555 1_555
H11 C19 1_555 1_555
C20 C19 1_555 1_555
H12 C20 1_555 1_555
C21 C20 1_555 1_555
H13 C21 1_555 1_555
C22 C17 1_555 1_555
H14 C22 1_555 1_555
C23 C8 1_555 1_555
C24 C23 1_555 1_555
H15 C24 1_555 1_555
C25 C24 1_555 1_555
H16 C25 1_555 1_555
C26 C25 1_555 1_555
H17 C26 1_555 1_555
C27 C26 1_555 1_555
H18 C27 1_555 1_555
C28 C23 1_555 1_555
H19 C28 1_555 1_555
C29 C9 1_555 1_555
C30 C29 1_555 1_555
H20 C30 1_555 1_555
C31 C30 1_555 1_555
H21 C31 1_555 1_555
C32 C31 1_555 1_555
H22 C32 1_555 1_555
C33 C32 1_555 1_555
H23 C33 1_555 1_555
C34 C29 1_555 1_555
H24 C34 1_555 1_555
C35 C10 1_555 1_555
C36 C35 1_555 1_555
H25 C36 1_555 1_555
C37 C36 1_555 1_555
H26 C37 1_555 1_555
C38 C37 1_555 1_555
H27 C38 1_555 1_555
C39 C38 1_555 1_555
H28 C39 1_555 1_555
C40 C35 1_555 1_555
H29 C40 1_555 1_555
N1 C11 1_555 1_555
O1 C1 1_555 1_555
C41 C42 1_555 1_555
C42 H30 1_555 1_555
C43 C42 1_555 1_555
H31 C43 1_555 1_555
C44 C43 1_555 1_555
H32 C44 1_555 1_555
C45 C44 1_555 1_555
C46 C41 1_555 1_555
C47 C46 1_555 1_555
C48 C47 1_555 1_555
C49 C48 1_555 1_555
C50 C45 1_555 1_555
C51 C55 1_555 1_555
C52 H33 1_555 1_555
C53 C52 1_555 1_555
H34 C53 1_555 1_555
C54 C53 1_555 1_555
H35 C54 1_555 1_555
C55 C54 1_555 1_555
C56 C55 1_555 1_555
H36 C56 1_555 1_555
H37 C56 1_555 1_555
H38 C56 1_555 1_555
C57 C47 1_555 1_555
C58 C57 1_555 1_555
H39 C58 1_555 1_555
C59 C58 1_555 1_555
H40 C59 1_555 1_555
C60 C59 1_555 1_555
H41 C60 1_555 1_555
C61 C60 1_555 1_555
H42 C61 1_555 1_555
C62 C57 1_555 1_555
H43 C62 1_555 1_555
C63 C48 1_555 1_555
C64 C63 1_555 1_555
H44 C64 1_555 1_555
C65 C64 1_555 1_555
H45 C65 1_555 1_555
C66 C65 1_555 1_555
H46 C66 1_555 1_555
C67 C66 1_555 1_555
H47 C67 1_555 1_555
C68 C63 1_555 1_555
H48 C68 1_555 1_555
C69 C49 1_555 1_555
C70 C69 1_555 1_555
H49 C70 1_555 1_555
C71 C70 1_555 1_555
H50 C71 1_555 1_555
C72 C71 1_555 1_555
H51 C72 1_555 1_555
C73 C72 1_555 1_555
H52 C73 1_555 1_555
C74 C69 1_555 1_555
H53 C74 1_555 1_555
C75 C50 1_555 1_555
C76 C75 1_555 1_555
H54 C76 1_555 1_555
C77 C76 1_555 1_555
H55 C77 1_555 1_555
C78 C77 1_555 1_555
H56 C78 1_555 1_555
C79 C78 1_555 1_555
H57 C79 1_555 1_555
C80 C75 1_555 1_555
H58 C80 1_555 1_555
N2 C51 1_555 1_555
O2 C41 1_555 1_555
C5 C6 1_555 1_555
C9 C10 1_555 1_555
C11 O1 1_555 1_555
C12 N1 1_555 1_555
C21 C22 1_555 1_555
C27 C28 1_555 1_555
C33 C34 1_555 1_555
C39 C40 1_555 1_555
C45 C46 1_555 1_555
C49 C50 1_555 1_555
C51 O2 1_555 1_555
C52 N2 1_555 1_555
C61 C62 1_555 1_555
C67 C68 1_555 1_555
C73 C74 1_555 1_555
C79 C80 1_555 1_555

#END
