
#######################################################################
#
#                 Cambridge Crystallographic Data Centre
#                                CCDC 
#
#######################################################################
#
# If this CIF has been generated from an entry in the Cambridge 
# Structural Database, then it will include bibliographic, chemical, 
# crystal, experimental, refinement or atomic coordinate data resulting 
# from the CCDC's data processing and validation procedures.
#
#######################################################################

data_FERJAO
_chemical_formula_moiety         'C17 H15 Br1 F1 N1 O3 S1'
_chemical_name_systematic        
'(+)-(9R)-9-(3-Bromo-4-fluorophenyl)-2,3,5,6,7,9-hexahydrothieno(3,2-b)quinolin-8(4H)-one 1,1-dioxide'
_chemical_properties_biological  
'potential potassium ATP channel opening activity'
_symmetry_cell_setting           monoclinic
_symmetry_space_group_name_H-M   'P 21'
_symmetry_Int_Tables_number      4
_space_group_name_Hall           'P 2yb'
loop_
_symmetry_equiv_pos_site_id
_symmetry_equiv_pos_as_xyz
1 x,y,z
2 -x,1/2+y,-z
_cell_length_a                   8.358(1)
_cell_length_b                   11.539(2)
_cell_length_c                   9.075(1)
_cell_angle_alpha                90
_cell_angle_beta                 113.551(3)
_cell_angle_gamma                90
_cell_volume                     802.318
_exptl_crystal_description       blade
_cell_formula_units_Z            2
loop_
_atom_site_label
_atom_site_type_symbol
_atom_site_fract_x
_atom_site_fract_y
_atom_site_fract_z
Br1 Br 0.66636(7) 0.3266(9) 0.43671(6)
S1 S 1.4793(2) 0.1203(9) 0.7644(2)
F1 F 0.5760(5) 0.090(1) 0.2907(4)
O1 O 1.3929(6) 0.1046(9) 0.5948(4)
O2 O 1.6002(6) 0.032(1) 0.8584(5)
O3 O 1.0682(5) -0.0850(9) 1.0158(4)
N1 N 1.3063(5) 0.2862(9) 1.0339(4)
C1 C 1.3854(6) 0.252(1) 0.9334(5)
C2 C 1.0308(6) 0.081(1) 0.6996(5)
C3 C 1.1614(6) 0.104(1) 1.0017(5)
C4 C 1.2095(6) 0.208(1) 1.0811(5)
C5 C 1.3343(6) 0.153(1) 0.8500(5)
C6 C 1.5329(6) 0.316(1) 0.9311(5)
C7 C 1.0873(7) 0.016(1) 1.0715(6)
C8 C 0.7286(7) 0.088(1) 0.4237(6)
C9 C 0.9603(7) -0.0183(9) 0.6075(6)
C10 C 1.1785(7) 0.240(1) 1.2237(6)
C11 C 0.8163(8) -0.015(1) 0.4729(6)
C12 C 0.7909(6) 0.184(1) 0.5130(6)
C13 C 1.1987(6) 0.074(1) 0.8509(5)
C14 C 0.9339(6) 0.181(1) 0.6461(5)
C15 C 1.0269(8) 0.171(1) 1.2338(6)
C16 C 1.0483(8) 0.044(1) 1.2093(6)
C17 C 1.5940(7) 0.257(1) 0.8121(6)
H1 H 1.3159 0.3590 1.0683
H2 H 1.5009 0.3897 0.8971
H3 H 1.6279 0.3129 1.0342
H4 H 1.0261 -0.0963 0.6540
H5 H 1.2734 0.2208 1.3210
H6 H 1.1466 0.3166 1.2205
H7 H 0.7741 -0.0902 0.4030
H8 H 1.2349 -0.0080 0.8607
H9 H 0.9800 0.2503 0.7095
H10 H 1.0154 0.1841 1.3323
H11 H 0.9184 0.1951 1.1472
H12 H 0.9423 -0.0048 1.1994
H13 H 1.1396 0.0064 1.3079
H14 H 1.7211 0.2417 0.8576
H15 H 1.5694 0.2997 0.7160
loop_
_geom_bond_atom_site_label_1
_geom_bond_atom_site_label_2
_geom_bond_site_symmetry_1
_geom_bond_site_symmetry_2
Br1 C12 1_555 1_555
S1 O1 1_555 1_555
F1 C8 1_555 1_555
O2 S1 1_555 1_555
O3 C7 1_555 1_555
N1 C1 1_555 1_555
C1 C5 1_555 1_555
C2 C9 1_555 1_555
C3 C4 1_555 1_555
C4 N1 1_555 1_555
C5 S1 1_555 1_555
C6 C1 1_555 1_555
C7 C3 1_555 1_555
C8 C11 1_555 1_555
C9 C11 1_555 1_555
C10 C4 1_555 1_555
C11 H7 1_555 1_555
C12 C8 1_555 1_555
C13 C2 1_555 1_555
C14 C2 1_555 1_555
C15 C10 1_555 1_555
C16 C7 1_555 1_555
C17 S1 1_555 1_555
H1 N1 1_555 1_555
H2 C6 1_555 1_555
H3 C6 1_555 1_555
H4 C9 1_555 1_555
H5 C10 1_555 1_555
H6 C10 1_555 1_555
H8 C13 1_555 1_555
H9 C14 1_555 1_555
H10 C15 1_555 1_555
H11 C15 1_555 1_555
H12 C16 1_555 1_555
H13 C16 1_555 1_555
H14 C17 1_555 1_555
H15 C17 1_555 1_555
C3 C13 1_555 1_555
C5 C13 1_555 1_555
C6 C17 1_555 1_555
C12 C14 1_555 1_555
C15 C16 1_555 1_555

#END
