
#######################################################################
#
#                 Cambridge Crystallographic Data Centre
#                                CCDC 
#
#######################################################################
#
# If this CIF has been generated from an entry in the Cambridge 
# Structural Database, then it will include bibliographic, chemical, 
# crystal, experimental, refinement or atomic coordinate data resulting 
# from the CCDC's data processing and validation procedures.
#
#######################################################################

data_FERLUL
_chemical_compound_source        'whole plant of Zephyranthes candida'
_chemical_name_common            '3-Epimacronine hydrate'
_chemical_formula_moiety         'C18 H19 N1 O5,0.13(H2 O1)'
_chemical_name_systematic        
'3-Methoxy-5-methyl-3,4,4a,5,6,6a-hexahydro-8H-[1,3]dioxolo[6,7]isochromeno[3,4-c]indol-8-one hydrate'
_symmetry_cell_setting           monoclinic
_symmetry_space_group_name_H-M   'P 21'
_symmetry_Int_Tables_number      4
_space_group_name_Hall           'P 2yb'
loop_
_symmetry_equiv_pos_site_id
_symmetry_equiv_pos_as_xyz
1 x,y,z
2 -x,1/2+y,-z
_cell_length_a                   8.1308(2)
_cell_length_b                   17.5736(3)
_cell_length_c                   11.0262(2)
_cell_angle_alpha                90
_cell_angle_beta                 94.9400(10)
_cell_angle_gamma                90
_cell_volume                     1569.65
_exptl_crystal_colour            yellow
_exptl_crystal_description       prism
_cell_formula_units_Z            4
_exptl_crystal_recrystallization_method methanol
loop_
_atom_site_label
_atom_site_type_symbol
_atom_site_fract_x
_atom_site_fract_y
_atom_site_fract_z
O1 O 1.03973(16) 0.05257(6) 0.66800(11)
O2 O 1.01180(14) 0.23831(6) -0.05072(10)
O3 O 0.71173(14) 0.33636(6) 0.43650(9)
O4 O 0.83651(16) 0.33357(7) 0.62182(10)
O5 O 1.02934(17) 0.00370(6) 0.47181(11)
N1 N 0.57509(16) 0.27208(7) 0.13009(12)
C1 C 0.9733(2) 0.10540(9) 0.58662(14)
C2 C 0.9164(2) 0.17677(9) 0.60882(14)
H1 H 0.9191 0.1966 0.6891
C3 C 0.85335(19) 0.21961(9) 0.50702(14)
C4 C 0.84932(18) 0.18948(8) 0.38861(14)
C5 C 0.79006(18) 0.24262(8) 0.28653(13)
C6 C 0.69427(18) 0.21051(8) 0.17063(13)
H2 H 0.6323 0.1639 0.1917
C7 C 0.80233(19) 0.19242(8) 0.06785(13)
H3 H 0.8809 0.1514 0.0941
H4 H 0.7321 0.1740 -0.0039
C8 C 0.89761(19) 0.26225(9) 0.03276(14)
H5 H 0.8188 0.2996 -0.0087
C9 C 1.0700(2) 0.30003(11) -0.11841(15)
H6 H 0.9760 0.3262 -0.1618
H7 H 1.1434 0.2807 -0.1773
H8 H 1.1306 0.3358 -0.0629
C10 C 0.4101(2) 0.24214(11) 0.09739(16)
H9 H 0.3633 0.2233 0.1706
H10 H 0.4165 0.2004 0.0391
H11 H 0.3397 0.2826 0.0604
C11 C 0.5773(2) 0.33176(10) 0.22590(14)
H12 H 0.4644 0.3496 0.2381
H13 H 0.6461 0.3758 0.2060
C12 C 0.65272(19) 0.28930(9) 0.33576(14)
H14 H 0.5682 0.2535 0.3638
C13 C 0.8019(2) 0.29936(9) 0.52875(14)
C14 C 0.90753(19) 0.11628(9) 0.36899(14)
H15 H 0.9055 0.0954 0.2894
C15 C 0.9678(2) 0.07579(9) 0.46927(15)
C16 C 1.0813(2) -0.01166(9) 0.59700(15)
H16 H 1.0252 -0.0578 0.6244
H17 H 1.2020 -0.0205 0.6069
C17 C 0.93505(19) 0.29078(8) 0.25561(14)
H18 H 0.9957 0.3169 0.3203
C18 C 0.98351(19) 0.29909(8) 0.14433(14)
H19 H 1.0774 0.3299 0.1345
O6 O 0.51750(16) 0.14189(6) 0.79551(11)
O7 O 0.32942(14) 0.45873(7) 1.08852(10)
O8 O 0.38789(16) 0.11621(7) 0.60461(11)
O9 O 0.39957(14) 0.45855(6) 0.51976(9)
O10 O 0.24944(15) 0.37922(7) 0.40181(10)
N2 N 0.61859(17) 0.53347(7) 0.79581(12)
C19 C 0.4694(3) 0.08290(11) 0.7103(2)
H20 H 0.5680 0.0546 0.6887
H21 H 0.3946 0.0467 0.7469
C20 C 0.4751(2) 0.20879(9) 0.73755(14)
C21 C 0.49954(19) 0.28121(9) 0.78178(14)
H22 H 0.5473 0.2905 0.8621
C22 C 0.45029(19) 0.34080(9) 0.70217(14)
C23 C 0.46128(19) 0.42441(9) 0.73521(13)
C24 C 0.29270(19) 0.45130(8) 0.76448(14)
H23 H 0.2044 0.4483 0.7023
C25 C 0.2610(2) 0.47881(8) 0.87181(14)
H24 H 0.1503 0.4930 0.8822
C26 C 0.3870(2) 0.48923(9) 0.97837(13)
H25 H 0.4110 0.5447 0.9898
C27 C 0.1928(2) 0.49801(10) 1.13178(15)
H26 H 0.2142 0.5529 1.1317
H27 H 0.1774 0.4813 1.2148
H28 H 0.0929 0.4869 1.0786
C28 C 0.3994(2) 0.19374(9) 0.62191(14)
C29 C 0.3491(2) 0.25049(10) 0.54291(14)
H29 H 0.2962 0.2400 0.4645
C30 C 0.37959(19) 0.32563(9) 0.58374(14)
C31 C 0.59487(19) 0.45249(8) 0.83110(13)
H30 H 0.6993 0.4234 0.8237
C32 C 0.5598(2) 0.54370(9) 0.66564(14)
H31 H 0.6466 0.5667 0.6197
H32 H 0.4601 0.5763 0.6567
C33 C 0.52065(19) 0.46354(9) 0.62265(13)
H33 H 0.6248 0.4385 0.6014
C34 C 0.3367(2) 0.38816(9) 0.49507(14)
C35 C 0.7878(2) 0.55738(10) 0.82585(18)
H34 H 0.8622 0.5246 0.7838
H35 H 0.8148 0.5535 0.9140
H36 H 0.8009 0.6103 0.8001
C36 C 0.54644(19) 0.44727(9) 0.96118(13)
H37 H 0.5335 0.3931 0.9829
H38 H 0.6362 0.4689 1.0171
O11 O 0.1823(10) 0.1037(5) 0.8918(7)
H39 H 0.1669 0.0525 0.8889
H40 H 0.1300 0.1396 0.9275
loop_
_geom_bond_atom_site_label_1
_geom_bond_atom_site_label_2
_geom_bond_site_symmetry_1
_geom_bond_site_symmetry_2
O1 C1 1_555 1_555
O2 C8 1_555 1_555
O3 C12 1_555 1_555
O4 C13 1_555 1_555
O5 C15 1_555 1_555
N1 C6 1_555 1_555
C1 C2 1_555 1_555
C2 H1 1_555 1_555
C3 C2 1_555 1_555
C4 C3 1_555 1_555
C5 C4 1_555 1_555
C6 C5 1_555 1_555
H2 C6 1_555 1_555
C7 C6 1_555 1_555
H3 C7 1_555 1_555
H4 C7 1_555 1_555
C8 C7 1_555 1_555
H5 C8 1_555 1_555
C9 O2 1_555 1_555
H6 C9 1_555 1_555
H7 C9 1_555 1_555
H8 C9 1_555 1_555
C10 N1 1_555 1_555
H9 C10 1_555 1_555
H10 C10 1_555 1_555
H11 C10 1_555 1_555
C11 N1 1_555 1_555
H12 C11 1_555 1_555
H13 C11 1_555 1_555
C12 C5 1_555 1_555
H14 C12 1_555 1_555
C13 O3 1_555 1_555
C14 C4 1_555 1_555
H15 C14 1_555 1_555
C15 C1 1_555 1_555
C16 O1 1_555 1_555
H16 C16 1_555 1_555
H17 C16 1_555 1_555
C17 C5 1_555 1_555
H18 C17 1_555 1_555
C18 C8 1_555 1_555
H19 C18 1_555 1_555
O6 C19 1_555 1_555
O7 C26 1_555 1_555
O8 C19 1_555 1_555
O9 C33 1_555 1_555
O10 C34 1_555 1_555
N2 C31 1_555 1_555
C19 H20 1_555 1_555
H21 C19 1_555 1_555
C20 O6 1_555 1_555
C21 C20 1_555 1_555
H22 C21 1_555 1_555
C22 C21 1_555 1_555
C23 C22 1_555 1_555
C24 C23 1_555 1_555
H23 C24 1_555 1_555
C25 C24 1_555 1_555
H24 C25 1_555 1_555
C26 C25 1_555 1_555
H25 C26 1_555 1_555
C27 O7 1_555 1_555
H26 C27 1_555 1_555
H27 C27 1_555 1_555
H28 C27 1_555 1_555
C28 O8 1_555 1_555
C29 C28 1_555 1_555
H29 C29 1_555 1_555
C30 C22 1_555 1_555
C31 C23 1_555 1_555
H30 C31 1_555 1_555
C32 N2 1_555 1_555
H31 C32 1_555 1_555
H32 C32 1_555 1_555
C33 C23 1_555 1_555
H33 C33 1_555 1_555
C34 O9 1_555 1_555
C35 N2 1_555 1_555
H34 C35 1_555 1_555
H35 C35 1_555 1_555
H36 C35 1_555 1_555
C36 C26 1_555 1_555
H37 C36 1_555 1_555
H38 C36 1_555 1_555
O11 H39 1_555 1_555
H40 O11 1_555 1_555
O5 C16 1_555 1_555
C3 C13 1_555 1_555
C11 C12 1_555 1_555
C14 C15 1_555 1_555
C17 C18 1_555 1_555
C20 C28 1_555 1_555
C29 C30 1_555 1_555
C30 C34 1_555 1_555
C31 C36 1_555 1_555
C32 C33 1_555 1_555

#END
