
#######################################################################
#
#                 Cambridge Crystallographic Data Centre
#                                CCDC 
#
#######################################################################
#
# If this CIF has been generated from an entry in the Cambridge 
# Structural Database, then it will include bibliographic, chemical, 
# crystal, experimental, refinement or atomic coordinate data resulting 
# from the CCDC's data processing and validation procedures.
#
#######################################################################

data_FERSIF
_chemical_formula_moiety         'C17 H20 Br2'
_chemical_name_systematic        
'd-(+)-(1S,3R,4R,5S,6S,7R,8R,9S)-1,9-bis(bromomethyl) hexaspiro(2.0.0.0.0.0.2^8^.1^7^.1^6^.1^5^.1^4^.1^3^)pentadecane'
_symmetry_cell_setting           monoclinic
_symmetry_space_group_name_H-M   'C 2'
_symmetry_Int_Tables_number      5
_space_group_name_Hall           'C 2y'
loop_
_symmetry_equiv_pos_site_id
_symmetry_equiv_pos_as_xyz
1 x,y,z
2 -x,y,-z
3 1/2+x,1/2+y,z
4 1/2-x,1/2+y,-z
_cell_length_a                   23.9536(5)
_cell_length_b                   6.5749(1)
_cell_length_c                   16.7246(4)
_cell_angle_alpha                90
_cell_angle_beta                 110.67(1)
_cell_angle_gamma                90
_cell_volume                     2464.45
_exptl_crystal_colour            colorless
_exptl_crystal_description       plate
_chemical_melting_point          73-74deg.C
_cell_formula_units_Z            6
loop_
_atom_site_label
_atom_site_type_symbol
_atom_site_fract_x
_atom_site_fract_y
_atom_site_fract_z
Br1 Br 0.028348(14) 0.56523(7) 0.782108(19)
Br2 Br 0.417558(13) 0.53552(5) 0.576529(19)
C1 C 0.03207(12) 0.5467(6) 0.66651(17)
C2 C 0.09242(14) 0.5986(5) 0.6658(2)
C3 C 0.09511(16) 0.6568(5) 0.5789(2)
C4 C 0.10486(14) 0.8112(4) 0.6468(2)
C5 C 0.07974(12) 1.0178(5) 0.6509(2)
C6 C 0.14572(13) 0.9821(5) 0.68194(19)
C7 C 0.19899(13) 1.0355(6) 0.75910(19)
C8 C 0.19775(11) 1.0732(5) 0.66996(17)
C9 C 0.21114(15) 1.2465(5) 0.6213(2)
C10 C 0.23631(11) 1.0382(6) 0.62051(17)
C11 C 0.23872(14) 0.8959(6) 0.5518(2)
C12 C 0.29349(13) 0.9460(5) 0.6276(2)
C13 C 0.35606(13) 1.0173(5) 0.6414(2)
C14 C 0.34393(14) 0.8374(4) 0.6887(2)
C15 C 0.36463(17) 0.7581(5) 0.7767(2)
C16 C 0.36592(13) 0.6249(4) 0.7017(2)
C17 C 0.42504(12) 0.5756(6) 0.69656(18)
H1 H -0.0007(17) 0.643(6) 0.630(3)
H2 H 0.0204(16) 0.405(6) 0.649(2)
H3 H 0.1265(14) 0.516(5) 0.7041(19)
H4 H 0.1301(16) 0.615(5) 0.568(2)
H5 H 0.0580(19) 0.656(6) 0.528(3)
H6 H 0.0616(14) 1.061(7) 0.6941(19)
H7 H 0.0648(14) 1.085(6) 0.596(2)
H8 H 0.2212(17) 0.924(6) 0.792(2)
H9 H 0.192(2) 1.142(7) 0.792(3)
H10 H 0.2363(14) 1.340(5) 0.648(2)
H11 H 0.1784(15) 1.288(5) 0.565(2)
H12 H 0.2267(16) 0.770(6) 0.554(2)
H13 H 0.2335(14) 0.942(5) 0.496(2)
H14 H 0.3687(14) 0.985(5) 0.600(2)
H15 H 0.3671(15) 1.127(6) 0.671(2)
H16 H 0.3357(19) 0.724(6) 0.803(3)
H17 H 0.401(2) 0.801(7) 0.812(3)
H18 H 0.3370(13) 0.509(5) 0.6817(17)
H19 H 0.4426(15) 0.459(5) 0.725(2)
H20 H 0.4547(18) 0.701(6) 0.716(3)
Br3 Br 0.245277(13) 0.56279(7) 0.88734(2)
C18 C 0.30098(15) 0.6089(5) 1.0054(2)
C19 C 0.36392(13) 0.5790(5) 1.01054(19)
C20 C 0.40738(16) 0.4974(5) 1.0961(2)
C21 C 0.38761(14) 0.3691(5) 1.0185(2)
C22 C 0.35965(15) 0.1649(5) 0.9920(2)
C23 C 0.41191(13) 0.2359(4) 0.96966(19)
C24 C 0.42856(15) 0.2472(5) 0.8914(2)
C25 C 0.46860(13) 0.1498(4) 0.9726(2)
C26 C 0.5000 -0.0502(7) 1.0000
H21 H 0.2902(18) 0.514(7) 1.038(2)
H22 H 0.2924(18) 0.745(7) 1.027(3)
H23 H 0.3822(16) 0.671(5) 0.991(2)
H24 H 0.3901(17) 0.466(6) 1.139(2)
H25 H 0.4468(17) 0.565(9) 1.122(2)
H26 H 0.3688(15) 0.055(8) 1.033(2)
H27 H 0.3233(18) 0.152(6) 0.948(3)
H28 H 0.4420(15) 0.387(5) 0.875(2)
H29 H 0.4040(17) 0.162(6) 0.846(2)
H30 H 0.4949(16) -0.122(6) 1.039(2)
Br3A Br 0.754723(13) 0.56279(7) 1.11266(2)
C18A C 0.69902(15) 0.6089(5) 0.9946(2)
C19A C 0.63608(13) 0.5790(5) 0.98946(19)
C20A C 0.59262(16) 0.4974(5) 0.9039(2)
C21A C 0.61239(14) 0.3691(5) 0.9815(2)
C22A C 0.64035(15) 0.1649(5) 1.0080(2)
C23A C 0.58809(13) 0.2359(4) 1.03034(19)
C24A C 0.57144(15) 0.2472(5) 1.1086(2)
C25A C 0.53140(13) 0.1498(4) 1.0274(2)
H21A H 0.7098(18) 0.514(7) 0.962(2)
H22A H 0.7076(18) 0.745(7) 0.973(3)
H23A H 0.6178(16) 0.671(5) 1.009(2)
H24A H 0.6099(17) 0.466(6) 0.861(2)
H25A H 0.5532(17) 0.565(9) 0.878(2)
H26A H 0.6312(15) 0.055(8) 0.967(2)
H27A H 0.6767(18) 0.152(6) 1.052(3)
H28A H 0.5580(15) 0.387(5) 1.125(2)
H29A H 0.5960(17) 0.162(6) 1.154(2)
H30A H 0.5051(16) -0.122(6) 0.961(2)
loop_
_geom_bond_atom_site_label_1
_geom_bond_atom_site_label_2
_geom_bond_site_symmetry_1
_geom_bond_site_symmetry_2
Br1 C1 1_555 1_555
Br2 C17 1_555 1_555
Br3 C18 1_555 1_555
C1 C2 1_555 1_555
C2 C3 1_555 1_555
C3 C4 1_555 1_555
C4 C2 1_555 1_555
C5 C4 1_555 1_555
C6 C4 1_555 1_555
C7 C6 1_555 1_555
C8 C6 1_555 1_555
C9 C8 1_555 1_555
C10 C8 1_555 1_555
C11 C10 1_555 1_555
C12 C10 1_555 1_555
C13 C12 1_555 1_555
C14 C12 1_555 1_555
C15 C14 1_555 1_555
C16 C14 1_555 1_555
C17 C16 1_555 1_555
C18 C19 1_555 1_555
C19 C20 1_555 1_555
C20 C21 1_555 1_555
C21 C19 1_555 1_555
C22 C21 1_555 1_555
C23 C21 1_555 1_555
C24 C23 1_555 1_555
C25 C23 1_555 1_555
C26 C25 1_555 1_555
H1 C1 1_555 1_555
H2 C1 1_555 1_555
H3 C2 1_555 1_555
H4 C3 1_555 1_555
H5 C3 1_555 1_555
H6 C5 1_555 1_555
H7 C5 1_555 1_555
H8 C7 1_555 1_555
H9 C7 1_555 1_555
H10 C9 1_555 1_555
H11 C9 1_555 1_555
H12 C11 1_555 1_555
H13 C11 1_555 1_555
H14 C13 1_555 1_555
H15 C13 1_555 1_555
H16 C15 1_555 1_555
H17 C15 1_555 1_555
H18 C16 1_555 1_555
H19 C17 1_555 1_555
H20 C17 1_555 1_555
H21 C18 1_555 1_555
H22 C18 1_555 1_555
H23 C19 1_555 1_555
H24 C20 1_555 1_555
H25 C20 1_555 1_555
H26 C22 1_555 1_555
H27 C22 1_555 1_555
H28 C24 1_555 1_555
H29 C24 1_555 1_555
H30 C26 1_555 1_555
Br3A C18A 1_555 1_555
C18A C19A 1_555 1_555
C19A C20A 1_555 1_555
C20A C21A 1_555 1_555
C21A C19A 1_555 1_555
C22A C21A 1_555 1_555
C23A C21A 1_555 1_555
C24A C23A 1_555 1_555
C25A C25 1_555 1_555
H21A C18A 1_555 1_555
H22A C18A 1_555 1_555
H23A C19A 1_555 1_555
H24A C20A 1_555 1_555
H25A C20A 1_555 1_555
H26A C22A 1_555 1_555
H27A C22A 1_555 1_555
H28A C24A 1_555 1_555
H29A C24A 1_555 1_555
H30A C26 1_555 1_555
C5 C6 1_555 1_555
C7 C8 1_555 1_555
C9 C10 1_555 1_555
C11 C12 1_555 1_555
C13 C14 1_555 1_555
C15 C16 1_555 1_555
C22 C23 1_555 1_555
C24 C25 1_555 1_555
C26 C25A 1_555 1_555
C22A C23A 1_555 1_555
C23A C25A 1_555 1_555
C24A C25A 1_555 1_555

#END
