
#######################################################################
#
#                 Cambridge Crystallographic Data Centre
#                                CCDC 
#
#######################################################################
#
# If this CIF has been generated from an entry in the Cambridge 
# Structural Database, then it will include bibliographic, chemical, 
# crystal, experimental, refinement or atomic coordinate data resulting 
# from the CCDC's data processing and validation procedures.
#
#######################################################################

data_FERSUR
_chemical_formula_moiety         'C17 H18'
_chemical_name_systematic        
'(3S,4S,5S,6S,7S,8S)-1,9-bis(methylene) hexaspiro(2.0.0.0.0.0.2^8^.1^7^.1^6^.1^5^.1^4^.1^3^)pentadecane'
_symmetry_cell_setting           monoclinic
_symmetry_space_group_name_H-M   'P 21'
_symmetry_Int_Tables_number      4
_space_group_name_Hall           'P 2yb'
loop_
_symmetry_equiv_pos_site_id
_symmetry_equiv_pos_as_xyz
1 x,y,z
2 -x,1/2+y,-z
_cell_length_a                   9.9639(2)
_cell_length_b                   10.6100(2)
_cell_length_c                   13.6195(3)
_cell_angle_alpha                90
_cell_angle_beta                 110.46(1)
_cell_angle_gamma                90
_cell_volume                     1348.98
_exptl_crystal_colour            colorless
_exptl_crystal_description       plate
_chemical_melting_point          59-61deg.C
_cell_formula_units_Z            4
loop_
_atom_site_label
_atom_site_type_symbol
_atom_site_fract_x
_atom_site_fract_y
_atom_site_fract_z
C1 C 0.44277(14) 0.13775(16) 0.51820(10)
C2 C 0.41301(14) 0.17177(14) 0.41096(10)
C3 C 0.32229(14) 0.25740(14) 0.33086(9)
C4 C 0.18791(13) 0.25630(13) 0.24247(9)
C5 C 0.14382(13) 0.23862(13) 0.12949(10)
C6 C 0.11073(13) 0.31415(13) 0.03453(10)
C7 C -0.01581(13) 0.35555(13) -0.05183(10)
C8 C -0.10269(14) 0.31907(14) -0.15688(10)
C9 C -0.17653(15) 0.34566(16) -0.08109(12)
C10 C 0.10042(15) 0.44977(14) 0.00303(11)
C11 C 0.21804(15) 0.20904(15) 0.05316(11)
C12 C 0.06888(15) 0.16600(14) 0.19015(10)
C13 C 0.21666(15) 0.36232(14) 0.32054(11)
C14 C 0.47841(15) 0.25042(17) 0.34693(11)
C15 C 0.41279(19) 0.03438(16) 0.44004(12)
C16 C 0.47243(18) 0.1699(2) 0.61645(12)
C17 C -0.11638(19) 0.28785(15) -0.25312(11)
H1 H -0.2153(18) 0.2776(18) -0.0494(13)
H2 H -0.2368(17) 0.4227(18) -0.0926(12)
H3 H 0.0786(15) 0.5130(15) 0.0489(11)
H4 H 0.1605(17) 0.4796(16) -0.0352(12)
H5 H 0.3216(17) 0.2321(15) 0.0717(11)
H6 H 0.1896(15) 0.1352(16) 0.0088(11)
H7 H 0.0854(15) 0.0734(16) 0.2025(11)
H8 H -0.0285(17) 0.1922(15) 0.1837(11)
H9 H 0.2418(17) 0.4427(17) 0.2979(11)
H10 H 0.1583(15) 0.3632(15) 0.3689(11)
H11 H 0.5446(17) 0.3265(16) 0.3829(12)
H12 H 0.5038(17) 0.2073(16) 0.2944(13)
H13 H 0.3189(19) -0.0082(17) 0.4200(12)
H14 H 0.4896(18) -0.0178(17) 0.4372(12)
H15 H 0.4784(19) 0.1073(19) 0.6710(15)
H16 H 0.483(2) 0.259(2) 0.6396(16)
H17 H -0.0319(19) 0.2817(18) -0.2755(13)
H18 H -0.2087(18) 0.2703(17) -0.3025(13)
C18 C 1.17270(14) 0.54559(13) 0.56528(10)
C19 C 1.04884(13) 0.58496(13) 0.47838(9)
C20 C 0.91538(13) 0.53639(13) 0.40190(9)
C21 C 0.85294(13) 0.50501(12) 0.29049(9)
C22 C 0.76218(13) 0.57227(12) 0.19756(9)
C23 C 0.61030(13) 0.59360(12) 0.13679(9)
C24 C 0.49980(13) 0.56487(13) 0.03504(9)
C25 C 0.42528(12) 0.62638(13) -0.06391(9)
C26 C 0.47523(15) 0.49455(14) -0.06615(10)
C27 C 0.46773(14) 0.54438(16) 0.13419(10)
C28 C 0.70522(14) 0.70471(13) 0.18165(11)
C29 C 0.89367(13) 0.50572(13) 0.19406(10)
C30 C 0.83844(15) 0.41300(15) 0.36963(11)
C31 C 0.90825(14) 0.64745(15) 0.46744(11)
C32 C 1.19637(13) 0.62732(14) 0.48395(10)
C33 C 1.22753(18) 0.49053(16) 0.65670(12)
C34 C 0.35869(14) 0.72466(15) -0.11717(11)
H19 H 0.4072(16) 0.4307(15) -0.0824(11)
H20 H 0.5562(17) 0.4834(15) -0.0887(11)
H21 H 0.4047(16) 0.6000(16) 0.1471(12)
H22 H 0.4641(16) 0.4524(15) 0.1578(11)
H23 H 0.7337(15) 0.7543(15) 0.1329(12)
H24 H 0.6969(15) 0.7419(15) 0.2447(11)
H25 H 0.8768(15) 0.4289(15) 0.1543(10)
H26 H 0.9715(16) 0.5587(15) 0.1960(11)
H27 H 0.7474(15) 0.4052(14) 0.3790(10)
H28 H 0.8982(16) 0.3332(15) 0.3828(12)
H29 H 0.8743(16) 0.6349(17) 0.5268(13)
H30 H 0.8894(17) 0.7325(16) 0.4321(12)
H31 H 1.2334(15) 0.5887(15) 0.4349(11)
H32 H 1.2210(15) 0.7147(15) 0.5018(11)
H33 H 1.3300(18) 0.4940(17) 0.6961(12)
H34 H 1.1624(19) 0.4500(17) 0.6857(12)
H35 H 0.3427(17) 0.8024(17) -0.0846(13)
H36 H 0.3233(15) 0.7231(15) -0.1925(12)
loop_
_geom_bond_atom_site_label_1
_geom_bond_atom_site_label_2
_geom_bond_site_symmetry_1
_geom_bond_site_symmetry_2
C1 C2 1_555 1_555
C2 C3 1_555 1_555
C3 C4 1_555 1_555
C4 C5 1_555 1_555
C5 C6 1_555 1_555
C6 C7 1_555 1_555
C7 C8 1_555 1_555
C8 C9 1_555 1_555
C9 C7 1_555 1_555
C10 C6 1_555 1_555
C11 C5 1_555 1_555
C12 C4 1_555 1_555
C13 C3 1_555 1_555
C14 C2 1_555 1_555
C15 C1 1_555 1_555
C16 C1 1_555 1_555
C17 C8 1_555 1_555
C18 C19 1_555 1_555
C19 C20 1_555 1_555
C20 C21 1_555 1_555
C21 C22 1_555 1_555
C22 C23 1_555 1_555
C23 C24 1_555 1_555
C24 C25 1_555 1_555
C25 C26 1_555 1_555
C26 C24 1_555 1_555
C27 C23 1_555 1_555
C28 C22 1_555 1_555
C29 C21 1_555 1_555
C30 C20 1_555 1_555
C31 C19 1_555 1_555
C32 C18 1_555 1_555
C33 C18 1_555 1_555
C34 C25 1_555 1_555
H1 C9 1_555 1_555
H2 C9 1_555 1_555
H3 C10 1_555 1_555
H4 C10 1_555 1_555
H5 C11 1_555 1_555
H6 C11 1_555 1_555
H7 C12 1_555 1_555
H8 C12 1_555 1_555
H9 C13 1_555 1_555
H10 C13 1_555 1_555
H11 C14 1_555 1_555
H12 C14 1_555 1_555
H13 C15 1_555 1_555
H14 C15 1_555 1_555
H15 C16 1_555 1_555
H16 C16 1_555 1_555
H17 C17 1_555 1_555
H18 C17 1_555 1_555
H19 C26 1_555 1_555
H20 C26 1_555 1_555
H21 C27 1_555 1_555
H22 C27 1_555 1_555
H23 C28 1_555 1_555
H24 C28 1_555 1_555
H25 C29 1_555 1_555
H26 C29 1_555 1_555
H27 C30 1_555 1_555
H28 C30 1_555 1_555
H29 C31 1_555 1_555
H30 C31 1_555 1_555
H31 C32 1_555 1_555
H32 C32 1_555 1_555
H33 C33 1_555 1_555
H34 C33 1_555 1_555
H35 C34 1_555 1_555
H36 C34 1_555 1_555
C2 C15 1_555 1_555
C3 C14 1_555 1_555
C4 C13 1_555 1_555
C5 C12 1_555 1_555
C6 C11 1_555 1_555
C7 C10 1_555 1_555
C19 C32 1_555 1_555
C20 C31 1_555 1_555
C21 C30 1_555 1_555
C22 C29 1_555 1_555
C23 C28 1_555 1_555
C24 C27 1_555 1_555

#END
