
#######################################################################
#
#                 Cambridge Crystallographic Data Centre
#                                CCDC 
#
#######################################################################
#
# If this CIF has been generated from an entry in the Cambridge 
# Structural Database, then it will include bibliographic, chemical, 
# crystal, experimental, refinement or atomic coordinate data resulting 
# from the CCDC's data processing and validation procedures.
#
#######################################################################

data_FERTAY
_chemical_formula_moiety         'C17 H22 O2'
_chemical_name_systematic        
(P)-(+)-(1S,3R,4R,5R,6R,7R,8R,9S)-hexaspiro(2.0.0.0.0.0.2^8^.1^7^.1^6^.1^5^.1^4^.1^3^)pentadecane-1,9-diyldimethanol
_symmetry_cell_setting           orthorhombic
_symmetry_space_group_name_H-M   'P 21 21 21'
_symmetry_Int_Tables_number      19
_space_group_name_Hall           'P 2ac 2ab'
loop_
_symmetry_equiv_pos_site_id
_symmetry_equiv_pos_as_xyz
1 x,y,z
2 1/2-x,-y,1/2+z
3 -x,1/2+y,1/2-z
4 1/2+x,1/2-y,-z
_cell_length_a                   7.9640(1)
_cell_length_b                   9.6434(1)
_cell_length_c                   19.8564(3)
_cell_angle_alpha                90
_cell_angle_beta                 90
_cell_angle_gamma                90
_cell_volume                     1524.97
_exptl_crystal_colour            colorless
_exptl_crystal_description       prism
_chemical_melting_point          131-132deg.C
_cell_formula_units_Z            4
_exptl_crystal_recrystallization_method 'hexane/dichloromethane/diethyl ether'
loop_
_atom_site_label
_atom_site_type_symbol
_atom_site_fract_x
_atom_site_fract_y
_atom_site_fract_z
O1 O 0.04419(8) 0.12311(7) -0.02504(3)
O2 O 1.15442(9) -0.22757(7) 0.43965(3)
C1 C 0.08927(11) -0.04615(9) 0.06405(4)
C2 C 0.26929(11) -0.07232(9) 0.07764(4)
C3 C 0.41089(11) -0.01557(9) 0.11498(4)
C4 C 0.49309(11) -0.03829(9) 0.17954(4)
C5 C 0.62779(11) -0.12043(9) 0.20875(4)
C6 C 0.79792(11) -0.11016(9) 0.23554(4)
C7 C 0.87367(11) -0.09794(8) 0.30228(4)
C8 C 0.94917(10) -0.18976(9) 0.35376(4)
C9 C 0.81637(12) -0.08237(9) 0.37314(4)
C10 C 0.93399(12) -0.00397(11) 0.24679(5)
C11 C 0.75778(12) -0.22402(10) 0.18643(5)
C12 C 0.45529(11) -0.12764(10) 0.23942(5)
C13 C 0.45224(12) 0.10756(9) 0.15788(4)
C14 C 0.43478(12) -0.05392(11) 0.04244(4)
C15 C 0.15037(13) -0.19001(9) 0.08476(5)
C16 C 0.02910(13) -0.01986(10) -0.00658(5)
C17 C 1.12785(12) -0.16877(10) 0.37447(4)
H1 H -0.0131(19) 0.1670(17) -0.0004(7)
H2 H 1.2458(19) -0.1952(15) 0.4526(7)
H3 H 0.0273(15) 0.0005(12) 0.0975(6)
H4 H 0.9079(16) -0.2844(13) 0.3521(6)
H5 H 0.8609(17) -0.0056(13) 0.3970(6)
H6 H 0.7082(19) -0.1193(13) 0.3857(7)
H7 H 1.0441(17) -0.0249(13) 0.2254(6)
H8 H 0.9045(17) 0.0931(14) 0.2498(7)
H9 H 0.8028(16) -0.2158(13) 0.1414(6)
H10 H 0.7442(19) -0.3158(15) 0.2030(7)
H11 H 0.4420(15) -0.0802(12) 0.2843(6)
H12 H 0.3884(18) -0.2128(14) 0.2313(7)
H13 H 0.3631(18) 0.1565(14) 0.1813(7)
H14 H 0.5445(17) 0.1714(15) 0.1423(7)
H15 H 0.5021(18) -0.1369(15) 0.0339(7)
H16 H 0.4442(19) 0.0163(16) 0.0136(7)
H17 H 0.1191(16) -0.2234(12) 0.1284(6)
H18 H 0.1493(18) -0.2605(14) 0.0511(7)
H19 H 0.0989(18) -0.0730(14) -0.0405(7)
H20 H -0.0875(18) -0.0511(14) -0.0113(7)
H21 H 1.2039(17) -0.2079(15) 0.3425(7)
H22 H 1.1456(15) -0.0722(13) 0.3754(6)
loop_
_geom_bond_atom_site_label_1
_geom_bond_atom_site_label_2
_geom_bond_site_symmetry_1
_geom_bond_site_symmetry_2
O1 C16 1_555 1_555
O2 C17 1_555 1_555
C1 C2 1_555 1_555
C2 C3 1_555 1_555
C3 C4 1_555 1_555
C4 C5 1_555 1_555
C5 C6 1_555 1_555
C6 C7 1_555 1_555
C7 C8 1_555 1_555
C8 C9 1_555 1_555
C9 C7 1_555 1_555
C10 C6 1_555 1_555
C11 C5 1_555 1_555
C12 C4 1_555 1_555
C13 C3 1_555 1_555
C14 C2 1_555 1_555
C15 C1 1_555 1_555
C16 C1 1_555 1_555
C17 C8 1_555 1_555
H1 O1 1_555 1_555
H2 O2 1_555 1_555
H3 C1 1_555 1_555
H4 C8 1_555 1_555
H5 C9 1_555 1_555
H6 C9 1_555 1_555
H7 C10 1_555 1_555
H8 C10 1_555 1_555
H9 C11 1_555 1_555
H10 C11 1_555 1_555
H11 C12 1_555 1_555
H12 C12 1_555 1_555
H13 C13 1_555 1_555
H14 C13 1_555 1_555
H15 C14 1_555 1_555
H16 C14 1_555 1_555
H17 C15 1_555 1_555
H18 C15 1_555 1_555
H19 C16 1_555 1_555
H20 C16 1_555 1_555
H21 C17 1_555 1_555
H22 C17 1_555 1_555
C2 C15 1_555 1_555
C3 C14 1_555 1_555
C4 C13 1_555 1_555
C5 C12 1_555 1_555
C6 C11 1_555 1_555
C7 C10 1_555 1_555

#END
