
#######################################################################
#
#                 Cambridge Crystallographic Data Centre
#                                CCDC 
#
#######################################################################
#
# If this CIF has been generated from an entry in the Cambridge 
# Structural Database, then it will include bibliographic, chemical, 
# crystal, experimental, refinement or atomic coordinate data resulting 
# from the CCDC's data processing and validation procedures.
#
#######################################################################

data_FESBOX
_chemical_name_common            '1,8-epi-psiguadial B'
_chemical_formula_moiety         'C30 H34 O5'
_chemical_name_systematic        
7,9-dihydroxy-2,2,13-trimethyl-10-phenyl-2,2a,3,4,10,10a,11,12,13,13a-decahydro-1H-4a,13-methanobenzo[b]cyclobuta[5,6]cyclonona[1,2-e]pyran-6,8-dicarbaldehyde
_symmetry_cell_setting           monoclinic
_symmetry_space_group_name_H-M   'P 21'
_symmetry_Int_Tables_number      4
_space_group_name_Hall           'P 2yb'
loop_
_symmetry_equiv_pos_site_id
_symmetry_equiv_pos_as_xyz
1 x,y,z
2 -x,1/2+y,-z
_cell_length_a                   9.2094(3)
_cell_length_b                   10.7987(3)
_cell_length_c                   15.0959(5)
_cell_angle_alpha                90
_cell_angle_beta                 106.870(4)
_cell_angle_gamma                90
_cell_volume                     1436.67
_exptl_crystal_colour            colorless
_exptl_crystal_description       prism
_cell_formula_units_Z            2
loop_
_atom_site_label
_atom_site_type_symbol
_atom_site_fract_x
_atom_site_fract_y
_atom_site_fract_z
O1 O 0.7212(2) 0.43414(18) 0.23866(13)
H1 H 0.799(6) 0.385(5) 0.243(4)
O2 O 0.8531(2) 0.2285(2) 0.22850(16)
O3 O 0.4741(2) 0.04941(17) 0.23855(13)
H2 H 0.388(4) 0.026(4) 0.246(2)
O4 O 0.2106(2) 0.05264(18) 0.26041(15)
O5 O 0.2254(2) 0.42089(15) 0.26945(12)
C1 C 0.4699(3) 0.4366(2) 0.24362(15)
C2 C 0.5987(3) 0.3702(2) 0.23995(16)
C3 C 0.6019(3) 0.2386(3) 0.23780(16)
C4 C 0.4721(3) 0.1734(2) 0.24188(16)
C5 C 0.3439(3) 0.2366(2) 0.25118(16)
C6 C 0.3474(3) 0.3685(2) 0.25440(15)
C7 C 0.7353(3) 0.1752(3) 0.23023(19)
H3 H 0.732512 0.087375 0.226339
C8 C 0.2157(3) 0.1679(2) 0.26172(18)
H4 H 0.131595 0.212361 0.270018
C9 C 0.4666(3) 0.5759(2) 0.23821(15)
H5 H 0.539024 0.608919 0.296213
C10 C 0.5145(3) 0.6252(2) 0.15578(17)
C11 C 0.4635(3) 0.5690(3) 0.06941(18)
H6 H 0.399265 0.498529 0.061374
C12 C 0.5058(4) 0.6155(3) -0.0050(2)
H7 H 0.471539 0.575725 -0.063495
C13 C 0.5972(4) 0.7189(3) 0.0051(2)
H8 H 0.624568 0.750696 -0.046576
C14 C 0.6490(4) 0.7763(3) 0.0904(2)
H9 H 0.712703 0.847094 0.097817
C15 C 0.6069(3) 0.7293(3) 0.16556(18)
H10 H 0.641760 0.768926 0.224106
C16 C 0.2278(3) 0.5549(2) 0.29221(17)
C17 C 0.0548(3) 0.5834(2) 0.26535(17)
H11 H 0.032645 0.644050 0.213991
H12 H 0.000595 0.506099 0.240152
C18 C -0.0166(3) 0.6331(2) 0.33855(18)
H13 H -0.126605 0.646522 0.309888
H14 H -0.004025 0.571325 0.388644
C19 C 0.0574(3) 0.7539(2) 0.37893(17)
H15 H 0.075154 0.803423 0.327058
C20 C 0.0017(3) 0.8447(2) 0.44218(18)
C21 C 0.1743(3) 0.8730(2) 0.49004(18)
H16 H 0.214556 0.943755 0.462684
H17 H 0.201486 0.879990 0.558292
C22 C 0.2089(3) 0.7442(2) 0.45482(16)
H18 H 0.192585 0.682526 0.500403
C23 C 0.3514(3) 0.7020(2) 0.43102(17)
C24 C 0.3969(3) 0.7872(2) 0.36042(16)
H19 H 0.379357 0.874280 0.375191
H20 H 0.507048 0.777427 0.369218
C25 C 0.3132(3) 0.7642(2) 0.25813(17)
H21 H 0.364741 0.810651 0.219411
H22 H 0.208421 0.796525 0.244623
C26 C 0.3066(3) 0.6267(2) 0.23153(16)
H23 H 0.242863 0.618937 0.165716
C27 C 0.3214(3) 0.5675(2) 0.39401(16)
H24 H 0.420352 0.526171 0.402241
H25 H 0.268150 0.522482 0.432539
C28 C -0.0950(3) 0.9509(3) 0.3912(2)
H26 H -0.042143 0.992713 0.351930
H27 H -0.113124 1.009941 0.436158
H28 H -0.192304 0.918615 0.352616
C29 C -0.0739(3) 0.7820(3) 0.5083(2)
H29 H -0.173584 0.750124 0.473058
H30 H -0.086369 0.842385 0.553998
H31 H -0.010246 0.713389 0.540117
C30 C 0.4831(3) 0.6997(3) 0.52080(18)
H32 H 0.502079 0.783833 0.545912
H33 H 0.574590 0.668152 0.507773
H34 H 0.456883 0.645799 0.566057
loop_
_geom_bond_atom_site_label_1
_geom_bond_atom_site_label_2
_geom_bond_site_symmetry_1
_geom_bond_site_symmetry_2
O1 H1 1_555 1_555
O2 C7 1_555 1_555
O3 H2 1_555 1_555
O4 C8 1_555 1_555
O5 C6 1_555 1_555
C1 C2 1_555 1_555
C2 O1 1_555 1_555
C3 C2 1_555 1_555
C4 O3 1_555 1_555
C5 C4 1_555 1_555
C6 C1 1_555 1_555
C7 C3 1_555 1_555
H3 C7 1_555 1_555
C8 C5 1_555 1_555
H4 C8 1_555 1_555
C9 C1 1_555 1_555
H5 C9 1_555 1_555
C10 C9 1_555 1_555
C11 C10 1_555 1_555
H6 C11 1_555 1_555
C12 C11 1_555 1_555
H7 C12 1_555 1_555
C13 C12 1_555 1_555
H8 C13 1_555 1_555
C14 C13 1_555 1_555
H9 C14 1_555 1_555
C15 C10 1_555 1_555
H10 C15 1_555 1_555
C16 O5 1_555 1_555
C17 C16 1_555 1_555
H11 C17 1_555 1_555
H12 C17 1_555 1_555
C18 C17 1_555 1_555
H13 C18 1_555 1_555
H14 C18 1_555 1_555
C19 C18 1_555 1_555
H15 C19 1_555 1_555
C20 C19 1_555 1_555
C21 C20 1_555 1_555
H16 C21 1_555 1_555
H17 C21 1_555 1_555
C22 C19 1_555 1_555
H18 C22 1_555 1_555
C23 C22 1_555 1_555
C24 C23 1_555 1_555
H19 C24 1_555 1_555
H20 C24 1_555 1_555
C25 C24 1_555 1_555
H21 C25 1_555 1_555
H22 C25 1_555 1_555
C26 C9 1_555 1_555
H23 C26 1_555 1_555
C27 C16 1_555 1_555
H24 C27 1_555 1_555
H25 C27 1_555 1_555
C28 C20 1_555 1_555
H26 C28 1_555 1_555
H27 C28 1_555 1_555
H28 C28 1_555 1_555
C29 C20 1_555 1_555
H29 C29 1_555 1_555
H30 C29 1_555 1_555
H31 C29 1_555 1_555
C30 C23 1_555 1_555
H32 C30 1_555 1_555
H33 C30 1_555 1_555
H34 C30 1_555 1_555
C3 C4 1_555 1_555
C5 C6 1_555 1_555
C14 C15 1_555 1_555
C16 C26 1_555 1_555
C21 C22 1_555 1_555
C23 C27 1_555 1_555
C25 C26 1_555 1_555

#END
