
#######################################################################
#
#                 Cambridge Crystallographic Data Centre
#                                CCDC 
#
#######################################################################
#
# If this CIF has been generated from an entry in the Cambridge 
# Structural Database, then it will include bibliographic, chemical, 
# crystal, experimental, refinement or atomic coordinate data resulting 
# from the CCDC's data processing and validation procedures.
#
#######################################################################

data_FESJAR
_chemical_formula_moiety         'C30 H30 O4 S1'
_chemical_name_systematic        
5,9-dimethoxy-1-methyl-3-[(4-methylphenyl)sulfonyl]-4-phenyl-1,2,3,4-tetrahydrophenanthrene
_symmetry_cell_setting           triclinic
_symmetry_space_group_name_H-M   'P -1'
_symmetry_Int_Tables_number      2
_space_group_name_Hall           '-P 1'
loop_
_symmetry_equiv_pos_site_id
_symmetry_equiv_pos_as_xyz
1 x,y,z
2 -x,-y,-z
_cell_length_a                   8.1348(5)
_cell_length_b                   13.0188(7)
_cell_length_c                   15.4944(9)
_cell_angle_alpha                110.348(3)
_cell_angle_beta                 95.560(3)
_cell_angle_gamma                107.969(3)
_cell_volume                     1424.64
_exptl_crystal_colour            colorless
_cell_formula_units_Z            2
loop_
_atom_site_label
_atom_site_type_symbol
_atom_site_fract_x
_atom_site_fract_y
_atom_site_fract_z
S1 S 0.23109(6) 0.39435(4) 0.86921(3)
O1 O 0.0403(2) 0.04110(14) 0.39478(11)
O2 O 0.07779(19) 0.29920(13) 0.80128(11)
O3 O 0.30943(19) 0.37652(13) 0.94838(11)
O4 O 0.0651(2) 0.51438(14) 0.65438(11)
C1 C 0.0324(3) 0.8229(2) 1.03280(19)
H1 H -0.0812 0.8104 0.9950
H2 H 0.1244 0.8930 1.0338
H3 H 0.0214 0.8340 1.0976
C2 C 0.0827(3) 0.7172(2) 0.98989(16)
C3 C 0.2459(3) 0.7170(2) 1.02783(16)
H4 H 0.3259 0.7847 1.0800
C4 C 0.2922(3) 0.61915(19) 0.99019(15)
H5 H 0.4035 0.6198 1.0159
C5 C 0.1732(3) 0.51998(18) 0.91411(14)
C6 C 0.4047(3) 0.43455(18) 0.81018(14)
H6 H 0.5017 0.5074 0.8573
C7 C 0.4808(3) 0.3361(2) 0.78019(15)
H7 H 0.5920 0.3594 0.8266
H8 H 0.3950 0.2633 0.7805
C8 C 0.5191(3) 0.31100(19) 0.68166(15)
H9 H 0.6074 0.3850 0.6830
C9 C 0.3468(3) 0.28073(18) 0.61373(15)
C10 C 0.2787(3) 0.17436(18) 0.53217(15)
H10 H 0.3445 0.1242 0.5175
C11 C 0.1177(3) 0.14341(18) 0.47417(15)
C12 C 0.1342(3) -0.0380(2) 0.37322(18)
H11 H 0.2487 0.0006 0.3615
H12 H 0.0640 -0.1089 0.3167
H13 H 0.1542 -0.0600 0.4267
C13 C 0.3344(3) 0.46559(18) 0.72910(14)
H14 H 0.2342 0.4913 0.7469
C14 C 0.2557(3) 0.35731(18) 0.63625(14)
C15 C 0.6023(3) 0.2168(2) 0.65826(16)
H15 H 0.5185 0.1438 0.6577
H16 H 0.7115 0.2443 0.7062
H17 H 0.6301 0.2021 0.5960
C16 C 0.0185(3) 0.21901(19) 0.49262(15)
C17 C -0.1493(3) 0.1835(2) 0.43179(16)
H18 H -0.1968 0.1087 0.3803
C18 C -0.2419(3) 0.2571(2) 0.44749(17)
H19 H -0.3550 0.2325 0.4075
C19 C -0.1715(3) 0.3690(2) 0.52226(16)
H20 H -0.2357 0.4203 0.5311
C20 C -0.0097(3) 0.40502(19) 0.58300(15)
C21 C -0.0320(3) 0.5913(2) 0.66882(17)
H21 H -0.0499 0.6086 0.6127
H22 H 0.0348 0.6648 0.7239
H23 H -0.1476 0.5532 0.6798
C22 C 0.0908(3) 0.32919(18) 0.57292(15)
C23 C 0.4744(3) 0.57084(18) 0.72193(15)
C24 C 0.5682(3) 0.6735(2) 0.80282(16)
H24 H 0.5486 0.6765 0.8629
C25 C 0.6892(3) 0.7710(2) 0.79658(18)
H25 H 0.7530 0.8393 0.8525
C26 C 0.7182(3) 0.7698(2) 0.70921(18)
H26 H 0.8021 0.8363 0.7050
C27 C 0.6228(3) 0.6699(2) 0.62851(17)
H27 H 0.6393 0.6684 0.5683
C28 C 0.5026(3) 0.57142(19) 0.63501(16)
H28 H 0.4388 0.5034 0.5789
C29 C 0.0108(3) 0.5183(2) 0.87491(16)
H29 H -0.0693 0.4505 0.8228
C30 C -0.0325(3) 0.6172(2) 0.91297(16)
H30 H -0.1429 0.6169 0.8861
loop_
_geom_bond_atom_site_label_1
_geom_bond_atom_site_label_2
_geom_bond_site_symmetry_1
_geom_bond_site_symmetry_2
S1 O2 1_555 1_555
O1 C11 1_555 1_555
O3 S1 1_555 1_555
O4 C20 1_555 1_555
C1 H1 1_555 1_555
H2 C1 1_555 1_555
H3 C1 1_555 1_555
C2 C1 1_555 1_555
C3 C2 1_555 1_555
H4 C3 1_555 1_555
C4 C3 1_555 1_555
H5 C4 1_555 1_555
C5 S1 1_555 1_555
C6 S1 1_555 1_555
H6 C6 1_555 1_555
C7 C6 1_555 1_555
H7 C7 1_555 1_555
H8 C7 1_555 1_555
C8 C7 1_555 1_555
H9 C8 1_555 1_555
C9 C8 1_555 1_555
C10 C9 1_555 1_555
H10 C10 1_555 1_555
C11 C10 1_555 1_555
C12 O1 1_555 1_555
H11 C12 1_555 1_555
H12 C12 1_555 1_555
H13 C12 1_555 1_555
C13 C6 1_555 1_555
H14 C13 1_555 1_555
C14 C9 1_555 1_555
C15 C8 1_555 1_555
H15 C15 1_555 1_555
H16 C15 1_555 1_555
H17 C15 1_555 1_555
C16 C11 1_555 1_555
C17 C16 1_555 1_555
H18 C17 1_555 1_555
C18 C17 1_555 1_555
H19 C18 1_555 1_555
C19 C18 1_555 1_555
H20 C19 1_555 1_555
C20 C19 1_555 1_555
C21 O4 1_555 1_555
H21 C21 1_555 1_555
H22 C21 1_555 1_555
H23 C21 1_555 1_555
C22 C14 1_555 1_555
C23 C13 1_555 1_555
C24 C23 1_555 1_555
H24 C24 1_555 1_555
C25 C24 1_555 1_555
H25 C25 1_555 1_555
C26 C25 1_555 1_555
H26 C26 1_555 1_555
C27 C26 1_555 1_555
H27 C27 1_555 1_555
C28 C23 1_555 1_555
H28 C28 1_555 1_555
C29 C5 1_555 1_555
H29 C29 1_555 1_555
C30 C2 1_555 1_555
H30 C30 1_555 1_555
C4 C5 1_555 1_555
C13 C14 1_555 1_555
C16 C22 1_555 1_555
C20 C22 1_555 1_555
C27 C28 1_555 1_555
C29 C30 1_555 1_555

#END
