
#######################################################################
#
#                 Cambridge Crystallographic Data Centre
#                                CCDC 
#
#######################################################################
#
# If this CIF has been generated from an entry in the Cambridge 
# Structural Database, then it will include bibliographic, chemical, 
# crystal, experimental, refinement or atomic coordinate data resulting 
# from the CCDC's data processing and validation procedures.
#
#######################################################################

data_FESKEW
_chemical_formula_moiety         'C29 H28 O3 S1'
_chemical_name_systematic        
4',4'-dimethyl-2'-[(4-methylphenyl)sulfonyl]-1',2',3',4'-tetrahydro[1,1'-binaphthalen]-4-ol
_symmetry_cell_setting           monoclinic
_symmetry_space_group_name_H-M   'P 21/c'
_symmetry_Int_Tables_number      14
_space_group_name_Hall           '-P 2ybc'
loop_
_symmetry_equiv_pos_site_id
_symmetry_equiv_pos_as_xyz
1 x,y,z
2 -x,1/2+y,1/2-z
3 -x,-y,-z
4 x,1/2-y,1/2+z
_cell_length_a                   12.4191(8)
_cell_length_b                   13.6805(10)
_cell_length_c                   15.3386(11)
_cell_angle_alpha                90
_cell_angle_beta                 103.400(2)
_cell_angle_gamma                90
_cell_volume                     2535.07
_exptl_crystal_colour            colorless
_cell_formula_units_Z            4
loop_
_atom_site_label
_atom_site_type_symbol
_atom_site_fract_x
_atom_site_fract_y
_atom_site_fract_z
S1 S 0.79939(3) 0.55815(3) 0.86808(2)
O1 O 0.69621(9) 0.58875(8) 0.88834(7)
O2 O 0.90130(9) 0.59500(8) 0.92350(7)
O3 O 0.51022(9) 0.49212(8) 1.16562(7)
C1 C 0.78455(18) 0.69914(15) 0.49156(13)
H1 H 0.8601 0.7077 0.4837
H2 H 0.7461 0.7622 0.4839
H3 H 0.7447 0.6528 0.4468
C2 C 0.78872(15) 0.66025(12) 0.58415(11)
C3 C 0.88756(15) 0.62997(12) 0.64038(12)
H4 H 0.9538 0.6322 0.6194
C4 C 0.89158(14) 0.59663(12) 0.72636(11)
H5 H 0.9598 0.5765 0.7642
C5 C 0.79412(13) 0.59301(11) 0.75648(10)
C6 C 0.80761(13) 0.42705(11) 0.87089(10)
H6 H 0.8720 0.4084 0.8455
C7 C 0.83178(12) 0.38742(11) 0.96819(10)
H7 H 0.9057 0.4132 1.0003
C8 C 0.74800(12) 0.41633(11) 1.02306(10)
C9 C 0.77168(12) 0.48963(11) 1.09157(10)
C10 C 0.68955(12) 0.51365(11) 1.14000(9)
C11 C 0.71227(13) 0.58435(12) 1.20968(10)
H8 H 0.6571 0.5998 1.2412
C12 C 0.81276(14) 0.63054(12) 1.23202(11)
H9 H 0.8276 0.6771 1.2792
C13 C 0.70578(13) 0.38039(12) 0.81177(11)
H10 H 0.6903 0.4115 0.7519
H11 H 0.6413 0.3921 0.8381
C14 C 0.72102(14) 0.26926(12) 0.80152(11)
C15 C 0.78892(13) 0.22245(12) 0.88743(11)
C16 C 0.84139(12) 0.27671(11) 0.96312(10)
C17 C 0.87380(13) 0.54074(12) 1.11654(10)
H12 H 0.9300 0.5277 1.0853
C18 C 0.89368(13) 0.60842(12) 1.18453(11)
H13 H 0.9632 0.6407 1.1997
C19 C 0.58571(12) 0.46489(12) 1.11805(10)
C20 C 0.56560(12) 0.39335(12) 1.05417(10)
H14 H 0.4965 0.3603 1.0408
C21 C 0.64753(12) 0.36897(11) 1.00837(10)
H15 H 0.6331 0.3177 0.9655
C22 C 0.90394(13) 0.22847(12) 1.03864(11)
H16 H 0.9398 0.2658 1.0893
C23 C 0.91477(15) 0.12779(13) 1.04125(13)
H17 H 0.9567 0.0962 1.0933
C24 C 0.86333(16) 0.07365(13) 0.96648(14)
H18 H 0.8703 0.0045 0.9671
C25 C 0.80200(15) 0.12027(13) 0.89115(13)
H19 H 0.7678 0.0822 0.8405
C26 C 0.78001(15) 0.25059(14) 0.72521(12)
H20 H 0.8520 0.2835 0.7388
H21 H 0.7346 0.2762 0.6689
H22 H 0.7909 0.1802 0.7193
C27 C 0.60403(14) 0.22447(14) 0.77569(12)
H23 H 0.6097 0.1540 0.7664
H24 H 0.5621 0.2549 0.7203
H25 H 0.5659 0.2361 0.8240
C28 C 0.69408(13) 0.62222(12) 0.70135(11)
H26 H 0.6278 0.6193 0.7221
C29 C 0.69221(15) 0.65570(13) 0.61565(12)
H27 H 0.6240 0.6759 0.5778
loop_
_geom_bond_atom_site_label_1
_geom_bond_atom_site_label_2
_geom_bond_site_symmetry_1
_geom_bond_site_symmetry_2
S1 O1 1_555 1_555
O2 S1 1_555 1_555
O3 C19 1_555 1_555
C1 H1 1_555 1_555
H2 C1 1_555 1_555
H3 C1 1_555 1_555
C2 C1 1_555 1_555
C3 C2 1_555 1_555
H4 C3 1_555 1_555
C4 C3 1_555 1_555
H5 C4 1_555 1_555
C5 S1 1_555 1_555
C6 S1 1_555 1_555
H6 C6 1_555 1_555
C7 C6 1_555 1_555
H7 C7 1_555 1_555
C8 C7 1_555 1_555
C9 C8 1_555 1_555
C10 C9 1_555 1_555
C11 C10 1_555 1_555
H8 C11 1_555 1_555
C12 C11 1_555 1_555
H9 C12 1_555 1_555
C13 C6 1_555 1_555
H10 C13 1_555 1_555
H11 C13 1_555 1_555
C14 C13 1_555 1_555
C15 C14 1_555 1_555
C16 C7 1_555 1_555
C17 C9 1_555 1_555
H12 C17 1_555 1_555
C18 C12 1_555 1_555
H13 C18 1_555 1_555
C19 C10 1_555 1_555
C20 C19 1_555 1_555
H14 C20 1_555 1_555
C21 C8 1_555 1_555
H15 C21 1_555 1_555
C22 C16 1_555 1_555
H16 C22 1_555 1_555
C23 C22 1_555 1_555
H17 C23 1_555 1_555
C24 C23 1_555 1_555
H18 C24 1_555 1_555
C25 C15 1_555 1_555
H19 C25 1_555 1_555
C26 C14 1_555 1_555
H20 C26 1_555 1_555
H21 C26 1_555 1_555
H22 C26 1_555 1_555
C27 C14 1_555 1_555
H23 C27 1_555 1_555
H24 C27 1_555 1_555
H25 C27 1_555 1_555
C28 C5 1_555 1_555
H26 C28 1_555 1_555
C29 C2 1_555 1_555
H27 C29 1_555 1_555
C4 C5 1_555 1_555
C15 C16 1_555 1_555
C17 C18 1_555 1_555
C20 C21 1_555 1_555
C24 C25 1_555 1_555
C28 C29 1_555 1_555

#END
