
#######################################################################
#
#                 Cambridge Crystallographic Data Centre
#                                CCDC 
#
#######################################################################
#
# If this CIF has been generated from an entry in the Cambridge 
# Structural Database, then it will include bibliographic, chemical, 
# crystal, experimental, refinement or atomic coordinate data resulting 
# from the CCDC's data processing and validation procedures.
#
#######################################################################

data_FESLAT
_chemical_formula_moiety         'C27 H22 Cl1 O2 P1'
_chemical_name_systematic        
3-(4-chlorophenyl)-3-(diphenylphosphoryl)-1-phenylpropan-1-one
_symmetry_cell_setting           triclinic
_symmetry_space_group_name_H-M   'P -1'
_symmetry_Int_Tables_number      2
_space_group_name_Hall           '-P 1'
loop_
_symmetry_equiv_pos_site_id
_symmetry_equiv_pos_as_xyz
1 x,y,z
2 -x,-y,-z
_cell_length_a                   5.710(2)
_cell_length_b                   9.405(3)
_cell_length_c                   20.359(7)
_cell_angle_alpha                88.572(6)
_cell_angle_beta                 88.944(6)
_cell_angle_gamma                76.822(6)
_cell_volume                     1064.12
_exptl_crystal_colour            colorless
_exptl_crystal_description       block
_cell_formula_units_Z            2
loop_
_atom_site_label
_atom_site_type_symbol
_atom_site_fract_x
_atom_site_fract_y
_atom_site_fract_z
P1 P 0.24034(11) 0.47703(7) 0.81305(3)
Cl1 Cl 0.01675(14) 1.16029(8) 0.68488(4)
O1 O -0.0170(3) 0.49072(19) 0.80183(9)
O2 O 0.7400(3) 0.5146(2) 0.64613(9)
C1 C 0.2879(4) 0.5870(3) 0.87952(12)
C2 C 0.3863(4) 0.2951(3) 0.83671(12)
C3 C 0.5944(4) 0.4451(3) 0.63584(12)
C4 C 0.3072(4) 0.6875(3) 0.72877(11)
C5 C 0.4038(5) 0.4329(3) 0.68606(12)
H1 H 0.4282 0.3322 0.7014
H2 H 0.2472 0.4600 0.6657
C6 C 0.6026(5) 0.3645(3) 0.57431(12)
C7 C 0.4073(4) 0.5294(3) 0.74398(12)
H3 H 0.5748 0.5176 0.7572
C8 C 0.6232(5) 0.2310(3) 0.82348(13)
H4 H 0.7204 0.2839 0.8014
C9 C 0.5080(5) 0.5746(3) 0.90784(13)
H5 H 0.6436 0.5125 0.8901
C10 C 0.0841(5) 0.7350(3) 0.70154(12)
H6 H -0.0068 0.6677 0.6923
C11 C 0.1283(5) 0.9776(3) 0.70151(13)
C12 C 0.3490(5) 0.9340(3) 0.72907(13)
H7 H 0.4385 1.0020 0.7385
C13 C 0.4371(5) 0.7891(3) 0.74267(12)
H8 H 0.5876 0.7585 0.7617
C14 C -0.0058(5) 0.8796(3) 0.68788(13)
H9 H -0.1571 0.9110 0.6694
C15 C 0.2461(5) 0.2162(3) 0.87139(13)
H10 H 0.0864 0.2593 0.8812
C16 C 0.0909(5) 0.6812(3) 0.90511(14)
H11 H -0.0583 0.6916 0.8856
C17 C 0.7161(5) 0.0891(3) 0.84286(14)
H12 H 0.8754 0.0449 0.8330
C18 C 0.5742(5) 0.0128(3) 0.87668(14)
H13 H 0.6377 -0.0834 0.8899
C19 C 0.4439(5) 0.2797(3) 0.56170(14)
H14 H 0.3250 0.2715 0.5925
C20 C 0.7777(5) 0.3743(3) 0.52880(14)
H15 H 0.8871 0.4310 0.5372
C21 C 0.3408(5) 0.0761(3) 0.89112(14)
H16 H 0.2460 0.0236 0.9145
C22 C 0.3306(6) 0.7446(3) 0.98765(14)
H17 H 0.3449 0.7969 1.0250
C23 C 0.1124(6) 0.7600(3) 0.95912(15)
H18 H -0.0218 0.8241 0.9764
C24 C 0.5274(5) 0.6530(3) 0.96176(14)
H19 H 0.6766 0.6440 0.9811
C25 C 0.7931(6) 0.3019(4) 0.47128(15)
H20 H 0.9119 0.3098 0.4404
C26 C 0.6356(6) 0.2183(4) 0.45900(16)
H21 H 0.6467 0.1684 0.4198
C27 C 0.4601(6) 0.2071(4) 0.50420(16)
H22 H 0.3516 0.1498 0.4956
loop_
_geom_bond_atom_site_label_1
_geom_bond_atom_site_label_2
_geom_bond_site_symmetry_1
_geom_bond_site_symmetry_2
P1 O1 1_555 1_555
Cl1 C11 1_555 1_555
O2 C3 1_555 1_555
C1 P1 1_555 1_555
C2 P1 1_555 1_555
C3 C5 1_555 1_555
C4 C7 1_555 1_555
C5 H1 1_555 1_555
H2 C5 1_555 1_555
C6 C3 1_555 1_555
C7 P1 1_555 1_555
H3 C7 1_555 1_555
C8 C2 1_555 1_555
H4 C8 1_555 1_555
C9 C1 1_555 1_555
H5 C9 1_555 1_555
C10 C4 1_555 1_555
H6 C10 1_555 1_555
C11 C12 1_555 1_555
C12 H7 1_555 1_555
C13 C4 1_555 1_555
H8 C13 1_555 1_555
C14 C10 1_555 1_555
H9 C14 1_555 1_555
C15 C2 1_555 1_555
H10 C15 1_555 1_555
C16 C1 1_555 1_555
H11 C16 1_555 1_555
C17 C8 1_555 1_555
H12 C17 1_555 1_555
C18 C17 1_555 1_555
H13 C18 1_555 1_555
C19 C6 1_555 1_555
H14 C19 1_555 1_555
C20 C6 1_555 1_555
H15 C20 1_555 1_555
C21 C15 1_555 1_555
H16 C21 1_555 1_555
C22 H17 1_555 1_555
C23 C16 1_555 1_555
H18 C23 1_555 1_555
C24 C9 1_555 1_555
H19 C24 1_555 1_555
C25 C20 1_555 1_555
H20 C25 1_555 1_555
C26 C25 1_555 1_555
H21 C26 1_555 1_555
C27 C19 1_555 1_555
H22 C27 1_555 1_555
C5 C7 1_555 1_555
C11 C14 1_555 1_555
C12 C13 1_555 1_555
C18 C21 1_555 1_555
C22 C23 1_555 1_555
C22 C24 1_555 1_555
C26 C27 1_555 1_555

#END
