
#######################################################################
#
#                 Cambridge Crystallographic Data Centre
#                                CCDC 
#
#######################################################################
#
# If this CIF has been generated from an entry in the Cambridge 
# Structural Database, then it will include bibliographic, chemical, 
# crystal, experimental, refinement or atomic coordinate data resulting 
# from the CCDC's data processing and validation procedures.
#
#######################################################################

data_FESNIC
_chemical_formula_moiety         'C25 H22 N1 P1 Se1,C4 H8 O1'
_chemical_name_systematic        
'N-(Diphenylmethyl)-P,P-diphenylphosphinoselenoic amide tetrahydrofuran solvate'
_symmetry_cell_setting           monoclinic
_symmetry_space_group_name_H-M   'P 21/c'
_symmetry_Int_Tables_number      14
_space_group_name_Hall           '-P 2ybc'
loop_
_symmetry_equiv_pos_site_id
_symmetry_equiv_pos_as_xyz
1 x,y,z
2 -x,1/2+y,1/2-z
3 -x,-y,-z
4 x,1/2-y,1/2+z
_cell_length_a                   9.4326(8)
_cell_length_b                   14.8835(14)
_cell_length_c                   20.239(2)
_cell_angle_alpha                90
_cell_angle_beta                 116.921(7)
_cell_angle_gamma                90
_cell_volume                     2533.44
_exptl_crystal_colour            colorless
_exptl_crystal_description       plates
_cell_formula_units_Z            4
loop_
_atom_site_label
_atom_site_type_symbol
_atom_site_fract_x
_atom_site_fract_y
_atom_site_fract_z
Se1 Se 0.30399(6) -0.30894(4) 0.13122(3)
P1 P 0.33291(12) -0.23180(8) 0.05077(6)
N1 N 0.2172(4) -0.2632(3) -0.0348(2)
H1 H 0.1993 -0.2252 -0.0697
C1 C 0.1427(5) -0.3515(3) -0.0553(2)
H2 H 0.1722 -0.3864 -0.0099
C2 C -0.0403(5) -0.3446(3) -0.0964(2)
C3 C -0.1302(5) -0.4198(3) -0.0964(2)
H3 H -0.0790 -0.4712 -0.0705
C4 C -0.2949(5) -0.4178(4) -0.1346(3)
H4 H -0.3538 -0.4675 -0.1339
C5 C -0.3709(6) -0.3418(4) -0.1734(3)
H5 H -0.4812 -0.3407 -0.1995
C6 C -0.2840(5) -0.2674(4) -0.1738(3)
H6 H -0.3358 -0.2163 -0.2001
C7 C -0.1189(5) -0.2687(3) -0.1348(3)
H7 H -0.0610 -0.2180 -0.1346
C8 C 0.2000(5) -0.4027(3) -0.1049(2)
C9 C 0.2763(6) -0.4840(3) -0.0831(3)
H8 H 0.2942 -0.5086 -0.0378
C10 C 0.3269(6) -0.5300(4) -0.1288(3)
H9 H 0.3789 -0.5848 -0.1135
C11 C 0.3007(6) -0.4952(4) -0.1955(3)
H10 H 0.3341 -0.5264 -0.2258
C12 C 0.2243(5) -0.4134(4) -0.2182(3)
H11 H 0.2061 -0.3895 -0.2638
C13 C 0.1750(5) -0.3671(3) -0.1729(3)
H12 H 0.1247 -0.3118 -0.1880
C14 C 0.2915(5) -0.1137(3) 0.0521(2)
C15 C 0.2128(6) -0.0823(3) 0.0914(3)
H13 H 0.1864 -0.1221 0.1195
C16 C 0.1734(6) 0.0078(4) 0.0890(3)
H14 H 0.1215 0.0279 0.1159
C17 C 0.2105(6) 0.0686(3) 0.0470(3)
H15 H 0.1842 0.1290 0.0457
C18 C 0.2875(5) 0.0376(3) 0.0072(3)
H16 H 0.3118 0.0774 -0.0216
C19 C 0.3285(5) -0.0517(3) 0.0098(3)
H17 H 0.3812 -0.0712 -0.0168
C20 C 0.5369(5) -0.2350(3) 0.0651(2)
C21 C 0.6573(5) -0.2037(3) 0.1329(3)
H18 H 0.6315 -0.1781 0.1679
C22 C 0.8147(5) -0.2115(4) 0.1469(3)
H19 H 0.8947 -0.1904 0.1915
C23 C 0.8540(6) -0.2500(4) 0.0955(3)
H20 H 0.9603 -0.2554 0.1058
C24 C 0.7364(5) -0.2808(3) 0.0287(3)
H21 H 0.7632 -0.3067 -0.0060
C25 C 0.5775(5) -0.2727(3) 0.0135(3)
H22 H 0.4981 -0.2927 -0.0316
O1 O 0.2134(4) -0.1464(2) -0.15415(19)
C26 C 0.1025(7) -0.0779(4) -0.1962(3)
H23 H 0.0945 -0.0328 -0.1635
H24 H -0.0020 -0.1037 -0.2255
C27 C 0.1653(6) -0.0364(4) -0.2462(3)
H25 H 0.1432 0.0275 -0.2526
H26 H 0.1197 -0.0652 -0.2945
C28 C 0.3433(6) -0.0544(4) -0.2039(3)
H27 H 0.3927 -0.0558 -0.2368
H28 H 0.3962 -0.0097 -0.1656
C29 C 0.3456(6) -0.1457(4) -0.1711(3)
H29 H 0.3342 -0.1927 -0.2064
H30 H 0.4446 -0.1549 -0.1266
loop_
_geom_bond_atom_site_label_1
_geom_bond_atom_site_label_2
_geom_bond_site_symmetry_1
_geom_bond_site_symmetry_2
Se1 P1 1_555 1_555
P1 N1 1_555 1_555
N1 H1 1_555 1_555
C1 N1 1_555 1_555
H2 C1 1_555 1_555
C2 C1 1_555 1_555
C3 C2 1_555 1_555
H3 C3 1_555 1_555
C4 C3 1_555 1_555
H4 C4 1_555 1_555
C5 C4 1_555 1_555
H5 C5 1_555 1_555
C6 C5 1_555 1_555
H6 C6 1_555 1_555
C7 C2 1_555 1_555
H7 C7 1_555 1_555
C8 C1 1_555 1_555
C9 C8 1_555 1_555
H8 C9 1_555 1_555
C10 C9 1_555 1_555
H9 C10 1_555 1_555
C11 C10 1_555 1_555
H10 C11 1_555 1_555
C12 C11 1_555 1_555
H11 C12 1_555 1_555
C13 C8 1_555 1_555
H12 C13 1_555 1_555
C14 P1 1_555 1_555
C15 C14 1_555 1_555
H13 C15 1_555 1_555
C16 C15 1_555 1_555
H14 C16 1_555 1_555
C17 C16 1_555 1_555
H15 C17 1_555 1_555
C18 C17 1_555 1_555
H16 C18 1_555 1_555
C19 C14 1_555 1_555
H17 C19 1_555 1_555
C20 P1 1_555 1_555
C21 C20 1_555 1_555
H18 C21 1_555 1_555
C22 C21 1_555 1_555
H19 C22 1_555 1_555
C23 C22 1_555 1_555
H20 C23 1_555 1_555
C24 C23 1_555 1_555
H21 C24 1_555 1_555
C25 C20 1_555 1_555
H22 C25 1_555 1_555
O1 C26 1_555 1_555
C26 H23 1_555 1_555
H24 C26 1_555 1_555
C27 C26 1_555 1_555
H25 C27 1_555 1_555
H26 C27 1_555 1_555
C28 C27 1_555 1_555
H27 C28 1_555 1_555
H28 C28 1_555 1_555
C29 O1 1_555 1_555
H29 C29 1_555 1_555
H30 C29 1_555 1_555
C6 C7 1_555 1_555
C12 C13 1_555 1_555
C18 C19 1_555 1_555
C24 C25 1_555 1_555
C28 C29 1_555 1_555

#END
