
#######################################################################
#
#                 Cambridge Crystallographic Data Centre
#                                CCDC 
#
#######################################################################
#
# If this CIF has been generated from an entry in the Cambridge 
# Structural Database, then it will include bibliographic, chemical, 
# crystal, experimental, refinement or atomic coordinate data resulting 
# from the CCDC's data processing and validation procedures.
#
#######################################################################

data_FESPOL
_chemical_formula_moiety         'C22 H24 F1 N1 O3 S1'
_chemical_name_systematic        
4-(4-fluorophenyl)-2-((4-methylphenyl)sulfonyl)-2-azaspiro[4.5]decan-3-one
_symmetry_cell_setting           orthorhombic
_symmetry_space_group_name_H-M   'P n a 21'
_symmetry_Int_Tables_number      33
_space_group_name_Hall           'P 2c -2n'
loop_
_symmetry_equiv_pos_site_id
_symmetry_equiv_pos_as_xyz
1 x,y,z
2 -x,-y,1/2+z
3 1/2+x,1/2-y,z
4 1/2-x,1/2+y,1/2+z
_cell_length_a                   11.726(6)
_cell_length_b                   25.881(12)
_cell_length_c                   6.436(3)
_cell_angle_alpha                90
_cell_angle_beta                 90
_cell_angle_gamma                90
_cell_volume                     1953.2
_exptl_crystal_colour            colorless
_exptl_crystal_description       prism
_cell_formula_units_Z            4
loop_
_atom_site_label
_atom_site_type_symbol
_atom_site_fract_x
_atom_site_fract_y
_atom_site_fract_z
C1 C 0.7045(3) 0.42828(15) -0.0348(7)
C2 C 0.6587(4) 0.46412(15) 0.1016(7)
H1 H 0.5840 0.4774 0.0802
C3 C 0.7228(4) 0.48022(16) 0.2681(9)
H2 H 0.6910 0.5041 0.3642
C4 C 0.8321(4) 0.46245(17) 0.2983(7)
C5 C 0.9019(4) 0.4806(2) 0.4805(10)
H3 H 0.9766 0.4636 0.4780
H4 H 0.8623 0.4718 0.6099
H5 H 0.9122 0.5181 0.4722
C6 C 0.8761(4) 0.42718(17) 0.1596(7)
H6 H 0.9516 0.4147 0.1789
C7 C 0.8132(4) 0.40954(15) -0.0064(8)
H7 H 0.8443 0.3849 -0.0997
C8 C 0.5722(3) 0.31909(15) -0.0325(7)
C9 C 0.4679(3) 0.29380(15) 0.0603(6)
H8 H 0.4333 0.2720 -0.0514
C10 C 0.4871(3) 0.25918(14) 0.2432(7)
C11 C 0.5733(3) 0.26793(16) 0.3883(6)
H9 H 0.6248 0.2958 0.3683
C12 C 0.5847(4) 0.23662(17) 0.5605(7)
H10 H 0.6444 0.2419 0.6579
C13 C 0.5075(4) 0.19788(18) 0.5861(8)
C14 C 0.4209(4) 0.18787(16) 0.4516(8)
H11 H 0.3683 0.1607 0.4766
C15 C 0.4123(3) 0.21871(15) 0.2779(8)
H12 H 0.3537 0.2120 0.1795
C16 C 0.3862(3) 0.34047(14) 0.0939(7)
C17 C 0.2620(3) 0.32424(15) 0.1018(7)
H13 H 0.2413 0.3079 -0.0320
H14 H 0.2522 0.2981 0.2126
C18 C 0.1822(4) 0.36874(17) 0.1424(8)
H15 H 0.1031 0.3556 0.1534
H16 H 0.1853 0.3931 0.0241
C19 C 0.2135(4) 0.39709(17) 0.3417(7)
H17 H 0.1631 0.4275 0.3587
H18 H 0.2013 0.3739 0.4620
C20 C 0.3365(3) 0.41465(17) 0.3377(7)
H19 H 0.3565 0.4300 0.4738
H20 H 0.3461 0.4416 0.2301
C21 C 0.4163(3) 0.37011(16) 0.2920(7)
H21 H 0.4149 0.3459 0.4109
H22 H 0.4949 0.3836 0.2792
C22 C 0.4128(3) 0.37278(16) -0.0997(6)
H23 H 0.3674 0.3610 -0.2204
H24 H 0.3974 0.4099 -0.0749
N1 N 0.5349(2) 0.36351(12) -0.1329(5)
O1 O 0.5483(2) 0.44696(11) -0.3101(4)
O2 O 0.6920(2) 0.38012(11) -0.3878(5)
O3 O 0.6700(2) 0.30518(10) -0.0271(5)
S1 S 0.62157(8) 0.40620(4) -0.24191(18)
F1 F 0.5190(2) 0.16702(11) 0.7593(5)
loop_
_geom_bond_atom_site_label_1
_geom_bond_atom_site_label_2
_geom_bond_site_symmetry_1
_geom_bond_site_symmetry_2
C1 C2 1_555 1_555
C2 H1 1_555 1_555
C3 C2 1_555 1_555
H2 C3 1_555 1_555
C4 C3 1_555 1_555
C5 C4 1_555 1_555
H3 C5 1_555 1_555
H4 C5 1_555 1_555
H5 C5 1_555 1_555
C6 C4 1_555 1_555
H6 C6 1_555 1_555
C7 C1 1_555 1_555
H7 C7 1_555 1_555
C8 C9 1_555 1_555
C9 H8 1_555 1_555
C10 C9 1_555 1_555
C11 C10 1_555 1_555
H9 C11 1_555 1_555
C12 C11 1_555 1_555
H10 C12 1_555 1_555
C13 C12 1_555 1_555
C14 C13 1_555 1_555
H11 C14 1_555 1_555
C15 C10 1_555 1_555
H12 C15 1_555 1_555
C16 C9 1_555 1_555
C17 C16 1_555 1_555
H13 C17 1_555 1_555
H14 C17 1_555 1_555
C18 C17 1_555 1_555
H15 C18 1_555 1_555
H16 C18 1_555 1_555
C19 C18 1_555 1_555
H17 C19 1_555 1_555
H18 C19 1_555 1_555
C20 C19 1_555 1_555
H19 C20 1_555 1_555
H20 C20 1_555 1_555
C21 C16 1_555 1_555
H21 C21 1_555 1_555
H22 C21 1_555 1_555
C22 C16 1_555 1_555
H23 C22 1_555 1_555
H24 C22 1_555 1_555
N1 C8 1_555 1_555
O1 S1 1_555 1_555
O2 S1 1_555 1_555
O3 C8 1_555 1_555
S1 C1 1_555 1_555
F1 C13 1_555 1_555
C6 C7 1_555 1_555
C14 C15 1_555 1_555
C20 C21 1_555 1_555
C22 N1 1_555 1_555
N1 S1 1_555 1_555

#END
