
#######################################################################
#
#                 Cambridge Crystallographic Data Centre
#                                CCDC 
#
#######################################################################
#
# If this CIF has been generated from an entry in the Cambridge 
# Structural Database, then it will include bibliographic, chemical, 
# crystal, experimental, refinement or atomic coordinate data resulting 
# from the CCDC's data processing and validation procedures.
#
#######################################################################

data_FESQOM
_chemical_compound_source        
'solid culture of the fungus Coniochaeta cephalothecoides'
_chemical_name_common            
3-((2,6-dimethyl-1,2,4a,5,8,8a-hexahydronaphthalen-1-yl)(hydroxy)methylene)-5-(4-hydroxybenzyl)pyrrolidine-2,4-dione
_chemical_formula_moiety         'C24 H27 N1 O4'
_chemical_name_systematic        '(+-)-Conipyrrolidone B'
_chemical_properties_biological  
'tested for antimicrobial and cytotoxic activity'
_symmetry_cell_setting           monoclinic
_symmetry_space_group_name_H-M   'P 21/n'
_symmetry_Int_Tables_number      14
_space_group_name_Hall           '-P 2yn'
loop_
_symmetry_equiv_pos_site_id
_symmetry_equiv_pos_as_xyz
1 x,y,z
2 1/2-x,1/2+y,1/2-z
3 -x,-y,-z
4 1/2+x,1/2-y,1/2+z
_cell_length_a                   10.8380(2)
_cell_length_b                   10.16461(19)
_cell_length_c                   19.4057(4)
_cell_angle_alpha                90
_cell_angle_beta                 105.682(2)
_cell_angle_gamma                90
_cell_volume                     2058.23
_cell_formula_units_Z            4
loop_
_atom_site_label
_atom_site_type_symbol
_atom_site_fract_x
_atom_site_fract_y
_atom_site_fract_z
O1 O 0.17891(8) 0.00322(9) 0.03689(5)
O2 O 0.41442(8) 0.08013(9) 0.08492(5)
H1 H 0.3513 0.0291 0.0725
O3 O 0.21203(8) 0.46348(8) 0.06889(5)
O4 O 0.28324(11) 0.21473(10) 0.37721(6)
H2 H 0.2773 0.1344 0.3861
N1 N 0.03224(10) 0.17200(11) 0.02720(6)
H3 H -0.0378 0.1246 0.0120
C1 C 0.64453(11) 0.41848(12) 0.19356(6)
H4 H 0.5868 0.4858 0.2060
C2 C 0.64634(11) 0.42929(12) 0.06535(7)
H5 H 0.6800 0.4691 0.0300
C3 C 0.15014(11) 0.12157(12) 0.04162(7)
C4 C 0.17372(11) 0.34957(12) 0.05860(6)
C5 C 0.24415(11) 0.22806(12) 0.06304(6)
C6 C 0.37354(12) 0.20259(12) 0.08209(6)
C7 C 0.47375(11) 0.30728(12) 0.09975(6)
H6 H 0.4277 0.3923 0.1006
C8 C 0.56774(11) 0.29091(12) 0.17441(6)
H7 H 0.6285 0.2180 0.1723
C9 C 0.20427(14) 0.24301(14) 0.31102(8)
C10 C 0.05060(13) 0.18390(13) 0.20020(8)
H8 H -0.0019 0.1189 0.1712
C11 C 0.03124(12) 0.31342(12) 0.03918(7)
H9 H -0.0153 0.3590 -0.0060
C12 C 0.12671(13) 0.40499(13) 0.21943(8)
H10 H 0.1267 0.4933 0.2034
C13 C 0.59625(15) 0.27350(14) 0.30638(7)
H11 H 0.5714 0.2398 0.3463
C14 C 0.50267(13) 0.25937(13) 0.23325(7)
H12 H 0.4295 0.3198 0.2293
H13 H 0.4691 0.1683 0.2271
C15 C 0.75555(13) 0.39504(14) 0.26019(7)
H14 H 0.8207 0.3389 0.2475
H15 H 0.7963 0.4803 0.2778
C16 C -0.02835(12) 0.35150(13) 0.10021(8)
H16 H -0.0410 0.4480 0.0992
H17 H -0.1139 0.3099 0.0909
C17 C 0.61307(13) 0.19767(13) 0.02361(7)
H18 H 0.6603 0.2194 -0.0114
H19 H 0.5480 0.1310 0.0035
H20 H 0.6727 0.1633 0.0672
C18 C 0.04977(12) 0.31241(13) 0.17421(8)
C19 C 0.20288(14) 0.37205(13) 0.28672(8)
H21 H 0.2540 0.4372 0.3162
C20 C 0.12673(13) 0.14964(13) 0.26758(8)
H22 H 0.1258 0.0618 0.2841
C21 C 0.71082(15) 0.32973(14) 0.31871(7)
C22 C 0.54756(11) 0.32218(12) 0.04173(6)
H23 H 0.4848 0.3526 -0.0033
C23 C 0.68917(11) 0.47142(12) 0.13219(7)
H24 H 0.7519 0.5392 0.1418
C24 C 0.8067(2) 0.33122(17) 0.39129(8)
H25 H 0.8255 0.4224 0.4070
H26 H 0.8858 0.2878 0.3883
H27 H 0.7711 0.2844 0.4257
loop_
_geom_bond_atom_site_label_1
_geom_bond_atom_site_label_2
_geom_bond_site_symmetry_1
_geom_bond_site_symmetry_2
O1 C3 1_555 1_555
O2 H1 1_555 1_555
O3 C4 1_555 1_555
O4 H2 1_555 1_555
N1 H3 1_555 1_555
C1 H4 1_555 1_555
C2 H5 1_555 1_555
C3 N1 1_555 1_555
C4 C5 1_555 1_555
C5 C3 1_555 1_555
C6 O2 1_555 1_555
C7 C6 1_555 1_555
H6 C7 1_555 1_555
C8 C1 1_555 1_555
H7 C8 1_555 1_555
C9 O4 1_555 1_555
C10 H8 1_555 1_555
C11 N1 1_555 1_555
H9 C11 1_555 1_555
C12 H10 1_555 1_555
C13 H11 1_555 1_555
C14 C8 1_555 1_555
H12 C14 1_555 1_555
H13 C14 1_555 1_555
C15 C1 1_555 1_555
H14 C15 1_555 1_555
H15 C15 1_555 1_555
C16 C11 1_555 1_555
H16 C16 1_555 1_555
H17 C16 1_555 1_555
C17 H18 1_555 1_555
H19 C17 1_555 1_555
H20 C17 1_555 1_555
C18 C10 1_555 1_555
C19 C9 1_555 1_555
H21 C19 1_555 1_555
C20 C9 1_555 1_555
H22 C20 1_555 1_555
C21 C13 1_555 1_555
C22 C2 1_555 1_555
H23 C22 1_555 1_555
C23 C1 1_555 1_555
H24 C23 1_555 1_555
C24 C21 1_555 1_555
H25 C24 1_555 1_555
H26 C24 1_555 1_555
H27 C24 1_555 1_555
C2 C23 1_555 1_555
C4 C11 1_555 1_555
C5 C6 1_555 1_555
C7 C8 1_555 1_555
C7 C22 1_555 1_555
C10 C20 1_555 1_555
C12 C18 1_555 1_555
C12 C19 1_555 1_555
C13 C14 1_555 1_555
C15 C21 1_555 1_555
C16 C18 1_555 1_555
C17 C22 1_555 1_555

#END
