
#######################################################################
#
#                 Cambridge Crystallographic Data Centre
#                                CCDC 
#
#######################################################################
#
# If this CIF has been generated from an entry in the Cambridge 
# Structural Database, then it will include bibliographic, chemical, 
# crystal, experimental, refinement or atomic coordinate data resulting 
# from the CCDC's data processing and validation procedures.
#
#######################################################################

data_FESQAY
_chemical_formula_moiety         'C23 H27 N1 O3 S1'
_chemical_name_systematic        
4-(2-methylphenyl)-2-((4-methylphenyl)sulfonyl)-2-azaspiro[4.5]decan-3-one
_symmetry_cell_setting           triclinic
_symmetry_space_group_name_H-M   'P -1'
_symmetry_Int_Tables_number      2
_space_group_name_Hall           '-P 1'
loop_
_symmetry_equiv_pos_site_id
_symmetry_equiv_pos_as_xyz
1 x,y,z
2 -x,-y,-z
_cell_length_a                   9.3182(4)
_cell_length_b                   9.6671(5)
_cell_length_c                   13.9480(7)
_cell_angle_alpha                71.774(3)
_cell_angle_beta                 71.026(3)
_cell_angle_gamma                61.633(3)
_cell_volume                     1026.41
_exptl_crystal_colour            colorless
_exptl_crystal_description       prism
_cell_formula_units_Z            2
loop_
_atom_site_label
_atom_site_type_symbol
_atom_site_fract_x
_atom_site_fract_y
_atom_site_fract_z
C1 C 0.9328(2) 0.3036(2) 0.28001(16)
C2 C 1.0006(3) 0.1498(3) 0.26126(19)
H1 H 0.9728 0.0690 0.3117
C3 C 1.1088(3) 0.1156(3) 0.1686(2)
H2 H 1.1538 0.0106 0.1554
C4 C 1.1535(3) 0.2303(3) 0.09431(18)
C5 C 1.2748(4) 0.1904(4) -0.0058(2)
H3 H 1.2912 0.2860 -0.0483
H4 H 1.2301 0.1541 -0.0431
H5 H 1.3818 0.1054 0.0087
C6 C 1.0845(3) 0.3838(3) 0.11500(18)
H6 H 1.1136 0.4642 0.0650
C7 C 0.9743(3) 0.4216(3) 0.20696(17)
H7 H 0.9276 0.5270 0.2199
C8 C 0.5272(2) 0.5380(2) 0.31248(15)
C9 C 0.3661(2) 0.5302(2) 0.31561(14)
H8 H 0.2831 0.5761 0.3765
C10 C 0.2888(2) 0.6256(2) 0.22271(15)
C11 C 0.3886(3) 0.6278(3) 0.12363(16)
H9 H 0.5065 0.5742 0.1153
C12 C 0.3194(4) 0.7065(3) 0.03695(17)
H10 H 0.3896 0.7060 -0.0300
C13 C 0.1487(3) 0.7854(3) 0.04812(19)
H11 H 0.1002 0.8378 -0.0109
C14 C 0.0493(3) 0.7874(3) 0.14577(19)
H12 H -0.0683 0.8429 0.1530
C15 C 0.1150(3) 0.7109(2) 0.23434(16)
C16 C -0.0011(3) 0.7250(3) 0.33850(18)
H13 H 0.0636 0.6648 0.3927
H14 H -0.0808 0.6815 0.3460
H15 H -0.0616 0.8380 0.3448
C17 C 0.4123(2) 0.3467(2) 0.34304(14)
C18 C 0.2584(2) 0.3100(2) 0.39264(15)
H16 H 0.1997 0.3552 0.4564
H17 H 0.1811 0.3628 0.3445
C19 C 0.3032(3) 0.1304(2) 0.41932(18)
H18 H 0.3705 0.0789 0.4731
H19 H 0.1997 0.1129 0.4476
C20 C 0.4008(3) 0.0539(3) 0.3252(2)
H20 H 0.3284 0.0960 0.2749
H21 H 0.4347 -0.0632 0.3458
C21 C 0.5554(3) 0.0871(3) 0.27397(18)
H22 H 0.6105 0.0434 0.2096
H23 H 0.6350 0.0320 0.3207
C22 C 0.5112(3) 0.2667(2) 0.24880(15)
H24 H 0.4447 0.3190 0.1945
H25 H 0.6154 0.2830 0.2209
C23 C 0.5245(2) 0.2915(2) 0.42012(15)
H26 H 0.4572 0.3029 0.4909
H27 H 0.6061 0.1785 0.4206
N1 N 0.6090(2) 0.4006(2) 0.38017(13)
O1 O 0.8283(2) 0.2045(2) 0.47458(12)
O2 O 0.7996(2) 0.4830(2) 0.41699(13)
O3 O 0.57806(19) 0.63871(18) 0.26435(13)
S1 S 0.79705(6) 0.34807(7) 0.39827(4)
loop_
_geom_bond_atom_site_label_1
_geom_bond_atom_site_label_2
_geom_bond_site_symmetry_1
_geom_bond_site_symmetry_2
C1 C2 1_555 1_555
C2 H1 1_555 1_555
C3 C2 1_555 1_555
H2 C3 1_555 1_555
C4 C3 1_555 1_555
C5 C4 1_555 1_555
H3 C5 1_555 1_555
H4 C5 1_555 1_555
H5 C5 1_555 1_555
C6 C4 1_555 1_555
H6 C6 1_555 1_555
C7 C1 1_555 1_555
H7 C7 1_555 1_555
C8 C9 1_555 1_555
C9 H8 1_555 1_555
C10 C9 1_555 1_555
C11 C10 1_555 1_555
H9 C11 1_555 1_555
C12 C11 1_555 1_555
H10 C12 1_555 1_555
C13 C12 1_555 1_555
H11 C13 1_555 1_555
C14 C13 1_555 1_555
H12 C14 1_555 1_555
C15 C10 1_555 1_555
C16 C15 1_555 1_555
H13 C16 1_555 1_555
H14 C16 1_555 1_555
H15 C16 1_555 1_555
C17 C9 1_555 1_555
C18 C17 1_555 1_555
H16 C18 1_555 1_555
H17 C18 1_555 1_555
C19 C18 1_555 1_555
H18 C19 1_555 1_555
H19 C19 1_555 1_555
C20 C19 1_555 1_555
H20 C20 1_555 1_555
H21 C20 1_555 1_555
C21 C20 1_555 1_555
H22 C21 1_555 1_555
H23 C21 1_555 1_555
C22 C17 1_555 1_555
H24 C22 1_555 1_555
H25 C22 1_555 1_555
C23 C17 1_555 1_555
H26 C23 1_555 1_555
H27 C23 1_555 1_555
N1 C8 1_555 1_555
O1 S1 1_555 1_555
O2 S1 1_555 1_555
O3 C8 1_555 1_555
S1 C1 1_555 1_555
C6 C7 1_555 1_555
C14 C15 1_555 1_555
C21 C22 1_555 1_555
C23 N1 1_555 1_555
N1 S1 1_555 1_555

#END
