
#######################################################################
#
#                 Cambridge Crystallographic Data Centre
#                                CCDC 
#
#######################################################################
#
# If this CIF has been generated from an entry in the Cambridge 
# Structural Database, then it will include bibliographic, chemical, 
# crystal, experimental, refinement or atomic coordinate data resulting 
# from the CCDC's data processing and validation procedures.
#
#######################################################################

data_FESQIG
_chemical_compound_source        
'solid culture of the fungus Coniochaeta cephalothecoides'
_chemical_name_common            
'3-((2,6-dimethyl-1,2,4a,5,8,8a-hexahydronaphthalen-1-yl)(hydroxy)methylene)-5-(4-hydroxybenzyl)pyrrolidine-2,4-dione methanol solvate'
_chemical_formula_moiety         'C24 H27 N1 O4,C1 H4 O1'
_chemical_name_systematic        '(+-)-Conipyrrolidone A methanol solvate'
_chemical_properties_biological  
'tested for antimicrobial and cytotoxic activity'
_symmetry_cell_setting           orthorhombic
_symmetry_space_group_name_H-M   'P b c a'
_symmetry_Int_Tables_number      61
_space_group_name_Hall           '-P 2ac 2ab'
loop_
_symmetry_equiv_pos_site_id
_symmetry_equiv_pos_as_xyz
1 x,y,z
2 1/2-x,-y,1/2+z
3 1/2+x,1/2-y,-z
4 -x,1/2+y,1/2-z
5 -x,-y,-z
6 1/2+x,y,1/2-z
7 1/2-x,1/2+y,z
8 x,1/2-y,1/2+z
_cell_length_a                   14.3407(4)
_cell_length_b                   12.2598(4)
_cell_length_c                   25.8810(8)
_cell_angle_alpha                90
_cell_angle_beta                 90
_cell_angle_gamma                90
_cell_volume                     4550.25
_exptl_crystal_colour            white
_exptl_crystal_description       needle
_cell_formula_units_Z            8
_exptl_crystal_recrystallization_method methanol
loop_
_atom_site_label
_atom_site_type_symbol
_atom_site_fract_x
_atom_site_fract_y
_atom_site_fract_z
O1 O 0.05046(7) 0.48341(7) 0.24974(4)
O2 O -0.33685(7) 0.35663(8) 0.37255(4)
H1 H -0.3550 0.4211 0.3769
O3 O 0.10795(7) 0.30504(7) 0.39545(4)
H2 H 0.0974 0.2408 0.3858
O4 O 0.05850(7) 0.14583(7) 0.33714(4)
N1 N 0.02037(8) 0.19861(8) 0.25401(4)
H3 H -0.0019 0.1350 0.2452
C1 C 0.17651(9) 0.64157(9) 0.41986(5)
H4 H 0.2088 0.6736 0.3892
C2 C 0.17090(9) 0.51769(9) 0.41142(5)
H5 H 0.1506 0.4826 0.4444
C3 C 0.01246(9) 0.29839(9) 0.22324(5)
H6 H 0.0561 0.2945 0.1932
C4 C 0.04603(8) 0.38680(9) 0.26119(5)
C5 C -0.18105(9) 0.43468(10) 0.26646(5)
H7 H -0.1561 0.4985 0.2509
C6 C -0.15672(9) 0.33270(10) 0.24685(5)
C7 C -0.05646(10) 0.45753(12) 0.41990(6)
H8 H -0.0197 0.4429 0.4511
H9 H -0.0696 0.3887 0.4021
H10 H -0.1153 0.4927 0.4296
C8 C -0.24096(9) 0.44484(10) 0.30822(5)
H11 H -0.2568 0.5151 0.3209
C9 C 0.09264(9) 0.37268(10) 0.35671(5)
C10 C 0.23692(10) 0.66519(10) 0.46728(5)
H12 H 0.2494 0.7445 0.4692
H13 H 0.2023 0.6441 0.4988
C11 C 0.00407(10) 0.64575(10) 0.40712(5)
H14 H -0.0524 0.6856 0.4105
C12 C -0.27777(9) 0.35248(10) 0.33148(5)
C13 C -0.00124(9) 0.53322(10) 0.38387(5)
H15 H -0.0373 0.5394 0.3509
C14 C 0.26863(9) 0.47616(10) 0.39782(5)
H16 H 0.2692 0.3955 0.3996
H17 H 0.2839 0.4977 0.3619
C15 C 0.04891(9) 0.21636(9) 0.30228(5)
C16 C 0.09868(9) 0.49195(9) 0.36951(5)
H18 H 0.1183 0.5311 0.3374
C17 C 0.06703(9) 0.33261(9) 0.30939(5)
C18 C 0.40322(12) 0.64545(13) 0.50167(6)
H19 H 0.4223 0.7189 0.4911
H20 H 0.4571 0.5964 0.5003
H21 H 0.3789 0.6478 0.5370
C19 C -0.19627(10) 0.24096(10) 0.26985(6)
H22 H -0.1819 0.1706 0.2567
C20 C 0.08175(10) 0.69306(10) 0.42319(5)
H23 H 0.0773 0.7640 0.4377
C21 C -0.08700(9) 0.32190(11) 0.20378(5)
H24 H -0.0865 0.3902 0.1834
H25 H -0.1068 0.2621 0.1805
C22 C 0.34186(9) 0.52089(11) 0.43380(5)
H26 H 0.4015 0.4872 0.4336
C23 C -0.25601(10) 0.25049(10) 0.31144(6)
H27 H -0.2824 0.1869 0.3265
C24 C 0.32857(10) 0.60433(11) 0.46575(5)
O5 O -0.09414(9) 0.05358(9) 0.38861(5)
H28 H -0.0519 0.0807 0.3701
C25 C -0.12834(16) 0.13370(14) 0.42301(7)
H29 H -0.1661 0.0986 0.4498
H30 H -0.1668 0.1861 0.4039
H31 H -0.0758 0.1719 0.4391
loop_
_geom_bond_atom_site_label_1
_geom_bond_atom_site_label_2
_geom_bond_site_symmetry_1
_geom_bond_site_symmetry_2
O1 C4 1_555 1_555
O2 H1 1_555 1_555
O3 H2 1_555 1_555
O4 C15 1_555 1_555
N1 H3 1_555 1_555
C1 H4 1_555 1_555
C2 C1 1_555 1_555
H5 C2 1_555 1_555
C3 N1 1_555 1_555
H6 C3 1_555 1_555
C4 C3 1_555 1_555
C5 H7 1_555 1_555
C6 C5 1_555 1_555
C7 H8 1_555 1_555
H9 C7 1_555 1_555
H10 C7 1_555 1_555
C8 C5 1_555 1_555
H11 C8 1_555 1_555
C9 O3 1_555 1_555
C10 C1 1_555 1_555
H12 C10 1_555 1_555
H13 C10 1_555 1_555
C11 H14 1_555 1_555
C12 O2 1_555 1_555
C13 C7 1_555 1_555
H15 C13 1_555 1_555
C14 C2 1_555 1_555
H16 C14 1_555 1_555
H17 C14 1_555 1_555
C15 N1 1_555 1_555
C16 C2 1_555 1_555
H18 C16 1_555 1_555
C17 C4 1_555 1_555
C18 H19 1_555 1_555
H20 C18 1_555 1_555
H21 C18 1_555 1_555
C19 C6 1_555 1_555
H22 C19 1_555 1_555
C20 C1 1_555 1_555
H23 C20 1_555 1_555
C21 C3 1_555 1_555
H24 C21 1_555 1_555
H25 C21 1_555 1_555
C22 C14 1_555 1_555
H26 C22 1_555 1_555
C23 C12 1_555 1_555
H27 C23 1_555 1_555
C24 C10 1_555 1_555
O5 H28 1_555 1_555
C25 O5 1_555 1_555
H29 C25 1_555 1_555
H30 C25 1_555 1_555
H31 C25 1_555 1_555
C6 C21 1_555 1_555
C8 C12 1_555 1_555
C9 C16 1_555 1_555
C9 C17 1_555 1_555
C11 C13 1_555 1_555
C11 C20 1_555 1_555
C13 C16 1_555 1_555
C15 C17 1_555 1_555
C18 C24 1_555 1_555
C19 C23 1_555 1_555
C22 C24 1_555 1_555

#END
