
#######################################################################
#
#                 Cambridge Crystallographic Data Centre
#                                CCDC 
#
#######################################################################
#
# If this CIF has been generated from an entry in the Cambridge 
# Structural Database, then it will include bibliographic, chemical, 
# crystal, experimental, refinement or atomic coordinate data resulting 
# from the CCDC's data processing and validation procedures.
#
#######################################################################

data_FESQIF
_chemical_formula_moiety         'C23 H19 N3 O1,0.5(C3 H7 N1 O1)'
_chemical_name_systematic        
'2,7-dimethyl-5-oxo-2,4-diphenyl-1,2,5,6-tetrahydro-1,6-naphthyridine-8-carbonitrile N,N-dimethylformamide solvate'
_symmetry_cell_setting           triclinic
_symmetry_space_group_name_H-M   'P -1'
_symmetry_Int_Tables_number      2
_space_group_name_Hall           '-P 1'
loop_
_symmetry_equiv_pos_site_id
_symmetry_equiv_pos_as_xyz
1 x,y,z
2 -x,-y,-z
_cell_length_a                   13.4391(15)
_cell_length_b                   13.6400(17)
_cell_length_c                   14.3996(18)
_cell_angle_alpha                107.0460(10)
_cell_angle_beta                 103.5760(10)
_cell_angle_gamma                114.569(2)
_cell_volume                     2093.22
_exptl_crystal_colour            'pale white'
_exptl_crystal_description       block
_cell_formula_units_Z            4
loop_
_atom_site_label
_atom_site_type_symbol
_atom_site_fract_x
_atom_site_fract_y
_atom_site_fract_z
N1 N 0.3792(3) 0.6481(3) 0.3547(3)
H1 H 0.4177 0.6406 0.3158
N2 N 0.3110(3) 0.4560(3) 0.5258(3)
H2 H 0.2903 0.4123 0.5583
N3 N 0.3899(5) 0.3880(4) 0.2154(4)
O1 O 0.2987(3) 0.5953(3) 0.6463(3)
C1 C 0.3202(4) 0.5675(4) 0.5663(4)
C2 C 0.3517(4) 0.6375(4) 0.5093(4)
C3 C 0.3635(4) 0.5882(4) 0.4154(4)
C4 C 0.3591(4) 0.4763(4) 0.3837(4)
C5 C 0.3314(4) 0.4106(4) 0.4406(4)
C6 C 0.3162(5) 0.2895(4) 0.4114(4)
H3 H 0.2395 0.2301 0.3533
H4 H 0.3208 0.2720 0.4716
H5 H 0.3786 0.2883 0.3904
C7 C 0.3760(5) 0.4271(5) 0.2901(4)
C8 C 0.3740(4) 0.7604(4) 0.5452(4)
C9 C 0.3673(4) 0.8030(4) 0.4720(4)
H6 H 0.3871 0.8824 0.4939
C10 C 0.3288(5) 0.7269(4) 0.3563(4)
C11 C 0.1917(5) 0.6479(5) 0.2937(5)
C12 C 0.1419(7) 0.5621(7) 0.1904(6)
H7 H 0.1916 0.5510 0.1586
C13 C 0.0179(9) 0.4915(8) 0.1328(7)
H8 H -0.0150 0.4324 0.0636
C14 C -0.0552(8) 0.5095(8) 0.1784(8)
H9 H -0.1374 0.4686 0.1381
C15 C -0.0080(7) 0.5863(7) 0.2813(7)
H10 H -0.0583 0.5924 0.3144
C16 C 0.1152(6) 0.6565(6) 0.3388(5)
H11 H 0.1466 0.7109 0.4097
C17 C 0.3837(5) 0.8076(5) 0.3039(4)
H12 H 0.4697 0.8514 0.3395
H13 H 0.3564 0.8630 0.3096
H14 H 0.3592 0.7583 0.2301
C18 C 0.4143(4) 0.8422(4) 0.6583(4)
C19 C 0.3728(5) 0.9206(4) 0.6839(4)
H15 H 0.3152 0.9168 0.6301
C20 C 0.4158(5) 1.0037(5) 0.7879(5)
H16 H 0.3878 1.0559 0.8027
C21 C 0.4988(5) 1.0102(5) 0.8690(4)
H17 H 0.5270 1.0657 0.9389
C22 C 0.5399(5) 0.9330(5) 0.8453(4)
H18 H 0.5971 0.9371 0.8998
C23 C 0.4975(5) 0.8495(4) 0.7418(4)
H19 H 0.5255 0.7972 0.7280
N4 N 0.7189(4) 0.7081(4) 0.0463(3)
H20 H 0.6720 0.6714 -0.0203
N5 N 0.6838(3) 0.5201(3) 0.2234(3)
H21 H 0.6797 0.4806 0.2606
N6 N 0.5740(4) 0.4074(4) -0.1459(4)
O2 O 0.7794(3) 0.6889(3) 0.3783(3)
C24 C 0.7388(4) 0.6444(4) 0.2785(4)
C25 C 0.7454(4) 0.7099(4) 0.2165(4)
C26 C 0.7046(4) 0.6475(4) 0.1071(4)
C27 C 0.6467(4) 0.5193(4) 0.0566(4)
C28 C 0.6372(4) 0.4575(4) 0.1181(4)
C29 C 0.5808(5) 0.3242(4) 0.0728(4)
H22 H 0.5381 0.2891 -0.0031
H23 H 0.5260 0.2927 0.1034
H24 H 0.6420 0.3051 0.0889
C30 C 0.6038(5) 0.4543(4) -0.0566(4)
C31 C 0.7901(4) 0.8393(4) 0.2619(4)
C32 C 0.8193(5) 0.8963(5) 0.2018(4)
H25 H 0.8443 0.9774 0.2286
C33 C 0.8135(5) 0.8351(5) 0.0928(4)
C34 C 0.9347(6) 0.8501(6) 0.1017(5)
C35 C 1.0361(14) 0.9617(13) 0.1394(11)
H26 H 1.0262 1.0270 0.1498
C36 C 1.151(3) 0.983(3) 0.163(3)
H27 H 1.2151 1.0612 0.1893
C37 C 1.1717(19) 0.8894(18) 0.1464(16)
H28 H 1.2480 0.9021 0.1577
C38 C 1.0757(12) 0.7775(11) 0.1131(9)
H29 H 1.0867 0.7128 0.1033
C39 C 0.9608(10) 0.7596(10) 0.0936(9)
H30 H 0.8983 0.6830 0.0742
C40 C 0.7750(6) 0.8885(5) 0.0204(4)
H31 H 0.7637 0.8443 -0.0506
H32 H 0.8363 0.9712 0.0473
H33 H 0.7012 0.8832 0.0194
C41 C 0.7961(5) 0.9069(5) 0.3673(4)
C42 C 0.8964(5) 1.0190(5) 0.4376(4)
H34 H 0.9605 1.0511 0.4192
C43 C 0.9022(6) 1.0843(5) 0.5358(5)
H35 H 0.9706 1.1588 0.5831
C44 C 0.8070(6) 1.0385(6) 0.5623(5)
H36 H 0.8109 1.0817 0.6278
C45 C 0.7060(5) 0.9287(5) 0.4920(5)
H37 H 0.6410 0.8985 0.5099
C46 C 0.6998(5) 0.8631(5) 0.3956(4)
H38 H 0.6308 0.7888 0.3489
N7 N 0.0767(12) 0.7246(11) 0.7155(15)
O3 O 0.2172(11) 0.8115(10) 0.8820(11)
C52 C 0.1791(15) 0.7526(12) 0.7840(14)
H44 H 0.2257 0.7271 0.7582
C53 C -0.0119(13) 0.7515(12) 0.7433(14)
H45 H 0.0086 0.7764 0.8182
H46 H -0.0906 0.6807 0.7038
H47 H -0.0108 0.8146 0.7260
C54 C 0.0420(14) 0.6635(14) 0.6024(13)
H48 H 0.0054 0.6966 0.5661
H49 H -0.0141 0.5794 0.5765
H50 H 0.1118 0.6740 0.5893
C47? C 1.040(2) 0.9255(19) 0.1856(17)
H39? H 1.0432 0.9691 0.2507
C48? C 1.144(5) 0.938(4) 0.175(4)
H40? H 1.2181 0.9923 0.2331
C49? C 1.139(2) 0.872(2) 0.080(2)
H41? H 1.2084 0.8775 0.0748
C50? C 1.032(2) 0.7972(17) -0.0082(17)
H42? H 1.0301 0.7550 -0.0733
C51? C 0.9291(16) 0.7856(15) 0.0014(15)
H43? H 0.8559 0.7358 -0.0576
loop_
_geom_bond_atom_site_label_1
_geom_bond_atom_site_label_2
_geom_bond_site_symmetry_1
_geom_bond_site_symmetry_2
N1 H1 1_555 1_555
N2 H2 1_555 1_555
N3 C7 1_555 1_555
O1 C1 1_555 1_555
C1 N2 1_555 1_555
C2 C1 1_555 1_555
C3 N1 1_555 1_555
C4 C3 1_555 1_555
C5 N2 1_555 1_555
C6 C5 1_555 1_555
H3 C6 1_555 1_555
H4 C6 1_555 1_555
H5 C6 1_555 1_555
C7 C4 1_555 1_555
C8 C2 1_555 1_555
C9 C8 1_555 1_555
H6 C9 1_555 1_555
C10 N1 1_555 1_555
C11 C10 1_555 1_555
C12 C11 1_555 1_555
H7 C12 1_555 1_555
C13 C12 1_555 1_555
H8 C13 1_555 1_555
C14 C13 1_555 1_555
H9 C14 1_555 1_555
C15 C14 1_555 1_555
H10 C15 1_555 1_555
C16 C11 1_555 1_555
H11 C16 1_555 1_555
C17 C10 1_555 1_555
H12 C17 1_555 1_555
H13 C17 1_555 1_555
H14 C17 1_555 1_555
C18 C8 1_555 1_555
C19 C18 1_555 1_555
H15 C19 1_555 1_555
C20 C19 1_555 1_555
H16 C20 1_555 1_555
C21 C20 1_555 1_555
H17 C21 1_555 1_555
C22 C21 1_555 1_555
H18 C22 1_555 1_555
C23 C18 1_555 1_555
H19 C23 1_555 1_555
N4 H20 1_555 1_555
N5 H21 1_555 1_555
N6 C30 1_555 1_555
O2 C24 1_555 1_555
C24 N5 1_555 1_555
C25 C24 1_555 1_555
C26 N4 1_555 1_555
C27 C26 1_555 1_555
C28 N5 1_555 1_555
C29 C28 1_555 1_555
H22 C29 1_555 1_555
H23 C29 1_555 1_555
H24 C29 1_555 1_555
C30 C27 1_555 1_555
C31 C25 1_555 1_555
C32 C31 1_555 1_555
H25 C32 1_555 1_555
C33 N4 1_555 1_555
C34 C33 1_555 1_555
C35 C34 1_555 1_555
H26 C35 1_555 1_555
C36 C35 1_555 1_555
H27 C36 1_555 1_555
C37 C36 1_555 1_555
H28 C37 1_555 1_555
C38 C37 1_555 1_555
H29 C38 1_555 1_555
C39 C34 1_555 1_555
H30 C39 1_555 1_555
C40 C33 1_555 1_555
H31 C40 1_555 1_555
H32 C40 1_555 1_555
H33 C40 1_555 1_555
C41 C31 1_555 1_555
C42 C41 1_555 1_555
H34 C42 1_555 1_555
C43 C42 1_555 1_555
H35 C43 1_555 1_555
C44 C43 1_555 1_555
H36 C44 1_555 1_555
C45 C44 1_555 1_555
H37 C45 1_555 1_555
C46 C41 1_555 1_555
H38 C46 1_555 1_555
N7 C52 1_555 1_555
O3 C52 1_555 1_555
C52 H44 1_555 1_555
C53 N7 1_555 1_555
H45 C53 1_555 1_555
H46 C53 1_555 1_555
H47 C53 1_555 1_555
C54 N7 1_555 1_555
H48 C54 1_555 1_555
H49 C54 1_555 1_555
H50 C54 1_555 1_555
C2 C3 1_555 1_555
C4 C5 1_555 1_555
C9 C10 1_555 1_555
C15 C16 1_555 1_555
C22 C23 1_555 1_555
C25 C26 1_555 1_555
C27 C28 1_555 1_555
C32 C33 1_555 1_555
C38 C39 1_555 1_555
C45 C46 1_555 1_555

#END
