
#######################################################################
#
#                 Cambridge Crystallographic Data Centre
#                                CCDC 
#
#######################################################################
#
# If this CIF has been generated from an entry in the Cambridge 
# Structural Database, then it will include bibliographic, chemical, 
# crystal, experimental, refinement or atomic coordinate data resulting 
# from the CCDC's data processing and validation procedures.
#
#######################################################################

data_FESQUS
_chemical_formula_moiety         'C27 H22 N2 O3'
_chemical_name_systematic        
2-(4-methoxyphenyl)-3-[5-(4-methoxyphenyl)-2-methylfuran-3-yl]quinoxaline
_symmetry_cell_setting           triclinic
_symmetry_space_group_name_H-M   'P -1'
_symmetry_Int_Tables_number      2
_space_group_name_Hall           '-P 1'
loop_
_symmetry_equiv_pos_site_id
_symmetry_equiv_pos_as_xyz
1 x,y,z
2 -x,-y,-z
_cell_length_a                   10.4130(7)
_cell_length_b                   10.5191(7)
_cell_length_c                   12.1153(6)
_cell_angle_alpha                96.996(5)
_cell_angle_beta                 115.161(6)
_cell_angle_gamma                109.448(6)
_cell_volume                     1077.34
_exptl_crystal_colour            colorless
_exptl_crystal_description       block
_cell_formula_units_Z            2
loop_
_atom_site_label
_atom_site_type_symbol
_atom_site_fract_x
_atom_site_fract_y
_atom_site_fract_z
O1 O 0.64523(12) 0.19705(10) 0.46278(10)
O2 O 0.58931(13) 0.44921(12) -0.09967(12)
N1 N 0.88373(13) 0.04407(11) 0.12139(10)
O3 O 0.71714(14) 0.80746(12) 0.69721(13)
N2 N 0.85634(14) -0.01421(12) 0.33250(11)
C1 C 0.76068(16) 0.20081(13) 0.10833(12)
C2 C 0.82211(15) 0.10557(13) 0.17257(12)
C3 C 0.79739(15) 0.30293(14) 0.38646(12)
H1 H 0.8597 0.3717 0.3666
C4 C 0.73026(15) 0.32466(14) 0.45625(13)
C5 C 0.93350(15) -0.05005(13) 0.17370(13)
C6 C 0.72971(14) 0.44931(14) 0.52350(12)
C7 C 0.75475(16) 0.15384(14) 0.34870(13)
C8 C 0.81092(15) 0.07781(13) 0.28260(13)
C9 C 0.91769(15) -0.08026(14) 0.27876(13)
C10 C 0.60788(16) 0.18245(14) 0.06859(14)
H2 H 0.5461 0.1156 0.0903
C11 C 0.78262(16) 0.57838(15) 0.50140(14)
H3 H 0.8220 0.5856 0.4453
C12 C 0.85272(17) 0.30497(15) 0.07892(15)
H4 H 0.9558 0.3195 0.1052
C13 C 0.63811(17) 0.36386(15) -0.03188(14)
C14 C 0.54516(17) 0.26150(15) -0.00270(14)
H5 H 0.4414 0.2458 -0.0307
C15 C 0.66217(18) 0.09422(15) 0.39722(15)
C16 C 0.99988(17) -0.11946(15) 0.12228(14)
H6 H 1.0122 -0.0998 0.0537
C17 C 0.67583(18) 0.44326(16) 0.61053(15)
H7 H 0.6413 0.3585 0.6279
C18 C 0.96798(18) -0.17924(16) 0.33006(15)
H8 H 0.9595 -0.1984 0.4002
C19 C 0.72105(16) 0.68676(15) 0.64604(15)
C20 C 0.77804(17) 0.69570(15) 0.56074(16)
H9 H 0.8129 0.7807 0.5439
C21 C 0.79298(18) 0.38684(16) 0.01129(16)
H10 H 0.8568 0.4580 -0.0056
C22 C 0.67259(18) 0.56114(17) 0.67205(15)
H11 H 0.6376 0.5554 0.7310
C23 C 1.0287(2) -0.24664(17) 0.27726(16)
H12 H 1.0591 -0.3138 0.3099
C24 C 1.04588(19) -0.21528(16) 0.17347(15)
H13 H 1.0895 -0.2608 0.1392
C25 C 0.4248(2) 0.40819(19) -0.17080(17)
H14 H 0.3745 0.3161 -0.2323
H15 H 0.4057 0.4756 -0.2147
H16 H 0.3834 0.4051 -0.1135
C26 C 0.5767(3) -0.05303(17) 0.3918(2)
H17 H 0.6256 -0.0641 0.4751
H18 H 0.5798 -0.1182 0.3313
H19 H 0.4695 -0.0720 0.3656
C27 C 0.6644(2) 0.8047(2) 0.78809(19)
H20 H 0.5568 0.7365 0.7474
H21 H 0.6729 0.8968 0.8205
H22 H 0.7279 0.7789 0.8576
loop_
_geom_bond_atom_site_label_1
_geom_bond_atom_site_label_2
_geom_bond_site_symmetry_1
_geom_bond_site_symmetry_2
O1 C4 1_555 1_555
O2 C13 1_555 1_555
N1 C2 1_555 1_555
O3 C19 1_555 1_555
N2 C8 1_555 1_555
C1 C2 1_555 1_555
C2 C8 1_555 1_555
C3 H1 1_555 1_555
C4 C3 1_555 1_555
C5 N1 1_555 1_555
C6 C4 1_555 1_555
C7 C3 1_555 1_555
C8 C7 1_555 1_555
C9 N2 1_555 1_555
C10 C1 1_555 1_555
H2 C10 1_555 1_555
C11 C6 1_555 1_555
H3 C11 1_555 1_555
C12 C1 1_555 1_555
H4 C12 1_555 1_555
C13 C14 1_555 1_555
C14 C10 1_555 1_555
H5 C14 1_555 1_555
C15 O1 1_555 1_555
C16 C5 1_555 1_555
H6 C16 1_555 1_555
C17 C6 1_555 1_555
H7 C17 1_555 1_555
C18 C9 1_555 1_555
H8 C18 1_555 1_555
C19 C20 1_555 1_555
C20 C11 1_555 1_555
H9 C20 1_555 1_555
C21 C12 1_555 1_555
H10 C21 1_555 1_555
C22 C17 1_555 1_555
H11 C22 1_555 1_555
C23 C18 1_555 1_555
H12 C23 1_555 1_555
C24 C16 1_555 1_555
H13 C24 1_555 1_555
C25 O2 1_555 1_555
H14 C25 1_555 1_555
H15 C25 1_555 1_555
H16 C25 1_555 1_555
C26 C15 1_555 1_555
H17 C26 1_555 1_555
H18 C26 1_555 1_555
H19 C26 1_555 1_555
C27 O3 1_555 1_555
H20 C27 1_555 1_555
H21 C27 1_555 1_555
H22 C27 1_555 1_555
C5 C9 1_555 1_555
C7 C15 1_555 1_555
C13 C21 1_555 1_555
C19 C22 1_555 1_555
C23 C24 1_555 1_555

#END
