
#######################################################################
#
#                 Cambridge Crystallographic Data Centre
#                                CCDC 
#
#######################################################################
#
# If this CIF has been generated from an entry in the Cambridge 
# Structural Database, then it will include bibliographic, chemical, 
# crystal, experimental, refinement or atomic coordinate data resulting 
# from the CCDC's data processing and validation procedures.
#
#######################################################################

data_FESRAZ
_chemical_formula_moiety         'C15 H11 F2 N1 O4'
_chemical_name_systematic        
2,2-difluoro-3-(2-nitrophenyl)-3,4-dihydro-2H-1-benzopyran-4-ol
_symmetry_cell_setting           monoclinic
_symmetry_space_group_name_H-M   'P 21/n'
_symmetry_Int_Tables_number      14
_space_group_name_Hall           '-P 2yn'
loop_
_symmetry_equiv_pos_site_id
_symmetry_equiv_pos_as_xyz
1 x,y,z
2 1/2-x,1/2+y,1/2-z
3 -x,-y,-z
4 1/2+x,1/2-y,1/2+z
_cell_length_a                   11.9896(14)
_cell_length_b                   8.0336(9)
_cell_length_c                   14.0539(16)
_cell_angle_alpha                90
_cell_angle_beta                 98.250(2)
_cell_angle_gamma                90
_cell_volume                     1339.66
_exptl_crystal_colour            colorless
_exptl_crystal_description       block
_cell_formula_units_Z            4
loop_
_atom_site_label
_atom_site_type_symbol
_atom_site_fract_x
_atom_site_fract_y
_atom_site_fract_z
F1 F 0.94925(9) 0.16497(13) 0.84623(6)
N1 N 0.80485(11) 0.32825(16) 0.48864(8)
C1 C 0.90646(10) 0.30235(17) 0.69430(8)
H1 H 0.8550 0.3887 0.6648
O1 O 1.11300(8) 0.25913(15) 0.72766(8)
H2 H 1.1159 0.2305 0.7840
O2 O 0.87154(8) 0.41470(14) 0.84642(7)
F2 F 0.77372(9) 0.20182(15) 0.79020(8)
C2 C 0.89093(10) 0.15396(16) 0.62727(9)
C3 C 1.02570(10) 0.37801(18) 0.70499(9)
H3 H 1.0351 0.4270 0.6428
C4 C 0.84044(11) 0.16700(17) 0.53115(9)
C5 C 1.03301(11) 0.51822(18) 0.77692(8)
C6 C 0.95822(11) 0.52904(19) 0.84314(9)
C7 C 0.92451(12) -0.00519(18) 0.65722(10)
H4 H 0.9580 -0.0213 0.7204
O3 O 0.86562(12) 0.44857(15) 0.50750(9)
C8 C 1.11558(12) 0.6408(2) 0.77862(10)
H5 H 1.1669 0.6355 0.7350
C9 C 0.87545(12) 0.2720(2) 0.79387(10)
O4 O 0.71667(12) 0.33402(17) 0.43269(9)
C10 C 0.85892(13) -0.1223(2) 0.50225(11)
H6 H 0.8490 -0.2139 0.4614
C11 C 0.90962(13) -0.14047(19) 0.59593(12)
H7 H 0.9342 -0.2451 0.6183
C12 C 0.82321(13) 0.0324(2) 0.46978(10)
H8 H 0.7877 0.0465 0.4070
C13 C 1.12238(14) 0.7700(2) 0.84410(12)
H9 H 1.1774 0.8516 0.8441
C14 C 0.96466(14) 0.6573(2) 0.90991(11)
H10 H 0.9142 0.6622 0.9543
C15 C 1.04667(15) 0.7770(2) 0.90959(12)
H11 H 1.0513 0.8635 0.9539
loop_
_geom_bond_atom_site_label_1
_geom_bond_atom_site_label_2
_geom_bond_site_symmetry_1
_geom_bond_site_symmetry_2
F1 C9 1_555 1_555
N1 C4 1_555 1_555
C1 H1 1_555 1_555
O1 H2 1_555 1_555
O2 C6 1_555 1_555
F2 C9 1_555 1_555
C2 C1 1_555 1_555
C3 C1 1_555 1_555
H3 C3 1_555 1_555
C4 C2 1_555 1_555
C5 C3 1_555 1_555
C6 C5 1_555 1_555
C7 C2 1_555 1_555
H4 C7 1_555 1_555
O3 N1 1_555 1_555
C8 C5 1_555 1_555
H5 C8 1_555 1_555
C9 C1 1_555 1_555
O4 N1 1_555 1_555
C10 H6 1_555 1_555
C11 C7 1_555 1_555
H7 C11 1_555 1_555
C12 C4 1_555 1_555
H8 C12 1_555 1_555
C13 C8 1_555 1_555
H9 C13 1_555 1_555
C14 C6 1_555 1_555
H10 C14 1_555 1_555
C15 C13 1_555 1_555
H11 C15 1_555 1_555
O1 C3 1_555 1_555
O2 C9 1_555 1_555
C10 C11 1_555 1_555
C10 C12 1_555 1_555
C14 C15 1_555 1_555

#END
