
#######################################################################
#
#                 Cambridge Crystallographic Data Centre
#                                CCDC 
#
#######################################################################
#
# If this CIF has been generated from an entry in the Cambridge 
# Structural Database, then it will include bibliographic, chemical, 
# crystal, experimental, refinement or atomic coordinate data resulting 
# from the CCDC's data processing and validation procedures.
#
#######################################################################

data_FESSUU
_chemical_formula_moiety         'C30 H30 O4 S1'
_chemical_name_systematic        
6,9-dimethoxy-1-methyl-3-[(4-methylphenyl)sulfonyl]-4-phenyl-1,2,3,4-tetrahydrophenanthrene
_symmetry_cell_setting           monoclinic
_symmetry_space_group_name_H-M   'P 21/n'
_symmetry_Int_Tables_number      14
_space_group_name_Hall           '-P 2yn'
loop_
_symmetry_equiv_pos_site_id
_symmetry_equiv_pos_as_xyz
1 x,y,z
2 1/2-x,1/2+y,1/2-z
3 -x,-y,-z
4 1/2+x,1/2-y,1/2+z
_cell_length_a                   9.3547(4)
_cell_length_b                   15.8152(7)
_cell_length_c                   16.7422(8)
_cell_angle_alpha                90
_cell_angle_beta                 93.334(2)
_cell_angle_gamma                90
_cell_volume                     2472.76
_exptl_crystal_colour            colorless
_cell_formula_units_Z            4
loop_
_atom_site_label
_atom_site_type_symbol
_atom_site_fract_x
_atom_site_fract_y
_atom_site_fract_z
S1 S -0.06047(5) 0.36768(3) 0.83787(3)
O1 O 0.64905(13) 0.61776(9) 0.94021(8)
O2 O -0.05663(14) 0.40201(9) 0.91760(8)
O3 O 0.05663(14) 0.79904(8) 0.87069(8)
O4 O -0.16989(14) 0.39773(9) 0.78057(9)
C1 C 0.7731(2) 0.56416(14) 0.94803(12)
H1 H 0.7541 0.5167 0.9835
H2 H 0.8549 0.5967 0.9707
H3 H 0.7950 0.5426 0.8953
C2 C 0.52590(19) 0.58063(12) 0.90845(11)
C3 C 0.5150(2) 0.49719(12) 0.88703(11)
H4 H 0.5950 0.4608 0.8964
C4 C 0.38578(19) 0.46470(12) 0.85115(11)
C5 C 0.37643(19) 0.37226(12) 0.82507(12)
H5 H 0.3833 0.3702 0.7657
C6 C 0.22903(19) 0.33829(12) 0.84429(12)
H6 H 0.2226 0.2775 0.8304
H7 H 0.2163 0.3441 0.9023
C7 C 0.11070(19) 0.38676(12) 0.79727(12)
H8 H 0.1060 0.3656 0.7409
C8 C -0.07596(19) 0.25694(12) 0.84624(11)
C9 C -0.0956(2) 0.20708(13) 0.77818(12)
H9 H -0.0993 0.2321 0.7265
C10 C -0.1096(2) 0.12043(13) 0.78664(11)
H10 H -0.1221 0.0860 0.7403
C11 C -0.10561(19) 0.08292(12) 0.86196(11)
C12 C -0.1212(2) -0.01136(12) 0.86976(13)
H11 H -0.1291 -0.0370 0.8164
H12 H -0.2076 -0.0242 0.8979
H13 H -0.0372 -0.0343 0.9000
C13 C 0.26692(19) 0.51623(12) 0.83899(11)
C14 C 0.13000(19) 0.48520(12) 0.79512(11)
H14 H 0.0485 0.5102 0.8232
C15 C 0.11810(19) 0.51858(12) 0.70934(11)
C16 C -0.0100(2) 0.55071(13) 0.67629(12)
H15 H -0.0919 0.5512 0.7073
C17 C -0.0210(2) 0.58205(14) 0.59893(13)
H16 H -0.1096 0.6042 0.5776
C18 C 0.0968(2) 0.58114(13) 0.55255(13)
H17 H 0.0896 0.6022 0.4993
C19 C 0.2249(2) 0.54928(15) 0.58469(13)
H18 H 0.3063 0.5483 0.5533
C20 C 0.2357(2) 0.51872(14) 0.66244(12)
H19 H 0.3249 0.4976 0.6839
C21 C 0.2753(2) 0.60316(12) 0.86320(11)
C22 C 0.1564(2) 0.65893(12) 0.85370(11)
H20 H 0.0673 0.6381 0.8316
C23 C 0.1679(2) 0.74215(12) 0.87585(11)
C24 C -0.0813(2) 0.76697(14) 0.84412(14)
H21 H -0.0757 0.7412 0.7912
H22 H -0.1508 0.8134 0.8410
H23 H -0.1119 0.7244 0.8821
C25 C 0.2998(2) 0.77533(13) 0.90668(11)
H24 H 0.3081 0.8336 0.9199
C26 C 0.4154(2) 0.72311(12) 0.91739(11)
H25 H 0.5037 0.7455 0.9388
C27 C 0.4063(2) 0.63604(12) 0.89728(10)
C28 C 0.4940(2) 0.31581(13) 0.86306(13)
H26 H 0.5867 0.3326 0.8437
H27 H 0.4744 0.2568 0.8485
H28 H 0.4965 0.3218 0.9214
C29 C -0.0713(2) 0.22096(13) 0.92177(11)
H29 H -0.0575 0.2554 0.9681
C30 C -0.0868(2) 0.13443(13) 0.92909(11)
H30 H -0.0847 0.1097 0.9809
loop_
_geom_bond_atom_site_label_1
_geom_bond_atom_site_label_2
_geom_bond_site_symmetry_1
_geom_bond_site_symmetry_2
S1 O2 1_555 1_555
O1 C1 1_555 1_555
O3 C23 1_555 1_555
O4 S1 1_555 1_555
C1 H1 1_555 1_555
H2 C1 1_555 1_555
H3 C1 1_555 1_555
C2 O1 1_555 1_555
C3 C2 1_555 1_555
H4 C3 1_555 1_555
C4 C3 1_555 1_555
C5 C4 1_555 1_555
H5 C5 1_555 1_555
C6 C5 1_555 1_555
H6 C6 1_555 1_555
H7 C6 1_555 1_555
C7 S1 1_555 1_555
H8 C7 1_555 1_555
C8 S1 1_555 1_555
C9 C8 1_555 1_555
H9 C9 1_555 1_555
C10 C9 1_555 1_555
H10 C10 1_555 1_555
C11 C10 1_555 1_555
C12 C11 1_555 1_555
H11 C12 1_555 1_555
H12 C12 1_555 1_555
H13 C12 1_555 1_555
C13 C4 1_555 1_555
C14 C7 1_555 1_555
H14 C14 1_555 1_555
C15 C14 1_555 1_555
C16 C15 1_555 1_555
H15 C16 1_555 1_555
C17 C16 1_555 1_555
H16 C17 1_555 1_555
C18 C17 1_555 1_555
H17 C18 1_555 1_555
C19 C18 1_555 1_555
H18 C19 1_555 1_555
C20 C15 1_555 1_555
H19 C20 1_555 1_555
C21 C13 1_555 1_555
C22 C21 1_555 1_555
H20 C22 1_555 1_555
C23 C22 1_555 1_555
C24 O3 1_555 1_555
H21 C24 1_555 1_555
H22 C24 1_555 1_555
H23 C24 1_555 1_555
C25 C23 1_555 1_555
H24 C25 1_555 1_555
C26 C25 1_555 1_555
H25 C26 1_555 1_555
C27 C2 1_555 1_555
C28 C5 1_555 1_555
H26 C28 1_555 1_555
H27 C28 1_555 1_555
H28 C28 1_555 1_555
C29 C8 1_555 1_555
H29 C29 1_555 1_555
C30 C11 1_555 1_555
H30 C30 1_555 1_555
C6 C7 1_555 1_555
C13 C14 1_555 1_555
C19 C20 1_555 1_555
C21 C27 1_555 1_555
C26 C27 1_555 1_555
C29 C30 1_555 1_555

#END
