
#######################################################################
#
#                 Cambridge Crystallographic Data Centre
#                                CCDC 
#
#######################################################################
#
# If this CIF has been generated from an entry in the Cambridge 
# Structural Database, then it will include bibliographic, chemical, 
# crystal, experimental, refinement or atomic coordinate data resulting 
# from the CCDC's data processing and validation procedures.
#
#######################################################################

data_FESSII
_chemical_formula_moiety         'C29 H28 O3 S1'
_chemical_name_systematic        
3-[(4-ethylphenyl)sulfonyl]-1-methyl-4-phenyl-1,2,3,4-tetrahydrophenanthren-9-ol
_symmetry_cell_setting           triclinic
_symmetry_space_group_name_H-M   'P -1'
_symmetry_Int_Tables_number      2
_space_group_name_Hall           '-P 1'
loop_
_symmetry_equiv_pos_site_id
_symmetry_equiv_pos_as_xyz
1 x,y,z
2 -x,-y,-z
_cell_length_a                   7.6290(4)
_cell_length_b                   11.9937(7)
_cell_length_c                   13.0614(6)
_cell_angle_alpha                74.603(2)
_cell_angle_beta                 83.167(2)
_cell_angle_gamma                87.823(2)
_cell_volume                     1144.01
_exptl_crystal_colour            colorless
_cell_formula_units_Z            2
loop_
_atom_site_label
_atom_site_type_symbol
_atom_site_fract_x
_atom_site_fract_y
_atom_site_fract_z
S1 S 0.30273(4) 0.30656(3) 0.01676(2)
O1 O 0.38532(13) -0.29924(8) 0.23877(8)
H1 H 0.467(3) -0.3136(16) 0.1975(15)
O2 O 0.21110(12) 0.21121(8) 0.00035(7)
O3 O 0.40132(12) 0.38295(8) -0.07551(7)
C1 C 0.38765(17) -0.18406(11) 0.23582(10)
C2 C 0.53039(16) -0.11470(11) 0.19262(10)
H2 H 0.6353 -0.1465 0.1644
C3 C 0.52276(16) 0.00420(11) 0.18964(10)
C4 C 0.37122(16) 0.05179(11) 0.22995(9)
C5 C 0.36205(16) 0.18030(11) 0.22081(9)
H3 H 0.2344 0.2024 0.2205
C6 C 0.45763(16) 0.25266(11) 0.11258(9)
H4 H 0.5123 0.3209 0.1265
C7 C 0.15037(16) 0.38776(11) 0.08020(10)
C8 C -0.00546(16) 0.33472(11) 0.13503(10)
H5 H -0.0361 0.2606 0.1298
C9 C -0.11499(17) 0.39185(12) 0.19734(10)
H6 H -0.2213 0.3563 0.2352
C10 C -0.07095(17) 0.50090(11) 0.20513(10)
C11 C -0.18099(18) 0.55628(12) 0.28204(11)
H7 H -0.3073 0.5395 0.2830
H8 H -0.1655 0.6412 0.2586
C12 C -0.1249(2) 0.50926(13) 0.39409(11)
H9 H -0.1514 0.4265 0.4198
H10 H -0.1894 0.5504 0.4426
H11 H 0.0022 0.5206 0.3917
C13 C 0.42539(16) 0.21590(11) 0.31457(10)
C14 C 0.38633(18) 0.32710(12) 0.32569(10)
H12 H 0.3214 0.3789 0.2752
C15 C 0.44092(19) 0.36315(12) 0.40930(11)
H13 H 0.4145 0.4394 0.4152
C16 C 0.53390(19) 0.28820(13) 0.48426(11)
H14 H 0.5704 0.3124 0.5420
C17 C 0.5731(2) 0.17769(13) 0.47415(11)
H15 H 0.6375 0.1261 0.5250
C18 C 0.51895(18) 0.14149(12) 0.39004(11)
H16 H 0.5462 0.0653 0.3843
C19 C 0.67683(16) 0.08456(11) 0.13946(10)
H17 H 0.7209 0.1132 0.1969
C20 C 0.60461(16) 0.18847(11) 0.05871(10)
H18 H 0.5572 0.1613 0.0023
H19 H 0.7021 0.2427 0.0243
C21 C 0.83176(17) 0.03024(12) 0.08459(11)
H20 H 0.8798 -0.0344 0.1370
H21 H 0.9237 0.0883 0.0538
H22 H 0.7914 0.0019 0.0277
C22 C 0.23225(17) -0.14008(11) 0.28368(10)
C23 C 0.22471(16) -0.02057(11) 0.28131(9)
C24 C 0.07163(17) 0.01956(12) 0.33506(10)
H23 H 0.0633 0.0986 0.3356
C25 C -0.06362(18) -0.05362(13) 0.38592(11)
H24 H -0.1637 -0.0248 0.4218
C26 C -0.05638(19) -0.17101(13) 0.38568(12)
H25 H -0.1519 -0.2208 0.4202
C27 C 0.08894(18) -0.21305(12) 0.33546(11)
H26 H 0.0936 -0.2923 0.3354
C28 C 0.19530(17) 0.49716(11) 0.08488(10)
H27 H 0.3008 0.5330 0.0462
C29 C 0.08300(17) 0.55339(11) 0.14726(10)
H28 H 0.1117 0.6287 0.1504
loop_
_geom_bond_atom_site_label_1
_geom_bond_atom_site_label_2
_geom_bond_site_symmetry_1
_geom_bond_site_symmetry_2
S1 O2 1_555 1_555
O1 H1 1_555 1_555
O3 S1 1_555 1_555
C1 O1 1_555 1_555
C2 C1 1_555 1_555
H2 C2 1_555 1_555
C3 C2 1_555 1_555
C4 C3 1_555 1_555
C5 C4 1_555 1_555
H3 C5 1_555 1_555
C6 S1 1_555 1_555
H4 C6 1_555 1_555
C7 S1 1_555 1_555
C8 C7 1_555 1_555
H5 C8 1_555 1_555
C9 C8 1_555 1_555
H6 C9 1_555 1_555
C10 C9 1_555 1_555
C11 C10 1_555 1_555
H7 C11 1_555 1_555
H8 C11 1_555 1_555
C12 C11 1_555 1_555
H9 C12 1_555 1_555
H10 C12 1_555 1_555
H11 C12 1_555 1_555
C13 C5 1_555 1_555
C14 C13 1_555 1_555
H12 C14 1_555 1_555
C15 C14 1_555 1_555
H13 C15 1_555 1_555
C16 C15 1_555 1_555
H14 C16 1_555 1_555
C17 C16 1_555 1_555
H15 C17 1_555 1_555
C18 C13 1_555 1_555
H16 C18 1_555 1_555
C19 C3 1_555 1_555
H17 C19 1_555 1_555
C20 C6 1_555 1_555
H18 C20 1_555 1_555
H19 C20 1_555 1_555
C21 C19 1_555 1_555
H20 C21 1_555 1_555
H21 C21 1_555 1_555
H22 C21 1_555 1_555
C22 C1 1_555 1_555
C23 C4 1_555 1_555
C24 C23 1_555 1_555
H23 C24 1_555 1_555
C25 C24 1_555 1_555
H24 C25 1_555 1_555
C26 C25 1_555 1_555
H25 C26 1_555 1_555
C27 C22 1_555 1_555
H26 C27 1_555 1_555
C28 C7 1_555 1_555
H27 C28 1_555 1_555
C29 C10 1_555 1_555
H28 C29 1_555 1_555
C5 C6 1_555 1_555
C17 C18 1_555 1_555
C19 C20 1_555 1_555
C22 C23 1_555 1_555
C26 C27 1_555 1_555
C28 C29 1_555 1_555

#END
