
#######################################################################
#
#                 Cambridge Crystallographic Data Centre
#                                CCDC 
#
#######################################################################
#
# If this CIF has been generated from an entry in the Cambridge 
# Structural Database, then it will include bibliographic, chemical, 
# crystal, experimental, refinement or atomic coordinate data resulting 
# from the CCDC's data processing and validation procedures.
#
#######################################################################

data_FESWUY
_chemical_formula_moiety         'C25 H32 O1'
_chemical_name_systematic        2-benzyl-11-phenylcyclododecanone
_symmetry_cell_setting           monoclinic
_symmetry_space_group_name_H-M   'C 2/n'
_symmetry_Int_Tables_number      15
_space_group_name_Hall           '-C 2yac'
loop_
_symmetry_equiv_pos_site_id
_symmetry_equiv_pos_as_xyz
1 x,y,z
2 -x,1/2+y,1/2-z
3 1/2+x,1/2+y,z
4 1/2-x,y,1/2-z
5 -x,-y,-z
6 x,1/2-y,1/2+z
7 1/2-x,1/2-y,-z
8 1/2+x,-y,1/2+z
_cell_length_a                   23.4299(4)
_cell_length_b                   5.62885(9)
_cell_length_c                   30.3128(5)
_cell_angle_alpha                90
_cell_angle_beta                 101.0795(16)
_cell_angle_gamma                90
_cell_volume                     3923.24
_cell_formula_units_Z            8
loop_
_atom_site_label
_atom_site_type_symbol
_atom_site_fract_x
_atom_site_fract_y
_atom_site_fract_z
O1 O 0.28703(4) 0.72592(17) 0.10952(3)
C1 C 0.31239(6) 0.9463(2) 0.17809(4)
H1 H 0.2771 0.9912 0.1883
H2 H 0.3400 1.0754 0.1855
C2 C 0.19767(6) 1.1154(2) 0.04874(4)
C3 C 0.29842(6) 1.1456(2) 0.10015(4)
H3 H 0.2809 1.2709 0.1156
C4 C 0.31989(6) 0.5607(3) 0.27759(5)
H4 H 0.3060 0.4230 0.2623
C5 C 0.26305(6) 1.1263(2) 0.05230(4)
H5 H 0.2721 1.2620 0.0352
H6 H 0.2754 0.9848 0.0384
C6 C 0.34216(6) 0.7793(3) 0.34713(4)
H7 H 0.3430 0.7903 0.3779
C7 C 0.29829(5) 0.9182(2) 0.12713(4)
C8 C 0.10493(6) 0.9211(3) 0.02334(5)
H8 H 0.0838 0.7937 0.0090
C9 C 0.16836(6) 1.3022(2) 0.06496(4)
H9 H 0.1893 1.4317 0.0786
C10 C 0.36208(6) 0.9652(3) 0.32431(4)
H10 H 0.3767 1.1014 0.3399
C11 C 0.36182(6) 1.2198(2) 0.09933(4)
H11 H 0.3616 1.3826 0.0888
H12 H 0.3839 1.2165 0.1299
C12 C 0.33927(5) 0.7470(2) 0.25418(4)
C13 C 0.07649(6) 1.1058(3) 0.04019(4)
H13 H 0.0363 1.1019 0.0376
C14 C 0.32095(6) 0.5766(3) 0.32369(5)
H14 H 0.3074 0.4509 0.3387
C15 C 0.36045(6) 0.9501(2) 0.27820(4)
H15 H 0.3736 1.0771 0.2633
C16 C 0.10824(6) 1.2972(3) 0.06102(4)
H16 H 0.0893 1.4219 0.0723
C17 C 0.16515(6) 0.9261(2) 0.02779(4)
H17 H 0.1840 0.8007 0.0166
C18 C 0.39336(6) 1.0661(2) 0.07001(4)
H18 H 0.3760 1.0918 0.0387
H19 H 0.3882 0.9000 0.0768
C19 C 0.49241(6) 1.0692(3) 0.12497(5)
H20 H 0.5322 1.1237 0.1274
H21 H 0.4750 1.1592 0.1463
C20 C 0.33763(6) 0.7242(2) 0.20392(4)
H22 H 0.3109 0.5935 0.1933
C21 C 0.44813(6) 0.8234(3) 0.20896(4)
H23 H 0.4588 0.8180 0.2415
H24 H 0.4357 0.9840 0.2004
C22 C 0.49324(6) 0.8061(3) 0.13786(5)
H25 H 0.5244 0.7279 0.1265
H26 H 0.4569 0.7339 0.1233
C23 C 0.39751(6) 0.6526(2) 0.19342(4)
H27 H 0.4080 0.4990 0.2071
H28 H 0.3930 0.6328 0.1612
C24 C 0.45880(6) 1.1217(3) 0.07725(5)
H29 H 0.4758 1.0293 0.0560
H30 H 0.4637 1.2883 0.0707
C25 C 0.50170(6) 0.7626(3) 0.18870(5)
H31 H 0.5343 0.8571 0.2037
H32 H 0.5115 0.5968 0.1947
loop_
_geom_bond_atom_site_label_1
_geom_bond_atom_site_label_2
_geom_bond_site_symmetry_1
_geom_bond_site_symmetry_2
O1 C7 1_555 1_555
C1 H1 1_555 1_555
H2 C1 1_555 1_555
C2 C5 1_555 1_555
C3 H3 1_555 1_555
C4 H4 1_555 1_555
C5 C3 1_555 1_555
H5 C5 1_555 1_555
H6 C5 1_555 1_555
C6 H7 1_555 1_555
C7 C1 1_555 1_555
C8 H8 1_555 1_555
C9 C2 1_555 1_555
H9 C9 1_555 1_555
C10 C6 1_555 1_555
H10 C10 1_555 1_555
C11 C3 1_555 1_555
H11 C11 1_555 1_555
H12 C11 1_555 1_555
C12 C4 1_555 1_555
C13 C8 1_555 1_555
H13 C13 1_555 1_555
C14 C4 1_555 1_555
H14 C14 1_555 1_555
C15 C10 1_555 1_555
H15 C15 1_555 1_555
C16 C9 1_555 1_555
H16 C16 1_555 1_555
C17 C2 1_555 1_555
H17 C17 1_555 1_555
C18 C11 1_555 1_555
H18 C18 1_555 1_555
H19 C18 1_555 1_555
C19 H20 1_555 1_555
H21 C19 1_555 1_555
C20 C1 1_555 1_555
H22 C20 1_555 1_555
C21 H23 1_555 1_555
H24 C21 1_555 1_555
C22 C19 1_555 1_555
H25 C22 1_555 1_555
H26 C22 1_555 1_555
C23 C20 1_555 1_555
H27 C23 1_555 1_555
H28 C23 1_555 1_555
C24 C18 1_555 1_555
H29 C24 1_555 1_555
H30 C24 1_555 1_555
C25 C21 1_555 1_555
H31 C25 1_555 1_555
H32 C25 1_555 1_555
C3 C7 1_555 1_555
C6 C14 1_555 1_555
C8 C17 1_555 1_555
C12 C15 1_555 1_555
C12 C20 1_555 1_555
C13 C16 1_555 1_555
C19 C24 1_555 1_555
C21 C23 1_555 1_555
C22 C25 1_555 1_555

#END
