
#######################################################################
#
#                 Cambridge Crystallographic Data Centre
#                                CCDC 
#
#######################################################################
#
# If this CIF has been generated from an entry in the Cambridge 
# Structural Database, then it will include bibliographic, chemical, 
# crystal, experimental, refinement or atomic coordinate data resulting 
# from the CCDC's data processing and validation procedures.
#
#######################################################################

data_FESWOS
_chemical_formula_moiety         'C18 H16 Cl2 N4 O1'
_chemical_name_systematic        
5-chloro-N-(2-(6-(4-chlorophenoxy)pyridin-3-yl)ethyl)-6-methylpyrimidin-4-amine
_symmetry_cell_setting           monoclinic
_symmetry_space_group_name_H-M   'C c'
_symmetry_Int_Tables_number      9
_space_group_name_Hall           'C -2yc'
loop_
_symmetry_equiv_pos_site_id
_symmetry_equiv_pos_as_xyz
1 x,y,z
2 x,-y,1/2+z
3 1/2+x,1/2+y,z
4 1/2+x,1/2-y,1/2+z
_cell_length_a                   27.3387(8)
_cell_length_b                   16.8568(5)
_cell_length_c                   11.6803(3)
_cell_angle_alpha                90
_cell_angle_beta                 101.585(2)
_cell_angle_gamma                90
_cell_volume                     5273.13
_exptl_crystal_colour            colorless
_exptl_crystal_description       block
_cell_formula_units_Z            12
loop_
_atom_site_label
_atom_site_type_symbol
_atom_site_fract_x
_atom_site_fract_y
_atom_site_fract_z
Cl1 Cl 0.69306(4) 0.53421(7) -0.04916(9)
Cl2 Cl 0.28124(4) 1.00825(7) 0.22092(9)
O1 O 0.59317(11) 0.61380(16) 0.3364(2)
N1 N 0.54456(11) 0.70807(18) 0.2232(3)
N2 N 0.36868(11) 0.89852(18) 0.2875(3)
H1 H 0.3480 0.9005 0.2194
N3 N 0.39537(11) 0.94960(17) 0.4728(3)
N4 N 0.35457(12) 1.06109(19) 0.5396(3)
C1 C 0.66212(14) 0.5598(2) 0.0629(3)
C2 C 0.67626(14) 0.6270(2) 0.1267(3)
H2 H 0.7020 0.6599 0.1094
C3 C 0.65241(15) 0.6464(2) 0.2171(3)
H3 H 0.6617 0.6929 0.2623
C4 C 0.61512(15) 0.5978(2) 0.2408(3)
C5 C 0.60177(16) 0.5308(2) 0.1763(4)
H4 H 0.5762 0.4975 0.1937
C6 C 0.62507(16) 0.5111(2) 0.0865(4)
H5 H 0.6157 0.4646 0.0414
C7 C 0.56029(14) 0.6769(2) 0.3260(3)
C8 C 0.54607(14) 0.7010(2) 0.4285(3)
H6 H 0.5585 0.6756 0.5011
C9 C 0.51324(14) 0.7634(2) 0.4196(3)
H7 H 0.5023 0.7816 0.4872
C10 C 0.49587(13) 0.8002(2) 0.3122(3)
C11 C 0.51249(13) 0.7692(2) 0.2171(3)
H8 H 0.5005 0.7925 0.1427
C12 C 0.45898(14) 0.8675(2) 0.2965(4)
H9 H 0.4574 0.8923 0.2189
H10 H 0.4702 0.9084 0.3570
C13 C 0.40740(13) 0.8379(2) 0.3059(3)
H11 H 0.3975 0.7951 0.2478
H12 H 0.4094 0.8145 0.3844
C14 C 0.36312(13) 0.9514(2) 0.3695(3)
C15 C 0.32415(13) 1.0082(2) 0.3517(3)
C16 C 0.32110(14) 1.0624(2) 0.4372(3)
C17 C 0.38888(15) 1.0039(2) 0.5498(3)
H13 H 0.4118 1.0020 0.6226
C18 C 0.28166(14) 1.1250(2) 0.4255(4)
H14 H 0.2898 1.1622 0.4911
H15 H 0.2493 1.1002 0.4260
H16 H 0.2800 1.1537 0.3519
Cl3 Cl 0.69986(4) 0.20162(7) -0.05073(9)
Cl4 Cl 0.29309(4) 0.68424(7) 0.20912(9)
O2 O 0.60466(10) 0.28515(17) 0.3405(2)
N5 N 0.54007(11) 0.35005(18) 0.2177(3)
N6 N 0.38726(13) 0.5904(2) 0.2928(3)
H17 H 0.3671 0.5854 0.2242
N7 N 0.40112(12) 0.63797(19) 0.4817(3)
N8 N 0.35060(13) 0.74094(19) 0.5375(3)
C19 C 0.66985(13) 0.2283(2) 0.0619(3)
C20 C 0.67819(15) 0.3021(2) 0.1131(3)
H18 H 0.6993 0.3392 0.0856
C21 C 0.65557(15) 0.3212(2) 0.2044(3)
H19 H 0.6614 0.3715 0.2412
C22 C 0.62484(14) 0.2681(2) 0.2421(3)
C23 C 0.61601(15) 0.1947(2) 0.1917(4)
H20 H 0.5949 0.1580 0.2199
C24 C 0.63833(15) 0.1749(2) 0.0993(4)
H21 H 0.6319 0.1249 0.0618
C25 C 0.56156(14) 0.3303(2) 0.3242(3)
C26 C 0.54432(15) 0.3503(2) 0.4248(4)
H22 H 0.5613 0.3342 0.5003
C27 C 0.50151(16) 0.3946(3) 0.4087(4)
H23 H 0.4881 0.4099 0.4744
C28 C 0.47724(16) 0.4177(2) 0.2968(4)
C29 C 0.49834(14) 0.3941(2) 0.2057(4)
H24 H 0.4825 0.4098 0.1291
C30 C 0.42939(16) 0.4659(3) 0.2768(5)
H25 H 0.4145 0.4653 0.1922
H26 H 0.4055 0.4395 0.3179
C31 C 0.43516(17) 0.5464(3) 0.3149(5)
H27 H 0.4589 0.5733 0.2739
H28 H 0.4496 0.5475 0.3997
C32 C 0.37347(14) 0.6374(2) 0.3727(3)
C33 C 0.33082(13) 0.6875(2) 0.3474(3)
C34 C 0.32102(14) 0.7392(2) 0.4301(3)
C35 C 0.38744(16) 0.6888(2) 0.5554(4)
H29 H 0.4069 0.6876 0.6326
C36 C 0.27883(15) 0.7975(2) 0.4092(4)
H30 H 0.2839 0.8368 0.4722
H31 H 0.2473 0.7695 0.4075
H32 H 0.2777 0.8243 0.3342
Cl5 Cl 0.72116(4) -0.11126(7) -0.05700(9)
Cl6 Cl 0.28829(4) 0.32369(7) 0.23633(9)
O3 O 0.60424(10) -0.06917(17) 0.3093(2)
N9 N 0.54534(11) 0.00905(18) 0.1917(3)
N10 N 0.37325(11) 0.20643(18) 0.2874(3)
H33 H 0.3500 0.2081 0.2234
N11 N 0.40851(12) 0.25866(19) 0.4681(3)
N12 N 0.37574(13) 0.3761(2) 0.5400(3)
C37 C 0.68520(13) -0.0976(2) 0.0495(3)
C38 C 0.69120(15) -0.0295(2) 0.1156(4)
H34 H 0.7141 0.0102 0.1027
C39 C 0.66346(16) -0.0197(2) 0.2011(4)
H35 H 0.6673 0.0268 0.2480
C40 C 0.63031(14) -0.0774(2) 0.2179(3)
C41 C 0.62414(15) -0.1454(2) 0.1517(4)
H36 H 0.6009 -0.1848 0.1641
C42 C 0.65223(14) -0.1556(2) 0.0666(3)
H37 H 0.6487 -0.2024 0.0203
C43 C 0.51003(13) 0.0660(2) 0.1839(3)
H38 H 0.4929 0.0812 0.1081
C44 C 0.49726(14) 0.1035(2) 0.2784(3)
C45 C 0.52195(14) 0.0786(2) 0.3882(3)
H39 H 0.5138 0.1018 0.4561
C46 C 0.55807(15) 0.0208(2) 0.3998(3)
H40 H 0.5754 0.0036 0.4744
C47 C 0.56807(14) -0.0110(2) 0.2979(3)
C48 C 0.45880(14) 0.1692(2) 0.2624(4)
H41 H 0.4510 0.1853 0.1792
H42 H 0.4729 0.2159 0.3091
C49 C 0.41091(14) 0.1434(2) 0.2997(4)
H43 H 0.3967 0.0973 0.2518
H44 H 0.4191 0.1260 0.3823
C50 C 0.37287(13) 0.2619(2) 0.3704(3)
C51 C 0.33626(13) 0.3222(2) 0.3589(3)
C52 C 0.33893(15) 0.3794(2) 0.4430(4)
C53 C 0.40702(16) 0.3155(2) 0.5460(4)
H45 H 0.4318 0.3123 0.6157
C54 C 0.30333(16) 0.4470(2) 0.4348(4)
H46 H 0.2695 0.4266 0.4319
H47 H 0.3040 0.4776 0.3638
H48 H 0.3130 0.4813 0.5034
loop_
_geom_bond_atom_site_label_1
_geom_bond_atom_site_label_2
_geom_bond_site_symmetry_1
_geom_bond_site_symmetry_2
Cl1 C1 1_555 1_555
Cl2 C15 1_555 1_555
O1 C4 1_555 1_555
N1 C7 1_555 1_555
N2 H1 1_555 1_555
N3 C14 1_555 1_555
N4 C16 1_555 1_555
C1 C2 1_555 1_555
C2 H2 1_555 1_555
C3 C2 1_555 1_555
H3 C3 1_555 1_555
C4 C3 1_555 1_555
C5 C4 1_555 1_555
H4 C5 1_555 1_555
C6 C1 1_555 1_555
H5 C6 1_555 1_555
C7 O1 1_555 1_555
C8 C7 1_555 1_555
H6 C8 1_555 1_555
C9 C8 1_555 1_555
H7 C9 1_555 1_555
C10 C9 1_555 1_555
C11 N1 1_555 1_555
H8 C11 1_555 1_555
C12 C10 1_555 1_555
H9 C12 1_555 1_555
H10 C12 1_555 1_555
C13 N2 1_555 1_555
H11 C13 1_555 1_555
H12 C13 1_555 1_555
C14 N2 1_555 1_555
C15 C14 1_555 1_555
C16 C15 1_555 1_555
C17 N3 1_555 1_555
H13 C17 1_555 1_555
C18 C16 1_555 1_555
H14 C18 1_555 1_555
H15 C18 1_555 1_555
H16 C18 1_555 1_555
Cl3 C19 1_555 1_555
Cl4 C33 1_555 1_555
O2 C22 1_555 1_555
N5 C25 1_555 1_555
N6 H17 1_555 1_555
N7 C32 1_555 1_555
N8 C34 1_555 1_555
C19 C20 1_555 1_555
C20 H18 1_555 1_555
C21 C20 1_555 1_555
H19 C21 1_555 1_555
C22 C21 1_555 1_555
C23 C22 1_555 1_555
H20 C23 1_555 1_555
C24 C19 1_555 1_555
H21 C24 1_555 1_555
C25 O2 1_555 1_555
C26 C25 1_555 1_555
H22 C26 1_555 1_555
C27 C26 1_555 1_555
H23 C27 1_555 1_555
C28 C27 1_555 1_555
C29 N5 1_555 1_555
H24 C29 1_555 1_555
C30 C28 1_555 1_555
H25 C30 1_555 1_555
H26 C30 1_555 1_555
C31 N6 1_555 1_555
H27 C31 1_555 1_555
H28 C31 1_555 1_555
C32 N6 1_555 1_555
C33 C32 1_555 1_555
C34 C33 1_555 1_555
C35 N7 1_555 1_555
H29 C35 1_555 1_555
C36 C34 1_555 1_555
H30 C36 1_555 1_555
H31 C36 1_555 1_555
H32 C36 1_555 1_555
Cl5 C37 1_555 1_555
Cl6 C51 1_555 1_555
O3 C40 1_555 1_555
N9 C43 1_555 1_555
N10 H33 1_555 1_555
N11 C50 1_555 1_555
N12 C52 1_555 1_555
C37 C38 1_555 1_555
C38 H34 1_555 1_555
C39 C38 1_555 1_555
H35 C39 1_555 1_555
C40 C39 1_555 1_555
C41 C40 1_555 1_555
H36 C41 1_555 1_555
C42 C37 1_555 1_555
H37 C42 1_555 1_555
C43 H38 1_555 1_555
C44 C43 1_555 1_555
C45 C44 1_555 1_555
H39 C45 1_555 1_555
C46 C45 1_555 1_555
H40 C46 1_555 1_555
C47 O3 1_555 1_555
C48 C44 1_555 1_555
H41 C48 1_555 1_555
H42 C48 1_555 1_555
C49 N10 1_555 1_555
H43 C49 1_555 1_555
H44 C49 1_555 1_555
C50 N10 1_555 1_555
C51 C50 1_555 1_555
C52 C51 1_555 1_555
C53 N11 1_555 1_555
H45 C53 1_555 1_555
C54 C52 1_555 1_555
H46 C54 1_555 1_555
H47 C54 1_555 1_555
H48 C54 1_555 1_555
N4 C17 1_555 1_555
C5 C6 1_555 1_555
C10 C11 1_555 1_555
C12 C13 1_555 1_555
N8 C35 1_555 1_555
C23 C24 1_555 1_555
C28 C29 1_555 1_555
C30 C31 1_555 1_555
N9 C47 1_555 1_555
N12 C53 1_555 1_555
C41 C42 1_555 1_555
C46 C47 1_555 1_555
C48 C49 1_555 1_555

#END
