
#######################################################################
#
#                 Cambridge Crystallographic Data Centre
#                                CCDC 
#
#######################################################################
#
# If this CIF has been generated from an entry in the Cambridge 
# Structural Database, then it will include bibliographic, chemical, 
# crystal, experimental, refinement or atomic coordinate data resulting 
# from the CCDC's data processing and validation procedures.
#
#######################################################################

data_FESXUZ
_chemical_formula_moiety         'C14 H15 N1 O3'
_chemical_name_systematic        
3-acetyl-4-anilino-5,5-dimethylfuran-2(5H)-one
_symmetry_cell_setting           monoclinic
_symmetry_space_group_name_H-M   'P 21/n'
_symmetry_Int_Tables_number      14
_space_group_name_Hall           '-P 2yn'
loop_
_symmetry_equiv_pos_site_id
_symmetry_equiv_pos_as_xyz
1 x,y,z
2 1/2-x,1/2+y,1/2-z
3 -x,-y,-z
4 1/2+x,1/2-y,1/2+z
_cell_length_a                   11.2073(3)
_cell_length_b                   7.6271(2)
_cell_length_c                   15.3718(4)
_cell_angle_alpha                90
_cell_angle_beta                 104.397(3)
_cell_angle_gamma                90
_cell_volume                     1272.71
_cell_formula_units_Z            4
loop_
_atom_site_label
_atom_site_type_symbol
_atom_site_fract_x
_atom_site_fract_y
_atom_site_fract_z
O1 O 0.39118(9) 0.46078(15) 0.13057(7)
O2 O 0.23810(9) 0.53111(14) 0.19415(7)
O3 O 0.12468(9) 0.06565(14) 0.00049(7)
C1 C -0.13597(13) 0.1598(2) 0.20801(9)
H1 H -0.0701 0.1027 0.2464
C2 C -0.22008(13) 0.3217(2) 0.07173(10)
H2 H -0.2099 0.3726 0.0191
C3 C 0.09307(12) 0.32209(19) 0.12652(9)
N1 N -0.00686(10) 0.22354(17) 0.10420(7)
H3 H -0.0031 0.1372 0.0690
C4 C 0.20866(13) 0.17373(19) 0.02690(9)
C5 C 0.31966(13) 0.1723(2) -0.01168(10)
H4 H 0.3921 0.1483 0.0352
H5 H 0.3278 0.2845 -0.0379
H6 H 0.3098 0.0830 -0.0570
C6 C 0.19696(12) 0.30240(19) 0.09340(9)
C7 C -0.12131(12) 0.24000(19) 0.13038(9)
C8 C 0.28740(13) 0.4316(2) 0.13692(9)
C9 C -0.25030(14) 0.1658(2) 0.22764(10)
H7 H -0.2609 0.1134 0.2798
C10 C 0.11105(12) 0.4789(2) 0.18954(9)
C11 C -0.33382(13) 0.3270(2) 0.09200(10)
H8 H -0.4000 0.3825 0.0532
C12 C 0.10425(14) 0.4366(2) 0.28501(9)
H9 H 0.1530 0.3344 0.3059
H10 H 0.0202 0.4146 0.2858
H11 H 0.1353 0.5340 0.3236
C13 C 0.02937(14) 0.6332(2) 0.14865(10)
H12 H 0.0522 0.7349 0.1859
H13 H -0.0553 0.6047 0.1447
H14 H 0.0398 0.6571 0.0897
C14 C -0.34882(13) 0.2493(2) 0.17012(10)
H15 H -0.4250 0.2533 0.1839
loop_
_geom_bond_atom_site_label_1
_geom_bond_atom_site_label_2
_geom_bond_site_symmetry_1
_geom_bond_site_symmetry_2
O1 C8 1_555 1_555
O2 C8 1_555 1_555
O3 C4 1_555 1_555
C1 H1 1_555 1_555
C2 H2 1_555 1_555
C3 N1 1_555 1_555
N1 H3 1_555 1_555
C4 C5 1_555 1_555
C5 H4 1_555 1_555
H5 C5 1_555 1_555
H6 C5 1_555 1_555
C6 C3 1_555 1_555
C7 C1 1_555 1_555
C8 C6 1_555 1_555
C9 C1 1_555 1_555
H7 C9 1_555 1_555
C10 O2 1_555 1_555
C11 C2 1_555 1_555
H8 C11 1_555 1_555
C12 C10 1_555 1_555
H9 C12 1_555 1_555
H10 C12 1_555 1_555
H11 C12 1_555 1_555
C13 C10 1_555 1_555
H12 C13 1_555 1_555
H13 C13 1_555 1_555
H14 C13 1_555 1_555
C14 C9 1_555 1_555
H15 C14 1_555 1_555
C2 C7 1_555 1_555
C3 C10 1_555 1_555
N1 C7 1_555 1_555
C4 C6 1_555 1_555
C11 C14 1_555 1_555

#END
