
#######################################################################
#
#                 Cambridge Crystallographic Data Centre
#                                CCDC 
#
#######################################################################
#
# If this CIF has been generated from an entry in the Cambridge 
# Structural Database, then it will include bibliographic, chemical, 
# crystal, experimental, refinement or atomic coordinate data resulting 
# from the CCDC's data processing and validation procedures.
#
#######################################################################

data_FESXEJ
_chemical_formula_moiety         'C19 H28 O2'
_chemical_name_systematic        2-methoxy-11-phenylcyclododecanone
_symmetry_cell_setting           orthorhombic
_symmetry_space_group_name_H-M   'P b c a'
_symmetry_Int_Tables_number      61
_space_group_name_Hall           '-P 2ac 2ab'
loop_
_symmetry_equiv_pos_site_id
_symmetry_equiv_pos_as_xyz
1 x,y,z
2 1/2-x,-y,1/2+z
3 1/2+x,1/2-y,-z
4 -x,1/2+y,1/2-z
5 -x,-y,-z
6 1/2+x,y,1/2-z
7 1/2-x,1/2+y,z
8 x,1/2-y,1/2+z
_cell_length_a                   12.4310(8)
_cell_length_b                   10.7820(5)
_cell_length_c                   24.889(3)
_cell_angle_alpha                90
_cell_angle_beta                 90
_cell_angle_gamma                90
_cell_volume                     3335.9
_cell_formula_units_Z            8
loop_
_atom_site_label
_atom_site_type_symbol
_atom_site_fract_x
_atom_site_fract_y
_atom_site_fract_z
O1 O 0.74734(9) 0.12113(10) 0.66417(5)
O2 O 0.56601(9) 0.04585(10) 0.71813(5)
C1 C 0.58429(13) -0.12362(14) 0.65804(7)
H1 H 0.5213 -0.1612 0.6742
H2 H 0.6324 -0.1902 0.6475
C2 C 0.50327(13) -0.13992(15) 0.56427(7)
H3 H 0.4470 -0.1902 0.5802
H4 H 0.4705 -0.0897 0.5364
C3 C 0.64063(13) -0.04424(14) 0.70034(7)
H5 H 0.6601 -0.0973 0.7308
C4 C 0.83954(12) -0.19731(14) 0.55720(6)
H6 H 0.7954 -0.2311 0.5858
H7 H 0.9061 -0.2443 0.5563
C5 C 1.02596(13) -0.10079(14) 0.63074(6)
C6 C 0.58654(12) -0.22595(15) 0.53839(7)
H8 H 0.5491 -0.2885 0.5176
H9 H 0.6259 -0.2682 0.5666
C7 C 0.74345(13) 0.01254(15) 0.67711(6)
C8 C 0.78060(12) -0.21450(15) 0.50355(6)
H10 H 0.8234 -0.1769 0.4753
H11 H 0.7757 -0.3025 0.4959
C9 C 0.54930(13) -0.05362(14) 0.60755(7)
H12 H 0.6107 -0.0095 0.5929
H13 H 0.4953 0.0073 0.6172
C10 C 0.83985(12) -0.07264(14) 0.67224(6)
H14 H 0.8145 -0.1569 0.6671
H15 H 0.8798 -0.0704 0.7057
C11 C 1.23161(13) -0.20509(17) 0.64035(7)
H16 H 1.3000 -0.2389 0.6442
C12 C 0.86549(13) -0.06218(15) 0.57013(6)
H17 H 0.7996 -0.0144 0.5677
H18 H 0.9143 -0.0310 0.5429
C13 C 0.66737(13) -0.15909(15) 0.50161(7)
H19 H 0.6412 -0.1625 0.4649
H20 H 0.6711 -0.0725 0.5120
C14 C 0.91634(12) -0.03889(14) 0.62583(6)
H21 H 0.9290 0.0506 0.6284
C15 C 1.11602(13) -0.04223(16) 0.60921(7)
H22 H 1.1076 0.0328 0.5912
C16 C 1.04061(13) -0.21477(15) 0.65608(7)
H23 H 0.9815 -0.2569 0.6699
C17 C 1.14278(13) -0.26621(16) 0.66101(7)
H24 H 1.1515 -0.3421 0.6783
C18 C 1.21775(14) -0.09326(16) 0.61403(7)
H25 H 1.2769 -0.0523 0.5995
C19 C 0.60248(16) 0.11538(18) 0.76327(7)
H26 H 0.6576 0.1721 0.7521
H27 H 0.6310 0.0599 0.7899
H28 H 0.5434 0.1610 0.7783
loop_
_geom_bond_atom_site_label_1
_geom_bond_atom_site_label_2
_geom_bond_site_symmetry_1
_geom_bond_site_symmetry_2
O1 C7 1_555 1_555
O2 C3 1_555 1_555
C1 H1 1_555 1_555
H2 C1 1_555 1_555
C2 H3 1_555 1_555
H4 C2 1_555 1_555
C3 C1 1_555 1_555
H5 C3 1_555 1_555
C4 H6 1_555 1_555
H7 C4 1_555 1_555
C5 C14 1_555 1_555
C6 C2 1_555 1_555
H8 C6 1_555 1_555
H9 C6 1_555 1_555
C7 C3 1_555 1_555
C8 C4 1_555 1_555
H10 C8 1_555 1_555
H11 C8 1_555 1_555
C9 C1 1_555 1_555
H12 C9 1_555 1_555
H13 C9 1_555 1_555
C10 C7 1_555 1_555
H14 C10 1_555 1_555
H15 C10 1_555 1_555
C11 H16 1_555 1_555
C12 C4 1_555 1_555
H17 C12 1_555 1_555
H18 C12 1_555 1_555
C13 C6 1_555 1_555
H19 C13 1_555 1_555
H20 C13 1_555 1_555
C14 C10 1_555 1_555
H21 C14 1_555 1_555
C15 C5 1_555 1_555
H22 C15 1_555 1_555
C16 C5 1_555 1_555
H23 C16 1_555 1_555
C17 C11 1_555 1_555
H24 C17 1_555 1_555
C18 C11 1_555 1_555
H25 C18 1_555 1_555
C19 O2 1_555 1_555
H26 C19 1_555 1_555
H27 C19 1_555 1_555
H28 C19 1_555 1_555
C2 C9 1_555 1_555
C8 C13 1_555 1_555
C12 C14 1_555 1_555
C15 C18 1_555 1_555
C16 C17 1_555 1_555

#END
