
#######################################################################
#
#                 Cambridge Crystallographic Data Centre
#                                CCDC 
#
#######################################################################
#
# If this CIF has been generated from an entry in the Cambridge 
# Structural Database, then it will include bibliographic, chemical, 
# crystal, experimental, refinement or atomic coordinate data resulting 
# from the CCDC's data processing and validation procedures.
#
#######################################################################

data_FETNOI
_chemical_formula_moiety         'C21 H16 N4 O1 S1'
_chemical_name_systematic        
2-(Benzotriazol-1-yl)-2-(\a-hydroxybenzyl)-N-phenylthioacrylamide
_symmetry_cell_setting           monoclinic
_symmetry_space_group_name_H-M   'C 2/c'
_symmetry_Int_Tables_number      15
_space_group_name_Hall           '-C 2yn'
loop_
_symmetry_equiv_pos_site_id
_symmetry_equiv_pos_as_xyz
1 x,y,z
2 1/2+x,1/2+y,z
3 -x,y,1/2-z
4 1/2-x,1/2+y,1/2-z
5 -x,-y,-z
6 1/2-x,1/2-y,-z
7 x,-y,1/2+z
8 1/2+x,1/2-y,1/2+z
_cell_length_a                   19.089(3)
_cell_length_b                   8.4715(11)
_cell_length_c                   23.161(3)
_cell_angle_alpha                90
_cell_angle_beta                 90.315(2)
_cell_angle_gamma                90
_cell_volume                     3745.37
_exptl_crystal_colour            colorless
_exptl_crystal_description       block
_chemical_melting_point          '433-434 K'
_cell_formula_units_Z            8
_exptl_crystal_recrystallization_method cyclohexane
loop_
_atom_site_label
_atom_site_type_symbol
_atom_site_fract_x
_atom_site_fract_y
_atom_site_fract_z
S1 S 0.24742(3) 0.07308(7) 0.21558(2)
N1 N 0.35250(7) 0.21193(16) 0.26950(6)
H1 H 0.3882(6) 0.2729(16) 0.2707(6)
N2 N 0.41692(7) 0.33361(15) 0.17503(5)
N3 N 0.48164(7) 0.27141(16) 0.18477(5)
N4 N 0.52655(7) 0.38526(17) 0.18781(6)
O1 O 0.28639(8) 0.10816(18) 0.09654(6)
H2 H 0.2628(15) 0.090(4) 0.1282(9)
C1 C 0.32212(8) 0.17782(18) 0.21948(7)
C2 C 0.35720(8) 0.23343(18) 0.16755(7)
C3 C 0.34178(9) 0.19361(19) 0.11193(7)
C4 C 0.38581(10) 0.2418(2) 0.06241(7)
C5 C 0.36006(13) 0.3431(2) 0.02104(9)
H3 H 0.3146 0.3818 0.0237
C6 C 0.40242(16) 0.3872(3) -0.02467(10)
H4 H 0.3855 0.4573 -0.0523
C7 C 0.46866(15) 0.3287(3) -0.02943(9)
H5 H 0.4971 0.3605 -0.0598
C8 C 0.49289(13) 0.2246(3) 0.00995(9)
H6 H 0.5374 0.1817 0.0059
C9 C 0.45214(12) 0.1819(3) 0.05592(8)
H7 H 0.4697 0.1113 0.0831
C10 C 0.42170(8) 0.49442(18) 0.17111(6)
C11 C 0.49238(8) 0.52626(19) 0.17947(6)
C12 C 0.51744(11) 0.6803(2) 0.17999(7)
H8 H 0.5646 0.7026 0.1861
C13 C 0.46967(14) 0.7967(2) 0.17111(8)
H9 H 0.4845 0.9013 0.1712
C14 C 0.39901(13) 0.7632(2) 0.16190(9)
H10 H 0.3682 0.8467 0.1559
C15 C 0.37307(10) 0.6131(2) 0.16130(8)
H11 H 0.3259 0.5918 0.1547
C16 C 0.33475(8) 0.15150(19) 0.32506(7)
C17 C 0.33230(10) -0.0080(2) 0.33510(9)
H12 H 0.3377 -0.0790 0.3048
C18 C 0.32177(12) -0.0623(3) 0.39046(12)
H13 H 0.3200 -0.1703 0.3974
C19 C 0.31393(12) 0.0404(3) 0.43522(10)
H14 H 0.3077 0.0025 0.4725
C20 C 0.31529(12) 0.1989(3) 0.42518(9)
H15 H 0.3089 0.2695 0.4555
C21 C 0.32614(9) 0.2545(2) 0.36987(7)
H16 H 0.3276 0.3627 0.3631
loop_
_geom_bond_atom_site_label_1
_geom_bond_atom_site_label_2
_geom_bond_site_symmetry_1
_geom_bond_site_symmetry_2
S1 C1 1_555 1_555
N1 H1 1_555 1_555
N2 N3 1_555 1_555
N3 N4 1_555 1_555
N4 C11 1_555 1_555
O1 H2 1_555 1_555
C1 N1 1_555 1_555
C2 N2 1_555 1_555
C3 O1 1_555 1_555
C4 C3 1_555 1_555
C5 C4 1_555 1_555
H3 C5 1_555 1_555
C6 C5 1_555 1_555
H4 C6 1_555 1_555
C7 C6 1_555 1_555
H5 C7 1_555 1_555
C8 C7 1_555 1_555
H6 C8 1_555 1_555
C9 C4 1_555 1_555
H7 C9 1_555 1_555
C10 N2 1_555 1_555
C11 C10 1_555 1_555
C12 C11 1_555 1_555
H8 C12 1_555 1_555
C13 C12 1_555 1_555
H9 C13 1_555 1_555
C14 C13 1_555 1_555
H10 C14 1_555 1_555
C15 C10 1_555 1_555
H11 C15 1_555 1_555
C16 N1 1_555 1_555
C17 C16 1_555 1_555
H12 C17 1_555 1_555
C18 C17 1_555 1_555
H13 C18 1_555 1_555
C19 C18 1_555 1_555
H14 C19 1_555 1_555
C20 C19 1_555 1_555
H15 C20 1_555 1_555
C21 C16 1_555 1_555
H16 C21 1_555 1_555
C1 C2 1_555 1_555
C2 C3 1_555 1_555
C8 C9 1_555 1_555
C14 C15 1_555 1_555
C20 C21 1_555 1_555

#END
