
#######################################################################
#
#                 Cambridge Crystallographic Data Centre
#                                CCDC 
#
#######################################################################
#
# If this CIF has been generated from an entry in the Cambridge 
# Structural Database, then it will include bibliographic, chemical, 
# crystal, experimental, refinement or atomic coordinate data resulting 
# from the CCDC's data processing and validation procedures.
#
#######################################################################

data_FETPEA
_chemical_formula_moiety         'C21 H20 N2 S1'
_chemical_name_systematic        
(8E)-8-Benzylidene-3,4,5,6,7,8-hexahydro-4-phenylquinazoline-2(1H)-thione
_symmetry_cell_setting           triclinic
_symmetry_space_group_name_H-M   'P -1'
_symmetry_Int_Tables_number      2
_space_group_name_Hall           '-P 1'
loop_
_symmetry_equiv_pos_site_id
_symmetry_equiv_pos_as_xyz
1 x,y,z
2 -x,-y,-z
_cell_length_a                   10.472(3)
_cell_length_b                   13.526(4)
_cell_length_c                   14.963(5)
_cell_angle_alpha                113.440(5)
_cell_angle_beta                 100.681(6)
_cell_angle_gamma                104.926(6)
_cell_volume                     1777.15
_exptl_crystal_colour            colorless
_exptl_crystal_description       block
_chemical_melting_point          '469-470 K'
_cell_formula_units_Z            4
_exptl_crystal_recrystallization_method 'ethyl acetate/methanol'
loop_
_atom_site_label
_atom_site_type_symbol
_atom_site_fract_x
_atom_site_fract_y
_atom_site_fract_z
S1 S -0.04098(7) 0.32197(6) 0.43267(6)
N1 N 0.1856(2) 0.48362(19) 0.45416(18)
H1 H 0.152(3) 0.528(2) 0.4929(19)
N2 N 0.1283(2) 0.3042(2) 0.32088(18)
H2 H 0.074(3) 0.234(2) 0.286(2)
C1 C 0.0983(3) 0.3720(2) 0.3989(2)
C2 C 0.2255(3) 0.3461(2) 0.2734(2)
H3 H 0.2752 0.2928 0.2534
C3 C 0.3325(3) 0.4641(2) 0.3508(2)
C4 C 0.3084(2) 0.5284(2) 0.4356(2)
C5 C 0.4112(3) 0.6440(2) 0.5147(2)
C6 C 0.5394(8) 0.6854(7) 0.4855(5)
H4 H 0.5680 0.7686 0.5114
H5 H 0.6151 0.6711 0.5201
C7 C 0.5192(9) 0.6295(5) 0.3714(6)
H6 H 0.4560 0.6548 0.3376
H7 H 0.6083 0.6545 0.3610
C8 C 0.4607(12) 0.4990(8) 0.3235(11)
H8 H 0.4379 0.4651 0.2493
H9 H 0.5292 0.4720 0.3493
C12 C 0.1480(3) 0.3453(2) 0.1762(2)
C13 C 0.1313(3) 0.2605(3) 0.0802(2)
H16 H 0.1674 0.2030 0.0745
C14 C 0.0613(4) 0.2605(3) -0.0078(3)
H17 H 0.0505 0.2031 -0.0723
C15 C 0.0081(3) 0.3441(4) -0.0001(3)
H18 H -0.0368 0.3449 -0.0594
C16 C 0.0204(3) 0.4269(3) 0.0943(3)
H19 H -0.0189 0.4824 0.0993
C17 C 0.0911(3) 0.4279(3) 0.1821(2)
H20 H 0.1005 0.4851 0.2462
C18 C 0.4014(3) 0.6943(2) 0.6081(2)
H21 H 0.3229 0.6526 0.6165
C19 C 0.4910(3) 0.8038(2) 0.7010(2)
C20 C 0.4303(3) 0.8478(3) 0.7760(2)
H22 H 0.3367 0.8087 0.7640
C21 C 0.5053(4) 0.9475(3) 0.8672(2)
H23 H 0.4617 0.9764 0.9150
C22 C 0.6456(4) 1.0046(3) 0.8876(3)
H24 H 0.6978 1.0706 0.9500
C23 C 0.7062(3) 0.9629(3) 0.8153(3)
H25 H 0.8002 1.0018 0.8283
C24 C 0.6310(3) 0.8643(2) 0.7232(2)
H26 H 0.6751 0.8377 0.6750
S2 S 0.91078(8) 1.03371(6) 0.14923(6)
N3 N 0.6895(2) 0.8746(2) 0.1350(2)
H27 H 0.697(3) 0.839(2) 0.078(2)
N4 N 0.7905(2) 1.0357(2) 0.29031(18)
H28 H 0.845(3) 1.101(2) 0.3257(19)
C25 C 0.7919(3) 0.9798(2) 0.1956(2)
C26 C 0.6871(3) 1.0001(2) 0.33676(19)
H29 H 0.6441 1.0585 0.3566
C27 C 0.5733(2) 0.8864(2) 0.2579(2)
C28 C 0.5779(3) 0.8286(2) 0.1634(2)
C29 C 0.4669(3) 0.7179(2) 0.0838(2)
C30 C 0.3706(3) 0.6606(2) 0.1268(2)
H30 H 0.4170 0.6250 0.1601
H31 H 0.2876 0.6002 0.0711
C31 C 0.3292(3) 0.7483(2) 0.2035(2)
H32 H 0.2680 0.7096 0.2306
H33 H 0.2770 0.7795 0.1683
C32 C 0.4533(3) 0.8476(2) 0.2924(2)
H34 H 0.4251 0.9123 0.3255
H35 H 0.4832 0.8231 0.3429
C33 C 0.7567(2) 0.9974(2) 0.43388(19)
C34 C 0.7989(3) 0.9073(2) 0.4284(2)
H36 H 0.7848 0.8477 0.3642
C35 C 0.8610(3) 0.9036(3) 0.5154(3)
H37 H 0.8895 0.8423 0.5099
C36 C 0.8810(3) 0.9897(4) 0.6098(3)
H38 H 0.9222 0.9868 0.6689
C37 C 0.8407(3) 1.0798(3) 0.6179(2)
H39 H 0.8550 1.1386 0.6826
C38 C 0.7778(3) 1.0849(3) 0.5294(2)
H40 H 0.7506 1.1468 0.5352
C39 C 0.4517(3) 0.6779(2) -0.0162(2)
H41 H 0.5160 0.7238 -0.0325
C40 C 0.3467(3) 0.5706(2) -0.1042(2)
C41 C 0.3088(3) 0.4638(2) -0.1051(2)
H42 H 0.3511 0.4576 -0.0482
C42 C 0.2090(3) 0.3671(3) -0.1898(3)
H43 H 0.1843 0.2963 -0.1891
C43 C 0.1456(3) 0.3733(3) -0.2746(2)
H44 H 0.0779 0.3075 -0.3312
C44 C 0.1829(3) 0.4776(3) -0.2756(2)
H45 H 0.1403 0.4829 -0.3329
C45 C 0.2831(3) 0.5743(3) -0.1917(2)
H46 H 0.3089 0.6442 -0.1939
C9? C 0.4971(13) 0.7039(8) 0.4684(10)
H10? H 0.5662 0.7781 0.5215
H11? H 0.4383 0.7164 0.4190
C10? C 0.5674(9) 0.6231(8) 0.4159(11)
H12? H 0.6177 0.6053 0.4651
H13? H 0.6345 0.6615 0.3922
C11? C 0.4613(13) 0.5112(12) 0.3249(11)
H14? H 0.5043 0.4538 0.3048
H15? H 0.4332 0.5252 0.2669
loop_
_geom_bond_atom_site_label_1
_geom_bond_atom_site_label_2
_geom_bond_site_symmetry_1
_geom_bond_site_symmetry_2
S1 C1 1_555 1_555
N1 H1 1_555 1_555
N2 H2 1_555 1_555
C1 N1 1_555 1_555
C2 N2 1_555 1_555
H3 C2 1_555 1_555
C3 C2 1_555 1_555
C4 N1 1_555 1_555
C5 C4 1_555 1_555
C6 C5 1_555 1_555
H4 C6 1_555 1_555
H5 C6 1_555 1_555
C7 C6 1_555 1_555
H6 C7 1_555 1_555
H7 C7 1_555 1_555
C8 C3 1_555 1_555
H8 C8 1_555 1_555
H9 C8 1_555 1_555
C12 C2 1_555 1_555
C13 C12 1_555 1_555
H16 C13 1_555 1_555
C14 C13 1_555 1_555
H17 C14 1_555 1_555
C15 C14 1_555 1_555
H18 C15 1_555 1_555
C16 C15 1_555 1_555
H19 C16 1_555 1_555
C17 C12 1_555 1_555
H20 C17 1_555 1_555
C18 C5 1_555 1_555
H21 C18 1_555 1_555
C19 C18 1_555 1_555
C20 C19 1_555 1_555
H22 C20 1_555 1_555
C21 C20 1_555 1_555
H23 C21 1_555 1_555
C22 C21 1_555 1_555
H24 C22 1_555 1_555
C23 C22 1_555 1_555
H25 C23 1_555 1_555
C24 C19 1_555 1_555
H26 C24 1_555 1_555
S2 C25 1_555 1_555
N3 H27 1_555 1_555
N4 H28 1_555 1_555
C25 N3 1_555 1_555
C26 N4 1_555 1_555
H29 C26 1_555 1_555
C27 C26 1_555 1_555
C28 N3 1_555 1_555
C29 C28 1_555 1_555
C30 C29 1_555 1_555
H30 C30 1_555 1_555
H31 C30 1_555 1_555
C31 C30 1_555 1_555
H32 C31 1_555 1_555
H33 C31 1_555 1_555
C32 C27 1_555 1_555
H34 C32 1_555 1_555
H35 C32 1_555 1_555
C33 C26 1_555 1_555
C34 C33 1_555 1_555
H36 C34 1_555 1_555
C35 C34 1_555 1_555
H37 C35 1_555 1_555
C36 C35 1_555 1_555
H38 C36 1_555 1_555
C37 C36 1_555 1_555
H39 C37 1_555 1_555
C38 C33 1_555 1_555
H40 C38 1_555 1_555
C39 C29 1_555 1_555
H41 C39 1_555 1_555
C40 C39 1_555 1_555
C41 C40 1_555 1_555
H42 C41 1_555 1_555
C42 C41 1_555 1_555
H43 C42 1_555 1_555
C43 C42 1_555 1_555
H44 C43 1_555 1_555
C44 C43 1_555 1_555
H45 C44 1_555 1_555
C45 C40 1_555 1_555
H46 C45 1_555 1_555
N2 C1 1_555 1_555
C3 C4 1_555 1_555
C7 C8 1_555 1_555
C16 C17 1_555 1_555
C23 C24 1_555 1_555
N4 C25 1_555 1_555
C27 C28 1_555 1_555
C31 C32 1_555 1_555
C37 C38 1_555 1_555
C44 C45 1_555 1_555

#END
