
#######################################################################
#
#                 Cambridge Crystallographic Data Centre
#                                CCDC 
#
#######################################################################
#
# If this CIF has been generated from an entry in the Cambridge 
# Structural Database, then it will include bibliographic, chemical, 
# crystal, experimental, refinement or atomic coordinate data resulting 
# from the CCDC's data processing and validation procedures.
#
#######################################################################

data_FETPAX
_chemical_formula_moiety         'C12 H19 N2 O2 S1 1+,Cl1 1-'
_chemical_name_systematic        
'2-Carboxy-N-(2-((2-(pyridin-2-yl)ethyl)sulfanyl)ethyl)ethanaminium chloride'
_symmetry_cell_setting           monoclinic
_symmetry_space_group_name_H-M   'P 21/a'
_symmetry_Int_Tables_number      14
_space_group_name_Hall           '-P 2yab'
loop_
_symmetry_equiv_pos_site_id
_symmetry_equiv_pos_as_xyz
1 x,y,z
2 1/2-x,1/2+y,-z
3 -x,-y,-z
4 1/2+x,1/2-y,z
_cell_length_a                   10.235(3)
_cell_length_b                   9.830(3)
_cell_length_c                   15.706(6)
_cell_angle_alpha                90
_cell_angle_beta                 105.10(2)
_cell_angle_gamma                90
_cell_volume                     1525.62
_exptl_crystal_colour            colorless
_exptl_crystal_description       parallelepiped
_cell_formula_units_Z            4
loop_
_atom_site_label
_atom_site_type_symbol
_atom_site_fract_x
_atom_site_fract_y
_atom_site_fract_z
S1 S 0.33449(9) 0.50849(9) 0.74792(5)
O1 O 0.0412(3) 0.4329(3) 0.16937(14)
O2 O 0.0422(3) 0.6111(2) 0.25215(14)
N1 N 0.5571(2) 0.2592(2) 0.88367(14)
N2 N 0.2160(2) 0.4149(2) 0.48618(13)
C1 C 0.5611(4) 0.2213(3) 0.9664(2)
C2 C 0.6239(4) 0.2959(4) 1.0381(2)
C3 C 0.6857(5) 0.4133(4) 1.0250(2)
C4 C 0.6788(4) 0.4546(4) 0.9413(2)
C5 C 0.6134(3) 0.3763(3) 0.87065(17)
C6 C 0.6008(4) 0.4195(5) 0.7771(2)
C7 C 0.5072(4) 0.5405(4) 0.7488(2)
C8 C 0.2799(3) 0.4086(3) 0.64915(17)
C9 C 0.2505(3) 0.4977(3) 0.56838(16)
C10 C 0.1705(3) 0.4973(3) 0.40408(16)
C11 C 0.1182(4) 0.4074(3) 0.32485(18)
C12 C 0.0626(3) 0.4849(3) 0.24058(17)
H1 H -0.004(4) 0.665(4) 0.197(3)
H2 H 0.152(3) 0.354(3) 0.4879(18)
H3 H 0.286(3) 0.365(3) 0.4850(15)
H4 H 0.520(3) 0.135(4) 0.970(2)
H5 H 0.623(3) 0.261(3) 1.092(2)
H6 H 0.731(4) 0.465(4) 1.075(3)
H7 H 0.716(3) 0.527(3) 0.930(2)
H8 H 0.679(4) 0.445(4) 0.773(2)
H9 H 0.576(3) 0.346(3) 0.737(2)
H10 H 0.530(3) 0.617(4) 0.786(2)
H11 H 0.511(3) 0.574(3) 0.691(2)
H12 H 0.198(3) 0.362(3) 0.6528(17)
H13 H 0.347(3) 0.342(3) 0.6482(17)
H14 H 0.328(3) 0.551(3) 0.5665(16)
H15 H 0.176(3) 0.556(3) 0.5650(16)
H16 H 0.246(3) 0.553(3) 0.3989(17)
H17 H 0.105(3) 0.559(3) 0.4137(17)
H18 H 0.185(3) 0.350(3) 0.3179(19)
H19 H 0.050(3) 0.352(3) 0.3333(19)
Cl1 Cl -0.00591(7) 0.21152(7) 0.49811(6)
loop_
_geom_bond_atom_site_label_1
_geom_bond_atom_site_label_2
_geom_bond_site_symmetry_1
_geom_bond_site_symmetry_2
S1 C7 1_555 1_555
O1 C12 1_555 1_555
O2 C12 1_555 1_555
N1 C1 1_555 1_555
N2 C9 1_555 1_555
C1 C2 1_555 1_555
C2 C3 1_555 1_555
C3 C4 1_555 1_555
C4 C5 1_555 1_555
C5 N1 1_555 1_555
C6 C5 1_555 1_555
C7 C6 1_555 1_555
C8 S1 1_555 1_555
C9 C8 1_555 1_555
C10 N2 1_555 1_555
C11 C10 1_555 1_555
C12 C11 1_555 1_555
H1 O2 1_555 1_555
H2 N2 1_555 1_555
H3 N2 1_555 1_555
H4 C1 1_555 1_555
H5 C2 1_555 1_555
H6 C3 1_555 1_555
H7 C4 1_555 1_555
H8 C6 1_555 1_555
H9 C6 1_555 1_555
H10 C7 1_555 1_555
H11 C7 1_555 1_555
H12 C8 1_555 1_555
H13 C8 1_555 1_555
H14 C9 1_555 1_555
H15 C9 1_555 1_555
H16 C10 1_555 1_555
H17 C10 1_555 1_555
H18 C11 1_555 1_555
H19 C11 1_555 1_555

#END
