
#######################################################################
#
#                 Cambridge Crystallographic Data Centre
#                                CCDC 
#
#######################################################################
#
# If this CIF has been generated from an entry in the Cambridge 
# Structural Database, then it will include bibliographic, chemical, 
# crystal, experimental, refinement or atomic coordinate data resulting 
# from the CCDC's data processing and validation procedures.
#
#######################################################################

data_FETPIF01
_chemical_formula_moiety         'C14 H16 N2 O1'
_chemical_name_systematic        3,3-bis(1H-pyrrol-2-yl)cyclohexanone
_symmetry_cell_setting           orthorhombic
_symmetry_space_group_name_H-M   'P b c a'
_symmetry_Int_Tables_number      61
_space_group_name_Hall           '-P 2ac 2ab'
loop_
_symmetry_equiv_pos_site_id
_symmetry_equiv_pos_as_xyz
1 x,y,z
2 1/2-x,-y,1/2+z
3 -x,1/2+y,1/2-z
4 1/2+x,1/2-y,-z
5 -x,-y,-z
6 1/2+x,y,1/2-z
7 x,1/2-y,1/2+z
8 1/2-x,1/2+y,z
_cell_length_a                   12.9488(7)
_cell_length_b                   14.6721(12)
_cell_length_c                   25.565(2)
_cell_angle_alpha                90
_cell_angle_beta                 90
_cell_angle_gamma                90
_cell_volume                     4856.99
_exptl_crystal_colour            colorless
_exptl_crystal_description       plate
_cell_formula_units_Z            16
loop_
_atom_site_label
_atom_site_type_symbol
_atom_site_fract_x
_atom_site_fract_y
_atom_site_fract_z
O1 O -0.14103(15) 0.11688(14) 0.53473(9)
C1 C 0.0398(2) 0.10418(19) 0.55170(12)
H1 H 0.0364 0.0537 0.5272
H2 H 0.0564 0.0794 0.5859
C2 C 0.1076(2) 0.1979(2) 0.47891(14)
C3 C 0.2318(2) 0.1226(2) 0.53930(13)
N1 N 0.1649(2) 0.2645(2) 0.45479(15)
C4 C 0.0387(2) 0.1694(2) 0.44257(15)
H3 H -0.0108 0.1243 0.4474
C5 C 0.0221(2) 0.3017(2) 0.57029(14)
H4 H 0.0233 0.3521 0.5948
H5 H 0.0103 0.3264 0.5356
N2 N 0.2492(2) 0.0415(2) 0.51509(13)
C6 C 0.3501(3) 0.0147(3) 0.52271(15)
H6 H 0.3812 -0.0380 0.5101
C7 C 0.1276(2) 0.1696(2) 0.53457(14)
C8 C 0.3216(2) 0.1480(2) 0.56265(14)
H7 H 0.3325 0.2007 0.5821
C9 C 0.1261(2) 0.2529(2) 0.57143(12)
H8 H 0.1407 0.2330 0.6069
H9 H 0.1800 0.2951 0.5610
C10 C 0.3947(2) 0.0799(3) 0.55200(15)
H10 H 0.4630 0.0799 0.5634
C11 C -0.0646(3) 0.1496(2) 0.55432(14)
C12 C 0.1330(3) 0.2784(3) 0.40516(16)
H11 H 0.1599 0.3204 0.3816
C13 C 0.0547(3) 0.2196(3) 0.39623(15)
H12 H 0.0180 0.2134 0.3652
C14 C -0.0658(2) 0.2371(2) 0.58446(14)
H13 H -0.0619 0.2233 0.6215
H14 H -0.1310 0.2678 0.5782
H15 H 0.2095(17) 0.0103(17) 0.4962(10)
H16 H 0.2082(16) 0.2869(17) 0.4699(11)
N3 N 0.1805(3) 1.0110(2) 0.32318(14)
C15 C 0.1375(2) 1.0096(2) 0.20700(12)
H17 H 0.1114 0.9823 0.1751
H18 H 0.0789 1.0237 0.2292
O2 O 0.44931(17) 1.01011(17) 0.17749(9)
C16 C 0.3420(2) 0.9787(2) 0.30849(15)
H19 H 0.4028 0.9594 0.2926
C17 C 0.2460(3) 0.9765(2) 0.28667(14)
C18 C 0.3013(2) 0.9206(2) 0.19845(13)
H20 H 0.3505 0.8827 0.2170
H21 H 0.2769 0.8863 0.1685
C19 C 0.3558(3) 1.0048(3) 0.17921(14)
C20 C 0.3333(3) 1.0154(2) 0.35943(16)
H22 H 0.3870 1.0249 0.3830
C21 C 0.1943(2) 1.0974(2) 0.19365(13)
H23 H 0.2176 1.1265 0.2256
H24 H 0.1475 1.1389 0.1761
N4 N 0.1818(3) 0.7915(3) 0.28086(15)
C22 C 0.2078(2) 0.9404(2) 0.23530(15)
C23 C 0.2329(3) 1.0341(2) 0.36751(15)
H25 H 0.2044 1.0583 0.3979
C24 C 0.2874(2) 1.0784(2) 0.15826(14)
H26 H 0.2629 1.0607 0.1239
H27 H 0.3274 1.1339 0.1544
C25 C 0.1494(3) 0.8526(2) 0.24413(15)
C26 C 0.0651(3) 0.8158(2) 0.22067(15)
H28 H 0.0268 0.8420 0.1938
C27 C 0.0459(3) 0.7305(3) 0.24439(18)
H29 H -0.0076 0.6908 0.2360
C28 C 0.1177(4) 0.7169(3) 0.28073(17)
H30 H 0.1235 0.6660 0.3022
H31 H 0.1218(18) 1.0155(19) 0.3206(12)
H32 H 0.234(3) 0.793(3) 0.302(2)
loop_
_geom_bond_atom_site_label_1
_geom_bond_atom_site_label_2
_geom_bond_site_symmetry_1
_geom_bond_site_symmetry_2
O1 C11 1_555 1_555
C1 H1 1_555 1_555
H2 C1 1_555 1_555
C2 N1 1_555 1_555
C3 N2 1_555 1_555
N1 C12 1_555 1_555
C4 C2 1_555 1_555
H3 C4 1_555 1_555
C5 H4 1_555 1_555
H5 C5 1_555 1_555
N2 C6 1_555 1_555
C6 H6 1_555 1_555
C7 C1 1_555 1_555
C8 C3 1_555 1_555
H7 C8 1_555 1_555
C9 C5 1_555 1_555
H8 C9 1_555 1_555
H9 C9 1_555 1_555
C10 C6 1_555 1_555
H10 C10 1_555 1_555
C11 C1 1_555 1_555
C12 H11 1_555 1_555
C13 C4 1_555 1_555
H12 C13 1_555 1_555
C14 C5 1_555 1_555
H13 C14 1_555 1_555
H14 C14 1_555 1_555
H15 N2 1_555 1_555
H16 N1 1_555 1_555
N3 C17 1_555 1_555
C15 H17 1_555 1_555
H18 C15 1_555 1_555
O2 C19 1_555 1_555
C16 H19 1_555 1_555
C17 C16 1_555 1_555
C18 H20 1_555 1_555
H21 C18 1_555 1_555
C19 C18 1_555 1_555
C20 C16 1_555 1_555
H22 C20 1_555 1_555
C21 C15 1_555 1_555
H23 C21 1_555 1_555
H24 C21 1_555 1_555
N4 C25 1_555 1_555
C22 C15 1_555 1_555
C23 N3 1_555 1_555
H25 C23 1_555 1_555
C24 C19 1_555 1_555
H26 C24 1_555 1_555
H27 C24 1_555 1_555
C25 C22 1_555 1_555
C26 C25 1_555 1_555
H28 C26 1_555 1_555
C27 C26 1_555 1_555
H29 C27 1_555 1_555
C28 N4 1_555 1_555
H30 C28 1_555 1_555
H31 N3 1_555 1_555
H32 N4 1_555 1_555
C2 C7 1_555 1_555
C3 C7 1_555 1_555
C7 C9 1_555 1_555
C8 C10 1_555 1_555
C11 C14 1_555 1_555
C12 C13 1_555 1_555
C17 C22 1_555 1_555
C18 C22 1_555 1_555
C20 C23 1_555 1_555
C21 C24 1_555 1_555
C27 C28 1_555 1_555

#END
