
#######################################################################
#
#                 Cambridge Crystallographic Data Centre
#                                CCDC 
#
#######################################################################
#
# If this CIF has been generated from an entry in the Cambridge 
# Structural Database, then it will include bibliographic, chemical, 
# crystal, experimental, refinement or atomic coordinate data resulting 
# from the CCDC's data processing and validation procedures.
#
#######################################################################

data_FETPUS
_chemical_formula_moiety         'C23 H20 Cl1 N1 O3 S1'
_chemical_name_systematic        
2-[2-(2-chlorophenyl)ethenyl]-4-[(4-methylphenyl)sulfonyl]-3,4-dihydro-2H-1,4-benzoxazine
_symmetry_cell_setting           orthorhombic
_symmetry_space_group_name_H-M   'P 21 21 21'
_symmetry_Int_Tables_number      19
_space_group_name_Hall           'P 2ac 2ab'
loop_
_symmetry_equiv_pos_site_id
_symmetry_equiv_pos_as_xyz
1 x,y,z
2 1/2-x,-y,1/2+z
3 -x,1/2+y,1/2-z
4 1/2+x,1/2-y,-z
_cell_length_a                   8.1297(15)
_cell_length_b                   12.259(2)
_cell_length_c                   21.181(4)
_cell_angle_alpha                90
_cell_angle_beta                 90
_cell_angle_gamma                90
_cell_volume                     2110.94
_exptl_crystal_colour            colorless
_exptl_crystal_description       block
_cell_formula_units_Z            4
loop_
_atom_site_label
_atom_site_type_symbol
_atom_site_fract_x
_atom_site_fract_y
_atom_site_fract_z
Cl1 Cl 0.7413(3) 0.24112(13) 0.25817(9)
S1 S 0.35757(18) 0.66367(11) 0.55027(7)
O1 O 0.4645(5) 0.4134(3) 0.42199(18)
O2 O 0.2095(4) 0.6518(3) 0.58606(19)
O3 O 0.4171(4) 0.7701(3) 0.53522(19)
N1 N 0.3271(5) 0.6025(3) 0.4815(2)
C1 C 0.5658(6) 0.5054(5) 0.4371(3)
H1 H 0.606368 0.495787 0.480296
C2 C 0.4639(6) 0.6089(4) 0.4354(3)
H2 H 0.533201 0.670982 0.445383
H3 H 0.419791 0.619381 0.393321
C3 C 0.7105(7) 0.5046(5) 0.3939(3)
H4 H 0.784414 0.562278 0.396757
C4 C 0.7410(7) 0.4285(5) 0.3522(3)
H5 H 0.657700 0.377721 0.345750
C5 C 0.8908(7) 0.4134(5) 0.3144(3)
C6 C 0.9076(8) 0.3289(5) 0.2718(3)
C7 C 1.0505(10) 0.3081(5) 0.2389(3)
H6 H 1.055315 0.250320 0.210440
C8 C 1.1847(9) 0.3727(6) 0.2483(3)
H7 H 1.282797 0.358734 0.227199
C9 C 1.1724(8) 0.4591(6) 0.2897(3)
H8 H 1.262427 0.504711 0.295720
C10 C 1.0279(8) 0.4789(5) 0.3223(3)
H9 H 1.022894 0.537485 0.350148
C11 C 0.3110(7) 0.4114(4) 0.4486(3)
C12 C 0.2238(8) 0.3155(4) 0.4419(3)
H10 H 0.270952 0.256724 0.420778
C13 C 0.0678(8) 0.3065(5) 0.4661(3)
H11 H 0.011063 0.240838 0.462926
C14 C -0.0050(7) 0.3953(5) 0.4954(3)
H12 H -0.111049 0.389327 0.511540
C15 C 0.0783(6) 0.4915(5) 0.5007(3)
H13 H 0.027370 0.551606 0.519091
C16 C 0.2395(7) 0.5002(4) 0.4788(3)
C17 C 0.5151(6) 0.5934(4) 0.5894(2)
C18 C 0.6711(7) 0.6357(5) 0.5910(3)
H14 H 0.693947 0.701796 0.571379
C19 C 0.7944(7) 0.5794(6) 0.6221(3)
H15 H 0.900092 0.608354 0.622960
C20 C 0.7640(8) 0.4815(6) 0.6517(3)
C21 C 0.6076(8) 0.4401(5) 0.6491(3)
H16 H 0.585537 0.373654 0.668457
C22 C 0.4813(6) 0.4943(4) 0.6184(3)
H17 H 0.375905 0.464966 0.617299
C23 C 0.8995(8) 0.4223(6) 0.6866(4)
H18 H 0.896458 0.442039 0.730445
H19 H 1.004137 0.442278 0.669046
H20 H 0.884015 0.344976 0.682494
loop_
_geom_bond_atom_site_label_1
_geom_bond_atom_site_label_2
_geom_bond_site_symmetry_1
_geom_bond_site_symmetry_2
Cl1 C6 1_555 1_555
S1 O2 1_555 1_555
O1 C1 1_555 1_555
O3 S1 1_555 1_555
N1 S1 1_555 1_555
C1 H1 1_555 1_555
C2 N1 1_555 1_555
H2 C2 1_555 1_555
H3 C2 1_555 1_555
C3 C1 1_555 1_555
H4 C3 1_555 1_555
C4 C3 1_555 1_555
H5 C4 1_555 1_555
C5 C4 1_555 1_555
C6 C5 1_555 1_555
C7 C6 1_555 1_555
H6 C7 1_555 1_555
C8 C7 1_555 1_555
H7 C8 1_555 1_555
C9 C8 1_555 1_555
H8 C9 1_555 1_555
C10 C5 1_555 1_555
H9 C10 1_555 1_555
C11 O1 1_555 1_555
C12 C11 1_555 1_555
H10 C12 1_555 1_555
C13 C12 1_555 1_555
H11 C13 1_555 1_555
C14 C13 1_555 1_555
H12 C14 1_555 1_555
C15 C14 1_555 1_555
H13 C15 1_555 1_555
C16 N1 1_555 1_555
C17 S1 1_555 1_555
C18 C17 1_555 1_555
H14 C18 1_555 1_555
C19 C18 1_555 1_555
H15 C19 1_555 1_555
C20 C19 1_555 1_555
C21 C20 1_555 1_555
H16 C21 1_555 1_555
C22 C17 1_555 1_555
H17 C22 1_555 1_555
C23 C20 1_555 1_555
H18 C23 1_555 1_555
H19 C23 1_555 1_555
H20 C23 1_555 1_555
C1 C2 1_555 1_555
C9 C10 1_555 1_555
C11 C16 1_555 1_555
C15 C16 1_555 1_555
C21 C22 1_555 1_555

#END
