
#######################################################################
#
#                 Cambridge Crystallographic Data Centre
#                                CCDC 
#
#######################################################################
#
# If this CIF has been generated from an entry in the Cambridge 
# Structural Database, then it will include bibliographic, chemical, 
# crystal, experimental, refinement or atomic coordinate data resulting 
# from the CCDC's data processing and validation procedures.
#
#######################################################################

data_FETQAY
_chemical_formula_moiety         'C15 H22 N2'
_chemical_name_systematic        2,2'-Heptane-4,4-diylbis(1H-pyrrole)
_symmetry_cell_setting           orthorhombic
_symmetry_space_group_name_H-M   'P 21 21 21'
_symmetry_Int_Tables_number      19
_space_group_name_Hall           'P 2ac 2ab'
loop_
_symmetry_equiv_pos_site_id
_symmetry_equiv_pos_as_xyz
1 x,y,z
2 1/2-x,-y,1/2+z
3 -x,1/2+y,1/2-z
4 1/2+x,1/2-y,-z
_cell_length_a                   10.0647(7)
_cell_length_b                   13.9863(12)
_cell_length_c                   20.4134(15)
_cell_angle_alpha                90
_cell_angle_beta                 90
_cell_angle_gamma                90
_cell_volume                     2873.55
_exptl_crystal_colour            colorless
_exptl_crystal_description       block
_cell_formula_units_Z            8
loop_
_atom_site_label
_atom_site_type_symbol
_atom_site_fract_x
_atom_site_fract_y
_atom_site_fract_z
C1 C 0.2856(4) 0.9611(3) 0.18260(19)
C2 C 0.2026(4) 0.9783(3) 0.0692(2)
N1 N 0.3799(3) 1.0313(3) 0.18154(19)
N2 N 0.1067(4) 1.0469(3) 0.0813(2)
C3 C 0.2445(4) 0.9088(3) 0.12157(18)
C4 C 0.1264(4) 0.8417(3) 0.1387(2)
H1 H 0.1561 0.7960 0.1713
H2 H 0.0566 0.8799 0.1585
C5 C 0.3645(4) 0.8513(3) 0.09535(19)
H3 H 0.3367 0.8185 0.0558
H4 H 0.4333 0.8964 0.0830
C6 C 0.2505(4) 0.9513(3) 0.24711(19)
H5 H 0.1875 0.9089 0.2636
C7 C 0.4045(4) 1.0655(3) 0.2425(2)
H6 H 0.4641 1.1137 0.2535
C8 C 0.3263(4) 1.0165(3) 0.2842(2)
H7 H 0.3229 1.0244 0.3294
C9 C 0.4257(4) 0.7779(3) 0.1411(2)
H8 H 0.4527 0.8091 0.1814
H9 H 0.3596 0.7300 0.1521
C10 C 0.1619(5) 1.0644(3) -0.0215(2)
H10 H 0.1667 1.0868 -0.0644
C11 C 0.0823(5) 1.0982(3) 0.0261(3)
H11 H 0.0214 1.1478 0.0219
C12 C 0.2366(5) 0.9889(3) 0.0055(2)
H12 H 0.2992 0.9524 -0.0168
C13 C 0.0673(5) 0.7868(4) 0.0814(2)
H13 H 0.0367 0.8320 0.0487
H14 H 0.1362 0.7479 0.0616
C14 C -0.0460(5) 0.7237(4) 0.1009(3)
H15 H -0.0157 0.6773 0.1322
H16 H -0.0800 0.6915 0.0629
H17 H -0.1151 0.7618 0.1202
C15 C 0.5449(5) 0.7296(4) 0.1104(2)
H18 H 0.5166 0.6923 0.0734
H19 H 0.5864 0.6885 0.1420
H20 H 0.6072 0.7772 0.0962
H21 H 0.414(4) 1.056(3) 0.1503(19)
H22 H 0.073(4) 1.052(3) 0.121(2)
C16 C 0.3635(4) 0.2779(3) 0.1264(2)
N3 N 0.1411(4) 0.1998(3) 0.2092(2)
N4 N 0.3432(4) 0.2202(3) 0.07393(19)
C17 C 0.2520(4) 0.3376(3) 0.15468(19)
C18 C 0.1330(4) 0.2764(3) 0.1689(2)
C19 C 0.4580(5) 0.1755(3) 0.0561(2)
H23 H 0.4680 0.1325 0.0217
C20 C 0.5543(5) 0.2049(3) 0.0973(2)
H24 H 0.6428 0.1858 0.0968
C21 C 0.3016(4) 0.3821(3) 0.2193(2)
H25 H 0.3292 0.3307 0.2482
H26 H 0.3796 0.4203 0.2098
C22 C 0.2076(5) 0.4129(3) 0.1037(3)
H27 H 0.1755 0.3788 0.0655
H28 H 0.1324 0.4472 0.1220
C23 C 0.0208(6) 0.1573(4) 0.2185(3)
H29 H 0.0033 0.1030 0.2434
C24 C 0.2041(4) 0.4435(3) 0.2554(2)
H30 H 0.1200 0.4098 0.2582
H31 H 0.1894 0.5015 0.2305
C25 C 0.0003(5) 0.2831(4) 0.1526(2)
H32 H -0.0374 0.3287 0.1251
C26 C 0.4954(4) 0.2703(3) 0.1413(2)
H33 H 0.5391 0.3027 0.1747
C27 C 0.3006(6) 0.4816(5) 0.0819(3)
H34 H 0.3831 0.4494 0.0711
H35 H 0.3187 0.5258 0.1174
C28 C -0.0676(5) 0.2093(5) 0.1844(3)
H36 H -0.1586 0.1982 0.1824
C29 C 0.2527(6) 0.5396(4) 0.0208(3)
H37 H 0.2503 0.4983 -0.0167
H38 H 0.3130 0.5914 0.0128
H39 H 0.1654 0.5645 0.0289
C30 C 0.2482(4) 0.4702(4) 0.3239(2)
H40 H 0.2661 0.4132 0.3485
H41 H 0.1791 0.5060 0.3451
H42 H 0.3272 0.5085 0.3215
H43 H 0.264(3) 0.209(2) 0.0554(17)
H44 H 0.206(4) 0.178(3) 0.222(2)
loop_
_geom_bond_atom_site_label_1
_geom_bond_atom_site_label_2
_geom_bond_site_symmetry_1
_geom_bond_site_symmetry_2
C1 N1 1_555 1_555
C2 N2 1_555 1_555
N1 C7 1_555 1_555
N2 C11 1_555 1_555
C3 C1 1_555 1_555
C4 C3 1_555 1_555
H1 C4 1_555 1_555
H2 C4 1_555 1_555
C5 C3 1_555 1_555
H3 C5 1_555 1_555
H4 C5 1_555 1_555
C6 C1 1_555 1_555
H5 C6 1_555 1_555
C7 H6 1_555 1_555
C8 C6 1_555 1_555
H7 C8 1_555 1_555
C9 C5 1_555 1_555
H8 C9 1_555 1_555
H9 C9 1_555 1_555
C10 H10 1_555 1_555
C11 C10 1_555 1_555
H11 C11 1_555 1_555
C12 C2 1_555 1_555
H12 C12 1_555 1_555
C13 C4 1_555 1_555
H13 C13 1_555 1_555
H14 C13 1_555 1_555
C14 C13 1_555 1_555
H15 C14 1_555 1_555
H16 C14 1_555 1_555
H17 C14 1_555 1_555
C15 C9 1_555 1_555
H18 C15 1_555 1_555
H19 C15 1_555 1_555
H20 C15 1_555 1_555
H21 N1 1_555 1_555
H22 N2 1_555 1_555
C16 N4 1_555 1_555
N3 C18 1_555 1_555
N4 C19 1_555 1_555
C17 C16 1_555 1_555
C18 C17 1_555 1_555
C19 H23 1_555 1_555
C20 C19 1_555 1_555
H24 C20 1_555 1_555
C21 C17 1_555 1_555
H25 C21 1_555 1_555
H26 C21 1_555 1_555
C22 C17 1_555 1_555
H27 C22 1_555 1_555
H28 C22 1_555 1_555
C23 N3 1_555 1_555
H29 C23 1_555 1_555
C24 C21 1_555 1_555
H30 C24 1_555 1_555
H31 C24 1_555 1_555
C25 C18 1_555 1_555
H32 C25 1_555 1_555
C26 C16 1_555 1_555
H33 C26 1_555 1_555
C27 C22 1_555 1_555
H34 C27 1_555 1_555
H35 C27 1_555 1_555
C28 C23 1_555 1_555
H36 C28 1_555 1_555
C29 C27 1_555 1_555
H37 C29 1_555 1_555
H38 C29 1_555 1_555
H39 C29 1_555 1_555
C30 C24 1_555 1_555
H40 C30 1_555 1_555
H41 C30 1_555 1_555
H42 C30 1_555 1_555
H43 N4 1_555 1_555
H44 N3 1_555 1_555
C2 C3 1_555 1_555
C7 C8 1_555 1_555
C10 C12 1_555 1_555
C20 C26 1_555 1_555
C25 C28 1_555 1_555

#END
