
#######################################################################
#
#                 Cambridge Crystallographic Data Centre
#                                CCDC 
#
#######################################################################
#
# If this CIF has been generated from an entry in the Cambridge 
# Structural Database, then it will include bibliographic, chemical, 
# crystal, experimental, refinement or atomic coordinate data resulting 
# from the CCDC's data processing and validation procedures.
#
#######################################################################

data_FETRAA
_chemical_formula_moiety         'C7 H16 N1 1+,C6 H2 N3 O7 1-'
_chemical_name_systematic        
'N-methylcyclohexanaminium 2,4,6-trinitrophenolate'
_symmetry_cell_setting           orthorhombic
_symmetry_space_group_name_H-M   'P 21 21 21'
_symmetry_Int_Tables_number      19
_space_group_name_Hall           'P 2ac 2ab'
loop_
_symmetry_equiv_pos_site_id
_symmetry_equiv_pos_as_xyz
1 x,y,z
2 1/2-x,-y,1/2+z
3 1/2+x,1/2-y,-z
4 -x,1/2+y,1/2-z
_cell_length_a                   6.67620(10)
_cell_length_b                   12.7767(2)
_cell_length_c                   18.3011(3)
_cell_angle_alpha                90
_cell_angle_beta                 90
_cell_angle_gamma                90
_cell_volume                     1561.08
_cell_formula_units_Z            4
loop_
_atom_site_label
_atom_site_type_symbol
_atom_site_fract_x
_atom_site_fract_y
_atom_site_fract_z
O1 O 0.2394(3) 0.27910(12) 0.64374(7)
C1 C 0.2300(3) 0.11865(15) 0.48007(11)
H1 H 0.2322 0.0474 0.4672
O2 O 0.2484(3) 0.23799(14) 0.30498(8)
C2 C 0.2276(3) 0.32876(15) 0.51770(10)
C3 C 0.2329(3) 0.30109(16) 0.44547(11)
H2 H 0.2372 0.3528 0.4090
N1 N 0.2267(3) 0.44049(14) 0.53320(9)
C4 C 0.2265(3) 0.25562(15) 0.57783(10)
O3 O 0.2365(3) 0.07497(14) 0.33368(9)
C5 C 0.2320(3) 0.19598(16) 0.42678(10)
N2 N 0.2378(3) 0.16809(15) 0.35038(10)
N3 N 0.2215(3) 0.06542(15) 0.60633(10)
O4 O 0.1072(3) 0.07342(15) 0.65814(9)
O5 O 0.3131(3) 0.49946(13) 0.49050(10)
O6 O 0.1368(3) 0.47076(13) 0.58742(10)
O7 O 0.3292(5) -0.00962(18) 0.59621(13)
C6 C 0.2247(3) 0.14861(15) 0.55173(11)
N4 N 0.1597(3) 0.42387(15) 0.75269(9)
H3 H 0.1807 0.3768 0.7111
H4 H 0.0183 0.4444 0.7528
C7 C 0.2040(3) 0.36499(17) 0.82229(10)
H5 H 0.2111 0.4162 0.8628
C8 C 0.4029(4) 0.3091(2) 0.81769(13)
H6 H 0.5098 0.3597 0.8078
H7 H 0.4001 0.2582 0.7777
C9 C 0.0349(4) 0.2895(2) 0.83833(14)
H8 H 0.0255 0.2375 0.7992
H9 H -0.0923 0.3276 0.8406
C10 C 0.2846(5) 0.51900(19) 0.74213(13)
H10 H 0.2738 0.5636 0.7849
H11 H 0.2382 0.5568 0.6994
H12 H 0.4233 0.4987 0.7352
C11 C 0.0741(5) 0.2350(2) 0.91093(17)
H13 H -0.0329 0.1843 0.9205
H14 H 0.0729 0.2868 0.9504
C12 C 0.2753(5) 0.1788(2) 0.91020(16)
H15 H 0.3016 0.1491 0.9586
H16 H 0.2706 0.1210 0.8750
C13 C 0.4439(4) 0.2531(2) 0.88975(16)
H17 H 0.5693 0.2137 0.8857
H18 H 0.4604 0.3052 0.9286
loop_
_geom_bond_atom_site_label_1
_geom_bond_atom_site_label_2
_geom_bond_site_symmetry_1
_geom_bond_site_symmetry_2
O1 C4 1_555 1_555
C1 H1 1_555 1_555
O2 N2 1_555 1_555
C2 C3 1_555 1_555
C3 H2 1_555 1_555
N1 C2 1_555 1_555
C4 C2 1_555 1_555
O3 N2 1_555 1_555
C5 C1 1_555 1_555
N2 C5 1_555 1_555
N3 O4 1_555 1_555
O5 N1 1_555 1_555
O6 N1 1_555 1_555
O7 N3 1_555 1_555
C6 C1 1_555 1_555
N4 H3 1_555 1_555
H4 N4 1_555 1_555
C7 N4 1_555 1_555
H5 C7 1_555 1_555
C8 C7 1_555 1_555
H6 C8 1_555 1_555
H7 C8 1_555 1_555
C9 C7 1_555 1_555
H8 C9 1_555 1_555
H9 C9 1_555 1_555
C10 N4 1_555 1_555
H10 C10 1_555 1_555
H11 C10 1_555 1_555
H12 C10 1_555 1_555
C11 C9 1_555 1_555
H13 C11 1_555 1_555
H14 C11 1_555 1_555
C12 C11 1_555 1_555
H15 C12 1_555 1_555
H16 C12 1_555 1_555
C13 C8 1_555 1_555
H17 C13 1_555 1_555
H18 C13 1_555 1_555
C3 C5 1_555 1_555
C4 C6 1_555 1_555
N3 C6 1_555 1_555
C12 C13 1_555 1_555

#END
