
#######################################################################
#
#                 Cambridge Crystallographic Data Centre
#                                CCDC 
#
#######################################################################
#
# If this CIF has been generated from an entry in the Cambridge 
# Structural Database, then it will include bibliographic, chemical, 
# crystal, experimental, refinement or atomic coordinate data resulting 
# from the CCDC's data processing and validation procedures.
#
#######################################################################

data_FETRED
_chemical_formula_moiety         'C22 H20 O5 S1'
_chemical_name_systematic        
'2-(8-(Hydroxymethyl)-2,2-dioxido-1,3-dihydronaphtho[2,3-c]thiophen-4-yl)benzyl acetate'
_symmetry_cell_setting           monoclinic
_symmetry_space_group_name_H-M   'P 21/n'
_symmetry_Int_Tables_number      14
_space_group_name_Hall           '-P 2yn'
loop_
_symmetry_equiv_pos_site_id
_symmetry_equiv_pos_as_xyz
1 x,y,z
2 1/2-x,1/2+y,1/2-z
3 -x,-y,-z
4 1/2+x,1/2-y,1/2+z
_cell_length_a                   11.751(3)
_cell_length_b                   11.778(3)
_cell_length_c                   14.594(4)
_cell_angle_alpha                90
_cell_angle_beta                 112.101(7)
_cell_angle_gamma                90
_cell_volume                     1871.44
_cell_formula_units_Z            4
loop_
_atom_site_label
_atom_site_type_symbol
_atom_site_fract_x
_atom_site_fract_y
_atom_site_fract_z
O1 O 0.6008(3) 0.0925(3) 0.0567(2)
O2 O 0.6608(3) 0.1676(3) 0.2242(2)
O3 O 1.1130(3) 0.0555(3) -0.0279(2)
S1 S 0.69269(9) 0.10336(9) 0.15315(7)
C1 C 1.1206(3) 0.0848(3) 0.3813(2)
O4 O 1.0395(3) 0.2041(2) 0.02695(19)
C2 C 1.0416(3) 0.1465(3) 0.2958(2)
C3 C 1.1476(4) 0.3850(3) 0.1713(3)
H1 H 1.1741 0.3959 0.1194
C4 C 1.0805(3) -0.0192(3) 0.4076(2)
C5 C 1.0788(3) 0.2602(3) 0.2703(2)
C6 C 0.9606(3) -0.0593(3) 0.3506(3)
H2 H 0.9325 -0.1265 0.3682
C7 C 0.9278(3) 0.1028(3) 0.2415(2)
C8 C 1.2396(3) 0.1264(3) 0.4405(3)
H3 H 1.2672 0.1947 0.4243
C9 C 0.8867(3) 0.0006(3) 0.2702(3)
C10 C 1.0733(4) 0.3529(4) 0.3266(3)
H4 H 1.0490 0.3424 0.3797
C11 C 1.1160(3) 0.2763(3) 0.1908(2)
C12 C 1.1258(4) 0.1805(3) 0.1262(3)
H5 H 1.2087 0.1758 0.1273
H6 H 1.1059 0.1090 0.1496
C13 C 1.3126(4) 0.0667(4) 0.5204(3)
H7 H 1.3896 0.0953 0.5589
C14 C 0.8343(4) 0.1577(3) 0.1524(3)
H8 H 0.8463 0.1361 0.0925
H9 H 0.8376 0.2398 0.1583
C15 C 1.1402(4) 0.4766(3) 0.2274(3)
H10 H 1.1602 0.5489 0.2124
C16 C 1.2750(4) -0.0363(4) 0.5461(3)
H11 H 1.3276 -0.0759 0.6008
C17 C 1.1612(4) -0.0802(3) 0.4920(3)
C18 C 0.7562(4) -0.0302(3) 0.2056(3)
H12 H 0.7127 -0.0619 0.2445
H13 H 0.7541 -0.0841 0.1548
C19 C 1.1230(4) -0.1915(3) 0.5220(3)
H14 H 1.1773 -0.2094 0.5891
H15 H 1.0404 -0.1844 0.5212
C20 C 1.1033(4) 0.4612(3) 0.3056(3)
H16 H 1.0985 0.5227 0.3440
O5 O 1.1260(4) -0.2802(4) 0.4594(4)
H17 H 1.1960 -0.2874 0.4608
C21 C 1.0450(4) 0.1357(4) -0.0443(3)
C22 C 0.9595(6) 0.1743(6) -0.1428(3)
H18 H 0.9155 0.2400 -0.1352
H19 H 0.9024 0.1147 -0.1741
H20 H 1.0053 0.1934 -0.1830
loop_
_geom_bond_atom_site_label_1
_geom_bond_atom_site_label_2
_geom_bond_site_symmetry_1
_geom_bond_site_symmetry_2
O1 S1 1_555 1_555
O2 S1 1_555 1_555
O3 C21 1_555 1_555
S1 C14 1_555 1_555
C1 C2 1_555 1_555
O4 C12 1_555 1_555
C2 C5 1_555 1_555
C3 H1 1_555 1_555
C4 C1 1_555 1_555
C5 C10 1_555 1_555
C6 C4 1_555 1_555
H2 C6 1_555 1_555
C7 C2 1_555 1_555
C8 C1 1_555 1_555
H3 C8 1_555 1_555
C9 C6 1_555 1_555
C10 H4 1_555 1_555
C11 C3 1_555 1_555
C12 C11 1_555 1_555
H5 C12 1_555 1_555
H6 C12 1_555 1_555
C13 C8 1_555 1_555
H7 C13 1_555 1_555
C14 C7 1_555 1_555
H8 C14 1_555 1_555
H9 C14 1_555 1_555
C15 C3 1_555 1_555
H10 C15 1_555 1_555
C16 C13 1_555 1_555
H11 C16 1_555 1_555
C17 C4 1_555 1_555
C18 S1 1_555 1_555
H12 C18 1_555 1_555
H13 C18 1_555 1_555
C19 C17 1_555 1_555
H14 C19 1_555 1_555
H15 C19 1_555 1_555
C20 C10 1_555 1_555
H16 C20 1_555 1_555
O5 C19 1_555 1_555
H17 O5 1_555 1_555
C21 O4 1_555 1_555
C22 C21 1_555 1_555
H18 C22 1_555 1_555
H19 C22 1_555 1_555
H20 C22 1_555 1_555
C5 C11 1_555 1_555
C7 C9 1_555 1_555
C9 C18 1_555 1_555
C15 C20 1_555 1_555
C16 C17 1_555 1_555

#END
