
#######################################################################
#
#                 Cambridge Crystallographic Data Centre
#                                CCDC 
#
#######################################################################
#
# If this CIF has been generated from an entry in the Cambridge 
# Structural Database, then it will include bibliographic, chemical, 
# crystal, experimental, refinement or atomic coordinate data resulting 
# from the CCDC's data processing and validation procedures.
#
#######################################################################

data_FETRAA02
_chemical_formula_moiety         'C7 H16 N1 1+,C6 H2 N3 O7 1-'
_chemical_name_systematic        
'N-methylcyclohexanaminium 2,4,6-trinitrophenolate'
_symmetry_cell_setting           orthorhombic
_symmetry_space_group_name_H-M   'P n m a'
_symmetry_Int_Tables_number      62
_space_group_name_Hall           '-P 2ac 2n'
loop_
_symmetry_equiv_pos_site_id
_symmetry_equiv_pos_as_xyz
1 x,y,z
2 1/2-x,-y,1/2+z
3 1/2+x,1/2-y,1/2-z
4 -x,1/2+y,-z
5 -x,-y,-z
6 1/2+x,y,1/2-z
7 1/2-x,1/2+y,1/2+z
8 x,1/2-y,z
_cell_length_a                   18.2587(3)
_cell_length_b                   6.7913(2)
_cell_length_c                   12.8788(3)
_cell_angle_alpha                90
_cell_angle_beta                 90
_cell_angle_gamma                90
_cell_volume                     1596.98
_cell_formula_units_Z            4
loop_
_atom_site_label
_atom_site_type_symbol
_atom_site_fract_x
_atom_site_fract_y
_atom_site_fract_z
O1 O 0.35521(11) 0.250000 0.02940(19)
O2 O 0.3371(2) 0.3726(8) -0.1727(3)
O3 O 0.3998(3) 0.1676(11) -0.2589(4)
O4 O 0.69321(14) 0.250000 -0.0193(3)
O5 O 0.66221(15) 0.250000 -0.1787(3)
O6 O 0.41083(19) 0.1703(7) 0.2178(2)
O7 O 0.5149(2) 0.1840(7) 0.2438(3)
N1 N 0.3891(2) 0.250000 -0.1822(3)
N2 N 0.64693(16) 0.250000 -0.0875(3)
N3 N 0.46786(17) 0.250000 0.1869(2)
C1 C 0.42064(15) 0.250000 0.0045(2)
C2 C 0.44521(16) 0.250000 -0.1017(2)
C3 C 0.51648(17) 0.250000 -0.1322(3)
H1 H 0.528500 0.250000 -0.202379
C4 C 0.57065(16) 0.250000 -0.0578(3)
C5 C 0.55335(16) 0.250000 0.0455(3)
H2 H 0.590346 0.250000 0.095129
C6 C 0.48165(16) 0.250000 0.0757(2)
O2G O 0.3371(2) 0.1274(8) -0.1727(3)
O3G O 0.3998(3) 0.3324(11) -0.2589(4)
O6G O 0.41083(19) 0.3297(7) 0.2178(2)
O7G O 0.5149(2) 0.3160(7) 0.2438(3)
N4 N 0.2440(2) 0.1611(7) 0.1685(3)
H3 H 0.2765(16) 0.250000 0.140(2)
H4 H 0.259(2) 0.043(3) 0.197(3)
C7 C 0.2524(2) 0.250000 0.2692(3)
H5 H 0.299298 0.284900 0.297517
H6 H 0.214389 0.296364 0.314537
C8 C 0.17608(18) 0.250000 0.1083(3)
H7 H 0.135792 0.250000 0.158843
C9 C 0.1725(2) 0.0733(6) 0.0453(3)
H8 H 0.175717 -0.042611 0.089028
H9 H 0.212958 0.070713 -0.003566
C10 C 0.1015(3) 0.0748(11) -0.0117(4)
H10 H 0.098140 -0.041456 -0.055184
H11 H 0.061411 0.071127 0.037720
C11 C 0.0953(5) 0.250000 -0.0756(5)
H12 H 0.048467 0.249999 -0.111125
H13 H 0.133711 0.250003 -0.127684
N4G N 0.2440(2) 0.3389(7) 0.1685(3)
H4G H 0.259(2) 0.457(3) 0.197(3)
H5G H 0.299298 0.215100 0.297517
H6G H 0.214389 0.203636 0.314537
C9G C 0.1725(2) 0.4267(6) 0.0453(3)
H8G H 0.175717 0.542611 0.089028
H9G H 0.212958 0.429287 -0.003566
C10G C 0.1015(3) 0.4252(11) -0.0117(4)
H10G H 0.098140 0.541456 -0.055184
H11G H 0.061411 0.428873 0.037720
H14? H 0.249153 0.109436 0.262850
loop_
_geom_bond_atom_site_label_1
_geom_bond_atom_site_label_2
_geom_bond_site_symmetry_1
_geom_bond_site_symmetry_2
O1 C1 1_555 1_555
O2 N1 1_555 1_555
O3 N1 1_555 1_555
O4 N2 1_555 1_555
O5 N2 1_555 1_555
O6 N3 1_555 1_555
O7 N3 1_555 1_555
N1 C2 1_555 1_555
N2 C4 1_555 1_555
N3 C6 1_555 1_555
C1 C2 1_555 1_555
C2 C3 1_555 1_555
C3 H1 1_555 1_555
C4 C3 1_555 1_555
C5 C4 1_555 1_555
H2 C5 1_555 1_555
C6 C1 1_555 1_555
N4 H3 1_555 1_555
H3 N4G 1_555 1_555
H4 N4 1_555 1_555
C7 N4 1_555 1_555
H5 C7 1_555 1_555
H6 C7 1_555 1_555
C8 N4 1_555 1_555
H7 C8 1_555 1_555
C9 C8 1_555 1_555
H8 C9 1_555 1_555
H9 C9 1_555 1_555
C10 C9 1_555 1_555
H10 C10 1_555 1_555
H11 C10 1_555 1_555
C11 C10 1_555 1_555
H12 C11 1_555 1_555
H13 C11 1_555 1_555
O2G O2 1_555 1_555
O3G O2 1_555 1_555
O6G O6 1_555 1_555
O7G O7 1_555 1_555
N4G N4 1_555 1_555
H4G N4G 1_555 1_555
H5G C7 1_555 1_555
H6G C7 1_555 1_555
C9G C8 1_555 1_555
H8G C9G 1_555 1_555
H9G C9G 1_555 1_555
C10G C11 1_555 1_555
H10G C10G 1_555 1_555
H11G C10G 1_555 1_555
O3 O2G 1_555 1_555
O3 O3G 1_555 1_555
N1 O2G 1_555 1_555
N1 O3G 1_555 1_555
N3 O6G 1_555 1_555
N3 O7G 1_555 1_555
C5 C6 1_555 1_555
C7 N4G 1_555 1_555
C8 N4G 1_555 1_555
C9G C10G 1_555 1_555

#END
