
#######################################################################
#
#                 Cambridge Crystallographic Data Centre
#                                CCDC 
#
#######################################################################
#
# If this CIF has been generated from an entry in the Cambridge 
# Structural Database, then it will include bibliographic, chemical, 
# crystal, experimental, refinement or atomic coordinate data resulting 
# from the CCDC's data processing and validation procedures.
#
#######################################################################

data_FETSED
_chemical_formula_moiety         'C18 H17 N3 O2,C1 H4 O1'
_chemical_name_systematic        
'1,5-Dimethyl-4-((4-hydroxybenzylidene)amino)-2-phenyl-1,2-dihydro-3H-pyrazol-3-one methanol solvate'
_symmetry_cell_setting           monoclinic
_symmetry_space_group_name_H-M   'P 21/n'
_symmetry_Int_Tables_number      14
_space_group_name_Hall           '-P 2yn'
loop_
_symmetry_equiv_pos_site_id
_symmetry_equiv_pos_as_xyz
1 x,y,z
2 1/2-x,1/2+y,1/2-z
3 -x,-y,-z
4 1/2+x,1/2-y,1/2+z
_cell_length_a                   13.680(9)
_cell_length_b                   6.916(5)
_cell_length_c                   19.968(14)
_cell_angle_alpha                90
_cell_angle_beta                 108.292(11)
_cell_angle_gamma                90
_cell_volume                     1793.73
_exptl_crystal_colour            yellow
_exptl_crystal_description       block
_chemical_melting_point          '445-446 K'
_cell_formula_units_Z            4
loop_
_atom_site_label
_atom_site_type_symbol
_atom_site_fract_x
_atom_site_fract_y
_atom_site_fract_z
O1 O 0.83700(14) -0.1637(3) 0.11322(11)
O2 O 0.19408(15) -0.2549(3) 0.02847(13)
H1 H 0.1825 -0.3646 0.0123
N1 N 0.92859(17) 0.1059(3) 0.16723(12)
N2 N 0.90488(17) 0.2765(3) 0.19727(12)
N3 N 0.65076(17) 0.0904(3) 0.12427(12)
C1 C 0.2967(2) -0.2153(5) 0.04429(16)
C2 C 0.3654(2) -0.3429(4) 0.03252(15)
H3 H 0.3434 -0.4637 0.0131
C3 C 0.4675(2) -0.2923(5) 0.04946(16)
H4 H 0.5136 -0.3804 0.0410
C4 C 0.5040(2) -0.1152(4) 0.07867(14)
C5 C 0.4337(2) 0.0102(5) 0.09091(16)
H5 H 0.4556 0.1304 0.1109
C6 C 0.3312(2) -0.0390(5) 0.07409(17)
H6 H 0.2849 0.0479 0.0830
C7 C 0.6124(2) -0.0666(4) 0.09428(14)
H7 H 0.6553 -0.1541 0.0818
C8 C 0.7561(2) 0.1277(4) 0.14170(14)
C9 C 0.8375(2) 0.0040(4) 0.13597(14)
C10 C 0.8006(2) 0.2903(4) 0.17612(14)
C11 C 0.7479(2) 0.4640(4) 0.19167(16)
H8 H 0.7768 0.4970 0.2406
H9 H 0.6758 0.4374 0.1813
H10 H 0.7569 0.5701 0.1632
C12 C 0.9752(2) 0.4388(4) 0.20375(18)
H11 H 0.9735 0.4811 0.1576
H12 H 1.0438 0.3991 0.2299
H13 H 0.9545 0.5432 0.2280
C13 C 1.0238(2) 0.0107(4) 0.20212(16)
C14 C 1.0718(2) -0.0904(4) 0.16144(16)
H14 H 1.0443 -0.0897 0.1125
C15 C 1.1604(2) -0.1916(4) 0.19389(19)
H15 H 1.1925 -0.2613 0.1668
C16 C 1.2020(2) -0.1905(5) 0.2663(2)
H16 H 1.2622 -0.2590 0.2879
C17 C 1.1549(2) -0.0883(5) 0.30680(17)
H17 H 1.1836 -0.0866 0.3556
C18 C 1.0652(2) 0.0115(4) 0.27478(16)
H18 H 1.0325 0.0791 0.3020
O3 O 0.1424(2) 0.3787(4) -0.00736(15)
H2 H 0.1466 0.3103 -0.0399
C19 C 0.0846(3) 0.2843(6) 0.0288(2)
H19 H 0.0962 0.3440 0.0740
H20 H 0.1049 0.1509 0.0351
H21 H 0.0129 0.2926 0.0022
loop_
_geom_bond_atom_site_label_1
_geom_bond_atom_site_label_2
_geom_bond_site_symmetry_1
_geom_bond_site_symmetry_2
O1 C9 1_555 1_555
O2 H1 1_555 1_555
O3 H2 1_555 1_555
N1 N2 1_555 1_555
N2 C10 1_555 1_555
N3 C7 1_555 1_555
C1 O2 1_555 1_555
C2 C1 1_555 1_555
H3 C2 1_555 1_555
C3 C2 1_555 1_555
H4 C3 1_555 1_555
C4 C3 1_555 1_555
C5 C4 1_555 1_555
H5 C5 1_555 1_555
C6 C1 1_555 1_555
H6 C6 1_555 1_555
C7 C4 1_555 1_555
H7 C7 1_555 1_555
C8 N3 1_555 1_555
C9 N1 1_555 1_555
C10 C8 1_555 1_555
C11 C10 1_555 1_555
H8 C11 1_555 1_555
H9 C11 1_555 1_555
H10 C11 1_555 1_555
C12 N2 1_555 1_555
H11 C12 1_555 1_555
H12 C12 1_555 1_555
H13 C12 1_555 1_555
C13 N1 1_555 1_555
C14 C13 1_555 1_555
H14 C14 1_555 1_555
C15 C14 1_555 1_555
H15 C15 1_555 1_555
C16 C15 1_555 1_555
H16 C16 1_555 1_555
C17 C16 1_555 1_555
H17 C17 1_555 1_555
C18 C13 1_555 1_555
H18 C18 1_555 1_555
C19 O3 1_555 1_555
H19 C19 1_555 1_555
H20 C19 1_555 1_555
H21 C19 1_555 1_555
C5 C6 1_555 1_555
C8 C9 1_555 1_555
C17 C18 1_555 1_555

#END
