
#######################################################################
#
#                 Cambridge Crystallographic Data Centre
#                                CCDC 
#
#######################################################################
#
# If this CIF has been generated from an entry in the Cambridge 
# Structural Database, then it will include bibliographic, chemical, 
# crystal, experimental, refinement or atomic coordinate data resulting 
# from the CCDC's data processing and validation procedures.
#
#######################################################################

data_FETTOO01
_chemical_formula_moiety         'C3 H7 N6 1+,C7 H5 O2 1-,2(H2 O1)'
_chemical_name_systematic        
'2,4,6-triamino-1,3,5-triazin-1-ium benzoate dihydrate'
_symmetry_cell_setting           orthorhombic
_symmetry_space_group_name_H-M   'P b c a'
_symmetry_Int_Tables_number      61
_space_group_name_Hall           '-P 2ac 2ab'
loop_
_symmetry_equiv_pos_site_id
_symmetry_equiv_pos_as_xyz
1 x,y,z
2 1/2-x,-y,1/2+z
3 -x,1/2+y,1/2-z
4 1/2+x,1/2-y,-z
5 -x,-y,-z
6 1/2+x,y,1/2-z
7 x,1/2-y,1/2+z
8 1/2-x,1/2+y,z
_cell_length_a                   12.4388(8)
_cell_length_b                   13.5573(9)
_cell_length_c                   16.6401(10)
_cell_angle_alpha                90
_cell_angle_beta                 90
_cell_angle_gamma                90
_cell_volume                     2806.13
_exptl_crystal_colour            colorless
_exptl_crystal_description       plate
_cell_formula_units_Z            8
loop_
_atom_site_label
_atom_site_type_symbol
_atom_site_fract_x
_atom_site_fract_y
_atom_site_fract_z
O1 O 0.99558(7) 0.14710(11) 0.48972(6)
O2 O 0.81790(7) 0.14647(8) 0.48816(6)
C1 C 0.90825(9) 0.15751(9) 0.36293(7)
C2 C 0.81246(11) 0.15629(11) 0.32099(9)
H1 H 0.7478 0.1518 0.3488
C3 C 0.81204(13) 0.16169(13) 0.23794(9)
H2 H 0.7472 0.1604 0.2102
C4 C 0.90689(12) 0.16897(11) 0.19645(8)
H3 H 0.9063 0.1732 0.1407
C5 C 1.00219(11) 0.17005(11) 0.23715(9)
H4 H 1.0665 0.1747 0.2090
C6 C 1.00345(9) 0.16419(11) 0.32053(9)
H5 H 1.0686 0.1648 0.3479
C7 C 0.90786(9) 0.15014(10) 0.45315(8)
N1 N 0.99968(7) 0.05423(10) 0.88547(7)
H6 H 0.9403 0.0466 0.9112
H7 H 1.0599 0.0515 0.9107
N2 N 0.90116(7) 0.07366(8) 0.77111(6)
N3 N 0.81303(8) 0.09106(9) 0.65086(6)
H8 H 0.7522 0.0833 0.6745
H9 H 0.8153 0.1007 0.5998
N4 N 0.99651(6) 0.10045(8) 0.65121(6)
H10 H 0.9952(10) 0.1114(12) 0.5973(11)
N5 N 1.18107(8) 0.10881(9) 0.65083(6)
H11 H 1.2421 0.1067 0.6750
H12 H 1.1785 0.1187 0.5998
N6 N 1.09459(7) 0.08149(7) 0.77047(6)
C8 C 0.99839(7) 0.07012(9) 0.80743(8)
C9 C 0.90250(8) 0.08829(9) 0.69266(7)
C10 C 1.09122(8) 0.09677(8) 0.69207(7)
O3 O 1.33115(8) 0.00390(9) 0.50019(5)
H13 H 1.2842(18) -0.0411(15) 0.5115(11)
H14 H 1.2912(18) 0.0555(16) 0.4856(12)
O4 O 1.21068(10) 0.17443(10) 0.48017(8)
H15 H 1.1383(19) 0.1775(15) 0.4712(11)
H16 H 1.2354(17) 0.2327(16) 0.4884(11)
loop_
_geom_bond_atom_site_label_1
_geom_bond_atom_site_label_2
_geom_bond_site_symmetry_1
_geom_bond_site_symmetry_2
O1 C7 1_555 1_555
O2 C7 1_555 1_555
C1 C2 1_555 1_555
C2 H1 1_555 1_555
C3 C2 1_555 1_555
H2 C3 1_555 1_555
C4 C3 1_555 1_555
H3 C4 1_555 1_555
C5 C4 1_555 1_555
H4 C5 1_555 1_555
C6 C1 1_555 1_555
H5 C6 1_555 1_555
C7 C1 1_555 1_555
N1 H6 1_555 1_555
H7 N1 1_555 1_555
N2 C8 1_555 1_555
N3 H8 1_555 1_555
H9 N3 1_555 1_555
N4 H10 1_555 1_555
N5 H11 1_555 1_555
H12 N5 1_555 1_555
N6 C8 1_555 1_555
C8 N1 1_555 1_555
C9 N2 1_555 1_555
C10 N4 1_555 1_555
O3 H13 1_555 1_555
H14 O3 1_555 1_555
O4 H15 1_555 1_555
H16 O4 1_555 1_555
C5 C6 1_555 1_555
N3 C9 1_555 1_555
N4 C9 1_555 1_555
N5 C10 1_555 1_555
N6 C10 1_555 1_555

#END
