
#######################################################################
#
#                 Cambridge Crystallographic Data Centre
#                                CCDC 
#
#######################################################################
#
# If this CIF has been generated from an entry in the Cambridge 
# Structural Database, then it will include bibliographic, chemical, 
# crystal, experimental, refinement or atomic coordinate data resulting 
# from the CCDC's data processing and validation procedures.
#
#######################################################################

data_FETWAD
_chemical_formula_moiety         'C12 H13 N3 O2'
_chemical_name_systematic        
1-(4-Methoxyphenyl)-3-(1H-1,2,4-triazol-1-yl)propan-1-one
_symmetry_cell_setting           monoclinic
_symmetry_space_group_name_H-M   'P 21/c'
_symmetry_Int_Tables_number      14
_space_group_name_Hall           '-P 2ybc'
loop_
_symmetry_equiv_pos_site_id
_symmetry_equiv_pos_as_xyz
1 x,y,z
2 -x,1/2+y,1/2-z
3 -x,-y,-z
4 x,1/2-y,1/2+z
_cell_length_a                   8.2642(13)
_cell_length_b                   11.4273(18)
_cell_length_c                   12.0990(19)
_cell_angle_alpha                90
_cell_angle_beta                 94.709(2)
_cell_angle_gamma                90
_cell_volume                     1138.74
_exptl_crystal_colour            colorless
_exptl_crystal_description       block
_cell_formula_units_Z            4
_exptl_crystal_recrystallization_method 'ethyl acetate-petroleum ether'
loop_
_atom_site_label
_atom_site_type_symbol
_atom_site_fract_x
_atom_site_fract_y
_atom_site_fract_z
O1 O 0.53528(11) 0.42017(8) -0.16793(7)
O2 O 0.88788(11) 0.12812(8) 0.22216(7)
N1 N 1.14548(12) 0.31136(9) 0.47341(7)
N2 N 1.26070(16) 0.45237(10) 0.57313(10)
N3 N 1.21064(13) 0.25909(9) 0.56771(8)
C1 C 0.5626(2) 0.53555(13) -0.20746(13)
C2 C 0.62263(14) 0.38403(11) -0.07415(10)
C3 C 0.72898(15) 0.45447(11) -0.00844(10)
C4 C 0.81159(15) 0.40687(10) 0.08544(9)
C5 C 0.79240(13) 0.28989(10) 0.11463(9)
C6 C 0.68332(15) 0.22177(11) 0.04787(11)
C7 C 0.59946(16) 0.26791(11) -0.04443(11)
C8 C 0.88494(13) 0.23446(10) 0.21081(9)
C9 C 0.97588(15) 0.31192(11) 0.29613(9)
C10 C 1.06394(17) 0.23924(11) 0.38607(10)
C11 C 1.17675(18) 0.42492(12) 0.47877(11)
C12 C 1.27750(16) 0.34775(12) 0.62301(11)
H1 H 0.6664(17) 0.1446(14) 0.0677(12)
H2 H 0.8859(16) 0.4596(12) 0.1293(11)
H3 H 0.5278(17) 0.2219(13) -0.0866(11)
H4 H 0.8988(18) 0.3661(14) 0.3276(12)
H5 H 1.0534(19) 0.3594(14) 0.2576(13)
H6 H 0.9861(18) 0.1900(13) 0.4206(12)
H7 H 0.7428(18) 0.5337(14) -0.0286(12)
H8 H 1.1501(19) 0.1915(13) 0.3529(12)
H9 H 0.535(2) 0.5942(15) -0.1540(14)
H10 H 1.1413(19) 0.4775(15) 0.4192(14)
H11 H 0.677(2) 0.5454(15) -0.2277(13)
H12 H 0.490(2) 0.5416(14) -0.2753(14)
H13 H 1.3362(18) 0.3362(13) 0.6956(12)
loop_
_geom_bond_atom_site_label_1
_geom_bond_atom_site_label_2
_geom_bond_site_symmetry_1
_geom_bond_site_symmetry_2
O1 C1 1_555 1_555
O2 C8 1_555 1_555
N1 N3 1_555 1_555
N2 C11 1_555 1_555
N3 C12 1_555 1_555
C1 H9 1_555 1_555
C2 O1 1_555 1_555
C3 C2 1_555 1_555
C4 C3 1_555 1_555
C5 C4 1_555 1_555
C6 C5 1_555 1_555
C7 C2 1_555 1_555
C8 C5 1_555 1_555
C9 C8 1_555 1_555
C10 N1 1_555 1_555
C11 N1 1_555 1_555
C12 N2 1_555 1_555
H1 C6 1_555 1_555
H2 C4 1_555 1_555
H3 C7 1_555 1_555
H4 C9 1_555 1_555
H5 C9 1_555 1_555
H6 C10 1_555 1_555
H7 C3 1_555 1_555
H8 C10 1_555 1_555
H10 C11 1_555 1_555
H11 C1 1_555 1_555
H12 C1 1_555 1_555
H13 C12 1_555 1_555
C6 C7 1_555 1_555
C9 C10 1_555 1_555

#END
