
#######################################################################
#
#                 Cambridge Crystallographic Data Centre
#                                CCDC 
#
#######################################################################
#
# If this CIF has been generated from an entry in the Cambridge 
# Structural Database, then it will include bibliographic, chemical, 
# crystal, experimental, refinement or atomic coordinate data resulting 
# from the CCDC's data processing and validation procedures.
#
#######################################################################

data_FETYUB
_chemical_name_common            
2,2'-(2,4b-dimethyl-7-oxo-1,2,3,4,4a,4b,5,6,7,9,10,10a-dodecahydrophenanthrene-1,2-diyl)diacetonitrile
_chemical_formula_moiety         'C20 H26 N2 O1'
_chemical_name_systematic        
3-Oxo-16,17-secoandrost-4-ene-16,17a-dinitrile
_chemical_properties_biological  'antiproliferative activity'
_symmetry_cell_setting           orthorhombic
_symmetry_space_group_name_H-M   'P 21 21 21'
_symmetry_Int_Tables_number      19
_space_group_name_Hall           'P 2ac 2ab'
loop_
_symmetry_equiv_pos_site_id
_symmetry_equiv_pos_as_xyz
1 x,y,z
2 1/2-x,-y,1/2+z
3 -x,1/2+y,1/2-z
4 1/2+x,1/2-y,-z
_cell_length_a                   11.8267(3)
_cell_length_b                   11.8260(3)
_cell_length_c                   12.5838(5)
_cell_angle_alpha                90
_cell_angle_beta                 90
_cell_angle_gamma                90
_cell_volume                     1760
_chemical_melting_point          '128 deg.C'
_cell_formula_units_Z            4
_exptl_crystal_recrystallization_method 'ethyl acetate/n-hexane'
loop_
_atom_site_label
_atom_site_type_symbol
_atom_site_fract_x
_atom_site_fract_y
_atom_site_fract_z
C1 C 0.8161(1) 0.7585(1) 0.8001(1)
C2 C 0.7409(1) 0.5597(1) 0.7998(1)
C3 C 0.8079(1) 0.6473(1) 0.8644(1)
C4 C 0.8482(1) 0.4048(1) 0.8955(1)
C5 C 0.7339(1) 0.4388(1) 0.8504(1)
C6 C 0.6979(1) 0.8080(1) 0.7748(1)
C7 C 0.9238(1) 0.6005(1) 0.8956(1)
C8 C 0.6239(1) 0.6057(1) 0.7706(1)
O1 O 0.8793(1) 0.1174(1) 0.8162(1)
C9 C 0.9005(2) 0.8436(1) 0.8489(1)
C10 C 0.6317(1) 0.7180(1) 0.7126(1)
C11 C 0.8337(2) 0.2091(1) 0.8283(1)
C12 C 0.7066(2) 0.9147(1) 0.7038(1)
C13 C 0.9093(2) 0.4922(1) 0.9592(1)
C14 C 0.8881(1) 0.8618(1) 0.9626(1)
C15 C 0.8921(1) 0.3009(1) 0.8829(1)
C16 C 0.6995(2) 0.3560(1) 0.7621(1)
C17 C 0.6329(2) 0.8451(1) 0.8745(1)
C18 C 0.6478(1) 0.4343(1) 0.9426(1)
N1 N 0.8809(1) 0.8749(1) 1.0523(1)
C19 C 0.7150(2) 0.2324(1) 0.7925(2)
C20 C 0.7707(1) 0.8961(1) 0.6064(1)
N2 N 0.8222(1) 0.8798(1) 0.5314(1)
H1 H 0.8522(12) 0.7407(11) 0.7337(11)
H2 H 0.7654(14) 0.6644(11) 0.9321(12)
H3 H 0.5551(17) 0.7496(14) 0.6993(13)
H4 H 0.9669(13) 0.5855(12) 0.8277(12)
H5 H 0.7844(12) 0.5476(11) 0.7303(11)
H6 H 0.5818(15) 0.6133(14) 0.8334(14)
H7 H 0.8625(16) 0.5121(14) 1.0255(14)
H8 H 0.5826(14) 0.5518(14) 0.7267(12)
H9 H 0.9676(14) 0.6549(13) 0.9388(13)
H10 H 0.6700(13) 0.7058(11) 0.6444(12)
H11 H 0.9610(13) 0.2842(12) 0.9162(11)
H12 H 0.9746(15) 0.8145(13) 0.8419(12)
H13 H 0.8938(16) 0.9189(15) 0.8159(13)
H14 H 0.9808(15) 0.4620(12) 0.9804(13)
H15 H 0.6955(15) 0.1871(16) 0.7377(15)
H16 H 0.7410(16) 0.9792(16) 0.7405(13)
H17 H 0.7478(16) 0.3733(15) 0.6946(14)
H18 H 0.6278(16) 0.9403(14) 0.6820(12)
H19 H 0.6234(15) 0.3683(13) 0.7414(12)
H20 H 0.6625(15) 0.2097(14) 0.8521(14)
H21 H 0.6735 0.9048 0.9093
H22 H 0.6254 0.7820 0.9220
H23 H 0.5592 0.8717 0.8544
H24 H 0.6534 0.3626 0.9780
H25 H 0.5728 0.4437 0.9150
H26 H 0.6638 0.4939 0.9922
loop_
_geom_bond_atom_site_label_1
_geom_bond_atom_site_label_2
_geom_bond_site_symmetry_1
_geom_bond_site_symmetry_2
C1 C3 1_555 1_555
C2 C3 1_555 1_555
C3 C7 1_555 1_555
C4 C5 1_555 1_555
C5 C2 1_555 1_555
C6 C1 1_555 1_555
C7 C13 1_555 1_555
C8 C2 1_555 1_555
O1 C11 1_555 1_555
C9 C1 1_555 1_555
C10 C6 1_555 1_555
C11 C15 1_555 1_555
C12 C6 1_555 1_555
C13 C4 1_555 1_555
C14 C9 1_555 1_555
C15 C4 1_555 1_555
C16 C5 1_555 1_555
C17 C6 1_555 1_555
C18 C5 1_555 1_555
N1 C14 1_555 1_555
C19 C11 1_555 1_555
C20 C12 1_555 1_555
N2 C20 1_555 1_555
H1 C1 1_555 1_555
H2 C3 1_555 1_555
H3 C10 1_555 1_555
H4 C7 1_555 1_555
H5 C2 1_555 1_555
H6 C8 1_555 1_555
H7 C13 1_555 1_555
H8 C8 1_555 1_555
H9 C7 1_555 1_555
H10 C10 1_555 1_555
H11 C15 1_555 1_555
H12 C9 1_555 1_555
H13 C9 1_555 1_555
H14 C13 1_555 1_555
H15 C19 1_555 1_555
H16 C12 1_555 1_555
H17 C16 1_555 1_555
H18 C12 1_555 1_555
H19 C16 1_555 1_555
H20 C19 1_555 1_555
H21 C17 1_555 1_555
H22 C17 1_555 1_555
H23 C17 1_555 1_555
H24 C18 1_555 1_555
H25 C18 1_555 1_555
H26 C18 1_555 1_555
C8 C10 1_555 1_555
C16 C19 1_555 1_555

#END
