
#######################################################################
#
#                 Cambridge Crystallographic Data Centre
#                                CCDC 
#
#######################################################################
#
# If this CIF has been generated from an entry in the Cambridge 
# Structural Database, then it will include bibliographic, chemical, 
# crystal, experimental, refinement or atomic coordinate data resulting 
# from the CCDC's data processing and validation procedures.
#
#######################################################################

data_FETZIQ
_chemical_formula_moiety         'C46 H30 N4 O10,C16 H10,C3 H2 F6 O1'
_chemical_name_systematic        
"7,7'-((ethane-1,2-diylbis(oxy))bis(ethane-2,1-diyl))bis(2-phenylbenzo[lmn][3,8]phenanthroline-1,3,6,8(2H,7H)-tetraone) pyrene 1,1,1,3,3,3-hexafluoropropan-2-ol solvate"
_symmetry_cell_setting           triclinic
_symmetry_space_group_name_H-M   'P -1'
_symmetry_Int_Tables_number      2
_space_group_name_Hall           '-P 1'
loop_
_symmetry_equiv_pos_site_id
_symmetry_equiv_pos_as_xyz
1 x,y,z
2 -x,-y,-z
_cell_length_a                   10.6269(3)
_cell_length_b                   14.9210(5)
_cell_length_c                   17.4851(7)
_cell_angle_alpha                108.065(3)
_cell_angle_beta                 102.085(3)
_cell_angle_gamma                91.766(2)
_cell_volume                     2563.72
_exptl_crystal_colour            red
_exptl_crystal_description       rhombohedron
_cell_formula_units_Z            2
_exptl_crystal_recrystallization_method 
chloroform/hexafluoropropan-2-ol/methanol
loop_
_atom_site_label
_atom_site_type_symbol
_atom_site_fract_x
_atom_site_fract_y
_atom_site_fract_z
C1 C 0.4505(2) 0.62268(18) 0.47860(17)
C2 C 0.4512(3) 0.61722(19) 0.39807(18)
C3 C 0.3648(3) 0.6623(2) 0.35623(18)
C4 C 0.2775(3) 0.7140(2) 0.3952(2)
C5 C 0.2758(3) 0.7200(2) 0.47557(19)
C6 C 0.3630(2) 0.67422(19) 0.51681(17)
N1 N 0.3657(2) 0.68492(15) 0.60244(14)
C7 C 0.3994(2) 0.77649(19) 0.65988(18)
O1 O 0.43172(19) 0.84217(13) 0.63839(12)
C8 C 0.3959(2) 0.78862(18) 0.74629(17)
C9 C 0.3758(2) 0.70762(18) 0.76999(17)
C10 C 0.3508(2) 0.61622(18) 0.71145(17)
C11 C 0.3398(3) 0.60273(19) 0.62246(18)
O2 O 0.3114(2) 0.52623(14) 0.56900(13)
C12 C 0.3328(3) 0.53857(19) 0.73658(18)
C13 C 0.3422(3) 0.55064(19) 0.82026(19)
C14 C 0.3643(2) 0.63904(18) 0.87828(17)
C15 C 0.3807(2) 0.71973(18) 0.85405(16)
C16 C 0.4005(2) 0.81147(18) 0.91208(17)
C17 C 0.4165(2) 0.88928(18) 0.88720(18)
C18 C 0.4152(2) 0.87761(18) 0.80443(17)
C19 C 0.4055(2) 0.8247(2) 1.00046(18)
O3 O 0.4227(2) 0.90260(14) 1.05258(12)
N2 N 0.3897(2) 0.74234(16) 1.02167(14)
C20 C 0.3696(3) 0.6505(2) 0.96606(18)
O4 O 0.3568(2) 0.58313(14) 0.98997(13)
C21 C 0.3995(3) 0.7535(2) 1.10973(18)
C22 C 0.2698(3) 0.7394(2) 1.13024(18)
O5 O 0.18579(19) 0.79968(14) 1.10277(12)
C23 C 0.0750(3) 0.8140(2) 1.13742(19)
C24 C -0.0075(3) 0.7251(3) 1.12741(19)
O6 O -0.04162(19) 0.66797(15) 1.04278(12)
C25 C -0.1475(3) 0.5976(2) 1.02290(18)
C26 C -0.2772(3) 0.6347(2) 1.00097(18)
N3 N -0.2792(2) 0.67845(17) 0.93519(14)
C27 C -0.2915(3) 0.6158(2) 0.85513(18)
O7 O -0.3076(2) 0.53078(15) 0.84064(13)
C28 C -0.2835(2) 0.65869(19) 0.78973(17)
C29 C -0.2735(2) 0.75763(19) 0.80900(16)
C30 C -0.2652(2) 0.8184(2) 0.89059(16)
C31 C -0.2638(3) 0.7768(2) 0.95794(19)
O8 O -0.2518(2) 0.82653(16) 1.02939(13)
C32 C -0.2595(3) 0.9145(2) 0.90678(17)
C33 C -0.2628(2) 0.95421(19) 0.84357(17)
C34 C -0.2698(2) 0.89662(18) 0.76367(16)
C35 C -0.2727(2) 0.79750(19) 0.74558(16)
C36 C -0.2760(2) 0.73685(18) 0.66473(16)
C37 C -0.2811(2) 0.64014(18) 0.64794(16)
C38 C -0.2871(2) 0.60125(18) 0.71082(17)
C39 C -0.2743(2) 0.77813(18) 0.59828(16)
O9 O -0.26722(18) 0.72961(13) 0.52916(11)
N4 N -0.2844(2) 0.87454(15) 0.61638(13)
C40 C -0.2828(3) 0.93815(19) 0.69610(16)
O10 O -0.2922(2) 1.02152(13) 0.70618(12)
C41 C -0.3102(3) 0.91135(18) 0.54744(17)
C42 C -0.2209(3) 0.9750(2) 0.54064(19)
C43 C -0.2509(4) 1.0094(2) 0.4733(2)
C44 C -0.3675(4) 0.9778(2) 0.4159(2)
C45 C -0.4547(3) 0.9136(2) 0.42335(18)
C46 C -0.4272(3) 0.8810(2) 0.49009(17)
H1 H 0.5092 0.5917 0.5076
H2 H 0.5127 0.5829 0.3719
H3 H 0.3660 0.6592 0.3011
H4 H 0.2200 0.7467 0.3677
H5 H 0.2159 0.7547 0.5026
H6 H 0.3142 0.4781 0.6976
H7 H 0.3327 0.4981 0.8368
H8 H 0.4293 0.9505 0.9254
H9 H 0.4287 0.9294 0.7881
H10 H 0.4391 0.8171 1.1416
H11 H 0.4552 0.7077 1.1235
H12 H 0.2832 0.7553 1.1902
H13 H 0.2280 0.6738 1.1031
H14 H 0.1031 0.8492 1.1978
H15 H 0.0192 0.8527 1.1092
H16 H -0.0865 0.7425 1.1490
H17 H 0.0436 0.6886 1.1599
H18 H -0.1455 0.5747 1.0694
H19 H -0.1370 0.5444 0.9750
H20 H -0.2949 0.6822 1.0491
H21 H -0.3453 0.5809 0.9799
H22 H -0.2553 0.9535 0.9610
H23 H -0.2616 1.0194 0.8557
H24 H -0.2805 0.6010 0.5949
H25 H -0.2933 0.5352 0.6982
H26 H -0.1419 0.9931 0.5792
H27 H -0.1908 1.0518 0.4678
H28 H -0.3856 1.0008 0.3713
H29 H -0.5341 0.8922 0.3832
H30 H -0.4890 0.8380 0.4966
F1 F 0.41315(19) 0.28987(19) 0.72896(13)
C47 C 0.2952(3) 0.2579(2) 0.72622(19)
F2 F 0.3001(2) 0.18297(14) 0.75212(12)
F3 F 0.2508(2) 0.32493(14) 0.78161(12)
C48 C 0.2116(3) 0.2345(2) 0.63944(17)
O11 O 0.2058(3) 0.31779(15) 0.61883(14)
C49 C 0.0766(3) 0.1950(3) 0.6317(2)
F4 F 0.0073(2) 0.17751(19) 0.55442(13)
F5 F 0.0719(2) 0.11543(19) 0.64890(16)
F6 F 0.0137(2) 0.2542(2) 0.68077(15)
H31 H 0.2517 0.1862 0.6020
H32 H 0.2182 0.3051 0.5708
C50 C 0.0980(4) 0.94668(18) 0.73375(9)
C51 C 0.0753(4) 0.86261(9) 0.66252(18)
C52 C 0.0575(4) 0.7760(2) 0.6715(2)
C53 C 0.0351(4) 0.69039(9) 0.60399(18)
C54 C 0.0166(5) 0.6027(2) 0.61310(16)
C55 C 0.0199(4) 0.5951(2) 0.6923(2)
C56 C 0.0015(4) 0.50890(18) 0.70197(17)
C57 C 0.0033(4) 0.50411(18) 0.78025(9)
C58 C 0.0245(4) 0.58743(9) 0.85179(19)
C59 C 0.0443(4) 0.6739(2) 0.8424(2)
C60 C 0.0419(7) 0.6798(2) 0.7617(2)
C61 C 0.0605(7) 0.7710(2) 0.7530(2)
C62 C 0.0813(4) 0.8543(2) 0.82160(19)
C63 C 0.1004(4) 0.94432(18) 0.81144(16)
C64 C 0.0834(4) 0.84607(19) 0.89921(16)
C65 C 0.0657(4) 0.75975(9) 0.91005(18)
H33 H 0.1125 1.0057 0.7266
H34 H 0.0726 0.8669 0.6100
H35 H 0.0327 0.6939 0.5511
H36 H 0.0014 0.5470 0.5671
H37 H -0.0122 0.4534 0.6564
H38 H -0.0100 0.4446 0.7871
H39 H 0.0248 0.5829 0.9045
H40 H 0.1139 1.0008 0.8572
H41 H 0.0970 0.9028 0.9449
H42 H 0.0670 0.7569 0.9637
C66? C 0.0996(4) 0.9649(2) 0.77106(9)
C67? C 0.0784(4) 0.89465(10) 0.69253(17)
C68? C 0.0578(5) 0.8012(2) 0.6855(2)
C69? C 0.0352(5) 0.72804(11) 0.60952(17)
C70? C 0.0158(5) 0.63477(18) 0.60258(18)
C71? C 0.0162(5) 0.6076(2) 0.6743(2)
C72? C -0.0049(5) 0.51501(17) 0.66766(19)
C73? C -0.0050(4) 0.4905(2) 0.73989(9)
C74? C 0.0167(4) 0.55944(10) 0.81888(17)
C75? C 0.0380(4) 0.6539(2) 0.8257(2)
C76? C 0.0383(7) 0.6796(2) 0.7521(2)
C77? C 0.0586(7) 0.7765(2) 0.7601(2)
C78? C 0.0790(5) 0.8470(2) 0.8367(2)
C79? C 0.1004(5) 0.94361(17) 0.84319(19)
C80? C 0.0786(5) 0.81922(18) 0.90831(18)
C81? C 0.0607(5) 0.72825(11) 0.90327(17)
H43? H 0.1140 1.0293 0.7748
H44? H 0.0782 0.9114 0.6455
H45? H 0.0329 0.7442 0.5619
H46? H 0.0021 0.5881 0.5518
H47? H -0.0196 0.4681 0.6163
H48? H -0.0204 0.4259 0.7353
H49? H 0.0171 0.5418 0.8663
H50? H 0.1140 0.9919 0.8949
H51? H 0.0908 0.8674 0.9594
H52? H 0.0632 0.7127 0.9514
loop_
_geom_bond_atom_site_label_1
_geom_bond_atom_site_label_2
_geom_bond_site_symmetry_1
_geom_bond_site_symmetry_2
C1 C2 1_555 1_555
C2 C3 1_555 1_555
C3 C4 1_555 1_555
C4 C5 1_555 1_555
C5 C6 1_555 1_555
C6 C1 1_555 1_555
N1 C6 1_555 1_555
C7 N1 1_555 1_555
O1 C7 1_555 1_555
C8 C7 1_555 1_555
C9 C8 1_555 1_555
C10 C9 1_555 1_555
C11 N1 1_555 1_555
O2 C11 1_555 1_555
C12 C10 1_555 1_555
C13 C12 1_555 1_555
C14 C13 1_555 1_555
C15 C9 1_555 1_555
C16 C15 1_555 1_555
C17 C16 1_555 1_555
C18 C8 1_555 1_555
C19 C16 1_555 1_555
O3 C19 1_555 1_555
N2 C19 1_555 1_555
C20 C14 1_555 1_555
O4 C20 1_555 1_555
C21 N2 1_555 1_555
C22 C21 1_555 1_555
O5 C22 1_555 1_555
C23 O5 1_555 1_555
C24 C23 1_555 1_555
O6 C24 1_555 1_555
C25 O6 1_555 1_555
C26 C25 1_555 1_555
N3 C26 1_555 1_555
C27 N3 1_555 1_555
O7 C27 1_555 1_555
C28 C27 1_555 1_555
C29 C28 1_555 1_555
C30 C29 1_555 1_555
C31 N3 1_555 1_555
O8 C31 1_555 1_555
C32 C30 1_555 1_555
C33 C32 1_555 1_555
C34 C33 1_555 1_555
C35 C29 1_555 1_555
C36 C35 1_555 1_555
C37 C36 1_555 1_555
C38 C28 1_555 1_555
C39 C36 1_555 1_555
O9 C39 1_555 1_555
N4 C39 1_555 1_555
C40 C34 1_555 1_555
O10 C40 1_555 1_555
C41 N4 1_555 1_555
C42 C41 1_555 1_555
C43 C42 1_555 1_555
C44 C43 1_555 1_555
C45 C44 1_555 1_555
C46 C41 1_555 1_555
H1 C1 1_555 1_555
H2 C2 1_555 1_555
H3 C3 1_555 1_555
H4 C4 1_555 1_555
H5 C5 1_555 1_555
H6 C12 1_555 1_555
H7 C13 1_555 1_555
H8 C17 1_555 1_555
H9 C18 1_555 1_555
H10 C21 1_555 1_555
H11 C21 1_555 1_555
H12 C22 1_555 1_555
H13 C22 1_555 1_555
H14 C23 1_555 1_555
H15 C23 1_555 1_555
H16 C24 1_555 1_555
H17 C24 1_555 1_555
H18 C25 1_555 1_555
H19 C25 1_555 1_555
H20 C26 1_555 1_555
H21 C26 1_555 1_555
H22 C32 1_555 1_555
H23 C33 1_555 1_555
H24 C37 1_555 1_555
H25 C38 1_555 1_555
H26 C42 1_555 1_555
H27 C43 1_555 1_555
H28 C44 1_555 1_555
H29 C45 1_555 1_555
H30 C46 1_555 1_555
F1 C47 1_555 1_555
C47 F2 1_555 1_555
F3 C47 1_555 1_555
C48 C47 1_555 1_555
O11 C48 1_555 1_555
C49 C48 1_555 1_555
F4 C49 1_555 1_555
F5 C49 1_555 1_555
F6 C49 1_555 1_555
H31 C48 1_555 1_555
H32 O11 1_555 1_555
C50 C51 1_555 1_555
C51 C52 1_555 1_555
C52 C53 1_555 1_555
C53 C54 1_555 1_555
C54 C55 1_555 1_555
C55 C56 1_555 1_555
C56 C57 1_555 1_555
C57 C58 1_555 1_555
C58 C59 1_555 1_555
C59 C60 1_555 1_555
C60 C55 1_555 1_555
C61 C52 1_555 1_555
C62 C61 1_555 1_555
C63 C50 1_555 1_555
C64 C62 1_555 1_555
C65 C59 1_555 1_555
H33 C50 1_555 1_555
H34 C51 1_555 1_555
H35 C53 1_555 1_555
H36 C54 1_555 1_555
H37 C56 1_555 1_555
H38 C57 1_555 1_555
H39 C58 1_555 1_555
H40 C63 1_555 1_555
H41 C64 1_555 1_555
H42 C65 1_555 1_555
C10 C11 1_555 1_555
C14 C15 1_555 1_555
C17 C18 1_555 1_555
N2 C20 1_555 1_555
C30 C31 1_555 1_555
C34 C35 1_555 1_555
C37 C38 1_555 1_555
N4 C40 1_555 1_555
C45 C46 1_555 1_555
C60 C61 1_555 1_555
C62 C63 1_555 1_555
C64 C65 1_555 1_555

#END
