
#######################################################################
#
#                 Cambridge Crystallographic Data Centre
#                                CCDC 
#
#######################################################################
#
# If this CIF has been generated from an entry in the Cambridge 
# Structural Database, then it will include bibliographic, chemical, 
# crystal, experimental, refinement or atomic coordinate data resulting 
# from the CCDC's data processing and validation procedures.
#
#######################################################################

data_FETZOW
_chemical_formula_moiety         'C28 H20'
_chemical_name_systematic        2-(2,2-diphenylethenyl)anthracene
_symmetry_cell_setting           orthorhombic
_symmetry_space_group_name_H-M   'P b c a'
_symmetry_Int_Tables_number      61
_space_group_name_Hall           '-P 2ac 2ab'
loop_
_symmetry_equiv_pos_site_id
_symmetry_equiv_pos_as_xyz
1 x,y,z
2 1/2-x,-y,1/2+z
3 -x,1/2+y,1/2-z
4 1/2+x,1/2-y,-z
5 -x,-y,-z
6 1/2+x,y,1/2-z
7 x,1/2-y,1/2+z
8 1/2-x,1/2+y,z
_cell_length_a                   11.0823(6)
_cell_length_b                   8.2233(4)
_cell_length_c                   42.789(2)
_cell_angle_alpha                90
_cell_angle_beta                 90
_cell_angle_gamma                90
_cell_volume                     3899.49
_exptl_crystal_colour            colorless
_exptl_crystal_description       plate
_cell_formula_units_Z            8
loop_
_atom_site_label
_atom_site_type_symbol
_atom_site_fract_x
_atom_site_fract_y
_atom_site_fract_z
C1 C 0.25691(19) 0.6419(2) 0.79491(4)
H1 H 0.1839 0.6977 0.7946
C2 C 0.30825(19) 0.6018(3) 0.82278(4)
H2 H 0.2696 0.6292 0.8413
C3 C 0.42010(19) 0.5186(3) 0.82372(5)
H3 H 0.4548 0.4934 0.8429
C4 C 0.47726(19) 0.4754(2) 0.79691(5)
H4 H 0.5506 0.4208 0.7980
C5 C 0.42634(17) 0.5124(2) 0.76704(4)
C6 C 0.48144(17) 0.4670(2) 0.73896(4)
H5 H 0.5541 0.4104 0.7395
C7 C 0.42996(16) 0.5047(2) 0.71005(4)
C8 C 0.48201(17) 0.4540(2) 0.68100(4)
H6 H 0.5532 0.3942 0.6812
C9 C 0.42992(17) 0.4912(2) 0.65319(4)
H7 H 0.4658 0.4553 0.6348
C10 C 0.32045(17) 0.5850(2) 0.65153(4)
C11 C 0.26725(18) 0.6311(2) 0.67913(4)
H8 H 0.1951 0.6888 0.6784
C12 C 0.31846(17) 0.5938(2) 0.70891(4)
C13 C 0.26348(17) 0.6390(2) 0.73703(4)
H9 H 0.1915 0.6971 0.7364
C14 C 0.31368(17) 0.5993(2) 0.76612(4)
C15 C 0.25995(19) 0.6250(2) 0.62188(4)
H10 H 0.1771 0.6419 0.6232
C16 C 0.30812(17) 0.6408(2) 0.59292(4)
C17 C 0.22971(18) 0.6643(2) 0.56495(4)
C18 C 0.11064(19) 0.6072(2) 0.56379(5)
H11 H 0.0782 0.5547 0.5811
C19 C 0.0402(2) 0.6278(3) 0.53718(5)
H12 H -0.0384 0.5885 0.5369
C20 C 0.0864(2) 0.7062(3) 0.51119(5)
H13 H 0.0391 0.7202 0.4934
C21 C 0.2032(2) 0.7632(3) 0.51193(5)
H14 H 0.2348 0.8162 0.4946
C22 C 0.27401(19) 0.7425(2) 0.53827(4)
H15 H 0.3528 0.7814 0.5382
C23 C 0.44121(17) 0.6416(2) 0.58762(4)
C24 C 0.51384(18) 0.7507(2) 0.60377(4)
H16 H 0.4786 0.8234 0.6177
C25 C 0.6377(2) 0.7530(3) 0.59951(5)
H17 H 0.6850 0.8275 0.6104
C26 C 0.6905(2) 0.6446(3) 0.57912(5)
H18 H 0.7738 0.6450 0.5764
C27 C 0.6199(2) 0.5354(3) 0.56274(5)
H19 H 0.6560 0.4618 0.5491
C28 C 0.49572(19) 0.5347(2) 0.56650(4)
H20 H 0.4486 0.4630 0.5550
loop_
_geom_bond_atom_site_label_1
_geom_bond_atom_site_label_2
_geom_bond_site_symmetry_1
_geom_bond_site_symmetry_2
C1 H1 1_555 1_555
C2 C1 1_555 1_555
H2 C2 1_555 1_555
C3 C2 1_555 1_555
H3 C3 1_555 1_555
C4 C3 1_555 1_555
H4 C4 1_555 1_555
C5 C4 1_555 1_555
C6 C5 1_555 1_555
H5 C6 1_555 1_555
C7 C6 1_555 1_555
C8 C7 1_555 1_555
H6 C8 1_555 1_555
C9 C8 1_555 1_555
H7 C9 1_555 1_555
C10 C9 1_555 1_555
C11 C10 1_555 1_555
H8 C11 1_555 1_555
C12 C7 1_555 1_555
C13 C12 1_555 1_555
H9 C13 1_555 1_555
C14 C1 1_555 1_555
C15 C10 1_555 1_555
H10 C15 1_555 1_555
C16 C15 1_555 1_555
C17 C16 1_555 1_555
C18 C17 1_555 1_555
H11 C18 1_555 1_555
C19 C18 1_555 1_555
H12 C19 1_555 1_555
C20 C19 1_555 1_555
H13 C20 1_555 1_555
C21 C20 1_555 1_555
H14 C21 1_555 1_555
C22 C17 1_555 1_555
H15 C22 1_555 1_555
C23 C16 1_555 1_555
C24 C23 1_555 1_555
H16 C24 1_555 1_555
C25 C24 1_555 1_555
H17 C25 1_555 1_555
C26 C25 1_555 1_555
H18 C26 1_555 1_555
C27 C26 1_555 1_555
H19 C27 1_555 1_555
C28 C23 1_555 1_555
H20 C28 1_555 1_555
C5 C14 1_555 1_555
C11 C12 1_555 1_555
C13 C14 1_555 1_555
C21 C22 1_555 1_555
C27 C28 1_555 1_555

#END
