
#######################################################################
#
#                 Cambridge Crystallographic Data Centre
#                                CCDC 
#
#######################################################################
#
# If this CIF has been generated from an entry in the Cambridge 
# Structural Database, then it will include bibliographic, chemical, 
# crystal, experimental, refinement or atomic coordinate data resulting 
# from the CCDC's data processing and validation procedures.
#
#######################################################################

data_FEVBUE
_chemical_formula_moiety         'C20 H19 N3 O1'
_chemical_name_systematic        
1,5-Dimethyl-2-phenyl-4-((E,E)-3-phenylprop-2-enylideneamino)-1H-pyrazol-3(2H)-one
_symmetry_cell_setting           monoclinic
_symmetry_space_group_name_H-M   'P 21/c'
_symmetry_Int_Tables_number      14
_space_group_name_Hall           '-P 2ybc'
loop_
_symmetry_equiv_pos_site_id
_symmetry_equiv_pos_as_xyz
1 x,y,z
2 -x,1/2+y,1/2-z
3 -x,-y,-z
4 x,1/2-y,1/2+z
_cell_length_a                   13.480(3)
_cell_length_b                   9.796(2)
_cell_length_c                   13.757(3)
_cell_angle_alpha                90
_cell_angle_beta                 97.556(3)
_cell_angle_gamma                90
_cell_volume                     1800.84
_exptl_crystal_colour            yellow
_exptl_crystal_description       block
_cell_formula_units_Z            4
_exptl_crystal_recrystallization_method methanol
loop_
_atom_site_label
_atom_site_type_symbol
_atom_site_fract_x
_atom_site_fract_y
_atom_site_fract_z
N1 N 1.05042(13) 0.2801(2) 1.00112(14)
N2 N 1.06534(13) 0.1906(2) 1.08125(13)
N3 N 0.81671(14) 0.0959(2) 0.98788(15)
O1 O 0.92753(12) 0.3089(2) 0.86907(13)
C1 C 0.95631(16) 0.2551(3) 0.94844(18)
C2 C 0.91046(16) 0.1572(2) 1.00619(17)
C3 C 0.97793(16) 0.1236(2) 1.08543(17)
C4 C 0.96537(18) 0.0309(3) 1.16789(18)
H1 H 0.9635 0.0835 1.2265
H2 H 1.0205 -0.0318 1.1775
H3 H 0.9040 -0.0190 1.1532
C5 C 1.1330(2) 0.2339(3) 1.16722(19)
H4 H 1.1120 0.3212 1.1889
H5 H 1.1997 0.2410 1.1506
H6 H 1.1317 0.1682 1.2188
C6 C 1.13460(16) 0.3308(3) 0.95975(17)
C7 C 1.21553(17) 0.2487(3) 0.95127(18)
H7 H 1.2161 0.1586 0.9726
C8 C 1.29582(19) 0.3008(3) 0.9110(2)
H8 H 1.3512 0.2459 0.9058
C9 C 1.2945(2) 0.4325(4) 0.8787(2)
H9 H 1.3491 0.4675 0.8520
C10 C 1.2129(2) 0.5130(3) 0.8856(2)
H10 H 1.2117 0.6024 0.8626
C11 C 1.13252(19) 0.4625(3) 0.9264(2)
H11 H 1.0772 0.5175 0.9313
C12 C 0.75440(17) 0.1314(3) 0.91381(19)
H12 H 0.7721 0.1987 0.8716
C13 C 0.65771(17) 0.0687(3) 0.89533(19)
H13 H 0.6419 0.0013 0.9384
C14 C 0.58931(18) 0.1012(3) 0.8204(2)
H14 H 0.6077 0.1691 0.7790
C15 C 0.48950(17) 0.0449(3) 0.7942(2)
C16 C 0.44461(19) -0.0375(3) 0.8558(2)
H15 H 0.4793 -0.0617 0.9163
C17 C 0.3479(2) -0.0854(3) 0.8291(3)
H16 H 0.3175 -0.1397 0.8722
C18 C 0.2973(2) -0.0527(4) 0.7393(3)
H17 H 0.2324 -0.0842 0.7214
C19 C 0.3418(2) 0.0252(4) 0.6766(3)
H18 H 0.3082 0.0445 0.6147
C20 C 0.4365(2) 0.0764(3) 0.7035(2)
H19 H 0.4653 0.1327 0.6605
loop_
_geom_bond_atom_site_label_1
_geom_bond_atom_site_label_2
_geom_bond_site_symmetry_1
_geom_bond_site_symmetry_2
N1 N2 1_555 1_555
N2 C3 1_555 1_555
N3 C2 1_555 1_555
O1 C1 1_555 1_555
C1 N1 1_555 1_555
C2 C1 1_555 1_555
C3 C2 1_555 1_555
C4 C3 1_555 1_555
H1 C4 1_555 1_555
H2 C4 1_555 1_555
H3 C4 1_555 1_555
C5 N2 1_555 1_555
H4 C5 1_555 1_555
H5 C5 1_555 1_555
H6 C5 1_555 1_555
C6 N1 1_555 1_555
C7 C6 1_555 1_555
H7 C7 1_555 1_555
C8 C7 1_555 1_555
H8 C8 1_555 1_555
C9 C8 1_555 1_555
H9 C9 1_555 1_555
C10 C9 1_555 1_555
H10 C10 1_555 1_555
C11 C6 1_555 1_555
H11 C11 1_555 1_555
C12 N3 1_555 1_555
H12 C12 1_555 1_555
C13 C12 1_555 1_555
H13 C13 1_555 1_555
C14 C13 1_555 1_555
H14 C14 1_555 1_555
C15 C14 1_555 1_555
C16 C15 1_555 1_555
H15 C16 1_555 1_555
C17 C16 1_555 1_555
H16 C17 1_555 1_555
C18 C17 1_555 1_555
H17 C18 1_555 1_555
C19 C18 1_555 1_555
H18 C19 1_555 1_555
C20 C15 1_555 1_555
H19 C20 1_555 1_555
C10 C11 1_555 1_555
C19 C20 1_555 1_555

#END
