
#######################################################################
#
#                 Cambridge Crystallographic Data Centre
#                                CCDC 
#
#######################################################################
#
# If this CIF has been generated from an entry in the Cambridge 
# Structural Database, then it will include bibliographic, chemical, 
# crystal, experimental, refinement or atomic coordinate data resulting 
# from the CCDC's data processing and validation procedures.
#
#######################################################################

data_FEVCOZ
_chemical_formula_moiety         'C32 H33 N3 O8 S1'
_chemical_name_systematic        
'1-(3-Isopropylidene-N-(p-toluenesulfonyl)piperidin-4-yl)-4-phenyl-(1E)-buten-4-yl 3,5-dinitrobenzoate'
_symmetry_cell_setting           monoclinic
_symmetry_space_group_name_H-M   'C 2/c'
_symmetry_Int_Tables_number      15
_space_group_name_Hall           '-C 2yn'
loop_
_symmetry_equiv_pos_site_id
_symmetry_equiv_pos_as_xyz
1 x,y,z
2 1/2+x,1/2+y,z
3 -x,y,1/2-z
4 1/2-x,1/2+y,1/2-z
5 -x,-y,-z
6 1/2-x,1/2-y,-z
7 x,-y,1/2+z
8 1/2+x,1/2-y,1/2+z
_cell_length_a                   30.294(2)
_cell_length_b                   10.2633(6)
_cell_length_c                   21.6274(5)
_cell_angle_alpha                90
_cell_angle_beta                 106.4167(8)
_cell_angle_gamma                90
_cell_volume                     6450.17
_exptl_crystal_description       block
_cell_formula_units_Z            8
loop_
_atom_site_label
_atom_site_type_symbol
_atom_site_fract_x
_atom_site_fract_y
_atom_site_fract_z
S1 S 0.29164(3) 0.12035(7) 0.15958(4)
O1 O 0.05410(6) -0.2637(2) 0.20350(7)
O2 O 0.33216(7) 0.1005(2) 0.2130(1)
O3 O 0.28325(8) 0.2443(2) 0.1297(1)
O4 O 0.04297(7) -0.4787(2) 0.20900(9)
O5 O 0.0868(2) -0.5271(3) 0.5097(1)
O6 O 0.0579(1) -0.6453(3) 0.4289(1)
O7 O 0.16172(8) -0.1263(2) 0.4828(1)
O8 O 0.14438(7) -0.0355(2) 0.3894(1)
N1 N 0.24806(7) 0.0886(2) 0.1869(1)
N2 N 0.0746(1) -0.5453(3) 0.4528(2)
N3 N 0.14228(7) -0.1250(3) 0.4252(1)
C1 C 0.2508(1) -0.0270(3) 0.2275(2)
C2 C 0.20112(9) 0.1143(3) 0.1457(1)
C3 C 0.16803(8) 0.1295(2) 0.1859(1)
C4 C 0.17067(9) 0.0191(3) 0.2326(1)
C5 C 0.2210(1) -0.0037(4) 0.2712(1)
C6 C 0.14870(8) -0.1052(3) 0.2012(1)
C7 C 0.11468(8) -0.1163(3) 0.1483(1)
C8 C 0.09302(10) -0.2425(3) 0.1217(2)
C9 C 0.04635(9) -0.2676(3) 0.1337(1)
C10 C 0.01019(9) -0.1696(3) 0.1032(1)
C11 C -0.0139(1) -0.1851(4) 0.0386(2)
C12 C -0.0464(1) -0.0949(6) 0.0084(2)
C13 C -0.0553(1) 0.0111(6) 0.0404(3)
C14 C -0.0321(1) 0.0284(4) 0.1036(3)
C15 C 0.0009(1) -0.0634(3) 0.1356(2)
C16 C 0.1383(1) 0.2274(3) 0.1789(1)
C17 C 0.1019(2) 0.2326(6) 0.2149(3)
C18 C 0.1359(2) 0.3396(4) 0.1337(3)
C19 C 0.29417(9) 0.0086(3) 0.0992(2)
C20 C 0.2749(1) 0.0392(3) 0.0348(2)
C21 C 0.2792(1) -0.0473(4) -0.0125(2)
C22 C 0.3021(1) -0.1636(4) 0.0034(3)
C23 C 0.3198(1) -0.1924(4) 0.0669(3)
C24 C 0.3164(1) -0.1084(3) 0.1152(2)
C25 C 0.3068(2) -0.2562(6) -0.0483(4)
C26 C 0.05455(7) -0.3756(2) 0.2344(1)
C27 C 0.07137(7) -0.3565(2) 0.3052(1)
C28 C 0.09574(7) -0.2460(2) 0.3319(1)
C29 C 0.11441(7) -0.2389(2) 0.3976(1)
C30 C 0.10822(10) -0.3360(3) 0.4376(2)
C31 C 0.08301(9) -0.4424(3) 0.4104(1)
C32 C 0.06522(9) -0.4556(3) 0.3451(1)
H1 H -0.007(1) -0.275(4) 0.017(2)
H2 H -0.064(1) -0.109(3) -0.039(2)
H3 H -0.080(2) 0.075(4) 0.024(2)
H4 H -0.037(1) 0.098(4) 0.130(2)
H5 H 0.0156(10) -0.051(3) 0.178(1)
H6 H 0.2605(10) 0.112(3) 0.024(1)
H7 H 0.266(1) -0.020(3) -0.057(2)
H8 H 0.336(1) -0.266(4) 0.084(2)
H9 H 0.329(1) -0.129(3) 0.159(2)
H10 H 0.281(2) -0.292(6) -0.069(3)
H11 H 0.327(3) -0.334(7) -0.030(4)
H12 H 0.325(2) -0.226(5) -0.069(3)
H13 H 0.136(2) 0.415(5) 0.156(2)
H14 H 0.164(1) 0.358(4) 0.116(2)
H15 H 0.107(2) 0.338(6) 0.101(3)
H16 H 0.073(2) 0.243(4) 0.187(2)
H17 H 0.111(2) 0.194(6) 0.258(3)
H18 H 0.103(2) 0.320(5) 0.229(2)
H19 H 0.1204(9) -0.331(3) 0.478(1)
H20 H 0.0485(9) -0.526(3) 0.329(1)
H21 H 0.0994(7) -0.179(2) 0.305(1)
H22 H 0.0354(8) -0.357(3) 0.119(1)
H23 H 0.1132(9) -0.312(3) 0.143(1)
H24 H 0.0888(8) -0.248(2) 0.075(1)
H25 H 0.1026(8) -0.040(2) 0.126(1)
H26 H 0.1615(9) -0.188(3) 0.225(1)
H27 H 0.225(1) -0.074(3) 0.297(2)
H28 H 0.231(1) 0.080(4) 0.297(2)
H29 H 0.1549(9) 0.040(3) 0.265(1)
H30 H 0.2017(8) 0.190(3) 0.122(1)
H31 H 0.1907(7) 0.039(2) 0.114(1)
H32 H 0.2400(9) -0.110(3) 0.199(1)
H33 H 0.284(1) -0.042(3) 0.255(2)
loop_
_geom_bond_atom_site_label_1
_geom_bond_atom_site_label_2
_geom_bond_site_symmetry_1
_geom_bond_site_symmetry_2
S1 O2 1_555 1_555
O1 C9 1_555 1_555
O3 S1 1_555 1_555
O4 C26 1_555 1_555
O5 N2 1_555 1_555
O6 N2 1_555 1_555
O7 N3 1_555 1_555
O8 N3 1_555 1_555
N1 S1 1_555 1_555
N2 C31 1_555 1_555
N3 C29 1_555 1_555
C1 N1 1_555 1_555
C2 N1 1_555 1_555
C3 C2 1_555 1_555
C4 C3 1_555 1_555
C5 C1 1_555 1_555
C6 C4 1_555 1_555
C7 C6 1_555 1_555
C8 C7 1_555 1_555
C9 C8 1_555 1_555
C10 C9 1_555 1_555
C11 C10 1_555 1_555
C12 C11 1_555 1_555
C13 C12 1_555 1_555
C14 C13 1_555 1_555
C15 C10 1_555 1_555
C16 C3 1_555 1_555
C17 C16 1_555 1_555
C18 C16 1_555 1_555
C19 S1 1_555 1_555
C20 C19 1_555 1_555
C21 C20 1_555 1_555
C22 C21 1_555 1_555
C23 C22 1_555 1_555
C24 C19 1_555 1_555
C25 C22 1_555 1_555
C26 O1 1_555 1_555
C27 C26 1_555 1_555
C28 C27 1_555 1_555
C29 C28 1_555 1_555
C30 C29 1_555 1_555
C31 C30 1_555 1_555
C32 C27 1_555 1_555
H1 C11 1_555 1_555
H2 C12 1_555 1_555
H3 C13 1_555 1_555
H4 C14 1_555 1_555
H5 C15 1_555 1_555
H6 C20 1_555 1_555
H7 C21 1_555 1_555
H8 C23 1_555 1_555
H9 C24 1_555 1_555
H10 C25 1_555 1_555
H11 C25 1_555 1_555
H12 C25 1_555 1_555
H13 C18 1_555 1_555
H14 C18 1_555 1_555
H15 C18 1_555 1_555
H16 C17 1_555 1_555
H17 C17 1_555 1_555
H18 C17 1_555 1_555
H19 C30 1_555 1_555
H20 C32 1_555 1_555
H21 C28 1_555 1_555
H22 C9 1_555 1_555
H23 C8 1_555 1_555
H24 C8 1_555 1_555
H25 C7 1_555 1_555
H26 C6 1_555 1_555
H27 C5 1_555 1_555
H28 C5 1_555 1_555
H29 C4 1_555 1_555
H30 C2 1_555 1_555
H31 C2 1_555 1_555
H32 C1 1_555 1_555
H33 C1 1_555 1_555
C4 C5 1_555 1_555
C14 C15 1_555 1_555
C23 C24 1_555 1_555
C31 C32 1_555 1_555

#END
