
#######################################################################
#
#                 Cambridge Crystallographic Data Centre
#                                CCDC 
#
#######################################################################
#
# If this CIF has been generated from an entry in the Cambridge 
# Structural Database, then it will include bibliographic, chemical, 
# crystal, experimental, refinement or atomic coordinate data resulting 
# from the CCDC's data processing and validation procedures.
#
#######################################################################

data_FEVCIT
_chemical_formula_moiety         'C31 H31 N3 O8 S1'
_chemical_name_systematic        
'1-(3-Isopropylidene-N-(p-toluenesulfonyl)pyrrolidin-4-yl)-4-phenyl-(1E)-buten-4-yl 3,5-dinitrobenzoate'
_symmetry_cell_setting           orthorhombic
_symmetry_space_group_name_H-M   'F d d 2'
_symmetry_Int_Tables_number      43
_space_group_name_Hall           'F 2 -2d'
loop_
_symmetry_equiv_pos_site_id
_symmetry_equiv_pos_as_xyz
1 x,y,z
2 -x,-y,z
3 1/4-x,1/4+y,1/4+z
4 1/4+x,1/4-y,1/4+z
5 x,1/2+y,1/2+z
6 -x,1/2-y,1/2+z
7 1/4-x,3/4+y,3/4+z
8 1/4+x,3/4-y,3/4+z
9 1/2+x,y,1/2+z
10 1/2-x,-y,1/2+z
11 3/4-x,1/4+y,3/4+z
12 3/4+x,1/4-y,3/4+z
13 1/2+x,1/2+y,z
14 1/2-x,1/2-y,z
15 3/4-x,3/4+y,1/4+z
16 3/4+x,3/4-y,1/4+z
_cell_length_a                   27.6940(8)
_cell_length_b                   46.467(2)
_cell_length_c                   9.6336(5)
_cell_angle_alpha                90
_cell_angle_beta                 90
_cell_angle_gamma                90
_cell_volume                     12397.1
_exptl_crystal_description       prism
_cell_formula_units_Z            16
loop_
_atom_site_label
_atom_site_type_symbol
_atom_site_fract_x
_atom_site_fract_y
_atom_site_fract_z
S1 S -0.00042(4) 0.12607(3) 0.8801
O1 O 0.0243(1) 0.15167(8) 0.8352(4)
O2 O -0.0325(1) 0.11100(8) 0.7895(3)
O3 O -0.19993(7) 0.19905(4) 1.2583(3)
O4 O -0.23575(8) 0.21776(5) 1.4467(3)
O5 O -0.1538(2) 0.29571(8) 1.6857(5)
O6 O -0.0901(1) 0.31395(8) 1.6037(5)
O7 O -0.0025(1) 0.26137(9) 1.2475(5)
O8 O -0.03853(10) 0.22939(8) 1.1313(4)
N1 N -0.03239(9) 0.13511(6) 1.0171(3)
N2 N -0.1207(1) 0.29576(8) 1.6048(4)
N3 N -0.0369(1) 0.24645(9) 1.2261(4)
C1 C 0.0424(1) 0.10089(9) 0.9419(4)
C2 C 0.0872(1) 0.11017(9) 0.9856(4)
C3 C 0.1198(1) 0.0903(1) 1.0362(4)
C4 C 0.1086(1) 0.0613(1) 1.0451(4)
C5 C 0.0636(1) 0.05273(9) 1.0013(5)
C6 C 0.0306(1) 0.0725(1) 0.9499(4)
C7 C 0.1456(2) 0.0404(1) 1.0978(6)
C8 C -0.0613(1) 0.11299(7) 1.0868(4)
C9 C -0.0842(1) 0.12990(7) 1.2068(4)
C10 C -0.1297(1) 0.14434(7) 1.1599(3)
C11 C -0.1728(1) 0.14050(7) 1.2128(4)
C12 C -0.2175(1) 0.15416(7) 1.1567(4)
C13 C -0.2381(1) 0.17752(6) 1.2482(4)
C14 C -0.2838(1) 0.18984(7) 1.1870(4)
C15 C -0.3277(1) 0.17953(8) 1.2318(4)
C16 C -0.3698(1) 0.1884(1) 1.1664(7)
C17 C -0.3675(2) 0.2075(1) 1.0589(7)
C18 C -0.3242(2) 0.2184(1) 1.0175(6)
C19 C -0.2821(1) 0.20943(9) 1.0810(5)
C20 C -0.0101(1) 0.15297(7) 1.1229(4)
C21 C -0.04438(10) 0.15109(6) 1.2431(3)
C22 C -0.0385(1) 0.16434(7) 1.3642(4)
C23 C -0.0731(2) 0.16117(9) 1.4826(4)
C24 C 0.0047(2) 0.18295(9) 1.3938(5)
C25 C -0.2023(1) 0.21664(6) 1.3671(4)
C26 C -0.15837(10) 0.23508(6) 1.3791(4)
C27 C -0.1590(1) 0.25603(7) 1.4808(4)
C28 C -0.1188(1) 0.27300(7) 1.4985(4)
C29 C -0.0785(1) 0.27050(8) 1.4189(4)
C30 C -0.0790(1) 0.24942(7) 1.3168(4)
C31 C -0.1183(1) 0.23133(7) 1.2961(4)
H1 H 0.0957 0.1304 0.9808
H2 H 0.1514 0.0969 1.0663
H3 H 0.0548 0.0326 1.0066
H4 H -0.0010 0.0661 0.9194
H5 H 0.1554 0.0459 1.1908
H6 H 0.1735 0.0406 1.0369
H7 H 0.1319 0.0212 1.0998
H8 H -0.3292 0.1661 1.3089
H9 H -0.4008 0.1810 1.1968
H10 H -0.3969 0.2134 1.0118
H11 H -0.3229 0.2326 0.9434
H12 H -0.2512 0.2170 1.0504
H13 H 0.0339 0.1715 1.3856
H14 H 0.0023 0.1906 1.4872
H15 H 0.0058 0.1987 1.3278
H16 H -0.0619 0.1725 1.5609
H17 H -0.1048 0.1679 1.4543
H18 H -0.0752 0.1411 1.5092
H19 H -0.0507 0.2829 1.4327
H20 H -0.1873 0.2587 1.5386
H21 H -0.1175 0.2165 1.2254
H22 H -0.2449 0.1697 1.3396
H23 H -0.2099 0.1625 1.0670
H24 H -0.2418 0.1393 1.1453
H25 H -0.1759 0.1280 1.2931
H26 H -0.1270 0.1578 1.0833
H27 H -0.0069 0.1727 1.0911
H28 H 0.0215 0.1456 1.1481
H29 H -0.0907 0.1172 1.2848
H30 H -0.0858 0.1052 1.0253
H31 H -0.0411 0.0975 1.1210
loop_
_geom_bond_atom_site_label_1
_geom_bond_atom_site_label_2
_geom_bond_site_symmetry_1
_geom_bond_site_symmetry_2
S1 O1 1_555 1_555
O2 S1 1_555 1_555
O3 C13 1_555 1_555
O4 C25 1_555 1_555
O5 N2 1_555 1_555
O6 N2 1_555 1_555
O7 N3 1_555 1_555
O8 N3 1_555 1_555
N1 S1 1_555 1_555
N2 C28 1_555 1_555
N3 C30 1_555 1_555
C1 S1 1_555 1_555
C2 C1 1_555 1_555
C3 C2 1_555 1_555
C4 C3 1_555 1_555
C5 C4 1_555 1_555
C6 C1 1_555 1_555
C7 C4 1_555 1_555
C8 N1 1_555 1_555
C9 C8 1_555 1_555
C10 C9 1_555 1_555
C11 C10 1_555 1_555
C12 C11 1_555 1_555
C13 C12 1_555 1_555
C14 C13 1_555 1_555
C15 C14 1_555 1_555
C16 C15 1_555 1_555
C17 C16 1_555 1_555
C18 C17 1_555 1_555
C19 C14 1_555 1_555
C20 N1 1_555 1_555
C21 C9 1_555 1_555
C22 C21 1_555 1_555
C23 C22 1_555 1_555
C24 C22 1_555 1_555
C25 O3 1_555 1_555
C26 C25 1_555 1_555
C27 C26 1_555 1_555
C28 C27 1_555 1_555
C29 C28 1_555 1_555
C30 C29 1_555 1_555
C31 C26 1_555 1_555
H1 C2 1_555 1_555
H2 C3 1_555 1_555
H3 C5 1_555 1_555
H4 C6 1_555 1_555
H5 C7 1_555 1_555
H6 C7 1_555 1_555
H7 C7 1_555 1_555
H8 C15 1_555 1_555
H9 C16 1_555 1_555
H10 C17 1_555 1_555
H11 C18 1_555 1_555
H12 C19 1_555 1_555
H13 C24 1_555 1_555
H14 C24 1_555 1_555
H15 C24 1_555 1_555
H16 C23 1_555 1_555
H17 C23 1_555 1_555
H18 C23 1_555 1_555
H19 C29 1_555 1_555
H20 C27 1_555 1_555
H21 C31 1_555 1_555
H22 C13 1_555 1_555
H23 C12 1_555 1_555
H24 C12 1_555 1_555
H25 C11 1_555 1_555
H26 C10 1_555 1_555
H27 C20 1_555 1_555
H28 C20 1_555 1_555
H29 C9 1_555 1_555
H30 C8 1_555 1_555
H31 C8 1_555 1_555
C5 C6 1_555 1_555
C18 C19 1_555 1_555
C20 C21 1_555 1_555
C30 C31 1_555 1_555

#END
