
#######################################################################
#
#                 Cambridge Crystallographic Data Centre
#                                CCDC 
#
#######################################################################
#
# If this CIF has been generated from an entry in the Cambridge 
# Structural Database, then it will include bibliographic, chemical, 
# crystal, experimental, refinement or atomic coordinate data resulting 
# from the CCDC's data processing and validation procedures.
#
#######################################################################

data_FEVDAM
_chemical_formula_moiety         'C14 H19 Cl1 O9'
_chemical_name_systematic        
1,2,3,6-Tetra-O-acetyl-4-chloro-4-deoxy-\a-D-galactose
_symmetry_cell_setting           orthorhombic
_symmetry_space_group_name_H-M   'P 21 21 21'
_symmetry_Int_Tables_number      19
_space_group_name_Hall           'P 2ac 2ab'
loop_
_symmetry_equiv_pos_site_id
_symmetry_equiv_pos_as_xyz
1 x,y,z
2 1/2-x,-y,1/2+z
3 -x,1/2+y,1/2-z
4 1/2+x,1/2-y,-z
_cell_length_a                   9.3626(19)
_cell_length_b                   10.239(2)
_cell_length_c                   38.098(8)
_cell_angle_alpha                90
_cell_angle_beta                 90
_cell_angle_gamma                90
_cell_volume                     3652.21
_exptl_crystal_colour            colorless
_exptl_crystal_description       prismatic
_chemical_melting_point          76-78deg.C
_cell_formula_units_Z            8
_exptl_crystal_recrystallization_method 'absolute ethanol'
loop_
_atom_site_label
_atom_site_type_symbol
_atom_site_fract_x
_atom_site_fract_y
_atom_site_fract_z
Cl1 Cl 0.76364(15) 0.07978(12) 0.02676(3)
O1 O 0.8039(3) 0.1336(3) 0.10993(7)
O3 O 0.7431(3) -0.0259(3) 0.15023(6)
O5 O 0.6414(5) 0.0783(4) 0.19521(9)
O7 O 0.4933(3) -0.0801(3) 0.11621(8)
O9 O 0.3480(4) 0.0928(4) 0.11700(10)
O11 O 0.5995(3) -0.1519(3) 0.05131(7)
O13 O 0.7401(4) -0.3260(3) 0.04581(10)
O15 O 1.1115(3) 0.0683(3) 0.05649(8)
O17 O 1.2095(4) 0.2578(4) 0.04082(10)
C1 C 0.6901(5) 0.0684(4) 0.12603(11)
H1 H 0.6301 0.1316 0.1385
C3 C 0.6001(4) -0.0038(4) 0.09864(10)
H3 H 0.5543 0.0594 0.0829
C5 C 0.6926(5) -0.0964(4) 0.07748(9)
H5 H 0.7272 -0.1662 0.0929
C7 C 0.8199(4) -0.0256(4) 0.06167(10)
H7 H 0.8852 -0.0910 0.0519
C9 C 0.8987(5) 0.0496(4) 0.09029(11)
H9 H 0.9421 -0.0133 0.1065
C11 C 1.0130(5) 0.1413(4) 0.07744(12)
H11 H 0.9706 0.2107 0.0636
H12 H 1.0623 0.1804 0.0972
C13 C 0.7128(6) -0.0108(5) 0.18480(11)
C15 C 0.7782(6) -0.1158(5) 0.20551(11)
H15 H 0.7566 -0.1031 0.2299
H16 H 0.8798 -0.1146 0.2022
H17 H 0.7409 -0.1985 0.1980
C17 C 0.3693(6) -0.0192(5) 0.12390(12)
C19 C 0.2694(6) -0.1089(6) 0.14224(17)
H21 H 0.1822 -0.0635 0.1475
H22 H 0.3123 -0.1386 0.1637
H23 H 0.2491 -0.1824 0.1274
C21 C 0.6339(6) -0.2689(4) 0.03851(11)
C23 C 0.5188(7) -0.3139(5) 0.01376(14)
H27 H 0.5427 -0.3988 0.0048
H28 H 0.5110 -0.2533 -0.0054
H29 H 0.4294 -0.3183 0.0260
C25 C 1.2074(5) 0.1415(5) 0.03898(12)
C27 C 1.3118(6) 0.0586(6) 0.01946(14)
H33 H 1.3780 0.1135 0.0071
H34 H 1.2616 0.0046 0.0030
H35 H 1.3628 0.0043 0.0357
Cl2 Cl 0.87165(13) 0.49819(14) 0.23614(3)
O2 O 0.6389(3) 0.5646(3) 0.17447(8)
O4 O 0.6537(3) 0.4505(3) 0.12112(8)
O6 O 0.4898(5) 0.5900(4) 0.10059(11)
O8 O 0.9443(3) 0.4903(3) 0.11773(8)
O10 O 0.9830(4) 0.7060(3) 0.11336(10)
O12 O 1.0224(3) 0.3634(3) 0.17842(8)
O14 O 0.9818(5) 0.1544(4) 0.18948(14)
O16 O 0.4027(3) 0.5101(3) 0.21782(8)
O18 O 0.4331(4) 0.7250(4) 0.22492(12)
C2 C 0.7127(5) 0.5507(4) 0.14303(11)
H2 H 0.7117 0.6339 0.1303
C4 C 0.8674(5) 0.5102(4) 0.15008(11)
H4 H 0.9146 0.5796 0.1635
C6 C 0.8741(5) 0.3858(4) 0.17089(11)
H6 H 0.8377 0.3138 0.1565
C8 C 0.7836(5) 0.3968(4) 0.20424(11)
H8 H 0.7729 0.3092 0.2143
C10 C 0.6344(5) 0.4497(4) 0.19578(11)
H10 H 0.5823 0.3821 0.1828
C12 C 0.5473(5) 0.4855(5) 0.22793(13)
H13 H 0.5503 0.4146 0.2448
H14 H 0.5872 0.5627 0.2389
C14 C 0.5418(5) 0.4837(5) 0.09978(13)
C16 C 0.4983(7) 0.3731(5) 0.07765(16)
H18 H 0.4211 0.3994 0.0627
H19 H 0.4677 0.3021 0.0923
H20 H 0.5778 0.3455 0.0636
C18 C 1.0015(5) 0.5972(5) 0.10228(13)
C20 C 1.0814(6) 0.5614(6) 0.07030(15)
H24 H 1.1206 0.6387 0.0598
H25 H 1.0181 0.5196 0.0540
H26 H 1.1574 0.5027 0.0763
C22 C 1.0640(6) 0.2405(5) 0.18658(12)
C24 C 1.2221(6) 0.2357(5) 0.19177(14)
H30 H 1.2502 0.1482 0.1977
H31 H 1.2486 0.2938 0.2104
H32 H 1.2691 0.2619 0.1705
C26 C 0.3580(6) 0.6343(5) 0.21795(14)
C28 C 0.2038(6) 0.6427(6) 0.2091(2)
H36 H 0.1741 0.7325 0.2094
H37 H 0.1494 0.5941 0.2260
H38 H 0.1882 0.6070 0.1861
loop_
_geom_bond_atom_site_label_1
_geom_bond_atom_site_label_2
_geom_bond_site_symmetry_1
_geom_bond_site_symmetry_2
Cl1 C7 1_555 1_555
Cl2 C8 1_555 1_555
O1 C1 1_555 1_555
O2 C2 1_555 1_555
O3 C1 1_555 1_555
O4 C2 1_555 1_555
O5 C13 1_555 1_555
O6 C14 1_555 1_555
O7 C3 1_555 1_555
O8 C4 1_555 1_555
O9 C17 1_555 1_555
O10 C18 1_555 1_555
O11 C5 1_555 1_555
O12 C6 1_555 1_555
O13 C21 1_555 1_555
O14 C22 1_555 1_555
O15 C11 1_555 1_555
O16 C12 1_555 1_555
O17 C25 1_555 1_555
O18 C26 1_555 1_555
C1 H1 1_555 1_555
C2 H2 1_555 1_555
C3 C1 1_555 1_555
H3 C3 1_555 1_555
C4 C2 1_555 1_555
H4 C4 1_555 1_555
C5 C3 1_555 1_555
H5 C5 1_555 1_555
C6 C4 1_555 1_555
H6 C6 1_555 1_555
C7 C5 1_555 1_555
H7 C7 1_555 1_555
C8 C6 1_555 1_555
H8 C8 1_555 1_555
C9 O1 1_555 1_555
H9 C9 1_555 1_555
C10 O2 1_555 1_555
H10 C10 1_555 1_555
C11 C9 1_555 1_555
H11 C11 1_555 1_555
H12 C11 1_555 1_555
C12 C10 1_555 1_555
H13 C12 1_555 1_555
H14 C12 1_555 1_555
C13 O3 1_555 1_555
C14 O4 1_555 1_555
C15 C13 1_555 1_555
H15 C15 1_555 1_555
H16 C15 1_555 1_555
H17 C15 1_555 1_555
C16 C14 1_555 1_555
H18 C16 1_555 1_555
H19 C16 1_555 1_555
H20 C16 1_555 1_555
C17 O7 1_555 1_555
C18 O8 1_555 1_555
C19 C17 1_555 1_555
H21 C19 1_555 1_555
H22 C19 1_555 1_555
H23 C19 1_555 1_555
C20 C18 1_555 1_555
H24 C20 1_555 1_555
H25 C20 1_555 1_555
H26 C20 1_555 1_555
C21 O11 1_555 1_555
C22 O12 1_555 1_555
C23 C21 1_555 1_555
H27 C23 1_555 1_555
H28 C23 1_555 1_555
H29 C23 1_555 1_555
C24 C22 1_555 1_555
H30 C24 1_555 1_555
H31 C24 1_555 1_555
H32 C24 1_555 1_555
C25 O15 1_555 1_555
C26 O16 1_555 1_555
C27 C25 1_555 1_555
H33 C27 1_555 1_555
H34 C27 1_555 1_555
H35 C27 1_555 1_555
C28 C26 1_555 1_555
H36 C28 1_555 1_555
H37 C28 1_555 1_555
H38 C28 1_555 1_555
C7 C9 1_555 1_555
C8 C10 1_555 1_555

#END
