
#######################################################################
#
#                 Cambridge Crystallographic Data Centre
#                                CCDC 
#
#######################################################################
#
# If this CIF has been generated from an entry in the Cambridge 
# Structural Database, then it will include bibliographic, chemical, 
# crystal, experimental, refinement or atomic coordinate data resulting 
# from the CCDC's data processing and validation procedures.
#
#######################################################################

data_FEVGIY
_chemical_formula_moiety         'C26 H14 N4'
_chemical_name_systematic        
(4-(3,3-Dicyano-1,2-diphenylprop-2-en-1-ylidene)cyclohexa-2,5-dien-1-ylidene)malononitrile
_symmetry_cell_setting           monoclinic
_symmetry_space_group_name_H-M   'P 21/n'
_symmetry_Int_Tables_number      14
_space_group_name_Hall           '-P 2yn'
loop_
_symmetry_equiv_pos_site_id
_symmetry_equiv_pos_as_xyz
1 x,y,z
2 1/2-x,1/2+y,1/2-z
3 -x,-y,-z
4 1/2+x,1/2-y,1/2+z
_cell_length_a                   17.477(2)
_cell_length_b                   13.837(2)
_cell_length_c                   17.219(2)
_cell_angle_alpha                90
_cell_angle_beta                 73.571(7)
_cell_angle_gamma                90
_cell_volume                     3994.04
_exptl_crystal_colour            red
_exptl_crystal_description       prism
_cell_formula_units_Z            8
loop_
_atom_site_label
_atom_site_type_symbol
_atom_site_fract_x
_atom_site_fract_y
_atom_site_fract_z
C1 C 0.15801(12) 0.90664(14) 0.56621(12)
N1 N 0.33665(11) 0.90919(13) 0.92572(11)
C2 C 0.22041(12) 0.92610(15) 0.60351(12)
C3 C 0.09750(12) 0.83818(15) 0.60546(12)
C4 C 0.12114(12) 0.58572(15) 0.74506(13)
C5 C 0.22357(12) 0.87786(15) 0.67075(12)
C6 C 0.16771(12) 0.80217(15) 0.70640(12)
C7 C 0.10272(12) 0.78746(15) 0.67069(12)
C8 C 0.28980(13) 0.88221(14) 0.89617(12)
C9 C 0.21992(13) 1.01494(15) 0.45229(13)
C10 C 0.13685(12) 0.65435(15) 0.79775(12)
C11 C 0.11704(12) 0.63256(17) 0.88027(13)
C12 C 0.31112(12) 0.71265(14) 0.79533(13)
C13 C 0.15755(12) 0.95186(14) 0.49512(12)
C14 C 0.15815(13) 0.90732(16) 0.88164(13)
C15 C 0.09692(14) 0.93718(16) 0.45573(13)
C16 C 0.33779(13) 0.68083(15) 0.86028(14)
C17 C 0.17797(12) 0.74606(15) 0.76892(12)
C18 C 0.22946(12) 0.85077(15) 0.85968(11)
C19 C 0.23928(12) 0.77325(15) 0.80967(12)
N2 N 0.10174(12) 0.95399(15) 0.90426(12)
C20 C 0.06538(13) 0.47786(17) 0.85619(13)
N3 N 0.05065(14) 0.92895(16) 0.42055(14)
N4 N 0.26938(13) 1.06361(14) 0.41425(12)
C21 C 0.40848(14) 0.63001(15) 0.84539(16)
C22 C 0.45254(15) 0.61138(17) 0.76730(17)
C23 C 0.08555(13) 0.49871(16) 0.77430(14)
C24 C 0.35445(14) 0.68942(18) 0.71672(15)
C25 C 0.08178(13) 0.54496(17) 0.90915(14)
C26 C 0.42604(15) 0.6403(2) 0.70289(17)
H1 H 0.0576(13) 0.7389(15) 0.6980(13)
H2 H 0.1256(13) 0.6776(16) 0.9212(13)
H3 H 0.2705(13) 0.8900(15) 0.6919(12)
H4 H 0.0518(12) 0.8255(14) 0.5827(12)
H5 H 0.0731(13) 0.4544(17) 0.7398(13)
H6 H 0.0650(13) 0.5318(16) 0.9700(14)
H7 H 0.2650(13) 0.9769(17) 0.5777(13)
H8 H 0.1384(12) 0.5980(15) 0.6896(13)
H9 H 0.0408(13) 0.4158(17) 0.8782(13)
H10 H 0.3357(14) 0.7119(17) 0.6710(15)
H11 H 0.5046(16) 0.5828(19) 0.7549(16)
H12 H 0.4265(13) 0.6089(16) 0.8914(14)
H13 H 0.3057(14) 0.6943(16) 0.9142(14)
H14 H 0.4567(15) 0.6338(18) 0.6445(15)
C27 C 0.32189(12) 0.89373(15) 0.25670(12)
C28 C 0.33298(12) 0.79561(14) 0.39823(12)
C29 C 0.18509(12) 0.98313(14) 0.15764(12)
C30 C 0.39056(13) 0.90401(15) 0.28683(13)
C31 C 0.39619(13) 0.85675(15) 0.35317(12)
C32 C 0.26597(13) 0.78067(15) 0.36665(12)
C33 C 0.26145(13) 0.82612(15) 0.29920(12)
C34 C 0.14601(13) 0.99044(15) 0.09747(12)
C35 C 0.27642(13) 0.68849(16) 0.51422(12)
C36 C 0.09229(13) 1.09926(16) 0.23728(14)
N5 N 0.16337(12) 0.75861(14) 0.04040(12)
N6 N 0.39038(12) 0.72967(14) 0.09049(12)
C37 C 0.40461(14) 0.76519(16) 0.49934(13)
C38 C 0.25267(12) 0.91734(14) 0.15114(12)
C39 C 0.31415(12) 0.94558(14) 0.19120(12)
C40 C 0.15851(13) 1.04008(15) 0.22722(13)
C41 C 0.33357(14) 0.77503(15) 0.10035(12)
N7 N 0.45870(12) 0.77581(15) 0.52363(12)
C42 C 0.36372(12) 1.03031(14) 0.15670(12)
N8 N 0.22799(12) 0.63790(14) 0.55148(11)
C43 C 0.38420(13) 1.09922(15) 0.20699(14)
C44 C 0.26264(12) 0.83204(14) 0.11014(12)
C45 C 0.05292(13) 1.10272(16) 0.17810(13)
C46 C 0.08007(13) 1.04928(15) 0.10779(13)
C47 C 0.43259(14) 1.17629(16) 0.17299(15)
C48 C 0.43905(14) 1.11943(16) 0.04013(15)
C49 C 0.38973(13) 1.04280(17) 0.07304(13)
C50 C 0.20640(13) 0.79231(15) 0.07237(13)
C51 C 0.33721(13) 0.75184(15) 0.46886(12)
C52 C 0.46115(14) 1.18541(17) 0.08962(15)
H15 H 0.4342(12) 0.9469(15) 0.2578(12)
H16 H 0.2252(12) 0.7392(15) 0.3939(12)
H17 H 0.0037(14) 1.1442(17) 0.1841(13)
H18 H 0.2151(13) 0.8172(15) 0.2812(12)
H19 H 0.0499(13) 1.0531(15) 0.0620(13)
H20 H 0.4420(14) 0.8666(16) 0.3744(13)
H21 H 0.1886(11) 1.0414(14) 0.2713(12)
H22 H 0.4590(13) 1.1257(15) -0.0209(13)
H23 H 0.4429(13) 1.2229(16) 0.2098(14)
H24 H 0.1665(11) 0.9532(14) 0.0463(12)
H25 H 0.3625(12) 1.0915(15) 0.2652(13)
H26 H 0.4955(13) 1.2410(17) 0.0671(13)
H27 H 0.3770(14) 0.9943(18) 0.0382(14)
H28 H 0.0758(14) 1.1380(18) 0.2870(14)
loop_
_geom_bond_atom_site_label_1
_geom_bond_atom_site_label_2
_geom_bond_site_symmetry_1
_geom_bond_site_symmetry_2
C1 C2 1_555 1_555
N1 C8 1_555 1_555
C2 C5 1_555 1_555
C3 C1 1_555 1_555
C4 C10 1_555 1_555
C5 C6 1_555 1_555
C6 C7 1_555 1_555
C7 C3 1_555 1_555
C8 C18 1_555 1_555
C9 C13 1_555 1_555
C10 C11 1_555 1_555
C11 C25 1_555 1_555
C12 C16 1_555 1_555
C13 C1 1_555 1_555
C14 C18 1_555 1_555
C15 C13 1_555 1_555
C16 C21 1_555 1_555
C17 C6 1_555 1_555
C18 C19 1_555 1_555
C19 C12 1_555 1_555
N2 C14 1_555 1_555
C20 C23 1_555 1_555
N3 C15 1_555 1_555
N4 C9 1_555 1_555
C21 C22 1_555 1_555
C22 C26 1_555 1_555
C23 C4 1_555 1_555
C24 C12 1_555 1_555
C25 C20 1_555 1_555
C26 C24 1_555 1_555
H1 C7 1_555 1_555
H2 C11 1_555 1_555
H3 C5 1_555 1_555
H4 C3 1_555 1_555
H5 C23 1_555 1_555
H6 C25 1_555 1_555
H7 C2 1_555 1_555
H8 C4 1_555 1_555
H9 C20 1_555 1_555
H10 C24 1_555 1_555
H11 C22 1_555 1_555
H12 C21 1_555 1_555
H13 C16 1_555 1_555
H14 C26 1_555 1_555
C27 C30 1_555 1_555
C28 C31 1_555 1_555
C29 C34 1_555 1_555
C30 C31 1_555 1_555
C31 H20 1_555 1_555
C32 C28 1_555 1_555
C33 C27 1_555 1_555
C34 C46 1_555 1_555
C35 N8 1_555 1_555
C36 C40 1_555 1_555
N5 C50 1_555 1_555
N6 C41 1_555 1_555
C37 N7 1_555 1_555
C38 C29 1_555 1_555
C39 C27 1_555 1_555
C40 C29 1_555 1_555
C41 C44 1_555 1_555
C42 C39 1_555 1_555
C43 C42 1_555 1_555
C44 C38 1_555 1_555
C45 C36 1_555 1_555
C46 C45 1_555 1_555
C47 C43 1_555 1_555
C48 C49 1_555 1_555
C49 C42 1_555 1_555
C50 C44 1_555 1_555
C51 C28 1_555 1_555
C52 C47 1_555 1_555
H15 C30 1_555 1_555
H16 C32 1_555 1_555
H17 C45 1_555 1_555
H18 C33 1_555 1_555
H19 C46 1_555 1_555
H21 C40 1_555 1_555
H22 C48 1_555 1_555
H23 C47 1_555 1_555
H24 C34 1_555 1_555
H25 C43 1_555 1_555
H26 C52 1_555 1_555
H27 C49 1_555 1_555
H28 C36 1_555 1_555
C10 C17 1_555 1_555
C17 C19 1_555 1_555
C32 C33 1_555 1_555
C35 C51 1_555 1_555
C37 C51 1_555 1_555
C38 C39 1_555 1_555
C48 C52 1_555 1_555

#END
