
#######################################################################
#
#                 Cambridge Crystallographic Data Centre
#                                CCDC 
#
#######################################################################
#
# If this CIF has been generated from an entry in the Cambridge 
# Structural Database, then it will include bibliographic, chemical, 
# crystal, experimental, refinement or atomic coordinate data resulting 
# from the CCDC's data processing and validation procedures.
#
#######################################################################

data_FEVHAR
_chemical_formula_moiety         'C20 H10 N4'
_chemical_name_systematic        
2,3-Diphenylbuta-1,3-diene-1,1,4,4-tetracarbonitrile
_symmetry_cell_setting           tetragonal
_symmetry_space_group_name_H-M   'I 41'
_symmetry_Int_Tables_number      80
_space_group_name_Hall           'I 4bw'
loop_
_symmetry_equiv_pos_site_id
_symmetry_equiv_pos_as_xyz
1 x,y,z
2 1/2-y,x,3/4+z
3 1/2+y,-x,3/4+z
4 -x,-y,z
5 1/2+x,1/2+y,1/2+z
6 -y,1/2+x,1/4+z
7 y,1/2-x,1/4+z
8 1/2-x,1/2-y,1/2+z
_cell_length_a                   11.7041(7)
_cell_length_b                   11.7041(7)
_cell_length_c                   10.8596(9)
_cell_angle_alpha                90
_cell_angle_beta                 90
_cell_angle_gamma                90
_cell_volume                     1487.61
_cell_formula_units_Z            4
loop_
_atom_site_label
_atom_site_type_symbol
_atom_site_fract_x
_atom_site_fract_y
_atom_site_fract_z
N1 N 0.63237(9) 0.83185(8) -0.01106(10)
N2 N 0.34395(9) 0.64376(8) -0.16064(11)
C1 C 0.52069(9) 0.64163(9) -0.01851(10)
C2 C 0.54482(9) 0.54646(8) 0.04872(10)
C3 C 0.64560(9) 0.52563(9) 0.12603(10)
C4 C 0.64193(9) 0.43782(9) 0.21374(11)
H1 H 0.5761(12) 0.3935(12) 0.2212(14)
C5 C 0.73418(10) 0.41527(9) 0.28969(11)
H2 H 0.7307(13) 0.3528(13) 0.3464(16)
C6 C 0.83301(10) 0.48032(10) 0.27953(11)
H3 H 0.9024(12) 0.4544(12) 0.3368(14)
C7 C 0.83860(10) 0.56744(10) 0.19244(11)
H4 H 0.9068(14) 0.6089(15) 0.1805(18)
C8 C 0.74700(9) 0.58976(10) 0.11554(12)
H5 H 0.7519(13) 0.6505(13) 0.0555(14)
C9 C 0.58539(9) 0.74623(9) -0.01515(11)
C10 C 0.42135(10) 0.64400(9) -0.09687(11)
N1C N 0.36763(9) 0.16815(8) -0.01106(10)
N2C N 0.65605(9) 0.35624(8) -0.16064(11)
C1C C 0.47931(9) 0.35837(9) -0.01851(10)
C2C C 0.45518(9) 0.45354(8) 0.04872(10)
C3C C 0.35440(9) 0.47437(9) 0.12603(10)
C4C C 0.35807(9) 0.56218(9) 0.21374(11)
H1C H 0.4239(12) 0.6065(12) 0.2212(14)
C5C C 0.26582(10) 0.58473(9) 0.28969(11)
H2C H 0.2693(13) 0.6472(13) 0.3464(16)
C6C C 0.16699(10) 0.51968(10) 0.27953(11)
H3C H 0.0976(12) 0.5456(12) 0.3368(14)
C7C C 0.16140(10) 0.43256(10) 0.19244(11)
H4C H 0.0932(14) 0.3911(15) 0.1805(18)
C8C C 0.25300(9) 0.41024(10) 0.11554(12)
H5C H 0.2481(13) 0.3495(13) 0.0555(14)
C9C C 0.41461(9) 0.25377(9) -0.01515(11)
C10C C 0.57865(10) 0.35600(9) -0.09687(11)
loop_
_geom_bond_atom_site_label_1
_geom_bond_atom_site_label_2
_geom_bond_site_symmetry_1
_geom_bond_site_symmetry_2
N1 C9 1_555 1_555
N2 C10 1_555 1_555
C1 C2 1_555 1_555
C2 C3 1_555 1_555
C3 C4 1_555 1_555
C4 H1 1_555 1_555
C5 C4 1_555 1_555
H2 C5 1_555 1_555
C6 C5 1_555 1_555
H3 C6 1_555 1_555
C7 C6 1_555 1_555
H4 C7 1_555 1_555
C8 C3 1_555 1_555
H5 C8 1_555 1_555
C9 C1 1_555 1_555
C10 C1 1_555 1_555
N1C C9C 1_555 1_555
N2C C10C 1_555 1_555
C1C C2C 1_555 1_555
C2C C2 1_555 1_555
C3C C2C 1_555 1_555
C4C C3C 1_555 1_555
H1C C4C 1_555 1_555
C5C C4C 1_555 1_555
H2C C5C 1_555 1_555
C6C C5C 1_555 1_555
H3C C6C 1_555 1_555
C7C C6C 1_555 1_555
H4C C7C 1_555 1_555
C8C C3C 1_555 1_555
H5C C8C 1_555 1_555
C9C C1C 1_555 1_555
C10C C1C 1_555 1_555
C7 C8 1_555 1_555
C7C C8C 1_555 1_555

#END
