
#######################################################################
#
#                 Cambridge Crystallographic Data Centre
#                                CCDC 
#
#######################################################################
#
# If this CIF has been generated from an entry in the Cambridge 
# Structural Database, then it will include bibliographic, chemical, 
# crystal, experimental, refinement or atomic coordinate data resulting 
# from the CCDC's data processing and validation procedures.
#
#######################################################################

data_FEVHEW
_chemical_formula_moiety         'C15 H15 N1 O4'
_chemical_name_systematic        
3-phenyl-4a,6a,7,10a-tetrahydro-1H,3H,9H-[1,3]dioxino[4,5-e][1,3]oxazolo[3,4-a]pyridin-9-one
_symmetry_cell_setting           orthorhombic
_symmetry_space_group_name_H-M   'P 21 21 21'
_symmetry_Int_Tables_number      19
_space_group_name_Hall           'P 2ac 2ab'
loop_
_symmetry_equiv_pos_site_id
_symmetry_equiv_pos_as_xyz
1 x,y,z
2 1/2-x,-y,1/2+z
3 -x,1/2+y,1/2-z
4 1/2+x,1/2-y,-z
_cell_length_a                   6.2512(4)
_cell_length_b                   12.3789(8)
_cell_length_c                   16.3033(11)
_cell_angle_alpha                90
_cell_angle_beta                 90
_cell_angle_gamma                90
_cell_volume                     1261.6
_exptl_crystal_colour            'light yellow'
_exptl_crystal_description       needle
_cell_formula_units_Z            4
loop_
_atom_site_label
_atom_site_type_symbol
_atom_site_fract_x
_atom_site_fract_y
_atom_site_fract_z
O1 O 0.5951(2) 0.26796(12) 0.59237(10)
O2 O 0.9219(2) 0.19522(11) 0.60940(9)
O3 O 0.8407(2) 0.65445(11) 0.65037(7)
O4 O 0.5608(2) 0.61711(10) 0.55804(8)
N1 N 0.8983(2) 0.37233(12) 0.58479(9)
C1 C 0.7874(3) 0.27932(16) 0.59534(12)
C2 C 1.1394(3) 0.23440(16) 0.61663(13)
H1 H 1.2317 0.2010 0.5743
H2 H 1.1984 0.2170 0.6714
C3 C 1.1279(3) 0.35746(15) 0.60439(11)
H3 H 1.2177 0.3792 0.5564
C4 C 1.1891(3) 0.42281(15) 0.67872(12)
H4 H 1.2878 0.3947 0.7175
C5 C 1.1041(3) 0.51977(15) 0.68949(11)
H5 H 1.1364 0.5618 0.7366
C6 C 0.9559(3) 0.56041(15) 0.62472(11)
H6 H 1.0411 0.5787 0.5747
C7 C 0.7900(3) 0.47454(15) 0.60218(11)
H7 H 0.6930 0.4637 0.6502
C8 C 0.6586(3) 0.51822(15) 0.53125(11)
H8 H 0.7517 0.5319 0.4832
H9 H 0.5475 0.4653 0.5152
C9 C 0.7125(3) 0.69431(15) 0.58419(12)
H10 H 0.8063 0.7154 0.5372
C10 C 0.5926(3) 0.79147(15) 0.61504(11)
C11 C 0.3989(3) 0.77831(16) 0.65573(12)
H11 H 0.3412 0.7080 0.6629
C12 C 0.2898(3) 0.86718(16) 0.68577(12)
H12 H 0.1572 0.8578 0.7133
C13 C 0.3739(4) 0.96973(16) 0.67564(12)
H13 H 0.2997 1.0306 0.6968
C14 C 0.5663(4) 0.98387(16) 0.63456(12)
H14 H 0.6234 1.0544 0.6272
C15 C 0.6753(3) 0.89465(16) 0.60418(11)
H15 H 0.8068 0.9042 0.5759
loop_
_geom_bond_atom_site_label_1
_geom_bond_atom_site_label_2
_geom_bond_site_symmetry_1
_geom_bond_site_symmetry_2
O1 C1 1_555 1_555
O2 C1 1_555 1_555
O3 C6 1_555 1_555
O4 C8 1_555 1_555
N1 C1 1_555 1_555
C2 O2 1_555 1_555
H1 C2 1_555 1_555
H2 C2 1_555 1_555
C3 N1 1_555 1_555
H3 C3 1_555 1_555
C4 C3 1_555 1_555
H4 C4 1_555 1_555
C5 C4 1_555 1_555
H5 C5 1_555 1_555
C6 C5 1_555 1_555
H6 C6 1_555 1_555
C7 N1 1_555 1_555
H7 C7 1_555 1_555
C8 C7 1_555 1_555
H8 C8 1_555 1_555
H9 C8 1_555 1_555
C9 O3 1_555 1_555
H10 C9 1_555 1_555
C10 C9 1_555 1_555
C11 C10 1_555 1_555
H11 C11 1_555 1_555
C12 C11 1_555 1_555
H12 C12 1_555 1_555
C13 C12 1_555 1_555
H13 C13 1_555 1_555
C14 C13 1_555 1_555
H14 C14 1_555 1_555
C15 C10 1_555 1_555
H15 C15 1_555 1_555
O4 C9 1_555 1_555
C2 C3 1_555 1_555
C6 C7 1_555 1_555
C14 C15 1_555 1_555

#END
