
#######################################################################
#
#                 Cambridge Crystallographic Data Centre
#                                CCDC 
#
#######################################################################
#
# If this CIF has been generated from an entry in the Cambridge 
# Structural Database, then it will include bibliographic, chemical, 
# crystal, experimental, refinement or atomic coordinate data resulting 
# from the CCDC's data processing and validation procedures.
#
#######################################################################

data_FEVJUL
_chemical_name_common            'PDB Chemical Component code: ANJ'
_chemical_formula_moiety         'C28 H40 N2 O9'
_chemical_name_systematic        'Antimycin A1'
_chemical_properties_biological  
'inhibitory activity against electron transfer of ubiquinol-cytochrome c oxidoreductase'
_symmetry_cell_setting           monoclinic
_symmetry_space_group_name_H-M   'P 21'
_symmetry_Int_Tables_number      4
_space_group_name_Hall           'P 2yb'
loop_
_symmetry_equiv_pos_site_id
_symmetry_equiv_pos_as_xyz
1 x,y,z
2 -x,1/2+y,-z
_cell_length_a                   15.385(3)
_cell_length_b                   8.027(2)
_cell_length_c                   12.471(3)
_cell_angle_alpha                90
_cell_angle_beta                 96.34(2)
_cell_angle_gamma                90
_cell_volume                     1530.69
_cell_formula_units_Z            2
_exptl_crystal_recrystallization_method 'ethyl acetate/hexane'
loop_
_atom_site_label
_atom_site_type_symbol
_atom_site_fract_x
_atom_site_fract_y
_atom_site_fract_z
O1 O -0.9870(5) -0.6339(10) -0.0623(8)
O2 O -0.8438(4) -0.0991(8) -0.0864(5)
H1 H -0.8106(4) -0.0181(8) -0.0947(5)
O3 O -0.7115(4) 0.0493(8) -0.1450(5)
O4 O -0.4292(4) 0.2193(8) -0.1652(5)
O5 O -0.4937(4) 0.4549(8) -0.2355(5)
O6 O -0.4745(3) 0.1501(8) -0.3709(4)
O7 O -0.4626(4) -0.1185(9) -0.3174(6)
O8 O -0.2716(4) 0.3356(9) -0.4259(5)
O9 O -0.3152(5) 0.4986(13) -0.5639(6)
N1 N -0.9373(5) -0.3670(11) -0.0674(7)
H2 H -0.9523(5) -0.2648(11) -0.0518(7)
N2 N -0.6027(4) -0.0870(10) -0.2097(6)
H3 H -0.5774(4) -0.1833(10) -0.2196(6)
C1 C -0.9932(7) -0.4892(16) -0.0457(9)
H4 H -1.0434(7) -0.4551(16) -0.0134(9)
C2 C -0.8557(6) -0.3848(12) -0.1133(7)
C3 C -0.8263(7) -0.5347(14) -0.1453(8)
H5 H -0.8598(7) -0.6332(14) -0.1400(8)
C4 C -0.7442(6) -0.5396(13) -0.1869(8)
H6 H -0.7220(6) -0.6423(13) -0.2102(8)
C5 C -0.6978(6) -0.3983(12) -0.1932(8)
H7 H -0.6427(6) -0.4042(12) -0.2205(8)
C6 C -0.7279(6) -0.2406(11) -0.1608(7)
C7 C -0.8074(6) -0.2407(11) -0.1202(7)
C8 C -0.6810(6) -0.0870(11) -0.1713(7)
C9 C -0.5583(5) 0.0636(11) -0.2354(7)
H8 H -0.6021(5) 0.1427(11) -0.2723(7)
C10 C -0.5104(5) 0.1506(13) -0.1342(6)
H9 H -0.5477(5) 0.2435(13) -0.1116(6)
C11 C -0.4854(7) 0.0420(17) -0.0408(7)
H10 H -0.4558(7) 0.1082(17) 0.0184(7)
H11 H -0.4458(7) -0.0452(17) -0.0612(7)
H12 H -0.5379(7) -0.0095(17) -0.0174(7)
C12 C -0.4314(6) 0.3583(13) -0.2217(7)
C13 C -0.3473(5) 0.3812(11) -0.2737(7)
H13 H -0.3010(5) 0.3092(11) -0.2347(7)
C14 C -0.3596(5) 0.3285(13) -0.3925(7)
H14 H -0.4001(5) 0.4061(13) -0.4364(7)
C15 C -0.3877(5) 0.1478(13) -0.4110(7)
H15 H -0.3474(5) 0.0722(13) -0.3653(7)
C16 C -0.3963(6) 0.0906(14) -0.5261(7)
H16 H -0.4145(6) -0.0264(14) -0.5299(7)
H17 H -0.3398(6) 0.1020(14) -0.5548(7)
H18 H -0.4401(6) 0.1588(14) -0.5690(7)
C17 C -0.4947(6) 0.0138(13) -0.3135(7)
C18 C -0.3168(6) 0.5645(12) -0.2630(7)
H19 H -0.2679(6) 0.5808(12) -0.3073(7)
H20 H -0.3655(6) 0.6373(12) -0.2930(7)
C19 C -0.2878(9) 0.6186(18) -0.1509(8)
H21 H -0.2369(9) 0.5505(18) -0.1219(8)
H22 H -0.3355(9) 0.5981(18) -0.1054(8)
C20 C -0.2620(9) 0.8062(20) -0.1432(12)
H23 H -0.3110(9) 0.8746(20) -0.1772(12)
H24 H -0.2507(9) 0.8391(20) -0.0665(12)
C21 C -0.1808(9) 0.8390(15) -0.1993(11)
H25 H -0.1907(9) 0.7950(15) -0.2738(11)
H26 H -0.1311(9) 0.7768(15) -0.1611(11)
C22 C -0.1547(11) 1.0304(20) -0.2043(14)
H27 H -0.2028(11) 1.0913(20) -0.2467(14)
H28 H -0.1486(11) 1.0763(20) -0.1301(14)
C23 C -0.0711(11) 1.0618(30) -0.2534(17)
H29 H -0.0593(11) 1.1818(30) -0.2538(17)
H30 H -0.0769(11) 1.0196(30) -0.3276(17)
H31 H -0.0227(11) 1.0045(30) -0.2109(17)
C24 C -0.2591(7) 0.4310(16) -0.5101(7)
C25 C -0.1620(8) 0.4441(21) -0.5259(11)
H32 H -0.1300(8) 0.4611(21) -0.4525(11)
C26 C -0.1339(9) 0.2636(31) -0.5651(13)
H33 H -0.1520(9) 0.1786(31) -0.5157(13)
H34 H -0.0703(9) 0.2596(31) -0.5654(13)
H35 H -0.1623(9) 0.2423(31) -0.6380(13)
C27 C -0.1393(12) 0.5891(28) -0.5925(14)
H36 H -0.1784(12) 0.5919(28) -0.6610(14)
H37 H -0.0783(12) 0.5784(28) -0.6099(14)
C28 C -0.1493(16) 0.7459(38) -0.5305(21)
H38 H -0.1344(16) 0.8417(38) -0.5737(21)
H39 H -0.1100(16) 0.7427(38) -0.4631(21)
H40 H -0.2099(16) 0.7562(38) -0.5141(21)
loop_
_geom_bond_atom_site_label_1
_geom_bond_atom_site_label_2
_geom_bond_site_symmetry_1
_geom_bond_site_symmetry_2
O1 C1 1_555 1_555
O2 H1 1_555 1_555
O3 C8 1_555 1_555
O4 C10 1_555 1_555
O5 C12 1_555 1_555
O6 C15 1_555 1_555
O7 C17 1_555 1_555
O8 C14 1_555 1_555
O9 C24 1_555 1_555
N1 H2 1_555 1_555
N2 H3 1_555 1_555
C1 N1 1_555 1_555
H4 C1 1_555 1_555
C2 N1 1_555 1_555
C3 C2 1_555 1_555
H5 C3 1_555 1_555
C4 C3 1_555 1_555
H6 C4 1_555 1_555
C5 C4 1_555 1_555
H7 C5 1_555 1_555
C6 C5 1_555 1_555
C7 O2 1_555 1_555
C8 N2 1_555 1_555
C9 N2 1_555 1_555
H8 C9 1_555 1_555
C10 C9 1_555 1_555
H9 C10 1_555 1_555
C11 C10 1_555 1_555
H10 C11 1_555 1_555
H11 C11 1_555 1_555
H12 C11 1_555 1_555
C12 O4 1_555 1_555
C13 C12 1_555 1_555
H13 C13 1_555 1_555
C14 C13 1_555 1_555
H14 C14 1_555 1_555
C15 C14 1_555 1_555
H15 C15 1_555 1_555
C16 C15 1_555 1_555
H16 C16 1_555 1_555
H17 C16 1_555 1_555
H18 C16 1_555 1_555
C17 O6 1_555 1_555
C18 C13 1_555 1_555
H19 C18 1_555 1_555
H20 C18 1_555 1_555
C19 C18 1_555 1_555
H21 C19 1_555 1_555
H22 C19 1_555 1_555
C20 C19 1_555 1_555
H23 C20 1_555 1_555
H24 C20 1_555 1_555
C21 C20 1_555 1_555
H25 C21 1_555 1_555
H26 C21 1_555 1_555
C22 C21 1_555 1_555
H27 C22 1_555 1_555
H28 C22 1_555 1_555
C23 C22 1_555 1_555
H29 C23 1_555 1_555
H30 C23 1_555 1_555
H31 C23 1_555 1_555
C24 O8 1_555 1_555
C25 C24 1_555 1_555
H32 C25 1_555 1_555
C26 C25 1_555 1_555
H33 C26 1_555 1_555
H34 C26 1_555 1_555
H35 C26 1_555 1_555
C27 C25 1_555 1_555
H36 C27 1_555 1_555
H37 C27 1_555 1_555
C28 C27 1_555 1_555
H38 C28 1_555 1_555
H39 C28 1_555 1_555
H40 C28 1_555 1_555
C2 C7 1_555 1_555
C6 C7 1_555 1_555
C6 C8 1_555 1_555
C9 C17 1_555 1_555

#END
