
#######################################################################
#
#                 Cambridge Crystallographic Data Centre
#                                CCDC 
#
#######################################################################
#
# If this CIF has been generated from an entry in the Cambridge 
# Structural Database, then it will include bibliographic, chemical, 
# crystal, experimental, refinement or atomic coordinate data resulting 
# from the CCDC's data processing and validation procedures.
#
#######################################################################

data_FEVWUA
_chemical_formula_moiety         'C16 H48 S1 Si8'
_chemical_name_systematic        
3,3,4,4-Tetramethyl-2,2,5,5-tetrakis(trimethylsilyl)thiatetrasilolane
_symmetry_cell_setting           monoclinic
_symmetry_space_group_name_H-M   'P 2/n'
_symmetry_Int_Tables_number      13
_space_group_name_Hall           '-P 2yac'
loop_
_symmetry_equiv_pos_site_id
_symmetry_equiv_pos_as_xyz
1 x,y,z
2 1/2-x,y,1/2-z
3 -x,-y,-z
4 1/2+x,-y,1/2+z
_cell_length_a                   12.746(3)
_cell_length_b                   9.2220(19)
_cell_length_c                   14.522(3)
_cell_angle_alpha                90
_cell_angle_beta                 103.438(4)
_cell_angle_gamma                90
_cell_volume                     1660.23
_exptl_crystal_colour            colorless
_exptl_crystal_description       prism
_cell_formula_units_Z            2
loop_
_atom_site_label
_atom_site_type_symbol
_atom_site_fract_x
_atom_site_fract_y
_atom_site_fract_z
S1 S 0.2500 0.36352(7) 0.2500
Si1 Si 0.31932(4) 0.22710(5) 0.15711(3)
Si2 Si 0.27443(4) -0.01589(5) 0.17709(4)
Si3 Si 0.50626(4) 0.26426(6) 0.20028(5)
Si4 Si 0.24492(5) 0.31885(7) 0.00517(4)
C1 C 0.1586(2) -0.0781(3) 0.08128(19)
H1 H 0.1792 -0.0773 0.0218
H2 H 0.0983 -0.0143 0.0780
H3 H 0.1387 -0.1748 0.0949
C2 C 0.3903(2) -0.1434(3) 0.1788(2)
H4 H 0.3678 -0.2412 0.1862
H5 H 0.4494 -0.1189 0.2306
H6 H 0.4128 -0.1352 0.1203
C3 C 0.5666(2) 0.1774(4) 0.3169(2)
H7 H 0.5586 0.0741 0.3111
H8 H 0.5303 0.2121 0.3636
H9 H 0.6418 0.2015 0.3358
C4 C 0.5691(2) 0.1833(3) 0.1074(3)
H10 H 0.5296 0.2138 0.0459
H11 H 0.5672 0.0794 0.1114
H12 H 0.6426 0.2152 0.1175
C5 C 0.5361(2) 0.4635(3) 0.2109(3)
H13 H 0.6126 0.4778 0.2319
H14 H 0.5006 0.5056 0.2560
H15 H 0.5106 0.5089 0.1504
C6 C 0.2853(3) 0.5094(3) -0.0028(2)
H16 H 0.2476 0.5493 -0.0623
H17 H 0.3616 0.5143 0.0019
H18 H 0.2678 0.5639 0.0480
C7 C 0.0956(3) 0.3136(5) -0.0196(3)
H19 H 0.0720 0.3527 0.0334
H20 H 0.0714 0.2150 -0.0300
H21 H 0.0660 0.3701 -0.0751
C8 C 0.2906(4) 0.2105(4) -0.0883(2)
H22 H 0.2624 0.2535 -0.1493
H23 H 0.2646 0.1128 -0.0883
H24 H 0.3679 0.2100 -0.0751
Si1A Si 0.18068(4) 0.22710(5) 0.34289(3)
Si2A Si 0.22557(4) -0.01589(5) 0.32291(4)
Si3A Si -0.00626(4) 0.26426(6) 0.29972(5)
Si4A Si 0.25508(5) 0.31885(7) 0.49483(4)
C1A C 0.3414(2) -0.0781(3) 0.41872(19)
H1A H 0.3208 -0.0773 0.4782
H2A H 0.4017 -0.0143 0.4220
H3A H 0.3613 -0.1748 0.4051
C2A C 0.1097(2) -0.1434(3) 0.3212(2)
H4A H 0.1322 -0.2412 0.3138
H5A H 0.0506 -0.1189 0.2694
H6A H 0.0872 -0.1352 0.3797
C3A C -0.0666(2) 0.1774(4) 0.1831(2)
H7A H -0.0586 0.0741 0.1889
H8A H -0.0303 0.2121 0.1364
H9A H -0.1418 0.2015 0.1642
C4A C -0.0691(2) 0.1833(3) 0.3926(3)
H10A H -0.0296 0.2138 0.4541
H11A H -0.0672 0.0794 0.3886
H12A H -0.1426 0.2152 0.3825
C5A C -0.0361(2) 0.4635(3) 0.2891(3)
H13A H -0.1126 0.4778 0.2681
H14A H -0.0006 0.5056 0.2440
H15A H -0.0106 0.5089 0.3496
C6A C 0.2147(3) 0.5094(3) 0.5028(2)
H16A H 0.2524 0.5493 0.5623
H17A H 0.1384 0.5143 0.4981
H18A H 0.2322 0.5639 0.4520
C7A C 0.4044(3) 0.3136(5) 0.5196(3)
H19A H 0.4280 0.3527 0.4666
H20A H 0.4286 0.2150 0.5300
H21A H 0.4340 0.3701 0.5751
C8A C 0.2094(4) 0.2105(4) 0.5883(2)
H22A H 0.2376 0.2535 0.6493
H23A H 0.2354 0.1128 0.5883
H24A H 0.1321 0.2100 0.5751
loop_
_geom_bond_atom_site_label_1
_geom_bond_atom_site_label_2
_geom_bond_site_symmetry_1
_geom_bond_site_symmetry_2
S1 Si1 1_555 1_555
Si1 Si2 1_555 1_555
Si2 C1 1_555 1_555
Si3 Si1 1_555 1_555
Si4 Si1 1_555 1_555
C1 H1 1_555 1_555
H2 C1 1_555 1_555
H3 C1 1_555 1_555
C2 Si2 1_555 1_555
H4 C2 1_555 1_555
H5 C2 1_555 1_555
H6 C2 1_555 1_555
C3 Si3 1_555 1_555
H7 C3 1_555 1_555
H8 C3 1_555 1_555
H9 C3 1_555 1_555
C4 Si3 1_555 1_555
H10 C4 1_555 1_555
H11 C4 1_555 1_555
H12 C4 1_555 1_555
C5 Si3 1_555 1_555
H13 C5 1_555 1_555
H14 C5 1_555 1_555
H15 C5 1_555 1_555
C6 Si4 1_555 1_555
H16 C6 1_555 1_555
H17 C6 1_555 1_555
H18 C6 1_555 1_555
C7 Si4 1_555 1_555
H19 C7 1_555 1_555
H20 C7 1_555 1_555
H21 C7 1_555 1_555
C8 Si4 1_555 1_555
H22 C8 1_555 1_555
H23 C8 1_555 1_555
H24 C8 1_555 1_555
Si1A S1 1_555 1_555
Si2A Si2 1_555 1_555
Si3A Si1A 1_555 1_555
Si4A Si1A 1_555 1_555
C1A Si2A 1_555 1_555
H1A C1A 1_555 1_555
H2A C1A 1_555 1_555
H3A C1A 1_555 1_555
C2A Si2A 1_555 1_555
H4A C2A 1_555 1_555
H5A C2A 1_555 1_555
H6A C2A 1_555 1_555
C3A Si3A 1_555 1_555
H7A C3A 1_555 1_555
H8A C3A 1_555 1_555
H9A C3A 1_555 1_555
C4A Si3A 1_555 1_555
H10A C4A 1_555 1_555
H11A C4A 1_555 1_555
H12A C4A 1_555 1_555
C5A Si3A 1_555 1_555
H13A C5A 1_555 1_555
H14A C5A 1_555 1_555
H15A C5A 1_555 1_555
C6A Si4A 1_555 1_555
H16A C6A 1_555 1_555
H17A C6A 1_555 1_555
H18A C6A 1_555 1_555
C7A Si4A 1_555 1_555
H19A C7A 1_555 1_555
H20A C7A 1_555 1_555
H21A C7A 1_555 1_555
C8A Si4A 1_555 1_555
H22A C8A 1_555 1_555
H23A C8A 1_555 1_555
H24A C8A 1_555 1_555
Si1A Si2A 1_555 1_555

#END
