
#######################################################################
#
#                 Cambridge Crystallographic Data Centre
#                                CCDC 
#
#######################################################################
#
# If this CIF has been generated from an entry in the Cambridge 
# Structural Database, then it will include bibliographic, chemical, 
# crystal, experimental, refinement or atomic coordinate data resulting 
# from the CCDC's data processing and validation procedures.
#
#######################################################################

data_FEVWEK
_chemical_formula_moiety         'C16 H48 Si8 Te1'
_chemical_name_systematic        
3,3,4,4-Tetramethyl-2,2,5,5-tetrakis(trimethylsilyl)telluratetrasilolane
_symmetry_cell_setting           monoclinic
_symmetry_space_group_name_H-M   'P 2/n'
_symmetry_Int_Tables_number      13
_space_group_name_Hall           '-P 2yac'
loop_
_symmetry_equiv_pos_site_id
_symmetry_equiv_pos_as_xyz
1 x,y,z
2 1/2-x,y,1/2-z
3 -x,-y,-z
4 1/2+x,-y,1/2+z
_cell_length_a                   13.101(8)
_cell_length_b                   8.912(5)
_cell_length_c                   14.984(9)
_cell_angle_alpha                90
_cell_angle_beta                 106.666(11)
_cell_angle_gamma                90
_cell_volume                     1675.98
_exptl_crystal_colour            colorless
_exptl_crystal_description       block
_cell_formula_units_Z            2
loop_
_atom_site_label
_atom_site_type_symbol
_atom_site_fract_x
_atom_site_fract_y
_atom_site_fract_z
Te1 Te 0.7500 0.91916(4) 0.2500
Si1 Si 0.82211(7) 0.73947(10) 0.15132(6)
Si2 Si 0.77054(8) 0.49497(11) 0.17850(7)
Si3 Si 1.00763(9) 0.76843(13) 0.19992(9)
Si4 Si 0.74449(10) 0.82447(14) -0.00191(7)
C1 C 0.6516(5) 0.4311(6) 0.0841(4)
H1 H 0.6691 0.4268 0.0262
H2 H 0.5941 0.5005 0.0786
H3 H 0.6305 0.3333 0.0991
C2 C 0.8813(4) 0.3577(5) 0.1826(4)
H4 H 0.8594 0.2588 0.1947
H5 H 0.9437 0.3861 0.2313
H6 H 0.8972 0.3583 0.1239
C3 C 1.0445(4) 0.9713(6) 0.2026(5)
H7 H 1.0038 1.0271 0.2352
H8 H 1.0297 1.0084 0.1400
H9 H 1.1191 0.9827 0.2339
C4 C 1.0627(5) 0.6915(8) 0.3206(5)
H10 H 1.1389 0.7001 0.3393
H11 H 1.0431 0.5878 0.3213
H12 H 1.0342 0.7471 0.3629
C5 C 1.0681(5) 0.6693(7) 0.1160(6)
H13 H 1.1443 0.6683 0.1409
H14 H 1.0488 0.7212 0.0574
H15 H 1.0421 0.5681 0.1069
C6 C 0.7838(8) 0.7055(8) -0.0884(4)
H16 H 0.7628 0.6035 -0.0826
H17 H 0.8596 0.7101 -0.0772
H18 H 0.7492 0.7413 -0.1501
C7 C 0.7878(6) 1.0188(6) -0.0137(4)
H19 H 0.7458 1.0600 -0.0719
H20 H 0.8616 1.0189 -0.0121
H21 H 0.7785 1.0786 0.0367
C8 C 0.5965(5) 0.8250(10) -0.0298(5)
H22 H 0.5765 0.8346 0.0268
H23 H 0.5687 0.7327 -0.0602
H24 H 0.5681 0.9078 -0.0702
Si1A Si 0.67789(7) 0.73947(10) 0.34868(6)
Si2A Si 0.72946(8) 0.49497(11) 0.32150(7)
Si3A Si 0.49237(9) 0.76843(13) 0.30008(9)
Si4A Si 0.75551(10) 0.82447(14) 0.50191(7)
C1A C 0.8484(5) 0.4311(6) 0.4159(4)
H1A H 0.8309 0.4268 0.4738
H2A H 0.9059 0.5005 0.4214
H3A H 0.8695 0.3333 0.4009
C2A C 0.6187(4) 0.3577(5) 0.3174(4)
H4A H 0.6406 0.2588 0.3053
H5A H 0.5563 0.3861 0.2687
H6A H 0.6028 0.3583 0.3761
C3A C 0.4555(4) 0.9713(6) 0.2974(5)
H7A H 0.4962 1.0271 0.2648
H8A H 0.4703 1.0084 0.3600
H9A H 0.3809 0.9827 0.2661
C4A C 0.4373(5) 0.6915(8) 0.1794(5)
H10A H 0.3611 0.7001 0.1607
H11A H 0.4569 0.5878 0.1787
H12A H 0.4658 0.7471 0.1371
C5A C 0.4319(5) 0.6693(7) 0.3840(6)
H13A H 0.3557 0.6683 0.3591
H14A H 0.4512 0.7212 0.4426
H15A H 0.4579 0.5681 0.3931
C6A C 0.7162(8) 0.7055(8) 0.5884(4)
H16A H 0.7372 0.6035 0.5826
H17A H 0.6404 0.7101 0.5772
H18A H 0.7508 0.7413 0.6501
C7A C 0.7122(6) 1.0188(6) 0.5137(4)
H19A H 0.7542 1.0600 0.5719
H20A H 0.6384 1.0189 0.5121
H21A H 0.7215 1.0786 0.4633
C8A C 0.9035(5) 0.8250(10) 0.5298(5)
H22A H 0.9235 0.8346 0.4732
H23A H 0.9313 0.7327 0.5602
H24A H 0.9319 0.9078 0.5702
loop_
_geom_bond_atom_site_label_1
_geom_bond_atom_site_label_2
_geom_bond_site_symmetry_1
_geom_bond_site_symmetry_2
Te1 Si1 1_555 1_555
Si1 Si2 1_555 1_555
Si2 C1 1_555 1_555
Si3 Si1 1_555 1_555
Si4 Si1 1_555 1_555
C1 H1 1_555 1_555
H2 C1 1_555 1_555
H3 C1 1_555 1_555
C2 Si2 1_555 1_555
H4 C2 1_555 1_555
H5 C2 1_555 1_555
H6 C2 1_555 1_555
C3 Si3 1_555 1_555
H7 C3 1_555 1_555
H8 C3 1_555 1_555
H9 C3 1_555 1_555
C4 Si3 1_555 1_555
H10 C4 1_555 1_555
H11 C4 1_555 1_555
H12 C4 1_555 1_555
C5 Si3 1_555 1_555
H13 C5 1_555 1_555
H14 C5 1_555 1_555
H15 C5 1_555 1_555
C6 Si4 1_555 1_555
H16 C6 1_555 1_555
H17 C6 1_555 1_555
H18 C6 1_555 1_555
C7 Si4 1_555 1_555
H19 C7 1_555 1_555
H20 C7 1_555 1_555
H21 C7 1_555 1_555
C8 Si4 1_555 1_555
H22 C8 1_555 1_555
H23 C8 1_555 1_555
H24 C8 1_555 1_555
Si1A Te1 1_555 1_555
Si2A Si2 1_555 1_555
Si3A Si1A 1_555 1_555
Si4A Si1A 1_555 1_555
C1A Si2A 1_555 1_555
H1A C1A 1_555 1_555
H2A C1A 1_555 1_555
H3A C1A 1_555 1_555
C2A Si2A 1_555 1_555
H4A C2A 1_555 1_555
H5A C2A 1_555 1_555
H6A C2A 1_555 1_555
C3A Si3A 1_555 1_555
H7A C3A 1_555 1_555
H8A C3A 1_555 1_555
H9A C3A 1_555 1_555
C4A Si3A 1_555 1_555
H10A C4A 1_555 1_555
H11A C4A 1_555 1_555
H12A C4A 1_555 1_555
C5A Si3A 1_555 1_555
H13A C5A 1_555 1_555
H14A C5A 1_555 1_555
H15A C5A 1_555 1_555
C6A Si4A 1_555 1_555
H16A C6A 1_555 1_555
H17A C6A 1_555 1_555
H18A C6A 1_555 1_555
C7A Si4A 1_555 1_555
H19A C7A 1_555 1_555
H20A C7A 1_555 1_555
H21A C7A 1_555 1_555
C8A Si4A 1_555 1_555
H22A C8A 1_555 1_555
H23A C8A 1_555 1_555
H24A C8A 1_555 1_555
Si1A Si2A 1_555 1_555

#END
