
#######################################################################
#
#                 Cambridge Crystallographic Data Centre
#                                CCDC 
#
#######################################################################
#
# If this CIF has been generated from an entry in the Cambridge 
# Structural Database, then it will include bibliographic, chemical, 
# crystal, experimental, refinement or atomic coordinate data resulting 
# from the CCDC's data processing and validation procedures.
#
#######################################################################

data_FEVWOU
_chemical_formula_moiety         'C16 H48 Se1 Si8'
_chemical_name_systematic        
3,3,4,4-Tetramethyl-2,2,5,5-tetrakis(trimethylsilyl)selenatetrasilolane
_symmetry_cell_setting           monoclinic
_symmetry_space_group_name_H-M   'P 2/n'
_symmetry_Int_Tables_number      13
_space_group_name_Hall           '-P 2yac'
loop_
_symmetry_equiv_pos_site_id
_symmetry_equiv_pos_as_xyz
1 x,y,z
2 1/2-x,y,1/2-z
3 -x,-y,-z
4 1/2+x,-y,1/2+z
_cell_length_a                   12.8893(6)
_cell_length_b                   9.0602(3)
_cell_length_c                   14.6504(7)
_cell_angle_alpha                90
_cell_angle_beta                 104.483(5)
_cell_angle_gamma                90
_cell_volume                     1656.5
_exptl_crystal_colour            colorless
_exptl_crystal_description       prism
_cell_formula_units_Z            2
loop_
_atom_site_label
_atom_site_type_symbol
_atom_site_fract_x
_atom_site_fract_y
_atom_site_fract_z
Se1 Se 0.2500 0.11345(4) 0.2500
Si1 Si 0.32003(5) 0.26776(7) 0.15444(4)
Si2 Si 0.27255(6) 0.51257(8) 0.17746(5)
Si3 Si 0.50607(6) 0.23411(9) 0.19917(6)
Si4 Si 0.24416(7) 0.17844(9) 0.00184(5)
C1 C 0.5680(3) 0.3232(5) 0.1105(3)
H1 H 0.6443 0.3110 0.1295
H2 H 0.5508 0.4265 0.1063
H3 H 0.5405 0.2778 0.0500
C2 C 0.3859(3) 0.6446(3) 0.1796(3)
H4 H 0.4055 0.6397 0.1206
H5 H 0.4464 0.6183 0.2299
H6 H 0.3635 0.7432 0.1894
C3 C 0.5394(3) 0.0332(4) 0.2071(3)
H7 H 0.6155 0.0210 0.2296
H8 H 0.5156 -0.0109 0.1458
H9 H 0.5042 -0.0137 0.2499
C4 C 0.1542(3) 0.5749(4) 0.0824(2)
H10 H 0.1356 0.6741 0.0951
H11 H 0.0944 0.5108 0.0809
H12 H 0.1719 0.5715 0.0225
C5 C 0.2866(4) 0.2907(5) -0.0889(2)
H13 H 0.3632 0.2868 -0.0779
H14 H 0.2644 0.3912 -0.0853
H15 H 0.2542 0.2519 -0.1504
C6 C 0.2862(4) -0.0150(4) -0.0076(3)
H16 H 0.2560 -0.0505 -0.0704
H17 H 0.2613 -0.0751 0.0366
H18 H 0.3629 -0.0199 0.0061
C7 C 0.5643(3) 0.3172(5) 0.3174(3)
H19 H 0.5305 0.2749 0.3627
H20 H 0.5525 0.4219 0.3143
H21 H 0.6399 0.2977 0.3360
C8 C 0.0950(3) 0.1812(6) -0.0230(3)
H22 H 0.0707 0.2813 -0.0231
H23 H 0.0727 0.1263 0.0248
H24 H 0.0649 0.1373 -0.0835
Si1A Si 0.17997(5) 0.26776(7) 0.34556(4)
Si2A Si 0.22745(6) 0.51257(8) 0.32254(5)
Si3A Si -0.00607(6) 0.23411(9) 0.30083(6)
Si4A Si 0.25584(7) 0.17844(9) 0.49816(5)
C1A C -0.0680(3) 0.3232(5) 0.3895(3)
H1A H -0.1443 0.3110 0.3705
H2A H -0.0508 0.4265 0.3937
H3A H -0.0405 0.2778 0.4500
C2A C 0.1141(3) 0.6446(3) 0.3204(3)
H4A H 0.0945 0.6397 0.3794
H5A H 0.0536 0.6183 0.2701
H6A H 0.1365 0.7432 0.3106
C3A C -0.0394(3) 0.0332(4) 0.2929(3)
H7A H -0.1155 0.0210 0.2704
H8A H -0.0156 -0.0109 0.3542
H9A H -0.0042 -0.0137 0.2501
C4A C 0.3458(3) 0.5749(4) 0.4176(2)
H10A H 0.3644 0.6741 0.4049
H11A H 0.4056 0.5108 0.4191
H12A H 0.3281 0.5715 0.4775
C5A C 0.2134(4) 0.2907(5) 0.5889(2)
H13A H 0.1368 0.2868 0.5779
H14A H 0.2356 0.3912 0.5853
H15A H 0.2458 0.2519 0.6504
C6A C 0.2138(4) -0.0150(4) 0.5076(3)
H16A H 0.2440 -0.0505 0.5704
H17A H 0.2387 -0.0751 0.4634
H18A H 0.1371 -0.0199 0.4939
C7A C -0.0643(3) 0.3172(5) 0.1826(3)
H19A H -0.0305 0.2749 0.1373
H20A H -0.0525 0.4219 0.1857
H21A H -0.1399 0.2977 0.1640
C8A C 0.4050(3) 0.1812(6) 0.5230(3)
H22A H 0.4293 0.2813 0.5231
H23A H 0.4273 0.1263 0.4752
H24A H 0.4351 0.1373 0.5835
loop_
_geom_bond_atom_site_label_1
_geom_bond_atom_site_label_2
_geom_bond_site_symmetry_1
_geom_bond_site_symmetry_2
Se1 Si1 1_555 1_555
Si1 Si2 1_555 1_555
Si2 C2 1_555 1_555
Si3 Si1 1_555 1_555
Si4 Si1 1_555 1_555
C1 Si3 1_555 1_555
H1 C1 1_555 1_555
H2 C1 1_555 1_555
H3 C1 1_555 1_555
C2 H4 1_555 1_555
H5 C2 1_555 1_555
H6 C2 1_555 1_555
C3 Si3 1_555 1_555
H7 C3 1_555 1_555
H8 C3 1_555 1_555
H9 C3 1_555 1_555
C4 Si2 1_555 1_555
H10 C4 1_555 1_555
H11 C4 1_555 1_555
H12 C4 1_555 1_555
C5 Si4 1_555 1_555
H13 C5 1_555 1_555
H14 C5 1_555 1_555
H15 C5 1_555 1_555
C6 Si4 1_555 1_555
H16 C6 1_555 1_555
H17 C6 1_555 1_555
H18 C6 1_555 1_555
C7 Si3 1_555 1_555
H19 C7 1_555 1_555
H20 C7 1_555 1_555
H21 C7 1_555 1_555
C8 Si4 1_555 1_555
H22 C8 1_555 1_555
H23 C8 1_555 1_555
H24 C8 1_555 1_555
Si1A Se1 1_555 1_555
Si2A Si2 1_555 1_555
Si3A Si1A 1_555 1_555
Si4A Si1A 1_555 1_555
C1A Si3A 1_555 1_555
H1A C1A 1_555 1_555
H2A C1A 1_555 1_555
H3A C1A 1_555 1_555
C2A Si2A 1_555 1_555
H4A C2A 1_555 1_555
H5A C2A 1_555 1_555
H6A C2A 1_555 1_555
C3A Si3A 1_555 1_555
H7A C3A 1_555 1_555
H8A C3A 1_555 1_555
H9A C3A 1_555 1_555
C4A Si2A 1_555 1_555
H10A C4A 1_555 1_555
H11A C4A 1_555 1_555
H12A C4A 1_555 1_555
C5A Si4A 1_555 1_555
H13A C5A 1_555 1_555
H14A C5A 1_555 1_555
H15A C5A 1_555 1_555
C6A Si4A 1_555 1_555
H16A C6A 1_555 1_555
H17A C6A 1_555 1_555
H18A C6A 1_555 1_555
C7A Si3A 1_555 1_555
H19A C7A 1_555 1_555
H20A C7A 1_555 1_555
H21A C7A 1_555 1_555
C8A Si4A 1_555 1_555
H22A C8A 1_555 1_555
H23A C8A 1_555 1_555
H24A C8A 1_555 1_555
Si1A Si2A 1_555 1_555

#END
