
#######################################################################
#
#                 Cambridge Crystallographic Data Centre
#                                CCDC 
#
#######################################################################
#
# If this CIF has been generated from an entry in the Cambridge 
# Structural Database, then it will include bibliographic, chemical, 
# crystal, experimental, refinement or atomic coordinate data resulting 
# from the CCDC's data processing and validation procedures.
#
#######################################################################

data_FEVZAI
_chemical_formula_moiety         'C19 H17 Cl2 N3 O3'
_chemical_name_systematic        
1-((2-(4-(2,4-Dichlorobenzyloxy)phenyl)-1,3-dioxolan-2-yl)methyl)-1H-1,2,4-triazole
_chemical_properties_biological  
'some fungicidal and a little plant growth regulating activity'
_symmetry_cell_setting           triclinic
_symmetry_space_group_name_H-M   'P -1'
_symmetry_Int_Tables_number      2
_space_group_name_Hall           '-P 1'
loop_
_symmetry_equiv_pos_site_id
_symmetry_equiv_pos_as_xyz
1 x,y,z
2 -x,-y,-z
_cell_length_a                   8.7986(18)
_cell_length_b                   9.3021(19)
_cell_length_c                   13.466(3)
_cell_angle_alpha                97.41(3)
_cell_angle_beta                 96.79(3)
_cell_angle_gamma                117.76(3)
_cell_volume                     946.963
_chemical_melting_point          136-138deg.C
_cell_formula_units_Z            2
_exptl_crystal_recrystallization_method 'acetic acid'
loop_
_atom_site_label
_atom_site_type_symbol
_atom_site_fract_x
_atom_site_fract_y
_atom_site_fract_z
Cl1 Cl 0.20499(12) -0.29464(16) -0.00348(10)
Cl2 Cl 0.76416(12) 0.12917(11) 0.29206(9)
O1 O 1.8159(3) 0.7901(2) 0.3656(2)
O2 O 1.8167(3) 0.5902(3) 0.44361(17)
O3 O 1.0613(2) 0.1847(2) 0.15779(17)
N1 N 2.3253(4) 0.7738(4) 0.4430(3)
N2 N 2.1861(3) 0.8342(4) 0.3230(2)
N3 N 2.0889(4) 0.6998(3) 0.3348(2)
C1 C 2.3317(5) 0.8850(5) 0.3860(3)
H1 H 2.4307 0.9874 0.3916
C2 C 2.1626(5) 0.6554(5) 0.4066(3)
H2 H 2.1080 0.5557 0.4283
C3 C 1.8986(4) 0.6026(4) 0.2828(2)
H3 H 1.8651 0.4858 0.2656
H4 H 1.8836 0.6381 0.2195
C4 C 1.7776(4) 0.6224(3) 0.3472(2)
C5 C 1.7817(6) 0.6896(7) 0.5145(4)
H5 H 1.8762 0.7441 0.5744
H6 H 1.6734 0.6224 0.5361
C6 C 1.7664(5) 0.8160(6) 0.4613(4)
H7 H 1.6471 0.7975 0.4506
H8 H 1.8447 0.9278 0.5006
C7 C 1.5844(3) 0.5041(3) 0.2961(2)
C8 C 1.4828(4) 0.5566(4) 0.2406(3)
H9 H 1.5329 0.6665 0.2334
C9 C 1.3090(4) 0.4484(4) 0.1961(3)
H10 H 1.2422 0.4854 0.1600
C10 C 1.2348(3) 0.2839(3) 0.2057(2)
C11 C 1.3337(4) 0.2284(3) 0.2591(2)
H11 H 1.2849 0.1177 0.2647
C12 C 1.5068(4) 0.3406(3) 0.3043(2)
H12 H 1.5729 0.3040 0.3415
C13 C 0.9768(4) 0.0165(4) 0.1735(3)
H13 H 0.9944 0.0162 0.2459
H14 H 1.0251 -0.0466 0.1397
C14 C 0.7854(4) -0.0584(3) 0.1289(2)
C15 C 0.7073(4) -0.1787(5) 0.0397(3)
H15 H 0.7766 -0.2113 0.0066
C16 C 0.5298(5) -0.2527(5) -0.0024(3)
H16 H 0.4811 -0.3331 -0.0627
C17 C 0.4279(4) -0.2051(4) 0.0465(3)
C18 C 0.4989(4) -0.0851(4) 0.1356(3)
H17 H 0.4291 -0.0520 0.1678
C19 C 0.6774(4) -0.0146(4) 0.1763(3)
loop_
_geom_bond_atom_site_label_1
_geom_bond_atom_site_label_2
_geom_bond_site_symmetry_1
_geom_bond_site_symmetry_2
Cl1 C17 1_555 1_555
Cl2 C19 1_555 1_555
O1 C4 1_555 1_555
O2 C4 1_555 1_555
O3 C10 1_555 1_555
N1 C1 1_555 1_555
N2 N3 1_555 1_555
N3 C2 1_555 1_555
C1 N2 1_555 1_555
H1 C1 1_555 1_555
C2 N1 1_555 1_555
H2 C2 1_555 1_555
C3 N3 1_555 1_555
H3 C3 1_555 1_555
H4 C3 1_555 1_555
C4 C3 1_555 1_555
C5 O2 1_555 1_555
H5 C5 1_555 1_555
H6 C5 1_555 1_555
C6 O1 1_555 1_555
H7 C6 1_555 1_555
H8 C6 1_555 1_555
C7 C4 1_555 1_555
C8 C7 1_555 1_555
H9 C8 1_555 1_555
C9 C8 1_555 1_555
H10 C9 1_555 1_555
C10 C9 1_555 1_555
C11 C10 1_555 1_555
H11 C11 1_555 1_555
C12 C7 1_555 1_555
H12 C12 1_555 1_555
C13 O3 1_555 1_555
H13 C13 1_555 1_555
H14 C13 1_555 1_555
C14 C13 1_555 1_555
C15 C14 1_555 1_555
H15 C15 1_555 1_555
C16 C15 1_555 1_555
H16 C16 1_555 1_555
C17 C16 1_555 1_555
C18 C17 1_555 1_555
H17 C18 1_555 1_555
C19 C14 1_555 1_555
C5 C6 1_555 1_555
C11 C12 1_555 1_555
C18 C19 1_555 1_555

#END
