
#######################################################################
#
#                 Cambridge Crystallographic Data Centre
#                                CCDC 
#
#######################################################################
#
# If this CIF has been generated from an entry in the Cambridge 
# Structural Database, then it will include bibliographic, chemical, 
# crystal, experimental, refinement or atomic coordinate data resulting 
# from the CCDC's data processing and validation procedures.
#
#######################################################################

data_FEWHIB
_chemical_formula_moiety         'C32 H33 N5,H2 O1'
_chemical_name_systematic        
"9-(4-(1H,1'H-2,2'-biimidazol-1-yl)phenyl)-3,6-di-t-butyl-9H-carbazole monohydrate"
_symmetry_cell_setting           triclinic
_symmetry_space_group_name_H-M   'P -1'
_symmetry_Int_Tables_number      2
_space_group_name_Hall           '-P 1'
loop_
_symmetry_equiv_pos_site_id
_symmetry_equiv_pos_as_xyz
1 x,y,z
2 -x,-y,-z
_cell_length_a                   11.2310(13)
_cell_length_b                   11.9617(13)
_cell_length_c                   24.648(2)
_cell_angle_alpha                76.640(1)
_cell_angle_beta                 83.477(2)
_cell_angle_gamma                64.605(2)
_cell_volume                     2909.95
_exptl_crystal_colour            colorless
_exptl_crystal_description       block
_cell_formula_units_Z            4
loop_
_atom_site_label
_atom_site_type_symbol
_atom_site_fract_x
_atom_site_fract_y
_atom_site_fract_z
N1 N 0.0522(3) 1.1502(2) 0.37564(11)
N2 N 0.1539(3) 1.2666(2) 0.38597(11)
H1 H 0.2152 1.2867 0.3945
N3 N 0.3532(3) 1.0413(2) 0.45187(11)
N4 N 0.3257(3) 0.9226(2) 0.40095(10)
N5 N 0.1118(3) 0.7287(3) 0.27030(11)
C1 C -0.0270(3) 1.2759(3) 0.35789(14)
H2 H -0.1128 1.3076 0.3433
C2 C 0.0336(3) 1.3487(3) 0.36393(14)
H3 H -0.0005 1.4384 0.3547
C3 C 0.1610(3) 1.1490(3) 0.39221(13)
C4 C 0.2771(3) 1.0394(3) 0.41554(13)
C5 C 0.4543(3) 0.9222(3) 0.46162(14)
H4 H 0.5249 0.8954 0.4863
C6 C 0.4391(3) 0.8488(3) 0.43132(13)
H5 H 0.4956 0.7629 0.4309
C7 C 0.2692(3) 0.8774(3) 0.36627(13)
C8 C 0.2299(3) 0.9401(3) 0.31313(14)
H6 H 0.2396 1.0164 0.2980
C9 C 0.1761(3) 0.8925(3) 0.28150(14)
H7 H 0.1469 0.9373 0.2449
C10 C 0.1646(3) 0.7807(3) 0.30266(14)
C11 C 0.2058(3) 0.7170(3) 0.35634(14)
H8 H 0.1982 0.6395 0.3711
C12 C 0.2574(3) 0.7647(3) 0.38836(14)
H9 H 0.2847 0.7212 0.4253
C13 C -0.0009(3) 0.7048(3) 0.28384(14)
C14 C -0.0960(3) 0.7405(3) 0.32565(14)
H10 H -0.0887 0.7849 0.3516
C15 C -0.2008(3) 0.7089(3) 0.32776(13)
H11 H -0.2667 0.7334 0.3558
C16 C -0.2163(3) 0.6420(3) 0.29058(13)
C17 C -0.1191(3) 0.6068(3) 0.25015(13)
H12 H -0.1255 0.5607 0.2249
C18 C -0.0116(3) 0.6381(3) 0.24593(13)
C19 C 0.1015(3) 0.6179(3) 0.20818(13)
C20 C 0.1448(3) 0.5577(3) 0.16296(13)
H13 H 0.0955 0.5193 0.1519
C21 C 0.2594(3) 0.5538(3) 0.13404(14)
C22 C 0.3308(3) 0.6096(3) 0.15253(14)
H14 H 0.4112 0.6043 0.1338
C23 C 0.2901(3) 0.6713(3) 0.19629(14)
H15 H 0.3392 0.7103 0.2070
C24 C 0.1737(3) 0.6746(3) 0.22449(14)
C25 C -0.3402(3) 0.6183(3) 0.29375(14)
C26 C -0.4585(3) 0.7456(3) 0.27620(16)
H16 H -0.4436 0.7855 0.2382
H17 H -0.4688 0.8010 0.3018
H18 H -0.5387 0.7315 0.2775
C27 C -0.3652(4) 0.5576(3) 0.35430(14)
H19 H -0.2901 0.4765 0.3662
H20 H -0.4454 0.5436 0.3556
H21 H -0.3759 0.6142 0.3793
C28 C -0.3328(4) 0.5324(3) 0.25494(16)
H22 H -0.3160 0.5691 0.2166
H23 H -0.4165 0.5244 0.2568
H24 H -0.2612 0.4487 0.2666
C29 C 0.3102(3) 0.4900(3) 0.08367(14)
C30 C 0.3255(4) 0.5867(4) 0.03333(15)
H25 H 0.3868 0.6181 0.0425
H26 H 0.2395 0.6575 0.0243
H27 H 0.3601 0.5461 0.0012
C31 C 0.4437(4) 0.3777(4) 0.09719(17)
H28 H 0.4333 0.3157 0.1289
H29 H 0.5063 0.4072 0.1066
H30 H 0.4771 0.3382 0.0647
C32 C 0.2149(4) 0.4422(4) 0.06790(16)
H31 H 0.2047 0.3795 0.0993
H32 H 0.2501 0.4033 0.0353
H33 H 0.1290 0.5133 0.0590
N6 N 0.7269(3) 0.6128(2) 0.56585(12)
N7 N 0.6775(3) 0.5101(2) 0.51448(11)
H34 H 0.6309 0.4837 0.4985
N8 N 0.4023(3) 0.6488(2) 0.53059(11)
N9 N 0.4308(3) 0.7384(2) 0.59485(10)
N10 N 0.5877(3) 0.8579(2) 0.77444(11)
C33 C 0.8395(3) 0.5384(3) 0.53990(15)
H35 H 0.9254 0.5327 0.5436
C34 C 0.8100(3) 0.4752(3) 0.50864(15)
H36 H 0.8697 0.4178 0.4869
C35 C 0.6305(3) 0.5928(3) 0.54937(13)
C36 C 0.4909(3) 0.6542(3) 0.56008(13)
C37 C 0.2822(3) 0.7344(3) 0.54566(14)
H37 H 0.2001 0.7524 0.5308
C38 C 0.2978(3) 0.7892(3) 0.58459(14)
H38 H 0.2298 0.8514 0.6018
C39 C 0.4822(3) 0.7660(3) 0.63838(13)
C40 C 0.4369(3) 0.8916(3) 0.64228(14)
H39 H 0.3808 0.9570 0.6146
C41 C 0.4743(3) 0.9206(3) 0.68674(14)
H40 H 0.4454 1.0065 0.6892
C42 C 0.5541(3) 0.8251(3) 0.72807(13)
C43 C 0.5992(3) 0.7000(3) 0.72362(13)
H41 H 0.6548 0.6345 0.7514
C44 C 0.5634(3) 0.6704(3) 0.67861(14)
H42 H 0.5945 0.5847 0.6755
C45 C 0.4989(3) 0.9417(3) 0.80687(13)
C46 C 0.3625(4) 0.9993(3) 0.80634(14)
H43 H 0.3142 0.9877 0.7805
C47 C 0.2993(4) 1.0748(3) 0.84504(16)
H44 H 0.2057 1.1148 0.8453
C48 C 0.3656(4) 1.0950(3) 0.88344(15)
C49 C 0.5014(4) 1.0379(3) 0.88226(15)
H45 H 0.5494 1.0510 0.9077
C50 C 0.5691(4) 0.9610(3) 0.84411(13)
C51 C 0.7080(3) 0.8877(3) 0.83394(13)
C52 C 0.8232(4) 0.8737(3) 0.85594(14)
H46 H 0.8183 0.9158 0.8850
C53 C 0.9464(4) 0.7982(3) 0.83574(15)
C54 C 0.9476(4) 0.7369(3) 0.79324(14)
H47 H 1.0306 0.6853 0.7792
C55 C 0.8361(3) 0.7471(3) 0.77086(14)
H48 H 0.8413 0.7032 0.7425
C56 C 0.7150(3) 0.8242(3) 0.79127(13)
C57 C 1.0754(4) 0.7807(4) 0.85818(19)
C58 C 1.1488(5) 0.6413(5) 0.8875(2)
H49 H 1.0952 0.6206 0.9190
H50 H 1.2334 0.6283 0.9010
H51 H 1.1643 0.5865 0.8610
C59 C 1.0580(5) 0.8648(5) 0.8982(2)
H52 H 1.0019 0.8490 0.9297
H53 H 1.0164 0.9535 0.8790
H54 H 1.1443 0.8468 0.9119
C60 C 1.1651(5) 0.8076(5) 0.8096(2)
H55 H 1.1227 0.8962 0.7903
H56 H 1.1797 0.7525 0.7833
H57 H 1.2499 0.7913 0.8242
C61 C 0.2921(4) 1.1772(4) 0.92635(17)
C62 C 0.1889(11) 1.3025(8) 0.9009(4)
H58 H 0.1455 1.3511 0.9300
H59 H 0.1235 1.2899 0.8828
H60 H 0.2299 1.3488 0.8730
C63 C 0.2371(11) 1.0955(8) 0.9694(4)
H61 H 0.3098 1.0157 0.9851
H62 H 0.1754 1.0781 0.9513
H63 H 0.1910 1.1406 0.9993
C64 C 0.3872(8) 1.2006(10) 0.9604(4)
H64 H 0.4568 1.1193 0.9769
H65 H 0.3369 1.2448 0.9900
H66 H 0.4270 1.2522 0.9353
O1 O 0.0050(3) 0.9443(3) 0.45542(12)
H76 H 0.0032 0.9948 0.4203
H77 H 0.0861 0.8763 0.4598
O2 O 0.1881(3) 1.1535(3) 0.54605(13)
H79 H 0.2494 1.1222 0.5183
H80 H 0.1069 1.1628 0.5351
C65? C 0.1468(8) 1.2502(11) 0.9150(4)
H67? H 0.1343 1.2951 0.8760
H68? H 0.1073 1.3113 0.9395
H69? H 0.1044 1.1915 0.9221
C66? C 0.3171(11) 1.1061(9) 0.9861(3)
H70? H 0.4123 1.0603 0.9920
H71? H 0.2766 1.0459 0.9939
H72? H 0.2786 1.1660 1.0112
C67? C 0.3510(10) 1.2808(9) 0.9202(4)
H73? H 0.3383 1.3309 0.8820
H74? H 0.4454 1.2380 0.9283
H75? H 0.3053 1.3367 0.9464
H78? H -0.0052 0.9914 0.4820
loop_
_geom_bond_atom_site_label_1
_geom_bond_atom_site_label_2
_geom_bond_site_symmetry_1
_geom_bond_site_symmetry_2
N1 C1 1_555 1_555
N2 H1 1_555 1_555
N3 C4 1_555 1_555
N4 C4 1_555 1_555
N5 C10 1_555 1_555
C1 H2 1_555 1_555
C2 N2 1_555 1_555
H3 C2 1_555 1_555
C3 N1 1_555 1_555
C4 C3 1_555 1_555
C5 N3 1_555 1_555
H4 C5 1_555 1_555
C6 N4 1_555 1_555
H5 C6 1_555 1_555
C7 N4 1_555 1_555
C8 C7 1_555 1_555
H6 C8 1_555 1_555
C9 C8 1_555 1_555
H7 C9 1_555 1_555
C10 C9 1_555 1_555
C11 C10 1_555 1_555
H8 C11 1_555 1_555
C12 C7 1_555 1_555
H9 C12 1_555 1_555
C13 N5 1_555 1_555
C14 C13 1_555 1_555
H10 C14 1_555 1_555
C15 C14 1_555 1_555
H11 C15 1_555 1_555
C16 C15 1_555 1_555
C17 C16 1_555 1_555
H12 C17 1_555 1_555
C18 C13 1_555 1_555
C19 C18 1_555 1_555
C20 C19 1_555 1_555
H13 C20 1_555 1_555
C21 C20 1_555 1_555
C22 C21 1_555 1_555
H14 C22 1_555 1_555
C23 C22 1_555 1_555
H15 C23 1_555 1_555
C24 N5 1_555 1_555
C25 C16 1_555 1_555
C26 C25 1_555 1_555
H16 C26 1_555 1_555
H17 C26 1_555 1_555
H18 C26 1_555 1_555
C27 C25 1_555 1_555
H19 C27 1_555 1_555
H20 C27 1_555 1_555
H21 C27 1_555 1_555
C28 C25 1_555 1_555
H22 C28 1_555 1_555
H23 C28 1_555 1_555
H24 C28 1_555 1_555
C29 C21 1_555 1_555
C30 C29 1_555 1_555
H25 C30 1_555 1_555
H26 C30 1_555 1_555
H27 C30 1_555 1_555
C31 C29 1_555 1_555
H28 C31 1_555 1_555
H29 C31 1_555 1_555
H30 C31 1_555 1_555
C32 C29 1_555 1_555
H31 C32 1_555 1_555
H32 C32 1_555 1_555
H33 C32 1_555 1_555
N6 C33 1_555 1_555
N7 H34 1_555 1_555
N8 C36 1_555 1_555
N9 C36 1_555 1_555
N10 C42 1_555 1_555
C33 H35 1_555 1_555
C34 N7 1_555 1_555
H36 C34 1_555 1_555
C35 N6 1_555 1_555
C36 C35 1_555 1_555
C37 N8 1_555 1_555
H37 C37 1_555 1_555
C38 N9 1_555 1_555
H38 C38 1_555 1_555
C39 N9 1_555 1_555
C40 C39 1_555 1_555
H39 C40 1_555 1_555
C41 C40 1_555 1_555
H40 C41 1_555 1_555
C42 C41 1_555 1_555
C43 C42 1_555 1_555
H41 C43 1_555 1_555
C44 C39 1_555 1_555
H42 C44 1_555 1_555
C45 N10 1_555 1_555
C46 C45 1_555 1_555
H43 C46 1_555 1_555
C47 C46 1_555 1_555
H44 C47 1_555 1_555
C48 C47 1_555 1_555
C49 C48 1_555 1_555
H45 C49 1_555 1_555
C50 C45 1_555 1_555
C51 C50 1_555 1_555
C52 C51 1_555 1_555
H46 C52 1_555 1_555
C53 C52 1_555 1_555
C54 C53 1_555 1_555
H47 C54 1_555 1_555
C55 C54 1_555 1_555
H48 C55 1_555 1_555
C56 N10 1_555 1_555
C57 C53 1_555 1_555
C58 C57 1_555 1_555
H49 C58 1_555 1_555
H50 C58 1_555 1_555
H51 C58 1_555 1_555
C59 C57 1_555 1_555
H52 C59 1_555 1_555
H53 C59 1_555 1_555
H54 C59 1_555 1_555
C60 C57 1_555 1_555
H55 C60 1_555 1_555
H56 C60 1_555 1_555
H57 C60 1_555 1_555
C61 C48 1_555 1_555
C62 C61 1_555 1_555
H58 C62 1_555 1_555
H59 C62 1_555 1_555
H60 C62 1_555 1_555
C63 C61 1_555 1_555
H61 C63 1_555 1_555
H62 C63 1_555 1_555
H63 C63 1_555 1_555
C64 C61 1_555 1_555
H64 C64 1_555 1_555
H65 C64 1_555 1_555
H66 C64 1_555 1_555
O1 H76 1_555 1_555
H77 O1 1_555 1_555
O2 H79 1_555 1_555
H80 O2 1_555 1_555
N2 C3 1_555 1_555
C1 C2 1_555 1_555
C5 C6 1_555 1_555
C11 C12 1_555 1_555
C17 C18 1_555 1_555
C19 C24 1_555 1_555
C23 C24 1_555 1_555
N7 C35 1_555 1_555
C33 C34 1_555 1_555
C37 C38 1_555 1_555
C43 C44 1_555 1_555
C49 C50 1_555 1_555
C51 C56 1_555 1_555
C55 C56 1_555 1_555

#END
