
#######################################################################
#
#                 Cambridge Crystallographic Data Centre
#                                CCDC 
#
#######################################################################
#
# If this CIF has been generated from an entry in the Cambridge 
# Structural Database, then it will include bibliographic, chemical, 
# crystal, experimental, refinement or atomic coordinate data resulting 
# from the CCDC's data processing and validation procedures.
#
#######################################################################

data_FEWLOK
_chemical_formula_moiety         'C44 H64 B2 Mg2 N6 O8,2(C6 H6)'
_chemical_name_systematic        
'bis(\m~2~-Methanolato)-bis(tris(4,4-dimethyl-4,5-dihydro-1,3-oxazol-2-yl)(phenyl)borate)-di-magnesium(ii) benzene solvate'
_symmetry_cell_setting           monoclinic
_symmetry_space_group_name_H-M   'C 2/c'
_symmetry_Int_Tables_number      15
_space_group_name_Hall           '-C 2yn'
loop_
_symmetry_equiv_pos_site_id
_symmetry_equiv_pos_as_xyz
1 x,y,z
2 -x,y,1/2-z
3 1/2+x,1/2+y,z
4 1/2-x,1/2+y,1/2-z
5 -x,-y,-z
6 x,-y,1/2+z
7 1/2-x,1/2-y,-z
8 1/2+x,1/2-y,1/2+z
_cell_length_a                   9.500(2)
_cell_length_b                   26.648(6)
_cell_length_c                   22.844(5)
_cell_angle_alpha                90
_cell_angle_beta                 97.235(3)
_cell_angle_gamma                90
_cell_volume                     5737.05
_exptl_crystal_colour            colorless
_exptl_crystal_description       prism
_cell_formula_units_Z            4
loop_
_atom_site_label
_atom_site_type_symbol
_atom_site_fract_x
_atom_site_fract_y
_atom_site_fract_z
Mg1 Mg 0.53646(4) 0.85285(15) 0.318317(16)
B1 B 0.54042(15) 0.85561(5) 0.46200(6)
C1 C 0.65688(16) 0.98361(5) 0.35005(6)
H1 H 0.7226 0.976 0.3855
H2 H 0.6634 1.0193 0.3406
H3 H 0.6818 0.9635 0.317
C2 C 0.50562(14) 0.97126(5) 0.36112(5)
C3 C 0.39467(16) 0.98695(5) 0.31076(6)
H4 H 0.4078 0.9677 0.2753
H5 H 0.4048 1.0228 0.3028
H6 H 0.2997 0.9805 0.3216
C4 C 0.47321(17) 0.99225(5) 0.42025(5)
H7 H 0.5337 1.0217 0.4322
H8 H 0.3723 1.0022 0.4182
C5 C 0.50897(13) 0.90868(4) 0.42770(5)
C6 C 0.49104(17) 0.71199(6) 0.36483(7)
H9 H 0.5432 0.719 0.3314
H10 H 0.4526 0.6778 0.3613
H11 H 0.5553 0.7151 0.4017
C7 C 0.36982(14) 0.74938(5) 0.36490(5)
C8 C 0.26644(17) 0.74503(6) 0.30863(6)
H12 H 0.1926 0.7707 0.3086
H13 H 0.2226 0.7117 0.3067
H14 H 0.3175 0.7499 0.2744
C9 C 0.29745(15) 0.74424(5) 0.42081(6)
H15 H 0.1953 0.7526 0.4128
H16 H 0.3075 0.7097 0.4368
C10 C 0.44025(13) 0.81199(4) 0.42817(5)
C11 C 0.87080(17) 0.77305(6) 0.34934(7)
H17 H 0.8006 0.7481 0.358
H18 H 0.9648 0.7574 0.3526
H19 H 0.8455 0.7859 0.3092
C12 C 0.87307(14) 0.81603(6) 0.39299(6)
C13 C 0.97567(17) 0.85718(7) 0.38030(7)
H20 H 0.948 0.8704 0.3405
H21 H 1.0719 0.8434 0.383
H22 H 0.9733 0.8843 0.4092
C14 C 0.90522(17) 0.79728(8) 0.45707(7)
H23 H 0.9027 0.7602 0.4586
H24 H 0.9998 0.8089 0.4751
C15 C 0.69527(14) 0.83830(5) 0.44475(5)
C16 C 0.52047(16) 0.86139(5) 0.53094(5)
C17 C 0.6302(2) 0.86236(6) 0.57789(6)
H25 H 0.7253 0.8578 0.5701
C18 C 0.6030(3) 0.86987(7) 0.63608(7)
H26 H 0.6797 0.8701 0.6671
C19 C 0.4675(3) 0.87692(6) 0.64883(7)
H27 H 0.4498 0.8817 0.6885
C20 C 0.3570(2) 0.87699(6) 0.60355(7)
H28 H 0.2626 0.8823 0.6118
C21 C 0.38357(17) 0.86926(6) 0.54565(6)
H29 H 0.306 0.8693 0.515
C22 C 0.76462(14) 0.87096(6) 0.23300(6)
H30 H 0.7957 0.9007 0.2564
H31 H 0.7577 0.8792 0.1909
H32 H 0.8335 0.8438 0.2421
N1 N 0.50003(11) 0.91597(4) 0.37173(4)
N2 N 0.43417(11) 0.80047(4) 0.37319(4)
N3 N 0.72754(11) 0.83755(4) 0.39187(5)
O1 O 0.50552(11) 0.95066(3) 0.46120(4)
O2 O 0.37190(10) 0.78001(3) 0.46150(4)
O3 O 0.79418(11) 0.81875(4) 0.48715(4)
O4 O 0.63110(9) 0.85549(3) 0.24671(4)
Mg1A Mg 0.46354(4) 0.85285(15) 0.181683(16)
B1A B 0.45958(15) 0.85561(5) 0.03800(6)
C1A C 0.34312(16) 0.98361(5) 0.14995(6)
H1A H 0.2774 0.976 0.1145
H2A H 0.3366 1.0193 0.1594
H3A H 0.3182 0.9635 0.183
C2A C 0.49438(14) 0.97126(5) 0.13888(5)
C3A C 0.60533(16) 0.98695(5) 0.18924(6)
H4A H 0.5922 0.9677 0.2247
H5A H 0.5952 1.0228 0.1972
H6A H 0.7003 0.9805 0.1784
C4A C 0.52679(17) 0.99225(5) 0.07975(5)
H7A H 0.4663 1.0217 0.0678
H8A H 0.6277 1.0022 0.0818
C5A C 0.49103(13) 0.90868(4) 0.07230(5)
C6A C 0.50896(17) 0.71199(6) 0.13517(7)
H9A H 0.4568 0.719 0.1686
H10A H 0.5474 0.6778 0.1387
H11A H 0.4447 0.7151 0.0983
C7A C 0.63018(14) 0.74938(5) 0.13510(5)
C8A C 0.73356(17) 0.74503(6) 0.19137(6)
H12A H 0.8074 0.7707 0.1914
H13A H 0.7774 0.7117 0.1933
H14A H 0.6825 0.7499 0.2256
C9A C 0.70255(15) 0.74424(5) 0.07919(6)
H15A H 0.8047 0.7526 0.0872
H16A H 0.6925 0.7097 0.0632
C10A C 0.55975(13) 0.81199(4) 0.07183(5)
C11A C 0.12920(17) 0.77305(6) 0.15066(7)
H17A H 0.1994 0.7481 0.142
H18A H 0.0352 0.7574 0.1474
H19A H 0.1545 0.7859 0.1908
C12A C 0.12693(14) 0.81603(6) 0.10701(6)
C13A C 0.02433(17) 0.85718(7) 0.11970(7)
H20A H 0.052 0.8704 0.1595
H21A H -0.0719 0.8434 0.117
H22A H 0.0267 0.8843 0.0908
C14A C 0.09478(17) 0.79728(8) 0.04293(7)
H23A H 0.0973 0.7602 0.0414
H24A H 0.0002 0.8089 0.0249
C15A C 0.30473(14) 0.83830(5) 0.05525(5)
C16A C 0.47953(16) 0.86139(5) -0.03094(5)
C17A C 0.3698(2) 0.86236(6) -0.07789(6)
H25A H 0.2747 0.8578 -0.0701
C18A C 0.3970(3) 0.86987(7) -0.13608(7)
H26A H 0.3203 0.8701 -0.1671
C19A C 0.5325(3) 0.87692(6) -0.14883(7)
H27A H 0.5502 0.8817 -0.1885
C20A C 0.6430(2) 0.87699(6) -0.10355(7)
H28A H 0.7374 0.8823 -0.1118
C21A C 0.61643(17) 0.86926(6) -0.04565(6)
H29A H 0.694 0.8693 -0.015
C22A C 0.23538(14) 0.87096(6) 0.26700(6)
H30A H 0.2043 0.9007 0.2436
H31A H 0.2423 0.8792 0.3091
H32A H 0.1665 0.8438 0.2579
N1A N 0.49997(11) 0.91597(4) 0.12827(4)
N2A N 0.56583(11) 0.80047(4) 0.12681(4)
N3A N 0.27246(11) 0.83755(4) 0.10813(5)
O1A O 0.49448(11) 0.95066(3) 0.03880(4)
O2A O 0.62810(10) 0.78001(3) 0.03850(4)
O3A O 0.20582(11) 0.81875(4) 0.01285(4)
O4A O 0.36890(9) 0.85549(3) 0.25329(4)
C23 C 1.00000 1.00661(15) 0.75000
H33 H 1.00000 1.0423 0.750
C24 C 0.9991(3) 0.98058(13) 0.80189(19)
H34 H 0.9982 0.9983 0.8379
C25 C 0.9994(5) 0.93090(14) 0.80174(18)
H35 H 0.9992 0.9128 0.8375
C26 C 1.00000 0.90630(17) 0.75000
H36 H 1.00000 0.8707 0.750
C24A C 1.0009(3) 0.98058(13) 0.69811(19)
H34A H 1.0018 0.9983 0.6621
C25A C 1.0006(5) 0.93090(14) 0.69826(18)
H35A H 1.0008 0.9128 0.6625
C27 C 0.9791(2) 0.95038(8) 0.98604(9)
H37 H 0.9648 0.9159 0.9765
C28 C 0.8676(2) 0.97896(9) 0.99973(9)
H38 H 0.7764 0.9643 0.9994
C29 C 0.8878(2) 1.02857(9) 1.01388(9)
H39 H 0.811 1.0484 1.0236
C27D C 1.0209(2) 1.04962(8) 1.01396(9)
H37D H 1.0352 1.0841 1.0235
C28D C 1.1324(2) 1.02104(9) 1.00027(9)
H38D H 1.2236 1.0357 1.0006
C29D C 1.1122(2) 0.97143(9) 0.98612(9)
H39D H 1.189 0.9516 0.9764
loop_
_geom_bond_atom_site_label_1
_geom_bond_atom_site_label_2
_geom_bond_site_symmetry_1
_geom_bond_site_symmetry_2
Mg1 N1 1_555 1_555
B1 C5 1_555 1_555
C1 H1 1_555 1_555
H2 C1 1_555 1_555
H3 C1 1_555 1_555
C2 C1 1_555 1_555
C3 C2 1_555 1_555
H4 C3 1_555 1_555
H5 C3 1_555 1_555
H6 C3 1_555 1_555
C4 C2 1_555 1_555
H7 C4 1_555 1_555
H8 C4 1_555 1_555
C5 N1 1_555 1_555
C6 H9 1_555 1_555
H10 C6 1_555 1_555
H11 C6 1_555 1_555
C7 C6 1_555 1_555
C8 C7 1_555 1_555
H12 C8 1_555 1_555
H13 C8 1_555 1_555
H14 C8 1_555 1_555
C9 C7 1_555 1_555
H15 C9 1_555 1_555
H16 C9 1_555 1_555
C10 B1 1_555 1_555
C11 H17 1_555 1_555
H18 C11 1_555 1_555
H19 C11 1_555 1_555
C12 C11 1_555 1_555
C13 C12 1_555 1_555
H20 C13 1_555 1_555
H21 C13 1_555 1_555
H22 C13 1_555 1_555
C14 C12 1_555 1_555
H23 C14 1_555 1_555
H24 C14 1_555 1_555
C15 B1 1_555 1_555
C16 B1 1_555 1_555
C17 C16 1_555 1_555
H25 C17 1_555 1_555
C18 C17 1_555 1_555
H26 C18 1_555 1_555
C19 C18 1_555 1_555
H27 C19 1_555 1_555
C20 C19 1_555 1_555
H28 C20 1_555 1_555
C21 C16 1_555 1_555
H29 C21 1_555 1_555
C22 H30 1_555 1_555
H31 C22 1_555 1_555
H32 C22 1_555 1_555
N1 C2 1_555 1_555
N2 Mg1 1_555 1_555
N3 Mg1 1_555 1_555
O1 C4 1_555 1_555
O2 C9 1_555 1_555
O3 C14 1_555 1_555
O4 Mg1 1_555 1_555
C23 H33 1_555 1_555
C24 C23 1_555 1_555
H34 C24 1_555 1_555
C25 C24 1_555 1_555
H35 C25 1_555 1_555
C26 C25 1_555 1_555
H36 C26 1_555 1_555
C27 H37 1_555 1_555
C28 C27 1_555 1_555
H38 C28 1_555 1_555
C29 C28 1_555 1_555
H39 C29 1_555 1_555
Mg1A O4 1_555 1_555
B1A C5A 1_555 1_555
C1A H1A 1_555 1_555
H2A C1A 1_555 1_555
H3A C1A 1_555 1_555
C2A C1A 1_555 1_555
C3A C2A 1_555 1_555
H4A C3A 1_555 1_555
H5A C3A 1_555 1_555
H6A C3A 1_555 1_555
C4A C2A 1_555 1_555
H7A C4A 1_555 1_555
H8A C4A 1_555 1_555
C5A N1A 1_555 1_555
C6A H9A 1_555 1_555
H10A C6A 1_555 1_555
H11A C6A 1_555 1_555
C7A C6A 1_555 1_555
C8A C7A 1_555 1_555
H12A C8A 1_555 1_555
H13A C8A 1_555 1_555
H14A C8A 1_555 1_555
C9A C7A 1_555 1_555
H15A C9A 1_555 1_555
H16A C9A 1_555 1_555
C10A B1A 1_555 1_555
C11A H17A 1_555 1_555
H18A C11A 1_555 1_555
H19A C11A 1_555 1_555
C12A C11A 1_555 1_555
C13A C12A 1_555 1_555
H20A C13A 1_555 1_555
H21A C13A 1_555 1_555
H22A C13A 1_555 1_555
C14A C12A 1_555 1_555
H23A C14A 1_555 1_555
H24A C14A 1_555 1_555
C15A B1A 1_555 1_555
C16A B1A 1_555 1_555
C17A C16A 1_555 1_555
H25A C17A 1_555 1_555
C18A C17A 1_555 1_555
H26A C18A 1_555 1_555
C19A C18A 1_555 1_555
H27A C19A 1_555 1_555
C20A C19A 1_555 1_555
H28A C20A 1_555 1_555
C21A C16A 1_555 1_555
H29A C21A 1_555 1_555
C22A H30A 1_555 1_555
H31A C22A 1_555 1_555
H32A C22A 1_555 1_555
N1A Mg1A 1_555 1_555
N2A Mg1A 1_555 1_555
N3A Mg1A 1_555 1_555
O1A C4A 1_555 1_555
O2A C9A 1_555 1_555
O3A C14A 1_555 1_555
O4A Mg1 1_555 1_555
C24A C23 1_555 1_555
H34A C24A 1_555 1_555
C25A C26 1_555 1_555
H35A C25A 1_555 1_555
C27D C29 1_555 1_555
H37D C27D 1_555 1_555
C28D C27D 1_555 1_555
H38D C28D 1_555 1_555
C29D C27 1_555 1_555
H39D C29D 1_555 1_555
C5 O1 1_555 1_555
C7 N2 1_555 1_555
C10 N2 1_555 1_555
C10 O2 1_555 1_555
C12 N3 1_555 1_555
C15 N3 1_555 1_555
C15 O3 1_555 1_555
C20 C21 1_555 1_555
C22 O4 1_555 1_555
Mg1A O4A 1_555 1_555
C2A N1A 1_555 1_555
C5A O1A 1_555 1_555
C7A N2A 1_555 1_555
C10A N2A 1_555 1_555
C10A O2A 1_555 1_555
C12A N3A 1_555 1_555
C15A N3A 1_555 1_555
C15A O3A 1_555 1_555
C20A C21A 1_555 1_555
C22A O4A 1_555 1_555
C24A C25A 1_555 1_555
C28D C29D 1_555 1_555

#END
