
#######################################################################
#
#                 Cambridge Crystallographic Data Centre
#                                CCDC 
#
#######################################################################
#
# If this CIF has been generated from an entry in the Cambridge 
# Structural Database, then it will include bibliographic, chemical, 
# crystal, experimental, refinement or atomic coordinate data resulting 
# from the CCDC's data processing and validation procedures.
#
#######################################################################

data_FEWMUR
_chemical_formula_moiety         'C9 H15 I1 O2'
_chemical_name_systematic        
5-(1-Iodo-2,2-dimethylpropyl)dihydrofuran-2(3H)-one
_symmetry_cell_setting           orthorhombic
_symmetry_space_group_name_H-M   'P 21 21 21'
_symmetry_Int_Tables_number      19
_space_group_name_Hall           'P 2ac 2ab'
loop_
_symmetry_equiv_pos_site_id
_symmetry_equiv_pos_as_xyz
1 x,y,z
2 1/2-x,-y,1/2+z
3 1/2+x,1/2-y,-z
4 -x,1/2+y,1/2-z
_cell_length_a                   6.173(2)
_cell_length_b                   10.624(3)
_cell_length_c                   16.080(4)
_cell_angle_alpha                90
_cell_angle_beta                 90
_cell_angle_gamma                90
_cell_volume                     1054.56
_cell_formula_units_Z            4
loop_
_atom_site_label
_atom_site_type_symbol
_atom_site_fract_x
_atom_site_fract_y
_atom_site_fract_z
C1 C 0.740(2) 0.6164(12) 0.5226(7)
C2 C 0.6293(18) 0.5721(12) 0.4434(7)
H1 H 0.6308 0.6379 0.4016
H2 H 0.7018 0.4984 0.4211
C3 C 0.400(2) 0.5407(12) 0.4683(7)
H3 H 0.3637 0.4555 0.4517
H4 H 0.2988 0.5983 0.4423
C4 C 0.3926(17) 0.5540(10) 0.5647(6)
H5 H 0.2827 0.6169 0.5791
C5 C 0.3412(17) 0.4307(11) 0.6127(7)
H6 H 0.2058 0.3993 0.5885
C6 C 0.2997(17) 0.4375(11) 0.7068(7)
C7 C 0.5050(19) 0.4587(13) 0.7584(7)
H7 H 0.5982 0.3868 0.7533
H8 H 0.4664 0.4704 0.8157
H9 H 0.5790 0.5322 0.7385
C8 C 0.1413(18) 0.5455(13) 0.7233(8)
H10 H 0.2130 0.6245 0.7140
H11 H 0.0918 0.5415 0.7799
H12 H 0.0196 0.5384 0.6864
C9 C 0.1864(19) 0.3155(10) 0.7340(7)
H13 H 0.0513 0.3073 0.7049
H14 H 0.1598 0.3181 0.7927
H15 H 0.2774 0.2448 0.7212
O1 O 0.6067(12) 0.6033(6) 0.5887(4)
O2 O 0.9197(16) 0.6597(8) 0.5299(5)
I1 I 0.58829(13) 0.29061(7) 0.57920(5)
loop_
_geom_bond_atom_site_label_1
_geom_bond_atom_site_label_2
_geom_bond_site_symmetry_1
_geom_bond_site_symmetry_2
C1 C2 1_555 1_555
C2 H1 1_555 1_555
H2 C2 1_555 1_555
C3 C2 1_555 1_555
H3 C3 1_555 1_555
H4 C3 1_555 1_555
C4 C3 1_555 1_555
H5 C4 1_555 1_555
C5 C4 1_555 1_555
H6 C5 1_555 1_555
C6 C5 1_555 1_555
C7 C6 1_555 1_555
H7 C7 1_555 1_555
H8 C7 1_555 1_555
H9 C7 1_555 1_555
C8 C6 1_555 1_555
H10 C8 1_555 1_555
H11 C8 1_555 1_555
H12 C8 1_555 1_555
C9 C6 1_555 1_555
H13 C9 1_555 1_555
H14 C9 1_555 1_555
H15 C9 1_555 1_555
O1 C1 1_555 1_555
O2 C1 1_555 1_555
I1 C5 1_555 1_555
C4 O1 1_555 1_555

#END
