
#######################################################################
#
#                 Cambridge Crystallographic Data Centre
#                                CCDC 
#
#######################################################################
#
# If this CIF has been generated from an entry in the Cambridge 
# Structural Database, then it will include bibliographic, chemical, 
# crystal, experimental, refinement or atomic coordinate data resulting 
# from the CCDC's data processing and validation procedures.
#
#######################################################################

data_FEWPIJ
_chemical_formula_moiety         'C21 H26 N2 O2'
_chemical_name_systematic        
'2,12-diazapentacyclo[14.3.1.0^2,14^.0^5,13^.0^6,11^]icosa-5(13),6,8,10-tetraen-17-ylmethyl acetate'
_symmetry_cell_setting           monoclinic
_symmetry_space_group_name_H-M   'P 21/c'
_symmetry_Int_Tables_number      14
_space_group_name_Hall           '-P 2ybc'
loop_
_symmetry_equiv_pos_site_id
_symmetry_equiv_pos_as_xyz
1 x,y,z
2 -x,1/2+y,1/2-z
3 -x,-y,-z
4 x,1/2-y,1/2+z
_cell_length_a                   8.9500(13)
_cell_length_b                   17.581(3)
_cell_length_c                   11.5200(16)
_cell_angle_alpha                90
_cell_angle_beta                 98.297(3)
_cell_angle_gamma                90
_cell_volume                     1793.7
_exptl_crystal_colour            colorless
_exptl_crystal_description       prismatic
_cell_formula_units_Z            4
loop_
_atom_site_label
_atom_site_type_symbol
_atom_site_fract_x
_atom_site_fract_y
_atom_site_fract_z
N1 N 0.24007(16) 0.54187(8) 0.49450(12)
N2 N 0.37831(15) 0.43871(7) 0.25021(11)
O1 O 0.12717(17) 0.05257(7) 0.17124(12)
O2 O 0.09782(15) 0.15618(6) 0.27573(10)
C1 C 0.23086(17) 0.61950(9) 0.49766(13)
C2 C 0.17923(19) 0.66729(10) 0.57960(15)
H1 H 0.1413 0.6477 0.6444
C3 C 0.1861(2) 0.74428(10) 0.56161(16)
H2 H 0.1525 0.7774 0.6153
C4 C 0.2424(2) 0.77374(10) 0.46442(16)
H3 H 0.2459 0.8262 0.4545
C5 C 0.2929(2) 0.72689(9) 0.38304(15)
H4 H 0.3294 0.7474 0.3182
C6 C 0.28889(19) 0.64816(9) 0.39842(13)
C7 C 0.33378(19) 0.58357(9) 0.33658(13)
C8 C 0.30292(19) 0.52076(9) 0.39703(13)
C9 C 0.33979(19) 0.44080(8) 0.36991(13)
H5 H 0.4277 0.4244 0.4249
C10 C 0.4816(2) 0.49921(10) 0.22628(16)
H6 H 0.5122 0.4909 0.1499
H7 H 0.5714 0.4975 0.2845
C11 C 0.4092(2) 0.57696(10) 0.22867(15)
H8 H 0.4855 0.6162 0.2292
H9 H 0.3352 0.5838 0.1592
C12 C 0.21053(19) 0.38533(9) 0.37646(13)
H10 H 0.1193 0.4054 0.3311
H11 H 0.1930 0.3810 0.4574
C13 C 0.24250(19) 0.30516(9) 0.32963(13)
H12 H 0.2283 0.2674 0.3897
C14 C 0.40637(19) 0.30255(9) 0.30814(15)
H13 H 0.4299 0.2525 0.2801
H14 H 0.4730 0.3125 0.3806
C15 C 0.42896(19) 0.36259(9) 0.21696(15)
H15 H 0.5362 0.3649 0.2082
C16 C 0.3373(2) 0.33968(10) 0.10010(14)
H16 H 0.3514 0.3770 0.0406
H17 H 0.3723 0.2909 0.0755
C17 C 0.1708(2) 0.33441(9) 0.11233(13)
H18 H 0.1164 0.3136 0.0404
H19 H 0.1325 0.3853 0.1218
C18 C 0.13737(19) 0.28517(9) 0.21578(13)
H20 H 0.0339 0.2965 0.2288
C19 C 0.1422(2) 0.20243(9) 0.18216(14)
H21 H 0.0741 0.1934 0.1100
H22 H 0.2436 0.1889 0.1691
C20 C 0.0934(2) 0.08163(10) 0.25777(15)
C21 C 0.0402(3) 0.03964(11) 0.35554(18)
H23 H -0.0615 0.0226 0.3317
H24 H 0.0432 0.0726 0.4223
H25 H 0.1044 -0.0035 0.3760
H26 H 0.208(2) 0.5109(10) 0.5438(15)
loop_
_geom_bond_atom_site_label_1
_geom_bond_atom_site_label_2
_geom_bond_site_symmetry_1
_geom_bond_site_symmetry_2
N1 C1 1_555 1_555
N2 C9 1_555 1_555
O1 C20 1_555 1_555
O2 C19 1_555 1_555
C1 C2 1_555 1_555
C2 H1 1_555 1_555
C3 C2 1_555 1_555
H2 C3 1_555 1_555
C4 C3 1_555 1_555
H3 C4 1_555 1_555
C5 C4 1_555 1_555
H4 C5 1_555 1_555
C6 C1 1_555 1_555
C7 C6 1_555 1_555
C8 N1 1_555 1_555
C9 C8 1_555 1_555
H5 C9 1_555 1_555
C10 N2 1_555 1_555
H6 C10 1_555 1_555
H7 C10 1_555 1_555
C11 C7 1_555 1_555
H8 C11 1_555 1_555
H9 C11 1_555 1_555
C12 C9 1_555 1_555
H10 C12 1_555 1_555
H11 C12 1_555 1_555
C13 C12 1_555 1_555
H12 C13 1_555 1_555
C14 C13 1_555 1_555
H13 C14 1_555 1_555
H14 C14 1_555 1_555
C15 N2 1_555 1_555
H15 C15 1_555 1_555
C16 C15 1_555 1_555
H16 C16 1_555 1_555
H17 C16 1_555 1_555
C17 C16 1_555 1_555
H18 C17 1_555 1_555
H19 C17 1_555 1_555
C18 C13 1_555 1_555
H20 C18 1_555 1_555
C19 C18 1_555 1_555
H21 C19 1_555 1_555
H22 C19 1_555 1_555
C20 O2 1_555 1_555
C21 C20 1_555 1_555
H23 C21 1_555 1_555
H24 C21 1_555 1_555
H25 C21 1_555 1_555
H26 N1 1_555 1_555
C5 C6 1_555 1_555
C7 C8 1_555 1_555
C10 C11 1_555 1_555
C14 C15 1_555 1_555
C17 C18 1_555 1_555

#END
