
#######################################################################
#
#                 Cambridge Crystallographic Data Centre
#                                CCDC 
#
#######################################################################
#
# If this CIF has been generated from an entry in the Cambridge 
# Structural Database, then it will include bibliographic, chemical, 
# crystal, experimental, refinement or atomic coordinate data resulting 
# from the CCDC's data processing and validation procedures.
#
#######################################################################

data_FEWPII
_chemical_formula_moiety         'C25 H20 Cl1 F3 N2 O2'
_chemical_name_systematic        
8-Chloro-5-(4-methoxybenzyl)-2-phenyl-9b-(trifluoromethyl)-1,2,5,9b-tetrahydro-4H-azeto[1,2-c]quinazolin-4-one
_symmetry_cell_setting           orthorhombic
_symmetry_space_group_name_H-M   'P 21 21 21'
_symmetry_Int_Tables_number      19
_space_group_name_Hall           'P 2ac 2ab'
loop_
_symmetry_equiv_pos_site_id
_symmetry_equiv_pos_as_xyz
1 x,y,z
2 1/2-x,-y,1/2+z
3 -x,1/2+y,1/2-z
4 1/2+x,1/2-y,-z
_cell_length_a                   8.9384(10)
_cell_length_b                   10.4297(10)
_cell_length_c                   24.047(3)
_cell_angle_alpha                90
_cell_angle_beta                 90
_cell_angle_gamma                90
_cell_volume                     2241.78
_exptl_crystal_colour            colorless
_exptl_crystal_description       BLOCK
_cell_formula_units_Z            4
loop_
_atom_site_label
_atom_site_type_symbol
_atom_site_fract_x
_atom_site_fract_y
_atom_site_fract_z
C1 C 0.6890(3) 0.22868(19) 0.85182(9)
C2 C 0.7718(3) 0.2847(2) 0.80970(11)
H1 H 0.7591 0.2582 0.7731
C3 C 0.8733(3) 0.3803(3) 0.82230(12)
C4 C 0.8916(3) 0.4212(2) 0.87642(12)
H2 H 0.9577 0.4875 0.8843
C5 C 0.8117(3) 0.3636(2) 0.91901(11)
H3 H 0.8255 0.3907 0.9555
C6 C 0.7105(2) 0.26506(18) 0.90737(8)
C7 C 0.5730(2) 0.07902(17) 0.94275(8)
C8 C 0.5988(3) -0.07046(17) 0.86009(9)
H4 H 0.6981 -0.0926 0.8744
C9 C 0.6119(3) 0.00932(19) 0.80585(10)
H5 H 0.5389 -0.0133 0.7777
H6 H 0.7121 0.0119 0.7904
C10 C 0.5696(3) 0.13013(17) 0.84043(8)
C11 C 0.4254(3) 0.19563(19) 0.82183(9)
C12 C 0.4993(3) -0.18663(18) 0.85884(9)
C13 C 0.3464(3) -0.1813(2) 0.86574(12)
H7 H 0.3009 -0.1036 0.8743
C14 C 0.2598(4) -0.2906(3) 0.85996(14)
H8 H 0.1565 -0.2858 0.8642
C15 C 0.3269(4) -0.4072(2) 0.84791(12)
H9 H 0.2687 -0.4805 0.8438
C16 C 0.4782(3) -0.4142(2) 0.84213(11)
H10 H 0.5232 -0.4927 0.8346
C17 C 0.5653(3) -0.30532(19) 0.84735(9)
H11 H 0.6686 -0.3110 0.8432
C18 C 0.6481(3) 0.2455(2) 1.00811(9)
H12 H 0.7538 0.2570 1.0157
H13 H 0.6113 0.1791 1.0328
C19 C 0.5668(2) 0.37000(18) 1.02104(8)
C20 C 0.4919(3) 0.4426(2) 0.98225(9)
H14 H 0.4865 0.4132 0.9458
C21 C 0.4244(3) 0.5579(2) 0.99566(9)
H15 H 0.3748 0.6051 0.9685
C22 C 0.4310(3) 0.60249(19) 1.04948(9)
C23 C 0.5011(3) 0.5294(2) 1.08988(10)
H16 H 0.5027 0.5577 1.1266
C24 C 0.5686(3) 0.4147(2) 1.07589(9)
H17 H 0.6159 0.3665 1.1033
C25 C 0.2849(4) 0.7878(2) 1.02709(13)
H18 H 0.2065 0.7345 1.0126
H19 H 0.3493 0.8144 0.9973
H20 H 0.2419 0.8619 1.0446
Cl1 Cl 0.97311(12) 0.45383(12) 0.76896(4)
F1 F 0.36853(17) 0.26952(13) 0.86227(6)
F2 F 0.4459(2) 0.27101(14) 0.77771(6)
F3 F 0.31719(19) 0.11241(13) 0.80852(7)
N1 N 0.6300(2) 0.20216(15) 0.95034(7)
N2 N 0.5399(2) 0.04738(14) 0.88807(7)
O1 O 0.5503(2) 0.00483(15) 0.98053(6)
O2 O 0.3699(2) 0.71693(15) 1.06716(7)
loop_
_geom_bond_atom_site_label_1
_geom_bond_atom_site_label_2
_geom_bond_site_symmetry_1
_geom_bond_site_symmetry_2
C1 C2 1_555 1_555
C2 H1 1_555 1_555
C3 C2 1_555 1_555
C4 C3 1_555 1_555
H2 C4 1_555 1_555
C5 C4 1_555 1_555
H3 C5 1_555 1_555
C6 C1 1_555 1_555
C7 N1 1_555 1_555
C8 H4 1_555 1_555
C9 C8 1_555 1_555
H5 C9 1_555 1_555
H6 C9 1_555 1_555
C10 C1 1_555 1_555
C11 C10 1_555 1_555
C12 C8 1_555 1_555
C13 C12 1_555 1_555
H7 C13 1_555 1_555
C14 C13 1_555 1_555
H8 C14 1_555 1_555
C15 C14 1_555 1_555
H9 C15 1_555 1_555
C16 C15 1_555 1_555
H10 C16 1_555 1_555
C17 C12 1_555 1_555
H11 C17 1_555 1_555
C18 H12 1_555 1_555
H13 C18 1_555 1_555
C19 C18 1_555 1_555
C20 C19 1_555 1_555
H14 C20 1_555 1_555
C21 C20 1_555 1_555
H15 C21 1_555 1_555
C22 C21 1_555 1_555
C23 C22 1_555 1_555
H16 C23 1_555 1_555
C24 C19 1_555 1_555
H17 C24 1_555 1_555
C25 H18 1_555 1_555
H19 C25 1_555 1_555
H20 C25 1_555 1_555
Cl1 C3 1_555 1_555
F1 C11 1_555 1_555
F2 C11 1_555 1_555
F3 C11 1_555 1_555
N1 C6 1_555 1_555
N2 C7 1_555 1_555
O1 C7 1_555 1_555
O2 C22 1_555 1_555
C5 C6 1_555 1_555
C8 N2 1_555 1_555
C9 C10 1_555 1_555
C10 N2 1_555 1_555
C16 C17 1_555 1_555
C18 N1 1_555 1_555
C23 C24 1_555 1_555
C25 O2 1_555 1_555

#END
