
#######################################################################
#
#                 Cambridge Crystallographic Data Centre
#                                CCDC 
#
#######################################################################
#
# If this CIF has been generated from an entry in the Cambridge 
# Structural Database, then it will include bibliographic, chemical, 
# crystal, experimental, refinement or atomic coordinate data resulting 
# from the CCDC's data processing and validation procedures.
#
#######################################################################

data_FEWSEI
_chemical_formula_moiety         'C15 H17 N1 O3 S1'
_chemical_name_systematic        
2-[(4-methylphenyl)sulfonyl]-2-azabicyclo[3.3.1]non-7-en-3-one
_symmetry_cell_setting           monoclinic
_symmetry_space_group_name_H-M   'P 21/n'
_symmetry_Int_Tables_number      14
_space_group_name_Hall           '-P 2yn'
loop_
_symmetry_equiv_pos_site_id
_symmetry_equiv_pos_as_xyz
1 x,y,z
2 1/2-x,1/2+y,1/2-z
3 -x,-y,-z
4 1/2+x,1/2-y,1/2+z
_cell_length_a                   8.5646(12)
_cell_length_b                   16.212(2)
_cell_length_c                   10.9045(15)
_cell_angle_alpha                90
_cell_angle_beta                 104.703(2)
_cell_angle_gamma                90
_cell_volume                     1464.5
_exptl_crystal_colour            colorless
_exptl_crystal_description       prismatic
_cell_formula_units_Z            4
loop_
_atom_site_label
_atom_site_type_symbol
_atom_site_fract_x
_atom_site_fract_y
_atom_site_fract_z
S1 S 1.14934(7) 0.20742(4) 0.37101(6)
N1 N 1.0032(2) 0.18235(13) 0.44132(18)
O1 O 1.1625(2) 0.21069(14) 0.63645(17)
O2 O 1.2961(2) 0.16759(12) 0.4332(2)
O3 O 1.0817(2) 0.19051(13) 0.23914(16)
C1 C 1.0328(3) 0.18899(17) 0.5722(2)
C2 C 0.8955(4) 0.1693(2) 0.6309(3)
H1 H 0.8877 0.2144 0.6875
H2 H 0.9261 0.1206 0.6832
C3 C 0.7253(4) 0.15408(19) 0.5458(3)
H3 H 0.6462 0.1800 0.5846
C4 C 0.7104(4) 0.19221(18) 0.4155(3)
H4 H 0.6048 0.1804 0.3603
H5 H 0.7231 0.2516 0.4230
C5 C 0.8396(3) 0.15605(15) 0.3614(2)
H6 H 0.8258 0.1761 0.2745
C6 C 0.8340(3) 0.06479(18) 0.3605(3)
H7 H 0.8795 0.0359 0.3045
C7 C 0.7657(4) 0.02337(19) 0.4377(3)
H8 H 0.7659 -0.0340 0.4343
C8 C 0.6889(5) 0.0642(2) 0.5294(4)
H9 H 0.7252 0.0372 0.6111
H10 H 0.5729 0.0570 0.5009
C9 C 1.1683(3) 0.31475(15) 0.3921(2)
C10 C 1.2982(3) 0.34730(17) 0.4798(2)
H11 H 1.3775 0.3130 0.5279
C11 C 1.3091(4) 0.4319(2) 0.4954(3)
H12 H 1.3972 0.4539 0.5544
C12 C 1.1933(5) 0.48471(19) 0.4262(3)
C13 C 1.0648(4) 0.4498(2) 0.3391(3)
H13 H 0.9856 0.4842 0.2912
C14 C 1.0497(3) 0.36616(19) 0.3205(3)
H14 H 0.9617 0.3443 0.2612
C15 C 1.2044(6) 0.5775(2) 0.4435(5)
H15 H 1.2727 0.5902 0.5257
H16 H 1.0986 0.5997 0.4365
H17 H 1.2490 0.6014 0.3793
loop_
_geom_bond_atom_site_label_1
_geom_bond_atom_site_label_2
_geom_bond_site_symmetry_1
_geom_bond_site_symmetry_2
S1 N1 1_555 1_555
N1 C1 1_555 1_555
O1 C1 1_555 1_555
O2 S1 1_555 1_555
O3 S1 1_555 1_555
C1 C2 1_555 1_555
C2 H1 1_555 1_555
H2 C2 1_555 1_555
C3 C2 1_555 1_555
H3 C3 1_555 1_555
C4 C3 1_555 1_555
H4 C4 1_555 1_555
H5 C4 1_555 1_555
C5 N1 1_555 1_555
H6 C5 1_555 1_555
C6 C5 1_555 1_555
H7 C6 1_555 1_555
C7 C6 1_555 1_555
H8 C7 1_555 1_555
C8 C3 1_555 1_555
H9 C8 1_555 1_555
H10 C8 1_555 1_555
C9 S1 1_555 1_555
C10 C9 1_555 1_555
H11 C10 1_555 1_555
C11 C10 1_555 1_555
H12 C11 1_555 1_555
C12 C11 1_555 1_555
C13 C12 1_555 1_555
H13 C13 1_555 1_555
C14 C9 1_555 1_555
H14 C14 1_555 1_555
C15 C12 1_555 1_555
H15 C15 1_555 1_555
H16 C15 1_555 1_555
H17 C15 1_555 1_555
C4 C5 1_555 1_555
C7 C8 1_555 1_555
C13 C14 1_555 1_555

#END
