
#######################################################################
#
#                 Cambridge Crystallographic Data Centre
#                                CCDC 
#
#######################################################################
#
# If this CIF has been generated from an entry in the Cambridge 
# Structural Database, then it will include bibliographic, chemical, 
# crystal, experimental, refinement or atomic coordinate data resulting 
# from the CCDC's data processing and validation procedures.
#
#######################################################################

data_FEWVOV
_chemical_formula_moiety         'C21 H14 N6'
_chemical_name_systematic        
3-[2,6-bis(pyrazin-2-yl)pyridin-4-yl]-1H-indole
_symmetry_cell_setting           monoclinic
_symmetry_space_group_name_H-M   'P 21/c'
_symmetry_Int_Tables_number      14
_space_group_name_Hall           '-P 2ybc'
loop_
_symmetry_equiv_pos_site_id
_symmetry_equiv_pos_as_xyz
1 x,y,z
2 -x,1/2+y,1/2-z
3 -x,-y,-z
4 x,1/2-y,1/2+z
_cell_length_a                   8.5560(17)
_cell_length_b                   8.9820(18)
_cell_length_c                   22.130(4)
_cell_angle_alpha                90
_cell_angle_beta                 98.28(3)
_cell_angle_gamma                90
_cell_volume                     1682.96
_exptl_crystal_colour            colorless
_exptl_crystal_description       block
_cell_formula_units_Z            4
loop_
_atom_site_label
_atom_site_type_symbol
_atom_site_fract_x
_atom_site_fract_y
_atom_site_fract_z
C1 C 1.03422(15) 0.27853(16) 0.37871(6)
C2 C 1.15461(16) 0.20143(18) 0.35555(6)
H1 H 1.2202 0.1367 0.3820
C3 C 1.08481(17) 0.3086(2) 0.26267(7)
H2 H 1.0992 0.3226 0.2213
C4 C 0.96495(18) 0.38505(19) 0.28541(7)
H3 H 0.8996 0.4499 0.2589
C5 C 1.29758(16) -0.05260(17) 0.66620(7)
H4 H 1.2917 -0.0663 0.7084
C6 C 1.41440(16) -0.12564(17) 0.64057(7)
H5 H 1.4869 -0.1872 0.6658
C7 C 1.20761(15) 0.05372(16) 0.57419(6)
C8 C 1.32527(15) -0.02103(17) 0.54830(6)
H6 H 1.3323 -0.0068 0.5062
C9 C 1.09203(15) 0.15450(16) 0.53679(6)
C10 C 1.00918(15) 0.26218(16) 0.44353(6)
C11 C 0.89131(15) 0.34194(16) 0.46693(6)
H7 H 0.8246 0.4075 0.4413
C12 C 0.97715(15) 0.22973(16) 0.56388(6)
H8 H 0.9706 0.2164 0.6060
C13 C 0.87170(15) 0.32504(16) 0.52825(6)
C14 C 0.74714(15) 0.40481(16) 0.55418(6)
C15 C 0.68268(14) 0.53939(16) 0.53282(6)
H9 H 0.7116 0.5926 0.4990
C16 C 0.66742(14) 0.36347(17) 0.60505(6)
C17 C 0.67148(16) 0.23950(17) 0.64456(6)
H10 H 0.7442 0.1608 0.6416
C18 C 0.56950(17) 0.23335(18) 0.68735(7)
H11 H 0.5737 0.1505 0.7142
C19 C 0.45876(16) 0.34818(19) 0.69195(6)
H12 H 0.3885 0.3407 0.7214
C20 C 0.45158(16) 0.47124(18) 0.65405(6)
H13 H 0.3771 0.5484 0.6569
C21 C 0.55699(15) 0.47885(16) 0.61143(6)
N1 N 0.93776(14) 0.37132(15) 0.34299(6)
N2 N 1.18128(14) 0.21474(17) 0.29804(6)
N3 N 1.10821(12) 0.16745(14) 0.47763(5)
N4 N 1.19234(13) 0.03709(14) 0.63322(5)
N5 N 1.42847(14) -0.11231(15) 0.58137(6)
N6 N 0.57157(13) 0.58462(14) 0.56739(5)
H14 H 0.5176 0.6682 0.5624
loop_
_geom_bond_atom_site_label_1
_geom_bond_atom_site_label_2
_geom_bond_site_symmetry_1
_geom_bond_site_symmetry_2
C1 C2 1_555 1_555
C2 H1 1_555 1_555
C3 H2 1_555 1_555
C4 C3 1_555 1_555
H3 C4 1_555 1_555
C5 H4 1_555 1_555
C6 C5 1_555 1_555
H5 C6 1_555 1_555
C7 C8 1_555 1_555
C8 H6 1_555 1_555
C9 C7 1_555 1_555
C10 C1 1_555 1_555
C11 C10 1_555 1_555
H7 C11 1_555 1_555
C12 C9 1_555 1_555
H8 C12 1_555 1_555
C13 C11 1_555 1_555
C14 C13 1_555 1_555
C15 C14 1_555 1_555
H9 C15 1_555 1_555
C16 C14 1_555 1_555
C17 C16 1_555 1_555
H10 C17 1_555 1_555
C18 C17 1_555 1_555
H11 C18 1_555 1_555
C19 C18 1_555 1_555
H12 C19 1_555 1_555
C20 C19 1_555 1_555
H13 C20 1_555 1_555
C21 C16 1_555 1_555
N1 C1 1_555 1_555
N2 C2 1_555 1_555
N3 C9 1_555 1_555
N4 C5 1_555 1_555
N5 C6 1_555 1_555
N6 C15 1_555 1_555
H14 N6 1_555 1_555
C3 N2 1_555 1_555
C4 N1 1_555 1_555
C7 N4 1_555 1_555
C8 N5 1_555 1_555
C10 N3 1_555 1_555
C12 C13 1_555 1_555
C20 C21 1_555 1_555
C21 N6 1_555 1_555

#END
