
#######################################################################
#
#                 Cambridge Crystallographic Data Centre
#                                CCDC 
#
#######################################################################
#
# If this CIF has been generated from an entry in the Cambridge 
# Structural Database, then it will include bibliographic, chemical, 
# crystal, experimental, refinement or atomic coordinate data resulting 
# from the CCDC's data processing and validation procedures.
#
#######################################################################

data_FEXCOA
_chemical_formula_moiety         'C34 H52 Cl2 N2 O6'
_chemical_name_systematic        
N,N'-Di-n-Butyl-13,27-dichloro-29,30-dimethoxy-3,9,17,23-tetraoxa-6,20-diazatricyclo(23.3.1.1^11,15^)triaconta-1(29),11,13,15(30),25,27-hexaene
_symmetry_cell_setting           triclinic
_symmetry_space_group_name_H-M   'P 1'
_symmetry_Int_Tables_number      1
_space_group_name_Hall           'P 1'
loop_
_symmetry_equiv_pos_site_id
_symmetry_equiv_pos_as_xyz
1 x,y,z
_cell_length_a                   8.909(5)
_cell_length_b                   9.158(5)
_cell_length_c                   11.841(9)
_cell_angle_alpha                73.41(5)
_cell_angle_beta                 76.51(8)
_cell_angle_gamma                80.38(6)
_cell_volume                     895.079
_exptl_crystal_colour            colorless
_cell_formula_units_Z            1
loop_
_atom_site_label
_atom_site_type_symbol
_atom_site_fract_x
_atom_site_fract_y
_atom_site_fract_z
C1 C 0.071(3) 0.155(3) 0.024(2)
C2 C 0.046(3) 0.302(2) -0.041(2)
C3 C 0.093(2) 0.419(2) -0.019(2)
C4 C 0.174(3) 0.373(3) 0.077(2)
C5 C 0.209(4) 0.239(3) 0.151(3)
C6 C 0.159(3) 0.128(3) 0.125(2)
C7 C 0.139(4) 0.531(4) 0.216(3)
C8 C -0.251(4) 0.791(2) 0.313(2)
C9 C -0.214(4) 0.648(3) 0.393(3)
C10 C -0.269(3) 0.535(3) 0.355(2)
C11 C -0.354(3) 0.536(3) 0.267(2)
C12 C -0.382(3) 0.709(4) 0.211(2)
C13 C -0.333(3) 0.839(3) 0.226(3)
C14 C -0.265(3) 0.344(3) 0.164(2)
C15 C 0.337(3) 0.167(4) 0.219(2)
C16 C 0.368(3) 0.098(4) 0.428(2)
C17 C 0.236(4) 0.047(3) 0.552(3)
C18 C 0.016(3) 0.188(2) 0.632(2)
C19 C -0.124(4) 0.177(4) 0.571(3)
C20 C -0.267(3) 0.355(5) 0.419(3)
C21 C 0.264(3) 0.259(3) 0.638(3)
C22 C 0.227(5) 0.447(3) 0.600(3)
C23 C 0.275(5) 0.521(3) 0.476(3)
C24 C 0.240(4) 0.690(3) 0.450(3)
C25 C -0.424(4) 0.701(3) 0.090(2)
C26 C -0.527(3) 0.859(2) -0.077(3)
C27 C -0.419(3) 0.872(2) -0.192(2)
C28 C -0.186(3) 0.736(4) -0.310(2)
C29 C -0.075(2) 0.737(2) -0.226(2)
C30 C 0.059(2) 0.578(2) -0.085(2)
C31 C -0.449(5) 0.654(4) -0.273(3)
C32 C -0.407(3) 0.498(3) -0.274(2)
C33 C -0.425(4) 0.401(3) -0.135(3)
C34 C -0.412(6) 0.227(3) -0.133(3)
N1 N 0.170(2) 0.197(2) 0.573(2)
N2 N -0.344(3) 0.720(2) -0.223(2)
O1 O 0.225(2) 0.498(2) 0.101(1)
O2 O -0.389(2) 0.415(2) 0.235(2)
O3 O 0.285(4) 0.109(2) 0.327(2)
O4 O -0.138(2) 0.327(2) 0.492(2)
O5 O -0.442(2) 0.814(2) 0.014(1)
O6 O -0.043(2) 0.591(1) -0.152(2)
Cl1 Cl 0.000 0.0000 0.0000
Cl2 Cl -0.194(1) 0.9428(9) 0.3516(8)
loop_
_geom_bond_atom_site_label_1
_geom_bond_atom_site_label_2
_geom_bond_site_symmetry_1
_geom_bond_site_symmetry_2
C1 C2 1_555 1_555
C2 C3 1_555 1_555
C3 C4 1_555 1_555
C4 C5 1_555 1_555
C5 C6 1_555 1_555
C6 C1 1_555 1_555
C7 O1 1_555 1_555
C8 C9 1_555 1_555
C9 C10 1_555 1_555
C10 C11 1_555 1_555
C11 C12 1_555 1_555
C12 C13 1_555 1_555
C13 C8 1_555 1_555
C14 O2 1_555 1_555
C15 C5 1_555 1_555
C16 C17 1_555 1_555
C17 N1 1_555 1_555
C18 C19 1_555 1_555
C19 O4 1_555 1_555
C20 C10 1_555 1_555
C21 C22 1_555 1_555
C22 C23 1_555 1_555
C23 C24 1_555 1_555
C25 C12 1_555 1_555
C26 C27 1_555 1_555
C27 N2 1_555 1_555
C28 C29 1_555 1_555
C29 O6 1_555 1_555
C30 C3 1_555 1_555
C31 C32 1_555 1_555
C32 C33 1_555 1_555
C33 C34 1_555 1_555
N1 C18 1_555 1_555
N2 C28 1_555 1_555
O1 C4 1_555 1_555
O2 C11 1_555 1_555
O3 C15 1_555 1_555
O4 C20 1_555 1_555
O5 C25 1_555 1_555
O6 C30 1_555 1_555
Cl1 C1 1_555 1_555
Cl2 C8 1_555 1_555
C16 O3 1_555 1_555
C21 N1 1_555 1_555
C26 O5 1_555 1_555
C31 N2 1_555 1_555

#END
