
#######################################################################
#
#                 Cambridge Crystallographic Data Centre
#                                CCDC 
#
#######################################################################
#
# If this CIF has been generated from an entry in the Cambridge 
# Structural Database, then it will include bibliographic, chemical, 
# crystal, experimental, refinement or atomic coordinate data resulting 
# from the CCDC's data processing and validation procedures.
#
#######################################################################

data_FEXCER
_chemical_formula_moiety         'C14 H7 I1 N2 O4'
_chemical_name_systematic        N-(4-Iodophenyl)-4-nitrophthalimide
_symmetry_cell_setting           orthorhombic
_symmetry_space_group_name_H-M   'P 21 21 21'
_symmetry_Int_Tables_number      19
_space_group_name_Hall           'P 2ac 2ab'
loop_
_symmetry_equiv_pos_site_id
_symmetry_equiv_pos_as_xyz
1 x,y,z
2 1/2-x,-y,1/2+z
3 -x,1/2+y,1/2-z
4 1/2+x,1/2-y,-z
_cell_length_a                   4.10920(10)
_cell_length_b                   6.78430(10)
_cell_length_c                   48.6775(10)
_cell_angle_alpha                90
_cell_angle_beta                 90
_cell_angle_gamma                90
_cell_volume                     1357.03
_exptl_crystal_colour            yellow
_exptl_crystal_description       plate
_cell_formula_units_Z            4
loop_
_atom_site_label
_atom_site_type_symbol
_atom_site_fract_x
_atom_site_fract_y
_atom_site_fract_z
N1 N 0.8206(10) 0.5599(5) 0.62660(8)
C1 C 0.6626(13) 0.6267(6) 0.65017(10)
O1 O 0.5117(12) 0.7790(6) 0.65228(8)
C2 C 0.9770(11) 0.3775(6) 0.63118(10)
O2 O 1.1428(11) 0.2912(5) 0.61498(7)
C3 C 0.9004(12) 0.3219(5) 0.66002(9)
C4 C 0.9799(11) 0.1548(6) 0.67478(10)
C5 C 0.8653(12) 0.1476(6) 0.70142(9)
N2 N 0.9395(11) -0.0276(6) 0.71832(9)
O3 O 0.8124(13) -0.0463(7) 0.74027(10)
O4 O 1.1304(18) -0.1441(7) 0.70918(11)
C6 C 0.6825(12) 0.2942(7) 0.71354(10)
C7 C 0.6085(12) 0.4649(7) 0.69840(9)
C8 C 0.7146(10) 0.4721(6) 0.67167(9)
C9 C 0.8036(11) 0.6590(6) 0.60046(10)
C10 C 0.6585(13) 0.5668(7) 0.57860(10)
C11 C 0.6179(14) 0.6697(7) 0.55404(10)
C12 C 0.7197(12) 0.8652(8) 0.55252(11)
I1 I 0.61351(9) 1.03265(6) 0.517564(8)
C13 C 0.8792(13) 0.9537(7) 0.57444(11)
C14 C 0.9224(14) 0.8494(7) 0.59853(10)
H1 H 1.1031 0.0533 0.6672
H2 H 0.6091 0.2803 0.7315
H3 H 0.4925 0.5686 0.7062
H4 H 0.5880 0.4370 0.5801
H5 H 0.5242 0.6086 0.5389
H6 H 0.9562 1.0821 0.5729
H7 H 1.0304 0.9065 0.6133
loop_
_geom_bond_atom_site_label_1
_geom_bond_atom_site_label_2
_geom_bond_site_symmetry_1
_geom_bond_site_symmetry_2
N1 C1 1_555 1_555
C1 O1 1_555 1_555
C2 N1 1_555 1_555
O2 C2 1_555 1_555
C3 C2 1_555 1_555
C4 C3 1_555 1_555
C5 C4 1_555 1_555
N2 C5 1_555 1_555
O3 N2 1_555 1_555
O4 N2 1_555 1_555
C6 C5 1_555 1_555
C7 C6 1_555 1_555
C8 C1 1_555 1_555
C9 N1 1_555 1_555
C10 C9 1_555 1_555
C11 C10 1_555 1_555
C12 C11 1_555 1_555
I1 C12 1_555 1_555
C13 C12 1_555 1_555
C14 C9 1_555 1_555
H1 C4 1_555 1_555
H2 C6 1_555 1_555
H3 C7 1_555 1_555
H4 C10 1_555 1_555
H5 C11 1_555 1_555
H6 C13 1_555 1_555
H7 C14 1_555 1_555
C3 C8 1_555 1_555
C7 C8 1_555 1_555
C13 C14 1_555 1_555

#END
