
#######################################################################
#
#                 Cambridge Crystallographic Data Centre
#                                CCDC 
#
#######################################################################
#
# If this CIF has been generated from an entry in the Cambridge 
# Structural Database, then it will include bibliographic, chemical, 
# crystal, experimental, refinement or atomic coordinate data resulting 
# from the CCDC's data processing and validation procedures.
#
#######################################################################

data_FEXCIU
_chemical_formula_moiety         'C12 H14 N2 O1'
_chemical_name_systematic        2-(Benzoylmethylene)-hexahydro-pyrimidine
_symmetry_cell_setting           monoclinic
_symmetry_space_group_name_H-M   'P 21/a'
_symmetry_Int_Tables_number      14
_space_group_name_Hall           '-P 2yab'
loop_
_symmetry_equiv_pos_site_id
_symmetry_equiv_pos_as_xyz
1 x,y,z
2 1/2-x,1/2+y,-z
3 -x,-y,-z
4 1/2+x,1/2-y,z
_cell_length_a                   12.209(2)
_cell_length_b                   7.428(2)
_cell_length_c                   13.045(3)
_cell_angle_alpha                90
_cell_angle_beta                 117.40(1)
_cell_angle_gamma                90
_cell_volume                     1050.31
_cell_formula_units_Z            4
loop_
_atom_site_label
_atom_site_type_symbol
_atom_site_fract_x
_atom_site_fract_y
_atom_site_fract_z
C1 C 0.1431(2) 0.7996(3) 0.4230(2)
C2 C 0.0758(2) 0.7704(4) 0.5747(2)
C3 C 0.1907(2) 0.8784(4) 0.6486(2)
C4 C 0.2963(2) 0.8177(4) 0.6269(2)
C5 C 0.1135(2) 0.8018(3) 0.3040(2)
C6 C 0.2001(2) 0.8287(3) 0.2651(2)
C7 C 0.1608(2) 0.8274(3) 0.1374(2)
C8 C 0.0515(2) 0.7485(4) 0.0577(2)
C9 C 0.0183(3) 0.7533(4) -0.0596(2)
C10 C 0.0929(3) 0.8364(4) -0.0975(2)
C11 C 0.2018(3) 0.9149(4) -0.0196(2)
C12 C 0.2360(2) 0.9090(4) 0.0975(2)
N1 N 0.2582(2) 0.8312(3) 0.5035(2)
N2 N 0.0557(2) 0.7665(3) 0.4547(2)
O1 O 0.3149(1) 0.8604(2) 0.3319(1)
loop_
_geom_bond_atom_site_label_1
_geom_bond_atom_site_label_2
_geom_bond_site_symmetry_1
_geom_bond_site_symmetry_2
C1 C5 1_555 1_555
C2 C3 1_555 1_555
C3 C4 1_555 1_555
C4 N1 1_555 1_555
C5 C6 1_555 1_555
C6 C7 1_555 1_555
C7 C8 1_555 1_555
C8 C9 1_555 1_555
C9 C10 1_555 1_555
C10 C11 1_555 1_555
C11 C12 1_555 1_555
C12 C7 1_555 1_555
N1 C1 1_555 1_555
N2 C1 1_555 1_555
O1 C6 1_555 1_555
C2 N2 1_555 1_555

#END
