
#######################################################################
#
#                 Cambridge Crystallographic Data Centre
#                                CCDC 
#
#######################################################################
#
# If this CIF has been generated from an entry in the Cambridge 
# Structural Database, then it will include bibliographic, chemical, 
# crystal, experimental, refinement or atomic coordinate data resulting 
# from the CCDC's data processing and validation procedures.
#
#######################################################################

data_FEXDOE
_chemical_formula_moiety         'C23 H27 Br1 O4'
_chemical_name_systematic        
2,2'-((4-bromophenyl)methylene)bis(3-hydroxy-5,5-dimethylcyclohex-2-en-1-one)
_symmetry_cell_setting           monoclinic
_symmetry_space_group_name_H-M   'P 21/c'
_symmetry_Int_Tables_number      14
_space_group_name_Hall           '-P 2ybc'
loop_
_symmetry_equiv_pos_site_id
_symmetry_equiv_pos_as_xyz
1 x,y,z
2 -x,1/2+y,1/2-z
3 -x,-y,-z
4 x,1/2-y,1/2+z
_cell_length_a                   16.394(3)
_cell_length_b                   10.8984(18)
_cell_length_c                   12.0467(19)
_cell_angle_alpha                90
_cell_angle_beta                 99.139(7)
_cell_angle_gamma                90
_cell_volume                     2125.04
_exptl_crystal_colour            colorless
_exptl_crystal_description       block
_cell_formula_units_Z            4
loop_
_atom_site_label
_atom_site_type_symbol
_atom_site_fract_x
_atom_site_fract_y
_atom_site_fract_z
Br1 Br -0.04367(3) 0.27506(5) 0.66057(4)
O1 O 0.25556(19) 0.7279(3) 0.3167(3)
O2 O 0.3590(2) 0.7254(3) 0.5087(3)
H1 H 0.3192 0.7204 0.4581
O3 O 0.32572(19) 0.3030(3) 0.5350(3)
C1 C 0.2382(2) 0.5158(4) 0.3353(3)
C2 C 0.2394(2) 0.5293(4) 0.4601(3)
H2 H 0.2252 0.6157 0.4689
C3 C 0.0433(2) 0.3508(4) 0.5988(4)
C4 C 0.2402(2) 0.4054(4) 0.2813(4)
C5 C 0.3243(3) 0.5166(4) 0.5329(3)
O4 O 0.2512(2) 0.2993(3) 0.3311(3)
H3 H 0.2688 0.3095 0.3980
C6 C 0.2313(3) 0.6190(4) 0.1461(4)
H4 H 0.2854 0.6266 0.1240
H5 H 0.1990 0.6895 0.1162
C7 C 0.2415(2) 0.6239(4) 0.2712(4)
C8 C 0.2311(3) 0.3948(4) 0.1567(3)
H6 H 0.1989 0.3219 0.1335
H7 H 0.2854 0.3834 0.1362
C9 C 0.3566(3) 0.4024(5) 0.5717(4)
C10 C 0.4580(3) 0.5118(5) 0.7220(4)
C11 C 0.1713(2) 0.4591(4) 0.5081(3)
C12 C 0.1902(3) 0.5040(4) 0.0920(3)
C13 C 0.3737(3) 0.6182(4) 0.5555(4)
C14 C 0.0435(3) 0.3456(4) 0.4862(4)
H8 H 0.0011 0.3056 0.4395
C15 C 0.1049(3) 0.4103(4) 0.6675(4)
H9 H 0.1042 0.4148 0.7445
C16 C 0.1680(3) 0.4635(5) 0.6218(4)
H10 H 0.2099 0.5038 0.6691
C17 C 0.1070(3) 0.3998(4) 0.4417(4)
H11 H 0.1064 0.3964 0.3645
C18 C 0.4525(3) 0.6151(5) 0.6381(4)
H12 H 0.4582 0.6923 0.6787
H13 H 0.4985 0.6084 0.5968
C19 C 0.0979(3) 0.5051(4) 0.0970(4)
H14 H 0.0896 0.5069 0.1741
H15 H 0.0728 0.4327 0.0613
H16 H 0.0732 0.5765 0.0588
C20 C 0.2039(3) 0.4947(5) -0.0303(4)
H17 H 0.1773 0.5624 -0.0724
H18 H 0.1810 0.4191 -0.0621
H19 H 0.2621 0.4967 -0.0333
C21 C 0.4331(3) 0.3939(5) 0.6589(4)
H20 H 0.4786 0.3673 0.6222
H21 H 0.4244 0.3312 0.7129
C22 C 0.5467(3) 0.5007(5) 0.7841(5)
H22 H 0.5620 0.5749 0.8250
H23 H 0.5835 0.4872 0.7306
H24 H 0.5504 0.4328 0.8355
C23 C 0.4017(3) 0.5359(6) 0.8087(4)
H25 H 0.3461 0.5475 0.7712
H26 H 0.4199 0.6084 0.8508
H27 H 0.4037 0.4672 0.8589
loop_
_geom_bond_atom_site_label_1
_geom_bond_atom_site_label_2
_geom_bond_site_symmetry_1
_geom_bond_site_symmetry_2
Br1 C3 1_555 1_555
O1 C7 1_555 1_555
O2 H1 1_555 1_555
O3 C9 1_555 1_555
C1 C2 1_555 1_555
C2 H2 1_555 1_555
C3 C14 1_555 1_555
C4 C1 1_555 1_555
C5 C2 1_555 1_555
O4 C4 1_555 1_555
H3 O4 1_555 1_555
C6 H4 1_555 1_555
H5 C6 1_555 1_555
C7 C1 1_555 1_555
C8 C4 1_555 1_555
H6 C8 1_555 1_555
H7 C8 1_555 1_555
C9 C5 1_555 1_555
C10 C18 1_555 1_555
C11 C2 1_555 1_555
C12 C6 1_555 1_555
C13 O2 1_555 1_555
C14 H8 1_555 1_555
C15 C3 1_555 1_555
H9 C15 1_555 1_555
C16 C11 1_555 1_555
H10 C16 1_555 1_555
C17 C11 1_555 1_555
H11 C17 1_555 1_555
C18 C13 1_555 1_555
H12 C18 1_555 1_555
H13 C18 1_555 1_555
C19 C12 1_555 1_555
H14 C19 1_555 1_555
H15 C19 1_555 1_555
H16 C19 1_555 1_555
C20 C12 1_555 1_555
H17 C20 1_555 1_555
H18 C20 1_555 1_555
H19 C20 1_555 1_555
C21 C9 1_555 1_555
H20 C21 1_555 1_555
H21 C21 1_555 1_555
C22 C10 1_555 1_555
H22 C22 1_555 1_555
H23 C22 1_555 1_555
H24 C22 1_555 1_555
C23 C10 1_555 1_555
H25 C23 1_555 1_555
H26 C23 1_555 1_555
H27 C23 1_555 1_555
C5 C13 1_555 1_555
C6 C7 1_555 1_555
C8 C12 1_555 1_555
C10 C21 1_555 1_555
C14 C17 1_555 1_555
C15 C16 1_555 1_555

#END
