
#######################################################################
#
#                 Cambridge Crystallographic Data Centre
#                                CCDC 
#
#######################################################################
#
# If this CIF has been generated from an entry in the Cambridge 
# Structural Database, then it will include bibliographic, chemical, 
# crystal, experimental, refinement or atomic coordinate data resulting 
# from the CCDC's data processing and validation procedures.
#
#######################################################################

data_FEXDUJ
_chemical_formula_moiety         'C24 H19 Br1 F3 N1 O6 S1,C4 H8 O2'
_chemical_name_systematic        
'1-(4-(1,3-Benzodioxol-5-yl)phenyl)-2-bromo-3-(((trifluoromethyl)sulfonyl)amino)propyl benzoate ethyl acetate solvate'
_symmetry_cell_setting           monoclinic
_symmetry_space_group_name_H-M   'P 21'
_symmetry_Int_Tables_number      4
_space_group_name_Hall           'P 2yb'
loop_
_symmetry_equiv_pos_site_id
_symmetry_equiv_pos_as_xyz
1 x,y,z
2 -x,1/2+y,-z
_cell_length_a                   11.663(4)
_cell_length_b                   5.822(2)
_cell_length_c                   21.566(8)
_cell_angle_alpha                90
_cell_angle_beta                 100.89(2)
_cell_angle_gamma                90
_cell_volume                     1438
_exptl_crystal_colour            colorless
_exptl_crystal_description       block
_cell_formula_units_Z            2
loop_
_atom_site_label
_atom_site_type_symbol
_atom_site_fract_x
_atom_site_fract_y
_atom_site_fract_z
Br1 Br 0.63609(9) 0.3808(2) 0.66945(3)
S1 S 0.58547(5) 0.7824(2) 0.85681(3)
F1 F 0.54739(15) 0.4302(5) 0.92470(8)
F2 F 0.39273(12) 0.6029(4) 0.87850(7)
F3 F 0.4983(2) 0.7558(6) 0.95905(10)
O1 O 0.69999(17) 0.8033(5) 0.89336(12)
O2 O 0.5160(2) 0.9766(4) 0.83374(15)
O3 O 0.89076(12) 0.6279(3) 0.81200(7)
O4 O 0.90742(15) 1.0139(4) 0.81334(9)
O5 O 1.36774(16) 0.5679(4) 0.45140(9)
O6 O 1.3984(4) 0.3256(8) 0.5396(2)
N1 N 0.58855(16) 0.6145(4) 0.80008(9)
H1 H 0.528(3) 0.613(6) 0.7754(15)
C1 C 0.4998(2) 0.6348(6) 0.90822(11)
C2 C 0.66835(16) 0.4194(4) 0.80383(9)
H2 H 0.6229 0.2750 0.8014
H3 H 0.7225 0.4223 0.8451
C3 C 0.73887(16) 0.4223(4) 0.75115(9)
H4 H 0.7924 0.2867 0.7579
C4 C 0.81494(17) 0.6349(4) 0.75003(10)
H5 H 0.7660 0.7772 0.7454
C5 C 0.93395(18) 0.8287(4) 0.83615(10)
C6 C 1.02326(17) 0.7923(4) 0.89494(10)
C7 C 1.0463(2) 0.9685(4) 0.93907(12)
H6 H 1.0039 1.1084 0.9324
C8 C 1.1315(2) 0.9393(5) 0.99291(11)
H7 H 1.1468 1.0590 1.0233
C9 C 1.1942(2) 0.7369(5) 1.00247(11)
H8 H 1.2526 0.7183 1.0393
C10 C 1.1722(2) 0.5611(5) 0.95867(12)
H9 H 1.2162 0.4230 0.9651
C11 C 1.08572(18) 0.5870(5) 0.90520(11)
H10 H 1.0691 0.4650 0.8756
C12 C 0.89054(17) 0.6275(4) 0.70044(10)
C13 C 0.88703(18) 0.7969(5) 0.65559(10)
H11 H 0.8322 0.9185 0.6538
C14 C 0.96258(19) 0.7923(5) 0.61293(10)
H12 H 0.9586 0.9119 0.5826
C15 C 1.04388(16) 0.6170(4) 0.61343(10)
C16 C 1.0451(2) 0.4439(5) 0.65830(12)
H13 H 1.0986 0.3200 0.6596
C17 C 0.9701(2) 0.4493(5) 0.70094(13)
H14 H 0.9729 0.3292 0.7310
C18 C 1.12728(17) 0.6123(4) 0.56881(10)
C19 C 1.12222(19) 0.7728(5) 0.52119(12)
H15 H 1.0642 0.8892 0.5173
C20 C 1.19914(19) 0.7718(6) 0.47821(11)
H16 H 1.1938 0.8832 0.4456
C21 C 1.28078(19) 0.6052(5) 0.48543(10)
C22 C 1.2927(7) 0.4591(16) 0.5358(4)
C23 C 1.2230(4) 0.4557(9) 0.5795(3)
H17 H 1.2371 0.3556 0.6150
C24 C 1.4293(5) 0.3661(9) 0.4795(2)
H18 H 1.4078 0.2314 0.4517
H19 H 1.5146 0.3901 0.4846
O8 O 0.35692(16) 0.6667(5) 0.73074(9)
O9 O 0.24717(14) 0.9808(4) 0.70419(8)
C28 C 0.3957(2) 0.9095(7) 0.64708(11)
H24 H 0.3421 0.8993 0.6063
H25 H 0.4627 0.8083 0.6468
H26 H 0.4229 1.0682 0.6544
C29 C 0.33353(18) 0.8370(5) 0.69867(10)
C30 C 0.18736(19) 0.9458(5) 0.75700(11)
H27 H 0.2058 0.7912 0.7753
H28 H 0.1019 0.9559 0.7421
C31 C 0.2261(2) 1.1256(5) 0.80617(13)
H29 H 0.1824 1.1085 0.8405
H30 H 0.2115 1.2784 0.7872
H31 H 0.3097 1.1077 0.8230
Br2? Br 0.6241(3) 0.4480(7) 0.67001(13)
O7? O 1.3438(9) 0.2575(11) 0.5127(5)
H20? H 0.7864 0.2790 0.7519
C25? C 1.2804(13) 0.416(4) 0.5277(9)
C26? C 1.1955(9) 0.4131(14) 0.5651(6)
H21? H 1.1834 0.2788 0.5881
C27? C 1.3952(10) 0.3278(10) 0.4606(5)
H22? H 1.3622 0.2388 0.4223
H23? H 1.4808 0.3045 0.4703
loop_
_geom_bond_atom_site_label_1
_geom_bond_atom_site_label_2
_geom_bond_site_symmetry_1
_geom_bond_site_symmetry_2
Br1 C3 1_555 1_555
S1 O1 1_555 1_555
F1 C1 1_555 1_555
F2 C1 1_555 1_555
F3 C1 1_555 1_555
O2 S1 1_555 1_555
O3 C4 1_555 1_555
O4 C5 1_555 1_555
O5 C21 1_555 1_555
O6 C22 1_555 1_555
N1 S1 1_555 1_555
H1 N1 1_555 1_555
C1 S1 1_555 1_555
C2 N1 1_555 1_555
H2 C2 1_555 1_555
H3 C2 1_555 1_555
C3 C2 1_555 1_555
H4 C3 1_555 1_555
C4 C3 1_555 1_555
H5 C4 1_555 1_555
C5 O3 1_555 1_555
C6 C5 1_555 1_555
C7 C6 1_555 1_555
H6 C7 1_555 1_555
C8 C7 1_555 1_555
H7 C8 1_555 1_555
C9 C8 1_555 1_555
H8 C9 1_555 1_555
C10 C9 1_555 1_555
H9 C10 1_555 1_555
C11 C6 1_555 1_555
H10 C11 1_555 1_555
C12 C4 1_555 1_555
C13 C12 1_555 1_555
H11 C13 1_555 1_555
C14 C13 1_555 1_555
H12 C14 1_555 1_555
C15 C14 1_555 1_555
C16 C15 1_555 1_555
H13 C16 1_555 1_555
C17 C12 1_555 1_555
H14 C17 1_555 1_555
C18 C15 1_555 1_555
C19 C18 1_555 1_555
H15 C19 1_555 1_555
C20 C19 1_555 1_555
H16 C20 1_555 1_555
C21 C20 1_555 1_555
C22 C21 1_555 1_555
C23 C18 1_555 1_555
H17 C23 1_555 1_555
C24 O5 1_555 1_555
H18 C24 1_555 1_555
H19 C24 1_555 1_555
O8 C29 1_555 1_555
O9 C29 1_555 1_555
C28 H24 1_555 1_555
H25 C28 1_555 1_555
H26 C28 1_555 1_555
C29 C28 1_555 1_555
C30 O9 1_555 1_555
H27 C30 1_555 1_555
H28 C30 1_555 1_555
C31 C30 1_555 1_555
H29 C31 1_555 1_555
H30 C31 1_555 1_555
H31 C31 1_555 1_555
O6 C24 1_555 1_555
C10 C11 1_555 1_555
C16 C17 1_555 1_555
C22 C23 1_555 1_555

#END
