
#######################################################################
#
#                 Cambridge Crystallographic Data Centre
#                                CCDC 
#
#######################################################################
#
# If this CIF has been generated from an entry in the Cambridge 
# Structural Database, then it will include bibliographic, chemical, 
# crystal, experimental, refinement or atomic coordinate data resulting 
# from the CCDC's data processing and validation procedures.
#
#######################################################################

data_FEXDIW
_chemical_formula_moiety         'C17 H20 Br2'
_chemical_name_systematic        
'(P)-(+)-(1S,3R,4R,5R,6R,7R,8R,9S)-1,9-bis(bromomethyl) hexaspiro(2.0.0.0.0.0.2^8^.1^7^.1^6^.1^5^.1^4^.1^3^)pentadecane'
_symmetry_cell_setting           orthorhombic
_symmetry_space_group_name_H-M   'P 21 21 21'
_symmetry_Int_Tables_number      19
_space_group_name_Hall           'P 2ac 2ab'
loop_
_symmetry_equiv_pos_site_id
_symmetry_equiv_pos_as_xyz
1 x,y,z
2 1/2-x,-y,1/2+z
3 -x,1/2+y,1/2-z
4 1/2+x,1/2-y,-z
_cell_length_a                   5.55750(10)
_cell_length_b                   16.2902(3)
_cell_length_c                   18.1928(3)
_cell_angle_alpha                90
_cell_angle_beta                 90
_cell_angle_gamma                90
_cell_volume                     1647.04
_exptl_crystal_colour            colorless
_exptl_crystal_description       shard
_chemical_melting_point          88-89deg.C
_cell_formula_units_Z            4
loop_
_atom_site_label
_atom_site_type_symbol
_atom_site_fract_x
_atom_site_fract_y
_atom_site_fract_z
Br1 Br -0.41691(3) -0.564056(9) -0.708047(8)
Br2 Br -0.73339(3) -0.867802(9) -0.079794(9)
C1 C -0.6140(2) -0.49031(8) -0.57905(7)
C2 C -0.6726(2) -0.55644(8) -0.52608(7)
C3 C -0.5532(3) -0.60713(8) -0.47159(7)
C4 C -0.5238(3) -0.60633(8) -0.39210(7)
C5 C -0.6295(2) -0.63991(9) -0.32522(7)
C6 C -0.5937(3) -0.70426(8) -0.27058(7)
C7 C -0.4760(2) -0.71350(8) -0.19940(7)
C8 C -0.5312(3) -0.71282(8) -0.11999(7)
C9 C -0.3194(3) -0.66368(10) -0.15100(8)
C10 C -0.4338(3) -0.77700(8) -0.25782(8)
C11 C -0.8415(3) -0.69103(9) -0.30208(8)
C12 C -0.5854(3) -0.54883(8) -0.33055(7)
C13 C -0.3060(3) -0.61890(9) -0.43968(8)
C14 C -0.7071(3) -0.64760(8) -0.52891(8)
C15 C -0.8286(3) -0.48268(9) -0.52590(8)
C16 C -0.6719(3) -0.50186(9) -0.65817(8)
C17 C -0.4719(3) -0.78664(9) -0.07492(9)
H1 H -0.487(3) -0.4542(10) -0.5678(9)
H2 H -0.673(4) -0.6810(12) -0.1056(11)
H3 H -0.163(3) -0.6859(10) -0.1419(9)
H4 H -0.337(3) -0.6038(13) -0.1534(11)
H5 H -0.279(3) -0.7783(10) -0.2801(10)
H6 H -0.512(3) -0.8300(10) -0.2502(10)
H7 H -0.968(3) -0.6647(10) -0.2738(9)
H8 H -0.896(4) -0.7320(13) -0.3345(11)
H9 H -0.467(4) -0.5271(13) -0.3035(11)
H10 H -0.723(4) -0.5131(11) -0.3362(9)
H11 H -0.232(4) -0.6708(12) -0.4435(11)
H12 H -0.192(3) -0.5742(12) -0.4458(10)
H13 H -0.857(4) -0.6685(12) -0.5162(11)
H14 H -0.633(3) -0.6754(11) -0.5670(10)
H15 H -0.802(4) -0.4455(12) -0.4853(11)
H16 H -0.993(3) -0.4842(11) -0.5458(10)
H17 H -0.673(3) -0.4521(12) -0.6859(10)
H18 H -0.795(4) -0.5340(15) -0.6670(12)
H19 H -0.453(4) -0.7746(11) -0.0234(10)
H20 H -0.346(4) -0.8184(12) -0.0923(10)
loop_
_geom_bond_atom_site_label_1
_geom_bond_atom_site_label_2
_geom_bond_site_symmetry_1
_geom_bond_site_symmetry_2
Br1 C16 1_555 1_555
Br2 C17 1_555 1_555
C1 C2 1_555 1_555
C2 C3 1_555 1_555
C3 C4 1_555 1_555
C4 C5 1_555 1_555
C5 C6 1_555 1_555
C6 C7 1_555 1_555
C7 C8 1_555 1_555
C8 C9 1_555 1_555
C9 C7 1_555 1_555
C10 C6 1_555 1_555
C11 C5 1_555 1_555
C12 C4 1_555 1_555
C13 C3 1_555 1_555
C14 C2 1_555 1_555
C15 C1 1_555 1_555
C16 C1 1_555 1_555
C17 C8 1_555 1_555
H1 C1 1_555 1_555
H2 C8 1_555 1_555
H3 C9 1_555 1_555
H4 C9 1_555 1_555
H5 C10 1_555 1_555
H6 C10 1_555 1_555
H7 C11 1_555 1_555
H8 C11 1_555 1_555
H9 C12 1_555 1_555
H10 C12 1_555 1_555
H11 C13 1_555 1_555
H12 C13 1_555 1_555
H13 C14 1_555 1_555
H14 C14 1_555 1_555
H15 C15 1_555 1_555
H16 C15 1_555 1_555
H17 C16 1_555 1_555
H18 C16 1_555 1_555
H19 C17 1_555 1_555
H20 C17 1_555 1_555
C2 C15 1_555 1_555
C3 C14 1_555 1_555
C4 C13 1_555 1_555
C5 C12 1_555 1_555
C6 C11 1_555 1_555
C7 C10 1_555 1_555

#END
