
#######################################################################
#
#                 Cambridge Crystallographic Data Centre
#                                CCDC 
#
#######################################################################
#
# If this CIF has been generated from an entry in the Cambridge 
# Structural Database, then it will include bibliographic, chemical, 
# crystal, experimental, refinement or atomic coordinate data resulting 
# from the CCDC's data processing and validation procedures.
#
#######################################################################

data_FEXHEY
_chemical_formula_moiety         'C16 H4 S6'
_chemical_name_systematic        
1,12:6,7-diepithiocycloocta[1,2-c:3,4-c':5,6-c'':7,8-c''']tetrakisthiophene
_symmetry_cell_setting           monoclinic
_symmetry_space_group_name_H-M   'P 21/c'
_symmetry_Int_Tables_number      14
_space_group_name_Hall           '-P 2ybc'
loop_
_symmetry_equiv_pos_site_id
_symmetry_equiv_pos_as_xyz
1 x,y,z
2 -x,1/2+y,1/2-z
3 -x,-y,-z
4 x,1/2-y,1/2+z
_cell_length_a                   10.4194(14)
_cell_length_b                   11.1468(16)
_cell_length_c                   12.0834(16)
_cell_angle_alpha                90
_cell_angle_beta                 100.176(2)
_cell_angle_gamma                90
_cell_volume                     1381.33
_cell_formula_units_Z            4
loop_
_atom_site_label
_atom_site_type_symbol
_atom_site_fract_x
_atom_site_fract_y
_atom_site_fract_z
S1 S 0.82037(11) 1.07919(11) 0.31683(9)
S2 S 0.21778(11) 1.07567(10) 0.15949(10)
S3 S 0.13393(10) 0.86354(11) -0.00222(9)
S4 S 0.86522(10) 0.66006(10) 0.04290(10)
S5 S 0.26234(10) 0.65442(10) -0.11104(9)
S6 S 0.94816(10) 0.86604(11) 0.21257(9)
C1 C 0.7087(3) 0.8158(3) 0.1101(3)
C2 C 0.3758(3) 0.9212(3) 0.0919(3)
C3 C 0.5991(4) 1.0034(3) 0.2036(3)
C4 C 0.6277(3) 0.7377(3) 0.0321(3)
C5 C 0.4564(3) 1.0030(3) 0.1654(3)
C6 C 0.7018(4) 0.6525(4) -0.0091(3)
H1 H 0.6659 0.5950 -0.0612
C7 C 0.4844(3) 0.7359(3) -0.0049(3)
C8 C 0.3861(4) 0.8156(3) 0.0236(3)
C9 C 0.8192(4) 0.9535(4) 0.2364(3)
C10 C 0.2447(3) 0.9529(3) 0.0833(3)
C11 C 0.3820(4) 1.0886(4) 0.2062(3)
H2 H 0.4181 1.1489 0.2553
C12 C 0.6553(4) 1.0907(4) 0.2766(3)
H3 H 0.6070 1.1516 0.3022
C13 C 0.4280(4) 0.6471(4) -0.0755(3)
H4 H 0.4766 0.5871 -0.1022
C14 C 0.8385(3) 0.7806(3) 0.1223(3)
C15 C 0.6973(3) 0.9209(3) 0.1785(3)
C16 C 0.2633(4) 0.7795(4) -0.0301(3)
loop_
_geom_bond_atom_site_label_1
_geom_bond_atom_site_label_2
_geom_bond_site_symmetry_1
_geom_bond_site_symmetry_2
S1 C9 1_555 1_555
S2 C10 1_555 1_555
S3 C10 1_555 1_555
S4 C6 1_555 1_555
S5 C13 1_555 1_555
S6 C9 1_555 1_555
C1 C4 1_555 1_555
C2 C5 1_555 1_555
C3 C5 1_555 1_555
C4 C6 1_555 1_555
C5 C11 1_555 1_555
C6 H1 1_555 1_555
C7 C4 1_555 1_555
C8 C2 1_555 1_555
C9 C15 1_555 1_555
C10 C2 1_555 1_555
C11 S2 1_555 1_555
H2 C11 1_555 1_555
C12 S1 1_555 1_555
H3 C12 1_555 1_555
C13 C7 1_555 1_555
H4 C13 1_555 1_555
C14 S4 1_555 1_555
C15 C1 1_555 1_555
C16 S3 1_555 1_555
S5 C16 1_555 1_555
S6 C14 1_555 1_555
C1 C14 1_555 1_555
C3 C12 1_555 1_555
C3 C15 1_555 1_555
C7 C8 1_555 1_555
C8 C16 1_555 1_555

#END
