
#######################################################################
#
#                 Cambridge Crystallographic Data Centre
#                                CCDC 
#
#######################################################################
#
# If this CIF has been generated from an entry in the Cambridge 
# Structural Database, then it will include bibliographic, chemical, 
# crystal, experimental, refinement or atomic coordinate data resulting 
# from the CCDC's data processing and validation procedures.
#
#######################################################################

data_FEXHAS
_chemical_formula_moiety         'C14 H19 Cl1 O9'
_chemical_name_systematic        
1,2,3,6-Tetra-O-acetyl-4-chloro-4-deoxy-\b-D-galactose
_symmetry_cell_setting           orthorhombic
_symmetry_space_group_name_H-M   'P 21 21 21'
_symmetry_Int_Tables_number      19
_space_group_name_Hall           'P 2ac 2ab'
loop_
_symmetry_equiv_pos_site_id
_symmetry_equiv_pos_as_xyz
1 x,y,z
2 1/2-x,-y,1/2+z
3 -x,1/2+y,1/2-z
4 1/2+x,1/2-y,-z
_cell_length_a                   5.7960(12)
_cell_length_b                   14.472(3)
_cell_length_c                   21.532(4)
_cell_angle_alpha                90
_cell_angle_beta                 90
_cell_angle_gamma                90
_cell_volume                     1806.1
_exptl_crystal_colour            colorless
_exptl_crystal_description       prismatic
_chemical_melting_point          176-177deg.C
_cell_formula_units_Z            4
_exptl_crystal_recrystallization_method 'absolute ethanol'
loop_
_atom_site_label
_atom_site_type_symbol
_atom_site_fract_x
_atom_site_fract_y
_atom_site_fract_z
O1 O 0.4134(5) 0.4864(2) 0.08619(13)
O2 O 0.6365(5) 0.41242(19) 0.15880(13)
O3 O 0.3411(6) 0.3129(2) 0.1775(2)
O4 O 0.6340(4) 0.5757(2) 0.23316(12)
O5 O 1.0190(5) 0.5759(3) 0.22682(16)
O6 O 0.6394(6) 0.7352(2) 0.15624(15)
O7 O 0.3480(7) 0.8377(3) 0.1576(2)
O8 O -0.0013(6) 0.4755(3) 0.00972(15)
O9 O 0.1790(9) 0.3904(4) -0.0613(3)
C1 C 0.4755(6) 0.4870(3) 0.15054(19)
H1 H 0.3398 0.4794 0.1772
C2 C 0.6063(7) 0.5745(3) 0.16635(19)
H2 H 0.7580 0.5735 0.1463
C3 C 0.4762(7) 0.6601(3) 0.14709(19)
H3 H 0.3448 0.6689 0.1751
C4 C 0.3876(7) 0.6541(3) 0.08023(19)
H4 H 0.2767 0.7041 0.0734
C5 C 0.2634(7) 0.5618(3) 0.07180(19)
H5 H 0.1307 0.5599 0.1000
C6 C 0.1803(8) 0.5457(3) 0.0068(2)
H6 H 0.1200 0.6025 -0.0106
H7 H 0.3063 0.5244 -0.0191
C7 C 0.5504(10) 0.3269(3) 0.1723(2)
C8 C 0.7312(9) 0.2593(3) 0.1817(3)
H8 H 0.6634 0.2004 0.1912
H9 H 0.8277 0.2784 0.2156
H10 H 0.8222 0.2542 0.1446
C9 C 0.8405(7) 0.5758(3) 0.2575(2)
C10 C 0.8296(9) 0.5759(3) 0.3275(2)
H11 H 0.9834 0.5761 0.3441
H12 H 0.7497 0.5217 0.3415
H13 H 0.7489 0.6300 0.3414
C11 C 0.5517(9) 0.8214(3) 0.1619(2)
C12 C 0.7422(10) 0.8904(4) 0.1703(3)
H14 H 0.6775 0.9513 0.1737
H15 H 0.8441 0.8880 0.1352
H16 H 0.8268 0.8761 0.2074
C13 C 0.0178(10) 0.4022(4) -0.0254(3)
C14 C -0.1782(11) 0.3360(5) -0.0139(3)
H17 H -0.1603 0.2826 -0.0400
H18 H -0.3220 0.3658 -0.0232
H19 H -0.1773 0.3172 0.0289
Cl1 Cl 0.6207(2) 0.66621(10) 0.02515(6)
loop_
_geom_bond_atom_site_label_1
_geom_bond_atom_site_label_2
_geom_bond_site_symmetry_1
_geom_bond_site_symmetry_2
O1 C1 1_555 1_555
O2 C1 1_555 1_555
O3 C7 1_555 1_555
O4 C2 1_555 1_555
O5 C9 1_555 1_555
O6 C3 1_555 1_555
O7 C11 1_555 1_555
O8 C6 1_555 1_555
O9 C13 1_555 1_555
C1 H1 1_555 1_555
C2 C1 1_555 1_555
H2 C2 1_555 1_555
C3 C2 1_555 1_555
H3 C3 1_555 1_555
C4 C3 1_555 1_555
H4 C4 1_555 1_555
C5 O1 1_555 1_555
H5 C5 1_555 1_555
C6 C5 1_555 1_555
H6 C6 1_555 1_555
H7 C6 1_555 1_555
C7 O2 1_555 1_555
C8 C7 1_555 1_555
H8 C8 1_555 1_555
H9 C8 1_555 1_555
H10 C8 1_555 1_555
C9 O4 1_555 1_555
C10 C9 1_555 1_555
H11 C10 1_555 1_555
H12 C10 1_555 1_555
H13 C10 1_555 1_555
C11 O6 1_555 1_555
C12 C11 1_555 1_555
H14 C12 1_555 1_555
H15 C12 1_555 1_555
H16 C12 1_555 1_555
C13 O8 1_555 1_555
C14 C13 1_555 1_555
H17 C14 1_555 1_555
H18 C14 1_555 1_555
H19 C14 1_555 1_555
Cl1 C4 1_555 1_555
C4 C5 1_555 1_555

#END
