
#######################################################################
#
#                 Cambridge Crystallographic Data Centre
#                                CCDC 
#
#######################################################################
#
# If this CIF has been generated from an entry in the Cambridge 
# Structural Database, then it will include bibliographic, chemical, 
# crystal, experimental, refinement or atomic coordinate data resulting 
# from the CCDC's data processing and validation procedures.
#
#######################################################################

data_FEXJOK
_chemical_formula_moiety         'C18 H15 N1 O2'
_chemical_name_systematic        4-acetyl-3-benzylidene-1-phenylazetidin-2-one
_symmetry_cell_setting           monoclinic
_symmetry_space_group_name_H-M   'P 21/c'
_symmetry_Int_Tables_number      14
_space_group_name_Hall           '-P 2ybc'
loop_
_symmetry_equiv_pos_site_id
_symmetry_equiv_pos_as_xyz
1 x,y,z
2 -x,1/2+y,1/2-z
3 -x,-y,-z
4 x,1/2-y,1/2+z
_cell_length_a                   11.716(4)
_cell_length_b                   5.8011(18)
_cell_length_c                   22.038(7)
_cell_angle_alpha                90
_cell_angle_beta                 100.397(5)
_cell_angle_gamma                90
_cell_volume                     1473.23
_exptl_crystal_colour            colorless
_exptl_crystal_description       block
_cell_formula_units_Z            4
loop_
_atom_site_label
_atom_site_type_symbol
_atom_site_fract_x
_atom_site_fract_y
_atom_site_fract_z
O1 O 0.38531(12) -0.0046(2) 0.40376(6)
O2 O 0.08734(13) 0.6859(3) 0.44234(7)
N1 N 0.26670(12) 0.3209(2) 0.37366(6)
C1 C 0.34092(14) 0.1775(3) 0.41293(8)
C2 C 0.33685(14) 0.3353(3) 0.46570(8)
C3 C 0.25267(15) 0.4886(3) 0.42229(8)
H1 H 0.2850 0.6406 0.4159
C4 C 0.21754(14) 0.3210(3) 0.31118(8)
C5 C 0.23695(16) 0.1414(3) 0.27244(9)
H2 H 0.2848 0.0189 0.2877
C6 C 0.18453(18) 0.1473(4) 0.21144(9)
H3 H 0.1975 0.0270 0.1856
C7 C 0.11350(17) 0.3260(4) 0.18750(9)
H4 H 0.0786 0.3271 0.1461
C8 C 0.09503(17) 0.5038(4) 0.22614(9)
H5 H 0.0471 0.6259 0.2106
C9 C 0.14670(16) 0.5025(3) 0.28728(9)
H6 H 0.1340 0.6241 0.3127
C10 C 0.39210(15) 0.3365(3) 0.52373(8)
H7 H 0.4419 0.2129 0.5352
C11 C 0.38552(15) 0.5055(3) 0.57210(8)
C12 C 0.31938(18) 0.7070(3) 0.56226(9)
H8 H 0.2784 0.7396 0.5230
C13 C 0.31416(19) 0.8578(3) 0.60982(9)
H9 H 0.2682 0.9891 0.6026
C14 C 0.37571(18) 0.8168(4) 0.66749(9)
H10 H 0.3715 0.9191 0.6995
C15 C 0.44410(19) 0.6231(4) 0.67794(9)
H11 H 0.4877 0.5964 0.7169
C16 C 0.44837(17) 0.4682(4) 0.63094(9)
H12 H 0.4941 0.3367 0.6388
C17 C 0.12884(16) 0.5003(3) 0.43475(8)
C18 C 0.0645(2) 0.2826(4) 0.43770(12)
H13 H 0.0784 0.2261 0.4793
H14 H 0.0903 0.1704 0.4111
H15 H -0.0170 0.3099 0.4245
loop_
_geom_bond_atom_site_label_1
_geom_bond_atom_site_label_2
_geom_bond_site_symmetry_1
_geom_bond_site_symmetry_2
O1 C1 1_555 1_555
O2 C17 1_555 1_555
N1 C1 1_555 1_555
C1 C2 1_555 1_555
C2 C3 1_555 1_555
C3 N1 1_555 1_555
H1 C3 1_555 1_555
C4 N1 1_555 1_555
C5 C4 1_555 1_555
H2 C5 1_555 1_555
C6 C5 1_555 1_555
H3 C6 1_555 1_555
C7 C6 1_555 1_555
H4 C7 1_555 1_555
C8 C7 1_555 1_555
H5 C8 1_555 1_555
C9 C4 1_555 1_555
H6 C9 1_555 1_555
C10 C2 1_555 1_555
H7 C10 1_555 1_555
C11 C10 1_555 1_555
C12 C11 1_555 1_555
H8 C12 1_555 1_555
C13 C12 1_555 1_555
H9 C13 1_555 1_555
C14 C13 1_555 1_555
H10 C14 1_555 1_555
C15 C14 1_555 1_555
H11 C15 1_555 1_555
C16 C11 1_555 1_555
H12 C16 1_555 1_555
C17 C3 1_555 1_555
C18 C17 1_555 1_555
H13 C18 1_555 1_555
H14 C18 1_555 1_555
H15 C18 1_555 1_555
C8 C9 1_555 1_555
C15 C16 1_555 1_555

#END
