
#######################################################################
#
#                 Cambridge Crystallographic Data Centre
#                                CCDC 
#
#######################################################################
#
# If this CIF has been generated from an entry in the Cambridge 
# Structural Database, then it will include bibliographic, chemical, 
# crystal, experimental, refinement or atomic coordinate data resulting 
# from the CCDC's data processing and validation procedures.
#
#######################################################################

data_FEXLEC
_chemical_formula_moiety         'C33 H30 Cl1 N1 O5'
_chemical_name_systematic        
't-butyl 5-chloro-3-[(2-hydroxy-3-methoxyphenyl)(phenyl)methyl]-2-oxo-3-phenyl-2,3-dihydro-1H-indole-1-carboxylate'
_symmetry_cell_setting           monoclinic
_symmetry_space_group_name_H-M   'P 21/n'
_symmetry_Int_Tables_number      14
_space_group_name_Hall           '-P 2yn'
loop_
_symmetry_equiv_pos_site_id
_symmetry_equiv_pos_as_xyz
1 x,y,z
2 1/2-x,1/2+y,1/2-z
3 -x,-y,-z
4 1/2+x,1/2-y,1/2+z
_cell_length_a                   9.73255(12)
_cell_length_b                   24.9900(3)
_cell_length_c                   13.02370(17)
_cell_angle_alpha                90
_cell_angle_beta                 110.6942(15)
_cell_angle_gamma                90
_cell_volume                     2963.21
_exptl_crystal_colour            colorless
_exptl_crystal_description       block
_cell_formula_units_Z            4
loop_
_atom_site_label
_atom_site_type_symbol
_atom_site_fract_x
_atom_site_fract_y
_atom_site_fract_z
Cl1 Cl 0.77765(8) 0.03517(3) 0.16954(6)
O1 O 0.17211(19) 0.14428(7) -0.31913(13)
N1 N 0.3695(2) 0.08639(7) -0.27297(14)
C1 C 0.4639(2) 0.09797(8) -0.08726(18)
O2 O 0.4972(2) 0.27946(8) 0.03803(17)
H1 H 0.518029 0.306782 0.075225
C2 C 0.4766(2) 0.06831(9) -0.17294(18)
C3 C 0.3597(3) 0.28406(9) -0.03788(19)
C4 C 0.2802(2) 0.12568(9) -0.25183(17)
C5 C 0.4104(2) 0.19690(8) -0.10785(18)
H2 H 0.479225 0.196383 -0.031820
C6 C 0.5565(2) 0.08822(9) 0.01908(19)
H3 H 0.549382 0.107937 0.077544
C7 C 0.5797(3) 0.02819(10) -0.1563(2)
H4 H 0.586904 0.008483 -0.214792
C8 C 0.6608(2) 0.04799(10) 0.0359(2)
C9 C 0.2262(2) 0.12995(9) -0.07507(19)
C10 C 0.3065(2) 0.24319(9) -0.11266(18)
C11 C 0.3413(2) 0.13900(8) -0.12852(17)
O3 O 0.2788(3) 0.09787(10) -0.45409(17)
C12 C 0.3519(3) 0.06593(11) -0.3774(2)
C13 C 0.2739(3) 0.32859(12) -0.0376(3)
C14 C 0.5055(3) 0.20707(9) -0.1768(2)
C15 C 0.1023(3) 0.09942(11) -0.1243(2)
H5 H 0.083468 0.085626 -0.194232
C16 C 0.6723(3) 0.01827(11) -0.0495(2)
H6 H 0.742545 -0.008640 -0.035577
O4 O 0.3401(3) 0.36417(10) 0.0444(2)
C17 C 0.4464(4) 0.22549(13) -0.2840(3)
H7 H 0.346305 0.232595 -0.314675
O5 O 0.3958(4) 0.02217(13) -0.3874(2)
C18 C 0.2505(4) 0.14971(12) 0.0292(2)
H8 H 0.333480 0.170344 0.064056
C19 C 0.1624(3) 0.24751(12) -0.1870(3)
H9 H 0.122193 0.219915 -0.236441
C20 C 0.2089(4) 0.08552(15) -0.5690(2)
C21 C 0.0053(4) 0.08914(16) -0.0699(4)
H10 H -0.078086 0.068620 -0.104306
C22 C 0.1524(5) 0.13908(16) 0.0823(3)
H11 H 0.170076 0.152827 0.152119
C23 C 0.0298(4) 0.10851(18) 0.0328(4)
H12 H -0.035426 0.101142 0.068668
C24 C 0.6549(3) 0.19768(12) -0.1327(3)
H13 H 0.696669 0.185836 -0.060639
C25 C 0.1357(4) 0.33323(15) -0.1141(3)
H14 H 0.080058 0.363782 -0.116445
C26 C 0.7437(5) 0.20570(16) -0.1947(5)
H15 H 0.844238 0.199465 -0.164433
C27 C 0.6808(7) 0.22301(18) -0.3014(5)
H16 H 0.738815 0.227740 -0.344174
C28 C 0.5333(6) 0.23329(18) -0.3451(4)
H17 H 0.492054 0.245680 -0.416846
C29 C 0.0796(4) 0.29224(15) -0.1876(3)
H18 H -0.015497 0.294804 -0.238380
C30 C 0.2519(6) 0.4038(2) 0.0671(5)
H19 H 0.223552 0.429626 0.008765
H20 H 0.306313 0.421245 0.134943
H21 H 0.165606 0.387491 0.072909
C31 C 0.3038(5) 0.0578(2) -0.6188(3)
H22 H 0.382254 0.081187 -0.618486
H23 H 0.246908 0.048097 -0.693025
H24 H 0.344017 0.026161 -0.577331
C32 C 0.1357(10) 0.1347(3) -0.6214(4)
H25 H 0.079826 0.149127 -0.580154
H26 H 0.071267 0.126901 -0.694818
H27 H 0.208099 0.160319 -0.623653
C33 C 0.0891(6) 0.0475(4) -0.5668(6)
H28 H 0.119483 0.029167 -0.497572
H29 H 0.070778 0.021839 -0.625029
H30 H 0.000846 0.067285 -0.576452
loop_
_geom_bond_atom_site_label_1
_geom_bond_atom_site_label_2
_geom_bond_site_symmetry_1
_geom_bond_site_symmetry_2
Cl1 C8 1_555 1_555
O1 C4 1_555 1_555
N1 C2 1_555 1_555
C1 C2 1_555 1_555
O2 H1 1_555 1_555
C2 C7 1_555 1_555
C3 O2 1_555 1_555
C4 N1 1_555 1_555
C5 H2 1_555 1_555
C6 C1 1_555 1_555
H3 C6 1_555 1_555
C7 H4 1_555 1_555
C8 C6 1_555 1_555
C9 C11 1_555 1_555
C10 C3 1_555 1_555
C11 C1 1_555 1_555
O3 C12 1_555 1_555
C12 N1 1_555 1_555
C13 C3 1_555 1_555
C14 C5 1_555 1_555
C15 C9 1_555 1_555
H5 C15 1_555 1_555
C16 C7 1_555 1_555
H6 C16 1_555 1_555
O4 C13 1_555 1_555
C17 C14 1_555 1_555
H7 C17 1_555 1_555
O5 C12 1_555 1_555
C18 C9 1_555 1_555
H8 C18 1_555 1_555
C19 C10 1_555 1_555
H9 C19 1_555 1_555
C20 O3 1_555 1_555
C21 C15 1_555 1_555
H10 C21 1_555 1_555
C22 C18 1_555 1_555
H11 C22 1_555 1_555
C23 C21 1_555 1_555
H12 C23 1_555 1_555
C24 C14 1_555 1_555
H13 C24 1_555 1_555
C25 C13 1_555 1_555
H14 C25 1_555 1_555
C26 C24 1_555 1_555
H15 C26 1_555 1_555
C27 C26 1_555 1_555
H16 C27 1_555 1_555
C28 C17 1_555 1_555
H17 C28 1_555 1_555
C29 C19 1_555 1_555
H18 C29 1_555 1_555
C30 O4 1_555 1_555
H19 C30 1_555 1_555
H20 C30 1_555 1_555
H21 C30 1_555 1_555
C31 C20 1_555 1_555
H22 C31 1_555 1_555
H23 C31 1_555 1_555
H24 C31 1_555 1_555
C32 C20 1_555 1_555
H25 C32 1_555 1_555
H26 C32 1_555 1_555
H27 C32 1_555 1_555
C33 C20 1_555 1_555
H28 C33 1_555 1_555
H29 C33 1_555 1_555
H30 C33 1_555 1_555
C4 C11 1_555 1_555
C5 C10 1_555 1_555
C5 C11 1_555 1_555
C8 C16 1_555 1_555
C22 C23 1_555 1_555
C25 C29 1_555 1_555
C27 C28 1_555 1_555

#END
