
#######################################################################
#
#                 Cambridge Crystallographic Data Centre
#                                CCDC 
#
#######################################################################
#
# If this CIF has been generated from an entry in the Cambridge 
# Structural Database, then it will include bibliographic, chemical, 
# crystal, experimental, refinement or atomic coordinate data resulting 
# from the CCDC's data processing and validation procedures.
#
#######################################################################

data_FEXMAZ
_chemical_formula_moiety         'C24 H24 N2 O5 S1'
_chemical_name_systematic        
3-phenyl-1-(phenylsulfonyl)-5-(3,4,5-trimethoxyphenyl)-4,5-dihydro-1H-pyrazole
_symmetry_cell_setting           monoclinic
_symmetry_space_group_name_H-M   'P 21/c'
_symmetry_Int_Tables_number      14
_space_group_name_Hall           '-P 2ybc'
loop_
_symmetry_equiv_pos_site_id
_symmetry_equiv_pos_as_xyz
1 x,y,z
2 -x,1/2+y,1/2-z
3 -x,-y,-z
4 x,1/2-y,1/2+z
_cell_length_a                   9.953(6)
_cell_length_b                   20.690(13)
_cell_length_c                   10.871(7)
_cell_angle_alpha                90
_cell_angle_beta                 94.193(8)
_cell_angle_gamma                90
_cell_volume                     2232.65
_exptl_crystal_colour            colorless
_exptl_crystal_description       block
_cell_formula_units_Z            4
loop_
_atom_site_label
_atom_site_type_symbol
_atom_site_fract_x
_atom_site_fract_y
_atom_site_fract_z
S1 S 0.69667(4) 0.70150(2) 0.88086(4)
O1 O 0.08332(13) 0.90156(6) 0.77268(12)
O2 O 0.10076(13) 0.78986(6) 0.89745(12)
O3 O 0.25780(16) 0.93169(6) 0.60674(13)
O4 O 0.68496(14) 0.67470(9) 1.00095(12)
O5 O 0.72386(16) 0.76881(7) 0.86782(17)
N1 N 0.55130(14) 0.68942(7) 0.80091(13)
N2 N 0.51741(13) 0.62333(7) 0.78478(13)
C1 C 0.18544(15) 0.85908(7) 0.75214(14)
C2 C 0.19863(15) 0.80103(7) 0.81767(14)
C3 C 0.28013(16) 0.87479(7) 0.66825(14)
C4 C 0.30515(15) 0.75955(8) 0.79999(14)
H1 H 0.3135 0.7209 0.8437
C5 C 0.81850(15) 0.65572(8) 0.80958(15)
C6 C 0.39940(15) 0.77588(7) 0.71671(14)
C7 C 0.38756(15) 0.83332(8) 0.65067(14)
H2 H 0.4508 0.8441 0.5952
C8 C 0.46153(15) 0.61563(9) 0.67503(15)
C9 C 0.50953(16) 0.72841(8) 0.68848(16)
H3 H 0.5869 0.7511 0.6581
C10 C 0.40580(16) 0.55308(9) 0.63352(16)
C11 C 0.85408(19) 0.59600(9) 0.85788(19)
H4 H 0.8127 0.5801 0.9257
C12 C 0.4586(2) 0.67582(9) 0.59748(16)
H5 H 0.3679 0.6852 0.5634
H6 H 0.5173 0.6716 0.5305
C13 C 0.10278(19) 0.73004(9) 0.96063(18)
H7 H 0.1074 0.6954 0.9024
H8 H 0.0223 0.7258 1.0035
H9 H 0.1800 0.7284 1.0189
C14 C 0.3278(2) 0.54813(11) 0.52309(19)
H10 H 0.3130 0.5845 0.4737
C15 C 0.8768(2) 0.67929(10) 0.70693(19)
H11 H 0.8521 0.7193 0.6736
C16 C 0.4275(2) 0.49735(10) 0.7041(2)
H12 H 0.4805 0.4994 0.7781
C17 C 0.3293(3) 0.94351(11) 0.5013(2)
H13 H 0.3099 0.9099 0.4417
H14 H 0.4242 0.9442 0.5245
H15 H 0.3022 0.9845 0.4660
C18 C 0.9511(2) 0.56003(11) 0.8052(3)
H16 H 0.9757 0.5198 0.8380
C19 C -0.0442(2) 0.88390(12) 0.7161(3)
H17 H -0.0387 0.8809 0.6285
H18 H -0.1096 0.9160 0.7339
H19 H -0.0706 0.8428 0.7475
C20 C 0.9739(3) 0.64135(13) 0.6547(2)
H20 H 1.0133 0.6559 0.5848
C21 C 0.3713(2) 0.43932(11) 0.6655(2)
H21 H 0.3864 0.4025 0.7137
C22 C 0.2932(2) 0.43537(12) 0.5565(2)
H22 H 0.2552 0.3961 0.5309
C23 C 1.0116(2) 0.58285(12) 0.7054(3)
H23 H 1.0785 0.5587 0.6716
C24 C 0.2715(3) 0.48950(13) 0.4856(2)
H24 H 0.2185 0.4869 0.4117
H25? H 0.1972 0.9619 0.6335
loop_
_geom_bond_atom_site_label_1
_geom_bond_atom_site_label_2
_geom_bond_site_symmetry_1
_geom_bond_site_symmetry_2
S1 O4 1_555 1_555
O1 C1 1_555 1_555
O2 C2 1_555 1_555
O3 C3 1_555 1_555
O5 S1 1_555 1_555
N1 S1 1_555 1_555
N2 N1 1_555 1_555
C1 C2 1_555 1_555
C2 C4 1_555 1_555
C3 C1 1_555 1_555
C4 H1 1_555 1_555
C5 S1 1_555 1_555
C6 C4 1_555 1_555
C7 C3 1_555 1_555
H2 C7 1_555 1_555
C8 N2 1_555 1_555
C9 N1 1_555 1_555
H3 C9 1_555 1_555
C10 C8 1_555 1_555
C11 C5 1_555 1_555
H4 C11 1_555 1_555
C12 C8 1_555 1_555
H5 C12 1_555 1_555
H6 C12 1_555 1_555
C13 O2 1_555 1_555
H7 C13 1_555 1_555
H8 C13 1_555 1_555
H9 C13 1_555 1_555
C14 C10 1_555 1_555
H10 C14 1_555 1_555
C15 C5 1_555 1_555
H11 C15 1_555 1_555
C16 C10 1_555 1_555
H12 C16 1_555 1_555
C17 O3 1_555 1_555
H13 C17 1_555 1_555
H14 C17 1_555 1_555
H15 C17 1_555 1_555
C18 C11 1_555 1_555
H16 C18 1_555 1_555
C19 O1 1_555 1_555
H17 C19 1_555 1_555
H18 C19 1_555 1_555
H19 C19 1_555 1_555
C20 C15 1_555 1_555
H20 C20 1_555 1_555
C21 C16 1_555 1_555
H21 C21 1_555 1_555
C22 C21 1_555 1_555
H22 C22 1_555 1_555
C23 C18 1_555 1_555
H23 C23 1_555 1_555
C24 C14 1_555 1_555
H24 C24 1_555 1_555
C6 C7 1_555 1_555
C6 C9 1_555 1_555
C9 C12 1_555 1_555
C20 C23 1_555 1_555
C22 C24 1_555 1_555

#END
