
#######################################################################
#
#                 Cambridge Crystallographic Data Centre
#                                CCDC 
#
#######################################################################
#
# If this CIF has been generated from an entry in the Cambridge 
# Structural Database, then it will include bibliographic, chemical, 
# crystal, experimental, refinement or atomic coordinate data resulting 
# from the CCDC's data processing and validation procedures.
#
#######################################################################

data_FEXPOQ
_chemical_formula_moiety         'C17 H13 N3 O1'
_chemical_name_systematic        
3-(1H-benzimidazol-2-yl)-6-methylquinolin-2(1H)-one
_symmetry_cell_setting           monoclinic
_symmetry_space_group_name_H-M   'P 21/c'
_symmetry_Int_Tables_number      14
_space_group_name_Hall           '-P 2ybc'
loop_
_symmetry_equiv_pos_site_id
_symmetry_equiv_pos_as_xyz
1 x,y,z
2 -x,1/2+y,1/2-z
3 -x,-y,-z
4 x,1/2-y,1/2+z
_cell_length_a                   4.727(10)
_cell_length_b                   22.02(4)
_cell_length_c                   13.16(3)
_cell_angle_alpha                90
_cell_angle_beta                 103.15(7)
_cell_angle_gamma                90
_cell_volume                     1333.89
_exptl_crystal_description       block
_cell_formula_units_Z            4
loop_
_atom_site_label
_atom_site_type_symbol
_atom_site_fract_x
_atom_site_fract_y
_atom_site_fract_z
O1 O 0.1701(5) 0.28485(12) 0.05503(18)
N1 N 0.5607(5) 0.34071(12) 0.1973(2)
H1 H 0.5112 0.3363 0.1307
N2 N 0.5726(5) 0.32583(12) 0.3671(2)
N3 N -0.1345(5) 0.21618(13) 0.0999(2)
H2 H -0.2226 0.2130 0.0353
C1 C 0.7646(3) 0.38042(7) 0.25066(14)
C2 C 0.9412(4) 0.42447(9) 0.22140(15)
H3 H 0.9415 0.4299 0.1513
C3 C 1.1173(5) 0.46048(10) 0.2969(2)
H4 H 1.2355 0.4900 0.2773
C4 C 1.1169(5) 0.45244(11) 0.40160(18)
H5 H 1.2347 0.4765 0.4521
C5 C 0.9403(5) 0.40839(11) 0.43085(14)
H6 H 0.9400 0.4030 0.5009
C6 C 0.7642(4) 0.37238(9) 0.35539(14)
C7 C 0.4511(6) 0.30973(16) 0.2688(3)
C8 C 0.2225(6) 0.26420(15) 0.2363(3)
C9 C 0.1225(6) 0.23025(15) 0.3072(3)
H7 H 0.2047 0.2355 0.3778
C10 C -0.5226(8) 0.06673(19) 0.3926(3)
H8 H -0.4274 0.0281 0.3948
H9 H -0.7291 0.0611 0.3718
H10 H -0.4738 0.0851 0.4605
C11 C -0.2333(3) 0.18009(8) 0.17002(14)
C12 C -0.1082(4) 0.18614(9) 0.27585(14)
C13 C -0.2034(5) 0.15002(12) 0.34804(14)
H11 H -0.1197 0.1541 0.4188
C14 C -0.4235(5) 0.10784(11) 0.31441(19)
C15 C -0.5486(4) 0.10178(10) 0.2086(2)
H12 H -0.6959 0.0736 0.1861
C16 C -0.4534(3) 0.13791(9) 0.13639(16)
H13 H -0.5371 0.1339 0.0656
C17 C 0.0885(6) 0.25630(16) 0.1231(3)
loop_
_geom_bond_atom_site_label_1
_geom_bond_atom_site_label_2
_geom_bond_site_symmetry_1
_geom_bond_site_symmetry_2
O1 C17 1_555 1_555
N1 H1 1_555 1_555
N2 C6 1_555 1_555
N3 H2 1_555 1_555
C1 N1 1_555 1_555
C2 C1 1_555 1_555
H3 C2 1_555 1_555
C3 C2 1_555 1_555
H4 C3 1_555 1_555
C4 C3 1_555 1_555
H5 C4 1_555 1_555
C5 C4 1_555 1_555
H6 C5 1_555 1_555
C6 C1 1_555 1_555
C7 N1 1_555 1_555
C8 C7 1_555 1_555
C9 C8 1_555 1_555
H7 C9 1_555 1_555
C10 H8 1_555 1_555
H9 C10 1_555 1_555
H10 C10 1_555 1_555
C11 N3 1_555 1_555
C12 C9 1_555 1_555
C13 C12 1_555 1_555
H11 C13 1_555 1_555
C14 C10 1_555 1_555
C15 C14 1_555 1_555
H12 C15 1_555 1_555
C16 C11 1_555 1_555
H13 C16 1_555 1_555
C17 N3 1_555 1_555
N2 C7 1_555 1_555
C5 C6 1_555 1_555
C8 C17 1_555 1_555
C11 C12 1_555 1_555
C13 C14 1_555 1_555
C15 C16 1_555 1_555

#END
