
#######################################################################
#
#                 Cambridge Crystallographic Data Centre
#                                CCDC 
#
#######################################################################
#
# If this CIF has been generated from an entry in the Cambridge 
# Structural Database, then it will include bibliographic, chemical, 
# crystal, experimental, refinement or atomic coordinate data resulting 
# from the CCDC's data processing and validation procedures.
#
#######################################################################

data_FEXREG
_chemical_formula_moiety         'C6 H13 N2 O1 1+,Cl1 1-'
_chemical_name_systematic        '(R)-\a-Ammonio-\e-caprolactam chloride'
_symmetry_cell_setting           orthorhombic
_symmetry_space_group_name_H-M   'P 21 21 21'
_symmetry_Int_Tables_number      19
_space_group_name_Hall           'P 2ac 2ab'
loop_
_symmetry_equiv_pos_site_id
_symmetry_equiv_pos_as_xyz
1 x,y,z
2 1/2+x,1/2-y,-z
3 -x,1/2+y,1/2-z
4 1/2-x,-y,1/2+z
_cell_length_a                   5.0426(6)
_cell_length_b                   7.6092(7)
_cell_length_c                   21.615(3)
_cell_angle_alpha                90
_cell_angle_beta                 90
_cell_angle_gamma                90
_cell_volume                     829.371
_exptl_crystal_colour            colorless
_exptl_crystal_description       platelet
_cell_formula_units_Z            4
loop_
_atom_site_label
_atom_site_type_symbol
_atom_site_fract_x
_atom_site_fract_y
_atom_site_fract_z
Cl1 Cl 1.3344(2) 1.2420(1) 0.08282(4)
O1 O 1.1778(4) 0.7476(3) 0.04445(9)
N1 N 0.9752(7) 0.5819(4) 0.1163(2)
N2 N 0.8375(8) 1.0078(4) 0.0444(1)
C1 C 0.9989(6) 0.7269(4) 0.0823(2)
C2 C 0.7974(7) 0.8726(4) 0.0930(1)
C3 C 0.8194(9) 0.9568(4) 0.1568(1)
C4 C 0.6889(8) 0.8515(5) 0.2080(2)
C5 C 0.8031(9) 0.6701(5) 0.2188(2)
C6 C 0.781(1) 0.5460(5) 0.1640(2)
H1 H 1.082(7) 0.503(5) 0.109(2)
H2 H 0.630(6) 0.818(4) 0.088(1)
H3 H 0.7425 1.0707 0.1556
H4 H 1.0029 0.9664 0.1662
H5 H 0.5058 0.8420 0.1983
H6 H 0.7092 0.9154 0.2455
H7 H 0.7076 0.6193 0.2522
H8 H 0.9851 0.6794 0.2297
H9 H 0.7998 0.4283 0.1779
H10 H 0.6117 0.5609 0.1456
H11 H 1.00(1) 1.073(5) 0.054(2)
H12 H 0.722(8) 1.089(4) 0.049(1)
H13 H 0.844(8) 0.955(5) 0.007(2)
loop_
_geom_bond_atom_site_label_1
_geom_bond_atom_site_label_2
_geom_bond_site_symmetry_1
_geom_bond_site_symmetry_2
O1 C1 1_555 1_555
N1 C1 1_555 1_555
N2 C2 1_555 1_555
C1 C2 1_555 1_555
C2 C3 1_555 1_555
C3 C4 1_555 1_555
C4 C5 1_555 1_555
C5 C6 1_555 1_555
C6 N1 1_555 1_555
H1 N1 1_555 1_555
H2 C2 1_555 1_555
H3 C3 1_555 1_555
H4 C3 1_555 1_555
H5 C4 1_555 1_555
H6 C4 1_555 1_555
H7 C5 1_555 1_555
H8 C5 1_555 1_555
H9 C6 1_555 1_555
H10 C6 1_555 1_555
H11 N2 1_555 1_555
H12 N2 1_555 1_555
H13 N2 1_555 1_555

#END
