
#######################################################################
#
#                 Cambridge Crystallographic Data Centre
#                                CCDC 
#
#######################################################################
#
# If this CIF has been generated from an entry in the Cambridge 
# Structural Database, then it will include bibliographic, chemical, 
# crystal, experimental, refinement or atomic coordinate data resulting 
# from the CCDC's data processing and validation procedures.
#
#######################################################################

data_FEXSUW
_chemical_formula_moiety         'C16 H13 N1 O5 S1'
_chemical_name_systematic        
3-Methoxycarbonyl-2-methoxycarbonylmethyl-1H-pyrrolo(2,1-c)(1,4)benzothiazin-1-one
_symmetry_cell_setting           triclinic
_symmetry_space_group_name_H-M   'P -1'
_symmetry_Int_Tables_number      2
_space_group_name_Hall           '-P 1'
loop_
_symmetry_equiv_pos_site_id
_symmetry_equiv_pos_as_xyz
1 x,y,z
2 -x,-y,-z
_cell_length_a                   12.326
_cell_length_b                   8.295
_cell_length_c                   7.769
_cell_angle_alpha                79.17
_cell_angle_beta                 81.92
_cell_angle_gamma                76.20
_cell_volume                     753.84
_exptl_crystal_colour            ruby
_chemical_melting_point          55deg.C
_cell_formula_units_Z            2
loop_
_atom_site_label
_atom_site_type_symbol
_atom_site_fract_x
_atom_site_fract_y
_atom_site_fract_z
S1 S 0.8760(1) 0.1905(2) 0.2008(1)
N1 N 0.9804(3) 0.2477(4) -0.1919(4)
C1 C 1.0390(3) 0.2928(4) -0.3545(4)
C2 C 1.0350(3) 0.2787(4) -0.0554(4)
C3 C 1.1333(3) 0.3391(4) -0.1399(4)
C4 C 1.1360(3) 0.3506(5) -0.3171(4)
C5 C 0.9976(3) 0.2569(5) 0.1159(4)
O1 O 1.0137(3) 0.2860(4) -0.4997(3)
C6 C 0.8441(4) 0.1266(6) -0.2961(5)
C7 C 0.7509(4) 0.0560(6) -0.2647(7)
C8 C 0.6943(4) 0.0347(6) -0.0967(7)
C9 C 0.7359(4) 0.0786(6) 0.0407(6)
C10 C 0.8305(3) 0.1477(5) 0.0114(5)
C11 C 0.8847(3) 0.1762(5) -0.1598(5)
O2 O 1.4110(3) 0.3679(4) -0.5415(5)
C12 C 1.2141(4) 0.3798(5) -0.0393(5)
O3 O 1.3421(3) 0.1370(4) -0.4361(5)
O4 O 1.1955(3) 0.4082(5) 0.1087(4)
C13 C 1.3283(3) 0.2861(5) -0.4758(5)
O5 O 1.3127(3) 0.3825(4) -0.1369(4)
C14 C 1.2163(3) 0.4118(5) -0.4634(5)
C15 C 1.3979(5) 0.4226(8) -0.0505(8)
C16 C 1.5242(4) 0.2560(8) -0.5561(10)
H1 H 1.0378 0.2830 0.2030
H2 H 0.8867 0.1463 -0.4290
H3 H 0.7192 0.0214 -0.3740
H4 H 0.6937 0.0680 0.1738
H5 H 1.2307 0.5136 -0.4432
H6 H 1.1810 0.4545 -0.5772
H7 H 1.3611 0.5541 -0.0477
H8 H 1.4820 0.4093 -0.1162
H9 H 1.4007 0.3553 0.0826
H10 H 1.5616 0.2337 -0.4338
H11 H 1.4734 0.1668 -0.5509
loop_
_geom_bond_atom_site_label_1
_geom_bond_atom_site_label_2
_geom_bond_site_symmetry_1
_geom_bond_site_symmetry_2
S1 C5 1_555 1_555
N1 C1 1_555 1_555
C1 C4 1_555 1_555
C2 N1 1_555 1_555
C3 C2 1_555 1_555
C4 C3 1_555 1_555
C5 C2 1_555 1_555
O1 C1 1_555 1_555
C6 C7 1_555 1_555
C7 C8 1_555 1_555
C8 C9 1_555 1_555
C9 C10 1_555 1_555
C10 S1 1_555 1_555
C11 N1 1_555 1_555
O2 C13 1_555 1_555
C12 C3 1_555 1_555
O3 C13 1_555 1_555
O4 C12 1_555 1_555
C13 C14 1_555 1_555
O5 C12 1_555 1_555
C14 C4 1_555 1_555
C15 O5 1_555 1_555
C16 O2 1_555 1_555
H1 C5 1_555 1_555
H2 C6 1_555 1_555
H3 C7 1_555 1_555
H4 C9 1_555 1_555
H5 C14 1_555 1_555
H6 C14 1_555 1_555
H7 C15 1_555 1_555
H8 C15 1_555 1_555
H9 C15 1_555 1_555
H10 C16 1_555 1_555
H11 C16 1_555 1_555
C6 C11 1_555 1_555
C10 C11 1_555 1_555

#END
