
#######################################################################
#
#                 Cambridge Crystallographic Data Centre
#                                CCDC 
#
#######################################################################
#
# If this CIF has been generated from an entry in the Cambridge 
# Structural Database, then it will include bibliographic, chemical, 
# crystal, experimental, refinement or atomic coordinate data resulting 
# from the CCDC's data processing and validation procedures.
#
#######################################################################

data_FEYFAR
_chemical_formula_moiety         'C5 H8 S1 Se1'
_chemical_name_systematic        2-thia-6-selenaspiro(3.3)heptane
_symmetry_cell_setting           monoclinic
_symmetry_space_group_name_H-M   'P 21/c'
_symmetry_Int_Tables_number      14
_space_group_name_Hall           '-P 2ybc'
loop_
_symmetry_equiv_pos_site_id
_symmetry_equiv_pos_as_xyz
1 x,y,z
2 -x,1/2+y,1/2-z
3 -x,-y,-z
4 x,1/2-y,1/2+z
_cell_length_a                   5.8538(5)
_cell_length_b                   19.4846(18)
_cell_length_c                   5.8579(5)
_cell_angle_alpha                90
_cell_angle_beta                 109.1230(10)
_cell_angle_gamma                90
_cell_volume                     631.276
_exptl_crystal_colour            colorless
_exptl_crystal_description       block
_chemical_melting_point          '318 K'
_cell_formula_units_Z            4
loop_
_atom_site_label
_atom_site_type_symbol
_atom_site_fract_x
_atom_site_fract_y
_atom_site_fract_z
Se1 Se 0.3106(7) 0.69704(13) 0.9770(5)
S2 S -0.3465(6) 0.5764(3) 0.4061(8)
C1 C 0.0339(3) 0.65127(8) 1.0213(3)
C2 C 0.2247(3) 0.62173(9) 0.7510(3)
H1 H 0.078(4) 0.6189(10) 1.155(3)
H2 H -0.083(4) 0.6807(10) 1.042(3)
C3 C -0.0289(2) 0.61823(7) 0.7715(2)
H3 H 0.318(4) 0.5867(12) 0.821(4)
H4 H 0.239(4) 0.6299(10) 0.596(4)
C4 C -0.1557(3) 0.54798(7) 0.7236(3)
H5 H -0.258(4) 0.5406(10) 0.824(4)
H6 H -0.055(4) 0.5082(11) 0.734(4)
C5 C -0.2152(3) 0.65750(7) 0.5645(3)
H7 H -0.337(4) 0.6825(11) 0.615(4)
H8 H -0.154(4) 0.6889(10) 0.474(4)
S1? S 0.292(3) 0.6982(4) 0.9781(17)
Se2? Se -0.3450(4) 0.57397(17) 0.4040(6)
loop_
_geom_bond_atom_site_label_1
_geom_bond_atom_site_label_2
_geom_bond_site_symmetry_1
_geom_bond_site_symmetry_2
Se1 C1 1_555 1_555
S2 C4 1_555 1_555
C1 H1 1_555 1_555
C2 Se1 1_555 1_555
H2 C1 1_555 1_555
C3 C1 1_555 1_555
H3 C2 1_555 1_555
H4 C2 1_555 1_555
C4 C3 1_555 1_555
H5 C4 1_555 1_555
H6 C4 1_555 1_555
C5 S2 1_555 1_555
H7 C5 1_555 1_555
H8 C5 1_555 1_555
C2 C3 1_555 1_555
C3 C5 1_555 1_555

#END
