
#######################################################################
#
#                 Cambridge Crystallographic Data Centre
#                                CCDC 
#
#######################################################################
#
# If this CIF has been generated from an entry in the Cambridge 
# Structural Database, then it will include bibliographic, chemical, 
# crystal, experimental, refinement or atomic coordinate data resulting 
# from the CCDC's data processing and validation procedures.
#
#######################################################################

data_FEYJOK
_chemical_formula_moiety         'C24 H15 Cl1'
_chemical_name_systematic        
1-Chloro-4-(1,6-diphenylhex-3-ene-1,5-diyn-3-yl)benzene
_symmetry_cell_setting           monoclinic
_symmetry_space_group_name_H-M   'P 21/n'
_symmetry_Int_Tables_number      14
_space_group_name_Hall           '-P 2yn'
loop_
_symmetry_equiv_pos_site_id
_symmetry_equiv_pos_as_xyz
1 x,y,z
2 1/2-x,1/2+y,1/2-z
3 -x,-y,-z
4 1/2+x,1/2-y,1/2+z
_cell_length_a                   6.076(5)
_cell_length_b                   11.949(9)
_cell_length_c                   25.110(19)
_cell_angle_alpha                90
_cell_angle_beta                 95.463(15)
_cell_angle_gamma                90
_cell_volume                     1814.76
_exptl_crystal_colour            'pale yellow'
_exptl_crystal_description       block
_cell_formula_units_Z            4
loop_
_atom_site_label
_atom_site_type_symbol
_atom_site_fract_x
_atom_site_fract_y
_atom_site_fract_z
Cl1 Cl 1.1925(2) 0.21862(11) 0.00482(4)
C1 C 1.1587(7) 0.2035(3) 0.11108(15)
H1 H 1.3013 0.1701 0.1136
C2 C 1.0556(7) 0.2365(3) 0.06229(15)
C3 C 0.8441(7) 0.2684(3) 0.15433(14)
C4 C 0.7320(7) 0.2861(3) 0.20429(13)
C5 C 1.0488(7) 0.2202(3) 0.15642(14)
H2 H 1.1183 0.1972 0.1901
C6 C 0.2094(7) 0.4207(3) 0.33317(15)
C7 C 1.0285(7) 0.1374(3) 0.33730(14)
C8 C 0.8466(8) 0.2823(3) 0.05877(15)
H3 H 0.7750 0.3025 0.0249
C9 C 0.7413(7) 0.2989(3) 0.10446(14)
H4 H 0.5979 0.3314 0.1019
C10 C 0.3386(7) 0.3955(3) 0.28930(16)
C11 C 0.8299(7) 0.2310(3) 0.25175(15)
C12 C 0.5547(7) 0.3525(3) 0.20629(14)
H5 H 0.4991 0.3884 0.1740
C13 C 0.9181(7) 0.1877(3) 0.29053(14)
C14 C 0.4434(7) 0.3736(3) 0.25240(15)
C15 C 0.0050(7) 0.4694(3) 0.32377(17)
H6 H -0.0522 0.4878 0.2883
C16 C 0.9288(8) 0.1330(3) 0.38487(15)
H7 H 0.7868 0.1653 0.3866
C17 C -0.0364(9) 0.4662(3) 0.4178(2)
H8 H -0.1208 0.4827 0.4468
C18 C 1.0343(9) 0.0822(4) 0.42945(17)
H9 H 0.9657 0.0815 0.4619
C19 C 0.2901(8) 0.3942(3) 0.38554(16)
H10 H 0.4313 0.3603 0.3925
C20 C 1.2371(7) 0.0909(3) 0.33620(17)
H11 H 1.3101 0.0950 0.3044
C21 C -0.1176(8) 0.4917(3) 0.3664(2)
H12 H -0.2596 0.5251 0.3600
C22 C 0.1643(9) 0.4172(3) 0.42705(18)
H13 H 0.2194 0.3985 0.4626
C23 C 1.2343(9) 0.0335(4) 0.42769(19)
H14 H 1.3021 -0.0041 0.4583
C24 C 1.3405(8) 0.0380(4) 0.3813(2)
H15 H 1.4826 0.0054 0.3802
loop_
_geom_bond_atom_site_label_1
_geom_bond_atom_site_label_2
_geom_bond_site_symmetry_1
_geom_bond_site_symmetry_2
Cl1 C2 1_555 1_555
C1 H1 1_555 1_555
C2 C1 1_555 1_555
C3 C4 1_555 1_555
C4 C11 1_555 1_555
C5 C1 1_555 1_555
H2 C5 1_555 1_555
C6 C10 1_555 1_555
C7 C13 1_555 1_555
C8 C2 1_555 1_555
H3 C8 1_555 1_555
C9 C3 1_555 1_555
H4 C9 1_555 1_555
C10 C14 1_555 1_555
C11 C13 1_555 1_555
C12 C4 1_555 1_555
H5 C12 1_555 1_555
C14 C12 1_555 1_555
C15 C6 1_555 1_555
H6 C15 1_555 1_555
C16 C7 1_555 1_555
H7 C16 1_555 1_555
C17 H8 1_555 1_555
C18 C16 1_555 1_555
H9 C18 1_555 1_555
C19 C6 1_555 1_555
H10 C19 1_555 1_555
C20 C7 1_555 1_555
H11 C20 1_555 1_555
C21 C15 1_555 1_555
H12 C21 1_555 1_555
C22 C17 1_555 1_555
H13 C22 1_555 1_555
C23 C18 1_555 1_555
H14 C23 1_555 1_555
C24 C20 1_555 1_555
H15 C24 1_555 1_555
C3 C5 1_555 1_555
C8 C9 1_555 1_555
C17 C21 1_555 1_555
C19 C22 1_555 1_555
C23 C24 1_555 1_555

#END
