
#######################################################################
#
#                 Cambridge Crystallographic Data Centre
#                                CCDC 
#
#######################################################################
#
# If this CIF has been generated from an entry in the Cambridge 
# Structural Database, then it will include bibliographic, chemical, 
# crystal, experimental, refinement or atomic coordinate data resulting 
# from the CCDC's data processing and validation procedures.
#
#######################################################################

data_FEYMOM
_chemical_formula_moiety         'C11 H13 N1 O5,H2 O1'
_chemical_name_systematic        
"3-Ethoxy-4-((2'S)-2'-carboxypyrrolidin-1-yl)-3-cyclobutene-1,2-dione monohydrate"
_symmetry_cell_setting           orthorhombic
_symmetry_space_group_name_H-M   'P 21 21 21'
_symmetry_Int_Tables_number      19
_space_group_name_Hall           'P 2ac 2ab'
loop_
_symmetry_equiv_pos_site_id
_symmetry_equiv_pos_as_xyz
1 x,y,z
2 1/2-x,-y,1/2+z
3 -x,1/2+y,1/2-z
4 1/2+x,1/2-y,-z
_cell_length_a                   6.900(1)
_cell_length_b                   8.752(1)
_cell_length_c                   21.050(4)
_cell_angle_alpha                90
_cell_angle_beta                 90
_cell_angle_gamma                90
_cell_volume                     1271.18
_cell_formula_units_Z            4
loop_
_atom_site_label
_atom_site_type_symbol
_atom_site_fract_x
_atom_site_fract_y
_atom_site_fract_z
N1 N 0.3697(4) 0.6617(4) 0.73795(12)
O1 O 0.7728(4) 0.7820(3) 0.67193(12)
O2 O 0.6262(5) 0.6641(4) 0.53545(11)
O3 O 0.2257(4) 0.5360(3) 0.60550(11)
O4 O 0.6743(4) 0.6148(3) 0.87452(11)
H1 H 0.7535 0.5485 0.8837
O5 O 0.6835(5) 0.4997(3) 0.78173(13)
C1 C 0.3859(6) 0.6092(4) 0.62116(15)
C2 C 0.5586(6) 0.6617(4) 0.58929(16)
C3 C 0.6292(6) 0.7167(4) 0.65285(17)
C4 C 0.4469(5) 0.6605(4) 0.68094(16)
C5 C 0.1650(5) 0.6285(5) 0.75157(17)
H2 H 0.1457 0.5208 0.7605
H3 H 0.0826 0.6583 0.7164
C6 C 0.1255(6) 0.7240(7) 0.8091(2)
H4 H 0.0739 0.8227 0.7967
H5 H 0.0319 0.6737 0.8364
C7 C 0.3122(6) 0.7428(6) 0.84260(18)
H6 H 0.3215 0.6704 0.8773
H7 H 0.3222 0.8453 0.8599
C8 C 0.4729(5) 0.7150(4) 0.79513(15)
H8 H 0.5390 0.8116 0.7858
C9 C 0.6197(5) 0.5972(4) 0.81580(16)
C10 C 0.2119(8) 0.4896(6) 0.53827(18)
H9 H 0.2084 0.5796 0.5114
H10 H 0.3247 0.4296 0.5267
C11 C 0.0400(9) 0.4014(7) 0.5290(2)
H11 H 0.0395 0.3167 0.5580
H12 H 0.0365 0.3639 0.4861
H13 H -0.0717 0.4642 0.5366
O6 O 0.5655(5) 0.5808(5) 0.41115(15)
H14 H 0.562(5) 0.603(4) 0.4489(5)
H15 H 0.480(5) 0.621(5) 0.3899(14)
loop_
_geom_bond_atom_site_label_1
_geom_bond_atom_site_label_2
_geom_bond_site_symmetry_1
_geom_bond_site_symmetry_2
N1 C4 1_555 1_555
O1 C3 1_555 1_555
O2 C2 1_555 1_555
O3 C1 1_555 1_555
O4 H1 1_555 1_555
O5 C9 1_555 1_555
C1 C2 1_555 1_555
C2 C3 1_555 1_555
C3 C4 1_555 1_555
C4 C1 1_555 1_555
C5 N1 1_555 1_555
H2 C5 1_555 1_555
H3 C5 1_555 1_555
C6 C5 1_555 1_555
H4 C6 1_555 1_555
H5 C6 1_555 1_555
C7 C6 1_555 1_555
H6 C7 1_555 1_555
H7 C7 1_555 1_555
C8 N1 1_555 1_555
H8 C8 1_555 1_555
C9 O4 1_555 1_555
C10 O3 1_555 1_555
H9 C10 1_555 1_555
H10 C10 1_555 1_555
C11 C10 1_555 1_555
H11 C11 1_555 1_555
H12 C11 1_555 1_555
H13 C11 1_555 1_555
O6 H14 1_555 1_555
H15 O6 1_555 1_555
C7 C8 1_555 1_555
C8 C9 1_555 1_555

#END
