
#######################################################################
#
#                 Cambridge Crystallographic Data Centre
#                                CCDC 
#
#######################################################################
#
# If this CIF has been generated from an entry in the Cambridge 
# Structural Database, then it will include bibliographic, chemical, 
# crystal, experimental, refinement or atomic coordinate data resulting 
# from the CCDC's data processing and validation procedures.
#
#######################################################################

data_FEYSUZ
_chemical_formula_moiety         'C17 H17 N3'
_chemical_name_systematic        
2-Cyclohexyl-1-(prop-2-yn-1-yl)-1H-benzimidazole-6-carbonitrile
_symmetry_cell_setting           monoclinic
_symmetry_space_group_name_H-M   'P 21/c'
_symmetry_Int_Tables_number      14
_space_group_name_Hall           '-P 2ybc'
loop_
_symmetry_equiv_pos_site_id
_symmetry_equiv_pos_as_xyz
1 x,y,z
2 -x,1/2+y,1/2-z
3 -x,-y,-z
4 x,1/2-y,1/2+z
_cell_length_a                   8.6702(6)
_cell_length_b                   21.3177(16)
_cell_length_c                   8.0274(6)
_cell_angle_alpha                90
_cell_angle_beta                 110.056(2)
_cell_angle_gamma                90
_cell_volume                     1393.72
_exptl_crystal_colour            colorless
_exptl_crystal_description       rod
_cell_formula_units_Z            4
loop_
_atom_site_label
_atom_site_type_symbol
_atom_site_fract_x
_atom_site_fract_y
_atom_site_fract_z
N1 N 0.22583(10) 0.47883(4) 1.07539(11)
N2 N 0.12964(10) 0.52695(4) 0.81090(11)
N3 N 0.21115(11) 0.21303(4) 0.82484(12)
C1 C 0.19032(11) 0.53502(4) 0.98437(13)
C2 C 0.19065(11) 0.43168(5) 0.94942(13)
C3 C 0.21181(11) 0.36715(4) 0.96698(13)
H1 H 0.2620(15) 0.3453(6) 1.0898(18)
C4 C 0.16475(12) 0.33334(5) 0.80854(13)
C5 C 0.09948(12) 0.36281(5) 0.64135(13)
H2 H 0.0727(15) 0.3376(6) 0.5306(19)
C6 C 0.08161(12) 0.42735(5) 0.62811(14)
H3 H 0.0381(15) 0.4471(6) 0.5141(19)
C7 C 0.12910(11) 0.46243(5) 0.78484(13)
C8 C 0.22562(11) 0.59771(4) 1.07549(13)
H4 H 0.1710(16) 0.5990(6) 1.1654(18)
C9 C 0.41161(12) 0.60732(5) 1.17438(14)
H5 H 0.4608(15) 0.5719(6) 1.2636(17)
H6 H 0.4663(16) 0.6048(6) 1.0824(19)
C10 C 0.44171(13) 0.67071(5) 1.26993(15)
H7 H 0.3832(16) 0.6712(6) 1.3602(19)
H8 H 0.5603(17) 0.6756(7) 1.3318(19)
C11 C 0.37551(13) 0.72470(5) 1.13984(15)
H9 H 0.4317(16) 0.7265(7) 1.0536(19)
H10 H 0.3912(15) 0.7668(7) 1.2021(19)
C12 C 0.19282(13) 0.71538(5) 1.03487(15)
H11 H 0.1303(16) 0.7190(7) 1.1184(18)
H12 H 0.1496(14) 0.7495(7) 0.9421(18)
C13 C 0.16010(12) 0.65138(5) 0.94272(14)
H13 H 0.2172(15) 0.6498(6) 0.8536(17)
H14 H 0.0393(16) 0.6450(6) 0.8769(18)
C14 C 0.28939(12) 0.46658(5) 1.26623(13)
H15 H 0.2193(14) 0.4341(6) 1.2879(17)
H16 H 0.2809(14) 0.5057(6) 1.3281(16)
C15 C 0.46207(12) 0.44639(5) 1.32288(13)
C16 C 0.60001(14) 0.42961(6) 1.35832(15)
H17 H 0.713(2) 0.4165(8) 1.390(2)
C17 C 0.18970(12) 0.26638(5) 0.81693(14)
loop_
_geom_bond_atom_site_label_1
_geom_bond_atom_site_label_2
_geom_bond_site_symmetry_1
_geom_bond_site_symmetry_2
N1 C1 1_555 1_555
N2 C1 1_555 1_555
N3 C17 1_555 1_555
C1 C8 1_555 1_555
C2 N1 1_555 1_555
C3 C2 1_555 1_555
H1 C3 1_555 1_555
C4 C3 1_555 1_555
C5 C4 1_555 1_555
H2 C5 1_555 1_555
C6 C5 1_555 1_555
H3 C6 1_555 1_555
C7 N2 1_555 1_555
C8 H4 1_555 1_555
C9 C8 1_555 1_555
H5 C9 1_555 1_555
H6 C9 1_555 1_555
C10 C9 1_555 1_555
H7 C10 1_555 1_555
H8 C10 1_555 1_555
C11 C10 1_555 1_555
H9 C11 1_555 1_555
H10 C11 1_555 1_555
C12 C11 1_555 1_555
H11 C12 1_555 1_555
H12 C12 1_555 1_555
C13 C8 1_555 1_555
H13 C13 1_555 1_555
H14 C13 1_555 1_555
C14 N1 1_555 1_555
H15 C14 1_555 1_555
H16 C14 1_555 1_555
C15 C14 1_555 1_555
C16 C15 1_555 1_555
H17 C16 1_555 1_555
C17 C4 1_555 1_555
C2 C7 1_555 1_555
C6 C7 1_555 1_555
C12 C13 1_555 1_555

#END
