
#######################################################################
#
#                 Cambridge Crystallographic Data Centre
#                                CCDC 
#
#######################################################################
#
# If this CIF has been generated from an entry in the Cambridge 
# Structural Database, then it will include bibliographic, chemical, 
# crystal, experimental, refinement or atomic coordinate data resulting 
# from the CCDC's data processing and validation procedures.
#
#######################################################################

data_FEYYAM
_chemical_formula_moiety         'C24 H31 N1 O4'
_chemical_name_systematic        
'diethyl 7-cyclohexyl-1-phenyl-6,7-dihydro-1H-azepine-3,4-dicarboxylate'
_symmetry_cell_setting           orthorhombic
_symmetry_space_group_name_H-M   'P b c a'
_symmetry_Int_Tables_number      61
_space_group_name_Hall           '-P 2ac 2ab'
loop_
_symmetry_equiv_pos_site_id
_symmetry_equiv_pos_as_xyz
1 x,y,z
2 1/2-x,-y,1/2+z
3 -x,1/2+y,1/2-z
4 1/2+x,1/2-y,-z
5 -x,-y,-z
6 1/2+x,y,1/2-z
7 x,1/2-y,1/2+z
8 1/2-x,1/2+y,z
_cell_length_a                   11.923(2)
_cell_length_b                   18.737(4)
_cell_length_c                   19.416(4)
_cell_angle_alpha                90
_cell_angle_beta                 90
_cell_angle_gamma                90
_cell_volume                     4337.56
_exptl_crystal_colour            white
_cell_formula_units_Z            8
loop_
_atom_site_label
_atom_site_type_symbol
_atom_site_fract_x
_atom_site_fract_y
_atom_site_fract_z
O1 O 0.62577(11) 0.06402(7) 0.61606(7)
O2 O 0.54096(12) 0.11377(8) 0.52535(7)
O3 O 0.64439(10) 0.23992(7) 0.58625(7)
O4 O 0.52450(11) 0.32604(7) 0.55392(7)
N1 N 0.26705(11) 0.24016(7) 0.66854(7)
C1 C 0.35879(13) 0.25989(8) 0.63204(8)
H1 H 0.3545 0.3066 0.6133
C2 C 0.45660(13) 0.22469(9) 0.61721(8)
C3 C 0.48943(13) 0.15239(9) 0.63801(9)
C4 C 0.45368(13) 0.12023(9) 0.69555(8)
H2 H 0.4824 0.0744 0.7069
C5 C 0.37025(13) 0.15416(9) 0.74238(9)
H3 H 0.4020 0.1990 0.7610
H4 H 0.3552 0.1218 0.7816
C6 C 0.25833(13) 0.17078(8) 0.70461(8)
H5 H 0.1993 0.1762 0.7408
C7 C 0.21925(13) 0.11119(8) 0.65595(8)
H6 H 0.2748 0.1072 0.6175
C8 C 0.10413(14) 0.12770(9) 0.62467(9)
H7 H 0.0495 0.1359 0.6623
H8 H 0.1092 0.1721 0.5972
C9 C 0.06173(17) 0.06737(10) 0.57882(10)
H9 H 0.1116 0.0626 0.5383
H10 H -0.0145 0.0791 0.5620
C10 C 0.05841(17) -0.00324(10) 0.61794(11)
H11 H 0.0027 -0.0001 0.6557
H12 H 0.0349 -0.0420 0.5864
C11 C 0.17297(17) -0.02051(9) 0.64768(11)
H13 H 0.2269 -0.0281 0.6096
H14 H 0.1683 -0.0653 0.6746
C12 C 0.21536(15) 0.03924(9) 0.69387(10)
H15 H 0.2915 0.0272 0.7105
H16 H 0.1656 0.0435 0.7345
C13 C 0.18204(13) 0.29307(8) 0.68104(8)
C14 C 0.14955(16) 0.30878(9) 0.74792(9)
H17 H 0.1824 0.2840 0.7855
C15 C 0.06896(17) 0.36084(10) 0.75984(10)
H18 H 0.0463 0.3711 0.8057
C16 C 0.02169(16) 0.39761(10) 0.70591(10)
H19 H -0.0330 0.4334 0.7144
C17 C 0.05415(15) 0.38214(10) 0.63923(10)
H20 H 0.0217 0.4075 0.6018
C18 C 0.13387(14) 0.32976(9) 0.62652(9)
H21 H 0.1554 0.3191 0.5806
C19 C 0.54085(14) 0.26910(9) 0.58144(9)
C20 C 0.73483(16) 0.27685(11) 0.55179(11)
H22 H 0.7392 0.3267 0.5684
H23 H 0.7210 0.2778 0.5015
C21 C 0.8406(2) 0.2397(2) 0.56625(16)
H24 H 0.8544 0.2396 0.6160
H25 H 0.9023 0.2643 0.5428
H26 H 0.8358 0.1904 0.5496
C22 C 0.55420(14) 0.10966(9) 0.58665(9)
C23 C 0.6886(2) 0.01832(12) 0.56905(12)
H27 H 0.7347 0.0475 0.5374
H28 H 0.6368 -0.0114 0.5414
C24 C 0.7609(2) -0.02722(14) 0.61255(15)
H29 H 0.8075 0.0030 0.6422
H30 H 0.8092 -0.0565 0.5831
H31 H 0.7140 -0.0583 0.6411
loop_
_geom_bond_atom_site_label_1
_geom_bond_atom_site_label_2
_geom_bond_site_symmetry_1
_geom_bond_site_symmetry_2
O1 C22 1_555 1_555
O2 C22 1_555 1_555
O3 C19 1_555 1_555
O4 C19 1_555 1_555
N1 C1 1_555 1_555
C1 H1 1_555 1_555
C2 C1 1_555 1_555
C3 C2 1_555 1_555
C4 C3 1_555 1_555
H2 C4 1_555 1_555
C5 C4 1_555 1_555
H3 C5 1_555 1_555
H4 C5 1_555 1_555
C6 N1 1_555 1_555
H5 C6 1_555 1_555
C7 C6 1_555 1_555
H6 C7 1_555 1_555
C8 C7 1_555 1_555
H7 C8 1_555 1_555
H8 C8 1_555 1_555
C9 C8 1_555 1_555
H9 C9 1_555 1_555
H10 C9 1_555 1_555
C10 C9 1_555 1_555
H11 C10 1_555 1_555
H12 C10 1_555 1_555
C11 C10 1_555 1_555
H13 C11 1_555 1_555
H14 C11 1_555 1_555
C12 C7 1_555 1_555
H15 C12 1_555 1_555
H16 C12 1_555 1_555
C13 N1 1_555 1_555
C14 C13 1_555 1_555
H17 C14 1_555 1_555
C15 C14 1_555 1_555
H18 C15 1_555 1_555
C16 C15 1_555 1_555
H19 C16 1_555 1_555
C17 C16 1_555 1_555
H20 C17 1_555 1_555
C18 C13 1_555 1_555
H21 C18 1_555 1_555
C19 C2 1_555 1_555
C20 O3 1_555 1_555
H22 C20 1_555 1_555
H23 C20 1_555 1_555
C21 C20 1_555 1_555
H24 C21 1_555 1_555
H25 C21 1_555 1_555
H26 C21 1_555 1_555
C22 C3 1_555 1_555
C23 O1 1_555 1_555
H27 C23 1_555 1_555
H28 C23 1_555 1_555
C24 C23 1_555 1_555
H29 C24 1_555 1_555
H30 C24 1_555 1_555
H31 C24 1_555 1_555
C5 C6 1_555 1_555
C11 C12 1_555 1_555
C17 C18 1_555 1_555

#END
