
#######################################################################
#
#                 Cambridge Crystallographic Data Centre
#                                CCDC 
#
#######################################################################
#
# If this CIF has been generated from an entry in the Cambridge 
# Structural Database, then it will include bibliographic, chemical, 
# crystal, experimental, refinement or atomic coordinate data resulting 
# from the CCDC's data processing and validation procedures.
#
#######################################################################

data_FEYYAL
_chemical_formula_moiety         'C18 H19 N1 O4'
_chemical_name_systematic        
't-Butyl 2-(furan-2-carbonyl)indoline-1-carboxylate'
_symmetry_cell_setting           monoclinic
_symmetry_space_group_name_H-M   'P 21/c'
_symmetry_Int_Tables_number      14
_space_group_name_Hall           '-P 2ybc'
loop_
_symmetry_equiv_pos_site_id
_symmetry_equiv_pos_as_xyz
1 x,y,z
2 -x,1/2+y,1/2-z
3 -x,-y,-z
4 x,1/2-y,1/2+z
_cell_length_a                   14.325(5)
_cell_length_b                   7.607(2)
_cell_length_c                   16.273(6)
_cell_angle_alpha                90
_cell_angle_beta                 106.477(7)
_cell_angle_gamma                90
_cell_volume                     1700.45
_exptl_crystal_colour            colorless
_exptl_crystal_description       Prism
_chemical_melting_point          '386 K'
_cell_formula_units_Z            4
loop_
_atom_site_label
_atom_site_type_symbol
_atom_site_fract_x
_atom_site_fract_y
_atom_site_fract_z
O1 O 0.43267(7) 0.28205(12) 0.18959(6)
O2 O 0.33428(8) -0.02898(13) 0.15109(7)
O3 O 0.16902(7) -0.30684(13) -0.05156(6)
O4 O 0.25096(7) -0.05000(14) -0.05290(6)
N1 N 0.15770(8) -0.07411(15) 0.03372(7)
C1 C 0.46073(11) 0.45248(19) 0.19420(10)
H1 H 0.5215 0.4948 0.2289
C2 C 0.39136(11) 0.5538(2) 0.14326(10)
H2 H 0.3939 0.6774 0.1357
C3 C 0.31340(11) 0.43978(19) 0.10286(9)
H3 H 0.2537 0.4721 0.0627
C4 C 0.34071(10) 0.27599(18) 0.13273(8)
C5 C 0.29399(10) 0.10575(19) 0.11870(9)
C6 C 0.18740(10) 0.10473(18) 0.06404(9)
H4 H 0.1778 0.1874 0.0145
C7 C 0.11970(10) 0.15422(19) 0.11961(9)
H5 H 0.1580 0.1930 0.1774
H6 H 0.0742 0.2492 0.0923
C8 C 0.06576(10) -0.01304(18) 0.12432(8)
C9 C -0.00247(10) -0.0476(2) 0.16782(9)
H7 H -0.0207 0.0414 0.2013
C10 C -0.04377(11) -0.2131(2) 0.16197(9)
H8 H -0.0916 -0.2372 0.1906
C11 C -0.01585(10) -0.3441(2) 0.11464(9)
H9 H -0.0434 -0.4581 0.1126
C12 C 0.05209(10) -0.31092(19) 0.06990(8)
H10 H 0.0711 -0.4004 0.0372
C13 C 0.09100(9) -0.14326(18) 0.07469(8)
C14 C 0.19117(10) -0.1586(2) -0.02648(9)
C15 C 0.30532(11) -0.1113(2) -0.11273(10)
C16 C 0.23564(13) -0.1569(3) -0.19891(10)
H11 H 0.1948 -0.2563 -0.1924
H12 H 0.2727 -0.1887 -0.2389
H13 H 0.1942 -0.0551 -0.2212
C17 C 0.36427(14) 0.0515(3) -0.11948(13)
H14 H 0.3200 0.1489 -0.1430
H15 H 0.4051 0.0270 -0.1573
H16 H 0.4057 0.0835 -0.0624
C18 C 0.37123(14) -0.2616(3) -0.07253(14)
H17 H 0.4100 -0.2280 -0.0148
H18 H 0.4147 -0.2893 -0.1076
H19 H 0.3318 -0.3651 -0.0691
loop_
_geom_bond_atom_site_label_1
_geom_bond_atom_site_label_2
_geom_bond_site_symmetry_1
_geom_bond_site_symmetry_2
O1 C1 1_555 1_555
O2 C5 1_555 1_555
O3 C14 1_555 1_555
O4 C14 1_555 1_555
N1 C6 1_555 1_555
C1 H1 1_555 1_555
C2 C1 1_555 1_555
H2 C2 1_555 1_555
C3 C2 1_555 1_555
H3 C3 1_555 1_555
C4 O1 1_555 1_555
C5 C4 1_555 1_555
C6 C5 1_555 1_555
H4 C6 1_555 1_555
C7 C6 1_555 1_555
H5 C7 1_555 1_555
H6 C7 1_555 1_555
C8 C7 1_555 1_555
C9 C8 1_555 1_555
H7 C9 1_555 1_555
C10 C9 1_555 1_555
H8 C10 1_555 1_555
C11 C10 1_555 1_555
H9 C11 1_555 1_555
C12 C11 1_555 1_555
H10 C12 1_555 1_555
C13 N1 1_555 1_555
C14 N1 1_555 1_555
C15 O4 1_555 1_555
C16 C15 1_555 1_555
H11 C16 1_555 1_555
H12 C16 1_555 1_555
H13 C16 1_555 1_555
C17 C15 1_555 1_555
H14 C17 1_555 1_555
H15 C17 1_555 1_555
H16 C17 1_555 1_555
C18 C15 1_555 1_555
H17 C18 1_555 1_555
H18 C18 1_555 1_555
H19 C18 1_555 1_555
C3 C4 1_555 1_555
C8 C13 1_555 1_555
C12 C13 1_555 1_555

#END
