
#######################################################################
#
#                 Cambridge Crystallographic Data Centre
#                                CCDC 
#
#######################################################################
#
# If this CIF has been generated from an entry in the Cambridge 
# Structural Database, then it will include bibliographic, chemical, 
# crystal, experimental, refinement or atomic coordinate data resulting 
# from the CCDC's data processing and validation procedures.
#
#######################################################################

data_FEZBIW
_chemical_formula_moiety         'C14 H14 N6 O1 S1'
_chemical_name_systematic        
1-(1'-Phenyl-5'-methyl-4'-pyrazolylcarbonyl)-3-methylthio-5-amino-1H-1,2,4-triazole
_chemical_properties_biological  'some herbicidal and antifungal activity'
_symmetry_cell_setting           triclinic
_symmetry_space_group_name_H-M   'P -1'
_symmetry_Int_Tables_number      2
_space_group_name_Hall           '-P 1'
loop_
_symmetry_equiv_pos_site_id
_symmetry_equiv_pos_as_xyz
1 x,y,z
2 -x,-y,-z
_cell_length_a                   8.026(3)
_cell_length_b                   8.651(4)
_cell_length_c                   11.369(5)
_cell_angle_alpha                89.917(7)
_cell_angle_beta                 89.084(7)
_cell_angle_gamma                68.470(6)
_cell_volume                     734.202
_exptl_crystal_colour            'light yellow'
_chemical_melting_point          208-209deg.C
_cell_formula_units_Z            2
loop_
_atom_site_label
_atom_site_type_symbol
_atom_site_fract_x
_atom_site_fract_y
_atom_site_fract_z
S1 S 0.69642(8) 0.19042(7) 0.98995(5)
N1 N 0.65439(19) 0.57215(18) 0.81001(13)
N2 N 0.60102(19) 0.43847(18) 0.83236(13)
N3 N 0.8090(2) 0.4468(2) 0.96421(13)
N4 N 0.8609(3) 0.6827(3) 0.8921(2)
H1 H 0.955(3) 0.660(3) 0.933(2)
H2 H 0.849(3) 0.743(3) 0.828(2)
N5 N 0.22774(19) 0.71795(18) 0.52224(12)
N6 N 0.16844(19) 0.65088(19) 0.61617(13)
O1 O 0.66166(19) 0.77995(18) 0.69240(13)
C1 C 0.7814(2) 0.5715(2) 0.89050(17)
C2 C 0.6979(2) 0.3706(2) 0.92328(15)
C3 C 0.5551(3) 0.1371(3) 0.89064(19)
H3 H 0.4359 0.2190 0.8959
H4 H 0.5528 0.0301 0.9110
H5 H 0.6008 0.1336 0.8117
C4 C 0.5889(2) 0.6824(2) 0.71627(16)
C5 C 0.3864(2) 0.7333(2) 0.54173(15)
C6 C 0.4341(2) 0.6738(2) 0.65492(15)
C7 C 0.2947(2) 0.6243(2) 0.69454(16)
H6 H 0.2919 0.5779 0.7680
C8 C 0.4894(3) 0.7860(3) 0.45069(17)
H7 H 0.4768 0.7410 0.3757
H8 H 0.6137 0.7459 0.4711
H9 H 0.4444 0.9051 0.4465
C9 C 0.1170(2) 0.7634(2) 0.42021(15)
C10 C 0.0882(2) 0.9130(2) 0.36486(16)
H10 H 0.1409 0.9849 0.3928
C11 C -0.0196(3) 0.9543(3) 0.26742(17)
H11 H -0.0375 1.0536 0.2284
C12 C -0.1007(3) 0.8499(3) 0.22777(18)
H12 H -0.1735 0.8788 0.1623
C13 C -0.0744(3) 0.7032(3) 0.28459(18)
H13 H -0.1310 0.6336 0.2581
C14 C 0.0357(2) 0.6578(2) 0.38096(16)
H14 H 0.0548 0.5576 0.4189
loop_
_geom_bond_atom_site_label_1
_geom_bond_atom_site_label_2
_geom_bond_site_symmetry_1
_geom_bond_site_symmetry_2
S1 C2 1_555 1_555
N1 N2 1_555 1_555
N2 C2 1_555 1_555
N3 C1 1_555 1_555
N4 H1 1_555 1_555
H2 N4 1_555 1_555
N5 N6 1_555 1_555
N6 C7 1_555 1_555
O1 C4 1_555 1_555
C1 N1 1_555 1_555
C2 N3 1_555 1_555
C3 S1 1_555 1_555
H3 C3 1_555 1_555
H4 C3 1_555 1_555
H5 C3 1_555 1_555
C4 N1 1_555 1_555
C5 N5 1_555 1_555
C6 C4 1_555 1_555
C7 C6 1_555 1_555
H6 C7 1_555 1_555
C8 C5 1_555 1_555
H7 C8 1_555 1_555
H8 C8 1_555 1_555
H9 C8 1_555 1_555
C9 N5 1_555 1_555
C10 C9 1_555 1_555
H10 C10 1_555 1_555
C11 C10 1_555 1_555
H11 C11 1_555 1_555
C12 C11 1_555 1_555
H12 C12 1_555 1_555
C13 C12 1_555 1_555
H13 C13 1_555 1_555
C14 C9 1_555 1_555
H14 C14 1_555 1_555
N4 C1 1_555 1_555
C5 C6 1_555 1_555
C13 C14 1_555 1_555

#END
