
#######################################################################
#
#                 Cambridge Crystallographic Data Centre
#                                CCDC 
#
#######################################################################
#
# If this CIF has been generated from an entry in the Cambridge 
# Structural Database, then it will include bibliographic, chemical, 
# crystal, experimental, refinement or atomic coordinate data resulting 
# from the CCDC's data processing and validation procedures.
#
#######################################################################

data_FEZBOB
_chemical_formula_moiety         'C16 H18 N1 O2 1+,Cl1 1-'
_chemical_name_systematic        'L-Phenylalanine benzyl ester chloride'
_chemical_properties_biological  'antisickling agent'
_symmetry_cell_setting           orthorhombic
_symmetry_space_group_name_H-M   'P 21 21 21'
_symmetry_Int_Tables_number      19
_space_group_name_Hall           'P 2ac 2ab'
loop_
_symmetry_equiv_pos_site_id
_symmetry_equiv_pos_as_xyz
1 x,y,z
2 1/2+x,1/2-y,-z
3 -x,1/2+y,1/2-z
4 1/2-x,-y,1/2+z
_cell_length_a                   5.221(1)
_cell_length_b                   8.674(1)
_cell_length_c                   33.880(3)
_cell_angle_alpha                90
_cell_angle_beta                 90
_cell_angle_gamma                90
_cell_volume                     1534.32
_cell_formula_units_Z            4
loop_
_atom_site_label
_atom_site_type_symbol
_atom_site_fract_x
_atom_site_fract_y
_atom_site_fract_z
Cl1 Cl 0.1026(3) 0.08943(17) 0.22891(4)
C1 C 0.3025(1) 0.5730(6) 0.18898(14)
O1 O 0.4372(9) 0.4764(5) 0.20322(11)
N1 N 0.3801(8) 0.7572(5) 0.24128(10)
C2 C 0.3205(10) 0.7447(6) 0.19843(13)
C3 C 0.5285(10) 0.8228(7) 0.17436(15)
C4 C 0.4606(11) 0.8350(7) 0.13148(15)
C5 C 0.2567(12) 0.9277(8) 0.11964(17)
C6 C 0.1942(15) 0.9390(10) 0.0800(2)
C7 C 0.3277(18) 0.8547(10) 0.0523(2)
C8 C 0.5305(18) 0.7649(10) 0.0634(2)
C9 C 0.5960(14) 0.7541(8) 0.10338(18)
O2 O 0.1209(9) 0.5458(4) 0.16247(10)
C10 C 0.0792(18) 0.3818(6) 0.15331(18)
C11 C -0.0244(12) 0.3710(7) 0.11260(17)
C12 C 0.0825(14) 0.4492(8) 0.08153(17)
C13 C -0.0038(15) 0.4315(10) 0.0434(2)
C14 C -0.2071(17) 0.3372(10) 0.0365(2)
C15 C -0.3203(16) 0.2576(10) 0.0664(3)
C16 C -0.2342(14) 0.2739(8) 0.1055(2)
H1 H 0.3946(8) 0.8771(5) 0.24956(10)
H2 H 0.5596(8) 0.7000(5) 0.24726(10)
H3 H 0.2292(8) 0.7030(5) 0.25811(10)
H4 H 0.1430(10) 0.8030(6) 0.19178(13)
H5 H 0.7022(10) 0.7560(7) 0.17711(15)
H6 H 0.5607(10) 0.9376(7) 0.18568(15)
H7 H 0.1521(12) 0.9921(8) 0.14164(17)
H8 H 0.0412(15) 1.0142(10) 0.0706(2)
H9 H 0.2712(18) 0.8564(10) 0.0217(2)
H10 H 0.6411(18) 0.7044(10) 0.0414(2)
H11 H 0.7554(14) 0.6827(8) 0.11223(18)
H12 H 0.2553(18) 0.3172(6) 0.15578(18)
H13 H -0.0604(18) 0.3358(6) 0.17367(18)
H14 H 0.2398(14) 0.5263(8) 0.08775(17)
H15 H 0.0875(15) 0.4922(10) 0.0194(2)
H16 H -0.2796(17) 0.3234(10) 0.0069(2)
H17 H -0.4811(16) 0.1839(10) 0.0596(3)
H18 H -0.3255(14) 0.2118(8) 0.1293(2)
loop_
_geom_bond_atom_site_label_1
_geom_bond_atom_site_label_2
_geom_bond_site_symmetry_1
_geom_bond_site_symmetry_2
C1 O1 1_555 1_555
N1 C2 1_555 1_555
C2 C1 1_555 1_555
C3 C2 1_555 1_555
C4 C3 1_555 1_555
C5 C4 1_555 1_555
C6 C5 1_555 1_555
C7 C6 1_555 1_555
C8 C7 1_555 1_555
C9 C4 1_555 1_555
O2 C1 1_555 1_555
C10 O2 1_555 1_555
C11 C10 1_555 1_555
C12 C11 1_555 1_555
C13 C12 1_555 1_555
C14 C13 1_555 1_555
C15 C14 1_555 1_555
C16 C11 1_555 1_555
H1 N1 1_555 1_555
H2 N1 1_555 1_555
H3 N1 1_555 1_555
H4 C2 1_555 1_555
H5 C3 1_555 1_555
H6 C3 1_555 1_555
H7 C5 1_555 1_555
H8 C6 1_555 1_555
H9 C7 1_555 1_555
H10 C8 1_555 1_555
H11 C9 1_555 1_555
H12 C10 1_555 1_555
H13 C10 1_555 1_555
H14 C12 1_555 1_555
H15 C13 1_555 1_555
H16 C14 1_555 1_555
H17 C15 1_555 1_555
H18 C16 1_555 1_555
C8 C9 1_555 1_555
C15 C16 1_555 1_555

#END
