
#######################################################################
#
#                 Cambridge Crystallographic Data Centre
#                                CCDC 
#
#######################################################################
#
# If this CIF has been generated from an entry in the Cambridge 
# Structural Database, then it will include bibliographic, chemical, 
# crystal, experimental, refinement or atomic coordinate data resulting 
# from the CCDC's data processing and validation procedures.
#
#######################################################################

data_FEZCAP
_chemical_formula_moiety         'C20 H20 O4'
_chemical_name_systematic        
9-(4-Methoxyphenyl)-1,8-dioxo-3,4,5,6,7,9-hexahydroxanthene
_symmetry_cell_setting           orthorhombic
_symmetry_space_group_name_H-M   'P b c n'
_symmetry_Int_Tables_number      60
_space_group_name_Hall           '-P 2n 2ab'
loop_
_symmetry_equiv_pos_site_id
_symmetry_equiv_pos_as_xyz
1 x,y,z
2 1/2-x,1/2-y,1/2+z
3 -x,y,1/2-z
4 1/2+x,1/2-y,-z
5 -x,-y,-z
6 1/2+x,1/2+y,1/2-z
7 x,-y,1/2+z
8 1/2-x,1/2+y,z
_cell_length_a                   15.823(2)
_cell_length_b                   18.002(3)
_cell_length_c                   11.674(2)
_cell_angle_alpha                90
_cell_angle_beta                 90
_cell_angle_gamma                90
_cell_volume                     3325.29
_chemical_melting_point          201-202deg.C
_cell_formula_units_Z            8
loop_
_atom_site_label
_atom_site_type_symbol
_atom_site_fract_x
_atom_site_fract_y
_atom_site_fract_z
O1 O 0.16807(9) 0.12954(8) 1.00937(11)
O2 O 0.14657(10) 0.32893(8) 0.75016(13)
O3 O 0.37843(10) 0.12733(11) 0.72264(15)
O4 O 0.08193(9) 0.06576(8) 0.38327(11)
C1 C 0.13005(13) 0.19155(11) 0.96378(16)
C2 C 0.06128(13) 0.21923(12) 1.03958(17)
H1 H 0.0857 0.2451 1.1046
H2 H 0.0288 0.1775 1.0684
C3 C 0.00357(15) 0.27130(12) 0.9750(2)
H3 H -0.0309 0.2430 0.9219
H4 H -0.0339 0.2961 1.0285
C4 C 0.05360(15) 0.32833(13) 0.9100(2)
H5 H 0.0152 0.3577 0.8638
H6 H 0.0807 0.3615 0.9643
C5 C 0.11968(14) 0.29530(12) 0.83390(18)
C6 C 0.15522(12) 0.22263(11) 0.86609(16)
C7 C 0.22158(12) 0.18805(11) 0.79046(15)
H7 H 0.2618 0.2270 0.7690
C8 C 0.26898(13) 0.12985(11) 0.85749(17)
C9 C 0.34898(14) 0.10107(13) 0.8103(2)
C10 C 0.3868(4) 0.0363(3) 0.8706(4)
H8 H 0.4469 0.0350 0.8541
H9 H 0.3621 -0.0088 0.8399
C11 C 0.37498(18) 0.0367(3) 0.9979(3)
H10 H 0.4082 0.0766 1.0310
H11 H 0.3953 -0.0098 1.0294
C12 C 0.28355(14) 0.04692(13) 1.02980(19)
H12 H 0.2539 0.0001 1.0204
H13 H 0.2797 0.0612 1.1098
C15 C 0.24230(13) 0.10451(11) 0.95816(18)
C16 C 0.18346(12) 0.15672(11) 0.68058(15)
C17 C 0.11833(13) 0.10547(11) 0.68250(15)
H20 H 0.0962 0.0905 0.7526
C18 C 0.08560(13) 0.07618(11) 0.58296(16)
H21 H 0.0418 0.0418 0.5863
C19 C 0.11762(13) 0.09784(11) 0.47838(15)
C20 C 0.18155(13) 0.14922(12) 0.47481(17)
H22 H 0.2033 0.1646 0.4047
C21 C 0.21354(12) 0.17796(12) 0.57526(17)
H23 H 0.2568 0.2128 0.5716
C22 C 0.11386(17) 0.08863(15) 0.27540(16)
H24 H 0.1074 0.1414 0.2676
H25 H 0.0832 0.0640 0.2154
H26 H 0.1727 0.0759 0.2701
C13? C 0.3987(6) 0.0452(8) 0.8750(15)
H14? H 0.4433 0.0701 0.9172
H15? H 0.4249 0.0109 0.8217
C14? C 0.3438(7) 0.0028(5) 0.9568(9)
H16? H 0.3804 -0.0253 1.0074
H17? H 0.3111 -0.0327 0.9129
H18? H 0.2411 0.0142 1.0622
H19? H 0.3140 0.0703 1.0923
loop_
_geom_bond_atom_site_label_1
_geom_bond_atom_site_label_2
_geom_bond_site_symmetry_1
_geom_bond_site_symmetry_2
O1 C1 1_555 1_555
O2 C5 1_555 1_555
O3 C9 1_555 1_555
O4 C19 1_555 1_555
C1 C2 1_555 1_555
C2 H1 1_555 1_555
H2 C2 1_555 1_555
C3 C2 1_555 1_555
H3 C3 1_555 1_555
H4 C3 1_555 1_555
C4 C3 1_555 1_555
H5 C4 1_555 1_555
H6 C4 1_555 1_555
C5 C4 1_555 1_555
C6 C1 1_555 1_555
C7 C6 1_555 1_555
H7 C7 1_555 1_555
C8 C7 1_555 1_555
C9 C8 1_555 1_555
C10 C9 1_555 1_555
H8 C10 1_555 1_555
H9 C10 1_555 1_555
C11 C10 1_555 1_555
H10 C11 1_555 1_555
H11 C11 1_555 1_555
C12 C11 1_555 1_555
H12 C12 1_555 1_555
H13 C12 1_555 1_555
C15 O1 1_555 1_555
C16 C7 1_555 1_555
C17 C16 1_555 1_555
H20 C17 1_555 1_555
C18 C17 1_555 1_555
H21 C18 1_555 1_555
C19 C18 1_555 1_555
C20 C19 1_555 1_555
H22 C20 1_555 1_555
C21 C16 1_555 1_555
H23 C21 1_555 1_555
C22 O4 1_555 1_555
H24 C22 1_555 1_555
H25 C22 1_555 1_555
H26 C22 1_555 1_555
C5 C6 1_555 1_555
C8 C15 1_555 1_555
C12 C15 1_555 1_555
C20 C21 1_555 1_555

#END
