
#######################################################################
#
#                 Cambridge Crystallographic Data Centre
#                                CCDC 
#
#######################################################################
#
# If this CIF has been generated from an entry in the Cambridge 
# Structural Database, then it will include bibliographic, chemical, 
# crystal, experimental, refinement or atomic coordinate data resulting 
# from the CCDC's data processing and validation procedures.
#
#######################################################################

data_FEZCOF
_chemical_formula_moiety         'C25 H15 N1 O2'
_chemical_name_systematic        2-(9H-carbazol-9-yl)-9H-xanthen-9-one
_symmetry_cell_setting           monoclinic
_symmetry_space_group_name_H-M   'P 21/n'
_symmetry_Int_Tables_number      14
_space_group_name_Hall           '-P 2yn'
loop_
_symmetry_equiv_pos_site_id
_symmetry_equiv_pos_as_xyz
1 x,y,z
2 1/2-x,1/2+y,1/2-z
3 -x,-y,-z
4 1/2+x,1/2-y,1/2+z
_cell_length_a                   15.4892(8)
_cell_length_b                   7.8471(4)
_cell_length_c                   15.5804(9)
_cell_angle_alpha                90
_cell_angle_beta                 114.831(7)
_cell_angle_gamma                90
_cell_volume                     1718.65
_exptl_crystal_colour            colorless
_exptl_crystal_description       block
_cell_formula_units_Z            4
loop_
_atom_site_label
_atom_site_type_symbol
_atom_site_fract_x
_atom_site_fract_y
_atom_site_fract_z
O1 O 0.88627(8) 0.52723(17) 0.54995(8)
O2 O 0.62858(8) 0.75604(17) 0.48849(8)
N1 N 0.76058(9) 0.56525(18) 0.83564(9)
C1 C 0.81051(12) 0.6456(2) 0.92294(11)
C2 C 0.79071(12) 0.5528(2) 0.76100(11)
C3 C 0.87739(12) 0.4755(2) 0.77689(11)
H1 H 0.9151 0.4302 0.8360
C4 C 0.75560(12) 0.7034(2) 0.44478(11)
C5 C 0.67079(11) 0.5202(2) 0.82877(11)
C6 C 0.76403(11) 0.6118(2) 0.59988(11)
C7 C 0.66337(12) 0.5672(2) 0.91229(11)
C8 C 0.73450(11) 0.6182(2) 0.67305(11)
H2 H 0.6762 0.6671 0.6623
C9 C 0.85061(12) 0.5360(2) 0.61735(11)
C10 C 0.59755(12) 0.4366(2) 0.75567(12)
H3 H 0.6026 0.4079 0.7001
C11 C 0.84092(12) 0.6167(2) 0.46717(11)
C12 C 0.90100(12) 0.7163(2) 0.96005(11)
H4 H 0.9397 0.7103 0.9279
C13 C 0.90712(12) 0.4662(2) 0.70509(11)
H5 H 0.9644 0.4137 0.7153
C14 C 0.70770(11) 0.6949(2) 0.50866(11)
C15 C 0.75213(12) 0.6493(2) 0.97185(11)
C16 C 0.88604(13) 0.6184(3) 0.40664(12)
H6 H 0.9421 0.5577 0.4216
C17 C 0.71790(13) 0.7982(2) 0.36100(11)
H7 H 0.6617 0.8588 0.3453
C18 C 0.78529(14) 0.7278(2) 1.06013(12)
H8 H 0.7480 0.7301 1.0939
C19 C 0.58049(13) 0.5274(3) 0.92302(13)
H9 H 0.5742 0.5579 0.9778
C20 C 0.51675(12) 0.3976(2) 0.76867(13)
H10 H 0.4670 0.3403 0.7212
C21 C 0.50843(13) 0.4424(3) 0.85151(14)
H11 H 0.4534 0.4144 0.8584
C22 C 0.87400(14) 0.8018(2) 1.09660(12)
H12 H 0.8963 0.8562 1.1550
C23 C 0.93106(13) 0.7962(2) 1.04701(12)
H13 H 0.9907 0.8474 1.0731
C24 C 0.76324(14) 0.8027(3) 0.30154(12)
H14 H 0.7381 0.8669 0.2463
C25 C 0.84665(14) 0.7108(3) 0.32457(13)
H15 H 0.8763 0.7121 0.2836
loop_
_geom_bond_atom_site_label_1
_geom_bond_atom_site_label_2
_geom_bond_site_symmetry_1
_geom_bond_site_symmetry_2
O1 C9 1_555 1_555
O2 C14 1_555 1_555
N1 C1 1_555 1_555
C1 C12 1_555 1_555
C2 N1 1_555 1_555
C3 C2 1_555 1_555
H1 C3 1_555 1_555
C4 C11 1_555 1_555
C5 N1 1_555 1_555
C6 C8 1_555 1_555
C7 C5 1_555 1_555
C8 C2 1_555 1_555
H2 C8 1_555 1_555
C9 C6 1_555 1_555
C10 C5 1_555 1_555
H3 C10 1_555 1_555
C11 O1 1_555 1_555
C12 H4 1_555 1_555
C13 C3 1_555 1_555
H5 C13 1_555 1_555
C14 C4 1_555 1_555
C15 C1 1_555 1_555
C16 C11 1_555 1_555
H6 C16 1_555 1_555
C17 C4 1_555 1_555
H7 C17 1_555 1_555
C18 C15 1_555 1_555
H8 C18 1_555 1_555
C19 C7 1_555 1_555
H9 C19 1_555 1_555
C20 C10 1_555 1_555
H10 C20 1_555 1_555
C21 C19 1_555 1_555
H11 C21 1_555 1_555
C22 C18 1_555 1_555
H12 C22 1_555 1_555
C23 C12 1_555 1_555
H13 C23 1_555 1_555
C24 C17 1_555 1_555
H14 C24 1_555 1_555
C25 C16 1_555 1_555
H15 C25 1_555 1_555
C6 C14 1_555 1_555
C7 C15 1_555 1_555
C9 C13 1_555 1_555
C20 C21 1_555 1_555
C22 C23 1_555 1_555
C24 C25 1_555 1_555

#END
