
#######################################################################
#
#                 Cambridge Crystallographic Data Centre
#                                CCDC 
#
#######################################################################
#
# If this CIF has been generated from an entry in the Cambridge 
# Structural Database, then it will include bibliographic, chemical, 
# crystal, experimental, refinement or atomic coordinate data resulting 
# from the CCDC's data processing and validation procedures.
#
#######################################################################

data_FEZDAP
_chemical_compound_source        'Calocedrus formosana Florin'
_chemical_name_common            Savinin
_chemical_formula_moiety         'C20 H16 O6'
_chemical_name_systematic        
4-Piperonyl-3-piperonylidene-tetrahydrofuran-2-one
_symmetry_cell_setting           monoclinic
_symmetry_space_group_name_H-M   'C 2/c'
_symmetry_Int_Tables_number      15
_space_group_name_Hall           '-C 2yn'
loop_
_symmetry_equiv_pos_site_id
_symmetry_equiv_pos_as_xyz
1 x,y,z
2 1/2+x,1/2+y,z
3 -x,y,1/2-z
4 1/2-x,1/2+y,1/2-z
5 -x,-y,-z
6 1/2-x,1/2-y,-z
7 x,-y,1/2+z
8 1/2+x,1/2-y,1/2+z
_cell_length_a                   14.997(2)
_cell_length_b                   10.875(3)
_cell_length_c                   20.708(7)
_cell_angle_alpha                90
_cell_angle_beta                 108.79(2)
_cell_angle_gamma                90
_cell_volume                     3197.32
_cell_formula_units_Z            8
loop_
_atom_site_label
_atom_site_type_symbol
_atom_site_fract_x
_atom_site_fract_y
_atom_site_fract_z
C1 C 0.3679(3) 0.8977(4) 0.3044(2)
C2 C 0.3379(3) 0.8981(3) 0.3624(2)
C3 C 0.3214(3) 0.7876(4) 0.3867(2)
C4 C 0.3330(3) 0.6772(3) 0.3570(2)
C5 C 0.3621(3) 0.6722(4) 0.3014(2)
C6 C 0.3796(3) 0.7859(3) 0.2756(2)
C7 C 0.3831(3) 1.0106(3) 0.2710(2)
C8 C 0.3822(3) 1.1279(3) 0.2890(2)
C9 C 0.3924(3) 1.2244(4) 0.2409(2)
O1 O 0.3831(2) 1.3368(2) 0.2673(1)
C10 C 0.3620(3) 1.3259(4) 0.3307(2)
C11 C 0.3719(3) 1.1888(3) 0.3519(2)
C12 C 0.4547(3) 1.1650(4) 0.4177(2)
C13 C 0.4305(3) 1.2117(4) 0.4794(2)
C14 C 0.4534(3) 1.3329(4) 0.5015(2)
C15 C 0.4251(3) 1.3726(4) 0.5542(2)
C16 C 0.3770(3) 1.3002(4) 0.5855(2)
C17 C 0.3553(4) 1.1812(4) 0.5661(2)
C18 C 0.3822(3) 1.1379(4) 0.5116(2)
O2 O 0.4031(2) 1.2156(3) 0.1863(1)
O3 O 0.2932(2) 0.7661(2) 0.4426(1)
O4 O 0.3108(2) 0.5820(2) 0.3929(1)
O5 O 0.4400(2) 1.4878(2) 0.5851(1)
O6 O 0.3569(2) 1.3667(3) 0.6364(1)
C19 C 0.2740(3) 0.6372(4) 0.4429(2)
C20 C 0.4010(3) 1.4820(4) 0.6392(2)
H1 H 0.3286 0.9861 0.3876
H2 H 0.3740 0.5845 0.2775
H3 H 0.4019 0.7892 0.2283
H4 H 0.3984 0.9940 0.2232
H5 H 0.4124 1.3824 0.3738
H6 H 0.2918 1.3622 0.3287
H7 H 0.3070 1.1574 0.3618
H8 H 0.5175 1.2118 0.4130
H9 H 0.4711 1.0665 0.4223
H10 H 0.4941 1.3946 0.4768
H11 H 0.3190 1.1203 0.5932
H12 H 0.3629 1.0413 0.4920
H13 H 0.1964 0.6178 0.4287
H14 H 0.3048 0.5938 0.4934
H15 H 0.3496 1.5578 0.6346
H16 H 0.4559 1.4958 0.6890
loop_
_geom_bond_atom_site_label_1
_geom_bond_atom_site_label_2
_geom_bond_site_symmetry_1
_geom_bond_site_symmetry_2
C1 C2 1_555 1_555
C2 C3 1_555 1_555
C3 C4 1_555 1_555
C4 C5 1_555 1_555
C5 C6 1_555 1_555
C6 C1 1_555 1_555
C7 C1 1_555 1_555
C8 C7 1_555 1_555
C9 C8 1_555 1_555
O1 C9 1_555 1_555
C10 O1 1_555 1_555
C11 C8 1_555 1_555
C12 C11 1_555 1_555
C13 C12 1_555 1_555
C14 C13 1_555 1_555
C15 C14 1_555 1_555
C16 C15 1_555 1_555
C17 C16 1_555 1_555
C18 C13 1_555 1_555
O2 C9 1_555 1_555
O3 C3 1_555 1_555
O4 C4 1_555 1_555
O5 C15 1_555 1_555
O6 C16 1_555 1_555
C19 O3 1_555 1_555
C20 O5 1_555 1_555
H1 C2 1_555 1_555
H2 C5 1_555 1_555
H3 C6 1_555 1_555
H4 C7 1_555 1_555
H5 C10 1_555 1_555
H6 C10 1_555 1_555
H7 C11 1_555 1_555
H8 C12 1_555 1_555
H9 C12 1_555 1_555
H10 C14 1_555 1_555
H11 C17 1_555 1_555
H12 C18 1_555 1_555
H13 C19 1_555 1_555
H14 C19 1_555 1_555
H15 C20 1_555 1_555
H16 C20 1_555 1_555
C10 C11 1_555 1_555
C17 C18 1_555 1_555
O4 C19 1_555 1_555
O6 C20 1_555 1_555

#END
