
#######################################################################
#
#                 Cambridge Crystallographic Data Centre
#                                CCDC 
#
#######################################################################
#
# If this CIF has been generated from an entry in the Cambridge 
# Structural Database, then it will include bibliographic, chemical, 
# crystal, experimental, refinement or atomic coordinate data resulting 
# from the CCDC's data processing and validation procedures.
#
#######################################################################

data_FEZGAV
_chemical_formula_moiety         'C59 H13 B2 F29 N6,C1 H1 Cl3'
_chemical_name_systematic        
"5,5,8,8-tetrafluoro-13,15,19,24,26-pentakis(pentafluorophenyl)-5H,8H-20,23-epimino-16,18-etheno-5\l^5^,8\l^5^-bispyrrolo[1'',2'':3',4'][1,3,2]diazaborinino[1',6':1,5]pyrrolo[3,2-d:2',3'-f]azacyclotetradecine chloroform solvate"
_symmetry_cell_setting           trigonal
_symmetry_space_group_name_H-M   'P -3'
_symmetry_Int_Tables_number      147
_space_group_name_Hall           '-P 3'
loop_
_symmetry_equiv_pos_site_id
_symmetry_equiv_pos_as_xyz
1 x,y,z
2 -y,x-y,z
3 -x+y,-x,z
4 -x,-y,-z
5 y,-x+y,-z
6 x-y,x,-z
_cell_length_a                   28.1769(7)
_cell_length_b                   28.1769(7)
_cell_length_c                   14.2523(4)
_cell_angle_alpha                90
_cell_angle_beta                 90
_cell_angle_gamma                120
_cell_volume                     9799.46
_exptl_crystal_colour            violet
_exptl_crystal_description       block
_cell_formula_units_Z            6
loop_
_atom_site_label
_atom_site_type_symbol
_atom_site_fract_x
_atom_site_fract_y
_atom_site_fract_z
F1 F 0.99262(11) 0.62484(11) 0.6490(2)
F2 F 0.99138(11) 0.60982(11) 0.4929(2)
F3 F 0.89592(11) 0.72564(12) 0.4253(2)
F4 F 0.94547(11) 0.68465(11) 0.3895(2)
F5 F 0.79351(13) 0.39121(14) 0.6106(3)
F6 F 0.71589(15) 0.29946(14) 0.5247(3)
F7 F 0.71390(15) 0.29251(15) 0.3360(4)
F8 F 0.78741(17) 0.37774(18) 0.2324(3)
F9 F 0.86656(14) 0.46976(14) 0.3174(2)
F10 F 0.68198(11) 0.53922(11) 0.4313(2)
F11 F 0.63688(12) 0.51452(13) 0.2622(2)
F12 F 0.70168(17) 0.53674(18) 0.1064(2)
F13 F 0.81265(17) 0.5945(2) 0.1248(2)
F14 F 0.85812(12) 0.62739(15) 0.2928(2)
F15 F 0.63952(13) 0.57894(16) 0.7329(3)
F16 F 0.55942(14) 0.5891(2) 0.8153(3)
F17 F 0.58403(15) 0.67398(18) 0.9316(3)
F18 F 0.69021(17) 0.75013(17) 0.9644(3)
F19 F 0.77100(14) 0.74012(15) 0.8831(3)
F20 F 1.00289(16) 0.90203(15) 0.6022(4)
F21 F 1.0609(2) 0.98305(17) 0.7242(4)
F22 F 1.13525(19) 0.97852(18) 0.8368(3)
F23 F 1.15274(17) 0.89168(19) 0.8268(3)
F24 F 1.09500(12) 0.80952(14) 0.7045(2)
N1 N 0.95960(15) 0.53315(15) 0.5966(3)
N2 N 0.90372(14) 0.57694(14) 0.5632(3)
N3 N 0.79324(16) 0.64653(17) 0.6116(3)
H1 H 0.823078 0.649472 0.636931
N4 N 0.83989(16) 0.66091(18) 0.7665(3)
N5 N 0.94686(15) 0.71428(15) 0.5499(3)
N6 N 0.99405(17) 0.78102(17) 0.4208(3)
C1 C 0.99748(19) 0.5237(2) 0.6336(3)
H2 H 1.029659 0.550249 0.664866
C2 C 0.9828(2) 0.4683(2) 0.6195(4)
H3 H 1.002984 0.451405 0.639422
C3 C 0.93408(19) 0.44366(19) 0.5716(4)
H4 H 0.914158 0.406483 0.552056
C4 C 0.91903(18) 0.48425(18) 0.5569(3)
C5 C 0.87453(18) 0.48354(18) 0.5141(3)
C6 C 0.86733(17) 0.52923(18) 0.5150(3)
C7 C 0.82700(18) 0.53722(18) 0.4743(3)
H5 H 0.797284 0.511030 0.437500
C8 C 0.83708(18) 0.58986(18) 0.4960(3)
C9 C 0.88587(18) 0.61367(18) 0.5531(3)
C10 C 0.79878(18) 0.60819(18) 0.4639(3)
C11 C 0.77895(18) 0.63348(19) 0.5198(3)
C12 C 0.7333(2) 0.6436(2) 0.5042(4)
H6 H 0.716931 0.642642 0.445502
C13 C 0.7188(2) 0.6544(2) 0.5881(4)
H7 H 0.689206 0.660838 0.598662
C14 C 0.75559(19) 0.6545(2) 0.6599(4)
C15 C 0.75367(19) 0.6563(2) 0.7560(4)
C16 C 0.7942(2) 0.6501(2) 0.8091(4)
C17 C 0.7899(2) 0.6229(2) 0.8996(4)
H8 H 0.762197 0.613139 0.945730
C18 C 0.8331(2) 0.6147(2) 0.9042(4)
H9 H 0.841025 0.596776 0.953013
C19 C 0.8652(2) 0.6389(2) 0.8191(3)
C20 C 0.91119(19) 0.6422(2) 0.7820(3)
C21 C 0.93387(18) 0.67791(19) 0.6970(3)
C22 C 0.91966(17) 0.66707(18) 0.5999(3)
C23 C 0.96979(19) 0.7337(2) 0.7034(4)
H10 H 0.985716 0.753502 0.759606
C24 C 0.97865(19) 0.7561(2) 0.6130(4)
C25 C 1.0157(2) 0.8096(2) 0.5812(4)
C26 C 1.0238(2) 0.8214(2) 0.4873(4)
C27 C 1.0647(2) 0.8687(2) 0.4373(5)
H11 H 1.091033 0.902635 0.464228
C28 C 1.0586(2) 0.8559(2) 0.3446(5)
H12 H 1.079962 0.879275 0.294800
C29 C 1.0146(2) 0.8012(2) 0.3356(4)
H13 H 1.001697 0.781816 0.278162
C30 C 0.83234(18) 0.43272(19) 0.4663(4)
C31 C 0.7935(2) 0.3883(2) 0.5184(4)
C32 C 0.7537(2) 0.3416(2) 0.4738(5)
C33 C 0.7521(2) 0.3382(2) 0.3793(6)
C34 C 0.7895(2) 0.3809(3) 0.3264(5)
C35 C 0.8296(2) 0.4280(2) 0.3700(4)
C36 C 0.77289(19) 0.58782(19) 0.3696(3)
C37 C 0.71620(19) 0.55687(19) 0.3571(3)
C38 C 0.6923(2) 0.5419(2) 0.2696(4)
C39 C 0.7242(2) 0.5537(3) 0.1915(4)
C40 C 0.7803(3) 0.5817(3) 0.2010(4)
C41 C 0.8037(2) 0.5989(2) 0.2881(4)
C42 C 0.7084(2) 0.6596(2) 0.8044(4)
C43 C 0.6537(2) 0.6217(3) 0.7896(4)
C44 C 0.6115(2) 0.6265(3) 0.8307(5)
C45 C 0.6244(3) 0.6699(3) 0.8902(5)
C46 C 0.6779(3) 0.7079(3) 0.9074(5)
C47 C 0.7190(2) 0.7017(3) 0.8661(4)
C48 C 0.9423(4) 0.6190(4) 0.8287(11)
C49 C 0.9258(5) 0.5644(4) 0.8262(9)
C50 C 0.9551(5) 0.5416(5) 0.8651(9)
C51 C 1.0036(5) 0.5770(6) 0.9120(9)
C52 C 1.0204(4) 0.6311(5) 0.9198(8)
C53 C 0.9918(4) 0.6518(4) 0.8758(7)
F25 F 0.8796(3) 0.5298(3) 0.7791(5)
F26 F 0.9377(4) 0.4887(3) 0.8568(6)
F27 F 1.0305(3) 0.5547(4) 0.9538(6)
F28 F 1.0656(3) 0.6633(4) 0.9700(6)
F29 F 1.0111(3) 0.7060(3) 0.8835(5)
C54 C 1.0474(2) 0.8530(2) 0.6508(4)
C55 C 1.0394(3) 0.8991(2) 0.6559(5)
C56 C 1.0687(3) 0.9404(3) 0.7179(6)
C57 C 1.1055(3) 0.9375(3) 0.7751(5)
C58 C 1.1155(3) 0.8940(3) 0.7724(5)
C59 C 1.0851(2) 0.8515(2) 0.7086(4)
B1 B 0.9645(2) 0.5898(2) 0.5767(4)
B2 B 0.9432(2) 0.7236(2) 0.4424(4)
Cl1 Cl 0.8907(2) 0.92252(17) 1.1108(5)
Cl2 Cl 0.77382(17) 0.86743(15) 1.1085(3)
Cl3 Cl 0.82907(13) 0.80908(12) 1.0614(2)
C66 C 0.8325(5) 0.8728(5) 1.0647(9)
H14 H 0.833492 0.883375 0.997492
C60? C 0.9340(10) 0.6095(8) 0.819(3)
C61? C 0.9066(9) 0.5537(8) 0.816(2)
C62? C 0.9294(10) 0.5222(8) 0.8441(19)
C63? C 0.9821(10) 0.5502(9) 0.883(2)
C64? C 1.0106(8) 0.6052(9) 0.890(2)
C65? C 0.9865(8) 0.6334(8) 0.858(2)
F30? F 0.8551(7) 0.5273(7) 0.7772(15)
F31? F 0.8994(9) 0.4675(6) 0.8381(15)
F32? F 1.0042(8) 0.5202(8) 0.9150(14)
F33? F 1.0603(6) 0.6296(8) 0.9279(13)
F34? F 1.0166(7) 0.6876(7) 0.8592(13)
loop_
_geom_bond_atom_site_label_1
_geom_bond_atom_site_label_2
_geom_bond_site_symmetry_1
_geom_bond_site_symmetry_2
F1 B1 1_555 1_555
F2 B1 1_555 1_555
F3 B2 1_555 1_555
F4 B2 1_555 1_555
F5 C31 1_555 1_555
F6 C32 1_555 1_555
F7 C33 1_555 1_555
F8 C34 1_555 1_555
F9 C35 1_555 1_555
F10 C37 1_555 1_555
F11 C38 1_555 1_555
F12 C39 1_555 1_555
F13 C40 1_555 1_555
F14 C41 1_555 1_555
F15 C43 1_555 1_555
F16 C44 1_555 1_555
F17 C45 1_555 1_555
F18 C46 1_555 1_555
F19 C47 1_555 1_555
F20 C55 1_555 1_555
F21 C56 1_555 1_555
F22 C57 1_555 1_555
F23 C58 1_555 1_555
F24 C59 1_555 1_555
N1 C1 1_555 1_555
N2 C6 1_555 1_555
N3 H1 1_555 1_555
N4 C16 1_555 1_555
N5 C22 1_555 1_555
N6 C26 1_555 1_555
C1 H2 1_555 1_555
C2 C1 1_555 1_555
H3 C2 1_555 1_555
C3 C2 1_555 1_555
H4 C3 1_555 1_555
C4 N1 1_555 1_555
C5 C4 1_555 1_555
C6 C5 1_555 1_555
C7 C6 1_555 1_555
H5 C7 1_555 1_555
C8 C7 1_555 1_555
C9 N2 1_555 1_555
C10 C8 1_555 1_555
C11 N3 1_555 1_555
C12 C11 1_555 1_555
H6 C12 1_555 1_555
C13 C12 1_555 1_555
H7 C13 1_555 1_555
C14 N3 1_555 1_555
C15 C14 1_555 1_555
C16 C15 1_555 1_555
C17 C16 1_555 1_555
H8 C17 1_555 1_555
C18 C17 1_555 1_555
H9 C18 1_555 1_555
C19 N4 1_555 1_555
C20 C19 1_555 1_555
C21 C20 1_555 1_555
C22 C9 1_555 1_555
C23 C21 1_555 1_555
H10 C23 1_555 1_555
C24 N5 1_555 1_555
C25 C24 1_555 1_555
C26 C25 1_555 1_555
C27 C26 1_555 1_555
H11 C27 1_555 1_555
C28 C27 1_555 1_555
H12 C28 1_555 1_555
C29 N6 1_555 1_555
H13 C29 1_555 1_555
C30 C5 1_555 1_555
C31 C30 1_555 1_555
C32 C31 1_555 1_555
C33 C32 1_555 1_555
C34 C33 1_555 1_555
C35 C30 1_555 1_555
C36 C10 1_555 1_555
C37 C36 1_555 1_555
C38 C37 1_555 1_555
C39 C38 1_555 1_555
C40 C39 1_555 1_555
C41 C36 1_555 1_555
C42 C15 1_555 1_555
C43 C42 1_555 1_555
C44 C43 1_555 1_555
C45 C44 1_555 1_555
C46 C45 1_555 1_555
C47 C42 1_555 1_555
C48 C20 1_555 1_555
C49 C48 1_555 1_555
C50 C49 1_555 1_555
C51 C50 1_555 1_555
C52 C51 1_555 1_555
C53 C48 1_555 1_555
F25 C49 1_555 1_555
F26 C50 1_555 1_555
F27 C51 1_555 1_555
F28 C52 1_555 1_555
F29 C53 1_555 1_555
C54 C25 1_555 1_555
C55 C54 1_555 1_555
C56 C55 1_555 1_555
C57 C56 1_555 1_555
C58 C57 1_555 1_555
C59 C54 1_555 1_555
B1 N1 1_555 1_555
B2 N5 1_555 1_555
Cl1 C66 1_555 1_555
Cl2 C66 1_555 1_555
Cl3 C66 1_555 1_555
C66 H14 1_555 1_555
N2 B1 1_555 1_555
N6 B2 1_555 1_555
C3 C4 1_555 1_555
C8 C9 1_555 1_555
C10 C11 1_555 1_555
C13 C14 1_555 1_555
C18 C19 1_555 1_555
C21 C22 1_555 1_555
C23 C24 1_555 1_555
C28 C29 1_555 1_555
C34 C35 1_555 1_555
C40 C41 1_555 1_555
C46 C47 1_555 1_555
C52 C53 1_555 1_555
C58 C59 1_555 1_555

#END
