
#######################################################################
#
#                 Cambridge Crystallographic Data Centre
#                                CCDC 
#
#######################################################################
#
# If this CIF has been generated from an entry in the Cambridge 
# Structural Database, then it will include bibliographic, chemical, 
# crystal, experimental, refinement or atomic coordinate data resulting 
# from the CCDC's data processing and validation procedures.
#
#######################################################################

data_FEZHID
_chemical_formula_moiety         'C14 H10 Br1 N3 O4'
_chemical_name_systematic        
N'-(3-Bromo-2-hydroxybenzylidene)-4-nitrobenzohydrazide
_symmetry_cell_setting           monoclinic
_symmetry_space_group_name_H-M   'P 21/c'
_symmetry_Int_Tables_number      14
_space_group_name_Hall           '-P 2ybc'
loop_
_symmetry_equiv_pos_site_id
_symmetry_equiv_pos_as_xyz
1 x,y,z
2 -x,1/2+y,1/2-z
3 -x,-y,-z
4 x,1/2-y,1/2+z
_cell_length_a                   11.2211(15)
_cell_length_b                   13.5515(18)
_cell_length_c                   9.2850(10)
_cell_angle_alpha                90
_cell_angle_beta                 90.554(2)
_cell_angle_gamma                90
_cell_volume                     1411.84
_exptl_crystal_colour            yellow
_exptl_crystal_description       block
_cell_formula_units_Z            4
loop_
_atom_site_label
_atom_site_type_symbol
_atom_site_fract_x
_atom_site_fract_y
_atom_site_fract_z
Br1 Br 0.51887(6) 1.09057(5) 0.14215(8)
N1 N 0.2687(4) 0.8361(3) 0.4853(4)
N2 N 0.2245(4) 0.7544(3) 0.5572(4)
N3 N 0.0782(4) 0.3328(3) 0.8100(5)
O1 O 0.3967(4) 0.9215(2) 0.2854(4)
O2 O 0.1818(3) 0.6755(2) 0.3485(3)
O3 O 0.1182(5) 0.2544(3) 0.7658(5)
O4 O 0.0265(4) 0.3414(3) 0.9237(4)
C1 C 0.3205(4) 1.0063(3) 0.4930(5)
C2 C 0.3817(4) 1.0041(3) 0.3631(5)
C3 C 0.4321(5) 1.0929(4) 0.3144(6)
C4 C 0.4193(5) 1.1802(4) 0.3888(7)
H1 H 0.4530 1.2381 0.3543
C5 C 0.3556(6) 1.1805(4) 0.5153(7)
H2 H 0.3457 1.2391 0.5658
C6 C 0.3071(6) 1.0949(3) 0.5666(6)
H3 H 0.2645 1.0961 0.6520
C7 C 0.2697(5) 0.9172(3) 0.5535(5)
H4 H 0.2370 0.9196 0.6451
C8 C 0.1852(4) 0.6766(3) 0.4807(4)
C9 C 0.1490(4) 0.5884(3) 0.5674(4)
C10 C 0.1678(5) 0.4956(3) 0.5090(5)
H5 H 0.1973 0.4901 0.4161
C11 C 0.1436(5) 0.4117(3) 0.5861(5)
H6 H 0.1573 0.3495 0.5474
C12 C 0.0985(5) 0.4224(3) 0.7221(5)
C13 C 0.0730(4) 0.5132(3) 0.7803(5)
H7 H 0.0384 0.5183 0.8707
C14 C 0.0997(4) 0.5962(3) 0.7026(5)
H8 H 0.0845 0.6582 0.7412
H9 H 0.208(6) 0.757(4) 0.6514(19)
H10 H 0.384(6) 0.868(2) 0.331(5)
loop_
_geom_bond_atom_site_label_1
_geom_bond_atom_site_label_2
_geom_bond_site_symmetry_1
_geom_bond_site_symmetry_2
Br1 C3 1_555 1_555
N1 N2 1_555 1_555
N2 C8 1_555 1_555
N3 O3 1_555 1_555
O1 C2 1_555 1_555
O2 C8 1_555 1_555
O4 N3 1_555 1_555
C1 C2 1_555 1_555
C2 C3 1_555 1_555
C3 C4 1_555 1_555
C4 H1 1_555 1_555
C5 C4 1_555 1_555
H2 C5 1_555 1_555
C6 C1 1_555 1_555
H3 C6 1_555 1_555
C7 N1 1_555 1_555
H4 C7 1_555 1_555
C8 C9 1_555 1_555
C9 C10 1_555 1_555
C10 H5 1_555 1_555
C11 C10 1_555 1_555
H6 C11 1_555 1_555
C12 N3 1_555 1_555
C13 C12 1_555 1_555
H7 C13 1_555 1_555
C14 C9 1_555 1_555
H8 C14 1_555 1_555
H9 N2 1_555 1_555
H10 O1 1_555 1_555
C1 C7 1_555 1_555
C5 C6 1_555 1_555
C11 C12 1_555 1_555
C13 C14 1_555 1_555

#END
