
#######################################################################
#
#                 Cambridge Crystallographic Data Centre
#                                CCDC 
#
#######################################################################
#
# If this CIF has been generated from an entry in the Cambridge 
# Structural Database, then it will include bibliographic, chemical, 
# crystal, experimental, refinement or atomic coordinate data resulting 
# from the CCDC's data processing and validation procedures.
#
#######################################################################

data_FEZLOO
_chemical_formula_moiety         'C35 H40 B1 N1 O1'
_chemical_name_systematic        
4-[bis(2,4,6-trimethylphenyl)boranyl]-3-[2-(2-methoxyphenyl)ethenyl]-N,N-dimethylaniline
_symmetry_cell_setting           monoclinic
_symmetry_space_group_name_H-M   'P 21/c'
_symmetry_Int_Tables_number      14
_space_group_name_Hall           '-P 2ybc'
loop_
_symmetry_equiv_pos_site_id
_symmetry_equiv_pos_as_xyz
1 x,y,z
2 -x,1/2+y,1/2-z
3 -x,-y,-z
4 x,1/2-y,1/2+z
_cell_length_a                   7.2959(3)
_cell_length_b                   22.3592(8)
_cell_length_c                   17.9840(7)
_cell_angle_alpha                90
_cell_angle_beta                 92.626(2)
_cell_angle_gamma                90
_cell_volume                     2930.66
_exptl_crystal_colour            yellow
_exptl_crystal_description       Block
_cell_formula_units_Z            4
loop_
_atom_site_label
_atom_site_type_symbol
_atom_site_fract_x
_atom_site_fract_y
_atom_site_fract_z
B1 B 0.6237(3) 0.27850(9) 0.43057(12)
O1 O 0.8384(2) 0.58496(6) 0.38598(8)
N1 N 0.6377(2) 0.43905(7) 0.68153(9)
C1 C 0.6478(3) 0.32329(8) 0.49542(10)
C2 C 0.6035(3) 0.30373(8) 0.56682(10)
H1 H 0.5757 0.2626 0.5731
C3 C 0.5980(3) 0.34040(8) 0.62800(10)
H2 H 0.5649 0.3245 0.6745
C4 C 0.6414(3) 0.40154(8) 0.62191(10)
C5 C 0.6933(3) 0.42193(8) 0.55200(10)
H3 H 0.7286 0.4626 0.5470
C6 C 0.6951(2) 0.38507(8) 0.48999(10)
C7 C 0.7555(3) 0.41018(8) 0.41930(10)
H4 H 0.8024 0.3829 0.3845
C8 C 0.7503(3) 0.46773(8) 0.39988(10)
H5 H 0.7072 0.4954 0.4351
C9 C 0.8060(3) 0.49157(8) 0.32840(11)
C10 C 0.8124(3) 0.45651(9) 0.26469(11)
H6 H 0.7784 0.4156 0.2670
C11 C 0.8675(3) 0.48004(10) 0.19786(12)
H7 H 0.8711 0.4554 0.1549
C12 C 0.9170(3) 0.53964(10) 0.19413(13)
H8 H 0.9568 0.5557 0.1487
C13 C 0.9090(3) 0.57587(9) 0.25585(12)
H9 H 0.9424 0.6168 0.2527
C14 C 0.8522(3) 0.55262(8) 0.32263(11)
C15 C 0.8806(3) 0.64724(9) 0.38432(15)
H10 H 1.0095 0.6526 0.3726
H11 H 0.8597 0.6650 0.4330
H12 H 0.8018 0.6670 0.3462
C16 C 0.5981(3) 0.41721(10) 0.75508(11)
H13 H 0.4755 0.3992 0.7536
H14 H 0.6027 0.4506 0.7905
H15 H 0.6894 0.3871 0.7708
C17 C 0.6843(3) 0.50193(9) 0.67548(12)
H16 H 0.8158 0.5059 0.6679
H17 H 0.6540 0.5227 0.7213
H18 H 0.6143 0.5196 0.6331
C18 C 0.6466(3) 0.20861(8) 0.44559(10)
C19 C 0.8084(3) 0.18551(8) 0.48137(11)
C20 C 0.9607(3) 0.22543(9) 0.51250(13)
H19 H 1.0760 0.2029 0.5157
H20 H 0.9309 0.2392 0.5623
H21 H 0.9737 0.2600 0.4797
C21 C 0.8344(3) 0.12386(9) 0.48822(11)
H22 H 0.9458 0.1093 0.5110
C22 C 0.7025(3) 0.08323(8) 0.46275(11)
C23 C 0.7362(4) 0.01664(9) 0.46854(14)
H23 H 0.6246 -0.0049 0.4522
H24 H 0.7694 0.0062 0.5203
H25 H 0.8366 0.0055 0.4369
C24 C 0.5416(3) 0.10566(8) 0.43048(11)
H26 H 0.4476 0.0785 0.4146
C25 C 0.5119(3) 0.16697(8) 0.42036(10)
C26 C 0.3337(3) 0.18603(9) 0.38195(13)
H27 H 0.3549 0.1966 0.3301
H28 H 0.2849 0.2208 0.4076
H29 H 0.2452 0.1531 0.3831
C27 C 0.5665(3) 0.30003(8) 0.34870(10)
C28 C 0.6746(3) 0.28665(8) 0.28772(11)
C29 C 0.8546(3) 0.25366(10) 0.29805(12)
H30 H 0.9146 0.2518 0.2504
H31 H 0.8318 0.2130 0.3157
H32 H 0.9342 0.2747 0.3347
C30 C 0.6215(3) 0.30672(8) 0.21650(11)
H33 H 0.6985 0.2987 0.1765
C31 C 0.4602(3) 0.33785(9) 0.20252(11)
C32 C 0.4059(4) 0.35968(12) 0.12498(13)
H34 H 0.3659 0.3257 0.0939
H35 H 0.5114 0.3790 0.1032
H36 H 0.3052 0.3885 0.1276
C33 C 0.3523(3) 0.34988(8) 0.26215(12)
H37 H 0.2393 0.3703 0.2533
C34 C 0.4040(3) 0.33304(8) 0.33476(11)
C35 C 0.2803(3) 0.35056(9) 0.39644(12)
H38 H 0.1650 0.3667 0.3747
H39 H 0.3414 0.3810 0.4280
H40 H 0.2543 0.3153 0.4265
loop_
_geom_bond_atom_site_label_1
_geom_bond_atom_site_label_2
_geom_bond_site_symmetry_1
_geom_bond_site_symmetry_2
B1 C1 1_555 1_555
O1 C14 1_555 1_555
N1 C4 1_555 1_555
C1 C2 1_555 1_555
C2 H1 1_555 1_555
C3 C2 1_555 1_555
H2 C3 1_555 1_555
C4 C3 1_555 1_555
C5 C4 1_555 1_555
H3 C5 1_555 1_555
C6 C1 1_555 1_555
C7 C6 1_555 1_555
H4 C7 1_555 1_555
C8 C7 1_555 1_555
H5 C8 1_555 1_555
C9 C8 1_555 1_555
C10 C9 1_555 1_555
H6 C10 1_555 1_555
C11 C10 1_555 1_555
H7 C11 1_555 1_555
C12 C11 1_555 1_555
H8 C12 1_555 1_555
C13 C12 1_555 1_555
H9 C13 1_555 1_555
C14 C9 1_555 1_555
C15 O1 1_555 1_555
H10 C15 1_555 1_555
H11 C15 1_555 1_555
H12 C15 1_555 1_555
C16 N1 1_555 1_555
H13 C16 1_555 1_555
H14 C16 1_555 1_555
H15 C16 1_555 1_555
C17 N1 1_555 1_555
H16 C17 1_555 1_555
H17 C17 1_555 1_555
H18 C17 1_555 1_555
C18 B1 1_555 1_555
C19 C18 1_555 1_555
C20 C19 1_555 1_555
H19 C20 1_555 1_555
H20 C20 1_555 1_555
H21 C20 1_555 1_555
C21 C19 1_555 1_555
H22 C21 1_555 1_555
C22 C21 1_555 1_555
C23 C22 1_555 1_555
H23 C23 1_555 1_555
H24 C23 1_555 1_555
H25 C23 1_555 1_555
C24 C22 1_555 1_555
H26 C24 1_555 1_555
C25 C18 1_555 1_555
C26 C25 1_555 1_555
H27 C26 1_555 1_555
H28 C26 1_555 1_555
H29 C26 1_555 1_555
C27 B1 1_555 1_555
C28 C27 1_555 1_555
C29 C28 1_555 1_555
H30 C29 1_555 1_555
H31 C29 1_555 1_555
H32 C29 1_555 1_555
C30 C28 1_555 1_555
H33 C30 1_555 1_555
C31 C30 1_555 1_555
C32 C31 1_555 1_555
H34 C32 1_555 1_555
H35 C32 1_555 1_555
H36 C32 1_555 1_555
C33 C31 1_555 1_555
H37 C33 1_555 1_555
C34 C27 1_555 1_555
C35 C34 1_555 1_555
H38 C35 1_555 1_555
H39 C35 1_555 1_555
H40 C35 1_555 1_555
C5 C6 1_555 1_555
C13 C14 1_555 1_555
C24 C25 1_555 1_555
C33 C34 1_555 1_555

#END
