
#######################################################################
#
#                 Cambridge Crystallographic Data Centre
#                                CCDC 
#
#######################################################################
#
# If this CIF has been generated from an entry in the Cambridge 
# Structural Database, then it will include bibliographic, chemical, 
# crystal, experimental, refinement or atomic coordinate data resulting 
# from the CCDC's data processing and validation procedures.
#
#######################################################################

data_FEZLAZ
_chemical_formula_moiety         'C37 H32 N2 O2 S1'
_chemical_name_systematic        
1,2-Dibenzyl-4-(((4-methylphenyl)sulfonyl)(phenyl)methyl)-5-phenyl-1H-imidazole
_symmetry_cell_setting           monoclinic
_symmetry_space_group_name_H-M   'P 21/n'
_symmetry_Int_Tables_number      14
_space_group_name_Hall           '-P 2yn'
loop_
_symmetry_equiv_pos_site_id
_symmetry_equiv_pos_as_xyz
1 x,y,z
2 1/2-x,1/2+y,1/2-z
3 -x,-y,-z
4 1/2+x,1/2-y,1/2+z
_cell_length_a                   16.1421(18)
_cell_length_b                   10.9109(7)
_cell_length_c                   18.5908(16)
_cell_angle_alpha                90
_cell_angle_beta                 113.887(12)
_cell_angle_gamma                90
_cell_volume                     2993.84
_exptl_crystal_colour            colorless
_exptl_crystal_description       block
_cell_formula_units_Z            4
loop_
_atom_site_label
_atom_site_type_symbol
_atom_site_fract_x
_atom_site_fract_y
_atom_site_fract_z
S1 S 0.47314(10) 0.08430(12) 0.21213(8)
O1 O 0.4002(3) 0.0205(4) 0.1528(3)
O2 O 0.5183(3) 0.0283(3) 0.2876(2)
N1 N 0.3990(3) 0.3485(4) 0.1062(2)
N2 N 0.2502(3) 0.3695(3) 0.0604(2)
C1 C 0.7697(8) 0.2464(11) 0.1126(9)
H1 H 0.7484 0.2421 0.0564
H2 H 0.8236 0.1980 0.1365
H3 H 0.7828 0.3300 0.1294
C2 C 0.6445(5) 0.1339(6) 0.2323(5)
H4 H 0.6573 0.1189 0.2850
C3 C 0.7135(6) 0.1682(7) 0.2127(6)
H5 H 0.7729 0.1728 0.2502
C4 C 0.6929(7) 0.1945(7) 0.1388(6)
C5 C 0.6067(9) 0.1780(7) 0.0767(6)
H6 H 0.5971 0.1896 0.0243
C6 C 0.5323(6) 0.1410(7) 0.0997(5)
H7 H 0.4731 0.1327 0.0625
C7 C 0.5545(5) 0.1200(5) 0.1768(4)
C8 C 0.4283(3) 0.2294(4) 0.2303(3)
H8 H 0.3890 0.2066 0.2568
C9 C 0.5024(3) 0.3038(4) 0.2893(3)
C10 C 0.5165(4) 0.2985(5) 0.3679(3)
H9 H 0.4793 0.2497 0.3833
C11 C 0.5852(5) 0.3651(6) 0.4234(4)
H10 H 0.5942 0.3610 0.4760
C12 C 0.6409(5) 0.4380(6) 0.4014(4)
H11 H 0.6872 0.4826 0.4392
C13 C 0.6282(4) 0.4449(5) 0.3243(4)
H12 H 0.6660 0.4936 0.3096
C14 C 0.5585(4) 0.3787(5) 0.2681(3)
H13 H 0.5491 0.3846 0.2154
C15 C 0.3673(3) 0.2919(4) 0.1565(3)
C16 C 0.2755(3) 0.3028(4) 0.1292(2)
C17 C 0.3263(3) 0.3938(4) 0.0487(3)
C18 C 0.2112(3) 0.2503(4) 0.1591(2)
C19 C 0.2062(3) 0.1238(5) 0.1634(3)
H14 H 0.2423 0.0745 0.1470
C20 C 0.1479(4) 0.0710(5) 0.1920(3)
H15 H 0.1453 -0.0140 0.1948
C21 C 0.0945(4) 0.1404(5) 0.2160(3)
H16 H 0.0550 0.1036 0.2346
C22 C 0.0990(3) 0.2656(6) 0.2127(3)
H17 H 0.0629 0.3140 0.2296
C23 C 0.1571(3) 0.3201(5) 0.1844(3)
H18 H 0.1596 0.4051 0.1824
C24 C 0.1601(3) 0.4199(4) 0.0138(3)
H19 H 0.1161 0.3778 0.0281
H20 H 0.1448 0.4038 -0.0414
C25 C 0.1533(3) 0.5560(4) 0.0252(2)
C26 C 0.2149(4) 0.6175(5) 0.0883(3)
H21 H 0.2626 0.5749 0.1261
C27 C 0.2068(4) 0.7429(5) 0.0965(3)
H22 H 0.2493 0.7841 0.1394
C28 C 0.1370(4) 0.8049(5) 0.0418(3)
H23 H 0.1317 0.8890 0.0470
C29 C 0.0753(4) 0.7450(5) -0.0200(3)
H24 H 0.0271 0.7881 -0.0569
C30 C 0.0827(3) 0.6208(5) -0.0292(3)
H25 H 0.0399 0.5807 -0.0724
C31 C 0.3284(4) 0.4576(5) -0.0214(3)
H26 H 0.3634 0.5325 -0.0044
H27 H 0.2671 0.4804 -0.0562
C32 C 0.3687(3) 0.3809(4) -0.0667(3)
C33 C 0.3460(5) 0.2592(6) -0.0816(4)
H28 H 0.3039 0.2244 -0.0654
C34 C 0.3853(7) 0.1889(7) -0.1205(5)
H29 H 0.3703 0.1063 -0.1295
C35 C 0.4466(6) 0.2389(8) -0.1465(5)
H30 H 0.4727 0.1908 -0.1731
C36 C 0.4686(5) 0.3596(7) -0.1325(4)
H31 H 0.5100 0.3946 -0.1496
C37 C 0.4294(4) 0.4297(5) -0.0931(3)
H32 H 0.4446 0.5122 -0.0842
loop_
_geom_bond_atom_site_label_1
_geom_bond_atom_site_label_2
_geom_bond_site_symmetry_1
_geom_bond_site_symmetry_2
S1 O1 1_555 1_555
O2 S1 1_555 1_555
N1 C15 1_555 1_555
N2 C16 1_555 1_555
C1 H1 1_555 1_555
H2 C1 1_555 1_555
H3 C1 1_555 1_555
C2 H4 1_555 1_555
C3 C2 1_555 1_555
H5 C3 1_555 1_555
C4 C1 1_555 1_555
C5 C4 1_555 1_555
H6 C5 1_555 1_555
C6 C5 1_555 1_555
H7 C6 1_555 1_555
C7 S1 1_555 1_555
C8 S1 1_555 1_555
H8 C8 1_555 1_555
C9 C8 1_555 1_555
C10 C9 1_555 1_555
H9 C10 1_555 1_555
C11 C10 1_555 1_555
H10 C11 1_555 1_555
C12 C11 1_555 1_555
H11 C12 1_555 1_555
C13 C12 1_555 1_555
H12 C13 1_555 1_555
C14 C9 1_555 1_555
H13 C14 1_555 1_555
C15 C8 1_555 1_555
C16 C15 1_555 1_555
C17 N1 1_555 1_555
C18 C16 1_555 1_555
C19 C18 1_555 1_555
H14 C19 1_555 1_555
C20 C19 1_555 1_555
H15 C20 1_555 1_555
C21 C20 1_555 1_555
H16 C21 1_555 1_555
C22 C21 1_555 1_555
H17 C22 1_555 1_555
C23 C18 1_555 1_555
H18 C23 1_555 1_555
C24 N2 1_555 1_555
H19 C24 1_555 1_555
H20 C24 1_555 1_555
C25 C24 1_555 1_555
C26 C25 1_555 1_555
H21 C26 1_555 1_555
C27 C26 1_555 1_555
H22 C27 1_555 1_555
C28 C27 1_555 1_555
H23 C28 1_555 1_555
C29 C28 1_555 1_555
H24 C29 1_555 1_555
C30 C25 1_555 1_555
H25 C30 1_555 1_555
C31 C17 1_555 1_555
H26 C31 1_555 1_555
H27 C31 1_555 1_555
C32 C31 1_555 1_555
C33 C32 1_555 1_555
H28 C33 1_555 1_555
C34 C33 1_555 1_555
H29 C34 1_555 1_555
C35 C34 1_555 1_555
H30 C35 1_555 1_555
C36 C35 1_555 1_555
H31 C36 1_555 1_555
C37 C32 1_555 1_555
H32 C37 1_555 1_555
N2 C17 1_555 1_555
C2 C7 1_555 1_555
C3 C4 1_555 1_555
C6 C7 1_555 1_555
C13 C14 1_555 1_555
C22 C23 1_555 1_555
C29 C30 1_555 1_555
C36 C37 1_555 1_555

#END
