
#######################################################################
#
#                 Cambridge Crystallographic Data Centre
#                                CCDC 
#
#######################################################################
#
# If this CIF has been generated from an entry in the Cambridge 
# Structural Database, then it will include bibliographic, chemical, 
# crystal, experimental, refinement or atomic coordinate data resulting 
# from the CCDC's data processing and validation procedures.
#
#######################################################################

data_FEZLAA
_chemical_formula_moiety         'C28 H37 F2 N1 O2'
_chemical_name_systematic        
3-(3,5-di-t-butyl-4-hydroxyphenyl)-2,2-difluoro-3-phenyl-1-(piperidin-1-yl)propan-1-one
_symmetry_cell_setting           monoclinic
_symmetry_space_group_name_H-M   'P n'
_symmetry_Int_Tables_number      7
_space_group_name_Hall           'P -2yac'
loop_
_symmetry_equiv_pos_site_id
_symmetry_equiv_pos_as_xyz
1 x,y,z
2 1/2+x,-y,1/2+z
_cell_length_a                   10.6409(9)
_cell_length_b                   9.1391(7)
_cell_length_c                   12.7748(10)
_cell_angle_alpha                90
_cell_angle_beta                 91.516(8)
_cell_angle_gamma                90
_cell_volume                     1241.89
_exptl_crystal_colour            'light colorless'
_exptl_crystal_description       block
_cell_formula_units_Z            2
loop_
_atom_site_label
_atom_site_type_symbol
_atom_site_fract_x
_atom_site_fract_y
_atom_site_fract_z
F1 F -0.4195(2) -0.5739(2) -0.79927(19)
F2 F -0.2765(2) -0.6257(2) -0.68202(17)
O1 O -0.4065(3) -0.8334(3) -0.6026(2)
O2 O -0.6644(3) -1.0519(3) -1.0912(2)
N1 N -0.5799(3) -0.7749(3) -0.6978(2)
C1 C -0.2962(3) -0.7896(3) -0.8233(3)
H1 H -0.2576 -0.8669 -0.7801
C2 C -0.5224(3) -0.8610(3) -1.0546(3)
C3 C -0.3918(3) -0.8654(3) -0.8960(3)
C4 C -0.3634(3) -0.6889(4) -0.7484(3)
C5 C -0.4472(3) -0.9964(3) -0.8670(3)
H2 H -0.4209 -1.0408 -0.8047
C6 C -0.4300(3) -0.8008(3) -0.9893(3)
H3 H -0.3924 -0.7135 -1.0090
C7 C -0.4560(4) -0.7714(4) -0.6777(3)
C8 C -0.5665(3) -0.7805(4) -1.1544(3)
C9 C -0.1902(3) -0.7209(4) -0.8840(3)
C10 C -0.6014(3) -1.2074(3) -0.8919(3)
C11 C -0.1732(4) -0.5717(4) -0.8991(3)
H4 H -0.2273 -0.5055 -0.8682
C12 C -0.5457(4) -1.2569(4) -0.7865(3)
H5 H -0.5826 -1.3486 -0.7672
H6 H -0.5630 -1.1848 -0.7342
H7 H -0.4564 -1.2686 -0.7918
C13 C -0.5780(4) -1.3312(4) -0.9696(3)
H8 H -0.4893 -1.3486 -0.9735
H9 H -0.6111 -1.3040 -1.0375
H10 H -0.6190 -1.4186 -0.9466
C14 C -0.5412(3) -1.0637(3) -0.9284(3)
C15 C -0.5778(3) -0.9936(4) -1.0229(3)
C16 C -0.1071(4) -0.8147(4) -0.9312(3)
H11 H -0.1165 -0.9149 -0.9211
C17 C -0.7431(4) -1.1862(5) -0.8761(3)
H12 H -0.7776 -1.2735 -0.8465
H13 H -0.7842 -1.1663 -0.9423
H14 H -0.7558 -1.1054 -0.8294
C18 C 0.0045(4) -0.6174(5) -1.0075(3)
H15 H 0.0684 -0.5829 -1.0492
C19 C -0.7673(4) -0.6467(4) -0.7663(4)
H16 H -0.7445 -0.5583 -0.7283
H17 H -0.8129 -0.6185 -0.8299
C20 C -0.5495(4) -0.8768(4) -1.2521(3)
H18 H -0.4631 -0.9060 -1.2560
H19 H -0.5732 -0.8223 -1.3138
H20 H -0.6016 -0.9622 -1.2474
C21 C -0.6575(4) -0.8658(5) -0.6292(4)
H21 H -0.6104 -0.8875 -0.5651
H22 H -0.6768 -0.9578 -0.6640
C22 C -0.4922(4) -0.6403(4) -1.1711(3)
H23 H -0.5017 -0.5767 -1.1121
H24 H -0.5232 -0.5922 -1.2335
H25 H -0.4049 -0.6636 -1.1784
C23 C -0.7058(4) -0.7395(5) -1.1448(4)
H26 H -0.7554 -0.8271 -1.1420
H27 H -0.7323 -0.6823 -1.2044
H28 H -0.7166 -0.6837 -1.0821
C24 C -0.6491(4) -0.7293(4) -0.7944(3)
H29 H -0.6714 -0.8148 -0.8358
H30 H -0.5959 -0.6670 -0.8359
C25 C -0.8508(4) -0.7409(5) -0.6996(4)
H31 H -0.9241 -0.6854 -0.6797
H32 H -0.8792 -0.8257 -0.7393
C26 C -0.0106(4) -0.7663(5) -0.9927(3)
H33 H 0.0433 -0.8327 -1.0237
C27 C -0.7782(4) -0.7898(5) -0.6029(4)
H34 H -0.7591 -0.7053 -0.5594
H35 H -0.8299 -0.8558 -0.5631
C28 C -0.0755(4) -0.5202(5) -0.9603(4)
H36 H -0.0644 -0.4200 -0.9692
H37 H -0.725(8) -1.104(10) -1.082(3)
loop_
_geom_bond_atom_site_label_1
_geom_bond_atom_site_label_2
_geom_bond_site_symmetry_1
_geom_bond_site_symmetry_2
F1 C4 1_555 1_555
F2 C4 1_555 1_555
O1 C7 1_555 1_555
O2 C15 1_555 1_555
N1 C7 1_555 1_555
C1 H1 1_555 1_555
C2 C6 1_555 1_555
C3 C1 1_555 1_555
C4 C1 1_555 1_555
C5 C3 1_555 1_555
H2 C5 1_555 1_555
C6 C3 1_555 1_555
H3 C6 1_555 1_555
C7 C4 1_555 1_555
C8 C2 1_555 1_555
C9 C1 1_555 1_555
C10 C12 1_555 1_555
C11 C9 1_555 1_555
H4 C11 1_555 1_555
C12 H5 1_555 1_555
H6 C12 1_555 1_555
H7 C12 1_555 1_555
C13 C10 1_555 1_555
H8 C13 1_555 1_555
H9 C13 1_555 1_555
H10 C13 1_555 1_555
C14 C5 1_555 1_555
C15 C2 1_555 1_555
C16 C9 1_555 1_555
H11 C16 1_555 1_555
C17 C10 1_555 1_555
H12 C17 1_555 1_555
H13 C17 1_555 1_555
H14 C17 1_555 1_555
C18 H15 1_555 1_555
C19 H16 1_555 1_555
H17 C19 1_555 1_555
C20 C8 1_555 1_555
H18 C20 1_555 1_555
H19 C20 1_555 1_555
H20 C20 1_555 1_555
C21 N1 1_555 1_555
H21 C21 1_555 1_555
H22 C21 1_555 1_555
C22 C8 1_555 1_555
H23 C22 1_555 1_555
H24 C22 1_555 1_555
H25 C22 1_555 1_555
C23 C8 1_555 1_555
H26 C23 1_555 1_555
H27 C23 1_555 1_555
H28 C23 1_555 1_555
C24 N1 1_555 1_555
H29 C24 1_555 1_555
H30 C24 1_555 1_555
C25 C19 1_555 1_555
H31 C25 1_555 1_555
H32 C25 1_555 1_555
C26 C16 1_555 1_555
H33 C26 1_555 1_555
C27 C21 1_555 1_555
H34 C27 1_555 1_555
H35 C27 1_555 1_555
C28 C11 1_555 1_555
H36 C28 1_555 1_555
H37 O2 1_555 1_555
C10 C14 1_555 1_555
C14 C15 1_555 1_555
C18 C26 1_555 1_555
C18 C28 1_555 1_555
C19 C24 1_555 1_555
C25 C27 1_555 1_555

#END
