
#######################################################################
#
#                 Cambridge Crystallographic Data Centre
#                                CCDC 
#
#######################################################################
#
# If this CIF has been generated from an entry in the Cambridge 
# Structural Database, then it will include bibliographic, chemical, 
# crystal, experimental, refinement or atomic coordinate data resulting 
# from the CCDC's data processing and validation procedures.
#
#######################################################################

data_FEZMEF
_chemical_formula_moiety         'C33 H37 B1 N2,2(C6 H6)'
_chemical_name_systematic        
'7-[bis(2,4,6-trimethylphenyl)boranyl]-N,N-dimethyl-6a,10a-dihydrobenzo[f]quinolin-10-amine benzene solvate'
_symmetry_cell_setting           triclinic
_symmetry_space_group_name_H-M   'P -1'
_symmetry_Int_Tables_number      2
_space_group_name_Hall           '-P 1'
loop_
_symmetry_equiv_pos_site_id
_symmetry_equiv_pos_as_xyz
1 x,y,z
2 -x,-y,-z
_cell_length_a                   11.4473(10)
_cell_length_b                   11.8684(11)
_cell_length_c                   15.9919(15)
_cell_angle_alpha                94.282(4)
_cell_angle_beta                 106.166(3)
_cell_angle_gamma                114.679(3)
_cell_volume                     1850.24
_exptl_crystal_colour            yellow
_exptl_crystal_description       block
_cell_formula_units_Z            2
loop_
_atom_site_label
_atom_site_type_symbol
_atom_site_fract_x
_atom_site_fract_y
_atom_site_fract_z
N1 N 0.6609(3) 0.2150(2) 0.56680(17)
C1 C 0.3324(2) 0.1802(2) 0.68608(15)
B1 B 0.3334(3) 0.3090(2) 0.68139(18)
C2 C 0.3623(2) 0.1489(2) 0.76702(16)
H1 H 0.3900 0.2120 0.8184
N2 N 0.3490(2) -0.16539(19) 0.72256(14)
C3 C 0.3555(3) 0.0296(2) 0.78078(16)
H2 H 0.3518 0.0059 0.8358
C4 C 0.3544(2) -0.0504(2) 0.71455(16)
C5 C 0.3665(2) -0.0046(2) 0.63058(16)
H3 H 0.3239 -0.0809 0.5808
C6 C 0.4199(3) 0.1480(2) 0.50692(17)
H4 H 0.4272 0.1728 0.4527
C7 C 0.3040(3) 0.1168(2) 0.52286(16)
H5 H 0.2301 0.1220 0.4809
C8 C 0.2881(2) 0.0730(2) 0.60712(15)
H6 H 0.1889 0.0147 0.5938
C9 C 0.5363(3) 0.1447(2) 0.57125(18)
C10 C 0.5147(3) 0.0738(2) 0.63706(17)
C11 C 0.6267(3) 0.0794(2) 0.70046(19)
H7 H 0.6161 0.0332 0.7461
C12 C 0.7559(3) 0.1534(3) 0.6974(2)
H8 H 0.8352 0.1592 0.7411
C13 C 0.7669(3) 0.2178(3) 0.6301(2)
H9 H 0.8558 0.2677 0.6284
C14 C 0.3755(3) -0.2409(2) 0.6615(2)
H10 H 0.3495 -0.2240 0.6019
H11 H 0.3218 -0.3313 0.6591
H12 H 0.4731 -0.2185 0.6825
C15 C 0.3437(4) -0.2065(3) 0.80552(19)
H13 H 0.2687 -0.2002 0.8202
H14 H 0.4305 -0.1521 0.8537
H15 H 0.3284 -0.2948 0.7986
C16 C 0.2484(2) 0.3361(2) 0.59584(15)
C17 C 0.3113(2) 0.4405(2) 0.55887(16)
C18 C 0.4634(3) 0.5242(2) 0.59546(17)
H16 H 0.5106 0.4737 0.5880
H17 H 0.4911 0.5606 0.6590
H18 H 0.4877 0.5929 0.5632
C19 C 0.2338(3) 0.4651(2) 0.48594(17)
H19 H 0.2785 0.5345 0.4614
C20 C 0.0936(3) 0.3921(3) 0.44760(18)
C21 C 0.0115(3) 0.4227(3) 0.3695(2)
H20 H 0.0717 0.4729 0.3388
H21 H -0.0294 0.4716 0.3910
H22 H -0.0610 0.3436 0.3280
C22 C 0.0326(3) 0.2909(2) 0.48424(18)
H23 H -0.0636 0.2396 0.4590
C23 C 0.1052(2) 0.2607(2) 0.55613(17)
C24 C 0.0276(3) 0.1478(2) 0.59066(19)
H24 H -0.0682 0.1309 0.5740
H25 H 0.0683 0.1662 0.6558
H26 H 0.0325 0.0732 0.5646
C25 C 0.4226(3) 0.4184(2) 0.76937(16)
C26 C 0.5650(3) 0.4667(2) 0.80485(17)
C27 C 0.6442(3) 0.4225(3) 0.76086(19)
H27 H 0.5824 0.3650 0.7030
H28 H 0.6840 0.3777 0.7991
H29 H 0.7174 0.4962 0.7520
C28 C 0.6399(3) 0.5633(2) 0.88173(17)
H30 H 0.7365 0.5957 0.9043
C29 C 0.5796(3) 0.6133(2) 0.92604(17)
C30 C 0.6627(4) 0.7182(3) 1.00915(19)
H31 H 0.7599 0.7538 1.0161
H32 H 0.6483 0.6837 1.0613
H33 H 0.6338 0.7851 1.0040
C31 C 0.4386(3) 0.5636(2) 0.89239(17)
H34 H 0.3944 0.5946 0.9233
C32 C 0.3599(3) 0.4697(2) 0.81472(16)
C33 C 0.2073(3) 0.4196(3) 0.78341(19)
H35 H 0.1750 0.4282 0.7218
H36 H 0.1833 0.4681 0.8220
H37 H 0.1641 0.3298 0.7860
C34 C 0.7653(3) 0.8141(3) 0.7679(2)
H38 H 0.6770 0.7458 0.7564
C35 C 0.8192(3) 0.9130(3) 0.8386(2)
H39 H 0.7684 0.9134 0.8764
C36 C 0.9466(3) 1.0124(3) 0.8557(2)
H40 H 0.9835 1.0817 0.9049
C37 C 1.0195(3) 1.0110(3) 0.8020(2)
H41 H 1.1080 1.0792 0.8141
C38 C 0.9663(4) 0.9118(3) 0.7302(2)
H42 H 1.0175 0.9115 0.6926
C39 C 0.8383(4) 0.8126(3) 0.7131(2)
H43 H 0.8006 0.7435 0.6636
C40 C 1.0672(4) 0.7486(5) 0.9177(3)
H44 H 0.9902 0.7494 0.8761
C41 C 1.1769(5) 0.8596(5) 0.9670(3)
H45 H 1.1781 0.9387 0.9595
C42 C 1.2844(5) 0.8560(5) 1.0270(3)
H46 H 1.3606 0.9335 1.0622
C43 C 1.2858(5) 0.7450(6) 1.0381(3)
H47 H 1.3627 0.7452 1.0806
C44 C 1.1784(5) 0.6335(5) 0.9893(3)
H48 H 1.1793 0.5552 0.9971
C45 C 1.0683(4) 0.6348(5) 0.9283(3)
H49 H 0.9924 0.5571 0.8932
loop_
_geom_bond_atom_site_label_1
_geom_bond_atom_site_label_2
_geom_bond_site_symmetry_1
_geom_bond_site_symmetry_2
N1 C9 1_555 1_555
C1 B1 1_555 1_555
B1 C16 1_555 1_555
C2 C1 1_555 1_555
H1 C2 1_555 1_555
N2 C4 1_555 1_555
C3 C2 1_555 1_555
H2 C3 1_555 1_555
C4 C3 1_555 1_555
C5 C4 1_555 1_555
H3 C5 1_555 1_555
C6 H4 1_555 1_555
C7 C6 1_555 1_555
H5 C7 1_555 1_555
C8 C1 1_555 1_555
H6 C8 1_555 1_555
C9 C6 1_555 1_555
C10 C5 1_555 1_555
C11 C10 1_555 1_555
H7 C11 1_555 1_555
C12 C11 1_555 1_555
H8 C12 1_555 1_555
C13 N1 1_555 1_555
H9 C13 1_555 1_555
C14 N2 1_555 1_555
H10 C14 1_555 1_555
H11 C14 1_555 1_555
H12 C14 1_555 1_555
C15 N2 1_555 1_555
H13 C15 1_555 1_555
H14 C15 1_555 1_555
H15 C15 1_555 1_555
C16 C17 1_555 1_555
C17 C18 1_555 1_555
C18 H16 1_555 1_555
H17 C18 1_555 1_555
H18 C18 1_555 1_555
C19 C17 1_555 1_555
H19 C19 1_555 1_555
C20 C19 1_555 1_555
C21 C20 1_555 1_555
H20 C21 1_555 1_555
H21 C21 1_555 1_555
H22 C21 1_555 1_555
C22 C20 1_555 1_555
H23 C22 1_555 1_555
C23 C16 1_555 1_555
C24 C23 1_555 1_555
H24 C24 1_555 1_555
H25 C24 1_555 1_555
H26 C24 1_555 1_555
C25 B1 1_555 1_555
C26 C25 1_555 1_555
C27 C26 1_555 1_555
H27 C27 1_555 1_555
H28 C27 1_555 1_555
H29 C27 1_555 1_555
C28 C26 1_555 1_555
H30 C28 1_555 1_555
C29 C28 1_555 1_555
C30 C29 1_555 1_555
H31 C30 1_555 1_555
H32 C30 1_555 1_555
H33 C30 1_555 1_555
C31 C29 1_555 1_555
H34 C31 1_555 1_555
C32 C25 1_555 1_555
C33 C32 1_555 1_555
H35 C33 1_555 1_555
H36 C33 1_555 1_555
H37 C33 1_555 1_555
C34 H38 1_555 1_555
C35 C34 1_555 1_555
H39 C35 1_555 1_555
C36 C35 1_555 1_555
H40 C36 1_555 1_555
C37 C36 1_555 1_555
H41 C37 1_555 1_555
C38 C37 1_555 1_555
H42 C38 1_555 1_555
C39 C34 1_555 1_555
H43 C39 1_555 1_555
C40 H44 1_555 1_555
C41 C40 1_555 1_555
H45 C41 1_555 1_555
C42 C41 1_555 1_555
H46 C42 1_555 1_555
C43 C42 1_555 1_555
H47 C43 1_555 1_555
C44 C43 1_555 1_555
H48 C44 1_555 1_555
C45 C40 1_555 1_555
H49 C45 1_555 1_555
C5 C8 1_555 1_555
C7 C8 1_555 1_555
C9 C10 1_555 1_555
C12 C13 1_555 1_555
C22 C23 1_555 1_555
C31 C32 1_555 1_555
C38 C39 1_555 1_555
C44 C45 1_555 1_555

#END
