
#######################################################################
#
#                 Cambridge Crystallographic Data Centre
#                                CCDC 
#
#######################################################################
#
# If this CIF has been generated from an entry in the Cambridge 
# Structural Database, then it will include bibliographic, chemical, 
# crystal, experimental, refinement or atomic coordinate data resulting 
# from the CCDC's data processing and validation procedures.
#
#######################################################################

data_FEZMIJ
_chemical_formula_moiety         'C34 H39 B1 N2'
_chemical_name_systematic        
7-[bis(2,4,6-trimethylphenyl)boranyl]-N,N,3-trimethyl-6a,10a-dihydrobenzo[f]quinolin-10-amine
_symmetry_cell_setting           triclinic
_symmetry_space_group_name_H-M   'P -1'
_symmetry_Int_Tables_number      2
_space_group_name_Hall           '-P 1'
loop_
_symmetry_equiv_pos_site_id
_symmetry_equiv_pos_as_xyz
1 x,y,z
2 -x,-y,-z
_cell_length_a                   10.294(3)
_cell_length_b                   11.896(4)
_cell_length_c                   13.128(5)
_cell_angle_alpha                66.239(11)
_cell_angle_beta                 88.621(11)
_cell_angle_gamma                75.243(12)
_cell_volume                     1417.2
_exptl_crystal_colour            green
_exptl_crystal_description       Block
_cell_formula_units_Z            2
loop_
_atom_site_label
_atom_site_type_symbol
_atom_site_fract_x
_atom_site_fract_y
_atom_site_fract_z
N1 N 0.09486(19) 0.65605(18) 0.41559(15)
N2 N 0.3366(2) 0.17052(18) 0.76519(18)
C1 C 0.2795(2) 0.53774(19) 0.76667(16)
C2 C 0.4034(2) 0.4541(2) 0.78099(17)
H1 H 0.4805 0.4830 0.7842
C3 C 0.4254(2) 0.3263(2) 0.79151(19)
H2 H 0.5102 0.2663 0.8221
C4 C 0.3242(2) 0.2905(2) 0.75753(18)
C5 C 0.1941(2) 0.3926(2) 0.70385(17)
H3 H 0.1198 0.3499 0.7133
C6 C 0.1600(2) 0.4853(2) 0.76166(18)
H4 H 0.1414 0.4365 0.8401
C7 C 0.0320(2) 0.5870(2) 0.7020(2)
H5 H -0.0309 0.6202 0.7437
C8 C 0.0062(2) 0.6305(2) 0.5926(2)
H6 H -0.0754 0.6935 0.5570
C9 C 0.1025(2) 0.5826(2) 0.52559(18)
C10 C 0.2001(2) 0.4675(2) 0.57927(18)
C11 C 0.2950(2) 0.4274(2) 0.51586(19)
H7 H 0.3632 0.3493 0.5493
C12 C 0.2888(3) 0.5031(2) 0.4030(2)
H8 H 0.3535 0.4774 0.3583
C13 C 0.1891(3) 0.6157(2) 0.35535(19)
C14 C 0.1798(3) 0.7027(3) 0.2340(2)
H9 H 0.2191 0.6527 0.1916
H10 H 0.2293 0.7660 0.2246
H11 H 0.0850 0.7462 0.2065
C15 C 0.2427(3) 0.1346(2) 0.7125(2)
H12 H 0.1672 0.2091 0.6724
H13 H 0.2086 0.0681 0.7695
H14 H 0.2884 0.1020 0.6597
C16 C 0.4616(3) 0.0730(3) 0.8192(3)
H15 H 0.5349 0.0904 0.7711
H16 H 0.4507 -0.0109 0.8317
H17 H 0.4834 0.0741 0.8910
C17 C 0.3928(2) 0.72571(19) 0.73423(17)
C18 C 0.4268(2) 0.7617(2) 0.62290(18)
C19 C 0.3495(3) 0.7435(2) 0.53605(18)
H18 H 0.3667 0.7986 0.4611
H19 H 0.2528 0.7659 0.5448
H20 H 0.3793 0.6543 0.5462
C20 C 0.5327(2) 0.8176(2) 0.5890(2)
H21 H 0.5501 0.8465 0.5125
C21 C 0.6137(2) 0.8328(2) 0.6627(2)
C22 C 0.7283(3) 0.8930(3) 0.6246(3)
H22 H 0.7348 0.9146 0.5447
H23 H 0.8129 0.8330 0.6666
H24 H 0.7118 0.9707 0.6379
C23 C 0.5843(2) 0.7922(2) 0.7732(2)
H25 H 0.6408 0.7982 0.8259
C24 C 0.4748(2) 0.7432(2) 0.80924(18)
C25 C 0.4462(3) 0.7075(3) 0.93054(19)
H26 H 0.3586 0.7616 0.9346
H27 H 0.5170 0.7197 0.9704
H28 H 0.4445 0.6179 0.9650
C26 C 0.1480(2) 0.7319(2) 0.82414(17)
C27 C 0.0719(2) 0.8593(2) 0.76396(18)
C28 C 0.0920(3) 0.9329(2) 0.64355(18)
H29 H 0.0629 0.8950 0.5973
H30 H 0.1877 0.9300 0.6363
H31 H 0.0386 1.0218 0.6187
C29 C -0.0282(2) 0.9191(2) 0.8124(2)
H32 H -0.0765 1.0054 0.7703
C30 C -0.0598(3) 0.8562(3) 0.9206(2)
C31 C -0.1671(3) 0.9227(3) 0.9728(3)
H33 H -0.2362 0.9880 0.9145
H34 H -0.1264 0.9629 1.0109
H35 H -0.2087 0.8603 1.0270
C32 C 0.0129(3) 0.7308(3) 0.9781(2)
H36 H -0.0077 0.6856 1.0520
C33 C 0.1144(2) 0.6672(2) 0.93366(18)
C34 C 0.1883(3) 0.5313(2) 1.00839(19)
H37 H 0.2582 0.4978 0.9682
H38 H 0.1244 0.4788 1.0299
H39 H 0.2303 0.5292 1.0756
B1 B 0.2706(3) 0.6646(2) 0.77402(19)
loop_
_geom_bond_atom_site_label_1
_geom_bond_atom_site_label_2
_geom_bond_site_symmetry_1
_geom_bond_site_symmetry_2
N1 C9 1_555 1_555
N2 C4 1_555 1_555
C1 C2 1_555 1_555
C2 H1 1_555 1_555
C3 C2 1_555 1_555
H2 C3 1_555 1_555
C4 C3 1_555 1_555
C5 C4 1_555 1_555
H3 C5 1_555 1_555
C6 C1 1_555 1_555
H4 C6 1_555 1_555
C7 C6 1_555 1_555
H5 C7 1_555 1_555
C8 C7 1_555 1_555
H6 C8 1_555 1_555
C9 C8 1_555 1_555
C10 C5 1_555 1_555
C11 C10 1_555 1_555
H7 C11 1_555 1_555
C12 C11 1_555 1_555
H8 C12 1_555 1_555
C13 N1 1_555 1_555
C14 C13 1_555 1_555
H9 C14 1_555 1_555
H10 C14 1_555 1_555
H11 C14 1_555 1_555
C15 N2 1_555 1_555
H12 C15 1_555 1_555
H13 C15 1_555 1_555
H14 C15 1_555 1_555
C16 N2 1_555 1_555
H15 C16 1_555 1_555
H16 C16 1_555 1_555
H17 C16 1_555 1_555
C17 C18 1_555 1_555
C18 C19 1_555 1_555
C19 H18 1_555 1_555
H19 C19 1_555 1_555
H20 C19 1_555 1_555
C20 C18 1_555 1_555
H21 C20 1_555 1_555
C21 C20 1_555 1_555
C22 C21 1_555 1_555
H22 C22 1_555 1_555
H23 C22 1_555 1_555
H24 C22 1_555 1_555
C23 C21 1_555 1_555
H25 C23 1_555 1_555
C24 C17 1_555 1_555
C25 C24 1_555 1_555
H26 C25 1_555 1_555
H27 C25 1_555 1_555
H28 C25 1_555 1_555
C26 C27 1_555 1_555
C27 C28 1_555 1_555
C28 H29 1_555 1_555
H30 C28 1_555 1_555
H31 C28 1_555 1_555
C29 C27 1_555 1_555
H32 C29 1_555 1_555
C30 C29 1_555 1_555
C31 C30 1_555 1_555
H33 C31 1_555 1_555
H34 C31 1_555 1_555
H35 C31 1_555 1_555
C32 C30 1_555 1_555
H36 C32 1_555 1_555
C33 C26 1_555 1_555
C34 C33 1_555 1_555
H37 C34 1_555 1_555
H38 C34 1_555 1_555
H39 C34 1_555 1_555
B1 C1 1_555 1_555
C5 C6 1_555 1_555
C9 C10 1_555 1_555
C12 C13 1_555 1_555
C17 B1 1_555 1_555
C23 C24 1_555 1_555
C26 B1 1_555 1_555
C32 C33 1_555 1_555

#END
