
#######################################################################
#
#                 Cambridge Crystallographic Data Centre
#                                CCDC 
#
#######################################################################
#
# If this CIF has been generated from an entry in the Cambridge 
# Structural Database, then it will include bibliographic, chemical, 
# crystal, experimental, refinement or atomic coordinate data resulting 
# from the CCDC's data processing and validation procedures.
#
#######################################################################

data_FEZNAC
_chemical_formula_moiety         'C32 H34 B1 N1 S1'
_chemical_name_systematic        
6-[bis(2,4,6-trimethylphenyl)boranyl]-N,N-dimethylnaphtho[1,2-b]thiophen-9-amine
_symmetry_cell_setting           orthorhombic
_symmetry_space_group_name_H-M   'P n a 21'
_symmetry_Int_Tables_number      33
_space_group_name_Hall           'P 2c -2n'
loop_
_symmetry_equiv_pos_site_id
_symmetry_equiv_pos_as_xyz
1 x,y,z
2 -x,-y,1/2+z
3 1/2+x,1/2-y,z
4 1/2-x,1/2+y,1/2+z
_cell_length_a                   32.54(4)
_cell_length_b                   9.129(10)
_cell_length_c                   9.286(12)
_cell_angle_alpha                90
_cell_angle_beta                 90
_cell_angle_gamma                90
_cell_volume                     2758.48
_exptl_crystal_colour            colorless
_exptl_crystal_description       Block
_cell_formula_units_Z            4
loop_
_atom_site_label
_atom_site_type_symbol
_atom_site_fract_x
_atom_site_fract_y
_atom_site_fract_z
S1 S 0.72991(6) 0.2214(2) 0.9515(2)
N1 N 0.74642(16) 0.5166(8) 0.8998(7)
B1 B 0.6141(2) 0.6118(10) 0.4778(9)
C1 C 0.64934(17) 0.5754(8) 0.5891(8)
C2 C 0.67362(19) 0.6907(9) 0.6369(8)
H1 H 0.6679 0.7863 0.6018
C3 C 0.70660(19) 0.6729(8) 0.7354(8)
H2 H 0.7231 0.7547 0.7607
C4 C 0.71465(18) 0.5387(9) 0.7940(7)
C5 C 0.69021(16) 0.4110(8) 0.7547(7)
C6 C 0.65812(18) 0.4336(9) 0.6471(7)
C7 C 0.63318(19) 0.3086(9) 0.6116(8)
H3 H 0.6121 0.3196 0.5418
C8 C 0.6387(2) 0.1754(10) 0.6740(8)
H4 H 0.6218 0.0958 0.6451
C9 C 0.66957(19) 0.1521(9) 0.7833(8)
C10 C 0.69471(19) 0.2735(9) 0.8196(7)
C11 C 0.7109(3) 0.0454(10) 0.9542(10)
H5 H 0.7220 -0.0288 1.0145
C12 C 0.6786(2) 0.0205(9) 0.8632(8)
H6 H 0.6644 -0.0698 0.8539
C13 C 0.59060(19) 0.7612(8) 0.5045(8)
C14 C 0.57143(19) 0.7921(9) 0.6415(8)
C15 C 0.5748(2) 0.6836(10) 0.7682(9)
H7 H 0.5702 0.5837 0.7332
H8 H 0.5541 0.7078 0.8411
H9 H 0.6023 0.6904 0.8110
C16 C 0.54753(19) 0.9156(9) 0.6600(9)
H10 H 0.5341 0.9304 0.7497
C17 C 0.5424(2) 1.0200(10) 0.5506(10)
C18 C 0.5164(3) 1.1570(12) 0.5737(13)
H11 H 0.5079 1.1966 0.4802
H12 H 0.5326 1.2306 0.6255
H13 H 0.4920 1.1319 0.6302
C19 C 0.5620(2) 0.9927(10) 0.4188(9)
H14 H 0.5589 1.0614 0.3427
C20 C 0.58565(19) 0.8701(9) 0.3960(8)
C21 C 0.6060(2) 0.8523(11) 0.2483(9)
H15 H 0.5888 0.7898 0.1872
H16 H 0.6331 0.8071 0.2601
H17 H 0.6091 0.9487 0.2031
C22 C 0.60228(18) 0.5087(9) 0.3473(7)
C23 C 0.56037(19) 0.4750(9) 0.3153(8)
C24 C 0.52510(18) 0.5398(11) 0.4042(10)
H18 H 0.5232 0.6453 0.3859
H19 H 0.5303 0.5230 0.5068
H20 H 0.4992 0.4926 0.3767
C25 C 0.5509(2) 0.3803(9) 0.2063(8)
H21 H 0.5229 0.3556 0.1911
C26 C 0.5807(2) 0.3179(10) 0.1158(9)
C27 C 0.5691(3) 0.2138(13) -0.0048(10)
H22 H 0.5675 0.2679 -0.0958
H23 H 0.5423 0.1693 0.0162
H24 H 0.5899 0.1367 -0.0129
C28 C 0.6213(2) 0.3541(9) 0.1450(8)
H25 H 0.6421 0.3153 0.0843
C29 C 0.63288(18) 0.4433(9) 0.2574(8)
C30 C 0.67859(19) 0.4741(11) 0.2791(10)
H26 H 0.6943 0.4301 0.2000
H27 H 0.6876 0.4317 0.3708
H28 H 0.6832 0.5801 0.2804
C31 C 0.7867(2) 0.4816(12) 0.8368(10)
H29 H 0.7838 0.3989 0.7703
H30 H 0.8060 0.4556 0.9137
H31 H 0.7971 0.5671 0.7844
C32 C 0.7495(3) 0.6317(12) 1.0058(10)
H32 H 0.7630 0.7173 0.9628
H33 H 0.7658 0.5972 1.0879
H34 H 0.7220 0.6590 1.0388
loop_
_geom_bond_atom_site_label_1
_geom_bond_atom_site_label_2
_geom_bond_site_symmetry_1
_geom_bond_site_symmetry_2
S1 C10 1_555 1_555
N1 C4 1_555 1_555
B1 C1 1_555 1_555
C1 C2 1_555 1_555
C2 H1 1_555 1_555
C3 C2 1_555 1_555
H2 C3 1_555 1_555
C4 C3 1_555 1_555
C5 C4 1_555 1_555
C6 C1 1_555 1_555
C7 C6 1_555 1_555
H3 C7 1_555 1_555
C8 C7 1_555 1_555
H4 C8 1_555 1_555
C9 C8 1_555 1_555
C10 C5 1_555 1_555
C11 S1 1_555 1_555
H5 C11 1_555 1_555
C12 C9 1_555 1_555
H6 C12 1_555 1_555
C13 B1 1_555 1_555
C14 C13 1_555 1_555
C15 C14 1_555 1_555
H7 C15 1_555 1_555
H8 C15 1_555 1_555
H9 C15 1_555 1_555
C16 C14 1_555 1_555
H10 C16 1_555 1_555
C17 C16 1_555 1_555
C18 C17 1_555 1_555
H11 C18 1_555 1_555
H12 C18 1_555 1_555
H13 C18 1_555 1_555
C19 C17 1_555 1_555
H14 C19 1_555 1_555
C20 C13 1_555 1_555
C21 C20 1_555 1_555
H15 C21 1_555 1_555
H16 C21 1_555 1_555
H17 C21 1_555 1_555
C22 B1 1_555 1_555
C23 C22 1_555 1_555
C24 C23 1_555 1_555
H18 C24 1_555 1_555
H19 C24 1_555 1_555
H20 C24 1_555 1_555
C25 C23 1_555 1_555
H21 C25 1_555 1_555
C26 C25 1_555 1_555
C27 C26 1_555 1_555
H22 C27 1_555 1_555
H23 C27 1_555 1_555
H24 C27 1_555 1_555
C28 C26 1_555 1_555
H25 C28 1_555 1_555
C29 C22 1_555 1_555
C30 C29 1_555 1_555
H26 C30 1_555 1_555
H27 C30 1_555 1_555
H28 C30 1_555 1_555
C31 N1 1_555 1_555
H29 C31 1_555 1_555
H30 C31 1_555 1_555
H31 C31 1_555 1_555
C32 N1 1_555 1_555
H32 C32 1_555 1_555
H33 C32 1_555 1_555
H34 C32 1_555 1_555
C5 C6 1_555 1_555
C9 C10 1_555 1_555
C11 C12 1_555 1_555
C19 C20 1_555 1_555
C28 C29 1_555 1_555

#END
