
#######################################################################
#
#                 Cambridge Crystallographic Data Centre
#                                CCDC 
#
#######################################################################
#
# If this CIF has been generated from an entry in the Cambridge 
# Structural Database, then it will include bibliographic, chemical, 
# crystal, experimental, refinement or atomic coordinate data resulting 
# from the CCDC's data processing and validation procedures.
#
#######################################################################

data_FEZNEG
_chemical_formula_moiety         'C31 H32 B1 N1'
_chemical_name_systematic        
2-(2-{2-[bis(2,4,6-trimethylphenyl)boranyl]phenyl}ethenyl)pyridine
_symmetry_cell_setting           monoclinic
_symmetry_space_group_name_H-M   'P 21/c'
_symmetry_Int_Tables_number      14
_space_group_name_Hall           '-P 2ybc'
loop_
_symmetry_equiv_pos_site_id
_symmetry_equiv_pos_as_xyz
1 x,y,z
2 -x,1/2+y,1/2-z
3 -x,-y,-z
4 x,1/2-y,1/2+z
_cell_length_a                   11.8634(7)
_cell_length_b                   11.8780(8)
_cell_length_c                   18.2134(11)
_cell_angle_alpha                90
_cell_angle_beta                 92.179(2)
_cell_angle_gamma                90
_cell_volume                     2564.66
_exptl_crystal_colour            yellow
_exptl_crystal_description       block
_cell_formula_units_Z            4
loop_
_atom_site_label
_atom_site_type_symbol
_atom_site_fract_x
_atom_site_fract_y
_atom_site_fract_z
B1 B 0.62163(14) 0.72318(14) 0.92390(9)
N1 N 1.09237(14) 0.85607(19) 1.10126(10)
C1 C 0.60631(13) 0.74775(13) 1.00802(8)
C2 C 0.49906(13) 0.72707(13) 1.03500(9)
H1 H 0.4396 0.7084 1.0016
C3 C 0.47784(15) 0.73315(15) 1.10896(9)
H2 H 0.4058 0.7158 1.1256
C4 C 0.56299(16) 0.76478(16) 1.15807(9)
H3 H 0.5493 0.7688 1.2085
C5 C 0.66825(15) 0.79055(15) 1.13348(9)
H4 H 0.7247 0.8152 1.1673
C6 C 0.69301(13) 0.78082(13) 1.05911(8)
C7 C 0.80619(14) 0.80717(15) 1.03497(9)
H5 H 0.8126 0.8216 0.9845
C8 C 0.89965(15) 0.81304(19) 1.07548(10)
H6 H 0.8936 0.8014 1.1262
C9 C 1.01246(15) 0.83593(18) 1.04942(11)
C10 C 1.0369(2) 0.8360(3) 0.97669(13)
H7 H 0.9798 0.8211 0.9408
C11 C 1.1454(2) 0.8580(3) 0.95603(15)
H8 H 1.1625 0.8592 0.9061
C12 C 1.22667(17) 0.8778(2) 1.00835(15)
H9 H 1.3016 0.8918 0.9960
C13 C 1.19654(18) 0.8768(2) 1.07882(15)
H10 H 1.2530 0.8917 1.1151
C14 C 0.51504(12) 0.74910(13) 0.87180(8)
C15 C 0.47312(13) 0.85977(14) 0.86483(8)
C16 C 0.53341(16) 0.95897(15) 0.89961(11)
H11 H 0.4799 1.0048 0.9253
H12 H 0.5674 1.0037 0.8618
H13 H 0.5917 0.9324 0.9341
C17 C 0.37526(14) 0.88100(16) 0.82298(9)
H14 H 0.3500 0.9557 0.8178
C18 C 0.31378(14) 0.79598(17) 0.78864(9)
C19 C 0.20597(18) 0.8223(2) 0.74488(13)
H15 H 0.1562 0.8660 0.7749
H16 H 0.1690 0.7526 0.7302
H17 H 0.2236 0.8653 0.7015
C20 C 0.35423(14) 0.68730(16) 0.79579(9)
H18 H 0.3132 0.6282 0.7731
C21 C 0.45381(13) 0.66239(14) 0.83549(8)
C22 C 0.49093(17) 0.54173(15) 0.84056(11)
H19 H 0.4427 0.4959 0.8084
H20 H 0.4856 0.5157 0.8908
H21 H 0.5684 0.5356 0.8258
C23 C 0.73379(13) 0.66878(14) 0.89586(9)
C24 C 0.79420(13) 0.71993(16) 0.83905(9)
C25 C 0.75977(16) 0.83177(17) 0.80697(10)
H22 H 0.7980 0.8438 0.7615
H23 H 0.7803 0.8912 0.8415
H24 H 0.6788 0.8326 0.7972
C26 C 0.89316(15) 0.67123(19) 0.81565(11)
H25 H 0.9321 0.7063 0.7779
C27 C 0.93608(16) 0.5733(2) 0.84597(13)
C28 C 1.0443(2) 0.5211(3) 0.81935(18)
H26 H 1.0503 0.5356 0.7672
H27 H 1.0431 0.4405 0.8278
H28 H 1.1086 0.5538 0.8460
C29 C 0.87847(16) 0.52377(18) 0.90208(13)
H29 H 0.9071 0.4572 0.9236
C30 C 0.77895(14) 0.56955(15) 0.92784(10)
C31 C 0.72286(17) 0.50837(17) 0.98937(12)
H30 H 0.7513 0.4319 0.9926
H31 H 0.6419 0.5068 0.9796
H32 H 0.7393 0.5471 1.0354
loop_
_geom_bond_atom_site_label_1
_geom_bond_atom_site_label_2
_geom_bond_site_symmetry_1
_geom_bond_site_symmetry_2
B1 C1 1_555 1_555
N1 C9 1_555 1_555
C1 C2 1_555 1_555
C2 H1 1_555 1_555
C3 C2 1_555 1_555
H2 C3 1_555 1_555
C4 C3 1_555 1_555
H3 C4 1_555 1_555
C5 C4 1_555 1_555
H4 C5 1_555 1_555
C6 C1 1_555 1_555
C7 C6 1_555 1_555
H5 C7 1_555 1_555
C8 C7 1_555 1_555
H6 C8 1_555 1_555
C9 C8 1_555 1_555
C10 C9 1_555 1_555
H7 C10 1_555 1_555
C11 C10 1_555 1_555
H8 C11 1_555 1_555
C12 C11 1_555 1_555
H9 C12 1_555 1_555
C13 N1 1_555 1_555
H10 C13 1_555 1_555
C14 B1 1_555 1_555
C15 C14 1_555 1_555
C16 C15 1_555 1_555
H11 C16 1_555 1_555
H12 C16 1_555 1_555
H13 C16 1_555 1_555
C17 C15 1_555 1_555
H14 C17 1_555 1_555
C18 C17 1_555 1_555
C19 C18 1_555 1_555
H15 C19 1_555 1_555
H16 C19 1_555 1_555
H17 C19 1_555 1_555
C20 C18 1_555 1_555
H18 C20 1_555 1_555
C21 C14 1_555 1_555
C22 C21 1_555 1_555
H19 C22 1_555 1_555
H20 C22 1_555 1_555
H21 C22 1_555 1_555
C23 B1 1_555 1_555
C24 C23 1_555 1_555
C25 C24 1_555 1_555
H22 C25 1_555 1_555
H23 C25 1_555 1_555
H24 C25 1_555 1_555
C26 C24 1_555 1_555
H25 C26 1_555 1_555
C27 C26 1_555 1_555
C28 C27 1_555 1_555
H26 C28 1_555 1_555
H27 C28 1_555 1_555
H28 C28 1_555 1_555
C29 C27 1_555 1_555
H29 C29 1_555 1_555
C30 C23 1_555 1_555
C31 C30 1_555 1_555
H30 C31 1_555 1_555
H31 C31 1_555 1_555
H32 C31 1_555 1_555
C5 C6 1_555 1_555
C12 C13 1_555 1_555
C20 C21 1_555 1_555
C29 C30 1_555 1_555

#END
