
#######################################################################
#
#                 Cambridge Crystallographic Data Centre
#                                CCDC 
#
#######################################################################
#
# If this CIF has been generated from an entry in the Cambridge 
# Structural Database, then it will include bibliographic, chemical, 
# crystal, experimental, refinement or atomic coordinate data resulting 
# from the CCDC's data processing and validation procedures.
#
#######################################################################

data_FEZNUW
_chemical_formula_moiety         'C29 H46 N3 1+,C32 H36 N4,C32 H12 B1 F24 1-'
_chemical_name_systematic        
'bis[(3,5-di-t-butylphenyl)amino]methaniminium tetrakis[3,5-bis(trifluoromethyl)phenyl]borate 3,11,19,27-tetraazapentacyclo[27.3.1.1^5,9^.1^13,17^.1^21,25^]hexatriaconta-1(33),5(36),6,8,13(35),14,16,21(34),22,24,29,31-dodecaene'
_symmetry_cell_setting           monoclinic
_symmetry_space_group_name_H-M   'P 21/c'
_symmetry_Int_Tables_number      14
_space_group_name_Hall           '-P 2ybc'
loop_
_symmetry_equiv_pos_site_id
_symmetry_equiv_pos_as_xyz
1 x,y,z
2 -x,1/2+y,1/2-z
3 -x,-y,-z
4 x,1/2-y,1/2+z
_cell_length_a                   12.7907(4)
_cell_length_b                   18.3240(14)
_cell_length_c                   38.1609(19)
_cell_angle_alpha                90
_cell_angle_beta                 92.727(4)
_cell_angle_gamma                90
_cell_volume                     8933.9
_cell_formula_units_Z            4
loop_
_atom_site_label
_atom_site_type_symbol
_atom_site_fract_x
_atom_site_fract_y
_atom_site_fract_z
N1 N 0.1747(2) 1.05062(17) 0.02451(8)
H1 H 0.1161 1.0755 0.0259
N2 N -0.1238(2) 0.85692(18) 0.04744(8)
H2 H -0.1123 0.9018 0.0403
N3 N -0.0342(2) 0.91640(18) 0.19576(8)
H3 H 0.0144 0.9049 0.1811
N4 N 0.1435(3) 1.19130(19) 0.15954(9)
H4 H 0.1151 1.1560 0.1466
C1 C 0.2519(3) 1.1530(2) 0.09688(10)
H5 H 0.2435 1.1128 0.1122
C2 C 0.2485(3) 1.2239(2) 0.11029(11)
C3 C 0.2604(3) 1.2816(2) 0.08750(12)
H6 H 0.2583 1.3302 0.0961
C4 C 0.2754(4) 1.2696(3) 0.05242(13)
H7 H 0.2830 1.3098 0.0370
C5 C 0.2794(3) 1.1996(3) 0.03968(12)
H8 H 0.2905 1.1916 0.0155
C6 C 0.2673(3) 1.1403(2) 0.06201(10)
C7 C 0.2703(3) 1.0647(2) 0.04712(11)
H9 H 0.3330 1.0591 0.0331
H10 H 0.2749 1.0286 0.0665
C8 C 0.1884(3) 0.9904(2) -0.00066(10)
H11 H 0.2591 0.9941 -0.0100
H12 H 0.1368 0.9965 -0.0206
C9 C 0.1755(3) 0.9158(2) 0.01452(9)
C10 C 0.2590(3) 0.8695(3) 0.02160(11)
H13 H 0.3280 0.8850 0.0172
C11 C 0.2429(4) 0.8007(3) 0.03512(12)
H14 H 0.3008 0.7689 0.0394
C12 C 0.1444(3) 0.7777(2) 0.04245(11)
H15 H 0.1345 0.7307 0.0523
C13 C 0.0587(3) 0.8234(2) 0.03553(9)
C14 C 0.0760(3) 0.8914(2) 0.02123(9)
H16 H 0.0178 0.9223 0.0158
C15 C -0.0495(3) 0.7972(2) 0.04399(11)
H17 H -0.0760 0.7639 0.0252
H18 H -0.0447 0.7692 0.0662
C16 C -0.2198(3) 0.8343(2) 0.06406(10)
H19 H -0.2529 0.7942 0.0501
H20 H -0.2693 0.8758 0.0636
C17 C -0.2013(3) 0.8089(2) 0.10147(10)
C18 C -0.1996(3) 0.7355(2) 0.10961(11)
H21 H -0.2142 0.7003 0.0917
C19 C -0.1766(3) 0.7130(2) 0.14366(12)
H22 H -0.1739 0.6623 0.1490
C20 C -0.1576(3) 0.7635(2) 0.16982(11)
H23 H -0.1425 0.7475 0.1932
C21 C -0.1603(3) 0.8378(2) 0.16240(11)
C22 C -0.1819(3) 0.8591(2) 0.12831(10)
H24 H -0.1837 0.9097 0.1229
C23 C -0.1432(3) 0.8927(3) 0.19132(11)
H25 H -0.1880 0.9358 0.1862
H26 H -0.1651 0.8711 0.2136
C24 C -0.0142(3) 0.9618(2) 0.22754(10)
H27 H 0.0602 0.9571 0.2356
H28 H -0.0577 0.9438 0.2465
C25 C -0.0392(3) 1.0413(2) 0.22038(9)
C26 C -0.1411(3) 1.0667(3) 0.21920(10)
H29 H -0.1966 1.0352 0.2251
C27 C -0.1622(4) 1.1384(3) 0.20932(12)
H30 H -0.2324 1.1555 0.2080
C28 C -0.0825(4) 1.1848(3) 0.20142(11)
H31 H -0.0980 1.2335 0.1944
C29 C 0.0208(3) 1.1609(2) 0.20360(10)
C30 C 0.0398(3) 1.0885(2) 0.21285(10)
H32 H 0.1098 1.0712 0.2140
C31 C 0.1095(4) 1.2101(3) 0.19417(12)
H33 H 0.0862 1.2616 0.1944
H34 H 0.1687 1.2046 0.2117
C32 C 0.2292(4) 1.2367(3) 0.14828(11)
H35 H 0.2936 1.2254 0.1627
H36 H 0.2120 1.2888 0.1519
N5 N -0.0076(2) 1.01264(17) 0.13666(7)
H37 H 0.0096 0.9848 0.1548
H38 H -0.0536 1.0479 0.1387
N6 N 0.1053(2) 0.94822(17) 0.10334(7)
H39 H 0.1187 0.9329 0.0822
N7 N 0.0094(2) 1.04184(15) 0.07799(7)
H40 H 0.0433 1.0353 0.0587
C33 C 0.0357(3) 1.0015(2) 0.10644(9)
C34 C 0.1600(3) 0.9142(2) 0.13312(9)
C35 C 0.2237(3) 0.9571(2) 0.15501(9)
H41 H 0.2297 1.0080 0.1507
C36 C 0.2787(3) 0.9255(2) 0.18323(10)
C37 C 0.2664(3) 0.8513(2) 0.18863(10)
H42 H 0.3023 0.8295 0.2083
C38 C 0.2037(3) 0.8071(2) 0.16657(10)
C39 C 0.1494(3) 0.8408(2) 0.13812(9)
H43 H 0.1056 0.8128 0.1225
C40 C -0.0729(3) 1.0957(2) 0.07814(9)
C41 C -0.0485(3) 1.1679(2) 0.07272(9)
H44 H 0.0216 1.1816 0.0688
C42 C -0.1268(3) 1.2213(2) 0.07295(9)
C43 C -0.2273(3) 1.1979(2) 0.07873(10)
H45 H -0.2813 1.2336 0.0787
C44 C -0.2545(3) 1.1257(2) 0.08466(9)
C45 C -0.1741(3) 1.0745(2) 0.08362(9)
H46 H -0.1894 1.0243 0.0867
C46 C 0.1919(3) 0.7257(2) 0.17398(10)
C47 C 0.1340(5) 0.6854(3) 0.14349(14)
H47 H 0.1734 0.6905 0.1222
H48 H 0.0641 0.7065 0.1394
H49 H 0.1277 0.6336 0.1494
C48 C 0.1249(4) 0.7159(3) 0.20537(15)
H50 H 0.1583 0.7405 0.2258
H51 H 0.1175 0.6638 0.2104
H52 H 0.0556 0.7373 0.2002
C49 C 0.2977(4) 0.6918(3) 0.1821(2)
H53 H 0.3329 0.7179 0.2018
H54 H 0.3400 0.6952 0.1614
H55 H 0.2889 0.6404 0.1885
C50 C 0.3557(3) 0.9698(2) 0.20722(11)
C51 C 0.3639(3) 1.0494(2) 0.19537(12)
H56 H 0.2953 1.0729 0.1964
H57 H 0.3869 1.0510 0.1713
H58 H 0.4146 1.0752 0.2109
C52 C 0.4647(3) 0.9351(3) 0.20559(13)
H59 H 0.4616 0.8840 0.2132
H60 H 0.5145 0.9618 0.2211
H61 H 0.4875 0.9371 0.1815
C53 C 0.3209(4) 0.9677(3) 0.24519(11)
H62 H 0.3154 0.9169 0.2529
H63 H 0.2527 0.9916 0.2464
H64 H 0.3725 0.9934 0.2605
C54 C -0.0975(3) 1.3017(2) 0.06908(11)
C55 C -0.0358(4) 1.3258(2) 0.10265(12)
H65 H 0.0271 1.2955 0.1061
H66 H -0.0797 1.3201 0.1228
H67 H -0.0153 1.3771 0.1005
C56 C -0.0307(4) 1.3142(2) 0.03773(11)
H68 H 0.0320 1.2835 0.0399
H69 H -0.0099 1.3657 0.0369
H70 H -0.0710 1.3016 0.0161
C57 C -0.1951(3) 1.3501(2) 0.06451(15)
H71 H -0.2355 1.3357 0.0432
H72 H -0.1737 1.4012 0.0626
H73 H -0.2383 1.3442 0.0848
C58 C -0.3653(3) 1.1019(2) 0.09314(10)
C59 C -0.4431(3) 1.1647(2) 0.09140(12)
H74 H -0.4194 1.2031 0.1078
H75 H -0.5120 1.1471 0.0978
H76 H -0.4481 1.1845 0.0675
C60 C -0.4048(3) 1.0427(3) 0.06731(12)
H77 H -0.4076 1.0625 0.0434
H78 H -0.4749 1.0270 0.0733
H79 H -0.3570 1.0009 0.0687
C61 C -0.3621(3) 1.0701(3) 0.13042(11)
H80 H -0.3376 1.1076 0.1472
H81 H -0.3142 1.0284 0.1318
H82 H -0.4324 1.0542 0.1361
B1 B 0.5772(3) 0.5262(2) 0.12242(10)
F1 F 0.5197(2) 0.78750(14) 0.06810(7)
F2 F 0.5509(2) 0.86365(14) 0.10931(8)
F3 F 0.40021(19) 0.81545(15) 0.10275(7)
F4 F 0.6455(2) 0.78254(15) 0.22698(7)
F5 F 0.6959(2) 0.67273(15) 0.23298(6)
F6 F 0.5381(2) 0.69983(18) 0.24133(7)
F7 F 0.82758(16) 0.61861(14) 0.02904(6)
F8 F 0.98100(15) 0.61975(13) 0.05351(6)
F9 F 0.9249(2) 0.52352(14) 0.02800(7)
F10 F 0.9270(10) 0.4293(7) 0.1865(4)
F11 F 0.9654(12) 0.5369(8) 0.1931(4)
F12 F 1.0536(14) 0.4719(14) 0.1616(6)
F13 F 0.1991(7) 0.5696(6) 0.0265(3)
F14 F 0.1935(5) 0.5687(9) 0.0830(3)
F15 F 0.1533(5) 0.4766(5) 0.0530(2)
F16 F 0.59470(19) 0.38631(14) -0.00148(7)
F17 F 0.5154(2) 0.30709(13) 0.02709(7)
F18 F 0.4364(2) 0.36068(16) -0.01611(7)
F19 F 0.6788(2) 0.26445(13) 0.16440(7)
F20 F 0.5398(2) 0.21916(13) 0.18399(8)
F21 F 0.6473(2) 0.27484(16) 0.21885(7)
F22 F 0.3206(5) 0.4428(7) 0.24393(14)
F23 F 0.2591(8) 0.5000(5) 0.1998(3)
F24 F 0.2341(5) 0.3887(5) 0.2044(3)
C62 C 0.5615(2) 0.6096(2) 0.13601(9)
C63 C 0.5358(2) 0.6683(2) 0.11357(9)
H83 H 0.5184 0.6590 0.0895
C64 C 0.5352(3) 0.7402(2) 0.12583(10)
C65 C 0.5612(3) 0.7561(2) 0.16043(10)
H84 H 0.5611 0.8050 0.1686
C66 C 0.5876(3) 0.6995(2) 0.18299(9)
C67 C 0.5869(3) 0.6279(2) 0.17083(9)
H85 H 0.6044 0.5899 0.1870
C68 C 0.5015(3) 0.8010(2) 0.10155(11)
C69 C 0.6155(3) 0.7135(3) 0.22050(11)
C70 C 0.7037(2) 0.52172(19) 0.11653(9)
C71 C 0.7765(3) 0.5032(2) 0.14379(9)
H86 H 0.7515 0.4869 0.1655
C72 C 0.8828(3) 0.5078(2) 0.14015(9)
C73 C 0.9233(3) 0.5325(2) 0.10931(10)
H87 H 0.9968 0.5359 0.1069
C74 C 0.8530(3) 0.55232(19) 0.08181(9)
C75 C 0.7465(2) 0.54659(19) 0.08544(9)
H88 H 0.7005 0.5599 0.0662
C76 C 0.9558(3) 0.4887(3) 0.17068(12)
C77 C 0.8964(3) 0.5780(2) 0.04839(10)
C78 C 0.5049(2) 0.50470(19) 0.08735(9)
C79 C 0.5351(2) 0.45399(19) 0.06263(9)
H89 H 0.6049 0.4361 0.0640
C80 C 0.4663(3) 0.4285(2) 0.03588(9)
C81 C 0.3647(3) 0.4546(2) 0.03276(9)
H90 H 0.3180 0.4385 0.0142
C82 C 0.3325(3) 0.5048(2) 0.05727(9)
C83 C 0.4019(3) 0.5294(2) 0.08390(9)
H91 H 0.3783 0.5642 0.1002
C84 C 0.5027(3) 0.3716(2) 0.01136(10)
C85 C 0.2228(3) 0.5323(3) 0.05471(12)
C86 C 0.5382(2) 0.4675(2) 0.15156(9)
C87 C 0.5858(3) 0.3986(2) 0.15661(9)
H92 H 0.6463 0.3869 0.1442
C88 C 0.5462(3) 0.3475(2) 0.17934(9)
C89 C 0.4567(3) 0.3608(2) 0.19691(9)
H93 H 0.4295 0.3252 0.2121
C90 C 0.4076(3) 0.4273(2) 0.19178(9)
C91 C 0.4491(3) 0.4794(2) 0.16988(9)
H94 H 0.4147 0.5251 0.1674
C92 C 0.6028(4) 0.2771(2) 0.18628(12)
C93 C 0.3093(3) 0.4429(3) 0.20976(12)
F25? F 0.933(2) 0.5377(17) 0.2008(7)
F26? F 1.0511(17) 0.496(2) 0.1641(9)
F27? F 0.934(2) 0.4231(10) 0.1837(8)
F28? F 0.2202(10) 0.6008(8) 0.0646(6)
F29? F 0.1625(14) 0.4988(14) 0.0733(10)
F30? F 0.1849(16) 0.5378(18) 0.0241(5)
F31? F 0.2817(11) 0.3983(10) 0.2305(6)
F32? F 0.3370(8) 0.5080(10) 0.2321(4)
F33? F 0.2419(11) 0.4716(16) 0.1923(6)
loop_
_geom_bond_atom_site_label_1
_geom_bond_atom_site_label_2
_geom_bond_site_symmetry_1
_geom_bond_site_symmetry_2
N1 H1 1_555 1_555
N2 H2 1_555 1_555
N3 H3 1_555 1_555
N4 H4 1_555 1_555
C1 H5 1_555 1_555
C2 C1 1_555 1_555
C3 C2 1_555 1_555
H6 C3 1_555 1_555
C4 C3 1_555 1_555
H7 C4 1_555 1_555
C5 C4 1_555 1_555
H8 C5 1_555 1_555
C6 C1 1_555 1_555
C7 N1 1_555 1_555
H9 C7 1_555 1_555
H10 C7 1_555 1_555
C8 N1 1_555 1_555
H11 C8 1_555 1_555
H12 C8 1_555 1_555
C9 C8 1_555 1_555
C10 C9 1_555 1_555
H13 C10 1_555 1_555
C11 C10 1_555 1_555
H14 C11 1_555 1_555
C12 C11 1_555 1_555
H15 C12 1_555 1_555
C13 C12 1_555 1_555
C14 C9 1_555 1_555
H16 C14 1_555 1_555
C15 N2 1_555 1_555
H17 C15 1_555 1_555
H18 C15 1_555 1_555
C16 N2 1_555 1_555
H19 C16 1_555 1_555
H20 C16 1_555 1_555
C17 C16 1_555 1_555
C18 C17 1_555 1_555
H21 C18 1_555 1_555
C19 C18 1_555 1_555
H22 C19 1_555 1_555
C20 C19 1_555 1_555
H23 C20 1_555 1_555
C21 C20 1_555 1_555
C22 C17 1_555 1_555
H24 C22 1_555 1_555
C23 N3 1_555 1_555
H25 C23 1_555 1_555
H26 C23 1_555 1_555
C24 N3 1_555 1_555
H27 C24 1_555 1_555
H28 C24 1_555 1_555
C25 C24 1_555 1_555
C26 C25 1_555 1_555
H29 C26 1_555 1_555
C27 C26 1_555 1_555
H30 C27 1_555 1_555
C28 C27 1_555 1_555
H31 C28 1_555 1_555
C29 C28 1_555 1_555
C30 C25 1_555 1_555
H32 C30 1_555 1_555
C31 N4 1_555 1_555
H33 C31 1_555 1_555
H34 C31 1_555 1_555
C32 N4 1_555 1_555
H35 C32 1_555 1_555
H36 C32 1_555 1_555
N5 H37 1_555 1_555
H38 N5 1_555 1_555
N6 H39 1_555 1_555
N7 H40 1_555 1_555
C33 N5 1_555 1_555
C34 N6 1_555 1_555
C35 C34 1_555 1_555
H41 C35 1_555 1_555
C36 C35 1_555 1_555
C37 C36 1_555 1_555
H42 C37 1_555 1_555
C38 C37 1_555 1_555
C39 C34 1_555 1_555
H43 C39 1_555 1_555
C40 N7 1_555 1_555
C41 C40 1_555 1_555
H44 C41 1_555 1_555
C42 C41 1_555 1_555
C43 C42 1_555 1_555
H45 C43 1_555 1_555
C44 C43 1_555 1_555
C45 C40 1_555 1_555
H46 C45 1_555 1_555
C46 C38 1_555 1_555
C47 C46 1_555 1_555
H47 C47 1_555 1_555
H48 C47 1_555 1_555
H49 C47 1_555 1_555
C48 C46 1_555 1_555
H50 C48 1_555 1_555
H51 C48 1_555 1_555
H52 C48 1_555 1_555
C49 C46 1_555 1_555
H53 C49 1_555 1_555
H54 C49 1_555 1_555
H55 C49 1_555 1_555
C50 C36 1_555 1_555
C51 C50 1_555 1_555
H56 C51 1_555 1_555
H57 C51 1_555 1_555
H58 C51 1_555 1_555
C52 C50 1_555 1_555
H59 C52 1_555 1_555
H60 C52 1_555 1_555
H61 C52 1_555 1_555
C53 C50 1_555 1_555
H62 C53 1_555 1_555
H63 C53 1_555 1_555
H64 C53 1_555 1_555
C54 C42 1_555 1_555
C55 C54 1_555 1_555
H65 C55 1_555 1_555
H66 C55 1_555 1_555
H67 C55 1_555 1_555
C56 C54 1_555 1_555
H68 C56 1_555 1_555
H69 C56 1_555 1_555
H70 C56 1_555 1_555
C57 C54 1_555 1_555
H71 C57 1_555 1_555
H72 C57 1_555 1_555
H73 C57 1_555 1_555
C58 C44 1_555 1_555
C59 C58 1_555 1_555
H74 C59 1_555 1_555
H75 C59 1_555 1_555
H76 C59 1_555 1_555
C60 C58 1_555 1_555
H77 C60 1_555 1_555
H78 C60 1_555 1_555
H79 C60 1_555 1_555
C61 C58 1_555 1_555
H80 C61 1_555 1_555
H81 C61 1_555 1_555
H82 C61 1_555 1_555
B1 C62 1_555 1_555
F1 C68 1_555 1_555
F2 C68 1_555 1_555
F3 C68 1_555 1_555
F4 C69 1_555 1_555
F5 C69 1_555 1_555
F6 C69 1_555 1_555
F7 C77 1_555 1_555
F8 C77 1_555 1_555
F9 C77 1_555 1_555
F10 C76 1_555 1_555
F11 C76 1_555 1_555
F12 C76 1_555 1_555
F13 C85 1_555 1_555
F14 C85 1_555 1_555
F15 C85 1_555 1_555
F16 C84 1_555 1_555
F17 C84 1_555 1_555
F18 C84 1_555 1_555
F19 C92 1_555 1_555
F20 C92 1_555 1_555
F21 C92 1_555 1_555
F22 C93 1_555 1_555
F23 C93 1_555 1_555
F24 C93 1_555 1_555
C62 C63 1_555 1_555
C63 H83 1_555 1_555
C64 C63 1_555 1_555
C65 C64 1_555 1_555
H84 C65 1_555 1_555
C66 C65 1_555 1_555
C67 C62 1_555 1_555
H85 C67 1_555 1_555
C68 C64 1_555 1_555
C69 C66 1_555 1_555
C70 B1 1_555 1_555
C71 C70 1_555 1_555
H86 C71 1_555 1_555
C72 C71 1_555 1_555
C73 C72 1_555 1_555
H87 C73 1_555 1_555
C74 C73 1_555 1_555
C75 C70 1_555 1_555
H88 C75 1_555 1_555
C76 C72 1_555 1_555
C77 C74 1_555 1_555
C78 B1 1_555 1_555
C79 C78 1_555 1_555
H89 C79 1_555 1_555
C80 C79 1_555 1_555
C81 C80 1_555 1_555
H90 C81 1_555 1_555
C82 C81 1_555 1_555
C83 C78 1_555 1_555
H91 C83 1_555 1_555
C84 C80 1_555 1_555
C85 C82 1_555 1_555
C86 B1 1_555 1_555
C87 C86 1_555 1_555
H92 C87 1_555 1_555
C88 C87 1_555 1_555
C89 C88 1_555 1_555
H93 C89 1_555 1_555
C90 C89 1_555 1_555
C91 C86 1_555 1_555
H94 C91 1_555 1_555
C92 C88 1_555 1_555
C93 C90 1_555 1_555
C2 C32 1_555 1_555
C5 C6 1_555 1_555
C6 C7 1_555 1_555
C13 C14 1_555 1_555
C13 C15 1_555 1_555
C21 C22 1_555 1_555
C21 C23 1_555 1_555
C29 C30 1_555 1_555
C29 C31 1_555 1_555
N6 C33 1_555 1_555
N7 C33 1_555 1_555
C38 C39 1_555 1_555
C44 C45 1_555 1_555
C66 C67 1_555 1_555
C74 C75 1_555 1_555
C82 C83 1_555 1_555
C90 C91 1_555 1_555

#END
