
#######################################################################
#
#                 Cambridge Crystallographic Data Centre
#                                CCDC 
#
#######################################################################
#
# If this CIF has been generated from an entry in the Cambridge 
# Structural Database, then it will include bibliographic, chemical, 
# crystal, experimental, refinement or atomic coordinate data resulting 
# from the CCDC's data processing and validation procedures.
#
#######################################################################

data_FEZPAE
_chemical_formula_moiety         'C26 H22 O5'
_chemical_name_systematic        
'ethyl 4-{[2-(benzenecarbonyl)phenyl]methyl}-2-oxo-3,4-dihydro-2H-1-benzopyran-3-carboxylate'
_symmetry_cell_setting           triclinic
_symmetry_space_group_name_H-M   'P -1'
_symmetry_Int_Tables_number      2
_space_group_name_Hall           '-P 1'
loop_
_symmetry_equiv_pos_site_id
_symmetry_equiv_pos_as_xyz
1 x,y,z
2 -x,-y,-z
_cell_length_a                   8.58811(15)
_cell_length_b                   9.78515(16)
_cell_length_c                   13.2312(2)
_cell_angle_alpha                89.0458(13)
_cell_angle_beta                 80.7673(14)
_cell_angle_gamma                86.3224(14)
_cell_volume                     1095.21
_exptl_crystal_colour            colorless
_exptl_crystal_description       block
_cell_formula_units_Z            2
loop_
_atom_site_label
_atom_site_type_symbol
_atom_site_fract_x
_atom_site_fract_y
_atom_site_fract_z
O1 O 0.61686(12) 0.68533(10) 0.62067(7)
O2 O 0.72666(17) 0.59248(14) 0.47478(8)
O3 O 1.02855(12) 0.53072(12) 0.71961(9)
O4 O 0.99997(14) 0.68646(11) 0.59757(11)
O5 O 0.68985(11) 0.15359(12) 0.87011(7)
C1 C 0.72245(17) 0.59420(14) 0.56518(10)
C2 C 0.82464(14) 0.50412(12) 0.62459(9)
H1 H 0.8679 0.4251 0.5823
C3 C 0.72658(13) 0.45209(11) 0.72313(8)
H2 H 0.7977 0.4026 0.7641
C4 C 0.65061(13) 0.57616(12) 0.78161(9)
C5 C 0.62659(16) 0.58413(14) 0.88766(10)
H3 H 0.6597 0.5105 0.9260
C6 C 0.55384(19) 0.70050(17) 0.93691(11)
H4 H 0.5366 0.7042 1.0080
C7 C 0.50716(19) 0.81047(16) 0.88074(13)
H5 H 0.4590 0.8887 0.9142
C8 C 0.53100(17) 0.80601(14) 0.77554(12)
H6 H 0.5000 0.8807 0.7374
C9 C 0.60202(14) 0.68811(13) 0.72759(9)
C10 C 0.96061(15) 0.58577(13) 0.64499(11)
C11 C 1.1617(2) 0.5982(3) 0.74767(18)
H7 H 1.2577 0.5714 0.7013
H8 H 1.1433 0.6969 0.7434
C12 C 1.1778(6) 0.5576(6) 0.8517(3)
H9 H 1.0803 0.5803 0.8965
H10 H 1.2611 0.6051 0.8732
H11 H 1.2025 0.4607 0.8543
C13 C 0.60032(13) 0.35624(12) 0.70248(10)
H12 H 0.5376 0.3326 0.7673
H13 H 0.5303 0.4053 0.6617
C14 C 0.66605(13) 0.22562(12) 0.64772(9)
C15 C 0.63483(17) 0.20137(15) 0.55014(10)
H14 H 0.5740 0.2663 0.5190
C16 C 0.6925(2) 0.08227(17) 0.49819(11)
H15 H 0.6686 0.0675 0.4333
C17 C 0.78463(18) -0.01388(15) 0.54175(11)
H16 H 0.8224 -0.0941 0.5070
C18 C 0.82066(16) 0.00936(13) 0.63724(10)
H17 H 0.8857 -0.0545 0.6662
C19 C 0.76102(13) 0.12760(12) 0.69138(9)
C20 C 0.79645(14) 0.14331(12) 0.79732(9)
C21 C 0.96474(14) 0.14529(12) 0.81189(9)
C22 C 1.00245(19) 0.13601(18) 0.90959(12)
H18 H 0.9229 0.1296 0.9658
C23 C 1.1586(2) 0.1363(2) 0.92377(15)
H19 H 1.1837 0.1286 0.9895
C24 C 1.27663(19) 0.14783(17) 0.84128(16)
H20 H 1.3815 0.1460 0.8512
C25 C 1.24044(17) 0.16195(17) 0.74492(14)
H21 H 1.3202 0.1725 0.6894
C26 C 1.08521(16) 0.16062(16) 0.72988(11)
H22 H 1.0611 0.1701 0.6640
H23? H 1.2419 0.5302 0.7631
H24? H 1.2082 0.6543 0.6910
C27? C 1.1076(10) 0.6818(16) 0.8352(9)
H25? H 1.0264 0.7474 0.8201
H26? H 1.1942 0.7289 0.8526
H27? H 1.0658 0.6252 0.8918
loop_
_geom_bond_atom_site_label_1
_geom_bond_atom_site_label_2
_geom_bond_site_symmetry_1
_geom_bond_site_symmetry_2
O1 C1 1_555 1_555
O2 C1 1_555 1_555
O3 C10 1_555 1_555
O4 C10 1_555 1_555
O5 C20 1_555 1_555
C1 C2 1_555 1_555
C2 H1 1_555 1_555
C3 C2 1_555 1_555
H2 C3 1_555 1_555
C4 C3 1_555 1_555
C5 C4 1_555 1_555
H3 C5 1_555 1_555
C6 C5 1_555 1_555
H4 C6 1_555 1_555
C7 C6 1_555 1_555
H5 C7 1_555 1_555
C8 C7 1_555 1_555
H6 C8 1_555 1_555
C9 O1 1_555 1_555
C10 C2 1_555 1_555
C11 O3 1_555 1_555
H7 C11 1_555 1_555
H8 C11 1_555 1_555
C12 C11 1_555 1_555
H9 C12 1_555 1_555
H10 C12 1_555 1_555
H11 C12 1_555 1_555
C13 C3 1_555 1_555
H12 C13 1_555 1_555
H13 C13 1_555 1_555
C14 C13 1_555 1_555
C15 C14 1_555 1_555
H14 C15 1_555 1_555
C16 C15 1_555 1_555
H15 C16 1_555 1_555
C17 C16 1_555 1_555
H16 C17 1_555 1_555
C18 C17 1_555 1_555
H17 C18 1_555 1_555
C19 C14 1_555 1_555
C20 C19 1_555 1_555
C21 C20 1_555 1_555
C22 C21 1_555 1_555
H18 C22 1_555 1_555
C23 C22 1_555 1_555
H19 C23 1_555 1_555
C24 C23 1_555 1_555
H20 C24 1_555 1_555
C25 C24 1_555 1_555
H21 C25 1_555 1_555
C26 C21 1_555 1_555
H22 C26 1_555 1_555
C4 C9 1_555 1_555
C8 C9 1_555 1_555
C18 C19 1_555 1_555
C25 C26 1_555 1_555

#END
