
#######################################################################
#
#                 Cambridge Crystallographic Data Centre
#                                CCDC 
#
#######################################################################
#
# If this CIF has been generated from an entry in the Cambridge 
# Structural Database, then it will include bibliographic, chemical, 
# crystal, experimental, refinement or atomic coordinate data resulting 
# from the CCDC's data processing and validation procedures.
#
#######################################################################

data_FEZWUE
_chemical_formula_moiety         
'C39 H43 N3 O3 P1 1+,C27 H29 N3 O5,F6 P1 1-,2(H2 O1)'
_chemical_name_systematic        
'[2]-((4-(((3,5-Dimethylphenyl)carbamoyl)amino)benzyl)-N-(4-(4-(diphenylphosphoryl)butoxy)benzyl)ammonium)-(18,21,24-trioxa-3,11,33-triazatetracyclo[24.2.2.2^13,16^.1^5,9^]tritriaconta-1(28),5(33),6,8,13,15,26,29,31-nonaene-4,10-dione)-rotaxane hexafluorophosphate dihydrate'
_symmetry_cell_setting           triclinic
_symmetry_space_group_name_H-M   'P -1'
_symmetry_Int_Tables_number      2
_space_group_name_Hall           '-P 1'
loop_
_symmetry_equiv_pos_site_id
_symmetry_equiv_pos_as_xyz
1 x,y,z
2 -x,-y,-z
_cell_length_a                   14.9639(11)
_cell_length_b                   16.2074(10)
_cell_length_c                   16.6904(12)
_cell_angle_alpha                68.0740(10)
_cell_angle_beta                 65.602(2)
_cell_angle_gamma                86.2270(10)
_cell_volume                     3400.94
_cell_formula_units_Z            2
loop_
_atom_site_label
_atom_site_type_symbol
_atom_site_fract_x
_atom_site_fract_y
_atom_site_fract_z
C1 C 0.17278(18) -0.23991(17) 1.33978(18)
C2 C 0.15041(17) -0.29831(16) 1.30585(17)
H1 H 0.1441 -0.2759 1.2486
C3 C 0.13739(18) -0.38985(17) 1.35696(18)
C4 C 0.14696(17) -0.42359(18) 1.44227(17)
H2 H 0.1394 -0.4851 1.4757
C5 C 0.16771(19) -0.36629(18) 1.47791(19)
C6 C 0.18094(19) -0.27438(18) 1.42655(18)
H3 H 0.1953 -0.2357 1.4501
C7 C 0.11385(18) -0.45401(17) 1.31763(17)
H4 H 0.1509 -0.5046 1.3274
H5 H 0.1314 -0.4233 1.2508
H6 H 0.0446 -0.4741 1.3502
C8 C 0.18014(18) -0.40237(18) 1.57142(18)
H7 H 0.1184 -0.4045 1.6231
H8 H 0.2291 -0.3637 1.5674
H9 H 0.2007 -0.4614 1.5823
C9 C 0.19988(18) -0.09732(17) 1.20375(19)
C10 C 0.22923(18) 0.06273(17) 1.09540(17)
C11 C 0.22826(19) 0.05088(18) 1.01722(18)
H10 H 0.2129 -0.0060 1.0221
C12 C 0.25020(17) 0.12374(16) 0.93172(17)
H11 H 0.2493 0.1157 0.8797
C13 C 0.27337(18) 0.20846(16) 0.92489(17)
C14 C 0.27525(17) 0.22005(17) 1.00257(17)
H12 H 0.2916 0.2767 0.9975
C15 C 0.25285(17) 0.14736(16) 1.08766(17)
H13 H 0.2537 0.1555 1.1396
C16 C 0.29728(19) 0.29099(17) 0.83424(17)
H14 H 0.2659 0.3403 0.8505
H15 H 0.3680 0.3076 0.8023
C17 C 0.27670(19) 0.36416(16) 0.68444(16)
H16 H 0.2371 0.4066 0.7084
H17 H 0.3454 0.3887 0.6527
C18 C 0.24597(19) 0.34921(16) 0.61459(17)
C19 C 0.1462(2) 0.33944(18) 0.63425(19)
H18 H 0.0984 0.3409 0.6910
C20 C 0.1181(2) 0.32761(19) 0.56967(19)
H19 H 0.0515 0.3210 0.5834
C21 C 0.18898(18) 0.32547(16) 0.48430(17)
C22 C 0.28897(18) 0.33528(16) 0.46446(17)
H20 H 0.3367 0.3337 0.4077
C23 C 0.31751(19) 0.34745(16) 0.52932(17)
H21 H 0.3841 0.3544 0.5157
C24 C 0.06624(18) 0.29387(17) 0.43912(17)
H22 H 0.0311 0.3463 0.4390
H23 H 0.0346 0.2465 0.5015
C25 C 0.06624(18) 0.26449(16) 0.36305(17)
H24 H 0.0884 0.3156 0.3031
H25 H -0.0007 0.2436 0.3797
C26 C 0.13296(19) 0.18963(18) 0.35007(19)
H26 H 0.2015 0.2144 0.3186
H27 H 0.1207 0.1660 0.3096
C27 C 0.11428(19) 0.11269(17) 0.44657(18)
H28 H 0.0450 0.0900 0.4796
H29 H 0.1300 0.1356 0.4858
C28 C 0.16771(18) -0.05621(17) 0.54830(17)
C29 C 0.23627(18) -0.11728(16) 0.55717(17)
H30 H 0.2927 -0.1147 0.5037
C30 C 0.22062(19) -0.18149(17) 0.64492(17)
H31 H 0.2668 -0.2218 0.6510
C31 C 0.13575(18) -0.18597(17) 0.72442(18)
H32 H 0.1250 -0.2295 0.7837
C32 C 0.06736(18) -0.12609(17) 0.71576(18)
H33 H 0.0103 -0.1296 0.7691
C33 C 0.08332(18) -0.06089(17) 0.62800(18)
H34 H 0.0374 -0.0201 0.6224
C34 C 0.31549(17) 0.06929(16) 0.37396(16)
C35 C 0.35103(18) 0.11164(16) 0.41486(18)
H35 H 0.3091 0.1158 0.4724
C36 C 0.44858(19) 0.14781(17) 0.37076(18)
H36 H 0.4719 0.1761 0.3987
C37 C 0.5116(2) 0.14175(18) 0.28477(18)
H37 H 0.5771 0.1660 0.2551
C38 C 0.47603(18) 0.09906(17) 0.24297(18)
H38 H 0.5179 0.0949 0.1854
C39 C 0.37776(18) 0.06282(17) 0.28781(18)
H39 H 0.3539 0.0344 0.2603
N1 N 0.18143(14) -0.14622(13) 1.29646(14)
H40 H 0.1744 -0.1168 1.3319
N2 N 0.20524(14) -0.00715(13) 1.18429(14)
H41 H 0.1925 0.0082 1.2317
N3 N 0.26262(15) 0.27528(13) 0.76699(14)
H42 H 0.1986 0.2535 0.7980
H43 H 0.2977 0.2352 0.7447
O1 O 0.21003(13) -0.12910(12) 1.14500(12)
O2 O 0.16932(12) 0.31435(11) 0.41624(12)
O3 O 0.16388(13) -0.01698(12) 0.37440(12)
P1 P 0.18760(5) 0.02333(5) 0.43025(5)
C40 C 0.23124(19) 0.46101(18) 1.07343(19)
N4 N 0.39660(16) 0.41937(14) 1.00633(15)
C41 C 0.31889(18) 0.42593(16) 1.08521(18)
C42 C 0.32535(18) 0.39784(16) 1.17190(18)
H44 H 0.2732 0.4026 1.2246
C43 C 0.41009(18) 0.36247(16) 1.17976(18)
H45 H 0.4146 0.3432 1.2378
C44 C 0.48752(19) 0.35611(17) 1.10087(18)
H46 H 0.5445 0.3333 1.1057
C45 C 0.48058(18) 0.38377(18) 1.01402(18)
C46 C 0.5595(2) 0.37825(18) 0.92847(19)
C47 C 0.6181(2) 0.40988(18) 0.75794(18)
H47 H 0.6799 0.3947 0.7627
H48 H 0.6293 0.4695 0.7094
C48 C 0.58425(17) 0.34398(16) 0.72927(16)
C49 C 0.57673(19) 0.37534(17) 0.64286(17)
H49 H 0.5922 0.4358 0.6041
C50 C 0.54610(17) 0.31637(17) 0.61464(18)
H50 H 0.5409 0.3373 0.5569
C51 C 0.52324(18) 0.22653(17) 0.67204(17)
C52 C 0.53101(19) 0.19476(18) 0.75797(18)
H51 H 0.5162 0.1342 0.7962
C53 C 0.56124(18) 0.25408(17) 0.78708(18)
H52 H 0.5659 0.2332 0.8451
C54 C 0.48922(18) 0.16381(17) 0.63857(18)
H53 H 0.5124 0.1894 0.5699
H54 H 0.5152 0.1066 0.6563
C55 C 0.34725(18) 0.08811(17) 0.66377(18)
H55 H 0.3583 0.0293 0.7008
H56 H 0.3845 0.0983 0.5970
C56 C 0.23871(18) 0.08915(18) 0.68527(19)
H57 H 0.2319 0.1345 0.6310
H58 H 0.2145 0.0319 0.6919
C57 C 0.07775(17) 0.09358(17) 0.79588(18)
H59 H 0.0587 0.0299 0.8206
H60 H 0.0645 0.1209 0.7399
C58 C 0.01144(18) 0.12843(17) 0.86853(17)
H61 H -0.0482 0.1429 0.8588
H62 H -0.0074 0.0816 0.9312
C59 C -0.02526(18) 0.24967(17) 0.91341(17)
H63 H -0.0707 0.2079 0.9750
H64 H -0.0617 0.2764 0.8753
C60 C 0.02125(19) 0.32052(17) 0.92528(17)
C61 C 0.04214(19) 0.29863(19) 1.00468(18)
H65 H 0.0273 0.2404 1.0498
C62 C 0.08533(18) 0.36472(16) 1.01553(18)
H66 H 0.0994 0.3504 1.0682
C63 C 0.10776(18) 0.45193(17) 0.94874(17)
C64 C 0.08727(19) 0.47309(17) 0.86994(17)
H67 H 0.1030 0.5312 0.8246
C65 C 0.04337(19) 0.40803(17) 0.85833(19)
H68 H 0.0288 0.4229 0.8059
C66 C 0.15488(18) 0.52381(17) 0.96062(18)
H69 H 0.1772 0.5765 0.9021
H70 H 0.1060 0.5402 1.0107
N5 N 0.23882(15) 0.49404(14) 0.98426(15)
H71 H 0.2955 0.4980 0.9387
N6 N 0.54305(16) 0.40927(14) 0.85104(14)
H72 H 0.4876 0.4297 0.8544
O4 O 0.15659(13) 0.45775(11) 1.14320(13)
O5 O 0.63454(12) 0.34708(11) 0.93362(12)
O6 O 0.38300(12) 0.15229(11) 0.68371(11)
O7 O 0.17871(12) 0.10544(11) 0.76636(11)
O8 O 0.05308(12) 0.20361(11) 0.86649(12)
F1 F 0.57522(10) 0.45410(9) 0.37563(9)
F2 F 0.49831(10) 0.41249(9) 0.30812(10)
F3 F 0.63289(10) 0.35999(9) 0.23001(9)
F4 F 0.71035(10) 0.40284(9) 0.29424(9)
F5 F 0.57034(10) 0.31323(9) 0.38906(9)
F6 F 0.63829(10) 0.50052(9) 0.21442(9)
P2 P 0.60479(5) 0.40625(5) 0.30261(5)
O9 O 0.68497(12) 0.17511(11) 1.01094(12)
H73 H 0.6964 0.1309 0.9937
H74 H 0.6434 0.2046 0.9923
O10 O 0.2402(4) 0.7839(4) 0.8874(4)
H75 H 0.2540 0.8339 0.8408
H76 H 0.2738 0.7829 0.9182
O11 O 0.5000 1.0000 0.0000
O12 O 0.5000 0.0000 0.5000
H77? H 0.5592 0.9870 -0.0173
H78? H 0.4608 0.9521 0.0318
H79? H 0.4765 -0.0172 0.5602
H80? H 0.5537 0.0333 0.4749
loop_
_geom_bond_atom_site_label_1
_geom_bond_atom_site_label_2
_geom_bond_site_symmetry_1
_geom_bond_site_symmetry_2
C1 C2 1_555 1_555
C2 H1 1_555 1_555
C3 C2 1_555 1_555
C4 C3 1_555 1_555
H2 C4 1_555 1_555
C5 C4 1_555 1_555
C6 C1 1_555 1_555
H3 C6 1_555 1_555
C7 C3 1_555 1_555
H4 C7 1_555 1_555
H5 C7 1_555 1_555
H6 C7 1_555 1_555
C8 C5 1_555 1_555
H7 C8 1_555 1_555
H8 C8 1_555 1_555
H9 C8 1_555 1_555
C9 N1 1_555 1_555
C10 C11 1_555 1_555
C11 H10 1_555 1_555
C12 C11 1_555 1_555
H11 C12 1_555 1_555
C13 C12 1_555 1_555
C14 C13 1_555 1_555
H12 C14 1_555 1_555
C15 C10 1_555 1_555
H13 C15 1_555 1_555
C16 C13 1_555 1_555
H14 C16 1_555 1_555
H15 C16 1_555 1_555
C17 H16 1_555 1_555
H17 C17 1_555 1_555
C18 C17 1_555 1_555
C19 C18 1_555 1_555
H18 C19 1_555 1_555
C20 C19 1_555 1_555
H19 C20 1_555 1_555
C21 C20 1_555 1_555
C22 C21 1_555 1_555
H20 C22 1_555 1_555
C23 C18 1_555 1_555
H21 C23 1_555 1_555
C24 H22 1_555 1_555
H23 C24 1_555 1_555
C25 C24 1_555 1_555
H24 C25 1_555 1_555
H25 C25 1_555 1_555
C26 C25 1_555 1_555
H26 C26 1_555 1_555
H27 C26 1_555 1_555
C27 C26 1_555 1_555
H28 C27 1_555 1_555
H29 C27 1_555 1_555
C28 C29 1_555 1_555
C29 H30 1_555 1_555
C30 C29 1_555 1_555
H31 C30 1_555 1_555
C31 C30 1_555 1_555
H32 C31 1_555 1_555
C32 C31 1_555 1_555
H33 C32 1_555 1_555
C33 C28 1_555 1_555
H34 C33 1_555 1_555
C34 C35 1_555 1_555
C35 H35 1_555 1_555
C36 C35 1_555 1_555
H36 C36 1_555 1_555
C37 C36 1_555 1_555
H37 C37 1_555 1_555
C38 C37 1_555 1_555
H38 C38 1_555 1_555
C39 C34 1_555 1_555
H39 C39 1_555 1_555
N1 C1 1_555 1_555
H40 N1 1_555 1_555
N2 C9 1_555 1_555
H41 N2 1_555 1_555
N3 C16 1_555 1_555
H42 N3 1_555 1_555
H43 N3 1_555 1_555
O1 C9 1_555 1_555
O2 C21 1_555 1_555
O3 P1 1_555 1_555
P1 C27 1_555 1_555
C40 C41 1_555 1_555
N4 C41 1_555 1_555
C41 C42 1_555 1_555
C42 H44 1_555 1_555
C43 C42 1_555 1_555
H45 C43 1_555 1_555
C44 C43 1_555 1_555
H46 C44 1_555 1_555
C45 N4 1_555 1_555
C46 C45 1_555 1_555
C47 H47 1_555 1_555
H48 C47 1_555 1_555
C48 C47 1_555 1_555
C49 C48 1_555 1_555
H49 C49 1_555 1_555
C50 C49 1_555 1_555
H50 C50 1_555 1_555
C51 C50 1_555 1_555
C52 C51 1_555 1_555
H51 C52 1_555 1_555
C53 C48 1_555 1_555
H52 C53 1_555 1_555
C54 C51 1_555 1_555
H53 C54 1_555 1_555
H54 C54 1_555 1_555
C55 H55 1_555 1_555
H56 C55 1_555 1_555
C56 C55 1_555 1_555
H57 C56 1_555 1_555
H58 C56 1_555 1_555
C57 H59 1_555 1_555
H60 C57 1_555 1_555
C58 C57 1_555 1_555
H61 C58 1_555 1_555
H62 C58 1_555 1_555
C59 H63 1_555 1_555
H64 C59 1_555 1_555
C60 C59 1_555 1_555
C61 C60 1_555 1_555
H65 C61 1_555 1_555
C62 C61 1_555 1_555
H66 C62 1_555 1_555
C63 C62 1_555 1_555
C64 C63 1_555 1_555
H67 C64 1_555 1_555
C65 C60 1_555 1_555
H68 C65 1_555 1_555
C66 C63 1_555 1_555
H69 C66 1_555 1_555
H70 C66 1_555 1_555
N5 C40 1_555 1_555
H71 N5 1_555 1_555
N6 C46 1_555 1_555
H72 N6 1_555 1_555
O4 C40 1_555 1_555
O5 C46 1_555 1_555
O6 C54 1_555 1_555
O7 C56 1_555 1_555
O8 C58 1_555 1_555
F1 P2 1_555 1_555
F2 P2 1_555 1_555
F3 P2 1_555 1_555
F4 P2 1_555 1_555
F5 P2 1_555 1_555
F6 P2 1_555 1_555
O9 H73 1_555 1_555
H74 O9 1_555 1_555
O10 H75 1_555 1_555
H76 O10 1_555 1_555
C5 C6 1_555 1_555
C10 N2 1_555 1_555
C14 C15 1_555 1_555
C17 N3 1_555 1_555
C22 C23 1_555 1_555
C24 O2 1_555 1_555
C28 P1 1_555 1_555
C32 C33 1_555 1_555
C34 P1 1_555 1_555
C38 C39 1_555 1_555
C44 C45 1_555 1_555
C47 N6 1_555 1_555
C52 C53 1_555 1_555
C55 O6 1_555 1_555
C57 O7 1_555 1_555
C59 O8 1_555 1_555
C64 C65 1_555 1_555
C66 N5 1_555 1_555

#END
