
#######################################################################
#
#                 Cambridge Crystallographic Data Centre
#                                CCDC 
#
#######################################################################
#
# If this CIF has been generated from an entry in the Cambridge 
# Structural Database, then it will include bibliographic, chemical, 
# crystal, experimental, refinement or atomic coordinate data resulting 
# from the CCDC's data processing and validation procedures.
#
#######################################################################

data_FEZZUG
_chemical_formula_moiety         'C30 H28 N2 O7'
_chemical_name_systematic        
'(2S*,3S*)-2-(4-Methoxybenzyloxy)-2-phenyl-3-(4-methoxyphenylamino)-3-(4-nitrophenyl)propionic acid'
_symmetry_cell_setting           triclinic
_symmetry_space_group_name_H-M   'P -1'
_symmetry_Int_Tables_number      2
_space_group_name_Hall           '-P 1'
loop_
_symmetry_equiv_pos_site_id
_symmetry_equiv_pos_as_xyz
1 x,y,z
2 -x,-y,-z
_cell_length_a                   9.0580(15)
_cell_length_b                   10.3496(18)
_cell_length_c                   14.987(3)
_cell_angle_alpha                74.357(3)
_cell_angle_beta                 78.955(3)
_cell_angle_gamma                86.161(3)
_cell_volume                     1327.71
_exptl_crystal_colour            colorless
_exptl_crystal_description       needle
_cell_formula_units_Z            2
loop_
_atom_site_label
_atom_site_type_symbol
_atom_site_fract_x
_atom_site_fract_y
_atom_site_fract_z
O1 O 0.33032(13) 0.04285(12) 0.48294(8)
O2 O 0.53648(12) 0.10662(13) 0.37719(8)
H1 H 0.5798 0.0601 0.4191
O3 O 0.32941(11) 0.12868(9) 0.25469(6)
O4 O 0.35344(16) -0.15830(13) -0.06486(8)
O5 O 0.75940(16) 0.81419(14) 0.33277(11)
O6 O 0.01513(19) 0.70941(18) -0.01356(12)
O7 O 0.1604(2) 0.60886(18) -0.10491(11)
N1 N 0.38627(14) 0.39379(12) 0.35892(8)
H2 H 0.2980 0.4032 0.3905
N2 N 0.1155(2) 0.62926(17) -0.02823(13)
C1 C 0.39156(15) 0.10739(14) 0.40664(9)
C2 C 0.30468(15) 0.19122(13) 0.33010(9)
C3 C 0.38457(16) 0.32890(13) 0.28473(9)
H3 H 0.4894 0.3095 0.2598
C4 C 0.31550(16) 0.41213(14) 0.20194(9)
C5 C 0.36097(19) 0.38919(16) 0.11338(10)
H4 H 0.4362 0.3257 0.1047
C6 C 0.2954(2) 0.45984(17) 0.03794(11)
H5 H 0.3252 0.4438 -0.0211
C7 C 0.18605(19) 0.55345(16) 0.05191(11)
C8 C 0.1402(2) 0.58047(18) 0.13772(13)
H6 H 0.0664 0.6456 0.1453
C9 C 0.20582(19) 0.50892(16) 0.21300(11)
H7 H 0.1757 0.5262 0.2716
C10 C 0.2853(2) -0.00896(14) 0.27765(11)
H8 H 0.1824 -0.0190 0.3115
H9 H 0.3501 -0.0661 0.3171
C11 C 0.29901(17) -0.04738(14) 0.18646(10)
C12 C 0.38751(19) -0.15583(16) 0.17059(12)
H10 H 0.4372 -0.2068 0.2175
C13 C 0.4035(2) -0.18982(17) 0.08632(13)
H11 H 0.4636 -0.2632 0.0770
C14 C 0.33085(18) -0.11568(16) 0.01580(11)
C15 C 0.2409(2) -0.00749(18) 0.03035(12)
H12 H 0.1904 0.0426 -0.0165
C16 C 0.2263(2) 0.02585(18) 0.11506(12)
H13 H 0.1661 0.0992 0.1243
C17 C 0.2960(3) -0.0761(2) -0.14300(13)
H14 H 0.3237 -0.1064 -0.1888
H15 H 0.1883 -0.0810 -0.1316
H16 H 0.3325 0.0136 -0.1584
C18 C 0.47984(16) 0.50345(14) 0.34397(10)
C19 C 0.44623(19) 0.58782(16) 0.40437(11)
H17 H 0.3582 0.5751 0.4492
C20 C 0.5412(2) 0.68928(17) 0.39861(12)
H18 H 0.5172 0.7441 0.4395
C21 C 0.67132(19) 0.70973(17) 0.33271(12)
C22 C 0.70491(19) 0.63065(19) 0.27029(13)
H19 H 0.7918 0.6457 0.2246
C23 C 0.60809(18) 0.52807(17) 0.27587(12)
H20 H 0.6304 0.4758 0.2332
C24 C 0.9056(2) 0.8230(3) 0.28117(18)
H21 H 0.9463 0.8887 0.2858
H22 H 0.9025 0.8340 0.2159
H23 H 0.9631 0.7436 0.3038
C25 C 0.13788(16) 0.21067(14) 0.36698(10)
C26 C 0.03655(17) 0.22270(16) 0.30571(11)
H24 H 0.0709 0.2117 0.2456
C27 C -0.11407(19) 0.2508(2) 0.33307(13)
H25 H -0.1803 0.2574 0.2916
C28 C -0.1663(2) 0.2689(2) 0.42109(14)
H26 H -0.2677 0.2876 0.4394
C29 C -0.0677(2) 0.2591(2) 0.48219(13)
H27 H -0.1029 0.2725 0.5416
C30 C 0.08355(18) 0.22966(17) 0.45604(11)
H28 H 0.1488 0.2226 0.4981
loop_
_geom_bond_atom_site_label_1
_geom_bond_atom_site_label_2
_geom_bond_site_symmetry_1
_geom_bond_site_symmetry_2
O1 C1 1_555 1_555
O2 H1 1_555 1_555
O3 C2 1_555 1_555
O4 C14 1_555 1_555
O5 C21 1_555 1_555
O6 N2 1_555 1_555
O7 N2 1_555 1_555
N1 H2 1_555 1_555
N2 C7 1_555 1_555
C1 O2 1_555 1_555
C2 C1 1_555 1_555
C3 N1 1_555 1_555
H3 C3 1_555 1_555
C4 C3 1_555 1_555
C5 C4 1_555 1_555
H4 C5 1_555 1_555
C6 C5 1_555 1_555
H5 C6 1_555 1_555
C7 C6 1_555 1_555
C8 C7 1_555 1_555
H6 C8 1_555 1_555
C9 C4 1_555 1_555
H7 C9 1_555 1_555
C10 O3 1_555 1_555
H8 C10 1_555 1_555
H9 C10 1_555 1_555
C11 C10 1_555 1_555
C12 C11 1_555 1_555
H10 C12 1_555 1_555
C13 C12 1_555 1_555
H11 C13 1_555 1_555
C14 C13 1_555 1_555
C15 C14 1_555 1_555
H12 C15 1_555 1_555
C16 C11 1_555 1_555
H13 C16 1_555 1_555
C17 O4 1_555 1_555
H14 C17 1_555 1_555
H15 C17 1_555 1_555
H16 C17 1_555 1_555
C18 N1 1_555 1_555
C19 C18 1_555 1_555
H17 C19 1_555 1_555
C20 C19 1_555 1_555
H18 C20 1_555 1_555
C21 C20 1_555 1_555
C22 C21 1_555 1_555
H19 C22 1_555 1_555
C23 C18 1_555 1_555
H20 C23 1_555 1_555
C24 O5 1_555 1_555
H21 C24 1_555 1_555
H22 C24 1_555 1_555
H23 C24 1_555 1_555
C25 C2 1_555 1_555
C26 C25 1_555 1_555
H24 C26 1_555 1_555
C27 C26 1_555 1_555
H25 C27 1_555 1_555
C28 C27 1_555 1_555
H26 C28 1_555 1_555
C29 C28 1_555 1_555
H27 C29 1_555 1_555
C30 C25 1_555 1_555
H28 C30 1_555 1_555
C2 C3 1_555 1_555
C8 C9 1_555 1_555
C15 C16 1_555 1_555
C22 C23 1_555 1_555
C29 C30 1_555 1_555

#END
