
#######################################################################
#
#                 Cambridge Crystallographic Data Centre
#                                CCDC 
#
#######################################################################
#
# If this CIF has been generated from an entry in the Cambridge 
# Structural Database, then it will include bibliographic, chemical, 
# crystal, experimental, refinement or atomic coordinate data resulting 
# from the CCDC's data processing and validation procedures.
#
#######################################################################

data_FIBBEZ
_chemical_formula_moiety         'C18 H16 N2'
_chemical_name_systematic        2-Methyl-2-phenyl-2,3-dihydro-1H-perimidine
_symmetry_cell_setting           monoclinic
_symmetry_space_group_name_H-M   'P 21/c'
_symmetry_Int_Tables_number      14
_space_group_name_Hall           '-P 2ybc'
loop_
_symmetry_equiv_pos_site_id
_symmetry_equiv_pos_as_xyz
1 x,y,z
2 -x,1/2+y,1/2-z
3 -x,-y,-z
4 x,1/2-y,1/2+z
_cell_length_a                   8.6268(15)
_cell_length_b                   10.7530(10)
_cell_length_c                   14.538(2)
_cell_angle_alpha                90
_cell_angle_beta                 90.516(10)
_cell_angle_gamma                90
_cell_volume                     1348.55
_exptl_crystal_colour            brown
_exptl_crystal_description       block
_cell_formula_units_Z            4
loop_
_atom_site_label
_atom_site_type_symbol
_atom_site_fract_x
_atom_site_fract_y
_atom_site_fract_z
C1 C 0.99900(17) 0.01520(14) 0.19255(11)
C2 C 1.13558(19) -0.02207(16) 0.15398(12)
H1 H 1.1921 -0.0866 0.1804
C3 C 1.1896(2) 0.03622(17) 0.07565(13)
H2 H 1.2827 0.0102 0.0503
C4 C 1.11028(19) 0.13014(17) 0.03503(12)
H3 H 1.1488 0.1672 -0.0179
C5 C 0.96936(18) 0.17215(15) 0.07254(11)
C6 C 0.8844(2) 0.27278(16) 0.03609(12)
H4 H 0.9193 0.3132 -0.0163
C7 C 0.7514(2) 0.31129(16) 0.07706(12)
H5 H 0.6981 0.3790 0.0526
C8 C 0.69311(19) 0.25207(16) 0.15450(12)
H6 H 0.6019 0.2799 0.1812
C9 C 0.77113(17) 0.15257(14) 0.19096(10)
C10 C 0.91215(17) 0.11245(14) 0.15122(10)
C11 C 0.77370(19) -0.03530(15) 0.28348(11)
C12 C 0.70342(17) -0.12950(15) 0.21638(10)
C13 C 0.7611(2) -0.24907(16) 0.21488(13)
H7 H 0.8418 -0.2702 0.2547
C14 C 0.7028(2) -0.33745(17) 0.15635(13)
H8 H 0.7438 -0.4174 0.1566
C15 C 0.5847(2) -0.30783(17) 0.09778(12)
H9 H 0.5453 -0.3671 0.0573
C16 C 0.5244(2) -0.19038(19) 0.09880(13)
H10 H 0.4428 -0.1702 0.0594
C17 C 0.58345(18) -0.10171(17) 0.15758(12)
H11 H 0.5415 -0.0221 0.1574
C18 C 0.7326(2) -0.07083(17) 0.38064(11)
H12 H 0.7829 -0.0151 0.4230
H13 H 0.7664 -0.1544 0.3926
H14 H 0.6223 -0.0656 0.3881
N1 N 0.94288(15) -0.03102(13) 0.27457(9)
H15 H 0.9873 -0.0959 0.2932
N2 N 0.72085(16) 0.09067(12) 0.26730(9)
H16 H 0.6352 0.1111 0.2918
loop_
_geom_bond_atom_site_label_1
_geom_bond_atom_site_label_2
_geom_bond_site_symmetry_1
_geom_bond_site_symmetry_2
C1 C2 1_555 1_555
C2 H1 1_555 1_555
C3 C2 1_555 1_555
H2 C3 1_555 1_555
C4 C3 1_555 1_555
H3 C4 1_555 1_555
C5 C4 1_555 1_555
C6 C5 1_555 1_555
H4 C6 1_555 1_555
C7 C6 1_555 1_555
H5 C7 1_555 1_555
C8 C7 1_555 1_555
H6 C8 1_555 1_555
C9 C8 1_555 1_555
C10 C1 1_555 1_555
C11 C12 1_555 1_555
C12 C13 1_555 1_555
C13 H7 1_555 1_555
C14 C13 1_555 1_555
H8 C14 1_555 1_555
C15 C14 1_555 1_555
H9 C15 1_555 1_555
C16 C15 1_555 1_555
H10 C16 1_555 1_555
C17 C12 1_555 1_555
H11 C17 1_555 1_555
C18 C11 1_555 1_555
H12 C18 1_555 1_555
H13 C18 1_555 1_555
H14 C18 1_555 1_555
N1 C1 1_555 1_555
H15 N1 1_555 1_555
N2 C9 1_555 1_555
H16 N2 1_555 1_555
C5 C10 1_555 1_555
C9 C10 1_555 1_555
C11 N1 1_555 1_555
C11 N2 1_555 1_555
C16 C17 1_555 1_555

#END
