
#######################################################################
#
#                 Cambridge Crystallographic Data Centre
#                                CCDC 
#
#######################################################################
#
# If this CIF has been generated from an entry in the Cambridge 
# Structural Database, then it will include bibliographic, chemical, 
# crystal, experimental, refinement or atomic coordinate data resulting 
# from the CCDC's data processing and validation procedures.
#
#######################################################################

data_FIBBOI
_chemical_formula_moiety         'C36 H26'
_chemical_name_systematic        1,1,2,2-Tetraphenylacenaphthene
_symmetry_cell_setting           monoclinic
_symmetry_space_group_name_H-M   'P 21/n'
_symmetry_Int_Tables_number      14
_space_group_name_Hall           '-P 2yn'
loop_
_symmetry_equiv_pos_site_id
_symmetry_equiv_pos_as_xyz
1 x,y,z
2 1/2-x,1/2+y,1/2-z
3 -x,-y,-z
4 1/2+x,1/2-y,1/2+z
_cell_length_a                   8.792(4)
_cell_length_b                   14.257(7)
_cell_length_c                   19.081(9)
_cell_angle_alpha                90
_cell_angle_beta                 95.562(10)
_cell_angle_gamma                90
_cell_volume                     2380.5
_chemical_melting_point          '132-137 deg.C'
_cell_formula_units_Z            4
loop_
_atom_site_label
_atom_site_type_symbol
_atom_site_fract_x
_atom_site_fract_y
_atom_site_fract_z
C1 C -0.0146(2) 0.27746(12) 0.26863(10)
C2 C -0.1336(2) 0.28342(13) 0.30966(11)
H1 H -0.2354 0.2900 0.2886
C3 C -0.1029(2) 0.27958(13) 0.38378(11)
H2 H -0.1857 0.2838 0.4121
C4 C 0.0426(3) 0.26996(13) 0.41592(11)
H3 H 0.0593 0.2687 0.4659
C5 C 0.3246(2) 0.25209(13) 0.40005(12)
H4 H 0.3540 0.2503 0.4493
C6 C 0.4330(2) 0.24522(14) 0.35354(12)
H5 H 0.5372 0.2393 0.3715
C7 C 0.3957(2) 0.24655(13) 0.27959(11)
H6 H 0.4734 0.2416 0.2485
C8 C 0.2450(2) 0.25507(13) 0.25386(11)
C9 C 0.1340(2) 0.26471(12) 0.30147(10)
C10 C 0.1685(2) 0.26183(13) 0.37501(11)
C11 C -0.0761(2) 0.37107(13) 0.15473(10)
C12 C -0.1239(2) 0.44486(13) 0.19480(11)
H7 H -0.1205 0.4381 0.2445
C13 C -0.1767(2) 0.52837(14) 0.16362(11)
H8 H -0.2078 0.5782 0.1920
C14 C -0.1841(2) 0.53905(14) 0.09145(12)
H9 H -0.2195 0.5962 0.0701
C15 C -0.1396(2) 0.46614(14) 0.05060(11)
H10 H -0.1465 0.4724 0.0008
C16 C -0.0851(2) 0.38406(14) 0.08209(11)
H11 H -0.0527 0.3349 0.0534
C17 C -0.1187(2) 0.19469(13) 0.16246(10)
C18 C -0.2562(2) 0.20473(14) 0.12090(11)
H12 H -0.2875 0.2653 0.1045
C19 C -0.3491(2) 0.12771(14) 0.10269(11)
H13 H -0.4439 0.1364 0.0751
C20 C -0.3040(2) 0.03876(14) 0.12453(11)
H14 H -0.3648 -0.0142 0.1102
C21 C -0.1692(2) 0.02785(14) 0.16758(11)
H15 H -0.1378 -0.0329 0.1835
C22 C -0.0805(2) 0.10446(13) 0.18742(11)
H16 H 0.0091 0.0960 0.2189
C23 C 0.2525(2) 0.34748(13) 0.14647(10)
C24 C 0.2435(2) 0.43507(13) 0.17920(10)
H17 H 0.1827 0.4417 0.2174
C25 C 0.3214(2) 0.51179(14) 0.15689(10)
H18 H 0.3093 0.5713 0.1781
C26 C 0.4163(2) 0.50274(14) 0.10414(11)
H19 H 0.4704 0.5556 0.0891
C27 C 0.4325(2) 0.41624(14) 0.07322(11)
H20 H 0.5009 0.4090 0.0380
C28 C 0.3493(2) 0.33975(14) 0.09327(11)
H21 H 0.3586 0.2812 0.0703
C29 C 0.1983(2) 0.17283(13) 0.13431(10)
C30 C 0.2776(2) 0.09513(13) 0.16284(11)
H22 H 0.3230 0.0977 0.2101
C31 C 0.2917(2) 0.01400(14) 0.12386(12)
H23 H 0.3449 -0.0384 0.1449
C32 C 0.2295(2) 0.00879(15) 0.05516(12)
H24 H 0.2391 -0.0470 0.0287
C33 C 0.1528(2) 0.08550(15) 0.02487(11)
H25 H 0.1109 0.0831 -0.0229
C34 C 0.1372(2) 0.16586(14) 0.06424(11)
H26 H 0.0833 0.2178 0.0429
C35 C -0.0152(2) 0.27794(13) 0.18786(10)
C36 C 0.1729(2) 0.26170(13) 0.17713(10)
loop_
_geom_bond_atom_site_label_1
_geom_bond_atom_site_label_2
_geom_bond_site_symmetry_1
_geom_bond_site_symmetry_2
C1 C2 1_555 1_555
C2 H1 1_555 1_555
C3 C2 1_555 1_555
H2 C3 1_555 1_555
C4 C3 1_555 1_555
H3 C4 1_555 1_555
C5 H4 1_555 1_555
C6 C5 1_555 1_555
H5 C6 1_555 1_555
C7 C6 1_555 1_555
H6 C7 1_555 1_555
C8 C7 1_555 1_555
C9 C1 1_555 1_555
C10 C4 1_555 1_555
C11 C12 1_555 1_555
C12 H7 1_555 1_555
C13 C12 1_555 1_555
H8 C13 1_555 1_555
C14 C13 1_555 1_555
H9 C14 1_555 1_555
C15 C14 1_555 1_555
H10 C15 1_555 1_555
C16 C11 1_555 1_555
H11 C16 1_555 1_555
C17 C18 1_555 1_555
C18 H12 1_555 1_555
C19 C18 1_555 1_555
H13 C19 1_555 1_555
C20 C19 1_555 1_555
H14 C20 1_555 1_555
C21 C20 1_555 1_555
H15 C21 1_555 1_555
C22 C17 1_555 1_555
H16 C22 1_555 1_555
C23 C24 1_555 1_555
C24 H17 1_555 1_555
C25 C24 1_555 1_555
H18 C25 1_555 1_555
C26 C25 1_555 1_555
H19 C26 1_555 1_555
C27 C26 1_555 1_555
H20 C27 1_555 1_555
C28 C23 1_555 1_555
H21 C28 1_555 1_555
C29 C30 1_555 1_555
C30 H22 1_555 1_555
C31 C30 1_555 1_555
H23 C31 1_555 1_555
C32 C31 1_555 1_555
H24 C32 1_555 1_555
C33 C32 1_555 1_555
H25 C33 1_555 1_555
C34 C29 1_555 1_555
H26 C34 1_555 1_555
C35 C1 1_555 1_555
C36 C8 1_555 1_555
C5 C10 1_555 1_555
C8 C9 1_555 1_555
C9 C10 1_555 1_555
C11 C35 1_555 1_555
C15 C16 1_555 1_555
C17 C35 1_555 1_555
C21 C22 1_555 1_555
C23 C36 1_555 1_555
C27 C28 1_555 1_555
C29 C36 1_555 1_555
C33 C34 1_555 1_555
C35 C36 1_555 1_555

#END
