
#######################################################################
#
#                 Cambridge Crystallographic Data Centre
#                                CCDC 
#
#######################################################################
#
# If this CIF has been generated from an entry in the Cambridge 
# Structural Database, then it will include bibliographic, chemical, 
# crystal, experimental, refinement or atomic coordinate data resulting 
# from the CCDC's data processing and validation procedures.
#
#######################################################################

data_FIBCAV
_chemical_formula_moiety         'C36 H21 Cl5'
_chemical_name_systematic        
5-Chloro-1,1,2,2-tetrakis(4-chlorophenyl)acenaphthene
_symmetry_cell_setting           monoclinic
_symmetry_space_group_name_H-M   'P 21/n'
_symmetry_Int_Tables_number      14
_space_group_name_Hall           '-P 2yn'
loop_
_symmetry_equiv_pos_site_id
_symmetry_equiv_pos_as_xyz
1 x,y,z
2 1/2-x,1/2+y,1/2-z
3 -x,-y,-z
4 1/2+x,1/2-y,1/2+z
_cell_length_a                   12.1408(19)
_cell_length_b                   18.163(3)
_cell_length_c                   13.577(2)
_cell_angle_alpha                90
_cell_angle_beta                 107.848(3)
_cell_angle_gamma                90
_cell_volume                     2849.82
_chemical_melting_point          '360-363 deg.C'
_cell_formula_units_Z            4
_exptl_crystal_recrystallization_method dichloromethane
loop_
_atom_site_label
_atom_site_type_symbol
_atom_site_fract_x
_atom_site_fract_y
_atom_site_fract_z
Cl1 Cl 0.75685(9) 0.25278(5) 0.95416(7)
Cl2 Cl 0.52253(9) -0.18358(5) 1.20396(8)
Cl3 Cl 0.72323(10) 0.48697(5) 1.52735(8)
Cl4 Cl 0.10624(9) 0.09190(6) 1.24184(8)
Cl5 Cl 1.09056(9) 0.06843(6) 1.73721(8)
C1 C 0.8111(3) 0.11535(17) 1.4352(3)
C2 C 0.6952(3) 0.12486(18) 1.3469(3)
C3 C 0.9216(3) 0.10109(18) 1.4353(3)
H1 H 0.9412 0.1014 1.3727
C4 C 0.6170(3) 0.16683(18) 1.4078(3)
C5 C 1.0058(3) 0.08594(19) 1.5308(3)
H2 H 1.0825 0.0750 1.5313
C6 C 0.9814(3) 0.08640(19) 1.6233(3)
C7 C 0.8293(3) 0.10747(18) 1.7143(3)
H4 H 0.8815 0.0973 1.7819
C8 C 0.7171(3) 0.12599(18) 1.7024(3)
H5 H 0.6919 0.1276 1.7620
C9 C 0.6367(3) 0.14287(18) 1.6052(3)
H6 H 0.5597 0.1568 1.5999
C10 C 0.6721(3) 0.13874(18) 1.5189(3)
C11 C 0.7876(3) 0.11797(18) 1.5306(3)
C12 C 0.8680(3) 0.10331(18) 1.6268(3)
C13 C 0.7106(3) 0.16178(19) 1.2494(3)
C14 C 0.6529(3) 0.2244(2) 1.2034(3)
H7 H 0.6037 0.2493 1.2351
C15 C 0.6652(3) 0.2518(2) 1.1115(3)
H8 H 0.6237 0.2944 1.0802
C16 C 0.7378(3) 0.2166(2) 1.0666(3)
C17 C 0.7965(3) 0.1544(2) 1.1110(3)
H9 H 0.8478 0.1306 1.0806
C18 C 0.7804(3) 0.12671(19) 1.2000(3)
H10 H 0.8183 0.0823 1.2284
C19 C 0.6461(3) 0.04624(19) 1.3140(3)
C20 C 0.6801(3) -0.01427(18) 1.3780(3)
H11 H 0.7314 -0.0074 1.4460
C21 C 0.6411(3) -0.08474(19) 1.3455(3)
H12 H 0.6654 -0.1255 1.3908
C22 C 0.5676(3) -0.0950(2) 1.2477(3)
C23 C 0.5278(3) -0.0350(2) 1.1833(3)
H13 H 0.4742 -0.0420 1.1164
C24 C 0.5661(3) 0.0348(2) 1.2168(3)
H14 H 0.5375 0.0757 1.1728
C25 C 0.6408(3) 0.25030(19) 1.4250(3)
C26 C 0.7476(3) 0.28185(19) 1.4300(3)
H15 H 0.8039 0.2529 1.4123
C27 C 0.7727(3) 0.3545(2) 1.4601(3)
H16 H 0.8451 0.3753 1.4618
C28 C 0.6916(4) 0.39626(19) 1.4874(3)
C29 C 0.5852(3) 0.3672(2) 1.4836(3)
H17 H 0.5294 0.3964 1.5016
C30 C 0.5614(3) 0.29428(19) 1.4528(3)
H18 H 0.4886 0.2740 1.4508
C31 C 0.4880(3) 0.14838(18) 1.3621(3)
C32 C 0.4122(3) 0.18954(19) 1.2843(3)
H19 H 0.4412 0.2307 1.2567
C33 C 0.2957(3) 0.17269(19) 1.2454(3)
H20 H 0.2452 0.2024 1.1932
C34 C 0.2542(3) 0.1118(2) 1.2839(3)
C35 C 0.3275(3) 0.06822(19) 1.3588(3)
H21 H 0.2990 0.0255 1.3832
C36 C 0.4419(3) 0.08707(19) 1.3976(3)
H22 H 0.4916 0.0574 1.4504
Cl6? Cl 0.9041(9) 0.0874(5) 1.8297(7)
H3? H 1.0416 0.0753 1.6861
loop_
_geom_bond_atom_site_label_1
_geom_bond_atom_site_label_2
_geom_bond_site_symmetry_1
_geom_bond_site_symmetry_2
Cl1 C16 1_555 1_555
Cl2 C22 1_555 1_555
Cl3 C28 1_555 1_555
Cl4 C34 1_555 1_555
Cl5 C6 1_555 1_555
C1 C2 1_555 1_555
C2 C4 1_555 1_555
C3 C1 1_555 1_555
H1 C3 1_555 1_555
C4 C10 1_555 1_555
C5 C3 1_555 1_555
H2 C5 1_555 1_555
C6 C5 1_555 1_555
C7 H4 1_555 1_555
C8 C7 1_555 1_555
H5 C8 1_555 1_555
C9 C8 1_555 1_555
H6 C9 1_555 1_555
C10 C9 1_555 1_555
C11 C1 1_555 1_555
C12 C6 1_555 1_555
C13 C2 1_555 1_555
C14 C13 1_555 1_555
H7 C14 1_555 1_555
C15 C14 1_555 1_555
H8 C15 1_555 1_555
C16 C15 1_555 1_555
C17 C16 1_555 1_555
H9 C17 1_555 1_555
C18 C13 1_555 1_555
H10 C18 1_555 1_555
C19 C2 1_555 1_555
C20 C19 1_555 1_555
H11 C20 1_555 1_555
C21 C20 1_555 1_555
H12 C21 1_555 1_555
C22 C21 1_555 1_555
C23 C22 1_555 1_555
H13 C23 1_555 1_555
C24 C19 1_555 1_555
H14 C24 1_555 1_555
C25 C4 1_555 1_555
C26 C25 1_555 1_555
H15 C26 1_555 1_555
C27 C26 1_555 1_555
H16 C27 1_555 1_555
C28 C27 1_555 1_555
C29 C28 1_555 1_555
H17 C29 1_555 1_555
C30 C25 1_555 1_555
H18 C30 1_555 1_555
C31 C4 1_555 1_555
C32 C31 1_555 1_555
H19 C32 1_555 1_555
C33 C32 1_555 1_555
H20 C33 1_555 1_555
C34 C33 1_555 1_555
C35 C34 1_555 1_555
H21 C35 1_555 1_555
C36 C31 1_555 1_555
H22 C36 1_555 1_555
C7 C12 1_555 1_555
C10 C11 1_555 1_555
C11 C12 1_555 1_555
C17 C18 1_555 1_555
C23 C24 1_555 1_555
C29 C30 1_555 1_555
C35 C36 1_555 1_555

#END
