
#######################################################################
#
#                 Cambridge Crystallographic Data Centre
#                                CCDC 
#
#######################################################################
#
# If this CIF has been generated from an entry in the Cambridge 
# Structural Database, then it will include bibliographic, chemical, 
# crystal, experimental, refinement or atomic coordinate data resulting 
# from the CCDC's data processing and validation procedures.
#
#######################################################################

data_FIBTOC
_chemical_formula_moiety         'C11 H14 O2 S2'
_chemical_name_systematic        2-phenyl-1,3-dithiepane-5,6-diol
_symmetry_cell_setting           monoclinic
_symmetry_space_group_name_H-M   'C 2'
_symmetry_Int_Tables_number      5
_space_group_name_Hall           'C 2y'
loop_
_symmetry_equiv_pos_site_id
_symmetry_equiv_pos_as_xyz
1 x,y,z
2 -x,y,-z
3 1/2+x,1/2+y,z
4 1/2-x,1/2+y,-z
_cell_length_a                   27.4221(8)
_cell_length_b                   5.1994(2)
_cell_length_c                   19.0212(6)
_cell_angle_alpha                90
_cell_angle_beta                 121.7170(10)
_cell_angle_gamma                90
_cell_volume                     2306.99
_exptl_crystal_colour            colorless
_exptl_crystal_description       needle
_cell_formula_units_Z            8
loop_
_atom_site_label
_atom_site_type_symbol
_atom_site_fract_x
_atom_site_fract_y
_atom_site_fract_z
C1 C 0.16483(17) 0.5962(9) 0.2404(3)
C2 C 0.1504(2) 0.3806(10) 0.2685(4)
H1 H 0.1743 0.3253 0.3228
C3 C 0.1006(2) 0.2483(13) 0.2161(5)
H2 H 0.0911 0.1028 0.2348
C4 C 0.0647(2) 0.3310(14) 0.1358(5)
H3 H 0.0314 0.2400 0.1005
C5 C 0.0779(2) 0.5434(15) 0.1082(4)
H4 H 0.0531 0.6009 0.0545
C6 C 0.1284(2) 0.6759(11) 0.1600(3)
H5 H 0.1377 0.8196 0.1403
C7 C 0.21993(17) 0.7412(9) 0.2946(2)
H6 H 0.2173 0.9068 0.2683
C8 C 0.2965(2) 0.9596(11) 0.4527(3)
H7 H 0.2985 1.0944 0.4191
H8 H 0.2993 1.0408 0.5006
C9 C 0.34818(18) 0.7804(11) 0.4823(2)
H9 H 0.3352 0.6033 0.4802
C10 C 0.37569(19) 0.7941(11) 0.4318(3)
H10 H 0.3977 0.9546 0.4464
C11 C 0.33409(18) 0.7953(10) 0.3385(3)
H11 H 0.3559 0.7713 0.3122
H12 H 0.3163 0.9637 0.3225
O1 O 0.39014(16) 0.8396(8) 0.56632(19)
H13 H 0.4012 0.7063 0.5933
O2 O 0.41505(15) 0.5890(11) 0.4544(2)
H14 H 0.4317 0.6016 0.4293
S1 S 0.22783(5) 0.8042(3) 0.39394(7)
S2 S 0.27783(4) 0.5555(2) 0.29822(6)
C12 C 0.34732(18) 0.3854(9) 0.0368(3)
C13 C 0.29542(19) 0.2677(10) -0.0149(3)
H15 H 0.2859 0.1186 0.0023
C14 C 0.2572(2) 0.3695(13) -0.0923(3)
H16 H 0.2223 0.2882 -0.1268
C15 C 0.2705(3) 0.5871(13) -0.1180(3)
H17 H 0.2446 0.6563 -0.1696
C16 C 0.3215(3) 0.7029(12) -0.0684(4)
H18 H 0.3306 0.8502 -0.0868
C17 C 0.3602(2) 0.6070(11) 0.0089(3)
H19 H 0.3949 0.6907 0.0424
C18 C 0.38748(18) 0.2715(10) 0.1215(3)
H20 H 0.3739 0.0981 0.1227
C19 C 0.41610(19) 0.2600(12) 0.2851(3)
H21 H 0.3961 0.2754 0.3145
H22 H 0.4116 0.0840 0.2657
C20 C 0.4794(2) 0.3106(12) 0.3456(3)
H23 H 0.4950 0.1660 0.3844
C21 C 0.51491(18) 0.3386(11) 0.3064(3)
H24 H 0.5052 0.5063 0.2787
C22 C 0.5024(2) 0.1365(11) 0.2401(3)
H25 H 0.4841 -0.0105 0.2484
H26 H 0.5385 0.0782 0.2479
O3 O 0.48559(14) 0.5377(10) 0.3916(2)
H27 H 0.5181 0.5439 0.4325
O4 O 0.57436(13) 0.3475(8) 0.3691(2)
H28 H 0.5862 0.2010 0.3846
S3 S 0.38209(5) 0.4700(2) 0.19664(7)
S4 S 0.45780(5) 0.2445(3) 0.13602(8)
loop_
_geom_bond_atom_site_label_1
_geom_bond_atom_site_label_2
_geom_bond_site_symmetry_1
_geom_bond_site_symmetry_2
C1 C2 1_555 1_555
C2 H1 1_555 1_555
C3 C2 1_555 1_555
H2 C3 1_555 1_555
C4 C3 1_555 1_555
H3 C4 1_555 1_555
C5 C4 1_555 1_555
H4 C5 1_555 1_555
C6 C1 1_555 1_555
H5 C6 1_555 1_555
C7 C1 1_555 1_555
H6 C7 1_555 1_555
C8 H7 1_555 1_555
H8 C8 1_555 1_555
C9 C8 1_555 1_555
H9 C9 1_555 1_555
C10 C9 1_555 1_555
H10 C10 1_555 1_555
C11 C10 1_555 1_555
H11 C11 1_555 1_555
H12 C11 1_555 1_555
O1 C9 1_555 1_555
H13 O1 1_555 1_555
O2 C10 1_555 1_555
H14 O2 1_555 1_555
S1 C7 1_555 1_555
S2 C7 1_555 1_555
C12 C13 1_555 1_555
C13 H15 1_555 1_555
C14 C13 1_555 1_555
H16 C14 1_555 1_555
C15 C14 1_555 1_555
H17 C15 1_555 1_555
C16 C15 1_555 1_555
H18 C16 1_555 1_555
C17 C12 1_555 1_555
H19 C17 1_555 1_555
C18 C12 1_555 1_555
H20 C18 1_555 1_555
C19 H21 1_555 1_555
H22 C19 1_555 1_555
C20 C19 1_555 1_555
H23 C20 1_555 1_555
C21 C20 1_555 1_555
H24 C21 1_555 1_555
C22 C21 1_555 1_555
H25 C22 1_555 1_555
H26 C22 1_555 1_555
O3 C20 1_555 1_555
H27 O3 1_555 1_555
O4 C21 1_555 1_555
H28 O4 1_555 1_555
S3 C18 1_555 1_555
S4 C18 1_555 1_555
C5 C6 1_555 1_555
C8 S1 1_555 1_555
C11 S2 1_555 1_555
C16 C17 1_555 1_555
C19 S3 1_555 1_555
C22 S4 1_555 1_555

#END
