
#######################################################################
#
#                 Cambridge Crystallographic Data Centre
#                                CCDC 
#
#######################################################################
#
# If this CIF has been generated from an entry in the Cambridge 
# Structural Database, then it will include bibliographic, chemical, 
# crystal, experimental, refinement or atomic coordinate data resulting 
# from the CCDC's data processing and validation procedures.
#
#######################################################################

data_FIBWUI
_chemical_formula_moiety         'C12 H10 O2'
_chemical_name_systematic        
Tetracyclo(7.2.1.0^4,11^.0^6,10^)dodeca-2,7-diene-5,12-dione
_symmetry_cell_setting           monoclinic
_symmetry_space_group_name_H-M   'P 21/c'
_symmetry_Int_Tables_number      14
_space_group_name_Hall           '-P 2ybc'
loop_
_symmetry_equiv_pos_site_id
_symmetry_equiv_pos_as_xyz
1 x,y,z
2 -x,1/2+y,1/2-z
3 -x,-y,-z
4 x,1/2-y,1/2+z
_cell_length_a                   7.6019(16)
_cell_length_b                   10.6064(21)
_cell_length_c                   12.8281(15)
_cell_angle_alpha                90
_cell_angle_beta                 120.54(7)
_cell_angle_gamma                90
_cell_volume                     890.829
_cell_formula_units_Z            4
loop_
_atom_site_label
_atom_site_type_symbol
_atom_site_fract_x
_atom_site_fract_y
_atom_site_fract_z
C1 C 0.9235(5) 0.2799(3) 0.0883(3)
C2 C 1.0645(5) 0.2508(3) 0.2188(3)
C3 C 1.0726(5) 0.1124(3) 0.2426(3)
C4 C 1.2712(5) 0.0565(3) 0.2599(3)
C5 C 1.2320(6) -0.0134(3) 0.1476(3)
C6 C 1.3278(6) 0.0376(4) 0.0966(3)
C7 C 1.4499(5) 0.1511(3) 0.1658(3)
C8 C 1.3709(5) 0.2704(4) 0.0877(3)
C9 C 1.2430(6) 0.3469(3) 0.1238(3)
C10 C 1.0181(6) 0.3307(3) 0.0355(3)
C11 C 1.2765(5) 0.2918(3) 0.2414(3)
C12 C 1.4049(5) 0.1683(3) 0.2690(3)
O1 O 0.9397(4) 0.0521(3) 0.2448(2)
O2 O 1.4023(4) 0.2980(3) 0.0063(3)
H1 H 0.7655(63) 0.2661(36) 0.0393(37)
H2 H 1.0351(67) 0.2963(39) 0.2874(36)
H3 H 1.3301(73) -0.0008(39) 0.3521(35)
H4 H 1.1277(61) -0.0930(31) 0.1045(32)
H5 H 1.3256(62) 0.0023(34) 0.0381(34)
H6 H 1.6042(64) 0.1394(38) 0.1948(36)
H7 H 1.2622(58) 0.4503(41) 0.1206(33)
H8 H 0.9778(74) 0.3610(38) -0.0482(41)
H9 H 1.3685(81) 0.3497(44) 0.3223(44)
H10 H 1.5428(85) 0.1770(41) 0.3620(46)
loop_
_geom_bond_atom_site_label_1
_geom_bond_atom_site_label_2
_geom_bond_site_symmetry_1
_geom_bond_site_symmetry_2
C1 C2 1_555 1_555
C2 C3 1_555 1_555
C3 C4 1_555 1_555
C4 C5 1_555 1_555
C5 C6 1_555 1_555
C6 C7 1_555 1_555
C7 C8 1_555 1_555
C8 C9 1_555 1_555
C9 C10 1_555 1_555
C10 C1 1_555 1_555
C11 C2 1_555 1_555
C12 C4 1_555 1_555
O1 C3 1_555 1_555
O2 C8 1_555 1_555
H1 C1 1_555 1_555
H2 C2 1_555 1_555
H3 C4 1_555 1_555
H4 C5 1_555 1_555
H5 C6 1_555 1_555
H6 C7 1_555 1_555
H7 C9 1_555 1_555
H8 C10 1_555 1_555
H9 C11 1_555 1_555
H10 C12 1_555 1_555
C7 C12 1_555 1_555
C9 C11 1_555 1_555
C11 C12 1_555 1_555

#END
