
#######################################################################
#
#                 Cambridge Crystallographic Data Centre
#                                CCDC 
#
#######################################################################
#
# If this CIF has been generated from an entry in the Cambridge 
# Structural Database, then it will include bibliographic, chemical, 
# crystal, experimental, refinement or atomic coordinate data resulting 
# from the CCDC's data processing and validation procedures.
#
#######################################################################

data_FIBWIW
_chemical_formula_moiety         'C12 H16 O2'
_chemical_name_systematic        Tricyclo(6.2.1.1^3,6^)dodecane-2,7-dione
_symmetry_cell_setting           orthorhombic
_symmetry_space_group_name_H-M   'C 2 c b'
_symmetry_Int_Tables_number      41
_space_group_name_Hall           'C -2bc 2'
loop_
_symmetry_equiv_pos_site_id
_symmetry_equiv_pos_as_xyz
1 x,y,z
2 1/2+x,1/2+y,z
3 x,1/2-y,1/2+z
4 1/2+x,-y,1/2+z
5 x,1/2+y,1/2-z
6 1/2+x,y,1/2-z
7 x,-y,-z
8 1/2+x,1/2-y,-z
_cell_length_a                   9.7508(14)
_cell_length_b                   7.8246(14)
_cell_length_c                   12.7704(20)
_cell_angle_alpha                90
_cell_angle_beta                 90
_cell_angle_gamma                90
_cell_volume                     974.332
_exptl_crystal_colour            colorless
_chemical_melting_point          192deg.C
_cell_formula_units_Z            4
loop_
_atom_site_label
_atom_site_type_symbol
_atom_site_fract_x
_atom_site_fract_y
_atom_site_fract_z
C1 C 0.4998(7) 0.2994(7) 0.4083(5)
C2 C 0.6452(7) 0.2760(4) 0.4567(3)
C3 C 0.6423(6) 0.2873(4) 0.5753(3)
C4 C 0.6392(5) 0.4501(5) 0.6398(3)
C5 C 0.4938(6) 0.4712(7) 0.3539(5)
C6 C 0.7318(6) 0.4019(5) 0.3945(3)
O1 O 0.6364(7) 0.1523(4) 0.6226(3)
H1 H 0.4253(90) 0.2961(74) 0.4603(49)
H2 H 0.4776(81) 0.2044(75) 0.3529(56)
H3 H 0.6791(54) 0.1548(81) 0.4368(45)
H4 H 0.6674(63) 0.4117(69) 0.7137(41)
H5 H 0.4618(80) 0.4566(74) 0.2804(47)
H6 H 0.4276(81) 0.5500(73) 0.3936(47)
H7 H 0.8231(61) 0.4360(69) 0.4351(43)
H8 H 0.7839(62) 0.3458(77) 0.3293(53)
C5F C 0.4938(6) 0.5288(7) 0.6461(5)
C6F C 0.7318(6) 0.5981(5) 0.6055(3)
C4F C 0.6392(5) 0.5499(5) 0.3602(3)
C1F C 0.4998(7) 0.7006(7) 0.5917(5)
H5F H 0.4618(80) 0.5434(74) 0.7196(47)
H6F H 0.4276(81) 0.4500(73) 0.6064(47)
C2F C 0.6452(7) 0.7240(4) 0.5433(3)
H7F H 0.8231(61) 0.5640(69) 0.5649(43)
H8F H 0.7839(62) 0.6542(77) 0.6707(53)
C3F C 0.6423(6) 0.7127(4) 0.4247(3)
H4F H 0.6674(63) 0.5883(69) 0.2863(41)
H1F H 0.4253(90) 0.7039(74) 0.5397(49)
H2F H 0.4776(81) 0.7956(75) 0.6471(56)
H3F H 0.6791(54) 0.8452(81) 0.5632(45)
O1F O 0.6364(7) 0.8477(4) 0.3774(3)
loop_
_geom_bond_atom_site_label_1
_geom_bond_atom_site_label_2
_geom_bond_site_symmetry_1
_geom_bond_site_symmetry_2
C1 C2 1_555 1_555
C2 C3 1_555 1_555
C3 C4 1_555 1_555
C4 H4 1_555 1_555
C5 C1 1_555 1_555
C6 C2 1_555 1_555
O1 C3 1_555 1_555
H1 C1 1_555 1_555
H2 C1 1_555 1_555
H3 C2 1_555 1_555
H5 C5 1_555 1_555
H6 C5 1_555 1_555
H7 C6 1_555 1_555
H8 C6 1_555 1_555
C5F C4 1_555 1_555
C6F C4 1_555 1_555
C4F C5 1_555 1_555
C1F C5F 1_555 1_555
H5F C5F 1_555 1_555
H6F C5F 1_555 1_555
C2F C6F 1_555 1_555
H7F C6F 1_555 1_555
H8F C6F 1_555 1_555
C3F C4F 1_555 1_555
H4F C4F 1_555 1_555
H1F C1F 1_555 1_555
H2F C1F 1_555 1_555
H3F C2F 1_555 1_555
O1F C3F 1_555 1_555
C6 C4F 1_555 1_555
C1F C2F 1_555 1_555
C2F C3F 1_555 1_555

#END
