
#######################################################################
#
#                 Cambridge Crystallographic Data Centre
#                                CCDC 
#
#######################################################################
#
# If this CIF has been generated from an entry in the Cambridge 
# Structural Database, then it will include bibliographic, chemical, 
# crystal, experimental, refinement or atomic coordinate data resulting 
# from the CCDC's data processing and validation procedures.
#
#######################################################################

data_FICBEA
_chemical_formula_moiety         'C8 H14 O4,2(C8 H8 N2 S1)'
_chemical_name_systematic        
'Octanedioic acid 4-methyl-1,3-benzothiazol-2-amine'
_symmetry_cell_setting           monoclinic
_symmetry_space_group_name_H-M   'P 21/c'
_symmetry_Int_Tables_number      14
_space_group_name_Hall           '-P 2ybc'
loop_
_symmetry_equiv_pos_site_id
_symmetry_equiv_pos_as_xyz
1 x,y,z
2 -x,1/2+y,1/2-z
3 -x,-y,-z
4 x,1/2-y,1/2+z
_cell_length_a                   16.295(2)
_cell_length_b                   7.814(4)
_cell_length_c                   20.274(3)
_cell_angle_alpha                90
_cell_angle_beta                 93.692(4)
_cell_angle_gamma                90
_cell_volume                     2576.11
_exptl_crystal_colour            colorless
_exptl_crystal_description       block
_cell_formula_units_Z            4
loop_
_atom_site_label
_atom_site_type_symbol
_atom_site_fract_x
_atom_site_fract_y
_atom_site_fract_z
C1 C 0.3442(2) -0.9509(5) 0.33205(17)
C2 C 0.2868(2) -0.8012(5) 0.33297(18)
H1 H 0.2917 -0.7499 0.3766
H2 H 0.2309 -0.8426 0.3255
C3 C 0.3017(2) -0.6636(5) 0.28206(17)
H3 H 0.2959 -0.7138 0.2382
H4 H 0.3578 -0.6224 0.2891
C4 C 0.2432(2) -0.5129(5) 0.28504(19)
H5 H 0.2502 -0.4603 0.3284
H6 H 0.1871 -0.5542 0.2792
C5 C 0.2573(2) -0.3777(5) 0.23221(18)
H7 H 0.3131 -0.3354 0.2388
H8 H 0.2520 -0.4320 0.1891
C6 C 0.1985(2) -0.2262(5) 0.23211(17)
H9 H 0.1424 -0.2679 0.2275
H10 H 0.2059 -0.1672 0.2742
C7 C 0.2119(2) -0.1016(5) 0.17726(18)
H11 H 0.2009 -0.1600 0.1354
H12 H 0.2694 -0.0684 0.1800
C8 C 0.1605(2) 0.0579(5) 0.17691(18)
O1 O 0.40084(16) -0.9611(3) 0.29535(12)
O2 O 0.32784(15) -1.0705(3) 0.37484(12)
H13 H 0.3626 -1.1463 0.3742
O3 O 0.17732(16) 0.1660(4) 0.13021(13)
H14 H 0.1472 0.2498 0.1318
O4 O 0.10867(16) 0.0856(4) 0.21637(13)
C9 C -0.0308(2) -0.0076(5) 0.33914(18)
C10 C -0.0184(2) 0.1819(5) 0.43511(18)
C11 C -0.0013(2) 0.2902(5) 0.48822(17)
H15 H 0.0424 0.3670 0.4887
C12 C -0.0517(3) 0.2803(5) 0.54084(19)
H16 H -0.0417 0.3515 0.5772
C13 C -0.1166(2) 0.1655(5) 0.53979(18)
H17 H -0.1493 0.1620 0.5757
C14 C -0.1343(2) 0.0561(5) 0.48718(18)
C15 C -0.0827(2) 0.0633(5) 0.43426(17)
C16 C -0.2038(2) -0.0684(6) 0.48788(19)
H18 H -0.2311 -0.0555 0.5282
H19 H -0.1829 -0.1828 0.4851
H20 H -0.2421 -0.0467 0.4508
N1 N -0.01932(19) -0.0928(5) 0.28291(14)
H21 H -0.0511 -0.1768 0.2711
H22 H 0.0198 -0.0635 0.2587
N2 N -0.08908(17) -0.0448(4) 0.37851(14)
S1 S 0.03409(6) 0.16279(14) 0.36334(5)
C17 C 0.4868(2) -1.3726(5) 0.34541(17)
C18 C 0.4713(2) -1.6245(5) 0.41445(17)
C19 C 0.4682(2) -1.7763(6) 0.45016(18)
H23 H 0.5014 -1.8686 0.4406
C20 C 0.4148(2) -1.7867(5) 0.50007(19)
H24 H 0.4114 -1.8871 0.5244
C21 C 0.3661(2) -1.6468(5) 0.51405(18)
H25 H 0.3310 -1.6560 0.5483
C22 C 0.3673(2) -1.4942(5) 0.47917(17)
C23 C 0.4209(2) -1.4829(5) 0.42745(17)
C24 C 0.3146(2) -1.3438(6) 0.49547(19)
H26 H 0.2820 -1.3731 0.5316
H27 H 0.2790 -1.3147 0.4576
H28 H 0.3491 -1.2478 0.5076
N3 N 0.51081(19) -1.2590(5) 0.30110(14)
H29 H 0.4884 -1.1593 0.2985
H30 H 0.5486 -1.2856 0.2752
N4 N 0.42979(18) -1.3420(4) 0.38642(13)
S2 S 0.53325(6) -1.57471(14) 0.35088(5)
loop_
_geom_bond_atom_site_label_1
_geom_bond_atom_site_label_2
_geom_bond_site_symmetry_1
_geom_bond_site_symmetry_2
C1 C2 1_555 1_555
C2 H1 1_555 1_555
H2 C2 1_555 1_555
C3 C2 1_555 1_555
H3 C3 1_555 1_555
H4 C3 1_555 1_555
C4 C3 1_555 1_555
H5 C4 1_555 1_555
H6 C4 1_555 1_555
C5 C4 1_555 1_555
H7 C5 1_555 1_555
H8 C5 1_555 1_555
C6 C5 1_555 1_555
H9 C6 1_555 1_555
H10 C6 1_555 1_555
C7 C6 1_555 1_555
H11 C7 1_555 1_555
H12 C7 1_555 1_555
C8 C7 1_555 1_555
O1 C1 1_555 1_555
O2 C1 1_555 1_555
H13 O2 1_555 1_555
O3 C8 1_555 1_555
H14 O3 1_555 1_555
O4 C8 1_555 1_555
C9 N1 1_555 1_555
C10 C11 1_555 1_555
C11 H15 1_555 1_555
C12 C11 1_555 1_555
H16 C12 1_555 1_555
C13 C12 1_555 1_555
H17 C13 1_555 1_555
C14 C13 1_555 1_555
C15 C10 1_555 1_555
C16 C14 1_555 1_555
H18 C16 1_555 1_555
H19 C16 1_555 1_555
H20 C16 1_555 1_555
N1 H21 1_555 1_555
H22 N1 1_555 1_555
N2 C9 1_555 1_555
S1 C9 1_555 1_555
C17 N3 1_555 1_555
C18 C19 1_555 1_555
C19 H23 1_555 1_555
C20 C19 1_555 1_555
H24 C20 1_555 1_555
C21 C20 1_555 1_555
H25 C21 1_555 1_555
C22 C21 1_555 1_555
C23 C18 1_555 1_555
C24 C22 1_555 1_555
H26 C24 1_555 1_555
H27 C24 1_555 1_555
H28 C24 1_555 1_555
N3 H29 1_555 1_555
H30 N3 1_555 1_555
N4 C17 1_555 1_555
S2 C17 1_555 1_555
C10 S1 1_555 1_555
C14 C15 1_555 1_555
C15 N2 1_555 1_555
C18 S2 1_555 1_555
C22 C23 1_555 1_555
C23 N4 1_555 1_555

#END
