
#######################################################################
#
#                 Cambridge Crystallographic Data Centre
#                                CCDC 
#
#######################################################################
#
# If this CIF has been generated from an entry in the Cambridge 
# Structural Database, then it will include bibliographic, chemical, 
# crystal, experimental, refinement or atomic coordinate data resulting 
# from the CCDC's data processing and validation procedures.
#
#######################################################################

data_FICQAK
_chemical_formula_moiety         'C34 H16 O6,C1 H2 Cl2'
_chemical_name_systematic        
'1,4,5,6,7,8,11,12,13,14-Decahydro-trans-5,14:7,12-bis(o-benzeno)pentacene-1,4,6,8,11,13-hexaone dichloromethane solvate'
_symmetry_cell_setting           monoclinic
_symmetry_space_group_name_H-M   'P 21/c'
_symmetry_Int_Tables_number      14
_space_group_name_Hall           '-P 2ybc'
loop_
_symmetry_equiv_pos_site_id
_symmetry_equiv_pos_as_xyz
1 x,y,z
2 -x,1/2+y,1/2-z
3 -x,-y,-z
4 x,1/2-y,1/2+z
_cell_length_a                   11.833(2)
_cell_length_b                   15.927(3)
_cell_length_c                   15.686(3)
_cell_angle_alpha                90
_cell_angle_beta                 110.56(3)
_cell_angle_gamma                90
_cell_volume                     2767.95
_exptl_crystal_colour            yellowish
_exptl_crystal_description       platelet
_chemical_melting_point          'above 320deg.C'
_cell_formula_units_Z            4
loop_
_atom_site_label
_atom_site_type_symbol
_atom_site_fract_x
_atom_site_fract_y
_atom_site_fract_z
O1 O 0.8220(3) -0.05532(18) 0.35079(18)
O2 O 0.9072(3) 0.18234(19) 0.6050(2)
O3 O 0.4731(2) -0.12377(16) 0.37913(16)
C1 C 0.8417(3) -0.0015(3) 0.4091(2)
C2 C 0.9159(3) 0.0730(3) 0.4097(3)
H1 H 0.9479 0.0794 0.3638
C3 C 0.9383(3) 0.1314(3) 0.4743(3)
H2 H 0.9886 0.1760 0.4735
C4 C 0.8870(3) 0.1281(3) 0.5466(3)
C5 C 0.8104(3) 0.0549(2) 0.5449(2)
C6 C 0.7929(3) -0.0065(2) 0.4841(2)
C7 C 0.8326(3) -0.1883(2) 0.6256(2)
H3 H 0.8193 -0.2322 0.5841
C8 C 0.7878(3) -0.1091(2) 0.5971(2)
C9 C 0.8044(3) -0.0438(2) 0.6598(2)
C10 C 0.8695(3) -0.0577(3) 0.7511(2)
H4 H 0.8818 -0.0144 0.7931
C11 C 0.9157(3) -0.1364(3) 0.7789(3)
H5 H 0.9597 -0.1460 0.8402
C12 C 0.8979(3) -0.2014(3) 0.7175(3)
H6 H 0.9298 -0.2542 0.7375
C13 C 0.6053(3) -0.0417(2) 0.4989(2)
C14 C 0.6189(3) 0.0202(2) 0.5586(2)
C15 C 0.4840(3) -0.0673(2) 0.4340(2)
C16 C 0.7198(3) -0.0811(2) 0.4979(2)
H7 H 0.7078 -0.1260 0.4528
C17 C 0.7499(3) 0.0392(2) 0.6152(2)
H8 H 0.7599 0.0854 0.6585
O1B O 0.1780(3) 0.05532(18) 0.64921(18)
O2B O 0.0928(3) -0.18234(19) 0.3950(2)
O3B O 0.5269(2) 0.12377(16) 0.62087(16)
C1B C 0.1583(3) 0.0015(3) 0.5909(2)
C2B C 0.0841(3) -0.0730(3) 0.5903(3)
H1B H 0.0521 -0.0794 0.6362
C3B C 0.0617(3) -0.1314(3) 0.5257(3)
H2B H 0.0114 -0.1760 0.5265
C4B C 0.1130(3) -0.1281(3) 0.4534(3)
C5B C 0.1896(3) -0.0549(2) 0.4551(2)
C6B C 0.2071(3) 0.0065(2) 0.5159(2)
C7B C 0.1674(3) 0.1883(2) 0.3744(2)
H3B H 0.1807 0.2322 0.4159
C8B C 0.2122(3) 0.1091(2) 0.4029(2)
C9B C 0.1956(3) 0.0438(2) 0.3402(2)
C10B C 0.1305(3) 0.0577(3) 0.2489(2)
H4B H 0.1182 0.0144 0.2069
C11B C 0.0843(3) 0.1364(3) 0.2211(3)
H5B H 0.0403 0.1460 0.1598
C12B C 0.1021(3) 0.2014(3) 0.2825(3)
H6B H 0.0702 0.2542 0.2625
C13B C 0.3947(3) 0.0417(2) 0.5011(2)
C14B C 0.3811(3) -0.0202(2) 0.4414(2)
C15B C 0.5160(3) 0.0673(2) 0.5660(2)
C16B C 0.2802(3) 0.0811(2) 0.5021(2)
H7B H 0.2922 0.1260 0.5472
C17B C 0.2501(3) -0.0392(2) 0.3848(2)
H8B H 0.2401 -0.0854 0.3415
O4 O 0.7947(3) -0.22590(17) -0.06928(18)
O5 O 0.4478(3) -0.07905(18) -0.34140(16)
O6 O 0.6562(2) -0.0922(2) 0.13203(16)
C18 C 0.7122(4) -0.1937(2) -0.1302(3)
C19 C 0.6542(4) -0.2362(3) -0.2181(3)
H9 H 0.6774 -0.2905 -0.2260
C20 C 0.5691(4) -0.1983(3) -0.2863(3)
H10 H 0.5350 -0.2268 -0.3412
C21 C 0.5267(4) -0.1124(3) -0.2780(2)
C22 C 0.5843(3) -0.0708(2) -0.1890(2)
C23 C 0.6676(3) -0.1097(2) -0.1207(2)
C24 C 0.8725(4) 0.0589(3) -0.0212(2)
H11 H 0.9288 0.0332 0.0291
C25 C 0.7604(3) 0.0235(2) -0.0619(2)
C26 C 0.6754(3) 0.0642(2) -0.1350(2)
C27 C 0.7035(4) 0.1384(2) -0.1678(2)
H12 H 0.6458 0.1659 -0.2158
C28 C 0.8181(4) 0.1719(3) -0.1290(3)
H13 H 0.8387 0.2207 -0.1527
C29 C 0.9013(4) 0.1330(3) -0.0553(3)
H14 H 0.9775 0.1565 -0.0282
C30 C 0.6035(3) -0.0308(2) -0.0141(2)
C31 C 0.5218(3) 0.0095(2) -0.0825(2)
C32 C 0.5876(3) -0.0477(2) 0.0732(2)
C33 C 0.7145(3) -0.0578(2) -0.0341(2)
H15 H 0.7749 -0.0869 0.0166
C34 C 0.5546(3) 0.0181(2) -0.1678(2)
H16 H 0.4924 0.0457 -0.2186
O4B O 0.2053(3) 0.22590(17) 0.06928(18)
O5B O 0.5522(3) 0.07905(18) 0.34140(16)
O6B O 0.3438(2) 0.0922(2) -0.13203(16)
C18B C 0.2878(4) 0.1937(2) 0.1302(3)
C19B C 0.3458(4) 0.2362(3) 0.2181(3)
H9B H 0.3226 0.2905 0.2260
C20B C 0.4309(4) 0.1983(3) 0.2863(3)
H10B H 0.4650 0.2268 0.3412
C21B C 0.4733(4) 0.1124(3) 0.2780(2)
C22B C 0.4157(3) 0.0708(2) 0.1890(2)
C23B C 0.3324(3) 0.1097(2) 0.1207(2)
C24B C 0.1275(4) -0.0589(3) 0.0212(2)
H11B H 0.0712 -0.0332 -0.0291
C25B C 0.2396(3) -0.0235(2) 0.0619(2)
C26B C 0.3246(3) -0.0642(2) 0.1350(2)
C27B C 0.2965(4) -0.1384(2) 0.1678(2)
H12B H 0.3542 -0.1659 0.2158
C28B C 0.1819(4) -0.1719(3) 0.1290(3)
H13B H 0.1613 -0.2207 0.1527
C29B C 0.0987(4) -0.1330(3) 0.0553(3)
H14B H 0.0225 -0.1565 0.0282
C30B C 0.3965(3) 0.0308(2) 0.0141(2)
C31B C 0.4782(3) -0.0095(2) 0.0825(2)
C32B C 0.4124(3) 0.0477(2) -0.0732(2)
C33B C 0.2855(3) 0.0578(2) 0.0341(2)
H15B H 0.2251 0.0869 -0.0166
C34B C 0.4454(3) -0.0181(2) 0.1678(2)
H16B H 0.5076 -0.0457 0.2186
C35 C 0.7012(8) 0.2013(5) 0.1211(5)
H17 H 0.6958 0.2518 0.1541
H18 H 0.7774 0.2050 0.1111
Cl1 Cl 0.6009(3) 0.21101(12) 0.02414(11)
Cl2 Cl 0.71723(17) 0.12635(13) 0.19153(12)
loop_
_geom_bond_atom_site_label_1
_geom_bond_atom_site_label_2
_geom_bond_site_symmetry_1
_geom_bond_site_symmetry_2
O1 C1 1_555 1_555
O2 C4 1_555 1_555
O3 C15 1_555 1_555
O4 C18 1_555 1_555
O5 C21 1_555 1_555
O6 C32 1_555 1_555
C1 C2 1_555 1_555
C2 H1 1_555 1_555
C3 C2 1_555 1_555
H2 C3 1_555 1_555
C4 C3 1_555 1_555
C5 C4 1_555 1_555
C6 C1 1_555 1_555
C7 H3 1_555 1_555
C8 C7 1_555 1_555
C9 C8 1_555 1_555
C10 C9 1_555 1_555
H4 C10 1_555 1_555
C11 C10 1_555 1_555
H5 C11 1_555 1_555
C12 C7 1_555 1_555
H6 C12 1_555 1_555
C13 C14 1_555 1_555
C14 C17 1_555 1_555
C15 C13 1_555 1_555
C16 C6 1_555 1_555
H7 C16 1_555 1_555
C17 C5 1_555 1_555
H8 C17 1_555 1_555
C18 C19 1_555 1_555
C19 H9 1_555 1_555
C20 C19 1_555 1_555
H10 C20 1_555 1_555
C21 C20 1_555 1_555
C22 C21 1_555 1_555
C23 C18 1_555 1_555
C24 H11 1_555 1_555
C25 C24 1_555 1_555
C26 C25 1_555 1_555
C27 C26 1_555 1_555
H12 C27 1_555 1_555
C28 C27 1_555 1_555
H13 C28 1_555 1_555
C29 C24 1_555 1_555
H14 C29 1_555 1_555
C30 C31 1_555 1_555
C31 C34 1_555 1_555
C32 C30 1_555 1_555
C33 C23 1_555 1_555
H15 C33 1_555 1_555
C34 C22 1_555 1_555
H16 C34 1_555 1_555
C35 H17 1_555 1_555
H18 C35 1_555 1_555
Cl1 C35 1_555 1_555
Cl2 C35 1_555 1_555
O1B C1B 1_555 1_555
O2B C4B 1_555 1_555
O3B C15B 1_555 1_555
O4B C18B 1_555 1_555
O5B C21B 1_555 1_555
O6B C32B 1_555 1_555
C1B C2B 1_555 1_555
C2B H1B 1_555 1_555
C3B C2B 1_555 1_555
H2B C3B 1_555 1_555
C4B C3B 1_555 1_555
C5B C4B 1_555 1_555
C6B C1B 1_555 1_555
C7B H3B 1_555 1_555
C8B C7B 1_555 1_555
C9B C8B 1_555 1_555
C10B C9B 1_555 1_555
H4B C10B 1_555 1_555
C11B C10B 1_555 1_555
H5B C11B 1_555 1_555
C12B C7B 1_555 1_555
H6B C12B 1_555 1_555
C13B C14B 1_555 1_555
C14B C15 1_555 1_555
C15B C14 1_555 1_555
C16B C6B 1_555 1_555
H7B C16B 1_555 1_555
C17B C5B 1_555 1_555
H8B C17B 1_555 1_555
C18B C19B 1_555 1_555
C19B H9B 1_555 1_555
C20B C19B 1_555 1_555
H10B C20B 1_555 1_555
C21B C20B 1_555 1_555
C22B C21B 1_555 1_555
C23B C18B 1_555 1_555
C24B H11B 1_555 1_555
C25B C24B 1_555 1_555
C26B C25B 1_555 1_555
C27B C26B 1_555 1_555
H12B C27B 1_555 1_555
C28B C27B 1_555 1_555
H13B C28B 1_555 1_555
C29B C24B 1_555 1_555
H14B C29B 1_555 1_555
C30B C31B 1_555 1_555
C31B C32 1_555 1_555
C32B C31 1_555 1_555
C33B C23B 1_555 1_555
H15B C33B 1_555 1_555
C34B C22B 1_555 1_555
H16B C34B 1_555 1_555
C5 C6 1_555 1_555
C8 C16 1_555 1_555
C9 C17 1_555 1_555
C11 C12 1_555 1_555
C13 C16 1_555 1_555
C22 C23 1_555 1_555
C25 C33 1_555 1_555
C26 C34 1_555 1_555
C28 C29 1_555 1_555
C30 C33 1_555 1_555
C5B C6B 1_555 1_555
C8B C16B 1_555 1_555
C9B C17B 1_555 1_555
C11B C12B 1_555 1_555
C13B C15B 1_555 1_555
C13B C16B 1_555 1_555
C14B C17B 1_555 1_555
C22B C23B 1_555 1_555
C25B C33B 1_555 1_555
C26B C34B 1_555 1_555
C28B C29B 1_555 1_555
C30B C32B 1_555 1_555
C30B C33B 1_555 1_555
C31B C34B 1_555 1_555

#END
