
#######################################################################
#
#                 Cambridge Crystallographic Data Centre
#                                CCDC 
#
#######################################################################
#
# If this CIF has been generated from an entry in the Cambridge 
# Structural Database, then it will include bibliographic, chemical, 
# crystal, experimental, refinement or atomic coordinate data resulting 
# from the CCDC's data processing and validation procedures.
#
#######################################################################

data_FICTER
_chemical_formula_moiety         'C8 H9 N3 O1 S1'
_chemical_name_systematic        N-Benzoylthiosemicarbazide
_chemical_properties_biological  'potential biological activity'
_symmetry_cell_setting           triclinic
_symmetry_space_group_name_H-M   'P -1'
_symmetry_Int_Tables_number      2
_space_group_name_Hall           '-P 1'
loop_
_symmetry_equiv_pos_site_id
_symmetry_equiv_pos_as_xyz
1 x,y,z
2 -x,-y,-z
_cell_length_a                   8.237(3)
_cell_length_b                   8.438(3)
_cell_length_c                   14.590(6)
_cell_angle_alpha                83.554(7)
_cell_angle_beta                 75.631(7)
_cell_angle_gamma                84.998(7)
_cell_volume                     974.272
_exptl_crystal_colour            colorless
_exptl_crystal_description       block
_cell_formula_units_Z            4
_exptl_crystal_recrystallization_method 'absolute methanol'
loop_
_atom_site_label
_atom_site_type_symbol
_atom_site_fract_x
_atom_site_fract_y
_atom_site_fract_z
S1 S 0.20558(8) 0.44361(8) 0.96438(5)
O1 O 0.5848(3) 0.7382(4) 0.70866(17)
N1 N 0.6476(3) 0.6042(3) 0.83852(17)
H1 H 0.707(3) 0.599(3) 0.8799(14)
N2 N 0.4791(3) 0.5889(3) 0.88217(17)
H2 H 0.422(3) 0.675(2) 0.899(2)
N3 N 0.5057(3) 0.3180(3) 0.87782(19)
H3 H 0.6077(17) 0.323(3) 0.8447(18)
H4 H 0.463(3) 0.228(2) 0.899(2)
C1 C 0.9941(3) 0.6650(3) 0.7617(2)
H9 H 0.9693 0.5860 0.8121
C2 C 1.1558(3) 0.7113(4) 0.7282(2)
H10 H 1.2403 0.6620 0.7555
C3 C 1.1938(4) 0.8289(4) 0.6553(3)
H11 H 1.3034 0.8599 0.6333
C4 C 1.0709(5) 0.9005(5) 0.6151(3)
H12 H 1.0969 0.9810 0.5657
C5 C 0.9074(4) 0.8550(5) 0.6467(3)
H13 H 0.8243 0.9045 0.6185
C6 C 0.8679(3) 0.7357(3) 0.72037(19)
C7 C 0.6889(3) 0.6944(4) 0.7533(2)
C8 C 0.4128(3) 0.4473(3) 0.90322(18)
S2 S 1.32622(9) 0.95077(8) -0.07452(5)
O2 O 1.1635(3) 0.7167(3) 0.24999(15)
N4 N 0.9933(3) 0.7925(3) 0.15231(17)
H5 H 0.897(2) 0.801(4) 0.140(3)
N5 N 1.1247(3) 0.8012(3) 0.07203(17)
H6 H 1.150(3) 0.720(2) 0.0404(16)
N6 N 1.1315(4) 1.0684(3) 0.0787(2)
H7 H 1.050(3) 1.055(4) 0.1284(15)
H8 H 1.165(4) 1.158(2) 0.047(2)
C9 C 0.8911(5) 0.6543(5) 0.4042(3)
H14 H 0.9985 0.6221 0.4114
C10 C 0.7542(7) 0.6333(6) 0.4809(3)
H15 H 0.7701 0.5862 0.5390
C11 C 0.5989(7) 0.6804(6) 0.4717(4)
H16 H 0.5075 0.6670 0.5236
C12 C 0.5750(5) 0.7477(7) 0.3869(4)
H17 H 0.4671 0.7795 0.3806
C13 C 0.7110(4) 0.7692(5) 0.3093(3)
H18 H 0.6938 0.8158 0.2514
C14 C 0.8695(4) 0.7223(3) 0.3178(2)
C15 C 1.0215(4) 0.7418(3) 0.2391(2)
C16 C 1.1862(3) 0.9415(3) 0.03145(19)
loop_
_geom_bond_atom_site_label_1
_geom_bond_atom_site_label_2
_geom_bond_site_symmetry_1
_geom_bond_site_symmetry_2
S1 C8 1_555 1_555
S2 C16 1_555 1_555
O1 C7 1_555 1_555
O2 C15 1_555 1_555
N1 H1 1_555 1_555
N2 N1 1_555 1_555
H2 N2 1_555 1_555
N3 H3 1_555 1_555
H4 N3 1_555 1_555
N4 H5 1_555 1_555
N5 N4 1_555 1_555
H6 N5 1_555 1_555
N6 H7 1_555 1_555
H8 N6 1_555 1_555
C1 H9 1_555 1_555
C2 C1 1_555 1_555
H10 C2 1_555 1_555
C3 C2 1_555 1_555
H11 C3 1_555 1_555
C4 C3 1_555 1_555
H12 C4 1_555 1_555
C5 C4 1_555 1_555
H13 C5 1_555 1_555
C6 C1 1_555 1_555
C7 N1 1_555 1_555
C8 N2 1_555 1_555
C9 H14 1_555 1_555
C10 C9 1_555 1_555
H15 C10 1_555 1_555
C11 C10 1_555 1_555
H16 C11 1_555 1_555
C12 C11 1_555 1_555
H17 C12 1_555 1_555
C13 C12 1_555 1_555
H18 C13 1_555 1_555
C14 C9 1_555 1_555
C15 N4 1_555 1_555
C16 N5 1_555 1_555
N3 C8 1_555 1_555
N6 C16 1_555 1_555
C5 C6 1_555 1_555
C6 C7 1_555 1_555
C13 C14 1_555 1_555
C14 C15 1_555 1_555

#END
