
#######################################################################
#
#                 Cambridge Crystallographic Data Centre
#                                CCDC 
#
#######################################################################
#
# If this CIF has been generated from an entry in the Cambridge 
# Structural Database, then it will include bibliographic, chemical, 
# crystal, experimental, refinement or atomic coordinate data resulting 
# from the CCDC's data processing and validation procedures.
#
#######################################################################

data_FICTUI
_chemical_formula_moiety         'C11 H6 F3 N3 O3 S1'
_chemical_name_systematic        
N-(5-Nitro-1,3-thiazol-2-yl)-4-(trifluoromethyl)benzamide
_symmetry_cell_setting           monoclinic
_symmetry_space_group_name_H-M   'P 21/c'
_symmetry_Int_Tables_number      14
_space_group_name_Hall           '-P 2ybc'
loop_
_symmetry_equiv_pos_site_id
_symmetry_equiv_pos_as_xyz
1 x,y,z
2 -x,1/2+y,1/2-z
3 -x,-y,-z
4 x,1/2-y,1/2+z
_cell_length_a                   12.362(4)
_cell_length_b                   8.946(3)
_cell_length_c                   23.261(8)
_cell_angle_alpha                90
_cell_angle_beta                 100.762(4)
_cell_angle_gamma                90
_cell_volume                     2527.2
_exptl_crystal_colour            colorless
_exptl_crystal_description       block
_cell_formula_units_Z            8
loop_
_atom_site_label
_atom_site_type_symbol
_atom_site_fract_x
_atom_site_fract_y
_atom_site_fract_z
C1 C 0.2871(3) 0.2306(5) 0.10652(16)
C2 C 0.2390(3) 0.1247(5) 0.06679(17)
H1 H 0.1799 0.0687 0.0743
C3 C 0.2787(4) 0.1018(5) 0.01590(18)
H2 H 0.2467 0.0296 -0.0107
C4 C 0.3654(3) 0.1855(5) 0.00447(18)
C5 C 0.4138(4) 0.2911(6) 0.0439(2)
H3 H 0.4721 0.3481 0.0360
C6 C 0.3758(3) 0.3125(5) 0.09514(19)
H4 H 0.4098 0.3821 0.1223
C7 C 0.4053(5) 0.1639(8) -0.0515(2)
C8 C 0.2493(3) 0.2599(5) 0.16232(17)
C9 C 0.0895(3) 0.2764(5) 0.20673(16)
C10 C -0.0463(4) 0.3137(5) 0.25281(17)
H5 H -0.1190 0.3152 0.2583
C11 C 0.0372(3) 0.3595(5) 0.29379(16)
F1 F 0.4126(4) 0.0182(5) -0.06394(15)
F2 F 0.3376(3) 0.2148(5) -0.09695(13)
F3 F 0.5002(3) 0.2196(7) -0.05158(16)
N1 N 0.1382(3) 0.2403(4) 0.16086(13)
H6 H 0.0982 0.2039 0.1298
N2 N -0.0176(3) 0.2646(4) 0.20246(14)
N3 N 0.0305(3) 0.4175(4) 0.34971(15)
O1 O 0.3090(2) 0.3016(4) 0.20642(12)
O2 O 0.1160(3) 0.4596(4) 0.38111(13)
O3 O -0.0597(3) 0.4226(4) 0.36369(13)
S1 S 0.16224(9) 0.34362(13) 0.27209(4)
C12 C 0.3086(3) 0.8380(5) 0.34839(17)
C13 C 0.3064(4) 0.7008(5) 0.32116(18)
H7 H 0.2820 0.6166 0.3384
C14 C 0.3405(4) 0.6892(5) 0.26822(19)
H8 H 0.3404 0.5965 0.2502
C15 C 0.3746(3) 0.8129(5) 0.24206(18)
C16 C 0.3762(4) 0.9502(6) 0.2691(2)
H9 H 0.3984 1.0348 0.2512
C17 C 0.3448(4) 0.9620(6) 0.32261(19)
H10 H 0.3481 1.0541 0.3414
C18 C 0.4075(4) 0.8034(7) 0.1841(2)
C19 C 0.2738(3) 0.8557(5) 0.40602(17)
C20 C 0.1252(3) 0.8112(5) 0.45709(16)
C21 C 0.0747(4) 0.8551(5) 0.54822(17)
C22 C -0.0063(4) 0.7988(5) 0.50768(17)
H11 H -0.0763 0.7793 0.5151
F4 F 0.4257(4) 0.6685(5) 0.16786(16)
F5 F 0.3324(4) 0.8501(5) 0.14227(14)
F6 F 0.4934(4) 0.8772(8) 0.18052(17)
N4 N 0.1728(3) 0.7979(4) 0.40900(13)
H12 H 0.1375 0.7507 0.3791
N5 N 0.0219(3) 0.7725(4) 0.45493(14)
N6 N 0.0665(4) 0.8983(4) 0.60621(15)
O4 O 0.3288(2) 0.9184(4) 0.44772(13)
O5 O 0.1513(3) 0.9334(4) 0.63961(14)
O6 O -0.0250(3) 0.8991(4) 0.61955(13)
S2 S 0.19504(9) 0.88052(14) 0.52279(4)
loop_
_geom_bond_atom_site_label_1
_geom_bond_atom_site_label_2
_geom_bond_site_symmetry_1
_geom_bond_site_symmetry_2
C1 C2 1_555 1_555
C2 H1 1_555 1_555
C3 C2 1_555 1_555
H2 C3 1_555 1_555
C4 C3 1_555 1_555
C5 C4 1_555 1_555
H3 C5 1_555 1_555
C6 C1 1_555 1_555
H4 C6 1_555 1_555
C7 C4 1_555 1_555
C8 C1 1_555 1_555
C9 N1 1_555 1_555
C10 H5 1_555 1_555
C11 C10 1_555 1_555
F1 C7 1_555 1_555
F2 C7 1_555 1_555
F3 C7 1_555 1_555
N1 C8 1_555 1_555
H6 N1 1_555 1_555
N2 C9 1_555 1_555
N3 C11 1_555 1_555
O1 C8 1_555 1_555
O2 N3 1_555 1_555
O3 N3 1_555 1_555
S1 C9 1_555 1_555
C12 C13 1_555 1_555
C13 H7 1_555 1_555
C14 C13 1_555 1_555
H8 C14 1_555 1_555
C15 C14 1_555 1_555
C16 C15 1_555 1_555
H9 C16 1_555 1_555
C17 C12 1_555 1_555
H10 C17 1_555 1_555
C18 C15 1_555 1_555
C19 C12 1_555 1_555
C20 N4 1_555 1_555
C21 C22 1_555 1_555
C22 H11 1_555 1_555
F4 C18 1_555 1_555
F5 C18 1_555 1_555
F6 C18 1_555 1_555
N4 C19 1_555 1_555
H12 N4 1_555 1_555
N5 C20 1_555 1_555
N6 C21 1_555 1_555
O4 C19 1_555 1_555
O5 N6 1_555 1_555
O6 N6 1_555 1_555
S2 C20 1_555 1_555
C5 C6 1_555 1_555
C10 N2 1_555 1_555
C11 S1 1_555 1_555
C16 C17 1_555 1_555
C21 S2 1_555 1_555
C22 N5 1_555 1_555

#END
