
#######################################################################
#
#                 Cambridge Crystallographic Data Centre
#                                CCDC 
#
#######################################################################
#
# If this CIF has been generated from an entry in the Cambridge 
# Structural Database, then it will include bibliographic, chemical, 
# crystal, experimental, refinement or atomic coordinate data resulting 
# from the CCDC's data processing and validation procedures.
#
#######################################################################

data_FICWUM
_chemical_formula_moiety         'C20 H16 N2 O2'
_chemical_name_systematic        
7-methyl-6,7-dihydro-5H-3-oxa-4a,7-diazabenzo[ghi]perylen-8-ol
_symmetry_cell_setting           orthorhombic
_symmetry_space_group_name_H-M   'P c a 21'
_symmetry_Int_Tables_number      29
_space_group_name_Hall           'P 2c -2ac'
loop_
_symmetry_equiv_pos_site_id
_symmetry_equiv_pos_as_xyz
1 x,y,z
2 -x,-y,1/2+z
3 1/2+x,-y,z
4 1/2-x,y,1/2+z
_cell_length_a                   17.230(3)
_cell_length_b                   8.7235(16)
_cell_length_c                   9.6499(18)
_cell_angle_alpha                90
_cell_angle_beta                 90
_cell_angle_gamma                90
_cell_volume                     1450.44
_exptl_crystal_colour            'pale yellow'
_exptl_crystal_description       Plate
_cell_formula_units_Z            4
loop_
_atom_site_label
_atom_site_type_symbol
_atom_site_fract_x
_atom_site_fract_y
_atom_site_fract_z
O1 O 0.36338(11) 0.1311(2) 0.2665(2)
O2 O 0.72153(11) 0.4216(2) 0.5053(2)
H1 H 0.708(2) 0.384(5) 0.410(5)
N1 N 0.49630(13) 0.1777(3) 0.2226(2)
N2 N 0.64920(12) 0.2589(3) 0.3170(2)
C1 C 0.62467(16) 0.2698(3) 0.1705(3)
H2 H 0.6704 0.2552 0.1099
H3 H 0.6036 0.3735 0.1528
C2 C 0.56373(16) 0.1514(3) 0.1347(3)
H4 H 0.5489 0.1606 0.0359
H5 H 0.5844 0.0470 0.1505
C3 C 0.43305(16) 0.0708(3) 0.2078(3)
H6 H 0.4246 0.0489 0.1082
H7 H 0.4465 -0.0267 0.2545
C4 C 0.37247(15) 0.1775(3) 0.4018(3)
C5 C 0.30791(15) 0.1855(3) 0.4873(3)
H8 H 0.2582 0.1583 0.4523
C6 C 0.31563(15) 0.2327(3) 0.6228(3)
H9 H 0.2709 0.2374 0.6801
C7 C 0.38800(15) 0.2741(3) 0.6784(3)
C8 C 0.45393(15) 0.2693(3) 0.5902(3)
C9 C 0.44551(14) 0.2200(3) 0.4511(3)
C10 C 0.51131(15) 0.2188(3) 0.3603(3)
C11 C 0.58264(14) 0.2629(3) 0.4076(3)
C12 C 0.59167(14) 0.3229(3) 0.5457(3)
C13 C 0.52774(14) 0.3199(3) 0.6385(3)
C14 C 0.53528(15) 0.3722(3) 0.7769(3)
C15 C 0.46895(16) 0.3674(3) 0.8666(3)
H10 H 0.4744 0.3967 0.9609
C16 C 0.39866(16) 0.3217(3) 0.8191(3)
H11 H 0.3555 0.3212 0.8805
C17 C 0.60708(16) 0.4318(3) 0.8196(3)
H12 H 0.6140 0.4627 0.9132
C18 C 0.66759(15) 0.4458(3) 0.7273(3)
H13 H 0.7149 0.4910 0.7570
C19 C 0.66062(14) 0.3947(3) 0.5910(3)
C20 C 0.69823(16) 0.1233(3) 0.3437(3)
H14 H 0.7133 0.1213 0.4416
H15 H 0.7449 0.1284 0.2859
H16 H 0.6691 0.0300 0.3213
loop_
_geom_bond_atom_site_label_1
_geom_bond_atom_site_label_2
_geom_bond_site_symmetry_1
_geom_bond_site_symmetry_2
O1 C3 1_555 1_555
O2 H1 1_555 1_555
N1 C2 1_555 1_555
N2 C1 1_555 1_555
C1 H2 1_555 1_555
H3 C1 1_555 1_555
C2 C1 1_555 1_555
H4 C2 1_555 1_555
H5 C2 1_555 1_555
C3 N1 1_555 1_555
H6 C3 1_555 1_555
H7 C3 1_555 1_555
C4 O1 1_555 1_555
C5 C4 1_555 1_555
H8 C5 1_555 1_555
C6 C5 1_555 1_555
H9 C6 1_555 1_555
C7 C6 1_555 1_555
C8 C7 1_555 1_555
C9 C4 1_555 1_555
C10 N1 1_555 1_555
C11 N2 1_555 1_555
C12 C11 1_555 1_555
C13 C8 1_555 1_555
C14 C13 1_555 1_555
C15 C14 1_555 1_555
H10 C15 1_555 1_555
C16 C7 1_555 1_555
H11 C16 1_555 1_555
C17 C14 1_555 1_555
H12 C17 1_555 1_555
C18 C17 1_555 1_555
H13 C18 1_555 1_555
C19 O2 1_555 1_555
C20 N2 1_555 1_555
H14 C20 1_555 1_555
H15 C20 1_555 1_555
H16 C20 1_555 1_555
C8 C9 1_555 1_555
C9 C10 1_555 1_555
C10 C11 1_555 1_555
C12 C13 1_555 1_555
C12 C19 1_555 1_555
C15 C16 1_555 1_555
C18 C19 1_555 1_555

#END
