
#######################################################################
#
#                 Cambridge Crystallographic Data Centre
#                                CCDC 
#
#######################################################################
#
# If this CIF has been generated from an entry in the Cambridge 
# Structural Database, then it will include bibliographic, chemical, 
# crystal, experimental, refinement or atomic coordinate data resulting 
# from the CCDC's data processing and validation procedures.
#
#######################################################################

data_FICXEX
_chemical_formula_moiety         'C24 H20 N2 O2'
_chemical_name_systematic        
8b,9,10,11,12,12a-hexahydro-7,14-dioxa-8a,12b-diazabenzo[a]coronene
_symmetry_cell_setting           monoclinic
_symmetry_space_group_name_H-M   'P 21/n'
_symmetry_Int_Tables_number      14
_space_group_name_Hall           '-P 2yn'
loop_
_symmetry_equiv_pos_site_id
_symmetry_equiv_pos_as_xyz
1 x,y,z
2 1/2-x,1/2+y,1/2-z
3 -x,-y,-z
4 1/2+x,1/2-y,1/2+z
_cell_length_a                   8.0334(12)
_cell_length_b                   24.561(4)
_cell_length_c                   9.1052(13)
_cell_angle_alpha                90
_cell_angle_beta                 105.603(2)
_cell_angle_gamma                90
_cell_volume                     1730.33
_exptl_crystal_colour            yellow
_exptl_crystal_description       Rod
_cell_formula_units_Z            4
loop_
_atom_site_label
_atom_site_type_symbol
_atom_site_fract_x
_atom_site_fract_y
_atom_site_fract_z
O1 O 0.40695(11) 0.44708(4) 0.90722(10)
O2 O 0.12316(11) 0.47073(4) 0.12045(10)
N1 N 0.31899(13) 0.50405(4) 0.68940(11)
N2 N 0.18691(12) 0.51380(4) 0.36300(11)
C1 C 0.25380(15) 0.56177(5) 0.45874(14)
H1 H 0.3798 0.5659 0.4671
C2 C 0.15923(17) 0.61346(5) 0.38804(16)
H2 H 0.1767 0.6190 0.2855
H3 H 0.0338 0.6090 0.3758
C3 C 0.22354(17) 0.66352(5) 0.48612(16)
H4 H 0.3452 0.6708 0.4876
H5 H 0.1538 0.6956 0.4406
C4 C 0.21142(17) 0.65571(5) 0.64830(16)
H6 H 0.0883 0.6543 0.6486
H7 H 0.2657 0.6871 0.7113
C5 C 0.30096(16) 0.60351(5) 0.71724(15)
H8 H 0.2851 0.5985 0.8205
H9 H 0.4264 0.6066 0.7275
C6 C 0.22946(15) 0.55390(5) 0.61933(14)
H10 H 0.1033 0.5504 0.6113
C7 C 0.28936(15) 0.48914(5) 0.83544(14)
H11 H 0.3056 0.5215 0.9027
H12 H 0.1690 0.4762 0.8191
C8 C 0.39430(15) 0.40148(5) 0.81793(14)
C9 C 0.44010(16) 0.35104(5) 0.88602(16)
H13 H 0.4814 0.3483 0.9938
C10 C 0.42553(16) 0.30482(5) 0.79682(16)
H14 H 0.4555 0.2705 0.8446
C11 C 0.36784(16) 0.30753(5) 0.63829(16)
C12 C 0.32523(15) 0.35925(5) 0.56881(15)
C13 C 0.33684(15) 0.40673(5) 0.65995(14)
C14 C 0.29557(14) 0.45918(5) 0.59088(14)
C15 C 0.24003(14) 0.46391(5) 0.43664(14)
C16 C 0.22947(14) 0.41647(5) 0.34264(14)
C17 C 0.27247(15) 0.36445(5) 0.40848(14)
C18 C 0.26044(16) 0.31766(5) 0.31393(16)
C19 C 0.30418(17) 0.26595(5) 0.38700(17)
H15 H 0.2985 0.2343 0.3259
C20 C 0.35316(17) 0.26105(5) 0.53994(16)
H16 H 0.3787 0.2259 0.5839
C21 C 0.20214(16) 0.32474(5) 0.15612(15)
H17 H 0.1943 0.2940 0.0913
C22 C 0.15550(16) 0.37541(6) 0.09197(15)
H18 H 0.1137 0.3791 -0.0155
C23 C 0.16985(15) 0.42079(5) 0.18491(14)
C24 C 0.21512(16) 0.51420(5) 0.21095(14)
H19 H 0.1757 0.5494 0.1605
H20 H 0.3402 0.5104 0.2199
loop_
_geom_bond_atom_site_label_1
_geom_bond_atom_site_label_2
_geom_bond_site_symmetry_1
_geom_bond_site_symmetry_2
O1 C7 1_555 1_555
O2 C23 1_555 1_555
N1 C6 1_555 1_555
N2 C1 1_555 1_555
C1 H1 1_555 1_555
C2 C1 1_555 1_555
H2 C2 1_555 1_555
H3 C2 1_555 1_555
C3 C2 1_555 1_555
H4 C3 1_555 1_555
H5 C3 1_555 1_555
C4 C3 1_555 1_555
H6 C4 1_555 1_555
H7 C4 1_555 1_555
C5 C4 1_555 1_555
H8 C5 1_555 1_555
H9 C5 1_555 1_555
C6 C1 1_555 1_555
H10 C6 1_555 1_555
C7 N1 1_555 1_555
H11 C7 1_555 1_555
H12 C7 1_555 1_555
C8 O1 1_555 1_555
C9 C8 1_555 1_555
H13 C9 1_555 1_555
C10 C9 1_555 1_555
H14 C10 1_555 1_555
C11 C10 1_555 1_555
C12 C11 1_555 1_555
C13 C8 1_555 1_555
C14 N1 1_555 1_555
C15 N2 1_555 1_555
C16 C15 1_555 1_555
C17 C12 1_555 1_555
C18 C17 1_555 1_555
C19 C18 1_555 1_555
H15 C19 1_555 1_555
C20 C11 1_555 1_555
H16 C20 1_555 1_555
C21 C18 1_555 1_555
H17 C21 1_555 1_555
C22 C21 1_555 1_555
H18 C22 1_555 1_555
C23 C16 1_555 1_555
C24 O2 1_555 1_555
H19 C24 1_555 1_555
H20 C24 1_555 1_555
N2 C24 1_555 1_555
C5 C6 1_555 1_555
C12 C13 1_555 1_555
C13 C14 1_555 1_555
C14 C15 1_555 1_555
C16 C17 1_555 1_555
C19 C20 1_555 1_555
C22 C23 1_555 1_555

#END
