
#######################################################################
#
#                 Cambridge Crystallographic Data Centre
#                                CCDC 
#
#######################################################################
#
# If this CIF has been generated from an entry in the Cambridge 
# Structural Database, then it will include bibliographic, chemical, 
# crystal, experimental, refinement or atomic coordinate data resulting 
# from the CCDC's data processing and validation procedures.
#
#######################################################################

data_FICZAT
_chemical_formula_moiety         'C9 H12 N2 O3'
_chemical_name_systematic        
3-(Imidazolidin-2-ylidene)-6-methyl-3,4,5,6-tetrahydro-2H-pyran-2,4-dione
_symmetry_cell_setting           monoclinic
_symmetry_space_group_name_H-M   'P 21/m'
_symmetry_Int_Tables_number      11
_space_group_name_Hall           '-P 2yb'
loop_
_symmetry_equiv_pos_site_id
_symmetry_equiv_pos_as_xyz
1 x,y,z
2 -x,1/2+y,-z
3 -x,-y,-z
4 x,1/2-y,z
_cell_length_a                   7.195(2)
_cell_length_b                   7.106(2)
_cell_length_c                   9.131(3)
_cell_angle_alpha                90
_cell_angle_beta                 92.866(5)
_cell_angle_gamma                90
_cell_volume                     466.263
_exptl_crystal_colour            colorless
_exptl_crystal_description       block
_chemical_melting_point          '448.5 K'
_cell_formula_units_Z            2
_exptl_crystal_recrystallization_method n-hexane/dichloromethane
loop_
_atom_site_label
_atom_site_type_symbol
_atom_site_fract_x
_atom_site_fract_y
_atom_site_fract_z
O1 O 0.4535(2) 0.7500 -0.02228(17)
O2 O 0.7217(2) 0.7500 0.09917(18)
O3 O 0.1694(2) 0.7500 0.3511(2)
N1 N 0.7472(3) 0.7500 0.3931(2)
H1 H 0.819(3) 0.7500 0.320(2)
N2 N 0.4916(3) 0.7500 0.5059(2)
H2 H 0.3710(14) 0.7500 0.503(3)
C1 C 0.1778(5) 0.728(6) -0.1748(4)
H3 H 0.0495 0.6900 -0.1795
H4 H 0.1871 0.8564 -0.2053
H5 H 0.2463 0.6491 -0.2385
C2 C 0.2568(4) 0.6922(5) -0.0199(4)
H6 H 0.2472 0.5615 0.0053
C3 C 0.1683(4) 0.8118(5) 0.0907(4)
H7 H 0.0362 0.7918 0.0891
H8 H 0.1922 0.5577 0.0721
C4 C 0.2617(3) 0.7500 0.2400(3)
C5 C 0.4574(3) 0.7500 0.2413(2)
C6 C 0.5525(3) 0.7500 0.1066(3)
C7 C 0.5646(3) 0.7500 0.3762(2)
C8 C 0.8119(4) 0.7500 0.5456(3)
H9 H 0.8846 0.8601 0.5696
C9 C 0.6320(4) 0.7500 0.6250(3)
H10 H 0.6222 0.8600 0.6851
C1C C 0.1778(5) 0.772(6) -0.1748(4)
H3C H 0.0495 0.8100 -0.1795
H4C H 0.1871 0.6436 -0.2053
H5C H 0.2463 0.8509 -0.2385
C2C C 0.2568(4) 0.8078(5) -0.0199(4)
H6C H 0.2472 0.9385 0.0053
C3C C 0.1683(4) 0.6882(5) 0.0907(4)
H7C H 0.0362 0.7082 0.0891
H8C H 0.1922 0.9423 0.0721
H9C H 0.8846 0.6399 0.5696
H10C H 0.6222 0.6400 0.6851
loop_
_geom_bond_atom_site_label_1
_geom_bond_atom_site_label_2
_geom_bond_site_symmetry_1
_geom_bond_site_symmetry_2
O1 C2 1_555 1_555
O2 C6 1_555 1_555
O3 C4 1_555 1_555
N1 H1 1_555 1_555
N2 H2 1_555 1_555
C1 H3 1_555 1_555
H3 C1C 1_555 1_555
H4 C1 1_555 1_555
H5 C1 1_555 1_555
C2 C1 1_555 1_555
H6 C2 1_555 1_555
C3 C2 1_555 1_555
H7 C3 1_555 1_555
H8 H6 1_555 1_555
C4 C3 1_555 1_555
C5 C4 1_555 1_555
C6 O1 1_555 1_555
C7 N1 1_555 1_555
C8 N1 1_555 1_555
H9 C8 1_555 1_555
C9 N2 1_555 1_555
H10 C9 1_555 1_555
C1C C1 1_555 1_555
H3C C1 1_555 1_555
H4C C1 1_555 1_555
H5C C1 1_555 1_555
C2C O1 1_555 1_555
H6C C2C 1_555 1_555
C3C C2 1_555 1_555
H7C C3 1_555 1_555
H8C C3 1_555 1_555
H9C C8 1_555 1_555
H10C C9 1_555 1_555
N2 C7 1_555 1_555
C1 C2C 1_555 1_555
H3 H3C 1_555 1_555
H4 C1C 1_555 1_555
H4 H5C 1_555 1_555
H5 C1C 1_555 1_555
H5 H4C 1_555 1_555
C2 C1C 1_555 1_555
C2 C2C 1_555 1_555
C3 C2C 1_555 1_555
C3 C3C 1_555 1_555
H7 C3C 1_555 1_555
H7 H7C 1_555 1_555
H8 C3C 1_555 1_555
C4 C3C 1_555 1_555
C5 C6 1_555 1_555
C5 C7 1_555 1_555
C8 C9 1_555 1_555
C1C H3C 1_555 1_555
C1C H4C 1_555 1_555
C1C H5C 1_555 1_555
C1C C2C 1_555 1_555
C2C C3C 1_555 1_555
H6C H8C 1_555 1_555
C3C H7C 1_555 1_555

#END
