
#######################################################################
#
#                 Cambridge Crystallographic Data Centre
#                                CCDC 
#
#######################################################################
#
# If this CIF has been generated from an entry in the Cambridge 
# Structural Database, then it will include bibliographic, chemical, 
# crystal, experimental, refinement or atomic coordinate data resulting 
# from the CCDC's data processing and validation procedures.
#
#######################################################################

data_FICZID
_chemical_formula_moiety         'C23 H13 Br1 O1'
_chemical_name_systematic        (2-bromophenyl)(pyren-1-yl)methanone
_symmetry_cell_setting           monoclinic
_symmetry_space_group_name_H-M   'P 21/c'
_symmetry_Int_Tables_number      14
_space_group_name_Hall           '-P 2ybc'
loop_
_symmetry_equiv_pos_site_id
_symmetry_equiv_pos_as_xyz
1 x,y,z
2 -x,1/2+y,1/2-z
3 -x,-y,-z
4 x,1/2-y,1/2+z
_cell_length_a                   9.7948(7)
_cell_length_b                   21.5595(13)
_cell_length_c                   7.9044(5)
_cell_angle_alpha                90
_cell_angle_beta                 104.573(7)
_cell_angle_gamma                90
_cell_volume                     1615.48
_exptl_crystal_colour            yellow
_exptl_crystal_description       block
_cell_formula_units_Z            4
loop_
_atom_site_label
_atom_site_type_symbol
_atom_site_fract_x
_atom_site_fract_y
_atom_site_fract_z
Br1 Br 0.44720(3) 0.412499(13) -0.07564(3)
O1 O 0.8396(2) 0.37511(7) 0.0619(2)
C1 C 0.5055(3) 0.33389(11) 0.0255(3)
C2 C 0.4090(3) 0.28536(13) -0.0012(3)
H1 H 0.3143 0.2919 -0.0655
C3 C 0.4523(3) 0.22767(13) 0.0665(4)
H2 H 0.3869 0.1943 0.0500
C4 C 0.5899(3) 0.21839(11) 0.1581(3)
H3 H 0.6195 0.1786 0.2047
C5 C 0.6848(3) 0.26652(10) 0.1825(3)
H4 H 0.7800 0.2594 0.2443
C6 C 0.6436(3) 0.32564(10) 0.1179(3)
C7 C 0.7508(3) 0.37696(10) 0.1458(3)
C8 C 0.7456(2) 0.42449(10) 0.2804(3)
C9 C 0.6692(3) 0.40936(10) 0.4025(3)
H5 H 0.6204 0.3709 0.3920
C10 C 0.6630(3) 0.44860(10) 0.5368(3)
H6 H 0.6117 0.4365 0.6186
C11 C 0.7305(3) 0.50586(10) 0.5553(3)
C12 C 0.8069(2) 0.52332(10) 0.4317(3)
C13 C 0.8149(2) 0.48251(10) 0.2926(3)
C14 C 0.8885(3) 0.50423(10) 0.1689(3)
H7 H 0.8949 0.4780 0.0746
C15 C 0.9490(3) 0.56089(11) 0.1825(3)
H8 H 0.9968 0.5735 0.0975
C16 C 0.9433(3) 0.60209(10) 0.3201(3)
C17 C 0.8706(2) 0.58302(9) 0.4454(3)
C18 C 0.8618(3) 0.62388(10) 0.5829(3)
C19 C 0.9228(3) 0.68277(10) 0.5893(3)
H9 H 0.9159 0.7106 0.6800
C20 C 0.9928(3) 0.70125(11) 0.4665(3)
H10 H 1.0339 0.7414 0.4735
C21 C 1.0033(3) 0.66131(10) 0.3330(3)
H11 H 1.0518 0.6743 0.2491
C22 C 0.7872(3) 0.60385(11) 0.7071(3)
H12 H 0.7820 0.6305 0.8010
C23 C 0.7245(3) 0.54796(11) 0.6934(3)
H13 H 0.6750 0.5361 0.7773
loop_
_geom_bond_atom_site_label_1
_geom_bond_atom_site_label_2
_geom_bond_site_symmetry_1
_geom_bond_site_symmetry_2
Br1 C1 1_555 1_555
O1 C7 1_555 1_555
C1 C2 1_555 1_555
C2 H1 1_555 1_555
C3 C2 1_555 1_555
H2 C3 1_555 1_555
C4 C3 1_555 1_555
H3 C4 1_555 1_555
C5 C4 1_555 1_555
H4 C5 1_555 1_555
C6 C1 1_555 1_555
C7 C6 1_555 1_555
C8 C7 1_555 1_555
C9 C8 1_555 1_555
H5 C9 1_555 1_555
C10 C9 1_555 1_555
H6 C10 1_555 1_555
C11 C10 1_555 1_555
C12 C11 1_555 1_555
C13 C8 1_555 1_555
C14 C13 1_555 1_555
H7 C14 1_555 1_555
C15 C14 1_555 1_555
H8 C15 1_555 1_555
C16 C15 1_555 1_555
C17 C12 1_555 1_555
C18 C17 1_555 1_555
C19 C18 1_555 1_555
H9 C19 1_555 1_555
C20 C19 1_555 1_555
H10 C20 1_555 1_555
C21 C16 1_555 1_555
H11 C21 1_555 1_555
C22 C18 1_555 1_555
H12 C22 1_555 1_555
C23 C11 1_555 1_555
H13 C23 1_555 1_555
C5 C6 1_555 1_555
C12 C13 1_555 1_555
C16 C17 1_555 1_555
C20 C21 1_555 1_555
C22 C23 1_555 1_555

#END
