
#######################################################################
#
#                 Cambridge Crystallographic Data Centre
#                                CCDC 
#
#######################################################################
#
# If this CIF has been generated from an entry in the Cambridge 
# Structural Database, then it will include bibliographic, chemical, 
# crystal, experimental, refinement or atomic coordinate data resulting 
# from the CCDC's data processing and validation procedures.
#
#######################################################################

data_FICZOJ
_chemical_formula_moiety         'C23 H13 I1 O1'
_chemical_name_systematic        (2-iodophenyl)(pyren-1-yl)methanone
_symmetry_cell_setting           monoclinic
_symmetry_space_group_name_H-M   'P 21/c'
_symmetry_Int_Tables_number      14
_space_group_name_Hall           '-P 2ybc'
loop_
_symmetry_equiv_pos_site_id
_symmetry_equiv_pos_as_xyz
1 x,y,z
2 -x,1/2+y,1/2-z
3 -x,-y,-z
4 x,1/2-y,1/2+z
_cell_length_a                   9.8713(5)
_cell_length_b                   21.9189(11)
_cell_length_c                   8.0295(4)
_cell_angle_alpha                90
_cell_angle_beta                 105.165(2)
_cell_angle_gamma                90
_cell_volume                     1676.83
_exptl_crystal_description       block
_cell_formula_units_Z            4
loop_
_atom_site_label
_atom_site_type_symbol
_atom_site_fract_x
_atom_site_fract_y
_atom_site_fract_z
C1 C 0.8647(4) 0.58266(16) 0.9334(5)
C2 C 0.8088(4) 0.52229(16) 0.9281(5)
C3 C 0.8235(3) 0.48061(16) 0.7955(5)
C4 C 0.7622(4) 0.42180(16) 0.7905(5)
C5 C 0.6885(4) 0.40702(17) 0.9135(5)
H1 H 0.6461 0.3679 0.9087
C6 C 0.6758(4) 0.44687(18) 1.0396(5)
H2 H 0.6262 0.4349 1.1209
C7 C 0.7350(4) 0.50506(17) 1.0499(5)
C8 C 0.7231(4) 0.54785(19) 1.1804(5)
H3 H 0.6758 0.5361 1.2643
C9 C 0.7776(4) 0.60427(18) 1.1862(5)
H4 H 0.7688 0.6315 1.2749
C10 C 0.8485(4) 0.62415(17) 1.0618(5)
C11 C 0.9015(4) 0.68356(18) 1.0613(5)
H5 H 0.8912 0.7117 1.1470
C12 C 0.9684(4) 0.70184(19) 0.9387(5)
H6 H 1.0034 0.7423 0.9408
C13 C 0.9847(4) 0.66138(17) 0.8125(6)
H7 H 1.0310 0.6743 0.7288
C14 C 0.9335(4) 0.60184(17) 0.8076(5)
C15 C 0.9452(4) 0.55940(18) 0.6782(6)
H8 H 0.9908 0.5717 0.5933
C16 C 0.8935(4) 0.50215(17) 0.6718(5)
H9 H 0.9040 0.4755 0.5828
C17 C 0.7729(4) 0.37407(16) 0.6635(5)
C18 C 0.5306(4) 0.32842(17) 0.5454(5)
C19 C 0.6696(4) 0.32212(16) 0.6374(5)
C20 C 0.7155(4) 0.26472(17) 0.7049(5)
H10 H 0.8107 0.2594 0.7677
C21 C 0.6247(5) 0.21559(18) 0.6816(5)
H11 H 0.6571 0.1768 0.7285
C22 C 0.4870(5) 0.22328(19) 0.5900(5)
H12 H 0.4241 0.1897 0.5752
C23 C 0.4393(4) 0.27890(19) 0.5198(5)
H13 H 0.3447 0.2835 0.4541
I1 I 0.45774(3) 0.412520(12) 0.43097(3)
O1 O 0.8629(3) 0.37255(12) 0.5844(4)
loop_
_geom_bond_atom_site_label_1
_geom_bond_atom_site_label_2
_geom_bond_site_symmetry_1
_geom_bond_site_symmetry_2
C1 C2 1_555 1_555
C2 C3 1_555 1_555
C3 C4 1_555 1_555
C4 C5 1_555 1_555
C5 H1 1_555 1_555
C6 C5 1_555 1_555
H2 C6 1_555 1_555
C7 C2 1_555 1_555
C8 C7 1_555 1_555
H3 C8 1_555 1_555
C9 C8 1_555 1_555
H4 C9 1_555 1_555
C10 C1 1_555 1_555
C11 C10 1_555 1_555
H5 C11 1_555 1_555
C12 C11 1_555 1_555
H6 C12 1_555 1_555
C13 C12 1_555 1_555
H7 C13 1_555 1_555
C14 C1 1_555 1_555
C15 C14 1_555 1_555
H8 C15 1_555 1_555
C16 C3 1_555 1_555
H9 C16 1_555 1_555
C17 C4 1_555 1_555
C18 C19 1_555 1_555
C19 C17 1_555 1_555
C20 C19 1_555 1_555
H10 C20 1_555 1_555
C21 C20 1_555 1_555
H11 C21 1_555 1_555
C22 C21 1_555 1_555
H12 C22 1_555 1_555
C23 C18 1_555 1_555
H13 C23 1_555 1_555
I1 C18 1_555 1_555
O1 C17 1_555 1_555
C6 C7 1_555 1_555
C9 C10 1_555 1_555
C13 C14 1_555 1_555
C15 C16 1_555 1_555
C22 C23 1_555 1_555

#END
