
#######################################################################
#
#                 Cambridge Crystallographic Data Centre
#                                CCDC 
#
#######################################################################
#
# If this CIF has been generated from an entry in the Cambridge 
# Structural Database, then it will include bibliographic, chemical, 
# crystal, experimental, refinement or atomic coordinate data resulting 
# from the CCDC's data processing and validation procedures.
#
#######################################################################

data_FIDCUT
_chemical_formula_moiety         'C23 H22 N2 O3 S1'
_chemical_name_systematic        
N-(1-benzyl-5-hydroxy-2,3-dihydroquinolin-4(1H)-ylidene)-4-methylbenzenesulfonamide
_symmetry_cell_setting           monoclinic
_symmetry_space_group_name_H-M   'P 21/n'
_symmetry_Int_Tables_number      14
_space_group_name_Hall           '-P 2yn'
loop_
_symmetry_equiv_pos_site_id
_symmetry_equiv_pos_as_xyz
1 x,y,z
2 1/2-x,1/2+y,1/2-z
3 -x,-y,-z
4 1/2+x,1/2-y,1/2+z
_cell_length_a                   11.1800(5)
_cell_length_b                   9.9005(4)
_cell_length_c                   18.8779(8)
_cell_angle_alpha                90
_cell_angle_beta                 103.160(2)
_cell_angle_gamma                90
_cell_volume                     2034.67
_exptl_crystal_colour            'pale orange'
_exptl_crystal_description       prism
_cell_formula_units_Z            4
loop_
_atom_site_label
_atom_site_type_symbol
_atom_site_fract_x
_atom_site_fract_y
_atom_site_fract_z
C1 C 0.28253(16) 0.16208(15) 0.15364(9)
C2 C 0.36085(17) 0.26023(16) 0.19114(10)
H1 H 0.3460 0.2990 0.2344
C3 C 0.46053(19) 0.30051(18) 0.16465(12)
H2 H 0.5151 0.3664 0.1907
C4 C 0.48285(19) 0.24722(19) 0.10103(13)
C5 C 0.5902(3) 0.2939(3) 0.07105(19)
H3 H 0.5906 0.2447 0.0260
H4 H 0.6670 0.2762 0.1068
H5 H 0.5827 0.3909 0.0608
C6 C 0.40218(19) 0.14970(19) 0.06391(11)
H6 H 0.4160 0.1126 0.0201
C7 C 0.30305(18) 0.10624(16) 0.08959(10)
H7 H 0.2493 0.0391 0.0641
C8 C 0.00440(15) 0.30216(15) 0.11829(9)
C9 C -0.08814(15) 0.34255(15) 0.05572(9)
C10 C -0.13774(15) 0.24907(15) -0.00156(9)
C11 C -0.21824(17) 0.29036(16) -0.06439(9)
H8 H -0.2496 0.2274 -0.1020
C12 C -0.25276(16) 0.42478(17) -0.07190(9)
H9 H -0.3094 0.4525 -0.1149
C13 C -0.20775(16) 0.52000(16) -0.01910(9)
H10 H -0.2333 0.6115 -0.0264
C14 C -0.12441(15) 0.48215(15) 0.04526(9)
C15 C -0.0279(2) 0.52499(19) 0.17129(10)
H11 H -0.0966 0.4937 0.1922
H12 H 0.0146 0.5993 0.2021
C16 C 0.06077(18) 0.41003(17) 0.17140(10)
H13 H 0.1360 0.4448 0.1584
H14 H 0.0846 0.3708 0.2209
C17 C -0.10077(17) 0.71913(16) 0.09024(11)
H15 H -0.1142 0.7430 0.0381
H16 H -0.0269 0.7685 0.1165
C18 C -0.21018(17) 0.76771(16) 0.11808(10)
C19 C -0.3085(2) 0.6851(2) 0.12102(13)
H17 H -0.3065 0.5927 0.1078
C20 C -0.4099(2) 0.7352(3) 0.14291(15)
H18 H -0.4768 0.6772 0.1447
C21 C -0.4140(3) 0.8685(3) 0.16202(15)
H19 H -0.4845 0.9036 0.1758
C22 C -0.3155(3) 0.9512(3) 0.16114(15)
H20 H -0.3172 1.0431 0.1753
C23 C -0.2139(2) 0.90080(19) 0.13966(12)
H21 H -0.1459 0.9583 0.1397
N1 N 0.03835(13) 0.17434(13) 0.12344(7)
N2 N -0.07625(14) 0.57483(13) 0.09802(8)
O1 O 0.16089(13) 0.16192(13) 0.25639(7)
O2 O 0.13910(13) -0.03324(11) 0.17411(7)
O3 O -0.10551(12) 0.11731(10) 0.00371(7)
H22 H -0.0462 0.1090 0.0513
S1 S 0.15303(4) 0.10985(4) 0.18455(2)
loop_
_geom_bond_atom_site_label_1
_geom_bond_atom_site_label_2
_geom_bond_site_symmetry_1
_geom_bond_site_symmetry_2
C1 C2 1_555 1_555
C2 H1 1_555 1_555
C3 C2 1_555 1_555
H2 C3 1_555 1_555
C4 C3 1_555 1_555
C5 C4 1_555 1_555
H3 C5 1_555 1_555
H4 C5 1_555 1_555
H5 C5 1_555 1_555
C6 C4 1_555 1_555
H6 C6 1_555 1_555
C7 C1 1_555 1_555
H7 C7 1_555 1_555
C8 C9 1_555 1_555
C9 C10 1_555 1_555
C10 C11 1_555 1_555
C11 H8 1_555 1_555
C12 C11 1_555 1_555
H9 C12 1_555 1_555
C13 C12 1_555 1_555
H10 C13 1_555 1_555
C14 C9 1_555 1_555
C15 H11 1_555 1_555
H12 C15 1_555 1_555
C16 C8 1_555 1_555
H13 C16 1_555 1_555
H14 C16 1_555 1_555
C17 H15 1_555 1_555
H16 C17 1_555 1_555
C18 C17 1_555 1_555
C19 C18 1_555 1_555
H17 C19 1_555 1_555
C20 C19 1_555 1_555
H18 C20 1_555 1_555
C21 C20 1_555 1_555
H19 C21 1_555 1_555
C22 C21 1_555 1_555
H20 C22 1_555 1_555
C23 C18 1_555 1_555
H21 C23 1_555 1_555
N1 C8 1_555 1_555
N2 C14 1_555 1_555
O1 S1 1_555 1_555
O2 S1 1_555 1_555
O3 C10 1_555 1_555
H22 O3 1_555 1_555
S1 C1 1_555 1_555
C6 C7 1_555 1_555
C13 C14 1_555 1_555
C15 C16 1_555 1_555
C15 N2 1_555 1_555
C17 N2 1_555 1_555
C22 C23 1_555 1_555
N1 S1 1_555 1_555

#END
