
#######################################################################
#
#                 Cambridge Crystallographic Data Centre
#                                CCDC 
#
#######################################################################
#
# If this CIF has been generated from an entry in the Cambridge 
# Structural Database, then it will include bibliographic, chemical, 
# crystal, experimental, refinement or atomic coordinate data resulting 
# from the CCDC's data processing and validation procedures.
#
#######################################################################

data_FIDDII
_chemical_formula_moiety         'C14 H16 Cl1 N3 O6 S1'
_chemical_name_systematic        
'ethyl 7-chloro-3-(2-ethoxy-1-hydrazinylidene-2-oxoethyl)-1,1-dioxo-2,3-dihydro-1H-1,2-benzothiazole-3-carboxylate'
_symmetry_cell_setting           triclinic
_symmetry_space_group_name_H-M   'P -1'
_symmetry_Int_Tables_number      2
_space_group_name_Hall           '-P 1'
loop_
_symmetry_equiv_pos_site_id
_symmetry_equiv_pos_as_xyz
1 x,y,z
2 -x,-y,-z
_cell_length_a                   7.8621(4)
_cell_length_b                   10.1290(5)
_cell_length_c                   12.5926(5)
_cell_angle_alpha                70.829(4)
_cell_angle_beta                 76.104(4)
_cell_angle_gamma                67.503(5)
_cell_volume                     867.552
_cell_formula_units_Z            2
loop_
_atom_site_label
_atom_site_type_symbol
_atom_site_fract_x
_atom_site_fract_y
_atom_site_fract_z
Cl1 Cl 1.34954(11) 0.38448(9) 0.35120(8)
S1 S 1.23215(9) 0.75436(8) 0.25246(6)
O1 O 1.3754(3) 0.7092(2) 0.16535(18)
O2 O 1.2846(3) 0.7696(3) 0.34734(18)
O3 O 0.7745(3) 1.2311(3) 0.3639(2)
O4 O 0.8091(3) 1.2085(2) 0.18830(18)
O5 O 0.8140(3) 0.9711(3) 0.06008(17)
O6 O 0.5827(2) 1.0244(2) 0.19931(17)
N1 N 1.0744(3) 0.9086(3) 0.1965(2)
H1 H 1.087(4) 0.924(3) 0.131(2)
N2 N 0.7812(4) 0.9288(3) 0.4426(2)
N3 N 0.7308(6) 0.9950(4) 0.5256(3)
H2 H 0.728(5) 1.091(5) 0.504(3)
H3 H 0.701(7) 0.948(6) 0.583(5)
C1 C 1.1209(4) 0.4996(3) 0.3458(2)
C2 C 1.0803(3) 0.6504(3) 0.3035(2)
C3 C 0.8981(3) 0.7463(3) 0.3020(2)
C4 C 0.7544(4) 0.6883(3) 0.3417(2)
H4 H 0.6315 0.7505 0.3416
C5 C 0.7967(4) 0.5370(3) 0.3815(3)
H5 H 0.7005 0.4977 0.4072
C6 C 0.9779(4) 0.4417(3) 0.3842(3)
H6 H 1.0030 0.3399 0.4117
C7 C 0.8841(3) 0.9099(3) 0.2507(2)
C8 C 0.8184(3) 0.9978(3) 0.3387(2)
C9 C 0.7996(4) 1.1558(3) 0.3006(3)
C10 C 0.7852(5) 1.3657(4) 0.1413(3)
H7 H 0.8773 1.3897 0.1638
H8 H 0.6626 1.4253 0.1683
C11 C 0.8091(7) 1.3947(5) 0.0153(4)
H9 H 0.8061 1.4951 -0.0196
H10 H 0.7103 1.3793 -0.0061
H11 H 0.9261 1.3283 -0.0093
C12 C 0.7581(4) 0.9739(3) 0.1573(2)
C13 C 0.4479(4) 1.0870(5) 0.1173(3)
H12 H 0.4975 1.1436 0.0467
H13 H 0.4264 1.0075 0.1017
C14 C 0.2789(6) 1.1797(5) 0.1616(4)
H14 H 0.1932 1.2226 0.1068
H15 H 0.3010 1.2571 0.1786
H16 H 0.2274 1.1224 0.2297
loop_
_geom_bond_atom_site_label_1
_geom_bond_atom_site_label_2
_geom_bond_site_symmetry_1
_geom_bond_site_symmetry_2
Cl1 C1 1_555 1_555
S1 O1 1_555 1_555
O2 S1 1_555 1_555
O3 C9 1_555 1_555
O4 C9 1_555 1_555
O5 C12 1_555 1_555
O6 C12 1_555 1_555
N1 S1 1_555 1_555
H1 N1 1_555 1_555
N2 N3 1_555 1_555
N3 H2 1_555 1_555
H3 N3 1_555 1_555
C1 C2 1_555 1_555
C2 S1 1_555 1_555
C3 C2 1_555 1_555
C4 C3 1_555 1_555
H4 C4 1_555 1_555
C5 C4 1_555 1_555
H5 C5 1_555 1_555
C6 C1 1_555 1_555
H6 C6 1_555 1_555
C7 N1 1_555 1_555
C8 N2 1_555 1_555
C9 C8 1_555 1_555
C10 O4 1_555 1_555
H7 C10 1_555 1_555
H8 C10 1_555 1_555
C11 C10 1_555 1_555
H9 C11 1_555 1_555
H10 C11 1_555 1_555
H11 C11 1_555 1_555
C12 C7 1_555 1_555
C13 O6 1_555 1_555
H12 C13 1_555 1_555
H13 C13 1_555 1_555
C14 C13 1_555 1_555
H14 C14 1_555 1_555
H15 C14 1_555 1_555
H16 C14 1_555 1_555
C3 C7 1_555 1_555
C5 C6 1_555 1_555
C7 C8 1_555 1_555

#END
