
#######################################################################
#
#                 Cambridge Crystallographic Data Centre
#                                CCDC 
#
#######################################################################
#
# If this CIF has been generated from an entry in the Cambridge 
# Structural Database, then it will include bibliographic, chemical, 
# crystal, experimental, refinement or atomic coordinate data resulting 
# from the CCDC's data processing and validation procedures.
#
#######################################################################

data_FIDHEI
_chemical_formula_moiety         'C25 H30 N2 O2'
_chemical_name_systematic        
'tricyclo[3.3.1.1^3,7^]decan-2-yl 3-(1H-benzimidazol-1-yl)-2-methylidenehept-6-enoate'
_symmetry_cell_setting           triclinic
_symmetry_space_group_name_H-M   'P 1'
_symmetry_Int_Tables_number      1
_space_group_name_Hall           'P 1'
loop_
_symmetry_equiv_pos_site_id
_symmetry_equiv_pos_as_xyz
1 x,y,z
_cell_length_a                   12.9562(4)
_cell_length_b                   13.0192(3)
_cell_length_c                   13.1364(4)
_cell_angle_alpha                104.328(2)
_cell_angle_beta                 99.204(3)
_cell_angle_gamma                104.534(3)
_cell_volume                     2019.12
_exptl_crystal_colour            colorless
_exptl_crystal_description       block
_cell_formula_units_Z            4
loop_
_atom_site_label
_atom_site_type_symbol
_atom_site_fract_x
_atom_site_fract_y
_atom_site_fract_z
O1 O 0.5755(5) 0.3399(6) 0.8724(5)
N1 N 0.2743(5) 0.0284(6) 0.6318(6)
O2 O 0.4875(5) 0.3569(6) 0.7182(5)
N2 N 0.2045(6) -0.1533(7) 0.6171(6)
C1 C 0.1264(7) -0.0984(8) 0.6361(7)
C2 C 0.1063(6) 0.0877(8) 0.6621(6)
H1 H 0.134766 0.162116 0.666582
C3 C 0.3557(7) 0.1340(8) 0.6410(7)
H2 H 0.316460 0.188355 0.635285
C4 C 0.7551(7) 0.4513(8) 0.8685(7)
H3 H 0.740085 0.418205 0.789963
C5 C 0.7445(6) 0.6247(9) 1.0574(7)
H4 H 0.708868 0.667251 1.020775
H5 H 0.757844 0.658503 1.134775
C6 C 0.8532(7) 0.6248(8) 1.0256(7)
H6 H 0.901494 0.701547 1.046714
C7 C 0.5007(7) 0.3004(8) 0.7772(7)
C8 C 0.4144(7) 0.1211(8) 0.5498(6)
H7 H 0.452225 0.066033 0.553119
H8 H 0.469334 0.191323 0.560235
C9 C 0.3366(7) 0.0855(8) 0.4365(7)
H9 H 0.378662 0.073196 0.382299
H10 H 0.281764 0.015347 0.426337
C10 C 0.6478(7) 0.4538(8) 0.9029(7)
H11 H 0.612504 0.497699 0.866624
C11 C 0.8347(7) 0.4365(8) 1.0501(7)
H12 H 0.870618 0.393465 1.087163
C12 C 0.2905(7) -0.0724(8) 0.6172(8)
H13 H 0.356773 -0.084081 0.607842
C13 C 0.8308(7) 0.5738(8) 0.9025(7)
H14 H 0.899480 0.575631 0.881420
H15 H 0.795529 0.616786 0.866078
C14 C 0.2799(7) 0.1673(10) 0.4182(7)
H16 H 0.231515 0.181653 0.461007
C15 C 0.4378(7) 0.1792(7) 0.7486(7)
C16 C 0.6708(7) 0.5040(8) 1.0249(7)
H17 H 0.601291 0.502919 1.045667
C17 C 0.4565(7) 0.1232(8) 0.8178(7)
H18 H 0.508189 0.159036 0.883212
H19 H 0.417998 0.048196 0.800860
C18 C 0.0009(8) 0.0437(9) 0.6722(8)
H20 H -0.042804 0.090150 0.684013
C19 C 0.1671(6) 0.0136(8) 0.6450(6)
C20 C 0.9088(7) 0.5573(8) 1.0827(7)
H21 H 0.923617 0.590038 1.160363
H22 H 0.978264 0.558864 1.063320
C21 C -0.0418(7) -0.0675(9) 0.6652(8)
H23 H -0.112596 -0.093224 0.673884
C22 C 0.8124(7) 0.3851(8) 0.9267(7)
H24 H 0.881195 0.385848 0.906094
H25 H 0.766467 0.308360 0.905620
C23 C 0.7258(7) 0.4357(8) 1.0814(7)
H26 H 0.677943 0.359743 1.060586
H27 H 0.738968 0.466762 1.159137
C24 C 0.0189(7) -0.1407(9) 0.6455(7)
H28 H -0.010674 -0.215681 0.638671
C25 C 0.2924(8) 0.2206(10) 0.3472(7)
H29 H 0.340033 0.208620 0.302796
H30 H 0.253550 0.270803 0.340829
O3 O 0.5746(5) 0.8402(6) 0.8730(5)
O4 O 0.4857(5) 0.8569(6) 0.7187(5)
N3 N 0.2745(6) 0.5289(7) 0.6328(6)
N4 N 0.2049(6) 0.3485(7) 0.6179(6)
C26 C 0.1681(7) 0.5150(8) 0.6459(6)
C27 C 0.6483(7) 0.9539(8) 0.9025(7)
H31 H 0.612787 0.998235 0.866895
C28 C 0.6693(7) 1.0019(8) 1.0247(7)
H32 H 0.599944 1.000810 1.045792
C29 C 0.2803(8) 0.6702(9) 0.4192(7)
H33 H 0.234452 0.687717 0.464031
C30 C 0.8354(7) 0.9372(8) 1.0485(8)
H34 H 0.871507 0.894037 1.085142
C31 C 0.1066(8) 0.5890(8) 0.6615(7)
H35 H 0.134772 0.663059 0.664328
C32 C 0.9098(7) 1.0554(9) 1.0809(7)
H36 H 0.978813 1.055964 1.060901
H37 H 0.925188 1.087911 1.158622
C33 C 0.4385(6) 0.6818(8) 0.7522(6)
C34 C 0.1262(7) 0.4020(8) 0.6372(7)
C35 C 0.5022(6) 0.8010(8) 0.7774(7)
C36 C 0.2891(8) 0.4257(8) 0.6148(7)
H38 H 0.353653 0.412226 0.601591
C37 C 0.7281(8) 0.9368(9) 1.0826(7)
H39 H 0.743359 0.970296 1.160242
H40 H 0.681346 0.860767 1.064810
C38 C 0.0195(8) 0.3586(8) 0.6451(7)
H41 H -0.009809 0.283360 0.637022
C39 C 0.3552(6) 0.6344(7) 0.6422(7)
H42 H 0.315212 0.688121 0.636339
C40 C 0.4138(7) 0.6204(8) 0.5467(7)
H43 H 0.468473 0.690503 0.556156
H44 H 0.451745 0.565371 0.549415
C41 C 0.7560(7) 0.9536(8) 0.8687(7)
H45 H 0.740711 0.920649 0.790202
C42 C 0.8536(7) 1.1250(8) 1.0232(7)
H46 H 0.901452 1.201914 1.044439
C43 C 0.3358(7) 0.5850(9) 0.4358(7)
H47 H 0.376511 0.571233 0.380645
H48 H 0.280167 0.515663 0.426815
C44 C 0.0012(7) 0.5462(8) 0.6726(7)
H49 H -0.042386 0.592712 0.685095
C45 C 0.4557(7) 0.6222(8) 0.8195(7)
H50 H 0.508768 0.655186 0.884234
H51 H 0.414487 0.547807 0.801439
C46 C 0.2925(8) 0.7222(9) 0.3443(8)
H52 H 0.337723 0.706506 0.298122
H53 H 0.255804 0.774057 0.338159
C47 C 0.8107(7) 0.8837(9) 0.9258(7)
H54 H 0.762044 0.808202 0.905767
H55 H 0.878217 0.881003 0.903762
C48 C 0.8307(7) 1.0729(8) 0.9008(7)
H56 H 0.795857 1.115733 0.863850
H57 H 0.899220 1.073714 0.879552
C49 C -0.0417(7) 0.4311(9) 0.6652(7)
H58 H -0.112259 0.404653 0.674156
C50 C 0.7446(7) 1.1222(8) 1.0559(7)
H59 H 0.708339 1.164865 1.020087
H60 H 0.758888 1.156119 1.133370
O5 O 0.5147(5) 1.0050(6) 0.2813(5)
O6 O 0.4253(5) 0.8658(6) 0.1289(5)
N5 N 0.7962(6) 0.6873(6) 0.3836(6)
N6 N 0.7272(6) 0.8263(7) 0.3693(6)
C51 C 0.3517(8) 0.9289(8) 0.0995(6)
H61 H 0.386948 1.008631 0.135478
C52 C 0.8327(6) 0.8585(8) 0.3566(6)
C53 C 0.8742(7) 0.7714(8) 0.3657(6)
C54 C 0.9832(7) 0.7778(8) 0.3557(7)
H62 H 1.012956 0.721087 0.362285
C55 C 0.6433(7) 0.8852(8) 0.3586(8)
H63 H 0.682274 0.962011 0.364029
C56 C 0.7097(7) 0.7248(8) 0.3849(7)
H64 H 0.643808 0.685239 0.395347
C57 C 0.1696(8) 0.9583(8) 0.0995(7)
H65 H 0.205327 1.036969 0.135997
H66 H 0.100881 0.936717 0.120735
C58 C 0.4991(7) 0.9125(9) 0.2243(7)
C59 C 0.5634(7) 0.8363(8) 0.2509(7)
C60 C 0.7211(7) 1.0706(10) 0.5839(7)
H67 H 0.769142 1.088301 0.540957
C61 C 1.0418(7) 0.8695(9) 0.3363(7)
H68 H 1.112496 0.874057 0.327589
C62 C 0.3289(7) 0.9045(9) -0.0264(6)
H69 H 0.398056 0.927931 -0.047674
C63 C 0.2442(7) 0.8901(8) 0.1325(6)
H70 H 0.258792 0.903278 0.210898
C64 C 0.5866(7) 0.8900(8) 0.4531(7)
H71 H 0.531754 0.927781 0.443422
H72 H 0.548621 0.814554 0.450162
C65 C 0.2741(8) 0.7819(8) -0.0801(7)
H73 H 0.322236 0.740776 -0.058657
H74 H 0.260522 0.766332 -0.157968
C66 C 0.8951(7) 0.9555(8) 0.3386(7)
H75 H 0.866635 1.013462 0.333956
C67 C 1.0002(7) 0.9597(8) 0.3284(7)
H76 H 1.044293 1.021713 0.316233
C68 C 0.5459(7) 0.7366(9) 0.1826(7)
H77 H 0.585283 0.690136 0.200203
H78 H 0.494351 0.712943 0.117014
C69 C 0.2552(8) 0.9719(8) -0.0556(7)
H79 H 0.291579 1.050212 -0.018002
H80 H 0.241884 0.962013 -0.132662
C70 C 0.1469(7) 0.9362(8) -0.0252(7)
H81 H 0.098881 0.978118 -0.047462
C71 C 0.0926(8) 0.8119(9) -0.0806(7)
H82 H 0.077378 0.797556 -0.158409
H83 H 0.023280 0.788551 -0.060984
C72 C 0.6634(8) 0.9488(9) 0.5652(7)
H84 H 0.621237 0.942303 0.619318
H85 H 0.718233 0.911083 0.575250
C73 C 0.1658(8) 0.7443(8) -0.0482(7)
H86 H 0.129671 0.664694 -0.084491
C74 C 0.1896(7) 0.7678(9) 0.0752(7)
H87 H 0.121344 0.743531 0.096400
H88 H 0.236874 0.725933 0.096588
C75 C 0.7084(9) 1.1525(9) 0.6557(9)
O7 O 0.4260(5) 0.3666(6) 0.1278(5)
O8 O 0.5132(5) 0.5041(6) 0.2834(5)
N7 N 0.7252(6) 0.3255(7) 0.3682(5)
N8 N 0.7957(6) 0.1867(7) 0.3838(6)
C76 C 0.4988(6) 0.4125(8) 0.2239(7)
C77 C 0.5610(7) 0.3356(8) 0.2497(7)
C78 C 0.8325(7) 0.3583(8) 0.3544(7)
C79 C 0.8937(7) 0.4540(8) 0.3397(7)
H89 H 0.866027 0.512872 0.336937
C80 C 0.9989(7) 0.4573(9) 0.3294(7)
H90 H 1.042507 0.519805 0.317642
C81 C 0.2565(6) 0.4739(8) -0.0563(7)
H91 H 0.292211 0.552938 -0.021661
H92 H 0.241936 0.460246 -0.134032
C82 C 0.1648(7) 0.2456(8) -0.0483(7)
H93 H 0.128561 0.166178 -0.085557
C83 C 0.2458(7) 0.3904(8) 0.1315(7)
H94 H 0.261570 0.404103 0.209989
C84 C 0.0900(7) 0.3121(8) -0.0804(7)
H95 H 0.020867 0.288516 -0.060638
H96 H 0.074957 0.299192 -0.158015
C85 C 0.8749(8) 0.2700(8) 0.3638(7)
C86 C 0.1474(7) 0.4366(8) -0.0217(7)
H97 H 0.099460 0.479431 -0.041796
C87 C 0.1882(7) 0.2651(8) 0.0749(7)
H98 H 0.234971 0.222189 0.095165
H99 H 0.120087 0.241669 0.096559
C88 C 0.5865(6) 0.3908(8) 0.4527(6)
H100 H 0.548137 0.315392 0.449641
H101 H 0.532209 0.429164 0.442789
C89 C 0.7108(7) 0.2238(8) 0.3855(8)
H102 H 0.645808 0.184200 0.397530
C90 C 0.9794(8) 0.2773(8) 0.3568(7)
H103 H 1.009048 0.221103 0.365673
C91 C 0.3537(7) 0.4291(8) 0.0978(7)
H104 H 0.389056 0.508865 0.133874
C92 C 0.3320(7) 0.4064(8) -0.0218(7)
H105 H 0.401580 0.429205 -0.042617
C93 C 0.6462(6) 0.3869(8) 0.3602(6)
H106 H 0.686117 0.463420 0.365574
C94 C 0.1708(7) 0.4577(8) 0.1007(7)
H107 H 0.102646 0.435426 0.122570
H108 H 0.206337 0.536395 0.137452
C95 C 0.6655(7) 0.4501(8) 0.5650(6)
H109 H 0.624701 0.444016 0.620147
H110 H 0.720794 0.412738 0.574052
C96 C 0.7075(8) 0.6533(10) 0.6555(8)
H111 H 0.661423 0.638178 0.700971
H112 H 0.744431 0.726552 0.661780
C97 C 0.5437(7) 0.2361(8) 0.1828(8)
H113 H 0.491696 0.211626 0.117382
H114 H 0.583416 0.190157 0.200873
C98 C 0.7208(7) 0.5695(9) 0.5810(7)
H115 H 0.767385 0.587197 0.536782
C99 C 1.0423(7) 0.3714(8) 0.3358(8)
H116 H 1.112730 0.375967 0.326324
C100 C 0.2736(7) 0.2821(9) -0.0810(7)
H117 H 0.259608 0.269456 -0.158519
H118 H 0.320203 0.238393 -0.062382
loop_
_geom_bond_atom_site_label_1
_geom_bond_atom_site_label_2
_geom_bond_site_symmetry_1
_geom_bond_site_symmetry_2
O1 C7 1_555 1_555
N1 C3 1_555 1_555
O2 C7 1_555 1_555
N2 C1 1_555 1_555
C1 C19 1_555 1_555
C2 H1 1_555 1_555
C3 H2 1_555 1_555
C4 H3 1_555 1_555
C5 H4 1_555 1_555
H5 C5 1_555 1_555
C6 C5 1_555 1_555
H6 C6 1_555 1_555
C7 C15 1_555 1_555
C8 C3 1_555 1_555
H7 C8 1_555 1_555
H8 C8 1_555 1_555
C9 C8 1_555 1_555
H9 C9 1_555 1_555
H10 C9 1_555 1_555
C10 O1 1_555 1_555
H11 C10 1_555 1_555
C11 H12 1_555 1_555
C12 N1 1_555 1_555
H13 C12 1_555 1_555
C13 C4 1_555 1_555
H14 C13 1_555 1_555
H15 C13 1_555 1_555
C14 C9 1_555 1_555
H16 C14 1_555 1_555
C15 C3 1_555 1_555
C16 C5 1_555 1_555
H17 C16 1_555 1_555
C17 C15 1_555 1_555
H18 C17 1_555 1_555
H19 C17 1_555 1_555
C18 C2 1_555 1_555
H20 C18 1_555 1_555
C19 N1 1_555 1_555
C20 C6 1_555 1_555
H21 C20 1_555 1_555
H22 C20 1_555 1_555
C21 C18 1_555 1_555
H23 C21 1_555 1_555
C22 C4 1_555 1_555
H24 C22 1_555 1_555
H25 C22 1_555 1_555
C23 C11 1_555 1_555
H26 C23 1_555 1_555
H27 C23 1_555 1_555
C24 C1 1_555 1_555
H28 C24 1_555 1_555
C25 C14 1_555 1_555
H29 C25 1_555 1_555
H30 C25 1_555 1_555
O3 C27 1_555 1_555
O4 C35 1_555 1_555
N3 C26 1_555 1_555
N4 C34 1_555 1_555
C26 C31 1_555 1_555
C27 H31 1_555 1_555
C28 C27 1_555 1_555
H32 C28 1_555 1_555
C29 H33 1_555 1_555
C30 H34 1_555 1_555
C31 H35 1_555 1_555
C32 C30 1_555 1_555
H36 C32 1_555 1_555
H37 C32 1_555 1_555
C33 C35 1_555 1_555
C34 C26 1_555 1_555
C35 O3 1_555 1_555
C36 N3 1_555 1_555
H38 C36 1_555 1_555
C37 C28 1_555 1_555
H39 C37 1_555 1_555
H40 C37 1_555 1_555
C38 C34 1_555 1_555
H41 C38 1_555 1_555
C39 N3 1_555 1_555
H42 C39 1_555 1_555
C40 C39 1_555 1_555
H43 C40 1_555 1_555
H44 C40 1_555 1_555
C41 C27 1_555 1_555
H45 C41 1_555 1_555
C42 C32 1_555 1_555
H46 C42 1_555 1_555
C43 C29 1_555 1_555
H47 C43 1_555 1_555
H48 C43 1_555 1_555
C44 C31 1_555 1_555
H49 C44 1_555 1_555
C45 C33 1_555 1_555
H50 C45 1_555 1_555
H51 C45 1_555 1_555
C46 C29 1_555 1_555
H52 C46 1_555 1_555
H53 C46 1_555 1_555
C47 C30 1_555 1_555
H54 C47 1_555 1_555
H55 C47 1_555 1_555
C48 C41 1_555 1_555
H56 C48 1_555 1_555
H57 C48 1_555 1_555
C49 C38 1_555 1_555
H58 C49 1_555 1_555
C50 C28 1_555 1_555
H59 C50 1_555 1_555
H60 C50 1_555 1_555
O5 C58 1_555 1_555
O6 C51 1_555 1_555
N5 C53 1_555 1_555
N6 C52 1_555 1_555
C51 H61 1_555 1_555
C52 C53 1_555 1_555
C53 C54 1_555 1_555
C54 H62 1_555 1_555
C55 N6 1_555 1_555
H63 C55 1_555 1_555
C56 N5 1_555 1_555
H64 C56 1_555 1_555
C57 H65 1_555 1_555
H66 C57 1_555 1_555
C58 O6 1_555 1_555
C59 C55 1_555 1_555
C60 H67 1_555 1_555
C61 C54 1_555 1_555
H68 C61 1_555 1_555
C62 C51 1_555 1_555
H69 C62 1_555 1_555
C63 C51 1_555 1_555
H70 C63 1_555 1_555
C64 C55 1_555 1_555
H71 C64 1_555 1_555
H72 C64 1_555 1_555
C65 C62 1_555 1_555
H73 C65 1_555 1_555
H74 C65 1_555 1_555
C66 C52 1_555 1_555
H75 C66 1_555 1_555
C67 C61 1_555 1_555
H76 C67 1_555 1_555
C68 C59 1_555 1_555
H77 C68 1_555 1_555
H78 C68 1_555 1_555
C69 C62 1_555 1_555
H79 C69 1_555 1_555
H80 C69 1_555 1_555
C70 C57 1_555 1_555
H81 C70 1_555 1_555
C71 C70 1_555 1_555
H82 C71 1_555 1_555
H83 C71 1_555 1_555
C72 C60 1_555 1_555
H84 C72 1_555 1_555
H85 C72 1_555 1_555
C73 C65 1_555 1_555
H86 C73 1_555 1_555
C74 C63 1_555 1_555
H87 C74 1_555 1_555
H88 C74 1_555 1_555
C75 C60 1_555 1_555
O7 C76 1_555 1_555
O8 C76 1_555 1_555
N7 C78 1_555 1_555
N8 C85 1_555 1_555
C76 C77 1_555 1_555
C77 C93 1_555 1_555
C78 C79 1_555 1_555
C79 H89 1_555 1_555
C80 C79 1_555 1_555
H90 C80 1_555 1_555
C81 H91 1_555 1_555
H92 C81 1_555 1_555
C82 H93 1_555 1_555
C83 H94 1_555 1_555
C84 C82 1_555 1_555
H95 C84 1_555 1_555
H96 C84 1_555 1_555
C85 C78 1_555 1_555
C86 C81 1_555 1_555
H97 C86 1_555 1_555
C87 C82 1_555 1_555
H98 C87 1_555 1_555
H99 C87 1_555 1_555
C88 H100 1_555 1_555
H101 C88 1_555 1_555
C89 N7 1_555 1_555
H102 C89 1_555 1_555
C90 C85 1_555 1_555
H103 C90 1_555 1_555
C91 O7 1_555 1_555
H104 C91 1_555 1_555
C92 C81 1_555 1_555
H105 C92 1_555 1_555
C93 N7 1_555 1_555
H106 C93 1_555 1_555
C94 C83 1_555 1_555
H107 C94 1_555 1_555
H108 C94 1_555 1_555
C95 C88 1_555 1_555
H109 C95 1_555 1_555
H110 C95 1_555 1_555
C96 H111 1_555 1_555
H112 C96 1_555 1_555
C97 C77 1_555 1_555
H113 C97 1_555 1_555
H114 C97 1_555 1_555
C98 C95 1_555 1_555
H115 C98 1_555 1_555
C99 C80 1_555 1_555
H116 C99 1_555 1_555
C100 C82 1_555 1_555
H117 C100 1_555 1_555
H118 C100 1_555 1_555
N2 C12 1_555 1_555
C2 C19 1_555 1_555
C4 C10 1_555 1_555
C6 C13 1_555 1_555
C10 C16 1_555 1_555
C11 C20 1_555 1_555
C11 C22 1_555 1_555
C16 C23 1_555 1_555
C21 C24 1_555 1_555
N4 C36 1_555 1_555
C30 C37 1_555 1_555
C33 C39 1_555 1_555
C40 C43 1_555 1_555
C41 C47 1_555 1_555
C42 C48 1_555 1_555
C42 C50 1_555 1_555
C44 C49 1_555 1_555
N6 C56 1_555 1_555
C57 C63 1_555 1_555
C58 C59 1_555 1_555
C64 C72 1_555 1_555
C66 C67 1_555 1_555
C69 C70 1_555 1_555
C71 C73 1_555 1_555
C73 C74 1_555 1_555
N8 C89 1_555 1_555
C83 C87 1_555 1_555
C83 C91 1_555 1_555
C84 C86 1_555 1_555
C86 C94 1_555 1_555
C88 C93 1_555 1_555
C90 C99 1_555 1_555
C91 C92 1_555 1_555
C92 C100 1_555 1_555
C96 C98 1_555 1_555

#END
