
#######################################################################
#
#                 Cambridge Crystallographic Data Centre
#                                CCDC 
#
#######################################################################
#
# If this CIF has been generated from an entry in the Cambridge 
# Structural Database, then it will include bibliographic, chemical, 
# crystal, experimental, refinement or atomic coordinate data resulting 
# from the CCDC's data processing and validation procedures.
#
#######################################################################

data_FIDKOU
_chemical_formula_moiety         'C30 H26 Cl1 N3 O5'
_chemical_name_systematic        
"3'-Ethyl 5'-methyl 2'-amino-1-benzyl-1'-(4-chlorophenyl)-2-oxo-1,2-dihydro-1'H-spiro[indole-3,4'-pyridine]-3',5'-dicarboxylate"
_symmetry_cell_setting           monoclinic
_symmetry_space_group_name_H-M   'P 21/c'
_symmetry_Int_Tables_number      14
_space_group_name_Hall           '-P 2ybc'
loop_
_symmetry_equiv_pos_site_id
_symmetry_equiv_pos_as_xyz
1 x,y,z
2 -x,1/2+y,1/2-z
3 -x,-y,-z
4 x,1/2-y,1/2+z
_cell_length_a                   30.196(4)
_cell_length_b                   9.4295(14)
_cell_length_c                   19.759(3)
_cell_angle_alpha                90
_cell_angle_beta                 99.215(2)
_cell_angle_gamma                90
_cell_volume                     5553.44
_cell_formula_units_Z            8
loop_
_atom_site_label
_atom_site_type_symbol
_atom_site_fract_x
_atom_site_fract_y
_atom_site_fract_z
C1 C 0.14793(9) 0.9586(4) 0.18550(16)
H1 H 0.1547 1.0191 0.2229
C2 C 0.10370(10) 0.9452(4) 0.15166(17)
H2 H 0.0807 0.9961 0.1666
C3 C 0.09468(8) 0.8574(3) 0.09692(15)
C4 C 0.12756(8) 0.7815(3) 0.07334(15)
H3 H 0.1207 0.7228 0.0353
C5 C 0.17156(8) 0.7935(3) 0.10722(15)
H4 H 0.1943 0.7417 0.0920
C6 C 0.18140(8) 0.8810(3) 0.16270(14)
C7 C 0.23187(8) 0.8188(3) 0.26503(14)
H5 H 0.2062 0.7956 0.2831
C8 C 0.27156(7) 0.7879(3) 0.30282(12)
C9 C 0.27195(8) 0.7188(3) 0.36944(13)
C10 C 0.22774(12) 0.6349(4) 0.44936(18)
H6 H 0.2420 0.5442 0.4480
H7 H 0.1967 0.6215 0.4528
H8 H 0.2422 0.6873 0.4884
C11 C 0.31578(7) 0.8157(3) 0.27750(12)
C12 C 0.30642(7) 0.8948(3) 0.20828(12)
C13 C 0.26380(8) 0.9251(3) 0.17415(13)
C14 C 0.34385(8) 0.9411(3) 0.17685(14)
C15 C 0.42410(9) 0.9494(5) 0.19238(19)
H9 H 0.4195 0.9742 0.1441
H10 H 0.4481 0.8799 0.2006
C16 C 0.43703(15) 1.0779(7) 0.2344(3)
H11 H 0.4129 1.1454 0.2272
H12 H 0.4634 1.1192 0.2210
H13 H 0.4431 1.0523 0.2820
C17 C 0.34003(7) 0.6716(3) 0.27100(12)
C18 C 0.38627(7) 0.8012(3) 0.35168(12)
C19 C 0.42279(9) 0.8443(3) 0.39841(14)
H14 H 0.4471 0.7844 0.4115
C20 C 0.42193(10) 0.9807(4) 0.42526(15)
H15 H 0.4459 1.0121 0.4573
C21 C 0.38628(11) 1.0694(4) 0.40504(16)
H16 H 0.3866 1.1605 0.4231
C22 C 0.34976(10) 1.0256(3) 0.35806(14)
H17 H 0.3256 1.0862 0.3448
C23 C 0.34980(8) 0.8909(3) 0.33142(12)
C24 C 0.41270(9) 0.5591(3) 0.31862(14)
H18 H 0.4399 0.5988 0.3060
H19 H 0.4015 0.4886 0.2844
C25 C 0.42466(8) 0.4852(3) 0.38755(13)
C26 C 0.39712(10) 0.4877(3) 0.43662(14)
H20 H 0.3700 0.5366 0.4282
C27 C 0.40941(11) 0.4176(3) 0.49892(15)
H21 H 0.3906 0.4201 0.5318
C28 C 0.44932(11) 0.3447(3) 0.51188(16)
H22 H 0.4577 0.2982 0.5535
C29 C 0.47644(10) 0.3414(3) 0.46294(17)
H23 H 0.5034 0.2917 0.4712
C30 C 0.46440(9) 0.4107(3) 0.40141(16)
H24 H 0.4834 0.4073 0.3687
Cl1 Cl 0.03958(2) 0.83857(11) 0.05580(5)
N1 N 0.22622(6) 0.8817(3) 0.20202(11)
N2 N 0.25535(7) 0.9961(3) 0.11527(11)
H25 H 0.2772 1.0264 0.0960
H26 H 0.2281 1.0117 0.0965
N3 N 0.37955(6) 0.6714(2) 0.31658(10)
O1 O 0.30446(7) 0.6718(3) 0.40486(10)
O2 O 0.23132(6) 0.7123(3) 0.38770(11)
O3 O 0.34261(6) 1.0175(2) 0.12639(10)
O4 O 0.38348(5) 0.8892(2) 0.20962(10)
O5 O 0.32674(6) 0.5746(2) 0.23284(9)
C31 C 0.33336(10) 0.6080(4) 1.05023(16)
H27 H 0.3141 0.6744 1.0263
C32 C 0.37791(11) 0.6418(4) 1.07262(18)
H28 H 0.3888 0.7311 1.0639
C33 C 0.40526(9) 0.5446(4) 1.10697(16)
C34 C 0.39050(10) 0.4136(4) 1.12063(18)
H29 H 0.4101 0.3483 1.1447
C35 C 0.34612(10) 0.3776(3) 1.09845(16)
H30 H 0.3357 0.2877 1.1071
C36 C 0.31777(8) 0.4759(3) 1.06354(13)
C37 C 0.26462(8) 0.3706(3) 0.97356(14)
H31 H 0.2888 0.3601 0.9503
C38 C 0.22447(8) 0.3205(3) 0.94317(13)
C39 C 0.22099(9) 0.2550(4) 0.87508(15)
C40 C 0.25811(13) 0.1880(5) 0.78334(19)
H32 H 0.2386 0.1070 0.7792
H33 H 0.2878 0.1586 0.7783
H34 H 0.2473 0.2555 0.7482
C41 C 0.18274(7) 0.3333(3) 0.97624(12)
C42 C 0.19500(7) 0.3975(3) 1.04857(12)
C43 C 0.23763(8) 0.4462(3) 1.07458(12)
C44 C 0.16115(8) 0.4061(3) 1.09232(14)
C45 C 0.08588(9) 0.3645(6) 1.10278(18)
H35 H 0.0884 0.4524 1.1285
H36 H 0.0883 0.2862 1.1350
C46 C 0.04113(11) 0.3585(9) 1.0558(2)
H37 H 0.0424 0.4159 1.0160
H38 H 0.0181 0.3937 1.0797
H39 H 0.0346 0.2622 1.0420
C47 C 0.16063(7) 0.1854(3) 0.98078(12)
C48 C 0.11015(8) 0.3193(3) 0.90937(12)
C49 C 0.07158(9) 0.3622(3) 0.86663(15)
H40 H 0.0481 0.2995 0.8529
C50 C 0.06930(12) 0.5020(4) 0.84505(18)
H41 H 0.0437 0.5345 0.8168
C51 C 0.10478(13) 0.5942(4) 0.86499(17)
H42 H 0.1026 0.6875 0.8496
C52 C 0.14369(11) 0.5496(3) 0.90769(15)
H43 H 0.1675 0.6116 0.9207
C53 C 0.14577(8) 0.4116(3) 0.92989(12)
C54 C 0.08852(8) 0.0679(3) 0.93613(13)
H44 H 0.0616 0.1025 0.9516
H45 H 0.1015 -0.0041 0.9684
C55 C 0.07515(8) -0.0013(3) 0.86626(13)
C56 C 0.10291(10) -0.0039(3) 0.81743(14)
H46 H 0.1304 0.0425 0.8257
C57 C 0.09015(11) -0.0754(3) 0.75597(15)
H47 H 0.1094 -0.0784 0.7237
C58 C 0.04928(11) -0.1414(3) 0.74261(16)
H48 H 0.0406 -0.1877 0.7011
C59 C 0.02136(10) -0.1389(4) 0.79043(17)
H49 H -0.0064 -0.1839 0.7816
C60 C 0.03426(9) -0.0694(3) 0.85198(15)
H50 H 0.0151 -0.0686 0.8844
Cl2 Cl 0.46211(3) 0.58229(17) 1.13410(7)
N4 N 0.27222(7) 0.4358(3) 1.03634(11)
N5 N 0.24866(7) 0.5070(3) 1.13668(11)
H51 H 0.2287 0.5174 1.1628
H52 H 0.2757 0.5354 1.1502
N6 N 0.12022(6) 0.1848(2) 0.93816(10)
O6 O 0.18824(8) 0.2066(4) 0.84360(13)
O7 O 0.25904(7) 0.2526(3) 0.85008(12)
O8 O 0.16559(6) 0.4548(2) 1.15068(10)
O9 O 0.12105(6) 0.3558(2) 1.06174(10)
O10 O 0.17624(6) 0.0862(2) 1.01636(9)
loop_
_geom_bond_atom_site_label_1
_geom_bond_atom_site_label_2
_geom_bond_site_symmetry_1
_geom_bond_site_symmetry_2
C1 H1 1_555 1_555
C2 C1 1_555 1_555
H2 C2 1_555 1_555
C3 C2 1_555 1_555
C4 C3 1_555 1_555
H3 C4 1_555 1_555
C5 C4 1_555 1_555
H4 C5 1_555 1_555
C6 C1 1_555 1_555
C7 H5 1_555 1_555
C8 C7 1_555 1_555
C9 C8 1_555 1_555
C10 H6 1_555 1_555
H7 C10 1_555 1_555
H8 C10 1_555 1_555
C11 C8 1_555 1_555
C12 C11 1_555 1_555
C13 C12 1_555 1_555
C14 C12 1_555 1_555
C15 H9 1_555 1_555
H10 C15 1_555 1_555
C16 C15 1_555 1_555
H11 C16 1_555 1_555
H12 C16 1_555 1_555
H13 C16 1_555 1_555
C17 C11 1_555 1_555
C18 C19 1_555 1_555
C19 H14 1_555 1_555
C20 C19 1_555 1_555
H15 C20 1_555 1_555
C21 C20 1_555 1_555
H16 C21 1_555 1_555
C22 C21 1_555 1_555
H17 C22 1_555 1_555
C23 C11 1_555 1_555
C24 H18 1_555 1_555
H19 C24 1_555 1_555
C25 C24 1_555 1_555
C26 C25 1_555 1_555
H20 C26 1_555 1_555
C27 C26 1_555 1_555
H21 C27 1_555 1_555
C28 C27 1_555 1_555
H22 C28 1_555 1_555
C29 C28 1_555 1_555
H23 C29 1_555 1_555
C30 C25 1_555 1_555
H24 C30 1_555 1_555
Cl1 C3 1_555 1_555
N1 C6 1_555 1_555
N2 C13 1_555 1_555
H25 N2 1_555 1_555
H26 N2 1_555 1_555
N3 C17 1_555 1_555
O1 C9 1_555 1_555
O2 C9 1_555 1_555
O3 C14 1_555 1_555
O4 C14 1_555 1_555
O5 C17 1_555 1_555
C31 H27 1_555 1_555
C32 C31 1_555 1_555
H28 C32 1_555 1_555
C33 C32 1_555 1_555
C34 C33 1_555 1_555
H29 C34 1_555 1_555
C35 C34 1_555 1_555
H30 C35 1_555 1_555
C36 C31 1_555 1_555
C37 H31 1_555 1_555
C38 C37 1_555 1_555
C39 C38 1_555 1_555
C40 H32 1_555 1_555
H33 C40 1_555 1_555
H34 C40 1_555 1_555
C41 C38 1_555 1_555
C42 C41 1_555 1_555
C43 C42 1_555 1_555
C44 C42 1_555 1_555
C45 H35 1_555 1_555
H36 C45 1_555 1_555
C46 C45 1_555 1_555
H37 C46 1_555 1_555
H38 C46 1_555 1_555
H39 C46 1_555 1_555
C47 C41 1_555 1_555
C48 C49 1_555 1_555
C49 H40 1_555 1_555
C50 C49 1_555 1_555
H41 C50 1_555 1_555
C51 C50 1_555 1_555
H42 C51 1_555 1_555
C52 C51 1_555 1_555
H43 C52 1_555 1_555
C53 C41 1_555 1_555
C54 H44 1_555 1_555
H45 C54 1_555 1_555
C55 C54 1_555 1_555
C56 C55 1_555 1_555
H46 C56 1_555 1_555
C57 C56 1_555 1_555
H47 C57 1_555 1_555
C58 C57 1_555 1_555
H48 C58 1_555 1_555
C59 C58 1_555 1_555
H49 C59 1_555 1_555
C60 C55 1_555 1_555
H50 C60 1_555 1_555
Cl2 C33 1_555 1_555
N4 C36 1_555 1_555
N5 C43 1_555 1_555
H51 N5 1_555 1_555
H52 N5 1_555 1_555
N6 C47 1_555 1_555
O6 C39 1_555 1_555
O7 C39 1_555 1_555
O8 C44 1_555 1_555
O9 C44 1_555 1_555
O10 C47 1_555 1_555
C5 C6 1_555 1_555
C7 N1 1_555 1_555
C10 O2 1_555 1_555
C13 N1 1_555 1_555
C15 O4 1_555 1_555
C18 C23 1_555 1_555
C18 N3 1_555 1_555
C22 C23 1_555 1_555
C24 N3 1_555 1_555
C29 C30 1_555 1_555
C35 C36 1_555 1_555
C37 N4 1_555 1_555
C40 O7 1_555 1_555
C43 N4 1_555 1_555
C45 O9 1_555 1_555
C48 C53 1_555 1_555
C48 N6 1_555 1_555
C52 C53 1_555 1_555
C54 N6 1_555 1_555
C59 C60 1_555 1_555

#END
