
#######################################################################
#
#                 Cambridge Crystallographic Data Centre
#                                CCDC 
#
#######################################################################
#
# If this CIF has been generated from an entry in the Cambridge 
# Structural Database, then it will include bibliographic, chemical, 
# crystal, experimental, refinement or atomic coordinate data resulting 
# from the CCDC's data processing and validation procedures.
#
#######################################################################

data_FIDLOU
_chemical_formula_moiety         'C13 H14 N2,C12 H10 O2 S1'
_chemical_name_systematic        
'4-(4-Aminobenzyl)aniline 4-(4-hydroxyphenylsulfanyl)phenol'
_symmetry_cell_setting           monoclinic
_symmetry_space_group_name_H-M   'P 21/n'
_symmetry_Int_Tables_number      14
_space_group_name_Hall           '-P 2yn'
loop_
_symmetry_equiv_pos_site_id
_symmetry_equiv_pos_as_xyz
1 x,y,z
2 1/2-x,1/2+y,1/2-z
3 -x,-y,-z
4 1/2+x,1/2-y,1/2+z
_cell_length_a                   11.2547(11)
_cell_length_b                   10.1129(9)
_cell_length_c                   19.9982(17)
_cell_angle_alpha                90
_cell_angle_beta                 103.654(5)
_cell_angle_gamma                90
_cell_volume                     2211.82
_exptl_crystal_colour            colorless
_exptl_crystal_description       block
_cell_formula_units_Z            4
loop_
_atom_site_label
_atom_site_type_symbol
_atom_site_fract_x
_atom_site_fract_y
_atom_site_fract_z
O1 O 0.67505(18) 0.01892(19) 0.04113(11)
H1 H 0.655(3) 0.033(3) -0.0013(18)
C1 C 0.7280(2) 0.1265(2) 0.07863(13)
C2 C 0.7656(2) 0.1113(3) 0.14957(13)
H2 H 0.7543 0.0289 0.1701
C3 C 0.8195(2) 0.2157(3) 0.19045(13)
H3 H 0.8461 0.2041 0.2388
C4 C 0.8351(2) 0.3380(2) 0.16118(13)
C5 C 0.7977(2) 0.3525(2) 0.08983(13)
H4 H 0.8089 0.4348 0.0693
C6 C 0.7443(2) 0.2476(2) 0.04855(13)
H5 H 0.7190 0.2583 0.0001
S1 S 0.89257(7) 0.46851(7) 0.21910(4)
C7 C 0.9471(2) 0.5856(2) 0.16818(13)
C8 C 1.0433(2) 0.5553(3) 0.13681(14)
H6 H 1.0755 0.4681 0.1398
C9 C 1.0910(2) 0.6514(3) 0.10172(14)
H7 H 1.1540 0.6292 0.0794
C10 C 1.0475(2) 0.7809(3) 0.09887(13)
C11 C 0.9510(2) 0.8115(3) 0.12828(13)
H8 H 0.9195 0.8990 0.1254
C12 C 0.9003(2) 0.7136(2) 0.16203(12)
H9 H 0.8329 0.7346 0.1811
O2 O 1.10087(17) 0.8723(2) 0.06483(10)
H10 H 1.078(3) 0.954(4) 0.0706(19)
N1 N 1.0446(2) 1.1321(2) 0.08625(15)
H11 H 1.003(3) 1.145(3) 0.1169(16)
H12 H 1.006(2) 1.153(3) 0.0450(14)
C13 C 1.1593(2) 1.1992(2) 0.10487(13)
C14 C 1.2195(3) 1.2114(3) 0.17288(14)
H13 H 1.1829 1.1775 0.2075
C15 C 1.3340(3) 1.2731(3) 0.19190(14)
H14 H 1.3736 1.2807 0.2393
C16 C 1.3905(2) 1.3231(3) 0.14289(13)
C17 C 1.3295(3) 1.3077(3) 0.07411(14)
H15 H 1.3668 1.3398 0.0393
C18 C 1.2160(3) 1.2471(3) 0.05479(14)
H16 H 1.1768 1.2382 0.0074
C19 C 1.5106(2) 1.3973(3) 0.16175(14)
H17 H 1.5673 1.3594 0.1358
H18 H 1.5476 1.3847 0.2114
C20 C 1.4963(2) 1.5446(3) 0.14662(12)
C21 C 1.5691(2) 1.6109(3) 0.11053(14)
H19 H 1.6304 1.5635 0.0951
C22 C 1.5542(2) 1.7465(3) 0.09636(13)
H20 H 1.6057 1.7899 0.0719
C23 C 1.4649(2) 1.8175(3) 0.11789(12)
C24 C 1.3920(2) 1.7523(3) 0.15480(13)
H21 H 1.3313 1.8000 0.1707
C25 C 1.4074(2) 1.6182(3) 0.16858(13)
H22 H 1.3564 1.5754 0.1935
N2 N 1.4421(2) 1.9521(2) 0.09795(13)
H23 H 1.407(3) 1.994(3) 0.1251(16)
H24 H 1.505(3) 1.997(3) 0.0905(15)
loop_
_geom_bond_atom_site_label_1
_geom_bond_atom_site_label_2
_geom_bond_site_symmetry_1
_geom_bond_site_symmetry_2
O1 H1 1_555 1_555
C1 O1 1_555 1_555
C2 C1 1_555 1_555
H2 C2 1_555 1_555
C3 C2 1_555 1_555
H3 C3 1_555 1_555
C4 C3 1_555 1_555
C5 C4 1_555 1_555
H4 C5 1_555 1_555
C6 C1 1_555 1_555
H5 C6 1_555 1_555
S1 C4 1_555 1_555
C7 S1 1_555 1_555
C8 C7 1_555 1_555
H6 C8 1_555 1_555
C9 C8 1_555 1_555
H7 C9 1_555 1_555
C10 C9 1_555 1_555
C11 C10 1_555 1_555
H8 C11 1_555 1_555
C12 C7 1_555 1_555
H9 C12 1_555 1_555
O2 C10 1_555 1_555
H10 O2 1_555 1_555
N1 H11 1_555 1_555
H12 N1 1_555 1_555
C13 N1 1_555 1_555
C14 C13 1_555 1_555
H13 C14 1_555 1_555
C15 C14 1_555 1_555
H14 C15 1_555 1_555
C16 C15 1_555 1_555
C17 C16 1_555 1_555
H15 C17 1_555 1_555
C18 C13 1_555 1_555
H16 C18 1_555 1_555
C19 C16 1_555 1_555
H17 C19 1_555 1_555
H18 C19 1_555 1_555
C20 C19 1_555 1_555
C21 C20 1_555 1_555
H19 C21 1_555 1_555
C22 C21 1_555 1_555
H20 C22 1_555 1_555
C23 C22 1_555 1_555
C24 C23 1_555 1_555
H21 C24 1_555 1_555
C25 C20 1_555 1_555
H22 C25 1_555 1_555
N2 C23 1_555 1_555
H23 N2 1_555 1_555
H24 N2 1_555 1_555
C5 C6 1_555 1_555
C11 C12 1_555 1_555
C17 C18 1_555 1_555
C24 C25 1_555 1_555

#END
