
#######################################################################
#
#                 Cambridge Crystallographic Data Centre
#                                CCDC 
#
#######################################################################
#
# If this CIF has been generated from an entry in the Cambridge 
# Structural Database, then it will include bibliographic, chemical, 
# crystal, experimental, refinement or atomic coordinate data resulting 
# from the CCDC's data processing and validation procedures.
#
#######################################################################

data_FIDMAH
_chemical_formula_moiety         'C12 H12 N2 S1,C12 H10 O2 S1'
_chemical_name_systematic        
'4-(4-Aminophenylsulfanyl)aniline 4-(4-hydroxyphenylsulfanyl)phenol'
_symmetry_cell_setting           orthorhombic
_symmetry_space_group_name_H-M   'P 21 21 21'
_symmetry_Int_Tables_number      19
_space_group_name_Hall           'P 2ac 2ab'
loop_
_symmetry_equiv_pos_site_id
_symmetry_equiv_pos_as_xyz
1 x,y,z
2 1/2-x,-y,1/2+z
3 -x,1/2+y,1/2-z
4 1/2+x,1/2-y,-z
_cell_length_a                   9.9090(4)
_cell_length_b                   10.2700(4)
_cell_length_c                   22.0100(8)
_cell_angle_alpha                90
_cell_angle_beta                 90
_cell_angle_gamma                90
_cell_volume                     2239.86
_exptl_crystal_colour            'light yellow'
_exptl_crystal_description       prism
_chemical_melting_point          '399 K'
_cell_formula_units_Z            4
loop_
_atom_site_label
_atom_site_type_symbol
_atom_site_fract_x
_atom_site_fract_y
_atom_site_fract_z
S1 S 0.32228(4) 1.32469(4) 0.336854(16)
N1 N 0.31380(15) 0.90925(13) 0.52765(6)
H1 H 0.243(2) 0.915(2) 0.5511(9)
H2 H 0.381(2) 0.9092(19) 0.5515(9)
N2 N 0.45045(14) 1.07445(15) 0.09757(6)
H3 H 0.502(2) 1.118(2) 0.0765(10)
C1 C 0.31669(15) 1.00400(13) 0.48106(6)
C2 C 0.19620(15) 1.04962(15) 0.45586(7)
H4 H 0.106(2) 1.019(2) 0.4685(9)
C3 C 0.19873(15) 1.14547(16) 0.41080(7)
H5 H 0.1127(18) 1.178(2) 0.3926(9)
C4 C 0.32151(15) 1.19472(14) 0.39008(6)
C5 C 0.44233(15) 1.14656(16) 0.41396(7)
H6 H 0.532(2) 1.179(2) 0.4008(9)
C6 C 0.43969(15) 1.05118(16) 0.45893(7)
H7 H 0.521(2) 1.017(2) 0.4744(9)
C7 C 0.36025(14) 1.24488(15) 0.26722(6)
C8 C 0.35820(15) 1.10920(14) 0.26018(7)
H8 H 0.344(2) 1.058(2) 0.2922(8)
C9 C 0.38898(15) 1.05409(15) 0.20425(7)
H9 H 0.386(2) 0.954(2) 0.1995(9)
C10 C 0.42189(13) 1.13216(15) 0.15441(6)
C11 C 0.42002(14) 1.26761(15) 0.16147(7)
H10 H 0.442(2) 1.318(2) 0.1285(9)
C12 C 0.39011(14) 1.32329(16) 0.21730(7)
H11 H 0.3884(18) 1.414(2) 0.2221(8)
H20 H 0.493(3) 0.999(3) 0.1035(11)
O1 O 0.30135(11) 0.67100(12) 0.47857(5)
C13 C 0.31310(14) 0.57149(14) 0.52045(6)
S2 S 0.33961(4) 0.21715(4) 0.645635(17)
O2 O 0.42450(12) 0.36513(14) 0.90306(5)
H12 H 0.352(3) 0.351(3) 0.9246(12)
C14 C 0.29356(16) 0.44512(16) 0.49950(7)
H13 H 0.2700(19) 0.429(2) 0.4607(9)
C15 C 0.30165(16) 0.34058(15) 0.53939(7)
C16 C 0.33142(14) 0.36022(14) 0.60060(6)
C17 C 0.35302(15) 0.48707(15) 0.62120(6)
H14 H 0.371(2) 0.501(2) 0.6625(9)
C18 C 0.34451(16) 0.59201(15) 0.58109(6)
H15 H 0.3617(18) 0.675(2) 0.5957(8)
C19 C 0.40119(14) 0.33675(17) 0.84296(7)
C20 C 0.27230(15) 0.31209(19) 0.82114(7)
C21 C 0.25270(16) 0.28088(18) 0.76050(7)
H16 H 0.161(2) 0.260(2) 0.7453(9)
C22 C 0.36290(15) 0.27346(15) 0.72116(7)
C23 C 0.49216(17) 0.2990(2) 0.74336(7)
H17 H 0.571(2) 0.287(2) 0.7140(10)
C24 C 0.51149(16) 0.3323(2) 0.80373(7)
H18 H 0.2807(19) 0.256(2) 0.5243(9)
H19 H 0.189(2) 0.315(2) 0.8517(11)
H21 H 0.605(2) 0.358(2) 0.8185(9)
H22 H 0.305(3) 0.735(3) 0.4957(10)
loop_
_geom_bond_atom_site_label_1
_geom_bond_atom_site_label_2
_geom_bond_site_symmetry_1
_geom_bond_site_symmetry_2
S1 C4 1_555 1_555
N1 H1 1_555 1_555
H2 N1 1_555 1_555
N2 H3 1_555 1_555
C1 N1 1_555 1_555
C2 C1 1_555 1_555
H4 C2 1_555 1_555
C3 C2 1_555 1_555
H5 C3 1_555 1_555
C4 C3 1_555 1_555
C5 C4 1_555 1_555
H6 C5 1_555 1_555
C6 C1 1_555 1_555
H7 C6 1_555 1_555
C7 S1 1_555 1_555
C8 C7 1_555 1_555
H8 C8 1_555 1_555
C9 C8 1_555 1_555
H9 C9 1_555 1_555
C10 N2 1_555 1_555
C11 C10 1_555 1_555
H10 C11 1_555 1_555
C12 C7 1_555 1_555
H11 C12 1_555 1_555
O1 C13 1_555 1_555
C13 C14 1_555 1_555
S2 C16 1_555 1_555
O2 H12 1_555 1_555
C14 H13 1_555 1_555
C15 C14 1_555 1_555
C16 C15 1_555 1_555
C17 C16 1_555 1_555
H14 C17 1_555 1_555
C18 C13 1_555 1_555
H15 C18 1_555 1_555
C19 O2 1_555 1_555
C20 C19 1_555 1_555
C21 C20 1_555 1_555
H16 C21 1_555 1_555
C22 S2 1_555 1_555
C23 C22 1_555 1_555
H17 C23 1_555 1_555
C24 C19 1_555 1_555
H18 C15 1_555 1_555
H19 C20 1_555 1_555
H20 N2 1_555 1_555
H21 C24 1_555 1_555
H22 O1 1_555 1_555
C5 C6 1_555 1_555
C9 C10 1_555 1_555
C11 C12 1_555 1_555
C17 C18 1_555 1_555
C21 C22 1_555 1_555
C23 C24 1_555 1_555

#END
