
#######################################################################
#
#                 Cambridge Crystallographic Data Centre
#                                CCDC 
#
#######################################################################
#
# If this CIF has been generated from an entry in the Cambridge 
# Structural Database, then it will include bibliographic, chemical, 
# crystal, experimental, refinement or atomic coordinate data resulting 
# from the CCDC's data processing and validation procedures.
#
#######################################################################

data_FIDTET
_chemical_formula_moiety         'C34 H29 Br1 N2 O4'
_chemical_name_systematic        
"Ethyl (1,1'-dibenzyl-6-bromo-2'-oxo-1',2'-dihydro-1H,3'H-3,3'-biindol-3'-yl)(hydroxy)acetate"
_symmetry_cell_setting           monoclinic
_symmetry_space_group_name_H-M   'P 21/c'
_symmetry_Int_Tables_number      14
_space_group_name_Hall           '-P 2ybc'
loop_
_symmetry_equiv_pos_site_id
_symmetry_equiv_pos_as_xyz
1 x,y,z
2 -x,1/2+y,1/2-z
3 -x,-y,-z
4 x,1/2-y,1/2+z
_cell_length_a                   12.0261(3)
_cell_length_b                   12.2758(4)
_cell_length_c                   20.3157(6)
_cell_angle_alpha                90
_cell_angle_beta                 105.703(1)
_cell_angle_gamma                90
_cell_volume                     2887.27
_exptl_crystal_colour            colorless
_exptl_crystal_description       block
_cell_formula_units_Z            4
loop_
_atom_site_label
_atom_site_type_symbol
_atom_site_fract_x
_atom_site_fract_y
_atom_site_fract_z
Br1 Br 0.06186(2) 0.42810(2) 0.217271(11)
N1 N 0.02676(14) 0.66590(14) -0.00632(8)
N2 N 0.25193(14) 0.49493(14) -0.15263(8)
O1 O 0.51423(18) 0.81164(15) -0.01470(11)
O2 O 0.38384(18) 0.79259(16) 0.04413(11)
O3 O 0.30510(12) 0.41507(11) -0.04698(7)
O4 O 0.49150(12) 0.60268(13) -0.05553(8)
H1 H 0.5587 0.5934 -0.0302
C1 C 0.2754(2) 0.3233(2) -0.29634(12)
H2 H 0.1951 0.3138 -0.3170
C2 C 0.3547(2) 0.2919(2) -0.33146(13)
H3 H 0.3285 0.2612 -0.3759
C3 C 0.4701(2) 0.3053(2) -0.30214(14)
H4 H 0.5245 0.2821 -0.3255
C4 C 0.5070(2) 0.3524(3) -0.23875(16)
H5 H 0.5872 0.3636 -0.2187
C5 C 0.4276(2) 0.3838(3) -0.20366(14)
H6 H 0.4539 0.4165 -0.1598
C6 C 0.31195(19) 0.36787(18) -0.23203(11)
C7 C 0.22437(19) 0.39595(19) -0.19310(11)
H7 H 0.1475 0.4045 -0.2261
H8 H 0.2195 0.3346 -0.1624
C8 C 0.28732(16) 0.49593(16) -0.08300(10)
C9 C 0.29397(16) 0.61653(16) -0.05898(10)
C10 C 0.26520(16) 0.67627(17) -0.12661(10)
C11 C 0.24207(17) 0.60160(17) -0.17952(10)
C12 C 0.21213(19) 0.6317(2) -0.24727(11)
H9 H 0.1972 0.5790 -0.2828
C13 C 0.2046(2) 0.7427(2) -0.26143(11)
H10 H 0.1837 0.7666 -0.3076
C14 C 0.2270(2) 0.8189(2) -0.20946(12)
H11 H 0.2211 0.8943 -0.2202
C15 C 0.25797(18) 0.78579(18) -0.14134(11)
H12 H 0.2739 0.8381 -0.1056
C16 C 0.09864(17) 0.68155(16) -0.04743(10)
H13 H 0.0796 0.7231 -0.0884
C17 C 0.20164(16) 0.62934(15) -0.02154(10)
C18 C 0.19422(17) 0.57804(15) 0.04094(10)
C19 C 0.26726(17) 0.51339(16) 0.09149(10)
H14 H 0.3435 0.4975 0.0893
C20 C 0.22781(18) 0.47294(17) 0.14451(10)
H15 H 0.2772 0.4298 0.1791
C21 C 0.11536(18) 0.49544(17) 0.14727(10)
C22 C 0.04144(18) 0.56160(16) 0.10087(10)
H16 H -0.0337 0.5785 0.1045
C23 C 0.08290(17) 0.60260(16) 0.04811(10)
C24 C -0.08399(17) 0.71909(18) -0.01391(11)
H17 H -0.1385 0.6662 -0.0029
H18 H -0.1156 0.7415 -0.0622
C25 C -0.07596(18) 0.81775(17) 0.03142(10)
C26 C 0.0254(2) 0.87676(19) 0.05291(11)
H19 H 0.0925 0.8532 0.0408
C27 C 0.0297(2) 0.9702(2) 0.09203(12)
H20 H 0.0991 1.0113 0.1058
C28 C -0.0667(3) 1.0033(2) 0.11080(13)
H21 H -0.0638 1.0668 0.1379
C29 C -0.1666(3) 0.9445(2) 0.09038(17)
H22 H -0.2328 0.9675 0.1036
C30 C -0.1727(2) 0.8518(2) 0.05060(13)
H23 H -0.2428 0.8118 0.0365
C31 C 0.41911(17) 0.63901(16) -0.01584(10)
H24 H 0.4350 0.5945 0.0269
C32 C 0.44469(19) 0.75799(19) 0.00350(12)
C33 C 0.3988(18) 0.9057(9) 0.0717(8)
C34 C 0.4800(17) 0.9002(16) 0.1437(7)
C35? C 0.421(4) 0.9053(16) 0.0653(14)
C36? C 0.320(2) 0.951(2) 0.0858(15)
C37? C 0.369(2) 0.9109(14) 0.1271(10)
C38? C 0.5173(9) 0.9106(10) 0.1277(5)
loop_
_geom_bond_atom_site_label_1
_geom_bond_atom_site_label_2
_geom_bond_site_symmetry_1
_geom_bond_site_symmetry_2
Br1 C21 1_555 1_555
N1 C16 1_555 1_555
N2 C7 1_555 1_555
O1 C32 1_555 1_555
O2 C32 1_555 1_555
O3 C8 1_555 1_555
O4 H1 1_555 1_555
C1 H2 1_555 1_555
C2 C1 1_555 1_555
H3 C2 1_555 1_555
C3 C2 1_555 1_555
H4 C3 1_555 1_555
C4 C3 1_555 1_555
H5 C4 1_555 1_555
C5 C4 1_555 1_555
H6 C5 1_555 1_555
C6 C1 1_555 1_555
C7 C6 1_555 1_555
H7 C7 1_555 1_555
H8 C7 1_555 1_555
C8 N2 1_555 1_555
C9 C8 1_555 1_555
C10 C9 1_555 1_555
C11 N2 1_555 1_555
C12 C11 1_555 1_555
H9 C12 1_555 1_555
C13 C12 1_555 1_555
H10 C13 1_555 1_555
C14 C13 1_555 1_555
H11 C14 1_555 1_555
C15 C10 1_555 1_555
H12 C15 1_555 1_555
C16 H13 1_555 1_555
C17 C9 1_555 1_555
C18 C17 1_555 1_555
C19 C18 1_555 1_555
H14 C19 1_555 1_555
C20 C19 1_555 1_555
H15 C20 1_555 1_555
C21 C20 1_555 1_555
C22 C21 1_555 1_555
H16 C22 1_555 1_555
C23 N1 1_555 1_555
C24 N1 1_555 1_555
H17 C24 1_555 1_555
H18 C24 1_555 1_555
C25 C24 1_555 1_555
C26 C25 1_555 1_555
H19 C26 1_555 1_555
C27 C26 1_555 1_555
H20 C27 1_555 1_555
C28 C27 1_555 1_555
H21 C28 1_555 1_555
C29 C28 1_555 1_555
H22 C29 1_555 1_555
C30 C25 1_555 1_555
H23 C30 1_555 1_555
C31 O4 1_555 1_555
H24 C31 1_555 1_555
C32 C31 1_555 1_555
C33 O2 1_555 1_555
C34 C33 1_555 1_555
C5 C6 1_555 1_555
C9 C31 1_555 1_555
C10 C11 1_555 1_555
C14 C15 1_555 1_555
C16 C17 1_555 1_555
C18 C23 1_555 1_555
C22 C23 1_555 1_555
C29 C30 1_555 1_555

#END
