
#######################################################################
#
#                 Cambridge Crystallographic Data Centre
#                                CCDC 
#
#######################################################################
#
# If this CIF has been generated from an entry in the Cambridge 
# Structural Database, then it will include bibliographic, chemical, 
# crystal, experimental, refinement or atomic coordinate data resulting 
# from the CCDC's data processing and validation procedures.
#
#######################################################################

data_FIDYID
_chemical_formula_moiety         'C27 H18 Cl4 N4'
_chemical_name_systematic        
6-chloro-N,3-bis(4-chlorophenyl)-4-[(4-chlorophenyl)imino]-N-methyl-3,4-dihydroquinazolin-2-amine
_symmetry_cell_setting           monoclinic
_symmetry_space_group_name_H-M   'P 21/n'
_symmetry_Int_Tables_number      14
_space_group_name_Hall           '-P 2yn'
loop_
_symmetry_equiv_pos_site_id
_symmetry_equiv_pos_as_xyz
1 x,y,z
2 1/2-x,1/2+y,1/2-z
3 -x,-y,-z
4 1/2+x,1/2-y,1/2+z
_cell_length_a                   8.7950(18)
_cell_length_b                   9.874(2)
_cell_length_c                   28.868(6)
_cell_angle_alpha                90
_cell_angle_beta                 96.19(3)
_cell_angle_gamma                90
_cell_volume                     2492.33
_exptl_crystal_description       block
_cell_formula_units_Z            4
loop_
_atom_site_label
_atom_site_type_symbol
_atom_site_fract_x
_atom_site_fract_y
_atom_site_fract_z
Cl1 Cl 0.86008(6) 0.88242(5) 0.105279(15)
Cl2 Cl 0.11872(5) 0.73586(6) 0.364865(18)
Cl3 Cl 1.17040(6) 1.30586(7) 0.250887(18)
Cl4 Cl 0.72993(8) 0.43993(5) 0.52674(2)
N1 N 0.92213(15) 1.12087(14) 0.42176(5)
C1 C 0.80692(18) 1.04012(16) 0.41938(5)
N2 N 0.74304(16) 1.00616(14) 0.46003(5)
N3 N 0.72939(17) 0.93747(16) 0.30107(5)
N4 N 0.73528(14) 0.98632(14) 0.37826(4)
C2 C 0.82599(19) 0.90216(17) 0.16349(5)
C3 C 0.92080(17) 1.10545(16) 0.33661(5)
C4 C 0.83590(18) 0.77104(18) 0.45816(6)
H1 H 0.9061 0.7962 0.4378
C5 C 0.97454(17) 1.16112(16) 0.38026(5)
C6 C 0.73547(17) 0.86700(17) 0.47275(5)
C7 C 1.15057(19) 1.30373(19) 0.34371(6)
H2 H 1.2272 1.3690 0.3458
C8 C 0.70312(19) 0.97893(17) 0.17351(6)
H3 H 0.6405 1.0208 0.1497
C9 C 0.30138(18) 0.80774(19) 0.37027(5)
C10 C 0.46028(19) 1.00339(18) 0.37968(6)
H4 H 0.4720 1.0964 0.3838
C11 C 0.98264(18) 1.15192(18) 0.29673(6)
H5 H 0.9469 1.1176 0.2676
C12 C 0.57091(18) 0.78380(17) 0.37054(6)
H6 H 0.6567 0.7301 0.3683
C13 C 0.79625(17) 1.00470(17) 0.33496(5)
C14 C 0.58677(17) 0.92208(17) 0.37677(5)
C15 C 0.8916(2) 0.85421(19) 0.24407(6)
H7 H 0.9548 0.8120 0.2676
C16 C 0.92057(19) 0.83888(19) 0.19821(6)
H8 H 1.0026 0.7867 0.1909
C17 C 0.76869(18) 0.93221(18) 0.25538(5)
C18 C 0.83235(19) 0.63835(18) 0.47361(6)
H9 H 0.8989 0.5742 0.4636
C19 C 0.6270(2) 0.6960(2) 0.51858(6)
H10 H 0.5566 0.6700 0.5387
C20 C 1.08926(19) 1.26047(18) 0.38286(6)
H11 H 1.1243 1.2976 0.4116
C21 C 0.42701(19) 0.72537(18) 0.36755(6)
H12 H 0.4152 0.6323 0.3638
C22 C 0.31547(19) 0.9455(2) 0.37635(6)
H13 H 0.2294 0.9991 0.3782
C23 C 1.09637(19) 1.24847(19) 0.30079(6)
C24 C 0.67363(19) 0.99316(17) 0.21957(6)
H14 H 0.5899 1.0437 0.2266
C25 C 0.7871(2) 1.0967(2) 0.50013(6)
H15 H 0.8861 1.0711 0.5147
H16 H 0.7133 1.0890 0.5222
H17 H 0.7903 1.1886 0.4894
C26 C 0.63046(19) 0.8279(2) 0.50300(6)
H18 H 0.5623 0.8911 0.5128
C27 C 0.7291(2) 0.60289(19) 0.50398(6)
loop_
_geom_bond_atom_site_label_1
_geom_bond_atom_site_label_2
_geom_bond_site_symmetry_1
_geom_bond_site_symmetry_2
Cl1 C2 1_555 1_555
Cl2 C9 1_555 1_555
Cl3 C23 1_555 1_555
Cl4 C27 1_555 1_555
N1 C1 1_555 1_555
C1 N2 1_555 1_555
N2 C6 1_555 1_555
N3 C13 1_555 1_555
N4 C1 1_555 1_555
C2 C8 1_555 1_555
C3 C5 1_555 1_555
C4 H1 1_555 1_555
C5 N1 1_555 1_555
C6 C4 1_555 1_555
C7 H2 1_555 1_555
C8 H3 1_555 1_555
C9 C21 1_555 1_555
C10 H4 1_555 1_555
C11 C3 1_555 1_555
H5 C11 1_555 1_555
C12 H6 1_555 1_555
C13 N4 1_555 1_555
C14 N4 1_555 1_555
C15 H7 1_555 1_555
C16 C2 1_555 1_555
H8 C16 1_555 1_555
C17 N3 1_555 1_555
C18 C4 1_555 1_555
H9 C18 1_555 1_555
C19 H10 1_555 1_555
C20 C5 1_555 1_555
H11 C20 1_555 1_555
C21 C12 1_555 1_555
H12 C21 1_555 1_555
C22 C9 1_555 1_555
H13 C22 1_555 1_555
C23 C7 1_555 1_555
C24 C8 1_555 1_555
H14 C24 1_555 1_555
C25 N2 1_555 1_555
H15 C25 1_555 1_555
H16 C25 1_555 1_555
H17 C25 1_555 1_555
C26 C6 1_555 1_555
H18 C26 1_555 1_555
C27 C18 1_555 1_555
C3 C13 1_555 1_555
C7 C20 1_555 1_555
C10 C14 1_555 1_555
C10 C22 1_555 1_555
C11 C23 1_555 1_555
C12 C14 1_555 1_555
C15 C16 1_555 1_555
C15 C17 1_555 1_555
C17 C24 1_555 1_555
C19 C26 1_555 1_555
C19 C27 1_555 1_555

#END
