
#######################################################################
#
#                 Cambridge Crystallographic Data Centre
#                                CCDC 
#
#######################################################################
#
# If this CIF has been generated from an entry in the Cambridge 
# Structural Database, then it will include bibliographic, chemical, 
# crystal, experimental, refinement or atomic coordinate data resulting 
# from the CCDC's data processing and validation procedures.
#
#######################################################################

data_FIDZUP01
_chemical_formula_moiety         'C47 H44 N4 O2'
_chemical_name_systematic        
3',6'-bis(diethylamino)-2-(2-((pyren-1-ylmethylene)amino)ethyl)spiro[isoindole-1,9'-xanthen]-3(2H)-one
_symmetry_cell_setting           triclinic
_symmetry_space_group_name_H-M   'P -1'
_symmetry_Int_Tables_number      2
_space_group_name_Hall           '-P 1'
loop_
_symmetry_equiv_pos_site_id
_symmetry_equiv_pos_as_xyz
1 x,y,z
2 -x,-y,-z
_cell_length_a                   11.723(2)
_cell_length_b                   12.180(2)
_cell_length_c                   14.627(3)
_cell_angle_alpha                66.97(3)
_cell_angle_beta                 78.50(3)
_cell_angle_gamma                76.08(3)
_cell_volume                     1852.63
_exptl_crystal_colour            yellow
_exptl_crystal_description       block
_cell_formula_units_Z            2
loop_
_atom_site_label
_atom_site_type_symbol
_atom_site_fract_x
_atom_site_fract_y
_atom_site_fract_z
O1 O 0.97005(12) -0.18828(12) 0.44435(10)
O2 O 0.78848(11) 0.31130(11) 0.09202(10)
N1 N 0.73223(16) 0.10830(15) 0.54115(13)
N2 N 0.88465(13) -0.00292(13) 0.33595(11)
N3 N 0.48036(15) 0.15303(16) 0.04387(15)
N4 N 1.01736(17) 0.52886(15) 0.17324(15)
C1 C 0.49840(18) 0.65942(18) 0.65798(15)
C2 C 0.5192(2) 0.76645(19) 0.66148(17)
H1 H 0.4599 0.8120 0.6937
C3 C 0.6252(2) 0.8065(2) 0.61850(17)
H2 H 0.6374 0.8798 0.6206
C4 C 0.7138(2) 0.74041(19) 0.57234(16)
H3 H 0.7862 0.7687 0.5434
C5 C 0.69750(18) 0.63252(18) 0.56797(15)
C6 C 0.78794(18) 0.56026(19) 0.52251(16)
H4 H 0.8602 0.5881 0.4918
C7 C 0.77288(18) 0.45374(19) 0.52226(16)
H5 H 0.8354 0.4083 0.4923
C8 C 0.66462(17) 0.40712(18) 0.56606(15)
C9 C 0.64595(17) 0.29513(18) 0.56928(15)
C10 C 0.53711(18) 0.25839(19) 0.61233(16)
H6 H 0.5250 0.1833 0.6138
C11 C 0.44723(19) 0.32819(19) 0.65257(17)
H7 H 0.3739 0.3013 0.6803
C12 C 0.46249(18) 0.43845(18) 0.65320(15)
C13 C 0.37143(19) 0.5132(2) 0.69643(17)
H8 H 0.2970 0.4887 0.7234
C14 C 0.38908(19) 0.6164(2) 0.69949(17)
H9 H 0.3275 0.6621 0.7300
C15 C 0.57187(17) 0.47907(17) 0.61004(14)
C16 C 0.58925(17) 0.59032(17) 0.61114(14)
C17 C 0.73992(18) 0.21557(18) 0.52864(15)
H10 H 0.8091 0.2460 0.4915
C18 C 0.83172(18) 0.04479(19) 0.49215(15)
H11 H 0.8605 -0.0367 0.5402
H12 H 0.8976 0.0908 0.4675
C19 C 0.78897(16) 0.03346(17) 0.40491(14)
H13 H 0.7358 -0.0269 0.4317
H14 H 0.7423 0.1125 0.3674
C20 C 0.96451(16) -0.10904(16) 0.36045(14)
C21 C 1.04133(16) -0.10821(16) 0.26641(14)
C22 C 1.13851(17) -0.19212(17) 0.25002(15)
H15 H 1.1659 -0.2633 0.3035
C23 C 1.19460(17) -0.16887(17) 0.15302(16)
H16 H 1.2617 -0.2247 0.1399
C24 C 1.15372(17) -0.06452(18) 0.07460(15)
H17 H 1.1928 -0.0507 0.0087
C25 C 1.05648(17) 0.01962(17) 0.09169(15)
H18 H 1.0287 0.0908 0.0384
C26 C 1.00130(15) -0.00344(16) 0.18879(13)
C27 C 0.89741(16) 0.07445(16) 0.22851(13)
C28 C 0.92755(16) 0.19523(16) 0.21348(13)
C29 C 1.01492(17) 0.20137(17) 0.26318(15)
H19 H 1.0547 0.1282 0.3076
C30 C 1.04559(18) 0.30933(18) 0.25030(16)
H20 H 1.1051 0.3091 0.2860
C31 C 0.98919(18) 0.42055(17) 0.18435(15)
C32 C 0.90271(17) 0.41495(16) 0.13299(15)
H21 H 0.8630 0.4875 0.0877
C33 C 0.87466(15) 0.30407(16) 0.14785(14)
C34 C 0.78519(15) 0.09609(16) 0.18236(14)
C35 C 0.72242(17) 0.00312(17) 0.20353(14)
H22 H 0.7506 -0.0753 0.2489
C36 C 0.62130(17) 0.02057(18) 0.16127(15)
H23 H 0.5806 -0.0449 0.1790
C37 C 0.57766(16) 0.13588(18) 0.09140(15)
C38 C 0.63831(16) 0.23013(17) 0.07191(14)
H24 H 0.6104 0.3091 0.0272
C39 C 0.73895(16) 0.20949(16) 0.11723(14)
C40 C 0.39855(19) 0.0667(2) 0.08465(18)
H25 H 0.4445 -0.0157 0.0937
H26 H 0.3432 0.0863 0.0351
C41 C 0.3269(2) 0.0655(2) 0.1836(2)
H27 H 0.2792 0.1460 0.1752
H28 H 0.3807 0.0439 0.2339
H29 H 0.2748 0.0057 0.2057
C42 C 0.4449(2) 0.2687(2) -0.0368(2)
H30 H 0.4018 0.2540 -0.0814
H31 H 0.5170 0.2994 -0.0769
C43 C 0.3669(3) 0.3658(3) 0.0005(3)
H32 H 0.3537 0.4426 -0.0562
H33 H 0.4061 0.3764 0.0490
H34 H 0.2907 0.3410 0.0325
C44 C 0.97003(19) 0.64412(17) 0.09968(17)
H35 H 0.9509 0.6290 0.0432
H36 H 1.0317 0.6955 0.0732
C45 C 0.8602(2) 0.7123(2) 0.1416(2)
H37 H 0.8350 0.7907 0.0897
H38 H 0.8778 0.7257 0.1987
H39 H 0.7967 0.6647 0.1633
C46 C 1.1012(2) 0.5340(2) 0.23223(18)
H40 H 1.0929 0.4710 0.2998
H41 H 1.0813 0.6140 0.2399
C47 C 1.2287(2) 0.5152(2) 0.1859(2)
H42 H 1.2360 0.5718 0.1164
H43 H 1.2528 0.4317 0.1874
H44 H 1.2797 0.5299 0.2239
C48? C 0.4080(19) 0.2755(15) 0.0225(17)
H45? H 0.4236 0.3144 0.0658
H46? H 0.3227 0.2717 0.0340
C49? C 0.444(2) 0.346(2) -0.0870(17)
H47? H 0.4235 0.3095 -0.1289
H48? H 0.5301 0.3436 -0.0980
H49? H 0.4033 0.4305 -0.1046
loop_
_geom_bond_atom_site_label_1
_geom_bond_atom_site_label_2
_geom_bond_site_symmetry_1
_geom_bond_site_symmetry_2
O1 C20 1_555 1_555
O2 C33 1_555 1_555
N1 C17 1_555 1_555
N2 C19 1_555 1_555
N3 C37 1_555 1_555
N4 C31 1_555 1_555
C1 C2 1_555 1_555
C2 H1 1_555 1_555
C3 C2 1_555 1_555
H2 C3 1_555 1_555
C4 C3 1_555 1_555
H3 C4 1_555 1_555
C5 C4 1_555 1_555
C6 C5 1_555 1_555
H4 C6 1_555 1_555
C7 C6 1_555 1_555
H5 C7 1_555 1_555
C8 C7 1_555 1_555
C9 C8 1_555 1_555
C10 C9 1_555 1_555
H6 C10 1_555 1_555
C11 C10 1_555 1_555
H7 C11 1_555 1_555
C12 C11 1_555 1_555
C13 C12 1_555 1_555
H8 C13 1_555 1_555
C14 C1 1_555 1_555
H9 C14 1_555 1_555
C15 C8 1_555 1_555
C16 C1 1_555 1_555
C17 C9 1_555 1_555
H10 C17 1_555 1_555
C18 N1 1_555 1_555
H11 C18 1_555 1_555
H12 C18 1_555 1_555
C19 C18 1_555 1_555
H13 C19 1_555 1_555
H14 C19 1_555 1_555
C20 N2 1_555 1_555
C21 C20 1_555 1_555
C22 C21 1_555 1_555
H15 C22 1_555 1_555
C23 C22 1_555 1_555
H16 C23 1_555 1_555
C24 C23 1_555 1_555
H17 C24 1_555 1_555
C25 C24 1_555 1_555
H18 C25 1_555 1_555
C26 C21 1_555 1_555
C27 N2 1_555 1_555
C28 C27 1_555 1_555
C29 C28 1_555 1_555
H19 C29 1_555 1_555
C30 C29 1_555 1_555
H20 C30 1_555 1_555
C31 C30 1_555 1_555
C32 C31 1_555 1_555
H21 C32 1_555 1_555
C33 C28 1_555 1_555
C34 C27 1_555 1_555
C35 C34 1_555 1_555
H22 C35 1_555 1_555
C36 C35 1_555 1_555
H23 C36 1_555 1_555
C37 C36 1_555 1_555
C38 C37 1_555 1_555
H24 C38 1_555 1_555
C39 O2 1_555 1_555
C40 N3 1_555 1_555
H25 C40 1_555 1_555
H26 C40 1_555 1_555
C41 C40 1_555 1_555
H27 C41 1_555 1_555
H28 C41 1_555 1_555
H29 C41 1_555 1_555
C42 N3 1_555 1_555
H30 C42 1_555 1_555
H31 C42 1_555 1_555
C43 C42 1_555 1_555
H32 C43 1_555 1_555
H33 C43 1_555 1_555
H34 C43 1_555 1_555
C44 N4 1_555 1_555
H35 C44 1_555 1_555
H36 C44 1_555 1_555
C45 C44 1_555 1_555
H37 C45 1_555 1_555
H38 C45 1_555 1_555
H39 C45 1_555 1_555
C46 N4 1_555 1_555
H40 C46 1_555 1_555
H41 C46 1_555 1_555
C47 C46 1_555 1_555
H42 C47 1_555 1_555
H43 C47 1_555 1_555
H44 C47 1_555 1_555
C5 C16 1_555 1_555
C12 C15 1_555 1_555
C13 C14 1_555 1_555
C15 C16 1_555 1_555
C25 C26 1_555 1_555
C26 C27 1_555 1_555
C32 C33 1_555 1_555
C34 C39 1_555 1_555
C38 C39 1_555 1_555

#END
