
#######################################################################
#
#                 Cambridge Crystallographic Data Centre
#                                CCDC 
#
#######################################################################
#
# If this CIF has been generated from an entry in the Cambridge 
# Structural Database, then it will include bibliographic, chemical, 
# crystal, experimental, refinement or atomic coordinate data resulting 
# from the CCDC's data processing and validation procedures.
#
#######################################################################

data_FIFBAA
_chemical_formula_moiety         'C42 H40 N12 O2 4+,4(I1 1-),C1 H2 Cl2,4(H2 O1)'
_chemical_name_systematic        
'15,36-dioxo-1,8,13,14,16,17,22,29,34,35,37,38-dodecaazaheptacyclo[38.2.2.2^3,6^.2^8,11^.2^19,22^.2^24,27^.2^29,32^]tetrapentaconta-1(42),3,5,8,10,12,17,19,21,24,26,29,31,33,38,40,43,45,47,49,51,53-docosaene-1,8,22,29-tetraium tetrakis(iodide) dichloromethane solvate tetrahydrate'
_symmetry_cell_setting           monoclinic
_symmetry_space_group_name_H-M   'P 21/c'
_symmetry_Int_Tables_number      14
_space_group_name_Hall           '-P 2ybc'
loop_
_symmetry_equiv_pos_site_id
_symmetry_equiv_pos_as_xyz
1 x,y,z
2 -x,1/2+y,1/2-z
3 -x,-y,-z
4 x,1/2-y,1/2+z
_cell_length_a                   13.4343(12)
_cell_length_b                   9.7213(8)
_cell_length_c                   20.3856(17)
_cell_angle_alpha                90
_cell_angle_beta                 100.985(8)
_cell_angle_gamma                90
_cell_volume                     2613.55
_exptl_crystal_colour            yellow
_exptl_crystal_description       block
_cell_formula_units_Z            2
loop_
_atom_site_label
_atom_site_type_symbol
_atom_site_fract_x
_atom_site_fract_y
_atom_site_fract_z
O1 O -0.0750(5) 0.0867(7) 0.3248(3)
N1 N 0.1029(6) -0.4602(8) 0.6461(4)
N2 N -0.0055(6) -0.1544(8) 0.4513(4)
N3 N -0.0631(6) -0.0842(8) 0.4003(4)
H1 H -0.1280 -0.1036 0.3884
N4 N 0.0799(6) 0.0348(8) 0.3874(3)
H2 H 0.1162 -0.0169 0.4185
N5 N 0.1229(6) 0.1381(8) 0.3569(4)
N6 N 0.3633(6) 0.4700(8) 0.2867(3)
C1 C 0.0050(8) -0.4843(10) 0.6232(5)
H3 H -0.0291 -0.5525 0.6441
C2 C -0.0475(8) -0.4118(11) 0.5699(5)
H4 H -0.1181 -0.4268 0.5554
C3 C 0.0010(8) -0.3192(10) 0.5379(5)
C4 C 0.1061(8) -0.3008(9) 0.5603(5)
H5 H 0.1435 -0.2398 0.5378
C5 C 0.1521(8) -0.3718(11) 0.6144(5)
H6 H 0.2226 -0.3581 0.6304
C6 C -0.0542(8) -0.2394(10) 0.4813(5)
H7 H -0.1253 -0.2509 0.4671
C7 C -0.0217(8) 0.0157(9) 0.3673(4)
C8 C 0.2185(7) 0.1538(9) 0.3762(4)
H8 H 0.2563 0.0958 0.4094
C9 C 0.2681(7) 0.2659(10) 0.3448(4)
C10 C 0.2140(7) 0.3514(9) 0.2963(4)
H9 H 0.1427 0.3402 0.2829
C11 C 0.2634(7) 0.4530(9) 0.2673(4)
H10 H 0.2263 0.5105 0.2335
C12 C 0.4159(8) 0.3907(10) 0.3341(4)
H11 H 0.4865 0.4069 0.3483
C13 C 0.3713(8) 0.2869(10) 0.3627(5)
H12 H 0.4111 0.2290 0.3950
C14 C 0.4120(8) 0.5895(10) 0.2568(5)
H13 H 0.3826 0.5960 0.2086
H14 H 0.3962 0.6760 0.2783
C15 C 0.5247(8) 0.5743(9) 0.2655(4)
C16 C 0.5677(8) 0.4895(10) 0.2250(5)
H15 H 0.5257 0.4402 0.1901
C17 C 0.6729(9) 0.4751(10) 0.2347(5)
H16 H 0.7018 0.4153 0.2065
C18 C 0.7347(8) 0.5457(11) 0.2841(5)
C19 C 0.6911(8) 0.6319(10) 0.3236(5)
H17 H 0.7338 0.6826 0.3576
C20 C 0.5872(8) 0.6481(10) 0.3159(4)
H18 H 0.5590 0.7082 0.3442
C21 C 0.8448(9) 0.5332(12) 0.2905(5)
H19 H 0.8741 0.6265 0.2897
H20 H 0.8594 0.4823 0.2514
O1B O 1.0750(5) -0.0867(7) 0.6752(3)
N1B N 0.8971(6) 0.4602(8) 0.3539(4)
N2B N 1.0055(6) 0.1544(8) 0.5487(4)
N3B N 1.0631(6) 0.0842(8) 0.5997(4)
H1B H 1.1280 0.1036 0.6116
N4B N 0.9201(6) -0.0348(8) 0.6126(3)
H2B H 0.8838 0.0169 0.5815
N5B N 0.8771(6) -0.1381(8) 0.6431(4)
N6B N 0.6367(6) -0.4700(8) 0.7133(3)
C1B C 0.9950(8) 0.4843(10) 0.3768(5)
H3B H 1.0291 0.5525 0.3559
C2B C 1.0475(8) 0.4118(11) 0.4301(5)
H4B H 1.1181 0.4268 0.4446
C3B C 0.9990(8) 0.3192(10) 0.4621(5)
C4B C 0.8939(8) 0.3008(9) 0.4397(5)
H5B H 0.8565 0.2398 0.4622
C5B C 0.8479(8) 0.3718(11) 0.3856(5)
H6B H 0.7774 0.3581 0.3696
C6B C 1.0542(8) 0.2394(10) 0.5187(5)
H7B H 1.1253 0.2509 0.5329
C7B C 1.0217(8) -0.0157(9) 0.6327(4)
C8B C 0.7815(7) -0.1538(9) 0.6238(4)
H8B H 0.7437 -0.0958 0.5906
C9B C 0.7319(7) -0.2659(10) 0.6552(4)
C10B C 0.7860(7) -0.3514(9) 0.7037(4)
H9B H 0.8573 -0.3402 0.7171
C11B C 0.7366(7) -0.4530(9) 0.7327(4)
H10B H 0.7737 -0.5105 0.7665
C12B C 0.5841(8) -0.3907(10) 0.6659(4)
H11B H 0.5135 -0.4069 0.6517
C13B C 0.6287(8) -0.2869(10) 0.6373(5)
H12B H 0.5889 -0.2290 0.6050
C14B C 0.5880(8) -0.5895(10) 0.7432(5)
H13B H 0.6174 -0.5960 0.7914
H14B H 0.6038 -0.6760 0.7217
C15B C 0.4753(8) -0.5743(9) 0.7345(4)
C16B C 0.4323(8) -0.4895(10) 0.7750(5)
H15B H 0.4743 -0.4402 0.8099
C17B C 0.3271(9) -0.4751(10) 0.7653(5)
H16B H 0.2982 -0.4153 0.7935
C18B C 0.2653(8) -0.5457(11) 0.7159(5)
C19B C 0.3089(8) -0.6319(10) 0.6764(5)
H17B H 0.2662 -0.6826 0.6424
C20B C 0.4128(8) -0.6481(10) 0.6841(4)
H18B H 0.4410 -0.7082 0.6558
C21B C 0.1552(9) -0.5332(12) 0.7095(5)
H19B H 0.1259 -0.6265 0.7103
H20B H 0.1406 -0.4823 0.7486
Cl1 Cl 0.6289(7) 0.3178(11) 0.4031(5)
Cl2 Cl 0.6914(10) 0.5574(14) 0.4890(6)
C22 C 0.622(4) 0.434(4) 0.456(2)
H21 H 0.6103 0.3814 0.4957
H22 H 0.5570 0.4795 0.4383
I1 I 0.30738(7) 0.02848(10) 0.56763(4)
I2 I 0.75176(6) 0.28466(7) 0.60319(3)
O2 O 0.4828(10) 0.2653(18) 0.5238(6)
H23 H 0.5320 0.2934 0.5533
H24 H 0.4512 0.2022 0.5402
O3 O -0.0286(7) 0.2738(9) 0.2292(4)
H25 H -0.0313 0.2082 0.2561
H26 H -0.077(6) 0.263(12) 0.199(4)
loop_
_geom_bond_atom_site_label_1
_geom_bond_atom_site_label_2
_geom_bond_site_symmetry_1
_geom_bond_site_symmetry_2
O1 C7 1_555 1_555
N1 C1 1_555 1_555
N2 N3 1_555 1_555
N3 H1 1_555 1_555
N4 H2 1_555 1_555
N5 N4 1_555 1_555
N6 C11 1_555 1_555
C1 H3 1_555 1_555
C2 C1 1_555 1_555
H4 C2 1_555 1_555
C3 C2 1_555 1_555
C4 C3 1_555 1_555
H5 C4 1_555 1_555
C5 N1 1_555 1_555
H6 C5 1_555 1_555
C6 N2 1_555 1_555
H7 C6 1_555 1_555
C7 N3 1_555 1_555
C8 N5 1_555 1_555
H8 C8 1_555 1_555
C9 C8 1_555 1_555
C10 C9 1_555 1_555
H9 C10 1_555 1_555
C11 C10 1_555 1_555
H10 C11 1_555 1_555
C12 N6 1_555 1_555
H11 C12 1_555 1_555
C13 C9 1_555 1_555
H12 C13 1_555 1_555
C14 N6 1_555 1_555
H13 C14 1_555 1_555
H14 C14 1_555 1_555
C15 C14 1_555 1_555
C16 C15 1_555 1_555
H15 C16 1_555 1_555
C17 C16 1_555 1_555
H16 C17 1_555 1_555
C18 C17 1_555 1_555
C19 C18 1_555 1_555
H17 C19 1_555 1_555
C20 C15 1_555 1_555
H18 C20 1_555 1_555
C21 C18 1_555 1_555
H19 C21 1_555 1_555
H20 C21 1_555 1_555
Cl1 C22 1_555 1_555
Cl2 C22 1_555 1_555
C22 H21 1_555 1_555
H22 C22 1_555 1_555
O2 H23 1_555 1_555
H24 O2 1_555 1_555
O3 H25 1_555 1_555
H26 O3 1_555 1_555
O1B C7B 1_555 1_555
N1B C21 1_555 1_555
N2B N3B 1_555 1_555
N3B H1B 1_555 1_555
N4B H2B 1_555 1_555
N5B N4B 1_555 1_555
N6B C11B 1_555 1_555
C1B N1B 1_555 1_555
H3B C1B 1_555 1_555
C2B C1B 1_555 1_555
H4B C2B 1_555 1_555
C3B C2B 1_555 1_555
C4B C3B 1_555 1_555
H5B C4B 1_555 1_555
C5B N1B 1_555 1_555
H6B C5B 1_555 1_555
C6B N2B 1_555 1_555
H7B C6B 1_555 1_555
C7B N3B 1_555 1_555
C8B N5B 1_555 1_555
H8B C8B 1_555 1_555
C9B C8B 1_555 1_555
C10B C9B 1_555 1_555
H9B C10B 1_555 1_555
C11B C10B 1_555 1_555
H10B C11B 1_555 1_555
C12B N6B 1_555 1_555
H11B C12B 1_555 1_555
C13B C9B 1_555 1_555
H12B C13B 1_555 1_555
C14B N6B 1_555 1_555
H13B C14B 1_555 1_555
H14B C14B 1_555 1_555
C15B C14B 1_555 1_555
C16B C15B 1_555 1_555
H15B C16B 1_555 1_555
C17B C16B 1_555 1_555
H16B C17B 1_555 1_555
C18B C17B 1_555 1_555
C19B C18B 1_555 1_555
H17B C19B 1_555 1_555
C20B C15B 1_555 1_555
H18B C20B 1_555 1_555
C21B N1 1_555 1_555
H19B C21B 1_555 1_555
H20B C21B 1_555 1_555
N4 C7 1_555 1_555
C3 C6 1_555 1_555
C4 C5 1_555 1_555
C12 C13 1_555 1_555
C19 C20 1_555 1_555
N4B C7B 1_555 1_555
C3B C6B 1_555 1_555
C4B C5B 1_555 1_555
C12B C13B 1_555 1_555
C18B C21B 1_555 1_555
C19B C20B 1_555 1_555

#END
