
#######################################################################
#
#                 Cambridge Crystallographic Data Centre
#                                CCDC 
#
#######################################################################
#
# If this CIF has been generated from an entry in the Cambridge 
# Structural Database, then it will include bibliographic, chemical, 
# crystal, experimental, refinement or atomic coordinate data resulting 
# from the CCDC's data processing and validation procedures.
#
#######################################################################

data_FIFCIJ
_chemical_formula_moiety         'C23 H19 N3 S2'
_chemical_name_systematic        
N-(5-benzylamino-2-phenyl-1,3-thiazol-4-yl)benzenecarbothioamide
_symmetry_cell_setting           triclinic
_symmetry_space_group_name_H-M   'P -1'
_symmetry_Int_Tables_number      2
_space_group_name_Hall           '-P 1'
loop_
_symmetry_equiv_pos_site_id
_symmetry_equiv_pos_as_xyz
1 x,y,z
2 -x,-y,-z
_cell_length_a                   9.9101(7)
_cell_length_b                   14.2687(9)
_cell_length_c                   14.9853(10)
_cell_angle_alpha                85.056(5)
_cell_angle_beta                 77.636(6)
_cell_angle_gamma                77.507(6)
_cell_volume                     2019.06
_exptl_crystal_colour            colorless
_exptl_crystal_description       block
_cell_formula_units_Z            4
loop_
_atom_site_label
_atom_site_type_symbol
_atom_site_fract_x
_atom_site_fract_y
_atom_site_fract_z
S1 S 1.10577(12) 0.55635(7) 0.13207(7)
S2 S 0.92922(15) 0.90094(8) 0.10106(8)
N1 N 1.1029(3) 0.6643(2) 0.2609(2)
N2 N 0.9104(4) 0.7935(2) 0.2538(2)
H1 H 0.8750 0.7895 0.3113
C1 C 1.1692(4) 0.5822(3) 0.2250(3)
C2 C 0.9801(4) 0.6610(3) 0.1460(3)
N3 N 0.8756(4) 0.6894(2) 0.0961(2)
H2 H 0.8231 0.7458 0.1026
C3 C 0.8743(4) 0.8783(3) 0.2122(3)
C4 C 0.7814(4) 0.9531(3) 0.2719(3)
C5 C 0.9998(4) 0.7084(3) 0.2160(3)
C6 C 1.2808(5) 0.5164(3) 0.2615(3)
C7 C 0.8519(5) 0.6252(3) 0.0323(3)
H3 H 0.8489 0.5621 0.0615
H4 H 0.9281 0.6184 -0.0210
C8 C 0.7156(5) 0.6675(3) 0.0047(3)
C9 C 1.3177(5) 0.5360(3) 0.3405(3)
H5 H 1.2733 0.5929 0.3693
C10 C 0.5928(6) 0.6388(4) 0.0455(4)
H6 H 0.5949 0.5874 0.0881
C11 C 1.3552(5) 0.4320(3) 0.2190(4)
H7 H 1.3355 0.4171 0.1645
C12 C 0.7710(7) 0.9499(4) 0.3653(4)
H8 H 0.8246 0.8984 0.3928
C13 C 1.4879(5) 0.3892(4) 0.3364(4)
H9 H 1.5545 0.3456 0.3624
C14 C 1.4200(5) 0.4721(4) 0.3778(4)
H10 H 1.4422 0.4862 0.4317
C15 C 0.6987(7) 1.0309(4) 0.2364(4)
H11 H 0.7015 1.0355 0.1738
C16 C 0.6072(6) 1.0968(4) 0.3832(4)
H12 H 0.5514 1.1458 0.4199
C17 C 1.4570(6) 0.3711(4) 0.2567(4)
H13 H 1.5062 0.3157 0.2267
C18 C 0.4658(7) 0.6857(6) 0.0241(5)
H14 H 0.3826 0.6665 0.0526
C19 C 0.7093(6) 0.7428(4) -0.0604(4)
H15 H 0.7923 0.7617 -0.0898
C20 C 0.6129(9) 1.1014(4) 0.2894(5)
H16 H 0.5578 1.1530 0.2629
C21 C 0.6832(8) 1.0211(5) 0.4186(4)
H17 H 0.6772 1.0157 0.4816
C22 C 0.5852(9) 0.7898(5) -0.0823(5)
H18 H 0.5833 0.8406 -0.1256
C23 C 0.4631(9) 0.7614(6) -0.0400(6)
H19 H 0.3777 0.7933 -0.0544
S3 S 0.13112(12) 0.52514(8) 0.63438(7)
N4 N 0.2763(3) 0.4737(2) 0.7591(2)
N5 N 0.3829(4) 0.3131(2) 0.7340(2)
H20 H 0.3615 0.2971 0.7912
N6 N 0.2170(4) 0.3382(2) 0.5811(2)
H21 H 0.2671 0.2812 0.5846
C24 C 0.1447(4) 0.6399(3) 0.7748(3)
C25 C 0.1898(4) 0.5474(3) 0.7307(3)
C26 C 0.2250(4) 0.4075(3) 0.6368(3)
C27 C 0.5628(4) 0.1762(3) 0.7428(3)
C28 C 0.4924(4) 0.2538(3) 0.6859(3)
C29 C 0.2976(4) 0.3971(3) 0.7059(3)
C30 C 0.1801(5) 0.6475(3) 0.8592(3)
H22 H 0.2316 0.5945 0.8861
C31 C 0.1045(5) 0.2709(3) 0.4799(3)
C32 C -0.0182(5) 0.2371(3) 0.5108(3)
H23 H -0.0912 0.2717 0.5527
C33 C 0.1224(5) 0.3620(3) 0.5155(3)
H24 H 0.1618 0.4019 0.4651
H25 H 0.0314 0.3978 0.5452
C34 C 0.1384(5) 0.7336(3) 0.9022(3)
H26 H 0.1610 0.7377 0.9587
C35 C -0.0335(6) 0.1526(3) 0.4801(3)
H27 H -0.1178 0.1315 0.4999
C36 C 0.7100(5) 0.1455(3) 0.7233(4)
H28 H 0.7634 0.1722 0.6728
C37 C 0.4866(5) 0.1325(3) 0.8174(4)
H29 H 0.3887 0.1506 0.8312
C38 C 0.1983(6) 0.1325(4) 0.3890(4)
H30 H 0.2723 0.0969 0.3486
C39 C 0.2119(5) 0.2185(3) 0.4174(3)
H31 H 0.2940 0.2416 0.3945
C40 C 0.0762(7) 0.0988(3) 0.4200(4)
H32 H 0.0671 0.0406 0.4009
C41 C 0.7755(6) 0.0768(4) 0.7780(5)
H33 H 0.8734 0.0584 0.7653
C42 C 0.0649(6) 0.8128(4) 0.8638(4)
H34 H 0.0363 0.8705 0.8936
C43 C 0.0708(7) 0.7203(4) 0.7371(4)
H35 H 0.0450 0.7170 0.6815
C44 C 0.6970(7) 0.0338(4) 0.8529(5)
H36 H 0.7414 -0.0137 0.8896
C45 C 0.0342(8) 0.8058(4) 0.7806(4)
H37 H -0.0127 0.8601 0.7526
C46 C 0.5537(6) 0.0633(4) 0.8709(5)
H38 H 0.5004 0.0357 0.9209
S4 S 0.54870(14) 0.26675(10) 0.57413(8)
loop_
_geom_bond_atom_site_label_1
_geom_bond_atom_site_label_2
_geom_bond_site_symmetry_1
_geom_bond_site_symmetry_2
S1 C1 1_555 1_555
S2 C3 1_555 1_555
N1 C1 1_555 1_555
N2 H1 1_555 1_555
C1 C6 1_555 1_555
C2 S1 1_555 1_555
N3 C2 1_555 1_555
H2 N3 1_555 1_555
C3 N2 1_555 1_555
C4 C3 1_555 1_555
C5 N1 1_555 1_555
C6 C9 1_555 1_555
C7 N3 1_555 1_555
H3 C7 1_555 1_555
H4 C7 1_555 1_555
C8 C7 1_555 1_555
C9 H5 1_555 1_555
C10 C8 1_555 1_555
H6 C10 1_555 1_555
C11 C6 1_555 1_555
H7 C11 1_555 1_555
C12 C4 1_555 1_555
H8 C12 1_555 1_555
C13 H9 1_555 1_555
C14 C9 1_555 1_555
H10 C14 1_555 1_555
C15 C4 1_555 1_555
H11 C15 1_555 1_555
C16 H12 1_555 1_555
C17 C11 1_555 1_555
H13 C17 1_555 1_555
C18 C10 1_555 1_555
H14 C18 1_555 1_555
C19 C8 1_555 1_555
H15 C19 1_555 1_555
C20 C15 1_555 1_555
H16 C20 1_555 1_555
C21 C12 1_555 1_555
H17 C21 1_555 1_555
C22 C19 1_555 1_555
H18 C22 1_555 1_555
C23 C18 1_555 1_555
H19 C23 1_555 1_555
S3 C25 1_555 1_555
N4 C25 1_555 1_555
N5 H20 1_555 1_555
N6 H21 1_555 1_555
C24 C25 1_555 1_555
C26 S3 1_555 1_555
C27 C28 1_555 1_555
C28 N5 1_555 1_555
C29 N4 1_555 1_555
C30 C24 1_555 1_555
H22 C30 1_555 1_555
C31 C32 1_555 1_555
C32 H23 1_555 1_555
C33 N6 1_555 1_555
H24 C33 1_555 1_555
H25 C33 1_555 1_555
C34 C30 1_555 1_555
H26 C34 1_555 1_555
C35 C32 1_555 1_555
H27 C35 1_555 1_555
C36 C27 1_555 1_555
H28 C36 1_555 1_555
C37 C27 1_555 1_555
H29 C37 1_555 1_555
C38 H30 1_555 1_555
C39 C31 1_555 1_555
H31 C39 1_555 1_555
C40 C35 1_555 1_555
H32 C40 1_555 1_555
C41 C36 1_555 1_555
H33 C41 1_555 1_555
C42 C34 1_555 1_555
H34 C42 1_555 1_555
C43 C24 1_555 1_555
H35 C43 1_555 1_555
C44 C41 1_555 1_555
H36 C44 1_555 1_555
C45 C42 1_555 1_555
H37 C45 1_555 1_555
C46 C37 1_555 1_555
H38 C46 1_555 1_555
S4 C28 1_555 1_555
N2 C5 1_555 1_555
C2 C5 1_555 1_555
C13 C14 1_555 1_555
C13 C17 1_555 1_555
C16 C20 1_555 1_555
C16 C21 1_555 1_555
C22 C23 1_555 1_555
N5 C29 1_555 1_555
N6 C26 1_555 1_555
C26 C29 1_555 1_555
C31 C33 1_555 1_555
C38 C39 1_555 1_555
C38 C40 1_555 1_555
C43 C45 1_555 1_555
C44 C46 1_555 1_555

#END
