
#######################################################################
#
#                 Cambridge Crystallographic Data Centre
#                                CCDC 
#
#######################################################################
#
# If this CIF has been generated from an entry in the Cambridge 
# Structural Database, then it will include bibliographic, chemical, 
# crystal, experimental, refinement or atomic coordinate data resulting 
# from the CCDC's data processing and validation procedures.
#
#######################################################################

data_FIFCAA
_chemical_formula_moiety         'C12 H6 Br2 N2'
_chemical_name_systematic        3,8-Dibromo-1,10-phenanthroline
_symmetry_cell_setting           tetragonal
_symmetry_space_group_name_H-M   'P 42/n c m'
_symmetry_Int_Tables_number      138
_space_group_name_Hall           '-P 4ac 2ac'
loop_
_symmetry_equiv_pos_site_id
_symmetry_equiv_pos_as_xyz
1 x,y,z
2 1/2-x,1/2-y,z
3 1/2-y,x,1/2+z
4 y,1/2-x,1/2+z
5 -x,1/2+y,1/2-z
6 1/2+x,-y,1/2-z
7 1/2+y,1/2+x,-z
8 -y,-x,-z
9 -x,-y,-z
10 1/2+x,1/2+y,-z
11 1/2+y,-x,1/2-z
12 -y,1/2+x,1/2-z
13 x,1/2-y,1/2+z
14 1/2-x,y,1/2+z
15 1/2-y,1/2-x,z
16 y,x,z
_cell_length_a                   14.562(4)
_cell_length_b                   14.562(4)
_cell_length_c                   5.852(3)
_cell_angle_alpha                90
_cell_angle_beta                 90
_cell_angle_gamma                90
_cell_volume                     1240.93
_exptl_crystal_colour            colorless
_exptl_crystal_description       block
_cell_formula_units_Z            4
loop_
_atom_site_label
_atom_site_type_symbol
_atom_site_fract_x
_atom_site_fract_y
_atom_site_fract_z
Br1 Br 0.65658(7) 0.84342(7) 1.2209(3)
C1 C 0.6006(6) 0.8994(6) 0.9663(19)
C2 C 0.5212(7) 0.8653(7) 0.8694(18)
H1 H 0.4914 0.8121 0.9364
C3 C 0.3990(12) 0.8574(12) 0.601(3)
H2 H 0.3698 0.8068 0.6791
C4 C 0.5195(5) 0.9805(5) 0.5922(17)
N1 N 0.4831(6) 0.9034(6) 0.6910(12)
Br1F Br 0.34342(7) 1.15658(7) -0.2209(3)
C1F C 0.3994(6) 1.1006(6) 0.0337(19)
C2F C 0.3653(7) 1.0212(7) 0.1306(18)
H1F H 0.3121 0.9914 0.0636
C3F C 0.3574(12) 0.8990(12) 0.399(3)
H2F H 0.3068 0.8698 0.3209
C4F C 0.4805(5) 1.0195(5) 0.4078(17)
N1F N 0.4034(6) 0.9831(6) 0.3090(12)
C2H C 0.4788(7) 1.1347(7) 0.1306(18)
H1H H 0.5086 1.1879 0.0636
C3H C 0.6010(12) 1.1426(12) 0.399(3)
H2H H 0.6302 1.1932 0.3209
N1H N 0.5169(6) 1.0966(6) 0.3090(12)
C2N C 0.6347(7) 0.9788(7) 0.8694(18)
H1N H 0.6879 1.0086 0.9364
C3N C 0.6426(12) 1.1010(12) 0.601(3)
H2N H 0.6932 1.1302 0.6791
N1N N 0.5966(6) 1.0169(6) 0.6910(12)
C5? C 0.4831(6) 0.9034(6) 0.6910(12)
loop_
_geom_bond_atom_site_label_1
_geom_bond_atom_site_label_2
_geom_bond_site_symmetry_1
_geom_bond_site_symmetry_2
Br1 C1 1_555 1_555
C1 C2 1_555 1_555
C2 H1 1_555 1_555
C3 H2 1_555 1_555
C4 N1 1_555 1_555
N1 C2 1_555 1_555
Br1F C1F 1_555 1_555
C1F C2F 1_555 1_555
C2F H1F 1_555 1_555
C3F C3 1_555 1_555
H2F C3F 1_555 1_555
C4F C4 1_555 1_555
N1F C2F 1_555 1_555
C2H C1F 1_555 1_555
H1H C2H 1_555 1_555
C3H H2H 1_555 1_555
N1H C4F 1_555 1_555
C2N C1 1_555 1_555
H1N C2N 1_555 1_555
C3N C3H 1_555 1_555
H2N C3N 1_555 1_555
N1N C4 1_555 1_555
C3 N1 1_555 1_555
C3F N1F 1_555 1_555
C4F N1F 1_555 1_555
C2H N1H 1_555 1_555
C3H N1H 1_555 1_555
C2N N1N 1_555 1_555
C3N N1N 1_555 1_555

#END
