
#######################################################################
#
#                 Cambridge Crystallographic Data Centre
#                                CCDC 
#
#######################################################################
#
# If this CIF has been generated from an entry in the Cambridge 
# Structural Database, then it will include bibliographic, chemical, 
# crystal, experimental, refinement or atomic coordinate data resulting 
# from the CCDC's data processing and validation procedures.
#
#######################################################################

data_FIFDAB
_chemical_formula_moiety         'C25 H20 Br1 N3 O5'
_chemical_name_systematic        
N-(3-(4-Bromophenyl)-1-cyclopropylprop-2-en-1-yl)-3,5-dinitro-N-phenylbenzamide
_symmetry_cell_setting           triclinic
_symmetry_space_group_name_H-M   'P -1'
_symmetry_Int_Tables_number      2
_space_group_name_Hall           '-P 1'
loop_
_symmetry_equiv_pos_site_id
_symmetry_equiv_pos_as_xyz
1 x,y,z
2 -x,-y,-z
_cell_length_a                   8.0028(14)
_cell_length_b                   12.409(2)
_cell_length_c                   12.615(2)
_cell_angle_alpha                76.561(4)
_cell_angle_beta                 79.708(4)
_cell_angle_gamma                83.571(4)
_cell_volume                     1195.59
_exptl_crystal_colour            colorless
_exptl_crystal_description       prismatic
_cell_formula_units_Z            2
loop_
_atom_site_label
_atom_site_type_symbol
_atom_site_fract_x
_atom_site_fract_y
_atom_site_fract_z
Br1 Br 1.44553(9) 0.13497(6) 0.03643(5)
N1 N 0.7888(4) 0.6707(3) 0.3651(3)
N2 N 1.2926(5) 0.7575(3) 0.6144(4)
N3 N 0.7465(6) 0.9807(3) 0.6210(4)
O1 O 0.8032(4) 0.5474(2) 0.5281(2)
O2 O 1.3917(4) 0.6953(3) 0.5697(3)
O3 O 1.3277(5) 0.8021(4) 0.6834(4)
O4 O 0.7983(6) 1.0402(4) 0.6670(4)
O5 O 0.6159(6) 1.0027(4) 0.5866(5)
C1 C 0.8827(5) 0.4713(4) 0.1870(3)
H1 H 0.7937 0.4898 0.1462
C2 C 0.8723(5) 0.5155(3) 0.2733(3)
H2 H 0.9661 0.5017 0.3099
C3 C 0.7250(5) 0.5858(3) 0.3186(3)
H3 H 0.6587 0.5369 0.3803
C4 C 0.6061(5) 0.6395(4) 0.2395(4)
H4 H 0.6594 0.6842 0.1695
C5 C 0.4304(6) 0.6806(6) 0.2816(5)
H5 H 0.3966 0.6694 0.3609
H6 H 0.3825 0.7490 0.2394
C6 C 0.4552(7) 0.5814(6) 0.2327(5)
H7 H 0.4230 0.5893 0.1606
H8 H 0.4370 0.5097 0.2822
C7 C 0.8252(5) 0.6394(4) 0.4684(3)
C8 C 0.8952(5) 0.7263(3) 0.5128(3)
C9 C 1.0618(5) 0.7093(3) 0.5347(3)
H9 H 1.1340 0.6511 0.5138
C10 C 1.1175(5) 0.7800(3) 0.5877(3)
C11 C 1.0178(5) 0.8679(3) 0.6185(3)
H10 H 1.0582 0.9144 0.6548
C12 C 0.8560(5) 0.8846(3) 0.5936(3)
C13 C 0.7933(5) 0.8159(3) 0.5413(3)
H11 H 0.6828 0.8297 0.5253
C14 C 0.8413(5) 0.7731(3) 0.2909(3)
C15 C 1.0041(6) 0.7757(4) 0.2314(4)
H12 H 1.0788 0.7123 0.2398
C16 C 1.0551(8) 0.8714(6) 0.1604(5)
H13 H 1.1638 0.8738 0.1192
C17 C 0.9425(12) 0.9643(6) 0.1508(5)
H14 H 0.9780 1.0303 0.1042
C18 C 0.7808(11) 0.9627(5) 0.2075(6)
H15 H 0.7062 1.0260 0.1982
C19 C 0.7294(7) 0.8660(4) 0.2788(4)
H16 H 0.6197 0.8635 0.3186
C20 C 1.0239(6) 0.3947(3) 0.1493(3)
C21 C 1.0019(6) 0.3338(4) 0.0743(3)
H17 H 0.9006 0.3451 0.0456
C22 C 1.1263(7) 0.2570(4) 0.0412(4)
H18 H 1.1082 0.2159 -0.0082
C23 C 1.2767(6) 0.2419(4) 0.0819(4)
C24 C 1.3040(6) 0.3017(4) 0.1559(4)
H19 H 1.4067 0.2910 0.1829
C25 C 1.1795(6) 0.3766(4) 0.1891(4)
H20 H 1.1983 0.4165 0.2392
loop_
_geom_bond_atom_site_label_1
_geom_bond_atom_site_label_2
_geom_bond_site_symmetry_1
_geom_bond_site_symmetry_2
Br1 C23 1_555 1_555
N1 C3 1_555 1_555
N2 O2 1_555 1_555
N3 O4 1_555 1_555
O1 C7 1_555 1_555
O3 N2 1_555 1_555
O5 N3 1_555 1_555
C1 H1 1_555 1_555
C2 C1 1_555 1_555
H2 C2 1_555 1_555
C3 C2 1_555 1_555
H3 C3 1_555 1_555
C4 C3 1_555 1_555
H4 C4 1_555 1_555
C5 C4 1_555 1_555
H5 C5 1_555 1_555
H6 C5 1_555 1_555
C6 C4 1_555 1_555
H7 C6 1_555 1_555
H8 C6 1_555 1_555
C7 N1 1_555 1_555
C8 C7 1_555 1_555
C9 C8 1_555 1_555
H9 C9 1_555 1_555
C10 N2 1_555 1_555
C11 C10 1_555 1_555
H10 C11 1_555 1_555
C12 N3 1_555 1_555
C13 C8 1_555 1_555
H11 C13 1_555 1_555
C14 N1 1_555 1_555
C15 C14 1_555 1_555
H12 C15 1_555 1_555
C16 C15 1_555 1_555
H13 C16 1_555 1_555
C17 C16 1_555 1_555
H14 C17 1_555 1_555
C18 C17 1_555 1_555
H15 C18 1_555 1_555
C19 C14 1_555 1_555
H16 C19 1_555 1_555
C20 C1 1_555 1_555
C21 C20 1_555 1_555
H17 C21 1_555 1_555
C22 C21 1_555 1_555
H18 C22 1_555 1_555
C23 C22 1_555 1_555
C24 C23 1_555 1_555
H19 C24 1_555 1_555
C25 C20 1_555 1_555
H20 C25 1_555 1_555
C5 C6 1_555 1_555
C9 C10 1_555 1_555
C11 C12 1_555 1_555
C12 C13 1_555 1_555
C18 C19 1_555 1_555
C24 C25 1_555 1_555

#END
