
#######################################################################
#
#                 Cambridge Crystallographic Data Centre
#                                CCDC 
#
#######################################################################
#
# If this CIF has been generated from an entry in the Cambridge 
# Structural Database, then it will include bibliographic, chemical, 
# crystal, experimental, refinement or atomic coordinate data resulting 
# from the CCDC's data processing and validation procedures.
#
#######################################################################

data_FIFDIJ
_chemical_formula_moiety         'C20 H17 Br1 N2'
_chemical_name_systematic        
4-Bromo-N-(1-phenyl-3-(pyridin-2-yl)prop-2-en-1-yl)aniline
_symmetry_cell_setting           triclinic
_symmetry_space_group_name_H-M   'P -1'
_symmetry_Int_Tables_number      2
_space_group_name_Hall           '-P 1'
loop_
_symmetry_equiv_pos_site_id
_symmetry_equiv_pos_as_xyz
1 x,y,z
2 -x,-y,-z
_cell_length_a                   5.7775(15)
_cell_length_b                   9.662(3)
_cell_length_c                   15.240(4)
_cell_angle_alpha                83.418(5)
_cell_angle_beta                 85.575(5)
_cell_angle_gamma                88.364(6)
_cell_volume                     842.437
_exptl_crystal_colour            colorless
_exptl_crystal_description       prismatic
_cell_formula_units_Z            2
loop_
_atom_site_label
_atom_site_type_symbol
_atom_site_fract_x
_atom_site_fract_y
_atom_site_fract_z
Br1 Br -0.66172(15) 0.22028(8) 0.99730(5)
N1 N -0.0758(15) 0.5543(8) 0.7065(4)
C1 C 0.1144(14) 0.6394(8) 0.7203(5)
H1 H 0.1946 0.5827 0.7667
C2 C 0.293(3) 0.6515(14) 0.6427(8)
H2 H 0.3717 0.5703 0.6293
C3 C 0.347(2) 0.7665(14) 0.5927(7)
H3 H 0.2739 0.8492 0.6063
C4 C 0.524(3) 0.7717(15) 0.5128(12)
C5 C 0.524(3) 0.8813(16) 0.4468(9)
H4 H 0.4114 0.9521 0.4477
C6 C 0.703(3) 0.8823(17) 0.3769(11)
H5 H 0.7207 0.9593 0.3346
C7 C 0.846(4) 0.7692(19) 0.3729(16)
H6 H 0.9480 0.7619 0.3232
C8 C 0.841(3) 0.666(2) 0.4426(12)
H7 H 0.9383 0.5875 0.4404
N2 N 0.694(4) 0.679(2) 0.5144(16)
C9 C 0.0479(12) 0.7721(7) 0.7621(4)
C10 C 0.1925(13) 0.8174(8) 0.8207(5)
H8 H 0.3256 0.7654 0.8342
C11 C 0.1442(15) 0.9366(8) 0.8593(5)
H9 H 0.2449 0.9653 0.8981
C12 C -0.0501(15) 1.0135(8) 0.8413(6)
H10 H -0.0819 1.0953 0.8671
C13 C -0.1990(14) 0.9700(9) 0.7850(6)
H11 H -0.3348 1.0208 0.7739
C14 C -0.1481(14) 0.8509(8) 0.7448(5)
H12 H -0.2482 0.8236 0.7054
C15 C -0.2061(13) 0.4763(7) 0.7741(4)
C16 C -0.3778(13) 0.3912(7) 0.7543(4)
H13 H -0.4018 0.3843 0.6954
C17 C -0.5142(12) 0.3161(7) 0.8199(4)
H14 H -0.6337 0.2623 0.8056
C18 C -0.4724(12) 0.3215(7) 0.9063(4)
C19 C -0.2975(13) 0.4004(8) 0.9276(4)
H15 H -0.2680 0.4013 0.9867
C20 C -0.1636(14) 0.4790(7) 0.8622(5)
H16 H -0.0456 0.5334 0.8772
H17 H -0.121(17) 0.571(10) 0.656(3)
H18? H 0.2166 0.5834 0.7573
C21? C 0.199(3) 0.702(3) 0.6224(14)
C22? C 0.414(3) 0.665(2) 0.6001(13)
N3? N 0.755(6) 0.642(4) 0.522(3)
C23? C 0.563(4) 0.714(2) 0.5229(13)
C24? C 0.499(3) 0.799(2) 0.4516(9)
H19? H 0.3473 0.8336 0.4525
C25? C 0.912(4) 0.690(2) 0.4534(13)
H20? H 1.0612 0.6517 0.4551
C26? C 0.873(4) 0.788(3) 0.3815(18)
C27? C 0.650(3) 0.837(2) 0.3750(11)
H21? H 0.6019 0.8910 0.3250
H22? H 0.9928 0.8192 0.3402
H23? H 0.4796 0.5980 0.6397
H24? H 0.1063 0.7582 0.5851
loop_
_geom_bond_atom_site_label_1
_geom_bond_atom_site_label_2
_geom_bond_site_symmetry_1
_geom_bond_site_symmetry_2
Br1 C18 1_555 1_555
N1 C1 1_555 1_555
C1 H1 1_555 1_555
C2 C1 1_555 1_555
H2 C2 1_555 1_555
C3 C2 1_555 1_555
H3 C3 1_555 1_555
C4 C3 1_555 1_555
C5 C4 1_555 1_555
H4 C5 1_555 1_555
C6 C5 1_555 1_555
H5 C6 1_555 1_555
C7 C6 1_555 1_555
H6 C7 1_555 1_555
C8 C7 1_555 1_555
H7 C8 1_555 1_555
N2 C4 1_555 1_555
C9 C1 1_555 1_555
C10 C9 1_555 1_555
H8 C10 1_555 1_555
C11 C10 1_555 1_555
H9 C11 1_555 1_555
C12 C11 1_555 1_555
H10 C12 1_555 1_555
C13 C12 1_555 1_555
H11 C13 1_555 1_555
C14 C9 1_555 1_555
H12 C14 1_555 1_555
C15 N1 1_555 1_555
C16 C15 1_555 1_555
H13 C16 1_555 1_555
C17 C16 1_555 1_555
H14 C17 1_555 1_555
C18 C17 1_555 1_555
C19 C18 1_555 1_555
H15 C19 1_555 1_555
C20 C15 1_555 1_555
H16 C20 1_555 1_555
H17 N1 1_555 1_555
C8 N2 1_555 1_555
C13 C14 1_555 1_555
C19 C20 1_555 1_555

#END
