
#######################################################################
#
#                 Cambridge Crystallographic Data Centre
#                                CCDC 
#
#######################################################################
#
# If this CIF has been generated from an entry in the Cambridge 
# Structural Database, then it will include bibliographic, chemical, 
# crystal, experimental, refinement or atomic coordinate data resulting 
# from the CCDC's data processing and validation procedures.
#
#######################################################################

data_FIFFUW
_chemical_formula_moiety         'C11 H31 N5 O1 4+,4(Cl1 1-),H2 O1'
_chemical_name_systematic        
'13-Ammonio-6-hydroxy-13-methyl-1,4,8,11-tetra-azoniacyclotetradecane tetrachloride monohydrate'
_symmetry_cell_setting           monoclinic
_symmetry_space_group_name_H-M   'P n'
_symmetry_Int_Tables_number      7
_space_group_name_Hall           'P -2yac'
loop_
_symmetry_equiv_pos_site_id
_symmetry_equiv_pos_as_xyz
1 x,y,z
2 1/2+x,-y,1/2+z
_cell_length_a                   7.9370(7)
_cell_length_b                   16.7890(10)
_cell_length_c                   15.4700(10)
_cell_angle_alpha                90
_cell_angle_beta                 100.628(2)
_cell_angle_gamma                90
_cell_volume                     2026.08
_exptl_crystal_colour            colorless
_exptl_crystal_description       prism
_cell_formula_units_Z            4
loop_
_atom_site_label
_atom_site_type_symbol
_atom_site_fract_x
_atom_site_fract_y
_atom_site_fract_z
Cl1 Cl -0.28788 0.45102(7) 0.19127
Cl2 Cl 0.50024(17) 0.51822(6) 0.50010(9)
Cl3 Cl -0.03634(17) 0.28384(7) 0.34222(9)
Cl4 Cl -0.48535(19) 0.67301(7) 0.26455(9)
Cl5 Cl 1.08534(15) 0.95232(7) 0.79638(7)
Cl6 Cl 0.30383(16) 1.02110(7) 0.49040(9)
Cl7 Cl 0.83109(18) 0.78222(7) 0.64823(10)
Cl8 Cl 0.02221(18) 0.79986(8) 0.32079(10)
C1 C -0.0707(6) 0.5531(3) 0.4227(3)
N1 N -0.2478(5) 0.5504(3) 0.3675(3)
C2 C -0.0645(7) 0.6252(3) 0.4825(3)
C3 C 0.0632(6) 0.5618(3) 0.3630(3)
N2 N 0.1017(5) 0.4865(2) 0.3230(3)
C4 C 0.2249(6) 0.4974(3) 0.2637(3)
C5 C 0.2484(6) 0.4204(3) 0.2164(3)
N3 N 0.2941(5) 0.3516(2) 0.2778(3)
C6 C 0.4614(6) 0.3592(3) 0.3392(3)
C7 C 0.5045(6) 0.2878(3) 0.3995(3)
O1 O 0.6734(5) 0.2976(2) 0.4468(3)
C8 C -0.0544(5) 0.4740(3) 0.4728(3)
N4 N 0.1231(5) 0.4566(2) 0.5172(2)
C9 C 0.1354(6) 0.3750(3) 0.5569(3)
C10 C 0.3145(6) 0.3514(3) 0.6002(3)
N5 N 0.4399(5) 0.3394(2) 0.5405(2)
C11 C 0.3918(6) 0.2782(3) 0.4688(3)
H1 H -0.14680 0.61939 0.51967
H2 H -0.08871 0.67196 0.44810
H3 H 0.04688 0.62968 0.51816
H4 H -0.25156 0.51400 0.32259
H5 H -0.27782 0.59990 0.34388
H6 H -0.32551 0.53585 0.40197
H7 H 0.16573 0.58212 0.39715
H8 H 0.01984 0.59839 0.31753
H9 H 0.00129 0.46586 0.29091
H10 H 0.33244 0.51363 0.29854
H11 H 0.18472 0.53845 0.22307
H12 H 0.33672 0.42790 0.18291
H13 H 0.14387 0.40856 0.17728
H14 H 0.20914 0.34581 0.31007
H15 H 0.29849 0.30654 0.24380
H16 H 0.45769 0.40485 0.37346
H17 H 0.54839 0.36436 0.30439
H18 H 0.49017 0.24120 0.36310
H19 H 0.70230 0.27056 0.49947
H20 H -0.09180 0.43182 0.43217
H21 H -0.12646 0.47530 0.51562
H22 H 0.15563 0.49392 0.56074
H23 H 0.19418 0.45982 0.47674
H24 H 0.09351 0.33780 0.51208
H25 H 0.06432 0.37346 0.60065
H26 H 0.35806 0.39161 0.64097
H27 H 0.30614 0.30256 0.63026
H28 H 0.54190 0.32420 0.57415
H29 H 0.45393 0.38771 0.51394
H30 H 0.40559 0.22598 0.49277
H31 H 0.27480 0.28523 0.44076
C12 C 0.8687(5) 1.0488(2) 0.5628(3)
N6 N 1.0449(5) 1.0461(2) 0.6188(3)
C13 C 0.8607(7) 1.1210(3) 0.5027(3)
C14 C 0.7352(6) 1.0574(3) 0.6233(3)
N7 N 0.6949(5) 0.9817(2) 0.6624(3)
C15 C 0.5743(6) 0.9947(3) 0.7219(3)
C16 C 0.5482(7) 0.9191(3) 0.7715(3)
N8 N 0.5011(5) 0.8486(3) 0.7110(3)
C17 C 0.3317(7) 0.8559(3) 0.6505(4)
C18 C 0.2918(7) 0.7839(3) 0.5906(4)
O2 O 0.1159(6) 0.7974(3) 0.5469(3)
C19 C 0.8523(5) 0.9694(3) 0.5126(3)
N9 N 0.6713(5) 0.9535(2) 0.4682(2)
C20 C 0.6539(6) 0.8714(3) 0.4289(3)
C21 C 0.4697(6) 0.8519(3) 0.3867(3)
N10 N 0.3506(5) 0.8416(2) 0.4518(3)
C22 C 0.3971(7) 0.7774(3) 0.5174(4)
H32 H 0.94267 1.11521 0.46521
H33 H 0.74877 1.12406 0.46693
H34 H 0.88307 1.16795 0.53622
H35 H 1.04836 1.00691 0.66029
H36 H 1.06773 1.09477 0.64655
H37 H 1.12463 1.03652 0.58397
H38 H 0.77777 1.09409 0.66936
H39 H 0.63194 1.07848 0.58953
H40 H 0.79449 0.95986 0.69353
H41 H 0.61852 1.03475 0.76424
H42 H 0.46745 1.01106 0.69002
H43 H 0.65277 0.90753 0.81139
H44 H 0.45998 0.92783 0.80404
H45 H 0.58447 0.84252 0.67647
H46 H 0.49886 0.80326 0.74424
H47 H 0.24435 0.86276 0.68354
H48 H 0.33447 0.90260 0.61383
H49 H 0.30065 0.73544 0.62341
H50 H 0.04518 0.78235 0.58542
H51 H 0.92294 0.97147 0.46951
H52 H 0.88957 0.92784 0.55313
H53 H 0.63908 0.99066 0.42427
H54 H 0.59998 0.95813 0.50886
H55 H 0.72347 0.86730 0.38563
H56 H 0.68994 0.83321 0.47412
H57 H 0.42851 0.89478 0.34775
H58 H 0.47022 0.80444 0.35376
H59 H 0.24226 0.83099 0.42023
H60 H 0.34789 0.88892 0.48160
H61 H 0.51679 0.78128 0.54127
H62 H 0.37644 0.72691 0.48842
O4 O 0.6704(5) 0.2657(3) 0.6622(3)
O5 O 1.1768(5) 1.1837(2) 0.6923(3)
O3? O 0.368(2) 0.7015(8) 0.6292(10)
H63? H 0.17132 0.79140 0.57681
loop_
_geom_bond_atom_site_label_1
_geom_bond_atom_site_label_2
_geom_bond_site_symmetry_1
_geom_bond_site_symmetry_2
C1 N1 1_555 1_555
N1 H4 1_555 1_555
C2 C1 1_555 1_555
C3 C1 1_555 1_555
N2 C3 1_555 1_555
C4 N2 1_555 1_555
C5 C4 1_555 1_555
N3 C5 1_555 1_555
C6 N3 1_555 1_555
C7 C6 1_555 1_555
O1 C7 1_555 1_555
C8 C1 1_555 1_555
N4 C8 1_555 1_555
C9 N4 1_555 1_555
C10 C9 1_555 1_555
N5 C10 1_555 1_555
C11 C7 1_555 1_555
C12 N6 1_555 1_555
N6 H35 1_555 1_555
C13 C12 1_555 1_555
C14 C12 1_555 1_555
N7 C14 1_555 1_555
C15 N7 1_555 1_555
C16 C15 1_555 1_555
N8 C16 1_555 1_555
C17 N8 1_555 1_555
C18 C17 1_555 1_555
O2 C18 1_555 1_555
C19 C12 1_555 1_555
N9 C19 1_555 1_555
C20 N9 1_555 1_555
C21 C20 1_555 1_555
N10 C21 1_555 1_555
C22 C18 1_555 1_555
H1 C2 1_555 1_555
H2 C2 1_555 1_555
H3 C2 1_555 1_555
H5 N1 1_555 1_555
H6 N1 1_555 1_555
H7 C3 1_555 1_555
H8 C3 1_555 1_555
H9 N2 1_555 1_555
H10 C4 1_555 1_555
H11 C4 1_555 1_555
H12 C5 1_555 1_555
H13 C5 1_555 1_555
H14 N3 1_555 1_555
H15 N3 1_555 1_555
H16 C6 1_555 1_555
H17 C6 1_555 1_555
H18 C7 1_555 1_555
H19 O1 1_555 1_555
H20 C8 1_555 1_555
H21 C8 1_555 1_555
H22 N4 1_555 1_555
H23 N4 1_555 1_555
H24 C9 1_555 1_555
H25 C9 1_555 1_555
H26 C10 1_555 1_555
H27 C10 1_555 1_555
H28 N5 1_555 1_555
H29 N5 1_555 1_555
H30 C11 1_555 1_555
H31 C11 1_555 1_555
H32 C13 1_555 1_555
H33 C13 1_555 1_555
H34 C13 1_555 1_555
H36 N6 1_555 1_555
H37 N6 1_555 1_555
H38 C14 1_555 1_555
H39 C14 1_555 1_555
H40 N7 1_555 1_555
H41 C15 1_555 1_555
H42 C15 1_555 1_555
H43 C16 1_555 1_555
H44 C16 1_555 1_555
H45 N8 1_555 1_555
H46 N8 1_555 1_555
H47 C17 1_555 1_555
H48 C17 1_555 1_555
H49 C18 1_555 1_555
H50 O2 1_555 1_555
H51 C19 1_555 1_555
H52 C19 1_555 1_555
H53 N9 1_555 1_555
H54 N9 1_555 1_555
H55 C20 1_555 1_555
H56 C20 1_555 1_555
H57 C21 1_555 1_555
H58 C21 1_555 1_555
H59 N10 1_555 1_555
H60 N10 1_555 1_555
H61 C22 1_555 1_555
H62 C22 1_555 1_555
N5 C11 1_555 1_555
N10 C22 1_555 1_555

#END
