
#######################################################################
#
#                 Cambridge Crystallographic Data Centre
#                                CCDC 
#
#######################################################################
#
# If this CIF has been generated from an entry in the Cambridge 
# Structural Database, then it will include bibliographic, chemical, 
# crystal, experimental, refinement or atomic coordinate data resulting 
# from the CCDC's data processing and validation procedures.
#
#######################################################################

data_FIFKIQ
_chemical_formula_moiety         'C25 H23 B1 N2 S2'
_chemical_name_systematic        
(1,3-Dimethyl-1H-imidazol-3-ium-2-yl)(hydrido)bis(naphthalene-2-thiolato)boron
_symmetry_cell_setting           monoclinic
_symmetry_space_group_name_H-M   'P 21/c'
_symmetry_Int_Tables_number      14
_space_group_name_Hall           '-P 2ybc'
loop_
_symmetry_equiv_pos_site_id
_symmetry_equiv_pos_as_xyz
1 x,y,z
2 -x,1/2+y,1/2-z
3 -x,-y,-z
4 x,1/2-y,1/2+z
_cell_length_a                   14.633(3)
_cell_length_b                   13.019(2)
_cell_length_c                   12.519(2)
_cell_angle_alpha                90
_cell_angle_beta                 114.516(5)
_cell_angle_gamma                90
_cell_volume                     2169.94
_exptl_crystal_colour            colorless
_exptl_crystal_description       block
_cell_formula_units_Z            4
loop_
_atom_site_label
_atom_site_type_symbol
_atom_site_fract_x
_atom_site_fract_y
_atom_site_fract_z
B1 B 0.8837(3) 0.8811(3) 0.6940(3)
S1 S 0.75217(7) 0.90401(7) 0.56371(7)
S2 S 0.97082(7) 0.97806(8) 0.66475(8)
N1 N 0.9116(2) 0.8293(3) 0.9130(3)
N2 N 0.8565(2) 0.9843(2) 0.8633(2)
C1 C 0.8823(2) 0.8973(3) 0.8215(3)
C2 C 0.9035(3) 0.8761(4) 1.0088(3)
C3 C 0.8695(3) 0.9721(4) 0.9783(3)
C4 C 0.9411(3) 0.7213(3) 0.9138(4)
C5 C 0.8192(3) 1.0795(3) 0.7964(3)
C6 C 1.0905(3) 0.9178(3) 0.7194(3)
C7 C 1.1249(3) 0.8469(3) 0.8094(3)
C8 C 1.2230(3) 0.8053(3) 0.8515(3)
C9 C 1.2616(3) 0.7346(3) 0.9475(3)
C10 C 1.3570(3) 0.6967(3) 0.9858(3)
C11 C 1.4204(3) 0.7252(3) 0.9299(3)
C12 C 1.3859(3) 0.7924(3) 0.8371(3)
C13 C 1.2876(3) 0.8337(3) 0.7953(3)
C14 C 1.2500(3) 0.9057(3) 0.7009(3)
C15 C 1.1550(3) 0.9464(3) 0.6635(3)
C16 C 0.7087(2) 0.7761(3) 0.5202(3)
C17 C 0.6701(2) 0.7492(3) 0.4029(3)
C18 C 0.6295(2) 0.6485(3) 0.3645(3)
C19 C 0.5904(3) 0.6173(3) 0.2445(3)
C20 C 0.5512(3) 0.5212(3) 0.2110(3)
C21 C 0.5472(3) 0.4504(3) 0.2949(4)
C22 C 0.5849(3) 0.4772(3) 0.4119(3)
C23 C 0.6280(2) 0.5766(3) 0.4504(3)
C24 C 0.6688(3) 0.6058(3) 0.5707(3)
C25 C 0.7085(3) 0.7027(3) 0.6048(3)
H1 H 0.9071 0.8012 0.6898
H2 H 0.9199 0.8453 1.0808
H3 H 0.8577 1.0225 1.0240
H4 H 0.8986 0.6786 0.9376
H5 H 1.0096 0.7124 0.9699
H6 H 0.9339 0.7017 0.8362
H7 H 0.8108 1.1299 0.8472
H8 H 0.8683 1.1032 0.7698
H9 H 0.7565 1.0673 0.7296
H10 H 1.0823 0.8268 0.8442
H11 H 1.2201 0.7135 0.9840
H12 H 1.3807 0.6507 1.0488
H13 H 1.4851 0.6988 0.9572
H14 H 1.4266 0.8108 0.7995
H15 H 1.2910 0.9255 0.6631
H16 H 1.1319 0.9920 0.6010
H17 H 0.6704 0.7969 0.3467
H18 H 0.5926 0.6627 0.1880
H19 H 0.5260 0.5012 0.1317
H20 H 0.5195 0.3845 0.2708
H21 H 0.5837 0.4309 0.4675
H22 H 0.6699 0.5591 0.6283
H23 H 0.7378 0.7203 0.6851
loop_
_geom_bond_atom_site_label_1
_geom_bond_atom_site_label_2
_geom_bond_site_symmetry_1
_geom_bond_site_symmetry_2
B1 S1 1_555 1_555
S1 C16 1_555 1_555
S2 B1 1_555 1_555
N1 C1 1_555 1_555
N2 C1 1_555 1_555
C1 B1 1_555 1_555
C2 N1 1_555 1_555
C3 N2 1_555 1_555
C4 N1 1_555 1_555
C5 N2 1_555 1_555
C6 S2 1_555 1_555
C7 C6 1_555 1_555
C8 C7 1_555 1_555
C9 C8 1_555 1_555
C10 C9 1_555 1_555
C11 C10 1_555 1_555
C12 C11 1_555 1_555
C13 C8 1_555 1_555
C14 C13 1_555 1_555
C15 C6 1_555 1_555
C16 C17 1_555 1_555
C17 C18 1_555 1_555
C18 C19 1_555 1_555
C19 C20 1_555 1_555
C20 C21 1_555 1_555
C21 C22 1_555 1_555
C22 C23 1_555 1_555
C23 C18 1_555 1_555
C24 C23 1_555 1_555
C25 C16 1_555 1_555
H1 B1 1_555 1_555
H2 C2 1_555 1_555
H3 C3 1_555 1_555
H4 C4 1_555 1_555
H5 C4 1_555 1_555
H6 C4 1_555 1_555
H7 C5 1_555 1_555
H8 C5 1_555 1_555
H9 C5 1_555 1_555
H10 C7 1_555 1_555
H11 C9 1_555 1_555
H12 C10 1_555 1_555
H13 C11 1_555 1_555
H14 C12 1_555 1_555
H15 C14 1_555 1_555
H16 C15 1_555 1_555
H17 C17 1_555 1_555
H18 C19 1_555 1_555
H19 C20 1_555 1_555
H20 C21 1_555 1_555
H21 C22 1_555 1_555
H22 C24 1_555 1_555
H23 C25 1_555 1_555
C2 C3 1_555 1_555
C12 C13 1_555 1_555
C14 C15 1_555 1_555
C24 C25 1_555 1_555

#END
