
#######################################################################
#
#                 Cambridge Crystallographic Data Centre
#                                CCDC 
#
#######################################################################
#
# If this CIF has been generated from an entry in the Cambridge 
# Structural Database, then it will include bibliographic, chemical, 
# crystal, experimental, refinement or atomic coordinate data resulting 
# from the CCDC's data processing and validation procedures.
#
#######################################################################

data_FIFKUD
_chemical_name_common            
'bis(8-(2-(pyridine-2-yl)-imidazo[1,2-a]pyridine)-1,3,5,7-tetramethyl-4,4-difluoroboradiazaindacene) 2,3,5,6-tetrachlorobenzene-1,4-diol'
_chemical_formula_moiety         '2(C25 H22 B1 F2 N5),C6 H2 Cl4 O2'
_chemical_name_systematic        
'bis({3-[(3,5-dimethyl-1H-pyrrol-2-yl)(3,5-dimethyl-2H-pyrrol-2-ylidene)methyl]-2-(pyridin-2-yl)imidazo[1,2-a]pyridinato}(difluoro)boron) 2,3,5,6-tetrachlorobenzene-1,4-diol'
_symmetry_cell_setting           monoclinic
_symmetry_space_group_name_H-M   'P 21/c'
_symmetry_Int_Tables_number      14
_space_group_name_Hall           '-P 2ybc'
loop_
_symmetry_equiv_pos_site_id
_symmetry_equiv_pos_as_xyz
1 x,y,z
2 -x,1/2+y,1/2-z
3 -x,-y,-z
4 x,1/2-y,1/2+z
_cell_length_a                   9.2979(19)
_cell_length_b                   18.898(4)
_cell_length_c                   15.077(3)
_cell_angle_alpha                90
_cell_angle_beta                 92.80(3)
_cell_angle_gamma                90
_cell_volume                     2646.04
_exptl_crystal_colour            'light red'
_exptl_crystal_description       block
_cell_formula_units_Z            2
loop_
_atom_site_label
_atom_site_type_symbol
_atom_site_fract_x
_atom_site_fract_y
_atom_site_fract_z
F1 F 0.7910(3) 0.45305(12) 0.63517(16)
F2 F 0.5918(3) 0.44030(11) 0.54279(17)
N1 N 0.7489(3) 0.53876(12) 0.51819(16)
N2 N 0.5968(3) 0.53525(13) 0.64895(17)
N3 N 0.5112(3) 0.75270(14) 0.53959(18)
C1 C 0.7371(3) 0.61237(15) 0.51699(19)
C2 C 0.5950(3) 0.60912(15) 0.64824(19)
N4 N 0.6502(3) 0.84460(14) 0.58116(19)
C3 C 0.5098(3) 0.63286(18) 0.7202(2)
C4 C 0.6630(3) 0.64682(14) 0.58224(19)
C5 C 0.8058(4) 0.63826(18) 0.4408(2)
N5 N 0.9295(4) 0.84974(16) 0.6569(3)
C6 C 0.8210(4) 0.51853(18) 0.4464(2)
C7 C 0.4622(4) 0.5713(2) 0.7591(2)
H1 H 0.4030 0.5693 0.8070
C8 C 0.8672(3) 0.78701(18) 0.6433(2)
C9 C 0.5204(4) 0.82505(17) 0.5440(2)
C10 C 0.5163(4) 0.51278(19) 0.7155(2)
C11 C 0.3918(3) 0.71865(18) 0.5055(2)
H2 H 0.3895 0.6695 0.5024
C12 C 0.6402(3) 0.72531(16) 0.5761(2)
C13 C 0.4030(4) 0.8656(2) 0.5127(3)
H3 H 0.4079 0.9147 0.5144
C14 C 0.8532(5) 0.4436(2) 0.4246(3)
H4 H 0.8738 0.4177 0.4784
H5 H 0.9351 0.4419 0.3883
H6 H 0.7714 0.4230 0.3930
C15 C 0.8571(4) 0.5794(2) 0.3986(2)
H7 H 0.9074 0.5798 0.3468
C16 C 0.7212(4) 0.78316(16) 0.5995(2)
C17 C 0.4829(5) 0.7062(2) 0.7498(3)
H8 H 0.5732 0.7303 0.7601
H9 H 0.4323 0.7052 0.8037
H10 H 0.4260 0.7307 0.7047
C18 C 0.2825(4) 0.8331(2) 0.4800(3)
H11 H 0.2036 0.8599 0.4600
C19 C 0.2761(4) 0.7575(2) 0.4759(3)
H12 H 0.1932 0.7351 0.4532
B1 B 0.6830(4) 0.48902(18) 0.5867(3)
C20 C 0.8227(5) 0.7128(2) 0.4101(3)
H13 H 0.7298 0.7349 0.4039
H14 H 0.8667 0.7130 0.3538
H15 H 0.8823 0.7384 0.4528
C21 C 0.9382(4) 0.7239(2) 0.6722(3)
H16 H 0.8969 0.6797 0.6623
C22 C 1.1336(4) 0.7970(2) 0.7256(3)
H17 H 1.2254 0.8020 0.7522
C23 C 1.0717(5) 0.7315(2) 0.7156(4)
H18 H 1.1200 0.6918 0.7382
C24 C 1.0589(5) 0.8534(2) 0.6964(3)
H19 H 1.1007 0.8978 0.7042
C25 C 0.4965(6) 0.4370(2) 0.7376(3)
H20 H 0.4911 0.4096 0.6839
H21 H 0.4091 0.4313 0.7682
H22 H 0.5766 0.4210 0.7750
C26 C 0.8911(4) 0.96739(19) 0.4501(3)
O1 O 0.7350(3) 0.97994(13) 0.5712(2)
H23 H 0.7241 0.9383 0.5847
C27 C 0.9770(4) 1.02146(17) 0.5857(2)
C28 C 0.8634(4) 0.98824(17) 0.5365(2)
Cl1 Cl 0.75201(14) 0.92865(7) 0.38700(9)
Cl2 Cl 0.94560(14) 1.04664(6) 0.69291(7)
C26B C 1.1089(4) 1.03261(19) 0.5499(3)
O1B O 1.2650(3) 1.02006(13) 0.4288(2)
H23B H 1.2759 1.0617 0.4153
C27B C 1.0230(4) 0.97854(17) 0.4143(2)
C28B C 1.1366(4) 1.01176(17) 0.4635(2)
Cl1B Cl 1.24799(14) 1.07135(7) 0.61300(9)
Cl2B Cl 1.05440(14) 0.95336(6) 0.30709(7)
loop_
_geom_bond_atom_site_label_1
_geom_bond_atom_site_label_2
_geom_bond_site_symmetry_1
_geom_bond_site_symmetry_2
F1 B1 1_555 1_555
F2 B1 1_555 1_555
N1 C1 1_555 1_555
N2 C2 1_555 1_555
N3 C9 1_555 1_555
C1 C4 1_555 1_555
C2 C3 1_555 1_555
N4 C9 1_555 1_555
C3 C7 1_555 1_555
C4 C2 1_555 1_555
C5 C1 1_555 1_555
N5 C8 1_555 1_555
C6 N1 1_555 1_555
C7 H1 1_555 1_555
C8 C16 1_555 1_555
C9 C13 1_555 1_555
C10 N2 1_555 1_555
C11 N3 1_555 1_555
H2 C11 1_555 1_555
C12 N3 1_555 1_555
C13 H3 1_555 1_555
C14 C6 1_555 1_555
H4 C14 1_555 1_555
H5 C14 1_555 1_555
H6 C14 1_555 1_555
C15 C5 1_555 1_555
H7 C15 1_555 1_555
C16 N4 1_555 1_555
C17 C3 1_555 1_555
H8 C17 1_555 1_555
H9 C17 1_555 1_555
H10 C17 1_555 1_555
C18 C13 1_555 1_555
H11 C18 1_555 1_555
C19 C11 1_555 1_555
H12 C19 1_555 1_555
B1 N1 1_555 1_555
C20 C5 1_555 1_555
H13 C20 1_555 1_555
H14 C20 1_555 1_555
H15 C20 1_555 1_555
C21 C8 1_555 1_555
H16 C21 1_555 1_555
C22 H17 1_555 1_555
C23 C21 1_555 1_555
H18 C23 1_555 1_555
C24 N5 1_555 1_555
H19 C24 1_555 1_555
C25 C10 1_555 1_555
H20 C25 1_555 1_555
H21 C25 1_555 1_555
H22 C25 1_555 1_555
C26 C28 1_555 1_555
O1 H23 1_555 1_555
C27 C28 1_555 1_555
C28 O1 1_555 1_555
Cl1 C26 1_555 1_555
Cl2 C27 1_555 1_555
C26B C27 1_555 1_555
O1B H23B 1_555 1_555
C27B C26 1_555 1_555
C28B C26B 1_555 1_555
Cl1B C26B 1_555 1_555
Cl2B C27B 1_555 1_555
N2 B1 1_555 1_555
C4 C12 1_555 1_555
C6 C15 1_555 1_555
C7 C10 1_555 1_555
C12 C16 1_555 1_555
C18 C19 1_555 1_555
C22 C23 1_555 1_555
C22 C24 1_555 1_555
O1B C28B 1_555 1_555
C27B C28B 1_555 1_555

#END
