
#######################################################################
#
#                 Cambridge Crystallographic Data Centre
#                                CCDC 
#
#######################################################################
#
# If this CIF has been generated from an entry in the Cambridge 
# Structural Database, then it will include bibliographic, chemical, 
# crystal, experimental, refinement or atomic coordinate data resulting 
# from the CCDC's data processing and validation procedures.
#
#######################################################################

data_FIFLOV
_chemical_formula_moiety         'C8 H11 N3 O1 S1'
_chemical_name_systematic        4-(4-Methoxyphenyl)thiosemicarbazide
_chemical_properties_biological  'antibacterial activity'
_symmetry_cell_setting           monoclinic
_symmetry_space_group_name_H-M   'P 21/c'
_symmetry_Int_Tables_number      14
_space_group_name_Hall           '-P 2ybc'
loop_
_symmetry_equiv_pos_site_id
_symmetry_equiv_pos_as_xyz
1 x,y,z
2 -x,1/2+y,1/2-z
3 -x,-y,-z
4 x,1/2-y,1/2+z
_cell_length_a                   13.105(1)
_cell_length_b                   5.759(1)
_cell_length_c                   13.056(1)
_cell_angle_alpha                90
_cell_angle_beta                 99.71(2)
_cell_angle_gamma                90
_cell_volume                     971.242
_exptl_crystal_colour            colorless
_cell_formula_units_Z            4
loop_
_atom_site_label
_atom_site_type_symbol
_atom_site_fract_x
_atom_site_fract_y
_atom_site_fract_z
S1 S 0.0764(1) 0.4554(2) 0.3641(1)
O1 O 0.4130(2) 0.0873(4) 0.0966(2)
N1 N 0.1988(2) 0.0942(5) 0.4298(2)
N2 N 0.0871(2) 0.2075(4) 0.5345(2)
N3 N 0.1278(2) 0.0309(5) 0.6043(2)
C1 C 0.2516(2) 0.1023(5) 0.3425(2)
C2 C 0.2362(2) -0.0710(5) 0.2691(3)
C3 C 0.2910(3) -0.0688(5) 0.1871(3)
C4 C 0.3611(2) 0.1053(5) 0.1790(2)
C5 C 0.3771(2) 0.2797(5) 0.2522(2)
C6 C 0.3217(2) 0.2766(5) 0.3339(2)
C7 C 0.1249(2) 0.2430(5) 0.4472(2)
C8 C 0.4798(3) 0.2695(7) 0.0808(3)
H1 H 0.189(4) -0.171(10) 0.276(4)
H2 H 0.284(3) -0.194(8) 0.135(3)
H3 H 0.427(3) 0.397(8) 0.250(3)
H4 H 0.336(3) 0.385(7) 0.391(3)
H5 H 0.539(3) 0.285(8) 0.136(4)
H6 H 0.442(3) 0.409(8) 0.077(3)
H7 H 0.510(3) 0.233(7) 0.018(3)
H8 H 0.215(3) -0.015(9) 0.472(3)
H9 H 0.044(4) 0.304(9) 0.547(4)
H10 H 0.133(5) 0.115(9) 0.664(4)
H11 H 0.145 -0.126 0.593
loop_
_geom_bond_atom_site_label_1
_geom_bond_atom_site_label_2
_geom_bond_site_symmetry_1
_geom_bond_site_symmetry_2
S1 C7 1_555 1_555
O1 C4 1_555 1_555
N1 C1 1_555 1_555
N2 N3 1_555 1_555
N3 H10 1_555 1_555
C1 C2 1_555 1_555
C2 C3 1_555 1_555
C3 C4 1_555 1_555
C4 C5 1_555 1_555
C5 C6 1_555 1_555
C6 C1 1_555 1_555
C7 N1 1_555 1_555
C8 O1 1_555 1_555
H1 C2 1_555 1_555
H2 C3 1_555 1_555
H3 C5 1_555 1_555
H4 C6 1_555 1_555
H5 C8 1_555 1_555
H6 C8 1_555 1_555
H7 C8 1_555 1_555
H8 N1 1_555 1_555
H9 N2 1_555 1_555
H11 N3 1_555 1_555
N2 C7 1_555 1_555

#END
