
#######################################################################
#
#                 Cambridge Crystallographic Data Centre
#                                CCDC 
#
#######################################################################
#
# If this CIF has been generated from an entry in the Cambridge 
# Structural Database, then it will include bibliographic, chemical, 
# crystal, experimental, refinement or atomic coordinate data resulting 
# from the CCDC's data processing and validation procedures.
#
#######################################################################

data_FIFMOW
_chemical_formula_moiety         'C23 H31 N5 O4 Si1,H2 O1'
_chemical_name_systematic        
"N-Benzoyl-5'-O-t-butyldimethylsilyl-2'-deoxyadenosine monohydrate"
_symmetry_cell_setting           orthorhombic
_symmetry_space_group_name_H-M   'P 21 21 21'
_symmetry_Int_Tables_number      19
_space_group_name_Hall           'P 2ac 2ab'
loop_
_symmetry_equiv_pos_site_id
_symmetry_equiv_pos_as_xyz
1 x,y,z
2 1/2+x,1/2-y,-z
3 -x,1/2+y,1/2-z
4 1/2-x,-y,1/2+z
_cell_length_a                   18.642(2)
_cell_length_b                   8.032(1)
_cell_length_c                   16.825(2)
_cell_angle_alpha                90
_cell_angle_beta                 90
_cell_angle_gamma                90
_cell_volume                     2519.25
_cell_formula_units_Z            4
loop_
_atom_site_label
_atom_site_type_symbol
_atom_site_fract_x
_atom_site_fract_y
_atom_site_fract_z
C1 C 0.3011(8) 0.2071(16) 0.3222(7)
C2 C 0.2498(7) 0.592(2) 0.3139(8)
C3 C 0.3762(7) 0.6115(19) 0.3548(7)
C4 C 0.3434(10) 0.6973(15) 0.2141(7)
C5 C 0.4356(6) 0.304(2) 0.2299(8)
Si1 Si 0.33964(15) 0.3555(4) 0.24887(16)
C6 C 0.3278(6) 0.5723(14) 0.2850(6)
O1 O 0.2931(4) 0.3234(9) 0.1663(3)
C7 C 0.2194(5) 0.0114(11) 0.0185(6)
C8 C 0.2952(5) -0.0615(13) 0.0059(6)
C9 C 0.3415(5) 0.0697(12) 0.0516(5)
O2 O 0.4137(3) 0.0688(9) 0.0288(4)
C10 C 0.3028(5) 0.2325(12) 0.0312(5)
O3 O 0.2275(3) 0.1886(7) 0.0283(4)
C11 C 0.3134(6) 0.3729(13) 0.0899(5)
N1 N 0.0799(5) -0.4738(10) 0.1375(4)
C12 C 0.1086(6) -0.4494(16) 0.0660(6)
N2 N 0.1472(4) -0.3169(11) 0.0398(4)
C13 C 0.1517(5) -0.2040(12) 0.0983(5)
C14 C 0.1255(5) -0.2126(13) 0.1732(5)
C15 C 0.0899(5) -0.3620(13) 0.1937(5)
N3 N 0.1408(4) -0.0676(10) 0.2160(4)
C16 C 0.1764(5) 0.0243(14) 0.1637(5)
N4 N 0.1857(4) -0.0513(11) 0.0924(4)
N5 N 0.0658(4) -0.3844(10) 0.2709(4)
C17 C 0.0566(5) -0.5394(14) 0.3083(5)
O4 O 0.0708(5) -0.6717(10) 0.2752(4)
C18 C 0.0296(5) -0.5314(13) 0.3894(5)
C19 C 0.0477(5) -0.6596(14) 0.4389(5)
C20 C 0.0232(6) -0.6615(16) 0.5181(6)
C21 C -0.0198(6) -0.5335(16) 0.5465(6)
C22 C -0.0377(6) -0.4038(16) 0.4945(6)
C23 C -0.0133(5) -0.4010(14) 0.4160(6)
H1 H 0.3282(8) 0.2196(16) 0.3786(7)
H2 H 0.3068(8) 0.0811(16) 0.3008(7)
H3 H 0.2449(8) 0.2357(16) 0.3296(7)
H4 H 0.2133(7) 0.563(2) 0.2660(8)
H5 H 0.2412(7) 0.719(2) 0.3329(8)
H6 H 0.2403(7) 0.509(2) 0.3632(8)
H7 H 0.4316(7) 0.5989(19) 0.3369(7)
H8 H 0.3653(7) 0.5279(19) 0.4036(7)
H9 H 0.3663(7) 0.7381(19) 0.3733(7)
H10 H 0.3095(10) 0.6692(15) 0.1638(7)
H11 H 0.3989(10) 0.6822(15) 0.1973(7)
H12 H 0.3343(10) 0.8242(15) 0.2328(7)
H13 H 0.4669(6) 0.323(2) 0.2832(8)
H14 H 0.4572(6) 0.379(2) 0.1824(8)
H15 H 0.4379(6) 0.174(2) 0.2133(8)
H16 H 0.1864(5) -0.0285(11) -0.0307(6)
H17 H 0.3012(5) -0.1842(13) 0.0314(6)
H18 H 0.3087(5) -0.0656(13) -0.0565(6)
H19 H 0.3459(5) 0.0448(12) 0.1145(5)
H20 H 0.4715(3) 0.0626(9) 0.0258(4)
H21 H 0.3250(5) 0.2803(12) -0.0235(5)
H22 H 0.2799(6) 0.4760(13) 0.0720(5)
H23 H 0.3690(6) 0.4108(13) 0.0890(5)
H24 H 0.0991(6) -0.5470(16) 0.0231(6)
H25 H 0.1958(5) 0.1480(14) 0.1769(5)
H26 H 0.0574(4) -0.2558(10) 0.2871(4)
H27 H 0.0814(5) -0.7595(14) 0.4176(5)
H28 H 0.0363(6) -0.7646(16) 0.5566(6)
H29 H -0.0387(6) -0.5344(16) 0.6072(6)
H30 H -0.0701(6) -0.3026(16) 0.5167(6)
H31 H -0.0276(5) -0.2998(14) 0.3768(6)
O5 O 0.0701(3) -0.0728(8) 0.3611(3)
loop_
_geom_bond_atom_site_label_1
_geom_bond_atom_site_label_2
_geom_bond_site_symmetry_1
_geom_bond_site_symmetry_2
C1 Si1 1_555 1_555
C2 C6 1_555 1_555
C3 C6 1_555 1_555
C4 C6 1_555 1_555
C5 Si1 1_555 1_555
Si1 C6 1_555 1_555
O1 Si1 1_555 1_555
C7 C8 1_555 1_555
C8 C9 1_555 1_555
C9 O2 1_555 1_555
O2 H20 1_555 1_555
C10 C9 1_555 1_555
O3 C7 1_555 1_555
C11 O1 1_555 1_555
N1 C12 1_555 1_555
C12 N2 1_555 1_555
N2 C13 1_555 1_555
C13 C14 1_555 1_555
C14 C15 1_555 1_555
C15 N1 1_555 1_555
N3 C14 1_555 1_555
C16 N3 1_555 1_555
N4 C7 1_555 1_555
N5 C15 1_555 1_555
C17 N5 1_555 1_555
O4 C17 1_555 1_555
C18 C17 1_555 1_555
C19 C18 1_555 1_555
C20 C19 1_555 1_555
C21 C20 1_555 1_555
C22 C21 1_555 1_555
C23 C18 1_555 1_555
H1 C1 1_555 1_555
H2 C1 1_555 1_555
H3 C1 1_555 1_555
H4 C2 1_555 1_555
H5 C2 1_555 1_555
H6 C2 1_555 1_555
H7 C3 1_555 1_555
H8 C3 1_555 1_555
H9 C3 1_555 1_555
H10 C4 1_555 1_555
H11 C4 1_555 1_555
H12 C4 1_555 1_555
H13 C5 1_555 1_555
H14 C5 1_555 1_555
H15 C5 1_555 1_555
H16 C7 1_555 1_555
H17 C8 1_555 1_555
H18 C8 1_555 1_555
H19 C9 1_555 1_555
H21 C10 1_555 1_555
H22 C11 1_555 1_555
H23 C11 1_555 1_555
H24 C12 1_555 1_555
H25 C16 1_555 1_555
H26 N5 1_555 1_555
H27 C19 1_555 1_555
H28 C20 1_555 1_555
H29 C21 1_555 1_555
H30 C22 1_555 1_555
H31 C23 1_555 1_555
C10 O3 1_555 1_555
C10 C11 1_555 1_555
C13 N4 1_555 1_555
C16 N4 1_555 1_555
C22 C23 1_555 1_555

#END
