
#######################################################################
#
#                 Cambridge Crystallographic Data Centre
#                                CCDC 
#
#######################################################################
#
# If this CIF has been generated from an entry in the Cambridge 
# Structural Database, then it will include bibliographic, chemical, 
# crystal, experimental, refinement or atomic coordinate data resulting 
# from the CCDC's data processing and validation procedures.
#
#######################################################################

data_FIFQUJ
_chemical_formula_moiety         'C25 H20 Br1 N1 O4'
_chemical_name_systematic        
4-(4-bromophenyl)-5-[hydroxy(4-nitrophenyl)methyl]-2-methyl-3-phenylcyclopent-2-en-1-one
_symmetry_cell_setting           monoclinic
_symmetry_space_group_name_H-M   'P 21/c'
_symmetry_Int_Tables_number      14
_space_group_name_Hall           '-P 2ybc'
loop_
_symmetry_equiv_pos_site_id
_symmetry_equiv_pos_as_xyz
1 x,y,z
2 -x,1/2+y,1/2-z
3 -x,-y,-z
4 x,1/2-y,1/2+z
_cell_length_a                   13.4838(8)
_cell_length_b                   10.1833(4)
_cell_length_c                   15.4679(9)
_cell_angle_alpha                90
_cell_angle_beta                 95.233(5)
_cell_angle_gamma                90
_cell_volume                     2115.04
_exptl_crystal_colour            'light yellow'
_exptl_crystal_description       plate
_chemical_melting_point          '401-403 K'
_cell_formula_units_Z            4
_exptl_crystal_recrystallization_method ether
loop_
_atom_site_label
_atom_site_type_symbol
_atom_site_fract_x
_atom_site_fract_y
_atom_site_fract_z
Br1 Br 0.69023(2) -0.07457(2) 0.54117(2)
O1 O 0.98880(13) 0.68228(18) 0.74924(12)
O2 O 0.88695(14) 0.54902(18) 0.87409(11)
H1 H 0.935751 0.594216 0.861574
O3 O 0.41507(13) 0.22018(18) 0.83735(14)
O4 O 0.51859(15) 0.1007(2) 0.91662(16)
N1 N 0.49965(16) 0.1955(2) 0.86982(15)
C1 C 0.92950(17) 0.6269(2) 0.69635(17)
C2 C 0.91413(16) 0.6543(2) 0.60344(16)
C3 C 0.83541(16) 0.5838(2) 0.56832(16)
C4 C 0.78475(17) 0.5054(2) 0.63629(15)
H2 H 0.721153 0.550771 0.646692
C5 C 0.85755(17) 0.5194(2) 0.71906(15)
H3 H 0.895740 0.435577 0.727879
C6 C 0.97490(19) 0.7549(3) 0.56175(18)
H4 H 1.038270 0.715833 0.548706
H5 H 0.987858 0.829250 0.601390
H6 H 0.938424 0.785544 0.507822
C7 C 0.79747(17) 0.5849(2) 0.47598(16)
C8 C 0.86186(19) 0.5651(2) 0.41149(17)
H7 H 0.930439 0.548991 0.427722
C9 C 0.8279(2) 0.5684(2) 0.32456(18)
H8 H 0.872483 0.552240 0.281631
C10 C 0.7286(2) 0.5953(2) 0.30012(18)
H9 H 0.705060 0.599716 0.240401
C11 C 0.6640(2) 0.6158(2) 0.36334(18)
H10 H 0.595979 0.635005 0.346693
C12 C 0.69720(18) 0.6086(2) 0.45046(17)
H11 H 0.651512 0.619905 0.493130
C13 C 0.76068(16) 0.3647(2) 0.61072(15)
C14 C 0.83579(18) 0.2762(2) 0.59748(16)
H12 H 0.903015 0.305280 0.603091
C15 C 0.8151(2) 0.1458(2) 0.57617(17)
H13 H 0.867252 0.086312 0.566457
C16 C 0.7175(2) 0.1049(2) 0.56949(16)
C17 C 0.64092(19) 0.1891(3) 0.58202(17)
H14 H 0.574026 0.158664 0.577152
C18 C 0.66257(17) 0.3196(2) 0.60197(16)
H15 H 0.609803 0.379055 0.609744
C19 C 0.81109(18) 0.5521(2) 0.80348(16)
H16 H 0.782236 0.642578 0.798737
C20 C 0.73010(17) 0.4568(2) 0.82171(15)
C21 C 0.75159(18) 0.3282(2) 0.84697(17)
H17 H 0.818806 0.299046 0.852582
C22 C 0.67697(18) 0.2423(2) 0.86398(17)
H18 H 0.692097 0.155407 0.883257
C23 C 0.57988(17) 0.2853(2) 0.85238(16)
C24 C 0.55510(18) 0.4115(2) 0.82600(17)
H19 H 0.487487 0.438663 0.817817
C25 C 0.63097(18) 0.4968(2) 0.81189(17)
H20 H 0.615485 0.584772 0.795142
loop_
_geom_bond_atom_site_label_1
_geom_bond_atom_site_label_2
_geom_bond_site_symmetry_1
_geom_bond_site_symmetry_2
Br1 C16 1_555 1_555
O1 C1 1_555 1_555
O2 H1 1_555 1_555
O3 N1 1_555 1_555
O4 N1 1_555 1_555
N1 C23 1_555 1_555
C1 C2 1_555 1_555
C2 C3 1_555 1_555
C3 C4 1_555 1_555
C4 H2 1_555 1_555
C5 C1 1_555 1_555
H3 C5 1_555 1_555
C6 C2 1_555 1_555
H4 C6 1_555 1_555
H5 C6 1_555 1_555
H6 C6 1_555 1_555
C7 C3 1_555 1_555
C8 C7 1_555 1_555
H7 C8 1_555 1_555
C9 C8 1_555 1_555
H8 C9 1_555 1_555
C10 C9 1_555 1_555
H9 C10 1_555 1_555
C11 C10 1_555 1_555
H10 C11 1_555 1_555
C12 C7 1_555 1_555
H11 C12 1_555 1_555
C13 C4 1_555 1_555
C14 C13 1_555 1_555
H12 C14 1_555 1_555
C15 C14 1_555 1_555
H13 C15 1_555 1_555
C16 C15 1_555 1_555
C17 C16 1_555 1_555
H14 C17 1_555 1_555
C18 C13 1_555 1_555
H15 C18 1_555 1_555
C19 O2 1_555 1_555
H16 C19 1_555 1_555
C20 C19 1_555 1_555
C21 C20 1_555 1_555
H17 C21 1_555 1_555
C22 C21 1_555 1_555
H18 C22 1_555 1_555
C23 C22 1_555 1_555
C24 C23 1_555 1_555
H19 C24 1_555 1_555
C25 C20 1_555 1_555
H20 C25 1_555 1_555
C4 C5 1_555 1_555
C5 C19 1_555 1_555
C11 C12 1_555 1_555
C17 C18 1_555 1_555
C24 C25 1_555 1_555

#END
