
#######################################################################
#
#                 Cambridge Crystallographic Data Centre
#                                CCDC 
#
#######################################################################
#
# If this CIF has been generated from an entry in the Cambridge 
# Structural Database, then it will include bibliographic, chemical, 
# crystal, experimental, refinement or atomic coordinate data resulting 
# from the CCDC's data processing and validation procedures.
#
#######################################################################

data_FIFSOF
_chemical_formula_moiety         'C26 H25 N1 O4'
_chemical_name_systematic        
5-[hydroxy(4-nitrophenyl)methyl]-2-methyl-4-(4-methylphenyl)-3-phenylcyclopent-2-en-1-ol
_symmetry_cell_setting           orthorhombic
_symmetry_space_group_name_H-M   'P 21 21 21'
_symmetry_Int_Tables_number      19
_space_group_name_Hall           'P 2ac 2ab'
loop_
_symmetry_equiv_pos_site_id
_symmetry_equiv_pos_as_xyz
1 x,y,z
2 1/2-x,-y,1/2+z
3 1/2+x,1/2-y,-z
4 -x,1/2+y,1/2-z
_cell_length_a                   8.46607(15)
_cell_length_b                   14.4345(3)
_cell_length_c                   18.4482(4)
_cell_angle_alpha                90
_cell_angle_beta                 90
_cell_angle_gamma                90
_cell_volume                     2254.43
_exptl_crystal_colour            colorless
_exptl_crystal_description       block
_cell_formula_units_Z            4
loop_
_atom_site_label
_atom_site_type_symbol
_atom_site_fract_x
_atom_site_fract_y
_atom_site_fract_z
O1 O 0.2476(2) 0.81279(14) 0.00136(10)
H1 H 0.337948 0.813865 -0.014613
O2 O 0.0559(2) 0.68012(14) 0.04548(11)
H2 H 0.109692 0.708336 0.015827
O3 O 0.7582(7) 0.5201(6) 0.1927(3)
O4 O 0.6534(6) 0.5176(5) 0.2966(3)
N1 N 0.6499(6) 0.5351(5) 0.2324(3)
C1 C 0.2435(3) 0.85851(18) 0.07121(13)
H3 H 0.347837 0.857421 0.094184
C2 C 0.1863(3) 0.9559(2) 0.06198(15)
C3 C 0.0350(3) 0.96529(17) 0.08268(14)
C4 C -0.0331(3) 0.87274(17) 0.10781(12)
H4 H -0.090137 0.844950 0.067008
C5 C 0.1187(3) 0.81543(17) 0.12100(13)
H5 H 0.152212 0.829192 0.170692
C6 C 0.2918(4) 1.0251(3) 0.0255(2)
H6 H 0.369519 1.046846 0.059329
H7 H 0.229734 1.076475 0.008647
H8 H 0.343669 0.996356 -0.014966
C7 C -0.0604(3) 1.05069(19) 0.07772(15)
C8 C 0.0001(5) 1.1350(2) 0.1003(2)
H9 H 0.099402 1.137588 0.121748
C9 C -0.0875(7) 1.2163(3) 0.0910(3)
H10 H -0.046268 1.272826 0.106110
C10 C -0.2349(6) 1.2127(3) 0.0594(3)
H11 H -0.291572 1.267041 0.052016
C11 C -0.2973(5) 1.1308(3) 0.0391(3)
H12 H -0.397847 1.128890 0.018783
C12 C -0.2121(4) 1.0490(2) 0.0483(2)
H13 H -0.256909 0.992802 0.034710
C13 C -0.1410(3) 0.87222(17) 0.17286(13)
C14 C -0.2869(3) 0.8289(2) 0.16943(17)
H14 H -0.322148 0.805307 0.125393
C15 C -0.3807(4) 0.8202(3) 0.23007(19)
H15 H -0.478068 0.790830 0.226107
C16 C -0.3332(4) 0.8541(2) 0.29670(18)
C17 C -0.1895(4) 0.8997(2) 0.29991(16)
H16 H -0.155578 0.924393 0.343804
C18 C -0.0956(3) 0.9094(2) 0.23894(14)
H17 H -0.000436 0.941328 0.242377
C19 C -0.4361(6) 0.8402(4) 0.3630(2)
H18 H -0.542923 0.828565 0.348102
H19 H -0.432895 0.894902 0.392572
H20 H -0.397732 0.788308 0.390403
C20 C 0.0961(3) 0.71034(18) 0.11728(14)
H21 H 0.006906 0.694764 0.148893
C21 C 0.2399(3) 0.66031(17) 0.14662(13)
C22 C 0.2501(4) 0.6417(2) 0.22060(15)
H22 H 0.166672 0.657401 0.250987
C23 C 0.3834(5) 0.6001(3) 0.24917(18)
H23 H 0.389767 0.587007 0.298440
C24 C 0.5063(4) 0.5784(3) 0.2035(2)
C25 C 0.5005(4) 0.5969(3) 0.1312(2)
H24 H 0.585535 0.582640 0.101262
C26 C 0.3662(3) 0.6371(2) 0.10327(15)
H25 H 0.360605 0.648994 0.053782
loop_
_geom_bond_atom_site_label_1
_geom_bond_atom_site_label_2
_geom_bond_site_symmetry_1
_geom_bond_site_symmetry_2
O1 H1 1_555 1_555
O2 H2 1_555 1_555
O3 N1 1_555 1_555
O4 N1 1_555 1_555
N1 C24 1_555 1_555
C1 O1 1_555 1_555
H3 C1 1_555 1_555
C2 C1 1_555 1_555
C3 C2 1_555 1_555
C4 C3 1_555 1_555
H4 C4 1_555 1_555
C5 C1 1_555 1_555
H5 C5 1_555 1_555
C6 C2 1_555 1_555
H6 C6 1_555 1_555
H7 C6 1_555 1_555
H8 C6 1_555 1_555
C7 C3 1_555 1_555
C8 C7 1_555 1_555
H9 C8 1_555 1_555
C9 C8 1_555 1_555
H10 C9 1_555 1_555
C10 C9 1_555 1_555
H11 C10 1_555 1_555
C11 C10 1_555 1_555
H12 C11 1_555 1_555
C12 C7 1_555 1_555
H13 C12 1_555 1_555
C13 C4 1_555 1_555
C14 C13 1_555 1_555
H14 C14 1_555 1_555
C15 C14 1_555 1_555
H15 C15 1_555 1_555
C16 C15 1_555 1_555
C17 C16 1_555 1_555
H16 C17 1_555 1_555
C18 C13 1_555 1_555
H17 C18 1_555 1_555
C19 C16 1_555 1_555
H18 C19 1_555 1_555
H19 C19 1_555 1_555
H20 C19 1_555 1_555
C20 O2 1_555 1_555
H21 C20 1_555 1_555
C21 C20 1_555 1_555
C22 C21 1_555 1_555
H22 C22 1_555 1_555
C23 C22 1_555 1_555
H23 C23 1_555 1_555
C24 C23 1_555 1_555
C25 C24 1_555 1_555
H24 C25 1_555 1_555
C26 C21 1_555 1_555
H25 C26 1_555 1_555
C4 C5 1_555 1_555
C5 C20 1_555 1_555
C11 C12 1_555 1_555
C17 C18 1_555 1_555
C25 C26 1_555 1_555

#END
