
#######################################################################
#
#                 Cambridge Crystallographic Data Centre
#                                CCDC 
#
#######################################################################
#
# If this CIF has been generated from an entry in the Cambridge 
# Structural Database, then it will include bibliographic, chemical, 
# crystal, experimental, refinement or atomic coordinate data resulting 
# from the CCDC's data processing and validation procedures.
#
#######################################################################

data_FIFTAR
_chemical_formula_moiety         'C132 H108 Br12 N12 O12,7(C1 H2 Cl2)'
_chemical_name_systematic        
'5,8,16,19,27,30,38,41,46,49,54,57-dodecakis(4-Bromobenzoyl)-5,8,16,19,27,30,38,41,46,49,54,57-dodecaazaheptacyclo[21.21.6.6^12,34^.1^3,43^.1^10,14^.1^21,25^.1^32,36^]hexaconta-1,3(51),10(60),11,13,21(59),22,24,32(52),33,35,43-dodecaene dichloromethane solvate'
_symmetry_cell_setting           cubic
_symmetry_space_group_name_H-M   'I 2 3'
_symmetry_Int_Tables_number      197
_space_group_name_Hall           'I 2 2 3'
loop_
_symmetry_equiv_pos_site_id
_symmetry_equiv_pos_as_xyz
1 x,y,z
2 -x,-y,z
3 -x,y,-z
4 x,-y,-z
5 z,x,y
6 z,-x,-y
7 -z,-x,y
8 -z,x,-y
9 y,z,x
10 -y,z,-x
11 y,-z,-x
12 -y,-z,x
13 1/2+x,1/2+y,1/2+z
14 1/2-x,1/2-y,1/2+z
15 1/2-x,1/2+y,1/2-z
16 1/2+x,1/2-y,1/2-z
17 1/2+z,1/2+x,1/2+y
18 1/2+z,1/2-x,1/2-y
19 1/2-z,1/2-x,1/2+y
20 1/2-z,1/2+x,1/2-y
21 1/2+y,1/2+z,1/2+x
22 1/2-y,1/2+z,1/2-x
23 1/2+y,1/2-z,1/2-x
24 1/2-y,1/2-z,1/2+x
_cell_length_a                   19.7269(4)
_cell_length_b                   19.7269(4)
_cell_length_c                   19.7269(4)
_cell_angle_alpha                90
_cell_angle_beta                 90
_cell_angle_gamma                90
_cell_volume                     7676.73
_exptl_crystal_colour            colorless
_exptl_crystal_description       rhombohedron
_cell_formula_units_Z            2
_chemical_properties_physical    air-sensitive
loop_
_atom_site_label
_atom_site_type_symbol
_atom_site_fract_x
_atom_site_fract_y
_atom_site_fract_z
O1 O 0.42682(18) 0.15818(18) 0.56128(16)
N1 N 0.42855(16) 0.22444(16) 0.46719(16)
C1 C 0.40617(18) 0.32813(19) 0.31428(18)
H1 H 0.4452 0.3136 0.2901
C2 C 0.38511(18) 0.29265(17) 0.37063(18)
C3 C 0.4254(2) 0.23119(19) 0.39329(19)
H2 H 0.4044 0.1899 0.3740
H3 H 0.4720 0.2346 0.3752
C4 C 0.4617(2) 0.2801(2) 0.5035(2)
H4 H 0.4499 0.2770 0.5522
H5 H 0.4438 0.3237 0.4862
C5 C 0.41403(19) 0.1665(2) 0.5009(2)
C6 C 0.38088(19) 0.11047(18) 0.4620(2)
C7 C 0.3862(2) 0.0059(2) 0.3994(2)
H6 H 0.4111 -0.0262 0.3735
Br1 Br 0.27966(9) -0.07795(8) 0.36724(10)
C8 C 0.3204(6) -0.0028(5) 0.4128(5)
C9 C 0.2825(4) 0.0398(6) 0.4485(5)
H7 H 0.2359 0.0296 0.4556
C10 C 0.3116(8) 0.1041(6) 0.4779(4)
H8 H 0.2864 0.1361 0.5037
C11 C 0.4153(11) 0.0518(11) 0.4352(6)
H9 H 0.4623 0.0468 0.4446
O1B O 0.57318(18) 0.15818(18) 0.43872(16)
N1B N 0.57145(16) 0.22444(16) 0.53281(16)
C1B C 0.59383(18) 0.32813(19) 0.68572(18)
H1B H 0.5548 0.3136 0.7099
C2B C 0.61489(18) 0.29265(17) 0.62937(18)
C3B C 0.5746(2) 0.23119(19) 0.60671(19)
H2B H 0.5956 0.1899 0.6260
H3B H 0.5280 0.2346 0.6248
C4B C 0.5383(2) 0.2801(2) 0.4965(2)
H4B H 0.5501 0.2770 0.4478
H5B H 0.5562 0.3237 0.5138
C5B C 0.58597(19) 0.1665(2) 0.4991(2)
C6B C 0.61912(19) 0.11047(18) 0.5380(2)
C7B C 0.6138(2) 0.0059(2) 0.6006(2)
H6B H 0.5889 -0.0262 0.6265
Br1B Br 0.72034(9) -0.07795(8) 0.63276(10)
C8B C 0.6796(6) -0.0028(5) 0.5872(5)
C9B C 0.7175(4) 0.0398(6) 0.5515(5)
H7B H 0.7641 0.0296 0.5444
C10B C 0.6884(8) 0.1041(6) 0.5221(4)
H8B H 0.7136 0.1361 0.4963
C11B C 0.5847(11) 0.0518(11) 0.5648(6)
H9B H 0.5377 0.0468 0.5554
O1D O 0.56128(16) 0.42682(18) 0.15818(18)
N1D N 0.46719(16) 0.42855(16) 0.22444(16)
C1D C 0.31428(18) 0.40617(18) 0.32813(19)
H1D H 0.2901 0.4452 0.3136
C2D C 0.37063(18) 0.38511(18) 0.29265(17)
C3D C 0.39329(19) 0.4254(2) 0.23119(19)
H2D H 0.3740 0.4044 0.1899
H3D H 0.3752 0.4720 0.2346
C4D C 0.5035(2) 0.4617(2) 0.2801(2)
H4D H 0.5522 0.4499 0.2770
H5D H 0.4862 0.4438 0.3237
C5D C 0.5009(2) 0.41403(19) 0.1665(2)
C6D C 0.4620(2) 0.38088(19) 0.11047(18)
C7D C 0.3994(2) 0.3862(2) 0.0059(2)
H6D H 0.3735 0.4111 -0.0262
Br1D Br 0.36724(10) 0.27966(9) -0.07795(8)
C8D C 0.4128(5) 0.3204(6) -0.0028(5)
C9D C 0.4485(5) 0.2825(4) 0.0398(6)
H7D H 0.4556 0.2359 0.0296
C10D C 0.4779(4) 0.3116(8) 0.1041(6)
H8D H 0.5037 0.2864 0.1361
C11D C 0.4352(6) 0.4153(11) 0.0518(11)
H9D H 0.4446 0.4623 0.0468
O1G O 0.43872(16) 0.42682(18) 0.84182(18)
N1G N 0.53281(16) 0.42855(16) 0.77556(16)
C1G C 0.68572(18) 0.40617(18) 0.67187(19)
H1G H 0.7099 0.4452 0.6864
C2G C 0.62937(18) 0.38511(18) 0.70735(17)
C3G C 0.60671(19) 0.4254(2) 0.76881(19)
H2G H 0.6260 0.4044 0.8101
H3G H 0.6248 0.4720 0.7654
C4G C 0.4965(2) 0.4617(2) 0.7199(2)
H4G H 0.4478 0.4499 0.7230
H5G H 0.5138 0.4438 0.6763
C5G C 0.4991(2) 0.41403(19) 0.8335(2)
C6G C 0.5380(2) 0.38088(19) 0.88953(18)
C7G C 0.6006(2) 0.3862(2) 0.9941(2)
H6G H 0.6265 0.4111 1.0262
Br1G Br 0.63276(10) 0.27966(9) 1.07795(8)
C8G C 0.5872(5) 0.3204(6) 1.0028(5)
C9G C 0.5515(5) 0.2825(4) 0.9602(6)
H7G H 0.5444 0.2359 0.9704
C10G C 0.5221(4) 0.3116(8) 0.8959(6)
H8G H 0.4963 0.2864 0.8639
C11G C 0.5648(6) 0.4153(11) 0.9482(11)
H9G H 0.5554 0.4623 0.9532
O1H O 0.15818(18) 0.56128(16) 0.42682(18)
N1H N 0.22444(16) 0.46719(16) 0.42855(16)
C1H C 0.32813(19) 0.31428(18) 0.40617(18)
H1H H 0.3136 0.2901 0.4452
C2H C 0.29265(17) 0.37063(18) 0.38511(18)
C3H C 0.23119(19) 0.39329(19) 0.4254(2)
H2H H 0.1899 0.3740 0.4044
H3H H 0.2346 0.3752 0.4720
C4H C 0.2801(2) 0.5035(2) 0.4617(2)
H4H H 0.2770 0.5522 0.4499
H5H H 0.3237 0.4862 0.4438
C5H C 0.1665(2) 0.5009(2) 0.41403(19)
C6H C 0.11047(18) 0.4620(2) 0.38088(19)
C7H C 0.0059(2) 0.3994(2) 0.3862(2)
H6H H -0.0262 0.3735 0.4111
Br1H Br -0.07795(8) 0.36724(10) 0.27966(9)
C8H C -0.0028(5) 0.4128(5) 0.3204(6)
C9H C 0.0398(6) 0.4485(5) 0.2825(4)
H7H H 0.0296 0.4556 0.2359
C10H C 0.1041(6) 0.4779(4) 0.3116(8)
H8H H 0.1361 0.5037 0.2864
C11H C 0.0518(11) 0.4352(6) 0.4153(11)
H9H H 0.0468 0.4446 0.4623
O1J O 0.15818(18) 0.43872(16) 0.57318(18)
N1J N 0.22444(16) 0.53281(16) 0.57145(16)
C1J C 0.32813(19) 0.68572(18) 0.59383(18)
H1J H 0.3136 0.7099 0.5548
C2J C 0.29265(17) 0.62937(18) 0.61489(18)
C3J C 0.23119(19) 0.60671(19) 0.5746(2)
H2J H 0.1899 0.6260 0.5956
H3J H 0.2346 0.6248 0.5280
C4J C 0.2801(2) 0.4965(2) 0.5383(2)
H4J H 0.2770 0.4478 0.5501
H5J H 0.3237 0.5138 0.5562
C5J C 0.1665(2) 0.4991(2) 0.58597(19)
C6J C 0.11047(18) 0.5380(2) 0.61912(19)
C7J C 0.0059(2) 0.6006(2) 0.6138(2)
H6J H -0.0262 0.6265 0.5889
Br1J Br -0.07795(8) 0.63276(10) 0.72034(9)
C8J C -0.0028(5) 0.5872(5) 0.6796(6)
C9J C 0.0398(6) 0.5515(5) 0.7175(4)
H7J H 0.0296 0.5444 0.7641
C10J C 0.1041(6) 0.5221(4) 0.6884(8)
H8J H 0.1361 0.4963 0.7136
C11J C 0.0518(11) 0.5648(6) 0.5847(11)
H9J H 0.0468 0.5554 0.5377
O1C O 0.42682(18) 0.84182(18) 0.43872(16)
N1C N 0.42855(16) 0.77556(16) 0.53281(16)
C1C C 0.40617(18) 0.67187(19) 0.68572(18)
H1C H 0.4452 0.6864 0.7099
C2C C 0.38511(18) 0.70735(17) 0.62937(18)
C3C C 0.4254(2) 0.76881(19) 0.60671(19)
H2C H 0.4044 0.8101 0.6260
H3C H 0.4720 0.7654 0.6248
C4C C 0.4617(2) 0.7199(2) 0.4965(2)
H4C H 0.4499 0.7230 0.4478
H5C H 0.4438 0.6763 0.5138
C5C C 0.41403(19) 0.8335(2) 0.4991(2)
C6C C 0.38088(19) 0.88953(18) 0.5380(2)
C7C C 0.3862(2) 0.9941(2) 0.6006(2)
H6C H 0.4111 1.0262 0.6265
Br1C Br 0.27966(9) 1.07795(8) 0.63276(10)
C8C C 0.3204(6) 1.0028(5) 0.5872(5)
C9C C 0.2825(4) 0.9602(6) 0.5515(5)
H7C H 0.2359 0.9704 0.5444
C10C C 0.3116(8) 0.8959(6) 0.5221(4)
H8C H 0.2864 0.8639 0.4963
C11C C 0.4153(11) 0.9482(11) 0.5648(6)
H9C H 0.4623 0.9532 0.5554
O1E O 0.56128(16) 0.57318(18) 0.84182(18)
N1E N 0.46719(16) 0.57145(16) 0.77556(16)
C1E C 0.31428(18) 0.59383(18) 0.67187(19)
H1E H 0.2901 0.5548 0.6864
C2E C 0.37063(18) 0.61489(18) 0.70735(17)
C3E C 0.39329(19) 0.5746(2) 0.76881(19)
H2E H 0.3740 0.5956 0.8101
H3E H 0.3752 0.5280 0.7654
C4E C 0.5035(2) 0.5383(2) 0.7199(2)
H4E H 0.5522 0.5501 0.7230
H5E H 0.4862 0.5562 0.6763
C5E C 0.5009(2) 0.58597(19) 0.8335(2)
C6E C 0.4620(2) 0.61912(19) 0.88953(18)
C7E C 0.3994(2) 0.6138(2) 0.9941(2)
H6E H 0.3735 0.5889 1.0262
Br1E Br 0.36724(10) 0.72034(9) 1.07795(8)
C8E C 0.4128(5) 0.6796(6) 1.0028(5)
C9E C 0.4485(5) 0.7175(4) 0.9602(6)
H7E H 0.4556 0.7641 0.9704
C10E C 0.4779(4) 0.6884(8) 0.8959(6)
H8E H 0.5037 0.7136 0.8639
C11E C 0.4352(6) 0.5847(11) 0.9482(11)
H9E H 0.4446 0.5377 0.9532
O1F O 0.43872(16) 0.57318(18) 0.15818(18)
N1F N 0.53281(16) 0.57145(16) 0.22444(16)
C1F C 0.68572(18) 0.59383(18) 0.32813(19)
H1F H 0.7099 0.5548 0.3136
C2F C 0.62937(18) 0.61489(18) 0.29265(17)
C3F C 0.60671(19) 0.5746(2) 0.23119(19)
H2F H 0.6260 0.5956 0.1899
H3F H 0.6248 0.5280 0.2346
C4F C 0.4965(2) 0.5383(2) 0.2801(2)
H4F H 0.4478 0.5501 0.2770
H5F H 0.5138 0.5562 0.3237
C5F C 0.4991(2) 0.58597(19) 0.1665(2)
C6F C 0.5380(2) 0.61912(19) 0.11047(18)
C7F C 0.6006(2) 0.6138(2) 0.0059(2)
H6F H 0.6265 0.5889 -0.0262
Br1F Br 0.63276(10) 0.72034(9) -0.07795(8)
C8F C 0.5872(5) 0.6796(6) -0.0028(5)
C9F C 0.5515(5) 0.7175(4) 0.0398(6)
H7F H 0.5444 0.7641 0.0296
C10F C 0.5221(4) 0.6884(8) 0.1041(6)
H8F H 0.4963 0.7136 0.1361
C11F C 0.5648(6) 0.5847(11) 0.0518(11)
H9F H 0.5554 0.5377 0.0468
O1I O 0.84182(18) 0.56128(16) 0.57318(18)
N1I N 0.77556(16) 0.46719(16) 0.57145(16)
C1I C 0.67187(19) 0.31428(18) 0.59383(18)
H1I H 0.6864 0.2901 0.5548
C2I C 0.70735(17) 0.37063(18) 0.61489(18)
C3I C 0.76881(19) 0.39329(19) 0.5746(2)
H2I H 0.8101 0.3740 0.5956
H3I H 0.7654 0.3752 0.5280
C4I C 0.7199(2) 0.5035(2) 0.5383(2)
H4I H 0.7230 0.5522 0.5501
H5I H 0.6763 0.4862 0.5562
C5I C 0.8335(2) 0.5009(2) 0.58597(19)
C6I C 0.88953(18) 0.4620(2) 0.61912(19)
C7I C 0.9941(2) 0.3994(2) 0.6138(2)
H6I H 1.0262 0.3735 0.5889
Br1I Br 1.07795(8) 0.36724(10) 0.72034(9)
C8I C 1.0028(5) 0.4128(5) 0.6796(6)
C9I C 0.9602(6) 0.4485(5) 0.7175(4)
H7I H 0.9704 0.4556 0.7641
C10I C 0.8959(6) 0.4779(4) 0.6884(8)
H8I H 0.8639 0.5037 0.7136
C11I C 0.9482(11) 0.4352(6) 0.5847(11)
H9I H 0.9532 0.4446 0.5377
O1K O 0.84182(18) 0.43872(16) 0.42682(18)
N1K N 0.77556(16) 0.53281(16) 0.42855(16)
C1K C 0.67187(19) 0.68572(18) 0.40617(18)
H1K H 0.6864 0.7099 0.4452
C2K C 0.70735(17) 0.62937(18) 0.38511(18)
C3K C 0.76881(19) 0.60671(19) 0.4254(2)
H2K H 0.8101 0.6260 0.4044
H3K H 0.7654 0.6248 0.4720
C4K C 0.7199(2) 0.4965(2) 0.4617(2)
H4K H 0.7230 0.4478 0.4499
H5K H 0.6763 0.5138 0.4438
C5K C 0.8335(2) 0.4991(2) 0.41403(19)
C6K C 0.88953(18) 0.5380(2) 0.38088(19)
C7K C 0.9941(2) 0.6006(2) 0.3862(2)
H6K H 1.0262 0.6265 0.4111
Br1K Br 1.07795(8) 0.63276(10) 0.27966(9)
C8K C 1.0028(5) 0.5872(5) 0.3204(6)
C9K C 0.9602(6) 0.5515(5) 0.2825(4)
H7K H 0.9704 0.5444 0.2359
C10K C 0.8959(6) 0.5221(4) 0.3116(8)
H8K H 0.8639 0.4963 0.2864
C11K C 0.9482(11) 0.5648(6) 0.4153(11)
H9K H 0.9532 0.5554 0.4623
O1A O 0.57318(18) 0.84182(18) 0.56128(16)
N1A N 0.57145(16) 0.77556(16) 0.46719(16)
C1A C 0.59383(18) 0.67187(19) 0.31428(18)
H1A H 0.5548 0.6864 0.2901
C2A C 0.61489(18) 0.70735(17) 0.37063(18)
C3A C 0.5746(2) 0.76881(19) 0.39329(19)
H2A H 0.5956 0.8101 0.3740
H3A H 0.5280 0.7654 0.3752
C4A C 0.5383(2) 0.7199(2) 0.5035(2)
H4A H 0.5501 0.7230 0.5522
H5A H 0.5562 0.6763 0.4862
C5A C 0.58597(19) 0.8335(2) 0.5009(2)
C6A C 0.61912(19) 0.88953(18) 0.4620(2)
C7A C 0.6138(2) 0.9941(2) 0.3994(2)
H6A H 0.5889 1.0262 0.3735
Br1A Br 0.72034(9) 1.07795(8) 0.36724(10)
C8A C 0.6796(6) 1.0028(5) 0.4128(5)
C9A C 0.7175(4) 0.9602(6) 0.4485(5)
H7A H 0.7641 0.9704 0.4556
C10A C 0.6884(8) 0.8959(6) 0.4779(4)
H8A H 0.7136 0.8639 0.5037
C11A C 0.5847(11) 0.9482(11) 0.4352(6)
H9A H 0.5377 0.9532 0.4446
C12 C 0.3853(8) 0.2062(8) 0.7197(8)
H10 H 0.4189 0.1732 0.7370
H11 H 0.3762 0.1961 0.6714
Cl1 Cl 0.4144(2) 0.2867(2) 0.7290(3)
Cl2 Cl 0.3081(4) 0.2024(3) 0.7686(2)
C13? C 0.4195(15) 0.0692(11) 0.4269(8)
H12? H 0.4661 0.0786 0.4193
Br2? Br 0.27382(7) -0.06371(8) 0.33844(8)
C14? C 0.3197(6) 0.0097(5) 0.3840(4)
C15? C 0.2799(4) 0.0645(5) 0.4069(5)
H13? H 0.2330 0.0683 0.3968
C16? C 0.3123(5) 0.1102(5) 0.4436(4)
H14? H 0.2860 0.1473 0.4593
C17? C 0.330(5) 0.235(4) 0.688(2)
H15? H 0.2904 0.2586 0.6687
H16? H 0.3415 0.1965 0.6577
Cl3? Cl 0.4056(4) 0.2962(5) 0.6927(6)
C18? C 0.4652(6) 0.4652(6) 0.4652(6)
H17? H 0.4261 0.4629 0.4339
H18? H 0.5093 0.4511 0.4458
Cl4? Cl 0.4514(3) 0.4514(3) 0.5486(3)
Cl5? Cl 0.4652(6) 0.4652(6) 0.4652(6)
loop_
_geom_bond_atom_site_label_1
_geom_bond_atom_site_label_2
_geom_bond_site_symmetry_1
_geom_bond_site_symmetry_2
O1 C5 1_555 1_555
N1 C3 1_555 1_555
C1 H1 1_555 1_555
C2 C1 1_555 1_555
C3 C2 1_555 1_555
H2 C3 1_555 1_555
H3 C3 1_555 1_555
C4 N1 1_555 1_555
H4 C4 1_555 1_555
H5 C4 1_555 1_555
C5 N1 1_555 1_555
C6 C5 1_555 1_555
C7 H6 1_555 1_555
Br1 C8 1_555 1_555
C8 C7 1_555 1_555
C9 C8 1_555 1_555
H7 C9 1_555 1_555
C10 C6 1_555 1_555
H8 C10 1_555 1_555
C11 C6 1_555 1_555
H9 C11 1_555 1_555
C12 H10 1_555 1_555
H11 C12 1_555 1_555
Cl1 C12 1_555 1_555
Cl2 C12 1_555 1_555
O1B C5B 1_555 1_555
N1B C3B 1_555 1_555
C1B H1B 1_555 1_555
C2B C1B 1_555 1_555
C3B C2B 1_555 1_555
H2B C3B 1_555 1_555
H3B C3B 1_555 1_555
C4B C4 1_555 1_555
H4B C4B 1_555 1_555
H5B C4B 1_555 1_555
C5B N1B 1_555 1_555
C6B C5B 1_555 1_555
C7B H6B 1_555 1_555
Br1B C8B 1_555 1_555
C8B C7B 1_555 1_555
C9B C8B 1_555 1_555
H7B C9B 1_555 1_555
C10B C6B 1_555 1_555
H8B C10B 1_555 1_555
C11B C6B 1_555 1_555
H9B C11B 1_555 1_555
O1D C5D 1_555 1_555
N1D C3D 1_555 1_555
C1D H1D 1_555 1_555
C2D C1 1_555 1_555
C3D C2D 1_555 1_555
H2D C3D 1_555 1_555
H3D C3D 1_555 1_555
C4D N1D 1_555 1_555
H4D C4D 1_555 1_555
H5D C4D 1_555 1_555
C5D N1D 1_555 1_555
C6D C5D 1_555 1_555
C7D H6D 1_555 1_555
Br1D C8D 1_555 1_555
C8D C7D 1_555 1_555
C9D C8D 1_555 1_555
H7D C9D 1_555 1_555
C10D C6D 1_555 1_555
H8D C10D 1_555 1_555
C11D C6D 1_555 1_555
H9D C11D 1_555 1_555
O1G C5G 1_555 1_555
N1G C3G 1_555 1_555
C1G H1G 1_555 1_555
C2G C1B 1_555 1_555
C3G C2G 1_555 1_555
H2G C3G 1_555 1_555
H3G C3G 1_555 1_555
C4G N1G 1_555 1_555
H4G C4G 1_555 1_555
H5G C4G 1_555 1_555
C5G N1G 1_555 1_555
C6G C5G 1_555 1_555
C7G H6G 1_555 1_555
Br1G C8G 1_555 1_555
C8G C7G 1_555 1_555
C9G C8G 1_555 1_555
H7G C9G 1_555 1_555
C10G C6G 1_555 1_555
H8G C10G 1_555 1_555
C11G C6G 1_555 1_555
H9G C11G 1_555 1_555
O1H C5H 1_555 1_555
N1H C3H 1_555 1_555
C1H C2 1_555 1_555
H1H C1H 1_555 1_555
C2H C1D 1_555 1_555
C3H C2H 1_555 1_555
H2H C3H 1_555 1_555
H3H C3H 1_555 1_555
C4H N1H 1_555 1_555
H4H C4H 1_555 1_555
H5H C4H 1_555 1_555
C5H N1H 1_555 1_555
C6H C5H 1_555 1_555
C7H H6H 1_555 1_555
Br1H C8H 1_555 1_555
C8H C7H 1_555 1_555
C9H C8H 1_555 1_555
H7H C9H 1_555 1_555
C10H C6H 1_555 1_555
H8H C10H 1_555 1_555
C11H C6H 1_555 1_555
H9H C11H 1_555 1_555
O1J C5J 1_555 1_555
N1J C3J 1_555 1_555
C1J H1J 1_555 1_555
C2J C1J 1_555 1_555
C3J C2J 1_555 1_555
H2J C3J 1_555 1_555
H3J C3J 1_555 1_555
C4J C4H 1_555 1_555
H4J C4J 1_555 1_555
H5J C4J 1_555 1_555
C5J N1J 1_555 1_555
C6J C5J 1_555 1_555
C7J H6J 1_555 1_555
Br1J C8J 1_555 1_555
C8J C7J 1_555 1_555
C9J C8J 1_555 1_555
H7J C9J 1_555 1_555
C10J C6J 1_555 1_555
H8J C10J 1_555 1_555
C11J C6J 1_555 1_555
H9J C11J 1_555 1_555
O1C C5C 1_555 1_555
N1C C3C 1_555 1_555
C1C H1C 1_555 1_555
C2C C1J 1_555 1_555
C3C C2C 1_555 1_555
H2C C3C 1_555 1_555
H3C C3C 1_555 1_555
C4C N1C 1_555 1_555
H4C C4C 1_555 1_555
H5C C4C 1_555 1_555
C5C N1C 1_555 1_555
C6C C5C 1_555 1_555
C7C H6C 1_555 1_555
Br1C C8C 1_555 1_555
C8C C7C 1_555 1_555
C9C C8C 1_555 1_555
H7C C9C 1_555 1_555
C10C C6C 1_555 1_555
H8C C10C 1_555 1_555
C11C C6C 1_555 1_555
H9C C11C 1_555 1_555
O1E C5E 1_555 1_555
N1E C3E 1_555 1_555
C1E C2J 1_555 1_555
H1E C1E 1_555 1_555
C2E C1C 1_555 1_555
C3E C2E 1_555 1_555
H2E C3E 1_555 1_555
H3E C3E 1_555 1_555
C4E C4G 1_555 1_555
H4E C4E 1_555 1_555
H5E C4E 1_555 1_555
C5E N1E 1_555 1_555
C6E C5E 1_555 1_555
C7E H6E 1_555 1_555
Br1E C8E 1_555 1_555
C8E C7E 1_555 1_555
C9E C8E 1_555 1_555
H7E C9E 1_555 1_555
C10E C6E 1_555 1_555
H8E C10E 1_555 1_555
C11E C6E 1_555 1_555
H9E C11E 1_555 1_555
O1F C5F 1_555 1_555
N1F C3F 1_555 1_555
C1F H1F 1_555 1_555
C2F C1F 1_555 1_555
C3F C2F 1_555 1_555
H2F C3F 1_555 1_555
H3F C3F 1_555 1_555
C4F C4D 1_555 1_555
H4F C4F 1_555 1_555
H5F C4F 1_555 1_555
C5F N1F 1_555 1_555
C6F C5F 1_555 1_555
C7F H6F 1_555 1_555
Br1F C8F 1_555 1_555
C8F C7F 1_555 1_555
C9F C8F 1_555 1_555
H7F C9F 1_555 1_555
C10F C6F 1_555 1_555
H8F C10F 1_555 1_555
C11F C6F 1_555 1_555
H9F C11F 1_555 1_555
O1I C5I 1_555 1_555
N1I C3I 1_555 1_555
C1I C2B 1_555 1_555
H1I C1I 1_555 1_555
C2I C1G 1_555 1_555
C3I C2I 1_555 1_555
H2I C3I 1_555 1_555
H3I C3I 1_555 1_555
C4I N1I 1_555 1_555
H4I C4I 1_555 1_555
H5I C4I 1_555 1_555
C5I N1I 1_555 1_555
C6I C5I 1_555 1_555
C7I H6I 1_555 1_555
Br1I C8I 1_555 1_555
C8I C7I 1_555 1_555
C9I C8I 1_555 1_555
H7I C9I 1_555 1_555
C10I C6I 1_555 1_555
H8I C10I 1_555 1_555
C11I C6I 1_555 1_555
H9I C11I 1_555 1_555
O1K C5K 1_555 1_555
N1K C3K 1_555 1_555
C1K H1K 1_555 1_555
C2K C1F 1_555 1_555
C3K C2K 1_555 1_555
H2K C3K 1_555 1_555
H3K C3K 1_555 1_555
C4K C4I 1_555 1_555
H4K C4K 1_555 1_555
H5K C4K 1_555 1_555
C5K N1K 1_555 1_555
C6K C5K 1_555 1_555
C7K H6K 1_555 1_555
Br1K C8K 1_555 1_555
C8K C7K 1_555 1_555
C9K C8K 1_555 1_555
H7K C9K 1_555 1_555
C10K C6K 1_555 1_555
H8K C10K 1_555 1_555
C11K C6K 1_555 1_555
H9K C11K 1_555 1_555
O1A C5A 1_555 1_555
N1A C3A 1_555 1_555
C1A C2F 1_555 1_555
H1A C1A 1_555 1_555
C2A C1K 1_555 1_555
C3A C2A 1_555 1_555
H2A C3A 1_555 1_555
H3A C3A 1_555 1_555
C4A C4C 1_555 1_555
H4A C4A 1_555 1_555
H5A C4A 1_555 1_555
C5A N1A 1_555 1_555
C6A C5A 1_555 1_555
C7A H6A 1_555 1_555
Br1A C8A 1_555 1_555
C8A C7A 1_555 1_555
C9A C8A 1_555 1_555
H7A C9A 1_555 1_555
C10A C6A 1_555 1_555
H8A C10A 1_555 1_555
C11A C6A 1_555 1_555
H9A C11A 1_555 1_555
C7 C11 1_555 1_555
C9 C10 1_555 1_555
N1B C4B 1_555 1_555
C7B C11B 1_555 1_555
C9B C10B 1_555 1_555
C1D C2D 1_555 1_555
C7D C11D 1_555 1_555
C9D C10D 1_555 1_555
C1G C2G 1_555 1_555
C7G C11G 1_555 1_555
C9G C10G 1_555 1_555
C1H C2H 1_555 1_555
C7H C11H 1_555 1_555
C9H C10H 1_555 1_555
N1J C4J 1_555 1_555
C7J C11J 1_555 1_555
C9J C10J 1_555 1_555
C1C C2C 1_555 1_555
C7C C11C 1_555 1_555
C9C C10C 1_555 1_555
N1E C4E 1_555 1_555
C1E C2E 1_555 1_555
C7E C11E 1_555 1_555
C9E C10E 1_555 1_555
N1F C4F 1_555 1_555
C7F C11F 1_555 1_555
C9F C10F 1_555 1_555
C1I C2I 1_555 1_555
C7I C11I 1_555 1_555
C9I C10I 1_555 1_555
N1K C4K 1_555 1_555
C1K C2K 1_555 1_555
C7K C11K 1_555 1_555
C9K C10K 1_555 1_555
N1A C4A 1_555 1_555
C1A C2A 1_555 1_555
C7A C11A 1_555 1_555
C9A C10A 1_555 1_555

#END
