
#######################################################################
#
#                 Cambridge Crystallographic Data Centre
#                                CCDC 
#
#######################################################################
#
# If this CIF has been generated from an entry in the Cambridge 
# Structural Database, then it will include bibliographic, chemical, 
# crystal, experimental, refinement or atomic coordinate data resulting 
# from the CCDC's data processing and validation procedures.
#
#######################################################################

data_FIFVOI
_chemical_formula_moiety         'C24 H18 N2 O4 2+,2(Cl1 1-)'
_chemical_name_systematic        
"1,1'-bis(4-carboxyphenyl)-4,4'-bipyridin-1-ium bis(chloride)"
_symmetry_cell_setting           monoclinic
_symmetry_space_group_name_H-M   'P 21/n'
_symmetry_Int_Tables_number      14
_space_group_name_Hall           '-P 2yn'
loop_
_symmetry_equiv_pos_site_id
_symmetry_equiv_pos_as_xyz
1 x,y,z
2 1/2-x,1/2+y,1/2-z
3 -x,-y,-z
4 1/2+x,1/2-y,1/2+z
_cell_length_a                   14.1952(3)
_cell_length_b                   9.4314(2)
_cell_length_c                   15.9716(4)
_cell_angle_alpha                90
_cell_angle_beta                 98.2110(10)
_cell_angle_gamma                90
_cell_volume                     2116.37
_exptl_crystal_colour            green
_exptl_crystal_description       prism
_cell_formula_units_Z            4
loop_
_atom_site_label
_atom_site_type_symbol
_atom_site_fract_x
_atom_site_fract_y
_atom_site_fract_z
C1 C 2.10625(14) 0.9516(2) 0.16938(12)
C2 C 2.00215(14) 0.91675(19) 0.16217(12)
C3 C 1.97313(14) 0.8202(2) 0.21925(12)
H1 H 2.0183 0.7818 0.2630
C4 C 1.87819(14) 0.7800(2) 0.21225(12)
H2 H 1.8575 0.7156 0.2516
C5 C 1.81411(13) 0.83565(19) 0.14685(12)
C6 C 1.84102(14) 0.9347(2) 0.09062(13)
H3 H 1.7956 0.9741 0.0474
C7 C 1.93586(14) 0.9748(2) 0.09913(13)
H4 H 1.9557 1.0428 0.0614
C8 C 1.64267(14) 0.87243(19) 0.11108(12)
H5 H 1.6545 0.9695 0.1004
C9 C 1.55081(13) 0.82308(19) 0.10132(12)
H6 H 1.4994 0.8856 0.0835
C10 C 1.53306(13) 0.68065(18) 0.11760(11)
C11 C 1.61093(14) 0.59097(19) 0.14068(13)
H7 H 1.6011 0.4930 0.1502
C12 C 1.70141(14) 0.64481(19) 0.14952(13)
H8 H 1.7542 0.5838 0.1655
C13 C 1.43543(13) 0.62471(19) 0.11268(11)
C14 C 1.36240(14) 0.71170(19) 0.13265(13)
H9 H 1.3748 0.8085 0.1466
C15 C 1.27294(13) 0.6575(2) 0.13205(13)
H10 H 1.2234 0.7170 0.1459
C16 C 1.32334(13) 0.43335(19) 0.09143(12)
H11 H 1.3088 0.3374 0.0767
C17 C 1.41427(13) 0.48345(19) 0.09181(12)
H12 H 1.4627 0.4220 0.0779
C18 C 1.15938(13) 0.4665(2) 0.11602(12)
C19 C 1.11751(14) 0.5005(2) 0.18663(13)
H13 H 1.1515 0.5533 0.2318
C20 C 1.02523(14) 0.4562(2) 0.19005(13)
H14 H 0.9959 0.4778 0.2384
C21 C 0.97503(14) 0.3808(2) 0.12368(13)
C22 C 1.01902(14) 0.3449(2) 0.05374(13)
H15 H 0.9853 0.2914 0.0087
C23 C 1.11206(14) 0.3875(2) 0.04991(13)
H16 H 1.1426 0.3628 0.0028
C24 C 0.87309(14) 0.3454(2) 0.12961(13)
N1 N 1.71651(11) 0.78428(16) 0.13572(10)
N2 N 1.25436(11) 0.52039(16) 0.11198(10)
O1 O 2.12633(11) 1.0407(2) 0.11106(12)
H17 H 2.189(2) 1.045(3) 0.114(2)
O2 O 2.16511(10) 0.89870(16) 0.22231(9)
O3 O 0.83782(10) 0.37015(19) 0.19317(10)
O4 O 0.82624(10) 0.29112(17) 0.05991(10)
H18 H 0.764(3) 0.273(4) 0.073(2)
Cl1 Cl 0.33104(3) 0.08086(5) 0.09800(3)
Cl2 Cl 0.62538(3) 0.23284(5) 0.07676(3)
loop_
_geom_bond_atom_site_label_1
_geom_bond_atom_site_label_2
_geom_bond_site_symmetry_1
_geom_bond_site_symmetry_2
C1 C2 1_555 1_555
C2 C3 1_555 1_555
C3 H1 1_555 1_555
C4 C3 1_555 1_555
H2 C4 1_555 1_555
C5 C4 1_555 1_555
C6 C5 1_555 1_555
H3 C6 1_555 1_555
C7 C2 1_555 1_555
H4 C7 1_555 1_555
C8 H5 1_555 1_555
C9 C8 1_555 1_555
H6 C9 1_555 1_555
C10 C9 1_555 1_555
C11 C10 1_555 1_555
H7 C11 1_555 1_555
C12 C11 1_555 1_555
H8 C12 1_555 1_555
C13 C10 1_555 1_555
C14 C13 1_555 1_555
H9 C14 1_555 1_555
C15 C14 1_555 1_555
H10 C15 1_555 1_555
C16 H11 1_555 1_555
C17 C13 1_555 1_555
H12 C17 1_555 1_555
C18 C19 1_555 1_555
C19 H13 1_555 1_555
C20 C19 1_555 1_555
H14 C20 1_555 1_555
C21 C20 1_555 1_555
C22 C21 1_555 1_555
H15 C22 1_555 1_555
C23 C18 1_555 1_555
H16 C23 1_555 1_555
C24 C21 1_555 1_555
N1 C5 1_555 1_555
N2 C15 1_555 1_555
O1 C1 1_555 1_555
H17 O1 1_555 1_555
O2 C1 1_555 1_555
O3 C24 1_555 1_555
O4 C24 1_555 1_555
H18 O4 1_555 1_555
C6 C7 1_555 1_555
C8 N1 1_555 1_555
C12 N1 1_555 1_555
C16 C17 1_555 1_555
C16 N2 1_555 1_555
C18 N2 1_555 1_555
C22 C23 1_555 1_555

#END
