
#######################################################################
#
#                 Cambridge Crystallographic Data Centre
#                                CCDC 
#
#######################################################################
#
# If this CIF has been generated from an entry in the Cambridge 
# Structural Database, then it will include bibliographic, chemical, 
# crystal, experimental, refinement or atomic coordinate data resulting 
# from the CCDC's data processing and validation procedures.
#
#######################################################################

data_FIGDIL
_chemical_compound_source        
'marine-derived actinomycetes Streptomycese caelestis'
_chemical_name_common            'citreamicin theta A monohydrate'
_chemical_formula_moiety         'C30 H25 N1 O11,H2 O1'
_chemical_name_systematic        
"4,6,7,17-tetrahydroxy-14-(hydroxymethyl)-3-methoxy-11a,14-dimethyl-8,9,11,11a-tetrahydro[1]benzopyrano[3',2':7,8]naphtho[2,1-g][1,3]oxazolo[3,2-b]isoquinoline-5,13,16(14H)-trione monohydrate"
_chemical_properties_biological  'antibacterial activity'
_symmetry_cell_setting           monoclinic
_symmetry_space_group_name_H-M   'P 21/c'
_symmetry_Int_Tables_number      14
_space_group_name_Hall           '-P 2ybc'
loop_
_symmetry_equiv_pos_site_id
_symmetry_equiv_pos_as_xyz
1 x,y,z
2 -x,1/2+y,1/2-z
3 -x,-y,-z
4 x,1/2-y,1/2+z
_cell_length_a                   15.307(3)
_cell_length_b                   7.9472(16)
_cell_length_c                   24.715(5)
_cell_angle_alpha                90
_cell_angle_beta                 97.18(3)
_cell_angle_gamma                90
_cell_volume                     2982.95
_cell_formula_units_Z            4
loop_
_atom_site_label
_atom_site_type_symbol
_atom_site_fract_x
_atom_site_fract_y
_atom_site_fract_z
O1 O 0.8640(5) 0.3151(10) 0.5263(3)
O2 O 0.8841(5) 0.5447(10) 0.3185(3)
O3 O 1.0166(5) 0.3720(10) 0.3696(3)
H1 H 1.0546 0.3192 0.3889
O4 O 1.0891(5) 0.2187(10) 0.4563(3)
O5 O 1.1528(5) 0.0632(10) 0.5448(3)
H2 H 1.1528 0.0999 0.5138
O6 O 1.1338(5) -0.0256(10) 0.6485(3)
H3 H 1.1808 0.0229 0.6476
O7 O 0.7437(4) 0.0894(9) 0.5502(2)
H4 H 0.6920 0.0691 0.5391
O8 O 0.5804(5) 0.0613(12) 0.5529(3)
O9 O 0.4467(12) -0.206(3) 0.6378(13)
H5 H 0.4984 -0.2293 0.6359
O10 O 0.3172(6) 0.0273(13) 0.6725(4)
O11 O 0.4522(6) 0.1057(14) 0.7071(4)
N1 N 0.5201(7) 0.0840(13) 0.6298(3)
C1 C 0.9476(7) 0.3972(13) 0.3967(4)
C2 C 0.8780(8) 0.4932(15) 0.3704(4)
C3 C 0.8026(9) 0.5157(17) 0.3968(4)
H6 H 0.7545 0.5742 0.3793
C4 C 0.7993(8) 0.4525(18) 0.4479(4)
H7 H 0.7481 0.4632 0.4642
C5 C 0.8703(8) 0.3744(14) 0.4748(4)
C6 C 0.9317(7) 0.2247(14) 0.5543(4)
C7 C 0.9198(6) 0.1616(14) 0.6073(3)
C8 C 0.9902(8) 0.0989(14) 0.6379(4)
C9 C 1.0683(7) 0.0611(14) 0.6177(4)
C10 C 1.0772(7) 0.1029(14) 0.5630(4)
C11 C 1.0108(6) 0.1862(13) 0.5321(4)
C12 C 1.0186(7) 0.2472(14) 0.4776(4)
C13 C 0.9445(7) 0.3423(16) 0.4495(4)
C14 C 0.9840(7) 0.0734(18) 0.6992(4)
H8 H 0.9557 -0.0332 0.7051
H9 H 1.0423 0.0729 0.7196
C15 C 0.9305(8) 0.2167(16) 0.7176(4)
H10 H 0.9591 0.3226 0.7114
H11 H 0.9271 0.2066 0.7564
C16 C 0.8419(7) 0.2157(12) 0.6880(4)
C17 C 0.7691(7) 0.2205(13) 0.7147(4)
H12 H 0.7748 0.2486 0.7515
C18 C 0.6838(8) 0.1825(14) 0.6864(4)
C19 C 0.6013(8) 0.1878(19) 0.7146(5)
H13 H 0.6125 0.1221 0.7479
H14 H 0.5924 0.3033 0.7254
C20 C 0.3936(11) 0.0670(19) 0.6647(6)
C21 C 0.4283(7) 0.0583(18) 0.6127(5)
C22 C 0.5955(9) 0.0984(14) 0.6019(4)
C23 C 0.6748(7) 0.1379(13) 0.6296(4)
C24 C 0.7506(8) 0.1408(14) 0.6039(4)
C25 C 0.8349(7) 0.1809(15) 0.6311(4)
C26 C 0.8124(9) 0.6338(16) 0.2902(4)
H15 H 0.8249 0.6592 0.2540
H16 H 0.8035 0.7366 0.3091
H17 H 0.7602 0.5661 0.2882
C27 C 0.3864(12) 0.193(5) 0.5768(10)
H18 H 0.3961 0.3000 0.5946
H19 H 0.3242 0.1723 0.5694
H20 H 0.4116 0.1941 0.5431
C28 C 0.4113(13) -0.107(3) 0.5895(7)
H21 H 0.4434 -0.1270 0.5587
H22 H 0.3490 -0.1271 0.5790
C29 C 0.5319(18) 0.137(7) 0.6894(9)
C30 C 0.5081(18) 0.401(4) 0.6644(16)
H23 H 0.5048 0.4696 0.6961
H24 H 0.4536 0.4089 0.6406
H25 H 0.5554 0.4399 0.6455
O12 O 0.6270(13) -0.277(3) 0.6261(11)
O13 O 1.2396(12) 0.356(2) 0.3719(13)
loop_
_geom_bond_atom_site_label_1
_geom_bond_atom_site_label_2
_geom_bond_site_symmetry_1
_geom_bond_site_symmetry_2
O1 C5 1_555 1_555
O2 C2 1_555 1_555
O3 H1 1_555 1_555
O4 C12 1_555 1_555
O5 H2 1_555 1_555
O6 H3 1_555 1_555
O7 H4 1_555 1_555
O8 C22 1_555 1_555
O9 H5 1_555 1_555
O10 C20 1_555 1_555
O11 C20 1_555 1_555
N1 C21 1_555 1_555
C1 O3 1_555 1_555
C2 C1 1_555 1_555
C3 C2 1_555 1_555
H6 C3 1_555 1_555
C4 C3 1_555 1_555
H7 C4 1_555 1_555
C5 C4 1_555 1_555
C6 O1 1_555 1_555
C7 C6 1_555 1_555
C8 C7 1_555 1_555
C9 O6 1_555 1_555
C10 O5 1_555 1_555
C11 C6 1_555 1_555
C12 C11 1_555 1_555
C13 C1 1_555 1_555
C14 C8 1_555 1_555
H8 C14 1_555 1_555
H9 C14 1_555 1_555
C15 C14 1_555 1_555
H10 C15 1_555 1_555
H11 C15 1_555 1_555
C16 C15 1_555 1_555
C17 C16 1_555 1_555
H12 C17 1_555 1_555
C18 C17 1_555 1_555
C19 C18 1_555 1_555
H13 C19 1_555 1_555
H14 C19 1_555 1_555
C20 C21 1_555 1_555
C21 C27 1_555 1_555
C22 N1 1_555 1_555
C23 C18 1_555 1_555
C24 O7 1_555 1_555
C25 C7 1_555 1_555
C26 O2 1_555 1_555
H15 C26 1_555 1_555
H16 C26 1_555 1_555
H17 C26 1_555 1_555
C27 H18 1_555 1_555
H19 C27 1_555 1_555
H20 C27 1_555 1_555
C28 O9 1_555 1_555
H21 C28 1_555 1_555
H22 C28 1_555 1_555
C29 O11 1_555 1_555
C30 C29 1_555 1_555
H23 C30 1_555 1_555
H24 C30 1_555 1_555
H25 C30 1_555 1_555
N1 C29 1_555 1_555
C5 C13 1_555 1_555
C8 C9 1_555 1_555
C9 C10 1_555 1_555
C10 C11 1_555 1_555
C12 C13 1_555 1_555
C16 C25 1_555 1_555
C19 C29 1_555 1_555
C21 C28 1_555 1_555
C22 C23 1_555 1_555
C23 C24 1_555 1_555
C24 C25 1_555 1_555

#END
