
#######################################################################
#
#                 Cambridge Crystallographic Data Centre
#                                CCDC 
#
#######################################################################
#
# If this CIF has been generated from an entry in the Cambridge 
# Structural Database, then it will include bibliographic, chemical, 
# crystal, experimental, refinement or atomic coordinate data resulting 
# from the CCDC's data processing and validation procedures.
#
#######################################################################

data_FIGJAI
_chemical_formula_moiety         'C29 H29 B1 F2 N2'
_chemical_name_systematic        
2-(2,6-Diisopropylphenyl)-1,1-difluoro-3-phenyl-1,2-dihydro-11\l^5^,1\l^5^-[1,3,2]diazaborinino[1,6-a]quinoline
_symmetry_cell_setting           triclinic
_symmetry_space_group_name_H-M   'P -1'
_symmetry_Int_Tables_number      2
_space_group_name_Hall           '-P 1'
loop_
_symmetry_equiv_pos_site_id
_symmetry_equiv_pos_as_xyz
1 x,y,z
2 -x,-y,-z
_cell_length_a                   8.5911(2)
_cell_length_b                   9.7455(3)
_cell_length_c                   16.0685(5)
_cell_angle_alpha                76.634(2)
_cell_angle_beta                 89.907(2)
_cell_angle_gamma                68.735(2)
_cell_volume                     1214.74
_exptl_crystal_colour            yellow
_exptl_crystal_description       prism
_cell_formula_units_Z            2
loop_
_atom_site_label
_atom_site_type_symbol
_atom_site_fract_x
_atom_site_fract_y
_atom_site_fract_z
N1 N 0.47941(12) 0.30562(11) 0.74106(6)
N2 N 0.60763(12) 0.37974(11) 0.86041(7)
B1 B 0.60420(18) 0.24462(16) 0.82220(10)
F1 F 0.55585(12) 0.14505(10) 0.88202(5)
F2 F 0.76726(10) 0.17093(10) 0.80373(6)
C1 C 0.41780(15) 0.45398(14) 0.69878(8)
C2 C 0.45418(17) 0.55864(14) 0.73138(9)
H1 H 0.4200 0.6588 0.6973
C3 C 0.53942(16) 0.52498(14) 0.81254(8)
C4 C 0.55047(18) 0.64685(15) 0.84448(10)
H2 H 0.5018 0.7473 0.8109
C5 C 0.62962(19) 0.61917(16) 0.92185(10)
H3 H 0.6344 0.7003 0.9427
C6 C 0.70612(17) 0.46801(16) 0.97241(9)
C7 C 0.7953(2) 0.43488(19) 1.05254(10)
H4 H 0.8010 0.5151 1.0739
C8 C 0.8732(2) 0.2899(2) 1.09951(10)
H5 H 0.9328 0.2696 1.1528
C9 C 0.8640(2) 0.17147(18) 1.06797(10)
H6 H 0.9190 0.0708 1.1002
C10 C 0.77617(18) 0.19865(16) 0.99064(9)
H7 H 0.7705 0.1168 0.9709
C11 C 0.69505(15) 0.34781(15) 0.94109(8)
C12 C 0.30783(16) 0.50964(14) 0.61691(8)
C13 C 0.35309(18) 0.44335(16) 0.54859(9)
H8 H 0.4528 0.3577 0.5548
C14 C 0.2540(2) 0.5011(2) 0.47148(10)
H9 H 0.2870 0.4558 0.4254
C15 C 0.1069(2) 0.6252(2) 0.46240(11)
H10 H 0.0382 0.6636 0.4104
C16 C 0.0602(2) 0.69328(19) 0.52925(12)
H11 H -0.0401 0.7785 0.5227
C17 C 0.16010(18) 0.63687(16) 0.60606(10)
H12 H 0.1281 0.6847 0.6513
C18 C 0.40301(15) 0.20446(13) 0.72084(8)
C19 C 0.48852(16) 0.09615(14) 0.67557(8)
C20 C 0.40842(18) 0.00451(15) 0.65634(9)
H13 H 0.4630 -0.0683 0.6258
C21 C 0.25086(18) 0.01820(15) 0.68112(9)
H14 H 0.1981 -0.0432 0.6662
C22 C 0.17089(16) 0.12188(15) 0.72769(9)
H15 H 0.0644 0.1291 0.7454
C23 C 0.24526(15) 0.21627(14) 0.74905(8)
C24 C 0.66475(17) 0.07198(16) 0.64903(10)
H16 H 0.6925 0.1589 0.6562
C25 C 0.7911(2) -0.07282(19) 0.70777(12)
H17 H 0.9032 -0.0868 0.6908
H18 H 0.7643 -0.1594 0.7030
H19 H 0.7860 -0.0642 0.7667
C26 C 0.6814(2) 0.0637(2) 0.55515(11)
H20 H 0.7953 0.0497 0.5415
H21 H 0.6042 0.1574 0.5179
H22 H 0.6552 -0.0211 0.5466
C27 C 0.15505(17) 0.32264(16) 0.80438(9)
H23 H 0.2218 0.3846 0.8104
C28 C 0.1465(2) 0.2302(2) 0.89424(11)
H24 H 0.0886 0.2988 0.9292
H25 H 0.2593 0.1686 0.9207
H26 H 0.0863 0.1648 0.8898
C29 C -0.0208(2) 0.43126(19) 0.76482(12)
H27 H -0.0726 0.4963 0.8026
H28 H -0.0882 0.3731 0.7573
H29 H -0.0130 0.4932 0.7095
loop_
_geom_bond_atom_site_label_1
_geom_bond_atom_site_label_2
_geom_bond_site_symmetry_1
_geom_bond_site_symmetry_2
N1 B1 1_555 1_555
N2 B1 1_555 1_555
B1 F1 1_555 1_555
F2 B1 1_555 1_555
C1 N1 1_555 1_555
C2 C1 1_555 1_555
H1 C2 1_555 1_555
C3 N2 1_555 1_555
C4 C3 1_555 1_555
H2 C4 1_555 1_555
C5 C4 1_555 1_555
H3 C5 1_555 1_555
C6 C5 1_555 1_555
C7 C6 1_555 1_555
H4 C7 1_555 1_555
C8 C7 1_555 1_555
H5 C8 1_555 1_555
C9 C8 1_555 1_555
H6 C9 1_555 1_555
C10 C9 1_555 1_555
H7 C10 1_555 1_555
C11 N2 1_555 1_555
C12 C1 1_555 1_555
C13 C12 1_555 1_555
H8 C13 1_555 1_555
C14 C13 1_555 1_555
H9 C14 1_555 1_555
C15 C14 1_555 1_555
H10 C15 1_555 1_555
C16 C15 1_555 1_555
H11 C16 1_555 1_555
C17 C12 1_555 1_555
H12 C17 1_555 1_555
C18 N1 1_555 1_555
C19 C18 1_555 1_555
C20 C19 1_555 1_555
H13 C20 1_555 1_555
C21 C20 1_555 1_555
H14 C21 1_555 1_555
C22 C21 1_555 1_555
H15 C22 1_555 1_555
C23 C18 1_555 1_555
C24 C19 1_555 1_555
H16 C24 1_555 1_555
C25 C24 1_555 1_555
H17 C25 1_555 1_555
H18 C25 1_555 1_555
H19 C25 1_555 1_555
C26 C24 1_555 1_555
H20 C26 1_555 1_555
H21 C26 1_555 1_555
H22 C26 1_555 1_555
C27 C23 1_555 1_555
H23 C27 1_555 1_555
C28 C27 1_555 1_555
H24 C28 1_555 1_555
H25 C28 1_555 1_555
H26 C28 1_555 1_555
C29 C27 1_555 1_555
H27 C29 1_555 1_555
H28 C29 1_555 1_555
H29 C29 1_555 1_555
C2 C3 1_555 1_555
C6 C11 1_555 1_555
C10 C11 1_555 1_555
C16 C17 1_555 1_555
C22 C23 1_555 1_555

#END
