
#######################################################################
#
#                 Cambridge Crystallographic Data Centre
#                                CCDC 
#
#######################################################################
#
# If this CIF has been generated from an entry in the Cambridge 
# Structural Database, then it will include bibliographic, chemical, 
# crystal, experimental, refinement or atomic coordinate data resulting 
# from the CCDC's data processing and validation procedures.
#
#######################################################################

data_FIGJIQ
_chemical_formula_moiety         'C21 H19 B1 F2 N2'
_chemical_name_systematic        
2-(2,6-Dimethylphenyl)-1,1-difluoro-3-phenyl-1,2-dihydro-9\l^5^,1\l^5^-pyrido[1,2-c][1,3,2]diazaborinine
_symmetry_cell_setting           monoclinic
_symmetry_space_group_name_H-M   'P 21/c'
_symmetry_Int_Tables_number      14
_space_group_name_Hall           '-P 2ybc'
loop_
_symmetry_equiv_pos_site_id
_symmetry_equiv_pos_as_xyz
1 x,y,z
2 -x,1/2+y,1/2-z
3 -x,-y,-z
4 x,1/2-y,1/2+z
_cell_length_a                   15.7874(5)
_cell_length_b                   15.5678(6)
_cell_length_c                   7.4655(2)
_cell_angle_alpha                90
_cell_angle_beta                 93.974(2)
_cell_angle_gamma                90
_cell_volume                     1830.42
_exptl_crystal_colour            colorless
_exptl_crystal_description       prism
_cell_formula_units_Z            4
loop_
_atom_site_label
_atom_site_type_symbol
_atom_site_fract_x
_atom_site_fract_y
_atom_site_fract_z
N1 N 0.29434(8) 0.05885(8) 0.22967(16)
N2 N 0.42337(8) 0.14339(8) 0.15642(17)
C1 C 0.25479(10) 0.13470(10) 0.25837(19)
C2 C 0.29522(11) 0.21113(10) 0.2328(2)
H1 H 0.2642 0.2623 0.2424
C3 C 0.38122(11) 0.21701(10) 0.1925(2)
C4 C 0.42654(13) 0.29470(11) 0.1945(2)
H2 H 0.3984 0.3464 0.2168
C5 C 0.51059(13) 0.29605(12) 0.1647(3)
H3 H 0.5404 0.3483 0.1672
C6 C 0.55193(12) 0.22001(13) 0.1306(3)
H4 H 0.6101 0.2200 0.1107
C7 C 0.50751(11) 0.14565(11) 0.1264(2)
H5 H 0.5355 0.0941 0.1020
C8 C 0.16686(10) 0.13616(10) 0.3195(2)
C9 C 0.14437(12) 0.09325(11) 0.4726(2)
H6 H 0.1854 0.0615 0.5416
C10 C 0.06208(13) 0.09710(13) 0.5236(3)
H7 H 0.0474 0.0680 0.6273
C11 C 0.00133(13) 0.14339(15) 0.4236(3)
H8 H -0.0550 0.1448 0.4571
C12 C 0.02344(13) 0.18725(16) 0.2752(3)
H9 H -0.0176 0.2198 0.2082
C13 C 0.10551(12) 0.18414(13) 0.2229(3)
H10 H 0.1199 0.2148 0.1209
C14 C 0.25477(10) -0.02304(9) 0.25682(19)
C15 C 0.28211(11) -0.07068(10) 0.4086(2)
C16 C 0.24915(13) -0.15240(12) 0.4289(3)
H11 H 0.2673 -0.1852 0.5301
C17 C 0.19124(14) -0.18577(13) 0.3056(4)
H12 H 0.1705 -0.2417 0.3208
C18 C 0.16283(13) -0.13868(14) 0.1597(3)
H13 H 0.1211 -0.1620 0.0777
C19 C 0.19462(11) -0.05590(12) 0.1292(2)
C20 C 0.34427(14) -0.03504(14) 0.5503(3)
H14 H 0.3387 -0.0655 0.6622
H15 H 0.3328 0.0255 0.5673
H16 H 0.4015 -0.0421 0.5131
C21 C 0.16344(16) -0.00578(17) -0.0338(3)
H17 H 0.1088 0.0197 -0.0138
H18 H 0.1575 -0.0439 -0.1367
H19 H 0.2039 0.0392 -0.0562
B1 B 0.37683(14) 0.05552(13) 0.1337(3)
F1 F 0.4342(4) -0.0071(4) 0.2130(10)
F2 F 0.3650(5) 0.0392(5) -0.0530(10)
F3? F 0.4203(7) -0.0105(7) 0.1683(16)
F4? F 0.3477(9) 0.0505(9) -0.047(2)
loop_
_geom_bond_atom_site_label_1
_geom_bond_atom_site_label_2
_geom_bond_site_symmetry_1
_geom_bond_site_symmetry_2
N1 C1 1_555 1_555
N2 C3 1_555 1_555
C1 C2 1_555 1_555
C2 H1 1_555 1_555
C3 C2 1_555 1_555
C4 C3 1_555 1_555
H2 C4 1_555 1_555
C5 C4 1_555 1_555
H3 C5 1_555 1_555
C6 C5 1_555 1_555
H4 C6 1_555 1_555
C7 N2 1_555 1_555
H5 C7 1_555 1_555
C8 C1 1_555 1_555
C9 C8 1_555 1_555
H6 C9 1_555 1_555
C10 C9 1_555 1_555
H7 C10 1_555 1_555
C11 C10 1_555 1_555
H8 C11 1_555 1_555
C12 C11 1_555 1_555
H9 C12 1_555 1_555
C13 C8 1_555 1_555
H10 C13 1_555 1_555
C14 N1 1_555 1_555
C15 C14 1_555 1_555
C16 C15 1_555 1_555
H11 C16 1_555 1_555
C17 C16 1_555 1_555
H12 C17 1_555 1_555
C18 C17 1_555 1_555
H13 C18 1_555 1_555
C19 C14 1_555 1_555
C20 C15 1_555 1_555
H14 C20 1_555 1_555
H15 C20 1_555 1_555
H16 C20 1_555 1_555
C21 C19 1_555 1_555
H17 C21 1_555 1_555
H18 C21 1_555 1_555
H19 C21 1_555 1_555
B1 N1 1_555 1_555
F1 B1 1_555 1_555
F2 B1 1_555 1_555
N2 B1 1_555 1_555
C6 C7 1_555 1_555
C12 C13 1_555 1_555
C18 C19 1_555 1_555

#END
