
#######################################################################
#
#                 Cambridge Crystallographic Data Centre
#                                CCDC 
#
#######################################################################
#
# If this CIF has been generated from an entry in the Cambridge 
# Structural Database, then it will include bibliographic, chemical, 
# crystal, experimental, refinement or atomic coordinate data resulting 
# from the CCDC's data processing and validation procedures.
#
#######################################################################

data_FIGJOW01
_chemical_formula_moiety         'C17 H12 B1 F2 N1 O1'
_chemical_name_systematic        
difluoro(1-phenyl-2-(quinolin-2-yl)ethenolato)borate
_symmetry_cell_setting           monoclinic
_symmetry_space_group_name_H-M   'P 21/n'
_symmetry_Int_Tables_number      14
_space_group_name_Hall           '-P 2yn'
loop_
_symmetry_equiv_pos_site_id
_symmetry_equiv_pos_as_xyz
1 x,y,z
2 1/2-x,1/2+y,1/2-z
3 -x,-y,-z
4 1/2+x,1/2-y,1/2+z
_cell_length_a                   7.67122(13)
_cell_length_b                   11.9542(2)
_cell_length_c                   14.3360(3)
_cell_angle_alpha                90
_cell_angle_beta                 95.657(7)
_cell_angle_gamma                90
_cell_volume                     1308.26
_exptl_crystal_colour            yellow
_exptl_crystal_description       plate
_cell_formula_units_Z            4
loop_
_atom_site_label
_atom_site_type_symbol
_atom_site_fract_x
_atom_site_fract_y
_atom_site_fract_z
F1 F 0.40733(9) -0.07607(5) 0.77058(5)
F2 F 0.23733(8) 0.00214(6) 0.64866(5)
O1 O 0.17486(11) 0.03887(7) 0.79965(6)
N1 N 0.44579(12) 0.12029(8) 0.74151(7)
B1 B 0.31294(16) 0.01815(10) 0.73970(9)
C1 C 0.42621(14) 0.20792(9) 0.79891(8)
C2 C 0.55091(15) 0.29662(10) 0.80579(8)
H1 H 0.5337 0.3593 0.8445
C3 C 0.69387(15) 0.29217(9) 0.75747(8)
H2 H 0.7794 0.3498 0.7649
C4 C 0.86018(15) 0.19637(10) 0.64193(9)
H3 H 0.9478 0.2528 0.6489
C5 C 0.87474(15) 0.11067(11) 0.57969(8)
H4 H 0.9715 0.1078 0.5432
C6 C 0.74571(15) 0.02723(10) 0.57024(8)
H5 H 0.7553 -0.0315 0.5264
C7 C 0.60526(15) 0.02861(10) 0.62332(8)
H6 H 0.5204 -0.0295 0.6167
C8 C 0.58770(14) 0.11624(9) 0.68744(8)
C9 C 0.71589(15) 0.20140(10) 0.69577(8)
C10 C 0.28150(15) 0.21220(9) 0.85377(8)
H7 H 0.2689 0.2753 0.8928
C11 C 0.16107(14) 0.12905(9) 0.85215(8)
C12 C 0.00594(14) 0.12965(9) 0.90544(8)
C13 C -0.01891(15) 0.21198(10) 0.97221(8)
H8 H 0.0654 0.2698 0.9840
C14 C -0.16600(16) 0.20973(11) 1.02131(8)
H9 H -0.1814 0.2656 1.0669
C15 C -0.29076(16) 0.12618(11) 1.00403(9)
H10 H -0.3914 0.1248 1.0377
C16 C -0.26793(16) 0.04482(11) 0.93755(9)
H11 H -0.3537 -0.0120 0.9252
C17 C -0.12000(15) 0.04594(10) 0.88883(8)
H12 H -0.1045 -0.0107 0.8439
loop_
_geom_bond_atom_site_label_1
_geom_bond_atom_site_label_2
_geom_bond_site_symmetry_1
_geom_bond_site_symmetry_2
F1 B1 1_555 1_555
F2 B1 1_555 1_555
O1 B1 1_555 1_555
N1 B1 1_555 1_555
C1 N1 1_555 1_555
C2 C1 1_555 1_555
H1 C2 1_555 1_555
C3 C2 1_555 1_555
H2 C3 1_555 1_555
C4 H3 1_555 1_555
C5 C4 1_555 1_555
H4 C5 1_555 1_555
C6 C5 1_555 1_555
H5 C6 1_555 1_555
C7 C6 1_555 1_555
H6 C7 1_555 1_555
C8 N1 1_555 1_555
C9 C3 1_555 1_555
C10 C1 1_555 1_555
H7 C10 1_555 1_555
C11 O1 1_555 1_555
C12 C11 1_555 1_555
C13 C12 1_555 1_555
H8 C13 1_555 1_555
C14 C13 1_555 1_555
H9 C14 1_555 1_555
C15 C14 1_555 1_555
H10 C15 1_555 1_555
C16 C15 1_555 1_555
H11 C16 1_555 1_555
C17 C12 1_555 1_555
H12 C17 1_555 1_555
C4 C9 1_555 1_555
C7 C8 1_555 1_555
C8 C9 1_555 1_555
C10 C11 1_555 1_555
C16 C17 1_555 1_555

#END
