
#######################################################################
#
#                 Cambridge Crystallographic Data Centre
#                                CCDC 
#
#######################################################################
#
# If this CIF has been generated from an entry in the Cambridge 
# Structural Database, then it will include bibliographic, chemical, 
# crystal, experimental, refinement or atomic coordinate data resulting 
# from the CCDC's data processing and validation procedures.
#
#######################################################################

data_FIGMUG
_chemical_name_common            
4,9,19,24,33,35,39,41-octamethoxypillar[6]arene
_chemical_formula_moiety         'C50 H52 O8'
_chemical_name_systematic        
4,9,19,24,33,35,39,41-octamethoxyheptacyclo[26.2.2.2^3,6^.2^8,11^.2^13,16^.2^18,21^.2^23,26^]dotetraconta-1(30),3,5,8,10,13,15,18,20,23,25,28,31,33,35,37,39,41-octadecaene
_symmetry_cell_setting           triclinic
_symmetry_space_group_name_H-M   'P -1'
_symmetry_Int_Tables_number      2
_space_group_name_Hall           '-P 1'
loop_
_symmetry_equiv_pos_site_id
_symmetry_equiv_pos_as_xyz
1 x,y,z
2 -x,-y,-z
_cell_length_a                   9.2581(17)
_cell_length_b                   9.5707(18)
_cell_length_c                   12.083(2)
_cell_angle_alpha                103.776(3)
_cell_angle_beta                 98.535(3)
_cell_angle_gamma                95.421(3)
_cell_volume                     1018.88
_exptl_crystal_colour            colorless
_exptl_crystal_description       block
_cell_formula_units_Z            1
loop_
_atom_site_label
_atom_site_type_symbol
_atom_site_fract_x
_atom_site_fract_y
_atom_site_fract_z
C1 C 0.0580(3) 0.2216(3) 0.6050(2)
H1 H 0.0725 0.1484 0.5432
C2 C -0.0139(3) 0.1854(3) 0.6899(2)
H2 H -0.0448 0.0883 0.6842
C3 C -0.0407(3) 0.2911(3) 0.7828(2)
C4 C 0.0058(3) 0.4354(3) 0.7873(3)
H3 H -0.0128 0.5089 0.8471
C5 C 0.0799(3) 0.4709(3) 0.7032(3)
H4 H 0.1111 0.5680 0.7090
C6 C 0.1084(3) 0.3649(3) 0.6109(2)
C7 C 0.1920(3) 0.4052(3) 0.5212(2)
H5 H 0.2262 0.3191 0.4784
H6 H 0.1253 0.4393 0.4667
C8 C 0.3231(3) 0.5217(3) 0.5743(2)
C9 C 0.4475(3) 0.4906(3) 0.6396(2)
C10 C 0.5646(3) 0.5993(3) 0.6954(2)
H7 H 0.6469 0.5766 0.7384
C11 C 0.5595(3) 0.7418(3) 0.6873(2)
C12 C 0.4372(3) 0.7728(3) 0.6195(2)
C13 C 0.3197(3) 0.6631(3) 0.5631(2)
H8 H 0.2389 0.6850 0.5179
C14 C 0.6807(3) 0.8652(3) 0.7534(2)
H9 H 0.7345 0.8951 0.6980
H10 H 0.6344 0.9471 0.7889
C15 C 0.7906(3) 0.8322(3) 0.8467(2)
C16 C 0.7445(3) 0.7983(3) 0.9434(2)
C17 C 0.8439(3) 0.7667(3) 1.0292(2)
H11 H 0.8100 0.7389 1.0905
C18 C 0.9945(3) 0.7761(3) 1.0241(2)
C19 C 1.0418(3) 0.8146(3) 0.9296(2)
C20 C 0.9413(3) 0.8396(3) 0.8422(2)
H12 H 0.9747 0.8620 0.7787
C21 C 1.1069(3) 0.7464(3) 1.1193(2)
H13 H 1.1572 0.6669 1.0851
H14 H 1.1802 0.8316 1.1508
C22 C 0.5711(3) 0.3129(3) 0.7114(3)
H15 H 0.6563 0.3336 0.6784
H16 H 0.5570 0.2117 0.7097
H17 H 0.5852 0.3701 0.7901
C23 C 0.3173(3) 0.9561(3) 0.5523(3)
H18 H 0.3024 0.9017 0.4728
H19 H 0.3338 1.0580 0.5567
H20 H 0.2316 0.9355 0.5847
C24 C 0.5397(3) 0.7449(4) 1.0343(3)
H21 H 0.5613 0.6474 1.0275
H22 H 0.4349 0.7452 1.0245
H23 H 0.5850 0.8046 1.1095
C25 C 1.2494(3) 0.8750(3) 0.8434(3)
H24 H 1.2158 0.8059 0.7700
H25 H 1.3552 0.8885 0.8602
H26 H 1.2154 0.9660 0.8407
O1 O 0.4448(2) 0.34771(19) 0.64641(17)
O2 O 0.4417(2) 0.91636(19) 0.61527(18)
O3 O 0.5960(2) 0.8007(2) 0.94741(17)
O4 O 1.1927(2) 0.8224(2) 0.93189(17)
C1A C 0.9420(3) 0.7784(3) 1.3950(2)
H1A H 0.9275 0.8516 1.4568
C2A C 1.0139(3) 0.8146(3) 1.3101(2)
H2A H 1.0448 0.9117 1.3158
C3A C 1.0407(3) 0.7089(3) 1.2172(2)
C4A C 0.9942(3) 0.5646(3) 1.2127(3)
H3A H 1.0128 0.4911 1.1529
C5A C 0.9201(3) 0.5291(3) 1.2968(3)
H4A H 0.8889 0.4320 1.2910
C6A C 0.8916(3) 0.6351(3) 1.3891(2)
C7A C 0.8080(3) 0.5948(3) 1.4788(2)
H5A H 0.7738 0.6809 1.5216
H6A H 0.8747 0.5607 1.5333
C8A C 0.6769(3) 0.4783(3) 1.4257(2)
C9A C 0.5525(3) 0.5094(3) 1.3604(2)
C10A C 0.4354(3) 0.4007(3) 1.3046(2)
H7A H 0.3531 0.4234 1.2616
C11A C 0.4405(3) 0.2582(3) 1.3127(2)
C12A C 0.5628(3) 0.2272(3) 1.3805(2)
C13A C 0.6803(3) 0.3369(3) 1.4369(2)
H8A H 0.7611 0.3150 1.4821
C14A C 0.3193(3) 0.1348(3) 1.2466(2)
H9A H 0.2655 0.1049 1.3020
H10A H 0.3656 0.0529 1.2111
C15A C 0.2094(3) 0.1678(3) 1.1533(2)
C16A C 0.2555(3) 0.2017(3) 1.0566(2)
C17A C 0.1561(3) 0.2333(3) 0.9708(2)
H11A H 0.1900 0.2611 0.9095
C18A C 0.0055(3) 0.2239(3) 0.9759(2)
C19A C -0.0418(3) 0.1854(3) 1.0704(2)
C20A C 0.0587(3) 0.1604(3) 1.1578(2)
H12A H 0.0253 0.1380 1.2213
C21A C -0.1069(3) 0.2536(3) 0.8807(2)
H13A H -0.1572 0.3331 0.9149
H14A H -0.1802 0.1684 0.8492
C22A C 0.4289(3) 0.6871(3) 1.2886(3)
H15A H 0.3437 0.6664 1.3216
H16A H 0.4430 0.7883 1.2903
H17A H 0.4148 0.6299 1.2099
C23A C 0.6827(3) 0.0439(3) 1.4477(3)
H18A H 0.6976 0.0983 1.5272
H19A H 0.6662 -0.0580 1.4433
H20A H 0.7684 0.0645 1.4153
C24A C 0.4603(3) 0.2551(4) 0.9657(3)
H21A H 0.4387 0.3526 0.9725
H22A H 0.5651 0.2548 0.9755
H23A H 0.4150 0.1954 0.8905
C25A C -0.2494(3) 0.1250(3) 1.1566(3)
H24A H -0.2158 0.1941 1.2300
H25A H -0.3552 0.1115 1.1398
H26A H -0.2154 0.0340 1.1593
O1A O 0.5552(2) 0.65229(19) 1.35359(17)
O2A O 0.5583(2) 0.08364(19) 1.38473(18)
O3A O 0.4040(2) 0.1993(2) 1.05259(17)
O4A O -0.1927(2) 0.1776(2) 1.06811(17)
loop_
_geom_bond_atom_site_label_1
_geom_bond_atom_site_label_2
_geom_bond_site_symmetry_1
_geom_bond_site_symmetry_2
C1 H1 1_555 1_555
C2 C1 1_555 1_555
H2 C2 1_555 1_555
C3 C2 1_555 1_555
C4 C3 1_555 1_555
H3 C4 1_555 1_555
C5 C4 1_555 1_555
H4 C5 1_555 1_555
C6 C1 1_555 1_555
C7 C6 1_555 1_555
H5 C7 1_555 1_555
H6 C7 1_555 1_555
C8 C7 1_555 1_555
C9 C8 1_555 1_555
C10 C9 1_555 1_555
H7 C10 1_555 1_555
C11 C10 1_555 1_555
C12 C11 1_555 1_555
C13 C8 1_555 1_555
H8 C13 1_555 1_555
C14 C11 1_555 1_555
H9 C14 1_555 1_555
H10 C14 1_555 1_555
C15 C14 1_555 1_555
C16 C15 1_555 1_555
C17 C16 1_555 1_555
H11 C17 1_555 1_555
C18 C17 1_555 1_555
C19 C18 1_555 1_555
C20 C15 1_555 1_555
H12 C20 1_555 1_555
C21 C18 1_555 1_555
H13 C21 1_555 1_555
H14 C21 1_555 1_555
C22 H15 1_555 1_555
H16 C22 1_555 1_555
H17 C22 1_555 1_555
C23 H18 1_555 1_555
H19 C23 1_555 1_555
H20 C23 1_555 1_555
C24 H21 1_555 1_555
H22 C24 1_555 1_555
H23 C24 1_555 1_555
C25 H24 1_555 1_555
H25 C25 1_555 1_555
H26 C25 1_555 1_555
O1 C9 1_555 1_555
O2 C12 1_555 1_555
O3 C16 1_555 1_555
O4 C19 1_555 1_555
C1A H1A 1_555 1_555
C2A C1A 1_555 1_555
H2A C2A 1_555 1_555
C3A C21 1_555 1_555
C4A C3A 1_555 1_555
H3A C4A 1_555 1_555
C5A C4A 1_555 1_555
H4A C5A 1_555 1_555
C6A C1A 1_555 1_555
C7A C6A 1_555 1_555
H5A C7A 1_555 1_555
H6A C7A 1_555 1_555
C8A C7A 1_555 1_555
C9A C8A 1_555 1_555
C10A C9A 1_555 1_555
H7A C10A 1_555 1_555
C11A C10A 1_555 1_555
C12A C11A 1_555 1_555
C13A C8A 1_555 1_555
H8A C13A 1_555 1_555
C14A C11A 1_555 1_555
H9A C14A 1_555 1_555
H10A C14A 1_555 1_555
C15A C14A 1_555 1_555
C16A C15A 1_555 1_555
C17A C16A 1_555 1_555
H11A C17A 1_555 1_555
C18A C17A 1_555 1_555
C19A C18A 1_555 1_555
C20A C15A 1_555 1_555
H12A C20A 1_555 1_555
C21A C3 1_555 1_555
H13A C21A 1_555 1_555
H14A C21A 1_555 1_555
C22A H15A 1_555 1_555
H16A C22A 1_555 1_555
H17A C22A 1_555 1_555
C23A H18A 1_555 1_555
H19A C23A 1_555 1_555
H20A C23A 1_555 1_555
C24A H21A 1_555 1_555
H22A C24A 1_555 1_555
H23A C24A 1_555 1_555
C25A H24A 1_555 1_555
H25A C25A 1_555 1_555
H26A C25A 1_555 1_555
O1A C9A 1_555 1_555
O2A C12A 1_555 1_555
O3A C16A 1_555 1_555
O4A C19A 1_555 1_555
C5 C6 1_555 1_555
C12 C13 1_555 1_555
C19 C20 1_555 1_555
C22 O1 1_555 1_555
C23 O2 1_555 1_555
C24 O3 1_555 1_555
C25 O4 1_555 1_555
C2A C3A 1_555 1_555
C5A C6A 1_555 1_555
C12A C13A 1_555 1_555
C18A C21A 1_555 1_555
C19A C20A 1_555 1_555
C22A O1A 1_555 1_555
C23A O2A 1_555 1_555
C24A O3A 1_555 1_555
C25A O4A 1_555 1_555

#END
