
#######################################################################
#
#                 Cambridge Crystallographic Data Centre
#                                CCDC 
#
#######################################################################
#
# If this CIF has been generated from an entry in the Cambridge 
# Structural Database, then it will include bibliographic, chemical, 
# crystal, experimental, refinement or atomic coordinate data resulting 
# from the CCDC's data processing and validation procedures.
#
#######################################################################

data_FIGNUH
_chemical_name_common            
'4,9,19,24,33,35,39,41-octaethoxypillar[6]arene hexane solvate'
_chemical_formula_moiety         'C58 H68 O8,C6 H14'
_chemical_name_systematic        
'4,9,19,24,33,35,39,41-octaethoxyheptacyclo[26.2.2.2^3,6^.2^8,11^.2^13,16^.2^18,21^.2^23,26^]dotetraconta-1(30),3,5,8,10,13,15,18,20,23,25,28,31,33,35,37,39,41-octadecaene hexane solvate'
_symmetry_cell_setting           triclinic
_symmetry_space_group_name_H-M   'P -1'
_symmetry_Int_Tables_number      2
_space_group_name_Hall           '-P 1'
loop_
_symmetry_equiv_pos_site_id
_symmetry_equiv_pos_as_xyz
1 x,y,z
2 -x,-y,-z
_cell_length_a                   9.1595(3)
_cell_length_b                   12.7076(4)
_cell_length_c                   13.1608(4)
_cell_angle_alpha                82.8100(10)
_cell_angle_beta                 76.1030(10)
_cell_angle_gamma                75.6870(10)
_cell_volume                     1437.33
_exptl_crystal_colour            colorless
_exptl_crystal_description       block
_cell_formula_units_Z            1
loop_
_atom_site_label
_atom_site_type_symbol
_atom_site_fract_x
_atom_site_fract_y
_atom_site_fract_z
C1 C 0.8365(2) 0.12110(17) 0.28326(15)
H1 H 0.9413 0.1037 0.2939
H2 H 0.8262 0.0635 0.2454
C2 C 0.8120(2) 0.22667(16) 0.21635(14)
C3 C 0.8772(3) 0.31049(18) 0.22685(16)
H3 H 0.9412 0.3005 0.2741
C4 C 0.8496(2) 0.40928(18) 0.16873(17)
H4 H 0.8959 0.4640 0.1774
C5 C 0.7542(2) 0.42793(16) 0.09783(13)
C6 C 0.6911(2) 0.34364(17) 0.08599(16)
H5 H 0.6278 0.3533 0.0383
C7 C 0.7201(2) 0.24467(17) 0.14372(16)
H6 H 0.6768 0.1891 0.1333
C8 C 0.7214(2) 0.53690(16) 0.03564(14)
H7 H 0.8110 0.5421 -0.0200
H8 H 0.6356 0.5403 0.0032
C9 C 0.6832(2) 0.63309(16) 0.10216(14)
C10 C 0.5419(2) 0.65929(16) 0.17284(14)
C11 C 0.5130(2) 0.74342(16) 0.23885(14)
H9 H 0.4179 0.7600 0.2856
C12 C 0.6212(2) 0.80268(15) 0.23683(14)
C13 C 0.7611(2) 0.77844(16) 0.16311(15)
C14 C 0.7898(2) 0.69456(17) 0.09739(15)
H10 H 0.8835 0.6795 0.0490
C15 C 0.5968(2) 0.89130(16) 0.31023(15)
H11 H 0.5642 0.9611 0.2734
H12 H 0.6953 0.8901 0.3261
C16 C 0.4804(2) 0.88407(15) 0.41278(14)
C17 C 0.5052(2) 0.79737(16) 0.48631(15)
C18 C 0.4035(2) 0.79403(16) 0.58332(15)
H13 H 0.4223 0.7346 0.6312
C19 C 0.2747(2) 0.87756(15) 0.60993(14)
C20 C 0.2492(2) 0.96519(15) 0.53624(14)
C21 C 0.3503(2) 0.96761(15) 0.43923(15)
H14 H 0.3307 1.0263 0.3908
C22 C 0.3276(4) 0.5865(4) 0.2598(2)
H15 H 0.2586 0.6567 0.2751
H16 H 0.3772 0.5610 0.3185
C23 C 0.2367(4) 0.5091(3) 0.2493(2)
H17 H 0.1609 0.5033 0.3131
H18 H 0.3042 0.4390 0.2360
H19 H 0.1860 0.5346 0.1921
C24 C 1.0108(3) 0.8152(2) 0.0967(2)
H20 H 1.0040 0.8225 0.0237
H21 H 1.0605 0.7404 0.1137
C25 C 1.1021(3) 0.8908(3) 0.1149(3)
H22 H 1.2070 0.8692 0.0769
H23 H 1.0998 0.8882 0.1884
H24 H 1.0582 0.9637 0.0910
C26 C 0.6308(3) 0.6101(2) 0.4817(3)
H25 H 0.5465 0.5984 0.4550
H26 H 0.6098 0.5926 0.5569
C27 C 0.7771(4) 0.5377(2) 0.4318(3)
H27 H 0.7657 0.4638 0.4414
H28 H 0.8585 0.5437 0.4634
H29 H 0.8018 0.5587 0.3581
C28 C 0.0920(3) 1.14003(17) 0.49848(18)
H30 H 0.0692 1.1208 0.4359
H31 H 0.1815 1.1719 0.4778
C29 C -0.0439(3) 1.2193(2) 0.5559(2)
H32 H -0.0690 1.2830 0.5103
H33 H -0.0188 1.2394 0.6164
H34 H -0.1309 1.1860 0.5777
O1 O 0.43643(17) 0.59886(13) 0.17236(11)
O2 O 0.86253(18) 0.84225(14) 0.16142(13)
O3 O 0.63993(16) 0.71781(12) 0.46106(12)
O4 O 0.12115(16) 1.04633(11) 0.56795(11)
C1A C 0.1635(2) 0.87890(17) 0.71674(15)
H1A H 0.0587 0.8963 0.7061
H2A H 0.1738 0.9365 0.7546
C2A C 0.1880(2) 0.77333(16) 0.78365(14)
C3A C 0.1228(3) 0.68951(18) 0.77315(16)
H3A H 0.0588 0.6995 0.7259
C4A C 0.1504(2) 0.59072(18) 0.83127(17)
H4A H 0.1041 0.5360 0.8226
C5A C 0.2458(2) 0.57207(16) 0.90217(13)
C6A C 0.3089(2) 0.65636(17) 0.91401(16)
H5A H 0.3722 0.6467 0.9617
C7A C 0.2799(2) 0.75533(17) 0.85628(16)
H6A H 0.3232 0.8109 0.8667
C8A C 0.2786(2) 0.46310(16) 0.96436(14)
H7A H 0.1890 0.4579 1.0200
H8A H 0.3644 0.4597 0.9968
C9A C 0.3168(2) 0.36691(16) 0.89784(14)
C10A C 0.4581(2) 0.34071(16) 0.82716(14)
C11A C 0.4870(2) 0.25658(16) 0.76115(14)
H9A H 0.5821 0.2400 0.7144
C12A C 0.3788(2) 0.19732(15) 0.76317(14)
C13A C 0.2389(2) 0.22156(16) 0.83689(15)
C14A C 0.2102(2) 0.30544(17) 0.90261(15)
H10A H 0.1165 0.3205 0.9510
C15A C 0.4032(2) 0.10870(16) 0.68977(15)
H11A H 0.4358 0.0389 0.7266
H12A H 0.3047 0.1099 0.6739
C16A C 0.5196(2) 0.11593(15) 0.58722(14)
C17A C 0.4948(2) 0.20263(16) 0.51369(15)
C18A C 0.5965(2) 0.20597(16) 0.41668(15)
H13A H 0.5777 0.2654 0.3688
C19A C 0.7253(2) 0.12244(15) 0.39007(14)
C20A C 0.7508(2) 0.03481(15) 0.46376(14)
C21A C 0.6497(2) 0.03239(15) 0.56077(15)
H14A H 0.6693 -0.0263 0.6092
C22A C 0.6724(4) 0.4135(4) 0.7402(2)
H15A H 0.7414 0.3433 0.7249
H16A H 0.6228 0.4390 0.6815
C23A C 0.7633(4) 0.4909(3) 0.7507(2)
H17A H 0.8391 0.4967 0.6869
H18A H 0.6958 0.5610 0.7640
H19A H 0.8140 0.4654 0.8079
C24A C -0.0108(3) 0.1848(2) 0.9033(2)
H20A H -0.0040 0.1775 0.9763
H21A H -0.0605 0.2596 0.8863
C25A C -0.1021(3) 0.1092(3) 0.8851(3)
H22A H -0.2070 0.1308 0.9231
H23A H -0.0998 0.1118 0.8116
H24A H -0.0582 0.0363 0.9090
C26A C 0.3692(3) 0.3899(2) 0.5183(3)
H25A H 0.4535 0.4016 0.5450
H26A H 0.3902 0.4074 0.4431
C27A C 0.2229(4) 0.4623(2) 0.5682(3)
H27A H 0.2343 0.5362 0.5586
H28A H 0.1415 0.4563 0.5366
H29A H 0.1982 0.4413 0.6419
C28A C 0.9080(3) -0.14003(17) 0.50152(18)
H30A H 0.9308 -0.1208 0.5641
H31A H 0.8185 -0.1719 0.5222
C29A C 1.0439(3) -0.2193(2) 0.4441(2)
H32A H 1.0690 -0.2830 0.4897
H33A H 1.0188 -0.2394 0.3836
H34A H 1.1309 -0.1860 0.4223
O1A O 0.56357(17) 0.40114(13) 0.82764(11)
O2A O 0.13747(18) 0.15775(14) 0.83858(13)
O3A O 0.36007(16) 0.28219(12) 0.53894(12)
O4A O 0.87885(16) -0.04633(11) 0.43205(11)
C30 C 1.3268(4) 1.1750(3) 0.1706(3)
H35 H 1.2263 1.1896 0.2163
H36 H 1.3385 1.2373 0.1226
H37 H 1.4042 1.1601 0.2116
C31 C 1.3448(4) 1.0782(3) 0.1103(3)
H38 H 1.3342 1.0162 0.1603
H39 H 1.2601 1.0924 0.0746
C32 C 1.4915(3) 1.0470(2) 0.0313(2)
H40 H 1.5759 1.0307 0.0676
H41 H 1.5036 1.1099 -0.0172
C30A C 1.6732(4) 0.8250(3) -0.1706(3)
H35A H 1.7737 0.8104 -0.2163
H36A H 1.6615 0.7627 -0.1226
H37A H 1.5958 0.8399 -0.2116
C31A C 1.6552(4) 0.9218(3) -0.1103(3)
H38A H 1.6658 0.9838 -0.1603
H39A H 1.7399 0.9076 -0.0746
C32A C 1.5085(3) 0.9530(2) -0.0313(2)
H40A H 1.4241 0.9693 -0.0676
H41A H 1.4964 0.8901 0.0172
loop_
_geom_bond_atom_site_label_1
_geom_bond_atom_site_label_2
_geom_bond_site_symmetry_1
_geom_bond_site_symmetry_2
C1 H1 1_555 1_555
H2 C1 1_555 1_555
C2 C1 1_555 1_555
C3 C2 1_555 1_555
H3 C3 1_555 1_555
C4 C3 1_555 1_555
H4 C4 1_555 1_555
C5 C4 1_555 1_555
C6 C5 1_555 1_555
H5 C6 1_555 1_555
C7 C2 1_555 1_555
H6 C7 1_555 1_555
C8 C5 1_555 1_555
H7 C8 1_555 1_555
H8 C8 1_555 1_555
C9 C8 1_555 1_555
C10 C9 1_555 1_555
C11 C10 1_555 1_555
H9 C11 1_555 1_555
C12 C11 1_555 1_555
C13 C12 1_555 1_555
C14 C9 1_555 1_555
H10 C14 1_555 1_555
C15 C12 1_555 1_555
H11 C15 1_555 1_555
H12 C15 1_555 1_555
C16 C15 1_555 1_555
C17 C16 1_555 1_555
C18 C17 1_555 1_555
H13 C18 1_555 1_555
C19 C18 1_555 1_555
C20 C19 1_555 1_555
C21 C16 1_555 1_555
H14 C21 1_555 1_555
C22 H15 1_555 1_555
H16 C22 1_555 1_555
C23 C22 1_555 1_555
H17 C23 1_555 1_555
H18 C23 1_555 1_555
H19 C23 1_555 1_555
C24 H20 1_555 1_555
H21 C24 1_555 1_555
C25 C24 1_555 1_555
H22 C25 1_555 1_555
H23 C25 1_555 1_555
H24 C25 1_555 1_555
C26 H25 1_555 1_555
H26 C26 1_555 1_555
C27 C26 1_555 1_555
H27 C27 1_555 1_555
H28 C27 1_555 1_555
H29 C27 1_555 1_555
C28 H30 1_555 1_555
H31 C28 1_555 1_555
C29 C28 1_555 1_555
H32 C29 1_555 1_555
H33 C29 1_555 1_555
H34 C29 1_555 1_555
O1 C10 1_555 1_555
O2 C13 1_555 1_555
O3 C17 1_555 1_555
O4 C20 1_555 1_555
C30 H35 1_555 1_555
H36 C30 1_555 1_555
H37 C30 1_555 1_555
C31 C30 1_555 1_555
H38 C31 1_555 1_555
H39 C31 1_555 1_555
C32 C31 1_555 1_555
H40 C32 1_555 1_555
H41 C32 1_555 1_555
C1A C19 1_555 1_555
H1A C1A 1_555 1_555
H2A C1A 1_555 1_555
C2A C1A 1_555 1_555
C3A C2A 1_555 1_555
H3A C3A 1_555 1_555
C4A C3A 1_555 1_555
H4A C4A 1_555 1_555
C5A C4A 1_555 1_555
C6A C5A 1_555 1_555
H5A C6A 1_555 1_555
C7A C2A 1_555 1_555
H6A C7A 1_555 1_555
C8A C5A 1_555 1_555
H7A C8A 1_555 1_555
H8A C8A 1_555 1_555
C9A C8A 1_555 1_555
C10A C9A 1_555 1_555
C11A C10A 1_555 1_555
H9A C11A 1_555 1_555
C12A C11A 1_555 1_555
C13A C12A 1_555 1_555
C14A C9A 1_555 1_555
H10A C14A 1_555 1_555
C15A C12A 1_555 1_555
H11A C15A 1_555 1_555
H12A C15A 1_555 1_555
C16A C15A 1_555 1_555
C17A C16A 1_555 1_555
C18A C17A 1_555 1_555
H13A C18A 1_555 1_555
C19A C1 1_555 1_555
C20A C19A 1_555 1_555
C21A C16A 1_555 1_555
H14A C21A 1_555 1_555
C22A H15A 1_555 1_555
H16A C22A 1_555 1_555
C23A C22A 1_555 1_555
H17A C23A 1_555 1_555
H18A C23A 1_555 1_555
H19A C23A 1_555 1_555
C24A H20A 1_555 1_555
H21A C24A 1_555 1_555
C25A C24A 1_555 1_555
H22A C25A 1_555 1_555
H23A C25A 1_555 1_555
H24A C25A 1_555 1_555
C26A H25A 1_555 1_555
H26A C26A 1_555 1_555
C27A C26A 1_555 1_555
H27A C27A 1_555 1_555
H28A C27A 1_555 1_555
H29A C27A 1_555 1_555
C28A H30A 1_555 1_555
H31A C28A 1_555 1_555
C29A C28A 1_555 1_555
H32A C29A 1_555 1_555
H33A C29A 1_555 1_555
H34A C29A 1_555 1_555
O1A C10A 1_555 1_555
O2A C13A 1_555 1_555
O3A C17A 1_555 1_555
O4A C20A 1_555 1_555
C30A H35A 1_555 1_555
H36A C30A 1_555 1_555
H37A C30A 1_555 1_555
C31A C30A 1_555 1_555
H38A C31A 1_555 1_555
H39A C31A 1_555 1_555
C32A C32 1_555 1_555
H40A C32A 1_555 1_555
H41A C32A 1_555 1_555
C6 C7 1_555 1_555
C13 C14 1_555 1_555
C20 C21 1_555 1_555
C22 O1 1_555 1_555
C24 O2 1_555 1_555
C26 O3 1_555 1_555
C28 O4 1_555 1_555
C6A C7A 1_555 1_555
C13A C14A 1_555 1_555
C18A C19A 1_555 1_555
C20A C21A 1_555 1_555
C22A O1A 1_555 1_555
C24A O2A 1_555 1_555
C26A O3A 1_555 1_555
C28A O4A 1_555 1_555
C31A C32A 1_555 1_555

#END
