
#######################################################################
#
#                 Cambridge Crystallographic Data Centre
#                                CCDC 
#
#######################################################################
#
# If this CIF has been generated from an entry in the Cambridge 
# Structural Database, then it will include bibliographic, chemical, 
# crystal, experimental, refinement or atomic coordinate data resulting 
# from the CCDC's data processing and validation procedures.
#
#######################################################################

data_FIGNEO
_chemical_formula_moiety         'C14 H10 O2 S1'
_chemical_name_systematic        2-Thia(3)(1,8)biphenylenophane-2,2-dioxide
_symmetry_cell_setting           monoclinic
_symmetry_space_group_name_H-M   'P 21/c'
_symmetry_Int_Tables_number      14
_space_group_name_Hall           '-P 2ybc'
loop_
_symmetry_equiv_pos_site_id
_symmetry_equiv_pos_as_xyz
1 x,y,z
2 -x,1/2+y,1/2-z
3 -x,-y,-z
4 x,1/2-y,1/2+z
_cell_length_a                   9.138(2)
_cell_length_b                   15.118(4)
_cell_length_c                   9.204(3)
_cell_angle_alpha                90
_cell_angle_beta                 120.54(2)
_cell_angle_gamma                90
_cell_volume                     1095.13
_exptl_crystal_colour            yellow
_chemical_melting_point          142-144deg.C
_cell_formula_units_Z            4
loop_
_atom_site_label
_atom_site_type_symbol
_atom_site_fract_x
_atom_site_fract_y
_atom_site_fract_z
S1 S 0.29808(14) 0.88770(6) 0.00556(15)
O1 O 0.47106(36) 0.89719(18) 0.14116(43)
O2 O 0.26316(45) 0.82881(17) -0.13088(44)
C1 C 0.23773(58) 0.99825(23) -0.08011(56)
C2 C 0.05891(56) 1.00798(23) -0.22671(57)
C3 C 0.00247(69) 1.07273(25) -0.35693(63)
C4 C -0.16701(71) 1.07441(26) -0.48344(64)
C5 C -0.29040(69) 1.01364(25) -0.49543(69)
C6 C -0.23590(56) 0.95212(22) -0.36952(55)
C7 C -0.06064(56) 0.95268(22) -0.24264(54)
C8 C 0.18313(54) 0.84912(24) 0.10562(57)
C9 C -0.00251(57) 0.83082(21) -0.01253(56)
C10 C -0.10404(63) 0.76957(23) 0.00906(65)
C11 C -0.27774(64) 0.76288(27) -0.10779(67)
C12 C -0.36094(61) 0.81570(25) -0.25670(66)
C13 C -0.26326(53) 0.87507(22) -0.27537(55)
C14 C -0.08623(52) 0.88019(22) -0.15582(54)
H1 H 0.3241(6) 1.0191(2) -0.1210(6)
H2 H 0.2511(6) 1.0412(2) 0.0196(6)
H3 H 0.0905(7) 1.1200(2) -0.3581(6)
H4 H -0.2084(7) 1.1258(3) -0.5777(6)
H5 H -0.4202(7) 1.0154(2) -0.5989(7)
H6 H 0.1939(5) 0.8989(2) 0.1946(6)
H7 H 0.2425(5) 0.7887(2) 0.1722(6)
H8 H -0.0472(6) 0.7265(2) 0.1177(6)
H9 H -0.3521(6) 0.7159(3) -0.0839(7)
H10 H -0.4945(6) 0.8084(2) -0.3482(7)
loop_
_geom_bond_atom_site_label_1
_geom_bond_atom_site_label_2
_geom_bond_site_symmetry_1
_geom_bond_site_symmetry_2
S1 O1 1_555 1_555
O2 S1 1_555 1_555
C1 S1 1_555 1_555
C2 C1 1_555 1_555
C3 C2 1_555 1_555
C4 C3 1_555 1_555
C5 C4 1_555 1_555
C6 C5 1_555 1_555
C7 C2 1_555 1_555
C8 S1 1_555 1_555
C9 C8 1_555 1_555
C10 C9 1_555 1_555
C11 C10 1_555 1_555
C12 C11 1_555 1_555
C13 C6 1_555 1_555
C14 C7 1_555 1_555
H1 C1 1_555 1_555
H2 C1 1_555 1_555
H3 C3 1_555 1_555
H4 C4 1_555 1_555
H5 C5 1_555 1_555
H6 C8 1_555 1_555
H7 C8 1_555 1_555
H8 C10 1_555 1_555
H9 C11 1_555 1_555
H10 C12 1_555 1_555
C6 C7 1_555 1_555
C9 C14 1_555 1_555
C12 C13 1_555 1_555
C13 C14 1_555 1_555

#END
