
#######################################################################
#
#                 Cambridge Crystallographic Data Centre
#                                CCDC 
#
#######################################################################
#
# If this CIF has been generated from an entry in the Cambridge 
# Structural Database, then it will include bibliographic, chemical, 
# crystal, experimental, refinement or atomic coordinate data resulting 
# from the CCDC's data processing and validation procedures.
#
#######################################################################

data_FIGPET
_chemical_formula_moiety         'C28 H24 B1 N1 S1'
_chemical_name_systematic        
6-(1-benzothiophen-2-yl)-6-(2,4,6-trimethylphenyl)-6H-pyrido[1,2-b][2,1]benzazaborole
_symmetry_cell_setting           monoclinic
_symmetry_space_group_name_H-M   'C 2/c'
_symmetry_Int_Tables_number      15
_space_group_name_Hall           '-C 2yn'
loop_
_symmetry_equiv_pos_site_id
_symmetry_equiv_pos_as_xyz
1 x,y,z
2 -x,y,1/2-z
3 1/2+x,1/2+y,z
4 1/2-x,1/2+y,1/2-z
5 -x,-y,-z
6 x,-y,1/2+z
7 1/2-x,1/2-y,-z
8 1/2+x,1/2-y,1/2+z
_cell_length_a                   19.7338(14)
_cell_length_b                   17.1630(15)
_cell_length_c                   15.0271(12)
_cell_angle_alpha                90
_cell_angle_beta                 119.492(2)
_cell_angle_gamma                90
_cell_volume                     4430.07
_exptl_crystal_colour            colorless
_exptl_crystal_description       Block
_cell_formula_units_Z            8
loop_
_atom_site_label
_atom_site_type_symbol
_atom_site_fract_x
_atom_site_fract_y
_atom_site_fract_z
B1 B 0.68638(19) 0.5470(2) 0.4907(3)
N1 N 0.71755(14) 0.60432(14) 0.43265(18)
S1 S 0.85113(5) 0.53813(5) 0.65453(6)
C1 C 0.75188(15) 0.55580(17) 0.6104(2)
C2 C 0.74073(16) 0.58034(15) 0.6907(2)
H1 H 0.6911 0.5924 0.6830
C3 C 0.81268(16) 0.58553(17) 0.7871(2)
C4 C 0.82371(19) 0.60910(18) 0.8828(2)
H2 H 0.7804 0.6244 0.8899
C5 C 0.8970(2) 0.6100(2) 0.9658(3)
H3 H 0.9043 0.6256 1.0305
C6 C 0.9609(2) 0.5885(2) 0.9563(3)
H4 H 1.0113 0.5896 1.0149
C7 C 0.95300(19) 0.5653(2) 0.8634(3)
H5 H 0.9970 0.5508 0.8573
C8 C 0.87807(16) 0.56398(17) 0.7788(2)
C9 C 0.61393(16) 0.60094(17) 0.4729(2)
C10 C 0.55606(17) 0.5893(2) 0.4987(2)
H6 H 0.5549 0.5423 0.5312
C11 C 0.49971(19) 0.6461(2) 0.4770(3)
H7 H 0.4605 0.6378 0.4952
C12 C 0.5006(2) 0.7145(2) 0.4293(3)
H8 H 0.4611 0.7523 0.4135
C13 C 0.55776(19) 0.7287(2) 0.4044(3)
H9 H 0.5588 0.7764 0.3729
C14 C 0.61415(17) 0.67155(18) 0.4265(2)
C15 C 0.67824(17) 0.67339(17) 0.4046(2)
C16 C 0.7006(2) 0.73139(19) 0.3599(2)
H10 H 0.6733 0.7795 0.3404
C17 C 0.7625(2) 0.7183(2) 0.3443(3)
H11 H 0.7788 0.7579 0.3148
C18 C 0.80138(19) 0.6478(2) 0.3714(2)
H12 H 0.8437 0.6383 0.3596
C19 C 0.77779(18) 0.59145(19) 0.4158(2)
H13 H 0.8043 0.5429 0.4348
C20 C 0.66281(15) 0.46086(17) 0.4380(2)
C21 C 0.67857(16) 0.39067(18) 0.4944(2)
C22 C 0.65979(17) 0.31874(18) 0.4447(3)
H14 H 0.6730 0.2727 0.4848
C23 C 0.62268(18) 0.31166(18) 0.3394(3)
C24 C 0.60251(17) 0.38023(19) 0.2841(2)
H15 H 0.5746 0.3774 0.2115
C25 C 0.62138(15) 0.45334(18) 0.3302(2)
C26 C 0.59314(18) 0.52180(18) 0.2576(2)
H16 H 0.6358 0.5413 0.2481
H17 H 0.5754 0.5633 0.2862
H18 H 0.5499 0.5052 0.1916
C27 C 0.7116(2) 0.3881(2) 0.6091(2)
H19 H 0.7074 0.3349 0.6299
H20 H 0.6822 0.4238 0.6285
H21 H 0.7664 0.4038 0.6433
C28 C 0.6042(2) 0.2333(2) 0.2873(3)
H22 H 0.5661 0.2397 0.2147
H23 H 0.5827 0.1990 0.3193
H24 H 0.6520 0.2101 0.2941
loop_
_geom_bond_atom_site_label_1
_geom_bond_atom_site_label_2
_geom_bond_site_symmetry_1
_geom_bond_site_symmetry_2
B1 N1 1_555 1_555
N1 C15 1_555 1_555
S1 C1 1_555 1_555
C1 B1 1_555 1_555
C2 C1 1_555 1_555
H1 C2 1_555 1_555
C3 C2 1_555 1_555
C4 C3 1_555 1_555
H2 C4 1_555 1_555
C5 C4 1_555 1_555
H3 C5 1_555 1_555
C6 C5 1_555 1_555
H4 C6 1_555 1_555
C7 C6 1_555 1_555
H5 C7 1_555 1_555
C8 S1 1_555 1_555
C9 B1 1_555 1_555
C10 C9 1_555 1_555
H6 C10 1_555 1_555
C11 C10 1_555 1_555
H7 C11 1_555 1_555
C12 C11 1_555 1_555
H8 C12 1_555 1_555
C13 C12 1_555 1_555
H9 C13 1_555 1_555
C14 C9 1_555 1_555
C15 C14 1_555 1_555
C16 C15 1_555 1_555
H10 C16 1_555 1_555
C17 C16 1_555 1_555
H11 C17 1_555 1_555
C18 C17 1_555 1_555
H12 C18 1_555 1_555
C19 N1 1_555 1_555
H13 C19 1_555 1_555
C20 B1 1_555 1_555
C21 C20 1_555 1_555
C22 C21 1_555 1_555
H14 C22 1_555 1_555
C23 C22 1_555 1_555
C24 C23 1_555 1_555
H15 C24 1_555 1_555
C25 C20 1_555 1_555
C26 C25 1_555 1_555
H16 C26 1_555 1_555
H17 C26 1_555 1_555
H18 C26 1_555 1_555
C27 C21 1_555 1_555
H19 C27 1_555 1_555
H20 C27 1_555 1_555
H21 C27 1_555 1_555
C28 C23 1_555 1_555
H22 C28 1_555 1_555
H23 C28 1_555 1_555
H24 C28 1_555 1_555
C3 C8 1_555 1_555
C7 C8 1_555 1_555
C13 C14 1_555 1_555
C18 C19 1_555 1_555
C24 C25 1_555 1_555

#END
