
#######################################################################
#
#                 Cambridge Crystallographic Data Centre
#                                CCDC 
#
#######################################################################
#
# If this CIF has been generated from an entry in the Cambridge 
# Structural Database, then it will include bibliographic, chemical, 
# crystal, experimental, refinement or atomic coordinate data resulting 
# from the CCDC's data processing and validation procedures.
#
#######################################################################

data_FIGREV
_chemical_formula_moiety         'C42 H28 O8'
_chemical_name_systematic        
heptacyclo[26.2.2.2^3,6^.2^8,11^.2^13,16^.2^18,21^.2^23,26^]dotetraconta-1(30),3(42),5,8(40),10,13,15,18(36),20,23(34),25,28,31,37-tetradecaene-4,9,19,24,33,35,39,41-octone
_symmetry_cell_setting           monoclinic
_symmetry_space_group_name_H-M   'P 21/n'
_symmetry_Int_Tables_number      14
_space_group_name_Hall           '-P 2yn'
loop_
_symmetry_equiv_pos_site_id
_symmetry_equiv_pos_as_xyz
1 x,y,z
2 1/2-x,1/2+y,1/2-z
3 -x,-y,-z
4 1/2+x,1/2-y,1/2+z
_cell_length_a                   6.7377(3)
_cell_length_b                   21.9887(11)
_cell_length_c                   12.6417(7)
_cell_angle_alpha                90
_cell_angle_beta                 93.195(2)
_cell_angle_gamma                90
_cell_volume                     1870
_exptl_crystal_colour            colorless
_exptl_crystal_description       block
_cell_formula_units_Z            2
loop_
_atom_site_label
_atom_site_type_symbol
_atom_site_fract_x
_atom_site_fract_y
_atom_site_fract_z
C1 C 1.0467(3) 0.16934(10) 1.04910(17)
H1 H 1.1477 0.1568 1.0069
C2 C 0.8858(3) 0.20108(8) 1.00332(15)
C3 C 0.7406(3) 0.21970(9) 1.06955(15)
H2 H 0.6334 0.2423 1.0418
C4 C 0.8763(3) 0.21504(9) 0.88627(15)
H3 H 1.0022 0.2035 0.8584
H4 H 0.8622 0.2587 0.8774
C5 C 0.7111(3) 0.18436(8) 0.81988(14)
C6 C 0.7265(3) 0.18709(7) 0.70304(14)
C7 C 0.5684(3) 0.15966(7) 0.63389(14)
H5 H 0.5789 0.1615 0.5609
C8 C 0.4113(3) 0.13240(7) 0.67124(14)
C9 C 0.3959(3) 0.12915(8) 0.78778(15)
C10 C 0.5552(3) 0.15560(9) 0.85684(15)
H6 H 0.5471 0.1522 0.9298
C11 C 0.2427(3) 0.10634(8) 0.60378(16)
H7 H 0.2676 0.1132 0.5299
H8 H 0.1217 0.1278 0.6187
C12 C 0.2112(2) 0.03902(8) 0.62070(14)
C13 C 0.3569(2) -0.00188(8) 0.62483(15)
H9 H 0.4870 0.0117 0.6208
C14 C 0.3214(3) -0.06769(8) 0.63551(14)
C15 C 0.1137(3) -0.08919(8) 0.64650(13)
C16 C -0.0314(3) -0.04781(9) 0.64389(15)
H10 H -0.1610 -0.0611 0.6513
C17 C 0.0030(3) 0.01761(9) 0.62985(15)
C18 C 0.0772(3) -0.15604(9) 0.66223(15)
H11 H 0.1751 -0.1792 0.6258
H12 H -0.0533 -0.1666 0.6313
C19 C 0.0892(3) -0.17304(8) 0.77885(15)
C20 C 0.2482(3) -0.20530(8) 0.82384(15)
H13 H 0.3496 -0.2176 0.7817
C21 C -0.0599(3) -0.15605(11) 0.84418(17)
H14 H -0.1707 -0.1354 0.8155
O1 O 0.8697(2) 0.21104(7) 0.66484(11)
O2 O 0.2496(2) 0.10579(8) 0.82487(12)
O3 O 0.4596(2) -0.10401(6) 0.63354(13)
O4 O -0.1367(2) 0.05302(7) 0.62331(15)
C1B C -0.0467(3) -0.16934(10) 0.95090(17)
H1B H -0.1477 -0.1568 0.9931
C2B C 0.1142(3) -0.20108(8) 0.99668(15)
C3B C 0.2594(3) -0.21970(9) 0.93045(15)
H2B H 0.3666 -0.2423 0.9582
C4B C 0.1237(3) -0.21504(9) 1.11373(15)
H3B H -0.0022 -0.2035 1.1416
H4B H 0.1378 -0.2587 1.1226
C5B C 0.2889(3) -0.18436(8) 1.18012(14)
C6B C 0.2735(3) -0.18709(7) 1.29696(14)
C7B C 0.4316(3) -0.15966(7) 1.36611(14)
H5B H 0.4211 -0.1615 1.4391
C8B C 0.5887(3) -0.13240(7) 1.32876(14)
C9B C 0.6041(3) -0.12915(8) 1.21222(15)
C10B C 0.4448(3) -0.15560(9) 1.14316(15)
H6B H 0.4529 -0.1522 1.0702
C11B C 0.7573(3) -0.10634(8) 1.39622(16)
H7B H 0.7324 -0.1132 1.4701
H8B H 0.8783 -0.1278 1.3813
C12B C 0.7888(2) -0.03902(8) 1.37930(14)
C13B C 0.6431(2) 0.00188(8) 1.37517(15)
H9B H 0.5130 -0.0117 1.3792
C14B C 0.6786(3) 0.06769(8) 1.36449(14)
C15B C 0.8863(3) 0.08919(8) 1.35350(13)
C16B C 1.0314(3) 0.04781(9) 1.35611(15)
H10B H 1.1610 0.0611 1.3487
C17B C 0.9970(3) -0.01761(9) 1.37015(15)
C18B C 0.9228(3) 0.15604(9) 1.33777(15)
H11B H 0.8249 0.1792 1.3742
H12B H 1.0533 0.1666 1.3687
C19B C 0.9108(3) 0.17304(8) 1.22115(15)
C20B C 0.7518(3) 0.20530(8) 1.17616(15)
H13B H 0.6504 0.2176 1.2183
C21B C 1.0599(3) 0.15605(11) 1.15582(17)
H14B H 1.1707 0.1354 1.1845
O1B O 0.1303(2) -0.21104(7) 1.33516(11)
O2B O 0.7504(2) -0.10579(8) 1.17513(12)
O3B O 0.5404(2) 0.10401(6) 1.36646(13)
O4B O 1.1367(2) -0.05302(7) 1.37669(15)
loop_
_geom_bond_atom_site_label_1
_geom_bond_atom_site_label_2
_geom_bond_site_symmetry_1
_geom_bond_site_symmetry_2
C1 H1 1_555 1_555
C2 C1 1_555 1_555
C3 C2 1_555 1_555
H2 C3 1_555 1_555
C4 C2 1_555 1_555
H3 C4 1_555 1_555
H4 C4 1_555 1_555
C5 C4 1_555 1_555
C6 C5 1_555 1_555
C7 C6 1_555 1_555
H5 C7 1_555 1_555
C8 C7 1_555 1_555
C9 C8 1_555 1_555
C10 C5 1_555 1_555
H6 C10 1_555 1_555
C11 C8 1_555 1_555
H7 C11 1_555 1_555
H8 C11 1_555 1_555
C12 C11 1_555 1_555
C13 C12 1_555 1_555
H9 C13 1_555 1_555
C14 C13 1_555 1_555
C15 C14 1_555 1_555
C16 C15 1_555 1_555
H10 C16 1_555 1_555
C17 C12 1_555 1_555
C18 C15 1_555 1_555
H11 C18 1_555 1_555
H12 C18 1_555 1_555
C19 C18 1_555 1_555
C20 C19 1_555 1_555
H13 C20 1_555 1_555
C21 C19 1_555 1_555
H14 C21 1_555 1_555
O1 C6 1_555 1_555
O2 C9 1_555 1_555
O3 C14 1_555 1_555
O4 C17 1_555 1_555
C1B C21 1_555 1_555
H1B C1B 1_555 1_555
C2B C1B 1_555 1_555
C3B C20 1_555 1_555
H2B C3B 1_555 1_555
C4B C2B 1_555 1_555
H3B C4B 1_555 1_555
H4B C4B 1_555 1_555
C5B C4B 1_555 1_555
C6B C5B 1_555 1_555
C7B C6B 1_555 1_555
H5B C7B 1_555 1_555
C8B C7B 1_555 1_555
C9B C8B 1_555 1_555
C10B C5B 1_555 1_555
H6B C10B 1_555 1_555
C11B C8B 1_555 1_555
H7B C11B 1_555 1_555
H8B C11B 1_555 1_555
C12B C11B 1_555 1_555
C13B C12B 1_555 1_555
H9B C13B 1_555 1_555
C14B C13B 1_555 1_555
C15B C14B 1_555 1_555
C16B C15B 1_555 1_555
H10B C16B 1_555 1_555
C17B C12B 1_555 1_555
C18B C15B 1_555 1_555
H11B C18B 1_555 1_555
H12B C18B 1_555 1_555
C19B C18B 1_555 1_555
C20B C3 1_555 1_555
H13B C20B 1_555 1_555
C21B C1 1_555 1_555
H14B C21B 1_555 1_555
O1B C6B 1_555 1_555
O2B C9B 1_555 1_555
O3B C14B 1_555 1_555
O4B C17B 1_555 1_555
C9 C10 1_555 1_555
C16 C17 1_555 1_555
C2B C3B 1_555 1_555
C9B C10B 1_555 1_555
C16B C17B 1_555 1_555
C19B C20B 1_555 1_555
C19B C21B 1_555 1_555

#END
