
#######################################################################
#
#                 Cambridge Crystallographic Data Centre
#                                CCDC 
#
#######################################################################
#
# If this CIF has been generated from an entry in the Cambridge 
# Structural Database, then it will include bibliographic, chemical, 
# crystal, experimental, refinement or atomic coordinate data resulting 
# from the CCDC's data processing and validation procedures.
#
#######################################################################

data_FIGSIY
_chemical_formula_moiety         'C29 H20 B1 N1 O1 S1'
_chemical_name_systematic        
(5-(benzothien-2-yl)-8-hydroxyquinoline)diphenylboron
_symmetry_cell_setting           triclinic
_symmetry_space_group_name_H-M   'P -1'
_symmetry_Int_Tables_number      2
_space_group_name_Hall           '-P 1'
loop_
_symmetry_equiv_pos_site_id
_symmetry_equiv_pos_as_xyz
1 x,y,z
2 -x,-y,-z
_cell_length_a                   7.9708(16)
_cell_length_b                   10.540(2)
_cell_length_c                   14.353(3)
_cell_angle_alpha                74.011(4)
_cell_angle_beta                 87.716(4)
_cell_angle_gamma                89.802(4)
_cell_volume                     1158.22
_exptl_crystal_colour            yellow
_exptl_crystal_description       block
_chemical_melting_point          210-211deg.C
_cell_formula_units_Z            2
_exptl_crystal_recrystallization_method dichloromethane/hexane
_exptl_crystal_preparation       luminescent
loop_
_atom_site_label
_atom_site_type_symbol
_atom_site_fract_x
_atom_site_fract_y
_atom_site_fract_z
O1 O 1.69946(11) 0.79958(10) -0.18659(7)
N1 N 1.44362(13) 0.89259(12) -0.25536(9)
B1 B 1.63964(19) 0.87315(19) -0.28716(13)
S1 S 0.97207(12) 0.82111(10) 0.06174(7)
C1 C 1.64775(17) 0.77775(15) -0.35618(11)
C2 C 1.7623(2) 0.67537(18) -0.34028(13)
H1 H 1.8308 0.6616 -0.2875
C3 C 1.7779(2) 0.59365(19) -0.39981(17)
H2 H 1.8565 0.5263 -0.3870
C4 C 1.6783(3) 0.6106(2) -0.47832(16)
H3 H 1.6884 0.5551 -0.5186
C5 C 1.5638(3) 0.7108(2) -0.49607(14)
H4 H 1.4954 0.7239 -0.5489
C6 C 1.5501(2) 0.79154(18) -0.43620(13)
H5 H 1.4715 0.8589 -0.4498
C7 C 1.73303(16) 1.01235(15) -0.32751(11)
C8 C 1.74666(19) 1.09946(18) -0.27076(13)
H6 H 1.6942 1.0779 -0.2093
C9 C 1.8353(2) 1.21665(19) -0.30246(15)
H7 H 1.8419 1.2725 -0.2626
C10 C 1.9130(2) 1.25060(19) -0.39221(17)
H8 H 1.9740 1.3291 -0.4134
C11 C 1.9012(2) 1.16882(18) -0.45132(14)
H9 H 1.9529 1.1923 -0.5130
C12 C 1.81237(18) 1.05174(17) -0.41919(12)
H10 H 1.8053 0.9974 -0.4601
C13 C 1.31696(17) 0.95671(16) -0.30309(11)
H11 H 1.3349 1.0108 -0.3659
C14 C 1.15640(18) 0.94343(17) -0.25941(12)
H12 H 1.0676 0.9882 -0.2939
C15 C 1.12682(18) 0.86574(17) -0.16668(12)
H13 H 1.0181 0.8559 -0.1395
C16 C 1.26095(17) 0.80057(15) -0.11225(11)
C17 C 1.25882(18) 0.71799(16) -0.01529(11)
C18 C 1.4080(2) 0.66207(17) 0.02014(12)
H14 H 1.4058 0.6072 0.0832
C19 C 1.56331(19) 0.68159(17) -0.03176(12)
H15 H 1.6598 0.6408 -0.0038
C20 C 1.56857(17) 0.76174(16) -0.12399(11)
C21 C 1.41677(16) 0.81811(15) -0.16272(11)
C22 C 1.1043(2) 0.69104(19) 0.04728(12)
C23 C 1.0484(13) 0.5742(6) 0.1038(8)
C25 C 0.8950(2) 0.58019(19) 0.16270(12)
C26 C 0.7969(2) 0.4846(2) 0.22769(14)
H16 H 0.8275 0.3963 0.2419
C27 C 0.6571(3) 0.5200(3) 0.27021(16)
H17 H 0.5914 0.4553 0.3132
C28 C 0.6106(3) 0.6487(3) 0.25121(17)
H18 H 0.5145 0.6706 0.2820
C29 C 0.7026(3) 0.7458(2) 0.18783(16)
H19 H 0.6696 0.8335 0.1750
C30 C 0.8473(2) 0.71168(19) 0.14233(12)
S2? S 1.0682(10) 0.5242(5) 0.1120(6)
C24? C 0.9974(15) 0.7727(11) 0.0599(9)
loop_
_geom_bond_atom_site_label_1
_geom_bond_atom_site_label_2
_geom_bond_site_symmetry_1
_geom_bond_site_symmetry_2
O1 B1 1_555 1_555
N1 B1 1_555 1_555
B1 C1 1_555 1_555
S1 C22 1_555 1_555
C1 C2 1_555 1_555
C2 H1 1_555 1_555
C3 C2 1_555 1_555
H2 C3 1_555 1_555
C4 C3 1_555 1_555
H3 C4 1_555 1_555
C5 C4 1_555 1_555
H4 C5 1_555 1_555
C6 C1 1_555 1_555
H5 C6 1_555 1_555
C7 B1 1_555 1_555
C8 C7 1_555 1_555
H6 C8 1_555 1_555
C9 C8 1_555 1_555
H7 C9 1_555 1_555
C10 C9 1_555 1_555
H8 C10 1_555 1_555
C11 C10 1_555 1_555
H9 C11 1_555 1_555
C12 C7 1_555 1_555
H10 C12 1_555 1_555
C13 N1 1_555 1_555
H11 C13 1_555 1_555
C14 C13 1_555 1_555
H12 C14 1_555 1_555
C15 C14 1_555 1_555
H13 C15 1_555 1_555
C16 C15 1_555 1_555
C17 C16 1_555 1_555
C18 C17 1_555 1_555
H14 C18 1_555 1_555
C19 C18 1_555 1_555
H15 C19 1_555 1_555
C20 O1 1_555 1_555
C21 N1 1_555 1_555
C22 C17 1_555 1_555
C23 C22 1_555 1_555
C25 C23 1_555 1_555
C26 C25 1_555 1_555
H16 C26 1_555 1_555
C27 C26 1_555 1_555
H17 C27 1_555 1_555
C28 C27 1_555 1_555
H18 C28 1_555 1_555
C29 C28 1_555 1_555
H19 C29 1_555 1_555
C30 S1 1_555 1_555
C5 C6 1_555 1_555
C11 C12 1_555 1_555
C16 C21 1_555 1_555
C19 C20 1_555 1_555
C20 C21 1_555 1_555
C25 C30 1_555 1_555
C29 C30 1_555 1_555

#END
