
#######################################################################
#
#                 Cambridge Crystallographic Data Centre
#                                CCDC 
#
#######################################################################
#
# If this CIF has been generated from an entry in the Cambridge 
# Structural Database, then it will include bibliographic, chemical, 
# crystal, experimental, refinement or atomic coordinate data resulting 
# from the CCDC's data processing and validation procedures.
#
#######################################################################

data_FIGSAS
_chemical_formula_moiety         'C44 H23 N1'
_chemical_name_systematic        
5-t-butyl-15o-azadibenzo[opq,uvwx]naphtho[5,4,3,2,1-hijkl]phenanthro[1,10,9,8-bcdef]rubicene
_symmetry_cell_setting           monoclinic
_symmetry_space_group_name_H-M   'P 21/c'
_symmetry_Int_Tables_number      14
_space_group_name_Hall           '-P 2ybc'
loop_
_symmetry_equiv_pos_site_id
_symmetry_equiv_pos_as_xyz
1 x,y,z
2 -x,1/2+y,1/2-z
3 -x,-y,-z
4 x,1/2-y,1/2+z
_cell_length_a                   12.240(6)
_cell_length_b                   13.260(6)
_cell_length_c                   17.007(8)
_cell_angle_alpha                90
_cell_angle_beta                 102.256(7)
_cell_angle_gamma                90
_cell_volume                     2697.37
_exptl_crystal_colour            red
_exptl_crystal_description       Block
_cell_formula_units_Z            4
_chemical_properties_physical    Air-sensitive
_exptl_crystal_recrystallization_method 
'Re-crystallisation from solvent: dichloromethane/acetonitrile'
loop_
_atom_site_label
_atom_site_type_symbol
_atom_site_fract_x
_atom_site_fract_y
_atom_site_fract_z
N1 N 0.5243(2) 0.2756(2) 0.65380(17)
C1 C 0.5214(3) 0.1664(2) 0.5393(2)
C2 C 0.3907(3) 0.3124(3) 0.5324(2)
C3 C 0.4289(3) 0.2208(3) 0.4947(2)
C4 C 0.5574(3) 0.1884(3) 0.6212(2)
C5 C 0.9112(3) 0.1019(3) 0.5477(2)
C6 C 1.0173(3) 0.1887(3) 0.6675(2)
C7 C 0.5924(3) 0.1038(3) 0.5026(2)
C8 C 0.2971(3) 0.4768(3) 0.5238(2)
C9 C 0.6558(3) 0.1559(3) 0.6691(2)
C10 C 0.4500(3) 0.3432(3) 0.6094(2)
C11 C 0.6874(3) 0.2291(3) 0.7321(2)
C12 C 0.5504(3) 0.0797(3) 0.4224(2)
H1 H 0.590650 0.034532 0.395788
C13 C 0.7092(3) 0.0847(3) 0.5481(2)
C14 C 0.9317(3) 0.1215(3) 0.6291(2)
C15 C 1.1443(3) 0.3264(3) 0.6639(2)
H2 H 1.205460 0.354243 0.645046
C16 C 0.5409(3) 0.4758(3) 0.7059(2)
C17 C 0.4484(3) 0.4430(3) 0.6401(2)
C18 C 0.3131(3) 0.3816(3) 0.4916(2)
H3 H 0.269580 0.363856 0.440360
C19 C 0.3922(3) 0.1940(3) 0.4142(2)
H4 H 0.327906 0.225552 0.382688
C20 C 0.7356(3) 0.1064(3) 0.6330(2)
C21 C 0.3673(3) 0.5064(3) 0.5960(2)
H5 H 0.359503 0.572466 0.615760
C22 C 0.8462(3) 0.1221(3) 0.6735(2)
C23 C 0.8280(3) 0.3598(3) 0.7868(2)
C24 C 0.4490(3) 0.1214(3) 0.3800(2)
H6 H 0.418923 0.099200 0.326649
C25 C 0.6057(3) 0.3023(3) 0.7189(2)
C26 C 0.6247(3) 0.4046(3) 0.7400(2)
C27 C 0.9838(3) 0.2347(3) 0.7340(2)
C28 C 0.5624(3) 0.5776(3) 0.7286(2)
H7 H 0.507766 0.627774 0.709522
C29 C 0.7996(3) 0.2567(3) 0.7636(2)
C30 C 0.7987(3) 0.0782(3) 0.5090(2)
H8 H 0.784006 0.057201 0.454370
C31 C 1.0836(3) 0.1995(3) 0.5453(2)
H9 H 1.139035 0.219717 0.516917
C32 C 1.1089(3) 0.3716(3) 0.7259(2)
H10 H 1.145491 0.431274 0.748608
C33 C 1.0171(3) 0.3320(3) 0.7586(2)
C34 C 0.9382(3) 0.3930(3) 0.7883(2)
H11 H 0.960613 0.457691 0.809813
C35 C 0.8788(3) 0.1951(3) 0.7391(2)
C36 C 0.9989(3) 0.1362(3) 0.5086(2)
H12 H 0.997744 0.114050 0.455359
C37 C 1.0895(3) 0.2357(3) 0.6262(2)
C38 C 0.2088(3) 0.5508(3) 0.4796(2)
C39 C 0.7349(3) 0.4331(3) 0.7817(2)
C40 C 0.6629(3) 0.6042(3) 0.7784(2)
H13 H 0.673745 0.671915 0.796642
C41 C 0.7488(3) 0.5344(3) 0.8028(2)
H14 H 0.818215 0.556445 0.834400
C42 C 0.2670(3) 0.6413(3) 0.4496(3)
H15 H 0.210487 0.687551 0.419930
H16 H 0.314950 0.617549 0.414026
H17 H 0.312645 0.676643 0.495705
C43 C 0.1363(3) 0.5869(3) 0.5367(3)
H18 H 0.101693 0.528693 0.557245
H19 H 0.077779 0.631863 0.507753
H20 H 0.182764 0.623435 0.581754
C44 C 0.1329(3) 0.5013(3) 0.4059(3)
H21 H 0.099437 0.440002 0.422758
H22 H 0.177231 0.483987 0.366196
H23 H 0.073500 0.548555 0.381938
loop_
_geom_bond_atom_site_label_1
_geom_bond_atom_site_label_2
_geom_bond_site_symmetry_1
_geom_bond_site_symmetry_2
N1 C4 1_555 1_555
C1 C3 1_555 1_555
C2 C3 1_555 1_555
C3 C19 1_555 1_555
C4 C1 1_555 1_555
C5 C14 1_555 1_555
C6 C14 1_555 1_555
C7 C1 1_555 1_555
C8 C18 1_555 1_555
C9 C4 1_555 1_555
C10 N1 1_555 1_555
C11 C9 1_555 1_555
C12 C7 1_555 1_555
H1 C12 1_555 1_555
C13 C7 1_555 1_555
C14 C22 1_555 1_555
C15 H2 1_555 1_555
C16 C17 1_555 1_555
C17 C10 1_555 1_555
C18 C2 1_555 1_555
H3 C18 1_555 1_555
C19 H4 1_555 1_555
C20 C9 1_555 1_555
C21 C8 1_555 1_555
H5 C21 1_555 1_555
C22 C20 1_555 1_555
C23 C29 1_555 1_555
C24 C12 1_555 1_555
H6 C24 1_555 1_555
C25 N1 1_555 1_555
C26 C16 1_555 1_555
C27 C6 1_555 1_555
C28 C16 1_555 1_555
H7 C28 1_555 1_555
C29 C11 1_555 1_555
C30 C5 1_555 1_555
H8 C30 1_555 1_555
C31 H9 1_555 1_555
C32 C15 1_555 1_555
H10 C32 1_555 1_555
C33 C27 1_555 1_555
C34 C23 1_555 1_555
H11 C34 1_555 1_555
C35 C22 1_555 1_555
C36 C5 1_555 1_555
H12 C36 1_555 1_555
C37 C6 1_555 1_555
C38 C8 1_555 1_555
C39 C23 1_555 1_555
C40 C28 1_555 1_555
H13 C40 1_555 1_555
C41 C39 1_555 1_555
H14 C41 1_555 1_555
C42 C38 1_555 1_555
H15 C42 1_555 1_555
H16 C42 1_555 1_555
H17 C42 1_555 1_555
C43 C38 1_555 1_555
H18 C43 1_555 1_555
H19 C43 1_555 1_555
H20 C43 1_555 1_555
C44 C38 1_555 1_555
H21 C44 1_555 1_555
H22 C44 1_555 1_555
H23 C44 1_555 1_555
C2 C10 1_555 1_555
C11 C25 1_555 1_555
C13 C20 1_555 1_555
C13 C30 1_555 1_555
C15 C37 1_555 1_555
C17 C21 1_555 1_555
C19 C24 1_555 1_555
C25 C26 1_555 1_555
C26 C39 1_555 1_555
C27 C35 1_555 1_555
C29 C35 1_555 1_555
C31 C36 1_555 1_555
C31 C37 1_555 1_555
C32 C33 1_555 1_555
C33 C34 1_555 1_555
C40 C41 1_555 1_555

#END
