
#######################################################################
#
#                 Cambridge Crystallographic Data Centre
#                                CCDC 
#
#######################################################################
#
# If this CIF has been generated from an entry in the Cambridge 
# Structural Database, then it will include bibliographic, chemical, 
# crystal, experimental, refinement or atomic coordinate data resulting 
# from the CCDC's data processing and validation procedures.
#
#######################################################################

data_FIGSUK
_chemical_formula_moiety         'C26 H18 B1 N1 O1 S2'
_chemical_name_systematic        
bis(benzothien-2-yl)(2-methyl-8-hydroxyquinoline)boron
_symmetry_cell_setting           monoclinic
_symmetry_space_group_name_H-M   'P 21/c'
_symmetry_Int_Tables_number      14
_space_group_name_Hall           '-P 2ybc'
loop_
_symmetry_equiv_pos_site_id
_symmetry_equiv_pos_as_xyz
1 x,y,z
2 -x,1/2+y,1/2-z
3 -x,-y,-z
4 x,1/2-y,1/2+z
_cell_length_a                   18.36(3)
_cell_length_b                   17.41(2)
_cell_length_c                   13.799(19)
_cell_angle_alpha                90
_cell_angle_beta                 100.97(2)
_cell_angle_gamma                90
_cell_volume                     4330.22
_exptl_crystal_colour            yellow
_exptl_crystal_description       block
_chemical_melting_point          208-209deg.C
_cell_formula_units_Z            8
_exptl_crystal_recrystallization_method hexane/dichloromethane
_exptl_crystal_preparation       luminescent
loop_
_atom_site_label
_atom_site_type_symbol
_atom_site_fract_x
_atom_site_fract_y
_atom_site_fract_z
B1 B 0.09176(15) 0.35138(13) 0.18632(17)
S1 S 0.25352(4) 0.35607(3) 0.21273(5)
S2 S -0.06584(4) 0.32911(4) 0.14990(4)
N1 N 0.10164(9) 0.44443(9) 0.18623(12)
O1 O 0.08186(9) 0.34139(8) 0.29302(10)
C1 C 0.11039(13) 0.49472(13) 0.11676(16)
C2 C 0.12510(15) 0.57147(14) 0.1447(2)
H1 H 0.1315 0.6069 0.0966
C3 C 0.13041(15) 0.59635(14) 0.2394(2)
H2 H 0.1406 0.6477 0.2550
C4 C 0.12037(13) 0.54410(13) 0.31334(17)
C5 C 0.12135(17) 0.55762(16) 0.4139(2)
H3 H 0.1311 0.6067 0.4399
C6 C 0.10813(18) 0.49937(17) 0.4729(2)
H4 H 0.1088 0.5098 0.5392
C7 C 0.09340(15) 0.42389(15) 0.43903(17)
H5 H 0.0837 0.3854 0.4816
C8 C 0.09368(12) 0.40829(12) 0.34231(15)
C9 C 0.10642(12) 0.46905(12) 0.28110(15)
C10 C 0.10409(16) 0.46724(15) 0.01330(17)
H6 H 0.0940 0.4131 0.0105
H7 H 0.1498 0.4769 -0.0087
H8 H 0.0644 0.4940 -0.0286
C11 C 0.16751(12) 0.31205(12) 0.17023(15)
C12 C 0.17837(12) 0.24056(12) 0.13681(15)
H9 H 0.1392 0.2083 0.1106
C13 C 0.25401(12) 0.21821(12) 0.14455(15)
C14 C 0.28310(14) 0.14840(13) 0.11901(17)
H10 H 0.2515 0.1090 0.0919
C15 C 0.35834(15) 0.13851(15) 0.13414(19)
H11 H 0.3778 0.0923 0.1169
C16 C 0.40545(15) 0.19640(17) 0.1747(2)
H12 H 0.4565 0.1886 0.1849
C17 C 0.37851(15) 0.26554(16) 0.2002(2)
H13 H 0.4107 0.3046 0.2272
C18 C 0.30253(13) 0.27585(13) 0.18499(16)
C19 C 0.01953(12) 0.32033(11) 0.11424(15)
C20 C 0.01099(15) 0.28234(13) 0.02444(18)
H14 H 0.0402(10) 0.2759(10) 0.0015(13)
C21 C -0.06388(13) 0.25941(12) -0.01366(15)
C22 C -0.09206(15) 0.21965(14) -0.10113(17)
H15 H -0.0603 0.2037 -0.1422
C23 C -0.16578(17) 0.20451(15) -0.1257(2)
H16 H -0.1841 0.1772 -0.1831
C24 C -0.21423(15) 0.22912(15) -0.0664(2)
H17 H -0.2647 0.2193 -0.0855
C25 C -0.18878(14) 0.26763(14) 0.0200(2)
H18 H -0.2213 0.2836 0.0599
C26 C -0.11208(13) 0.28245(12) 0.04683(16)
B2 B 0.31495(16) 0.52253(16) -0.1390(2)
S3 S 0.29678(8) 0.53724(8) 0.06313(10)
S6 S 0.32941(15) 0.56234(16) -0.3311(2)
N2 N 0.29377(10) 0.43198(10) -0.12265(13)
O2 O 0.23935(9) 0.55054(9) -0.19082(12)
C27 C 0.33117(14) 0.37203(14) -0.07907(17)
C28 C 0.29355(16) 0.30262(14) -0.07349(18)
H19 H 0.3197 0.2608 -0.0424
C29 C 0.22047(16) 0.29441(15) -0.11181(18)
H20 H 0.1971 0.2477 -0.1064
C30 C 0.17977(14) 0.35665(14) -0.15999(17)
C31 C 0.10455(16) 0.35939(18) -0.2061(2)
H21 H 0.0746 0.3163 -0.2065
C32 C 0.07597(15) 0.4256(2) -0.2502(2)
H22 H 0.0265 0.4258 -0.2820
C33 C 0.11726(14) 0.49393(16) -0.25024(17)
H23 H 0.0957 0.5382 -0.2808
C34 C 0.18984(14) 0.49296(14) -0.20401(16)
C35 C 0.22044(13) 0.42414(13) -0.16190(15)
C36 C 0.41197(15) 0.37979(17) -0.0370(2)
H24 H 0.4278 0.4312 -0.0475
H25 H 0.4395 0.3441 -0.0690
H26 H 0.4206 0.3691 0.0325
C37 C 0.37128(16) 0.53379(13) -0.21251(19)
C39 C 0.4474(7) 0.5325(9) -0.1957(11)
C40 C 0.47833(19) 0.54899(15) -0.2924(2)
C41 C 0.5497(2) 0.55408(18) -0.3163(3)
H27 H 0.5918 0.5406 -0.2706
C42 C 0.5551(3) 0.5790(2) -0.4069(4)
H28 H 0.6016 0.5838 -0.4236
C43 C 0.4920(3) 0.5976(2) -0.4760(3)
H29 H 0.4972 0.6143 -0.5383
C44 C 0.4230(2) 0.59200(17) -0.4546(2)
H30 H 0.3813 0.6037 -0.5019
C45 C 0.41599(18) 0.56839(14) -0.3607(2)
C46 C 0.33811(13) 0.56310(13) -0.03323(17)
C48 C 0.3802(3) 0.6268(3) -0.0043(4)
C49 C 0.38095(13) 0.65675(14) 0.09204(19)
C50 C 0.41346(16) 0.72126(16) 0.1430(2)
H31 H 0.4432 0.7537 0.1136
C51 C 0.40201(19) 0.7362(2) 0.2328(3)
H32 H 0.4228 0.7801 0.2652
C52 C 0.3604(2) 0.6889(2) 0.2791(2)
H33 H 0.3531 0.7012 0.3422
C53 C 0.32856(17) 0.6221(2) 0.2331(2)
H34 H 0.3016 0.5888 0.2655
C54 C 0.33849(14) 0.60689(15) 0.13664(18)
S4? S 0.38849(16) 0.64391(16) -0.0232(2)
S5? S 0.4696(2) 0.5175(3) -0.1788(3)
C38? C 0.3602(6) 0.5593(8) -0.3024(10)
C47? C 0.3173(3) 0.5221(3) 0.0707(3)
loop_
_geom_bond_atom_site_label_1
_geom_bond_atom_site_label_2
_geom_bond_site_symmetry_1
_geom_bond_site_symmetry_2
B1 N1 1_555 1_555
B2 N2 1_555 1_555
S1 C11 1_555 1_555
S2 C19 1_555 1_555
S3 C46 1_555 1_555
S6 C37 1_555 1_555
N1 C1 1_555 1_555
N2 C27 1_555 1_555
O1 B1 1_555 1_555
O2 B2 1_555 1_555
C1 C2 1_555 1_555
C2 H1 1_555 1_555
C3 C2 1_555 1_555
H2 C3 1_555 1_555
C4 C3 1_555 1_555
C5 C4 1_555 1_555
H3 C5 1_555 1_555
C6 C5 1_555 1_555
H4 C6 1_555 1_555
C7 C6 1_555 1_555
H5 C7 1_555 1_555
C8 O1 1_555 1_555
C9 N1 1_555 1_555
C10 C1 1_555 1_555
H6 C10 1_555 1_555
H7 C10 1_555 1_555
H8 C10 1_555 1_555
C11 B1 1_555 1_555
C12 C11 1_555 1_555
H9 C12 1_555 1_555
C13 C12 1_555 1_555
C14 C13 1_555 1_555
H10 C14 1_555 1_555
C15 C14 1_555 1_555
H11 C15 1_555 1_555
C16 C15 1_555 1_555
H12 C16 1_555 1_555
C17 C16 1_555 1_555
H13 C17 1_555 1_555
C18 S1 1_555 1_555
C19 B1 1_555 1_555
C20 C19 1_555 1_555
H14 C20 1_555 1_555
C21 C20 1_555 1_555
C22 C21 1_555 1_555
H15 C22 1_555 1_555
C23 C22 1_555 1_555
H16 C23 1_555 1_555
C24 C23 1_555 1_555
H17 C24 1_555 1_555
C25 C24 1_555 1_555
H18 C25 1_555 1_555
C26 S2 1_555 1_555
C27 C28 1_555 1_555
C28 H19 1_555 1_555
C29 C28 1_555 1_555
H20 C29 1_555 1_555
C30 C29 1_555 1_555
C31 C30 1_555 1_555
H21 C31 1_555 1_555
C32 C31 1_555 1_555
H22 C32 1_555 1_555
C33 C32 1_555 1_555
H23 C33 1_555 1_555
C34 O2 1_555 1_555
C35 N2 1_555 1_555
C36 C27 1_555 1_555
H24 C36 1_555 1_555
H25 C36 1_555 1_555
H26 C36 1_555 1_555
C37 B2 1_555 1_555
C39 C37 1_555 1_555
C40 C39 1_555 1_555
C41 C40 1_555 1_555
H27 C41 1_555 1_555
C42 C41 1_555 1_555
H28 C42 1_555 1_555
C43 C42 1_555 1_555
H29 C43 1_555 1_555
C44 C43 1_555 1_555
H30 C44 1_555 1_555
C45 S6 1_555 1_555
C46 B2 1_555 1_555
C48 C46 1_555 1_555
C49 C48 1_555 1_555
C50 C49 1_555 1_555
H31 C50 1_555 1_555
C51 C50 1_555 1_555
H32 C51 1_555 1_555
C52 C51 1_555 1_555
H33 C52 1_555 1_555
C53 C52 1_555 1_555
H34 C53 1_555 1_555
C54 S3 1_555 1_555
C4 C9 1_555 1_555
C7 C8 1_555 1_555
C8 C9 1_555 1_555
C13 C18 1_555 1_555
C17 C18 1_555 1_555
C21 C26 1_555 1_555
C25 C26 1_555 1_555
C30 C35 1_555 1_555
C33 C34 1_555 1_555
C34 C35 1_555 1_555
C40 C45 1_555 1_555
C44 C45 1_555 1_555
C49 C54 1_555 1_555
C53 C54 1_555 1_555

#END
