
#######################################################################
#
#                 Cambridge Crystallographic Data Centre
#                                CCDC 
#
#######################################################################
#
# If this CIF has been generated from an entry in the Cambridge 
# Structural Database, then it will include bibliographic, chemical, 
# crystal, experimental, refinement or atomic coordinate data resulting 
# from the CCDC's data processing and validation procedures.
#
#######################################################################

data_FIGTAR
_chemical_formula_moiety         'C31 H22 B1 N1 O1'
_chemical_name_systematic        diphenyl(5-naphthyl-8-hydroxyquinoline)boron
_symmetry_cell_setting           monoclinic
_symmetry_space_group_name_H-M   'P 21/c'
_symmetry_Int_Tables_number      14
_space_group_name_Hall           '-P 2ybc'
loop_
_symmetry_equiv_pos_site_id
_symmetry_equiv_pos_as_xyz
1 x,y,z
2 -x,1/2+y,1/2-z
3 -x,-y,-z
4 x,1/2-y,1/2+z
_cell_length_a                   16.850(5)
_cell_length_b                   7.776(2)
_cell_length_c                   18.372(6)
_cell_angle_alpha                90.00
_cell_angle_beta                 107.837(5)
_cell_angle_gamma                90.00
_cell_volume                     2291.49
_exptl_crystal_colour            green
_chemical_melting_point          255-256deg.C
_cell_formula_units_Z            4
_exptl_crystal_recrystallization_method hexane/dichloromethane
_exptl_crystal_preparation       luminescent
loop_
_atom_site_label
_atom_site_type_symbol
_atom_site_fract_x
_atom_site_fract_y
_atom_site_fract_z
O1 O 0.19681(17) 0.2056(3) 0.40222(16)
N1 N 0.1787(2) 0.4895(4) 0.44508(18)
C1 C 0.0456(3) 0.3140(5) 0.3733(3)
B1 B 0.1345(3) 0.2986(6) 0.4344(3)
C2 C -0.0193(3) 0.4111(6) 0.3846(3)
H1 H -0.0099 0.4682 0.4310
C3 C -0.1127(3) 0.3451(7) 0.2617(3)
H2 H -0.1645 0.3555 0.2248
C4 C -0.0960(3) 0.4269(6) 0.3313(3)
H3 H -0.1370 0.4930 0.3421
C5 C -0.0509(4) 0.2482(7) 0.2486(3)
H4 H -0.0611 0.1914 0.2021
C6 C 0.0265(3) 0.2328(5) 0.3029(3)
H5 H 0.0670 0.1657 0.2919
C7 C 0.1419(3) 0.2229(5) 0.5176(3)
C8 C 0.2188(3) 0.2119(6) 0.5729(3)
H6 H 0.2652 0.2517 0.5607
C9 C 0.2306(4) 0.1455(6) 0.6450(3)
H7 H 0.2837 0.1394 0.6801
C10 C 0.0750(3) 0.1626(5) 0.5392(3)
H8 H 0.0218 0.1683 0.5043
C11 C 0.1620(4) 0.0885(6) 0.6640(3)
H9 H 0.1686 0.0462 0.7129
C12 C 0.0847(4) 0.0935(6) 0.6117(3)
H10 H 0.0388 0.0513 0.6241
C13 C 0.2525(3) 0.3155(5) 0.3905(2)
C14 C 0.3136(3) 0.2852(5) 0.3587(3)
H11 H 0.3200 0.1776 0.3391
C15 C 0.3673(3) 0.4221(6) 0.3563(3)
H12 H 0.4107 0.4008 0.3361
C16 C 0.3594(3) 0.5855(6) 0.3817(3)
C17 C 0.2935(3) 0.6198(5) 0.4124(3)
C18 C 0.2733(3) 0.7747(5) 0.4406(3)
H13 H 0.3042 0.8729 0.4390
C19 C 0.2089(3) 0.7835(5) 0.4705(3)
H14 H 0.1963 0.8875 0.4896
C20 C 0.1616(3) 0.6383(5) 0.4728(2)
H15 H 0.1180 0.6450 0.4938
C21 C 0.2427(3) 0.4816(4) 0.4156(2)
C22 C 0.4250(4) 0.7242(7) 0.3841(4)
C23 C 0.4919(4) 0.7482(7) 0.4452(4)
H16 H 0.4976 0.6780 0.4876
C24 C 0.5538(4) 0.8713(9) 0.4500(4)
H17 H 0.5992 0.8798 0.4940
C25 C 0.5475(4) 0.9797(8) 0.3893(5)
H18 H 0.5875 1.0633 0.3909
C26 C 0.4752(4) 0.9564(6) 0.3227(5)
C27 C 0.4668(5) 1.0534(8) 0.2603(6)
H19 H 0.5067 1.1361 0.2605
C28 C 0.4012(5) 1.0315(11) 0.1978(5)
H20 H 0.3970 1.1020 0.1559
C29 C 0.3388(4) 0.9101(9) 0.1915(4)
H21 H 0.2949 0.9002 0.1464
C30 C 0.3429(4) 0.8054(7) 0.2525(4)
H22 H 0.3021 0.7232 0.2501
C31 C 0.4138(4) 0.8278(6) 0.3212(4)
loop_
_geom_bond_atom_site_label_1
_geom_bond_atom_site_label_2
_geom_bond_site_symmetry_1
_geom_bond_site_symmetry_2
O1 B1 1_555 1_555
N1 B1 1_555 1_555
C1 B1 1_555 1_555
B1 C7 1_555 1_555
C2 C1 1_555 1_555
H1 C2 1_555 1_555
C3 H2 1_555 1_555
C4 C2 1_555 1_555
H3 C4 1_555 1_555
C5 C3 1_555 1_555
H4 C5 1_555 1_555
C6 C1 1_555 1_555
H5 C6 1_555 1_555
C7 C8 1_555 1_555
C8 H6 1_555 1_555
C9 C8 1_555 1_555
H7 C9 1_555 1_555
C10 C7 1_555 1_555
H8 C10 1_555 1_555
C11 C9 1_555 1_555
H9 C11 1_555 1_555
C12 C10 1_555 1_555
H10 C12 1_555 1_555
C13 O1 1_555 1_555
C14 C13 1_555 1_555
H11 C14 1_555 1_555
C15 C14 1_555 1_555
H12 C15 1_555 1_555
C16 C15 1_555 1_555
C17 C16 1_555 1_555
C18 C17 1_555 1_555
H13 C18 1_555 1_555
C19 C18 1_555 1_555
H14 C19 1_555 1_555
C20 N1 1_555 1_555
H15 C20 1_555 1_555
C21 N1 1_555 1_555
C22 C16 1_555 1_555
C23 C22 1_555 1_555
H16 C23 1_555 1_555
C24 C23 1_555 1_555
H17 C24 1_555 1_555
C25 C24 1_555 1_555
H18 C25 1_555 1_555
C26 C25 1_555 1_555
C27 C26 1_555 1_555
H19 C27 1_555 1_555
C28 C27 1_555 1_555
H20 C28 1_555 1_555
C29 C28 1_555 1_555
H21 C29 1_555 1_555
C30 C29 1_555 1_555
H22 C30 1_555 1_555
C31 C22 1_555 1_555
C3 C4 1_555 1_555
C5 C6 1_555 1_555
C11 C12 1_555 1_555
C13 C21 1_555 1_555
C17 C21 1_555 1_555
C19 C20 1_555 1_555
C26 C31 1_555 1_555
C30 C31 1_555 1_555

#END
