
#######################################################################
#
#                 Cambridge Crystallographic Data Centre
#                                CCDC 
#
#######################################################################
#
# If this CIF has been generated from an entry in the Cambridge 
# Structural Database, then it will include bibliographic, chemical, 
# crystal, experimental, refinement or atomic coordinate data resulting 
# from the CCDC's data processing and validation procedures.
#
#######################################################################

data_FIGVAU
_chemical_formula_moiety         'C13 H11 N1 O5 S1'
_chemical_name_systematic        '3-Nitrophenyl 4-methylbenzenesulfonate'
_symmetry_cell_setting           monoclinic
_symmetry_space_group_name_H-M   'P 21/n'
_symmetry_Int_Tables_number      14
_space_group_name_Hall           '-P 2yn'
loop_
_symmetry_equiv_pos_site_id
_symmetry_equiv_pos_as_xyz
1 x,y,z
2 1/2-x,1/2+y,1/2-z
3 -x,-y,-z
4 1/2+x,1/2-y,1/2+z
_cell_length_a                   6.1048(15)
_cell_length_b                   13.047(3)
_cell_length_c                   16.204(4)
_cell_angle_alpha                90
_cell_angle_beta                 91.223(4)
_cell_angle_gamma                90
_cell_volume                     1290.34
_exptl_crystal_colour            colorless
_exptl_crystal_description       block
_cell_formula_units_Z            4
loop_
_atom_site_label
_atom_site_type_symbol
_atom_site_fract_x
_atom_site_fract_y
_atom_site_fract_z
C1 C 0.4381(3) 0.39525(13) 0.36722(11)
C2 C 0.3124(3) 0.46807(13) 0.40548(10)
H1 H 0.1808 0.4512 0.4300
C3 C 0.3915(3) 0.56762(13) 0.40576(10)
C4 C 0.5853(3) 0.59441(15) 0.37055(12)
H2 H 0.6353 0.6617 0.3727
C5 C 0.7046(3) 0.51914(16) 0.33182(13)
H3 H 0.8356 0.5362 0.3070
C6 C 0.6321(3) 0.41892(15) 0.32954(13)
H4 H 0.7123 0.3685 0.3032
C7 C 0.1189(3) 0.14074(12) 0.33583(11)
C8 C -0.0781(3) 0.15652(14) 0.37393(13)
H5 H -0.1348 0.2224 0.3782
C9 C -0.1896(3) 0.07530(16) 0.40541(13)
H6 H -0.3226 0.0863 0.4309
C10 C -0.1066(3) -0.02418(14) 0.39981(12)
C11 C 0.0944(3) -0.03777(15) 0.36415(12)
H7 H 0.1545 -0.1032 0.3623
C12 C 0.2091(3) 0.04334(14) 0.33112(12)
H8 H 0.3433 0.0329 0.3064
N1 N 0.2626(3) 0.64696(13) 0.44717(10)
C13 C -0.2356(4) -0.11389(18) 0.43066(16)
H9 H -0.2868 -0.0992 0.4850
H10 H -0.1438 -0.1736 0.4326
H11 H -0.3586 -0.1262 0.3941
O1 O 0.3423(3) 0.73212(11) 0.45408(12)
O2 O 0.0837(3) 0.62443(12) 0.47256(11)
O3 O 0.3670(2) 0.29222(9) 0.37136(8)
O4 O 0.0963(2) 0.31675(10) 0.26026(9)
O5 O 0.4163(2) 0.20935(11) 0.23727(9)
S1 S 0.25119(7) 0.24406(3) 0.29060(3)
loop_
_geom_bond_atom_site_label_1
_geom_bond_atom_site_label_2
_geom_bond_site_symmetry_1
_geom_bond_site_symmetry_2
C1 C2 1_555 1_555
C2 H1 1_555 1_555
C3 C2 1_555 1_555
C4 C3 1_555 1_555
H2 C4 1_555 1_555
C5 C4 1_555 1_555
H3 C5 1_555 1_555
C6 C1 1_555 1_555
H4 C6 1_555 1_555
C7 C8 1_555 1_555
C8 H5 1_555 1_555
C9 C8 1_555 1_555
H6 C9 1_555 1_555
C10 C9 1_555 1_555
C11 C10 1_555 1_555
H7 C11 1_555 1_555
C12 C7 1_555 1_555
H8 C12 1_555 1_555
N1 C3 1_555 1_555
C13 C10 1_555 1_555
H9 C13 1_555 1_555
H10 C13 1_555 1_555
H11 C13 1_555 1_555
O1 N1 1_555 1_555
O2 N1 1_555 1_555
O3 C1 1_555 1_555
O4 S1 1_555 1_555
O5 S1 1_555 1_555
S1 C7 1_555 1_555
C5 C6 1_555 1_555
C11 C12 1_555 1_555
O3 S1 1_555 1_555

#END
