
#######################################################################
#
#                 Cambridge Crystallographic Data Centre
#                                CCDC 
#
#######################################################################
#
# If this CIF has been generated from an entry in the Cambridge 
# Structural Database, then it will include bibliographic, chemical, 
# crystal, experimental, refinement or atomic coordinate data resulting 
# from the CCDC's data processing and validation procedures.
#
#######################################################################

data_FIHDOR
_chemical_formula_moiety         'C15 H27 N1 O1'
_chemical_name_systematic        (Z)-Azacyclohexadec-6-en-2-one
_symmetry_cell_setting           orthorhombic
_symmetry_space_group_name_H-M   'P b c a'
_symmetry_Int_Tables_number      61
_space_group_name_Hall           '-P 2ac 2ab'
loop_
_symmetry_equiv_pos_site_id
_symmetry_equiv_pos_as_xyz
1 x,y,z
2 1/2+x,1/2-y,-z
3 -x,1/2+y,1/2-z
4 1/2-x,-y,1/2+z
5 -x,-y,-z
6 1/2-x,1/2+y,z
7 x,1/2-y,1/2+z
8 1/2+x,y,1/2-z
_cell_length_a                   17.3448(8)
_cell_length_b                   9.6231(5)
_cell_length_c                   17.7549(8)
_cell_angle_alpha                90
_cell_angle_beta                 90
_cell_angle_gamma                90
_cell_volume                     2963.48
_exptl_crystal_colour            colorless
_exptl_crystal_description       needle
_cell_formula_units_Z            8
_exptl_crystal_recrystallization_method 'diethyl ether/hexane'
loop_
_atom_site_label
_atom_site_type_symbol
_atom_site_fract_x
_atom_site_fract_y
_atom_site_fract_z
O1 O 0.23884(6) 0.79967(9) 1.06311(6)
N1 N 0.28993(7) 0.58600(12) 1.06050(7)
H1 H 0.2813(8) 0.5004(13) 1.0625(8)
C1 C 0.23122(8) 0.67216(14) 1.07017(7)
C2 C 0.36557(8) 0.63511(15) 1.03862(9)
H2 H 0.4049 0.5673 1.0556
H3 H 0.3761 0.7245 1.0642
C3 C 0.37290(9) 0.65535(15) 0.95405(9)
H4 H 0.4229 0.7007 0.9431
H5 H 0.3315 0.7185 0.9368
C4 C 0.36800(9) 0.52035(16) 0.90989(9)
H6 H 0.3180 0.4751 0.9211
H7 H 0.4094 0.4573 0.9274
C5 C 0.37523(9) 0.53831(18) 0.82486(9)
H8 H 0.4212 0.5962 0.8144
H9 H 0.3843 0.4459 0.8020
C6 C 0.30602(9) 0.60419(16) 0.78635(9)
H10 H 0.3211 0.6314 0.7346
H11 H 0.2921 0.6900 0.8139
C7 C 0.23516(9) 0.51136(15) 0.78172(9)
H12 H 0.2486 0.4255 0.7540
H13 H 0.2195 0.4843 0.8333
C8 C 0.16758(9) 0.58140(17) 0.74279(9)
H14 H 0.1845 0.6126 0.6923
H15 H 0.1531 0.6651 0.7720
C9 C 0.09635(10) 0.49046(18) 0.73367(8)
H16 H 0.1121 0.4007 0.7112
H17 H 0.0607 0.5362 0.6979
C10 C 0.05287(9) 0.46157(16) 0.80737(8)
H18 H 0.0106 0.3950 0.7974
H19 H 0.0886 0.4180 0.8439
C11 C 0.02002(9) 0.59080(16) 0.84107(9)
H20 H -0.0226 0.6308 0.8153
C12 C 0.04315(8) 0.65600(16) 0.90236(9)
H21 H 0.0163 0.7390 0.9147
C13 C 0.10659(8) 0.61479(16) 0.95461(8)
H22 H 0.1552 0.6586 0.9376
H23 H 0.1135 0.5128 0.9521
C14 C 0.09125(8) 0.65669(15) 1.03628(8)
H24 H 0.0869 0.7591 1.0392
H25 H 0.0414 0.6166 1.0525
C15 C 0.15428(8) 0.60850(15) 1.09001(8)
H26 H 0.1403 0.6348 1.1421
H27 H 0.1584 0.5060 1.0879
loop_
_geom_bond_atom_site_label_1
_geom_bond_atom_site_label_2
_geom_bond_site_symmetry_1
_geom_bond_site_symmetry_2
O1 C1 1_555 1_555
N1 H1 1_555 1_555
C1 N1 1_555 1_555
C2 N1 1_555 1_555
H2 C2 1_555 1_555
H3 C2 1_555 1_555
C3 C2 1_555 1_555
H4 C3 1_555 1_555
H5 C3 1_555 1_555
C4 C3 1_555 1_555
H6 C4 1_555 1_555
H7 C4 1_555 1_555
C5 C4 1_555 1_555
H8 C5 1_555 1_555
H9 C5 1_555 1_555
C6 C5 1_555 1_555
H10 C6 1_555 1_555
H11 C6 1_555 1_555
C7 C6 1_555 1_555
H12 C7 1_555 1_555
H13 C7 1_555 1_555
C8 C7 1_555 1_555
H14 C8 1_555 1_555
H15 C8 1_555 1_555
C9 C8 1_555 1_555
H16 C9 1_555 1_555
H17 C9 1_555 1_555
C10 C9 1_555 1_555
H18 C10 1_555 1_555
H19 C10 1_555 1_555
C11 C10 1_555 1_555
H20 C11 1_555 1_555
C12 C11 1_555 1_555
H21 C12 1_555 1_555
C13 C12 1_555 1_555
H22 C13 1_555 1_555
H23 C13 1_555 1_555
C14 C13 1_555 1_555
H24 C14 1_555 1_555
H25 C14 1_555 1_555
C15 C1 1_555 1_555
H26 C15 1_555 1_555
H27 C15 1_555 1_555
C14 C15 1_555 1_555

#END
