
#######################################################################
#
#                 Cambridge Crystallographic Data Centre
#                                CCDC 
#
#######################################################################
#
# If this CIF has been generated from an entry in the Cambridge 
# Structural Database, then it will include bibliographic, chemical, 
# crystal, experimental, refinement or atomic coordinate data resulting 
# from the CCDC's data processing and validation procedures.
#
#######################################################################

data_FIHDIM
_chemical_formula_moiety         'C19 H34 Cl2 P1 1+,Be1 Cl3 1-'
_chemical_name_systematic        
'tricyclohexyl(dichloromethyl)phosphonium trichloroberyllate'
_symmetry_cell_setting           monoclinic
_symmetry_space_group_name_H-M   'C 2/c'
_symmetry_Int_Tables_number      15
_space_group_name_Hall           '-C 2yn'
loop_
_symmetry_equiv_pos_site_id
_symmetry_equiv_pos_as_xyz
1 x,y,z
2 -x,y,1/2-z
3 1/2+x,1/2+y,z
4 1/2-x,1/2+y,1/2-z
5 -x,-y,-z
6 x,-y,1/2+z
7 1/2-x,1/2-y,-z
8 1/2+x,1/2-y,1/2+z
_cell_length_a                   18.0373(9)
_cell_length_b                   9.9901(5)
_cell_length_c                   26.0065(13)
_cell_angle_alpha                90
_cell_angle_beta                 91.943(2)
_cell_angle_gamma                90
_cell_volume                     4683.53
_exptl_crystal_colour            colorless
_exptl_crystal_description       block
_cell_formula_units_Z            8
_chemical_properties_physical    Air-sensitive,Moisture-sensitive
loop_
_atom_site_label
_atom_site_type_symbol
_atom_site_fract_x
_atom_site_fract_y
_atom_site_fract_z
Cl1 Cl 0.69451(2) 0.44259(4) 0.82065(2)
Cl2 Cl 0.60120(2) 0.68070(4) 0.87819(2)
Cl3 Cl 0.68963(3) 0.44635(4) 0.94770(2)
Be1 Be 0.66140(12) 0.5240(2) 0.88273(8)
Cl4 Cl 0.56319(2) 0.34364(5) 0.70313(2)
Cl5 Cl 0.71339(2) 0.23660(4) 0.69765(2)
P1 P 0.67058(2) 0.48118(4) 0.63585(2)
C1 C 0.65796(8) 0.38231(16) 0.69489(6)
H1 H 0.6743 0.4400 0.7246
C2 C 0.63433(8) 0.39747(15) 0.57787(5)
H2 H 0.6527 0.4505 0.5483
C3 C 0.66610(9) 0.25526(15) 0.57174(6)
H3 H 0.7210 0.2588 0.5740
H4 H 0.6491 0.1974 0.5999
C4 C 0.64060(9) 0.19583(16) 0.51981(6)
H5 H 0.6613 0.2494 0.4917
H6 H 0.6596 0.1033 0.5170
C5 C 0.55608(8) 0.19452(16) 0.51408(6)
H7 H 0.5409 0.1584 0.4799
H8 H 0.5354 0.1355 0.5406
C6 C 0.52521(9) 0.33580(16) 0.51989(6)
H9 H 0.4704 0.3328 0.5169
H10 H 0.5430 0.3929 0.4917
C7 C 0.54898(8) 0.39755(16) 0.57169(6)
H11 H 0.5275 0.3455 0.6000
H12 H 0.5302 0.4905 0.5736
C8 C 0.61875(8) 0.63536(15) 0.64606(6)
H13 H 0.5650 0.6113 0.6422
C9 C 0.63351(10) 0.74018(16) 0.60409(7)
H14 H 0.6861 0.7686 0.6067
H15 H 0.6242 0.6998 0.5697
C10 C 0.58307(10) 0.86221(17) 0.61024(8)
H16 H 0.5948 0.9304 0.5841
H17 H 0.5307 0.8351 0.6045
C11 C 0.59345(11) 0.92229(18) 0.66379(9)
H18 H 0.6448 0.9565 0.6684
H19 H 0.5590 0.9986 0.6674
C12 C 0.57880(11) 0.8185(2) 0.70493(8)
H20 H 0.5264 0.7891 0.7017
H21 H 0.5868 0.8595 0.7393
C13 C 0.62984(10) 0.69631(19) 0.70034(7)
H22 H 0.6178 0.6289 0.7267
H23 H 0.6822 0.7237 0.7061
C14 C 0.77086(8) 0.49736(15) 0.63165(5)
H24 H 0.7908 0.4041 0.6302
C15 C 0.80776(8) 0.56268(17) 0.67978(6)
H25 H 0.7902 0.6561 0.6830
H26 H 0.7937 0.5131 0.7109
C16 C 0.89229(9) 0.56115(18) 0.67558(6)
H27 H 0.9155 0.6068 0.7058
H28 H 0.9101 0.4674 0.6755
C17 C 0.91559(9) 0.63120(17) 0.62647(6)
H29 H 0.9702 0.6265 0.6240
H30 H 0.9012 0.7267 0.6277
C18 C 0.87876(8) 0.56523(17) 0.57911(6)
H31 H 0.8936 0.6132 0.5478
H32 H 0.8960 0.4715 0.5766
C19 C 0.79439(8) 0.56717(17) 0.58201(6)
H33 H 0.7719 0.5206 0.5517
H34 H 0.7765 0.6609 0.5816
loop_
_geom_bond_atom_site_label_1
_geom_bond_atom_site_label_2
_geom_bond_site_symmetry_1
_geom_bond_site_symmetry_2
Cl1 Be1 1_555 1_555
Cl2 Be1 1_555 1_555
Cl3 Be1 1_555 1_555
Cl4 C1 1_555 1_555
Cl5 C1 1_555 1_555
P1 C1 1_555 1_555
C1 H1 1_555 1_555
C2 P1 1_555 1_555
H2 C2 1_555 1_555
C3 C2 1_555 1_555
H3 C3 1_555 1_555
H4 C3 1_555 1_555
C4 C3 1_555 1_555
H5 C4 1_555 1_555
H6 C4 1_555 1_555
C5 C4 1_555 1_555
H7 C5 1_555 1_555
H8 C5 1_555 1_555
C6 C5 1_555 1_555
H9 C6 1_555 1_555
H10 C6 1_555 1_555
C7 C2 1_555 1_555
H11 C7 1_555 1_555
H12 C7 1_555 1_555
C8 P1 1_555 1_555
H13 C8 1_555 1_555
C9 C8 1_555 1_555
H14 C9 1_555 1_555
H15 C9 1_555 1_555
C10 C9 1_555 1_555
H16 C10 1_555 1_555
H17 C10 1_555 1_555
C11 C10 1_555 1_555
H18 C11 1_555 1_555
H19 C11 1_555 1_555
C12 C11 1_555 1_555
H20 C12 1_555 1_555
H21 C12 1_555 1_555
C13 C8 1_555 1_555
H22 C13 1_555 1_555
H23 C13 1_555 1_555
C14 P1 1_555 1_555
H24 C14 1_555 1_555
C15 C14 1_555 1_555
H25 C15 1_555 1_555
H26 C15 1_555 1_555
C16 C15 1_555 1_555
H27 C16 1_555 1_555
H28 C16 1_555 1_555
C17 C16 1_555 1_555
H29 C17 1_555 1_555
H30 C17 1_555 1_555
C18 C17 1_555 1_555
H31 C18 1_555 1_555
H32 C18 1_555 1_555
C19 C14 1_555 1_555
H33 C19 1_555 1_555
H34 C19 1_555 1_555
C6 C7 1_555 1_555
C12 C13 1_555 1_555
C18 C19 1_555 1_555

#END
