
#######################################################################
#
#                 Cambridge Crystallographic Data Centre
#                                CCDC 
#
#######################################################################
#
# If this CIF has been generated from an entry in the Cambridge 
# Structural Database, then it will include bibliographic, chemical, 
# crystal, experimental, refinement or atomic coordinate data resulting 
# from the CCDC's data processing and validation procedures.
#
#######################################################################

data_FIHNIV
_chemical_formula_moiety         'C5 H11 N3 O2'
_chemical_name_systematic        5-(2-Hydroxyethyl)-1,3,5-triazinan-2-one
_symmetry_cell_setting           monoclinic
_symmetry_space_group_name_H-M   'P 21'
_symmetry_Int_Tables_number      4
_space_group_name_Hall           'P 2yb'
loop_
_symmetry_equiv_pos_site_id
_symmetry_equiv_pos_as_xyz
1 x,y,z
2 -x,1/2+y,-z
_cell_length_a                   5.0490(10)
_cell_length_b                   8.3030(10)
_cell_length_c                   8.1960(10)
_cell_angle_alpha                90
_cell_angle_beta                 97.448(4)
_cell_angle_gamma                90
_cell_volume                     340.693
_exptl_crystal_colour            colorless
_exptl_crystal_description       plate
_cell_formula_units_Z            2
loop_
_atom_site_label
_atom_site_type_symbol
_atom_site_fract_x
_atom_site_fract_y
_atom_site_fract_z
O1 O 0.0106(3) 0.51634(17) 0.98515(15)
O2 O -0.0738(3) 0.66053(18) 0.26187(15)
H1 H -0.054(5) 0.616(4) 0.165(4)
N1 N 0.2424(3) 0.72832(18) 0.89809(19)
H2 H 0.145(5) 0.794(3) 0.959(3)
N2 N 0.2942(3) 0.47307(19) 0.79772(19)
H3 H 0.237(5) 0.368(4) 0.779(3)
N3 N 0.4121(3) 0.69919(19) 0.63683(17)
C1 C 0.1782(3) 0.5708(2) 0.89830(19)
C2 C 0.4763(3) 0.5342(2) 0.6862(2)
H4 H 0.6622 0.5293 0.7419
H5 H 0.4640 0.4650 0.5872
C3 C 0.4196(4) 0.7941(2) 0.7856(2)
H6 H 0.3651 0.9060 0.7562
H7 H 0.6049 0.7970 0.8424
C4 C 0.1575(3) 0.7137(2) 0.5284(2)
H8 H 0.1079 0.8288 0.5156
H9 H 0.0154 0.6579 0.5791
C5 C 0.1776(4) 0.6414(2) 0.3608(2)
H10 H 0.3189 0.6967 0.3089
H11 H 0.2237 0.5257 0.3720
loop_
_geom_bond_atom_site_label_1
_geom_bond_atom_site_label_2
_geom_bond_site_symmetry_1
_geom_bond_site_symmetry_2
O1 C1 1_555 1_555
O2 H1 1_555 1_555
N1 H2 1_555 1_555
N2 H3 1_555 1_555
N3 C2 1_555 1_555
C1 N1 1_555 1_555
C2 N2 1_555 1_555
H4 C2 1_555 1_555
H5 C2 1_555 1_555
C3 N1 1_555 1_555
H6 C3 1_555 1_555
H7 C3 1_555 1_555
C4 N3 1_555 1_555
H8 C4 1_555 1_555
H9 C4 1_555 1_555
C5 O2 1_555 1_555
H10 C5 1_555 1_555
H11 C5 1_555 1_555
N2 C1 1_555 1_555
N3 C3 1_555 1_555
C4 C5 1_555 1_555

#END
